drugbank_target|Q8WTV0 Scavenger receptor class B member 1 (DB00144)
 OpenBabel12092119263D

  0  0  0     0  0            999 V3000
M  V30 BEGIN CTAB
M  V30 COUNTS 8552 8672 0 0 0
M  V30 BEGIN ATOM
M  V30 1 H -0.908 1.98254 -0.117106 0
M  V30 2 N 0 1.576 0 0
M  V30 3 C 0.933 2.03868 1.02534 0
M  V30 4 C 1.911 0.928543 1.3348 0
M  V30 5 O 3.095 1.19667 1.45644 0
M  V30 6 C 0.222 2.43627 2.35294 0
M  V30 7 C -0.732 3.65373 2.2001 0
M  V30 8 S 0.101 5.13292 1.52614 0
M  V30 9 C 1.257 5.56322 2.86805 0
M  V30 10 H 1.49 2.90518 0.631377 0
M  V30 11 H -0.977 1.52953 0.210867 0
M  V30 12 H 0.981 2.67203 3.11629 0
M  V30 13 H -0.358 1.57376 2.7183 0
M  V30 14 H -1.165 3.90944 3.18086 0
M  V30 15 H -1.563 3.418 1.51819 0
M  V30 16 H 0.729 5.58782 3.83104 0
M  V30 17 H 1.672 6.56266 2.65933 0
M  V30 18 H 2.08 4.83886 2.90714 0
M  V30 19 N 1.4781 -0.272755 1.55222 0
M  V30 20 C 2.7261 -1.00234 1.75492 0
M  V30 21 C 3.0471 -1.8681 0.5592 0
M  V30 22 O 2.3171 -1.91215 -0.425882 0
M  V30 23 H 0.8971 -0.373076 0.647166 0
M  V30 24 H 3.5591 -0.296926 1.92625 0
M  V30 25 H 2.6551 -1.63913 2.65592 0
M  V30 26 N 2.9562 -1.48159 -0.537278 0
M  V30 27 C 4.1962 -1.57397 -1.30405 0
M  V30 28 C 4.5602 -0.239202 -1.90504 0
M  V30 29 O 5.7612 -0.206528 -2.68005 0
M  V30 30 C 4.0322 -2.6754 -2.36974 0
M  V30 31 S 5.5912 -2.96496 -3.23475 0
M  V30 32 H 2.4092 -0.555577 -0.443684 0
M  V30 33 H 5.0112 -1.85644 -0.612912 0
M  V30 34 H 3.7152 -3.63092 -1.91291 0
M  V30 35 H 3.2462 -2.41172 -3.10805 0
M  V30 36 H 5.2612 -2.35234 -4.36897 0
M  V30 37 N 4.4343 0.785586 -1.36625 0
M  V30 38 C 5.6593 1.57963 -1.34397 0
M  V30 39 C 6.0843 1.87964 0.071526 0
M  V30 40 O 5.4423 1.48182 1.0446 0
M  V30 41 C 5.4903 2.87511 -2.17646 0
M  V30 42 O 4.5943 3.81281 -1.57158 0
M  V30 43 H 3.9353 0.479014 -0.459828 0
M  V30 44 H 6.4653 0.973411 -1.79961 0
M  V30 45 H 6.4753 3.36745 -2.30362 0
M  V30 46 H 5.1503 2.65002 -3.20541 0
M  V30 47 H 3.7273 3.39885 -1.53403 0
M  V30 48 N 5.9124 1.20967 1.01018 0
M  V30 49 C 6.8754 0.965918 2.07853 0
M  V30 50 C 7.8754 -0.0610545 1.60684 0
M  V30 51 O 9.0654 0.175681 1.73312 0
M  V30 52 C 6.1974 0.455513 3.37843 0
M  V30 53 H 7.3904 1.91365 2.3091 0
M  V30 54 H 4.9434 1.02594 1.17916 0
M  V30 55 H 5.6784 -0.497381 3.20463 0
M  V30 56 H 5.4634 1.19622 3.73407 0
M  V30 57 H 6.9534 0.304667 4.16487 0
M  V30 58 N 7.3905 -1.2043 1.01659 0
M  V30 59 C 8.3375 -2.23215 0.586822 0
M  V30 60 C 9.3075 -1.61382 -0.393085 0
M  V30 61 O 10.4925 -1.88544 -0.292525 0
M  V30 62 C 7.6325 -3.45032 -0.0687464 0
M  V30 63 C 6.7455 -4.21296 0.955724 0
M  V30 64 C 5.8805 -5.30507 0.271208 0
M  V30 65 C 4.9195 -5.98515 1.28244 0
M  V30 66 N 4.0565 -6.99316 0.62459 0
M  V30 67 H 8.8965 -2.59336 1.46796 0
M  V30 68 H 6.4335 -1.27431 0.734836 0
M  V30 69 H 8.3915 -4.1459 -0.465965 0
M  V30 70 H 7.0215 -3.09604 -0.913529 0
M  V30 71 H 6.0735 -3.50803 1.4711 0
M  V30 72 H 7.3855 -4.6803 1.72479 0
M  V30 73 H 6.5395 -6.06428 -0.18151 0
M  V30 74 H 5.2785 -4.8481 -0.530163 0
M  V30 75 H 4.2835 -5.21355 1.74554 0
M  V30 76 H 5.5085 -6.46298 2.08509 0
M  V30 77 H 3.4545 -6.55812 -0.156914 0
M  V30 78 H 3.3715 -7.44178 1.33172 0
M  V30 79 H 4.6395 -7.79255 0.195462 0
M  V30 80 N 8.8686 -0.792821 -1.36206 0
M  V30 81 C 9.8316 -0.199459 -2.2833 0
M  V30 82 C 10.8316 0.605189 -1.48977 0
M  V30 83 O 12.0216 0.425685 -1.68919 0
M  V30 84 C 9.1536 0.723523 -3.33134 0
M  V30 85 H 10.3466 -1.01181 -2.82316 0
M  V30 86 H 7.8996 -0.562485 -1.45828 0
M  V30 87 H 8.6346 1.56008 -2.84309 0
M  V30 88 H 8.4196 0.148436 -3.91819 0
M  V30 89 H 9.9096 1.13344 -4.01924 0
M  V30 90 N 10.3467 1.47872 -0.545128 0
M  V30 91 C 11.7627 1.5829 -0.204032 0
M  V30 92 C 11.9627 1.54529 1.29317 0
M  V30 93 O 11.0187 1.44232 2.07252 0
M  V30 94 C 12.3317 2.89304 -0.819987 0
M  V30 95 C 13.8797 3.02864 -0.790105 0
M  V30 96 C 14.3547 4.3656 -1.38491 0
M  V30 97 N 15.8457 4.43165 -1.34755 0
M  V30 98 C 16.5807 5.45153 -1.77753 0
M  V30 99 N 16.0767 6.54016 -2.2855 0
M  V30 100 N 17.8697 5.36125 -1.68897 0
M  V30 101 H 10.0207 1.4856 -1.51802 0
M  V30 102 H 12.2837 0.706305 -0.632327 0
M  V30 103 H 11.9897 2.97757 -1.87173 0
M  V30 104 H 11.8637 3.75957 -0.305915 0
M  V30 105 H 14.2507 2.94014 0.252913 0
M  V30 106 H 14.3317 2.17782 -1.34181 0
M  V30 107 H 13.9757 4.46164 -2.42693 0
M  V30 108 H 13.9057 5.20353 -0.808754 0
M  V30 109 H 16.3967 3.65083 -0.975855 0
M  V30 110 H 16.7097 7.27994 -2.59314 0
M  V30 111 H 15.0547 6.54938 -2.32553 0
M  V30 112 H 18.2457 4.49975 -1.28998 0
M  V30 113 H 18.4187 6.15472 -2.02726 0
M  V30 114 N 11.8248 0.280983 1.55075 0
M  V30 115 C 13.0708 -0.327573 2.00745 0
M  V30 116 C 13.4258 -1.53045 1.16598 0
M  V30 117 O 12.7188 -1.90221 0.229451 0
M  V30 118 C 12.9128 -0.754656 3.49342 0
M  V30 119 C 12.7418 0.40529 4.4787 0
M  V30 120 C 11.5118 0.890947 4.97383 0
M  V30 121 C 13.7098 1.24371 4.99035 0
M  V30 122 N 11.6918 2.01975 5.79724 0
M  V30 123 C 13.0628 2.22031 5.7888 0
M  V30 124 C 15.1178 1.27638 4.81262 0
M  V30 125 C 13.8208 3.22709 6.42846 0
M  V30 126 C 15.8468 2.27164 5.46031 0
M  V30 127 C 15.2088 3.23556 6.25692 0
M  V30 128 H 11.3078 -0.0848774 0.77738 0
M  V30 129 H 13.8918 0.406342 1.90413 0
M  V30 130 H 12.0628 -1.45778 3.60005 0
M  V30 131 H 13.7948 -1.34105 3.81835 0
M  V30 132 H 10.5498 0.469262 4.71269 0
M  V30 133 H 10.9738 2.58794 6.25584 0
M  V30 134 H 15.6158 0.544936 4.19274 0
M  V30 135 H 13.3338 3.96784 7.0398 0
M  V30 136 H 16.9198 2.30441 5.34217 0
M  V30 137 H 15.7998 3.99309 6.74924 0
M  V30 138 N 13.3029 -1.57598 0.00835791 0
M  V30 139 C 14.2659 -2.07884 -0.965242 0
M  V30 140 C 15.2659 -0.989825 -1.26725 0
M  V30 141 O 16.4559 -1.25218 -1.21104 0
M  V30 142 C 13.5879 -2.52731 -2.28779 0
M  V30 143 H 14.7809 -2.95178 -0.530112 0
M  V30 144 H 12.3339 -1.54458 -0.239283 0
M  V30 145 H 13.0689 -1.68705 -2.76964 0
M  V30 146 H 12.8539 -3.32272 -2.08177 0
M  V30 147 H 14.3439 -2.91933 -2.98605 0
M  V30 148 N 14.781 0.264519 -1.55364 0
M  V30 149 C 15.744 1.31046 -1.88042 0
M  V30 150 C 16.744 1.41943 -0.755569 0
M  V30 151 O 17.934 1.40947 -1.02369 0
M  V30 152 C 15.066 2.69067 -2.09323 0
M  V30 153 H 16.259 1.03297 -2.81549 0
M  V30 154 H 13.812 0.502989 -1.47986 0
M  V30 155 H 14.547 3.01982 -1.18226 0
M  V30 156 H 14.332 2.62542 -2.91229 0
M  V30 157 H 15.822 3.44623 -2.35848 0
M  V30 158 N 16.2591 1.48442 0.529413 0
M  V30 159 C 17.5071 1.56179 1.28267 0
M  V30 160 C 17.8281 0.237721 1.93546 0
M  V30 161 O 17.0981 -0.740779 1.81354 0
M  V30 162 H 15.6781 0.575367 0.476405 0
M  V30 163 H 18.3401 1.84909 0.61602 0
M  V30 164 H 17.4361 2.34312 2.06165 0
M  V30 165 N 17.7372 -0.778329 1.37039 0
M  V30 166 C 18.7002 -1.87301 1.32102 0
M  V30 167 C 19.7002 -1.59198 0.226405 0
M  V30 168 O 20.8902 -1.67403 0.481861 0
M  V30 169 C 18.0222 -3.24309 1.05055 0
M  V30 170 H 19.2152 -1.93093 2.29467 0
M  V30 171 H 16.7682 -0.977358 1.21973 0
M  V30 172 H 17.5032 -3.24196 0.0819373 0
M  V30 173 H 17.2882 -3.46098 1.84279 0
M  V30 174 H 18.7782 -4.04382 1.04234 0
M  V30 175 N 19.2153 -1.21501 -1.00376 0
M  V30 176 C 20.1453 -0.999478 -2.11028 0
M  V30 177 C 21.1263 0.0759671 -1.6993 0
M  V30 178 O 22.3113 -0.0841106 -1.94018 0
M  V30 179 C 19.4413 -0.564709 -3.42678 0
M  V30 180 C 18.3953 -1.58486 -3.97576 0
M  V30 181 C 17.7213 -1.00628 -5.25146 0
M  V30 182 C 19.0213 -2.97204 -4.29496 0
M  V30 183 H 20.7153 -1.92495 -2.29317 0
M  V30 184 H 18.2613 -0.92693 -1.102 0
M  V30 185 H 20.2143 -0.401091 -4.19487 0
M  V30 186 H 18.9383 0.396411 -3.24185 0
M  V30 187 H 17.5973 -1.73606 -3.22888 0
M  V30 188 H 17.2453 -0.0368439 -5.02987 0
M  V30 189 H 16.9453 -1.68771 -5.62841 0
M  V30 190 H 18.4693 -0.854015 -6.04598 0
M  V30 191 H 19.8833 -2.8552 -4.97143 0
M  V30 192 H 18.2803 -3.62372 -4.78338 0
M  V30 193 H 19.3503 -3.47956 -3.3772 0
M  V30 194 N 20.6934 1.19889 -1.02296 0
M  V30 195 C 21.9414 1.89046 -0.714558 0
M  V30 196 C 22.2624 1.79636 0.758681 0
M  V30 197 O 21.5324 1.20292 1.54618 0
M  V30 198 H 20.1124 0.699802 -0.261317 0
M  V30 199 H 22.7744 1.45574 -1.29592 0
M  V30 200 H 21.8704 2.95524 -1.0036 0
M  V30 201 N 22.1715 0.800033 1.35784 0
M  V30 202 C 23.4175 0.377901 1.99248 0
M  V30 203 C 23.7505 -1.05052 1.63333 0
M  V30 204 O 23.0255 -1.72768 0.893385 0
M  V30 205 C 23.3085 0.553922 3.55814 0
M  V30 206 C 23.1615 2.0268 4.01548 0
M  V30 207 C 24.4805 -0.0244802 4.40093 0
M  V30 208 H 21.5995 0.138782 0.723815 0
M  V30 209 H 24.2415 1.00835 1.61035 0
M  V30 210 H 22.3915 0.0172398 3.88496 0
M  V30 211 H 24.0635 2.62536 3.79305 0
M  V30 212 H 22.3065 2.5256 3.52698 0
M  V30 213 H 22.9775 2.10087 5.10458 0
M  V30 214 H 25.4535 0.433775 4.13833 0
M  V30 215 H 24.3295 0.128637 5.48749 0
M  V30 216 H 24.5905 -1.11758 4.27741 0
M  V30 217 N 23.6496 -1.47581 0.552962 0
M  V30 218 C 24.6126 -2.28439 -0.186605 0
M  V30 219 C 25.6126 -1.36706 -0.84665 0
M  V30 220 O 26.8026 -1.59378 -0.703164 0
M  V30 221 C 23.9346 -3.16264 -1.2724 0
M  V30 222 H 25.1276 -2.95294 0.523609 0
M  V30 223 H 22.6806 -1.532 0.309745 0
M  V30 224 H 23.4156 -2.54091 -2.01514 0
M  V30 225 H 23.2006 -3.83769 -0.803968 0
M  V30 226 H 24.6906 -3.77198 -1.79196 0
M  V30 227 N 25.1277 -0.289203 -1.54924 0
M  V30 228 C 26.3757 0.322879 -1.99504 0
M  V30 229 C 26.6967 1.55313 -1.1791 0
M  V30 230 O 25.9667 1.94001 -0.272097 0
M  V30 231 H 24.5467 0.122291 -0.736922 0
M  V30 232 H 27.2087 -0.397802 -1.90797 0
M  V30 233 H 26.3047 0.603061 -3.06218 0
M  V30 234 N 26.6058 1.57591 -0.0167156 0
M  V30 235 C 27.5358 2.12496 0.967858 0
M  V30 236 C 28.5168 1.03807 1.34752 0
M  V30 237 O 29.7018 1.31577 1.42833 0
M  V30 238 C 26.8318 2.64194 2.25431 0
M  V30 239 C 25.7858 3.77559 2.01576 0
M  V30 240 C 25.1118 4.15636 3.36379 0
M  V30 241 C 26.4118 5.04151 1.36489 0
M  V30 242 H 28.1058 2.95013 0.510643 0
M  V30 243 H 25.6518 1.41915 0.244181 0
M  V30 244 H 27.6048 3.01236 2.94678 0
M  V30 245 H 26.3288 1.78821 2.73296 0
M  V30 246 H 24.9878 3.40937 1.34751 0
M  V30 247 H 24.6358 3.27263 3.81979 0
M  V30 248 H 24.3358 4.92022 3.21229 0
M  V30 249 H 25.8598 4.5525 4.06915 0
M  V30 250 H 27.2738 5.38857 1.95718 0
M  V30 251 H 25.6708 5.85453 1.31776 0
M  V30 252 H 26.7408 4.83733 0.336219 0
M  V30 253 N 28.0839 -0.256276 1.55502 0
M  V30 254 C 29.0139 -1.32102 1.92539 0
M  V30 255 C 29.9949 -1.50684 0.789194 0
M  V30 256 O 31.1799 -1.63449 1.04872 0
M  V30 257 C 28.3099 -2.67752 2.21192 0
M  V30 258 C 27.2639 -2.63878 3.36975 0
M  V30 259 C 26.5899 -4.03236 3.51147 0
M  V30 260 C 27.8899 -2.21682 4.72921 0
M  V30 261 H 29.5839 -1.01351 2.81724 0
M  V30 262 H 27.1299 -0.486105 1.35547 0
M  V30 263 H 29.0829 -3.42365 2.45691 0
M  V30 264 H 27.8069 -3.0012 1.28824 0
M  V30 265 H 26.4659 -1.91722 3.12471 0
M  V30 266 H 26.1139 -4.32854 2.56216 0
M  V30 267 H 25.8139 -4.01535 4.29003 0
M  V30 268 H 27.3379 -4.79563 3.77957 0
M  V30 269 H 28.7519 -2.86023 4.96854 0
M  V30 270 H 27.1489 -2.3111 5.53812 0
M  V30 271 H 28.2189 -1.16833 4.70615 0
M  V30 272 N 29.562 -1.4872 -0.521534 0
M  V30 273 C 30.802 -1.58771 -1.28729 0
M  V30 274 C 31.166 -0.259394 -1.9024 0
M  V30 275 O 32.367 -0.234942 -2.67771 0
M  V30 276 C 30.638 -2.70039 -2.34124 0
M  V30 277 S 32.197 -2.9991 -3.20312 0
M  V30 278 H 29.015 -0.560251 -0.437767 0
M  V30 279 H 31.617 -1.86283 -0.593188 0
M  V30 280 H 30.321 -3.65101 -1.87429 0
M  V30 281 H 29.852 -2.44455 -3.08229 0
M  V30 282 H 31.867 -2.39855 -4.34378 0
M  V30 283 N 31.0401 0.771051 -1.3745 0
M  V30 284 C 32.0031 1.86598 -1.33093 0
M  V30 285 C 33.0031 1.59076 -0.234845 0
M  V30 286 O 34.1931 1.67145 -0.490732 0
M  V30 287 C 31.3251 3.23747 -1.06773 0
M  V30 288 H 32.5181 1.91873 -2.30488 0
M  V30 289 H 30.0711 0.970876 -1.2249 0
M  V30 290 H 30.8061 3.24148 -0.099129 0
M  V30 291 H 30.5911 3.45115 -1.86112 0
M  V30 292 H 32.0811 4.03824 -1.06377 0
M  V30 293 N 32.5182 1.22032 0.997298 0
M  V30 294 C 33.7642 1.04376 1.73878 0
M  V30 295 C 34.0972 -0.420716 1.89588 0
M  V30 296 O 33.3722 -1.31202 1.43583 0
M  V30 297 C 33.6552 1.75047 3.14691 0
M  V30 298 C 33.5082 3.29062 3.06656 0
M  V30 299 C 34.8272 1.49928 4.13775 0
M  V30 300 H 31.9462 0.380578 0.631133 0
M  V30 301 H 34.5882 1.50312 1.16217 0
M  V30 302 H 32.7382 1.35996 3.63919 0
M  V30 303 H 34.4102 3.7753 2.65083 0
M  V30 304 H 32.6532 3.58967 2.43568 0
M  V30 305 H 33.3242 3.73683 4.06282 0
M  V30 306 H 35.8002 1.83842 3.73285 0
M  V30 307 H 34.6762 2.01878 5.10428 0
M  V30 308 H 34.9372 0.430929 4.39995 0
M  V30 309 N 33.9963 -1.19345 1.0293 0
M  V30 310 C 34.9263 -2.2481 0.631105 0
M  V30 311 C 35.9073 -1.66245 -0.360104 0
M  V30 312 O 37.0923 -1.92677 -0.242726 0
M  V30 313 C 34.2223 -3.47295 -0.0184607 0
M  V30 314 C 33.1763 -4.18536 0.895073 0
M  V30 315 C 32.5023 -5.34586 0.110592 0
M  V30 316 C 33.8023 -4.73287 2.209 0
M  V30 317 H 35.4963 -2.58372 1.51275 0
M  V30 318 H 33.0423 -1.24194 0.728818 0
M  V30 319 H 34.9953 -4.20268 -0.308675 0
M  V30 320 H 33.7193 -3.12933 -0.934907 0
M  V30 321 H 32.3783 -3.47446 1.16949 0
M  V30 322 H 32.0263 -4.96469 -0.807902 0
M  V30 323 H 31.7263 -5.83183 0.719087 0
M  V30 324 H 33.2503 -6.10355 -0.172871 0
M  V30 325 H 34.6643 -5.38013 1.98028 0
M  V30 326 H 33.0613 -5.32373 2.76946 0
M  V30 327 H 34.1313 -3.91331 2.86336 0
M  V30 328 N 35.4744 -0.807222 -1.35358 0
M  V30 329 C 36.7224 -0.387122 -1.98358 0
M  V30 330 C 37.0434 1.04942 -1.64354 0
M  V30 331 O 36.3134 1.72615 -0.926339 0
M  V30 332 H 34.8934 -0.140154 -0.733734 0
M  V30 333 H 37.5554 -1.0332 -1.6526 0
M  V30 334 H 36.6514 -0.493352 -3.08176 0
M  V30 335 N 36.9525 1.47285 -0.560781 0
M  V30 336 C 37.9155 2.28535 0.174488 0
M  V30 337 C 38.9155 1.37153 0.839388 0
M  V30 338 O 40.1055 1.59748 0.694702 0
M  V30 339 C 37.2375 3.16934 1.25561 0
M  V30 340 H 38.4305 2.95012 -0.539262 0
M  V30 341 H 35.9835 1.53034 -0.317865 0
M  V30 342 H 36.7185 2.55157 2.00164 0
M  V30 343 H 36.5035 3.8419 0.783604 0
M  V30 344 H 37.9935 3.78143 1.77193 0
M  V30 345 N 38.4306 0.297415 1.54768 0
M  V30 346 C 39.6766 -0.313376 2.00364 0
M  V30 347 C 40.0096 -1.53815 1.18553 0
M  V30 348 O 39.2846 -1.92739 0.261103 0
M  V30 349 C 39.5676 -0.673525 3.53745 0
M  V30 350 C 39.4206 0.560133 4.46299 0
M  V30 351 C 40.7396 -1.50143 4.13697 0
M  V30 352 H 37.8586 -0.112428 0.728374 0
M  V30 353 H 40.5006 0.4088 1.8555 0
M  V30 354 H 38.6506 -1.28881 3.665 0
M  V30 355 H 40.3226 1.19863 4.45455 0
M  V30 356 H 38.5656 1.19405 4.17043 0
M  V30 357 H 39.2366 0.26405 5.51368 0
M  V30 358 H 41.7126 -0.981588 4.04356 0
M  V30 359 H 40.5886 -1.72221 5.21182 0
M  V30 360 H 40.8496 -2.48952 3.65343 0
M  V30 361 N 39.9087 -1.5758 0.0250728 0
M  V30 362 C 40.8417 -2.05473 -0.992777 0
M  V30 363 C 41.8197 -0.949661 -1.31986 0
M  V30 364 O 43.0037 -1.21969 -1.43722 0
M  V30 365 C 40.1307 -2.4734 -2.31389 0
M  V30 366 C 39.1767 -3.68827 -2.1417 0
M  V30 367 S 40.0097 -5.15655 -1.44429 0
M  V30 368 C 41.1657 -5.60814 -2.77918 0
M  V30 369 H 41.3987 -2.91486 -0.585078 0
M  V30 370 H 38.9317 -1.53269 -0.186507 0
M  V30 371 H 40.8897 -2.72127 -3.07339 0
M  V30 372 H 39.5507 -1.6168 -2.69292 0
M  V30 373 H 38.7437 -3.95955 -3.11826 0
M  V30 374 H 38.3457 -3.44172 -1.46362 0
M  V30 375 H 40.6377 -5.64806 -3.74166 0
M  V30 376 H 41.5807 -6.60414 -2.55459 0
M  V30 377 H 41.9887 -4.8845 -2.82979 0
M  V30 378 N 41.3868 0.248026 -1.55636 0
M  V30 379 C 42.6358 0.974134 -1.76617 0
M  V30 380 C 42.9488 1.86528 -0.588796 0
M  V30 381 O 44.1548 2.62805 -0.681594 0
M  V30 382 C 42.6108 1.78213 -3.12679 0
M  V30 383 C 42.2188 0.93843 -4.38061 0
M  V30 384 C 43.9628 2.50104 -3.42999 0
M  V30 385 C 41.8698 1.74225 -5.65155 0
M  V30 386 H 40.7998 0.36745 -0.658405 0
M  V30 387 H 43.4508 0.22884 -1.82067 0
M  V30 388 H 41.8328 2.56933 -3.01333 0
M  V30 389 H 43.0068 0.193635 -4.60393 0
M  V30 390 H 41.3218 0.332905 -4.15067 0
M  V30 391 H 43.9188 3.10694 -4.3517 0
M  V30 392 H 44.2618 3.21662 -2.64271 0
M  V30 393 H 44.7948 1.78395 -3.55556 0
M  V30 394 H 41.5338 1.07043 -6.46701 0
M  V30 395 H 41.0538 2.46235 -5.46926 0
M  V30 396 H 42.7328 2.30967 -6.0437 0
M  V30 397 N 42.8649 1.48995 0.513639 0
M  V30 398 C 44.1109 1.58076 1.27042 0
M  V30 399 C 44.4439 0.261026 1.92438 0
M  V30 400 O 43.7189 -0.734393 1.80103 0
M  V30 401 C 44.0019 2.73091 2.34719 0
M  V30 402 C 43.8549 4.14821 1.73907 0
M  V30 403 C 45.1739 2.83796 3.36375 0
M  V30 404 H 42.2929 0.575391 0.460536 0
M  V30 405 H 44.9349 1.81232 0.570516 0
M  V30 406 H 43.0849 2.53479 2.94416 0
M  V30 407 H 44.7569 4.45917 1.18135 0
M  V30 408 H 42.9999 4.21058 1.0437 0
M  V30 409 H 43.6709 4.91147 2.51949 0
M  V30 410 H 46.1469 3.01611 2.86653 0
M  V30 411 H 45.0229 3.65971 4.09093 0
M  V30 412 H 45.2839 1.92624 3.9793 0
M  V30 413 N 44.343 -0.763751 1.37857 0
M  V30 414 C 45.276 -1.88486 1.28639 0
M  V30 415 C 46.254 -1.61757 0.165363 0
M  V30 416 O 47.438 -1.85391 0.340948 0
M  V30 417 C 44.565 -3.23884 0.990811 0
M  V30 418 C 43.611 -3.69514 2.12983 0
M  V30 419 S 44.444 -3.82244 3.75033 0
M  V30 420 C 45.6 -5.20477 3.47641 0
M  V30 421 H 45.833 -1.96017 2.23527 0
M  V30 422 H 43.366 -0.925684 1.23574 0
M  V30 423 H 45.324 -4.02081 0.827101 0
M  V30 424 H 43.985 -3.14044 0.0592832 0
M  V30 425 H 43.178 -4.67696 1.87821 0
M  V30 426 H 42.78 -2.98441 2.25408 0
M  V30 427 H 45.072 -6.05905 3.03125 0
M  V30 428 H 46.015 -5.50655 4.4518 0
M  V30 429 H 46.423 -4.88793 2.82385 0
M  V30 430 N 45.8211 -1.22559 -0.990812 0
M  V30 431 C 47.0671 -1.05297 -1.73322 0
M  V30 432 C 47.4001 0.410655 -1.89808 0
M  V30 433 O 46.6751 1.30439 -1.44277 0
M  V30 434 C 46.9581 -1.76713 -3.13759 0
M  V30 435 C 46.8111 -3.30684 -3.04907 0
M  V30 436 C 48.1301 -1.52121 -4.12974 0
M  V30 437 H 45.2491 -0.38392 -0.629106 0
M  V30 438 H 47.8911 -1.50926 -1.15418 0
M  V30 439 H 46.0411 -1.37924 -3.63193 0
M  V30 440 H 47.7131 -3.7893 -2.63077 0
M  V30 441 H 45.9561 -3.60253 -2.41661 0
M  V30 442 H 46.6271 -3.75833 -4.04294 0
M  V30 443 H 49.1031 -1.85819 -3.72304 0
M  V30 444 H 47.9791 -2.04582 -5.0935 0
M  V30 445 H 48.2401 -0.454257 -4.3976 0
M  V30 446 N 47.2992 1.18797 -1.03562 0
M  V30 447 C 48.7102 1.70322 -0.764676 0
M  V30 448 C 49.0612 1.82708 0.714996 0
M  V30 449 O 48.1862 1.50299 1.55689 0
M  V30 450 C 48.7812 3.09356 -1.38145 0
M  V30 451 C 47.3402 3.58114 -1.15895 0
M  V30 452 C 46.4872 2.34798 -1.4753 0
M  V30 453 H 49.4382 1.03543 -1.20268 0
M  V30 454 H 49.4592 3.72378 -0.781977 0
M  V30 455 H 48.9712 3.00309 -2.45837 0
M  V30 456 H 47.0722 3.72464 -0.100544 0
M  V30 457 H 47.1852 4.4184 -1.8524 0
M  V30 458 H 45.5492 2.38464 -0.894829 0
M  V30 459 H 46.3322 2.28375 -2.56319 0
M  V30 460 N 48.7773 0.814389 1.34928 0
M  V30 461 C 50.0023 0.410097 2.03305 0
M  V30 462 C 50.4273 -0.973464 1.60951 0
M  V30 463 O 49.7853 -1.63185 0.789964 0
M  V30 464 C 49.8333 0.51049 3.56968 0
M  V30 465 O 48.9373 -0.473035 4.09678 0
M  V30 466 H 48.2783 0.170088 0.641846 0
M  V30 467 H 50.8083 1.10244 1.72358 0
M  V30 468 H 50.8183 0.383135 4.06197 0
M  V30 469 H 49.4933 1.51963 3.87144 0
M  V30 470 H 48.0703 -0.305272 3.71648 0
M  V30 471 N 50.2554 -1.46986 0.568584 0
M  V30 472 C 51.1854 -2.32946 -0.160753 0
M  V30 473 C 52.1664 -1.44487 -0.897631 0
M  V30 474 O 53.3514 -1.73327 -0.875867 0
M  V30 475 C 50.4814 -3.26494 -1.18403 0
M  V30 476 C 49.4354 -4.24282 -0.562895 0
M  V30 477 C 48.7614 -5.07236 -1.69163 0
M  V30 478 C 50.0614 -5.19989 0.490761 0
M  V30 479 H 51.7554 -2.94175 0.556916 0
M  V30 480 H 49.3014 -1.4146 0.26927 0
M  V30 481 H 51.2544 -3.85477 -1.70251 0
M  V30 482 H 49.9784 -2.63343 -1.93179 0
M  V30 483 H 48.6374 -3.66541 -0.0656164 0
M  V30 484 H 48.2854 -4.4048 -2.42871 0
M  V30 485 H 47.9854 -5.7345 -1.28174 0
M  V30 486 H 49.5094 -5.6908 -2.21314 0
M  V30 487 H 50.9234 -5.73271 0.0579047 0
M  V30 488 H 49.3204 -5.94469 0.820165 0
M  V30 489 H 50.3904 -4.64777 1.3824 0
M  V30 490 N 51.7335 -0.305618 -1.54608 0
M  V30 491 C 52.9825 0.303098 -1.9941 0
M  V30 492 C 53.2955 1.54648 -1.19764 0
M  V30 493 O 54.5015 2.23007 -1.54855 0
M  V30 494 C 52.9575 0.590588 -3.55021 0
M  V30 495 C 52.5655 -0.634719 -4.43481 0
M  V30 496 C 54.3095 1.16025 -4.08336 0
M  V30 497 C 52.2165 -0.320126 -5.90533 0
M  V30 498 H 51.1465 0.117031 -0.744862 0
M  V30 499 H 53.7975 -0.415045 -1.78745 0
M  V30 500 H 52.1795 1.36845 -3.71604 0
M  V30 501 H 53.3535 -1.41079 -4.38672 0
M  V30 502 H 51.6685 -1.12333 -4.00962 0
M  V30 503 H 54.2655 1.40994 -5.15776 0
M  V30 504 H 54.6085 2.10397 -3.5922 0
M  V30 505 H 55.1415 0.443985 -3.95315 0
M  V30 506 H 51.8805 -1.23254 -6.43808 0
M  V30 507 H 51.4005 0.418579 -5.98338 0
M  V30 508 H 53.0795 0.0766241 -6.46955 0
M  V30 509 N 53.2116 1.57565 -0.0334293 0
M  V30 510 C 54.1586 2.10478 0.946981 0
M  V30 511 C 55.1286 1.00787 1.32027 0
M  V30 512 O 56.3136 1.28232 1.41284 0
M  V30 513 C 53.4536 2.63994 2.22263 0
M  V30 514 C 52.5666 3.87709 1.90541 0
M  V30 515 C 51.7016 4.29604 3.12433 0
M  V30 516 C 50.7406 5.46065 2.76549 0
M  V30 517 N 49.8776 5.83096 3.9108 0
M  V30 518 H 54.7176 2.93963 0.488846 0
M  V30 519 H 52.2546 1.45296 0.22969 0
M  V30 520 H 54.2126 2.93114 2.96884 0
M  V30 521 H 52.8426 1.83333 2.65685 0
M  V30 522 H 51.8946 3.65291 1.06144 0
M  V30 523 H 53.2066 4.72403 1.60116 0
M  V30 524 H 52.3606 4.60182 3.9537 0
M  V30 525 H 51.0996 3.43685 3.46023 0
M  V30 526 H 50.1046 5.15176 1.92026 0
M  V30 527 H 51.3296 6.33685 2.44171 0
M  V30 528 H 49.2756 5.00132 4.24504 0
M  V30 529 H 49.1926 6.6244 3.64293 0
M  V30 530 H 50.4606 6.18282 4.74708 0
M  V30 531 N 54.6897 -0.239769 1.55765 0
M  V30 532 C 55.6217 -1.32001 1.87372 0
M  V30 533 C 56.6347 -1.43944 0.760522 0
M  V30 534 O 57.8237 -1.45167 1.0387 0
M  V30 535 C 54.9237 -2.69779 2.05115 0
M  V30 536 C 54.0967 -2.80014 3.36022 0
M  V30 537 C 53.1557 -3.98684 3.4342 0
M  V30 538 O 52.1817 -3.87877 4.16582 0
M  V30 539 N 53.3837 -5.12176 2.73232 0
M  V30 540 H 56.1487 -1.0522 2.80622 0
M  V30 541 H 53.7097 -0.429857 1.56089 0
M  V30 542 H 55.7017 -3.47517 2.07399 0
M  V30 543 H 54.2717 -2.89237 1.18577 0
M  V30 544 H 53.4917 -1.88896 3.45994 0
M  V30 545 H 54.7797 -2.83808 4.22292 0
M  V30 546 H 54.1777 -5.2385 2.13536 0
M  V30 547 H 52.7347 -5.88022 2.81199 0
M  V30 548 N 56.1678 -1.49265 -0.50573 0
M  V30 549 C 57.0998 -1.617 -1.62437 0
M  V30 550 C 58.1128 -0.499924 -1.54934 0
M  V30 551 O 59.3018 -0.771785 -1.60953 0
M  V30 552 C 56.4018 -1.5533 -3.01207 0
M  V30 553 C 55.5748 -2.8249 -3.33943 0
M  V30 554 C 54.6338 -2.69238 -4.52103 0
M  V30 555 O 53.6598 -3.43167 -4.5412 0
M  V30 556 N 54.8618 -1.80468 -5.51735 0
M  V30 557 H 57.6268 -2.58177 -1.52199 0
M  V30 558 H 55.1878 -1.46294 -0.693511 0
M  V30 559 H 57.1798 -1.44125 -3.78167 0
M  V30 560 H 55.7498 -0.667297 -3.05395 0
M  V30 561 H 54.9698 -3.08081 -2.45926 0
M  V30 562 H 56.2578 -3.66802 -3.5261 0
M  V30 563 H 55.6558 -1.19653 -5.52901 0
M  V30 564 H 54.2128 -1.75188 -6.27816 0
M  V30 565 N 57.6459 0.756429 -1.3826 0
M  V30 566 C 58.8919 1.51772 -1.34511 0
M  V30 567 C 59.2249 1.94089 0.0656691 0
M  V30 568 O 58.4999 1.65221 1.02626 0
M  V30 569 C 58.7829 2.77226 -2.29821 0
M  V30 570 C 58.6359 2.41065 -3.79747 0
M  V30 571 C 59.9549 3.79236 -2.23312 0
M  V30 572 H 57.0739 0.550578 -0.489931 0
M  V30 573 H 59.7159 0.866607 -1.69086 0
M  V30 574 H 57.8659 3.32784 -2.00467 0
M  V30 575 H 59.5379 1.91303 -4.19763 0
M  V30 576 H 57.7809 1.7356 -3.97567 0
M  V30 577 H 58.4519 3.3081 -4.41892 0
M  V30 578 H 60.9279 3.3321 -2.49219 0
M  V30 579 H 59.8039 4.64714 -2.92116 0
M  V30 580 H 60.0649 4.24615 -1.23102 0
M  V30 581 N 59.124 1.23083 0.984299 0
M  V30 582 C 60.054 1.03292 2.09411 0
M  V30 583 C 61.035 -0.048923 1.7003 0
M  V30 584 O 62.22 0.114967 1.93859 0
M  V30 585 C 59.35 0.619155 3.41736 0
M  V30 586 C 58.304 1.64791 3.95004 0
M  V30 587 C 57.63 1.0897 5.23478 0
M  V30 588 C 58.93 3.03999 4.24714 0
M  V30 589 H 60.624 1.96119 2.26225 0
M  V30 590 H 58.17 0.944344 1.08711 0
M  V30 591 H 60.123 0.467777 4.18796 0
M  V30 592 H 58.847 -0.344786 3.24775 0
M  V30 593 H 57.506 1.78721 3.20085 0
M  V30 594 H 57.154 0.11686 5.02864 0
M  V30 595 H 56.854 1.77704 5.60085 0
M  V30 596 H 58.378 0.950093 6.03163 0
M  V30 597 H 59.792 2.93393 4.92538 0
M  V30 598 H 58.189 3.69936 4.72512 0
M  V30 599 H 59.259 3.53285 3.32142 0
M  V30 600 N 60.6021 -1.18246 1.0419 0
M  V30 601 C 61.5491 -2.2192 0.634037 0
M  V30 602 C 62.5191 -1.62179 -0.358765 0
M  V30 603 O 63.7041 -1.89122 -0.252466 0
M  V30 604 C 60.8441 -3.451 0.00445535 0
M  V30 605 C 59.9571 -4.19174 1.04487 0
M  V30 606 C 59.0921 -5.29813 0.383676 0
M  V30 607 C 58.1311 -5.9566 1.4091 0
M  V30 608 N 57.2681 -6.97834 0.772784 0
M  V30 609 H 62.1081 -2.56164 1.52263 0
M  V30 610 H 59.6451 -1.25843 0.761701 0
M  V30 611 H 61.6031 -4.15485 -0.377919 0
M  V30 612 H 60.2331 -3.11472 -0.847652 0
M  V30 613 H 59.2851 -3.47604 1.54518 0
M  V30 614 H 60.5971 -4.64267 1.82368 0
M  V30 615 H 59.7511 -6.06677 -0.0528366 0
M  V30 616 H 58.4901 -4.85825 -0.427208 0
M  V30 617 H 57.4951 -5.17535 1.85574 0
M  V30 618 H 58.7201 -6.4173 2.22171 0
M  V30 619 H 56.6661 -6.55998 -0.0177708 0
M  V30 620 H 56.5831 -7.41186 1.48928 0
M  V30 621 H 57.8511 -7.78665 0.36071 0
M  V30 622 N 62.0802 -0.821533 -1.34494 0
M  V30 623 C 63.0282 -0.230702 -2.31453 0
M  V30 624 C 64.0222 0.627793 -1.57338 0
M  V30 625 O 65.2282 0.519288 -1.72347 0
M  V30 626 H 61.6032 -0.0558577 -0.749923 0
M  V30 627 H 63.5742 -1.06332 -2.78812 0
M  V30 628 C 62.3232 0.59391 -3.4259 0
M  V30 629 H 61.6462 -0.0573588 -3.99759 0
M  V30 630 H 63.0862 0.973446 -4.12674 0
M  V30 631 C 61.5452 1.76568 -2.86924 0
M  V30 632 O 62.0752 2.8638 -2.81691 0
M  V30 633 N 60.2812 1.58198 -2.43766 0
M  V30 634 H 59.8282 0.68872 -2.48222 0
M  V30 635 H 59.7862 2.36752 -2.06871 0
M  V30 636 N 63.5583 1.46682 -0.576371 0
M  V30 637 C 64.8043 2.02712 -0.0596221 0
M  V30 638 C 65.1373 1.44765 1.29448 0
M  V30 639 O 64.4123 0.610355 1.84675 0
M  V30 640 C 64.6953 3.60098 0.0129503 0
M  V30 641 C 64.5483 4.28441 -1.3696 0
M  V30 642 C 65.8673 4.34224 0.71678 0
M  V30 643 H 62.9863 0.736637 -0.0231407 0
M  V30 644 H 65.6283 1.74898 -0.742351 0
M  V30 645 H 63.7783 3.83926 0.594378 0
M  V30 646 H 65.4503 4.15896 -1.9957 0
M  V30 647 H 63.6933 3.8805 -1.93907 0
M  V30 648 H 64.3643 5.3716 -1.27135 0
M  V30 649 H 66.8403 4.15503 0.222908 0
M  V30 650 H 65.7163 5.43936 0.73657 0
M  V30 651 H 65.9773 4.04823 1.77682 0
M  V30 652 N 65.0364 0.313813 1.54444 0
M  V30 653 C 66.4524 -0.0391619 1.59552 0
M  V30 654 C 66.6524 -1.51322 1.33056 0
M  V30 655 O 65.7084 -2.26782 1.11022 0
M  V30 656 C 67.0214 0.370302 2.98411 0
M  V30 657 C 68.5694 0.320139 3.11358 0
M  V30 658 C 69.0444 0.704617 4.52547 0
M  V30 659 N 70.5354 0.657645 4.58508 0
M  V30 660 C 71.2704 0.927453 5.6585 0
M  V30 661 N 70.7664 1.26389 6.81174 0
M  V30 662 N 72.5594 0.853662 5.5558 0
M  V30 663 H 64.7104 1.27433 1.69925 0
M  V30 664 H 66.9734 0.517511 0.794284 0
M  V30 665 H 66.6794 1.39694 3.22767 0
M  V30 666 H 66.5534 -0.269619 3.76235 0
M  V30 667 H 68.9404 -0.697275 2.86744 0
M  V30 668 H 69.0214 0.99486 2.35661 0
M  V30 669 H 68.6654 1.7199 4.77893 0
M  V30 670 H 68.5954 0.00768843 5.26599 0
M  V30 671 H 71.0864 0.409067 3.75679 0
M  V30 672 H 71.3994 1.4554 7.58972 0
M  V30 673 H 69.7444 1.30206 6.82694 0
M  V30 674 H 72.9354 0.590383 4.64362 0
M  V30 675 H 73.1084 1.0673 6.3915 0
M  V30 676 N 66.5145 -1.57545 0.0417849 0
M  V30 677 C 67.7635 -1.91494 -0.633492 0
M  V30 678 C 68.0765 -0.921084 -1.72556 0
M  V30 679 O 69.2825 -1.15228 -2.45835 0
M  V30 680 C 67.7385 -3.40072 -1.17808 0
M  V30 681 C 67.3465 -4.47843 -0.118633 0
M  V30 682 C 69.0905 -3.8307 -1.82915 0
M  V30 683 C 66.9975 -5.87529 -0.675578 0
M  V30 684 H 65.9275 -0.714653 -0.24039 0
M  V30 685 H 68.5785 -1.83175 0.109148 0
M  V30 686 H 66.9605 -3.43364 -1.97274 0
M  V30 687 H 68.1345 -4.56128 0.654494 0
M  V30 688 H 66.4495 -4.14128 0.434414 0
M  V30 689 H 69.0465 -4.84794 -2.25563 0
M  V30 690 H 69.3895 -3.1881 -2.67705 0
M  V30 691 H 69.9225 -3.82255 -1.10119 0
M  V30 692 H 66.6615 -6.55362 0.134475 0
M  V30 693 H 66.1815 -5.82824 -1.4169 0
M  V30 694 H 67.8605 -6.36491 -1.1614 0
M  V30 695 N 67.9926 0.231505 -1.5589 0
M  V30 696 C 69.2696 0.981096 -1.69215 0
M  V30 697 C 69.6496 2.02799 -0.586164 0
M  V30 698 O 68.9976 2.24823 0.408253 0
M  V30 699 C 69.2076 1.60054 -3.10135 0
M  V30 700 C 70.5556 2.09658 -3.69227 0
M  V30 701 O 71.5796 1.69967 -3.13033 0
M  V30 702 O 70.4386 2.8258 -4.67772 0
M  V30 703 H 67.5326 0.457653 -0.688827 0
M  V30 704 H 70.0786 0.224073 -1.68214 0
M  V30 705 H 68.8506 0.844105 -3.82087 0
M  V30 706 H 68.4736 2.42336 -3.15212 0
M  V30 707 N 69.4707 1.49531 0.497807 0
M  V30 708 C 70.8817 1.52344 1.07927 0
M  V30 709 C 71.2327 0.311469 1.93712 0
M  V30 710 O 70.3577 -0.578405 2.08527 0
M  V30 711 C 70.9527 2.76062 1.96405 0
M  V30 712 C 69.5117 2.81643 2.49709 0
M  V30 713 C 68.6587 2.46299 1.27404 0
M  V30 714 H 71.6097 1.56182 0.281576 0
M  V30 715 H 71.6307 2.56405 2.81135 0
M  V30 716 H 71.1427 3.64254 1.33943 0
M  V30 717 H 69.2437 1.97739 3.15801 0
M  V30 718 H 69.3567 3.83891 2.86643 0
M  V30 719 H 67.7207 1.98148 1.60029 0
M  V30 720 H 68.5037 3.36769 0.66645 0
M  V30 721 N 70.9488 -0.749086 1.3866 0
M  V30 722 C 72.1738 -1.54344 1.38538 0
M  V30 723 C 72.5988 -1.88088 -0.0216655 0
M  V30 724 O 71.9568 -1.50899 -1.00494 0
M  V30 725 C 72.0048 -2.8164 2.25192 0
M  V30 726 O 71.1088 -3.7698 1.67212 0
M  V30 727 H 70.4498 -0.466654 0.472367 0
M  V30 728 H 72.9798 -0.925355 1.82478 0
M  V30 729 H 72.9898 -3.30519 2.3921 0
M  V30 730 H 71.6648 -2.56411 3.27454 0
M  V30 731 H 70.2418 -3.35699 1.6236 0
M  V30 732 N 72.4269 -1.23603 -0.977757 0
M  V30 733 C 73.6519 -1.09735 -1.75991 0
M  V30 734 C 74.0769 0.346858 -1.84874 0
M  V30 735 O 73.4349 1.25093 -1.3123 0
M  V30 736 C 73.4829 -1.73051 -3.16363 0
M  V30 737 O 72.5869 -0.994452 -4.0023 0
M  V30 738 H 71.9279 -0.384476 -0.541364 0
M  V30 739 H 74.4579 -1.6371 -1.2272 0
M  V30 740 H 74.4679 -1.78398 -3.66931 0
M  V30 741 H 73.1429 -2.78137 -3.09213 0
M  V30 742 H 71.7199 -1.01812 -3.58732 0
M  V30 743 N 73.905 1.17692 -1.04816 0
M  V30 744 C 74.835 2.23777 -0.666791 0
M  V30 745 C 75.816 1.66796 0.33361 0
M  V30 746 O 77.001 1.93039 0.212042 0
M  V30 747 C 74.131 3.47281 -0.0367933 0
M  V30 748 C 73.085 4.17059 -0.961546 0
M  V30 749 C 72.411 5.34342 -0.195626 0
M  V30 750 C 73.711 4.69713 -2.28402 0
M  V30 751 H 75.405 2.55933 -1.55367 0
M  V30 752 H 72.951 1.23019 -0.748484 0
M  V30 753 H 74.904 4.20706 0.241775 0
M  V30 754 H 73.628 3.14381 0.885004 0
M  V30 755 H 72.287 3.45541 -1.22462 0
M  V30 756 H 71.935 4.97692 0.728816 0
M  V30 757 H 71.635 5.81966 -0.811775 0
M  V30 758 H 73.159 6.10553 0.0757473 0
M  V30 759 H 74.573 5.34794 -2.06563 0
M  V30 760 H 72.97 5.279 -2.8538 0
M  V30 761 H 74.04 3.86726 -2.92525 0
M  V30 762 N 75.3831 0.828654 1.34056 0
M  V30 763 C 76.6081 0.431637 2.02859 0
M  V30 764 C 77.0331 -0.956339 1.61975 0
M  V30 765 O 76.3911 -1.62338 0.807228 0
M  V30 766 C 76.4391 0.548323 3.56407 0
M  V30 767 O 75.5431 -0.429556 4.10157 0
M  V30 768 H 74.8841 0.176886 0.640006 0
M  V30 769 H 77.4141 1.12066 1.71179 0
M  V30 770 H 77.4241 0.426196 4.05768 0
M  V30 771 H 76.0991 1.5606 3.8551 0
M  V30 772 H 74.6761 -0.265836 3.71951 0
M  V30 773 N 76.8612 -1.46375 0.584142 0
M  V30 774 C 78.1082 -2.02378 0.0702675 0
M  V30 775 C 78.4362 -1.45545 -1.29023 0
M  V30 776 O 77.6912 -0.610967 -1.85918 0
M  V30 777 C 77.9902 -3.57373 -0.0439342 0
M  V30 778 C 77.6562 -4.33252 1.24915 0
M  V30 779 C 76.3182 -4.53701 1.60341 0
M  V30 780 C 78.6702 -4.7681 2.1048 0
M  V30 781 C 75.9982 -5.1496 2.81128 0
M  V30 782 C 78.3502 -5.39404 3.30494 0
M  V30 783 C 77.0142 -5.5808 3.66201 0
M  V30 784 H 76.2842 -0.740554 0.0257127 0
M  V30 785 H 78.9312 -1.75727 0.761065 0
M  V30 786 H 77.2362 -3.83169 -0.817869 0
M  V30 787 H 78.9332 -3.98384 -0.457318 0
M  V30 788 H 75.5232 -4.17633 0.963364 0
M  V30 789 H 79.7072 -4.60766 1.84414 0
M  V30 790 H 74.9632 -5.27611 3.08928 0
M  V30 791 H 79.1372 -5.72114 3.97063 0
M  V30 792 H 76.7642 -6.05318 4.59885 0
M  V30 793 N 78.3393 -0.321999 -1.54275 0
M  V30 794 C 79.2873 0.560206 -2.25753 0
M  V30 795 C 80.2813 1.11984 -1.27106 0
M  V30 796 O 81.4873 1.06806 -1.44888 0
M  V30 797 H 77.8623 0.199304 -0.725108 0
M  V30 798 H 79.8333 -0.0649365 -2.98329 0
M  V30 799 C 78.5823 1.71023 -3.02731 0
M  V30 800 H 77.9053 1.28885 -3.78456 0
M  V30 801 H 79.3453 2.30314 -3.55993 0
M  V30 802 C 77.8043 2.62692 -2.10938 0
M  V30 803 O 78.3343 3.64364 -1.6912 0
M  V30 804 N 76.5403 2.30891 -1.76459 0
M  V30 805 H 76.0873 1.48253 -2.10663 0
M  V30 806 H 76.0453 2.92487 -1.1532 0
M  V30 807 N 79.8174 1.5752 -0.0501392 0
M  V30 808 C 80.7504 2.07026 0.959962 0
M  V30 809 C 81.7284 0.970539 1.30458 0
M  V30 810 O 82.9124 1.2424 1.41763 0
M  V30 811 C 80.0394 2.5099 2.27424 0
M  V30 812 C 79.0854 3.72188 2.08275 0
M  V30 813 S 79.9184 5.17888 1.36207 0
M  V30 814 C 81.0744 5.65165 2.6896 0
M  V30 815 H 81.3074 2.9238 0.538631 0
M  V30 816 H 78.8404 1.53547 0.162099 0
M  V30 817 H 80.7984 2.76982 3.02971 0
M  V30 818 H 79.4594 1.65944 2.66686 0
M  V30 819 H 78.6524 4.00866 3.05487 0
M  V30 820 H 78.2544 3.46457 1.40868 0
M  V30 821 H 80.5464 5.70687 3.65133 0
M  V30 822 H 81.4894 6.64394 2.4492 0
M  V30 823 H 81.8974 4.9289 2.75172 0
M  V30 824 N 81.2955 -0.223234 1.56011 0
M  V30 825 C 82.5415 -0.944891 1.8012 0
M  V30 826 C 82.8965 -1.82039 0.622862 0
M  V30 827 O 82.1895 -1.8773 -0.383143 0
M  V30 828 C 82.3835 -1.81948 3.0762 0
M  V30 829 C 82.2125 -1.03014 4.37742 0
M  V30 830 C 80.9825 -0.72574 5.00061 0
M  V30 831 C 83.1805 -0.396256 5.12771 0
M  V30 832 N 81.1625 0.0851816 6.13841 0
M  V30 833 C 82.5335 0.278137 6.19376 0
M  V30 834 C 84.5885 -0.309117 4.9694 0
M  V30 835 C 83.2915 1.03133 7.11868 0
M  V30 836 C 85.3175 0.430607 5.8983 0
M  V30 837 C 84.6795 1.09355 6.9586 0
M  V30 838 H 80.7785 -0.326081 0.710771 0
M  V30 839 H 83.3625 -0.215914 1.93499 0
M  V30 840 H 81.5335 -2.52029 2.95527 0
M  V30 841 H 83.2655 -2.47848 3.19927 0
M  V30 842 H 80.0205 -1.04335 4.61964 0
M  V30 843 H 80.4445 0.479428 6.753 0
M  V30 844 H 85.0865 -0.807313 4.15021 0
M  V30 845 H 82.8045 1.54105 7.9327 0
M  V30 846 H 86.3905 0.499012 5.79656 0
M  V30 847 H 85.2705 1.65679 7.66499 0
M  V30 848 N 82.7736 -1.49793 -0.48987 0
M  V30 849 C 83.7206 -1.67281 -1.59014 0
M  V30 850 C 84.6906 -0.514177 -1.57941 0
M  V30 851 O 85.8756 -0.742533 -1.75759 0
M  V30 852 C 83.0156 -1.75569 -2.97102 0
M  V30 853 C 82.1286 -3.0281 -3.08107 0
M  V30 854 C 81.2636 -3.02008 -4.36995 0
M  V30 855 C 80.3026 -4.23782 -4.41673 0
M  V30 856 N 79.4396 -4.20826 -5.62005 0
M  V30 857 H 84.2796 -2.61224 -1.43409 0
M  V30 858 H 81.8166 -1.29508 -0.697565 0
M  V30 859 H 83.7746 -1.78354 -3.77155 0
M  V30 860 H 82.4046 -0.850827 -3.11385 0
M  V30 861 H 81.4566 -3.09584 -2.21047 0
M  V30 862 H 82.7686 -3.92801 -3.07423 0
M  V30 863 H 81.9226 -3.03418 -5.25378 0
M  V30 864 H 80.6616 -2.09815 -4.4026 0
M  V30 865 H 79.6666 -4.22604 -3.5169 0
M  V30 866 H 80.8916 -5.17181 -4.40115 0
M  V30 867 H 78.8376 -3.31476 -5.66091 0
M  V30 868 H 78.7546 -5.04564 -5.62984 0
M  V30 869 H 80.0226 -4.26355 -6.52565 0
M  V30 870 N 84.2517 0.741722 -1.39055 0
M  V30 871 C 85.1617 1.88621 -1.39496 0
M  V30 872 C 86.1777 1.71557 -0.290578 0
M  V30 873 O 87.3537 1.94275 -0.530954 0
M  V30 874 C 84.4187 3.24134 -1.23037 0
M  V30 875 C 83.4797 3.5364 -2.43387 0
M  V30 876 C 82.7127 4.82687 -2.27703 0
M  V30 877 O 82.9357 5.55922 -1.27696 0
M  V30 878 O 81.8697 5.1194 -3.16545 0
M  V30 879 H 85.6957 1.91203 -2.35956 0
M  V30 880 H 83.2807 0.888625 -1.20099 0
M  V30 881 H 85.1627 4.0513 -1.15964 0
M  V30 882 H 83.8377 3.22337 -0.296691 0
M  V30 883 H 82.7447 2.72758 -2.56035 0
M  V30 884 H 84.0777 3.60209 -3.35425 0
M  V30 885 N 85.7298 1.2412 0.971189 0
M  V30 886 C 86.9788 1.07284 1.70801 0
M  V30 887 C 87.2918 -0.388902 1.91695 0
M  V30 888 O 88.4978 -0.677379 2.62914 0
M  V30 889 C 86.9538 1.87145 3.07416 0
M  V30 890 C 86.5618 3.37707 2.94377 0
M  V30 891 C 88.3058 1.78828 3.84995 0
M  V30 892 C 86.2128 4.09925 4.26281 0
M  V30 893 H 85.1428 0.397854 0.64049 0
M  V30 894 H 87.7938 1.4817 1.0825 0
M  V30 895 H 86.1758 1.39071 3.70777 0
M  V30 896 H 87.3498 3.93335 2.4005 0
M  V30 897 H 85.6648 3.46938 2.30267 0
M  V30 898 H 88.2618 2.30089 4.82662 0
M  V30 899 H 88.6048 0.75284 4.09436 0
M  V30 900 H 89.1378 2.24563 3.28354 0
M  V30 901 H 85.8768 5.13813 4.07033 0
M  V30 902 H 85.3968 3.59083 4.80437 0
M  V30 903 H 87.0758 4.1673 4.94919 0
M  V30 904 N 87.2079 -1.17134 1.05439 0
M  V30 905 C 88.6189 -1.69084 0.791676 0
M  V30 906 C 88.9699 -1.83822 -0.685839 0
M  V30 907 O 88.0949 -1.52757 -1.53278 0
M  V30 908 C 88.6899 -3.07119 1.4305 0
M  V30 909 C 87.2489 -3.56225 1.21577 0
M  V30 910 C 86.3959 -2.32421 1.51247 0
M  V30 911 H 89.3469 -1.01617 1.219 0
M  V30 912 H 89.3679 -3.71087 0.84112 0
M  V30 913 H 88.8799 -2.9636 2.50584 0
M  V30 914 H 86.9809 -3.72257 0.159787 0
M  V30 915 H 87.0939 -4.38837 1.92246 0
M  V30 916 H 85.4579 -2.3701 0.932653 0
M  V30 917 H 86.2409 -2.24268 2.5992 0
M  V30 918 N 88.686 -0.835752 -1.33615 0
M  V30 919 C 89.935 -0.426289 -1.97144 0
M  V30 920 C 90.248 1.01912 -1.66953 0
M  V30 921 O 91.454 1.53311 -2.24072 0
M  V30 922 C 89.91 -0.711321 -3.52801 0
M  V30 923 C 89.518 -2.1712 -3.91871 0
M  V30 924 C 91.262 -0.368654 -4.22896 0
M  V30 925 C 89.169 -2.40044 -5.40493 0
M  V30 926 H 88.099 -0.15567 -0.737755 0
M  V30 927 H 90.75 -1.0239 -1.52278 0
M  V30 928 H 89.132 -0.0433766 -3.95976 0
M  V30 929 H 90.306 -2.87936 -3.59763 0
M  V30 930 H 88.621 -2.47654 -3.34749 0
M  V30 931 H 91.218 -0.517601 -5.32189 0
M  V30 932 H 91.561 0.688078 -4.10574 0
M  V30 933 H 92.094 -0.991702 -3.8524 0
M  V30 934 H 88.833 -3.44271 -5.57815 0
M  V30 935 H 88.353 -1.73785 -5.74072 0
M  V30 936 H 90.032 -2.23042 -6.0734 0
M  V30 937 N 90.1641 1.46063 -0.591896 0
M  V30 938 C 91.5751 1.85944 -0.167822 0
M  V30 939 C 91.9261 1.49429 1.27143 0
M  V30 940 O 91.0511 0.913515 1.96173 0
M  V30 941 C 91.6461 3.37489 -0.297794 0
M  V30 942 C 90.2051 3.76332 0.0714732 0
M  V30 943 C 89.3521 2.7006 -0.629509 0
M  V30 944 H 92.3031 1.37087 -0.799555 0
M  V30 945 H 92.3241 3.77532 0.474349 0
M  V30 946 H 91.8361 3.64034 -1.3454 0
M  V30 947 H 89.9371 3.55405 1.11886 0
M  V30 948 H 90.0501 4.78088 -0.311245 0
M  V30 949 H 88.4141 2.54607 -0.0687867 0
M  V30 950 H 89.1971 2.99444 -1.67894 0
M  V30 951 N 91.6422 0.330177 1.54103 0
M  V30 952 C 92.8892 -0.270405 2.00686 0
M  V30 953 C 93.2172 -1.51621 1.21825 0
M  V30 954 O 92.4722 -1.93536 0.29025 0
M  V30 955 C 92.7712 -0.643134 3.51566 0
M  V30 956 C 92.4372 0.504251 4.48072 0
M  V30 957 C 91.0992 0.819163 4.74176 0
M  V30 958 C 93.4512 1.27465 5.05373 0
M  V30 959 C 90.7792 1.90708 5.5484 0
M  V30 960 C 93.1312 2.35271 5.87223 0
M  V30 961 C 91.7952 2.67336 6.11627 0
M  V30 962 H 91.0652 -0.0989482 0.734364 0
M  V30 963 H 93.7122 0.455324 1.86008 0
M  V30 964 H 92.0172 -1.44938 3.64006 0
M  V30 965 H 93.7142 -1.11949 3.85056 0
M  V30 966 H 90.3042 0.248733 4.27878 0
M  V30 967 H 94.4882 1.04462 4.85182 0
M  V30 968 H 89.7442 2.15991 5.71977 0
M  V30 969 H 93.9182 2.95405 6.30641 0
M  V30 970 H 91.5452 3.51763 6.73919 0
M  V30 971 N 93.1203 -1.57491 0.0584922 0
M  V30 972 C 94.3503 -1.9701 -0.622134 0
M  V30 973 C 94.7583 -0.935034 -1.6448 0
M  V30 974 O 94.1013 0.0882904 -1.83488 0
M  V30 975 C 94.1633 -3.32794 -1.35972 0
M  V30 976 C 93.8273 -4.54343 -0.492043 0
M  V30 977 C 94.8243 -5.19323 0.244901 0
M  V30 978 C 92.5093 -5.00534 -0.420821 0
M  V30 979 C 94.5033 -6.28835 1.04143 0
M  V30 980 C 92.1903 -6.09921 0.379389 0
M  V30 981 C 93.1883 -6.73933 1.10919 0
M  V30 982 O 92.8763 -7.81216 1.89623 0
M  V30 983 H 92.6083 -0.653127 -0.174359 0
M  V30 984 H 95.1623 -2.05029 0.123418 0
M  V30 985 H 93.3923 -3.21351 -2.15105 0
M  V30 986 H 95.0813 -3.5701 -1.93129 0
M  V30 987 H 95.8473 -4.8459 0.19939 0
M  V30 988 H 91.7263 -4.50496 -0.978474 0
M  V30 989 H 95.2703 -6.7873 1.61157 0
M  V30 990 H 91.1673 -6.44089 0.426512 0
M  V30 991 H 91.9353 -7.98029 1.81913 0
M  V30 992 N 94.5984 0.214957 -1.56127 0
M  V30 993 C 95.5284 1.2695 -1.95974 0
M  V30 994 C 96.5094 1.48539 -0.828868 0
M  V30 995 O 97.6944 1.60611 -1.09168 0
M  V30 996 C 94.8244 2.61794 -2.28214 0
M  V30 997 C 93.7784 2.54851 -3.43853 0
M  V30 998 C 93.1044 3.93785 -3.61715 0
M  V30 999 C 94.4044 2.09065 -4.78632 0
M  V30 1000 H 96.0984 0.93846 -2.84312 0
M  V30 1001 H 93.6444 0.449996 -1.36788 0
M  V30 1002 H 95.5974 3.35731 -2.54682 0
M  V30 1003 H 94.3214 2.96599 -1.36736 0
M  V30 1004 H 92.9804 1.8337 -3.17444 0
M  V30 1005 H 92.6284 4.25908 -2.67602 0
M  V30 1006 H 92.3284 3.90019 -4.39498 0
M  V30 1007 H 93.8524 4.69374 -3.90539 0
M  V30 1008 H 95.2664 2.7275 -5.04262 0
M  V30 1009 H 93.6634 2.16346 -5.59745 0
M  V30 1010 H 94.7334 1.04315 -4.73547 0
M  V30 1011 N 96.0765 1.50051 0.48192 0
M  V30 1012 C 97.3015 1.64508 1.26301 0
M  V30 1013 C 97.7265 0.323851 1.85291 0
M  V30 1014 O 97.0845 -0.710969 1.66778 0
M  V30 1015 C 97.1325 2.7305 2.35533 0
M  V30 1016 O 96.2365 2.3355 3.39895 0
M  V30 1017 H 95.5775 0.549978 0.372048 0
M  V30 1018 H 98.1075 1.9636 0.574786 0
M  V30 1019 H 98.1175 2.95799 2.8101 0
M  V30 1020 H 96.7925 3.68946 1.91967 0
M  V30 1021 H 95.3695 2.21205 3.00204 0
M  V30 1022 N 97.5546 -0.734337 1.39446 0
M  V30 1023 C 98.8006 -1.49613 1.36908 0
M  V30 1024 C 99.1336 -1.94169 -0.0347829 0
M  V30 1025 O 98.4086 -1.66833 -0.999847 0
M  V30 1026 C 98.6916 -2.73534 2.34203 0
M  V30 1027 C 98.5446 -2.34993 3.83534 0
M  V30 1028 C 99.8636 -3.75635 2.29317 0
M  V30 1029 H 96.9826 -0.542714 0.498629 0
M  V30 1030 H 99.6246 -0.839597 1.70443 0
M  V30 1031 H 97.7746 -3.29553 2.05736 0
M  V30 1032 H 99.4466 -1.84601 4.22753 0
M  V30 1033 H 97.6896 -1.67213 4.00278 0
M  V30 1034 H 98.3606 -3.23738 4.47099 0
M  V30 1035 H 100.837 -3.29203 2.54489 0
M  V30 1036 H 99.7126 -4.60008 2.99472 0
M  V30 1037 H 99.9736 -4.22603 1.29842 0
M  V30 1038 N 99.0327 -1.24633 -0.964593 0
M  V30 1039 C 100.263 -1.11339 -1.74032 0
M  V30 1040 C 100.671 0.336593 -1.86182 0
M  V30 1041 O 100.014 1.24389 -1.35178 0
M  V30 1042 C 100.076 -1.68284 -3.1768 0
M  V30 1043 C 99.7397 -3.17196 -3.28992 0
M  V30 1044 C 100.737 -4.14308 -3.14078 0
M  V30 1045 C 98.4217 -3.57215 -3.53133 0
M  V30 1046 C 100.416 -5.4942 -3.23135 0
M  V30 1047 C 98.1027 -4.92468 -3.61827 0
M  V30 1048 C 99.1007 -5.8838 -3.46841 0
M  V30 1049 O 98.7887 -7.21173 -3.55197 0
M  V30 1050 H 98.5207 -0.389551 -0.552472 0
M  V30 1051 H 101.075 -1.65282 -1.21946 0
M  V30 1052 H 99.3047 -1.08777 -3.71085 0
M  V30 1053 H 100.994 -1.50234 -3.77074 0
M  V30 1054 H 101.76 -3.84731 -2.95308 0
M  V30 1055 H 97.6387 -2.83063 -3.63863 0
M  V30 1056 H 101.183 -6.24263 -3.11355 0
M  V30 1057 H 97.0797 -5.21714 -3.80111 0
M  V30 1058 H 97.8477 -7.29135 -3.71892 0
M  V30 1059 N 100.511 1.16574 -1.06058 0
M  V30 1060 C 101.758 1.87047 -0.775873 0
M  V30 1061 C 102.086 1.81562 0.697534 0
M  V30 1062 O 101.341 1.22445 1.52662 0
M  V30 1063 C 101.64 3.36195 -1.21275 0
M  V30 1064 C 101.306 3.6188 -2.68986 0
M  V30 1065 C 99.9678 3.68599 -3.09335 0
M  V30 1066 C 102.32 3.72648 -3.64394 0
M  V30 1067 C 99.6478 3.83584 -4.43937 0
M  V30 1068 C 102 3.89154 -4.98741 0
M  V30 1069 C 100.664 3.94114 -5.3873 0
M  V30 1070 H 99.9338 0.684452 -0.283912 0
M  V30 1071 H 102.581 1.37853 -1.32925 0
M  V30 1072 H 100.886 3.87505 -0.578528 0
M  V30 1073 H 102.583 3.89103 -0.969542 0
M  V30 1074 H 99.1728 3.57281 -2.36744 0
M  V30 1075 H 103.357 3.66769 -3.34356 0
M  V30 1076 H 98.6128 3.85677 -4.74409 0
M  V30 1077 H 102.787 3.96427 -5.72554 0
M  V30 1078 H 100.414 4.05478 -6.43033 0
M  V30 1079 N 101.989 0.842826 1.3317 0
M  V30 1080 C 103.236 0.440447 1.97652 0
M  V30 1081 C 103.564 -1.00123 1.6675 0
M  V30 1082 O 102.819 -1.7155 0.941761 0
M  V30 1083 C 103.118 0.612607 3.52111 0
M  V30 1084 C 102.784 2.02297 4.02972 0
M  V30 1085 C 101.446 2.40874 4.16573 0
M  V30 1086 C 103.798 2.94402 4.30089 0
M  V30 1087 C 101.126 3.70852 4.54627 0
M  V30 1088 C 103.478 4.23865 4.69597 0
M  V30 1089 C 102.142 4.62392 4.81404 0
M  V30 1090 H 101.412 0.161171 0.72326 0
M  V30 1091 H 104.059 1.07061 1.58777 0
M  V30 1092 H 102.364 -0.100849 3.9167 0
M  V30 1093 H 104.061 0.2815 4.00011 0
M  V30 1094 H 100.651 1.71338 3.92863 0
M  V30 1095 H 104.835 2.65835 4.19101 0
M  V30 1096 H 100.091 4.00501 4.61962 0
M  V30 1097 H 104.265 4.95306 4.89536 0
M  V30 1098 H 101.892 5.63154 5.10648 0
M  V30 1099 N 103.467 -1.45747 0.599634 0
M  V30 1100 C 104.744 -1.95585 0.0240846 0
M  V30 1101 C 105.124 -1.54217 -1.44154 0
M  V30 1102 O 104.472 -0.800903 -2.14004 0
M  V30 1103 C 104.682 -3.48344 0.21385 0
M  V30 1104 C 106.03 -4.24504 0.0904902 0
M  V30 1105 O 107.054 -3.55911 0.143558 0
M  V30 1106 O 105.913 -5.46491 -0.0310766 0
M  V30 1107 H 103.007 -0.82602 -0.0402478 0
M  V30 1108 H 105.553 -1.55951 0.669139 0
M  V30 1109 H 104.325 -3.71397 1.23206 0
M  V30 1110 H 103.948 -3.9485 -0.466842 0
M  V30 1111 N 104.945 -0.338344 -1.53925 0
M  V30 1112 C 106.191 0.260143 -2.01125 0
M  V30 1113 C 106.524 1.50617 -1.22589 0
M  V30 1114 O 105.799 1.91979 -0.312113 0
M  V30 1115 C 106.082 0.579499 -3.55407 0
M  V30 1116 C 105.935 -0.678264 -4.44657 0
M  V30 1117 C 107.254 1.39122 -4.17532 0
M  V30 1118 H 104.373 0.0930772 -0.731099 0
M  V30 1119 H 107.015 -0.457852 -1.84401 0
M  V30 1120 H 105.165 1.19118 -3.69788 0
M  V30 1121 H 106.837 -1.31631 -4.42121 0
M  V30 1122 H 105.08 -1.3042 -4.13731 0
M  V30 1123 H 105.751 -0.410143 -5.50474 0
M  V30 1124 H 108.227 0.874035 -4.06817 0
M  V30 1125 H 107.103 1.58342 -5.25565 0
M  V30 1126 H 107.364 2.39178 -3.71815 0
M  V30 1127 N 106.423 1.57458 -0.0668435 0
M  V30 1128 C 107.356 2.08033 0.93795 0
M  V30 1129 C 108.334 0.984321 1.29421 0
M  V30 1130 O 109.518 1.25736 1.40437 0
M  V30 1131 C 106.645 2.53388 2.24749 0
M  V30 1132 C 105.691 3.74376 2.04315 0
M  V30 1133 S 106.524 5.19303 1.30706 0
M  V30 1134 C 107.68 5.67986 2.62951 0
M  V30 1135 H 107.913 2.92935 0.50759 0
M  V30 1136 H 105.446 1.5371 0.145804 0
M  V30 1137 H 107.404 2.8018 3.00016 0
M  V30 1138 H 106.065 1.68763 2.64911 0
M  V30 1139 H 105.258 4.04083 3.01218 0
M  V30 1140 H 104.86 3.47931 1.37186 0
M  V30 1141 H 107.152 5.74528 3.5906 0
M  V30 1142 H 108.095 6.66955 2.3786 0
M  V30 1143 H 108.503 4.95781 2.69929 0
M  V30 1144 N 107.901 -0.206675 1.56239 0
M  V30 1145 C 108.849 -1.27571 1.94495 0
M  V30 1146 C 109.843 -1.47737 0.828862 0
M  V30 1147 O 111.049 -1.48735 1.0138 0
M  V30 1148 H 107.424 -0.428029 0.6183 0
M  V30 1149 H 109.395 -0.925961 2.8367 0
M  V30 1150 C 108.144 -2.61568 2.29079 0
M  V30 1151 H 107.467 -2.46863 3.14482 0
M  V30 1152 H 108.907 -3.35144 2.5972 0
M  V30 1153 C 107.366 -3.17695 1.12123 0
M  V30 1154 O 107.896 -3.99801 0.390153 0
M  V30 1155 N 106.102 -2.76276 0.901097 0
M  V30 1156 H 105.649 -2.09613 1.49733 0
M  V30 1157 H 105.607 -3.1417 0.120319 0
M  V30 1158 N 109.379 -1.50304 -0.473955 0
M  V30 1159 C 110.79 -1.54042 -1.0549 0
M  V30 1160 C 111.141 -0.342248 -1.93192 0
M  V30 1161 O 110.266 0.545157 -2.09421 0
M  V30 1162 C 110.861 -2.79152 -1.91989 0
M  V30 1163 C 109.42 -2.8558 -2.45196 0
M  V30 1164 C 108.567 -2.48295 -1.2347 0
M  V30 1165 H 111.518 -1.5661 -0.256693 0
M  V30 1166 H 111.539 -2.60845 -2.7702 0
M  V30 1167 H 111.051 -3.66339 -1.28131 0
M  V30 1168 H 109.152 -2.02738 -3.12615 0
M  V30 1169 H 109.265 -3.88403 -2.80499 0
M  V30 1170 H 107.629 -2.00669 -1.56856 0
M  V30 1171 H 108.412 -3.37787 -0.612789 0
M  V30 1172 N 110.857 0.726932 -1.39834 0
M  V30 1173 C 112.082 1.52121 -1.40976 0
M  V30 1174 C 112.507 1.88098 -0.00826029 0
M  V30 1175 O 111.865 1.52479 0.980807 0
M  V30 1176 C 111.913 2.78021 -2.29644 0
M  V30 1177 O 111.017 3.74272 -1.73188 0
M  V30 1178 H 110.358 0.45908 -0.479731 0
M  V30 1179 H 112.888 0.896207 -1.83927 0
M  V30 1180 H 112.898 3.26671 -2.44438 0
M  V30 1181 H 111.573 2.51169 -3.31492 0
M  V30 1182 H 110.15 3.33073 -1.6768 0
M  V30 1183 N 112.336 1.25143 0.95797 0
M  V30 1184 C 113.246 1.06968 2.08794 0
M  V30 1185 C 114.262 0.00773911 1.73998 0
M  V30 1186 O 115.438 0.207972 2.00323 0
M  V30 1187 C 112.503 0.68691 3.39827 0
M  V30 1188 C 111.564 1.82641 3.88511 0
M  V30 1189 C 110.797 1.46181 5.1329 0
M  V30 1190 O 111.02 0.355971 5.69288 0
M  V30 1191 O 109.954 2.29085 5.566 0
M  V30 1192 H 113.78 2.01723 2.27027 0
M  V30 1193 H 111.365 1.04051 1.07209 0
M  V30 1194 H 113.247 0.485417 4.18595 0
M  V30 1195 H 111.922 -0.231417 3.22872 0
M  V30 1196 H 110.829 2.08274 3.10762 0
M  V30 1197 H 112.162 2.72386 4.09959 0
M  V30 1198 N 113.814 -1.1601 1.06675 0
M  V30 1199 C 115.063 -1.85973 0.780818 0
M  V30 1200 C 115.376 -1.82819 -0.695444 0
M  V30 1201 O 116.582 -2.484 -1.09589 0
M  V30 1202 C 115.038 -3.33757 1.34665 0
M  V30 1203 C 114.646 -3.45374 2.85343 0
M  V30 1204 C 116.39 -4.0895 1.13843 0
M  V30 1205 C 114.297 -4.87266 3.35151 0
M  V30 1206 H 113.227 -0.696661 0.288407 0
M  V30 1207 H 115.878 -1.30903 1.28595 0
M  V30 1208 H 114.26 -3.88456 0.769274 0
M  V30 1209 H 115.434 -3.00816 3.49065 0
M  V30 1210 H 113.749 -2.83619 3.04876 0
M  V30 1211 H 116.346 -5.13654 1.4854 0
M  V30 1212 H 116.689 -4.16229 0.0770282 0
M  V30 1213 H 117.222 -3.605 1.68179 0
M  V30 1214 H 113.961 -4.85168 4.40786 0
M  V30 1215 H 113.481 -5.32433 2.76179 0
M  V30 1216 H 115.16 -5.56097 3.30704 0
M  V30 1217 N 115.292 -0.849877 -1.32721 0
M  V30 1218 C 116.222 -0.306308 -2.31482 0
M  V30 1219 C 117.203 0.591952 -1.59468 0
M  V30 1220 O 118.388 0.513199 -1.87296 0
M  V30 1221 C 115.518 0.510204 -3.43532 0
M  V30 1222 C 114.472 -0.293209 -4.26994 0
M  V30 1223 C 113.798 0.647743 -5.30762 0
M  V30 1224 C 115.098 -1.51634 -4.99804 0
M  V30 1225 H 116.792 -1.13153 -2.77195 0
M  V30 1226 H 114.338 -0.545553 -1.33266 0
M  V30 1227 H 116.291 0.900856 -4.11658 0
M  V30 1228 H 115.015 1.36874 -2.96535 0
M  V30 1229 H 113.674 -0.665555 -3.60508 0
M  V30 1230 H 113.322 1.50299 -4.8002 0
M  V30 1231 H 113.022 0.11422 -5.87489 0
M  V30 1232 H 114.546 1.03567 -6.01753 0
M  V30 1233 H 115.96 -1.19824 -5.60638 0
M  V30 1234 H 114.357 -1.98745 -5.66234 0
M  V30 1235 H 115.427 -2.28018 -4.27943 0
M  V30 1236 N 116.77 1.45427 -0.607355 0
M  V30 1237 C 117.717 2.3053 0.111625 0
M  V30 1238 C 118.687 1.4209 0.860216 0
M  V30 1239 O 119.872 1.71019 0.845998 0
M  V30 1240 C 117.012 3.26992 1.10319 0
M  V30 1241 C 116.125 4.30535 0.355493 0
M  V30 1242 C 115.26 5.14105 1.33676 0
M  V30 1243 C 114.299 6.09376 0.576862 0
M  V30 1244 N 113.436 6.85727 1.5074 0
M  V30 1245 H 118.276 2.91477 -0.620093 0
M  V30 1246 H 115.813 1.43631 -0.317594 0
M  V30 1247 H 117.771 3.81385 1.6912 0
M  V30 1248 H 116.401 2.67799 1.80232 0
M  V30 1249 H 115.453 3.78805 -0.348023 0
M  V30 1250 H 116.765 4.98235 -0.237423 0
M  V30 1251 H 115.919 5.72897 1.99684 0
M  V30 1252 H 114.658 4.46423 1.9636 0
M  V30 1253 H 113.663 5.49715 -0.0968519 0
M  V30 1254 H 114.888 6.79085 -0.0449341 0
M  V30 1255 H 112.834 6.20735 2.12189 0
M  V30 1256 H 112.751 7.49778 0.967913 0
M  V30 1257 H 114.019 7.4906 2.15706 0
M  V30 1258 N 118.248 0.346503 1.53744 0
M  V30 1259 C 119.496 -0.248612 2.00565 0
M  V30 1260 C 119.817 -1.5083 1.23593 0
M  V30 1261 O 119.087 -1.92858 0.343912 0
M  V30 1262 H 117.667 -0.0948564 0.740953 0
M  V30 1263 H 120.329 0.468341 1.89189 0
M  V30 1264 H 119.425 -0.488994 3.08245 0
M  V30 1265 N 119.726 -1.57421 0.075193 0
M  V30 1266 C 120.636 -2.1642 -0.905511 0
M  V30 1267 C 121.652 -1.12828 -1.32461 0
M  V30 1268 O 122.828 -1.45109 -1.39661 0
M  V30 1269 C 119.893 -2.71693 -2.15369 0
M  V30 1270 C 118.954 -3.90171 -1.79068 0
M  V30 1271 C 118.187 -4.42798 -2.97936 0
M  V30 1272 O 118.41 -3.94416 -4.12058 0
M  V30 1273 O 117.344 -5.34085 -2.77555 0
M  V30 1274 H 121.17 -3.00588 -0.433626 0
M  V30 1275 H 118.755 -1.48664 -0.148067 0
M  V30 1276 H 120.637 -3.07104 -2.88557 0
M  V30 1277 H 119.312 -1.90582 -2.61649 0
M  V30 1278 H 118.219 -3.59606 -1.03122 0
M  V30 1279 H 119.552 -4.72584 -1.37569 0
M  V30 1280 N 121.204 0.198386 -1.56346 0
M  V30 1281 C 122.151 1.24589 -1.94284 0
M  V30 1282 C 123.121 1.454 -0.802997 0
M  V30 1283 O 124.306 1.58588 -1.06087 0
M  V30 1284 C 121.446 2.58631 -2.28482 0
M  V30 1285 C 120.559 2.45426 -3.55514 0
M  V30 1286 C 119.694 3.7215 -3.79049 0
M  V30 1287 C 118.733 3.53763 -4.99518 0
M  V30 1288 N 117.87 4.72491 -5.19323 0
M  V30 1289 H 122.71 0.915356 -2.83593 0
M  V30 1290 H 120.247 0.440629 -1.40346 0
M  V30 1291 H 122.205 3.3672 -2.46324 0
M  V30 1292 H 120.835 2.89734 -1.42317 0
M  V30 1293 H 119.887 1.58652 -3.45737 0
M  V30 1294 H 121.199 2.27772 -4.43758 0
M  V30 1295 H 120.353 4.58679 -3.97113 0
M  V30 1296 H 119.092 3.92754 -2.89129 0
M  V30 1297 H 118.097 2.65619 -4.8138 0
M  V30 1298 H 119.322 3.34607 -5.90944 0
M  V30 1299 H 117.268 4.93365 -4.3235 0
M  V30 1300 H 117.185 4.5765 -6.01741 0
M  V30 1301 H 118.453 5.6038 -5.41843 0
M  V30 1302 N 122.682 1.50554 0.465978 0
M  V30 1303 C 124.093 1.54599 1.04671 0
M  V30 1304 C 124.444 0.352488 1.93008 0
M  V30 1305 O 123.569 -0.534044 2.09707 0
M  V30 1306 C 124.164 2.80166 1.90505 0
M  V30 1307 C 122.723 2.86876 2.43678 0
M  V30 1308 C 121.87 2.48947 1.22151 0
M  V30 1309 H 124.821 1.56744 0.248384 0
M  V30 1310 H 124.842 2.62311 2.75633 0
M  V30 1311 H 124.354 3.67013 1.26186 0
M  V30 1312 H 122.455 2.04393 3.11536 0
M  V30 1313 H 122.568 3.89885 2.78436 0
M  V30 1314 H 120.932 2.01498 1.5579 0
M  V30 1315 H 121.715 3.38107 0.594866 0
M  V30 1316 N 124.16 -0.719506 1.40217 0
M  V30 1317 C 125.092 -1.84428 1.36084 0
M  V30 1318 C 126.105 -1.60597 0.266913 0
M  V30 1319 O 127.294 -1.70544 0.526983 0
M  V30 1320 C 124.394 -3.20757 1.094 0
M  V30 1321 C 123.567 -3.71817 2.30372 0
M  V30 1322 C 122.626 -4.86748 1.99907 0
M  V30 1323 O 121.652 -4.99603 2.72737 0
M  V30 1324 N 122.854 -5.7226 0.974635 0
M  V30 1325 H 125.619 -1.88473 2.33019 0
M  V30 1326 H 123.18 -0.900885 1.3452 0
M  V30 1327 H 125.172 -3.95235 0.870116 0
M  V30 1328 H 123.742 -3.11884 0.211452 0
M  V30 1329 H 122.962 -2.88514 2.68614 0
M  V30 1330 H 124.25 -4.02666 3.11026 0
M  V30 1331 H 123.648 -5.6448 0.371368 0
M  V30 1332 H 122.205 -6.46739 0.810656 0
M  V30 1333 N 125.638 -1.25649 -0.95132 0
M  V30 1334 C 126.884 -1.10757 -1.69884 0
M  V30 1335 C 127.217 0.350061 -1.91019 0
M  V30 1336 O 126.492 1.25783 -1.48354 0
M  V30 1337 C 126.775 -1.86606 -3.07978 0
M  V30 1338 C 126.628 -3.40217 -2.94232 0
M  V30 1339 C 127.947 -1.65182 -4.07925 0
M  V30 1340 H 125.066 -0.40374 -0.616574 0
M  V30 1341 H 127.708 -1.54521 -1.10558 0
M  V30 1342 H 125.858 -1.49409 -3.58621 0
M  V30 1343 H 127.53 -3.87108 -2.50889 0
M  V30 1344 H 125.773 -3.67759 -2.30078 0
M  V30 1345 H 126.444 -3.88505 -3.92133 0
M  V30 1346 H 128.92 -1.9757 -3.66204 0
M  V30 1347 H 127.796 -2.20683 -5.02583 0
M  V30 1348 H 128.057 -0.593933 -4.38092 0
M  V30 1349 N 127.117 1.15442 -1.07289 0
M  V30 1350 C 128.533 1.38201 -0.798288 0
M  V30 1351 C 128.733 1.92429 0.597769 0
M  V30 1352 O 127.789 2.12962 1.3566 0
M  V30 1353 C 129.102 2.35357 -1.87156 0
M  V30 1354 C 130.65 2.49021 -1.89624 0
M  V30 1355 C 131.125 3.49468 -2.96034 0
M  V30 1356 N 132.616 3.57003 -2.95132 0
M  V30 1357 C 133.351 4.34543 -3.74112 0
M  V30 1358 N 132.847 5.15421 -4.6294 0
M  V30 1359 N 134.64 4.29625 -3.62462 0
M  V30 1360 H 126.791 0.78584 -1.97328 0
M  V30 1361 H 129.054 0.408065 -0.855679 0
M  V30 1362 H 128.76 2.02626 -2.87464 0
M  V30 1363 H 128.634 3.35129 -1.73114 0
M  V30 1364 H 131.021 2.81051 -0.899687 0
M  V30 1365 H 131.102 1.4925 -2.07745 0
M  V30 1366 H 130.746 3.18173 -3.95889 0
M  V30 1367 H 130.676 4.48992 -2.75161 0
M  V30 1368 H 133.167 2.99276 -2.30743 0
M  V30 1369 H 133.48 5.7183 -5.19837 0
M  V30 1370 H 131.825 5.14729 -4.66989 0
M  V30 1371 H 135.016 3.65505 -2.92444 0
M  V30 1372 H 135.189 4.89807 -4.24256 0
M  V30 1373 N 128.595 0.856903 1.32268 0
M  V30 1374 C 129.505 0.306131 2.32594 0
M  V30 1375 C 130.521 -0.577209 1.64147 0
M  V30 1376 O 131.697 -0.477043 1.95669 0
M  V30 1377 C 128.762 -0.494561 3.43154 0
M  V30 1378 C 127.823 0.415186 4.27288 0
M  V30 1379 C 127.056 -0.347387 5.32568 0
M  V30 1380 O 127.279 -1.57708 5.48165 0
M  V30 1381 O 126.213 0.287982 6.01211 0
M  V30 1382 H 130.039 1.13737 2.81598 0
M  V30 1383 H 127.624 0.619902 1.35932 0
M  V30 1384 H 129.506 -0.948944 4.10576 0
M  V30 1385 H 128.181 -1.30257 2.96336 0
M  V30 1386 H 127.088 0.917793 3.62667 0
M  V30 1387 H 128.421 1.18844 4.77637 0
M  V30 1388 N 130.073 -1.45103 0.615059 0
M  V30 1389 C 131.489 -1.57137 0.279322 0
M  V30 1390 C 131.689 -1.60523 -1.21797 0
M  V30 1391 O 130.745 -1.53956 -2.00134 0
M  V30 1392 C 132.058 -2.85062 0.957083 0
M  V30 1393 C 133.606 -2.98749 0.933706 0
M  V30 1394 C 134.081 -4.29455 1.59162 0
M  V30 1395 N 135.572 -4.36231 1.55746 0
M  V30 1396 C 136.307 -5.36051 2.0356 0
M  V30 1397 N 135.803 -6.42367 2.59494 0
M  V30 1398 N 137.596 -5.27456 1.94284 0
M  V30 1399 H 129.747 -1.41148 1.58717 0
M  V30 1400 H 132.01 -0.675331 0.665306 0
M  V30 1401 H 131.716 -2.88488 2.01166 0
M  V30 1402 H 131.59 -3.7407 0.48494 0
M  V30 1403 H 133.977 -2.94886 -0.112347 0
M  V30 1404 H 134.058 -2.11132 1.44419 0
M  V30 1405 H 133.702 -4.34077 2.63704 0
M  V30 1406 H 133.632 -5.15901 1.0561 0
M  V30 1407 H 136.123 -3.60011 1.14893 0
M  V30 1408 H 136.436 -7.14793 2.93752 0
M  V30 1409 H 134.781 -6.43097 2.63537 0
M  V30 1410 H 137.972 -4.43308 1.5032 0
M  V30 1411 H 138.145 -6.05099 2.3186 0
M  V30 1412 N 131.551 -0.354651 -1.53558 0
M  V30 1413 C 132.799 0.237972 -2.00694 0
M  V30 1414 C 133.12 1.50173 -1.24391 0
M  V30 1415 O 132.39 1.92673 -0.354135 0
M  V30 1416 H 130.97 0.0909256 -0.741446 0
M  V30 1417 H 133.632 -0.478368 -1.88938 0
M  V30 1418 H 132.728 0.47264 -3.085 0
M  V30 1419 N 133.029 1.57378 -0.0835403 0
M  V30 1420 C 134.44 1.81261 0.447358 0
M  V30 1421 C 134.791 0.998331 1.68902 0
M  V30 1422 O 133.916 0.224282 2.15235 0
M  V30 1423 C 134.511 3.28767 0.818386 0
M  V30 1424 C 133.07 3.53455 1.29409 0
M  V30 1425 C 132.217 2.75831 0.285024 0
M  V30 1426 H 135.168 1.5566 -0.309115 0
M  V30 1427 H 135.189 3.41459 1.67887 0
M  V30 1428 H 134.701 3.88006 -0.0855019 0
M  V30 1429 H 132.802 2.99534 2.21608 0
M  V30 1430 H 132.915 4.62128 1.2639 0
M  V30 1431 H 131.279 2.42947 0.764767 0
M  V30 1432 H 132.062 3.37813 -0.611341 0
M  V30 1433 N 134.507 -0.190092 1.56449 0
M  V30 1434 C 135.737 -0.92443 1.84764 0
M  V30 1435 C 136.145 -1.77146 0.664529 0
M  V30 1436 O 135.488 -1.79812 -0.375957 0
M  V30 1437 C 135.55 -1.86651 3.07248 0
M  V30 1438 C 135.214 -1.20094 4.40938 0
M  V30 1439 C 136.211 -0.575445 5.16706 0
M  V30 1440 C 133.896 -1.2033 4.87674 0
M  V30 1441 C 135.89 0.0388111 6.37388 0
M  V30 1442 C 133.577 -0.585214 6.08291 0
M  V30 1443 C 134.575 0.0347578 6.82991 0
M  V30 1444 O 134.263 0.643147 8.01323 0
M  V30 1445 H 133.995 -0.274974 0.617548 0
M  V30 1446 H 136.549 -0.200788 2.04416 0
M  V30 1447 H 134.779 -2.62998 2.83494 0
M  V30 1448 H 136.468 -2.46907 3.22167 0
M  V30 1449 H 137.234 -0.565728 4.81689 0
M  V30 1450 H 133.113 -1.67526 4.29484 0
M  V30 1451 H 136.657 0.523329 6.95634 0
M  V30 1452 H 132.554 -0.592451 6.42775 0
M  V30 1453 H 133.322 0.540545 8.16713 0
M  V30 1454 N 135.985 -1.50799 -0.457987 0
M  V30 1455 C 137.231 -1.62683 -1.21088 0
M  V30 1456 C 137.564 -0.332268 -1.91336 0
M  V30 1457 O 136.839 0.667043 -1.82704 0
M  V30 1458 C 137.122 -2.81615 -2.24422 0
M  V30 1459 C 136.975 -4.20989 -1.58392 0
M  V30 1460 C 138.294 -2.96085 -3.2561 0
M  V30 1461 H 135.413 -0.592087 -0.438864 0
M  V30 1462 H 138.055 -1.83225 -0.50286 0
M  V30 1463 H 136.205 -2.64231 -2.84806 0
M  V30 1464 H 137.877 -4.49994 -1.01504 0
M  V30 1465 H 136.12 -4.24641 -0.886704 0
M  V30 1466 H 136.791 -5.0016 -2.33547 0
M  V30 1467 H 139.267 -3.12042 -2.75262 0
M  V30 1468 H 138.143 -3.80902 -3.95228 0
M  V30 1469 H 138.404 -2.0726 -3.90507 0
M  V30 1470 N 137.463 0.71206 -1.40597 0
M  V30 1471 C 138.693 1.49894 -1.42181 0
M  V30 1472 C 139.101 1.89189 -0.0208078 0
M  V30 1473 O 138.444 1.56223 0.966436 0
M  V30 1474 C 138.506 2.80215 -2.25211 0
M  V30 1475 C 138.17 2.63221 -3.73582 0
M  V30 1476 C 139.167 2.30249 -4.66135 0
M  V30 1477 C 136.852 2.79376 -4.17438 0
M  V30 1478 C 138.846 2.13645 -6.00529 0
M  V30 1479 C 136.533 2.6239 -5.51901 0
M  V30 1480 C 137.531 2.29573 -6.43262 0
M  V30 1481 O 137.219 2.12719 -7.75246 0
M  V30 1482 H 136.951 0.469031 -0.486812 0
M  V30 1483 H 139.505 0.88564 -1.85326 0
M  V30 1484 H 137.735 3.4389 -1.76852 0
M  V30 1485 H 139.424 3.41947 -2.18694 0
M  V30 1486 H 140.19 2.17398 -4.33547 0
M  V30 1487 H 136.069 3.03906 -3.46644 0
M  V30 1488 H 139.613 1.87953 -6.71803 0
M  V30 1489 H 135.51 2.74826 -5.84073 0
M  V30 1490 H 136.278 2.27611 -7.86216 0
M  V30 1491 N 138.941 1.26152 0.944643 0
M  V30 1492 C 140.357 1.03189 1.21754 0
M  V30 1493 C 140.557 -0.245112 2.00004 0
M  V30 1494 O 139.613 -0.955176 2.33736 0
M  V30 1495 C 140.926 2.26119 1.98219 0
M  V30 1496 C 142.474 2.30984 2.11224 0
M  V30 1497 C 142.949 3.53597 2.91089 0
M  V30 1498 N 144.44 3.54053 2.98664 0
M  V30 1499 C 145.175 4.45593 3.60881 0
M  V30 1500 N 144.671 5.47416 4.24626 0
M  V30 1501 N 146.464 4.33252 3.58119 0
M  V30 1502 H 138.615 2.08177 0.421437 0
M  V30 1503 H 140.878 0.914723 0.248969 0
M  V30 1504 H 140.584 3.18984 1.48128 0
M  V30 1505 H 140.458 2.3009 2.98895 0
M  V30 1506 H 142.845 1.38635 2.60508 0
M  V30 1507 H 142.926 2.31026 1.09821 0
M  V30 1508 H 142.57 4.46273 2.42493 0
M  V30 1509 H 142.5 3.50802 3.92741 0
M  V30 1510 H 144.991 2.80403 2.53343 0
M  V30 1511 H 145.304 6.13459 4.69987 0
M  V30 1512 H 143.649 5.51278 4.23223 0
M  V30 1513 H 146.84 3.52924 3.0751 0
M  V30 1514 H 147.013 5.04786 4.06319 0
M  V30 1515 N 140.419 -1.14872 1.07899 0
M  V30 1516 C 141.329 -2.2341 0.715915 0
M  V30 1517 C 142.345 -1.71808 -0.275306 0
M  V30 1518 O 143.521 -2.01039 -0.120545 0
M  V30 1519 C 140.586 -3.46474 0.125168 0
M  V30 1520 C 139.647 -4.13039 1.17034 0
M  V30 1521 C 138.88 -5.30229 0.607688 0
M  V30 1522 O 139.103 -5.675 -0.574497 0
M  V30 1523 O 138.037 -5.86444 1.35526 0
M  V30 1524 H 141.863 -2.56808 1.62121 0
M  V30 1525 H 139.448 -1.22702 0.852322 0
M  V30 1526 H 141.33 -4.20917 -0.201729 0
M  V30 1527 H 140.005 -3.14811 -0.753364 0
M  V30 1528 H 138.912 -3.40493 1.54968 0
M  V30 1529 H 140.245 -4.48796 2.02097 0
M  V30 1530 N 141.898 -0.863906 -1.31812 0
M  V30 1531 C 143.145 -0.471836 -1.96926 0
M  V30 1532 C 143.473 0.974578 -1.68322 0
M  V30 1533 O 142.728 1.7003 -0.968933 0
M  V30 1534 C 143.027 -0.668547 -3.51091 0
M  V30 1535 C 142.693 -2.08683 -3.99703 0
M  V30 1536 C 141.355 -2.47471 -4.12688 0
M  V30 1537 C 143.707 -3.01207 -4.25351 0
M  V30 1538 C 141.035 -3.78037 -4.4867 0
M  V30 1539 C 143.387 -4.31282 -4.62794 0
M  V30 1540 C 142.051 -4.69992 -4.73987 0
M  V30 1541 H 141.321 -0.172657 -0.720604 0
M  V30 1542 H 143.968 -1.09573 -1.57054 0
M  V30 1543 H 142.273 0.0385252 -3.91781 0
M  V30 1544 H 143.97 -0.345102 -3.99512 0
M  V30 1545 H 140.56 -1.77566 -3.90087 0
M  V30 1546 H 144.744 -2.72469 -4.14819 0
M  V30 1547 H 140 -4.078 -4.55532 0
M  V30 1548 H 144.174 -5.03031 -4.81594 0
M  V30 1549 H 141.801 -5.71207 -5.01624 0
M  V30 1550 N 143.376 1.44774 -0.622745 0
M  V30 1551 C 144.792 1.56986 -0.287652 0
M  V30 1552 C 144.992 1.61167 1.20944 0
M  V30 1553 O 144.048 1.55015 1.99315 0
M  V30 1554 C 145.361 2.84551 -0.972188 0
M  V30 1555 C 146.909 2.9825 -0.949536 0
M  V30 1556 C 147.384 4.28605 -1.61437 0
M  V30 1557 N 148.875 4.35399 -1.58057 0
M  V30 1558 C 149.61 5.34964 -2.064 0
M  V30 1559 N 149.106 6.40981 -2.62897 0
M  V30 1560 N 150.899 5.26419 -1.97078 0
M  V30 1561 H 143.05 1.40304 -1.59463 0
M  V30 1562 H 145.313 0.671794 -0.668878 0
M  V30 1563 H 145.019 2.87417 -2.02693 0
M  V30 1564 H 144.893 3.73807 -0.504771 0
M  V30 1565 H 147.28 2.94941 0.0967067 0
M  V30 1566 H 147.361 2.10364 -1.45536 0
M  V30 1567 H 147.005 4.32672 -2.66002 0
M  V30 1568 H 146.935 5.15334 -1.08344 0
M  V30 1569 H 149.426 3.59397 -1.16801 0
M  V30 1570 H 149.739 7.13225 -2.97539 0
M  V30 1571 H 148.084 6.4169 -2.66943 0
M  V30 1572 H 151.275 4.42504 -1.52669 0
M  V30 1573 H 151.448 6.03861 -2.35066 0
M  V30 1574 N 144.854 0.36279 1.53368 0
M  V30 1575 C 145.804 -0.501391 2.22419 0
M  V30 1576 C 146.788 -1.0509 1.2184 0
M  V30 1577 O 147.98 -0.981404 1.47301 0
M  V30 1578 C 145.109 -1.64201 3.01484 0
M  V30 1579 C 144.195 -1.10552 4.09438 0
M  V30 1580 N 144.586 -0.291788 5.04958 0
M  V30 1581 C 142.884 -1.3806 4.24094 0
M  V30 1582 C 143.585 0.00162655 5.817 0
M  V30 1583 N 142.561 -0.595244 5.40331 0
M  V30 1584 H 146.363 0.127159 2.93625 0
M  V30 1585 H 143.877 0.170658 1.61501 0
M  V30 1586 H 145.874 -2.27326 3.49469 0
M  V30 1587 H 144.534 -2.27365 2.31809 0
M  V30 1588 H 145.545 0.0687731 5.17854 0
M  V30 1589 H 142.222 -2.01522 3.65644 0
M  V30 1590 H 143.612 0.659278 6.68658 0
M  V30 1591 N 146.332 -1.57332 0.0918853 0
M  V30 1592 C 147.279 -2.13847 -0.868211 0
M  V30 1593 C 148.249 -1.05618 -1.28196 0
M  V30 1594 O 149.434 -1.33387 -1.36427 0
M  V30 1595 C 146.574 -2.72062 -2.12312 0
M  V30 1596 C 145.687 -3.94514 -1.7602 0
M  V30 1597 C 144.822 -4.40903 -2.96273 0
M  V30 1598 C 143.861 -5.55953 -2.56092 0
M  V30 1599 N 142.998 -5.97209 -3.69169 0
M  V30 1600 H 147.838 -2.95575 -0.379406 0
M  V30 1601 H 145.375 -1.46048 -0.175606 0
M  V30 1602 H 147.333 -3.03931 -2.858 0
M  V30 1603 H 145.963 -1.93068 -2.58698 0
M  V30 1604 H 145.015 -3.68979 -0.925135 0
M  V30 1605 H 146.327 -4.7802 -1.42472 0
M  V30 1606 H 145.481 -4.74539 -3.78018 0
M  V30 1607 H 144.22 -3.56291 -3.33029 0
M  V30 1608 H 143.225 -5.21948 -1.72773 0
M  V30 1609 H 144.45 -6.42311 -2.20484 0
M  V30 1610 H 142.396 -5.15543 -4.05649 0
M  V30 1611 H 142.313 -6.75504 -3.39456 0
M  V30 1612 H 143.581 -6.35475 -4.51434 0
M  V30 1613 N 147.81 0.181792 -1.56548 0
M  V30 1614 C 149.035 0.920019 -1.85877 0
M  V30 1615 C 149.46 1.75494 -0.677021 0
M  V30 1616 O 148.818 1.77399 0.374056 0
M  V30 1617 C 148.866 1.78112 -3.13542 0
M  V30 1618 O 147.97 2.88152 -2.95029 0
M  V30 1619 H 147.311 0.258334 -0.611686 0
M  V30 1620 H 149.841 0.183092 -2.03779 0
M  V30 1621 H 149.851 2.18314 -3.44678 0
M  V30 1622 H 148.526 1.16777 -3.99169 0
M  V30 1623 H 147.103 2.51609 -2.75222 0
M  V30 1624 N 149.288 1.51039 0.449983 0
M  V30 1625 C 150.236 1.71995 1.5659 0
M  V30 1626 C 151.23 0.586029 1.5894 0
M  V30 1627 O 152.436 0.76709 1.62837 0
M  V30 1628 H 148.811 0.543233 0.520001 0
M  V30 1629 H 150.782 2.65562 1.36085 0
M  V30 1630 C 149.531 1.8506 2.9436 0
M  V30 1631 H 148.854 2.71712 2.93279 0
M  V30 1632 H 150.294 2.0374 3.71842 0
M  V30 1633 C 148.753 0.607277 3.31382 0
M  V30 1634 O 149.283 -0.243903 4.00959 0
M  V30 1635 N 147.489 0.455073 2.87015 0
M  V30 1636 H 147.036 1.14879 2.30566 0
M  V30 1637 H 146.994 -0.375611 3.12148 0
M  V30 1638 N 150.766 -0.704594 1.40972 0
M  V30 1639 C 152.015 -1.46018 1.39146 0
M  V30 1640 C 152.328 -1.956 0.000589254 0
M  V30 1641 O 153.534 -2.71137 -0.1403 0
M  V30 1642 C 151.99 -2.63996 2.4461 0
M  V30 1643 C 151.598 -2.21238 3.89561 0
M  V30 1644 C 153.342 -3.41677 2.51907 0
M  V30 1645 C 151.249 -3.3612 4.86598 0
M  V30 1646 H 150.179 -0.548444 0.517422 0
M  V30 1647 H 152.83 -0.765784 1.66757 0
M  V30 1648 H 151.212 -3.3566 2.10115 0
M  V30 1649 H 152.386 -1.56923 4.33257 0
M  V30 1650 H 150.701 -1.56574 3.85841 0
M  V30 1651 H 153.298 -4.27182 3.2159 0
M  V30 1652 H 153.641 -3.86247 1.55303 0
M  V30 1653 H 154.174 -2.77064 2.85448 0
M  V30 1654 H 150.913 -2.96572 5.84573 0
M  V30 1655 H 150.433 -3.99315 4.47557 0
M  V30 1656 H 152.112 -4.02029 5.06934 0
M  V30 1657 N 152.244 -1.26651 -0.937939 0
M  V30 1658 C 153.472 -1.15173 -1.7188 0
M  V30 1659 C 153.887 0.292668 -1.86518 0
M  V30 1660 O 153.244 1.20014 -1.37488 0
M  V30 1661 C 153.295 -1.81925 -3.12387 0
M  V30 1662 O 153.016 -3.2072 -2.98446 0
M  V30 1663 C 154.517 -1.76442 -4.06673 0
M  V30 1664 H 151.737 -0.400911 -0.538063 0
M  V30 1665 H 154.281 -1.67332 -1.1756 0
M  V30 1666 H 152.436 -1.33696 -3.63599 0
M  V30 1667 H 152.85 -3.53802 -3.872 0
M  V30 1668 H 154.324 -2.27781 -5.02812 0
M  V30 1669 H 154.801 -0.731608 -4.33064 0
M  V30 1670 H 155.407 -2.24238 -3.61382 0
M  V30 1671 N 153.722 1.14298 -1.08507 0
M  V30 1672 C 154.969 1.85359 -0.815373 0
M  V30 1673 C 155.297 1.83001 0.658865 0
M  V30 1674 O 154.552 1.25655 1.50031 0
M  V30 1675 C 154.851 3.33547 -1.28379 0
M  V30 1676 C 154.517 3.56093 -2.76602 0
M  V30 1677 C 153.179 3.61955 -3.17084 0
M  V30 1678 C 155.531 3.64834 -3.72217 0
M  V30 1679 C 152.859 3.74082 -4.51973 0
M  V30 1680 C 155.211 3.78487 -5.06883 0
M  V30 1681 C 153.875 3.82598 -5.46969 0
M  V30 1682 H 153.145 0.678276 -0.298366 0
M  V30 1683 H 155.792 1.35002 -1.35819 0
M  V30 1684 H 154.097 3.86191 -0.660593 0
M  V30 1685 H 155.794 3.86959 -1.05186 0
M  V30 1686 H 152.384 3.52179 -2.4427 0
M  V30 1687 H 156.568 3.59595 -3.42061 0
M  V30 1688 H 151.824 3.75527 -4.82483 0
M  V30 1689 H 155.998 3.84193 -5.80834 0
M  V30 1690 H 153.625 3.91747 -6.51489 0
M  V30 1691 N 155.201 0.870884 1.31352 0
M  V30 1692 C 156.149 0.316445 2.30437 0
M  V30 1693 C 157.143 -0.568965 1.59559 0
M  V30 1694 O 158.349 -0.454964 1.74155 0
M  V30 1695 H 154.724 0.0836521 0.747333 0
M  V30 1696 H 156.695 1.16606 2.74673 0
M  V30 1697 C 155.444 -0.46635 3.44558 0
M  V30 1698 H 154.767 0.205687 3.99271 0
M  V30 1699 H 156.207 -0.819614 4.16003 0
M  V30 1700 C 154.666 -1.65797 2.9328 0
M  V30 1701 O 155.196 -2.75728 2.92125 0
M  V30 1702 N 153.402 -1.49041 2.4947 0
M  V30 1703 H 152.949 -0.59612 2.50608 0
M  V30 1704 H 152.907 -2.28911 2.15516 0
M  V30 1705 N 156.679 -1.44442 0.630414 0
M  V30 1706 C 157.627 -2.32437 -0.0871428 0
M  V30 1707 C 158.621 -1.47304 -0.836525 0
M  V30 1708 O 159.827 -1.63653 -0.749506 0
M  V30 1709 H 156.202 -0.750533 -0.0469495 0
M  V30 1710 H 158.173 -2.90709 0.673096 0
M  V30 1711 C 156.922 -3.31288 -1.05563 0
M  V30 1712 H 156.245 -3.96805 -0.488426 0
M  V30 1713 H 157.685 -3.9554 -1.52721 0
M  V30 1714 C 156.144 -2.6016 -2.14052 0
M  V30 1715 O 156.674 -2.39997 -3.22124 0
M  V30 1716 N 154.88 -2.19911 -1.89967 0
M  V30 1717 H 154.427 -2.36509 -1.02085 0
M  V30 1718 H 154.385 -1.72646 -2.62756 0
M  V30 1719 N 158.157 -0.370918 -1.53173 0
M  V30 1720 C 159.105 0.488101 -2.27421 0
M  V30 1721 C 160.099 1.07884 -1.30604 0
M  V30 1722 O 161.305 1.02143 -1.48212 0
M  V30 1723 H 157.68 0.176134 -0.731082 0
M  V30 1724 H 159.651 -0.159815 -2.97972 0
M  V30 1725 C 158.4 1.61306 -3.08019 0
M  V30 1726 H 157.723 1.1678 -3.82364 0
M  V30 1727 H 159.163 2.18872 -3.63141 0
M  V30 1728 C 157.622 2.55848 -2.19188 0
M  V30 1729 O 158.152 3.58799 -1.80626 0
M  V30 1730 N 156.358 2.2516 -1.83715 0
M  V30 1731 H 155.905 1.41476 -2.15273 0
M  V30 1732 H 155.863 2.8867 -1.24567 0
M  V30 1733 N 159.635 1.57281 -0.100228 0
M  V30 1734 C 160.912 1.86014 0.604812 0
M  V30 1735 C 161.292 0.998025 1.86018 0
M  V30 1736 O 160.64 0.0718184 2.28387 0
M  V30 1737 C 160.85 3.36784 0.915278 0
M  V30 1738 C 162.198 4.04957 1.27651 0
M  V30 1739 O 163.222 3.41695 1.00613 0
M  V30 1740 O 162.081 5.16593 1.7831 0
M  V30 1741 H 159.175 0.76942 0.303185 0
M  V30 1742 H 161.721 1.69176 -0.133313 0
M  V30 1743 H 160.493 3.91292 0.0248896 0
M  V30 1744 H 160.116 3.58987 1.70921 0
M  V30 1745 N 161.113 -0.173488 1.56642 0
M  V30 1746 C 162.341 -0.906095 1.86004 0
M  V30 1747 C 162.756 -1.75921 0.685355 0
M  V30 1748 O 162.113 -1.79198 -0.345578 0
M  V30 1749 C 162.164 -1.78462 3.14378 0
M  V30 1750 O 161.885 -0.965914 4.27319 0
M  V30 1751 C 163.386 -2.62707 3.57071 0
M  V30 1752 H 160.606 -0.263341 0.617165 0
M  V30 1753 H 163.15 -0.174236 2.03756 0
M  V30 1754 H 161.305 -2.46984 2.98459 0
M  V30 1755 H 161.719 -1.56655 5.00559 0
M  V30 1756 H 163.193 -3.19969 4.49804 0
M  V30 1757 H 163.67 -3.37472 2.81086 0
M  V30 1758 H 164.276 -1.99521 3.75595 0
M  V30 1759 N 162.591 -1.51276 -0.441967 0
M  V30 1760 C 163.837 -1.63958 -1.19355 0
M  V30 1761 C 164.17 -0.352543 -1.90973 0
M  V30 1762 O 163.445 0.647627 -1.83401 0
M  V30 1763 C 163.728 -2.83979 -2.21422 0
M  V30 1764 C 163.581 -4.22646 -1.53918 0
M  V30 1765 C 164.9 -2.99521 -3.22451 0
M  V30 1766 H 162.019 -0.596709 -0.432559 0
M  V30 1767 H 164.661 -1.83748 -0.483398 0
M  V30 1768 H 162.811 -2.67237 -2.81987 0
M  V30 1769 H 164.483 -4.51045 -0.967256 0
M  V30 1770 H 162.726 -4.25558 -0.841615 0
M  V30 1771 H 163.397 -5.02609 -2.28229 0
M  V30 1772 H 165.873 -3.14944 -2.71937 0
M  V30 1773 H 164.749 -3.85072 -3.91166 0
M  V30 1774 H 165.01 -2.11391 -3.88287 0
M  V30 1775 N 164.069 0.697108 -1.41344 0
M  V30 1776 C 165.294 1.49096 -1.44171 0
M  V30 1777 C 165.719 1.88038 -0.0481568 0
M  V30 1778 O 165.077 1.54525 0.948243 0
M  V30 1779 C 165.125 2.73088 -2.3549 0
M  V30 1780 O 164.229 3.70514 -1.81088 0
M  V30 1781 H 163.57 0.448801 -0.489361 0
M  V30 1782 H 166.1 0.856992 -1.85787 0
M  V30 1783 H 166.11 3.21413 -2.51312 0
M  V30 1784 H 164.785 2.44081 -3.36745 0
M  V30 1785 H 163.362 3.29441 -1.74708 0
M  V30 1786 N 165.547 1.27147 0.931209 0
M  V30 1787 C 166.794 1.13278 1.67852 0
M  V30 1788 C 167.122 -0.32204 1.91815 0
M  V30 1789 O 166.377 -1.25224 1.50391 0
M  V30 1790 C 166.676 1.8579 3.05314 0
M  V30 1791 C 166.342 3.35657 3.01073 0
M  V30 1792 C 165.004 3.76536 2.99623 0
M  V30 1793 C 167.356 4.31299 2.92627 0
M  V30 1794 C 164.684 5.11426 2.87506 0
M  V30 1795 C 167.036 5.66242 2.82051 0
M  V30 1796 C 165.7 6.06418 2.7895 0
M  V30 1797 H 164.97 0.414515 0.614214 0
M  V30 1798 H 167.617 1.57712 1.08624 0
M  V30 1799 H 165.922 1.33854 3.68226 0
M  V30 1800 H 167.619 1.72491 3.62005 0
M  V30 1801 H 164.209 3.03146 3.02986 0
M  V30 1802 H 168.393 4.00692 2.92848 0
M  V30 1803 H 163.649 5.41705 2.83489 0
M  V30 1804 H 167.823 6.40026 2.74481 0
M  V30 1805 H 165.45 7.10895 2.69318 0
M  V30 1806 N 167.025 -1.13721 1.09112 0
M  V30 1807 C 167.955 -2.21148 0.749385 0
M  V30 1808 C 168.936 -1.6792 -0.271475 0
M  V30 1809 O 170.121 -1.93693 -0.140251 0
M  V30 1810 C 167.251 -3.46905 0.165659 0
M  V30 1811 C 166.205 -4.13203 1.11567 0
M  V30 1812 C 165.531 -5.33248 0.393809 0
M  V30 1813 C 166.831 -4.60912 2.45678 0
M  V30 1814 H 168.525 -2.4999 1.64758 0
M  V30 1815 H 166.071 -1.20156 0.793626 0
M  V30 1816 H 168.024 -4.21313 -0.085466 0
M  V30 1817 H 166.748 -3.17449 -0.767714 0
M  V30 1818 H 165.407 -3.40758 1.35202 0
M  V30 1819 H 165.055 -5.00054 -0.543599 0
M  V30 1820 H 164.755 -5.78552 1.02721 0
M  V30 1821 H 166.279 -6.10413 0.150908 0
M  V30 1822 H 167.693 -5.26759 2.26269 0
M  V30 1823 H 166.09 -5.16944 3.04776 0
M  V30 1824 H 167.16 -3.75603 3.06677 0
M  V30 1825 N 168.503 -0.877838 -1.30888 0
M  V30 1826 C 169.413 -0.343096 -2.32078 0
M  V30 1827 C 170.429 0.551022 -1.65045 0
M  V30 1828 O 171.605 0.445854 -1.96403 0
M  V30 1829 C 168.67 0.439905 -3.43898 0
M  V30 1830 C 167.731 -0.483111 -4.26573 0
M  V30 1831 C 166.964 0.262616 -5.33053 0
M  V30 1832 O 167.187 1.48967 -5.50604 0
M  V30 1833 O 166.121 -0.383593 -6.00676 0
M  V30 1834 H 169.947 -1.18203 -2.79753 0
M  V30 1835 H 167.532 -0.64145 -1.34929 0
M  V30 1836 H 169.414 0.883504 -4.12034 0
M  V30 1837 H 168.089 1.25526 -2.98371 0
M  V30 1838 H 166.996 -0.975374 -3.61161 0
M  V30 1839 H 168.329 -1.26427 -4.75686 0
M  V30 1840 N 169.982 1.44106 -0.638065 0
M  V30 1841 C 171.212 2.06037 -0.152394 0
M  V30 1842 C 171.62 1.47808 1.18108 0
M  V30 1843 O 170.963 0.598092 1.73691 0
M  V30 1844 C 171.025 3.59488 0.0293714 0
M  V30 1845 C 170.689 4.4022 -1.22702 0
M  V30 1846 C 171.686 4.73256 -2.15232 0
M  V30 1847 C 169.371 4.8048 -1.46437 0
M  V30 1848 C 171.365 5.45444 -3.29802 0
M  V30 1849 C 169.052 5.52417 -2.61303 0
M  V30 1850 C 170.05 5.84819 -3.52811 0
M  V30 1851 O 169.738 6.55289 -4.65673 0
M  V30 1852 H 169.47 0.671233 -0.0801401 0
M  V30 1853 H 172.024 1.85851 -0.874563 0
M  V30 1854 H 170.254 3.78191 0.806758 0
M  V30 1855 H 171.943 4.03164 0.470475 0
M  V30 1856 H 172.709 4.42684 -1.98131 0
M  V30 1857 H 168.588 4.54676 -0.760977 0
M  V30 1858 H 172.132 5.70653 -4.01249 0
M  V30 1859 H 168.029 5.82404 -2.78344 0
M  V30 1860 H 168.797 6.73762 -4.64744 0
M  V30 1861 N 171.46 0.379036 1.52974 0
M  V30 1862 C 172.876 0.0285448 1.59574 0
M  V30 1863 C 173.076 -1.45542 1.39355 0
M  V30 1864 O 172.132 -2.2187 1.20541 0
M  V30 1865 C 173.445 0.496535 2.96572 0
M  V30 1866 C 174.993 0.451909 3.0972 0
M  V30 1867 C 175.468 0.895924 4.49152 0
M  V30 1868 N 176.959 0.851522 4.55306 0
M  V30 1869 C 177.694 1.16661 5.61407 0
M  V30 1870 N 177.19 1.55166 6.752 0
M  V30 1871 N 178.983 1.08853 5.51459 0
M  V30 1872 H 171.134 1.34525 1.64367 0
M  V30 1873 H 173.397 0.550733 0.771619 0
M  V30 1874 H 173.103 1.53258 3.16552 0
M  V30 1875 H 172.977 -0.109802 3.7704 0
M  V30 1876 H 175.364 -0.575029 2.89443 0
M  V30 1877 H 175.445 1.09392 2.3123 0
M  V30 1878 H 175.089 1.92104 4.70168 0
M  V30 1879 H 175.019 0.23103 5.26093 0
M  V30 1880 H 177.51 0.568038 3.73606 0
M  V30 1881 H 177.823 1.776 7.52116 0
M  V30 1882 H 176.168 1.59044 6.76557 0
M  V30 1883 H 179.359 0.786803 4.6144 0
M  V30 1884 H 179.532 1.33742 6.34048 0
M  V30 1885 N 172.938 -1.57226 0.108567 0
M  V30 1886 C 174.166 -1.99179 -0.559954 0
M  V30 1887 C 174.581 -0.988022 -1.60884 0
M  V30 1888 O 173.938 0.0205512 -1.82488 0
M  V30 1889 C 173.989 -3.41159 -1.19552 0
M  V30 1890 O 173.71 -4.37694 -0.188577 0
M  V30 1891 C 175.211 -3.98188 -1.94837 0
M  V30 1892 H 172.431 -0.654228 -0.149088 0
M  V30 1893 H 174.975 -2.03598 0.19183 0
M  V30 1894 H 173.13 -3.37711 -1.89815 0
M  V30 1895 H 173.544 -5.20469 -0.649014 0
M  V30 1896 H 175.018 -4.99644 -2.34648 0
M  V30 1897 H 175.495 -3.3675 -2.81951 0
M  V30 1898 H 176.101 -4.0515 -1.2936 0
M  V30 1899 N 174.416 0.165178 -1.56732 0
M  V30 1900 C 175.663 0.880807 -1.8234 0
M  V30 1901 C 175.991 1.81977 -0.686621 0
M  V30 1902 O 175.246 1.92971 0.325697 0
M  V30 1903 C 175.545 1.70405 -3.1416 0
M  V30 1904 C 175.211 0.913475 -4.4155 0
M  V30 1905 C 173.873 0.695303 -4.7615 0
M  V30 1906 C 176.225 0.359349 -5.1996 0
M  V30 1907 C 173.553 -0.0879947 -5.86634 0
M  V30 1908 C 175.905 -0.410893 -6.31264 0
M  V30 1909 C 174.569 -0.639808 -6.64427 0
M  V30 1910 H 173.839 0.32231 -0.667231 0
M  V30 1911 H 176.486 0.145402 -1.90947 0
M  V30 1912 H 174.791 2.50903 -3.00923 0
M  V30 1913 H 176.488 2.26091 -3.31186 0
M  V30 1914 H 173.078 1.09357 -4.14414 0
M  V30 1915 H 177.262 0.515228 -4.93618 0
M  V30 1916 H 172.518 -0.27503 -6.10781 0
M  V30 1917 H 176.692 -0.847494 -6.91224 0
M  V30 1918 H 174.319 -1.24864 -7.49875 0
M  V30 1919 N 175.894 1.51508 0.433938 0
M  V30 1920 C 176.826 1.69266 1.54537 0
M  V30 1921 C 177.839 0.573276 1.52373 0
M  V30 1922 O 179.028 0.847698 1.57087 0
M  V30 1923 C 176.128 1.69524 2.93453 0
M  V30 1924 C 175.301 2.98101 3.20085 0
M  V30 1925 C 174.36 2.90502 4.38742 0
M  V30 1926 O 173.386 3.64442 4.3723 0
M  V30 1927 N 174.588 2.06586 5.42496 0
M  V30 1928 H 177.353 2.65145 1.39708 0
M  V30 1929 H 174.914 1.49437 0.622922 0
M  V30 1930 H 176.906 1.62004 3.70859 0
M  V30 1931 H 175.476 0.812245 3.01863 0
M  V30 1932 H 174.696 3.19464 2.30947 0
M  V30 1933 H 175.984 3.83207 3.34708 0
M  V30 1934 H 175.382 1.45896 5.46563 0
M  V30 1935 H 173.939 2.04943 6.18742 0
M  V30 1936 N 177.372 -0.689602 1.41712 0
M  V30 1937 C 178.619 -1.44966 1.4139 0
M  V30 1938 C 178.947 -1.94484 0.025105 0
M  V30 1939 O 178.202 -1.70307 -0.964048 0
M  V30 1940 C 178.501 -2.67298 2.37247 0
M  V30 1941 C 178.167 -2.36405 3.83958 0
M  V30 1942 C 176.829 -2.27691 4.23923 0
M  V30 1943 C 179.181 -2.11043 4.76561 0
M  V30 1944 C 176.509 -1.91719 5.54492 0
M  V30 1945 C 178.861 -1.76578 6.07456 0
M  V30 1946 C 177.525 -1.66363 6.46436 0
M  V30 1947 H 176.795 -0.53047 0.517381 0
M  V30 1948 H 179.442 -0.787655 1.74552 0
M  V30 1949 H 177.747 -3.38461 1.9736 0
M  V30 1950 H 179.444 -3.25452 2.34269 0
M  V30 1951 H 176.034 -2.44085 3.52308 0
M  V30 1952 H 180.218 -2.16717 4.46483 0
M  V30 1953 H 175.474 -1.82367 5.83568 0
M  V30 1954 H 179.648 -1.55974 6.78708 0
M  V30 1955 H 177.275 -1.38258 7.47522 0
M  V30 1956 N 178.85 -1.27639 -0.924453 0
M  V30 1957 C 179.782 -1.06442 -2.02985 0
M  V30 1958 C 180.795 -0.0194771 -1.62788 0
M  V30 1959 O 181.984 -0.261388 -1.76576 0
M  V30 1960 C 179.084 -0.59327 -3.33667 0
M  V30 1961 C 178.257 -1.71123 -4.02537 0
M  V30 1962 C 177.316 -1.23527 -5.11495 0
M  V30 1963 O 176.342 -1.93553 -5.35281 0
M  V30 1964 N 177.544 -0.0926678 -5.80426 0
M  V30 1965 H 180.309 -2.01633 -2.2173 0
M  V30 1966 H 177.87 -1.19248 -1.09505 0
M  V30 1967 H 179.862 -0.258686 -4.03872 0
M  V30 1968 H 178.432 0.265502 -3.1147 0
M  V30 1969 H 177.652 -2.21593 -3.26022 0
M  V30 1970 H 178.94 -2.46145 -4.45298 0
M  V30 1971 H 178.338 0.491741 -5.63559 0
M  V30 1972 H 176.895 0.182714 -6.51544 0
M  V30 1973 N 180.328 1.1314 -1.09713 0
M  V30 1974 C 181.739 1.66029 -0.853885 0
M  V30 1975 C 182.09 1.86241 0.617142 0
M  V30 1976 O 181.215 1.5834 1.47503 0
M  V30 1977 C 181.81 3.01599 -1.5435 0
M  V30 1978 C 180.369 3.51467 -1.34714 0
M  V30 1979 C 179.516 2.26648 -1.59769 0
M  V30 1980 H 182.467 0.970226 -1.25588 0
M  V30 1981 H 182.488 3.67709 -0.978267 0
M  V30 1982 H 182 2.86856 -2.6141 0
M  V30 1983 H 180.101 3.71408 -0.297838 0
M  V30 1984 H 180.214 4.314 -2.08401 0
M  V30 1985 H 178.578 2.33385 -1.01998 0
M  V30 1986 H 179.361 2.14467 -2.68065 0
M  V30 1987 N 181.806 0.884767 1.30421 0
M  V30 1988 C 183.031 0.517288 2.00845 0
M  V30 1989 C 183.456 -0.886779 1.65885 0
M  V30 1990 O 182.814 -1.58768 0.875354 0
M  V30 1991 C 182.862 0.698994 3.5376 0
M  V30 1992 O 181.966 -0.255208 4.1161 0
M  V30 1993 H 181.307 0.203872 0.631927 0
M  V30 1994 H 183.837 1.19225 1.66272 0
M  V30 1995 H 183.847 0.597912 4.03595 0
M  V30 1996 H 182.522 1.72271 3.78544 0
M  V30 1997 H 181.099 -0.10784 3.72744 0
M  V30 1998 N 183.284 -1.43765 0.645699 0
M  V30 1999 C 184.231 -2.30745 -0.0504648 0
M  V30 2000 C 185.201 -1.4432 -0.822241 0
M  V30 2001 O 186.386 -1.73202 -0.800358 0
M  V30 2002 C 183.526 -3.29802 -1.0161 0
M  V30 2003 C 182.639 -4.31326 -0.241219 0
M  V30 2004 C 181.774 -5.17469 -1.19998 0
M  V30 2005 C 180.813 -6.10691 -0.415094 0
M  V30 2006 N 179.95 -6.89483 -1.32506 0
M  V30 2007 H 184.79 -2.8973 0.697155 0
M  V30 2008 H 182.327 -1.42738 0.355563 0
M  V30 2009 H 184.285 -3.85734 -1.58949 0
M  V30 2010 H 182.915 -2.72483 -1.73069 0
M  V30 2011 H 181.967 -3.77749 0.448334 0
M  V30 2012 H 183.279 -4.9743 0.369437 0
M  V30 2013 H 182.433 -5.7799 -1.84424 0
M  V30 2014 H 181.172 -4.51473 -1.84455 0
M  V30 2015 H 180.177 -5.49265 0.242565 0
M  V30 2016 H 181.402 -6.78727 0.224966 0
M  V30 2017 H 179.348 -6.26142 -1.95657 0
M  V30 2018 H 179.265 -7.52081 -0.768783 0
M  V30 2019 H 180.533 -7.54516 -1.9577 0
M  V30 2020 N 184.763 -0.387143 -1.52771 0
M  V30 2021 C 185.988 0.198407 -2.06449 0
M  V30 2022 C 186.413 1.39918 -1.25716 0
M  V30 2023 O 185.771 1.79099 -0.281657 0
M  V30 2024 C 185.819 0.548893 -3.56398 0
M  V30 2025 O 184.923 1.64315 -3.78252 0
M  V30 2026 H 184.264 0.0237731 -0.663574 0
M  V30 2027 H 186.794 -0.553989 -1.96957 0
M  V30 2028 H 186.804 0.813812 -3.99801 0
M  V30 2029 H 185.479 -0.329005 -4.14597 0
M  V30 2030 H 184.056 1.37211 -3.46738 0
M  V30 2031 N 186.241 1.57166 -0.116904 0
M  V30 2032 C 187.191 2.11756 0.845178 0
M  V30 2033 C 188.175 1.03783 1.22955 0
M  V30 2034 O 189.367 1.3002 1.20099 0
M  V30 2035 C 186.496 2.71886 2.09602 0
M  V30 2036 C 185.582 3.86937 1.7361 0
M  V30 2037 N 185.973 4.94073 1.08284 0
M  V30 2038 C 184.271 3.97082 2.03082 0
M  V30 2039 C 184.972 5.74477 0.913855 0
M  V30 2040 N 183.948 5.2423 1.43818 0
M  V30 2041 H 187.75 2.91967 0.336523 0
M  V30 2042 H 185.264 1.62174 0.0856332 0
M  V30 2043 H 187.261 3.09338 2.79492 0
M  V30 2044 H 185.921 1.93138 2.61013 0
M  V30 2045 H 186.932 5.12483 0.747067 0
M  V30 2046 H 183.609 3.29372 2.56554 0
M  V30 2047 H 184.999 6.70701 0.40125 0
M  V30 2048 N 187.719 -0.156864 1.56817 0
M  V30 2049 C 188.967 -0.869404 1.82444 0
M  V30 2050 C 189.288 -1.82147 0.69623 0
M  V30 2051 O 188.558 -1.93847 -0.28287 0
M  V30 2052 H 187.138 -0.324043 0.673056 0
M  V30 2053 H 189.8 -0.153224 1.94297 0
M  V30 2054 H 188.896 -1.43761 2.77019 0
M  V30 2055 N 189.197 -1.51736 -0.425897 0
M  V30 2056 C 190.422 -1.69082 -1.20108 0
M  V30 2057 C 190.847 -0.392398 -1.83962 0
M  V30 2058 O 190.205 0.64858 -1.69302 0
M  V30 2059 C 190.253 -2.81604 -2.25237 0
M  V30 2060 O 189.357 -2.46004 -3.30992 0
M  V30 2061 H 188.698 -0.563408 -0.35138 0
M  V30 2062 H 191.228 -1.98358 -0.501512 0
M  V30 2063 H 191.238 -3.06025 -2.69838 0
M  V30 2064 H 189.913 -3.75817 -1.78142 0
M  V30 2065 H 188.49 -2.32195 -2.91787 0
M  V30 2066 N 190.675 0.682077 -1.42076 0
M  V30 2067 C 191.585 1.82535 -1.47371 0
M  V30 2068 C 192.601 1.7017 -0.363079 0
M  V30 2069 O 193.777 1.91848 -0.612875 0
M  V30 2070 C 190.842 3.18624 -1.36674 0
M  V30 2071 C 189.903 3.42999 -2.58167 0
M  V30 2072 C 189.136 4.72595 -2.4797 0
M  V30 2073 O 189.359 5.50006 -1.5116 0
M  V30 2074 O 188.293 4.98054 -3.37974 0
M  V30 2075 H 192.119 1.81023 -2.43853 0
M  V30 2076 H 189.704 0.836887 -1.2376 0
M  V30 2077 H 191.586 3.99847 -1.33043 0
M  V30 2078 H 190.261 3.20789 -0.433138 0
M  V30 2079 H 189.168 2.61653 -2.67373 0
M  V30 2080 H 190.501 3.45659 -3.50401 0
M  V30 2081 N 192.153 1.28127 0.917671 0
M  V30 2082 C 193.378 1.18007 1.70555 0
M  V30 2083 C 193.803 -0.258257 1.86319 0
M  V30 2084 O 193.161 -1.1869 1.37049 0
M  V30 2085 C 193.209 1.87948 3.07746 0
M  V30 2086 O 192.313 1.18427 3.9503 0
M  V30 2087 H 191.654 0.409867 0.522403 0
M  V30 2088 H 194.184 1.69379 1.1477 0
M  V30 2089 H 194.194 1.95701 3.58001 0
M  V30 2090 H 192.869 2.92573 2.95591 0
M  V30 2091 H 191.446 1.18811 3.53466 0
M  V30 2092 N 193.631 -1.12557 1.10312 0
M  V30 2093 C 194.908 -1.80363 0.756878 0
M  V30 2094 C 195.288 -1.97067 -0.756824 0
M  V30 2095 O 194.636 -1.54601 -1.68259 0
M  V30 2096 C 194.846 -3.14812 1.50647 0
M  V30 2097 C 196.194 -3.90029 1.67817 0
M  V30 2098 O 197.218 -3.24464 1.46974 0
M  V30 2099 O 196.077 -5.07652 2.02365 0
M  V30 2100 H 193.171 -0.780667 0.272926 0
M  V30 2101 H 195.717 -1.19404 1.20586 0
M  V30 2102 H 194.489 -2.97936 2.53672 0
M  V30 2103 H 194.112 -3.83478 1.05026 0
M  V30 2104 N 195.109 -0.891671 -1.2995 0
M  V30 2105 C 196.339 -0.527893 -1.99742 0
M  V30 2106 C 196.747 0.88979 -1.66971 0
M  V30 2107 O 196.09 1.59766 -0.906667 0
M  V30 2108 C 196.152 -0.630804 -3.53922 0
M  V30 2109 C 195.816 -2.01401 -4.10228 0
M  V30 2110 C 196.813 -2.98422 -4.25724 0
M  V30 2111 C 194.498 -2.32121 -4.45449 0
M  V30 2112 C 196.492 -4.24293 -4.75662 0
M  V30 2113 C 194.179 -3.58237 -4.95086 0
M  V30 2114 C 195.177 -4.54137 -5.10146 0
M  V30 2115 O 194.865 -5.78014 -5.58708 0
M  V30 2116 H 194.597 -0.201953 -0.645129 0
M  V30 2117 H 197.151 -1.20076 -1.66646 0
M  V30 2118 H 195.381 0.0990616 -3.86573 0
M  V30 2119 H 197.07 -0.277338 -4.04951 0
M  V30 2120 H 197.836 -2.76001 -3.98809 0
M  V30 2121 H 193.715 -1.5824 -4.32991 0
M  V30 2122 H 197.259 -4.99153 -4.87332 0
M  V30 2123 H 193.156 -3.80491 -5.21437 0
M  V30 2124 H 193.924 -5.8049 -5.77039 0
M  V30 2125 N 196.587 1.43421 -0.653314 0
M  V30 2126 C 197.836 2.01032 -0.164076 0
M  V30 2127 C 198.149 1.52147 1.22926 0
M  V30 2128 O 199.355 2.02031 1.81371 0
M  V30 2129 C 197.811 3.59082 -0.24252 0
M  V30 2130 C 197.419 4.1696 -1.63855 0
M  V30 2131 C 199.163 4.24079 0.18911 0
M  V30 2132 C 197.07 5.67304 -1.67092 0
M  V30 2133 H 196 0.751798 -0.0575769 0
M  V30 2134 H 198.651 1.6439 -0.815362 0
M  V30 2135 H 197.033 3.93125 0.476276 0
M  V30 2136 H 198.207 3.94416 -2.38271 0
M  V30 2137 H 196.522 3.64335 -2.01616 0
M  V30 2138 H 199.119 5.34381 0.184775 0
M  V30 2139 H 199.462 3.98005 1.22056 0
M  V30 2140 H 199.995 3.94918 -0.477938 0
M  V30 2141 H 196.734 5.98145 -2.68146 0
M  V30 2142 H 196.254 5.91904 -0.970014 0
M  V30 2143 H 197.933 6.31344 -1.4147 0
M  V30 2144 N 198.065 0.39524 1.52563 0
M  V30 2145 C 199.311 -0.185318 2.01952 0
M  V30 2146 C 199.644 -1.45964 1.28095 0
M  V30 2147 O 198.919 -1.90689 0.38315 0
M  V30 2148 C 199.202 -0.447193 3.57312 0
M  V30 2149 C 199.055 0.842828 4.41833 0
M  V30 2150 C 200.374 -1.23529 4.22408 0
M  V30 2151 H 197.493 -0.0658788 0.73405 0
M  V30 2152 H 200.135 0.525975 1.82575 0
M  V30 2153 H 198.285 -1.05312 3.73954 0
M  V30 2154 H 199.957 1.4795 4.36931 0
M  V30 2155 H 198.2 1.45686 4.08605 0
M  V30 2156 H 198.871 0.614165 5.48573 0
M  V30 2157 H 201.347 -0.722445 4.0978 0
M  V30 2158 H 200.223 -1.38727 5.3108 0
M  V30 2159 H 200.484 -2.25213 3.80436 0
M  V30 2160 N 199.544 -1.57102 0.125237 0
M  V30 2161 C 200.477 -2.11371 -0.860094 0
M  V30 2162 C 201.455 -1.03168 -1.25679 0
M  V30 2163 O 202.639 -1.30862 -1.35674 0
M  V30 2164 C 199.766 -2.61555 -2.1519 0
M  V30 2165 C 198.812 -3.81701 -1.9028 0
M  V30 2166 S 199.645 -5.23797 -1.11343 0
M  V30 2167 C 200.801 -5.77353 -2.41689 0
M  V30 2168 H 201.034 -2.94617 -0.39852 0
M  V30 2169 H 198.567 -1.54145 -0.0886555 0
M  V30 2170 H 200.525 -2.91122 -2.89411 0
M  V30 2171 H 199.186 -1.78479 -2.58465 0
M  V30 2172 H 198.379 -4.14985 -2.86014 0
M  V30 2173 H 197.981 -3.52783 -1.24178 0
M  V30 2174 H 200.273 -5.87458 -3.37489 0
M  V30 2175 H 201.216 -6.75323 -2.12942 0
M  V30 2176 H 201.624 -5.05457 -2.51342 0
M  V30 2177 N 201.022 0.148545 -1.56898 0
M  V30 2178 C 202.433 0.708766 -1.72723 0
M  V30 2179 C 202.784 1.81734 -0.739395 0
M  V30 2180 O 201.909 2.16194 0.0943169 0
M  V30 2181 C 202.504 1.29245 -3.13179 0
M  V30 2182 C 201.063 1.79925 -3.30611 0
M  V30 2183 C 200.21 0.687111 -2.68652 0
M  V30 2184 H 203.161 -0.0771063 -1.58513 0
M  V30 2185 H 203.182 2.16224 -3.13093 0
M  V30 2186 H 202.694 0.485382 -3.85053 0
M  V30 2187 H 200.795 2.63203 -2.63732 0
M  V30 2188 H 200.908 1.92903 -4.38549 0
M  V30 2189 H 199.272 1.11335 -2.29078 0
M  V30 2190 H 200.055 -0.108483 -3.43129 0
M  V30 2191 N 202.5 1.5196 0.417844 0
M  V30 2192 C 203.448 1.75278 1.52907 0
M  V30 2193 C 204.442 0.619611 1.57662 0
M  V30 2194 O 205.648 0.801457 1.61173 0
M  V30 2195 H 202.023 0.554141 0.508362 0
M  V30 2196 H 203.994 2.68389 1.30422 0
M  V30 2197 C 202.743 1.91262 2.90369 0
M  V30 2198 H 202.066 2.77872 2.8745 0
M  V30 2199 H 203.506 2.11581 3.67436 0
M  V30 2200 C 201.965 0.677431 3.30019 0
M  V30 2201 O 202.495 -0.158799 4.01386 0
M  V30 2202 N 200.701 0.515851 2.85985 0
M  V30 2203 H 200.248 1.19744 2.28077 0
M  V30 2204 H 200.206 -0.309315 3.12875 0
M  V30 2205 N 203.978 -0.674533 1.42435 0
M  V30 2206 C 205.227 -1.43034 1.42212 0
M  V30 2207 C 205.54 -1.95555 0.0420788 0
M  V30 2208 O 206.746 -2.71374 -0.0827558 0
M  V30 2209 C 205.202 -2.58748 2.50155 0
M  V30 2210 C 204.81 -2.12925 3.94166 0
M  V30 2211 C 206.554 -3.36257 2.59098 0
M  V30 2212 C 204.461 -3.25723 4.93618 0
M  V30 2213 H 203.391 -0.537345 0.528939 0
M  V30 2214 H 206.042 -0.73024 1.68344 0
M  V30 2215 H 204.424 -3.31128 2.17188 0
M  V30 2216 H 205.598 -1.47697 4.36488 0
M  V30 2217 H 203.913 -1.48354 3.89076 0
M  V30 2218 H 206.51 -4.20264 3.30578 0
M  V30 2219 H 206.853 -3.82866 1.63461 0
M  V30 2220 H 207.386 -2.70947 2.9126 0
M  V30 2221 H 204.125 -2.84105 5.90732 0
M  V30 2222 H 203.645 -3.89732 4.55926 0
M  V30 2223 H 205.324 -3.91186 5.15347 0
M  V30 2224 N 205.456 -1.28612 -0.910864 0
M  V30 2225 C 206.386 -1.15326 -2.03032 0
M  V30 2226 C 207.367 -0.0502924 -1.70026 0
M  V30 2227 O 208.552 -0.227797 -1.92859 0
M  V30 2228 C 205.682 -0.817343 -3.37545 0
M  V30 2229 C 204.636 -1.8754 -3.84724 0
M  V30 2230 C 203.962 -1.39305 -5.16235 0
M  V30 2231 C 205.262 -3.28244 -4.06267 0
M  V30 2232 H 206.956 -2.08975 -2.14406 0
M  V30 2233 H 204.502 -1.00612 -1.03021 0
M  V30 2234 H 206.455 -0.711151 -4.15356 0
M  V30 2235 H 205.179 0.154846 -3.26233 0
M  V30 2236 H 203.838 -1.97079 -3.09121 0
M  V30 2237 H 203.486 -0.409846 -5.01328 0
M  V30 2238 H 203.186 -2.10057 -5.48771 0
M  V30 2239 H 204.71 -1.30014 -5.96598 0
M  V30 2240 H 206.124 -3.21611 -4.74594 0
M  V30 2241 H 204.521 -3.96855 -4.5014 0
M  V30 2242 H 205.591 -3.72048 -3.10979 0
M  V30 2243 N 206.934 1.1197 -1.10907 0
M  V30 2244 C 208.18 1.8386 -0.855773 0
M  V30 2245 C 208.513 1.84134 0.617103 0
M  V30 2246 O 207.788 1.29041 1.45529 0
M  V30 2247 C 208.071 3.31305 -1.411 0
M  V30 2248 C 207.924 3.39456 -2.9511 0
M  V30 2249 C 209.243 4.2721 -1.05736 0
M  V30 2250 H 206.362 0.667545 -0.312334 0
M  V30 2251 H 209.004 1.31331 -1.37303 0
M  V30 2252 H 207.154 3.76169 -0.97105 0
M  V30 2253 H 208.826 3.03191 -3.47668 0
M  V30 2254 H 207.069 2.79849 -3.31462 0
M  V30 2255 H 207.74 4.43209 -3.29044 0
M  V30 2256 H 210.216 3.90497 -1.43706 0
M  V30 2257 H 209.092 5.28775 -1.47269 0
M  V30 2258 H 209.353 4.42088 0.0325958 0
M  V30 2259 N 208.412 0.89855 1.29475 0
M  V30 2260 C 209.342 0.39201 2.30186 0
M  V30 2261 C 210.323 -0.532359 1.61555 0
M  V30 2262 O 211.508 -0.443331 1.89072 0
M  V30 2263 C 208.638 -0.382353 3.45189 0
M  V30 2264 C 207.592 0.451483 4.25612 0
M  V30 2265 C 206.918 -0.450307 5.328 0
M  V30 2266 C 208.218 1.70079 4.93832 0
M  V30 2267 H 209.912 1.23362 2.72804 0
M  V30 2268 H 207.458 0.594638 1.31149 0
M  V30 2269 H 209.411 -0.747451 4.14718 0
M  V30 2270 H 208.135 -1.25774 3.01411 0
M  V30 2271 H 206.794 0.798897 3.57789 0
M  V30 2272 H 206.442 -1.32379 4.85268 0
M  V30 2273 H 206.142 0.103902 5.87508 0
M  V30 2274 H 207.666 -0.811623 6.05182 0
M  V30 2275 H 209.08 1.40549 5.55805 0
M  V30 2276 H 207.477 2.19623 5.58467 0
M  V30 2277 H 208.547 2.43744 4.19186 0
M  V30 2278 N 209.89 -1.43072 0.660911 0
M  V30 2279 C 211.138 -2.01323 0.177094 0
M  V30 2280 C 211.459 -1.5245 -1.2159 0
M  V30 2281 O 210.729 -0.740322 -1.81373 0
M  V30 2282 H 209.309 -0.744382 0.0624804 0
M  V30 2283 H 211.971 -1.75179 0.854305 0
M  V30 2284 H 211.067 -3.11649 0.167641 0
M  V30 2285 N 211.368 -0.403325 -1.52352 0
M  V30 2286 C 212.331 0.413051 -2.25447 0
M  V30 2287 C 213.331 0.978513 -1.276 0
M  V30 2288 O 214.521 0.858305 -1.51587 0
M  V30 2289 C 211.653 1.58087 -3.02029 0
M  V30 2290 H 212.846 -0.227094 -2.99039 0
M  V30 2291 H 210.399 -0.155722 -1.55522 0
M  V30 2292 H 211.134 2.25804 -2.32772 0
M  V30 2293 H 210.919 1.18195 -3.73861 0
M  V30 2294 H 212.409 2.1585 -3.57489 0
M  V30 2295 N 212.846 1.57033 -0.133567 0
M  V30 2296 C 213.809 2.14897 0.796995 0
M  V30 2297 C 214.809 1.0874 1.18458 0
M  V30 2298 O 215.999 1.34446 1.1077 0
M  V30 2299 C 213.131 2.70112 2.07973 0
M  V30 2300 H 214.324 2.98457 0.293873 0
M  V30 2301 H 211.877 1.55871 0.115787 0
M  V30 2302 H 212.612 1.9018 2.62682 0
M  V30 2303 H 212.397 3.47764 1.81115 0
M  V30 2304 H 213.887 3.14738 2.74462 0
M  V30 2305 N 214.325 -0.140222 1.56975 0
M  V30 2306 C 215.571 -0.852949 1.83991 0
M  V30 2307 C 215.904 -1.80512 0.716187 0
M  V30 2308 O 215.179 -1.92479 -0.279681 0
M  V30 2309 C 215.462 -1.6215 3.21527 0
M  V30 2310 C 215.315 -0.690363 4.4447 0
M  V30 2311 C 216.634 -2.58247 3.56366 0
M  V30 2312 H 213.753 -0.308634 0.669264 0
M  V30 2313 H 216.395 -0.117898 1.89634 0
M  V30 2314 H 214.545 -2.24812 3.16847 0
M  V30 2315 H 216.217 -0.0742264 4.6124 0
M  V30 2316 H 214.46 -0.000396433 4.338 0
M  V30 2317 H 215.131 -1.2643 5.37326 0
M  V30 2318 H 217.607 -2.05701 3.61699 0
M  V30 2319 H 216.483 -3.09067 4.53617 0
M  V30 2320 H 216.744 -3.39923 2.82674 0
M  V30 2321 N 215.803 -1.52179 -0.40978 0
M  V30 2322 C 216.736 -1.70196 -1.52015 0
M  V30 2323 C 217.714 -0.549542 -1.53032 0
M  V30 2324 O 218.898 -0.776815 -1.71749 0
M  V30 2325 C 216.025 -1.74069 -2.90547 0
M  V30 2326 C 215.071 -2.95601 -3.07445 0
M  V30 2327 S 215.904 -4.55956 -2.80827 0
M  V30 2328 C 217.06 -4.62614 -4.21591 0
M  V30 2329 H 217.293 -2.64109 -1.36504 0
M  V30 2330 H 214.826 -1.4221 -0.601312 0
M  V30 2331 H 216.784 -1.76985 -3.70387 0
M  V30 2332 H 215.445 -0.812835 -3.034 0
M  V30 2333 H 214.638 -2.94791 -4.08796 0
M  V30 2334 H 214.24 -2.90569 -2.35469 0
M  V30 2335 H 216.532 -4.39951 -5.15218 0
M  V30 2336 H 217.475 -5.64548 -4.27424 0
M  V30 2337 H 217.883 -3.91654 -4.06531 0
M  V30 2338 N 217.281 0.66697 -1.42791 0
M  V30 2339 C 218.214 1.79177 -1.41318 0
M  V30 2340 C 219.192 1.60234 -0.276401 0
M  V30 2341 O 220.376 1.82602 -0.46785 0
M  V30 2342 C 217.503 3.16289 -1.21157 0
M  V30 2343 C 216.549 3.53964 -2.37932 0
M  V30 2344 S 217.382 3.55501 -4.00474 0
M  V30 2345 C 218.538 4.95292 -3.8267 0
M  V30 2346 H 218.771 1.80153 -2.365 0
M  V30 2347 H 216.304 0.838357 -1.29657 0
M  V30 2348 H 218.262 3.95428 -1.10212 0
M  V30 2349 H 216.923 3.1289 -0.275481 0
M  V30 2350 H 216.116 4.53646 -2.19594 0
M  V30 2351 H 215.718 2.82204 -2.45432 0
M  V30 2352 H 218.01 5.83584 -3.44145 0
M  V30 2353 H 218.953 5.18679 -4.82055 0
M  V30 2354 H 219.361 4.68179 -3.15386 0
M  V30 2355 N 218.759 1.29093 0.90403 0
M  V30 2356 C 219.669 1.15727 2.0407 0
M  V30 2357 C 220.685 0.0815308 1.73809 0
M  V30 2358 O 221.861 0.292749 1.99261 0
M  V30 2359 C 218.926 0.830424 3.36608 0
M  V30 2360 C 217.987 1.98955 3.80415 0
M  V30 2361 C 217.22 1.6782 5.06628 0
M  V30 2362 O 217.443 0.597105 5.67266 0
M  V30 2363 O 216.377 2.52486 5.46383 0
M  V30 2364 H 220.203 2.11171 2.18267 0
M  V30 2365 H 217.788 1.08504 1.027 0
M  V30 2366 H 219.67 0.662521 4.16159 0
M  V30 2367 H 218.345 -0.0942678 3.23563 0
M  V30 2368 H 217.252 2.21267 3.01648 0
M  V30 2369 H 218.585 2.89529 3.98037 0
M  V30 2370 N 220.237 -1.11381 1.11499 0
M  V30 2371 C 221.185 -2.19522 0.768956 0
M  V30 2372 C 222.179 -1.67693 -0.239857 0
M  V30 2373 O 223.385 -1.79727 -0.0990755 0
M  V30 2374 H 219.76 -0.715711 0.230786 0
M  V30 2375 H 221.731 -2.45954 1.68964 0
M  V30 2376 C 220.48 -3.46945 0.229073 0
M  V30 2377 H 219.803 -3.8718 0.996596 0
M  V30 2378 H 221.243 -4.23993 0.0251441 0
M  V30 2379 C 219.702 -3.2042 -1.04079 0
M  V30 2380 O 220.232 -3.41178 -2.12038 0
M  V30 2381 N 218.438 -2.74151 -0.963823 0
M  V30 2382 H 217.985 -2.57459 -0.0851722 0
M  V30 2383 H 217.943 -2.56781 -1.81414 0
M  V30 2384 N 221.715 -0.905404 -1.28997 0
M  V30 2385 C 222.662 -0.385892 -2.27551 0
M  V30 2386 C 223.632 0.535113 -1.57244 0
M  V30 2387 O 224.817 0.459119 -1.85194 0
M  V30 2388 C 221.957 0.375461 -3.43051 0
M  V30 2389 C 221.07 -0.577092 -4.28128 0
M  V30 2390 C 220.205 0.201879 -5.30816 0
M  V30 2391 C 219.244 -0.744829 -6.07551 0
M  V30 2392 N 218.381 9.42587e-05 -7.021 0
M  V30 2393 H 223.221 -1.23139 -2.71368 0
M  V30 2394 H 220.758 -0.618542 -1.33463 0
M  V30 2395 H 222.716 0.832992 -4.088 0
M  V30 2396 H 221.346 1.18537 -3.00248 0
M  V30 2397 H 220.398 -1.15315 -3.62501 0
M  V30 2398 H 221.71 -1.30152 -4.8152 0
M  V30 2399 H 220.864 0.720351 -6.02408 0
M  V30 2400 H 219.603 0.959413 -4.7817 0
M  V30 2401 H 218.608 -1.27475 -5.34818 0
M  V30 2402 H 219.833 -1.50178 -6.62286 0
M  V30 2403 H 217.779 0.739791 -6.51815 0
M  V30 2404 H 217.696 -0.664321 -7.53076 0
M  V30 2405 H 218.964 0.498644 -7.77903 0
M  V30 2406 N 223.193 1.4272 -0.668489 0
M  V30 2407 C 224.604 1.84793 -0.266151 0
M  V30 2408 C 224.955 1.55959 1.19043 0
M  V30 2409 O 224.08 1.01622 1.91055 0
M  V30 2410 C 224.675 3.35436 -0.476271 0
M  V30 2411 C 223.234 3.76182 -0.128113 0
M  V30 2412 C 222.381 2.66344 -0.771777 0
M  V30 2413 H 225.332 1.32656 -0.871098 0
M  V30 2414 H 225.353 3.79515 0.273561 0
M  V30 2415 H 224.865 3.5639 -1.53647 0
M  V30 2416 H 222.966 3.60836 0.928891 0
M  V30 2417 H 223.079 4.75766 -0.564231 0
M  V30 2418 H 221.443 2.53885 -0.203652 0
M  V30 2419 H 222.226 2.90123 -1.83531 0
M  V30 2420 N 224.671 0.411399 1.52136 0
M  V30 2421 C 225.604 -0.457614 2.23565 0
M  V30 2422 C 226.582 -1.04613 1.24478 0
M  V30 2423 O 227.766 -1.09356 1.53536 0
M  V30 2424 C 224.893 -1.6354 2.96602 0
M  V30 2425 C 223.939 -1.17005 4.10137 0
M  V30 2426 S 224.772 -0.13333 5.35334 0
M  V30 2427 C 225.928 -1.31638 6.119 0
M  V30 2428 H 226.161 0.148883 2.96927 0
M  V30 2429 H 223.694 0.195713 1.53155 0
M  V30 2430 H 225.652 -2.31074 3.39286 0
M  V30 2431 H 224.313 -2.21324 2.22878 0
M  V30 2432 H 223.506 -2.05005 4.60422 0
M  V30 2433 H 223.108 -0.573319 3.6958 0
M  V30 2434 H 225.4 -2.23957 6.39413 0
M  V30 2435 H 226.343 -0.854014 7.02931 0
M  V30 2436 H 226.751 -1.54321 5.42997 0
M  V30 2437 N 226.149 -1.5696 0.141893 0
M  V30 2438 C 227.377 -2.00322 -0.517579 0
M  V30 2439 C 227.792 -1.02193 -1.58752 0
M  V30 2440 O 227.149 -0.0181619 -1.82491 0
M  V30 2441 C 227.2 -3.43618 -1.12289 0
M  V30 2442 O 226.921 -4.37995 -0.0956929 0
M  V30 2443 C 228.422 -4.02231 -1.86347 0
M  V30 2444 H 225.642 -0.657243 -0.135177 0
M  V30 2445 H 228.186 -2.03146 0.234973 0
M  V30 2446 H 226.341 -3.41662 -1.82609 0
M  V30 2447 H 226.755 -5.21729 -0.538469 0
M  V30 2448 H 228.229 -5.04509 -2.23997 0
M  V30 2449 H 228.706 -3.42655 -2.74744 0
M  V30 2450 H 229.312 -4.07802 -1.20737 0
M  V30 2451 N 227.627 0.131896 -1.57047 0
M  V30 2452 C 228.557 1.16384 -2.02428 0
M  V30 2453 C 229.538 1.43936 -0.90644 0
M  V30 2454 O 230.723 1.54599 -1.17528 0
M  V30 2455 C 227.853 2.49328 -2.4177 0
M  V30 2456 C 226.807 2.36266 -3.56879 0
M  V30 2457 C 226.133 3.74057 -3.8208 0
M  V30 2458 C 227.433 1.834 -4.89042 0
M  V30 2459 H 229.127 0.786433 -2.88887 0
M  V30 2460 H 226.673 0.376855 -1.38981 0
M  V30 2461 H 228.626 3.21759 -2.7212 0
M  V30 2462 H 227.35 2.88934 -1.52266 0
M  V30 2463 H 226.009 1.66286 -3.26718 0
M  V30 2464 H 225.657 4.11125 -2.89803 0
M  V30 2465 H 225.357 3.66174 -4.59554 0
M  V30 2466 H 226.881 4.48012 -4.1487 0
M  V30 2467 H 228.295 2.45636 -5.18011 0
M  V30 2468 H 226.692 1.8637 -5.70426 0
M  V30 2469 H 227.762 0.790662 -4.7841 0
M  V30 2470 N 229.106 1.52395 0.401703 0
M  V30 2471 C 230.053 1.76268 1.48991 0
M  V30 2472 C 231.023 0.605386 1.54675 0
M  V30 2473 O 232.208 0.843742 1.7113 0
M  V30 2474 C 229.348 1.92592 2.86361 0
M  V30 2475 C 228.461 3.20259 2.89928 0
M  V30 2476 C 227.596 3.26972 4.18644 0
M  V30 2477 C 226.635 4.48812 4.16214 0
M  V30 2478 N 225.772 4.52877 5.36514 0
M  V30 2479 H 230.612 2.6914 1.27935 0
M  V30 2480 H 228.149 1.33355 0.620871 0
M  V30 2481 H 230.107 2.0004 3.66115 0
M  V30 2482 H 228.737 1.03093 3.05895 0
M  V30 2483 H 227.789 3.21945 2.02621 0
M  V30 2484 H 229.101 4.10056 2.83999 0
M  V30 2485 H 228.255 3.33533 5.06794 0
M  V30 2486 H 226.994 2.35126 4.27278 0
M  V30 2487 H 225.999 4.4239 3.26453 0
M  V30 2488 H 227.224 5.41961 4.09213 0
M  V30 2489 H 225.17 3.63917 5.45802 0
M  V30 2490 H 225.087 5.36529 5.32609 0
M  V30 2491 H 226.355 4.63676 6.26597 0
M  V30 2492 N 230.584 -0.659388 1.43143 0
M  V30 2493 C 231.514 -1.78422 1.50625 0
M  V30 2494 C 232.495 -1.66216 0.361443 0
M  V30 2495 O 233.68 -1.85404 0.577834 0
M  V30 2496 C 230.81 -3.16815 1.42287 0
M  V30 2497 C 229.764 -3.43777 2.54954 0
M  V30 2498 C 229.09 -4.81905 2.31671 0
M  V30 2499 C 230.39 -3.39134 3.97222 0
M  V30 2500 H 232.084 -1.72417 2.44771 0
M  V30 2501 H 229.63 -0.828084 1.17808 0
M  V30 2502 H 231.583 -3.95253 1.46127 0
M  V30 2503 H 230.307 -3.23534 0.446435 0
M  V30 2504 H 228.966 -2.67707 2.50457 0
M  V30 2505 H 228.614 -4.85294 1.32284 0
M  V30 2506 H 228.314 -5.00906 3.07192 0
M  V30 2507 H 229.838 -5.62609 2.37284 0
M  V30 2508 H 231.252 -4.07518 4.03239 0
M  V30 2509 H 229.649 -3.69671 4.72719 0
M  V30 2510 H 230.719 -2.37426 4.22797 0
M  V30 2511 N 232.062 -1.29571 -0.897171 0
M  V30 2512 C 233.311 -1.1706 -1.64256 0
M  V30 2513 C 233.624 0.276476 -1.93636 0
M  V30 2514 O 234.83 0.52294 -2.66416 0
M  V30 2515 C 233.286 -2.0475 -2.95982 0
M  V30 2516 C 232.894 -3.54295 -2.74187 0
M  V30 2517 C 234.638 -2.0097 -3.73914 0
M  V30 2518 C 232.545 -4.34081 -4.01656 0
M  V30 2519 H 231.475 -0.43452 -0.616205 0
M  V30 2520 H 234.126 -1.54229 -0.994268 0
M  V30 2521 H 232.508 -1.60452 -3.62038 0
M  V30 2522 H 233.682 -4.06662 -2.1671 0
M  V30 2523 H 231.997 -3.59773 -2.09648 0
M  V30 2524 H 234.594 -2.57838 -4.68427 0
M  V30 2525 H 234.937 -0.990273 -4.0435 0
M  V30 2526 H 235.47 -2.43325 -3.14703 0
M  V30 2527 H 232.209 -5.36671 -3.76384 0
M  V30 2528 H 231.729 -3.86483 -4.58684 0
M  V30 2529 H 233.408 -4.44877 -4.69781 0
M  V30 2530 N 233.54 1.10788 -1.12088 0
M  V30 2531 C 234.473 2.16237 -0.729168 0
M  V30 2532 C 235.451 1.60207 0.277921 0
M  V30 2533 O 236.635 1.87707 0.172737 0
M  V30 2534 C 233.762 3.38609 -0.0786848 0
M  V30 2535 C 232.808 4.13322 -1.05201 0
M  V30 2536 S 233.641 4.69371 -2.57781 0
M  V30 2537 C 234.797 5.95058 -1.94053 0
M  V30 2538 H 235.03 2.4913 -1.62239 0
M  V30 2539 H 232.563 1.22519 -0.939603 0
M  V30 2540 H 234.521 4.09473 0.290254 0
M  V30 2541 H 233.182 3.03962 0.791593 0
M  V30 2542 H 232.375 5.01051 -0.544433 0
M  V30 2543 H 231.977 3.48251 -1.36371 0
M  V30 2544 H 234.269 6.65278 -1.28107 0
M  V30 2545 H 235.212 6.50472 -2.79807 0
M  V30 2546 H 235.62 5.46918 -1.39787 0
M  V30 2547 N 235.018 0.912232 1.28515 0
M  V30 2548 C 236.246 0.560416 1.99166 0
M  V30 2549 C 236.661 -0.857927 1.68182 0
M  V30 2550 O 236.018 -1.56805 0.933733 0
M  V30 2551 C 236.069 0.758142 3.53461 0
M  V30 2552 O 235.79 2.12067 3.83352 0
M  V30 2553 C 237.291 0.412954 4.41372 0
M  V30 2554 H 234.511 0.213805 0.636026 0
M  V30 2555 H 237.055 1.22502 1.63749 0
M  V30 2556 H 235.21 0.140556 3.87145 0
M  V30 2557 H 235.624 2.15923 4.77993 0
M  V30 2558 H 237.098 0.60208 5.48707 0
M  V30 2559 H 237.575 -0.65073 4.34353 0
M  V30 2560 H 238.181 1.00802 4.13182 0
M  V30 2561 N 236.496 -1.42363 0.676048 0
M  V30 2562 C 237.426 -2.33497 0.0124832 0
M  V30 2563 C 238.407 -1.50748 -0.787981 0
M  V30 2564 O 239.592 -1.79346 -0.744884 0
M  V30 2565 C 236.722 -3.34377 -0.938582 0
M  V30 2566 C 235.676 -4.27289 -0.246622 0
M  V30 2567 C 235.002 -5.18386 -1.31071 0
M  V30 2568 C 236.302 -5.14916 0.875125 0
M  V30 2569 H 237.996 -2.89233 0.773593 0
M  V30 2570 H 235.542 -1.39073 0.37346 0
M  V30 2571 H 237.495 -3.97044 -1.41188 0
M  V30 2572 H 236.219 -2.76947 -1.73113 0
M  V30 2573 H 234.878 -3.66018 0.206456 0
M  V30 2574 H 234.526 -4.57282 -2.09528 0
M  V30 2575 H 234.226 -5.81378 -0.852839 0
M  V30 2576 H 235.75 -5.83929 -1.78492 0
M  V30 2577 H 237.164 -5.71262 0.482983 0
M  V30 2578 H 235.561 -5.86747 1.25887 0
M  V30 2579 H 236.631 -4.53242 1.72335 0
M  V30 2580 N 237.974 -0.419461 -1.51915 0
M  V30 2581 C 238.937 0.389116 -2.25873 0
M  V30 2582 C 239.937 0.964924 -1.28631 0
M  V30 2583 O 241.127 0.842179 -1.52489 0
M  V30 2584 C 238.259 1.54874 -3.03689 0
M  V30 2585 H 239.452 -0.258799 -2.98781 0
M  V30 2586 H 237.005 -0.172209 -1.55348 0
M  V30 2587 H 237.74 2.23323 -2.35154 0
M  V30 2588 H 237.525 1.14223 -3.75094 0
M  V30 2589 H 239.015 2.12046 -3.59759 0
M  V30 2590 N 239.452 1.56882 -0.150215 0
M  V30 2591 C 240.699 1.96228 0.500093 0
M  V30 2592 C 241.027 1.03522 1.64661 0
M  V30 2593 O 240.282 0.0650683 1.95592 0
M  V30 2594 C 240.581 3.41801 1.04437 0
M  V30 2595 C 240.247 4.50897 0.0159671 0
M  V30 2596 C 238.909 4.8046 -0.266731 0
M  V30 2597 C 241.261 5.16703 -0.683192 0
M  V30 2598 C 238.589 5.73135 -1.25434 0
M  V30 2599 C 240.941 6.10441 -1.65964 0
M  V30 2600 C 239.605 6.38382 -1.95 0
M  V30 2601 H 238.875 0.718048 0.182997 0
M  V30 2602 H 241.522 1.90019 -0.237724 0
M  V30 2603 H 239.827 3.44857 1.85959 0
M  V30 2604 H 241.524 3.69573 1.55618 0
M  V30 2605 H 238.114 4.27891 0.246485 0
M  V30 2606 H 242.298 4.93993 -0.477983 0
M  V30 2607 H 237.554 5.93074 -1.48571 0
M  V30 2608 H 241.728 6.60507 -2.20689 0
M  V30 2609 H 239.355 7.09996 -2.71679 0
M  V30 2610 N 240.93 -0.123565 1.57115 0
M  V30 2611 C 242.158 -0.846461 1.88793 0
M  V30 2612 C 242.573 -1.73652 0.740976 0
M  V30 2613 O 241.93 -1.80207 -0.288393 0
M  V30 2614 C 241.981 -1.6837 3.19897 0
M  V30 2615 O 241.702 -0.829477 4.30176 0
M  V30 2616 C 243.203 -2.51214 3.65248 0
M  V30 2617 H 240.423 -0.243573 0.625231 0
M  V30 2618 H 242.967 -0.109324 2.04208 0
M  V30 2619 H 241.122 -2.37364 3.06165 0
M  V30 2620 H 241.536 -1.40651 5.0529 0
M  V30 2621 H 243.01 -3.05497 4.59756 0
M  V30 2622 H 243.487 -3.28359 2.9168 0
M  V30 2623 H 244.093 -1.8747 3.81752 0
M  V30 2624 N 242.408 -1.52605 -0.393616 0
M  V30 2625 C 243.636 -1.71294 -1.16043 0
M  V30 2626 C 244.051 -0.429259 -1.83855 0
M  V30 2627 O 243.408 0.595921 -1.72496 0
M  V30 2628 C 243.459 -2.8593 -2.21193 0
M  V30 2629 O 243.18 -4.09329 -1.56146 0
M  V30 2630 C 244.681 -3.16259 -3.10636 0
M  V30 2631 H 241.901 -0.573641 -0.348104 0
M  V30 2632 H 244.445 -1.99234 -0.461092 0
M  V30 2633 H 242.6 -2.60465 -2.86769 0
M  V30 2634 H 243.014 -4.73323 -2.25978 0
M  V30 2635 H 244.488 -3.99946 -3.80456 0
M  V30 2636 H 244.965 -2.3045 -3.73884 0
M  V30 2637 H 245.571 -3.43547 -2.50711 0
M  V30 2638 N 243.887 0.651787 -1.4349 0
M  V30 2639 C 244.817 1.77621 -1.51569 0
M  V30 2640 C 245.798 1.66022 -0.370253 0
M  V30 2641 O 246.983 1.85095 -0.587658 0
M  V30 2642 C 244.113 3.16056 -1.43966 0
M  V30 2643 C 243.067 3.4242 -2.56774 0
M  V30 2644 C 242.393 4.8067 -2.34223 0
M  V30 2645 C 243.693 3.37023 -3.99015 0
M  V30 2646 H 245.387 1.71117 -2.45681 0
M  V30 2647 H 242.933 0.821825 -1.18246 0
M  V30 2648 H 244.886 3.94472 -1.48221 0
M  V30 2649 H 243.61 3.23293 -0.463586 0
M  V30 2650 H 242.269 2.66375 -2.51873 0
M  V30 2651 H 241.917 4.84585 -1.34856 0
M  V30 2652 H 241.617 4.9927 -3.09844 0
M  V30 2653 H 243.141 5.61342 -2.40265 0
M  V30 2654 H 244.555 4.05374 -4.05395 0
M  V30 2655 H 242.952 3.67159 -4.74673 0
M  V30 2656 H 244.022 2.3518 -4.2405 0
M  V30 2657 N 245.365 1.30045 0.890287 0
M  V30 2658 C 246.613 1.18327 1.63839 0
M  V30 2659 C 246.934 -0.263455 1.93212 0
M  V30 2660 O 246.204 -1.17856 1.56482 0
M  V30 2661 H 244.784 0.434933 0.607324 0
M  V30 2662 H 247.446 1.631 1.06698 0
M  V30 2663 H 246.542 1.74024 2.59079 0
M  V30 2664 N 246.843 -1.10192 1.12674 0
M  V30 2665 C 247.753 -2.20172 0.810026 0
M  V30 2666 C 248.769 -1.72821 -0.202188 0
M  V30 2667 O 249.945 -2.01369 -0.0351691 0
M  V30 2668 C 247.01 -3.45631 0.272007 0
M  V30 2669 C 246.071 -4.07704 1.34447 0
M  V30 2670 C 245.304 -5.27175 0.832029 0
M  V30 2671 O 245.527 -5.69425 -0.333284 0
M  V30 2672 O 244.461 -5.80168 1.60277 0
M  V30 2673 H 248.287 -2.49701 1.72867 0
M  V30 2674 H 245.872 -1.18977 0.903597 0
M  V30 2675 H 247.754 -4.21394 -0.0230219 0
M  V30 2676 H 246.429 -3.17723 -0.619164 0
M  V30 2677 H 245.336 -3.33614 1.6927 0
M  V30 2678 H 246.669 -4.3982 2.2095 0
M  V30 2679 N 248.321 -0.919034 -1.28029 0
M  V30 2680 C 249.737 -0.617972 -1.4715 0
M  V30 2681 C 249.937 0.835242 -1.83374 0
M  V30 2682 O 248.993 1.61388 -1.94191 0
M  V30 2683 C 250.306 -1.56041 -2.57044 0
M  V30 2684 C 251.854 -1.56769 -2.7091 0
M  V30 2685 C 252.329 -2.49688 -3.83953 0
M  V30 2686 N 253.82 -2.47845 -3.91314 0
M  V30 2687 C 254.555 -3.16437 -4.78179 0
M  V30 2688 N 254.051 -3.94376 -5.69596 0
M  V30 2689 N 255.844 -3.05498 -4.71834 0
M  V30 2690 H 247.995 -1.85866 -1.02798 0
M  V30 2691 H 250.258 -0.797506 -0.512531 0
M  V30 2692 H 249.964 -2.59671 -2.372 0
M  V30 2693 H 249.838 -1.29551 -3.54255 0
M  V30 2694 H 252.225 -0.538745 -2.90141 0
M  V30 2695 H 252.306 -1.87305 -1.74214 0
M  V30 2696 H 251.95 -3.52688 -3.65477 0
M  V30 2697 H 251.88 -2.16453 -4.80058 0
M  V30 2698 H 254.371 -1.91234 -3.25941 0
M  V30 2699 H 254.684 -4.43721 -6.32718 0
M  V30 2700 H 253.029 -3.98481 -5.69419 0
M  V30 2701 H 256.22 -2.44108 -3.99411 0
M  V30 2702 H 256.393 -3.59225 -5.39316 0
M  V30 2703 N 249.799 1.42003 -0.683588 0
M  V30 2704 C 250.762 2.29191 -0.0198243 0
M  V30 2705 C 251.762 1.43773 0.72013 0
M  V30 2706 O 252.952 1.65061 0.556815 0
M  V30 2707 C 250.084 3.26435 0.982487 0
M  V30 2708 H 251.277 2.8938 -0.787345 0
M  V30 2709 H 248.83 1.49789 -0.446418 0
M  V30 2710 H 249.565 2.71203 1.77819 0
M  V30 2711 H 249.35 3.89449 0.455182 0
M  V30 2712 H 250.84 3.918 1.44508 0
M  V30 2713 N 251.277 0.427512 1.51691 0
M  V30 2714 C 252.524 -0.142229 2.02 0
M  V30 2715 C 252.852 -1.43566 1.31221 0
M  V30 2716 O 252.107 -1.91298 0.412744 0
M  V30 2717 C 252.406 -0.418249 3.54944 0
M  V30 2718 C 252.072 0.788187 4.43958 0
M  V30 2719 C 250.734 1.11906 4.68007 0
M  V30 2720 C 253.086 1.59347 4.96244 0
M  V30 2721 C 250.414 2.25608 5.41588 0
M  V30 2722 C 252.766 2.7214 5.71072 0
M  V30 2723 C 251.43 3.05692 5.93387 0
M  V30 2724 H 250.7 -0.0520451 0.73917 0
M  V30 2725 H 253.347 0.572697 1.82736 0
M  V30 2726 H 251.652 -1.21496 3.72486 0
M  V30 2727 H 253.349 -0.872339 3.91397 0
M  V30 2728 H 249.939 0.520344 4.2543 0
M  V30 2729 H 254.123 1.35106 4.77556 0
M  V30 2730 H 249.379 2.51929 5.57083 0
M  V30 2731 H 253.553 3.34914 6.10578 0
M  V30 2732 H 251.18 3.9391 6.50184 0
M  V30 2733 N 252.755 -1.56801 0.158532 0
M  V30 2734 C 253.688 -2.13148 -0.815065 0
M  V30 2735 C 254.666 -1.0581 -1.23462 0
M  V30 2736 O 255.85 -1.3371 -1.32868 0
M  V30 2737 C 252.977 -2.6606 -2.09594 0
M  V30 2738 C 252.023 -3.85651 -1.82141 0
M  V30 2739 S 252.856 -5.26041 -1.00207 0
M  V30 2740 C 254.012 -5.8235 -2.29389 0
M  V30 2741 H 254.245 -2.95396 -0.335937 0
M  V30 2742 H 251.778 -1.54299 -0.0559391 0
M  V30 2743 H 253.736 -2.97195 -2.8317 0
M  V30 2744 H 252.397 -1.83921 -2.54621 0
M  V30 2745 H 251.59 -4.20958 -2.77147 0
M  V30 2746 H 251.192 -3.55338 -1.16667 0
M  V30 2747 H 253.484 -5.94485 -3.24952 0
M  V30 2748 H 254.427 -6.79688 -1.9857 0
M  V30 2749 H 254.835 -5.10675 -2.40564 0
M  V30 2750 N 254.233 0.115231 -1.57178 0
M  V30 2751 C 255.181 1.16014 -2.01602 0
M  V30 2752 C 256.175 1.42653 -0.913587 0
M  V30 2753 O 257.381 1.42571 -1.09879 0
M  V30 2754 H 253.756 0.391252 -0.642204 0
M  V30 2755 H 255.727 0.758998 -2.88586 0
M  V30 2756 C 254.476 2.47767 -2.4394 0
M  V30 2757 H 253.799 2.28108 -3.28339 0
M  V30 2758 H 255.239 3.19432 -2.78818 0
M  V30 2759 C 253.698 3.10617 -1.30455 0
M  V30 2760 O 254.228 3.96846 -0.622585 0
M  V30 2761 N 252.434 2.70553 -1.06064 0
M  V30 2762 H 251.981 2.00527 -1.61699 0
M  V30 2763 H 251.939 3.12934 -0.303284 0
M  V30 2764 N 255.711 1.52812 0.385517 0
M  V30 2765 C 257.127 1.4214 0.725829 0
M  V30 2766 C 257.327 0.544589 1.94001 0
M  V30 2767 O 256.383 0.0193693 2.52493 0
M  V30 2768 C 257.696 2.85042 0.957668 0
M  V30 2769 C 259.244 2.94543 1.05892 0
M  V30 2770 C 259.719 4.38464 1.32337 0
M  V30 2771 N 261.21 4.41804 1.39151 0
M  V30 2772 C 261.945 5.5025 1.61285 0
M  V30 2773 N 261.441 6.68775 1.80866 0
M  V30 2774 N 263.234 5.37798 1.63492 0
M  V30 2775 H 255.385 2.08338 -0.413383 0
M  V30 2776 H 257.648 0.940016 -0.122775 0
M  V30 2777 H 257.354 3.51431 0.137568 0
M  V30 2778 H 257.228 3.27505 1.87137 0
M  V30 2779 H 259.615 2.28321 1.86959 0
M  V30 2780 H 259.696 2.55504 0.123057 0
M  V30 2781 H 259.34 5.05254 0.517793 0
M  V30 2782 H 259.27 4.75059 2.27214 0
M  V30 2783 H 261.761 3.56377 1.25713 0
M  V30 2784 H 262.074 7.47197 1.97271 0
M  V30 2785 H 260.419 6.71797 1.78083 0
M  V30 2786 H 263.61 4.44171 1.47749 0
M  V30 2787 H 263.783 6.22382 1.80402 0
M  V30 2788 N 257.189 -0.644168 1.43834 0
M  V30 2789 C 258.417 -1.43147 1.49387 0
M  V30 2790 C 258.832 -1.88452 0.114583 0
M  V30 2791 O 258.189 -1.60047 -0.876989 0
M  V30 2792 C 258.24 -2.66046 2.44748 0
M  V30 2793 O 257.961 -2.22633 3.77314 0
M  V30 2794 C 259.462 -3.59311 2.59635 0
M  V30 2795 H 256.682 -0.439447 0.507077 0
M  V30 2796 H 259.226 -0.78895 1.88669 0
M  V30 2797 H 257.381 -3.26418 2.08638 0
M  V30 2798 H 257.795 -3.02216 4.28679 0
M  V30 2799 H 259.269 -4.42187 3.30416 0
M  V30 2800 H 259.746 -4.07259 1.64427 0
M  V30 2801 H 260.352 -3.04816 2.96593 0
M  V30 2802 N 258.668 -1.30515 -0.883378 0
M  V30 2803 C 259.914 -1.19607 -1.63774 0
M  V30 2804 C 260.247 0.248314 -1.92606 0
M  V30 2805 O 259.522 1.17742 -1.54813 0
M  V30 2806 C 259.805 -2.02669 -2.97653 0
M  V30 2807 C 259.658 -3.55335 -2.75784 0
M  V30 2808 C 260.977 -1.86573 -3.98596 0
M  V30 2809 H 258.096 -0.435856 -0.594305 0
M  V30 2810 H 260.738 -1.60165 -1.02212 0
M  V30 2811 H 258.888 -1.68208 -3.50197 0
M  V30 2812 H 260.56 -3.99863 -2.30016 0
M  V30 2813 H 258.803 -3.79438 -2.1026 0
M  V30 2814 H 259.474 -4.08745 -3.70988 0
M  V30 2815 H 261.95 -2.16703 -3.55217 0
M  V30 2816 H 260.826 -2.47014 -4.90179 0
M  V30 2817 H 261.087 -0.825321 -4.34328 0
M  V30 2818 N 260.146 1.09593 -1.13257 0
M  V30 2819 C 261.394 1.81375 -0.891492 0
M  V30 2820 C 261.715 1.86049 0.584009 0
M  V30 2821 O 260.985 1.34481 1.42449 0
M  V30 2822 H 259.565 0.671708 -0.326828 0
M  V30 2823 H 262.227 1.3256 -1.42877 0
M  V30 2824 H 261.323 2.84612 -1.28071 0
M  V30 2825 N 261.624 0.925811 1.2754 0
M  V30 2826 C 262.534 0.428993 2.30644 0
M  V30 2827 C 263.55 -0.489387 1.66976 0
M  V30 2828 O 264.726 -0.372653 1.97922 0
M  V30 2829 C 261.791 -0.311967 3.45294 0
M  V30 2830 C 260.852 0.641098 4.24486 0
M  V30 2831 C 260.085 -0.0645955 5.33661 0
M  V30 2832 O 260.308 -1.28429 5.55754 0
M  V30 2833 O 259.242 0.606265 5.98839 0
M  V30 2834 H 263.068 1.28504 2.75173 0
M  V30 2835 H 260.653 0.691086 1.32455 0
M  V30 2836 H 262.535 -0.729972 4.15029 0
M  V30 2837 H 261.21 -1.14365 3.02824 0
M  V30 2838 H 260.117 1.10874 3.57292 0
M  V30 2839 H 261.45 1.43995 4.70666 0
M  V30 2840 N 263.102 -1.41638 0.69111 0
M  V30 2841 C 264.351 -2.00526 0.217318 0
M  V30 2842 C 264.664 -1.55353 -1.18848 0
M  V30 2843 O 265.87 -2.06769 -1.75951 0
M  V30 2844 C 264.326 -3.58313 0.337639 0
M  V30 2845 C 263.934 -4.12469 1.74852 0
M  V30 2846 C 265.678 -4.24431 -0.0766066 0
M  V30 2847 C 263.585 -5.62675 1.82074 0
M  V30 2848 H 262.515 -0.750008 0.0774893 0
M  V30 2849 H 265.166 -1.6217 0.858661 0
M  V30 2850 H 263.548 -3.9425 -0.371879 0
M  V30 2851 H 264.722 -3.8796 2.48644 0
M  V30 2852 H 263.037 -3.58861 2.11205 0
M  V30 2853 H 265.634 -5.34683 -0.0430284 0
M  V30 2854 H 265.977 -4.01101 -1.1146 0
M  V30 2855 H 266.51 -3.93512 0.582476 0
M  V30 2856 H 263.249 -5.90826 2.83911 0
M  V30 2857 H 262.769 -5.89124 1.12661 0
M  V30 2858 H 264.448 -6.27371 1.58159 0
M  V30 2859 N 264.58 -0.43555 -1.51462 0
M  V30 2860 C 265.513 0.421989 -2.24264 0
M  V30 2861 C 266.491 1.02619 -1.26127 0
M  V30 2862 O 267.675 1.069 -1.55257 0
M  V30 2863 C 264.802 1.588 -2.99166 0
M  V30 2864 C 263.848 1.10465 -4.11946 0
M  V30 2865 S 264.681 0.048146 -5.35478 0
M  V30 2866 C 265.837 1.21887 -6.13917 0
M  V30 2867 H 266.07 -0.196102 -2.96653 0
M  V30 2868 H 263.603 -0.220054 -1.52824 0
M  V30 2869 H 265.561 2.25647 -3.42919 0
M  V30 2870 H 264.222 2.1775 -2.26371 0
M  V30 2871 H 263.415 1.97654 -4.63626 0
M  V30 2872 H 263.017 0.51445 -3.70445 0
M  V30 2873 H 265.309 2.13756 -6.42895 0
M  V30 2874 H 266.252 0.742076 -7.04201 0
M  V30 2875 H 266.66 1.45663 -5.45383 0
M  V30 2876 N 266.058 1.56714 -0.166846 0
M  V30 2877 C 267.304 1.97813 0.473473 0
M  V30 2878 C 267.659 1.05095 1.61161 0
M  V30 2879 O 266.952 0.0897541 1.9139 0
M  V30 2880 C 267.146 3.42889 1.00806 0
M  V30 2881 C 266.975 4.49635 -0.0767392 0
M  V30 2882 C 265.745 5.02566 -0.524894 0
M  V30 2883 C 267.943 5.06793 -0.875504 0
M  V30 2884 N 265.925 5.9294 -1.59047 0
M  V30 2885 C 267.296 5.93565 -1.79111 0
M  V30 2886 C 269.351 4.89306 -0.921083 0
M  V30 2887 C 268.054 6.64721 -2.74843 0
M  V30 2888 C 270.08 5.61179 -1.86633 0
M  V30 2889 C 269.442 6.47675 -2.76942 0
M  V30 2890 H 265.541 0.769093 0.141489 0
M  V30 2891 H 268.125 1.92874 -0.266031 0
M  V30 2892 H 266.296 3.48382 1.7171 0
M  V30 2893 H 268.028 3.71008 1.61664 0
M  V30 2894 H 264.783 4.73439 -0.123432 0
M  V30 2895 H 265.207 6.42831 -2.12361 0
M  V30 2896 H 269.849 4.22136 -0.23692 0
M  V30 2897 H 267.567 7.31107 -3.44249 0
M  V30 2898 H 271.153 5.49636 -1.90764 0
M  V30 2899 H 270.033 7.02313 -3.48893 0
M  V30 2900 N 267.536 -0.106894 1.57237 0
M  V30 2901 C 268.784 -0.810921 1.85117 0
M  V30 2902 C 269.105 -1.7984 0.753827 0
M  V30 2903 O 268.375 -1.94649 -0.221056 0
M  V30 2904 H 266.955 -0.302466 0.683025 0
M  V30 2905 H 269.617 -0.0913324 1.94686 0
M  V30 2906 H 268.713 -1.34875 2.81452 0
M  V30 2907 N 269.014 -1.53014 -0.377408 0
M  V30 2908 C 270.244 -1.72265 -1.14054 0
M  V30 2909 C 270.652 -0.44601 -1.83868 0
M  V30 2910 O 269.995 0.590095 -1.73964 0
M  V30 2911 C 270.057 -2.82492 -2.22348 0
M  V30 2912 C 269.721 -4.23233 -1.72402 0
M  V30 2913 C 270.718 -5.05992 -1.19448 0
M  V30 2914 C 268.403 -4.696 -1.78273 0
M  V30 2915 C 270.397 -6.33203 -0.730268 0
M  V30 2916 C 268.084 -5.96792 -1.31464 0
M  V30 2917 C 269.082 -6.78424 -0.789297 0
M  V30 2918 O 268.77 -8.0323 -0.328077 0
M  V30 2919 H 268.502 -0.579873 -0.347453 0
M  V30 2920 H 271.056 -2.00502 -0.445882 0
M  V30 2921 H 269.286 -2.49702 -2.95272 0
M  V30 2922 H 270.975 -2.90034 -2.83963 0
M  V30 2923 H 271.741 -4.71349 -1.14259 0
M  V30 2924 H 267.62 -4.06142 -2.18106 0
M  V30 2925 H 271.164 -6.96868 -0.319542 0
M  V30 2926 H 267.061 -6.30937 -1.36342 0
M  V30 2927 H 267.829 -8.1727 -0.448493 0
M  V30 2928 N 270.492 0.636531 -1.44174 0
M  V30 2929 C 271.439 1.74875 -1.50624 0
M  V30 2930 C 272.409 1.62275 -0.35442 0
M  V30 2931 O 273.594 1.82276 -0.563908 0
M  V30 2932 C 270.734 3.13102 -1.45125 0
M  V30 2933 C 269.847 3.36717 -2.7064 0
M  V30 2934 C 268.982 4.64885 -2.57013 0
M  V30 2935 C 268.021 4.8166 -3.77717 0
M  V30 2936 N 267.158 6.01101 -3.62798 0
M  V30 2937 H 271.998 1.68697 -2.45653 0
M  V30 2938 H 269.535 0.823004 -1.21922 0
M  V30 2939 H 271.493 3.93034 -1.39929 0
M  V30 2940 H 270.123 3.18308 -0.536671 0
M  V30 2941 H 269.175 2.50763 -2.86046 0
M  V30 2942 H 270.487 3.44993 -3.60252 0
M  V30 2943 H 269.641 5.52969 -2.49619 0
M  V30 2944 H 268.38 4.58957 -1.64953 0
M  V30 2945 H 267.385 3.92007 -3.85501 0
M  V30 2946 H 268.61 4.89406 -4.70807 0
M  V30 2947 H 266.556 5.96273 -2.73486 0
M  V30 2948 H 266.473 6.10409 -4.46023 0
M  V30 2949 H 267.741 6.91761 -3.59286 0
M  V30 2950 N 271.97 1.30982 0.876444 0
M  V30 2951 C 273.247 1.10942 1.61094 0
M  V30 2952 C 273.627 -0.338223 2.08373 0
M  V30 2953 O 272.975 -1.33122 1.85717 0
M  V30 2954 C 273.185 2.11789 2.77392 0
M  V30 2955 C 274.533 2.43965 3.47514 0
M  V30 2956 O 275.557 2.10166 2.87591 0
M  V30 2957 O 274.416 3.01817 4.55597 0
M  V30 2958 H 271.51 0.42667 0.708436 0
M  V30 2959 H 274.056 1.42438 0.922474 0
M  V30 2960 H 272.828 3.09194 2.39823 0
M  V30 2961 H 272.451 1.81161 3.5393 0
M  V30 2962 N 273.449 -1.08991 1.13837 0
M  V30 2963 C 274.86 -1.62746 0.914917 0
M  V30 2964 C 275.211 -1.88403 -0.547594 0
M  V30 2965 O 274.336 -1.63706 -1.41525 0
M  V30 2966 C 274.931 -2.95662 1.65437 0
M  V30 2967 C 273.49 -3.46225 1.47666 0
M  V30 2968 C 272.637 -2.20562 1.6807 0
M  V30 2969 H 275.588 -0.922946 1.29102 0
M  V30 2970 H 275.609 -3.63825 1.11407 0
M  V30 2971 H 275.121 -2.76956 2.71877 0
M  V30 2972 H 273.222 -3.70046 0.435478 0
M  V30 2973 H 273.335 -4.23368 2.24268 0
M  V30 2974 H 271.699 -2.29439 1.10589 0
M  V30 2975 H 272.482 -2.0437 2.7584 0
M  V30 2976 N 274.927 -0.932562 -1.27047 0
M  V30 2977 C 275.857 -0.452902 -2.29066 0
M  V30 2978 C 276.838 0.489338 -1.62909 0
M  V30 2979 O 278.023 0.393046 -1.90181 0
M  V30 2980 C 275.153 0.290698 -3.46081 0
M  V30 2981 C 274.107 -0.564168 -4.24265 0
M  V30 2982 C 273.433 0.308886 -5.33807 0
M  V30 2983 C 274.733 -1.83112 -4.89149 0
M  V30 2984 H 276.427 -1.30552 -2.69437 0
M  V30 2985 H 273.973 -0.629201 -1.29526 0
M  V30 2986 H 275.926 0.637233 -4.16554 0
M  V30 2987 H 274.65 1.17738 -3.0464 0
M  V30 2988 H 273.309 -0.893477 -3.55545 0
M  V30 2989 H 272.957 1.19467 -4.88607 0
M  V30 2990 H 272.657 -0.259633 -5.87026 0
M  V30 2991 H 274.181 0.650884 -6.07121 0
M  V30 2992 H 275.595 -1.55236 -5.51883 0
M  V30 2993 H 273.992 -2.34353 -5.52448 0
M  V30 2994 H 275.062 -2.54772 -4.12576 0
M  V30 2995 N 276.405 1.4127 -0.698611 0
M  V30 2996 C 277.651 2.01478 -0.231207 0
M  V30 2997 C 277.984 1.55215 1.16713 0
M  V30 2998 O 277.259 0.764672 1.78838 0
M  V30 2999 C 277.542 3.58912 -0.292281 0
M  V30 3000 C 277.395 4.15293 -1.72778 0
M  V30 3001 C 278.714 4.38736 0.346194 0
M  V30 3002 H 275.833 0.732025 -0.0854878 0
M  V30 3003 H 278.475 1.67977 -0.887906 0
M  V30 3004 H 276.625 3.87582 0.26686 0
M  V30 3005 H 278.297 3.97486 -2.341 0
M  V30 3006 H 276.54 3.7022 -2.26096 0
M  V30 3007 H 277.211 5.24452 -1.72202 0
M  V30 3008 H 279.687 4.15897 -0.130035 0
M  V30 3009 H 278.563 5.48221 0.272932 0
M  V30 3010 H 278.824 4.18425 1.42734 0
M  V30 3011 N 277.883 0.443576 1.51229 0
M  V30 3012 C 278.831 -0.37904 2.29491 0
M  V30 3013 C 279.825 -1.0153 1.35603 0
M  V30 3014 O 281.031 -0.94955 1.52917 0
M  V30 3015 H 277.406 -0.141053 0.738653 0
M  V30 3016 H 279.377 0.301799 2.9687 0
M  V30 3017 C 278.126 -1.46426 3.15364 0
M  V30 3018 H 277.449 -0.984037 3.87501 0
M  V30 3019 H 278.889 -2.01297 3.7317 0
M  V30 3020 C 277.348 -2.45099 2.31146 0
M  V30 3021 O 277.878 -3.49773 1.9754 0
M  V30 3022 N 276.084 -2.16139 1.94249 0
M  V30 3023 H 275.631 -1.31044 2.21777 0
M  V30 3024 H 275.589 -2.82398 1.38198 0
M  V30 3025 N 279.361 -1.56624 0.175154 0
M  V30 3026 C 280.291 -2.21155 -0.749195 0
M  V30 3027 C 281.272 -1.16836 -1.23626 0
M  V30 3028 O 282.457 -1.45277 -1.28873 0
M  V30 3029 C 279.587 -2.8553 -1.97711 0
M  V30 3030 C 278.541 -3.95921 -1.62575 0
M  V30 3031 C 277.867 -4.47365 -2.92864 0
M  V30 3032 C 279.167 -5.15323 -0.850838 0
M  V30 3033 H 280.861 -2.98653 -0.211295 0
M  V30 3034 H 278.407 -1.43651 -0.100188 0
M  V30 3035 H 280.36 -3.2935 -2.62881 0
M  V30 3036 H 279.084 -2.05406 -2.53921 0
M  V30 3037 H 277.743 -3.52762 -0.997719 0
M  V30 3038 H 277.391 -3.64027 -3.47122 0
M  V30 3039 H 277.091 -5.21839 -2.70106 0
M  V30 3040 H 278.615 -4.93873 -3.59056 0
M  V30 3041 H 280.029 -5.55812 -1.40521 0
M  V30 3042 H 278.426 -5.95739 -0.722154 0
M  V30 3043 H 279.496 -4.84661 0.152082 0
M  V30 3044 N 280.839 0.0985539 -1.57292 0
M  V30 3045 C 282.088 0.801358 -1.85098 0
M  V30 3046 C 282.401 1.80066 -0.763902 0
M  V30 3047 O 283.607 2.55112 -0.928981 0
M  V30 3048 C 282.063 1.47599 -3.28242 0
M  V30 3049 C 281.671 0.516624 -4.45011 0
M  V30 3050 C 283.415 2.16272 -3.65276 0
M  V30 3051 C 281.322 1.19564 -5.79188 0
M  V30 3052 H 280.252 0.303022 -0.69043 0
M  V30 3053 H 282.903 0.0542623 -1.8342 0
M  V30 3054 H 281.285 2.27042 -3.2445 0
M  V30 3055 H 282.459 -0.246065 -4.60143 0
M  V30 3056 H 280.774 -0.064227 -4.1635 0
M  V30 3057 H 283.371 2.67802 -4.62803 0
M  V30 3058 H 283.714 2.95009 -2.93727 0
M  V30 3059 H 284.247 1.43693 -3.70941 0
M  V30 3060 H 280.986 0.449157 -6.53959 0
M  V30 3061 H 280.506 1.92984 -5.67906 0
M  V30 3062 H 282.185 1.7231 -6.23633 0
M  V30 3063 N 282.317 1.53212 0.369288 0
M  V30 3064 C 283.265 1.80054 1.47253 0
M  V30 3065 C 284.259 0.669456 1.55611 0
M  V30 3066 O 285.465 0.852328 1.58541 0
M  V30 3067 H 281.84 0.570034 0.490475 0
M  V30 3068 H 283.811 2.72403 1.21817 0
M  V30 3069 C 282.56 2.00403 2.84137 0
M  V30 3070 H 281.883 2.86876 2.78464 0
M  V30 3071 H 283.323 2.23164 3.60519 0
M  V30 3072 C 281.782 0.782081 3.27697 0
M  V30 3073 O 282.312 -0.0310205 4.01688 0
M  V30 3074 N 280.518 0.606573 2.84199 0
M  V30 3075 H 280.065 1.26939 2.24152 0
M  V30 3076 H 280.023 -0.20962 3.137 0
M  V30 3077 N 283.795 -0.628877 1.44509 0
M  V30 3078 C 284.742 -1.74074 1.51549 0
M  V30 3079 C 285.712 -1.62084 0.363021 0
M  V30 3080 O 286.897 -1.81975 0.573567 0
M  V30 3081 C 284.037 -3.12328 1.46784 0
M  V30 3082 C 283.15 -3.35277 2.72422 0
M  V30 3083 C 282.285 -4.63515 2.59475 0
M  V30 3084 C 281.324 -4.7965 3.80266 0
M  V30 3085 N 280.461 -5.99168 3.65981 0
M  V30 3086 H 285.301 -1.67392 2.46544 0
M  V30 3087 H 282.838 -0.816527 1.22357 0
M  V30 3088 H 284.796 -3.92286 1.42012 0
M  V30 3089 H 283.426 -3.18018 0.553544 0
M  V30 3090 H 282.478 -2.49242 2.87372 0
M  V30 3091 H 283.79 -3.43078 3.62076 0
M  V30 3092 H 282.944 -5.51638 2.52548 0
M  V30 3093 H 281.683 -4.58076 1.67384 0
M  V30 3094 H 280.688 -3.89957 3.87574 0
M  V30 3095 H 281.913 -4.86902 4.73395 0
M  V30 3096 H 279.859 -5.94814 2.76644 0
M  V30 3097 H 279.776 -6.08035 4.49254 0
M  V30 3098 H 281.044 -6.89846 3.6295 0
M  V30 3099 N 285.273 -1.31445 -0.869486 0
M  V30 3100 C 286.503 -1.23942 -1.65294 0
M  V30 3101 C 286.911 0.197561 -1.88166 0
M  V30 3102 O 286.254 1.14019 -1.44033 0
M  V30 3103 C 286.316 -1.91385 -3.04322 0
M  V30 3104 C 285.98 -3.40726 -3.04557 0
M  V30 3105 C 286.977 -4.36464 -2.82481 0
M  V30 3106 C 284.662 -3.82425 -3.25663 0
M  V30 3107 C 286.656 -5.71876 -2.8149 0
M  V30 3108 C 284.343 -5.1795 -3.243 0
M  V30 3109 C 285.341 -6.12486 -3.02241 0
M  V30 3110 O 285.029 -7.45534 -3.00724 0
M  V30 3111 H 284.761 -0.429459 -0.522054 0
M  V30 3112 H 287.315 -1.73873 -1.0935 0
M  V30 3113 H 285.545 -1.36004 -3.61994 0
M  V30 3114 H 287.234 -1.77791 -3.64891 0
M  V30 3115 H 288 -4.05576 -2.65956 0
M  V30 3116 H 283.879 -3.09274 -3.41863 0
M  V30 3117 H 287.423 -6.45638 -2.64191 0
M  V30 3118 H 283.32 -5.48473 -3.40365 0
M  V30 3119 H 284.088 -7.54713 -3.16782 0
M  V30 3120 N 286.751 1.08385 -1.14413 0
M  V30 3121 C 287.998 1.80776 -0.912482 0
M  V30 3122 C 288.326 1.86236 0.560934 0
M  V30 3123 O 287.581 1.33431 1.43159 0
M  V30 3124 C 287.88 3.26273 -1.45879 0
M  V30 3125 C 287.546 3.4093 -2.95089 0
M  V30 3126 C 286.208 3.44638 -3.35824 0
M  V30 3127 C 288.56 3.44591 -3.91033 0
M  V30 3128 C 285.888 3.49597 -4.71167 0
M  V30 3129 C 288.24 3.51086 -5.26233 0
M  V30 3130 C 286.904 3.53067 -5.6648 0
M  V30 3131 H 286.174 0.661507 -0.333901 0
M  V30 3132 H 288.821 1.27613 -1.42784 0
M  V30 3133 H 287.126 3.82146 -0.864376 0
M  V30 3134 H 288.823 3.80839 -1.2555 0
M  V30 3135 H 285.413 3.38736 -2.62594 0
M  V30 3136 H 289.597 3.40957 -3.60641 0
M  V30 3137 H 284.853 3.49424 -5.0171 0
M  V30 3138 H 289.027 3.52864 -6.00383 0
M  V30 3139 H 286.654 3.56662 -6.71339 0
M  V30 3140 N 288.23 0.939286 1.26551 0
M  V30 3141 C 289.641 0.628782 1.75793 0
M  V30 3142 C 289.992 -0.856046 1.7654 0
M  V30 3143 O 289.117 -1.66994 1.3763 0
M  V30 3144 C 289.712 1.13465 3.19235 0
M  V30 3145 C 288.271 0.874601 3.66098 0
M  V30 3146 C 287.418 1.28667 2.45642 0
M  V30 3147 H 290.369 1.1178 1.12654 0
M  V30 3148 H 290.39 0.487609 3.77363 0
M  V30 3149 H 289.902 2.21535 3.1866 0
M  V30 3150 H 288.003 -0.191793 3.72106 0
M  V30 3151 H 288.116 1.50028 4.55004 0
M  V30 3152 H 286.48 0.705109 2.44745 0
M  V30 3153 H 287.263 2.37625 2.47769 0
M  V30 3154 N 289.708 -1.40897 0.706093 0
M  V30 3155 C 290.956 -2.00657 0.241054 0
M  V30 3156 C 291.277 -1.56241 -1.16678 0
M  V30 3157 O 290.547 -0.79765 -1.78926 0
M  V30 3158 H 289.127 -0.742018 0.0861308 0
M  V30 3159 H 291.789 -1.72372 0.909604 0
M  V30 3160 H 290.885 -3.10958 0.266705 0
M  V30 3161 N 291.186 -0.45159 -1.50991 0
M  V30 3162 C 292.119 0.398179 -2.24699 0
M  V30 3163 C 293.097 1.01276 -1.27208 0
M  V30 3164 O 294.281 1.05247 -1.56382 0
M  V30 3165 C 291.408 1.55618 -3.00833 0
M  V30 3166 C 290.454 1.0609 -4.13095 0
M  V30 3167 S 291.287 -0.00865136 -5.35499 0
M  V30 3168 C 292.443 1.15369 -6.15175 0
M  V30 3169 H 292.676 -0.227555 -2.96428 0
M  V30 3170 H 290.209 -0.236251 -1.52582 0
M  V30 3171 H 292.167 2.21997 -3.45293 0
M  V30 3172 H 290.828 2.15337 -2.28667 0
M  V30 3173 H 290.021 1.92726 -4.65696 0
M  V30 3174 H 289.623 0.47513 -3.7097 0
M  V30 3175 H 291.915 2.06925 -6.45126 0
M  V30 3176 H 292.858 0.667344 -7.04948 0
M  V30 3177 H 293.266 1.3987 -5.46897 0
M  V30 3178 N 292.664 1.56529 -0.183458 0
M  V30 3179 C 293.911 1.97244 0.458357 0
M  V30 3180 C 294.239 1.06992 1.62428 0
M  V30 3181 O 293.494 0.106542 1.9541 0
M  V30 3182 C 293.793 3.43939 0.971637 0
M  V30 3183 C 293.459 4.5083 -0.0796784 0
M  V30 3184 C 292.121 4.79786 -0.368584 0
M  V30 3185 C 294.473 5.15138 -0.792638 0
M  V30 3186 C 291.801 5.70345 -1.37563 0
M  V30 3187 C 294.153 6.06784 -1.78875 0
M  V30 3188 C 292.817 6.34102 -2.08497 0
M  V30 3189 H 292.087 0.721768 0.167725 0
M  V30 3190 H 294.734 1.89472 -0.277976 0
M  V30 3191 H 293.039 3.48724 1.78602 0
M  V30 3192 H 294.736 3.72791 1.47744 0
M  V30 3193 H 291.326 4.28317 0.155668 0
M  V30 3194 H 295.51 4.92868 -0.582659 0
M  V30 3195 H 290.766 5.89789 -1.61118 0
M  V30 3196 H 294.94 6.55677 -2.3465 0
M  V30 3197 H 292.567 7.04074 -2.86678 0
M  V30 3198 N 294.142 -0.090211 1.57342 0
M  V30 3199 C 295.553 -0.644173 1.75235 0
M  V30 3200 C 295.904 -1.78865 0.806335 0
M  V30 3201 O 295.029 -2.16395 -0.0140128 0
M  V30 3202 C 295.624 -1.17532 3.1776 0
M  V30 3203 C 294.183 -1.67531 3.37061 0
M  V30 3204 C 293.33 -0.58693 2.71017 0
M  V30 3205 H 296.281 0.135884 1.58117 0
M  V30 3206 H 296.302 -2.04455 3.20902 0
M  V30 3207 H 295.814 -0.342138 3.86589 0
M  V30 3208 H 293.915 -2.53234 2.73319 0
M  V30 3209 H 294.028 -1.76493 4.45406 0
M  V30 3210 H 292.392 -1.02756 2.33052 0
M  V30 3211 H 293.175 0.235758 3.4249 0
M  V30 3212 N 295.62 -1.53406 -0.361157 0
M  V30 3213 C 296.867 -1.69802 -1.10333 0
M  V30 3214 C 297.195 -0.452087 -1.89173 0
M  V30 3215 O 296.45 0.566017 -1.87336 0
M  V30 3216 C 296.749 -2.90211 -2.08596 0
M  V30 3217 C 296.415 -4.26539 -1.46203 0
M  V30 3218 C 295.077 -4.6361 -1.28915 0
M  V30 3219 C 297.429 -5.113 -1.01101 0
M  V30 3220 C 294.757 -5.83075 -0.651157 0
M  V30 3221 C 297.109 -6.31415 -0.387007 0
M  V30 3222 C 295.773 -6.67195 -0.201657 0
M  V30 3223 H 295.043 -0.621351 -0.403737 0
M  V30 3224 H 297.69 -1.87598 -0.384609 0
M  V30 3225 H 295.995 -2.66946 -2.86788 0
M  V30 3226 H 297.692 -3.00091 -2.65982 0
M  V30 3227 H 294.282 -3.97352 -1.60653 0
M  V30 3228 H 298.466 -4.83206 -1.13249 0
M  V30 3229 H 293.722 -6.09385 -0.496006 0
M  V30 3230 H 297.896 -6.96394 -0.0293563 0
M  V30 3231 H 295.523 -7.59628 0.294766 0
M  V30 3232 N 297.098 0.621204 -1.44841 0
M  V30 3233 C 298.045 1.73267 -1.5247 0
M  V30 3234 C 299.015 1.6189 -0.371611 0
M  V30 3235 O 300.2 1.81668 -0.58321 0
M  V30 3236 C 297.34 3.11545 -1.48438 0
M  V30 3237 C 296.453 3.33827 -2.74196 0
M  V30 3238 C 295.588 4.62133 -2.61929 0
M  V30 3239 C 294.627 4.77627 -3.82804 0
M  V30 3240 N 293.764 5.97219 -3.69153 0
M  V30 3241 H 298.604 1.66082 -2.47428 0
M  V30 3242 H 296.141 0.810026 -1.22788 0
M  V30 3243 H 298.099 3.91528 -1.4409 0
M  V30 3244 H 296.729 3.1772 -0.570402 0
M  V30 3245 H 295.781 2.47715 -2.88689 0
M  V30 3246 H 297.093 3.41153 -3.6389 0
M  V30 3247 H 296.247 5.50291 -2.5547 0
M  V30 3248 H 294.986 4.57182 -1.69811 0
M  V30 3249 H 293.991 3.87896 -3.89637 0
M  V30 3250 H 295.216 4.84385 -4.75971 0
M  V30 3251 H 293.162 5.93339 -2.79794 0
M  V30 3252 H 293.079 6.05644 -4.52472 0
M  V30 3253 H 294.347 6.87912 -3.66603 0
M  V30 3254 N 298.576 1.31904 0.862503 0
M  V30 3255 C 299.853 1.12644 1.59908 0
M  V30 3256 C 300.233 -0.316104 2.0872 0
M  V30 3257 O 299.581 -1.31145 1.87118 0
M  V30 3258 C 299.791 2.1472 2.7513 0
M  V30 3259 C 301.139 2.47637 3.44907 0
M  V30 3260 O 302.163 2.13205 2.85346 0
M  V30 3261 O 301.022 3.06632 4.52371 0
M  V30 3262 H 298.116 0.43416 0.703871 0
M  V30 3263 H 300.662 1.43408 0.907314 0
M  V30 3264 H 299.434 3.1172 2.3653 0
M  V30 3265 H 299.057 1.84905 3.51989 0
M  V30 3266 N 300.054 -1.07777 1.14986 0
M  V30 3267 C 301.001 -2.14867 0.842672 0
M  V30 3268 C 301.971 -1.6486 -0.202552 0
M  V30 3269 O 303.156 -1.90668 -0.0710568 0
M  V30 3270 C 300.296 -3.43486 0.333363 0
M  V30 3271 C 299.409 -4.07306 1.43965 0
M  V30 3272 C 298.544 -5.23744 0.886914 0
M  V30 3273 C 297.583 -5.79517 1.97043 0
M  V30 3274 N 296.72 -6.87291 1.4344 0
M  V30 3275 H 301.56 -2.40485 1.75986 0
M  V30 3276 H 299.097 -1.1801 0.878179 0
M  V30 3277 H 301.055 -4.17195 0.0198163 0
M  V30 3278 H 299.685 -3.18133 -0.546916 0
M  V30 3279 H 298.737 -3.31293 1.86946 0
M  V30 3280 H 300.049 -4.44771 2.25788 0
M  V30 3281 H 299.203 -6.04419 0.525651 0
M  V30 3282 H 297.942 -4.87685 0.0377957 0
M  V30 3283 H 296.947 -4.97491 2.34057 0
M  V30 3284 H 298.172 -6.17632 2.82325 0
M  V30 3285 H 296.118 -6.5318 0.607567 0
M  V30 3286 H 296.035 -7.23617 2.18895 0
M  V30 3287 H 297.303 -7.71682 1.10124 0
M  V30 3288 N 301.532 -0.945985 -1.26051 0
M  V30 3289 C 302.779 -0.596118 -1.93527 0
M  V30 3290 C 303.107 0.865559 -1.74179 0
M  V30 3291 O 302.362 1.63524 -1.0751 0
M  V30 3292 C 302.661 -0.890475 -3.46129 0
M  V30 3293 C 302.327 -2.3368 -3.85622 0
M  V30 3294 C 300.989 -2.73216 -3.96114 0
M  V30 3295 C 303.341 -3.27648 -4.05334 0
M  V30 3296 C 300.669 -4.05806 -4.2372 0
M  V30 3297 C 303.021 -4.59841 -4.3443 0
M  V30 3298 C 301.685 -4.99185 -4.43137 0
M  V30 3299 H 300.955 -0.218135 -0.708165 0
M  V30 3300 H 303.602 -1.1934 -1.49768 0
M  V30 3301 H 301.907 -0.210711 -3.91233 0
M  V30 3302 H 303.604 -0.598478 -3.96509 0
M  V30 3303 H 300.194 -2.02015 -3.78005 0
M  V30 3304 H 304.378 -2.98298 -3.96651 0
M  V30 3305 H 299.634 -4.35945 -4.28675 0
M  V30 3306 H 303.808 -5.32641 -4.48628 0
M  V30 3307 H 301.435 -6.01952 -4.64282 0
M  V30 3308 N 303.011 1.40521 -0.713556 0
M  V30 3309 C 304.259 2.00527 -0.251692 0
M  V30 3310 C 304.58 1.56857 1.15848 0
M  V30 3311 O 303.85 0.807127 1.785 0
M  V30 3312 H 302.43 0.741551 -0.0900646 0
M  V30 3313 H 305.092 1.71887 -0.918733 0
M  V30 3314 H 304.188 3.10813 -0.283192 0
M  V30 3315 N 304.489 0.459591 1.5075 0
M  V30 3316 C 305.419 -0.330644 2.31147 0
M  V30 3317 C 306.4 -1.00087 1.37538 0
M  V30 3318 O 307.585 -1.00025 1.66459 0
M  V30 3319 C 304.715 -1.41958 3.16962 0
M  V30 3320 C 303.669 -0.871608 4.19031 0
M  V30 3321 C 302.995 -2.05797 4.9351 0
M  V30 3322 C 304.295 0.109251 5.22186 0
M  V30 3323 H 305.989 0.340336 2.97459 0
M  V30 3324 H 303.535 0.165119 1.4305 0
M  V30 3325 H 305.488 -1.9798 3.71997 0
M  V30 3326 H 304.212 -2.11917 2.48513 0
M  V30 3327 H 302.871 -0.333442 3.6508 0
M  V30 3328 H 302.519 -2.74427 4.21544 0
M  V30 3329 H 302.219 -1.6976 5.62544 0
M  V30 3330 H 303.743 -2.62331 5.51375 0
M  V30 3331 H 305.157 -0.361405 5.7216 0
M  V30 3332 H 303.554 0.383316 5.98875 0
M  V30 3333 H 304.624 1.03887 4.73641 0
M  V30 3334 N 305.967 -1.56429 0.191757 0
M  V30 3335 C 307.214 -1.97485 -0.447891 0
M  V30 3336 C 307.542 -1.07852 -1.61859 0
M  V30 3337 O 306.797 -0.116903 -1.95351 0
M  V30 3338 C 307.096 -3.44449 -0.953384 0
M  V30 3339 C 306.762 -4.50781 0.103586 0
M  V30 3340 C 305.424 -4.79584 0.394023 0
M  V30 3341 C 307.776 -5.1471 0.819946 0
M  V30 3342 C 305.104 -5.69607 1.40585 0
M  V30 3343 C 307.456 -6.05827 1.8209 0
M  V30 3344 C 306.12 -6.32987 2.11857 0
M  V30 3345 H 305.39 -0.722648 -0.163895 0
M  V30 3346 H 308.037 -1.89322 0.28802 0
M  V30 3347 H 306.342 -3.49666 -1.76751 0
M  V30 3348 H 308.039 -3.73569 -1.45765 0
M  V30 3349 H 304.629 -4.28394 -0.132951 0
M  V30 3350 H 308.813 -4.92552 0.608789 0
M  V30 3351 H 304.069 -5.88926 1.64243 0
M  V30 3352 H 308.243 -6.54424 2.38123 0
M  V30 3353 H 305.87 -7.02544 2.90407 0
M  V30 3354 N 307.445 0.0818655 -1.57387 0
M  V30 3355 C 308.408 1.08265 -2.02018 0
M  V30 3356 C 309.408 1.32183 -0.915664 0
M  V30 3357 O 310.598 1.28073 -1.18081 0
M  V30 3358 C 307.73 2.42871 -2.39221 0
M  V30 3359 H 308.923 0.698204 -2.91659 0
M  V30 3360 H 306.476 0.327303 -1.52835 0
M  V30 3361 H 307.211 2.86167 -1.52575 0
M  V30 3362 H 306.996 2.26855 -3.19811 0
M  V30 3363 H 308.486 3.14826 -2.74362 0
M  V30 3364 N 308.923 1.53595 0.353017 0
M  V30 3365 C 309.833 1.83897 1.45667 0
M  V30 3366 C 310.849 0.728334 1.58023 0
M  V30 3367 O 312.025 1.01968 1.73679 0
M  V30 3368 C 309.09 2.03383 2.80778 0
M  V30 3369 C 308.151 3.27262 2.77845 0
M  V30 3370 C 307.384 3.45809 4.06512 0
M  V30 3371 O 307.607 2.68387 5.03314 0
M  V30 3372 O 306.541 4.39207 4.11559 0
M  V30 3373 H 310.367 2.77686 1.2298 0
M  V30 3374 H 307.952 1.39132 0.544308 0
M  V30 3375 H 309.834 2.17698 3.60812 0
M  V30 3376 H 308.509 1.12783 3.03417 0
M  V30 3377 H 307.416 3.18359 1.96465 0
M  V30 3378 H 308.749 4.17824 2.60161 0
M  V30 3379 N 310.401 -0.613514 1.45168 0
M  V30 3380 C 311.331 -1.7354 1.56225 0
M  V30 3381 C 312.312 -1.64981 0.41414 0
M  V30 3382 O 313.497 -1.83472 0.636526 0
M  V30 3383 C 310.627 -3.12128 1.52295 0
M  V30 3384 C 309.581 -3.35491 2.65762 0
M  V30 3385 C 308.907 -4.74291 2.46885 0
M  V30 3386 C 310.207 -3.26325 4.0781 0
M  V30 3387 H 311.901 -1.64543 2.50132 0
M  V30 3388 H 309.447 -0.790185 1.20383 0
M  V30 3389 H 311.4 -3.90404 1.58628 0
M  V30 3390 H 310.124 -3.2195 0.549139 0
M  V30 3391 H 308.783 -2.59603 2.58847 0
M  V30 3392 H 308.431 -4.80839 1.47657 0
M  V30 3393 H 308.131 -4.9088 3.22972 0
M  V30 3394 H 309.655 -5.54775 2.55063 0
M  V30 3395 H 311.069 -3.94483 4.16 0
M  V30 3396 H 309.466 -3.54445 4.8424 0
M  V30 3397 H 310.536 -2.23855 4.30136 0
M  V30 3398 N 311.879 -1.3236 -0.855495 0
M  V30 3399 C 312.827 -1.2118 -1.9854 0
M  V30 3400 C 313.821 -0.116788 -1.68997 0
M  V30 3401 O 315.027 -0.279657 -1.77814 0
M  V30 3402 H 311.402 -0.375608 -0.651477 0
M  V30 3403 H 313.373 -2.16743 -2.05098 0
M  V30 3404 C 312.122 -0.950849 -3.34446 0
M  V30 3405 H 311.445 -1.78563 -3.57708 0
M  V30 3406 H 312.885 -0.912863 -4.14057 0
M  V30 3407 C 311.344 0.346404 -3.35114 0
M  V30 3408 O 311.874 1.35855 -3.7803 0
M  V30 3409 N 310.08 0.36808 -2.88259 0
M  V30 3410 H 309.627 -0.456102 -2.5353 0
M  V30 3411 H 309.585 1.23591 -2.89089 0
M  V30 3412 N 313.357 1.07166 -1.15556 0
M  V30 3413 C 314.305 2.16517 -0.8499 0
M  V30 3414 C 315.299 1.68468 0.177454 0
M  V30 3415 O 316.505 1.79971 0.0323026 0
M  V30 3416 H 312.88 0.706652 -0.25719 0
M  V30 3417 H 314.851 2.39514 -1.77976 0
M  V30 3418 C 313.6 3.45855 -0.357682 0
M  V30 3419 H 312.923 3.83214 -1.13961 0
M  V30 3420 H 314.363 4.23607 -0.182489 0
M  V30 3421 C 312.822 3.24062 0.921152 0
M  V30 3422 O 313.352 3.48813 1.9923 0
M  V30 3423 N 311.558 2.77539 0.86141 0
M  V30 3424 H 311.105 2.57598 -0.0104408 0
M  V30 3425 H 311.063 2.63337 1.71758 0
M  V30 3426 N 314.835 0.952656 1.25548 0
M  V30 3427 C 316.06 0.623025 1.97821 0
M  V30 3428 C 316.485 -0.7976 1.70352 0
M  V30 3429 O 315.843 -1.53905 0.958283 0
M  V30 3430 C 315.891 0.885532 3.49558 0
M  V30 3431 O 314.995 -0.0366641 4.12384 0
M  V30 3432 H 314.336 0.237082 0.620232 0
M  V30 3433 H 316.866 1.27871 1.59719 0
M  V30 3434 H 316.876 0.811009 3.99858 0
M  V30 3435 H 315.551 1.92094 3.6888 0
M  V30 3436 H 314.128 0.0898954 3.72792 0
M  V30 3437 N 316.313 -1.40141 0.720998 0
M  V30 3438 C 317.59 -1.94677 0.189757 0
M  V30 3439 C 317.97 -1.65879 -1.30566 0
M  V30 3440 O 317.318 -0.979391 -2.06447 0
M  V30 3441 C 317.528 -3.45279 0.508304 0
M  V30 3442 C 318.876 -4.22209 0.449934 0
M  V30 3443 O 319.9 -3.53413 0.444677 0
M  V30 3444 O 318.759 -5.44788 0.432189 0
M  V30 3445 H 315.853 -0.826459 0.0299026 0
M  V30 3446 H 318.399 -1.49719 0.7989 0
M  V30 3447 H 317.171 -3.59619 1.54239 0
M  V30 3448 H 316.794 -3.97386 -0.130525 0
M  V30 3449 N 317.792 -0.46758 -1.50504 0
M  V30 3450 C 319.017 0.0886943 -2.0721 0
M  V30 3451 C 319.442 1.33057 -1.32956 0
M  V30 3452 O 318.8 1.77354 -0.376197 0
M  V30 3453 C 318.848 0.359202 -3.58806 0
M  V30 3454 O 317.952 1.44034 -3.8643 0
M  V30 3455 H 317.293 -0.0114349 -0.663902 0
M  V30 3456 H 319.823 -0.657613 -1.93744 0
M  V30 3457 H 319.833 0.600742 -4.03553 0
M  V30 3458 H 318.508 -0.548311 -4.1227 0
M  V30 3459 H 317.085 1.18638 -3.53524 0
M  V30 3460 N 319.27 1.56325 -0.20005 0
M  V30 3461 C 320.518 1.97329 0.436547 0
M  V30 3462 C 320.839 1.08826 1.61808 0
M  V30 3463 O 320.109 0.160604 1.95241 0
M  V30 3464 H 318.689 0.728714 0.164272 0
M  V30 3465 H 321.351 1.92761 -0.287937 0
M  V30 3466 H 320.447 3.02264 0.777353 0
M  V30 3467 N 320.748 -0.0735177 1.57428 0
M  V30 3468 C 321.678 -1.0879 2.06608 0
M  V30 3469 C 322.659 -1.40473 0.959237 0
M  V30 3470 O 323.844 -1.5013 1.23185 0
M  V30 3471 C 320.974 -2.40183 2.50857 0
M  V30 3472 C 319.928 -2.22858 3.65402 0
M  V30 3473 C 319.254 -3.59619 3.957 0
M  V30 3474 C 320.554 -1.65123 4.95511 0
M  V30 3475 H 322.248 -0.678673 2.91607 0
M  V30 3476 H 319.794 -0.325013 1.40284 0
M  V30 3477 H 321.747 -3.11437 2.83874 0
M  V30 3478 H 320.471 -2.83083 1.62885 0
M  V30 3479 H 319.13 -1.54045 3.32664 0
M  V30 3480 H 318.778 -4.00086 3.04861 0
M  V30 3481 H 318.478 -3.48866 4.72828 0
M  V30 3482 H 320.002 -4.32306 4.31212 0
M  V30 3483 H 321.416 -2.26241 5.26771 0
M  V30 3484 H 319.813 -1.65071 5.7695 0
M  V30 3485 H 320.883 -0.612559 4.81015 0
M  V30 3486 N 322.226 -1.5378 -0.344866 0
M  V30 3487 C 323.473 -1.70963 -1.08526 0
M  V30 3488 C 323.801 -0.472126 -1.88683 0
M  V30 3489 O 323.056 0.546116 -1.87926 0
M  V30 3490 C 323.355 -2.92407 -2.05506 0
M  V30 3491 C 323.021 -4.28066 -1.41671 0
M  V30 3492 C 321.683 -4.64951 -1.2399 0
M  V30 3493 C 324.035 -5.12344 -0.956726 0
M  V30 3494 C 321.363 -5.83733 -0.589277 0
M  V30 3495 C 323.715 -6.3179 -0.320015 0
M  V30 3496 C 322.379 -6.67372 -0.130881 0
M  V30 3497 H 321.649 -0.625598 -0.397124 0
M  V30 3498 H 324.296 -1.87995 -0.36469 0
M  V30 3499 H 322.601 -2.69973 -2.8394 0
M  V30 3500 H 324.298 -3.02895 -2.62784 0
M  V30 3501 H 320.888 -3.99034 -1.56429 0
M  V30 3502 H 325.072 -4.8438 -1.08118 0
M  V30 3503 H 320.328 -6.09877 -0.431344 0
M  V30 3504 H 324.502 -6.96386 0.0445072 0
M  V30 3505 H 322.129 -7.59273 0.375318 0
M  V30 3506 N 323.704 0.605807 -1.45491 0
M  V30 3507 C 324.932 1.39136 -1.5313 0
M  V30 3508 C 325.347 1.88082 -0.164507 0
M  V30 3509 O 324.704 1.62316 0.834247 0
M  V30 3510 C 324.755 2.59463 -2.51716 0
M  V30 3511 O 324.476 2.12551 -3.83084 0
M  V30 3512 C 325.977 3.52301 -2.6907 0
M  V30 3513 H 323.197 0.425849 -0.51855 0
M  V30 3514 H 325.741 0.73865 -1.90694 0
M  V30 3515 H 323.896 3.20772 -2.17219 0
M  V30 3516 H 324.31 2.90744 -4.36541 0
M  V30 3517 H 325.784 4.33271 -3.42024 0
M  V30 3518 H 326.261 4.02757 -1.75167 0
M  V30 3519 H 326.867 2.96845 -3.04571 0
M  V30 3520 N 325.182 1.32811 0.848464 0
M  V30 3521 C 326.428 1.23907 1.60546 0
M  V30 3522 C 326.761 -0.197161 1.93197 0
M  V30 3523 O 326.036 -1.13596 1.5788 0
M  V30 3524 C 326.319 2.10489 2.92175 0
M  V30 3525 C 326.172 3.62522 2.66266 0
M  V30 3526 C 327.491 1.97075 3.93509 0
M  V30 3527 H 324.61 0.451459 0.58254 0
M  V30 3528 H 327.252 1.62818 0.979296 0
M  V30 3529 H 325.402 1.77434 3.45614 0
M  V30 3530 H 327.074 4.05821 2.19334 0
M  V30 3531 H 325.317 3.84879 2.00126 0
M  V30 3532 H 325.988 4.18437 3.6002 0
M  V30 3533 H 328.464 2.26045 3.49346 0
M  V30 3534 H 327.34 2.59923 4.83457 0
M  V30 3535 H 327.601 0.940186 4.31987 0
M  V30 3536 N 326.66 -1.06551 1.16123 0
M  V30 3537 C 327.907 -1.79302 0.941126 0
M  V30 3538 C 328.235 -1.87105 -0.531235 0
M  V30 3539 O 327.49 -1.35692 -1.41018 0
M  V30 3540 C 327.789 -3.23911 1.51052 0
M  V30 3541 C 327.455 -3.36193 3.00475 0
M  V30 3542 C 326.117 -3.39252 3.41265 0
M  V30 3543 C 328.469 -3.38326 3.96465 0
M  V30 3544 C 325.797 -3.42057 4.76669 0
M  V30 3545 C 328.149 -3.4267 5.31752 0
M  V30 3546 C 326.813 -3.4401 5.72026 0
M  V30 3547 H 326.083 -0.656111 0.344382 0
M  V30 3548 H 328.73 -1.25325 1.44796 0
M  V30 3549 H 327.035 -3.80723 0.925063 0
M  V30 3550 H 328.732 -3.78793 1.31593 0
M  V30 3551 H 325.322 -3.34516 2.6795 0
M  V30 3552 H 329.506 -3.35176 3.6602 0
M  V30 3553 H 324.762 -3.41398 5.07206 0
M  V30 3554 H 328.936 -3.43268 6.05921 0
M  V30 3555 H 326.563 -3.45937 6.76928 0
M  V30 3556 N 328.138 -0.959301 -1.25041 0
M  V30 3557 C 329.366 -0.633949 -1.96948 0
M  V30 3558 C 329.781 0.794916 -1.7125 0
M  V30 3559 O 329.138 1.53231 -0.991287 0
M  V30 3560 C 329.189 -0.888805 -3.50403 0
M  V30 3561 O 328.91 -2.26149 -3.75218 0
M  V30 3562 C 330.411 -0.576482 -4.39536 0
M  V30 3563 H 327.631 -0.237263 -0.627652 0
M  V30 3564 H 330.175 -1.28495 -1.59089 0
M  V30 3565 H 328.33 -0.284145 -3.86357 0
M  V30 3566 H 328.744 -2.33514 -4.6965 0
M  V30 3567 H 330.218 -0.805314 -5.46094 0
M  V30 3568 H 330.695 0.489075 -4.36468 0
M  V30 3569 H 331.301 -1.16067 -4.09156 0
M  V30 3570 N 329.616 1.39756 -0.72842 0
M  V30 3571 C 330.864 2.00248 -0.272946 0
M  V30 3572 C 331.185 1.58077 1.14178 0
M  V30 3573 O 330.455 0.826014 1.77634 0
M  V30 3574 H 329.035 0.740554 -0.0979247 0
M  V30 3575 H 331.697 1.70903 -0.936912 0
M  V30 3576 H 330.793 3.10495 -0.316142 0
M  V30 3577 N 331.094 0.475555 1.50254 0
M  V30 3578 C 332.34 -0.0780073 2.0265 0
M  V30 3579 C 332.673 -1.38968 1.35652 0
M  V30 3580 O 331.948 -1.8839 0.483691 0
M  V30 3581 C 332.231 -0.257161 3.59181 0
M  V30 3582 C 332.084 1.07585 4.36744 0
M  V30 3583 C 333.403 -1.00965 4.28362 0
M  V30 3584 H 330.522 -0.0268758 0.73651 0
M  V30 3585 H 333.164 0.622015 1.7953 0
M  V30 3586 H 331.314 -0.853412 3.79011 0
M  V30 3587 H 332.986 1.70902 4.28474 0
M  V30 3588 H 331.229 1.6714 4.00308 0
M  V30 3589 H 331.9 0.904088 5.44546 0
M  V30 3590 H 334.376 -0.504214 4.13034 0
M  V30 3591 H 333.252 -1.10381 5.37687 0
M  V30 3592 H 333.513 -2.04731 3.91839 0
M  V30 3593 N 332.573 -1.56217 0.208337 0
M  V30 3594 C 333.505 -2.1695 -0.739276 0
M  V30 3595 C 334.518 -1.13492 -1.1672 0
M  V30 3596 O 335.707 -1.40529 -1.10063 0
M  V30 3597 C 332.807 -2.72755 -2.01142 0
M  V30 3598 C 331.98 -4.0125 -1.74118 0
M  V30 3599 C 331.039 -4.41749 -2.85909 0
M  V30 3600 O 330.065 -5.08912 -2.54946 0
M  V30 3601 N 331.267 -4.06342 -4.14568 0
M  V30 3602 H 334.032 -2.98893 -0.219837 0
M  V30 3603 H 331.593 -1.61878 0.0268445 0
M  V30 3604 H 333.585 -2.96826 -2.75094 0
M  V30 3605 H 332.155 -1.95191 -2.4417 0
M  V30 3606 H 331.375 -3.85173 -0.838775 0
M  V30 3607 H 332.663 -4.851 -1.53477 0
M  V30 3608 H 332.061 -3.52345 -4.42571 0
M  V30 3609 H 330.618 -4.35335 -4.85105 0
M  V30 3610 N 334.051 0.0651679 -1.57465 0
M  V30 3611 C 334.999 1.09542 -2.05191 0
M  V30 3612 C 335.993 1.39675 -0.958509 0
M  V30 3613 O 337.199 1.39003 -1.14359 0
M  V30 3614 H 333.574 0.370623 -0.654326 0
M  V30 3615 H 335.545 0.666802 -2.90854 0
M  V30 3616 C 334.294 2.39881 -2.51699 0
M  V30 3617 H 333.617 2.17547 -3.3543 0
M  V30 3618 H 335.057 3.104 -2.88839 0
M  V30 3619 C 333.516 3.0631 -1.40271 0
M  V30 3620 O 334.046 3.94664 -0.748523 0
M  V30 3621 N 332.252 2.67041 -1.14618 0
M  V30 3622 H 331.799 1.95281 -1.67997 0
M  V30 3623 H 331.757 3.1181 -0.402688 0
M  V30 3624 N 335.529 1.53961 0.336706 0
M  V30 3625 C 336.778 1.70751 1.07363 0
M  V30 3626 C 337.091 0.481061 1.89592 0
M  V30 3627 O 338.297 0.530046 2.66276 0
M  V30 3628 C 336.753 3.01965 1.95818 0
M  V30 3629 C 336.361 4.31971 1.18764 0
M  V30 3630 C 338.105 3.28121 2.69327 0
M  V30 3631 C 336.012 5.54255 2.06289 0
M  V30 3632 H 334.942 0.636292 0.404535 0
M  V30 3633 H 337.593 1.80459 0.332681 0
M  V30 3634 H 335.975 2.86132 2.7376 0
M  V30 3635 H 337.149 4.5853 0.456849 0
M  V30 3636 H 335.464 4.12481 0.569946 0
M  V30 3637 H 338.061 4.16673 3.35094 0
M  V30 3638 H 338.404 2.45426 3.36261 0
M  V30 3639 H 338.937 3.44762 1.98454 0
M  V30 3640 H 335.676 6.39513 1.43885 0
M  V30 3641 H 335.196 5.31935 2.77138 0
M  V30 3642 H 336.875 5.90159 2.65182 0
M  V30 3643 N 337.007 -0.598083 1.45811 0
M  V30 3644 C 338.232 -1.3881 1.54099 0
M  V30 3645 C 338.657 -1.8726 0.177578 0
M  V30 3646 O 338.015 -1.6069 -0.839541 0
M  V30 3647 C 338.063 -2.56217 2.53743 0
M  V30 3648 O 337.167 -3.5716 2.06182 0
M  V30 3649 H 336.508 -0.414024 0.519115 0
M  V30 3650 H 339.038 -0.726971 1.91249 0
M  V30 3651 H 339.048 -3.03337 2.72856 0
M  V30 3652 H 337.723 -2.20303 3.5276 0
M  V30 3653 H 336.3 -3.16624 1.96987 0
M  V30 3654 N 338.485 -1.33259 -0.841409 0
M  V30 3655 C 339.901 -1.12538 -1.13169 0
M  V30 3656 C 340.101 0.0854037 -2.01319 0
M  V30 3657 O 339.157 0.766417 -2.40587 0
M  V30 3658 C 340.47 -2.41156 -1.79623 0
M  V30 3659 C 342.018 -2.47038 -1.922 0
M  V30 3660 C 342.493 -3.7561 -2.6207 0
M  V30 3661 N 343.984 -3.76667 -2.69585 0
M  V30 3662 C 344.719 -4.72861 -3.2433 0
M  V30 3663 N 344.215 -5.79428 -3.79783 0
M  V30 3664 N 346.008 -4.6034 -3.22558 0
M  V30 3665 H 338.159 -2.10868 -0.254676 0
M  V30 3666 H 340.422 -0.931615 -0.175493 0
M  V30 3667 H 340.128 -3.29747 -1.22311 0
M  V30 3668 H 340.002 -2.53114 -2.79666 0
M  V30 3669 H 342.389 -1.58898 -2.48667 0
M  V30 3670 H 342.47 -2.39022 -0.911148 0
M  V30 3671 H 342.114 -4.64131 -2.06263 0
M  V30 3672 H 342.044 -3.80902 -3.63622 0
M  V30 3673 H 344.535 -2.99648 -2.30259 0
M  V30 3674 H 344.848 -6.48867 -4.19752 0
M  V30 3675 H 343.193 -5.83166 -3.78078 0
M  V30 3676 H 346.384 -3.76244 -2.78492 0
M  V30 3677 H 346.557 -5.35478 -3.64921 0
M  V30 3678 N 339.963 1.05934 -1.16686 0
M  V30 3679 C 341.212 1.78188 -0.945085 0
M  V30 3680 C 341.525 1.88338 0.528021 0
M  V30 3681 O 342.731 2.57258 0.867799 0
M  V30 3682 C 341.187 3.20277 -1.64167 0
M  V30 3683 C 340.795 3.18281 -3.15279 0
M  V30 3684 C 342.539 3.97039 -1.502 0
M  V30 3685 C 340.446 4.55112 -3.7766 0
M  V30 3686 H 339.376 0.667866 -0.349959 0
M  V30 3687 H 342.027 1.18794 -1.39858 0
M  V30 3688 H 340.409 3.79952 -1.11589 0
M  V30 3689 H 341.583 2.68167 -3.74731 0
M  V30 3690 H 339.898 2.55018 -3.29173 0
M  V30 3691 H 342.495 4.98194 -1.94183 0
M  V30 3692 H 342.838 4.13845 -0.451461 0
M  V30 3693 H 343.371 3.43894 -1.99954 0
M  V30 3694 H 340.11 4.43512 -4.82677 0
M  V30 3695 H 339.63 5.05406 -3.22994 0
M  V30 3696 H 341.309 5.24064 -3.79428 0
M  V30 3697 N 341.441 0.965919 1.2453 0
M  V30 3698 C 342.391 0.465731 2.23193 0
M  V30 3699 C 343.375 -0.451277 1.54442 0
M  V30 3700 O 344.567 -0.282489 1.74731 0
M  V30 3701 C 341.696 -0.244511 3.42428 0
M  V30 3702 C 340.782 0.691222 4.18429 0
M  V30 3703 N 341.173 1.82771 4.71623 0
M  V30 3704 C 339.471 0.501649 4.4317 0
M  V30 3705 C 340.172 2.41285 5.29298 0
M  V30 3706 N 339.148 1.69819 5.16394 0
M  V30 3707 H 342.95 1.33291 2.61937 0
M  V30 3708 H 340.464 0.824789 1.39896 0
M  V30 3709 H 342.461 -0.620056 4.12263 0
M  V30 3710 H 341.121 -1.10815 3.05205 0
M  V30 3711 H 342.132 2.20929 4.68413 0
M  V30 3712 H 338.809 -0.318177 4.16286 0
M  V30 3713 H 340.199 3.37181 5.8117 0
M  V30 3714 N 342.919 -1.39368 0.735821 0
M  V30 3715 C 343.849 -2.33234 0.111506 0
M  V30 3716 C 344.83 -1.53954 -0.723334 0
M  V30 3717 O 346.015 -1.82344 -0.668147 0
M  V30 3718 C 343.145 -3.38057 -0.795917 0
M  V30 3719 C 342.099 -4.2795 -0.065172 0
M  V30 3720 C 341.425 -5.23479 -1.08967 0
M  V30 3721 C 342.725 -5.10741 1.09273 0
M  V30 3722 H 344.419 -2.85692 0.895571 0
M  V30 3723 H 341.965 -1.37364 0.432109 0
M  V30 3724 H 343.918 -4.02675 -1.24221 0
M  V30 3725 H 342.642 -2.8404 -1.61211 0
M  V30 3726 H 341.301 -3.64813 0.361511 0
M  V30 3727 H 340.949 -4.65758 -1.89944 0
M  V30 3728 H 340.649 -5.84472 -0.605489 0
M  V30 3729 H 342.173 -5.90974 -1.53565 0
M  V30 3730 H 343.587 -5.68699 0.724841 0
M  V30 3731 H 341.984 -5.8088 1.50659 0
M  V30 3732 H 343.054 -4.45525 1.91404 0
M  V30 3733 N 344.397 -0.483516 -1.5 0
M  V30 3734 C 345.643 0.0672592 -2.02688 0
M  V30 3735 C 345.976 1.38247 -1.36387 0
M  V30 3736 O 345.251 1.88131 -0.493675 0
M  V30 3737 C 345.534 0.238109 -3.59312 0
M  V30 3738 C 345.387 -1.099 -4.36168 0
M  V30 3739 C 346.706 0.986916 -4.28892 0
M  V30 3740 H 343.825 0.0229696 -0.736642 0
M  V30 3741 H 346.467 -0.631527 -1.79197 0
M  V30 3742 H 344.617 0.8333 -3.79458 0
M  V30 3743 H 346.289 -1.73172 -4.27562 0
M  V30 3744 H 344.532 -1.69261 -3.99416 0
M  V30 3745 H 345.203 -0.932954 -5.44059 0
M  V30 3746 H 347.679 0.482302 -4.13295 0
M  V30 3747 H 346.555 1.07527 -5.38265 0
M  V30 3748 H 346.816 2.0265 -3.92919 0
M  V30 3749 N 345.875 1.56104 -0.216619 0
M  V30 3750 C 347.152 1.89988 0.465165 0
M  V30 3751 C 347.532 1.13326 1.78102 0
M  V30 3752 O 346.88 0.241033 2.27225 0
M  V30 3753 C 347.09 3.42646 0.662939 0
M  V30 3754 C 348.438 4.13311 0.972602 0
M  V30 3755 O 349.462 3.48217 0.749901 0
M  V30 3756 O 348.321 5.28396 1.39499 0
M  V30 3757 H 345.415 0.78979 0.245276 0
M  V30 3758 H 347.961 1.67721 -0.258436 0
M  V30 3759 H 346.733 3.90399 -0.26543 0
M  V30 3760 H 346.356 3.70677 1.43821 0
M  V30 3761 N 347.353 -0.0568162 1.57498 0
M  V30 3762 C 348.3 -1.06591 2.04712 0
M  V30 3763 C 349.27 -1.3758 0.930644 0
M  V30 3764 O 350.455 -1.48392 1.19935 0
M  V30 3765 C 347.595 -2.3701 2.50839 0
M  V30 3766 C 346.708 -2.12421 3.76167 0
M  V30 3767 C 345.843 -3.36511 4.11015 0
M  V30 3768 C 344.882 -3.07353 5.2934 0
M  V30 3769 N 344.019 -4.23816 5.59754 0
M  V30 3770 H 348.859 -0.65631 2.90683 0
M  V30 3771 H 346.396 -0.312481 1.43743 0
M  V30 3772 H 348.354 -3.13175 2.7564 0
M  V30 3773 H 346.984 -2.75744 1.67825 0
M  V30 3774 H 346.036 -1.2688 3.58616 0
M  V30 3775 H 347.348 -1.86894 4.62463 0
M  V30 3776 H 346.502 -4.21062 4.36797 0
M  V30 3777 H 345.241 -3.65128 3.23315 0
M  V30 3778 H 344.246 -2.212 5.03339 0
M  V30 3779 H 345.471 -2.80043 6.1867 0
M  V30 3780 H 343.417 -4.52436 4.75014 0
M  V30 3781 H 343.334 -4.01614 6.40501 0
M  V30 3782 H 344.602 -5.0932 5.90096 0
M  V30 3783 N 348.832 -1.54138 -0.328536 0
M  V30 3784 C 350.078 -1.73297 -1.06488 0
M  V30 3785 C 350.433 -0.497958 -1.85844 0
M  V30 3786 O 349.726 0.509591 -1.84699 0
M  V30 3787 C 349.92 -2.9457 -2.02393 0
M  V30 3788 C 349.749 -4.29747 -1.32467 0
M  V30 3789 C 348.519 -4.93987 -1.06324 0
M  V30 3790 C 350.717 -5.08903 -0.743137 0
M  V30 3791 N 348.699 -6.13005 -0.331359 0
M  V30 3792 C 350.07 -6.19836 -0.142602 0
M  V30 3793 C 352.125 -4.93699 -0.64546 0
M  V30 3794 C 350.828 -7.17224 0.546125 0
M  V30 3795 C 352.854 -5.91393 0.0295558 0
M  V30 3796 C 352.216 -7.01674 0.619056 0
M  V30 3797 H 348.315 -0.687017 -0.373539 0
M  V30 3798 H 350.899 -1.91589 -0.346659 0
M  V30 3799 H 349.07 -2.77752 -2.71493 0
M  V30 3800 H 350.802 -3.0238 -2.68977 0
M  V30 3801 H 347.557 -4.53824 -1.35428 0
M  V30 3802 H 347.981 -6.76997 0.0202939 0
M  V30 3803 H 352.623 -4.08589 -1.08695 0
M  V30 3804 H 350.341 -8.01896 0.999459 0
M  V30 3805 H 353.927 -5.81706 0.104705 0
M  V30 3806 H 352.807 -7.75971 1.13309 0
M  V30 3807 N 350.31 0.590341 -1.46126 0
M  V30 3808 C 351.258 1.72105 -1.5647 0
M  V30 3809 C 352.252 1.63756 -0.433612 0
M  V30 3810 O 353.458 1.69342 -0.610194 0
M  V30 3811 H 349.833 0.568889 -0.491802 0
M  V30 3812 H 351.804 1.6051 -2.51553 0
M  V30 3813 C 350.553 3.10493 -1.56491 0
M  V30 3814 H 349.876 3.17583 -2.4286 0
M  V30 3815 H 351.316 3.8939 -1.67785 0
M  V30 3816 C 349.775 3.3563 -0.292231 0
M  V30 3817 O 350.305 3.96875 0.620739 0
M  V30 3818 N 348.511 2.90026 -0.182523 0
M  V30 3819 H 348.058 2.40367 -0.926356 0
M  V30 3820 H 348.016 3.07218 0.668152 0
M  V30 3821 N 351.788 1.33704 0.83433 0
M  V30 3822 C 353.036 1.25169 1.58673 0
M  V30 3823 C 353.357 -0.18127 1.94156 0
M  V30 3824 O 352.627 -1.11113 1.6134 0
M  V30 3825 H 351.207 0.4603 0.58833 0
M  V30 3826 H 353.869 1.67478 0.996847 0
M  V30 3827 H 352.965 1.84856 2.51465 0
M  V30 3828 N 353.266 -1.05314 1.17247 0
M  V30 3829 C 354.196 -2.1498 0.911362 0
M  V30 3830 C 355.177 -1.69471 -0.146169 0
M  V30 3831 O 356.362 -1.942 0.003812 0
M  V30 3832 C 353.492 -3.4472 0.422528 0
M  V30 3833 C 352.446 -4.03789 1.4191 0
M  V30 3834 C 351.772 -5.28858 0.788274 0
M  V30 3835 C 353.072 -4.41418 2.7919 0
M  V30 3836 H 354.766 -2.3708 1.82848 0
M  V30 3837 H 352.312 -1.13938 0.880569 0
M  V30 3838 H 354.265 -4.20787 0.227289 0
M  V30 3839 H 352.989 -3.22269 -0.530123 0
M  V30 3840 H 351.648 -3.2979 1.60106 0
M  V30 3841 H 351.296 -5.02709 -0.171173 0
M  V30 3842 H 350.996 -5.69338 1.45353 0
M  V30 3843 H 352.52 -6.07612 0.603282 0
M  V30 3844 H 353.934 -5.08524 2.64719 0
M  V30 3845 H 352.331 -4.92913 3.42282 0
M  V30 3846 H 353.401 -3.51819 3.33693 0
M  V30 3847 N 354.744 -0.972509 -1.24016 0
M  V30 3848 C 355.969 -0.654417 -1.96805 0
M  V30 3849 C 356.394 0.770398 -1.716 0
M  V30 3850 O 355.752 1.52361 -0.982647 0
M  V30 3851 C 355.8 -0.941031 -3.48105 0
M  V30 3852 O 354.904 -0.0289472 -4.1239 0
M  V30 3853 H 354.245 -0.24692 -0.616382 0
M  V30 3854 H 356.775 -1.30396 -1.57664 0
M  V30 3855 H 356.785 -0.87452 -3.98517 0
M  V30 3856 H 355.46 -1.97939 -3.65777 0
M  V30 3857 H 354.037 -0.149192 -3.72601 0
M  V30 3858 N 356.222 1.38976 -0.743202 0
M  V30 3859 C 357.169 2.30544 -0.10861 0
M  V30 3860 C 358.139 1.49642 0.720869 0
M  V30 3861 O 359.324 1.78304 0.679142 0
M  V30 3862 C 356.464 3.36018 0.786496 0
M  V30 3863 C 355.577 4.31963 -0.0564849 0
M  V30 3864 C 354.712 5.24506 0.840657 0
M  V30 3865 C 353.751 6.121 -0.00658363 0
M  V30 3866 N 352.888 6.96973 0.846943 0
M  V30 3867 H 357.728 2.8424 -0.895088 0
M  V30 3868 H 355.265 1.3995 -0.453048 0
M  V30 3869 H 357.223 3.95768 1.31999 0
M  V30 3870 H 355.853 2.83758 1.53887 0
M  V30 3871 H 354.905 3.73763 -0.707492 0
M  V30 3872 H 356.217 4.93703 -0.711229 0
M  V30 3873 H 355.371 5.89322 1.4417 0
M  V30 3874 H 354.11 4.63107 1.52916 0
M  V30 3875 H 353.115 5.46289 -0.620366 0
M  V30 3876 H 354.34 6.75565 -0.691992 0
M  V30 3877 H 352.286 6.38133 1.52059 0
M  V30 3878 H 352.203 7.5559 0.248864 0
M  V30 3879 H 353.471 7.6621 1.43328 0
M  V30 3880 N 357.7 0.491464 1.49741 0
M  V30 3881 C 358.946 -0.0565092 2.02721 0
M  V30 3882 C 359.279 -1.37522 1.37118 0
M  V30 3883 O 358.554 -1.87866 0.503645 0
M  V30 3884 C 358.837 -0.219051 3.59433 0
M  V30 3885 C 358.69 1.12211 4.35579 0
M  V30 3886 C 360.009 -0.964157 4.29409 0
M  V30 3887 H 357.128 -0.0190627 0.736753 0
M  V30 3888 H 359.77 0.641021 1.7886 0
M  V30 3889 H 357.92 -0.813165 3.79895 0
M  V30 3890 H 359.592 1.75437 4.26637 0
M  V30 3891 H 357.835 1.71377 3.98513 0
M  V30 3892 H 358.506 0.961794 5.43556 0
M  V30 3893 H 360.982 -0.460378 4.13545 0
M  V30 3894 H 359.858 -1.04671 5.38828 0
M  V30 3895 H 360.119 -2.00563 3.93988 0
M  V30 3896 N 359.178 -1.55987 0.224894 0
M  V30 3897 C 360.455 -1.90232 -0.455083 0
M  V30 3898 C 360.835 -1.14269 -1.77499 0
M  V30 3899 O 360.183 -0.253079 -2.27094 0
M  V30 3900 C 360.393 -3.42993 -0.644758 0
M  V30 3901 C 361.741 -4.13821 -0.950669 0
M  V30 3902 O 362.765 -3.4861 -0.731423 0
M  V30 3903 O 361.624 -5.29128 -1.36695 0
M  V30 3904 H 358.718 -0.79108 -0.241084 0
M  V30 3905 H 361.264 -1.67581 0.267327 0
M  V30 3906 H 360.036 -3.90252 0.28613 0
M  V30 3907 H 359.659 -3.71434 -1.41853 0
M  V30 3908 N 360.656 0.0484629 -1.57525 0
M  V30 3909 C 361.903 0.743125 -1.88372 0
M  V30 3910 C 362.231 1.76383 -0.819715 0
M  V30 3911 O 361.486 1.94855 0.181659 0
M  V30 3912 C 361.785 1.46632 -3.25935 0
M  V30 3913 C 361.451 0.583427 -4.4711 0
M  V30 3914 C 360.113 0.340191 -4.79996 0
M  V30 3915 C 362.465 -0.0273345 -5.21193 0
M  V30 3916 C 359.793 -0.522903 -5.84365 0
M  V30 3917 C 362.145 -0.878017 -6.26477 0
M  V30 3918 C 360.809 -1.1309 -6.5785 0
M  V30 3919 H 360.079 0.271929 -0.689301 0
M  V30 3920 H 362.726 0.00336166 -1.915 0
M  V30 3921 H 361.031 2.2789 -3.18706 0
M  V30 3922 H 362.728 2.00902 -3.47044 0
M  V30 3923 H 359.318 0.783151 -4.21384 0
M  V30 3924 H 363.502 0.147654 -4.9608 0
M  V30 3925 H 358.758 -0.727335 -6.07058 0
M  V30 3926 H 362.932 -1.35789 -6.83033 0
M  V30 3927 H 360.559 -1.80144 -7.38547 0
M  V30 3928 N 362.134 1.5431 0.320358 0
M  V30 3929 C 363.38 1.73859 1.05568 0
M  V30 3930 C 363.735 0.507807 1.85578 0
M  V30 3931 O 363.028 -0.499789 1.84967 0
M  V30 3932 C 363.222 2.95639 2.00828 0
M  V30 3933 C 363.051 4.30444 1.30186 0
M  V30 3934 C 361.821 4.94544 1.03703 0
M  V30 3935 C 364.019 5.0929 0.716138 0
M  V30 3936 N 362.001 6.13172 0.298846 0
M  V30 3937 C 363.372 6.19903 0.109729 0
M  V30 3938 C 365.427 4.94034 0.619269 0
M  V30 3939 C 364.13 7.16924 -0.584153 0
M  V30 3940 C 366.156 5.91369 -0.0609184 0
M  V30 3941 C 365.518 7.01336 -0.656258 0
M  V30 3942 H 361.617 0.688988 0.36989 0
M  V30 3943 H 364.201 1.9177 0.336494 0
M  V30 3944 H 362.372 2.79188 2.70016 0
M  V30 3945 H 364.104 3.03802 2.6737 0
M  V30 3946 H 360.859 4.54536 1.33019 0
M  V30 3947 H 361.283 6.76977 -0.0561964 0
M  V30 3948 H 365.925 4.0916 1.06526 0
M  V30 3949 H 363.643 8.01354 -1.04197 0
M  V30 3950 H 367.229 5.81642 -0.135552 0
M  V30 3951 H 366.109 7.75359 -1.17423 0
M  V30 3952 N 363.613 -0.582584 1.46437 0
M  V30 3953 C 364.563 -1.68654 1.53426 0
M  V30 3954 C 365.547 -1.55971 0.395194 0
M  V30 3955 O 366.739 -1.64884 0.643612 0
M  V30 3956 C 363.868 -3.07439 1.52762 0
M  V30 3957 C 362.954 -3.25418 2.71963 0
M  V30 3958 N 363.345 -3.13556 3.96883 0
M  V30 3959 C 361.643 -3.56357 2.68189 0
M  V30 3960 C 362.344 -3.33543 4.76575 0
M  V30 3961 N 361.32 -3.58704 4.08451 0
M  V30 3962 H 365.122 -1.58014 2.47808 0
M  V30 3963 H 362.636 -0.786617 1.42078 0
M  V30 3964 H 364.633 -3.86671 1.55857 0
M  V30 3965 H 363.293 -3.1921 0.594573 0
M  V30 3966 H 364.304 -2.9142 4.28129 0
M  V30 3967 H 360.981 -3.74812 1.83908 0
M  V30 3968 H 362.371 -3.29555 5.85528 0
M  V30 3969 N 365.091 -1.34144 -0.827227 0
M  V30 3970 C 366.316 -1.29476 -1.62021 0
M  V30 3971 C 366.741 0.129292 -1.87655 0
M  V30 3972 O 366.099 1.08967 -1.449 0
M  V30 3973 C 366.147 -2.08702 -2.94068 0
M  V30 3974 O 365.251 -1.45359 -3.85933 0
M  V30 3975 H 364.592 -0.444881 -0.492927 0
M  V30 3976 H 367.122 -1.76882 -1.02829 0
M  V30 3977 H 367.132 -2.19898 -3.43669 0
M  V30 3978 H 365.807 -3.12241 -2.74734 0
M  V30 3979 H 364.384 -1.42879 -3.44442 0
M  V30 3980 N 366.569 1.04691 -1.17803 0
M  V30 3981 C 367.846 1.7472 -0.879328 0
M  V30 3982 C 368.226 2.01812 0.619271 0
M  V30 3983 O 367.574 1.65824 1.57209 0
M  V30 3984 C 367.784 3.03686 -1.71976 0
M  V30 3985 C 369.132 3.77542 -1.94286 0
M  V30 3986 O 370.156 3.13569 -1.68976 0
M  V30 3987 O 369.015 4.92506 -2.36855 0
M  V30 3988 H 366.109 0.760011 -0.326056 0
M  V30 3989 H 368.655 1.10813 -1.28525 0
M  V30 3990 H 367.427 2.79754 -2.73594 0
M  V30 3991 H 367.05 3.75332 -1.31194 0
M  V30 3992 N 368.047 0.979072 1.23499 0
M  V30 3993 C 368.979 0.476271 2.24197 0
M  V30 3994 C 369.992 -0.421166 1.57258 0
M  V30 3995 O 371.181 -0.225515 1.7707 0
M  V30 3996 C 368.281 -0.330503 3.37285 0
M  V30 3997 C 367.454 0.559744 4.33804 0
M  V30 3998 C 366.513 -0.192954 5.25846 0
M  V30 3999 O 365.539 0.416978 5.67671 0
M  V30 4000 N 366.741 -1.47932 5.61334 0
M  V30 4001 H 369.506 1.34211 2.67969 0
M  V30 4002 H 367.067 0.852189 1.37657 0
M  V30 4003 H 369.059 -0.842361 3.95836 0
M  V30 4004 H 367.629 -1.09734 2.92707 0
M  V30 4005 H 366.849 1.25245 3.73775 0
M  V30 4006 H 368.137 1.1665 4.95248 0
M  V30 4007 H 367.535 -1.9964 5.29302 0
M  V30 4008 H 366.092 -1.93664 6.22364 0
M  V30 4009 N 369.525 -1.3858 0.750561 0
M  V30 4010 C 370.765 -2.02032 0.310258 0
M  V30 4011 C 371.129 -1.58288 -1.08668 0
M  V30 4012 O 372.33 -2.14049 -1.62593 0
M  V30 4013 C 370.601 -3.54856 0.425647 0
M  V30 4014 S 372.16 -4.38748 0.0674797 0
M  V30 4015 H 368.978 -0.700705 0.120554 0
M  V30 4016 H 371.58 -1.69134 0.980512 0
M  V30 4017 H 370.284 -3.84182 1.44335 0
M  V30 4018 H 369.815 -3.92527 -0.261894 0
M  V30 4019 H 371.83 -4.82835 -1.14388 0
M  V30 4020 N 371.003 -0.499398 -1.49478 0
M  V30 4021 C 371.951 0.293604 -2.3074 0
M  V30 4022 C 372.945 0.96427 -1.39277 0
M  V30 4023 O 374.151 0.892141 -1.56336 0
M  V30 4024 H 370.526 0.113541 -0.743379 0
M  V30 4025 H 372.497 -0.411772 -2.95545 0
M  V30 4026 C 371.246 1.3462 -3.20582 0
M  V30 4027 H 370.569 0.83954 -3.90886 0
M  V30 4028 H 372.009 1.87308 -3.80384 0
M  V30 4029 C 370.468 2.36351 -2.40083 0
M  V30 4030 O 370.998 3.422 -2.10385 0
M  V30 4031 N 369.204 2.0878 -2.02137 0
M  V30 4032 H 368.751 1.22723 -2.26488 0
M  V30 4033 H 368.709 2.77075 -1.48583 0
M  V30 4034 N 372.481 1.55866 -0.233164 0
M  V30 4035 C 373.414 2.16794 0.712442 0
M  V30 4036 C 374.392 1.1158 1.18273 0
M  V30 4037 O 375.576 1.39897 1.26337 0
M  V30 4038 C 372.703 2.75757 1.96661 0
M  V30 4039 C 371.749 3.93902 1.63533 0
M  V30 4040 S 372.582 5.30223 0.74995 0
M  V30 4041 C 373.738 5.92631 2.01343 0
M  V30 4042 H 373.971 2.96662 0.194617 0
M  V30 4043 H 371.504 1.5439 -0.0177425 0
M  V30 4044 H 373.462 3.10367 2.68668 0
M  V30 4045 H 372.123 1.9586 2.45556 0
M  V30 4046 H 371.316 4.33702 2.56747 0
M  V30 4047 H 370.918 3.60499 0.995804 0
M  V30 4048 H 373.21 6.09312 2.96219 0
M  V30 4049 H 374.153 6.88388 1.65915 0
M  V30 4050 H 374.561 5.21571 2.15925 0
M  V30 4051 N 373.959 -0.0401083 1.57549 0
M  V30 4052 C 375.208 -0.732108 1.87944 0
M  V30 4053 C 375.521 -1.77107 0.830206 0
M  V30 4054 O 376.727 -2.51488 1.02302 0
M  V30 4055 C 375.183 -1.35315 3.33494 0
M  V30 4056 C 374.791 -0.351105 4.46622 0
M  V30 4057 C 376.535 -2.02566 3.73051 0
M  V30 4058 C 374.442 -0.979859 5.83226 0
M  V30 4059 H 373.372 -0.277188 0.701201 0
M  V30 4060 H 376.023 0.0138501 1.83495 0
M  V30 4061 H 374.405 -2.14844 3.32653 0
M  V30 4062 H 375.579 0.416674 4.58912 0
M  V30 4063 H 373.894 0.218708 4.15825 0
M  V30 4064 H 376.491 -2.50441 4.72423 0
M  V30 4065 H 376.834 -2.83904 3.04474 0
M  V30 4066 H 377.367 -1.29827 3.76018 0
M  V30 4067 H 374.106 -0.206135 6.55176 0
M  V30 4068 H 373.626 -1.71774 5.74677 0
M  V30 4069 H 375.305 -1.49046 6.29599 0
M  V30 4070 N 375.437 -1.54477 -0.31217 0
M  V30 4071 C 376.385 -1.85395 -1.40469 0
M  V30 4072 C 377.379 -0.726749 -1.53019 0
M  V30 4073 O 378.585 -0.910582 -1.55269 0
M  V30 4074 H 374.96 -0.587845 -0.46898 0
M  V30 4075 H 376.931 -2.76736 -1.11623 0
M  V30 4076 C 375.68 -2.10811 -2.76503 0
M  V30 4077 H 375.003 -2.97014 -2.67625 0
M  V30 4078 H 376.443 -2.3639 -3.51988 0
M  V30 4079 C 374.902 -0.903165 -3.24568 0
M  V30 4080 O 375.432 -0.118085 -4.01526 0
M  V30 4081 N 373.638 -0.711634 -2.81752 0
M  V30 4082 H 373.185 -1.35171 -2.19286 0
M  V30 4083 H 373.143 0.0930473 -3.14262 0
M  V30 4084 N 376.915 0.57481 -1.46744 0
M  V30 4085 C 378.163 1.33009 -1.52161 0
M  V30 4086 C 378.484 1.94185 -0.178092 0
M  V30 4087 O 377.754 1.7899 0.796196 0
M  V30 4088 H 376.334 0.493873 -0.560445 0
M  V30 4089 H 378.996 0.672589 -1.82927 0
M  V30 4090 H 378.092 2.13273 -2.27862 0
M  V30 4091 N 378.394 1.34581 0.820102 0
M  V30 4092 C 379.622 1.3018 1.60813 0
M  V30 4093 C 380.037 -0.123551 1.88395 0
M  V30 4094 O 379.394 -1.07148 1.47735 0
M  V30 4095 C 379.445 2.09312 2.94739 0
M  V30 4096 O 379.166 3.46288 2.68358 0
M  V30 4097 C 380.667 2.1234 3.89136 0
M  V30 4098 H 377.887 0.447726 0.499782 0
M  V30 4099 H 380.431 1.77237 1.02017 0
M  V30 4100 H 378.586 1.65889 3.50085 0
M  V30 4101 H 379 3.87227 3.53774 0
M  V30 4102 H 380.474 2.72126 4.80262 0
M  V30 4103 H 380.951 1.11854 4.24718 0
M  V30 4104 H 381.557 2.55864 3.39726 0
M  V30 4105 N 379.872 -1.04064 1.18357 0
M  V30 4106 C 381.097 -1.81454 1.00445 0
M  V30 4107 C 381.522 -1.82823 -0.442423 0
M  V30 4108 O 380.88 -1.24555 -1.31741 0
M  V30 4109 C 380.928 -3.24925 1.56384 0
M  V30 4110 O 380.032 -4.04856 0.785209 0
M  V30 4111 H 379.373 -0.560604 0.355835 0
M  V30 4112 H 381.903 -1.31059 1.57114 0
M  V30 4113 H 381.913 -3.75702 1.59097 0
M  V30 4114 H 380.588 -3.23244 2.61699 0
M  V30 4115 H 379.165 -3.63537 0.830399 0
M  V30 4116 N 381.35 -0.985608 -1.22978 0
M  V30 4117 C 382.598 -0.656087 -1.91154 0
M  V30 4118 C 382.919 0.813561 -1.77218 0
M  V30 4119 O 382.189 1.58244 -1.1548 0
M  V30 4120 H 380.769 -0.239674 -0.707506 0
M  V30 4121 H 383.431 -1.25054 -1.49491 0
M  V30 4122 H 382.527 -0.912253 -2.9847 0
M  V30 4123 N 382.828 1.3818 -0.7579 0
M  V30 4124 C 383.76 2.2901 -0.0932177 0
M  V30 4125 C 384.773 1.47958 0.679136 0
M  V30 4126 O 385.962 1.70773 0.519514 0
M  V30 4127 C 383.062 3.26953 0.89192 0
M  V30 4128 C 382.235 4.37045 0.176303 0
M  V30 4129 C 381.294 5.15148 1.07281 0
M  V30 4130 O 380.32 5.66616 0.541728 0
M  V30 4131 N 381.522 5.28542 2.40049 0
M  V30 4132 H 384.287 2.86694 -0.873303 0
M  V30 4133 H 381.848 1.50007 -0.609054 0
M  V30 4134 H 383.84 3.76083 1.49479 0
M  V30 4135 H 382.41 2.70136 1.57306 0
M  V30 4136 H 381.63 3.89493 -0.607328 0
M  V30 4137 H 382.918 5.07801 -0.318718 0
M  V30 4138 H 382.316 4.88285 2.85647 0
M  V30 4139 H 380.873 5.8103 2.95376 0
M  V30 4140 N 384.306 0.507319 1.49211 0
M  V30 4141 C 385.239 -0.314509 2.26022 0
M  V30 4142 C 386.217 -0.964849 1.30879 0
M  V30 4143 O 387.401 -0.993707 1.6018 0
M  V30 4144 C 384.528 -1.44346 3.06402 0
M  V30 4145 C 383.574 -0.90685 4.16748 0
M  V30 4146 S 384.407 0.207392 5.35098 0
M  V30 4147 C 385.563 -0.924573 6.19033 0
M  V30 4148 H 385.796 0.337416 2.95379 0
M  V30 4149 H 383.329 0.292718 1.516 0
M  V30 4150 H 385.287 -2.09029 3.53295 0
M  V30 4151 H 383.948 -2.06702 2.36502 0
M  V30 4152 H 383.141 -1.75309 4.72528 0
M  V30 4153 H 382.743 -0.33712 3.72478 0
M  V30 4154 H 385.035 -1.82839 6.52362 0
M  V30 4155 H 385.978 -0.405248 7.06939 0
M  V30 4156 H 386.386 -1.19476 5.51712 0
M  V30 4157 N 385.784 -1.5574 0.241426 0
M  V30 4158 C 387.03 -1.99846 -0.378555 0
M  V30 4159 C 387.385 -1.12665 -1.55963 0
M  V30 4160 O 386.678 -0.180966 -1.90743 0
M  V30 4161 C 386.872 -3.47308 -0.843317 0
M  V30 4162 C 386.701 -4.48756 0.291178 0
M  V30 4163 C 385.471 -4.9949 0.764077 0
M  V30 4164 C 387.669 -5.02039 1.11631 0
M  V30 4165 N 385.651 -5.84676 1.87156 0
M  V30 4166 C 387.022 -5.84343 2.07226 0
M  V30 4167 C 389.077 -4.84354 1.15349 0
M  V30 4168 C 387.78 -6.50851 3.06245 0
M  V30 4169 C 389.806 -5.51636 2.13195 0
M  V30 4170 C 389.168 -6.33724 3.07528 0
M  V30 4171 H 385.267 -0.774968 -0.104634 0
M  V30 4172 H 387.851 -1.91385 0.357751 0
M  V30 4173 H 386.022 -3.56178 -1.54893 0
M  V30 4174 H 387.754 -3.78299 -1.43779 0
M  V30 4175 H 384.509 -4.72311 0.349175 0
M  V30 4176 H 384.933 -6.31967 2.42789 0
M  V30 4177 H 389.575 -4.20525 0.438057 0
M  V30 4178 H 387.293 -7.1385 3.78739 0
M  V30 4179 H 390.879 -5.39909 2.16771 0
M  V30 4180 H 389.759 -6.84867 3.82003 0
M  V30 4181 N 387.262 0.0317525 -1.57568 0
M  V30 4182 C 388.673 0.578692 -1.77505 0
M  V30 4183 C 389.024 1.75749 -0.872164 0
M  V30 4184 O 388.149 2.16298 -0.0663106 0
M  V30 4185 C 388.744 1.05658 -3.21904 0
M  V30 4186 C 387.303 1.54906 -3.43047 0
M  V30 4187 C 386.45 0.485939 -2.73009 0
M  V30 4188 H 389.401 -0.194475 -1.57504 0
M  V30 4189 H 389.422 1.92404 -3.28269 0
M  V30 4190 H 388.934 0.198422 -3.87592 0
M  V30 4191 H 387.035 2.42915 -2.82529 0
M  V30 4192 H 387.148 1.59841 -4.5165 0
M  V30 4193 H 385.512 0.940354 -2.36705 0
M  V30 4194 H 386.295 -0.362709 -3.41379 0
M  V30 4195 N 388.74 1.54641 0.303973 0
M  V30 4196 C 390.151 1.64811 0.877163 0
M  V30 4197 C 390.502 0.554838 1.88191 0
M  V30 4198 O 389.627 -0.309033 2.14182 0
M  V30 4199 C 390.222 2.9876 1.59775 0
M  V30 4200 C 388.781 3.11061 2.11938 0
M  V30 4201 C 387.928 2.60479 0.951097 0
M  V30 4202 H 390.879 1.58493 0.0810486 0
M  V30 4203 H 390.9 2.90017 2.46314 0
M  V30 4204 H 390.412 3.7831 0.866226 0
M  V30 4205 H 388.513 2.36225 2.88146 0
M  V30 4206 H 388.626 4.17171 2.35595 0
M  V30 4207 H 386.99 2.16859 1.33583 0
M  V30 4208 H 387.773 3.42504 0.233581 0
M  V30 4209 N 390.218 -0.567019 1.47046 0
M  V30 4210 C 391.465 -1.32462 1.53167 0
M  V30 4211 C 391.793 -1.93571 0.189841 0
M  V30 4212 O 391.048 -1.77865 -0.816243 0
M  V30 4213 C 391.347 -2.4623 2.59047 0
M  V30 4214 C 391.013 -2.03014 4.02612 0
M  V30 4215 C 389.675 -1.90944 4.41694 0
M  V30 4216 C 392.027 -1.69895 4.92732 0
M  V30 4217 C 389.355 -1.44035 5.68745 0
M  V30 4218 C 391.707 -1.2446 6.20236 0
M  V30 4219 C 390.371 -1.10979 6.5821 0
M  V30 4220 H 389.641 -0.484713 0.560477 0
M  V30 4221 H 392.288 -0.636888 1.80599 0
M  V30 4222 H 390.593 -3.20517 2.25335 0
M  V30 4223 H 392.29 -3.04427 2.61008 0
M  V30 4224 H 388.88 -2.13348 3.71726 0
M  V30 4225 H 393.064 -1.78098 4.63244 0
M  V30 4226 H 388.32 -1.32254 5.96925 0
M  V30 4227 H 392.494 -0.978924 6.89485 0
M  V30 4228 H 390.121 -0.744078 7.5655 0
M  V30 4229 N 391.696 -1.35014 -0.812953 0
M  V30 4230 C 392.629 -1.21761 -1.93001 0
M  V30 4231 C 393.607 -0.10694 -1.62248 0
M  V30 4232 O 394.791 -0.273891 -1.865 0
M  V30 4233 C 391.918 -0.873404 -3.27245 0
M  V30 4234 C 390.964 -1.99523 -3.76952 0
M  V30 4235 S 391.797 -3.61009 -3.95516 0
M  V30 4236 C 392.953 -3.28651 -5.32672 0
M  V30 4237 H 393.186 -2.16315 -2.03948 0
M  V30 4238 H 390.719 -1.20156 -0.969631 0
M  V30 4239 H 392.677 -0.68161 -4.04802 0
M  V30 4240 H 391.338 0.053971 -3.14054 0
M  V30 4241 H 390.531 -1.70838 -4.74163 0
M  V30 4242 H 390.133 -2.14503 -3.06373 0
M  V30 4243 H 392.425 -2.81085 -6.1644 0
M  V30 4244 H 393.368 -4.25039 -5.66346 0
M  V30 4245 H 393.776 -2.6458 -4.98656 0
M  V30 4246 N 393.175 1.03435 -1.18907 0
M  V30 4247 C 394.403 1.80381 -1.01342 0
M  V30 4248 C 394.818 1.83649 0.438005 0
M  V30 4249 O 394.175 1.27655 1.30424 0
M  V30 4250 C 394.226 3.25689 -1.56873 0
M  V30 4251 O 393.947 3.22673 -2.96334 0
M  V30 4252 C 395.448 4.19255 -1.44014 0
M  V30 4253 H 392.668 0.56784 -0.35749 0
M  V30 4254 H 395.212 1.30317 -1.576 0
M  V30 4255 H 393.367 3.72962 -1.04777 0
M  V30 4256 H 393.781 4.13748 -3.22355 0
M  V30 4257 H 395.255 5.19123 -1.87657 0
M  V30 4258 H 395.732 4.37467 -0.389815 0
M  V30 4259 H 396.338 3.77851 -1.95214 0
M  V30 4260 N 394.653 0.992116 1.22453 0
M  V30 4261 C 396.064 0.702776 1.72968 0
M  V30 4262 C 396.415 -0.780399 1.80012 0
M  V30 4263 O 395.54 -1.61007 1.44589 0
M  V30 4264 C 396.135 1.26903 3.14135 0
M  V30 4265 C 394.694 1.02909 3.62059 0
M  V30 4266 C 393.841 1.38969 2.39964 0
M  V30 4267 H 396.792 1.16457 1.07812 0
M  V30 4268 H 396.813 0.647223 3.74955 0
M  V30 4269 H 396.325 2.34851 3.08977 0
M  V30 4270 H 394.426 -0.0337979 3.72585 0
M  V30 4271 H 394.539 1.69191 4.48231 0
M  V30 4272 H 392.903 0.808279 2.41535 0
M  V30 4273 H 393.686 2.4792 2.37467 0
M  V30 4274 N 396.131 -1.37776 0.765217 0
M  V30 4275 C 397.041 -2.34135 0.147666 0
M  V30 4276 C 398.057 -1.59854 -0.687215 0
M  V30 4277 O 399.233 -1.91983 -0.608659 0
M  V30 4278 C 396.298 -3.3901 -0.72617 0
M  V30 4279 C 395.359 -4.2912 0.124417 0
M  V30 4280 C 394.592 -5.28986 -0.707807 0
M  V30 4281 O 394.815 -5.36205 -1.94525 0
M  V30 4282 O 393.749 -6.01779 -0.12046 0
M  V30 4283 H 397.575 -2.88664 0.943758 0
M  V30 4284 H 395.16 -1.39824 0.526277 0
M  V30 4285 H 397.042 -4.03195 -1.22524 0
M  V30 4286 H 395.717 -2.86819 -1.50056 0
M  V30 4287 H 394.624 -3.68057 0.669696 0
M  V30 4288 H 395.957 -4.84598 0.861736 0
M  V30 4289 N 397.609 -0.515225 -1.4894 0
M  V30 4290 C 398.834 0.022727 -2.07388 0
M  V30 4291 C 399.259 1.2876 -1.37122 0
M  V30 4292 O 398.617 1.76067 -0.432431 0
M  V30 4293 C 398.665 0.244869 -3.59768 0
M  V30 4294 O 397.769 1.31667 -3.90817 0
M  V30 4295 H 397.11 -0.0325506 -0.663202 0
M  V30 4296 H 399.64 -0.718918 -1.91553 0
M  V30 4297 H 399.65 0.47205 -4.0526 0
M  V30 4298 H 398.325 -0.679194 -4.10317 0
M  V30 4299 H 396.902 1.07331 -3.5712 0
M  V30 4300 N 399.087 1.5561 -0.249682 0
M  V30 4301 C 400.312 2.03865 0.381305 0
M  V30 4302 C 400.737 1.12769 1.50548 0
M  V30 4303 O 400.095 0.121189 1.80895 0
M  V30 4304 C 400.143 3.50101 0.863816 0
M  V30 4305 O 399.247 3.62132 1.97318 0
M  V30 4306 H 398.588 0.658827 0.0827194 0
M  V30 4307 H 401.118 2.01105 -0.376552 0
M  V30 4308 H 401.128 3.90975 1.1663 0
M  V30 4309 H 399.803 4.1588 0.0411816 0
M  V30 4310 H 398.38 3.33155 1.67517 0
M  V30 4311 N 400.565 -0.0233959 1.57583 0
M  V30 4312 C 401.495 -1.02162 2.09965 0
M  V30 4313 C 402.476 -1.3735 1.00344 0
M  V30 4314 O 403.661 -1.46135 1.27899 0
M  V30 4315 C 400.791 -2.32081 2.58371 0
M  V30 4316 C 399.745 -2.1112 3.72307 0
M  V30 4317 C 399.071 -3.46848 4.06941 0
M  V30 4318 C 400.371 -1.49276 5.00514 0
M  V30 4319 H 402.065 -0.585557 2.93618 0
M  V30 4320 H 399.611 -0.280218 1.41247 0
M  V30 4321 H 401.564 -3.02249 2.93639 0
M  V30 4322 H 400.288 -2.77758 1.71808 0
M  V30 4323 H 398.947 -1.43384 3.37397 0
M  V30 4324 H 398.595 -3.90184 3.17436 0
M  V30 4325 H 398.295 -3.33646 4.83688 0
M  V30 4326 H 399.819 -4.18369 4.44747 0
M  V30 4327 H 401.233 -2.09368 5.33702 0
M  V30 4328 H 399.63 -1.46632 5.8191 0
M  V30 4329 H 400.7 -0.459217 4.82721 0
M  V30 4330 N 402.043 -1.548 -0.295768 0
M  V30 4331 C 402.953 -1.89177 -1.38742 0
M  V30 4332 C 403.969 -0.786481 -1.55211 0
M  V30 4333 O 405.145 -1.08344 -1.69775 0
M  V30 4334 C 402.21 -2.13663 -2.73036 0
M  V30 4335 C 401.271 -3.37349 -2.65508 0
M  V30 4336 C 400.504 -3.60658 -3.93398 0
M  V30 4337 O 400.727 -2.86882 -4.93006 0
M  V30 4338 O 399.661 -4.54179 -3.94975 0
M  V30 4339 H 403.487 -2.82059 -1.12589 0
M  V30 4340 H 401.072 -1.41056 -0.492295 0
M  V30 4341 H 402.954 -2.3094 -3.52484 0
M  V30 4342 H 401.629 -1.23967 -2.99022 0
M  V30 4343 H 400.536 -3.25431 -1.84514 0
M  V30 4344 H 401.869 -4.27192 -2.44474 0
M  V30 4345 N 403.521 0.559213 -1.47345 0
M  V30 4346 C 404.768 1.31648 -1.53867 0
M  V30 4347 C 405.096 1.93468 -0.200104 0
M  V30 4348 O 404.351 1.78295 0.806799 0
M  V30 4349 C 404.65 2.44853 -2.6035 0
M  V30 4350 C 404.316 2.00876 -4.03683 0
M  V30 4351 C 402.978 1.88599 -4.42701 0
M  V30 4352 C 405.33 1.67279 -4.93626 0
M  V30 4353 C 402.658 1.41017 -5.69501 0
M  V30 4354 C 405.01 1.21169 -6.20887 0
M  V30 4355 C 403.674 1.07487 -6.58789 0
M  V30 4356 H 402.944 0.481734 -0.56304 0
M  V30 4357 H 405.591 0.627301 -1.80934 0
M  V30 4358 H 403.896 3.19318 -2.27032 0
M  V30 4359 H 405.593 3.03039 -2.62619 0
M  V30 4360 H 402.183 2.11374 -3.72853 0
M  V30 4361 H 406.367 1.75638 -4.64182 0
M  V30 4362 H 401.623 1.29086 -5.97618 0
M  V30 4363 H 405.797 0.942345 -6.89995 0
M  V30 4364 H 403.424 0.703946 -7.56934 0
M  V30 4365 N 404.999 1.35443 0.805782 0
M  V30 4366 C 406.229 1.31687 1.59192 0
M  V30 4367 C 406.637 -0.10756 1.88894 0
M  V30 4368 O 405.98 -1.07017 1.49309 0
M  V30 4369 C 406.042 2.05686 2.94845 0
M  V30 4370 C 405.706 3.54868 2.87954 0
M  V30 4371 C 406.703 4.49444 2.61335 0
M  V30 4372 C 404.388 3.97528 3.07046 0
M  V30 4373 C 406.382 5.84655 2.53885 0
M  V30 4374 C 404.069 5.32833 2.99219 0
M  V30 4375 C 405.067 6.26209 2.72674 0
M  V30 4376 O 404.755 7.59032 2.64811 0
M  V30 4377 H 404.487 0.453878 0.50097 0
M  V30 4378 H 407.041 1.78892 1.0093 0
M  V30 4379 H 405.271 1.5312 3.55093 0
M  V30 4380 H 406.96 1.94998 3.55993 0
M  V30 4381 H 407.726 4.17804 2.46303 0
M  V30 4382 H 403.605 3.25233 3.26718 0
M  V30 4383 H 407.149 6.57508 2.33086 0
M  V30 4384 H 403.046 5.64087 3.13809 0
M  V30 4385 H 403.814 7.68967 2.80413 0
M  V30 4386 N 406.477 -1.02803 1.19454 0
M  V30 4387 C 407.702 -1.80378 1.02364 0
M  V30 4388 C 408.127 -1.83282 -0.423007 0
M  V30 4389 O 407.485 -1.25945 -1.30413 0
M  V30 4390 C 407.533 -3.23248 1.59821 0
M  V30 4391 O 406.637 -4.04 0.828105 0
M  V30 4392 H 405.978 -0.556799 0.361761 0
M  V30 4393 H 408.508 -1.29385 1.58495 0
M  V30 4394 H 408.518 -3.73994 1.63073 0
M  V30 4395 H 407.193 -3.2045 2.65113 0
M  V30 4396 H 405.77 -3.62635 0.86891 0
M  V30 4397 N 407.956 -0.998596 -1.21925 0
M  V30 4398 C 409.367 -0.711939 -1.72593 0
M  V30 4399 C 409.718 0.770842 -1.80423 0
M  V30 4400 O 408.843 1.60237 -1.4544 0
M  V30 4401 C 409.438 -1.28567 -3.13458 0
M  V30 4402 C 407.997 -1.04828 -3.61508 0
M  V30 4403 C 407.144 -1.4024 -2.39224 0
M  V30 4404 H 410.095 -1.17027 -1.07193 0
M  V30 4405 H 410.116 -0.667098 -3.74607 0
M  V30 4406 H 409.628 -2.36486 -3.07727 0
M  V30 4407 H 407.729 0.0140383 -3.72597 0
M  V30 4408 H 407.842 -1.71566 -4.47328 0
M  V30 4409 H 406.206 -0.821077 -2.41103 0
M  V30 4410 H 406.989 -2.49176 -2.36149 0
M  V30 4411 N 409.434 1.37368 -0.772513 0
M  V30 4412 C 410.344 2.34053 -0.160081 0
M  V30 4413 C 411.36 1.60216 0.678728 0
M  V30 4414 O 412.536 1.92303 0.59847 0
M  V30 4415 C 409.601 3.3939 0.708182 0
M  V30 4416 C 408.662 4.29048 -0.147172 0
M  V30 4417 C 407.895 5.29354 0.679744 0
M  V30 4418 O 408.118 5.3723 1.91678 0
M  V30 4419 O 407.052 6.01835 0.0885444 0
M  V30 4420 H 410.878 2.88159 -0.959053 0
M  V30 4421 H 408.463 1.39543 -0.533685 0
M  V30 4422 H 410.345 4.03839 1.20384 0
M  V30 4423 H 409.02 2.8761 1.48533 0
M  V30 4424 H 407.927 3.67697 -0.689205 0
M  V30 4425 H 409.26 4.84134 -0.887423 0
M  V30 4426 N 410.912 0.523116 1.48665 0
M  V30 4427 C 411.875 -0.232592 2.28017 0
M  V30 4428 C 412.875 -0.874021 1.34972 0
M  V30 4429 O 414.065 -0.735132 1.57929 0
M  V30 4430 C 411.197 -1.33586 3.13636 0
M  V30 4431 H 412.39 0.464008 2.96289 0
M  V30 4432 H 409.943 0.278816 1.53793 0
M  V30 4433 H 410.678 -2.06593 2.4998 0
M  V30 4434 H 410.463 -0.881125 3.82071 0
M  V30 4435 H 411.953 -1.86759 3.73511 0
M  V30 4436 N 412.39 -1.55475 0.257931 0
M  V30 4437 C 413.63 -2.01112 -0.365129 0
M  V30 4438 C 413.994 -1.1423 -1.54323 0
M  V30 4439 O 415.195 -1.49371 -2.23477 0
M  V30 4440 C 413.466 -3.49353 -0.754117 0
M  V30 4441 S 415.025 -4.16992 -1.36614 0
M  V30 4442 H 411.843 -0.701737 -0.114397 0
M  V30 4443 H 414.445 -1.91855 0.375747 0
M  V30 4444 H 413.149 -4.10246 0.112441 0
M  V30 4445 H 412.68 -3.6256 -1.52689 0
M  V30 4446 H 414.695 -4.19191 -2.65505 0
M  V30 4447 N 413.868 0.0150385 -1.57593 0
M  V30 4448 C 415.284 0.370907 -1.5523 0
M  V30 4449 C 415.484 1.75735 -0.985882 0
M  V30 4450 O 414.54 2.44944 -0.613077 0
M  V30 4451 C 415.853 0.259908 -2.99575 0
M  V30 4452 C 417.401 0.335959 -3.11192 0
M  V30 4453 C 417.876 0.254253 -4.57294 0
M  V30 4454 N 419.367 0.312618 -4.62144 0
M  V30 4455 C 420.102 0.272505 -5.72752 0
M  V30 4456 N 419.598 0.183864 -6.92556 0
M  V30 4457 N 421.391 0.323267 -5.6117 0
M  V30 4458 H 413.542 -0.892104 -1.92757 0
M  V30 4459 H 415.805 -0.340563 -0.884715 0
M  V30 4460 H 415.511 -0.693403 -3.44797 0
M  V30 4461 H 415.385 1.048 -3.62349 0
M  V30 4462 H 417.772 1.27971 -2.65909 0
M  V30 4463 H 417.853 -0.481739 -2.51223 0
M  V30 4464 H 417.497 -0.685887 -5.03247 0
M  V30 4465 H 417.427 1.09024 -5.15191 0
M  V30 4466 H 419.918 0.38307 -3.75953 0
M  V30 4467 H 420.231 0.15874 -7.72637 0
M  V30 4468 H 418.576 0.149708 -6.94839 0
M  V30 4469 H 421.767 0.390607 -4.66467 0
M  V30 4470 H 421.94 0.288539 -6.47357 0
M  V30 4471 N 415.346 1.54954 0.287554 0
M  V30 4472 C 416.571 1.79209 1.04397 0
M  V30 4473 C 416.996 0.556431 1.79682 0
M  V30 4474 O 416.354 -0.493518 1.74454 0
M  V30 4475 C 416.402 3.00739 1.98969 0
M  V30 4476 O 415.506 2.74805 3.075 0
M  V30 4477 H 414.847 0.592755 0.299227 0
M  V30 4478 H 417.377 2.02068 0.320886 0
M  V30 4479 H 417.387 3.29077 2.4119 0
M  V30 4480 H 416.062 3.90329 1.43582 0
M  V30 4481 H 414.639 2.57523 2.69697 0
M  V30 4482 N 416.824 -0.551391 1.4764 0
M  V30 4483 C 417.757 -1.6738 1.5511 0
M  V30 4484 C 418.735 -1.5753 0.402856 0
M  V30 4485 O 419.919 -1.78307 0.611475 0
M  V30 4486 C 417.046 -3.05661 1.45908 0
M  V30 4487 C 416.092 -3.33938 2.65307 0
M  V30 4488 S 416.925 -3.22553 4.27457 0
M  V30 4489 C 418.081 -4.63317 4.20818 0
M  V30 4490 H 418.314 -1.6079 2.50068 0
M  V30 4491 H 415.847 -0.732674 1.35909 0
M  V30 4492 H 417.805 -3.8542 1.41286 0
M  V30 4493 H 416.466 -3.09711 0.523248 0
M  V30 4494 H 415.659 -4.34761 2.54948 0
M  V30 4495 H 415.261 -2.61809 2.67081 0
M  V30 4496 H 417.553 -5.54391 3.89431 0
M  V30 4497 H 418.496 -4.78732 5.21748 0
M  V30 4498 H 418.904 -4.41636 3.51593 0
M  V30 4499 N 418.302 -1.35869 -0.798587 0
M  V30 4500 C 419.249 -1.29446 -1.91082 0
M  V30 4501 C 420.219 -0.16487 -1.6528 0
M  V30 4502 O 421.404 -0.349888 -1.87564 0
M  V30 4503 C 418.544 -1.0804 -3.27752 0
M  V30 4504 C 417.657 -2.29993 -3.65687 0
M  V30 4505 C 416.792 -2.01673 -4.91428 0
M  V30 4506 C 415.831 -3.19636 -5.22015 0
M  V30 4507 N 414.968 -2.91039 -6.38937 0
M  V30 4508 H 419.808 -2.24553 -1.95907 0
M  V30 4509 H 417.345 -1.11615 -0.958148 0
M  V30 4510 H 419.303 -0.936586 -4.06551 0
M  V30 4511 H 417.933 -0.16592 -3.22373 0
M  V30 4512 H 416.985 -2.55211 -2.82085 0
M  V30 4513 H 418.297 -3.18052 -3.84245 0
M  V30 4514 H 417.451 -1.84168 -5.78072 0
M  V30 4515 H 416.19 -1.10911 -4.74921 0
M  V30 4516 H 415.195 -3.37709 -4.33858 0
M  V30 4517 H 416.42 -4.11211 -5.40447 0
M  V30 4518 H 414.366 -2.0288 -6.2384 0
M  V30 4519 H 414.283 -3.72635 -6.57784 0
M  V30 4520 H 415.551 -2.77093 -7.28587 0
M  V30 4521 N 419.78 1.02168 -1.19998 0
M  V30 4522 C 420.71 2.12488 -0.96804 0
M  V30 4523 C 421.691 1.69799 0.101185 0
M  V30 4524 O 422.876 1.94121 -0.0552993 0
M  V30 4525 C 420.006 3.43479 -0.513776 0
M  V30 4526 C 418.96 3.99884 -1.52566 0
M  V30 4527 C 418.286 5.26582 -0.928214 0
M  V30 4528 C 419.586 4.33861 -2.90795 0
M  V30 4529 H 421.28 2.32149 -1.89069 0
M  V30 4530 H 418.826 1.11564 -0.910468 0
M  V30 4531 H 420.779 4.20036 -0.338774 0
M  V30 4532 H 419.503 3.23561 0.444493 0
M  V30 4533 H 418.162 3.25429 -1.68794 0
M  V30 4534 H 417.81 5.02986 0.0378289 0
M  V30 4535 H 417.51 5.65284 -1.60397 0
M  V30 4536 H 419.034 6.05799 -0.764167 0
M  V30 4537 H 420.448 5.01327 -2.78109 0
M  V30 4538 H 418.845 4.83664 -3.55231 0
M  V30 4539 H 419.915 3.42848 -3.42904 0
M  V30 4540 N 421.258 1.00505 1.21394 0
M  V30 4541 C 422.191 0.51032 2.22421 0
M  V30 4542 C 423.169 -0.436 1.56645 0
M  V30 4543 O 424.353 -0.358709 1.85055 0
M  V30 4544 C 421.48 -0.258733 3.3771 0
M  V30 4545 C 420.526 0.635395 4.2174 0
M  V30 4546 S 421.359 2.09783 4.92698 0
M  V30 4547 C 422.515 1.33862 6.11418 0
M  V30 4548 H 422.748 1.36637 2.64041 0
M  V30 4549 H 420.281 0.812991 1.31262 0
M  V30 4550 H 422.239 -0.696372 4.0455 0
M  V30 4551 H 420.9 -1.0902 2.94573 0
M  V30 4552 H 420.093 0.0430189 5.03982 0
M  V30 4553 H 419.695 1.01031 3.60095 0
M  V30 4554 H 421.987 0.612541 6.74725 0
M  V30 4555 H 422.93 2.13675 6.75092 0
M  V30 4556 H 423.338 0.846568 5.58116 0
M  V30 4557 N 422.737 -1.36956 0.779787 0
M  V30 4558 C 423.967 -2.03459 0.358877 0
M  V30 4559 C 424.375 -1.58939 -1.02641 0
M  V30 4560 O 423.718 -0.769777 -1.66794 0
M  V30 4561 C 423.78 -3.5796 0.332393 0
M  V30 4562 C 423.444 -4.25644 1.66362 0
M  V30 4563 C 424.441 -4.49205 2.61746 0
M  V30 4564 C 422.126 -4.63313 1.94027 0
M  V30 4565 C 424.12 -5.09503 3.82996 0
M  V30 4566 C 421.807 -5.2333 3.15546 0
M  V30 4567 C 422.805 -5.46363 4.0985 0
M  V30 4568 O 422.493 -6.05122 5.29228 0
M  V30 4569 H 422.225 -0.659767 0.147254 0
M  V30 4570 H 424.779 -1.76111 1.05708 0
M  V30 4571 H 423.009 -3.84388 -0.422237 0
M  V30 4572 H 424.698 -4.05852 -0.0625389 0
M  V30 4573 H 425.464 -4.20508 2.41657 0
M  V30 4574 H 421.343 -4.44715 1.21448 0
M  V30 4575 H 424.887 -5.27397 4.56617 0
M  V30 4576 H 420.784 -5.51451 3.35517 0
M  V30 4577 H 421.552 -6.23595 5.30161 0
M  V30 4578 N 424.215 -0.530993 -1.48385 0
M  V30 4579 C 425.162 0.231223 -2.29639 0
M  V30 4580 C 426.132 0.932864 -1.37429 0
M  V30 4581 O 427.317 0.933692 -1.66394 0
M  V30 4582 C 424.457 1.27155 -3.2082 0
M  V30 4583 C 423.57 0.578655 -4.28107 0
M  V30 4584 C 422.705 1.602 -5.06467 0
M  V30 4585 C 421.744 0.892625 -6.05556 0
M  V30 4586 N 420.881 1.86157 -6.76971 0
M  V30 4587 H 425.721 -0.467848 -2.94305 0
M  V30 4588 H 423.258 -0.242556 -1.45086 0
M  V30 4589 H 425.216 1.88703 -3.72085 0
M  V30 4590 H 423.846 1.939 -2.58075 0
M  V30 4591 H 422.898 -0.150782 -3.80101 0
M  V30 4592 H 424.21 0.0217065 -4.98795 0
M  V30 4593 H 423.364 2.29173 -5.61751 0
M  V30 4594 H 422.103 2.19285 -4.35621 0
M  V30 4595 H 421.108 0.188829 -5.49476 0
M  V30 4596 H 422.333 0.307878 -6.78402 0
M  V30 4597 H 420.279 2.44147 -6.08875 0
M  V30 4598 H 420.196 1.35608 -7.43738 0
M  V30 4599 H 421.464 2.54325 -7.36844 0
M  V30 4600 N 425.693 1.55336 -0.266172 0
M  V30 4601 C 426.603 2.2583 0.635458 0
M  V30 4602 C 427.619 1.28106 1.17749 0
M  V30 4603 O 428.795 1.61024 1.20968 0
M  V30 4604 C 425.86 2.95879 1.80712 0
M  V30 4605 C 424.921 4.09059 1.30265 0
M  V30 4606 C 424.154 4.75759 2.41846 0
M  V30 4607 O 424.377 4.41622 3.61007 0
M  V30 4608 O 423.311 5.63888 2.1051 0
M  V30 4609 H 427.137 3.03631 0.0646693 0
M  V30 4610 H 424.722 1.49361 -0.0339177 0
M  V30 4611 H 426.604 3.39932 2.49047 0
M  V30 4612 H 425.279 2.21002 2.36516 0
M  V30 4613 H 424.186 3.69482 0.586019 0
M  V30 4614 H 425.519 4.85811 0.790458 0
M  V30 4615 N 427.171 -0.0066808 1.57599 0
M  V30 4616 C 428.396 -0.707738 1.94951 0
M  V30 4617 C 428.821 -1.66882 0.867868 0
M  V30 4618 O 428.179 -1.80457 -0.17458 0
M  V30 4619 C 428.227 -1.42162 3.31394 0
M  V30 4620 O 427.331 -2.53578 3.25226 0
M  V30 4621 H 426.672 -0.188752 0.636607 0
M  V30 4622 H 429.202 0.0445193 2.04552 0
M  V30 4623 H 429.212 -1.78655 3.66806 0
M  V30 4624 H 427.887 -0.716903 4.09675 0
M  V30 4625 H 426.464 -2.19463 3.01481 0
M  V30 4626 N 428.649 -1.55105 -0.279332 0
M  V30 4627 C 429.897 -1.75066 -1.00977 0
M  V30 4628 C 430.218 -0.551276 -1.87045 0
M  V30 4629 O 429.488 0.433984 -1.91032 0
M  V30 4630 H 428.068 -0.645578 -0.375816 0
M  V30 4631 H 430.73 -1.92497 -0.305089 0
M  V30 4632 H 429.826 -2.64894 -1.65038 0
M  V30 4633 N 430.127 0.543554 -1.4793 0
M  V30 4634 C 431.373 1.30201 -1.55485 0
M  V30 4635 C 431.706 1.92925 -0.222201 0
M  V30 4636 O 430.981 1.78586 0.77053 0
M  V30 4637 C 431.264 2.40174 -2.68307 0
M  V30 4638 C 431.117 1.8223 -4.11233 0
M  V30 4639 C 432.436 3.42024 -2.76961 0
M  V30 4640 H 429.555 0.472036 -0.565996 0
M  V30 4641 H 432.197 0.606914 -1.80046 0
M  V30 4642 H 430.347 2.99463 -2.47495 0
M  V30 4643 H 432.019 1.27096 -4.43446 0
M  V30 4644 H 430.262 1.12832 -4.18869 0
M  V30 4645 H 430.933 2.61793 -4.85972 0
M  V30 4646 H 433.409 2.92672 -2.95774 0
M  V30 4647 H 432.285 4.16383 -3.57654 0
M  V30 4648 H 432.546 4.0173 -1.84568 0
M  V30 4649 N 431.605 1.3629 0.791371 0
M  V30 4650 C 432.852 1.30412 1.54916 0
M  V30 4651 C 433.18 -0.117162 1.94147 0
M  V30 4652 O 432.435 -1.08599 1.62803 0
M  V30 4653 C 432.734 2.17068 2.8393 0
M  V30 4654 C 432.4 3.65645 2.63846 0
M  V30 4655 C 431.062 4.0614 2.58077 0
M  V30 4656 C 433.414 4.59855 2.45322 0
M  V30 4657 C 430.742 5.3899 2.31748 0
M  V30 4658 C 433.094 5.9292 2.2052 0
M  V30 4659 C 431.758 6.32542 2.13183 0
M  V30 4660 H 431.028 0.47721 0.566879 0
M  V30 4661 H 433.675 1.68325 0.913172 0
M  V30 4662 H 431.98 1.72085 3.51986 0
M  V30 4663 H 433.677 2.09846 3.4171 0
M  V30 4664 H 430.267 3.33518 2.69191 0
M  V30 4665 H 434.451 4.29443 2.48782 0
M  V30 4666 H 429.707 5.68672 2.24548 0
M  V30 4667 H 433.881 6.65487 2.05182 0
M  V30 4668 H 431.508 7.35412 1.92544 0
M  V30 4669 N 433.083 -1.0153 1.20538 0
M  V30 4670 C 433.993 -2.13557 0.971113 0
M  V30 4671 C 435.009 -1.73845 -0.0734366 0
M  V30 4672 O 436.185 -2.01075 0.114299 0
M  V30 4673 C 433.25 -3.42661 0.527639 0
M  V30 4674 C 432.311 -3.96608 1.64319 0
M  V30 4675 C 431.544 -5.1955 1.22078 0
M  V30 4676 O 431.767 -5.70329 0.0900198 0
M  V30 4677 O 430.701 -5.66681 2.02871 0
M  V30 4678 H 434.527 -2.3619 1.90913 0
M  V30 4679 H 432.112 -1.11946 0.989362 0
M  V30 4680 H 433.994 -4.20404 0.289621 0
M  V30 4681 H 432.669 -3.21441 -0.381779 0
M  V30 4682 H 431.576 -3.20139 1.93551 0
M  V30 4683 H 432.909 -4.22219 2.52966 0
M  V30 4684 N 434.561 -1.01147 -1.20859 0
M  V30 4685 C 435.809 -0.696486 -1.89719 0
M  V30 4686 C 436.13 0.775788 -1.78904 0
M  V30 4687 O 435.4 1.55759 -1.18811 0
M  V30 4688 H 433.98 -0.254628 -0.702263 0
M  V30 4689 H 436.642 -1.28197 -1.46804 0
M  V30 4690 H 435.738 -0.975357 -2.96468 0
M  V30 4691 N 436.039 1.36541 -0.78704 0
M  V30 4692 C 437.288 1.98552 -0.35494 0
M  V30 4693 C 437.601 1.63171 1.07864 0
M  V30 4694 O 438.807 2.18399 1.61289 0
M  V30 4695 C 437.263 3.55136 -0.583671 0
M  V30 4696 C 436.871 3.99444 -2.02851 0
M  V30 4697 C 438.615 4.2395 -0.215957 0
M  V30 4698 C 436.522 5.48796 -2.20403 0
M  V30 4699 H 435.452 0.742888 -0.128972 0
M  V30 4700 H 438.103 1.5587 -0.968337 0
M  V30 4701 H 436.485 3.95875 0.0994046 0
M  V30 4702 H 437.659 3.6991 -2.74779 0
M  V30 4703 H 435.974 3.43459 -2.35425 0
M  V30 4704 H 438.571 5.33709 -0.325405 0
M  V30 4705 H 438.914 4.07827 0.835646 0
M  V30 4706 H 439.447 3.88565 -0.852175 0
M  V30 4707 H 436.186 5.69864 -3.23937 0
M  V30 4708 H 435.706 5.79964 -1.52977 0
M  V30 4709 H 437.385 6.14986 -2.01002 0
M  V30 4710 N 437.518 0.538854 1.48102 0
M  V30 4711 C 438.929 0.100679 1.86428 0
M  V30 4712 C 439.28 -1.32447 1.44749 0
M  V30 4713 O 438.405 -1.99339 0.842199 0
M  V30 4714 C 439 0.175933 3.38343 0
M  V30 4715 C 437.559 -0.207098 3.7583 0
M  V30 4716 C 436.706 0.531741 2.72154 0
M  V30 4717 H 439.657 0.749614 1.3988 0
M  V30 4718 H 439.678 -0.610144 3.75576 0
M  V30 4719 H 439.19 1.21328 3.68648 0
M  V30 4720 H 437.291 -1.24626 3.5114 0
M  V30 4721 H 437.404 0.138687 4.78899 0
M  V30 4722 H 435.768 -0.0230462 2.5469 0
M  V30 4723 H 436.551 1.56989 3.05302 0
M  V30 4724 N 438.996 -1.55193 0.274407 0
M  V30 4725 C 440.224 -2.03987 -0.345943 0
M  V30 4726 C 440.639 -1.15279 -1.4952 0
M  V30 4727 O 439.996 -0.172759 -1.8168 0
M  V30 4728 C 440.047 -3.51898 -0.827631 0
M  V30 4729 O 439.768 -4.37231 0.275855 0
M  V30 4730 C 441.269 -4.16577 -1.51587 0
M  V30 4731 H 438.489 -0.666335 -0.0789892 0
M  V30 4732 H 441.033 -2.00423 0.406294 0
M  V30 4733 H 439.188 -3.55909 -1.52996 0
M  V30 4734 H 439.602 -5.24415 -0.0943638 0
M  V30 4735 H 441.076 -5.21678 -1.80433 0
M  V30 4736 H 441.553 -3.64707 -2.44716 0
M  V30 4737 H 442.159 -4.16568 -0.857409 0
M  V30 4738 N 440.474 -0.00167713 -1.576 0
M  V30 4739 C 441.704 0.692754 -1.94639 0
M  V30 4740 C 442.112 1.67744 -0.87513 0
M  V30 4741 O 441.455 1.8305 0.154382 0
M  V30 4742 C 441.517 1.47881 -3.27676 0
M  V30 4743 C 441.181 0.655518 -4.52274 0
M  V30 4744 C 442.178 -0.0575214 -5.19868 0
M  V30 4745 C 439.863 0.600994 -4.98692 0
M  V30 4746 C 441.857 -0.814052 -6.3218 0
M  V30 4747 C 439.544 -0.15926 -6.10892 0
M  V30 4748 C 440.542 -0.865515 -6.77494 0
M  V30 4749 O 440.23 -1.61336 -7.87544 0
M  V30 4750 H 439.962 0.197792 -0.646417 0
M  V30 4751 H 442.516 -0.049423 -2.05341 0
M  V30 4752 H 440.746 2.2655 -3.13388 0
M  V30 4753 H 442.435 2.05874 -3.49816 0
M  V30 4754 H 443.201 -0.0245611 -4.84994 0
M  V30 4755 H 439.08 1.14025 -4.46676 0
M  V30 4756 H 442.624 -1.36584 -6.84098 0
M  V30 4757 H 438.521 -0.194035 -6.45208 0
M  V30 4758 H 439.289 -1.53025 -8.04068 0
M  V30 4759 N 441.952 1.55251 0.271103 0
M  V30 4760 C 443.368 1.47133 0.618393 0
M  V30 4761 C 443.568 0.686994 1.89427 0
M  V30 4762 O 442.624 0.206609 2.51653 0
M  V30 4763 C 443.937 2.91361 0.743593 0
M  V30 4764 C 445.485 3.01587 0.837522 0
M  V30 4765 C 445.96 4.47073 0.994483 0
M  V30 4766 N 447.451 4.50909 1.05996 0
M  V30 4767 C 448.186 5.60698 1.20024 0
M  V30 4768 N 447.682 6.80348 1.30759 0
M  V30 4769 N 449.475 5.48444 1.23149 0
M  V30 4770 H 441.626 2.04698 -0.566784 0
M  V30 4771 H 443.889 0.928319 -0.192165 0
M  V30 4772 H 443.595 3.51483 -0.123493 0
M  V30 4773 H 443.469 3.40484 1.62328 0
M  V30 4774 H 445.856 2.4156 1.69507 0
M  V30 4775 H 445.937 2.55713 -0.0668086 0
M  V30 4776 H 445.581 5.07703 0.141582 0
M  V30 4777 H 445.511 4.90605 1.91349 0
M  V30 4778 H 448.002 3.6472 0.989316 0
M  V30 4779 H 448.315 7.59772 1.41303 0
M  V30 4780 H 446.66 6.83156 1.27761 0
M  V30 4781 H 449.851 4.53907 1.14394 0
M  V30 4782 H 450.024 6.34049 1.33738 0
M  V30 4783 N 443.43 -0.535701 1.48216 0
M  V30 4784 C 444.677 -1.29183 1.55942 0
M  V30 4785 C 445.005 -1.93125 0.230857 0
M  V30 4786 O 444.26 -1.79556 -0.778331 0
M  V30 4787 C 444.559 -2.4068 2.64212 0
M  V30 4788 C 444.225 -1.94428 4.06827 0
M  V30 4789 C 442.887 -1.81532 4.45645 0
M  V30 4790 C 445.239 -1.59405 4.96225 0
M  V30 4791 C 442.567 -1.31939 5.71672 0
M  V30 4792 C 444.919 -1.11276 6.22736 0
M  V30 4793 C 443.583 -0.969924 6.60416 0
M  V30 4794 H 442.853 -0.472715 0.570632 0
M  V30 4795 H 445.5 -0.598437 1.81909 0
M  V30 4796 H 443.805 -3.15666 2.32083 0
M  V30 4797 H 445.502 -2.98822 2.67407 0
M  V30 4798 H 442.092 -2.05415 3.76168 0
M  V30 4799 H 446.276 -1.68231 4.66917 0
M  V30 4800 H 441.532 -1.19562 5.99596 0
M  V30 4801 H 445.706 -0.832453 6.91407 0
M  V30 4802 H 443.333 -0.583436 7.57958 0
M  V30 4803 N 444.908 -1.36708 -0.784132 0
M  V30 4804 C 446.154 -1.31426 -1.54451 0
M  V30 4805 C 446.487 0.10476 -1.93917 0
M  V30 4806 O 445.762 1.05934 -1.6312 0
M  V30 4807 C 446.045 -2.24189 -2.818 0
M  V30 4808 C 445.898 -3.74813 -2.48667 0
M  V30 4809 C 447.217 -2.15626 -3.83658 0
M  V30 4810 H 444.336 -0.478739 -0.560337 0
M  V30 4811 H 446.978 -1.67305 -0.900498 0
M  V30 4812 H 445.128 -1.93722 -3.36755 0
M  V30 4813 H 446.8 -4.15823 -1.99722 0
M  V30 4814 H 445.043 -3.93989 -1.81535 0
M  V30 4815 H 445.714 -4.35138 -3.39646 0
M  V30 4816 H 448.19 -2.42456 -3.38163 0
M  V30 4817 H 447.066 -2.82694 -4.70506 0
M  V30 4818 H 447.327 -1.14522 -4.27009 0
M  V30 4819 N 446.386 1.0089 -1.21074 0
M  V30 4820 C 447.349 2.0775 -0.968129 0
M  V30 4821 C 448.349 1.6069 0.0593445 0
M  V30 4822 O 449.539 1.73293 -0.177525 0
M  V30 4823 C 446.671 3.37794 -0.459108 0
M  V30 4824 H 447.864 2.30707 -1.9161 0
M  V30 4825 H 445.417 1.17807 -1.02719 0
M  V30 4826 H 446.152 3.20516 0.49397 0
M  V30 4827 H 445.937 3.7328 -1.20019 0
M  V30 4828 H 447.427 4.16454 -0.309099 0
M  V30 4829 N 447.864 1.01787 1.20321 0
M  V30 4830 C 449.275 0.739307 1.71438 0
M  V30 4831 C 449.626 -0.742041 1.81627 0
M  V30 4832 O 448.751 -1.57903 1.47971 0
M  V30 4833 C 449.346 1.33538 3.11373 0
M  V30 4834 C 447.905 1.10566 3.59795 0
M  V30 4835 C 447.052 1.44028 2.36962 0
M  V30 4836 H 450.003 1.18718 1.05317 0
M  V30 4837 H 450.024 0.726611 3.73498 0
M  V30 4838 H 449.536 2.41352 3.03926 0
M  V30 4839 H 447.637 0.0452405 3.72573 0
M  V30 4840 H 447.75 1.78661 4.44542 0
M  V30 4841 H 446.114 0.85933 2.39766 0
M  V30 4842 H 446.897 2.52901 2.32155 0
M  V30 4843 N 449.342 -1.36122 0.79427 0
M  V30 4844 C 450.289 -2.29982 0.194101 0
M  V30 4845 C 451.259 -1.52214 -0.664833 0
M  V30 4846 O 452.444 -1.80702 -0.612498 0
M  V30 4847 C 449.584 -3.38706 -0.661244 0
M  V30 4848 C 448.697 -4.31456 0.216766 0
M  V30 4849 C 447.832 -5.27265 -0.645411 0
M  V30 4850 C 446.871 -6.11653 0.233756 0
M  V30 4851 N 446.008 -6.99636 -0.587682 0
M  V30 4852 H 450.848 -2.80722 0.999965 0
M  V30 4853 H 448.385 -1.38172 0.504677 0
M  V30 4854 H 450.343 -4.00394 -1.17219 0
M  V30 4855 H 448.973 -2.89274 -1.43249 0
M  V30 4856 H 448.025 -3.7088 0.845724 0
M  V30 4857 H 449.337 -4.90724 0.893973 0
M  V30 4858 H 448.491 -5.94266 -1.22198 0
M  V30 4859 H 447.23 -4.68463 -1.35623 0
M  V30 4860 H 446.235 -5.4361 0.82269 0
M  V30 4861 H 447.46 -6.72531 0.942247 0
M  V30 4862 H 445.406 -6.43337 -1.2827 0
M  V30 4863 H 445.323 -7.55993 0.0317402 0
M  V30 4864 H 446.591 -7.71001 -1.14792 0
M  V30 4865 N 450.82 -0.546701 -1.47814 0
M  V30 4866 C 452.048 -0.0232857 -2.06887 0
M  V30 4867 C 452.463 1.26571 -1.4009 0
M  V30 4868 O 451.82 1.7569 -0.493906 0
M  V30 4869 C 451.871 0.186975 -3.61016 0
M  V30 4870 O 451.592 -1.05097 -4.25307 0
M  V30 4871 C 453.093 0.748872 -4.36929 0
M  V30 4872 H 450.313 -0.0410763 -0.669742 0
M  V30 4873 H 452.857 -0.757117 -1.89968 0
M  V30 4874 H 451.012 0.870903 -3.77484 0
M  V30 4875 H 451.426 -0.842121 -5.17695 0
M  V30 4876 H 452.9 0.845334 -5.45489 0
M  V30 4877 H 453.377 1.75772 -4.02493 0
M  V30 4878 H 453.983 0.100979 -4.2518 0
M  V30 4879 N 452.299 1.55045 -0.282633 0
M  V30 4880 C 453.229 2.2579 0.595066 0
M  V30 4881 C 454.21 1.25074 1.15284 0
M  V30 4882 O 455.395 1.5381 1.18559 0
M  V30 4883 C 452.525 2.98472 1.77572 0
M  V30 4884 C 451.479 4.0618 1.34914 0
M  V30 4885 C 450.805 4.66477 2.6135 0
M  V30 4886 C 452.105 5.1996 0.493821 0
M  V30 4887 H 453.799 2.994 0.00505653 0
M  V30 4888 H 451.345 1.44 0.000992001 0
M  V30 4889 H 453.298 3.46677 2.39568 0
M  V30 4890 H 452.022 2.2241 2.39168 0
M  V30 4891 H 450.681 3.58797 0.752338 0
M  V30 4892 H 450.329 3.87074 3.2122 0
M  V30 4893 H 450.029 5.39207 2.33516 0
M  V30 4894 H 451.553 5.17435 3.24181 0
M  V30 4895 H 452.967 5.64172 1.01898 0
M  V30 4896 H 451.364 5.99299 0.310047 0
M  V30 4897 H 452.434 4.82462 -0.485593 0
M  V30 4898 N 453.777 0.010035 1.57597 0
M  V30 4899 C 455.024 -0.6727 1.91 0
M  V30 4900 C 455.352 -1.73219 0.884614 0
M  V30 4901 O 454.607 -1.95395 -0.109215 0
M  V30 4902 C 454.906 -1.34434 3.31153 0
M  V30 4903 C 454.572 -0.417083 4.48967 0
M  V30 4904 C 453.234 -0.161809 4.80928 0
M  V30 4905 C 455.586 0.220753 5.20732 0
M  V30 4906 C 452.914 0.739426 5.82022 0
M  V30 4907 C 455.266 1.10993 6.22787 0
M  V30 4908 C 453.93 1.37428 6.532 0
M  V30 4909 H 453.2 -0.246158 0.698918 0
M  V30 4910 H 455.847 0.0677145 1.9138 0
M  V30 4911 H 454.152 -2.15905 3.26944 0
M  V30 4912 H 455.849 -1.87883 3.54261 0
M  V30 4913 H 452.439 -0.626217 4.24001 0
M  V30 4914 H 456.623 0.0365643 4.96287 0
M  V30 4915 H 451.879 0.952139 6.03941 0
M  V30 4916 H 456.053 1.61046 6.77523 0
M  V30 4917 H 453.68 2.0743 7.31353 0
M  V30 4918 N 455.255 -1.55392 -0.262866 0
M  V30 4919 C 456.218 -1.88181 -1.30846 0
M  V30 4920 C 457.218 -0.757079 -1.41862 0
M  V30 4921 O 458.408 -1.02519 -1.40838 0
M  V30 4922 C 455.54 -2.09609 -2.68844 0
M  V30 4923 H 456.733 -2.81659 -1.02997 0
M  V30 4924 H 454.286 -1.48039 -0.501414 0
M  V30 4925 H 455.021 -1.18547 -3.01856 0
M  V30 4926 H 454.806 -2.91508 -2.62231 0
M  V30 4927 H 456.296 -2.36215 -3.44372 0
M  V30 4928 N 456.733 0.527833 -1.48498 0
M  V30 4929 C 457.681 1.65313 -1.63628 0
M  V30 4930 C 458.675 1.6177 -0.502676 0
M  V30 4931 O 459.881 1.66601 -0.681469 0
M  V30 4932 H 456.256 0.547518 -0.515488 0
M  V30 4933 H 458.227 1.49696 -2.58135 0
M  V30 4934 C 456.976 3.03576 -1.6952 0
M  V30 4935 H 456.299 3.06997 -2.56111 0
M  V30 4936 H 457.739 3.81923 -1.84149 0
M  V30 4937 C 456.198 3.34089 -0.43432 0
M  V30 4938 O 456.728 3.99151 0.451852 0
M  V30 4939 N 454.934 2.88991 -0.305368 0
M  V30 4940 H 454.481 2.36222 -1.02747 0
M  V30 4941 H 454.439 3.09776 0.537249 0
M  V30 4942 N 458.211 1.37122 0.776871 0
M  V30 4943 C 459.459 1.31787 1.53221 0
M  V30 4944 C 459.78 -0.0987589 1.9475 0
M  V30 4945 O 459.05 -1.0417 1.65908 0
M  V30 4946 H 457.63 0.484839 0.568278 0
M  V30 4947 H 460.292 1.71556 0.924917 0
M  V30 4948 H 459.388 1.95355 2.43398 0
M  V30 4949 N 459.689 -1.00246 1.21608 0
M  V30 4950 C 460.914 -1.78167 1.06167 0
M  V30 4951 C 461.339 -1.84138 -0.384035 0
M  V30 4952 O 460.697 -1.28683 -1.27712 0
M  V30 4953 C 460.745 -3.19786 1.66642 0
M  V30 4954 O 459.849 -4.02153 0.913613 0
M  V30 4955 H 459.19 -0.549 0.37349 0
M  V30 4956 H 461.72 -1.25994 1.61204 0
M  V30 4957 H 461.73 -3.70451 1.70969 0
M  V30 4958 H 460.405 -3.14754 2.7185 0
M  V30 4959 H 458.982 -3.60711 0.945635 0
M  V30 4960 N 461.167 -1.02423 -1.1978 0
M  V30 4961 C 462.416 -0.713265 -1.88667 0
M  V30 4962 C 462.729 0.7609 -1.80193 0
M  V30 4963 O 463.935 1.18473 -2.44288 0
M  V30 4964 C 462.391 -1.22545 -3.38394 0
M  V30 4965 C 461.999 -2.72706 -3.55437 0
M  V30 4966 C 463.743 -0.990257 -4.12788 0
M  V30 4967 C 461.65 -3.17367 -4.99031 0
M  V30 4968 H 460.58 -0.263105 -0.706606 0
M  V30 4969 H 463.231 -1.23792 -1.35454 0
M  V30 4970 H 461.613 -0.628732 -3.90977 0
M  V30 4971 H 462.787 -3.37993 -3.13205 0
M  V30 4972 H 461.102 -2.94453 -2.94425 0
M  V30 4973 H 463.699 -1.29926 -5.18675 0
M  V30 4974 H 464.042 0.0730761 -4.16236 0
M  V30 4975 H 464.575 -1.55074 -3.66329 0
M  V30 4976 H 461.314 -4.23009 -5.00743 0
M  V30 4977 H 460.834 -2.56805 -5.42044 0
M  V30 4978 H 462.513 -3.10441 -5.67658 0
M  V30 4979 N 462.645 1.35699 -0.801477 0
M  V30 4980 C 463.875 2.02862 -0.3912 0
M  V30 4981 C 464.283 1.60552 1.00099 0
M  V30 4982 O 463.626 0.796215 1.65548 0
M  V30 4983 C 463.688 3.57386 -0.389299 0
M  V30 4984 C 463.352 4.22943 -1.73113 0
M  V30 4985 C 464.349 4.44984 -2.68859 0
M  V30 4986 C 462.034 4.60167 -2.01373 0
M  V30 4987 C 464.028 5.03345 -3.91053 0
M  V30 4988 C 461.715 5.18243 -3.23832 0
M  V30 4989 C 462.713 5.39773 -4.1849 0
M  V30 4990 O 462.401 5.96626 -5.38788 0
M  V30 4991 H 462.133 0.657341 -0.157732 0
M  V30 4992 H 464.687 1.74407 -1.08496 0
M  V30 4993 H 462.917 3.85011 0.361031 0
M  V30 4994 H 464.606 4.059 -0.0020365 0
M  V30 4995 H 465.372 4.1661 -2.48316 0
M  V30 4996 H 461.251 4.42726 -1.28508 0
M  V30 4997 H 464.795 5.20065 -4.64949 0
M  V30 4998 H 460.692 5.46044 -3.44248 0
M  V30 4999 H 461.46 6.15082 -5.40015 0
M  V30 5000 N 464.123 0.554532 1.47522 0
M  V30 5001 C 465.534 0.120446 1.86311 0
M  V30 5002 C 465.885 -1.30904 1.46145 0
M  V30 5003 O 465.01 -1.98434 0.863294 0
M  V30 5004 C 465.605 0.211808 3.38137 0
M  V30 5005 C 464.164 -0.167224 3.76028 0
M  V30 5006 C 463.311 0.560576 2.71575 0
M  V30 5007 H 466.262 0.764408 1.39077 0
M  V30 5008 H 466.283 -0.570275 3.76202 0
M  V30 5009 H 465.795 1.25232 3.6734 0
M  V30 5010 H 463.896 -1.20894 3.52442 0
M  V30 5011 H 464.009 0.189473 4.78725 0
M  V30 5012 H 462.373 0.00396836 2.547 0
M  V30 5013 H 463.156 1.60219 3.0362 0
M  V30 5014 N 465.601 -1.54893 0.290851 0
M  V30 5015 C 467.012 -1.85584 -0.203816 0
M  V30 5016 C 467.363 -1.21285 -1.54222 0
M  V30 5017 O 466.488 -0.506841 -2.10381 0
M  V30 5018 C 467.083 -3.367 -0.376595 0
M  V30 5019 C 465.642 -3.6746 -0.815485 0
M  V30 5020 C 464.789 -2.77178 0.0821087 0
M  V30 5021 H 467.74 -1.50208 0.512175 0
M  V30 5022 H 467.761 -3.60656 -1.21275 0
M  V30 5023 H 467.273 -3.8347 0.59767 0
M  V30 5024 H 465.374 -3.26201 -1.80066 0
M  V30 5025 H 465.487 -4.7478 -0.641905 0
M  V30 5026 H 463.851 -2.50925 -0.436895 0
M  V30 5027 H 464.634 -3.26767 1.05254 0
M  V30 5028 N 467.08 -0.0183926 -1.57589 0
M  V30 5029 C 468.028 0.985111 -2.10709 0
M  V30 5030 C 469.022 1.34397 -1.0312 0
M  V30 5031 O 470.228 1.32746 -1.21567 0
M  V30 5032 H 466.603 0.335418 -0.673052 0
M  V30 5033 H 468.574 0.511689 -2.9398 0
M  V30 5034 C 467.323 2.26202 -2.64061 0
M  V30 5035 H 466.646 1.9946 -3.4649 0
M  V30 5036 H 468.086 2.94652 -3.04887 0
M  V30 5037 C 466.545 2.98444 -1.5631 0
M  V30 5038 O 467.075 3.90142 -0.956674 0
M  V30 5039 N 465.281 2.6059 -1.28612 0
M  V30 5040 H 464.828 1.86101 -1.78112 0
M  V30 5041 H 464.786 3.09238 -0.567406 0
M  V30 5042 N 468.558 1.5553 0.254621 0
M  V30 5043 C 469.468 1.92789 1.33677 0
M  V30 5044 C 470.484 0.827356 1.53071 0
M  V30 5045 O 471.66 1.12807 1.66843 0
M  V30 5046 C 468.725 2.20827 2.67275 0
M  V30 5047 C 467.786 3.4427 2.5647 0
M  V30 5048 C 467.019 3.70961 3.83697 0
M  V30 5049 O 467.242 2.99852 4.85227 0
M  V30 5050 O 466.176 4.64491 3.82794 0
M  V30 5051 H 470.002 2.84945 1.05071 0
M  V30 5052 H 467.587 1.42312 0.454723 0
M  V30 5053 H 469.469 2.40204 3.46237 0
M  V30 5054 H 468.144 1.31851 2.9563 0
M  V30 5055 H 467.051 3.30209 1.75821 0
M  V30 5056 H 468.384 4.33524 2.33062 0
M  V30 5057 N 470.036 -0.519951 1.48776 0
M  V30 5058 C 471.284 -1.2727 1.56993 0
M  V30 5059 C 471.605 -1.9339 0.25004 0
M  V30 5060 O 470.875 -1.81822 -0.729216 0
M  V30 5061 H 469.455 -0.472732 0.578389 0
M  V30 5062 H 472.117 -0.604234 1.85297 0
M  V30 5063 H 471.213 -2.04669 2.3562 0
M  V30 5064 N 471.514 -1.37532 -0.769588 0
M  V30 5065 C 472.761 -1.3286 -1.52822 0
M  V30 5066 C 473.089 0.0862597 -1.94309 0
M  V30 5067 O 472.344 1.05995 -1.6451 0
M  V30 5068 C 472.643 -2.21558 -2.8044 0
M  V30 5069 C 472.309 -3.69796 -2.57996 0
M  V30 5070 C 470.971 -4.10194 -2.51583 0
M  V30 5071 C 473.323 -4.63699 -2.37976 0
M  V30 5072 C 470.651 -5.42608 -2.23144 0
M  V30 5073 C 473.003 -5.96353 -2.1106 0
M  V30 5074 C 471.667 -6.35853 -2.03093 0
M  V30 5075 H 470.937 -0.486168 -0.559215 0
M  V30 5076 H 473.584 -1.69757 -0.886277 0
M  V30 5077 H 471.889 -1.77663 -3.49204 0
M  V30 5078 H 473.586 -2.15256 -3.38328 0
M  V30 5079 H 470.176 -3.37759 -2.63851 0
M  V30 5080 H 474.36 -4.33346 -2.41919 0
M  V30 5081 H 469.616 -5.72173 -2.15472 0
M  V30 5082 H 473.79 -6.68667 -1.94568 0
M  V30 5083 H 471.417 -7.38382 -1.8082 0
M  V30 5084 N 472.992 0.995999 -1.22138 0
M  V30 5085 C 474.232 1.75032 -1.05561 0
M  V30 5086 C 474.596 1.87729 0.402698 0
M  V30 5087 O 475.797 2.59813 0.689234 0
M  V30 5088 C 474.068 3.11973 -1.74379 0
M  V30 5089 S 475.627 4.03182 -1.73175 0
M  V30 5090 H 472.445 0.602137 -0.37809 0
M  V30 5091 H 475.047 1.19107 -1.55028 0
M  V30 5092 H 473.751 3.00371 -2.79652 0
M  V30 5093 H 473.282 3.7297 -1.25128 0
M  V30 5094 H 475.297 4.90043 -0.77923 0
M  V30 5095 N 474.47 1.03057 1.19235 0
M  V30 5096 C 475.881 0.757449 1.70645 0
M  V30 5097 C 476.232 -0.722735 1.82403 0
M  V30 5098 O 475.357 -1.56325 1.49638 0
M  V30 5099 C 475.952 1.36833 3.09939 0
M  V30 5100 C 474.511 1.14375 3.58602 0
M  V30 5101 C 473.658 1.46533 2.35422 0
M  V30 5102 H 476.609 1.19828 1.04052 0
M  V30 5103 H 476.63 0.766184 3.72706 0
M  V30 5104 H 476.142 2.44562 3.01349 0
M  V30 5105 H 474.243 0.0847542 3.72504 0
M  V30 5106 H 474.356 1.83366 4.42622 0
M  V30 5107 H 472.72 0.884712 2.38841 0
M  V30 5108 H 473.503 2.55349 2.2946 0
M  V30 5109 N 475.948 -1.35272 0.808662 0
M  V30 5110 C 477.188 -2.00534 0.395668 0
M  V30 5111 C 477.552 -1.62755 -1.01857 0
M  V30 5112 O 478.753 -2.20752 -1.53368 0
M  V30 5113 C 477.024 -3.52732 0.575771 0
M  V30 5114 S 478.583 -4.38067 0.253507 0
M  V30 5115 H 475.401 -0.694962 0.150165 0
M  V30 5116 H 478.003 -1.64823 1.05137 0
M  V30 5117 H 476.707 -3.77714 1.60499 0
M  V30 5118 H 476.238 -3.93285 -0.0951739 0
M  V30 5119 H 478.253 -4.87252 -0.938068 0
M  V30 5120 N 477.426 -0.562348 -1.47226 0
M  V30 5121 C 478.356 0.170627 -2.32876 0
M  V30 5122 C 479.337 0.903748 -1.44106 0
M  V30 5123 O 480.522 0.883206 -1.72954 0
M  V30 5124 C 477.652 1.19786 -3.25989 0
M  V30 5125 C 476.606 0.580875 -4.2404 0
M  V30 5126 C 475.932 1.71311 -5.06514 0
M  V30 5127 C 477.232 -0.468714 -5.20193 0
M  V30 5128 H 478.926 -0.544441 -2.94408 0
M  V30 5129 H 476.472 -0.263271 -1.41573 0
M  V30 5130 H 478.425 1.71884 -3.84752 0
M  V30 5131 H 477.149 1.94294 -2.62521 0
M  V30 5132 H 475.808 0.0811538 -3.6651 0
M  V30 5133 H 475.456 2.44736 -4.39447 0
M  V30 5134 H 475.156 1.30604 -5.72902 0
M  V30 5135 H 476.68 2.23725 -5.68137 0
M  V30 5136 H 478.094 -0.0336028 -5.7329 0
M  V30 5137 H 476.491 -0.794957 -5.94811 0
M  V30 5138 H 477.561 -1.36269 -4.65359 0
M  V30 5139 N 478.904 1.54736 -0.299062 0
M  V30 5140 C 479.814 2.27127 0.587413 0
M  V30 5141 C 480.83 1.30575 1.15005 0
M  V30 5142 O 482.006 1.63554 1.17525 0
M  V30 5143 C 479.071 2.99645 1.74395 0
M  V30 5144 C 478.132 4.11731 1.21559 0
M  V30 5145 C 477.365 4.80781 2.317 0
M  V30 5146 O 477.588 4.4918 3.51558 0
M  V30 5147 O 476.522 5.68226 1.98501 0
M  V30 5148 H 480.348 3.037 0.000250109 0
M  V30 5149 H 477.933 1.49256 -0.0655919 0
M  V30 5150 H 479.815 3.45138 2.4178 0
M  V30 5151 H 478.49 2.25969 2.31775 0
M  V30 5152 H 477.397 3.70641 0.507514 0
M  V30 5153 H 478.73 4.87379 0.687233 0
M  V30 5154 N 480.382 0.0267497 1.57577 0
M  V30 5155 C 481.607 -0.666227 1.96408 0
M  V30 5156 C 482.032 -1.65004 0.903071 0
M  V30 5157 O 481.39 -1.80787 -0.136263 0
M  V30 5158 C 481.438 -1.35101 3.34335 0
M  V30 5159 O 480.542 -2.46623 3.30531 0
M  V30 5160 H 479.883 -0.175206 0.640468 0
M  V30 5161 H 482.413 0.0878977 2.04411 0
M  V30 5162 H 482.423 -1.70834 3.70513 0
M  V30 5163 H 481.098 -0.629844 4.11103 0
M  V30 5164 H 479.675 -2.13019 3.06068 0
M  V30 5165 N 481.861 -1.55662 -0.24637 0
M  V30 5166 C 483.109 -1.77168 -0.972411 0
M  V30 5167 C 483.43 -0.590827 -1.85834 0
M  V30 5168 O 482.7 0.393365 -1.9191 0
M  V30 5169 H 481.28 -0.653405 -0.362038 0
M  V30 5170 H 483.942 -1.93101 -0.264189 0
M  V30 5171 H 483.038 -2.68335 -1.59382 0
M  V30 5172 N 483.339 0.512053 -1.4905 0
M  V30 5173 C 484.588 1.26343 -1.57227 0
M  V30 5174 C 484.901 1.93876 -0.259155 0
M  V30 5175 O 486.107 2.70612 -0.219358 0
M  V30 5176 C 484.563 2.29343 -2.77362 0
M  V30 5177 C 484.171 1.67799 -4.15388 0
M  V30 5178 C 485.915 3.05378 -2.94864 0
M  V30 5179 C 483.822 2.68845 -5.2676 0
M  V30 5180 H 482.752 0.475231 -0.585382 0
M  V30 5181 H 485.403 0.53862 -1.75417 0
M  V30 5182 H 483.785 3.04938 -2.52643 0
M  V30 5183 H 484.959 0.982715 -4.50199 0
M  V30 5184 H 483.274 1.04194 -4.03153 0
M  V30 5185 H 485.871 3.80921 -3.75238 0
M  V30 5186 H 486.214 3.62327 -2.05 0
M  V30 5187 H 486.747 2.36898 -3.19569 0
M  V30 5188 H 483.486 2.16692 -6.18647 0
M  V30 5189 H 483.006 3.36647 -4.96416 0
M  V30 5190 H 484.685 3.31487 -5.5563 0
M  V30 5191 N 484.817 1.37938 0.762283 0
M  V30 5192 C 485.749 1.30349 1.88525 0
M  V30 5193 C 486.762 0.217402 1.61342 0
M  V30 5194 O 487.951 0.474291 1.72084 0
M  V30 5195 C 485.051 0.994844 3.23969 0
M  V30 5196 C 484.224 2.18829 3.78725 0
M  V30 5197 C 483.283 1.84844 4.92665 0
M  V30 5198 O 482.309 2.57244 5.07754 0
M  V30 5199 N 483.511 0.798201 5.74986 0
M  V30 5200 H 486.276 2.27114 1.95549 0
M  V30 5201 H 483.837 1.31686 0.941825 0
M  V30 5202 H 485.829 0.748168 3.97724 0
M  V30 5203 H 484.399 0.115446 3.12387 0
M  V30 5204 H 483.619 2.59615 2.96637 0
M  V30 5205 H 484.907 2.98497 4.1204 0
M  V30 5206 H 484.305 0.197611 5.65355 0
M  V30 5207 H 482.862 0.611396 6.48926 0
M  V30 5208 N 486.295 -0.989507 1.22664 0
M  V30 5209 C 487.243 -2.10148 0.997035 0
M  V30 5210 C 488.237 -1.6929 -0.0609783 0
M  V30 5211 O 489.443 -1.79766 0.0917523 0
M  V30 5212 H 485.818 -0.687256 0.305259 0
M  V30 5213 H 487.789 -2.26685 1.94053 0
M  V30 5214 C 486.538 -3.4257 0.595085 0
M  V30 5215 H 485.861 -3.74453 1.40089 0
M  V30 5216 H 487.301 -4.21344 0.473869 0
M  V30 5217 C 485.76 -3.29638 -0.695725 0
M  V30 5218 O 486.29 -3.61709 -1.74727 0
M  V30 5219 N 484.496 -2.82814 -0.668173 0
M  V30 5220 H 484.043 -2.56914 0.18787 0
M  V30 5221 H 484.001 -2.74544 -1.5321 0
M  V30 5222 N 487.773 -1.03688 -1.18687 0
M  V30 5223 C 489.019 -0.739123 -1.88851 0
M  V30 5224 C 489.352 0.731042 -1.79915 0
M  V30 5225 O 488.627 1.53313 -1.19688 0
M  V30 5226 C 488.91 -1.20106 -3.3948 0
M  V30 5227 C 488.763 -2.73304 -3.57246 0
M  V30 5228 C 490.082 -0.788134 -4.32986 0
M  V30 5229 H 487.201 -0.269978 -0.68577 0
M  V30 5230 H 489.843 -1.28822 -1.3966 0
M  V30 5231 H 487.993 -0.733915 -3.81505 0
M  V30 5232 H 489.665 -3.28027 -3.24339 0
M  V30 5233 H 487.908 -3.13313 -3.00029 0
M  V30 5234 H 488.579 -3.00684 -4.62918 0
M  V30 5235 H 491.055 -1.19005 -3.98719 0
M  V30 5236 H 489.931 -1.13915 -5.36949 0
M  V30 5237 H 490.192 0.308988 -4.41019 0
M  V30 5238 N 489.251 1.34841 -0.815825 0
M  V30 5239 C 490.476 2.03261 -0.41226 0
M  V30 5240 C 490.901 1.61055 0.971751 0
M  V30 5241 O 490.259 0.7917 1.63101 0
M  V30 5242 C 490.307 3.56914 -0.514289 0
M  V30 5243 O 489.411 4.09728 0.468675 0
M  V30 5244 H 488.752 0.641664 -0.170771 0
M  V30 5245 H 491.282 1.72241 -1.10427 0
M  V30 5246 H 491.292 4.06156 -0.387457 0
M  V30 5247 H 489.967 3.86982 -1.52375 0
M  V30 5248 H 488.544 3.71681 0.301316 0
M  V30 5249 N 490.729 0.570148 1.46925 0
M  V30 5250 C 491.957 0.0561966 2.06824 0
M  V30 5251 C 492.372 -1.24326 1.42086 0
M  V30 5252 O 491.729 -1.74882 0.521794 0
M  V30 5253 C 491.78 -0.129517 3.61268 0
M  V30 5254 O 491.501 1.1185 4.23581 0
M  V30 5255 C 493.002 -0.679266 4.38065 0
M  V30 5256 H 490.222 0.0517261 0.669003 0
M  V30 5257 H 492.766 0.787243 1.8874 0
M  V30 5258 H 490.921 -0.810739 3.78822 0
M  V30 5259 H 491.335 0.924375 5.1629 0
M  V30 5260 H 492.809 -0.758445 5.46765 0
M  V30 5261 H 493.286 -1.69346 4.05239 0
M  V30 5262 H 493.892 -0.0333237 4.25287 0
M  V30 5263 N 492.207 -1.54576 0.307264 0
M  V30 5264 C 493.447 -2.02172 -0.300962 0
M  V30 5265 C 493.811 -1.19081 -1.50611 0
M  V30 5266 O 495.012 -1.56405 -2.18612 0
M  V30 5267 C 493.283 -3.51576 -0.642591 0
M  V30 5268 S 494.842 -4.21127 -1.23279 0
M  V30 5269 H 491.66 -0.705021 -0.0920141 0
M  V30 5270 H 494.262 -1.90563 0.436594 0
M  V30 5271 H 492.966 -4.09681 0.242901 0
M  V30 5272 H 492.497 -3.67234 -1.41077 0
M  V30 5273 H 494.512 -4.27426 -2.52034 0
M  V30 5274 N 493.685 -0.035106 -1.57561 0
M  V30 5275 C 495.101 0.321334 -1.56332 0
M  V30 5276 C 495.301 1.72509 -1.04129 0
M  V30 5277 O 494.357 2.4287 -0.690694 0
M  V30 5278 C 495.67 0.164469 -3.0025 0
M  V30 5279 C 497.218 0.236786 -3.12103 0
M  V30 5280 C 497.693 0.10864 -4.57871 0
M  V30 5281 N 499.184 0.165433 -4.62904 0
M  V30 5282 C 499.919 0.0901506 -5.73329 0
M  V30 5283 N 499.415 -0.0365606 -6.9279 0
M  V30 5284 N 501.208 0.144572 -5.61914 0
M  V30 5285 H 493.359 -0.952976 -1.89821 0
M  V30 5286 H 495.622 -0.368537 -0.873432 0
M  V30 5287 H 495.328 -0.802746 -3.42416 0
M  V30 5288 H 495.202 0.932194 -3.655 0
M  V30 5289 H 497.589 1.19446 -2.69845 0
M  V30 5290 H 497.67 -0.561419 -2.49563 0
M  V30 5291 H 497.314 -0.845644 -5.00811 0
M  V30 5292 H 497.244 0.925786 -5.18398 0
M  V30 5293 H 499.735 0.263269 -3.76982 0
M  V30 5294 H 500.048 -0.0871487 -7.72751 0
M  V30 5295 H 498.393 -0.0714256 -6.94963 0
M  V30 5296 H 501.584 0.242006 -4.67474 0
M  V30 5297 H 501.757 0.0824413 -6.47948 0
M  V30 5298 N 495.163 1.55791 0.238111 0
M  V30 5299 C 496.41 1.78033 0.964907 0
M  V30 5300 C 496.738 0.600984 1.84982 0
M  V30 5301 O 495.993 -0.41536 1.91241 0
M  V30 5302 C 496.292 3.05869 1.84875 0
M  V30 5303 C 495.958 4.36808 1.11846 0
M  V30 5304 C 494.62 4.72388 0.916662 0
M  V30 5305 C 496.972 5.17717 0.60151 0
M  V30 5306 C 494.3 5.86406 0.185756 0
M  V30 5307 C 496.652 6.32494 -0.115972 0
M  V30 5308 C 495.316 6.66688 -0.329168 0
M  V30 5309 H 494.586 0.651469 0.353085 0
M  V30 5310 H 497.233 1.90061 0.234318 0
M  V30 5311 H 495.538 2.88891 2.64668 0
M  V30 5312 H 497.235 3.20278 2.41294 0
M  V30 5313 H 493.825 4.08862 1.28569 0
M  V30 5314 H 498.009 4.90678 0.744932 0
M  V30 5315 H 493.265 6.11399 0.0101886 0
M  V30 5316 H 497.439 6.94425 -0.524127 0
M  V30 5317 H 495.066 7.54884 -0.897474 0
M  V30 5318 N 496.642 -0.504142 1.49319 0
M  V30 5319 C 497.867 -1.28729 1.62615 0
M  V30 5320 C 498.292 -1.85752 0.296309 0
M  V30 5321 O 497.65 -1.65704 -0.735649 0
M  V30 5322 C 497.698 -2.39561 2.69524 0
M  V30 5323 O 496.802 -3.43324 2.28478 0
M  V30 5324 H 496.143 -0.380172 0.544395 0
M  V30 5325 H 498.673 -0.603872 1.95485 0
M  V30 5326 H 498.683 -2.8537 2.91595 0
M  V30 5327 H 497.358 -1.97423 3.66056 0
M  V30 5328 H 495.935 -3.03455 2.16725 0
M  V30 5329 N 498.12 -1.38341 -0.754957 0
M  V30 5330 C 499.083 -1.35262 -1.85032 0
M  V30 5331 C 500.083 -0.253393 -1.58791 0
M  V30 5332 O 501.273 -0.510205 -1.66561 0
M  V30 5333 C 498.405 -1.10544 -3.22479 0
M  V30 5334 H 499.598 -2.32712 -1.8917 0
M  V30 5335 H 497.151 -1.23614 -0.956515 0
M  V30 5336 H 497.886 -0.136952 -3.24011 0
M  V30 5337 H 497.671 -1.90127 -3.4292 0
M  V30 5338 H 499.161 -1.11082 -4.02555 0
M  V30 5339 N 499.598 0.982988 -1.23187 0
M  V30 5340 C 501.009 1.53847 -1.05773 0
M  V30 5341 C 501.36 1.92568 0.375744 0
M  V30 5342 O 500.485 1.75783 1.26211 0
M  V30 5343 C 501.08 2.79567 -1.91384 0
M  V30 5344 C 499.639 3.31524 -1.78238 0
M  V30 5345 C 498.786 2.04534 -1.87246 0
M  V30 5346 H 501.737 0.802962 -1.36888 0
M  V30 5347 H 501.758 3.52317 -1.43711 0
M  V30 5348 H 501.27 2.51353 -2.95708 0
M  V30 5349 H 499.371 3.64623 -0.766875 0
M  V30 5350 H 499.484 4.01457 -2.61475 0
M  V30 5351 H 497.848 2.1855 -1.30797 0
M  V30 5352 H 498.631 1.78706 -2.9312 0
M  V30 5353 N 501.076 1.04316 1.18135 0
M  V30 5354 C 502.006 0.657299 2.24058 0
M  V30 5355 C 502.987 -0.340678 1.66654 0
M  V30 5356 O 504.172 -0.220223 1.92947 0
M  V30 5357 C 501.302 0.0220715 3.47293 0
M  V30 5358 C 500.256 0.943857 4.17463 0
M  V30 5359 C 499.582 0.172973 5.3442 0
M  V30 5360 C 500.882 2.26409 4.70677 0
M  V30 5361 H 502.576 1.5428 2.56589 0
M  V30 5362 H 500.122 0.743263 1.23335 0
M  V30 5363 H 502.075 -0.259607 4.206 0
M  V30 5364 H 500.799 -0.898323 3.14003 0
M  V30 5365 H 499.458 1.20996 3.46057 0
M  V30 5366 H 499.106 -0.749907 4.97379 0
M  V30 5367 H 498.806 0.787098 5.82304 0
M  V30 5368 H 500.33 -0.101628 6.10515 0
M  V30 5369 H 501.744 2.04294 5.35665 0
M  V30 5370 H 500.141 2.8314 5.29105 0
M  V30 5371 H 501.211 2.90883 3.87962 0
M  V30 5372 N 502.554 -1.34406 0.822964 0
M  V30 5373 C 503.801 -1.98284 0.411057 0
M  V30 5374 C 504.129 -1.65245 -1.02588 0
M  V30 5375 O 503.384 -0.91619 -1.72929 0
M  V30 5376 C 503.683 -3.52981 0.560268 0
M  V30 5377 C 503.349 -4.05931 1.96293 0
M  V30 5378 C 502.011 -4.20103 2.34664 0
M  V30 5379 C 504.363 -4.34412 2.87985 0
M  V30 5380 C 501.691 -4.60082 3.64062 0
M  V30 5381 C 504.043 -4.75838 4.16847 0
M  V30 5382 C 502.707 -4.88215 4.55195 0
M  V30 5383 H 501.977 -0.725573 0.150416 0
M  V30 5384 H 504.624 -1.60349 1.04692 0
M  V30 5385 H 502.929 -3.91477 -0.158982 0
M  V30 5386 H 504.626 -4.00385 0.222087 0
M  V30 5387 H 501.216 -3.95363 1.65487 0
M  V30 5388 H 505.4 -4.23001 2.59584 0
M  V30 5389 H 500.656 -4.67856 3.93599 0
M  V30 5390 H 504.83 -4.96834 4.87984 0
M  V30 5391 H 502.457 -5.18952 5.55512 0
M  V30 5392 N 504.032 -0.577932 -1.46621 0
M  V30 5393 C 504.962 0.145917 -2.33044 0
M  V30 5394 C 505.943 0.888412 -1.45056 0
M  V30 5395 O 507.128 0.864812 -1.73881 0
M  V30 5396 C 504.258 1.16322 -3.27241 0
M  V30 5397 C 503.212 0.535868 -4.24632 0
M  V30 5398 C 502.538 1.65929 -5.08303 0
M  V30 5399 C 503.838 -0.523861 -5.19666 0
M  V30 5400 H 505.532 -0.575636 -2.93814 0
M  V30 5401 H 503.078 -0.278272 -1.41286 0
M  V30 5402 H 505.031 1.67793 -3.86553 0
M  V30 5403 H 503.755 1.91498 -2.64567 0
M  V30 5404 H 502.414 0.0422759 -3.66576 0
M  V30 5405 H 502.062 2.40061 -4.42018 0
M  V30 5406 H 501.762 1.2452 -5.74255 0
M  V30 5407 H 503.286 2.17686 -5.70478 0
M  V30 5408 H 504.7 -0.0944059 -5.73222 0
M  V30 5409 H 503.097 -0.858 -5.93935 0
M  V30 5410 H 504.167 -1.41197 -4.63887 0
M  V30 5411 N 505.51 1.54411 -0.315457 0
M  V30 5412 C 506.735 2.05299 0.294496 0
M  V30 5413 C 507.16 1.19052 1.4563 0
M  V30 5414 O 506.518 0.197804 1.80218 0
M  V30 5415 C 506.566 3.5345 0.714549 0
M  V30 5416 O 505.67 3.70175 1.81781 0
M  V30 5417 H 505.011 0.661743 0.0547019 0
M  V30 5418 H 507.541 1.99327 -0.461508 0
M  V30 5419 H 507.551 3.9557 0.999426 0
M  V30 5420 H 506.226 4.1568 -0.135244 0
M  V30 5421 H 504.803 3.3996 1.53236 0
M  V30 5422 N 506.988 0.0434614 1.5754 0
M  V30 5423 C 507.938 -0.943039 2.07583 0
M  V30 5424 C 508.922 -1.27662 0.979342 0
M  V30 5425 O 510.114 -1.26034 1.24276 0
M  V30 5426 C 507.243 -2.22056 2.61813 0
M  V30 5427 C 506.329 -1.91471 3.78417 0
M  V30 5428 N 506.72 -1.31214 4.88484 0
M  V30 5429 C 505.018 -2.21384 3.87176 0
M  V30 5430 C 505.719 -1.18084 5.69588 0
M  V30 5431 N 504.695 -1.68116 5.16951 0
M  V30 5432 H 508.497 -0.472354 2.90079 0
M  V30 5433 H 506.011 -0.161191 1.61598 0
M  V30 5434 H 508.008 -2.93618 2.95963 0
M  V30 5435 H 506.668 -2.69738 1.80752 0
M  V30 5436 H 507.679 -0.985318 5.08441 0
M  V30 5437 H 504.356 -2.7164 3.17046 0
M  V30 5438 H 505.746 -0.713684 6.68099 0
M  V30 5439 N 508.466 -1.55915 -0.229846 0
M  V30 5440 C 509.877 -1.68809 -0.797531 0
M  V30 5441 C 510.228 -0.643995 -1.8533 0
M  V30 5442 O 509.353 0.206492 -2.15413 0
M  V30 5443 C 509.948 -3.06043 -1.45338 0
M  V30 5444 C 508.507 -3.20819 -1.96856 0
M  V30 5445 C 507.654 -2.6472 -0.825736 0
M  V30 5446 H 510.605 -1.58699 -0.00533733 0
M  V30 5447 H 510.626 -3.01438 -2.32196 0
M  V30 5448 H 510.138 -3.82012 -0.684743 0
M  V30 5449 H 508.239 -2.49704 -2.76548 0
M  V30 5450 H 508.352 -4.27937 -2.15423 0
M  V30 5451 H 506.716 -2.22985 -1.23084 0
M  V30 5452 H 507.499 -3.43229 -0.0699019 0
M  V30 5453 N 509.944 0.496216 -1.49584 0
M  V30 5454 C 510.894 1.59422 -1.62999 0
M  V30 5455 C 511.878 1.53402 -0.485457 0
M  V30 5456 O 513.07 1.60851 -0.738649 0
M  V30 5457 C 510.199 2.98009 -1.70427 0
M  V30 5458 C 509.285 3.09008 -2.90473 0
M  V30 5459 N 509.676 2.89884 -4.14489 0
M  V30 5460 C 507.974 3.40115 -2.8851 0
M  V30 5461 C 508.675 3.0519 -4.95211 0
M  V30 5462 N 507.651 3.3428 -4.2867 0
M  V30 5463 H 511.453 1.43297 -2.56599 0
M  V30 5464 H 508.967 0.702443 -1.46422 0
M  V30 5465 H 510.964 3.76926 -1.78136 0
M  V30 5466 H 509.624 3.152 -0.77967 0
M  V30 5467 H 510.635 2.65963 -4.44392 0
M  V30 5468 H 507.312 3.63452 -2.05448 0
M  V30 5469 H 508.702 2.94856 -6.03746 0
M  V30 5470 N 511.423 1.38739 0.74761 0
M  V30 5471 C 512.67 1.35274 1.50689 0
M  V30 5472 C 512.998 -0.0553359 1.94421 0
M  V30 5473 O 512.253 -1.03365 1.66175 0
M  V30 5474 C 512.552 2.25992 2.7688 0
M  V30 5475 C 512.218 3.73854 2.5208 0
M  V30 5476 C 510.88 4.14145 2.45025 0
M  V30 5477 C 513.232 4.67427 2.30568 0
M  V30 5478 C 510.56 5.4609 2.14483 0
M  V30 5479 C 512.912 5.99635 2.01545 0
M  V30 5480 C 511.576 6.39004 1.92951 0
M  V30 5481 H 510.846 0.495003 0.55141 0
M  V30 5482 H 513.493 1.71145 0.859158 0
M  V30 5483 H 511.798 1.83196 3.46333 0
M  V30 5484 H 513.495 2.20611 3.34861 0
M  V30 5485 H 510.085 3.41913 2.58444 0
M  V30 5486 H 514.269 4.3714 2.34994 0
M  V30 5487 H 509.525 5.75528 2.06342 0
M  V30 5488 H 513.699 6.71678 1.83906 0
M  V30 5489 H 511.326 7.41165 1.6905 0
M  V30 5490 N 512.901 -0.976442 1.23707 0
M  V30 5491 C 513.831 -2.08749 1.04624 0
M  V30 5492 C 514.812 -1.70057 -0.0380956 0
M  V30 5493 O 515.997 -1.93782 0.127308 0
M  V30 5494 C 513.127 -3.41335 0.640902 0
M  V30 5495 C 512.081 -3.93947 1.67302 0
M  V30 5496 C 511.407 -5.22774 1.12301 0
M  V30 5497 C 512.707 -4.22769 3.06697 0
M  V30 5498 H 514.401 -2.24972 1.97555 0
M  V30 5499 H 511.947 -1.08108 0.951247 0
M  V30 5500 H 513.9 -4.18489 0.494434 0
M  V30 5501 H 512.624 -3.24988 -0.324099 0
M  V30 5502 H 511.283 -3.18941 1.80755 0
M  V30 5503 H 510.931 -5.0278 0.148877 0
M  V30 5504 H 510.631 -5.58942 1.81267 0
M  V30 5505 H 512.155 -6.02546 0.988479 0
M  V30 5506 H 513.569 -4.90659 2.96524 0
M  V30 5507 H 511.966 -4.70147 3.72937 0
M  V30 5508 H 513.036 -3.29885 3.55392 0
M  V30 5509 N 514.379 -1.04941 -1.1758 0
M  V30 5510 C 515.327 -0.64204 -2.23563 0
M  V30 5511 C 516.321 0.335453 -1.66045 0
M  V30 5512 O 517.527 0.20179 -1.78865 0
M  V30 5513 H 513.902 -0.18944 -0.727748 0
M  V30 5514 H 515.873 -1.54609 -2.55223 0
M  V30 5515 C 514.622 -0.0301051 -3.47687 0
M  V30 5516 H 513.945 -0.773339 -3.92249 0
M  V30 5517 H 515.385 0.217592 -4.23441 0
M  V30 5518 C 513.844 1.2225 -3.13937 0
M  V30 5519 O 514.374 2.3122 -3.28482 0
M  V30 5520 N 512.58 1.11917 -2.68185 0
M  V30 5521 H 512.127 0.232403 -2.5655 0
M  V30 5522 H 512.085 1.95814 -2.45976 0
M  V30 5523 N 515.857 1.33968 -0.830081 0
M  V30 5524 C 516.82 2.27694 -0.26235 0
M  V30 5525 C 517.82 1.50589 0.563876 0
M  V30 5526 O 519.01 1.70028 0.378941 0
M  V30 5527 C 516.142 3.35002 0.63138 0
M  V30 5528 H 517.335 2.79419 -1.08928 0
M  V30 5529 H 514.888 1.44221 -0.602486 0
M  V30 5530 H 515.623 2.88504 1.48109 0
M  V30 5531 H 515.408 3.92079 0.0403276 0
M  V30 5532 H 516.898 4.04897 1.02217 0
M  V30 5533 N 517.335 0.585699 1.46312 0
M  V30 5534 C 518.612 0.00542031 1.95599 0
M  V30 5535 C 518.992 -1.45619 1.52834 0
M  V30 5536 O 518.34 -2.14759 0.780446 0
M  V30 5537 C 518.55 0.180601 3.48532 0
M  V30 5538 C 519.898 0.049979 4.24571 0
M  V30 5539 O 520.922 0.109589 3.56031 0
M  V30 5540 O 519.781 -0.0832226 5.46437 0
M  V30 5541 H 516.875 -0.0481281 0.825598 0
M  V30 5542 H 519.421 0.654227 1.56582 0
M  V30 5543 H 518.193 1.19657 3.72556 0
M  V30 5544 H 517.816 -0.504498 3.94386 0
M  V30 5545 N 518.813 -1.54241 0.323641 0
M  V30 5546 C 520.224 -1.85975 -0.164405 0
M  V30 5547 C 520.575 -1.24529 -1.51615 0
M  V30 5548 O 519.7 -0.551351 -2.09258 0
M  V30 5549 C 520.295 -3.37424 -0.305091 0
M  V30 5550 C 518.854 -3.69107 -0.737358 0
M  V30 5551 C 518.001 -2.76942 0.140884 0
M  V30 5552 H 520.952 -1.49088 0.543922 0
M  V30 5553 H 520.973 -3.63147 -1.13598 0
M  V30 5554 H 520.485 -3.82116 0.678876 0
M  V30 5555 H 518.586 -3.29947 -1.73107 0
M  V30 5556 H 518.699 -4.76035 -0.541053 0
M  V30 5557 H 517.063 -2.51795 -0.383572 0
M  V30 5558 H 517.846 -3.24461 1.12162 0
M  V30 5559 N 520.291 -0.0518155 -1.57515 0
M  V30 5560 C 521.537 0.622745 -1.93002 0
M  V30 5561 C 521.87 1.70456 -0.930499 0
M  V30 5562 O 521.145 1.94452 0.0434086 0
M  V30 5563 C 521.428 1.21824 -3.38867 0
M  V30 5564 C 521.281 0.144434 -4.49568 0
M  V30 5565 C 522.6 2.12968 -3.8514 0
M  V30 5566 H 519.719 0.22491 -0.701844 0
M  V30 5567 H 522.361 -0.113711 -1.89659 0
M  V30 5568 H 520.511 1.8459 -3.41846 0
M  V30 5569 H 522.183 -0.48753 -4.58717 0
M  V30 5570 H 520.426 -0.527424 -4.30582 0
M  V30 5571 H 521.097 0.601127 -5.48717 0
M  V30 5572 H 523.573 1.60163 -3.8404 0
M  V30 5573 H 522.449 2.51578 -4.87852 0
M  V30 5574 H 522.71 3.03004 -3.21934 0
M  V30 5575 N 521.769 1.56035 0.221574 0
M  V30 5576 C 522.699 1.95434 1.2778 0
M  V30 5577 C 523.68 0.822564 1.48889 0
M  V30 5578 O 524.865 1.08486 1.61072 0
M  V30 5579 C 521.995 2.27102 2.62759 0
M  V30 5580 C 520.949 3.4277 2.56306 0
M  V30 5581 C 520.275 3.60043 3.95314 0
M  V30 5582 C 521.575 4.77742 2.11093 0
M  V30 5583 H 523.269 2.83912 0.950504 0
M  V30 5584 H 520.815 1.36596 0.455791 0
M  V30 5585 H 522.768 2.53256 3.36807 0
M  V30 5586 H 521.492 1.35478 2.97176 0
M  V30 5587 H 520.151 3.16664 1.84715 0
M  V30 5588 H 519.799 2.65794 4.27039 0
M  V30 5589 H 519.499 4.37841 3.91879 0
M  V30 5590 H 521.023 3.88545 4.71025 0
M  V30 5591 H 522.437 5.03102 2.74885 0
M  V30 5592 H 520.834 5.58823 2.18716 0
M  V30 5593 H 521.904 4.731 1.06321 0
M  V30 5594 N 523.247 -0.488276 1.49845 0
M  V30 5595 C 524.21 -1.57069 1.66919 0
M  V30 5596 C 525.21 -1.51445 0.540479 0
M  V30 5597 O 526.4 -1.5437 0.807188 0
M  V30 5598 C 523.532 -2.96718 1.67844 0
M  V30 5599 H 524.725 -1.43254 2.63474 0
M  V30 5600 H 522.278 -0.713435 1.39068 0
M  V30 5601 H 523.013 -3.15996 0.7292 0
M  V30 5602 H 522.798 -3.02208 2.49826 0
M  V30 5603 H 524.288 -3.75335 1.83066 0
M  V30 5604 N 524.725 -1.39134 -0.740242 0
M  V30 5605 C 525.635 -1.39697 -1.88473 0
M  V30 5606 C 526.651 -0.292403 -1.71526 0
M  V30 5607 O 527.827 -0.533021 -1.94219 0
M  V30 5608 C 524.892 -1.23382 -3.24003 0
M  V30 5609 C 523.953 -2.43763 -3.53381 0
M  V30 5610 C 523.186 -2.28216 -4.82445 0
M  V30 5611 O 523.409 -1.28288 -5.55786 0
M  V30 5612 O 522.343 -3.1709 -5.11603 0
M  V30 5613 H 526.169 -2.36159 -1.90952 0
M  V30 5614 H 523.754 -1.20194 -0.887346 0
M  V30 5615 H 525.636 -1.16395 -4.05006 0
M  V30 5616 H 524.311 -0.300121 -3.22306 0
M  V30 5617 H 523.218 -2.56325 -2.72485 0
M  V30 5618 H 524.551 -3.35808 -3.59852 0
M  V30 5619 N 526.204 0.969867 -1.24223 0
M  V30 5620 C 527.167 2.04564 -1.03373 0
M  V30 5621 C 528.167 1.60798 0.00819206 0
M  V30 5622 O 529.357 1.72641 -0.232567 0
M  V30 5623 C 526.489 3.36163 -0.566343 0
M  V30 5624 H 527.682 2.24494 -1.98853 0
M  V30 5625 H 525.235 1.1448 -1.06415 0
M  V30 5626 H 525.97 3.21925 0.391751 0
M  V30 5627 H 525.755 3.69273 -1.31834 0
M  V30 5628 H 527.245 4.1526 -0.441435 0
M  V30 5629 N 527.682 1.05563 1.17022 0
M  V30 5630 C 528.928 0.769074 1.87652 0
M  V30 5631 C 529.261 -0.702326 1.81055 0
M  V30 5632 O 528.536 -1.5139 1.22112 0
M  V30 5633 C 528.819 1.25492 3.37526 0
M  V30 5634 C 528.672 2.78953 3.52853 0
M  V30 5635 C 529.991 0.856919 4.31677 0
M  V30 5636 H 527.11 0.280854 0.681388 0
M  V30 5637 H 529.752 1.31027 1.37593 0
M  V30 5638 H 527.902 0.794516 3.80289 0
M  V30 5639 H 529.574 3.33146 3.19079 0
M  V30 5640 H 527.817 3.18046 2.95007 0
M  V30 5641 H 528.488 3.08011 4.58076 0
M  V30 5642 H 530.964 1.25334 3.96775 0
M  V30 5643 H 529.84 1.22443 5.35069 0
M  V30 5644 H 530.101 -0.238787 4.41455 0
M  V30 5645 N 529.16 -1.33526 0.837174 0
M  V30 5646 C 530.388 -2.02047 0.445494 0
M  V30 5647 C 530.803 -1.62995 -0.952788 0
M  V30 5648 O 530.16 -0.842447 -1.61892 0
M  V30 5649 C 530.211 -3.57221 0.554577 0
M  V30 5650 O 529.932 -3.94863 1.89776 0
M  V30 5651 C 531.433 -4.43012 0.159634 0
M  V30 5652 H 528.653 -0.647221 0.177048 0
M  V30 5653 H 531.197 -1.70492 1.12928 0
M  V30 5654 H 529.352 -3.87315 -0.0812781 0
M  V30 5655 H 529.766 -4.89569 1.88208 0
M  V30 5656 H 531.24 -5.51253 0.28701 0
M  V30 5657 H 531.717 -4.29916 -0.898289 0
M  V30 5658 H 532.323 -4.18274 0.769855 0
M  V30 5659 N 530.638 -0.59345 -1.46 0
M  V30 5660 C 531.886 -0.082988 -2.0193 0
M  V30 5661 C 532.207 1.28569 -1.46612 0
M  V30 5662 O 531.477 1.84629 -0.654909 0
M  V30 5663 H 530.057 -0.0276882 -0.746487 0
M  V30 5664 H 532.719 -0.771657 -1.78973 0
M  V30 5665 H 531.815 -0.022079 -3.12092 0
M  V30 5666 N 532.116 1.54067 -0.331816 0
M  V30 5667 C 533.046 2.27569 0.522932 0
M  V30 5668 C 534.027 1.28679 1.11247 0
M  V30 5669 O 535.212 1.57504 1.13605 0
M  V30 5670 C 532.342 3.0397 1.67987 0
M  V30 5671 C 531.296 4.10267 1.21924 0
M  V30 5672 C 530.622 4.74555 2.46377 0
M  V30 5673 C 531.922 5.21268 0.32815 0
M  V30 5674 H 533.616 2.99264 -0.0901977 0
M  V30 5675 H 531.162 1.4393 -0.044821 0
M  V30 5676 H 533.115 3.54123 2.28418 0
M  V30 5677 H 531.839 2.29906 2.31971 0
M  V30 5678 H 530.498 3.61009 0.637809 0
M  V30 5679 H 530.146 3.97098 3.08743 0
M  V30 5680 H 529.846 5.46363 2.16243 0
M  V30 5681 H 531.37 5.27487 3.07555 0
M  V30 5682 H 532.784 5.67128 0.838978 0
M  V30 5683 H 531.181 5.99982 0.119228 0
M  V30 5684 H 532.251 4.80673 -0.638839 0
M  V30 5685 N 533.594 0.0601682 1.57485 0
M  V30 5686 C 534.544 -0.920969 2.08572 0
M  V30 5687 C 535.528 -1.26617 0.992827 0
M  V30 5688 O 536.72 -1.24708 1.25606 0
M  V30 5689 C 533.849 -2.19267 2.64153 0
M  V30 5690 C 532.935 -1.87447 3.80427 0
M  V30 5691 N 533.326 -1.26025 4.89848 0
M  V30 5692 C 531.624 -2.17265 3.89502 0
M  V30 5693 C 532.325 -1.12036 5.70809 0
M  V30 5694 N 531.301 -1.62624 5.18705 0
M  V30 5695 H 535.103 -0.441561 2.90564 0
M  V30 5696 H 532.617 -0.144043 1.6176 0
M  V30 5697 H 534.614 -2.90462 2.99061 0
M  V30 5698 H 533.274 -2.67806 1.83603 0
M  V30 5699 H 534.285 -0.931336 5.09457 0
M  V30 5700 H 530.962 -2.68262 3.19909 0
M  V30 5701 H 532.352 -0.642783 6.68818 0
M  V30 5702 N 535.072 -1.5615 -0.213296 0
M  V30 5703 C 536.483 -1.69645 -0.779582 0
M  V30 5704 C 536.834 -0.663615 -1.84636 0
M  V30 5705 O 535.959 0.183633 -2.15619 0
M  V30 5706 C 536.554 -3.07567 -1.42084 0
M  V30 5707 C 535.113 -3.22889 -1.93442 0
M  V30 5708 C 534.26 -2.65581 -0.797612 0
M  V30 5709 H 537.211 -1.58696 0.0114951 0
M  V30 5710 H 537.232 -3.03884 -2.28986 0
M  V30 5711 H 536.744 -3.82716 -0.644187 0
M  V30 5712 H 534.845 -2.52623 -2.73884 0
M  V30 5713 H 534.958 -4.30197 -2.10872 0
M  V30 5714 H 533.322 -2.24278 -1.20712 0
M  V30 5715 H 534.105 -3.43284 -0.033494 0
M  V30 5716 N 536.55 0.480323 -1.50102 0
M  V30 5717 C 537.498 1.60024 -1.68805 0
M  V30 5718 C 538.492 1.60089 -0.553888 0
M  V30 5719 O 539.698 1.64349 -0.734127 0
M  V30 5720 H 536.073 0.530841 -0.532646 0
M  V30 5721 H 538.044 1.41408 -2.62767 0
M  V30 5722 C 536.793 2.98029 -1.79092 0
M  V30 5723 H 536.116 2.98694 -2.65748 0
M  V30 5724 H 537.556 3.75871 -1.96206 0
M  V30 5725 C 536.015 3.32538 -0.540388 0
M  V30 5726 O 536.545 4.00386 0.324637 0
M  V30 5727 N 534.751 2.87873 -0.397154 0
M  V30 5728 H 534.298 2.32834 -1.1021 0
M  V30 5729 H 534.256 3.11328 0.438425 0
M  V30 5730 N 538.028 1.39524 0.732853 0
M  V30 5731 C 538.96 1.34318 1.85718 0
M  V30 5732 C 539.973 0.251576 1.60844 0
M  V30 5733 O 541.162 0.510685 1.71039 0
M  V30 5734 C 538.262 1.06334 3.21786 0
M  V30 5735 C 537.435 2.26813 3.73998 0
M  V30 5736 C 536.494 1.95253 4.88634 0
M  V30 5737 O 535.52 2.67957 5.02183 0
M  V30 5738 N 536.722 0.919984 5.73164 0
M  V30 5739 H 539.487 2.3121 1.90688 0
M  V30 5740 H 537.048 1.33654 0.91368 0
M  V30 5741 H 539.04 0.832363 3.96048 0
M  V30 5742 H 537.61 0.181682 3.12072 0
M  V30 5743 H 536.83 2.65849 2.91064 0
M  V30 5744 H 538.118 3.0717 4.05616 0
M  V30 5745 H 537.516 0.317487 5.64808 0
M  V30 5746 H 536.073 0.748905 6.47483 0
M  V30 5747 N 539.506 -0.963266 1.24736 0
M  V30 5748 C 540.416 -2.09246 1.06082 0
M  V30 5749 C 541.432 -1.74 0.000363101 0
M  V30 5750 O 542.608 -2.0041 0.199479 0
M  V30 5751 C 539.673 -3.40115 0.672498 0
M  V30 5752 C 538.734 -3.89282 1.80993 0
M  V30 5753 C 537.967 -5.13905 1.44004 0
M  V30 5754 O 538.19 -5.69434 0.331835 0
M  V30 5755 O 537.124 -5.57566 2.26723 0
M  V30 5756 H 540.95 -2.27881 2.00759 0
M  V30 5757 H 538.535 -1.07649 1.03595 0
M  V30 5758 H 540.417 -4.18797 0.467668 0
M  V30 5759 H 539.092 -3.22771 -0.245102 0
M  V30 5760 H 537.999 -3.11642 2.06955 0
M  V30 5761 H 539.332 -4.1111 2.70646 0
M  V30 5762 N 540.985 -1.06182 -1.16461 0
M  V30 5763 C 541.948 -0.675723 -2.19013 0
M  V30 5764 C 542.948 0.277963 -1.58379 0
M  V30 5765 O 544.138 0.0604962 -1.74095 0
M  V30 5766 C 541.27 0.00591459 -3.40899 0
M  V30 5767 H 542.463 -1.58353 -2.54685 0
M  V30 5768 H 540.016 -0.856908 -1.30716 0
M  V30 5769 H 540.751 0.92652 -3.10783 0
M  V30 5770 H 540.536 -0.67984 -3.86161 0
M  V30 5771 H 542.026 0.26181 -4.16778 0
M  V30 5772 N 542.463 1.3308 -0.844243 0
M  V30 5773 C 543.413 2.26589 -0.253289 0
M  V30 5774 C 544.397 1.49501 0.594836 0
M  V30 5775 O 545.589 1.71291 0.445924 0
M  V30 5776 C 542.718 3.38599 0.566176 0
M  V30 5777 C 541.804 4.23081 -0.293756 0
M  V30 5778 N 542.195 4.86751 -1.37505 0
M  V30 5779 C 540.493 4.45925 -0.0817086 0
M  V30 5780 C 541.194 5.49684 -1.90323 0
M  V30 5781 N 540.17 5.30101 -1.20391 0
M  V30 5782 H 543.972 2.73334 -1.08009 0
M  V30 5783 H 541.486 1.47048 -0.689258 0
M  V30 5784 H 543.483 4.04584 1.00587 0
M  V30 5785 H 542.143 2.93401 1.39089 0
M  V30 5786 H 543.154 4.87151 -1.75796 0
M  V30 5787 H 539.831 4.11434 0.709129 0
M  V30 5788 H 541.221 6.10363 -2.80902 0
M  V30 5789 N 543.941 0.601185 1.45683 0
M  V30 5790 C 545.166 0.0982245 2.07167 0
M  V30 5791 C 545.591 -1.20546 1.44396 0
M  V30 5792 O 544.949 -1.73247 0.534347 0
M  V30 5793 C 544.997 -0.0346976 3.60583 0
M  V30 5794 O 544.101 -1.08657 3.97828 0
M  V30 5795 H 543.442 0.0711618 0.660176 0
M  V30 5796 H 545.972 0.829376 1.87036 0
M  V30 5797 H 545.982 -0.234969 4.07323 0
M  V30 5798 H 544.657 0.917265 4.05659 0
M  V30 5799 H 543.234 -0.863275 3.6277 0
M  V30 5800 N 545.419 -1.53889 0.339982 0
M  V30 5801 C 546.349 -2.27843 -0.510856 0
M  V30 5802 C 547.33 -1.29267 -1.10563 0
M  V30 5803 O 548.515 -1.58104 -1.12768 0
M  V30 5804 C 545.645 -3.04857 -1.66372 0
M  V30 5805 C 544.599 -4.10907 -1.19746 0
M  V30 5806 C 543.925 -4.75855 -2.43857 0
M  V30 5807 C 545.225 -5.21435 -0.300501 0
M  V30 5808 H 546.919 -2.99212 0.106067 0
M  V30 5809 H 544.465 -1.43904 0.0524533 0
M  V30 5810 H 546.418 -3.5533 -2.26537 0
M  V30 5811 H 545.142 -2.31133 -2.30749 0
M  V30 5812 H 543.801 -3.61342 -0.618654 0
M  V30 5813 H 543.449 -3.9873 -3.06633 0
M  V30 5814 H 543.149 -5.47502 -2.13343 0
M  V30 5815 H 544.673 -5.2911 -3.04754 0
M  V30 5816 H 546.087 -5.67565 -0.80889 0
M  V30 5817 H 544.484 -6.00036 -0.0874076 0
M  V30 5818 H 545.554 -4.80328 0.664321 0
M  V30 5819 N 546.897 -0.0685191 -1.57451 0
M  V30 5820 C 548.144 0.601348 -1.93365 0
M  V30 5821 C 548.472 1.69816 -0.948294 0
M  V30 5822 O 547.727 1.95666 0.0366199 0
M  V30 5823 C 548.026 1.22051 -3.35914 0
M  V30 5824 C 547.692 0.250165 -4.50205 0
M  V30 5825 C 546.354 -0.0167954 -4.81197 0
M  V30 5826 C 548.706 -0.413867 -5.19554 0
M  V30 5827 C 546.034 -0.95493 -5.78876 0
M  V30 5828 C 548.386 -1.3403 -6.18238 0
M  V30 5829 C 547.05 -1.61576 -6.47649 0
M  V30 5830 H 546.32 0.220049 -0.707573 0
M  V30 5831 H 548.967 -0.138697 -1.90997 0
M  V30 5832 H 547.272 2.03622 -3.34732 0
M  V30 5833 H 548.969 1.74605 -3.6099 0
M  V30 5834 H 545.559 0.468421 -4.26033 0
M  V30 5835 H 549.743 -0.220733 -4.95809 0
M  V30 5836 H 544.999 -1.17563 -5.99991 0
M  V30 5837 H 549.173 -1.86081 -6.71079 0
M  V30 5838 H 546.8 -2.34431 -7.2315 0
M  V30 5839 N 548.375 1.56261 0.205012 0
M  V30 5840 C 549.305 1.96779 1.257 0
M  V30 5841 C 550.286 0.838309 1.48008 0
M  V30 5842 O 551.471 1.10189 1.59913 0
M  V30 5843 C 548.601 2.29876 2.60335 0
M  V30 5844 C 547.555 3.45469 2.52656 0
M  V30 5845 C 546.881 3.64215 3.91473 0
M  V30 5846 C 548.181 4.79954 2.06014 0
M  V30 5847 H 549.875 2.84904 0.920338 0
M  V30 5848 H 547.421 1.37072 0.441277 0
M  V30 5849 H 549.374 2.56814 3.34102 0
M  V30 5850 H 548.098 1.38622 2.95722 0
M  V30 5851 H 546.757 3.18605 1.81345 0
M  V30 5852 H 546.405 2.70309 4.24196 0
M  V30 5853 H 546.105 4.41973 3.87213 0
M  V30 5854 H 547.629 3.93519 4.66878 0
M  V30 5855 H 549.043 5.05989 2.69533 0
M  V30 5856 H 547.44 5.61111 2.12777 0
M  V30 5857 H 548.51 4.74201 1.01297 0
M  V30 5858 N 549.853 -0.472356 1.50355 0
M  V30 5859 C 551.13 -1.23356 1.51798 0
M  V30 5860 C 551.51 -2.09469 0.26193 0
M  V30 5861 O 550.858 -2.15677 -0.754691 0
M  V30 5862 C 551.068 -2.06568 2.81302 0
M  V30 5863 C 552.416 -2.648 3.31913 0
M  V30 5864 O 553.44 -2.16812 2.82614 0
M  V30 5865 O 552.299 -3.52231 4.17846 0
M  V30 5866 H 549.393 -0.559707 0.608816 0
M  V30 5867 H 551.939 -0.48428 1.62643 0
M  V30 5868 H 550.711 -1.43103 3.64194 0
M  V30 5869 H 550.334 -2.88633 2.73454 0
M  V30 5870 N 551.331 -1.39911 -0.725443 0
M  V30 5871 C 552.58 -1.36963 -1.48068 0
M  V30 5872 C 552.893 0.0284478 -1.95579 0
M  V30 5873 O 554.099 0.180535 -2.70899 0
M  V30 5874 C 552.555 -2.40664 -2.67598 0
M  V30 5875 C 552.163 -3.86234 -2.26997 0
M  V30 5876 C 553.907 -2.46807 -3.45379 0
M  V30 5877 C 551.814 -4.81554 -3.43307 0
M  V30 5878 H 550.744 -0.509223 -0.556065 0
M  V30 5879 H 553.395 -1.65602 -0.790454 0
M  V30 5880 H 551.777 -2.05109 -3.38742 0
M  V30 5881 H 552.951 -4.3088 -1.63337 0
M  V30 5882 H 551.266 -3.83475 -1.62284 0
M  V30 5883 H 553.863 -3.15213 -4.31909 0
M  V30 5884 H 554.206 -1.49552 -3.8851 0
M  V30 5885 H 554.739 -2.81303 -2.81271 0
M  V30 5886 H 551.478 -5.80106 -3.05217 0
M  V30 5887 H 550.998 -4.4158 -4.05915 0
M  V30 5888 H 552.677 -5.0091 -4.0951 0
M  V30 5889 N 552.809 0.956637 -1.25245 0
M  V30 5890 C 553.759 2.03841 -1.02141 0
M  V30 5891 C 554.743 1.60848 0.0410058 0
M  V30 5892 O 555.935 1.76142 -0.174084 0
M  V30 5893 C 553.064 3.37282 -0.639963 0
M  V30 5894 C 552.15 3.86805 -1.73903 0
M  V30 5895 N 552.541 4.09143 -2.97381 0
M  V30 5896 C 550.839 4.15574 -1.61909 0
M  V30 5897 C 551.54 4.49923 -3.68707 0
M  V30 5898 N 550.516 4.55737 -2.96318 0
M  V30 5899 H 554.318 2.19102 -1.95886 0
M  V30 5900 H 551.832 1.1413 -1.15534 0
M  V30 5901 H 553.829 4.14403 -0.455643 0
M  V30 5902 H 552.489 3.23401 0.29018 0
M  V30 5903 H 553.5 3.96275 -3.33447 0
M  V30 5904 H 550.177 4.10566 -0.757764 0
M  V30 5905 H 551.567 4.75526 -4.74684 0
M  V30 5906 N 554.287 1.06798 1.15896 0
M  V30 5907 C 555.698 0.811355 1.68149 0
M  V30 5908 C 556.049 -0.664339 1.8461 0
M  V30 5909 O 555.174 -1.51485 1.54535 0
M  V30 5910 C 555.769 1.46624 3.05429 0
M  V30 5911 C 554.328 1.25726 3.54781 0
M  V30 5912 C 553.475 1.53949 2.3064 0
M  V30 5913 H 556.426 1.23078 1.00187 0
M  V30 5914 H 556.447 0.88437 3.7008 0
M  V30 5915 H 555.959 2.54025 2.93416 0
M  V30 5916 H 554.06 0.20322 3.72045 0
M  V30 5917 H 554.173 1.97354 4.36564 0
M  V30 5918 H 552.537 0.96025 2.35905 0
M  V30 5919 H 553.32 2.6252 2.2122 0
M  V30 5920 N 555.766 -1.3263 0.851289 0
M  V30 5921 C 557.012 -1.9766 0.453694 0
M  V30 5922 C 557.345 -1.67225 -0.987396 0
M  V30 5923 O 556.62 -0.958693 -1.69232 0
M  V30 5924 C 556.903 -3.5344 0.68936 0
M  V30 5925 C 556.756 -3.93517 2.17862 0
M  V30 5926 C 558.075 -4.39866 0.143555 0
M  V30 5927 H 555.194 -0.717989 0.166314 0
M  V30 5928 H 557.836 -1.57068 1.06909 0
M  V30 5929 H 555.986 -3.88147 0.165546 0
M  V30 5930 H 557.658 -3.69006 2.76826 0
M  V30 5931 H 555.901 -3.42798 2.65841 0
M  V30 5932 H 556.572 -5.02065 2.29422 0
M  V30 5933 H 559.048 -4.11875 0.591451 0
M  V30 5934 H 557.924 -5.47858 0.338043 0
M  V30 5935 H 558.185 -4.31696 -0.953466 0
M  V30 5936 N 557.244 -0.608902 -1.45362 0
M  V30 5937 C 558.472 -0.111013 -2.06602 0
M  V30 5938 C 558.887 1.20516 -1.45332 0
M  V30 5939 O 558.244 1.73437 -0.567978 0
M  V30 5940 C 558.295 0.033688 -3.61484 0
M  V30 5941 O 558.016 -1.23041 -4.20467 0
M  V30 5942 C 559.517 0.562882 -4.39712 0
M  V30 5943 H 556.737 -0.0694453 -0.667397 0
M  V30 5944 H 559.281 -0.837008 -1.86586 0
M  V30 5945 H 557.436 0.710016 -3.80838 0
M  V30 5946 H 557.85 -1.06094 -5.13658 0
M  V30 5947 H 559.324 0.613213 -5.48583 0
M  V30 5948 H 559.801 1.58543 -4.09586 0
M  V30 5949 H 560.407 -0.0794454 -4.25226 0
M  V30 5950 N 558.722 1.53707 -0.348139 0
M  V30 5951 C 559.97 2.00591 0.246478 0
M  V30 5952 C 560.291 1.23753 1.50699 0
M  V30 5953 O 559.561 0.345964 1.92821 0
M  V30 5954 H 558.141 0.741053 0.0940679 0
M  V30 5955 H 560.803 1.89139 -0.470354 0
M  V30 5956 H 559.899 3.08297 0.485714 0
M  V30 5957 N 560.2 0.0768682 1.57412 0
M  V30 5958 C 561.449 -0.590679 1.92857 0
M  V30 5959 C 561.762 -1.70461 0.959293 0
M  V30 5960 O 562.968 -2.43207 1.20675 0
M  V30 5961 C 561.424 -1.10204 3.42612 0
M  V30 5962 C 561.032 -0.0188447 4.47996 0
M  V30 5963 C 562.776 -1.74336 3.87049 0
M  V30 5964 C 560.683 -0.544536 5.88888 0
M  V30 5965 H 559.613 -0.224411 0.71983 0
M  V30 5966 H 562.264 0.149924 1.82887 0
M  V30 5967 H 560.646 -1.89577 3.47673 0
M  V30 5968 H 561.82 0.755936 4.54557 0
M  V30 5969 H 560.135 0.526555 4.13057 0
M  V30 5970 H 562.732 -2.14708 4.89699 0
M  V30 5971 H 563.075 -2.60537 3.24694 0
M  V30 5972 H 563.608 -1.01577 3.84613 0
M  V30 5973 H 560.347 0.280426 6.549 0
M  V30 5974 H 559.867 -1.28673 5.85836 0
M  V30 5975 H 561.546 -1.01933 6.3892 0
M  V30 5976 N 561.678 -1.56367 -0.196722 0
M  V30 5977 C 563.089 -1.70462 -0.761545 0
M  V30 5978 C 563.44 -0.683161 -1.83922 0
M  V30 5979 O 562.565 0.160753 -2.15802 0
M  V30 5980 C 563.16 -3.09057 -1.38814 0
M  V30 5981 C 561.719 -3.24922 -1.90007 0
M  V30 5982 C 560.866 -2.66412 -0.769399 0
M  V30 5983 H 563.817 -1.58675 0.0283263 0
M  V30 5984 H 563.838 -3.06296 -2.2575 0
M  V30 5985 H 563.35 -3.83378 -0.603559 0
M  V30 5986 H 561.451 -2.55514 -2.71189 0
M  V30 5987 H 561.564 -4.3241 -2.06297 0
M  V30 5988 H 559.928 -2.25546 -1.18326 0
M  V30 5989 H 560.711 -3.433 0.00291773 0
M  V30 5990 N 563.156 0.464375 -1.50603 0
M  V30 5991 C 564.089 1.58052 -1.64605 0
M  V30 5992 C 565.067 1.54914 -0.494016 0
M  V30 5993 O 566.251 1.74438 -0.714393 0
M  V30 5994 C 563.378 2.96634 -1.63481 0
M  V30 5995 C 562.424 3.17901 -2.84325 0
M  V30 5996 S 563.257 2.97083 -4.45536 0
M  V30 5997 C 564.413 4.37994 -4.47115 0
M  V30 5998 H 564.646 1.45937 -2.59017 0
M  V30 5999 H 562.179 0.652189 -1.39949 0
M  V30 6000 H 564.137 3.76527 -1.63517 0
M  V30 6001 H 562.798 3.06134 -0.702928 0
M  V30 6002 H 561.991 4.19158 -2.79862 0
M  V30 6003 H 561.593 2.45792 -2.81891 0
M  V30 6004 H 563.885 5.30743 -4.21091 0
M  V30 6005 H 564.828 4.47499 -5.48772 0
M  V30 6006 H 565.236 4.20386 -3.76743 0
M  V30 6007 N 564.634 1.40294 0.718013 0
M  V30 6008 C 565.582 1.40536 1.85344 0
M  V30 6009 C 566.576 0.286192 1.66965 0
M  V30 6010 O 567.782 0.457105 1.74099 0
M  V30 6011 H 564.157 0.439236 0.61039 0
M  V30 6012 H 566.128 2.36275 1.82255 0
M  V30 6013 C 564.877 1.28245 3.23185 0
M  V30 6014 H 564.2 2.1364 3.37932 0
M  V30 6015 H 565.64 1.32474 4.02774 0
M  V30 6016 C 564.099 -0.0075503 3.36899 0
M  V30 6017 O 564.629 -0.971391 3.89778 0
M  V30 6018 N 562.835 -0.0762479 2.905 0
M  V30 6019 H 562.382 0.708819 2.47656 0
M  V30 6020 H 562.34 -0.938846 3.00055 0
M  V30 6021 N 566.112 -0.949982 1.2575 0
M  V30 6022 C 567.352 -1.70994 1.11984 0
M  V30 6023 C 567.716 -1.89095 -0.332746 0
M  V30 6024 O 568.917 -2.62192 -0.592331 0
M  V30 6025 C 567.188 -3.05286 1.85837 0
M  V30 6026 S 568.747 -3.96477 1.88019 0
M  V30 6027 H 565.565 -0.587689 0.400178 0
M  V30 6028 H 568.167 -1.13271 1.59342 0
M  V30 6029 H 566.871 -2.89785 2.90608 0
M  V30 6030 H 566.402 -3.68069 1.38885 0
M  V30 6031 H 568.417 -4.86814 0.96057 0
M  V30 6032 N 567.59 -1.07411 -1.15328 0
M  V30 6033 C 568.815 -0.818856 -1.90551 0
M  V30 6034 C 569.24 0.622194 -1.77512 0
M  V30 6035 O 568.598 1.43484 -1.10824 0
M  V30 6036 C 568.646 -1.23267 -3.38877 0
M  V30 6037 O 567.75 -0.378345 -4.10661 0
M  V30 6038 H 567.091 -0.29827 -0.593238 0
M  V30 6039 H 569.621 -1.43289 -1.46046 0
M  V30 6040 H 569.631 -1.20912 -3.89672 0
M  V30 6041 H 568.306 -2.28226 -3.47686 0
M  V30 6042 H 566.883 -0.464437 -3.69996 0
M  V30 6043 N 569.068 1.32177 -0.85831 0
M  V30 6044 C 570.314 1.97417 -0.46417 0
M  V30 6045 C 570.647 1.67746 0.978514 0
M  V30 6046 O 569.922 0.967654 1.68721 0
M  V30 6047 C 570.205 3.53069 -0.708094 0
M  V30 6048 C 570.058 3.92357 -2.19946 0
M  V30 6049 C 571.377 4.39783 -0.166881 0
M  V30 6050 H 568.496 0.717097 -0.17012 0
M  V30 6051 H 571.138 1.56499 -1.07741 0
M  V30 6052 H 569.288 3.88054 -0.186128 0
M  V30 6053 H 570.96 3.67533 -2.78779 0
M  V30 6054 H 569.203 3.41384 -2.67656 0
M  V30 6055 H 569.874 5.00841 -2.32082 0
M  V30 6056 H 572.35 4.11556 -0.613285 0
M  V30 6057 H 571.226 5.47671 -0.367093 0
M  V30 6058 H 571.487 4.32196 0.930559 0
M  V30 6059 N 570.547 0.616602 1.45037 0
M  V30 6060 C 571.494 -0.0969439 2.30596 0
M  V30 6061 C 572.464 -0.851151 1.42635 0
M  V30 6062 O 573.649 -0.835092 1.71554 0
M  V30 6063 C 570.789 -1.08234 3.27688 0
M  V30 6064 C 569.902 -0.328072 4.30752 0
M  V30 6065 C 569.037 -1.30399 5.14946 0
M  V30 6066 C 568.076 -0.538049 6.09731 0
M  V30 6067 N 567.213 -1.46371 6.86673 0
M  V30 6068 H 572.053 0.63864 2.91076 0
M  V30 6069 H 569.59 0.326733 1.43425 0
M  V30 6070 H 571.548 -1.66688 3.82454 0
M  V30 6071 H 570.178 -1.78523 2.68941 0
M  V30 6072 H 569.23 0.372136 3.78575 0
M  V30 6073 H 570.542 0.269142 4.98073 0
M  V30 6074 H 569.696 -1.96032 5.74157 0
M  V30 6075 H 568.435 -1.93514 4.47665 0
M  V30 6076 H 567.44 0.131852 5.49642 0
M  V30 6077 H 568.665 0.0881732 6.79043 0
M  V30 6078 H 566.611 -2.08233 6.22073 0
M  V30 6079 H 566.528 -0.920152 7.50379 0
M  V30 6080 H 567.796 -2.10932 7.50418 0
M  V30 6081 N 572.025 -1.5352 0.356285 0
M  V30 6082 C 572.955 -2.28372 -0.486661 0
M  V30 6083 C 573.936 -1.30432 -1.09185 0
M  V30 6084 O 575.121 -1.59291 -1.11085 0
M  V30 6085 C 572.251 -3.06604 -1.63129 0
M  V30 6086 C 571.205 -4.12154 -1.15381 0
M  V30 6087 C 570.531 -4.78415 -2.38796 0
M  V30 6088 C 571.831 -5.21724 -0.245179 0
M  V30 6089 H 573.525 -2.99083 0.137797 0
M  V30 6090 H 571.071 -1.43841 0.0677134 0
M  V30 6091 H 573.024 -3.57712 -2.22755 0
M  V30 6092 H 571.748 -2.33568 -2.28284 0
M  V30 6093 H 570.407 -3.61978 -0.580294 0
M  V30 6094 H 570.055 -4.01959 -3.02387 0
M  V30 6095 H 569.755 -5.49734 -2.07524 0
M  V30 6096 H 571.279 -5.32313 -2.99125 0
M  V30 6097 H 572.693 -5.68391 -0.748646 0
M  V30 6098 H 571.09 -6.00095 -0.0237608 0
M  V30 6099 H 572.16 -4.79596 0.715229 0
M  V30 6100 N 573.503 -0.0852151 -1.57369 0
M  V30 6101 C 574.435 0.907099 -2.10486 0
M  V30 6102 C 575.448 1.25259 -1.03991 0
M  V30 6103 O 576.637 1.20743 -1.31467 0
M  V30 6104 C 573.737 2.21908 -2.56145 0
M  V30 6105 C 572.91 2.05042 -3.86363 0
M  V30 6106 C 571.969 3.19664 -4.17973 0
M  V30 6107 O 570.995 2.94062 -4.87356 0
M  V30 6108 N 572.197 4.45151 -3.72587 0
M  V30 6109 H 574.962 0.453505 -2.96249 0
M  V30 6110 H 572.523 0.100157 -1.6159 0
M  V30 6111 H 574.515 2.97519 -2.74343 0
M  V30 6112 H 573.085 2.58723 -1.75446 0
M  V30 6113 H 572.305 1.13819 -3.77411 0
M  V30 6114 H 573.593 1.91039 -4.71574 0
M  V30 6115 H 572.991 4.68834 -3.16561 0
M  V30 6116 H 571.548 5.17744 -3.9596 0
M  V30 6117 N 574.981 1.5647 0.188427 0
M  V30 6118 C 575.911 1.98101 1.23606 0
M  V30 6119 C 576.892 0.853961 1.47111 0
M  V30 6120 O 578.077 1.11879 1.58735 0
M  V30 6121 C 575.207 2.32624 2.57882 0
M  V30 6122 C 574.161 3.48129 2.48978 0
M  V30 6123 C 573.487 3.68347 3.87588 0
M  V30 6124 C 574.787 4.82112 2.00911 0
M  V30 6125 H 576.481 2.85864 0.890068 0
M  V30 6126 H 574.027 1.37532 0.426714 0
M  V30 6127 H 575.98 2.60343 3.3136 0
M  V30 6128 H 574.704 1.41751 2.94235 0
M  V30 6129 H 573.363 3.20511 1.77956 0
M  V30 6130 H 573.011 2.74793 4.21305 0
M  V30 6131 H 572.711 4.46055 3.82503 0
M  V30 6132 H 574.235 3.98449 4.62678 0
M  V30 6133 H 575.649 5.08819 2.64151 0
M  V30 6134 H 574.046 5.63337 2.06814 0
M  V30 6135 H 575.116 4.75249 0.96262 0
M  V30 6136 N 576.459 -0.456382 1.50847 0
M  V30 6137 C 577.684 -1.2349 1.66628 0
M  V30 6138 C 578.109 -1.84715 0.355254 0
M  V30 6139 O 577.467 -1.67961 -0.682559 0
M  V30 6140 C 577.515 -2.30865 2.77009 0
M  V30 6141 O 576.619 -3.35882 2.39285 0
M  V30 6142 H 575.96 -0.36266 0.556214 0
M  V30 6143 H 578.49 -0.541374 1.97308 0
M  V30 6144 H 578.5 -2.75949 3.00526 0
M  V30 6145 H 577.175 -1.85677 3.72152 0
M  V30 6146 H 575.752 -2.96406 2.26269 0
M  V30 6147 N 577.937 -1.40673 -0.710563 0
M  V30 6148 C 578.867 -1.44095 -1.83736 0
M  V30 6149 C 579.848 -0.301286 -1.67411 0
M  V30 6150 O 581.033 -0.510618 -1.87367 0
M  V30 6151 C 578.163 -1.30773 -3.21738 0
M  V30 6152 C 577.117 -2.42395 -3.52745 0
M  V30 6153 C 576.443 -2.14147 -4.89944 0
M  V30 6154 C 577.743 -3.84738 -3.53234 0
M  V30 6155 H 579.437 -2.38396 -1.81129 0
M  V30 6156 H 576.983 -1.14746 -0.870017 0
M  V30 6157 H 578.936 -1.31783 -4.00264 0
M  V30 6158 H 577.66 -0.329507 -3.24934 0
M  V30 6159 H 576.319 -2.40643 -2.76562 0
M  V30 6160 H 575.967 -1.14703 -4.89747 0
M  V30 6161 H 575.667 -2.88934 -5.11655 0
M  V30 6162 H 577.191 -2.16848 -5.70797 0
M  V30 6163 H 578.605 -3.88286 -4.2179 0
M  V30 6164 H 577.002 -4.59085 -3.86473 0
M  V30 6165 H 578.072 -4.13962 -2.52514 0
M  V30 6166 N 579.415 0.9433 -1.26252 0
M  V30 6167 C 580.645 1.72117 -1.14277 0
M  V30 6168 C 581.053 1.86726 0.304944 0
M  V30 6169 O 580.396 1.3727 1.22076 0
M  V30 6170 C 580.458 3.14778 -1.73651 0
M  V30 6171 C 580.122 3.23561 -3.22734 0
M  V30 6172 C 581.119 3.07001 -4.19579 0
M  V30 6173 C 578.804 3.47019 -3.63157 0
M  V30 6174 C 580.798 3.13763 -5.54826 0
M  V30 6175 C 578.485 3.53416 -4.98538 0
M  V30 6176 C 579.483 3.36804 -5.94182 0
M  V30 6177 O 579.171 3.42906 -7.27098 0
M  V30 6178 H 578.903 0.545781 -0.398873 0
M  V30 6179 H 581.457 1.19123 -1.67328 0
M  V30 6180 H 579.687 3.69186 -1.1506 0
M  V30 6181 H 581.376 3.74469 -1.56613 0
M  V30 6182 H 582.142 2.88736 -3.89688 0
M  V30 6183 H 578.021 3.59006 -2.89199 0
M  V30 6184 H 581.565 3.00714 -6.29458 0
M  V30 6185 H 577.462 3.71201 -5.28091 0
M  V30 6186 H 578.23 3.59463 -7.35342 0
M  V30 6187 N 580.893 1.08022 1.14757 0
M  V30 6188 C 581.826 0.650738 2.18725 0
M  V30 6189 C 582.804 -0.335496 1.59101 0
M  V30 6190 O 583.988 -0.240295 1.86962 0
M  V30 6191 C 581.115 -0.0434377 3.38672 0
M  V30 6192 C 580.161 0.90232 4.16846 0
M  V30 6193 S 580.994 2.40693 4.78359 0
M  V30 6194 C 582.15 1.72475 6.01667 0
M  V30 6195 H 582.383 1.53152 2.54817 0
M  V30 6196 H 579.916 0.894823 1.25826 0
M  V30 6197 H 581.874 -0.437684 4.0816 0
M  V30 6198 H 580.535 -0.900659 3.0091 0
M  V30 6199 H 579.728 0.363445 5.02688 0
M  V30 6200 H 579.33 1.23728 3.52941 0
M  V30 6201 H 581.622 1.0404 6.69464 0
M  V30 6202 H 582.565 2.56175 6.60136 0
M  V30 6203 H 582.973 1.19979 5.51602 0
M  V30 6204 N 582.371 -1.3172 0.865308 0
M  V30 6205 C 583.318 -2.2863 0.315736 0
M  V30 6206 C 584.288 -1.55524 -0.583213 0
M  V30 6207 O 585.473 -1.83694 -0.51585 0
M  V30 6208 C 582.613 -3.41735 -0.480773 0
M  V30 6209 C 581.726 -4.297 0.445167 0
M  V30 6210 C 580.861 -5.29944 -0.365012 0
M  V30 6211 C 579.9 -6.09554 0.557651 0
M  V30 6212 N 579.037 -7.01768 -0.215994 0
M  V30 6213 H 583.877 -2.75026 1.14736 0
M  V30 6214 H 581.414 -1.35302 0.577209 0
M  V30 6215 H 583.372 -4.06045 -0.958306 0
M  V30 6216 H 582.002 -2.96461 -1.27714 0
M  V30 6217 H 581.054 -3.65875 1.04113 0
M  V30 6218 H 582.366 -4.85295 1.15284 0
M  V30 6219 H 581.52 -5.99908 -0.905255 0
M  V30 6220 H 580.259 -4.74994 -1.106 0
M  V30 6221 H 579.264 -5.38485 1.10969 0
M  V30 6222 H 580.489 -6.66591 1.29742 0
M  V30 6223 H 578.435 -6.49232 -0.939878 0
M  V30 6224 H 578.352 -7.54762 0.432431 0
M  V30 6225 H 579.62 -7.76002 -0.737618 0
M  V30 6226 N 583.85 -0.624285 -1.44708 0
M  V30 6227 C 585.075 -0.131171 -2.06985 0
M  V30 6228 C 585.5 1.18234 -1.46295 0
M  V30 6229 O 584.858 1.72375 -0.561842 0
M  V30 6230 C 584.906 -0.0226724 -3.60593 0
M  V30 6231 O 584.01 1.02314 -3.99507 0
M  V30 6232 H 583.351 -0.0816556 -0.65896 0
M  V30 6233 H 585.88 -0.859027 -1.85693 0
M  V30 6234 H 585.891 0.170138 -4.07645 0
M  V30 6235 H 584.566 -0.981685 -4.04148 0
M  V30 6236 H 583.143 0.805452 -3.64097 0
M  V30 6237 N 585.328 1.53329 -0.364422 0
M  V30 6238 C 586.574 2.01537 0.225969 0
M  V30 6239 C 586.907 1.25128 1.48515 0
M  V30 6240 O 586.182 0.344653 1.91422 0
M  V30 6241 C 586.465 3.56339 0.519092 0
M  V30 6242 C 586.318 4.43441 -0.753639 0
M  V30 6243 C 587.637 4.19833 1.32015 0
M  V30 6244 H 584.756 0.732573 0.0806548 0
M  V30 6245 H 587.398 1.83597 -0.489084 0
M  V30 6246 H 585.548 3.71756 1.12825 0
M  V30 6247 H 587.22 4.39823 -1.39116 0
M  V30 6248 H 585.463 4.11457 -1.37424 0
M  V30 6249 H 586.134 5.49699 -0.503517 0
M  V30 6250 H 588.61 4.08242 0.804859 0
M  V30 6251 H 587.486 5.28177 1.49399 0
M  V30 6252 H 587.747 3.75821 2.32832 0
M  V30 6253 N 586.806 0.0935595 1.57322 0
M  V30 6254 C 587.769 -0.851426 2.12799 0
M  V30 6255 C 588.769 -1.21187 1.0569 0
M  V30 6256 O 589.959 -1.14156 1.31583 0
M  V30 6257 C 587.091 -2.14779 2.64731 0
M  V30 6258 H 588.284 -0.369733 2.97612 0
M  V30 6259 H 585.837 -0.155417 1.55525 0
M  V30 6260 H 586.572 -2.67437 1.83434 0
M  V30 6261 H 586.357 -1.89907 3.43042 0
M  V30 6262 H 587.847 -2.82383 3.07651 0
M  V30 6263 N 588.284 -1.56567 -0.180126 0
M  V30 6264 C 589.532 -1.81133 -0.896392 0
M  V30 6265 C 589.853 -0.669114 -1.83161 0
M  V30 6266 O 589.123 0.311616 -1.93406 0
M  V30 6267 H 587.703 -0.668172 -0.333999 0
M  V30 6268 H 590.365 -1.94048 -0.182051 0
M  V30 6269 H 589.461 -2.74854 -1.47857 0
M  V30 6270 N 589.762 0.448376 -1.51087 0
M  V30 6271 C 591.011 1.19561 -1.62444 0
M  V30 6272 C 591.324 1.92602 -0.341151 0
M  V30 6273 O 592.53 2.69439 -0.333936 0
M  V30 6274 C 590.986 2.17373 -2.8684 0
M  V30 6275 C 590.594 1.5003 -4.22131 0
M  V30 6276 C 592.338 2.92597 -3.0755 0
M  V30 6277 C 590.245 2.46262 -5.37689 0
M  V30 6278 H 589.175 0.449975 -0.605011 0
M  V30 6279 H 591.826 0.463735 -1.77544 0
M  V30 6280 H 590.208 2.93948 -2.65349 0
M  V30 6281 H 591.382 0.790886 -4.53962 0
M  V30 6282 H 589.697 0.870011 -4.0721 0
M  V30 6283 H 592.294 3.64663 -3.91056 0
M  V30 6284 H 592.637 3.53306 -2.20183 0
M  V30 6285 H 593.17 2.23131 -3.29329 0
M  V30 6286 H 589.909 1.90258 -6.27281 0
M  V30 6287 H 589.429 3.15289 -5.10248 0
M  V30 6288 H 591.108 3.07623 -5.6919 0
M  V30 6289 N 591.24 1.41047 0.703093 0
M  V30 6290 C 592.488 1.39723 1.4602 0
M  V30 6291 C 592.809 0.00461257 1.94999 0
M  V30 6292 O 592.079 -0.952292 1.71196 0
M  V30 6293 H 590.659 0.514281 0.541779 0
M  V30 6294 H 593.321 1.76217 0.832678 0
M  V30 6295 H 592.417 2.07982 2.32701 0
M  V30 6296 N 592.718 -0.936591 1.26751 0
M  V30 6297 C 593.65 -2.03991 1.045 0
M  V30 6298 C 594.663 -1.628 0.00394261 0
M  V30 6299 O 595.852 -1.76817 0.244526 0
M  V30 6300 C 592.952 -3.34218 0.561403 0
M  V30 6301 C 592.125 -4.04151 1.67274 0
M  V30 6302 C 591.184 -5.12651 1.1864 0
M  V30 6303 O 590.21 -5.37104 1.88437 0
M  V30 6304 N 591.412 -5.80488 0.037278 0
M  V30 6305 H 594.177 -2.23644 1.99508 0
M  V30 6306 H 591.738 -1.10638 1.18198 0
M  V30 6307 H 593.73 -4.04101 0.220136 0
M  V30 6308 H 592.3 -3.11203 -0.295211 0
M  V30 6309 H 591.52 -3.28121 2.18472 0
M  V30 6310 H 592.808 -4.47626 2.41885 0
M  V30 6311 H 592.206 -5.63064 -0.545494 0
M  V30 6312 H 590.763 -6.5134 -0.244877 0
M  V30 6313 N 594.196 -1.08629 -1.14182 0
M  V30 6314 C 595.424 -0.838889 -1.8913 0
M  V30 6315 C 595.839 0.609153 -1.78703 0
M  V30 6316 O 595.196 1.41876 -1.14794 0
M  V30 6317 C 595.247 -1.25477 -3.39025 0
M  V30 6318 O 594.968 -2.64601 -3.49167 0
M  V30 6319 C 596.469 -1.03856 -4.30963 0
M  V30 6320 H 593.689 -0.302377 -0.599007 0
M  V30 6321 H 596.233 -1.44615 -1.44592 0
M  V30 6322 H 594.388 -0.691571 -3.81177 0
M  V30 6323 H 594.802 -2.81922 -4.42289 0
M  V30 6324 H 596.276 -1.37892 -5.345 0
M  V30 6325 H 596.753 0.0242522 -4.39193 0
M  V30 6326 H 597.359 -1.58731 -3.94569 0
M  V30 6327 N 595.674 1.31259 -0.872281 0
M  V30 6328 C 596.922 1.96233 -0.483409 0
M  V30 6329 C 597.243 1.69276 0.968012 0
M  V30 6330 O 596.513 1.00943 1.67891 0
M  V30 6331 H 595.093 0.726025 -0.175774 0
M  V30 6332 H 597.755 1.60024 -1.11258 0
M  V30 6333 H 596.851 3.05403 -0.643075 0
M  V30 6334 N 597.152 0.631951 1.44375 0
M  V30 6335 C 598.099 -0.0724807 2.30686 0
M  V30 6336 C 599.069 -0.835975 1.43529 0
M  V30 6337 O 600.254 -0.816849 1.7243 0
M  V30 6338 C 597.394 -1.04753 3.28817 0
M  V30 6339 C 596.507 -0.282367 4.31076 0
M  V30 6340 C 595.642 -1.2493 5.163 0
M  V30 6341 C 594.681 -0.473349 6.10267 0
M  V30 6342 N 593.818 -1.39079 6.88187 0
M  V30 6343 H 598.658 0.669477 2.90383 0
M  V30 6344 H 596.195 0.341927 1.43071 0
M  V30 6345 H 598.153 -1.62623 3.842 0
M  V30 6346 H 596.783 -1.75661 2.70819 0
M  V30 6347 H 595.835 0.412268 3.78159 0
M  V30 6348 H 597.147 0.321955 4.9776 0
M  V30 6349 H 596.301 -1.89931 5.76204 0
M  V30 6350 H 595.04 -1.88755 4.49692 0
M  V30 6351 H 594.045 0.190142 5.49471 0
M  V30 6352 H 595.27 0.16019 6.78911 0
M  V30 6353 H 593.216 -2.01623 6.24247 0
M  V30 6354 H 593.133 -0.840513 7.51313 0
M  V30 6355 H 594.401 -2.02961 7.52613 0
M  V30 6356 N 598.631 -1.53133 0.372548 0
M  V30 6357 C 599.88 -2.00539 -0.216115 0
M  V30 6358 C 600.193 -1.26374 -1.49295 0
M  V30 6359 O 601.399 -1.64404 -2.16064 0
M  V30 6360 C 599.855 -3.57253 -0.435678 0
M  V30 6361 C 599.463 -4.40302 0.82693 0
M  V30 6362 C 601.207 -4.12995 -0.981618 0
M  V30 6363 C 599.114 -5.88583 0.576567 0
M  V30 6364 H 598.044 -0.749246 -0.084536 0
M  V30 6365 H 600.695 -1.76771 0.492364 0
M  V30 6366 H 599.077 -3.77202 -1.20559 0
M  V30 6367 H 600.251 -4.32124 1.60017 0
M  V30 6368 H 598.566 -3.95699 1.29659 0
M  V30 6369 H 601.163 -5.21418 -1.18436 0
M  V30 6370 H 601.506 -3.68027 -1.94581 0
M  V30 6371 H 602.039 -3.96871 -0.271696 0
M  V30 6372 H 598.778 -6.37841 1.51128 0
M  V30 6373 H 598.298 -5.99592 -0.158047 0
M  V30 6374 H 599.977 -6.46676 0.204722 0
M  V30 6375 N 600.109 -0.101901 -1.5727 0
M  V30 6376 C 601.019 0.868647 -2.17926 0
M  V30 6377 C 602.035 1.30527 -1.1506 0
M  V30 6378 O 603.211 1.37178 -1.47459 0
M  V30 6379 C 600.276 2.10727 -2.75309 0
M  V30 6380 C 599.337 1.7242 -3.93154 0
M  V30 6381 C 598.57 2.90377 -4.47791 0
M  V30 6382 O 598.793 4.05305 -4.01353 0
M  V30 6383 O 597.727 2.6845 -5.38719 0
M  V30 6384 H 601.553 0.382544 -3.01281 0
M  V30 6385 H 599.138 0.122812 -1.48894 0
M  V30 6386 H 601.02 2.83303 -3.11958 0
M  V30 6387 H 599.695 2.58376 -1.94996 0
M  V30 6388 H 598.602 0.970039 -3.61305 0
M  V30 6389 H 599.935 1.29528 -4.74851 0
M  V30 6390 N 601.587 1.56661 0.17182 0
M  V30 6391 C 602.998 1.71652 0.734329 0
M  V30 6392 C 603.349 0.712335 1.82812 0
M  V30 6393 O 602.474 -0.126401 2.16031 0
M  V30 6394 C 603.069 3.11226 1.3388 0
M  V30 6395 C 601.628 3.27904 1.84813 0
M  V30 6396 C 600.775 2.67603 0.726917 0
M  V30 6397 H 603.726 1.5861 -0.0535665 0
M  V30 6398 H 603.747 3.09849 2.20849 0
M  V30 6399 H 603.259 3.8429 0.54249 0
M  V30 6400 H 601.36 2.59796 2.6709 0
M  V30 6401 H 601.473 4.35637 1.99392 0
M  V30 6402 H 599.837 2.274 1.14723 0
M  V30 6403 H 600.62 3.43252 -0.0575334 0
M  V30 6404 N 603.065 -0.440357 1.51323 0
M  V30 6405 C 604.311 -1.19181 1.64085 0
M  V30 6406 C 604.644 -1.90936 0.354575 0
M  V30 6407 O 603.919 -1.8347 -0.645675 0
M  V30 6408 C 604.202 -2.2112 2.84215 0
M  V30 6409 C 604.055 -1.53468 4.22809 0
M  V30 6410 C 605.374 -3.22133 2.99864 0
M  V30 6411 H 602.493 -0.431924 0.597169 0
M  V30 6412 H 605.135 -0.481443 1.83799 0
M  V30 6413 H 603.285 -2.81703 2.67537 0
M  V30 6414 H 604.957 -0.962455 4.51148 0
M  V30 6415 H 603.2 -0.837086 4.25647 0
M  V30 6416 H 603.871 -2.27694 5.02852 0
M  V30 6417 H 606.347 -2.71601 3.15233 0
M  V30 6418 H 605.223 -3.90756 3.85488 0
M  V30 6419 H 605.484 -3.88061 2.11804 0
M  V30 6420 N 604.543 -1.41418 -0.695603 0
M  V30 6421 C 605.789 -1.40982 -1.4578 0
M  V30 6422 C 606.122 -0.0187763 -1.94191 0
M  V30 6423 O 605.397 0.95346 -1.69527 0
M  V30 6424 C 605.68 -2.41657 -2.66972 0
M  V30 6425 C 605.533 -3.89869 -2.24327 0
M  V30 6426 C 606.852 -2.39589 -3.69168 0
M  V30 6427 H 603.971 -0.513405 -0.528757 0
M  V30 6428 H 606.613 -1.72693 -0.792275 0
M  V30 6429 H 604.763 -2.14746 -3.23754 0
M  V30 6430 H 606.435 -4.27683 -1.72872 0
M  V30 6431 H 604.678 -4.04737 -1.56111 0
M  V30 6432 H 605.349 -4.55857 -3.11285 0
M  V30 6433 H 607.825 -2.63471 -3.2206 0
M  V30 6434 H 606.701 -3.12044 -4.51575 0
M  V30 6435 H 606.962 -1.41447 -4.18862 0
M  V30 6436 N 606.021 0.929856 -1.27246 0
M  V30 6437 C 606.951 2.04722 -1.12299 0
M  V30 6438 C 607.932 1.70082 -0.0250464 0
M  V30 6439 O 609.117 1.93176 -0.199141 0
M  V30 6440 C 606.247 3.38721 -0.767145 0
M  V30 6441 C 605.201 3.87466 -1.81808 0
M  V30 6442 C 604.527 5.18246 -1.31626 0
M  V30 6443 C 605.827 4.11095 -3.22177 0
M  V30 6444 H 607.521 2.17485 -2.05769 0
M  V30 6445 H 605.067 1.04503 -0.990715 0
M  V30 6446 H 607.02 4.16366 -0.649413 0
M  V30 6447 H 605.744 3.25967 0.203259 0
M  V30 6448 H 604.403 3.12012 -1.92468 0
M  V30 6449 H 604.051 5.01881 -0.335378 0
M  V30 6450 H 603.751 5.51829 -2.01887 0
M  V30 6451 H 605.275 5.98462 -1.21143 0
M  V30 6452 H 606.689 4.79316 -3.1453 0
M  V30 6453 H 605.086 4.55982 -3.90129 0
M  V30 6454 H 606.156 3.16468 -3.67391 0
M  V30 6455 N 607.499 1.09233 1.13605 0
M  V30 6456 C 608.91 0.846839 1.6639 0
M  V30 6457 C 609.261 -0.625031 1.85978 0
M  V30 6458 O 608.386 -1.48173 1.57714 0
M  V30 6459 C 608.981 1.5307 3.0225 0
M  V30 6460 C 607.54 1.33223 3.52035 0
M  V30 6461 C 606.687 1.58806 2.27323 0
M  V30 6462 H 609.638 1.25175 0.975541 0
M  V30 6463 H 609.659 0.96267 3.68121 0
M  V30 6464 H 609.171 2.60192 2.87961 0
M  V30 6465 H 607.272 0.282091 3.71531 0
M  V30 6466 H 607.385 2.0657 4.32279 0
M  V30 6467 H 605.749 1.01007 2.33815 0
M  V30 6468 H 606.532 2.67153 2.15602 0
M  V30 6469 N 608.977 -1.30795 0.87923 0
M  V30 6470 C 609.907 -2.30742 0.357796 0
M  V30 6471 C 610.888 -1.60747 -0.556283 0
M  V30 6472 O 612.073 -1.88393 -0.47135 0
M  V30 6473 C 609.203 -3.44583 -0.433555 0
M  V30 6474 C 608.157 -4.26235 0.388251 0
M  V30 6475 C 607.483 -5.32073 -0.529352 0
M  V30 6476 C 608.783 -4.96303 1.62729 0
M  V30 6477 H 610.477 -2.74605 1.19299 0
M  V30 6478 H 608.023 -1.32017 0.575104 0
M  V30 6479 H 609.976 -4.13563 -0.808934 0
M  V30 6480 H 608.7 -2.99511 -1.30234 0
M  V30 6481 H 607.359 -3.58936 0.745695 0
M  V30 6482 H 607.007 -4.83249 -1.39569 0
M  V30 6483 H 606.707 -5.87598 0.0166741 0
M  V30 6484 H 608.231 -6.0391 -0.901373 0
M  V30 6485 H 609.645 -5.5783 1.32283 0
M  V30 6486 H 608.042 -5.61666 2.11309 0
M  V30 6487 H 609.112 -4.22758 2.37494 0
M  V30 6488 N 610.455 -0.639598 -1.44038 0
M  V30 6489 C 611.385 0.0469443 -2.33453 0
M  V30 6490 C 612.366 0.82609 -1.48694 0
M  V30 6491 O 613.551 0.790285 -1.77393 0
M  V30 6492 C 610.681 1.02338 -3.3188 0
M  V30 6493 C 609.635 0.355284 -4.26523 0
M  V30 6494 C 608.961 1.44221 -5.14883 0
M  V30 6495 C 610.261 -0.743798 -5.16977 0
M  V30 6496 H 611.955 -0.699735 -2.91108 0
M  V30 6497 H 609.501 -0.337946 -1.39978 0
M  V30 6498 H 611.454 1.51247 -3.93322 0
M  V30 6499 H 610.178 1.80105 -2.72451 0
M  V30 6500 H 608.837 -0.113239 -3.66425 0
M  V30 6501 H 608.485 2.21097 -4.51802 0
M  V30 6502 H 608.185 1.00052 -5.79019 0
M  V30 6503 H 609.709 1.93295 -5.79197 0
M  V30 6504 H 611.123 -0.337444 -5.72306 0
M  V30 6505 H 609.52 -1.10914 -5.89761 0
M  V30 6506 H 610.59 -1.60745 -4.57481 0
M  V30 6507 N 611.933 1.52934 -0.380664 0
M  V30 6508 C 613.179 2.02443 0.197089 0
M  V30 6509 C 613.534 1.26249 1.45186 0
M  V30 6510 O 612.827 0.351964 1.8834 0
M  V30 6511 C 613.021 3.5349 0.527199 0
M  V30 6512 C 612.85 4.44312 -0.694027 0
M  V30 6513 C 611.62 4.90582 -1.21068 0
M  V30 6514 C 613.818 4.8995 -1.56377 0
M  V30 6515 N 611.8 5.65451 -2.39036 0
M  V30 6516 C 613.171 5.63313 -2.58995 0
M  V30 6517 C 615.226 4.72002 -1.58488 0
M  V30 6518 C 613.929 6.20635 -3.63599 0
M  V30 6519 C 615.955 5.30201 -2.61995 0
M  V30 6520 C 615.317 6.03463 -3.63335 0
M  V30 6521 H 611.416 0.781241 0.0344357 0
M  V30 6522 H 614 1.87387 -0.528609 0
M  V30 6523 H 612.171 3.68677 1.22196 0
M  V30 6524 H 613.903 3.89707 1.09135 0
M  V30 6525 H 610.658 4.67249 -0.772995 0
M  V30 6526 H 611.082 6.07541 -2.98701 0
M  V30 6527 H 615.724 4.14873 -0.814891 0
M  V30 6528 H 613.442 6.76852 -4.41472 0
M  V30 6529 H 617.028 5.182 -2.645 0
M  V30 6530 H 615.908 6.47693 -4.42113 0
M  V30 6531 N 613.412 0.11024 1.57214 0
M  V30 6532 C 614.659 -0.54987 1.94891 0
M  V30 6533 C 614.987 -1.67243 0.992984 0
M  V30 6534 O 614.242 -1.95694 0.0152703 0
M  V30 6535 C 614.541 -1.13102 3.39032 0
M  V30 6536 C 614.207 -0.130713 4.5071 0
M  V30 6537 C 612.869 0.14437 4.80983 0
M  V30 6538 C 615.221 0.551472 5.18274 0
M  V30 6539 C 612.549 1.10807 5.76141 0
M  V30 6540 C 614.901 1.50375 6.14467 0
M  V30 6541 C 613.565 1.78691 6.43138 0
M  V30 6542 H 612.835 -0.201212 0.713158 0
M  V30 6543 H 615.482 0.189288 1.90562 0
M  V30 6544 H 613.787 -1.94675 3.40013 0
M  V30 6545 H 615.484 -1.64973 3.65493 0
M  V30 6546 H 612.074 -0.355301 4.27125 0
M  V30 6547 H 616.258 0.35211 4.95049 0
M  V30 6548 H 611.514 1.3343 5.96663 0
M  V30 6549 H 615.688 2.03808 6.65909 0
M  V30 6550 H 613.315 2.53522 7.1668 0
M  V30 6551 N 614.89 -1.56749 -0.16351 0
M  V30 6552 C 615.853 -1.96121 -1.18613 0
M  V30 6553 C 616.853 -0.845765 -1.36761 0
M  V30 6554 O 618.043 -1.11268 -1.34033 0
M  V30 6555 C 615.175 -2.26282 -2.54969 0
M  V30 6556 H 616.368 -2.87639 -0.848764 0
M  V30 6557 H 613.921 -1.50928 -0.406251 0
M  V30 6558 H 614.656 -1.37504 -2.93706 0
M  V30 6559 H 614.441 -3.07595 -2.43162 0
M  V30 6560 H 615.931 -2.57638 -3.28653 0
M  V30 6561 N 616.368 0.432326 -1.51554 0
M  V30 6562 C 617.278 1.55023 -1.76082 0
M  V30 6563 C 618.294 1.61593 -0.645265 0
M  V30 6564 O 619.47 1.78742 -0.928086 0
M  V30 6565 C 616.535 2.90964 -1.88523 0
M  V30 6566 C 615.596 2.9447 -3.12388 0
M  V30 6567 C 614.829 4.23926 -3.24225 0
M  V30 6568 O 615.052 5.16576 -2.4188 0
M  V30 6569 O 613.986 4.33818 -4.17235 0
M  V30 6570 H 617.812 1.37238 -2.70923 0
M  V30 6571 H 615.397 0.615845 -1.36117 0
M  V30 6572 H 617.279 3.71633 -1.98662 0
M  V30 6573 H 615.954 3.08865 -0.9687 0
M  V30 6574 H 614.861 2.12737 -3.07723 0
M  V30 6575 H 616.194 2.81514 -4.03746 0
M  V30 6576 N 617.846 1.41785 0.688094 0
M  V30 6577 C 619.071 1.45117 1.48175 0
M  V30 6578 C 619.496 0.060129 1.88004 0
M  V30 6579 O 618.854 -0.938385 1.55126 0
M  V30 6580 C 618.902 2.37224 2.71583 0
M  V30 6581 O 618.006 1.83443 3.69354 0
M  V30 6582 H 617.347 0.492208 0.445676 0
M  V30 6583 H 619.877 1.86329 0.845145 0
M  V30 6584 H 619.887 2.53353 3.19806 0
M  V30 6585 H 618.562 3.38293 2.41931 0
M  V30 6586 H 617.139 1.76802 3.28322 0
M  V30 6587 N 619.324 -0.923095 1.27737 0
M  V30 6588 C 620.572 -1.66797 1.14119 0
M  V30 6589 C 620.893 -1.92479 -0.312541 0
M  V30 6590 O 620.163 -1.53432 -1.218 0
M  V30 6591 H 618.743 -0.618196 0.419336 0
M  V30 6592 H 621.405 -1.10815 1.60331 0
M  V30 6593 H 620.501 -2.63424 1.67374 0
M  V30 6594 N 620.802 -1.09834 -1.13024 0
M  V30 6595 C 621.765 -0.745058 -2.16752 0
M  V30 6596 C 622.765 0.227435 -1.59183 0
M  V30 6597 O 623.955 0.0050786 -1.74199 0
M  V30 6598 C 621.087 -0.102543 -3.40746 0
M  V30 6599 H 622.28 -1.66375 -2.49518 0
M  V30 6600 H 619.833 -0.898061 -1.27924 0
M  V30 6601 H 620.568 0.827177 -3.13573 0
M  V30 6602 H 620.353 -0.80235 -3.83803 0
M  V30 6603 H 621.843 0.129082 -4.174 0
M  V30 6604 N 622.28 1.30327 -0.886154 0
M  V30 6605 C 623.213 2.26241 -0.298407 0
M  V30 6606 C 624.191 1.51839 0.581704 0
M  V30 6607 O 625.375 1.80851 0.531536 0
M  V30 6608 C 622.502 3.33768 0.575888 0
M  V30 6609 C 621.548 4.25852 -0.235057 0
M  V30 6610 S 622.381 5.10277 -1.62411 0
M  V30 6611 C 623.537 6.21313 -0.756368 0
M  V30 6612 H 623.77 2.75744 -1.11141 0
M  V30 6613 H 621.303 1.38341 -0.685651 0
M  V30 6614 H 623.261 3.96186 1.07458 0
M  V30 6615 H 621.922 2.82986 1.363 0
M  V30 6616 H 621.115 5.02143 0.432198 0
M  V30 6617 H 620.717 3.68015 -0.666409 0
M  V30 6618 H 623.009 6.77495 0.0261451 0
M  V30 6619 H 623.952 6.92226 -1.49093 0
M  V30 6620 H 624.36 5.63611 -0.316749 0
M  V30 6621 N 623.758 0.647228 1.43697 0
M  V30 6622 C 624.668 -0.0487997 2.34549 0
M  V30 6623 C 625.684 -0.818586 1.53542 0
M  V30 6624 O 626.86 -0.767195 1.86215 0
M  V30 6625 C 623.925 -1.00734 3.31743 0
M  V30 6626 C 622.986 -0.23515 4.28655 0
M  V30 6627 C 622.219 -1.14803 5.21206 0
M  V30 6628 O 622.442 -2.38717 5.18045 0
M  V30 6629 O 621.376 -0.623667 5.9866 0
M  V30 6630 H 625.202 0.698863 2.9555 0
M  V30 6631 H 622.787 0.407412 1.43738 0
M  V30 6632 H 624.669 -1.55837 3.91526 0
M  V30 6633 H 623.344 -1.73534 2.73254 0
M  V30 6634 H 622.251 0.359319 3.7237 0
M  V30 6635 H 623.584 0.453152 4.9011 0
M  V30 6636 N 625.236 -1.5273 0.388769 0
M  V30 6637 C 626.484 -2.01174 -0.193208 0
M  V30 6638 C 626.805 -1.27705 -1.47365 0
M  V30 6639 O 626.075 -0.396966 -1.91836 0
M  V30 6640 H 624.655 -0.743287 -0.0743871 0
M  V30 6641 H 627.317 -1.87826 0.520336 0
M  V30 6642 H 626.413 -3.09477 -0.403803 0
M  V30 6643 N 626.714 -0.118576 -1.57153 0
M  V30 6644 C 627.624 0.845484 -2.18835 0
M  V30 6645 C 628.64 1.29299 -1.16438 0
M  V30 6646 O 629.816 1.35607 -1.48905 0
M  V30 6647 C 626.881 2.07795 -2.77529 0
M  V30 6648 C 625.942 1.6824 -3.9496 0
M  V30 6649 C 625.175 2.85612 -4.50845 0
M  V30 6650 O 625.398 4.01025 -4.05629 0
M  V30 6651 O 624.332 2.62721 -5.41536 0
M  V30 6652 H 628.158 0.350568 -3.0167 0
M  V30 6653 H 625.743 0.107013 -1.49016 0
M  V30 6654 H 627.625 2.79978 -3.14945 0
M  V30 6655 H 626.3 2.56294 -1.97725 0
M  V30 6656 H 625.207 0.931663 -3.62313 0
M  V30 6657 H 626.54 1.24484 -4.76198 0
M  V30 6658 N 628.193 1.56834 0.155195 0
M  V30 6659 C 629.421 1.87049 0.884326 0
M  V30 6660 C 629.836 0.705839 1.7511 0
M  V30 6661 O 629.193 -0.324641 1.79589 0
M  V30 6662 C 629.244 3.1644 1.74781 0
M  V30 6663 O 628.965 4.28417 0.915978 0
M  V30 6664 C 630.466 3.60113 2.58522 0
M  V30 6665 H 627.686 0.620196 0.25612 0
M  V30 6666 H 630.23 2.03946 0.150445 0
M  V30 6667 H 628.385 3.01321 2.43484 0
M  V30 6668 H 628.799 5.02353 1.50803 0
M  V30 6669 H 630.273 4.53508 3.14698 0
M  V30 6670 H 630.75 2.85005 3.34169 0
M  V30 6671 H 631.356 3.77898 1.95124 0
M  V30 6672 N 629.671 -0.424282 1.51781 0
M  V30 6673 C 630.601 -1.52305 1.7699 0
M  V30 6674 C 631.582 -1.5839 0.620209 0
M  V30 6675 O 632.767 -1.73908 0.864268 0
M  V30 6676 C 629.897 -2.90271 1.90683 0
M  V30 6677 C 628.851 -2.99043 3.06198 0
M  V30 6678 C 628.177 -4.39116 3.05092 0
M  V30 6679 C 629.477 -2.7192 4.45934 0
M  V30 6680 H 631.171 -1.31461 2.68995 0
M  V30 6681 H 628.717 -0.630985 1.29439 0
M  V30 6682 H 630.67 -3.6711 2.06901 0
M  V30 6683 H 629.394 -3.12376 0.953365 0
M  V30 6684 H 628.053 -2.24646 2.89706 0
M  V30 6685 H 627.701 -4.58207 2.07498 0
M  V30 6686 H 627.401 -4.45912 3.82669 0
M  V30 6687 H 628.925 -5.17911 3.2342 0
M  V30 6688 H 630.339 -3.38487 4.62709 0
M  V30 6689 H 628.736 -2.90111 5.25315 0
M  V30 6690 H 629.806 -1.67445 4.55072 0
M  V30 6691 N 631.149 -1.42148 -0.680565 0
M  V30 6692 C 632.099 -1.41634 -1.78672 0
M  V30 6693 C 633.083 -0.288494 -1.58293 0
M  V30 6694 O 634.275 -0.530295 -1.68869 0
M  V30 6695 C 631.404 -1.31558 -3.17092 0
M  V30 6696 C 630.49 -2.49265 -3.43115 0
M  V30 6697 N 630.881 -3.74702 -3.39753 0
M  V30 6698 C 629.179 -2.43401 -3.73727 0
M  V30 6699 C 629.88 -4.52854 -3.651 0
M  V30 6700 N 628.856 -3.83181 -3.85582 0
M  V30 6701 H 632.658 -2.3652 -1.74458 0
M  V30 6702 H 630.172 -1.36415 -0.881171 0
M  V30 6703 H 632.169 -1.29272 -3.96351 0
M  V30 6704 H 630.829 -0.376696 -3.22508 0
M  V30 6705 H 631.84 -4.07378 -3.19787 0
M  V30 6706 H 628.517 -1.58062 -3.86423 0
M  V30 6707 H 629.907 -5.61827 -3.6851 0
M  V30 6708 N 632.627 0.916307 -1.28225 0
M  V30 6709 C 633.855 1.69901 -1.18073 0
M  V30 6710 C 634.27 1.86988 0.260968 0
M  V30 6711 O 633.627 1.39505 1.17663 0
M  V30 6712 C 633.678 3.09254 -1.87201 0
M  V30 6713 O 633.399 2.92959 -3.2574 0
M  V30 6714 C 634.9 4.0362 -1.83319 0
M  V30 6715 H 632.12 0.531181 -0.409985 0
M  V30 6716 H 634.664 1.14703 -1.69303 0
M  V30 6717 H 632.819 3.61277 -1.39848 0
M  V30 6718 H 633.233 3.81139 -3.60324 0
M  V30 6719 H 634.707 4.98873 -2.36282 0
M  V30 6720 H 635.184 4.3176 -0.805007 0
M  V30 6721 H 635.79 3.57524 -2.3034 0
M  V30 6722 N 634.105 1.10431 1.1244 0
M  V30 6723 C 635.352 0.846717 1.83948 0
M  V30 6724 C 635.68 -0.627709 1.84093 0
M  V30 6725 O 634.935 -1.47876 1.28184 0
M  V30 6726 C 635.234 1.34022 3.3132 0
M  V30 6727 C 634.9 2.82606 3.51347 0
M  V30 6728 C 633.562 3.23182 3.56521 0
M  V30 6729 C 635.914 3.78356 3.58464 0
M  V30 6730 C 633.242 4.58258 3.66356 0
M  V30 6731 C 635.594 5.13234 3.69829 0
M  V30 6732 C 634.258 5.53384 3.73259 0
M  V30 6733 H 633.528 0.309836 0.673114 0
M  V30 6734 H 636.175 1.38091 1.32677 0
M  V30 6735 H 634.48 0.726047 3.85014 0
M  V30 6736 H 636.177 1.11739 3.85118 0
M  V30 6737 H 632.767 2.50212 3.47983 0
M  V30 6738 H 636.951 3.48115 3.53737 0
M  V30 6739 H 632.207 4.88787 3.67284 0
M  V30 6740 H 636.381 5.87272 3.74279 0
M  V30 6741 H 634.008 6.58045 3.80633 0
M  V30 6742 N 635.583 -1.29855 0.893053 0
M  V30 6743 C 636.813 -1.99686 0.530019 0
M  V30 6744 C 637.221 -1.67066 -0.888012 0
M  V30 6745 O 636.564 -0.908366 -1.5967 0
M  V30 6746 C 636.626 -3.53855 0.63457 0
M  V30 6747 C 636.29 -4.10013 2.01837 0
M  V30 6748 C 637.287 -4.25406 2.98874 0
M  V30 6749 C 634.972 -4.45202 2.32595 0
M  V30 6750 C 636.966 -4.7521 4.24799 0
M  V30 6751 C 634.653 -4.94704 3.58763 0
M  V30 6752 C 635.651 -5.09662 4.5468 0
M  V30 6753 O 635.339 -5.58093 5.78608 0
M  V30 6754 H 635.071 -0.644913 0.20264 0
M  V30 6755 H 637.625 -1.66518 1.20253 0
M  V30 6756 H 635.855 -3.86583 -0.0949477 0
M  V30 6757 H 637.544 -4.04922 0.281648 0
M  V30 6758 H 638.31 -3.98515 2.76425 0
M  V30 6759 H 634.189 -4.32822 1.58701 0
M  V30 6760 H 637.733 -4.86801 4.99671 0
M  V30 6761 H 633.63 -5.21032 3.81046 0
M  V30 6762 H 634.398 -5.7642 5.81104 0
M  V30 6763 N 637.061 -0.65484 -1.43351 0
M  V30 6764 C 638.289 -0.176685 -2.06144 0
M  V30 6765 C 638.704 1.15831 -1.49093 0
M  V30 6766 O 638.061 1.71542 -0.622868 0
M  V30 6767 C 638.112 -0.0813326 -3.61408 0
M  V30 6768 O 637.833 -1.36355 -4.1634 0
M  V30 6769 C 639.334 0.422706 -4.4128 0
M  V30 6770 H 636.554 -0.0906429 -0.66485 0
M  V30 6771 H 639.098 -0.895945 -1.83829 0
M  V30 6772 H 637.253 0.588496 -3.82904 0
M  V30 6773 H 637.667 -1.22381 -5.10023 0
M  V30 6774 H 639.141 0.438375 -5.50257 0
M  V30 6775 H 639.618 1.45432 -4.14423 0
M  V30 6776 H 640.224 -0.214687 -4.24758 0
M  V30 6777 N 638.539 1.52521 -0.396863 0
M  V30 6778 C 639.471 2.24333 0.469814 0
M  V30 6779 C 640.484 1.2685 1.02043 0
M  V30 6780 O 641.673 1.52876 0.92147 0
M  V30 6781 C 638.773 2.95202 1.66461 0
M  V30 6782 C 637.946 4.19454 1.24003 0
M  V30 6783 C 637.005 4.73255 2.30036 0
M  V30 6784 O 636.031 5.36151 1.91131 0
M  V30 6785 N 637.233 4.53765 3.62047 0
M  V30 6786 H 639.998 2.99347 -0.145468 0
M  V30 6787 H 637.559 1.60348 -0.223606 0
M  V30 6788 H 639.551 3.28092 2.36934 0
M  V30 6789 H 638.121 2.2345 2.18607 0
M  V30 6790 H 637.341 3.92517 0.363892 0
M  V30 6791 H 638.629 5.0017 0.933135 0
M  V30 6792 H 638.027 4.03576 3.96412 0
M  V30 6793 H 636.584 4.91124 4.28533 0
M  V30 6794 N 640.017 0.126909 1.57088 0
M  V30 6795 C 640.947 -0.816847 2.18746 0
M  V30 6796 C 641.928 -1.27161 1.12979 0
M  V30 6797 O 643.113 -1.33279 1.41246 0
M  V30 6798 C 640.243 -2.06398 2.79315 0
M  V30 6799 C 639.197 -1.74673 3.90735 0
M  V30 6800 C 638.523 -3.06482 4.38147 0
M  V30 6801 C 639.823 -1.0089 5.12463 0
M  V30 6802 H 641.517 -0.303032 2.97863 0
M  V30 6803 H 639.063 -0.144314 1.43275 0
M  V30 6804 H 641.016 -2.72885 3.2111 0
M  V30 6805 H 639.74 -2.60118 1.975 0
M  V30 6806 H 638.399 -1.10572 3.49527 0
M  V30 6807 H 638.047 -3.58152 3.5318 0
M  V30 6808 H 637.747 -2.86025 5.13287 0
M  V30 6809 H 639.271 -3.74073 4.82599 0
M  V30 6810 H 640.685 -1.57546 5.51228 0
M  V30 6811 H 639.082 -0.905006 5.93237 0
M  V30 6812 H 640.152 0.00297335 4.849 0
M  V30 6813 N 641.495 -1.56914 -0.146875 0
M  V30 6814 C 642.741 -1.83628 -0.860741 0
M  V30 6815 C 643.074 -0.708528 -1.80813 0
M  V30 6816 O 642.349 0.287838 -1.92358 0
M  V30 6817 C 642.632 -3.20836 -1.63511 0
M  V30 6818 C 642.485 -4.44174 -0.709199 0
M  V30 6819 C 643.804 -3.55268 -2.59756 0
M  V30 6820 H 640.923 -0.667949 -0.311468 0
M  V30 6821 H 643.565 -1.89582 -0.125936 0
M  V30 6822 H 641.715 -3.15891 -2.26153 0
M  V30 6823 H 643.387 -4.61205 -0.0937781 0
M  V30 6824 H 641.63 -4.33796 -0.0187856 0
M  V30 6825 H 642.301 -5.36785 -1.28707 0
M  V30 6826 H 644.777 -3.60824 -2.07232 0
M  V30 6827 H 643.653 -4.52303 -3.10987 0
M  V30 6828 H 643.914 -2.81231 -3.41118 0
M  V30 6829 N 642.974 0.416227 -1.52004 0
M  V30 6830 C 643.904 1.51365 -1.77795 0
M  V30 6831 C 644.885 1.58059 -0.628601 0
M  V30 6832 O 646.07 1.73447 -0.873478 0
M  V30 6833 C 643.2 2.89256 -1.92219 0
M  V30 6834 C 642.154 2.97415 -3.0778 0
M  V30 6835 C 641.48 4.37492 -3.07417 0
M  V30 6836 C 642.78 2.69551 -4.47369 0
M  V30 6837 H 644.474 1.30033 -2.69688 0
M  V30 6838 H 642.02 0.624112 -1.29772 0
M  V30 6839 H 643.973 3.66008 -2.08845 0
M  V30 6840 H 642.697 3.11866 -0.969917 0
M  V30 6841 H 641.356 2.23107 -2.90893 0
M  V30 6842 H 641.004 4.571 -2.09925 0
M  V30 6843 H 640.704 4.43877 -3.85029 0
M  V30 6844 H 642.228 5.16188 -3.26162 0
M  V30 6845 H 643.642 3.36028 -4.64497 0
M  V30 6846 H 642.039 2.87321 -5.26846 0
M  V30 6847 H 643.109 1.65029 -4.55953 0
M  V30 6848 N 644.452 1.42507 0.673017 0
M  V30 6849 C 645.385 1.40557 1.79774 0
M  V30 6850 C 646.363 0.269606 1.60349 0
M  V30 6851 O 647.547 0.460105 1.82798 0
M  V30 6852 C 644.674 1.19815 3.168 0
M  V30 6853 C 643.72 2.36429 3.5497 0
M  V30 6854 S 644.553 3.98963 3.57196 0
M  V30 6855 C 645.709 3.80567 4.9691 0
M  V30 6856 H 645.942 2.35734 1.81154 0
M  V30 6857 H 643.475 1.293 0.843846 0
M  V30 6858 H 645.433 1.08535 3.95892 0
M  V30 6859 H 644.094 0.262215 3.13004 0
M  V30 6860 H 643.287 2.17669 4.54573 0
M  V30 6861 H 642.889 2.44233 2.83242 0
M  V30 6862 H 645.181 3.41668 5.85038 0
M  V30 6863 H 646.124 4.79852 5.20718 0
M  V30 6864 H 646.532 3.13399 4.69512 0
M  V30 6865 N 645.93 -0.909495 1.28709 0
M  V30 6866 C 647.341 -1.47419 1.14563 0
M  V30 6867 C 647.692 -1.94432 -0.262832 0
M  V30 6868 O 646.817 -1.82842 -1.15748 0
M  V30 6869 C 647.412 -2.67933 2.07358 0
M  V30 6870 C 645.971 -3.20568 1.97264 0
M  V30 6871 C 645.118 -1.93269 1.98852 0
M  V30 6872 H 648.069 -0.721787 1.41336 0
M  V30 6873 H 648.09 -3.43339 1.64007 0
M  V30 6874 H 647.602 -2.33685 3.09859 0
M  V30 6875 H 645.703 -3.59531 0.978157 0
M  V30 6876 H 645.816 -3.85529 2.84436 0
M  V30 6877 H 644.18 -2.10553 1.43317 0
M  V30 6878 H 644.963 -1.61312 3.0304 0
M  V30 6879 N 647.408 -1.11026 -1.11852 0
M  V30 6880 C 648.355 -0.764662 -2.17765 0
M  V30 6881 C 649.325 0.261854 -1.64023 0
M  V30 6882 O 650.51 0.139748 -1.90288 0
M  V30 6883 C 647.65 -0.209317 -3.44465 0
M  V30 6884 C 646.763 -1.29187 -4.12231 0
M  V30 6885 C 645.898 -0.697523 -5.266 0
M  V30 6886 C 644.937 -1.76023 -5.86244 0
M  V30 6887 N 644.074 -1.18569 -6.92016 0
M  V30 6888 H 648.914 -1.67202 -2.46673 0
M  V30 6889 H 646.451 -0.835065 -1.21099 0
M  V30 6890 H 648.409 0.130599 -4.16996 0
M  V30 6891 H 647.039 0.661251 -3.15955 0
M  V30 6892 H 646.091 -1.74881 -3.37818 0
M  V30 6893 H 647.403 -2.09607 -4.52622 0
M  V30 6894 H 646.557 -0.307412 -6.05921 0
M  V30 6895 H 645.296 0.138044 -4.87505 0
M  V30 6896 H 644.301 -2.1597 -5.05606 0
M  V30 6897 H 645.526 -2.59875 -6.27409 0
M  V30 6898 H 643.472 -0.371695 -6.54946 0
M  V30 6899 H 643.389 -1.92666 -7.31038 0
M  V30 6900 H 644.657 -0.82233 -7.7515 0
M  V30 6901 N 648.886 1.2938 -0.899927 0
M  V30 6902 C 650.132 1.9584 -0.526742 0
M  V30 6903 C 650.465 1.70774 0.924651 0
M  V30 6904 O 649.74 1.02084 1.65557 0
M  V30 6905 C 650.023 3.50638 -0.820062 0
M  V30 6906 C 649.876 3.85161 -2.32317 0
M  V30 6907 C 651.195 4.3903 -0.30671 0
M  V30 6908 H 648.314 0.711322 -0.192848 0
M  V30 6909 H 650.956 1.52992 -1.12665 0
M  V30 6910 H 649.106 3.87265 -0.309491 0
M  V30 6911 H 650.778 3.58477 -2.9033 0
M  V30 6912 H 649.021 3.32696 -2.78381 0
M  V30 6913 H 649.692 4.93204 -2.47898 0
M  V30 6914 H 652.168 4.09396 -0.743908 0
M  V30 6915 H 651.044 5.46226 -0.541144 0
M  V30 6916 H 651.305 4.34937 0.792588 0
M  V30 6917 N 650.364 0.662433 1.43002 0
M  V30 6918 C 651.297 -0.073459 2.28082 0
M  V30 6919 C 652.275 -0.820869 1.40358 0
M  V30 6920 O 653.459 -0.818545 1.698 0
M  V30 6921 C 650.586 -1.11097 3.19961 0
M  V30 6922 C 649.632 -0.460557 4.24006 0
M  V30 6923 S 650.465 0.772717 5.29896 0
M  V30 6924 C 651.621 -0.264028 6.25343 0
M  V30 6925 H 651.854 0.648227 2.90147 0
M  V30 6926 H 649.387 0.451566 1.47649 0
M  V30 6927 H 651.345 -1.70452 3.73439 0
M  V30 6928 H 650.006 -1.80503 2.57056 0
M  V30 6929 H 649.199 -1.24299 4.88432 0
M  V30 6930 H 648.801 0.0591038 3.73953 0
M  V30 6931 H 651.093 -1.12748 6.68052 0
M  V30 6932 H 652.036 0.345443 7.07257 0
M  V30 6933 H 652.444 -0.603964 5.6126 0
M  V30 6934 N 651.842 -1.52309 0.404946 0
M  V30 6935 C 652.792 -2.23717 -0.439864 0
M  V30 6936 C 653.776 -1.24692 -1.0169 0
M  V30 6937 O 654.968 -1.49951 -0.940409 0
M  V30 6938 C 652.097 -3.05898 -1.55825 0
M  V30 6939 C 651.183 -4.12331 -0.992188 0
M  V30 6940 N 651.574 -5.0557 -0.152424 0
M  V30 6941 C 649.872 -4.2774 -1.26312 0
M  V30 6942 C 650.573 -5.81474 0.162041 0
M  V30 6943 N 649.549 -5.41767 -0.44601 0
M  V30 6944 H 653.351 -2.93162 0.208084 0
M  V30 6945 H 650.865 -1.60969 0.215131 0
M  V30 6946 H 652.862 -3.55605 -2.17603 0
M  V30 6947 H 651.522 -2.37991 -2.20886 0
M  V30 6948 H 652.533 -5.17468 0.211556 0
M  V30 6949 H 649.21 -3.71062 -1.91362 0
M  V30 6950 H 650.6 -6.66585 0.843423 0
M  V30 6951 N 653.32 -0.135238 -1.57019 0
M  V30 6952 C 654.55 0.525303 -1.9981 0
M  V30 6953 C 654.958 1.59724 -1.01415 0
M  V30 6954 O 654.301 1.837 -0.00130938 0
M  V30 6955 C 654.363 1.19578 -3.3903 0
M  V30 6956 C 654.027 0.269855 -4.56203 0
M  V30 6957 C 655.024 -0.497905 -5.1751 0
M  V30 6958 C 652.709 0.176188 -5.01991 0
M  V30 6959 C 654.703 -1.3469 -6.23007 0
M  V30 6960 C 652.39 -0.676422 -6.07345 0
M  V30 6961 C 653.388 -1.43658 -6.67721 0
M  V30 6962 O 653.076 -2.27501 -7.71037 0
M  V30 6963 H 652.808 0.142296 -0.660854 0
M  V30 6964 H 655.362 -0.223272 -2.04183 0
M  V30 6965 H 653.592 1.99176 -3.3146 0
M  V30 6966 H 655.281 1.75486 -3.66005 0
M  V30 6967 H 656.047 -0.435507 -4.83041 0
M  V30 6968 H 651.926 0.757583 -4.54733 0
M  V30 6969 H 655.47 -1.9407 -6.70062 0
M  V30 6970 H 651.367 -0.740154 -6.41243 0
M  V30 6971 H 652.135 -2.20619 -7.88206 0
M  V30 6972 N 654.798 1.5699 0.138552 0
M  V30 6973 C 655.761 1.97984 1.15478 0
M  V30 6974 C 656.761 0.867416 1.35398 0
M  V30 6975 O 657.951 1.13387 1.32246 0
M  V30 6976 C 655.083 2.3031 2.51337 0
M  V30 6977 H 656.276 2.88953 0.802896 0
M  V30 6978 H 653.829 1.51555 0.382189 0
M  V30 6979 H 654.564 1.42159 2.91481 0
M  V30 6980 H 654.349 3.11425 2.38237 0
M  V30 6981 H 655.839 2.62834 3.24512 0
M  V30 6982 N 656.276 -0.40816 1.52223 0
M  V30 6983 C 657.208 -1.51642 1.71864 0
M  V30 6984 C 658.221 -1.51378 0.599056 0
M  V30 6985 O 659.41 -1.55626 0.874239 0
M  V30 6986 C 656.51 -2.90534 1.74481 0
M  V30 6987 C 655.683 -3.14979 3.03491 0
M  V30 6988 C 654.742 -4.33749 2.97907 0
M  V30 6989 O 653.768 -4.30982 3.71811 0
M  V30 6990 N 654.97 -5.38912 2.15764 0
M  V30 6991 H 657.735 -1.35188 2.67478 0
M  V30 6992 H 655.296 -0.597468 1.50472 0
M  V30 6993 H 657.288 -3.68056 1.68275 0
M  V30 6994 H 655.858 -3.00441 0.863363 0
M  V30 6995 H 655.078 -2.25492 3.23337 0
M  V30 6996 H 656.366 -3.28156 3.88833 0
M  V30 6997 H 655.764 -5.44008 1.55152 0
M  V30 6998 H 654.321 -6.15174 2.15415 0
M  V30 6999 N 657.755 -1.42862 -0.66545 0
M  V30 7000 C 658.985 -1.47032 -1.45138 0
M  V30 7001 C 659.393 -0.0829977 -1.89018 0
M  V30 7002 O 658.736 0.914551 -1.59316 0
M  V30 7003 C 658.798 -2.34302 -2.72659 0
M  V30 7004 C 658.462 -3.82034 -2.50796 0
M  V30 7005 C 659.459 -4.73453 -2.14799 0
M  V30 7006 C 657.144 -4.26397 -2.655 0
M  V30 7007 C 659.138 -6.07228 -1.93785 0
M  V30 7008 C 656.825 -5.6023 -2.44103 0
M  V30 7009 C 657.823 -6.50462 -2.08299 0
M  V30 7010 O 657.511 -7.8182 -1.87116 0
M  V30 7011 H 657.243 -0.501969 -0.452772 0
M  V30 7012 H 659.797 -1.88137 -0.82423 0
M  V30 7013 H 658.027 -1.88063 -3.37889 0
M  V30 7014 H 659.716 -2.29818 -3.34572 0
M  V30 7015 H 660.482 -4.4046 -2.03026 0
M  V30 7016 H 656.361 -3.56448 -2.92345 0
M  V30 7017 H 659.905 -6.7762 -1.65763 0
M  V30 7018 H 655.802 -5.92793 -2.55475 0
M  V30 7019 H 656.57 -7.93274 -2.01639 0
M  V30 7020 N 659.233 0.902656 -1.29189 0
M  V30 7021 C 660.479 1.65532 -1.17163 0
M  V30 7022 C 660.812 1.92216 0.276879 0
M  V30 7023 O 660.087 1.53048 1.20027 0
M  V30 7024 C 660.37 3.00629 -1.98228 0
M  V30 7025 C 660.223 2.81029 -3.51202 0
M  V30 7026 C 661.542 4.01321 -1.80635 0
M  V30 7027 H 658.661 0.60071 -0.426985 0
M  V30 7028 H 661.303 1.04578 -1.5863 0
M  V30 7029 H 659.453 3.52656 -1.62991 0
M  V30 7030 H 661.125 2.35927 -3.96404 0
M  V30 7031 H 659.368 2.1587 -3.76275 0
M  V30 7032 H 660.039 3.77014 -4.03192 0
M  V30 7033 H 662.515 3.58394 -2.11406 0
M  V30 7034 H 661.391 4.93792 -2.3971 0
M  V30 7035 H 661.652 4.35505 -0.760754 0
M  V30 7036 N 660.711 1.11618 1.11262 0
M  V30 7037 C 661.641 0.79846 2.19424 0
M  V30 7038 C 662.622 -0.234003 1.68483 0
M  V30 7039 O 663.807 -0.0970704 1.93957 0
M  V30 7040 C 660.937 0.242892 3.4645 0
M  V30 7041 C 659.891 1.20744 4.10615 0
M  V30 7042 C 659.217 0.512494 5.32238 0
M  V30 7043 C 660.517 2.55884 4.55325 0
M  V30 7044 H 662.211 1.70286 2.46258 0
M  V30 7045 H 659.757 0.820195 1.18359 0
M  V30 7046 H 661.71 0.00840447 4.21399 0
M  V30 7047 H 660.434 -0.696811 3.1908 0
M  V30 7048 H 659.093 1.42759 3.37662 0
M  V30 7049 H 658.741 -0.432075 5.01141 0
M  V30 7050 H 658.441 1.15583 5.7612 0
M  V30 7051 H 659.965 0.286842 6.09926 0
M  V30 7052 H 661.379 2.37946 5.21588 0
M  V30 7053 H 659.776 3.16216 5.10027 0
M  V30 7054 H 660.846 3.14968 3.68678 0
M  V30 7055 N 662.189 -1.289 0.906776 0
M  V30 7056 C 663.119 -2.29932 0.406659 0
M  V30 7057 C 664.1 -1.6189 -0.522061 0
M  V30 7058 O 665.285 -1.8935 -0.431283 0
M  V30 7059 C 662.415 -3.45425 -0.360366 0
M  V30 7060 C 661.369 -4.25316 0.478574 0
M  V30 7061 C 660.695 -5.33076 -0.416373 0
M  V30 7062 C 661.995 -4.92739 1.7322 0
M  V30 7063 H 663.689 -2.72013 1.25097 0
M  V30 7064 H 661.235 -1.30768 0.602977 0
M  V30 7065 H 663.188 -4.15186 -0.721029 0
M  V30 7066 H 661.912 -3.02206 -1.23852 0
M  V30 7067 H 660.571 -3.57273 0.821662 0
M  V30 7068 H 660.219 -4.86101 -1.29287 0
M  V30 7069 H 659.919 -5.8743 0.141309 0
M  V30 7070 H 661.443 -6.05686 -0.773072 0
M  V30 7071 H 662.857 -5.54898 1.44086 0
M  V30 7072 H 661.254 -5.57057 2.23175 0
M  V30 7073 H 662.324 -4.17625 2.46408 0
M  V30 7074 N 663.667 -0.670007 -1.42649 0
M  V30 7075 C 664.63 0.00204659 -2.292 0
M  V30 7076 C 665.63 0.733817 -1.4308 0
M  V30 7077 O 666.82 0.57254 -1.64522 0
M  V30 7078 C 663.952 1.01359 -3.25483 0
M  V30 7079 H 665.145 -0.759696 -2.90118 0
M  V30 7080 H 662.698 -0.432105 -1.50208 0
M  V30 7081 H 663.433 1.80399 -2.69493 0
M  V30 7082 H 663.218 0.492323 -3.88997 0
M  V30 7083 H 664.708 1.4824 -3.90403 0
M  V30 7084 N 665.145 1.52092 -0.413018 0
M  V30 7085 C 666.075 2.30021 0.401567 0
M  V30 7086 C 667.056 1.34395 1.04269 0
M  V30 7087 O 668.241 1.63304 1.05097 0
M  V30 7088 C 665.371 3.12447 1.51638 0
M  V30 7089 C 664.325 4.16153 1.00005 0
M  V30 7090 C 663.651 4.86948 2.20875 0
M  V30 7091 C 664.951 5.22275 0.0513757 0
M  V30 7092 H 666.645 2.98365 -0.248704 0
M  V30 7093 H 664.191 1.4349 -0.121052 0
M  V30 7094 H 666.144 3.65733 2.09326 0
M  V30 7095 H 664.868 2.41879 2.19458 0
M  V30 7096 H 663.527 3.63882 0.445549 0
M  V30 7097 H 663.175 4.12905 2.8726 0
M  V30 7098 H 662.875 5.57057 1.86978 0
M  V30 7099 H 664.399 5.43048 2.79162 0
M  V30 7100 H 665.813 5.70778 0.537176 0
M  V30 7101 H 664.21 5.9977 -0.198977 0
M  V30 7102 H 665.28 4.76611 -0.892736 0
M  V30 7103 N 666.623 0.143563 1.56945 0
M  V30 7104 C 667.871 -0.507402 1.95627 0
M  V30 7105 C 668.192 -1.65626 1.02922 0
M  V30 7106 O 667.462 -1.95693 0.0901136 0
M  V30 7107 H 666.042 -0.190436 0.722318 0
M  V30 7108 H 668.704 0.218257 1.93674 0
M  V30 7109 H 667.8 -0.885816 2.99265 0
M  V30 7110 N 668.101 -1.57061 -0.130224 0
M  V30 7111 C 669.341 -1.86071 -0.845993 0
M  V30 7112 C 669.705 -0.73009 -1.77577 0
M  V30 7113 O 670.906 -0.901663 -2.53226 0
M  V30 7114 C 669.177 -3.20293 -1.58579 0
M  V30 7115 S 670.736 -3.70905 -2.34467 0
M  V30 7116 H 667.554 -0.652434 -0.282579 0
M  V30 7117 H 670.156 -1.95218 -0.10498 0
M  V30 7118 H 668.86 -4.00533 -0.894509 0
M  V30 7119 H 668.391 -3.14195 -2.36739 0
M  V30 7120 H 670.406 -3.41509 -3.59981 0
M  V30 7121 N 669.579 0.400081 -1.52437 0
M  V30 7122 C 670.825 1.14788 -1.67187 0
M  V30 7123 C 671.158 1.89928 -0.405074 0
M  V30 7124 O 670.433 1.85118 0.596804 0
M  V30 7125 C 670.716 2.13507 -2.89977 0
M  V30 7126 C 670.569 1.42204 -4.2673 0
M  V30 7127 C 671.888 3.14069 -3.083 0
M  V30 7128 H 669.007 0.415939 -0.608411 0
M  V30 7129 H 671.649 0.432542 -1.85011 0
M  V30 7130 H 669.799 2.7451 -2.74912 0
M  V30 7131 H 671.471 0.842503 -4.53541 0
M  V30 7132 H 669.714 0.723939 -4.27717 0
M  V30 7133 H 670.385 2.14281 -5.08712 0
M  V30 7134 H 672.861 2.63148 -3.22323 0
M  V30 7135 H 671.737 3.80398 -3.95713 0
M  V30 7136 H 671.998 3.82309 -2.22018 0
M  V30 7137 N 671.057 1.43213 0.657864 0
M  V30 7138 C 671.987 1.50815 1.78262 0
M  V30 7139 C 672.968 0.363211 1.66177 0
M  V30 7140 O 674.153 0.579806 1.85343 0
M  V30 7141 C 671.283 1.42625 3.16663 0
M  V30 7142 C 670.237 2.5532 3.43505 0
M  V30 7143 C 669.563 2.32184 4.81658 0
M  V30 7144 C 670.863 3.97583 3.38711 0
M  V30 7145 H 672.557 2.44954 1.72157 0
M  V30 7146 H 670.103 1.17896 0.82683 0
M  V30 7147 H 672.056 1.46548 3.95097 0
M  V30 7148 H 670.78 0.449877 3.23487 0
M  V30 7149 H 669.439 2.50742 2.6744 0
M  V30 7150 H 669.087 1.32801 4.85153 0
M  V30 7151 H 668.787 3.07724 5.00579 0
M  V30 7152 H 670.311 2.37883 5.62356 0
M  V30 7153 H 671.725 4.03673 4.07089 0
M  V30 7154 H 670.122 4.73112 3.69168 0
M  V30 7155 H 671.192 4.23049 2.36976 0
M  V30 7156 N 672.536 -0.895792 1.29666 0
M  V30 7157 C 673.466 -2.01673 1.17688 0
M  V30 7158 C 674.447 -1.69955 0.0701317 0
M  V30 7159 O 675.632 -1.9258 0.250289 0
M  V30 7160 C 672.762 -3.36568 0.856681 0
M  V30 7161 C 671.716 -3.82509 1.92017 0
M  V30 7162 C 671.042 -5.14574 1.4532 0
M  V30 7163 C 672.342 -4.02409 3.32963 0
M  V30 7164 H 674.036 -2.11953 2.11463 0
M  V30 7165 H 671.582 -1.01839 1.01807 0
M  V30 7166 H 673.535 -4.14498 0.759577 0
M  V30 7167 H 672.259 -3.26391 -0.116763 0
M  V30 7168 H 670.918 -3.068 2.00673 0
M  V30 7169 H 670.566 -5.00815 0.468325 0
M  V30 7170 H 670.266 -5.46283 2.16447 0
M  V30 7171 H 671.79 -5.9504 1.36968 0
M  V30 7172 H 673.204 -4.70808 3.27127 0
M  V30 7173 H 671.601 -4.45478 4.02082 0
M  V30 7174 H 672.671 -3.06616 3.75652 0
M  V30 7175 N 674.014 -1.12206 -1.10668 0
M  V30 7176 C 674.944 -0.810086 -2.18997 0
M  V30 7177 C 675.925 0.225065 -1.68604 0
M  V30 7178 O 677.11 0.086783 -1.94006 0
M  V30 7179 C 674.24 -0.261262 -3.46316 0
M  V30 7180 C 673.194 -1.2292 -4.09969 0
M  V30 7181 C 672.52 -0.540713 -5.31959 0
M  V30 7182 C 673.82 -2.58295 -4.53962 0
M  V30 7183 H 675.514 -1.7159 -2.45352 0
M  V30 7184 H 673.06 -0.82646 -1.17922 0
M  V30 7185 H 675.013 -0.0307522 -4.21389 0
M  V30 7186 H 673.737 0.679879 -3.19445 0
M  V30 7187 H 672.396 -1.44548 -3.369 0
M  V30 7188 H 672.044 0.405492 -5.01363 0
M  V30 7189 H 671.744 -1.18637 -5.75499 0
M  V30 7190 H 673.268 -0.319184 -6.09765 0
M  V30 7191 H 674.682 -2.40709 -5.20319 0
M  V30 7192 H 673.079 -3.18916 -5.08343 0
M  V30 7193 H 674.149 -3.16918 -3.67002 0
M  V30 7194 N 675.492 1.28418 -0.913599 0
M  V30 7195 C 676.738 1.9527 -0.547484 0
M  V30 7196 C 677.071 1.71745 0.906486 0
M  V30 7197 O 676.346 1.03834 1.64465 0
M  V30 7198 C 676.629 3.49748 -0.857205 0
M  V30 7199 C 676.482 3.82675 -2.3639 0
M  V30 7200 C 677.801 4.3868 -0.353258 0
M  V30 7201 H 674.92 0.709236 -0.200381 0
M  V30 7202 H 677.562 1.51789 -1.14281 0
M  V30 7203 H 675.712 3.86915 -0.350548 0
M  V30 7204 H 677.384 3.55378 -2.94116 0
M  V30 7205 H 675.627 3.29724 -2.81894 0
M  V30 7206 H 676.298 4.90547 -2.53115 0
M  V30 7207 H 678.774 4.08584 -0.787288 0
M  V30 7208 H 677.65 5.45621 -0.599049 0
M  V30 7209 H 677.911 4.35753 0.746413 0
M  V30 7210 N 676.97 0.677563 1.42291 0
M  V30 7211 C 678.381 0.277912 1.8462 0
M  V30 7212 C 678.732 -1.18048 1.56714 0
M  V30 7213 O 677.857 -1.90404 1.02836 0
M  V30 7214 C 678.452 0.497619 3.35126 0
M  V30 7215 C 677.011 0.152063 3.76093 0
M  V30 7216 C 676.158 0.78872 2.65847 0
M  V30 7217 H 679.109 0.879527 1.32098 0
M  V30 7218 H 679.13 -0.24939 3.79682 0
M  V30 7219 H 678.642 1.55913 3.55405 0
M  V30 7220 H 676.743 -0.905896 3.6142 0
M  V30 7221 H 676.856 0.594514 4.75397 0
M  V30 7222 H 675.22 0.219813 2.5375 0
M  V30 7223 H 676.003 1.85374 2.88949 0
M  V30 7224 N 678.448 -1.51871 0.421078 0
M  V30 7225 C 679.694 -2.02237 -0.151014 0
M  V30 7226 C 680.027 -1.30554 -1.43768 0
M  V30 7227 O 679.302 -0.41546 -1.90011 0
M  V30 7228 C 679.585 -3.5802 -0.386482 0
M  V30 7229 C 679.438 -4.40339 0.9177 0
M  V30 7230 C 680.757 -4.24444 -1.16342 0
M  V30 7231 H 677.876 -0.735062 -0.0534102 0
M  V30 7232 H 680.518 -1.81656 0.556888 0
M  V30 7233 H 678.668 -3.75688 -0.989494 0
M  V30 7234 H 680.34 -4.34357 1.55344 0
M  V30 7235 H 678.583 -4.06073 1.526 0
M  V30 7236 H 679.254 -5.47451 0.707187 0
M  V30 7237 H 681.73 -4.10948 -0.652788 0
M  V30 7238 H 680.606 -5.33358 -1.29693 0
M  V30 7239 H 680.867 -3.84204 -2.18724 0
M  V30 7240 N 679.926 -0.151884 -1.56866 0
M  V30 7241 C 681.175 0.497992 -1.95456 0
M  V30 7242 C 681.488 1.6569 -1.03953 0
M  V30 7243 O 682.694 2.37173 -1.32142 0
M  V30 7244 C 681.15 0.93732 -3.4748 0
M  V30 7245 C 680.758 -0.194921 -4.47576 0
M  V30 7246 C 682.502 1.55671 -3.94926 0
M  V30 7247 C 680.409 0.26295 -5.90815 0
M  V30 7248 H 679.339 0.189811 -0.729717 0
M  V30 7249 H 681.99 -0.237011 -1.81963 0
M  V30 7250 H 680.372 1.72773 -3.56322 0
M  V30 7251 H 681.546 -0.971951 -4.50433 0
M  V30 7252 H 679.861 -0.72303 -4.10075 0
M  V30 7253 H 682.458 1.91099 -4.99385 0
M  V30 7254 H 682.801 2.44748 -3.36755 0
M  V30 7255 H 683.334 0.831109 -3.89021 0
M  V30 7256 H 680.073 -0.592568 -6.52816 0
M  V30 7257 H 679.593 1.00575 -5.91308 0
M  V30 7258 H 681.272 0.713333 -6.43056 0
M  V30 7259 N 681.404 1.57128 0.121893 0
M  V30 7260 C 682.644 1.86517 0.836113 0
M  V30 7261 C 683.008 0.739497 1.77188 0
M  V30 7262 O 684.209 0.91508 2.52744 0
M  V30 7263 C 682.48 3.21129 1.56878 0
M  V30 7264 S 684.039 3.72143 2.32497 0
M  V30 7265 H 680.857 0.653923 0.279115 0
M  V30 7266 H 683.459 1.95271 0.0946254 0
M  V30 7267 H 682.163 4.01002 0.873255 0
M  V30 7268 H 681.694 3.15446 2.35069 0
M  V30 7269 H 683.709 3.43413 3.58164 0
M  V30 7270 N 682.882 -0.391992 1.52647 0
M  V30 7271 C 683.814 -1.49811 1.73463 0
M  V30 7272 C 684.827 -1.50734 0.615078 0
M  V30 7273 O 686.016 -1.5469 0.890696 0
M  V30 7274 C 683.116 -2.88667 1.77552 0
M  V30 7275 C 682.289 -3.11743 3.06815 0
M  V30 7276 C 681.348 -4.30564 3.02491 0
M  V30 7277 O 680.374 -4.27014 3.76361 0
M  V30 7278 N 681.576 -5.36593 2.21468 0
M  V30 7279 H 684.341 -1.32343 2.68897 0
M  V30 7280 H 681.902 -0.581475 1.51098 0
M  V30 7281 H 683.894 -3.66251 1.7217 0
M  V30 7282 H 682.464 -2.99508 0.895181 0
M  V30 7283 H 681.684 -2.2205 3.25711 0
M  V30 7284 H 682.972 -3.24013 3.92292 0
M  V30 7285 H 682.37 -5.42332 1.60913 0
M  V30 7286 H 680.927 -6.12855 2.21928 0
M  V30 7287 N 684.36 -1.4356 -0.65026 0
M  V30 7288 C 685.609 -1.44619 -1.406 0
M  V30 7289 C 685.922 -0.0752645 -1.95455 0
M  V30 7290 O 687.128 0.0366832 -2.71475 0
M  V30 7291 C 685.584 -2.54511 -2.54465 0
M  V30 7292 C 685.192 -3.97723 -2.06204 0
M  V30 7293 C 686.936 -2.64768 -3.31811 0
M  V30 7294 C 684.843 -4.99075 -3.17298 0
M  V30 7295 H 683.773 -0.537983 -0.52829 0
M  V30 7296 H 686.424 -1.69559 -0.701561 0
M  V30 7297 H 684.806 -2.22777 -3.27393 0
M  V30 7298 H 685.98 -4.38932 -1.40267 0
M  V30 7299 H 684.295 -3.91538 -1.41729 0
M  V30 7300 H 686.892 -3.37664 -4.14593 0
M  V30 7301 H 687.235 -1.69936 -3.80036 0
M  V30 7302 H 687.768 -2.95817 -2.65964 0
M  V30 7303 H 684.507 -5.95469 -2.74038 0
M  V30 7304 H 684.027 -4.62476 -3.81937 0
M  V30 7305 H 685.706 -5.21913 -3.82382 0
M  V30 7306 N 685.838 0.888903 -1.30139 0
M  V30 7307 C 687.254 1.17153 -1.08385 0
M  V30 7308 C 687.454 2.0088 0.157925 0
M  V30 7309 O 686.51 2.37668 0.852652 0
M  V30 7310 C 687.823 1.882 -2.34523 0
M  V30 7311 C 689.371 2.00981 -2.39949 0
M  V30 7312 C 689.846 2.75441 -3.65918 0
M  V30 7313 N 691.337 2.82989 -3.66704 0
M  V30 7314 C 692.072 3.41167 -4.60861 0
M  V30 7315 N 691.568 4.00425 -5.6536 0
M  V30 7316 N 693.361 3.38944 -4.48412 0
M  V30 7317 H 685.512 0.33053 -2.09812 0
M  V30 7318 H 687.775 0.208964 -0.924683 0
M  V30 7319 H 687.481 1.34119 -3.25123 0
M  V30 7320 H 687.355 2.88609 -2.42868 0
M  V30 7321 H 689.742 2.54234 -1.4983 0
M  V30 7322 H 689.823 0.996725 -2.35582 0
M  V30 7323 H 689.467 2.22861 -4.56394 0
M  V30 7324 H 689.397 3.77118 -3.67546 0
M  V30 7325 H 691.888 2.40912 -2.91153 0
M  V30 7326 H 692.201 4.42871 -6.33313 0
M  V30 7327 H 690.546 3.98856 -5.69157 0
M  V30 7328 H 693.737 2.91875 -3.6596 0
M  V30 7329 H 693.91 3.83989 -5.21974 0
M  V30 7330 N 687.317 1.12792 1.10072 0
M  V30 7331 C 688.542 0.908838 1.86427 0
M  V30 7332 C 688.967 -0.536793 1.80278 0
M  V30 7333 O 688.325 -1.38033 1.17543 0
M  V30 7334 C 688.373 1.39295 3.3261 0
M  V30 7335 O 687.477 0.573846 4.08388 0
M  V30 7336 H 686.818 0.326234 0.578331 0
M  V30 7337 H 689.348 1.50094 1.39043 0
M  V30 7338 H 689.358 1.39366 3.83459 0
M  V30 7339 H 688.033 2.44555 3.36401 0
M  V30 7340 H 686.61 0.640438 3.67359 0
M  V30 7341 N 688.795 -1.27931 0.920396 0
M  V30 7342 C 689.727 -2.26175 0.371169 0
M  V30 7343 C 690.74 -1.55122 -0.494065 0
M  V30 7344 O 691.929 -1.75825 -0.30787 0
M  V30 7345 C 689.029 -3.35376 -0.487481 0
M  V30 7346 C 688.202 -4.35943 0.356772 0
M  V30 7347 C 687.261 -5.24374 -0.438042 0
M  V30 7348 O 686.287 -5.68998 0.151715 0
M  V30 7349 N 687.489 -5.53823 -1.73956 0
M  V30 7350 H 690.254 -2.73938 1.21564 0
M  V30 7351 H 687.815 -1.41482 0.787047 0
M  V30 7352 H 689.807 -3.91476 -1.02609 0
M  V30 7353 H 688.377 -2.87269 -1.23269 0
M  V30 7354 H 687.597 -3.7921 1.07672 0
M  V30 7355 H 688.885 -5.0015 0.934206 0
M  V30 7356 H 688.283 -5.19413 -2.24114 0
M  V30 7357 H 686.84 -6.12653 -2.22486 0
M  V30 7358 N 690.273 -0.685099 -1.4193 0
M  V30 7359 C 691.519 -0.211971 -2.01689 0
M  V30 7360 C 691.852 1.18189 -1.54094 0
M  V30 7361 O 691.127 1.79559 -0.747572 0
M  V30 7362 C 691.41 -0.258019 -3.59174 0
M  V30 7363 C 691.263 -1.68807 -4.16922 0
M  V30 7364 C 692.582 0.388044 -4.38386 0
M  V30 7365 H 689.701 -0.0784987 -0.732808 0
M  V30 7366 H 692.343 -0.871837 -1.68816 0
M  V30 7367 H 690.493 0.303832 -3.8731 0
M  V30 7368 H 692.165 -2.30296 -3.99702 0
M  V30 7369 H 690.408 -2.22553 -3.72361 0
M  V30 7370 H 691.079 -1.6719 -5.26072 0
M  V30 7371 H 693.555 -0.0903432 -4.16002 0
M  V30 7372 H 692.431 0.325232 -5.47936 0
M  V30 7373 H 692.692 1.4672 -4.17044 0
M  V30 7374 N 691.751 1.51645 -0.429126 0
M  V30 7375 C 692.999 2.01616 0.139802 0
M  V30 7376 C 693.32 1.31568 1.43927 0
M  V30 7377 O 692.59 0.447688 1.90716 0
M  V30 7378 H 691.17 0.744998 0.054654 0
M  V30 7379 H 693.832 1.8638 -0.569952 0
M  V30 7380 H 692.928 3.10439 0.321609 0
M  V30 7381 N 693.229 0.160201 1.56784 0
M  V30 7382 C 694.192 -0.760405 2.16219 0
M  V30 7383 C 695.192 -1.16595 1.10735 0
M  V30 7384 O 696.382 -1.08472 1.36306 0
M  V30 7385 C 693.514 -2.03358 2.73603 0
M  V30 7386 H 694.707 -0.243173 2.98912 0
M  V30 7387 H 692.26 -0.0893139 1.56045 0
M  V30 7388 H 692.995 -2.59416 1.94612 0
M  V30 7389 H 692.78 -1.75186 3.50788 0
M  V30 7390 H 694.27 -2.69081 3.19351 0
M  V30 7391 N 694.707 -1.5719 -0.113559 0
M  V30 7392 C 695.955 -1.84772 -0.818761 0
M  V30 7393 C 696.276 -0.746196 -1.80158 0
M  V30 7394 O 695.546 0.229305 -1.94553 0
M  V30 7395 H 694.126 -0.681737 -0.305359 0
M  V30 7396 H 696.788 -1.94645 -0.0995845 0
M  V30 7397 H 695.884 -2.80878 -1.36067 0
M  V30 7398 N 696.185 0.383891 -1.52853 0
M  V30 7399 C 697.117 1.48889 -1.74255 0
M  V30 7400 C 698.13 1.50405 -0.623063 0
M  V30 7401 O 699.319 1.54215 -0.898887 0
M  V30 7402 C 696.419 2.87721 -1.79081 0
M  V30 7403 C 695.592 3.10111 -3.08464 0
M  V30 7404 C 694.651 4.28954 -3.0477 0
M  V30 7405 O 693.677 4.25012 -3.78621 0
M  V30 7406 N 694.879 5.35411 -2.24311 0
M  V30 7407 H 697.644 1.30915 -2.69595 0
M  V30 7408 H 695.205 0.573454 -1.51404 0
M  V30 7409 H 697.197 3.65333 -1.7411 0
M  V30 7410 H 695.767 2.99029 -0.911052 0
M  V30 7411 H 694.987 2.20319 -3.26884 0
M  V30 7412 H 696.275 3.21928 -3.94005 0
M  V30 7413 H 695.673 5.41471 -1.63787 0
M  V30 7414 H 694.23 6.1167 -2.25175 0
M  V30 7415 N 697.663 1.43903 0.642637 0
M  V30 7416 C 699.079 1.27536 0.959519 0
M  V30 7417 C 699.279 0.202751 2.00477 0
M  V30 7418 O 698.335 -0.415256 2.49062 0
M  V30 7419 C 699.648 2.6432 1.43372 0
M  V30 7420 C 701.196 2.71937 1.54981 0
M  V30 7421 C 701.671 4.09164 2.05789 0
M  V30 7422 N 703.162 4.11282 2.13076 0
M  V30 7423 C 703.897 5.14303 2.53534 0
M  V30 7424 N 703.393 6.27693 2.93212 0
M  V30 7425 N 705.186 5.01657 2.53567 0
M  V30 7426 H 697.337 2.12344 -0.0488376 0
M  V30 7427 H 699.6 0.947124 0.0407559 0
M  V30 7428 H 699.306 3.43826 0.740048 0
M  V30 7429 H 699.18 2.90432 2.40685 0
M  V30 7430 H 701.567 1.92757 2.23448 0
M  V30 7431 H 701.648 2.49578 0.560739 0
M  V30 7432 H 701.292 4.88815 1.37921 0
M  V30 7433 H 701.222 4.28893 3.05546 0
M  V30 7434 H 703.713 3.2944 1.85143 0
M  V30 7435 H 704.026 7.02125 3.22863 0
M  V30 7436 H 702.371 6.31149 2.90991 0
M  V30 7437 H 705.562 4.12134 2.21952 0
M  V30 7438 H 705.735 5.82072 2.84774 0
M  V30 7439 N 699.141 -0.881989 1.30609 0
M  V30 7440 C 700.104 -1.96957 1.1722 0
M  V30 7441 C 701.104 -1.60472 0.102598 0
M  V30 7442 O 702.294 -1.70628 0.350943 0
M  V30 7443 C 699.426 -3.31463 0.796572 0
M  V30 7444 H 700.619 -2.10262 2.13846 0
M  V30 7445 H 698.172 -1.06877 1.14048 0
M  V30 7446 H 698.907 -3.23859 -0.169053 0
M  V30 7447 H 698.692 -3.59314 1.56959 0
M  V30 7448 H 700.182 -4.11233 0.72645 0
M  V30 7449 N 700.619 -1.13374 -1.09472 0
M  V30 7450 C 701.582 -0.813639 -2.14272 0
M  V30 7451 C 702.582 0.176677 -1.59826 0
M  V30 7452 O 703.772 -0.0503441 -1.74127 0
M  V30 7453 C 700.904 -0.210897 -3.40247 0
M  V30 7454 H 702.097 -1.74229 -2.44099 0
M  V30 7455 H 699.65 -0.938304 -1.25002 0
M  V30 7456 H 700.385 0.726998 -3.16046 0
M  V30 7457 H 700.17 -0.924048 -3.81056 0
M  V30 7458 H 701.66 -0.00377603 -4.176 0
M  V30 7459 N 702.098 1.27442 -0.927168 0
M  V30 7460 C 703.514 1.46754 -0.627329 0
M  V30 7461 C 703.714 1.83902 0.823549 0
M  V30 7462 O 702.77 1.95215 1.60148 0
M  V30 7463 C 704.083 2.56045 -1.57674 0
M  V30 7464 C 705.631 2.69906 -1.58491 0
M  V30 7465 C 706.106 3.82355 -2.52128 0
M  V30 7466 N 707.597 3.89728 -2.50332 0
M  V30 7467 C 708.332 4.76155 -3.19475 0
M  V30 7468 N 707.828 5.67073 -3.97995 0
M  V30 7469 N 709.621 4.6988 -3.08496 0
M  V30 7470 H 701.772 1.01613 -1.86517 0
M  V30 7471 H 704.035 0.507443 -0.800753 0
M  V30 7472 H 703.741 2.35542 -2.61176 0
M  V30 7473 H 703.615 3.53423 -1.31804 0
M  V30 7474 H 706.002 2.89792 -0.557208 0
M  V30 7475 H 706.083 1.73018 -1.8841 0
M  V30 7476 H 705.727 3.63224 -3.55008 0
M  V30 7477 H 705.657 4.7867 -2.19505 0
M  V30 7478 H 708.148 3.24717 -1.93306 0
M  V30 7479 H 708.461 6.2988 -4.4774 0
M  V30 7480 H 706.806 5.6687 -4.02098 0
M  V30 7481 H 709.997 3.97848 -2.46646 0
M  V30 7482 H 710.17 5.37017 -3.62652 0
M  V30 7483 N 703.576 0.692616 1.41565 0
M  V30 7484 C 704.539 0.0344174 2.29174 0
M  V30 7485 C 705.539 -0.710961 1.44229 0
M  V30 7486 O 706.729 -0.546293 1.65412 0
M  V30 7487 C 703.861 -0.961682 3.27054 0
M  V30 7488 H 705.054 0.805755 2.88873 0
M  V30 7489 H 702.607 0.455947 1.49502 0
M  V30 7490 H 703.342 -1.76089 2.72329 0
M  V30 7491 H 703.127 -0.430375 3.89731 0
M  V30 7492 H 704.617 -1.4201 3.92712 0
M  V30 7493 N 705.054 -1.51416 0.437162 0
M  V30 7494 C 706.331 -1.94682 -0.189292 0
M  V30 7495 C 706.711 -1.37581 -1.60108 0
M  V30 7496 O 706.059 -0.562815 -2.2146 0
M  V30 7497 C 706.269 -3.48599 -0.167201 0
M  V30 7498 C 707.617 -4.2296 -0.372856 0
M  V30 7499 O 708.641 -3.55354 -0.245323 0
M  V30 7500 O 707.5 -5.42895 -0.626693 0
M  V30 7501 H 704.594 -0.816708 -0.130063 0
M  V30 7502 H 707.14 -1.62316 0.495128 0
M  V30 7503 H 705.912 -3.82616 0.81981 0
M  V30 7504 H 705.535 -3.87406 -0.894537 0
M  V30 7505 N 706.532 -0.168513 -1.56696 0
M  V30 7506 C 707.757 0.486688 -2.01609 0
M  V30 7507 C 708.182 1.56203 -1.04796 0
M  V30 7508 O 707.54 1.8128 -0.0270596 0
M  V30 7509 C 707.588 1.04451 -3.45141 0
M  V30 7510 O 706.692 2.15862 -3.51393 0
M  V30 7511 H 706.033 0.116831 -0.653641 0
M  V30 7512 H 708.563 -0.271579 -2.0279 0
M  V30 7513 H 708.573 1.36782 -3.84389 0
M  V30 7514 H 707.248 0.257155 -4.15104 0
M  V30 7515 H 705.825 1.84597 -3.24004 0
M  V30 7516 N 708.01 1.57248 0.105221 0
M  V30 7517 C 708.96 1.9777 1.1345 0
M  V30 7518 C 709.944 0.854654 1.36325 0
M  V30 7519 O 711.136 1.11844 1.37186 0
M  V30 7520 C 708.265 2.39717 2.45745 0
M  V30 7521 C 707.351 3.58686 2.26286 0
M  V30 7522 N 707.742 4.73942 1.76671 0
M  V30 7523 C 706.04 3.64586 2.56891 0
M  V30 7524 C 706.741 5.55923 1.71245 0
M  V30 7525 N 705.717 4.98803 2.16093 0
M  V30 7526 H 709.519 2.84336 0.743664 0
M  V30 7527 H 707.033 1.59359 0.312787 0
M  V30 7528 H 709.03 2.66971 3.20206 0
M  V30 7529 H 707.69 1.54523 2.85574 0
M  V30 7530 H 708.701 4.9689 1.46016 0
M  V30 7531 H 705.378 2.90031 3.00314 0
M  V30 7532 H 706.768 6.58398 1.34022 0
M  V30 7533 N 709.488 -0.375779 1.53054 0
M  V30 7534 C 710.713 -1.14484 1.7294 0
M  V30 7535 C 711.138 -1.82572 0.452668 0
M  V30 7536 O 710.496 -1.71343 -0.592567 0
M  V30 7537 C 710.544 -2.15857 2.88857 0
M  V30 7538 O 709.648 -3.22725 2.56753 0
M  V30 7539 H 708.989 -0.332666 0.574656 0
M  V30 7540 H 711.519 -0.436025 1.999 0
M  V30 7541 H 711.529 -2.59631 3.14731 0
M  V30 7542 H 710.204 -1.65689 3.81471 0
M  V30 7543 H 708.781 -2.83996 2.41663 0
M  V30 7544 N 710.966 -1.44241 -0.634997 0
M  V30 7545 C 711.896 -1.53632 -1.7584 0
M  V30 7546 C 712.877 -0.389603 -1.65578 0
M  V30 7547 O 714.062 -0.609219 -1.84397 0
M  V30 7548 C 711.192 -1.47644 -3.14354 0
M  V30 7549 C 710.146 -2.60752 -3.394 0
M  V30 7550 C 709.472 -2.39817 -4.77904 0
M  V30 7551 C 710.772 -4.02921 -3.32343 0
M  V30 7552 H 712.466 -2.47662 -1.68238 0
M  V30 7553 H 710.012 -1.19197 -0.807969 0
M  V30 7554 H 711.965 -1.52815 -3.92716 0
M  V30 7555 H 710.689 -0.501284 -3.2273 0
M  V30 7556 H 709.348 -2.54965 -2.63417 0
M  V30 7557 H 708.996 -1.40502 -4.82978 0
M  V30 7558 H 708.696 -3.15649 -4.9562 0
M  V30 7559 H 710.22 -2.46799 -5.585 0
M  V30 7560 H 711.634 -4.10098 -4.00615 0
M  V30 7561 H 710.031 -4.78925 -3.61595 0
M  V30 7562 H 711.101 -4.26766 -2.30215 0
M  V30 7563 N 712.444 0.87505 -1.31075 0
M  V30 7564 C 713.407 1.96333 -1.18263 0
M  V30 7565 C 714.407 1.60416 -0.111106 0
M  V30 7566 O 715.597 1.7044 -0.359987 0
M  V30 7567 C 712.729 3.31036 -0.81414 0
M  V30 7568 H 713.922 2.09125 -2.14958 0
M  V30 7569 H 711.475 1.06271 -1.14614 0
M  V30 7570 H 712.21 3.23944 0.151875 0
M  V30 7571 H 711.995 3.58476 -1.58862 0
M  V30 7572 H 713.485 4.10842 -0.748249 0
M  V30 7573 N 713.922 1.13953 1.08869 0
M  V30 7574 C 715.162 0.915128 1.8277 0
M  V30 7575 C 715.526 -0.548647 1.83994 0
M  V30 7576 O 716.727 -0.890817 2.5361 0
M  V30 7577 C 714.998 1.49382 3.24684 0
M  V30 7578 S 716.557 1.4103 4.15519 0
M  V30 7579 H 713.375 0.329716 0.629927 0
M  V30 7580 H 715.977 1.45213 1.30895 0
M  V30 7581 H 714.681 2.55241 3.21372 0
M  V30 7582 H 714.212 0.955008 3.81632 0
M  V30 7583 H 716.227 0.392617 4.94644 0
M  V30 7584 N 715.4 -1.26948 0.933913 0
M  V30 7585 C 716.646 -1.94716 0.587985 0
M  V30 7586 C 717.001 -1.71994 -0.862312 0
M  V30 7587 O 716.294 -1.04208 -1.60783 0
M  V30 7588 C 716.488 -3.46963 0.857406 0
M  V30 7589 C 716.317 -3.84489 2.33234 0
M  V30 7590 C 715.087 -4.07621 2.98618 0
M  V30 7591 C 717.285 -3.93602 3.31031 0
M  V30 7592 N 715.267 -4.31976 4.362 0
M  V30 7593 C 716.638 -4.22404 4.53845 0
M  V30 7594 C 718.693 -3.76201 3.26155 0
M  V30 7595 C 717.396 -4.35615 5.72391 0
M  V30 7596 C 719.422 -3.90641 4.4402 0
M  V30 7597 C 718.784 -4.19835 5.65613 0
M  V30 7598 H 714.883 -0.735586 0.2654 0
M  V30 7599 H 717.467 -1.53181 1.20182 0
M  V30 7600 H 715.638 -3.87442 0.27268 0
M  V30 7601 H 717.37 -4.01921 0.47348 0
M  V30 7602 H 714.125 -4.02696 2.49264 0
M  V30 7603 H 714.549 -4.48199 5.07392 0
M  V30 7604 H 719.191 -3.52665 2.3321 0
M  V30 7605 H 716.909 -4.57975 6.65796 0
M  V30 7606 H 720.495 -3.78589 4.41771 0
M  V30 7607 H 719.375 -4.30765 6.55295 0
M  V30 7608 N 716.879 -0.700114 -1.41195 0
M  V30 7609 C 718.127 -0.232546 -2.00758 0
M  V30 7610 C 718.448 1.1734 -1.55745 0
M  V30 7611 O 717.718 1.79262 -0.790058 0
M  V30 7612 H 716.298 -0.0829845 -0.742376 0
M  V30 7613 H 718.96 -0.902289 -1.72756 0
M  V30 7614 H 718.056 -0.253521 -3.11069 0
M  V30 7615 N 718.357 1.51182 -0.445186 0
M  V30 7616 C 719.304 2.27939 0.362291 0
M  V30 7617 C 720.274 1.31864 1.01 0
M  V30 7618 O 721.459 1.60776 1.02741 0
M  V30 7619 C 718.599 3.13016 1.45311 0
M  V30 7620 C 717.712 4.24093 0.822757 0
M  V30 7621 C 716.847 4.96467 1.88928 0
M  V30 7622 C 715.886 5.99454 1.23778 0
M  V30 7623 N 715.023 6.65206 2.24602 0
M  V30 7624 H 719.863 2.965 -0.29862 0
M  V30 7625 H 717.4 1.46237 -0.15911 0
M  V30 7626 H 719.358 3.60673 2.09692 0
M  V30 7627 H 717.988 2.46553 2.08354 0
M  V30 7628 H 717.04 3.80341 0.0670364 0
M  V30 7629 H 718.352 4.97853 0.307184 0
M  V30 7630 H 717.506 5.47712 2.60953 0
M  V30 7631 H 716.245 4.22355 2.4386 0
M  V30 7632 H 715.25 5.47494 0.503042 0
M  V30 7633 H 716.475 6.75527 0.695694 0
M  V30 7634 H 714.421 5.93901 2.78599 0
M  V30 7635 H 714.338 7.34756 1.77958 0
M  V30 7636 H 715.606 7.21078 2.96085 0
M  V30 7637 N 719.835 0.176821 1.56605 0
M  V30 7638 C 721.083 -0.465793 1.96659 0
M  V30 7639 C 721.404 -1.63406 1.06412 0
M  V30 7640 O 720.674 -1.95457 0.131603 0
M  V30 7641 H 719.254 -0.175072 0.726195 0
M  V30 7642 H 721.916 0.25929 1.93168 0
M  V30 7643 H 721.012 -0.822138 3.01077 0
M  V30 7644 N 721.313 -1.57302 -0.09688 0
M  V30 7645 C 722.276 -2.00976 -1.10188 0
M  V30 7646 C 723.276 -0.903009 -1.3305 0
M  V30 7647 O 724.466 -1.16853 -1.29194 0
M  V30 7648 C 721.598 -2.36893 -2.45142 0
M  V30 7649 H 722.791 -2.9098 -0.726003 0
M  V30 7650 H 720.344 -1.52515 -0.341872 0
M  V30 7651 H 721.079 -1.49837 -2.8761 0
M  V30 7652 H 720.864 -3.17632 -2.29897 0
M  V30 7653 H 722.354 -2.71345 -3.1743 0
M  V30 7654 N 722.791 0.367657 -1.53252 0
M  V30 7655 C 724.016 1.13566 -1.73544 0
M  V30 7656 C 724.441 1.82329 -0.462344 0
M  V30 7657 O 723.799 1.71655 0.583472 0
M  V30 7658 C 723.847 2.14322 -2.89997 0
M  V30 7659 O 722.951 3.21359 -2.58461 0
M  V30 7660 H 722.292 0.329614 -0.576412 0
M  V30 7661 H 724.822 0.425417 -2.00128 0
M  V30 7662 H 724.832 2.57958 -3.16104 0
M  V30 7663 H 723.507 1.63664 -3.82344 0
M  V30 7664 H 722.084 2.8271 -2.43165 0
M  V30 7665 N 724.269 1.44576 0.627338 0
M  V30 7666 C 725.546 1.38033 1.38586 0
M  V30 7667 C 725.926 0.0409468 2.1106 0
M  V30 7668 O 725.274 -0.976582 2.0658 0
M  V30 7669 C 725.484 2.58102 2.34913 0
M  V30 7670 C 726.832 3.02332 2.98129 0
M  V30 7671 O 727.856 2.58334 2.45238 0
M  V30 7672 O 726.715 3.78628 3.94085 0
M  V30 7673 H 723.809 0.546801 0.620434 0
M  V30 7674 H 726.355 1.56672 0.652077 0
M  V30 7675 H 725.127 3.4719 1.80485 0
M  V30 7676 H 724.75 2.41696 3.15703 0
M  V30 7677 N 725.747 -0.868086 1.31537 0
M  V30 7678 C 727.163 -1.15414 1.10235 0
M  V30 7679 C 727.363 -2.01106 -0.125947 0
M  V30 7680 O 726.419 -2.38994 -0.814734 0
M  V30 7681 C 727.732 -1.84445 2.37488 0
M  V30 7682 C 729.28 -1.97139 2.43116 0
M  V30 7683 C 729.755 -2.69585 3.70254 0
M  V30 7684 N 731.246 -2.77119 3.71159 0
M  V30 7685 C 731.981 -3.33791 4.6623 0
M  V30 7686 N 731.477 -3.9138 5.71659 0
M  V30 7687 N 733.27 -3.31767 4.53747 0
M  V30 7688 H 725.421 -0.297109 2.10312 0
M  V30 7689 H 727.684 -0.194227 0.92789 0
M  V30 7690 H 727.39 -1.2893 3.27215 0
M  V30 7691 H 727.264 -2.84709 2.47428 0
M  V30 7692 H 729.651 -2.51818 1.53856 0
M  V30 7693 H 729.732 -0.95912 2.37138 0
M  V30 7694 H 729.376 -2.15572 4.59881 0
M  V30 7695 H 729.306 -3.71223 3.73499 0
M  V30 7696 H 731.797 -2.3625 2.94948 0
M  V30 7697 H 732.11 -4.3274 6.40278 0
M  V30 7698 H 730.455 -3.8975 5.7543 0
M  V30 7699 H 733.646 -2.86016 3.70557 0
M  V30 7700 H 733.819 -3.75636 5.28017 0
M  V30 7701 N 727.225 -1.14528 -1.08264 0
M  V30 7702 C 728.453 -0.937964 -1.84418 0
M  V30 7703 C 728.868 0.51357 -1.81681 0
M  V30 7704 O 728.225 1.35591 -1.22153 0
M  V30 7705 C 728.276 -1.43272 -3.31897 0
M  V30 7706 O 727.997 -2.82738 -3.34651 0
M  V30 7707 C 729.498 -1.26555 -4.24851 0
M  V30 7708 H 726.718 -0.333704 -0.582136 0
M  V30 7709 H 729.262 -1.52076 -1.36723 0
M  V30 7710 H 727.417 -0.892653 -3.76975 0
M  V30 7711 H 727.831 -3.04971 -4.26724 0
M  V30 7712 H 729.305 -1.66031 -5.26439 0
M  V30 7713 H 729.782 -0.208589 -4.38704 0
M  V30 7714 H 730.388 -1.79423 -3.856 0
M  V30 7715 N 728.703 1.26451 -0.940633 0
M  V30 7716 C 729.633 2.28773 -0.467479 0
M  V30 7717 C 730.614 1.63218 0.478955 0
M  V30 7718 O 731.799 1.90427 0.380929 0
M  V30 7719 C 728.929 3.46259 0.268656 0
M  V30 7720 C 727.883 4.23898 -0.591171 0
M  V30 7721 C 727.209 5.33993 0.274891 0
M  V30 7722 C 728.509 4.87974 -1.86223 0
M  V30 7723 H 730.203 2.68601 -1.32265 0
M  V30 7724 H 727.749 1.29123 -0.637436 0
M  V30 7725 H 729.702 4.16951 0.610696 0
M  V30 7726 H 728.426 3.05383 1.15796 0
M  V30 7727 H 727.085 3.54969 -0.916098 0
M  V30 7728 H 726.733 4.89358 1.16353 0
M  V30 7729 H 726.433 5.86849 -0.297006 0
M  V30 7730 H 727.957 6.07523 0.612213 0
M  V30 7731 H 729.371 5.50883 -1.58747 0
M  V30 7732 H 727.768 5.50945 -2.37866 0
M  V30 7733 H 728.838 4.10945 -2.57394 0
M  V30 7734 N 730.181 0.707592 1.40822 0
M  V30 7735 C 731.427 0.252828 2.01823 0
M  V30 7736 C 731.782 -1.13876 1.55081 0
M  V30 7737 O 731.075 -1.75993 0.757439 0
M  V30 7738 C 731.269 0.262892 3.56432 0
M  V30 7739 C 731.098 1.65392 4.18181 0
M  V30 7740 C 729.868 2.25966 4.5196 0
M  V30 7741 C 732.066 2.60272 4.4358 0
M  V30 7742 N 730.048 3.57508 4.9906 0
M  V30 7743 C 731.419 3.76509 4.92586 0
M  V30 7744 C 733.474 2.58386 4.25607 0
M  V30 7745 C 732.177 4.91157 5.25507 0
M  V30 7746 C 734.203 3.72155 4.59625 0
M  V30 7747 C 733.565 4.87123 5.08813 0
M  V30 7748 H 729.664 0.138172 0.769696 0
M  V30 7749 H 732.248 0.927667 1.7118 0
M  V30 7750 H 730.419 -0.381479 3.86522 0
M  V30 7751 H 732.151 -0.20783 4.04166 0
M  V30 7752 H 728.906 1.78138 4.38821 0
M  V30 7753 H 729.33 4.24968 5.27002 0
M  V30 7754 H 733.972 1.7071 3.86805 0
M  V30 7755 H 731.69 5.79483 5.63227 0
M  V30 7756 H 735.276 3.71961 4.47366 0
M  V30 7757 H 734.156 5.73698 5.3464 0
M  V30 7758 N 731.66 -1.50943 0.453197 0
M  V30 7759 C 733.071 -1.86699 -0.00619892 0
M  V30 7760 C 733.422 -1.3693 -1.40515 0
M  V30 7761 O 732.547 -0.726715 -2.03833 0
M  V30 7762 C 733.142 -3.38795 -0.018025 0
M  V30 7763 C 731.701 -3.74028 -0.421885 0
M  V30 7764 C 730.848 -2.74752 0.375087 0
M  V30 7765 H 733.799 -1.43942 0.668317 0
M  V30 7766 H 733.82 -3.71468 -0.824125 0
M  V30 7767 H 733.332 -3.74988 1.00028 0
M  V30 7768 H 731.433 -3.43431 -1.44521 0
M  V30 7769 H 731.546 -4.78908 -0.135664 0
M  V30 7770 H 729.91 -2.5414 -0.168794 0
M  V30 7771 H 730.693 -3.13787 1.39256 0
M  V30 7772 N 733.138 -0.185124 -1.56509 0
M  V30 7773 C 734.366 0.462139 -2.01673 0
M  V30 7774 C 734.781 1.55873 -1.06532 0
M  V30 7775 O 734.138 1.82371 -0.0684805 0
M  V30 7776 C 734.189 1.0277 -3.46584 0
M  V30 7777 O 733.91 -0.0251296 -4.38093 0
M  V30 7778 C 735.411 1.75183 -4.07217 0
M  V30 7779 H 732.631 0.117001 -0.660721 0
M  V30 7780 H 735.175 -0.290905 -2.0242 0
M  V30 7781 H 733.33 1.73118 -3.46568 0
M  V30 7782 H 733.744 0.394387 -5.23015 0
M  V30 7783 H 735.218 2.09999 -5.10494 0
M  V30 7784 H 735.695 2.6519 -3.50101 0
M  V30 7785 H 736.301 1.09445 -4.10977 0
M  V30 7786 N 734.616 1.57351 0.0885366 0
M  V30 7787 C 735.579 2.01557 1.09121 0
M  V30 7788 C 736.579 0.910052 1.3257 0
M  V30 7789 O 737.769 1.17537 1.28572 0
M  V30 7790 C 734.901 2.38189 2.43883 0
M  V30 7791 H 736.094 2.91361 0.710562 0
M  V30 7792 H 733.647 1.52694 0.333779 0
M  V30 7793 H 734.382 1.5136 2.86811 0
M  V30 7794 H 734.167 3.18846 2.28209 0
M  V30 7795 H 735.657 2.73025 3.15986 0
M  V30 7796 N 736.094 -0.359525 1.53444 0
M  V30 7797 C 737.057 -1.42357 1.7963 0
M  V30 7798 C 738.057 -1.46319 0.666884 0
M  V30 7799 O 739.247 -1.46974 0.935113 0
M  V30 7800 C 736.379 -2.81425 1.92387 0
M  V30 7801 H 737.572 -1.20409 2.74666 0
M  V30 7802 H 735.125 -0.593007 1.44614 0
M  V30 7803 H 735.86 -3.08679 0.994384 0
M  V30 7804 H 735.645 -2.79947 2.74539 0
M  V30 7805 H 737.135 -3.5847 2.14218 0
M  V30 7806 N 737.572 -1.44907 -0.619662 0
M  V30 7807 C 738.818 -1.49504 -1.37914 0
M  V30 7808 C 739.173 -0.130158 -1.91959 0
M  V30 7809 O 738.466 0.856263 -1.71402 0
M  V30 7810 C 738.66 -2.50002 -2.55409 0
M  V30 7811 C 738.489 -3.96128 -2.12867 0
M  V30 7812 C 737.259 -4.64204 -1.99606 0
M  V30 7813 C 739.457 -4.85014 -1.71074 0
M  V30 7814 N 737.439 -5.95104 -1.50748 0
M  V30 7815 C 738.81 -6.05447 -1.33544 0
M  V30 7816 C 740.865 -4.71979 -1.58557 0
M  V30 7817 C 739.568 -7.1429 -0.847484 0
M  V30 7818 C 741.594 -5.80858 -1.11165 0
M  V30 7819 C 740.956 -7.00439 -0.745932 0
M  V30 7820 H 737.055 -0.60207 -0.499034 0
M  V30 7821 H 739.639 -1.81305 -0.70968 0
M  V30 7822 H 737.81 -2.20172 -3.19967 0
M  V30 7823 H 739.542 -2.44823 -3.22248 0
M  V30 7824 H 736.297 -4.19182 -2.20417 0
M  V30 7825 H 736.721 -6.64676 -1.28585 0
M  V30 7826 H 741.363 -3.79953 -1.85461 0
M  V30 7827 H 739.081 -8.06116 -0.565974 0
M  V30 7828 H 742.667 -5.72803 -1.01923 0
M  V30 7829 H 741.547 -7.83255 -0.384848 0
M  V30 7830 N 739.05 0.861098 -1.31996 0
M  V30 7831 C 740.275 1.65264 -1.2531 0
M  V30 7832 C 740.7 1.87265 0.177007 0
M  V30 7833 O 740.058 1.4208 1.12619 0
M  V30 7834 C 740.106 2.99284 -2.0115 0
M  V30 7835 O 739.21 3.89508 -1.3549 0
M  V30 7836 H 738.551 0.50409 -0.432192 0
M  V30 7837 H 741.081 1.07297 -1.74208 0
M  V30 7838 H 741.091 3.49154 -2.11081 0
M  V30 7839 H 739.766 2.82591 -3.05148 0
M  V30 7840 H 738.343 3.47966 -1.34066 0
M  V30 7841 N 740.528 1.15101 1.07655 0
M  V30 7842 C 741.939 0.933848 1.61667 0
M  V30 7843 C 742.29 -0.525569 1.8903 0
M  V30 7844 O 741.415 -1.39605 1.65346 0
M  V30 7845 C 742.01 1.68876 2.93711 0
M  V30 7846 C 740.569 1.51697 3.44478 0
M  V30 7847 C 739.716 1.70633 2.18586 0
M  V30 7848 H 742.667 1.30171 0.907816 0
M  V30 7849 H 742.688 1.15645 3.625 0
M  V30 7850 H 742.2 2.7509 2.73764 0
M  V30 7851 H 740.301 0.478635 3.69513 0
M  V30 7852 H 740.414 2.29194 4.20722 0
M  V30 7853 H 738.778 1.13259 2.28132 0
M  V30 7854 H 739.561 2.78206 2.01137 0
M  V30 7855 N 742.006 -1.2595 0.947325 0
M  V30 7856 C 743.417 -1.75389 0.639963 0
M  V30 7857 C 743.768 -1.77081 -0.844788 0
M  V30 7858 O 742.893 -1.3869 -1.66114 0
M  V30 7859 C 743.488 -3.18506 1.15496 0
M  V30 7860 C 742.047 -3.65534 0.897894 0
M  V30 7861 C 741.194 -2.44818 1.30228 0
M  V30 7862 H 744.145 -1.1194 1.12495 0
M  V30 7863 H 744.166 -3.77045 0.511627 0
M  V30 7864 H 743.678 -3.17243 2.23559 0
M  V30 7865 H 741.779 -3.72221 -0.168096 0
M  V30 7866 H 741.892 -4.54039 1.52922 0
M  V30 7867 H 740.256 -2.44291 0.720678 0
M  V30 7868 H 741.039 -2.46251 2.39198 0
M  V30 7869 N 743.484 -0.715051 -1.40445 0
M  V30 7870 C 744.895 -0.326763 -1.83818 0
M  V30 7871 C 745.246 1.13851 -1.59789 0
M  V30 7872 O 744.371 1.87611 -1.07848 0
M  V30 7873 C 744.966 -0.586297 -3.33688 0
M  V30 7874 C 743.525 -0.251724 -3.75557 0
M  V30 7875 C 742.672 -0.858928 -2.63662 0
M  V30 7876 H 745.623 -0.914241 -1.2972 0
M  V30 7877 H 745.644 0.148636 -3.8021 0
M  V30 7878 H 745.156 -1.65281 -3.51146 0
M  V30 7879 H 743.257 0.809754 -3.63695 0
M  V30 7880 H 743.37 -0.720348 -4.73654 0
M  V30 7881 H 741.734 -0.287013 -2.53078 0
M  V30 7882 H 742.517 -1.9297 -2.83932 0
M  V30 7883 N 744.962 1.50701 -0.461195 0
M  V30 7884 C 745.925 2.2686 0.326679 0
M  V30 7885 C 746.925 1.31243 0.929085 0
M  V30 7886 O 748.115 1.54754 0.799807 0
M  V30 7887 C 745.247 3.07844 1.46441 0
M  V30 7888 H 746.44 2.97954 -0.341095 0
M  V30 7889 H 743.993 1.54814 -0.214984 0
M  V30 7890 H 744.728 2.41223 2.16753 0
M  V30 7891 H 744.513 3.78101 1.03836 0
M  V30 7892 H 746.003 3.65469 2.02044 0
M  V30 7893 N 746.441 0.193421 1.56409 0
M  V30 7894 C 747.404 -0.714371 2.17783 0
M  V30 7895 C 748.404 -1.1422 1.13183 0
M  V30 7896 O 749.594 -1.05557 1.38576 0
M  V30 7897 C 746.726 -1.97509 2.77855 0
M  V30 7898 H 747.919 -0.179714 2.99361 0
M  V30 7899 H 745.472 -0.0561944 1.56199 0
M  V30 7900 H 746.207 -2.5523 2.0007 0
M  V30 7901 H 745.992 -1.67706 3.54425 0
M  V30 7902 H 747.482 -2.62246 3.24987 0
M  V30 7903 N 747.919 -1.57396 -0.0801906 0
M  V30 7904 C 749.165 -1.87113 -0.782083 0
M  V30 7905 C 749.498 -0.78458 -1.77646 0
M  V30 7906 O 748.773 0.205993 -1.93406 0
M  V30 7907 C 749.056 -3.27483 -1.49756 0
M  V30 7908 C 748.909 -4.46782 -0.520171 0
M  V30 7909 C 750.228 -3.65965 -2.44454 0
M  V30 7910 H 747.347 -0.680559 -0.282858 0
M  V30 7911 H 749.989 -1.89946 -0.0454139 0
M  V30 7912 H 748.139 -3.25199 -2.12551 0
M  V30 7913 H 749.811 -4.61187 0.101919 0
M  V30 7914 H 748.054 -4.33485 0.165219 0
M  V30 7915 H 748.725 -5.41761 -1.05824 0
M  V30 7916 H 751.201 -3.69289 -1.91742 0
M  V30 7917 H 750.077 -4.65086 -2.91524 0
M  V30 7918 H 750.338 -2.95446 -3.28883 0
M  V30 7919 N 749.397 0.351382 -1.53633 0
M  V30 7920 C 750.327 1.43688 -1.84055 0
M  V30 7921 C 751.308 1.55251 -0.695073 0
M  V30 7922 O 752.493 1.69587 -0.946257 0
M  V30 7923 C 749.623 2.80843 -2.04315 0
M  V30 7924 C 748.577 2.84094 -3.20117 0
M  V30 7925 C 747.903 4.2406 -3.25696 0
M  V30 7926 C 749.203 2.50334 -4.58399 0
M  V30 7927 H 750.897 1.18478 -2.74961 0
M  V30 7928 H 748.443 0.568509 -1.32303 0
M  V30 7929 H 750.396 3.56821 -2.2418 0
M  V30 7930 H 749.12 3.07471 -1.10132 0
M  V30 7931 H 747.779 2.10568 -3.00094 0
M  V30 7932 H 747.427 4.47785 -2.29123 0
M  V30 7933 H 747.127 4.27147 -4.03509 0
M  V30 7934 H 748.651 5.0189 -3.47762 0
M  V30 7935 H 750.065 3.16025 -4.78332 0
M  V30 7936 H 748.462 2.64717 -5.38558 0
M  V30 7937 H 749.532 1.45542 -4.62543 0
M  V30 7938 N 750.875 1.45233 0.611969 0
M  V30 7939 C 752.291 1.29542 0.932251 0
M  V30 7940 C 752.491 0.24523 2.00002 0
M  V30 7941 O 751.547 -0.362333 2.49887 0
M  V30 7942 C 752.86 2.67301 1.37733 0
M  V30 7943 C 754.408 2.75163 1.49178 0
M  V30 7944 C 754.883 4.13437 1.97064 0
M  V30 7945 N 756.374 4.15709 2.04304 0
M  V30 7946 C 757.109 5.19566 2.42568 0
M  V30 7947 N 756.605 6.33771 2.79832 0
M  V30 7948 N 758.398 5.06923 2.42869 0
M  V30 7949 H 750.549 2.12192 -0.0938679 0
M  V30 7950 H 752.812 0.947775 0.0206569 0
M  V30 7951 H 752.518 3.45318 0.666951 0
M  V30 7952 H 752.392 2.95472 2.3447 0
M  V30 7953 H 754.779 1.97453 2.19309 0
M  V30 7954 H 754.86 2.50712 0.507674 0
M  V30 7955 H 754.504 4.91631 1.27521 0
M  V30 7956 H 754.434 4.35277 2.9638 0
M  V30 7957 H 756.925 3.33293 1.78113 0
M  V30 7958 H 757.238 7.08815 3.07898 0
M  V30 7959 H 755.583 6.37179 2.77538 0
M  V30 7960 H 758.774 4.1675 2.1316 0
M  V30 7961 H 758.947 5.87981 2.72364 0
M  V30 7962 N 752.353 -0.854086 1.3245 0
M  V30 7963 C 753.283 -1.97827 1.24044 0
M  V30 7964 C 754.264 -1.69646 0.124166 0
M  V30 7965 O 755.449 -1.91687 0.31143 0
M  V30 7966 C 752.579 -3.33673 0.963324 0
M  V30 7967 C 751.533 -3.76207 2.04089 0
M  V30 7968 C 750.859 -5.0969 1.61618 0
M  V30 7969 C 752.159 -3.91612 3.45597 0
M  V30 7970 H 753.853 -2.05118 2.18099 0
M  V30 7971 H 751.399 -0.985489 1.04996 0
M  V30 7972 H 753.352 -4.11871 0.891061 0
M  V30 7973 H 752.076 -3.26597 -0.0128649 0
M  V30 7974 H 750.735 -3.0026 2.10332 0
M  V30 7975 H 750.383 -4.99072 0.627418 0
M  V30 7976 H 750.083 -5.3912 2.33717 0
M  V30 7977 H 751.607 -5.90381 1.55829 0
M  V30 7978 H 753.021 -4.60163 3.4194 0
M  V30 7979 H 751.418 -4.3246 4.16051 0
M  V30 7980 H 752.488 -2.9451 3.85217 0
M  V30 7981 N 753.831 -1.1567 -1.07043 0
M  V30 7982 C 755.071 -0.944089 -1.81291 0
M  V30 7983 C 755.435 0.519305 -1.84844 0
M  V30 7984 O 756.636 0.850357 -2.54995 0
M  V30 7985 C 754.907 -1.54528 -3.22267 0
M  V30 7986 S 756.466 -1.47623 -4.13223 0
M  V30 7987 H 753.284 -0.339696 -0.624602 0
M  V30 7988 H 755.886 -1.47277 -1.28568 0
M  V30 7989 H 754.59 -2.60321 -3.17271 0
M  V30 7990 H 754.121 -1.0156 -3.80065 0
M  V30 7991 H 756.136 -0.471261 -4.93957 0
M  V30 7992 N 755.309 1.25446 -0.953992 0
M  V30 7993 C 756.725 1.4539 -0.658316 0
M  V30 7994 C 756.925 1.85607 0.784356 0
M  V30 7995 O 755.981 1.98568 1.55972 0
M  V30 7996 C 757.294 2.52643 -1.6307 0
M  V30 7997 C 758.842 2.66484 -1.64181 0
M  V30 7998 C 759.317 3.76921 -2.60182 0
M  V30 7999 N 760.808 3.84331 -2.58542 0
M  V30 8000 C 761.543 4.69271 -3.29503 0
M  V30 8001 N 761.039 5.58503 -4.09934 0
M  V30 8002 N 762.832 4.6323 -3.18393 0
M  V30 8003 H 754.983 0.976337 -1.8863 0
M  V30 8004 H 757.246 0.490343 -0.811337 0
M  V30 8005 H 756.952 2.29949 -2.66114 0
M  V30 8006 H 756.826 3.50547 -1.39271 0
M  V30 8007 H 759.213 2.88545 -0.618552 0
M  V30 8008 H 759.294 1.68982 -1.92038 0
M  V30 8009 H 758.938 3.55612 -3.62633 0
M  V30 8010 H 758.868 4.73906 -2.29609 0
M  V30 8011 H 761.359 3.20544 -2.0015 0
M  V30 8012 H 761.672 6.20241 -4.61 0
M  V30 8013 H 760.017 5.58214 -4.14032 0
M  V30 8014 H 763.208 3.92527 -2.5503 0
M  V30 8015 H 763.381 5.29204 -3.73961 0
M  V30 8016 N 756.787 0.722489 1.40064 0
M  V30 8017 C 758.012 0.273446 2.05589 0
M  V30 8018 C 758.437 -1.07875 1.54093 0
M  V30 8019 O 757.795 -1.68095 0.679252 0
M  V30 8020 C 757.843 0.271023 3.5958 0
M  V30 8021 O 756.947 -0.745499 4.05606 0
M  V30 8022 H 756.288 0.126856 0.65177 0
M  V30 8023 H 758.818 0.984906 1.79334 0
M  V30 8024 H 758.828 0.111084 4.07849 0
M  V30 8025 H 757.503 1.25776 3.96425 0
M  V30 8026 H 756.08 -0.552719 3.68781 0
M  V30 8027 N 758.265 -1.50454 0.469181 0
M  V30 8028 C 759.513 -2.01916 -0.0862982 0
M  V30 8029 C 759.834 -1.35337 -1.40388 0
M  V30 8030 O 759.104 -0.498096 -1.89462 0
M  V30 8031 H 757.684 -0.746185 -0.0348825 0
M  V30 8032 H 760.346 -1.84804 0.619167 0
M  V30 8033 H 759.442 -3.11182 -0.239189 0
M  V30 8034 N 759.743 -0.201713 -1.56304 0
M  V30 8035 C 760.968 0.443815 -2.02596 0
M  V30 8036 C 761.393 1.53945 -1.08086 0
M  V30 8037 O 760.751 1.81182 -0.0655056 0
M  V30 8038 C 760.799 0.971066 -3.47279 0
M  V30 8039 O 759.903 2.0836 -3.55893 0
M  V30 8040 H 759.244 0.10294 -0.655972 0
M  V30 8041 H 761.774 -0.314533 -2.02168 0
M  V30 8042 H 761.784 1.28598 -3.87204 0
M  V30 8043 H 760.459 0.169048 -4.15556 0
M  V30 8044 H 759.036 1.77683 -3.27846 0
M  V30 8045 N 761.222 1.57436 0.0718424 0
M  V30 8046 C 762.47 1.86878 0.769484 0
M  V30 8047 C 762.791 0.7937 1.78116 0
M  V30 8048 O 762.061 -0.177642 1.95093 0
M  V30 8049 H 760.641 0.689593 0.287177 0
M  V30 8050 H 763.303 1.94841 0.0479427 0
M  V30 8051 H 762.399 2.84387 1.28572 0
M  V30 8052 N 762.7 -0.34323 1.53817 0
M  V30 8053 C 763.65 -1.42217 1.78208 0
M  V30 8054 C 764.634 -1.4774 0.637304 0
M  V30 8055 O 765.826 -1.52605 0.896705 0
M  V30 8056 C 762.955 -2.79354 1.9954 0
M  V30 8057 C 762.041 -2.78222 3.20084 0
M  V30 8058 N 762.432 -2.46719 4.41547 0
M  V30 8059 C 760.73 -3.09368 3.21259 0
M  V30 8060 C 761.431 -2.53828 5.23399 0
M  V30 8061 N 760.407 -2.89464 4.60121 0
M  V30 8062 H 764.209 -1.16759 2.69712 0
M  V30 8063 H 761.723 -0.551592 1.52746 0
M  V30 8064 H 763.72 -3.57095 2.15148 0
M  V30 8065 H 762.38 -3.05759 1.09278 0
M  V30 8066 H 763.391 -2.19912 4.68891 0
M  V30 8067 H 760.068 -3.40942 2.40966 0
M  V30 8068 H 761.458 -2.32629 6.30344 0
M  V30 8069 N 764.178 -1.45556 -0.604258 0
M  V30 8070 C 765.418 -1.51289 -1.37445 0
M  V30 8071 C 765.782 -0.152112 -1.91397 0
M  V30 8072 O 766.983 -0.0841419 -2.68668 0
M  V30 8073 C 765.254 -2.5646 -2.48924 0
M  V30 8074 S 766.813 -2.81442 -3.36654 0
M  V30 8075 H 763.631 -0.534774 -0.468549 0
M  V30 8076 H 766.233 -1.82657 -0.696902 0
M  V30 8077 H 764.937 -3.53995 -2.07644 0
M  V30 8078 H 764.468 -2.26753 -3.21476 0
M  V30 8079 H 766.483 -2.15074 -4.47166 0
M  V30 8080 N 765.656 0.84705 -1.32902 0
M  V30 8081 C 766.902 1.60389 -1.25088 0
M  V30 8082 C 767.257 1.91521 0.183723 0
M  V30 8083 O 766.55 1.55197 1.12359 0
M  V30 8084 C 766.744 2.92663 -2.05142 0
M  V30 8085 C 766.573 2.74449 -3.56241 0
M  V30 8086 C 765.343 2.72434 -4.25567 0
M  V30 8087 C 767.541 2.47666 -4.5074 0
M  V30 8088 N 765.523 2.45512 -5.62669 0
M  V30 8089 C 766.894 2.30219 -5.75673 0
M  V30 8090 C 768.949 2.33196 -4.39914 0
M  V30 8091 C 767.652 1.99772 -6.91002 0
M  V30 8092 C 769.678 2.0414 -5.5505 0
M  V30 8093 C 769.04 1.875 -6.78987 0
M  V30 8094 H 765.139 0.590296 -0.512908 0
M  V30 8095 H 767.723 0.995058 -1.67352 0
M  V30 8096 H 765.894 3.51511 -1.65211 0
M  V30 8097 H 767.626 3.5777 -1.89163 0
M  V30 8098 H 764.381 2.85647 -3.7776 0
M  V30 8099 H 764.805 2.34958 -6.3492 0
M  V30 8100 H 769.447 2.44777 -3.44738 0
M  V30 8101 H 767.165 1.86928 -7.86183 0
M  V30 8102 H 770.751 1.93711 -5.48605 0
M  V30 8103 H 769.631 1.65339 -7.66572 0
M  V30 8104 N 767.134 1.16236 1.06428 0
M  V30 8105 C 768.382 0.941171 1.78847 0
M  V30 8106 C 768.703 -0.53248 1.87589 0
M  V30 8107 O 767.973 -1.38686 1.38358 0
M  V30 8108 H 766.553 0.345228 0.66244 0
M  V30 8109 H 769.215 1.46479 1.28569 0
M  V30 8110 H 768.311 1.35871 2.80972 0
M  V30 8111 N 768.612 -1.24939 0.960631 0
M  V30 8112 C 769.542 -2.28 0.503815 0
M  V30 8113 C 770.523 -1.63959 -0.452928 0
M  V30 8114 O 771.708 -1.91009 -0.350585 0
M  V30 8115 C 768.838 -3.46643 -0.213535 0
M  V30 8116 C 767.792 -4.22903 0.658535 0
M  V30 8117 C 767.118 -5.34363 -0.189902 0
M  V30 8118 C 768.418 -4.84949 1.93963 0
M  V30 8119 H 770.112 -2.66462 1.36521 0
M  V30 8120 H 767.658 -1.28093 0.657897 0
M  V30 8121 H 769.611 -4.1787 -0.544286 0
M  V30 8122 H 768.335 -3.07187 -1.10923 0
M  V30 8123 H 766.994 -3.53467 0.972455 0
M  V30 8124 H 766.642 -4.91147 -1.08553 0
M  V30 8125 H 766.342 -5.86302 0.390331 0
M  V30 8126 H 767.866 -6.0842 -0.515484 0
M  V30 8127 H 769.28 -5.48288 1.67491 0
M  V30 8128 H 767.677 -5.47091 2.46601 0
M  V30 8129 H 768.747 -4.06799 2.639 0
M  V30 8130 N 770.09 -0.729906 -1.39679 0
M  V30 8131 C 771.506 -0.404951 -1.54377 0
M  V30 8132 C 771.706 1.08476 -1.6981 0
M  V30 8133 O 770.762 1.87087 -1.69572 0
M  V30 8134 C 772.075 -1.18352 -2.76429 0
M  V30 8135 C 773.623 -1.17124 -2.9026 0
M  V30 8136 C 774.098 -1.93227 -4.15244 0
M  V30 8137 N 775.589 -1.90368 -4.22273 0
M  V30 8138 C 776.324 -2.46065 -5.17918 0
M  V30 8139 N 775.82 -3.10378 -6.19385 0
M  V30 8140 N 777.613 -2.36127 -5.10099 0
M  V30 8141 H 769.764 -1.69567 -1.27909 0
M  V30 8142 H 772.027 -0.717527 -0.619564 0
M  V30 8143 H 771.733 -2.23743 -2.71352 0
M  V30 8144 H 771.607 -0.784589 -3.6895 0
M  V30 8145 H 773.994 -0.125478 -2.94833 0
M  V30 8146 H 774.075 -1.60951 -1.98817 0
M  V30 8147 H 773.719 -2.97802 -4.11432 0
M  V30 8148 H 773.649 -1.4681 -5.05722 0
M  V30 8149 H 776.14 -1.4351 -3.4959 0
M  V30 8150 H 776.453 -3.50358 -6.88817 0
M  V30 8151 H 774.798 -3.14467 -6.19787 0
M  V30 8152 H 777.989 -1.85529 -4.29763 0
M  V30 8153 H 778.162 -2.79833 -5.84463 0
M  V30 8154 N 771.568 1.50203 -0.477153 0
M  V30 8155 C 772.793 2.07263 0.0754986 0
M  V30 8156 C 773.218 1.33801 1.32208 0
M  V30 8157 O 772.576 0.387482 1.77111 0
M  V30 8158 C 772.624 3.59028 0.336348 0
M  V30 8159 O 771.728 3.87339 1.4157 0
M  V30 8160 H 771.069 0.663815 -0.015662 0
M  V30 8161 H 773.599 1.93321 -0.669936 0
M  V30 8162 H 773.609 4.03927 0.575034 0
M  V30 8163 H 772.284 4.11912 -0.574551 0
M  V30 8164 H 770.861 3.54272 1.16385 0
M  V30 8165 N 773.046 0.209999 1.56195 0
M  V30 8166 C 774.274 -0.429996 2.02382 0
M  V30 8167 C 774.689 -1.54159 1.08998 0
M  V30 8168 O 774.046 -1.82239 0.0974856 0
M  V30 8169 C 774.097 -0.972433 3.48175 0
M  V30 8170 O 773.818 0.0948231 4.37997 0
M  V30 8171 C 775.319 -1.68683 4.09952 0
M  V30 8172 H 772.539 -0.106475 0.662498 0
M  V30 8173 H 775.083 0.323072 2.01932 0
M  V30 8174 H 773.238 -1.67582 3.49278 0
M  V30 8175 H 773.652 -0.31113 5.23576 0
M  V30 8176 H 775.126 -2.01851 5.13771 0
M  V30 8177 H 775.603 -2.59587 3.54276 0
M  V30 8178 H 776.209 -1.02893 4.12666 0
M  V30 8179 N 774.524 -1.57472 -0.0634922 0
M  V30 8180 C 775.454 -2.07297 -1.07473 0
M  V30 8181 C 776.435 -0.968162 -1.39859 0
M  V30 8182 O 777.62 -1.24139 -1.49343 0
M  V30 8183 C 774.75 -2.52381 -2.38581 0
M  V30 8184 C 773.704 -3.66813 -2.20526 0
M  V30 8185 C 773.03 -3.97982 -3.57092 0
M  V30 8186 C 774.33 -4.96553 -1.61965 0
M  V30 8187 H 776.024 -2.92033 -0.660092 0
M  V30 8188 H 773.57 -1.40488 -0.316074 0
M  V30 8189 H 775.523 -2.85852 -3.09624 0
M  V30 8190 H 774.247 -1.64684 -2.8204 0
M  V30 8191 H 772.906 -3.33639 -1.51924 0
M  V30 8192 H 772.554 -3.07403 -3.98136 0
M  V30 8193 H 772.254 -4.7504 -3.45848 0
M  V30 8194 H 773.778 -4.33956 -4.29552 0
M  V30 8195 H 775.192 -5.28201 -2.22883 0
M  V30 8196 H 773.589 -5.7799 -1.61394 0
M  V30 8197 H 774.659 -4.81396 -0.581918 0
M  V30 8198 N 776.003 0.335068 -1.53997 0
M  V30 8199 C 776.966 1.39481 -1.81872 0
M  V30 8200 C 777.966 1.4524 -0.690078 0
M  V30 8201 O 779.156 1.45467 -0.958377 0
M  V30 8202 C 776.288 2.78329 -1.9684 0
M  V30 8203 H 777.481 1.16024 -2.76547 0
M  V30 8204 H 775.034 0.569926 -1.45539 0
M  V30 8205 H 775.769 3.07058 -1.04337 0
M  V30 8206 H 775.554 2.75544 -2.78958 0
M  V30 8207 H 777.044 3.55016 -2.19894 0
M  V30 8208 N 777.481 1.45874 0.596531 0
M  V30 8209 C 778.706 1.54247 1.38646 0
M  V30 8210 C 779.131 0.179571 1.87241 0
M  V30 8211 O 778.489 -0.837831 1.6078 0
M  V30 8212 C 778.537 2.54015 2.55946 0
M  V30 8213 O 777.641 2.06561 3.5694 0
M  V30 8214 H 776.982 0.519555 0.413471 0
M  V30 8215 H 779.512 1.91327 0.724936 0
M  V30 8216 H 779.522 2.73179 3.03047 0
M  V30 8217 H 778.197 3.52994 2.19928 0
M  V30 8218 H 776.774 1.97324 3.16414 0
M  V30 8219 N 778.959 -0.83999 1.33349 0
M  V30 8220 C 780.206 -1.59517 1.24742 0
M  V30 8221 C 780.534 -1.93598 -0.187077 0
M  V30 8222 O 779.789 -1.58782 -1.14398 0
M  V30 8223 C 780.088 -2.91571 2.06691 0
M  V30 8224 C 779.754 -2.76856 3.55895 0
M  V30 8225 C 778.416 -2.72551 3.96572 0
M  V30 8226 C 780.768 -2.61741 4.50712 0
M  V30 8227 C 778.096 -2.51028 5.30285 0
M  V30 8228 C 780.448 -2.41752 5.84584 0
M  V30 8229 C 779.112 -2.35848 6.24445 0
M  V30 8230 H 778.382 -0.583714 0.456463 0
M  V30 8231 H 781.029 -0.973261 1.64924 0
M  V30 8232 H 779.334 -3.57961 1.59284 0
M  V30 8233 H 781.031 -3.49053 1.9739 0
M  V30 8234 H 777.621 -2.81039 3.23597 0
M  V30 8235 H 781.805 -2.64102 4.20195 0
M  V30 8236 H 777.061 -2.44903 5.60208 0
M  V30 8237 H 781.235 -2.2904 6.57658 0
M  V30 8238 H 778.862 -2.18931 7.27993 0
M  V30 8239 N 780.437 -1.16799 -1.0581 0
M  V30 8240 C 781.4 -0.881396 -2.11575 0
M  V30 8241 C 782.4 0.12574 -1.60308 0
M  V30 8242 O 783.59 -0.105716 -1.73879 0
M  V30 8243 C 780.722 -0.319037 -3.39404 0
M  V30 8244 H 781.915 -1.81907 -2.38432 0
M  V30 8245 H 779.468 -0.977597 -1.21954 0
M  V30 8246 H 780.203 0.626082 -3.18199 0
M  V30 8247 H 779.988 -1.04481 -3.77923 0
M  V30 8248 H 781.478 -0.13663 -4.17376 0
M  V30 8249 N 781.915 1.24427 -0.967243 0
M  V30 8250 C 783.155 1.9423 -0.636723 0
M  V30 8251 C 783.519 1.73939 0.812971 0
M  V30 8252 O 784.72 2.37773 1.25369 0
M  V30 8253 C 782.991 3.43105 -1.00067 0
M  V30 8254 S 784.55 4.31728 -0.784633 0
M  V30 8255 H 781.368 0.671527 -0.233607 0
M  V30 8256 H 783.97 1.50806 -1.2441 0
M  V30 8257 H 782.674 3.5538 -2.05264 0
M  V30 8258 H 782.205 3.91521 -0.384054 0
M  V30 8259 H 784.22 4.95046 0.338244 0
M  V30 8260 N 783.393 0.737304 1.3929 0
M  V30 8261 C 784.809 0.413132 1.5416 0
M  V30 8262 C 785.009 -1.07574 1.70382 0
M  V30 8263 O 784.065 -1.86185 1.70562 0
M  V30 8264 C 785.378 1.19817 2.75798 0
M  V30 8265 C 786.926 1.18662 2.89635 0
M  V30 8266 C 787.401 1.95427 4.14213 0
M  V30 8267 N 788.892 1.92605 4.21257 0
M  V30 8268 C 789.627 2.48808 5.16606 0
M  V30 8269 N 789.123 3.13659 6.1773 0
M  V30 8270 N 790.916 2.38829 5.08839 0
M  V30 8271 H 783.067 1.70243 1.27008 0
M  V30 8272 H 785.33 0.720802 0.61575 0
M  V30 8273 H 785.036 2.25179 2.70161 0
M  V30 8274 H 784.91 0.804144 3.68529 0
M  V30 8275 H 787.297 0.141112 2.94762 0
M  V30 8276 H 787.378 1.62003 1.97961 0
M  V30 8277 H 787.022 2.9998 4.09847 0
M  V30 8278 H 786.952 1.4949 5.04936 0
M  V30 8279 H 789.443 1.45362 3.48824 0
M  V30 8280 H 789.756 3.54006 6.8695 0
M  V30 8281 H 788.101 3.17749 6.1811 0
M  V30 8282 H 791.292 1.87806 4.28773 0
M  V30 8283 H 791.465 2.82929 5.82971 0
M  V30 8284 N 784.871 -1.49948 0.485112 0
M  V30 8285 C 786.117 -2.02695 -0.0651022 0
M  V30 8286 C 786.45 -1.36534 -1.38102 0
M  V30 8287 O 785.725 -0.495677 -1.88078 0
M  V30 8288 C 786.008 -3.59337 -0.234285 0
M  V30 8289 C 785.861 -4.3605 1.10364 0
M  V30 8290 C 787.18 -4.28996 -0.982351 0
M  V30 8291 H 784.299 -0.736666 -0.0221856 0
M  V30 8292 H 786.941 -1.7913 0.633433 0
M  V30 8293 H 785.091 -3.79546 -0.829262 0
M  V30 8294 H 786.763 -4.27377 1.73627 0
M  V30 8295 H 785.006 -3.99236 1.69686 0
M  V30 8296 H 785.677 -5.43959 0.938743 0
M  V30 8297 H 788.153 -4.13346 -0.477904 0
M  V30 8298 H 787.029 -5.38379 -1.06955 0
M  V30 8299 H 787.29 -3.93135 -2.02231 0
M  V30 8300 N 786.349 -0.21828 -1.56081 0
M  V30 8301 C 787.312 0.679633 -2.18892 0
M  V30 8302 C 788.312 1.12405 -1.14986 0
M  V30 8303 O 789.502 1.03339 -1.40238 0
M  V30 8304 C 786.634 1.93063 -2.80962 0
M  V30 8305 H 787.827 0.132066 -2.99609 0
M  V30 8306 H 785.38 0.0313374 -1.56269 0
M  V30 8307 H 786.115 2.52015 -2.04106 0
M  V30 8308 H 785.9 1.62046 -3.57048 0
M  V30 8309 H 787.39 2.57043 -3.29118 0
M  V30 8310 N 787.827 1.57504 0.0551401 0
M  V30 8311 C 789.055 1.92294 0.76358 0
M  V30 8312 C 789.47 0.815774 1.70266 0
M  V30 8313 O 788.827 -0.209772 1.8129 0
M  V30 8314 C 788.878 3.26914 1.54302 0
M  V30 8315 O 788.599 4.33375 0.641666 0
M  V30 8316 C 790.1 3.75825 2.35097 0
M  V30 8317 H 787.32 0.635229 0.216159 0
M  V30 8318 H 789.864 2.0449 0.0204385 0
M  V30 8319 H 788.019 3.16196 2.23828 0
M  V30 8320 H 788.433 5.10927 1.1855 0
M  V30 8321 H 789.907 4.72603 2.8522 0
M  V30 8322 H 790.384 3.0568 3.15367 0
M  V30 8323 H 790.99 3.89542 1.70696 0
M  V30 8324 N 789.305 -0.326896 1.54172 0
M  V30 8325 C 790.533 -1.08486 1.76177 0
M  V30 8326 C 790.948 -1.81815 0.508788 0
M  V30 8327 O 790.305 -1.74924 -0.520362 0
M  V30 8328 C 790.356 -2.08552 2.95276 0
M  V30 8329 O 790.077 -1.38202 4.15731 0
M  V30 8330 C 791.578 -2.96593 3.29466 0
M  V30 8331 H 788.798 -0.322835 0.588233 0
M  V30 8332 H 791.342 -0.374036 2.0105 0
M  V30 8333 H 789.497 -2.75174 2.72687 0
M  V30 8334 H 789.911 -2.05186 4.827 0
M  V30 8335 H 791.385 -3.62708 4.16109 0
M  V30 8336 H 791.862 -3.63511 2.46487 0
M  V30 8337 H 792.468 -2.35537 3.54122 0
M  V30 8338 N 790.784 -1.46188 -0.588786 0
M  V30 8339 C 791.714 -1.59148 -1.70863 0
M  V30 8340 C 792.695 -0.442083 -1.64255 0
M  V30 8341 O 793.88 -0.667575 -1.82365 0
M  V30 8342 C 791.01 -1.5757 -3.09498 0
M  V30 8343 C 789.964 -2.71418 -3.30932 0
M  V30 8344 C 789.29 -2.549 -4.70032 0
M  V30 8345 C 790.59 -4.1329 -3.19356 0
M  V30 8346 H 792.284 -2.52889 -1.60274 0
M  V30 8347 H 789.83 -1.21707 -0.769638 0
M  V30 8348 H 791.783 -1.65231 -3.87655 0
M  V30 8349 H 790.507 -0.603705 -3.20972 0
M  V30 8350 H 789.166 -2.63216 -2.55172 0
M  V30 8351 H 788.814 -1.55797 -4.78264 0
M  V30 8352 H 788.514 -3.31257 -4.85327 0
M  V30 8353 H 790.038 -2.64443 -5.50366 0
M  V30 8354 H 791.452 -4.22636 -3.87365 0
M  V30 8355 H 789.849 -4.90187 -3.46175 0
M  V30 8356 H 790.919 -4.33874 -2.16522 0
M  V30 8357 N 792.262 0.832906 -1.33792 0
M  V30 8358 C 793.673 1.40489 -1.22963 0
M  V30 8359 C 794.024 1.95633 0.149026 0
M  V30 8360 O 793.149 1.8928 1.04891 0
M  V30 8361 C 793.744 2.55387 -2.22627 0
M  V30 8362 C 792.303 3.08522 -2.15618 0
M  V30 8363 C 791.45 1.81347 -2.09782 0
M  V30 8364 H 794.401 0.638156 -1.45304 0
M  V30 8365 H 794.422 3.33193 -1.83746 0
M  V30 8366 H 793.934 2.15222 -3.22957 0
M  V30 8367 H 792.035 3.53217 -1.18611 0
M  V30 8368 H 792.148 3.6829 -3.0643 0
M  V30 8369 H 790.512 2.01839 -1.55349 0
M  V30 8370 H 791.295 1.43369 -3.1193 0
M  V30 8371 N 793.74 1.17359 1.05189 0
M  V30 8372 C 794.986 0.963413 1.78455 0
M  V30 8373 C 795.319 -0.506703 1.87473 0
M  V30 8374 O 794.594 -1.37611 1.37453 0
M  V30 8375 C 794.877 1.60519 3.22344 0
M  V30 8376 C 794.73 3.14741 3.21338 0
M  V30 8377 C 796.049 1.3091 4.20179 0
M  V30 8378 H 793.168 0.351412 0.647826 0
M  V30 8379 H 795.81 1.44858 1.22948 0
M  V30 8380 H 793.96 1.19265 3.69741 0
M  V30 8381 H 795.632 3.65053 2.82017 0
M  V30 8382 H 793.875 3.4749 2.59679 0
M  V30 8383 H 794.546 3.54775 4.22894 0
M  V30 8384 H 797.022 1.66635 3.81277 0
M  V30 8385 H 795.898 1.784 5.191 0
M  V30 8386 H 796.159 0.229908 4.41502 0
M  V30 8387 N 795.218 -1.23913 0.973828 0
M  V30 8388 C 796.148 -2.27453 0.527969 0
M  V30 8389 C 797.129 -1.6443 -0.435513 0
M  V30 8390 O 798.314 -1.9137 -0.330306 0
M  V30 8391 C 795.444 -3.4685 -0.176757 0
M  V30 8392 C 794.398 -4.22181 0.703352 0
M  V30 8393 C 793.724 -5.34534 -0.133215 0
M  V30 8394 C 795.024 -4.82865 1.99096 0
M  V30 8395 H 796.718 -2.65 1.3934 0
M  V30 8396 H 794.264 -1.27388 0.671446 0
M  V30 8397 H 796.217 -4.18424 -0.499934 0
M  V30 8398 H 794.941 -3.08346 -1.07659 0
M  V30 8399 H 793.6 -3.52416 1.00989 0
M  V30 8400 H 793.248 -4.92271 -1.03338 0
M  V30 8401 H 792.948 -5.85855 0.452494 0
M  V30 8402 H 794.472 -6.08933 -0.450924 0
M  V30 8403 H 795.886 -5.46481 1.73297 0
M  V30 8404 H 794.283 -5.44444 2.52389 0
M  V30 8405 H 795.353 -4.03977 2.68199 0
M  V30 8406 N 796.696 -0.74468 -1.38897 0
M  V30 8407 C 797.606 -0.112892 -2.34328 0
M  V30 8408 C 798.622 0.71087 -1.58816 0
M  V30 8409 O 799.798 0.637092 -1.91058 0
M  V30 8410 C 796.863 0.776417 -3.37894 0
M  V30 8411 C 795.924 -0.0606999 -4.29257 0
M  V30 8412 C 795.157 0.786258 -5.27877 0
M  V30 8413 O 795.38 2.02463 -5.33259 0
M  V30 8414 O 794.314 0.209781 -6.01534 0
M  V30 8415 H 798.14 -0.900801 -2.90033 0
M  V30 8416 H 795.725 -0.505462 -1.4059 0
M  V30 8417 H 797.607 1.28496 -4.01331 0
M  V30 8418 H 796.282 1.54297 -2.84559 0
M  V30 8419 H 795.189 -0.614984 -3.69011 0
M  V30 8420 H 796.522 -0.789702 -4.85824 0
M  V30 8421 N 798.174 1.49689 -0.493057 0
M  V30 8422 C 799.422 2.02027 0.0541642 0
M  V30 8423 C 799.743 1.37554 1.38217 0
M  V30 8424 O 799.013 0.528174 1.88646 0
M  V30 8425 H 797.593 0.746646 0.0230069 0
M  V30 8426 H 800.255 1.83795 -0.648489 0
M  V30 8427 H 799.351 3.11523 0.189652 0
M  V30 8428 N 799.652 0.226554 1.55963 0
M  V30 8429 C 800.582 -0.676079 2.23498 0
M  V30 8430 C 801.563 -1.19718 1.20837 0
M  V30 8431 O 802.748 -1.24027 1.49436 0
M  V30 8432 C 799.878 -1.88217 2.91876 0
M  V30 8433 C 798.832 -1.4947 4.01052 0
M  V30 8434 C 798.158 -2.77997 4.56751 0
M  V30 8435 C 799.458 -0.680951 5.17842 0
M  V30 8436 H 801.152 -0.112989 2.99187 0
M  V30 8437 H 798.698 -0.0529046 1.43903 0
M  V30 8438 H 800.651 -2.51911 3.37815 0
M  V30 8439 H 799.375 -2.47031 2.13643 0
M  V30 8440 H 798.034 -0.881199 3.55852 0
M  V30 8441 H 797.682 -3.34966 3.75243 0
M  V30 8442 H 797.382 -2.52803 5.30438 0
M  V30 8443 H 798.906 -3.42625 5.05411 0
M  V30 8444 H 800.32 -1.22171 5.60131 0
M  V30 8445 H 798.717 -0.525898 5.97791 0
M  V30 8446 H 799.787 0.311346 4.83899 0
M  V30 8447 N 801.13 -1.57531 -0.0467866 0
M  V30 8448 C 802.378 -1.88078 -0.739656 0
M  V30 8449 C 802.699 -0.821936 -1.76831 0
M  V30 8450 O 801.969 0.146582 -1.95351 0
M  V30 8451 H 800.549 -0.694075 -0.276169 0
M  V30 8452 H 803.211 -1.94893 -0.0169391 0
M  V30 8453 H 802.307 -2.86396 -1.24031 0
M  V30 8454 N 802.608 0.318715 -1.54344 0
M  V30 8455 C 804.019 0.89285 -1.63967 0
M  V30 8456 C 804.37 1.88712 -0.536855 0
M  V30 8457 O 803.495 2.13877 0.329457 0
M  V30 8458 C 804.09 1.62618 -2.97222 0
M  V30 8459 C 802.649 2.14897 -3.09025 0
M  V30 8460 C 801.796 0.975909 -2.5956 0
M  V30 8461 H 804.747 0.0961687 -1.58408 0
M  V30 8462 H 804.768 2.4907 -2.87653 0
M  V30 8463 H 804.28 0.902286 -3.77466 0
M  V30 8464 H 802.381 2.90387 -2.33465 0
M  V30 8465 H 802.494 2.39565 -4.14904 0
M  V30 8466 H 800.858 1.35646 -2.15574 0
M  V30 8467 H 801.641 0.266253 -3.42266 0
M  V30 8468 N 804.086 1.46499 0.581025 0
M  V30 8469 C 805.311 1.55708 1.37002 0
M  V30 8470 C 805.736 0.19942 1.8704 0
M  V30 8471 O 805.094 -0.820731 1.61659 0
M  V30 8472 C 805.142 2.56716 2.53238 0
M  V30 8473 O 804.246 2.10336 3.54729 0
M  V30 8474 H 803.587 0.523912 0.407937 0
M  V30 8475 H 806.117 1.92085 0.704602 0
M  V30 8476 H 806.127 2.76378 3.00132 0
M  V30 8477 H 804.802 3.55307 2.16171 0
M  V30 8478 H 803.379 2.00669 3.14303 0
M  V30 8479 N 805.565 -0.825799 1.34232 0
M  V30 8480 C 806.495 -1.95151 1.28212 0
M  V30 8481 C 807.476 -1.69345 0.160123 0
M  V30 8482 O 808.661 -1.90983 0.352019 0
M  V30 8483 C 805.791 -3.31554 1.03388 0
M  V30 8484 C 804.745 -3.71793 2.12023 0
M  V30 8485 C 804.071 -5.06147 1.72392 0
M  V30 8486 C 805.371 -3.84193 3.53826 0
M  V30 8487 H 807.065 -2.00445 2.22401 0
M  V30 8488 H 804.611 -0.962996 1.07063 0
M  V30 8489 H 806.564 -4.09889 0.978225 0
M  V30 8490 H 805.288 -3.26551 0.0564142 0
M  V30 8491 H 803.947 -2.95731 2.16654 0
M  V30 8492 H 803.595 -4.97628 0.733137 0
M  V30 8493 H 803.295 -5.34041 2.451 0
M  V30 8494 H 804.819 -5.86943 1.68317 0
M  V30 8495 H 806.233 -4.52806 3.51624 0
M  V30 8496 H 804.63 -4.23538 4.2513 0
M  V30 8497 H 805.7 -2.86272 3.91377 0
M  V30 8498 N 807.043 -1.17915 -1.04565 0
M  V30 8499 C 808.291 -0.969505 -1.77327 0
M  V30 8500 C 808.612 0.502569 -1.88412 0
M  V30 8501 O 807.882 1.36467 -1.40547 0
M  V30 8502 H 806.462 -0.355723 -0.656864 0
M  V30 8503 H 809.124 -1.48506 -1.26223 0
M  V30 8504 H 808.22 -1.40324 -2.78775 0
M  V30 8505 N 808.521 1.23394 -0.980386 0
M  V30 8506 C 809.769 1.91431 -0.647978 0
M  V30 8507 C 810.09 1.76871 0.821066 0
M  V30 8508 O 809.36 1.14808 1.58732 0
M  V30 8509 H 807.94 0.708516 -0.236673 0
M  V30 8510 H 810.602 1.50019 -1.2442 0
M  V30 8511 H 809.698 2.98854 -0.899592 0
M  V30 8512 N 809.999 0.752036 1.385 0
M  V30 8513 C 811.247 0.306895 1.99756 0
M  V30 8514 C 811.568 -1.11478 1.59992 0
M  V30 8515 O 810.838 -1.76206 0.856045 0
M  V30 8516 H 809.418 0.11048 0.738785 0
M  V30 8517 H 812.08 0.965785 1.69289 0
M  V30 8518 H 811.176 0.368797 3.09913 0
M  V30 8519 N 811.477 -1.49425 0.500989 0
M  V30 8520 C 812.705 -2.06861 -0.0403443 0
M  V30 8521 C 813.12 -1.36132 -1.30819 0
M  V30 8522 O 812.477 -0.439647 -1.77125 0
M  V30 8523 C 812.528 -3.6027 -0.297902 0
M  V30 8524 O 812.249 -4.28338 0.919686 0
M  V30 8525 C 813.75 -4.34419 -0.882876 0
M  V30 8526 H 810.97 -0.670688 0.0204619 0
M  V30 8527 H 813.514 -1.92207 0.698342 0
M  V30 8528 H 811.669 -3.74627 -0.98657 0
M  V30 8529 H 812.083 -5.2004 0.682528 0
M  V30 8530 H 813.557 -5.42631 -1.01268 0
M  V30 8531 H 814.034 -3.96898 -1.88066 0
M  V30 8532 H 814.64 -4.24669 -0.231677 0
M  V30 8533 N 812.955 -0.234822 -1.55841 0
M  V30 8534 C 814.203 0.392483 -1.98252 0
M  V30 8535 C 814.524 1.59344 -1.12404 0
M  V30 8536 O 813.794 1.94834 -0.204055 0
M  V30 8537 H 812.374 0.147999 -0.732192 0
M  V30 8538 H 815.036 -0.330804 -1.92072 0
M  V30 8539 H 814.132 0.709829 -3.03921 0
M  V30 8540 N 814.433 1.57553 0.0384317 0
M  V30 8541 C 815.658 1.93485 0.746872 0
M  V30 8542 C 816.083 0.834069 1.68597 0
M  V30 8543 O 815.441 -0.210902 1.80069 0
M  V30 8544 C 815.489 3.28463 1.4881 0
M  V30 8545 O 814.593 3.20051 2.60079 0
M  V30 8546 H 813.934 0.632675 0.201539 0
M  V30 8547 H 816.464 2.046 -0.00329815 0
M  V30 8548 H 816.474 3.63132 1.86009 0
M  V30 8549 H 815.149 4.08147 0.799297 0
M  V30 8550 H 813.726 2.96998 2.25492 0
M  V30 8551 O 815.95 -0.181452 1.60477 0
M  V30 8552 H 816.641 -0.819067 1.75531 0
M  V30 END ATOM
M  V30 BEGIN BOND
M  V30 END BOND
M  V30 END CTAB
M  END
$$$$
