drugbank_target|Q8WUI4 Histone deacetylase 7 (DB05015; DB06603)
 OpenBabel12092120333D

  0  0  0     0  0            999 V3000
M  V30 BEGIN CTAB
M  V30 COUNTS 14479 14665 0 0 0
M  V30 BEGIN ATOM
M  V30 1 H -0.908 1.98254 -0.117106 0
M  V30 2 N 0 1.576 0 0
M  V30 3 C 0.933 2.03868 1.02534 0
M  V30 4 C 1.911 0.928543 1.3348 0
M  V30 5 O 3.095 1.19667 1.45644 0
M  V30 6 C 0.222 2.43627 2.35294 0
M  V30 7 C -0.732 3.65373 2.2001 0
M  V30 8 S 0.101 5.13292 1.52614 0
M  V30 9 C 1.257 5.56322 2.86805 0
M  V30 10 H 1.49 2.90518 0.631377 0
M  V30 11 H -0.977 1.52953 0.210867 0
M  V30 12 H 0.981 2.67203 3.11629 0
M  V30 13 H -0.358 1.57376 2.7183 0
M  V30 14 H -1.165 3.90944 3.18086 0
M  V30 15 H -1.563 3.418 1.51819 0
M  V30 16 H 0.729 5.58782 3.83104 0
M  V30 17 H 1.672 6.56266 2.65933 0
M  V30 18 H 2.08 4.83886 2.90714 0
M  V30 19 N 1.4781 -0.272755 1.55222 0
M  V30 20 C 2.7551 -1.02562 1.66555 0
M  V30 21 C 3.1351 -2.04282 0.532189 0
M  V30 22 O 2.4831 -2.23662 -0.467717 0
M  V30 23 C 2.6931 -1.6822 3.05782 0
M  V30 24 C 4.0411 -2.19373 3.63539 0
M  V30 25 O 5.0651 -1.78206 3.08417 0
M  V30 26 O 3.9241 -2.94883 4.60115 0
M  V30 27 H 1.0181 -0.475755 0.676451 0
M  V30 28 H 3.5641 -0.268593 1.67561 0
M  V30 29 H 2.3361 -0.945112 3.79715 0
M  V30 30 H 1.9591 -2.50609 3.08676 0
M  V30 31 N 2.9562 -1.48159 -0.537278 0
M  V30 32 C 3.8862 -1.65029 -1.6519 0
M  V30 33 C 4.8672 -0.499281 -1.62607 0
M  V30 34 O 6.0522 -0.730972 -1.79918 0
M  V30 35 C 3.1822 -1.68303 -3.03795 0
M  V30 36 C 2.1362 -2.8283 -3.21234 0
M  V30 37 C 1.4622 -2.71189 -4.60826 0
M  V30 38 C 2.7622 -4.24211 -3.04701 0
M  V30 39 H 4.4562 -2.58341 -1.51328 0
M  V30 40 H 2.0022 -1.24325 -0.726585 0
M  V30 41 H 3.9552 -1.78693 -3.81637 0
M  V30 42 H 2.6792 -0.715635 -3.18663 0
M  V30 43 H 1.3382 -2.71983 -2.45807 0
M  V30 44 H 0.9862 -1.72435 -4.7252 0
M  V30 45 H 0.6862 -3.48035 -4.7344 0
M  V30 46 H 2.2102 -2.83537 -5.40777 0
M  V30 47 H 3.6242 -4.3593 -3.72341 0
M  V30 48 H 2.0212 -5.01998 -3.28813 0
M  V30 49 H 3.0912 -4.41184 -2.01209 0
M  V30 50 N 4.4343 0.785586 -1.36625 0
M  V30 51 C 5.8503 1.08419 -1.17122 0
M  V30 52 C 6.0503 2.015 0.00208491 0
M  V30 53 O 5.1063 2.43551 0.666278 0
M  V30 54 C 6.4193 1.69498 -2.48377 0
M  V30 55 C 7.9673 1.81821 -2.54775 0
M  V30 56 C 8.4423 2.46315 -3.86126 0
M  V30 57 N 9.9333 2.53779 -3.87492 0
M  V30 58 C 10.6683 3.045 -4.85868 0
M  V30 59 N 10.1643 3.55499 -5.94637 0
M  V30 60 N 11.9573 3.03247 -4.73284 0
M  V30 61 H 4.1083 0.167264 -2.1174 0
M  V30 62 H 6.3713 0.13682 -0.938075 0
M  V30 63 H 6.0773 1.08571 -3.34522 0
M  V30 64 H 5.9513 2.6896 -2.64462 0
M  V30 65 H 8.3383 2.41884 -1.69045 0
M  V30 66 H 8.4193 0.811532 -2.42586 0
M  V30 67 H 8.0633 1.86895 -4.72263 0
M  V30 68 H 7.9933 3.47561 -3.95612 0
M  V30 69 H 10.4843 2.17672 -3.08913 0
M  V30 70 H 10.7973 3.92562 -6.65669 0
M  V30 71 H 9.1423 3.5364 -5.98301 0
M  V30 72 H 12.3333 2.62696 -3.87438 0
M  V30 73 H 12.5063 3.42467 -5.50109 0
M  V30 74 N 5.9124 1.20967 1.01018 0
M  V30 75 C 7.1584 1.02526 1.74975 0
M  V30 76 C 7.4914 -0.4408 1.89131 0
M  V30 77 O 6.7664 -1.32718 1.42184 0
M  V30 78 C 7.0494 1.71699 3.1653 0
M  V30 79 C 6.9024 3.25791 3.10129 0
M  V30 80 C 8.2214 1.45531 4.15342 0
M  V30 81 H 5.3404 0.373863 0.635134 0
M  V30 82 H 7.9824 1.49071 1.17805 0
M  V30 83 H 6.1324 1.32128 3.65341 0
M  V30 84 H 7.8044 3.74697 2.69072 0
M  V30 85 H 6.0474 3.56363 2.47362 0
M  V30 86 H 6.7184 3.69353 4.10222 0
M  V30 87 H 9.1944 1.79872 3.75213 0
M  V30 88 H 8.0704 1.96453 5.1254 0
M  V30 89 H 8.3314 0.384237 4.40427 0
M  V30 90 N 7.3905 -1.2043 1.01659 0
M  V30 91 C 8.6385 -1.89423 0.704522 0
M  V30 92 C 8.9595 -1.79231 -0.768197 0
M  V30 93 O 8.2295 -1.1947 -1.55254 0
M  V30 94 H 6.8095 -0.701178 0.257602 0
M  V30 95 H 9.4715 -1.4626 1.28818 0
M  V30 96 H 8.5675 -2.96052 0.987916 0
M  V30 97 N 8.8686 -0.792821 -1.36206 0
M  V30 98 C 9.8006 -0.151469 -2.28699 0
M  V30 99 C 10.8136 0.641262 -1.49638 0
M  V30 100 O 12.0026 0.475885 -1.72039 0
M  V30 101 C 9.1026 0.808424 -3.29117 0
M  V30 102 C 8.2756 0.0650202 -4.37352 0
M  V30 103 C 7.3346 0.941358 -5.17711 0
M  V30 104 O 6.3606 0.397352 -5.67811 0
M  V30 105 N 7.5626 2.2652 -5.3448 0
M  V30 106 H 10.3276 -0.945982 -2.84379 0
M  V30 107 H 7.8886 -0.647032 -1.48409 0
M  V30 108 H 9.8806 1.3986 -3.79765 0
M  V30 109 H 8.4506 1.5038 -2.74052 0
M  V30 110 H 7.6706 -0.706255 -3.87822 0
M  V30 111 H 8.9586 -0.447847 -5.06825 0
M  V30 112 H 8.3566 2.73128 -4.95396 0
M  V30 113 H 6.9136 2.80493 -5.88359 0
M  V30 114 N 10.3467 1.47872 -0.545128 0
M  V30 115 C 11.7627 1.5829 -0.204032 0
M  V30 116 C 11.9627 1.54529 1.29317 0
M  V30 117 O 11.0187 1.44232 2.07252 0
M  V30 118 C 12.3317 2.89304 -0.819987 0
M  V30 119 C 13.8797 3.02864 -0.790105 0
M  V30 120 C 14.3547 4.3656 -1.38491 0
M  V30 121 N 15.8457 4.43165 -1.34755 0
M  V30 122 C 16.5807 5.45153 -1.77753 0
M  V30 123 N 16.0767 6.54016 -2.2855 0
M  V30 124 N 17.8697 5.36125 -1.68897 0
M  V30 125 H 10.0207 1.4856 -1.51802 0
M  V30 126 H 12.2837 0.706305 -0.632327 0
M  V30 127 H 11.9897 2.97757 -1.87173 0
M  V30 128 H 11.8637 3.75957 -0.305915 0
M  V30 129 H 14.2507 2.94014 0.252913 0
M  V30 130 H 14.3317 2.17782 -1.34181 0
M  V30 131 H 13.9757 4.46164 -2.42693 0
M  V30 132 H 13.9057 5.20353 -0.808754 0
M  V30 133 H 16.3967 3.65083 -0.975855 0
M  V30 134 H 16.7097 7.27994 -2.59314 0
M  V30 135 H 15.0547 6.54938 -2.32553 0
M  V30 136 H 18.2457 4.49975 -1.28998 0
M  V30 137 H 18.4187 6.15472 -2.02726 0
M  V30 138 N 11.8248 0.280983 1.55075 0
M  V30 139 C 13.2358 -0.215629 1.85451 0
M  V30 140 C 13.5868 -1.54991 1.203 0
M  V30 141 O 12.7118 -2.10699 0.493435 0
M  V30 142 C 13.3068 -0.398026 3.36454 0
M  V30 143 C 11.8658 -0.838866 3.66933 0
M  V30 144 C 11.0128 0.064458 2.77225 0
M  V30 145 H 13.9638 0.502601 1.50531 0
M  V30 146 H 13.9848 -1.23569 3.59876 0
M  V30 147 H 13.4968 0.573241 3.83843 0
M  V30 148 H 11.5978 -1.8214 3.25048 0
M  V30 149 H 11.7108 -0.672123 4.74362 0
M  V30 150 H 10.0748 -0.452863 2.50642 0
M  V30 151 H 10.8578 1.03172 3.2743 0
M  V30 152 N 13.3029 -1.57598 0.00835791 0
M  V30 153 C 14.7139 -1.7892 -0.53333 0
M  V30 154 C 15.0649 -0.916609 -1.73473 0
M  V30 155 O 14.1899 -0.121336 -2.1606 0
M  V30 156 C 14.7849 -3.24488 -0.974313 0
M  V30 157 C 13.3439 -3.46878 -1.46125 0
M  V30 158 C 12.4909 -2.74157 -0.416302 0
M  V30 159 H 15.4419 -1.56958 0.234495 0
M  V30 160 H 15.4629 -3.3306 -1.83988 0
M  V30 161 H 14.9749 -3.87972 -0.099718 0
M  V30 162 H 13.0759 -2.8862 -2.35646 0
M  V30 163 H 13.1889 -4.55572 -1.48295 0
M  V30 164 H 11.5529 -2.39022 -0.87981 0
M  V30 165 H 12.3359 -3.40345 0.44947 0
M  V30 166 N 14.781 0.264519 -1.55364 0
M  V30 167 C 16.027 0.99646 -1.76631 0
M  V30 168 C 16.36 1.85632 -0.570478 0
M  V30 169 O 15.635 1.89647 0.43175 0
M  V30 170 C 15.918 1.87187 -3.07625 0
M  V30 171 C 15.771 1.04138 -4.37579 0
M  V30 172 C 17.09 2.85749 -3.34717 0
M  V30 173 H 14.209 0.360841 -0.642622 0
M  V30 174 H 16.851 0.268218 -1.88097 0
M  V30 175 H 15.001 2.49279 -2.9798 0
M  V30 176 H 16.673 0.440517 -4.59192 0
M  V30 177 H 14.916 0.345115 -4.32425 0
M  V30 178 H 15.587 1.68729 -5.2558 0
M  V30 179 H 18.063 2.33793 -3.4421 0
M  V30 180 H 16.939 3.44136 -4.27623 0
M  V30 181 H 17.2 3.61311 -2.54768 0
M  V30 182 N 16.2591 1.48442 0.529413 0
M  V30 183 C 17.1691 1.6569 1.66084 0
M  V30 184 C 18.1851 0.539432 1.65427 0
M  V30 185 O 19.3611 0.810572 1.84368 0
M  V30 186 C 16.4261 1.69315 3.02545 0
M  V30 187 C 15.4871 2.92694 3.14052 0
M  V30 188 C 14.7201 2.96137 4.44003 0
M  V30 189 O 14.9431 2.07973 5.31134 0
M  V30 190 O 13.8771 3.88312 4.59888 0
M  V30 191 H 17.7031 2.61483 1.54469 0
M  V30 192 H 15.2881 1.3185 0.702567 0
M  V30 193 H 17.1701 1.74217 3.83701 0
M  V30 194 H 15.8451 0.766966 3.14483 0
M  V30 195 H 14.7521 2.93324 2.32189 0
M  V30 196 H 16.0851 3.84699 3.0703 0
M  V30 197 N 17.7372 -0.778329 1.37039 0
M  V30 198 C 19.1482 -1.35421 1.28523 0
M  V30 199 C 19.4992 -1.96075 -0.0700901 0
M  V30 200 O 18.6242 -1.93352 -0.971801 0
M  V30 201 C 19.2192 -2.46211 2.32735 0
M  V30 202 C 17.7782 -2.99585 2.27873 0
M  V30 203 C 16.9252 -1.72748 2.16918 0
M  V30 204 H 19.8762 -0.5791 1.47757 0
M  V30 205 H 19.8972 -3.2552 1.9702 0
M  V30 206 H 19.4092 -2.02036 3.31365 0
M  V30 207 H 17.5102 -3.48152 1.32745 0
M  V30 208 H 17.6232 -3.55646 3.21018 0
M  V30 209 H 15.9872 -1.95416 1.63354 0
M  V30 210 H 16.7702 -1.30686 3.17452 0
M  V30 211 N 19.2153 -1.21501 -1.00376 0
M  V30 212 C 20.6263 -1.03146 -1.55621 0
M  V30 213 C 20.9773 0.408375 -1.91903 0
M  V30 214 O 20.1023 1.29177 -1.73616 0
M  V30 215 C 20.6973 -1.86612 -2.82775 0
M  V30 216 C 19.2563 -1.72586 -3.34501 0
M  V30 217 C 18.4033 -1.83747 -2.07683 0
M  V30 218 H 21.3543 -1.35505 -0.826081 0
M  V30 219 H 21.3753 -1.3771 -3.54706 0
M  V30 220 H 20.8873 -2.91399 -2.56336 0
M  V30 221 H 18.9883 -0.704877 -3.65872 0
M  V30 222 H 19.1013 -2.54623 -4.05837 0
M  V30 223 H 17.4653 -1.27069 -2.20739 0
M  V30 224 H 18.2483 -2.90044 -1.83655 0
M  V30 225 N 20.6934 1.19889 -1.02296 0
M  V30 226 C 22.1044 1.71124 -0.746568 0
M  V30 227 C 22.4554 1.81939 0.734335 0
M  V30 228 O 21.5804 1.48639 1.57275 0
M  V30 229 C 22.1754 3.10804 -1.34857 0
M  V30 230 C 20.7344 3.59323 -1.1209 0
M  V30 231 C 19.8814 2.3635 -1.45031 0
M  V30 232 H 22.8324 1.04813 -1.19163 0
M  V30 233 H 22.8534 3.73186 -0.742437 0
M  V30 234 H 22.3654 3.029 -2.42638 0
M  V30 235 H 20.4664 3.7255 -0.0610337 0
M  V30 236 H 20.5794 4.4378 -1.80544 0
M  V30 237 H 18.9434 2.39399 -0.869487 0
M  V30 238 H 19.7264 2.31081 -2.53883 0
M  V30 239 N 22.1715 0.800033 1.35784 0
M  V30 240 C 23.0815 0.207204 2.33683 0
M  V30 241 C 24.0975 -0.64631 1.61551 0
M  V30 242 O 25.2735 -0.559604 1.93469 0
M  V30 243 C 22.3385 -0.639659 3.40748 0
M  V30 244 C 21.3995 0.233585 4.28664 0
M  V30 245 C 20.6325 -0.572954 5.30616 0
M  V30 246 O 20.8555 -1.80816 5.40982 0
M  V30 247 O 19.7895 0.0327285 6.01891 0
M  V30 248 H 23.6155 1.01692 2.86169 0
M  V30 249 H 21.2005 0.561691 1.38439 0
M  V30 250 H 23.0825 -1.12223 4.06182 0
M  V30 251 H 21.7575 -1.42708 2.90544 0
M  V30 252 H 20.6645 0.763147 3.66233 0
M  V30 253 H 21.9975 0.984784 4.82248 0
M  V30 254 N 23.6496 -1.47581 0.552962 0
M  V30 255 C 25.0606 -1.86324 0.118463 0
M  V30 256 C 25.4116 -1.46006 -1.3106 0
M  V30 257 O 24.5366 -0.861182 -1.98526 0
M  V30 258 C 25.1316 -3.3816 0.20821 0
M  V30 259 C 23.6906 -3.7601 -0.171226 0
M  V30 260 C 22.8376 -2.71634 0.557686 0
M  V30 261 H 25.7886 -1.39159 0.762928 0
M  V30 262 H 25.8096 -3.76141 -0.574278 0
M  V30 263 H 25.3216 -3.67473 1.24841 0
M  V30 264 H 23.4226 -3.52313 -1.21269 0
M  V30 265 H 23.5356 -4.78745 0.184379 0
M  V30 266 H 21.8996 -2.547 0.00125792 0
M  V30 267 H 22.6826 -3.0379 1.59896 0
M  V30 268 N 25.1277 -0.289203 -1.54924 0
M  V30 269 C 26.3557 0.326463 -2.04308 0
M  V30 270 C 26.7707 1.48413 -1.16701 0
M  V30 271 O 26.1277 1.81507 -0.190087 0
M  V30 272 C 26.1787 0.794014 -3.52672 0
M  V30 273 O 25.8997 -0.317564 -4.36948 0
M  V30 274 C 27.4007 1.47605 -4.18004 0
M  V30 275 H 24.6207 0.0726272 -0.667058 0
M  V30 276 H 27.1647 -0.425401 -2.00026 0
M  V30 277 H 25.3197 1.49593 -3.57352 0
M  V30 278 H 25.7337 0.0443186 -5.24481 0
M  V30 279 H 27.2077 1.75447 -5.23376 0
M  V30 280 H 27.6847 2.41224 -3.67025 0
M  V30 281 H 28.2907 0.81762 -4.17367 0
M  V30 282 N 26.6058 1.57591 -0.0167156 0
M  V30 283 C 27.5358 2.12496 0.967858 0
M  V30 284 C 28.5168 1.03807 1.34752 0
M  V30 285 O 29.7018 1.31577 1.42833 0
M  V30 286 C 26.8318 2.64194 2.25431 0
M  V30 287 C 25.7858 3.77559 2.01576 0
M  V30 288 C 25.1118 4.15636 3.36379 0
M  V30 289 C 26.4118 5.04151 1.36489 0
M  V30 290 H 28.1058 2.95013 0.510643 0
M  V30 291 H 25.6518 1.41915 0.244181 0
M  V30 292 H 27.6048 3.01236 2.94678 0
M  V30 293 H 26.3288 1.78821 2.73296 0
M  V30 294 H 24.9878 3.40937 1.34751 0
M  V30 295 H 24.6358 3.27263 3.81979 0
M  V30 296 H 24.3358 4.92022 3.21229 0
M  V30 297 H 25.8598 4.5525 4.06915 0
M  V30 298 H 27.2738 5.38857 1.95718 0
M  V30 299 H 25.6708 5.85453 1.31776 0
M  V30 300 H 26.7408 4.83733 0.336219 0
M  V30 301 N 28.0839 -0.256276 1.55502 0
M  V30 302 C 29.0139 -1.32102 1.92539 0
M  V30 303 C 29.9949 -1.50684 0.789194 0
M  V30 304 O 31.1799 -1.63449 1.04872 0
M  V30 305 C 28.3099 -2.67752 2.21192 0
M  V30 306 C 27.2639 -2.63878 3.36975 0
M  V30 307 C 26.5899 -4.03236 3.51147 0
M  V30 308 C 27.8899 -2.21682 4.72921 0
M  V30 309 H 29.5839 -1.01351 2.81724 0
M  V30 310 H 27.1299 -0.486105 1.35547 0
M  V30 311 H 29.0829 -3.42365 2.45691 0
M  V30 312 H 27.8069 -3.0012 1.28824 0
M  V30 313 H 26.4659 -1.91722 3.12471 0
M  V30 314 H 26.1139 -4.32854 2.56216 0
M  V30 315 H 25.8139 -4.01535 4.29003 0
M  V30 316 H 27.3379 -4.79563 3.77957 0
M  V30 317 H 28.7519 -2.86023 4.96854 0
M  V30 318 H 27.1489 -2.3111 5.53812 0
M  V30 319 H 28.2189 -1.16833 4.70615 0
M  V30 320 N 29.562 -1.4872 -0.521534 0
M  V30 321 C 30.525 -1.63379 -1.60748 0
M  V30 322 C 31.525 -0.50661 -1.52611 0
M  V30 323 O 32.715 -0.772601 -1.5613 0
M  V30 324 C 29.847 -1.61192 -3.00383 0
M  V30 325 H 31.04 -2.60217 -1.49087 0
M  V30 326 H 28.593 -1.37444 -0.744235 0
M  V30 327 H 29.328 -0.65863 -3.17541 0
M  V30 328 H 29.113 -2.43032 -3.07698 0
M  V30 329 H 30.603 -1.7466 -3.7932 0
M  V30 330 N 31.0401 0.771051 -1.3745 0
M  V30 331 C 31.9701 1.89827 -1.3597 0
M  V30 332 C 32.9511 1.68562 -0.228216 0
M  V30 333 O 34.1361 1.8941 -0.428675 0
M  V30 334 C 31.2661 3.2712 -1.16662 0
M  V30 335 C 30.2201 3.6295 -2.2683 0
M  V30 336 C 29.5461 4.98791 -1.92644 0
M  V30 337 C 30.8461 3.69627 -3.69017 0
M  V30 338 H 32.5401 1.91323 -2.30295 0
M  V30 339 H 30.0861 0.919082 -1.10855 0
M  V30 340 H 32.0391 4.05615 -1.14256 0
M  V30 341 H 30.7631 3.26059 -0.187926 0
M  V30 342 H 29.4221 2.86763 -2.28392 0
M  V30 343 H 29.0701 4.94271 -0.933021 0
M  V30 344 H 28.7701 5.23733 -2.66416 0
M  V30 345 H 30.2941 5.79685 -1.91826 0
M  V30 346 H 31.7081 4.38273 -3.69581 0
M  V30 347 H 30.1051 4.06067 -4.41848 0
M  V30 348 H 31.1751 2.70273 -4.02592 0
M  V30 349 N 32.5182 1.22032 0.997298 0
M  V30 350 C 33.4502 0.944263 2.08845 0
M  V30 351 C 34.4632 -0.0754663 1.62625 0
M  V30 352 O 35.6522 0.157994 1.77799 0
M  V30 353 C 32.7522 0.397723 3.36558 0
M  V30 354 C 31.9252 1.47362 4.11829 0
M  V30 355 C 30.9842 0.934951 5.17827 0
M  V30 356 O 30.0102 1.62016 5.45655 0
M  V30 357 N 31.2122 -0.245895 5.79979 0
M  V30 358 H 33.9772 1.88363 2.33109 0
M  V30 359 H 31.5382 1.12661 1.16272 0
M  V30 360 H 33.5302 0.0227771 4.04694 0
M  V30 361 H 32.1002 -0.446646 3.09393 0
M  V30 362 H 31.3202 2.02208 3.38386 0
M  V30 363 H 32.6082 2.19764 4.58891 0
M  V30 364 H 32.0062 -0.819475 5.59733 0
M  V30 365 H 30.5632 -0.562272 6.4937 0
M  V30 366 N 33.9963 -1.19345 1.0293 0
M  V30 367 C 35.4123 -1.41069 0.746446 0
M  V30 368 C 35.6123 -1.90078 -0.668776 0
M  V30 369 O 34.6683 -2.0778 -1.4347 0
M  V30 370 C 35.9813 -2.42141 1.78292 0
M  V30 371 C 37.5293 -2.55887 1.80252 0
M  V30 372 C 38.0043 -3.60214 2.8286 0
M  V30 373 N 39.4953 -3.67711 2.81679 0
M  V30 374 C 40.2303 -4.48128 3.57727 0
M  V30 375 N 39.7263 -5.32248 4.43491 0
M  V30 376 N 41.5193 -4.42782 3.46267 0
M  V30 377 H 33.6703 -0.858536 1.94275 0
M  V30 378 H 35.9333 -0.439541 0.839945 0
M  V30 379 H 35.6393 -2.13155 2.79746 0
M  V30 380 H 35.5133 -3.41323 1.60557 0
M  V30 381 H 37.9003 -2.84196 0.794757 0
M  V30 382 H 37.9813 -1.56858 2.02062 0
M  V30 383 H 37.6253 -3.32647 3.83807 0
M  V30 384 H 37.5553 -4.58895 2.58307 0
M  V30 385 H 40.0463 -3.07634 2.19476 0
M  V30 386 H 40.3593 -5.90729 4.98256 0
M  V30 387 H 38.7043 -5.31707 4.47564 0
M  V30 388 H 41.8953 -3.76107 2.78677 0
M  V30 389 H 42.0683 -5.05215 4.05785 0
M  V30 390 N 35.4744 -0.807222 -1.35358 0
M  V30 391 C 36.8854 -0.44876 -1.81226 0
M  V30 392 C 37.2364 1.02929 -1.67033 0
M  V30 393 O 36.3614 1.79991 -1.20133 0
M  V30 394 C 36.9564 -0.807774 -3.2903 0
M  V30 395 C 35.5154 -0.501901 -3.73039 0
M  V30 396 C 34.6624 -1.03304 -2.57339 0
M  V30 397 H 37.6134 -0.998808 -1.23327 0
M  V30 398 H 37.6344 -0.10554 -3.80354 0
M  V30 399 H 37.1464 -1.88357 -3.39328 0
M  V30 400 H 35.2474 0.565128 -3.68289 0
M  V30 401 H 35.3604 -1.03497 -4.67787 0
M  V30 402 H 33.7244 -0.455339 -2.50597 0
M  V30 403 H 34.5074 -2.11496 -2.70415 0
M  V30 404 N 36.9525 1.47285 -0.560781 0
M  V30 405 C 37.8845 2.28118 0.222438 0
M  V30 406 C 38.8975 1.37219 0.876056 0
M  V30 407 O 40.0865 1.62011 0.749307 0
M  V30 408 C 37.1865 3.1159 1.33285 0
M  V30 409 C 36.3595 4.30473 0.77534 0
M  V30 410 C 35.4185 4.95513 1.77069 0
M  V30 411 O 34.4445 5.53792 1.31539 0
M  V30 412 N 35.6465 4.90531 3.10418 0
M  V30 413 H 38.4115 2.95976 -0.470958 0
M  V30 414 H 35.9725 1.56955 -0.39709 0
M  V30 415 H 37.9645 3.51967 1.99752 0
M  V30 416 H 36.5345 2.45951 1.92943 0
M  V30 417 H 35.7545 3.94144 -0.0662113 0
M  V30 418 H 37.0425 5.07362 0.382272 0
M  V30 419 H 36.4405 4.44389 3.5005 0
M  V30 420 H 34.9975 5.34917 3.72434 0
M  V30 421 N 38.4306 0.297415 1.54768 0
M  V30 422 C 39.8466 -0.0560823 1.59501 0
M  V30 423 C 40.0466 -1.52725 1.31444 0
M  V30 424 O 39.1026 -2.27947 1.08611 0
M  V30 425 C 40.4156 0.338631 2.98787 0
M  V30 426 C 41.9636 0.287097 3.11681 0
M  V30 427 C 42.4386 0.656579 4.53269 0
M  V30 428 N 43.9296 0.608977 4.59179 0
M  V30 429 C 44.6646 0.867385 5.66802 0
M  V30 430 N 44.1606 1.19157 6.82476 0
M  V30 431 N 45.9536 0.794687 5.56454 0
M  V30 432 H 38.1046 1.25624 1.71267 0
M  V30 433 H 40.3676 0.509057 0.799728 0
M  V30 434 H 40.0736 1.36263 3.2423 0
M  V30 435 H 39.9476 -0.309508 3.75928 0
M  V30 436 H 42.3346 -0.727649 2.85988 0
M  V30 437 H 42.4156 0.969809 2.36703 0
M  V30 438 H 42.0596 1.66912 4.7969 0
M  V30 439 H 41.9896 -0.0481649 5.26578 0
M  V30 440 H 44.4806 0.369198 3.76092 0
M  V30 441 H 44.7936 1.37482 7.60473 0
M  V30 442 H 43.1386 1.22958 6.84037 0
M  V30 443 H 46.3296 0.541098 4.64962 0
M  V30 444 H 46.5026 0.999445 6.40246 0
M  V30 445 N 39.9087 -1.5758 0.0250728 0
M  V30 446 C 40.8387 -2.13007 -0.956575 0
M  V30 447 C 41.8197 -1.0452 -1.342 0
M  V30 448 O 43.0047 -1.32332 -1.42133 0
M  V30 449 C 40.1347 -2.65386 -2.24026 0
M  V30 450 C 39.0887 -3.78623 -1.99571 0
M  V30 451 C 38.4147 -4.17414 -3.3417 0
M  V30 452 C 39.7147 -5.04867 -1.33814 0
M  V30 453 H 41.4087 -2.9528 -0.494991 0
M  V30 454 H 38.9547 -1.42042 -0.236651 0
M  V30 455 H 40.9077 -3.02794 -2.93076 0
M  V30 456 H 39.6317 -1.80268 -2.72343 0
M  V30 457 H 38.2907 -3.41646 -1.32941 0
M  V30 458 H 37.9387 -3.29284 -3.80238 0
M  V30 459 H 37.6387 -4.93719 -3.18615 0
M  V30 460 H 39.1627 -4.57402 -4.04495 0
M  V30 461 H 40.5767 -5.39888 -1.92857 0
M  V30 462 H 38.9737 -5.86144 -1.28669 0
M  V30 463 H 40.0437 -4.83904 -0.310561 0
M  V30 464 N 41.3868 0.248026 -1.55636 0
M  V30 465 C 42.3368 1.30994 -1.86614 0
M  V30 466 C 43.3208 1.43543 -0.726918 0
M  V30 467 O 44.5128 1.46804 -0.988818 0
M  V30 468 C 41.6418 2.6656 -2.16335 0
M  V30 469 C 40.7278 2.58019 -3.36581 0
M  V30 470 N 41.1188 2.1911 -4.55878 0
M  V30 471 C 39.4168 2.89035 -3.39669 0
M  V30 472 C 40.1178 2.21174 -5.38012 0
M  V30 473 N 39.0938 2.60632 -4.77045 0
M  V30 474 H 42.8958 0.999583 -2.76379 0
M  V30 475 H 40.4098 0.456652 -1.55848 0
M  V30 476 H 42.4068 3.43194 -2.36692 0
M  V30 477 H 41.0668 2.98463 -1.27867 0
M  V30 478 H 42.0778 1.90672 -4.81523 0
M  V30 479 H 38.7548 3.25485 -2.61469 0
M  V30 480 H 40.1448 1.9344 -6.43452 0
M  V30 481 N 42.8649 1.48995 0.513639 0
M  V30 482 C 43.8149 1.61127 1.61314 0
M  V30 483 C 44.7989 0.467521 1.53958 0
M  V30 484 O 45.9909 0.719826 1.61702 0
M  V30 485 C 43.1199 1.66937 2.99978 0
M  V30 486 C 42.2059 2.86847 3.12377 0
M  V30 487 N 42.5969 4.11078 2.94701 0
M  V30 488 C 40.8949 2.84521 3.43459 0
M  V30 489 C 41.5959 4.91615 3.10949 0
M  V30 490 N 40.5719 4.24739 3.3926 0
M  V30 491 H 44.3739 2.54909 1.46282 0
M  V30 492 H 41.8879 1.45593 0.719483 0
M  V30 493 H 43.8849 1.73725 3.78979 0
M  V30 494 H 42.5449 0.742831 3.16089 0
M  V30 495 H 43.5559 4.41258 2.71131 0
M  V30 496 H 40.2329 2.01192 3.65825 0
M  V30 497 H 41.6229 6.00264 3.01882 0
M  V30 498 N 44.343 -0.763751 1.37857 0
M  V30 499 C 45.293 -1.86765 1.30777 0
M  V30 500 C 46.277 -1.59726 0.194015 0
M  V30 501 O 47.469 -1.7172 0.42911 0
M  V30 502 C 44.598 -3.24343 1.12502 0
M  V30 503 C 43.684 -3.57307 2.28456 0
M  V30 504 N 44.075 -3.61398 3.53871 0
M  V30 505 C 42.373 -3.87517 2.20786 0
M  V30 506 C 43.074 -3.91339 4.30382 0
M  V30 507 N 42.05 -4.07649 3.59615 0
M  V30 508 H 45.852 -1.88191 2.25746 0
M  V30 509 H 43.366 -0.9606 1.30944 0
M  V30 510 H 45.363 -4.03327 1.05514 0
M  V30 511 H 44.023 -3.24175 0.184574 0
M  V30 512 H 45.034 -3.43407 3.87675 0
M  V30 513 H 41.711 -3.95125 1.34844 0
M  V30 514 H 43.101 -4.01213 5.3896 0
M  V30 515 N 45.8211 -1.22559 -0.990812 0
M  V30 516 C 46.7511 -1.0218 -2.09956 0
M  V30 517 C 47.7321 0.0579394 -1.70001 0
M  V30 518 O 48.9171 -0.104684 -1.93918 0
M  V30 519 C 46.0471 -0.601023 -3.4206 0
M  V30 520 C 45.0011 -1.62694 -3.95872 0
M  V30 521 C 44.3271 -1.06193 -5.24049 0
M  V30 522 C 45.6271 -3.01743 -4.2632 0
M  V30 523 H 47.3211 -1.94916 -2.27262 0
M  V30 524 H 44.8671 -0.938566 -1.09211 0
M  V30 525 H 46.8201 -0.445561 -4.19038 0
M  V30 526 H 45.5441 0.362005 -3.24588 0
M  V30 527 H 44.2031 -1.77021 -3.21028 0
M  V30 528 H 43.8511 -0.0901903 -5.02919 0
M  V30 529 H 43.5511 -1.74732 -5.61019 0
M  V30 530 H 45.0751 -0.918092 -6.03658 0
M  V30 531 H 46.4891 -2.90777 -4.94087 0
M  V30 532 H 44.8861 -3.67425 -4.74467 0
M  V30 533 H 45.9561 -3.51518 -3.34011 0
M  V30 534 N 47.2992 1.18797 -1.03562 0
M  V30 535 C 48.5462 1.8865 -0.736023 0
M  V30 536 C 48.8742 1.80041 0.735889 0
M  V30 537 O 48.1292 1.19179 1.55225 0
M  V30 538 C 48.4282 3.38692 -1.14117 0
M  V30 539 C 48.0942 3.67504 -2.6125 0
M  V30 540 C 46.7562 3.75078 -3.01447 0
M  V30 541 C 49.1082 3.80293 -3.56408 0
M  V30 542 C 46.4362 3.92915 -4.35701 0
M  V30 543 C 48.7882 3.99645 -4.90374 0
M  V30 544 C 47.4522 4.05453 -5.30249 0
M  V30 545 H 46.7222 0.690321 -0.26933 0
M  V30 546 H 49.3692 1.40641 -1.29971 0
M  V30 547 H 47.6742 3.88645 -0.496202 0
M  V30 548 H 49.3712 3.91072 -0.886789 0
M  V30 549 H 45.9612 3.62223 -2.29113 0
M  V30 550 H 50.1452 3.73779 -3.26501 0
M  V30 551 H 45.4012 3.95653 -4.66121 0
M  V30 552 H 49.5752 4.08482 -5.64017 0
M  V30 553 H 47.2022 4.19027 -6.34288 0
M  V30 554 N 48.7773 0.814389 1.34928 0
M  V30 555 C 49.7073 0.244827 2.32213 0
M  V30 556 C 50.6883 -0.634024 1.57842 0
M  V30 557 O 51.8733 -0.562676 1.8587 0
M  V30 558 C 49.0033 -0.601106 3.42058 0
M  V30 559 C 47.9573 0.179896 4.27622 0
M  V30 560 C 47.2833 -0.788237 5.28858 0
M  V30 561 C 48.5833 1.38329 5.03649 0
M  V30 562 H 50.2773 1.05763 2.80097 0
M  V30 563 H 47.8233 0.510029 1.34665 0
M  V30 564 H 49.7763 -1.00968 4.09125 0
M  V30 565 H 48.5003 -1.44688 2.92802 0
M  V30 566 H 47.1593 0.569739 3.62146 0
M  V30 567 H 46.8073 -1.62973 4.75866 0
M  V30 568 H 46.5073 -0.269942 5.8698 0
M  V30 569 H 48.0313 -1.19485 5.98795 0
M  V30 570 H 49.4453 1.04918 5.63618 0
M  V30 571 H 47.8423 1.83662 5.71304 0
M  V30 572 H 48.9123 2.16592 4.33839 0
M  V30 573 N 50.2554 -1.46986 0.568584 0
M  V30 574 C 51.2184 -2.28624 -0.162366 0
M  V30 575 C 52.2184 -1.37596 -0.832103 0
M  V30 576 O 53.4084 -1.60115 -0.68622 0
M  V30 577 C 50.5404 -3.17596 -1.23878 0
M  V30 578 H 51.7334 -2.94722 0.554899 0
M  V30 579 H 49.2864 -1.52863 0.325976 0
M  V30 580 H 50.0214 -2.56214 -1.98808 0
M  V30 581 H 49.8064 -3.846 -0.763219 0
M  V30 582 H 51.2964 -3.79078 -1.75185 0
M  V30 583 N 51.7335 -0.305618 -1.54608 0
M  V30 584 C 52.9815 0.301701 -1.99835 0
M  V30 585 C 53.3025 1.54054 -1.19551 0
M  V30 586 O 52.5725 1.93702 -0.292658 0
M  V30 587 H 51.1525 0.114468 -0.738178 0
M  V30 588 H 53.8145 -0.418016 -1.90364 0
M  V30 589 H 52.9105 0.570548 -3.06841 0
M  V30 590 N 53.2116 1.57565 -0.0334293 0
M  V30 591 C 54.1416 2.13511 0.945265 0
M  V30 592 C 55.1226 1.05231 1.33643 0
M  V30 593 O 56.3076 1.33084 1.41429 0
M  V30 594 C 53.4376 2.6657 2.22616 0
M  V30 595 C 52.3916 3.79676 1.97561 0
M  V30 596 C 51.7176 4.1918 3.31952 0
M  V30 597 C 53.0176 5.0557 1.31135 0
M  V30 598 H 54.7116 2.95538 0.479325 0
M  V30 599 H 52.2576 1.42166 0.229115 0
M  V30 600 H 54.2106 3.04344 2.91466 0
M  V30 601 H 52.9346 1.8171 2.71384 0
M  V30 602 H 51.5936 3.42347 1.31127 0
M  V30 603 H 51.2416 3.31296 3.78487 0
M  V30 604 H 50.9416 4.95402 3.15992 0
M  V30 605 H 52.4656 4.59541 4.02063 0
M  V30 606 H 53.8796 5.40903 1.89992 0
M  V30 607 H 52.2766 5.86818 1.25559 0
M  V30 608 H 53.3466 4.84062 0.284894 0
M  V30 609 N 54.6897 -0.239769 1.55765 0
M  V30 610 C 55.6217 -1.32001 1.87372 0
M  V30 611 C 56.6347 -1.43944 0.760522 0
M  V30 612 O 57.8237 -1.45167 1.0387 0
M  V30 613 C 54.9237 -2.69779 2.05115 0
M  V30 614 C 54.0967 -2.80014 3.36022 0
M  V30 615 C 53.1557 -3.98684 3.4342 0
M  V30 616 O 52.1817 -3.87877 4.16582 0
M  V30 617 N 53.3837 -5.12176 2.73232 0
M  V30 618 H 56.1487 -1.0522 2.80622 0
M  V30 619 H 53.7097 -0.429857 1.56089 0
M  V30 620 H 55.7017 -3.47517 2.07399 0
M  V30 621 H 54.2717 -2.89237 1.18577 0
M  V30 622 H 53.4917 -1.88896 3.45994 0
M  V30 623 H 54.7797 -2.83808 4.22292 0
M  V30 624 H 54.1777 -5.2385 2.13536 0
M  V30 625 H 52.7347 -5.88022 2.81199 0
M  V30 626 N 56.1678 -1.49265 -0.50573 0
M  V30 627 C 57.0998 -1.617 -1.62437 0
M  V30 628 C 58.1128 -0.499924 -1.54934 0
M  V30 629 O 59.3018 -0.771785 -1.60953 0
M  V30 630 C 56.4018 -1.5533 -3.01207 0
M  V30 631 C 55.5748 -2.8249 -3.33943 0
M  V30 632 C 54.6338 -2.69238 -4.52103 0
M  V30 633 O 53.6598 -3.43167 -4.5412 0
M  V30 634 N 54.8618 -1.80468 -5.51735 0
M  V30 635 H 57.6268 -2.58177 -1.52199 0
M  V30 636 H 55.1878 -1.46294 -0.693511 0
M  V30 637 H 57.1798 -1.44125 -3.78167 0
M  V30 638 H 55.7498 -0.667297 -3.05395 0
M  V30 639 H 54.9698 -3.08081 -2.45926 0
M  V30 640 H 56.2578 -3.66802 -3.5261 0
M  V30 641 H 55.6558 -1.19653 -5.52901 0
M  V30 642 H 54.2128 -1.75188 -6.27816 0
M  V30 643 N 57.6459 0.756429 -1.3826 0
M  V30 644 C 58.5779 1.87971 -1.31147 0
M  V30 645 C 59.5909 1.61248 -0.224239 0
M  V30 646 O 60.7799 1.71881 -0.481581 0
M  V30 647 C 57.8799 3.23545 -1.00857 0
M  V30 648 C 57.0529 3.77794 -2.20432 0
M  V30 649 C 56.1119 4.91877 -1.86931 0
M  V30 650 O 55.1379 5.06659 -2.59395 0
M  V30 651 N 56.3399 5.74643 -0.822568 0
M  V30 652 H 59.1049 1.94585 -2.2794 0
M  V30 653 H 56.6659 0.936234 -1.32084 0
M  V30 654 H 58.6579 3.97403 -0.765021 0
M  V30 655 H 57.2279 3.12335 -0.128687 0
M  V30 656 H 56.4479 2.95534 -2.6087 0
M  V30 657 H 57.7359 4.10771 -3.00241 0
M  V30 658 H 57.1339 5.65266 -0.221575 0
M  V30 659 H 55.6909 6.48661 -0.638899 0
M  V30 660 N 59.124 1.23083 0.984299 0
M  V30 661 C 60.54 0.992637 1.24975 0
M  V30 662 C 60.74 -0.308618 1.99123 0
M  V30 663 O 59.796 -1.02905 2.30579 0
M  V30 664 C 61.109 2.19698 2.05312 0
M  V30 665 C 62.657 2.24147 2.18465 0
M  V30 666 C 63.132 3.44157 3.02192 0
M  V30 667 N 64.623 3.44372 3.09777 0
M  V30 668 C 65.358 4.33886 3.74874 0
M  V30 669 N 64.854 5.3363 4.41827 0
M  V30 670 N 66.647 4.21639 3.71721 0
M  V30 671 H 58.798 2.06731 0.487453 0
M  V30 672 H 61.061 0.906339 0.277944 0
M  V30 673 H 60.767 3.1411 1.58201 0
M  V30 674 H 60.641 2.20465 3.06064 0
M  V30 675 H 63.028 1.30277 2.64786 0
M  V30 676 H 63.109 2.27415 1.17115 0
M  V30 677 H 62.753 4.38332 2.56568 0
M  V30 678 H 62.683 3.3813 4.03702 0
M  V30 679 H 65.174 2.72201 2.62135 0
M  V30 680 H 65.487 5.98196 4.89266 0
M  V30 681 H 63.832 5.37534 4.40548 0
M  V30 682 H 67.023 3.42962 3.18582 0
M  V30 683 H 67.196 4.91604 4.22173 0
M  V30 684 N 60.6021 -1.18246 1.0419 0
M  V30 685 C 61.8271 -1.92736 0.765996 0
M  V30 686 C 62.2521 -1.75728 -0.67091 0
M  V30 687 O 61.6101 -1.06825 -1.46486 0
M  V30 688 C 61.6581 -3.42148 1.13875 0
M  V30 689 O 60.7621 -4.11548 0.264954 0
M  V30 690 H 60.1031 -0.601238 0.281797 0
M  V30 691 H 62.6331 -1.49942 1.39207 0
M  V30 692 H 62.6431 -3.92858 1.1012 0
M  V30 693 H 61.3181 -3.53848 2.18551 0
M  V30 694 H 59.8951 -3.71137 0.362226 0
M  V30 695 N 62.0802 -0.821533 -1.34494 0
M  V30 696 C 63.3262 -0.409552 -1.98622 0
M  V30 697 C 63.6592 1.0244 -1.64984 0
M  V30 698 O 62.9342 1.71325 -0.920758 0
M  V30 699 C 63.2172 -0.610458 -3.54888 0
M  V30 700 C 63.0702 -2.09043 -3.98273 0
M  V30 701 C 64.3892 -0.0455379 -4.40076 0
M  V30 702 H 61.5082 -0.15028 -0.721516 0
M  V30 703 H 64.1502 -1.03384 -1.59411 0
M  V30 704 H 62.3002 -0.079044 -3.8842 0
M  V30 705 H 63.9722 -2.68537 -3.75081 0
M  V30 706 H 62.2152 -2.58139 -3.48635 0
M  V30 707 H 62.8862 -2.18182 -5.07051 0
M  V30 708 H 65.3622 -0.499557 -4.1309 0
M  V30 709 H 64.2382 -0.215922 -5.48475 0
M  V30 710 H 64.4992 1.04939 -4.29465 0
M  V30 711 N 63.5583 1.46682 -0.576371 0
M  V30 712 C 64.4683 2.34032 0.163141 0
M  V30 713 C 65.4843 1.49367 0.892501 0
M  V30 714 O 66.6603 1.82252 0.857106 0
M  V30 715 C 63.7253 3.26435 1.16795 0
M  V30 716 C 62.7863 4.26998 0.443944 0
M  V30 717 C 62.0193 5.14986 1.40088 0
M  V30 718 O 62.2423 5.05785 2.637 0
M  V30 719 O 61.1763 5.94906 0.914917 0
M  V30 720 H 65.0023 2.98607 -0.55388 0
M  V30 721 H 62.5873 1.45554 -0.336821 0
M  V30 722 H 64.4693 3.83459 1.74748 0
M  V30 723 H 63.1443 2.64465 1.86655 0
M  V30 724 H 62.0513 3.7368 -0.177271 0
M  V30 725 H 63.3843 4.91736 -0.213566 0
M  V30 726 N 65.0364 0.313813 1.54444 0
M  V30 727 C 66.4474 -0.176243 1.85866 0
M  V30 728 C 66.7984 -1.52405 1.23561 0
M  V30 729 O 65.9234 -2.09605 0.538016 0
M  V30 730 C 66.5184 -0.32657 3.37222 0
M  V30 731 C 65.0774 -0.760846 3.6863 0
M  V30 732 C 64.2244 0.123247 2.77026 0
M  V30 733 H 67.1754 0.534418 1.49431 0
M  V30 734 H 67.1964 -1.15908 3.62416 0
M  V30 735 H 66.7084 0.654531 3.82541 0
M  V30 736 H 64.8094 -1.75204 3.28838 0
M  V30 737 H 64.9224 -0.571353 4.75681 0
M  V30 738 H 63.2864 -0.399597 2.51546 0
M  V30 739 H 64.0694 1.10094 3.25168 0
M  V30 740 N 66.5145 -1.57545 0.0417849 0
M  V30 741 C 67.4475 -2.06514 -0.970928 0
M  V30 742 C 68.4255 -0.963607 -1.30971 0
M  V30 743 O 69.6095 -1.23486 -1.4242 0
M  V30 744 C 66.7365 -2.4978 -2.28752 0
M  V30 745 C 65.7825 -3.71078 -2.10246 0
M  V30 746 S 66.6155 -5.17158 -1.38952 0
M  V30 747 C 67.7715 -5.6373 -2.71954 0
M  V30 748 H 68.0045 -2.9209 -0.554129 0
M  V30 749 H 65.5375 -1.53459 -0.17024 0
M  V30 750 H 67.4955 -2.75371 -3.04435 0
M  V30 751 H 66.1565 -1.64527 -2.67562 0
M  V30 752 H 65.3495 -3.9924 -3.07609 0
M  V30 753 H 64.9515 -3.45705 -1.42704 0
M  V30 754 H 67.2435 -5.68743 -3.68154 0
M  V30 755 H 68.1865 -6.63086 -2.4844 0
M  V30 756 H 68.5945 -4.91424 -2.77782 0
M  V30 757 N 67.9926 0.231505 -1.5589 0
M  V30 758 C 69.4086 0.580748 -1.48659 0
M  V30 759 C 69.6086 1.87617 -0.73498 0
M  V30 760 O 68.6646 2.51046 -0.270586 0
M  V30 761 C 69.9776 0.669202 -2.93159 0
M  V30 762 C 71.5256 0.760499 -3.03621 0
M  V30 763 C 72.0006 0.880383 -4.49459 0
M  V30 764 N 73.4916 0.944861 -4.53461 0
M  V30 765 C 74.2266 1.05716 -5.63571 0
M  V30 766 N 73.7226 1.13403 -6.83456 0
M  V30 767 N 75.5156 1.09152 -5.514 0
M  V30 768 H 67.6666 -0.618695 -2.03189 0
M  V30 769 H 69.9296 -0.215728 -0.923128 0
M  V30 770 H 69.6356 -0.212904 -3.51055 0
M  V30 771 H 69.5096 1.5361 -3.44505 0
M  V30 772 H 71.8966 1.63305 -2.45796 0
M  V30 773 H 71.9776 -0.131864 -2.5546 0
M  V30 774 H 71.6216 0.0123284 -5.07899 0
M  V30 775 H 71.5516 1.78802 -4.95316 0
M  V30 776 H 74.0426 0.896176 -3.6712 0
M  V30 777 H 74.3556 1.21921 -7.63122 0
M  V30 778 H 72.7006 1.10333 -6.86186 0
M  V30 779 H 75.8916 1.02805 -4.56671 0
M  V30 780 H 76.0646 1.17558 -6.37247 0
M  V30 781 N 69.4707 1.49531 0.497807 0
M  V30 782 C 70.4007 1.6935 1.60757 0
M  V30 783 C 71.3817 0.542218 1.61227 0
M  V30 784 O 72.5667 0.778417 1.77917 0
M  V30 785 C 69.6967 1.76298 2.99226 0
M  V30 786 C 68.6507 2.91248 3.13622 0
M  V30 787 C 67.9767 2.83312 4.53474 0
M  V30 788 C 69.2767 4.3214 2.93346 0
M  V30 789 H 70.9707 2.62263 1.44425 0
M  V30 790 H 68.5167 1.26208 0.693367 0
M  V30 791 H 70.4697 1.88749 3.76765 0
M  V30 792 H 69.1937 0.799871 3.16654 0
M  V30 793 H 67.8527 2.78404 2.38509 0
M  V30 794 H 67.5007 1.84902 4.67782 0
M  V30 795 H 67.2007 3.60465 4.64046 0
M  V30 796 H 68.7247 2.97775 5.33069 0
M  V30 797 H 70.1387 4.45649 3.60652 0
M  V30 798 H 68.5357 5.1054 3.15387 0
M  V30 799 H 69.6057 4.46363 1.89441 0
M  V30 800 N 70.9488 -0.749086 1.3866 0
M  V30 801 C 72.1738 -1.54344 1.38538 0
M  V30 802 C 72.5988 -1.88088 -0.0216655 0
M  V30 803 O 71.9568 -1.50899 -1.00494 0
M  V30 804 C 72.0048 -2.8164 2.25192 0
M  V30 805 O 71.1088 -3.7698 1.67212 0
M  V30 806 H 70.4498 -0.466654 0.472367 0
M  V30 807 H 72.9798 -0.925355 1.82478 0
M  V30 808 H 72.9898 -3.30519 2.3921 0
M  V30 809 H 71.6648 -2.56411 3.27454 0
M  V30 810 H 70.2418 -3.35699 1.6236 0
M  V30 811 N 72.4269 -1.23603 -0.977757 0
M  V30 812 C 73.3599 -0.962772 -2.06896 0
M  V30 813 C 74.3379 0.0998743 -1.62293 0
M  V30 814 O 75.5219 -0.0349421 -1.88468 0
M  V30 815 C 72.6489 -0.45095 -3.35685 0
M  V30 816 C 71.6949 -1.50061 -3.99229 0
M  V30 817 S 72.5279 -3.07884 -4.38142 0
M  V30 818 C 73.6839 -2.58378 -5.7008 0
M  V30 819 H 73.9169 -1.88677 -2.29757 0
M  V30 820 H 71.4499 -1.06876 -1.11431 0
M  V30 821 H 73.4079 -0.162261 -4.10179 0
M  V30 822 H 72.0689 0.452179 -3.10828 0
M  V30 823 H 71.2619 -1.09269 -4.92013 0
M  V30 824 H 70.8639 -1.73878 -3.31123 0
M  V30 825 H 73.1559 -2.00563 -6.47133 0
M  V30 826 H 74.0989 -3.49711 -6.15717 0
M  V30 827 H 74.5069 -1.99143 -5.28207 0
M  V30 828 N 73.905 1.17692 -1.04816 0
M  V30 829 C 75.182 1.83768 -0.669963 0
M  V30 830 C 75.562 1.93232 0.849986 0
M  V30 831 O 74.91 1.46397 1.75443 0
M  V30 832 C 75.12 3.21641 -1.35455 0
M  V30 833 C 76.468 3.97592 -1.49017 0
M  V30 834 O 77.492 3.31107 -1.31326 0
M  V30 835 O 76.351 5.16729 -1.77914 0
M  V30 836 H 73.445 0.792799 -0.235368 0
M  V30 837 H 75.991 1.25021 -1.14751 0
M  V30 838 H 74.763 3.097 -2.39168 0
M  V30 839 H 74.386 3.88052 -0.866107 0
M  V30 840 N 75.3831 0.828654 1.34056 0
M  V30 841 C 76.6111 0.43262 2.02326 0
M  V30 842 C 77.0261 -0.963147 1.62385 0
M  V30 843 O 76.3831 -1.62425 0.832121 0
M  V30 844 C 76.4341 0.53182 3.57567 0
M  V30 845 O 76.1551 1.87258 3.96063 0
M  V30 846 C 77.6561 0.131422 4.43105 0
M  V30 847 H 74.8761 0.172923 0.648335 0
M  V30 848 H 77.4201 1.1184 1.71208 0
M  V30 849 H 75.5751 -0.105938 3.87255 0
M  V30 850 H 75.9891 1.85087 4.90758 0
M  V30 851 H 77.4631 0.251904 5.51425 0
M  V30 852 H 77.9401 -0.925645 4.29335 0
M  V30 853 H 78.5461 0.743207 4.18756 0
M  V30 854 N 76.8612 -1.46375 0.584142 0
M  V30 855 C 78.2722 -1.86031 0.157959 0
M  V30 856 C 78.6232 -1.48753 -1.27933 0
M  V30 857 O 77.7482 -0.903098 -1.96655 0
M  V30 858 C 78.3432 -3.37642 0.279892 0
M  V30 859 C 76.9022 -3.76289 -0.09143 0
M  V30 860 C 76.0492 -2.7039 0.615178 0
M  V30 861 H 79.0002 -1.37509 0.792274 0
M  V30 862 H 79.0212 -3.77275 -0.494364 0
M  V30 863 H 78.5332 -3.64742 1.32607 0
M  V30 864 H 76.6342 -3.54806 -1.13769 0
M  V30 865 H 76.7472 -4.78246 0.285886 0
M  V30 866 H 75.1112 -2.5464 0.0552833 0
M  V30 867 H 75.8942 -3.0033 1.66303 0
M  V30 868 N 78.3393 -0.321999 -1.54275 0
M  V30 869 C 79.2723 0.58718 -2.20516 0
M  V30 870 C 80.2503 1.11693 -1.18167 0
M  V30 871 O 81.4343 1.18122 -1.46899 0
M  V30 872 C 78.5613 1.80554 -2.86562 0
M  V30 873 C 77.6073 1.40718 -4.02617 0
M  V30 874 S 78.4403 0.445218 -5.33646 0
M  V30 875 C 79.5963 1.6709 -6.03185 0
M  V30 876 H 79.8293 0.0244875 -2.9729 0
M  V30 877 H 77.3623 -0.106087 -1.54035 0
M  V30 878 H 79.3203 2.50462 -3.25237 0
M  V30 879 H 77.9813 2.33942 -2.09595 0
M  V30 880 H 77.1743 2.31501 -4.47687 0
M  V30 881 H 76.7763 0.78782 -3.65608 0
M  V30 882 H 79.0683 2.60856 -6.25268 0
M  V30 883 H 80.0113 1.26239 -6.96756 0
M  V30 884 H 80.4193 1.85716 -5.33076 0
M  V30 885 N 79.8174 1.5752 -0.0501392 0
M  V30 886 C 81.2284 1.80271 0.485705 0
M  V30 887 C 81.5794 0.96228 1.70981 0
M  V30 888 O 80.7044 0.178578 2.15662 0
M  V30 889 C 81.2994 3.26957 0.887938 0
M  V30 890 C 79.8584 3.5063 1.36877 0
M  V30 891 C 79.0054 2.75165 0.343468 0
M  V30 892 H 81.9564 1.56281 -0.276028 0
M  V30 893 H 81.9774 3.37821 1.75093 0
M  V30 894 H 81.4894 3.881 -0.0031809 0
M  V30 895 H 79.5904 2.94766 2.27911 0
M  V30 896 H 79.7034 4.59343 1.36164 0
M  V30 897 H 78.0674 2.4127 0.816128 0
M  V30 898 H 78.8504 3.39034 -0.539548 0
M  V30 899 N 81.2955 -0.223234 1.56011 0
M  V30 900 C 82.2055 -1.29766 1.95443 0
M  V30 901 C 83.2215 -1.51373 0.858028 0
M  V30 902 O 84.3975 -1.64536 1.16146 0
M  V30 903 C 81.4625 -2.62772 2.26167 0
M  V30 904 C 80.5235 -2.49482 3.49367 0
M  V30 905 C 79.7565 -3.76145 3.78616 0
M  V30 906 O 79.9795 -4.79087 3.09568 0
M  V30 907 O 78.9135 -3.73358 4.72109 0
M  V30 908 H 82.7395 -0.99309 2.87004 0
M  V30 909 H 80.3245 -0.425958 1.43199 0
M  V30 910 H 82.2065 -3.41327 2.47131 0
M  V30 911 H 80.8815 -2.92913 1.37781 0
M  V30 912 H 79.7885 -1.69133 3.33684 0
M  V30 913 H 81.1215 -2.2428 4.38131 0
M  V30 914 N 82.7736 -1.49793 -0.48987 0
M  V30 915 C 83.7036 -1.70201 -1.59856 0
M  V30 916 C 84.6846 -0.55076 -1.60937 0
M  V30 917 O 85.8696 -0.787841 -1.77501 0
M  V30 918 C 82.9996 -1.77882 -2.98287 0
M  V30 919 C 81.9536 -2.92907 -3.12073 0
M  V30 920 C 81.2796 -2.85712 -4.51965 0
M  V30 921 C 82.5796 -4.3369 -2.91051 0
M  V30 922 H 84.2736 -2.63025 -1.43032 0
M  V30 923 H 81.8196 -1.26574 -0.686664 0
M  V30 924 H 83.7726 -1.90744 -3.75759 0
M  V30 925 H 82.4966 -0.816653 -3.16225 0
M  V30 926 H 81.1556 -2.79665 -2.37029 0
M  V30 927 H 80.8036 -1.8738 -4.66795 0
M  V30 928 H 80.5036 -3.62921 -4.62128 0
M  V30 929 H 82.0276 -3.00598 -5.31482 0
M  V30 930 H 83.4416 -4.47555 -3.58284 0
M  V30 931 H 81.8386 -5.12205 -3.12675 0
M  V30 932 H 82.9086 -4.47362 -1.87071 0
M  V30 933 N 84.2517 0.741722 -1.39055 0
M  V30 934 C 85.1837 1.8657 -1.33133 0
M  V30 935 C 86.1967 1.61001 -0.241329 0
M  V30 936 O 87.3857 1.7136 -0.499784 0
M  V30 937 C 84.4857 3.22457 -1.04283 0
M  V30 938 C 83.6587 3.75435 -2.24427 0
M  V30 939 C 82.7177 4.89867 -1.92138 0
M  V30 940 O 81.7437 5.03879 -2.64754 0
M  V30 941 N 82.9457 5.73738 -0.88347 0
M  V30 942 H 85.7107 1.92156 -2.29991 0
M  V30 943 H 83.2717 0.922172 -1.3307 0
M  V30 944 H 85.2637 3.9657 -0.807128 0
M  V30 945 H 83.8337 3.12181 -0.161807 0
M  V30 946 H 83.0537 2.92751 -2.6399 0
M  V30 947 H 84.3417 4.07563 -3.04581 0
M  V30 948 H 83.7397 5.64999 -0.281517 0
M  V30 949 H 82.2967 6.47947 -0.707662 0
M  V30 950 N 85.7298 1.2412 0.971189 0
M  V30 951 C 86.9758 1.08041 1.71625 0
M  V30 952 C 87.3088 -0.380407 1.90438 0
M  V30 953 O 86.5838 -1.28127 1.46334 0
M  V30 954 C 86.8668 1.81682 3.10908 0
M  V30 955 C 86.7198 3.35493 2.99608 0
M  V30 956 C 88.0388 1.58671 4.10501 0
M  V30 957 H 85.1578 0.39388 0.622919 0
M  V30 958 H 87.7998 1.52743 1.13003 0
M  V30 959 H 85.9498 1.43684 3.60953 0
M  V30 960 H 87.6218 3.83068 2.57015 0
M  V30 961 H 85.8648 3.64052 2.35899 0
M  V30 962 H 86.5358 3.82217 3.98264 0
M  V30 963 H 89.0118 1.91719 3.69301 0
M  V30 964 H 87.8878 2.1266 5.06031 0
M  V30 965 H 88.1488 0.524161 4.38982 0
M  V30 966 N 87.2079 -1.17134 1.05439 0
M  V30 967 C 88.4559 -1.87085 0.764429 0
M  V30 968 C 88.7769 -1.81584 -0.710787 0
M  V30 969 O 88.0469 -1.24349 -1.51374 0
M  V30 970 H 86.6269 -0.692627 0.279779 0
M  V30 971 H 89.2889 -1.42087 1.33406 0
M  V30 972 H 88.3849 -2.92759 1.0816 0
M  V30 973 N 88.686 -0.835752 -1.33615 0
M  V30 974 C 90.097 -0.487099 -1.80234 0
M  V30 975 C 90.448 0.993627 -1.69179 0
M  V30 976 O 89.573 1.77403 -1.23924 0
M  V30 977 C 90.168 -0.877385 -3.27242 0
M  V30 978 C 88.727 -0.580915 -3.7189 0
M  V30 979 C 87.874 -1.0874 -2.5509 0
M  V30 980 H 90.825 -1.02474 -1.2118 0
M  V30 981 H 90.846 -0.186195 -3.80044 0
M  V30 982 H 90.358 -1.95512 -3.35256 0
M  V30 983 H 88.459 0.486881 -3.69405 0
M  V30 984 H 88.572 -1.13396 -4.65487 0
M  V30 985 H 86.936 -0.508392 -2.49575 0
M  V30 986 H 87.719 -2.17184 -2.65868 0
M  V30 987 N 90.1641 1.46063 -0.591896 0
M  V30 988 C 91.0961 2.28539 0.174001 0
M  V30 989 C 92.1091 1.39047 0.846753 0
M  V30 990 O 93.2981 1.63564 0.714774 0
M  V30 991 C 90.3981 3.14347 1.26645 0
M  V30 992 C 89.5711 4.32021 0.683856 0
M  V30 993 C 88.6301 4.99157 1.66518 0
M  V30 994 O 87.6561 5.56458 1.19763 0
M  V30 995 N 88.8581 4.97005 2.99943 0
M  V30 996 H 91.6231 2.94911 -0.533633 0
M  V30 997 H 89.1841 1.56077 -0.430294 0
M  V30 998 H 91.1761 3.56125 1.92242 0
M  V30 999 H 89.7461 2.49988 1.87682 0
M  V30 1000 H 88.9661 3.93915 -0.1498 0
M  V30 1001 H 90.2541 5.08059 0.274567 0
M  V30 1002 H 89.6521 4.51714 3.40545 0
M  V30 1003 H 88.2091 5.42696 3.61004 0
M  V30 1004 N 91.6422 0.330177 1.54103 0
M  V30 1005 C 92.5522 -0.541534 2.28264 0
M  V30 1006 C 93.5682 -1.12351 1.32866 0
M  V30 1007 O 94.7442 -1.14206 1.65888 0
M  V30 1008 C 91.8092 -1.68322 3.03098 0
M  V30 1009 C 90.8702 -1.13238 4.14096 0
M  V30 1010 C 90.1032 -2.21966 4.85352 0
M  V30 1011 O 90.3262 -3.42437 4.56172 0
M  V30 1012 O 89.2602 -1.87013 5.7211 0
M  V30 1013 H 93.0862 0.060938 3.03639 0
M  V30 1014 H 90.6712 0.09565 1.49093 0
M  V30 1015 H 92.5532 -2.34777 3.49939 0
M  V30 1016 H 91.2282 -2.27176 2.30593 0
M  V30 1017 H 90.1352 -0.432736 3.71589 0
M  V30 1018 H 91.4682 -0.588898 4.88664 0
M  V30 1019 N 93.1203 -1.57491 0.0584922 0
M  V30 1020 C 94.0523 -2.08916 -0.942694 0
M  V30 1021 C 95.0653 -1.0185 -1.27006 0
M  V30 1022 O 96.2543 -1.29398 -1.22957 0
M  V30 1023 C 93.3543 -2.52341 -2.26224 0
M  V30 1024 C 92.5273 -3.82827 -2.1157 0
M  V30 1025 C 91.5863 -4.12487 -3.26712 0
M  V30 1026 O 90.6123 -4.82295 -3.02292 0
M  V30 1027 N 91.8143 -3.64978 -4.5141 0
M  V30 1028 H 94.5793 -2.95437 -0.503722 0
M  V30 1029 H 92.1403 -1.61397 -0.12757 0
M  V30 1030 H 94.1323 -2.69254 -3.02133 0
M  V30 1031 H 92.7023 -1.7103 -2.61663 0
M  V30 1032 H 91.9223 -3.75425 -1.20208 0
M  V30 1033 H 93.2103 -4.68263 -1.99015 0
M  V30 1034 H 92.6083 -3.08558 -4.7414 0
M  V30 1035 H 91.1653 -3.87115 -5.2439 0
M  V30 1036 N 94.5984 0.214957 -1.56127 0
M  V30 1037 C 95.5084 1.28727 -1.96129 0
M  V30 1038 C 96.5244 1.50916 -0.866044 0
M  V30 1039 O 97.7004 1.63918 -1.17016 0
M  V30 1040 C 94.7654 2.61569 -2.27558 0
M  V30 1041 C 93.8264 2.47625 -3.50685 0
M  V30 1042 C 93.0594 3.74132 -3.80606 0
M  V30 1043 O 93.2824 4.77438 -3.12104 0
M  V30 1044 O 92.2164 3.70849 -4.74083 0
M  V30 1045 H 96.0424 0.977855 -2.87527 0
M  V30 1046 H 93.6274 0.418358 -1.43423 0
M  V30 1047 H 95.5094 3.40012 -2.48938 0
M  V30 1048 H 94.1844 2.92178 -1.39332 0
M  V30 1049 H 93.0914 1.67361 -3.34576 0
M  V30 1050 H 94.4244 2.21954 -4.39315 0
M  V30 1051 N 96.0765 1.50051 0.48192 0
M  V30 1052 C 97.0065 1.71046 1.58951 0
M  V30 1053 C 97.9875 0.559288 1.60642 0
M  V30 1054 O 99.1725 0.797243 1.77081 0
M  V30 1055 C 96.3025 1.79462 2.97339 0
M  V30 1056 C 95.2565 2.94558 3.10515 0
M  V30 1057 C 94.5825 2.88105 4.50444 0
M  V30 1058 C 95.8825 4.35227 2.88747 0
M  V30 1059 H 97.5765 2.6378 1.41635 0
M  V30 1060 H 95.1225 1.26936 0.679942 0
M  V30 1061 H 97.0755 1.92734 3.74742 0
M  V30 1062 H 95.7995 0.833412 3.15788 0
M  V30 1063 H 94.4585 2.80918 2.35543 0
M  V30 1064 H 94.1065 1.89853 4.65795 0
M  V30 1065 H 93.8065 3.65366 4.60197 0
M  V30 1066 H 95.3305 3.03412 5.29881 0
M  V30 1067 H 96.7445 4.49449 3.55905 0
M  V30 1068 H 95.1415 5.13856 3.09955 0
M  V30 1069 H 96.2115 4.48347 1.84696 0
M  V30 1070 N 97.5546 -0.734337 1.39446 0
M  V30 1071 C 98.9706 -1.03997 1.21065 0
M  V30 1072 C 99.1706 -2.01369 0.0727019 0
M  V30 1073 O 98.2266 -2.45856 -0.575426 0
M  V30 1074 C 99.5396 -1.60163 2.54496 0
M  V30 1075 C 101.088 -1.7224 2.61347 0
M  V30 1076 C 101.563 -2.31814 3.95002 0
M  V30 1077 N 103.054 -2.39223 3.96644 0
M  V30 1078 C 103.789 -2.86258 4.96834 0
M  V30 1079 N 103.285 -3.33184 6.07421 0
M  V30 1080 N 105.078 -2.85473 4.84213 0
M  V30 1081 H 97.2286 -0.0885624 2.12215 0
M  V30 1082 H 99.4916 -0.10191 0.942506 0
M  V30 1083 H 99.1976 -0.960811 3.38321 0
M  V30 1084 H 99.0716 -2.5896 2.74262 0
M  V30 1085 H 101.459 -2.35443 1.77906 0
M  V30 1086 H 101.54 -0.720939 2.4543 0
M  V30 1087 H 101.184 -1.69238 4.78875 0
M  V30 1088 H 101.114 -3.32638 4.08239 0
M  V30 1089 H 103.605 -2.06057 3.16779 0
M  V30 1090 H 103.918 -3.67586 6.7978 0
M  V30 1091 H 102.263 -3.31191 6.11013 0
M  V30 1092 H 105.454 -2.48136 3.96921 0
M  V30 1093 H 105.627 -3.21814 5.62441 0
M  V30 1094 N 99.0327 -1.24633 -0.964593 0
M  V30 1095 C 99.9647 -0.999302 -2.06268 0
M  V30 1096 C 100.978 0.0323226 -1.62768 0
M  V30 1097 O 102.167 -0.205079 -1.77318 0
M  V30 1098 C 99.2667 -0.486816 -3.35385 0
M  V30 1099 C 98.4397 -1.5823 -4.07777 0
M  V30 1100 C 97.4987 -1.07191 -5.15166 0
M  V30 1101 O 96.5247 -1.76426 -5.41168 0
M  V30 1102 N 97.7267 0.0920373 -5.80427 0
M  V30 1103 H 100.492 -1.94477 -2.28033 0
M  V30 1104 H 98.0527 -1.15704 -1.13244 0
M  V30 1105 H 100.045 -0.130066 -4.04491 0
M  V30 1106 H 98.6147 0.364459 -3.10468 0
M  V30 1107 H 97.8347 -2.11109 -3.32906 0
M  V30 1108 H 99.1227 -2.31854 -4.52903 0
M  V30 1109 H 98.5207 0.670784 -5.61709 0
M  V30 1110 H 97.0777 0.389905 -6.50633 0
M  V30 1111 N 100.511 1.16574 -1.06058 0
M  V30 1112 C 101.441 2.23057 -0.690488 0
M  V30 1113 C 102.422 1.67141 0.315901 0
M  V30 1114 O 103.607 1.93253 0.191556 0
M  V30 1115 C 100.737 3.47222 -0.073625 0
M  V30 1116 C 99.6908 4.16016 -1.00573 0
M  V30 1117 C 99.0168 5.34104 -0.252289 0
M  V30 1118 C 100.317 4.67264 -2.33371 0
M  V30 1119 H 102.011 2.54271 -1.58072 0
M  V30 1120 H 99.5568 1.22218 -0.76149 0
M  V30 1121 H 101.51 4.20939 0.19714 0
M  V30 1122 H 100.234 3.15302 0.85161 0
M  V30 1123 H 98.8928 3.44223 -1.2612 0
M  V30 1124 H 98.5408 4.98437 0.675988 0
M  V30 1125 H 98.2408 5.81072 -0.873455 0
M  V30 1126 H 99.7648 6.10599 0.0109857 0
M  V30 1127 H 101.179 5.32573 -2.12223 0
M  V30 1128 H 99.5758 5.24843 -2.90963 0
M  V30 1129 H 100.646 3.83602 -2.96611 0
M  V30 1130 N 101.989 0.842826 1.3317 0
M  V30 1131 C 102.919 0.294028 2.31641 0
M  V30 1132 C 103.9 -0.600401 1.59151 0
M  V30 1133 O 105.085 -0.523124 1.87022 0
M  V30 1134 C 102.215 -0.528416 3.43257 0
M  V30 1135 C 101.169 0.27056 4.27144 0
M  V30 1136 C 100.495 -0.675881 5.30411 0
M  V30 1137 C 101.795 1.48981 5.00602 0
M  V30 1138 H 103.489 1.11681 2.77791 0
M  V30 1139 H 101.035 0.538478 1.33553 0
M  V30 1140 H 102.988 -0.922674 4.11175 0
M  V30 1141 H 101.712 -1.38445 2.95805 0
M  V30 1142 H 100.371 0.646427 3.60856 0
M  V30 1143 H 100.019 -1.52842 4.79216 0
M  V30 1144 H 99.7189 -0.145374 5.8742 0
M  V30 1145 H 101.243 -1.06757 6.01195 0
M  V30 1146 H 102.657 1.16849 5.61266 0
M  V30 1147 H 101.054 1.95739 5.6728 0
M  V30 1148 H 102.124 2.25746 4.29147 0
M  V30 1149 N 103.467 -1.45747 0.599634 0
M  V30 1150 C 104.417 -2.27538 -0.145107 0
M  V30 1151 C 105.401 -1.3686 -0.846055 0
M  V30 1152 O 106.593 -1.6091 -0.737357 0
M  V30 1153 C 103.722 -3.23569 -1.14708 0
M  V30 1154 C 102.808 -4.21734 -0.447383 0
M  V30 1155 N 103.199 -5.03257 0.506535 0
M  V30 1156 C 101.497 -4.40536 -0.695966 0
M  V30 1157 C 102.198 -5.74426 0.917068 0
M  V30 1158 N 101.174 -5.42966 0.26253 0
M  V30 1159 H 104.976 -2.87965 0.587672 0
M  V30 1160 H 102.49 -1.56803 0.422697 0
M  V30 1161 H 104.487 -3.8089 -1.69495 0
M  V30 1162 H 103.147 -2.64702 -1.8805 0
M  V30 1163 H 104.158 -5.10319 0.882899 0
M  V30 1164 H 100.835 -3.92802 -1.41467 0
M  V30 1165 H 102.225 -6.4995 1.70338 0
M  V30 1166 N 104.945 -0.338344 -1.53925 0
M  V30 1167 C 105.892 0.520845 -2.24846 0
M  V30 1168 C 106.862 1.09976 -1.24477 0
M  V30 1169 O 108.047 1.13735 -1.53196 0
M  V30 1170 C 105.187 1.6685 -3.02084 0
M  V30 1171 C 104.3 1.11739 -4.17299 0
M  V30 1172 C 103.435 2.23193 -4.82036 0
M  V30 1173 C 102.474 1.65407 -5.89328 0
M  V30 1174 N 101.611 2.70582 -6.47866 0
M  V30 1175 H 106.451 -0.0904881 -2.97863 0
M  V30 1176 H 103.988 -0.0564282 -1.46992 0
M  V30 1177 H 105.946 2.34407 -3.45122 0
M  V30 1178 H 104.576 2.2509 -2.31375 0
M  V30 1179 H 103.628 0.332919 -3.7894 0
M  V30 1180 H 104.94 0.654677 -4.94485 0
M  V30 1181 H 104.094 2.98626 -5.28117 0
M  V30 1182 H 102.833 2.72807 -4.04262 0
M  V30 1183 H 101.838 0.884779 -5.42634 0
M  V30 1184 H 103.063 1.16652 -6.69006 0
M  V30 1185 H 101.009 3.1946 -5.72959 0
M  V30 1186 H 100.926 2.28917 -7.20509 0
M  V30 1187 H 102.194 3.45799 -6.98601 0
M  V30 1188 N 106.423 1.57458 -0.0668435 0
M  V30 1189 C 107.7 1.8469 0.644132 0
M  V30 1190 C 108.08 0.958343 1.88093 0
M  V30 1191 O 107.428 0.0233579 2.28488 0
M  V30 1192 C 107.638 3.34767 0.986509 0
M  V30 1193 C 108.986 4.02159 1.36212 0
M  V30 1194 O 110.01 3.39484 1.07839 0
M  V30 1195 O 108.869 5.12694 1.89227 0
M  V30 1196 H 105.963 0.762816 0.319437 0
M  V30 1197 H 108.509 1.6942 -0.0973986 0
M  V30 1198 H 107.281 3.91151 0.107883 0
M  V30 1199 H 106.904 3.55281 1.78497 0
M  V30 1200 N 107.901 -0.206675 1.56239 0
M  V30 1201 C 108.848 -1.25617 1.93621 0
M  V30 1202 C 109.818 -1.45824 0.795274 0
M  V30 1203 O 111.003 -1.59148 1.05245 0
M  V30 1204 C 108.143 -2.59839 2.27107 0
M  V30 1205 C 107.256 -2.47308 3.54207 0
M  V30 1206 C 106.391 -3.74155 3.7707 0
M  V30 1207 C 105.43 -3.56407 4.97635 0
M  V30 1208 N 104.567 -4.75238 5.1681 0
M  V30 1209 H 109.407 -0.930383 2.83104 0
M  V30 1210 H 106.944 -0.448065 1.4011 0
M  V30 1211 H 108.902 -3.38021 2.44535 0
M  V30 1212 H 107.532 -2.90485 1.40778 0
M  V30 1213 H 106.584 -1.60483 3.4489 0
M  V30 1214 H 107.896 -2.30122 4.42544 0
M  V30 1215 H 107.05 -4.60778 3.94675 0
M  V30 1216 H 105.789 -3.94282 2.87042 0
M  V30 1217 H 104.794 -2.68168 4.79964 0
M  V30 1218 H 106.019 -3.37736 5.89161 0
M  V30 1219 H 103.965 -4.95651 4.29728 0
M  V30 1220 H 103.882 -4.60835 5.99306 0
M  V30 1221 H 105.15 -5.63246 5.38864 0
M  V30 1222 N 109.379 -1.50304 -0.473955 0
M  V30 1223 C 110.604 -1.65175 -1.25427 0
M  V30 1224 C 111.029 -0.333673 -1.85117 0
M  V30 1225 O 110.387 0.702114 -1.67153 0
M  V30 1226 C 110.435 -2.74295 -2.34082 0
M  V30 1227 O 109.539 -2.35349 -3.38651 0
M  V30 1228 H 108.88 -0.551944 -0.369126 0
M  V30 1229 H 111.41 -1.96662 -0.564364 0
M  V30 1230 H 111.42 -2.97285 -2.79438 0
M  V30 1231 H 110.095 -3.69959 -1.90008 0
M  V30 1232 H 108.672 -2.22794 -2.99027 0
M  V30 1233 N 110.857 0.726932 -1.39834 0
M  V30 1234 C 111.804 1.841 -1.39197 0
M  V30 1235 C 112.774 1.642 -0.250502 0
M  V30 1236 O 113.959 1.85494 -0.446846 0
M  V30 1237 C 111.099 3.21697 -1.24919 0
M  V30 1238 C 110.212 3.53247 -2.48678 0
M  V30 1239 C 109.347 4.80289 -2.26928 0
M  V30 1240 C 108.386 5.04707 -3.4632 0
M  V30 1241 N 107.523 6.22956 -3.23836 0
M  V30 1242 H 112.363 1.83979 -2.34427 0
M  V30 1243 H 109.9 0.898876 -1.16442 0
M  V30 1244 H 111.858 4.01137 -1.1465 0
M  V30 1245 H 110.488 3.21076 -0.333153 0
M  V30 1246 H 109.54 2.68447 -2.69519 0
M  V30 1247 H 110.852 3.67205 -3.37582 0
M  V30 1248 H 110.006 5.67725 -2.13947 0
M  V30 1249 H 108.745 4.68519 -1.35431 0
M  V30 1250 H 107.75 4.1573 -3.5979 0
M  V30 1251 H 108.975 5.18357 -4.38729 0
M  V30 1252 H 106.921 6.12459 -2.35011 0
M  V30 1253 H 106.838 6.37539 -4.063 0
M  V30 1254 H 108.106 7.1321 -3.14566 0
M  V30 1255 N 112.336 1.25143 0.95797 0
M  V30 1256 C 113.752 1.01892 1.22842 0
M  V30 1257 C 113.952 -0.266311 1.99732 0
M  V30 1258 O 113.008 -0.979913 2.3271 0
M  V30 1259 C 114.321 2.24004 2.00606 0
M  V30 1260 C 115.869 2.28731 2.13662 0
M  V30 1261 C 116.344 3.5049 2.94823 0
M  V30 1262 N 117.835 3.50866 3.02403 0
M  V30 1263 C 118.57 4.4174 3.65586 0
M  V30 1264 N 118.066 5.42882 4.30408 0
M  V30 1265 N 119.859 4.29429 3.62694 0
M  V30 1266 H 112.01 2.07718 0.443493 0
M  V30 1267 H 114.273 0.912031 0.258657 0
M  V30 1268 H 113.979 3.17395 1.51503 0
M  V30 1269 H 113.853 2.26907 3.01319 0
M  V30 1270 H 116.24 1.35865 2.61963 0
M  V30 1271 H 116.321 2.29848 1.12265 0
M  V30 1272 H 115.965 4.43676 2.47213 0
M  V30 1273 H 115.895 3.46617 3.96439 0
M  V30 1274 H 118.386 2.777 2.56302 0
M  V30 1275 H 118.699 6.0844 4.76467 0
M  V30 1276 H 117.044 5.46758 4.29047 0
M  V30 1277 H 120.235 3.49643 3.11236 0
M  V30 1278 H 120.408 5.00448 4.1165 0
M  V30 1279 N 113.814 -1.1601 1.06675 0
M  V30 1280 C 115.039 -1.91068 0.806706 0
M  V30 1281 C 115.464 -1.77112 -0.633485 0
M  V30 1282 O 114.822 -1.09908 -1.44187 0
M  V30 1283 C 114.87 -3.39655 1.21106 0
M  V30 1284 O 113.974 -4.10893 0.352189 0
M  V30 1285 H 113.315 -0.595125 0.294486 0
M  V30 1286 H 115.845 -1.46955 1.42356 0
M  V30 1287 H 115.855 -3.90434 1.18428 0
M  V30 1288 H 114.53 -3.49132 2.26008 0
M  V30 1289 H 113.107 -3.70285 0.440868 0
M  V30 1290 N 115.292 -0.849877 -1.32721 0
M  V30 1291 C 116.255 -0.296122 -2.27279 0
M  V30 1292 C 117.255 0.541458 -1.5141 0
M  V30 1293 O 118.445 0.353658 -1.70572 0
M  V30 1294 C 115.577 0.581579 -3.35902 0
M  V30 1295 H 116.77 -1.13064 -2.77771 0
M  V30 1296 H 114.323 -0.62383 -1.43311 0
M  V30 1297 H 115.058 1.43809 -2.9067 0
M  V30 1298 H 114.843 -0.0178814 -3.92096 0
M  V30 1299 H 116.333 0.961951 -4.0637 0
M  V30 1300 N 116.77 1.45427 -0.607355 0
M  V30 1301 C 118.016 2.0254 -0.102607 0
M  V30 1302 C 118.349 1.47478 1.26348 0
M  V30 1303 O 117.624 0.64939 1.83339 0
M  V30 1304 C 117.907 3.60044 -0.0634347 0
M  V30 1305 C 117.76 4.2544 -1.46017 0
M  V30 1306 C 119.079 4.35646 0.624514 0
M  V30 1307 H 116.198 0.73598 -0.0387607 0
M  V30 1308 H 118.84 1.73284 -0.779282 0
M  V30 1309 H 116.99 3.85101 0.512808 0
M  V30 1310 H 118.662 4.11569 -2.08347 0
M  V30 1311 H 116.905 3.83849 -2.02094 0
M  V30 1312 H 117.576 5.34342 -1.385 0
M  V30 1313 H 120.052 4.15882 0.134723 0
M  V30 1314 H 118.928 5.45376 0.621028 0
M  V30 1315 H 119.189 4.08501 1.69055 0
M  V30 1316 N 118.248 0.346503 1.53744 0
M  V30 1317 C 119.211 -0.496439 2.23759 0
M  V30 1318 C 120.211 -1.0252 1.2388 0
M  V30 1319 O 121.401 -0.913974 1.48297 0
M  V30 1320 C 118.533 -1.69187 2.95954 0
M  V30 1321 H 119.726 0.115952 2.99676 0
M  V30 1322 H 117.279 0.0978939 1.55993 0
M  V30 1323 H 118.014 -2.34288 2.24231 0
M  V30 1324 H 117.799 -1.31989 3.69217 0
M  V30 1325 H 119.289 -2.28969 3.49232 0
M  V30 1326 N 119.726 -1.57421 0.075193 0
M  V30 1327 C 120.951 -1.98364 -0.605515 0
M  V30 1328 C 121.376 -0.953383 -1.62149 0
M  V30 1329 O 120.734 0.0806053 -1.81121 0
M  V30 1330 C 120.782 -3.38332 -1.24756 0
M  V30 1331 O 119.886 -3.37959 -2.36342 0
M  V30 1332 H 119.227 -0.645553 -0.155428 0
M  V30 1333 H 121.757 -2.04044 0.150714 0
M  V30 1334 H 121.767 -3.75591 -1.5936 0
M  V30 1335 H 120.442 -4.12846 -0.503129 0
M  V30 1336 H 119.019 -3.12474 -2.03506 0
M  V30 1337 N 121.204 0.198386 -1.56346 0
M  V30 1338 C 122.429 0.939682 -1.84891 0
M  V30 1339 C 122.854 1.76202 -0.658369 0
M  V30 1340 O 122.212 1.76993 0.392851 0
M  V30 1341 C 122.26 1.81428 -3.11635 0
M  V30 1342 O 121.364 2.91265 -2.91956 0
M  V30 1343 H 120.705 0.264807 -0.608912 0
M  V30 1344 H 123.235 0.204695 -2.03573 0
M  V30 1345 H 123.245 2.21958 -3.42343 0
M  V30 1346 H 121.92 1.21004 -3.97908 0
M  V30 1347 H 120.497 2.54514 -2.72538 0
M  V30 1348 N 122.682 1.50554 0.465978 0
M  V30 1349 C 123.928 1.62038 1.21949 0
M  V30 1350 C 124.261 0.322116 1.9151 0
M  V30 1351 O 123.536 -0.676723 1.82348 0
M  V30 1352 C 123.819 2.80421 2.25912 0
M  V30 1353 C 123.672 4.20144 1.60622 0
M  V30 1354 C 124.991 2.94354 3.27176 0
M  V30 1355 H 122.11 0.589752 0.441998 0
M  V30 1356 H 124.752 1.82956 0.51257 0
M  V30 1357 H 122.902 2.62717 2.86203 0
M  V30 1358 H 124.574 4.49449 1.03889 0
M  V30 1359 H 122.817 4.24165 0.909211 0
M  V30 1360 H 123.488 4.98914 2.36196 0
M  V30 1361 H 125.964 3.10578 2.76913 0
M  V30 1362 H 124.84 3.788 3.97242 0
M  V30 1363 H 125.101 2.05186 3.916 0
M  V30 1364 N 124.16 -0.719506 1.40217 0
M  V30 1365 C 125.406 -1.48152 1.38488 0
M  V30 1366 C 125.739 -1.94195 -0.0141867 0
M  V30 1367 O 125.014 -1.67884 -0.982096 0
M  V30 1368 C 125.297 -2.71035 2.37091 0
M  V30 1369 C 125.15 -2.30912 3.86005 0
M  V30 1370 C 126.469 -3.73182 2.33288 0
M  V30 1371 H 123.588 -0.537395 0.504357 0
M  V30 1372 H 126.23 -0.821472 1.71324 0
M  V30 1373 H 124.38 -3.27352 2.0922 0
M  V30 1374 H 126.052 -1.80107 4.24687 0
M  V30 1375 H 124.295 -1.62958 4.02029 0
M  V30 1376 H 124.966 -3.18978 4.50508 0
M  V30 1377 H 127.442 -3.26485 2.57966 0
M  V30 1378 H 126.318 -4.56806 3.04334 0
M  V30 1379 H 126.579 -4.21202 1.34317 0
M  V30 1380 N 125.638 -1.25649 -0.95132 0
M  V30 1381 C 126.585 -1.06323 -2.04851 0
M  V30 1382 C 127.555 0.0286491 -1.66075 0
M  V30 1383 O 128.74 -0.12917 -1.90362 0
M  V30 1384 C 125.88 -0.691529 -3.381 0
M  V30 1385 C 124.993 -1.85861 -3.89974 0
M  V30 1386 C 124.128 -1.43096 -5.11563 0
M  V30 1387 C 123.167 -2.56696 -5.55674 0
M  V30 1388 N 122.304 -2.14684 -6.68472 0
M  V30 1389 H 127.144 -2.00222 -2.20715 0
M  V30 1390 H 124.681 -0.997027 -1.08156 0
M  V30 1391 H 126.639 -0.456963 -4.1469 0
M  V30 1392 H 125.269 0.210474 -3.22113 0
M  V30 1393 H 124.321 -2.20639 -3.09875 0
M  V30 1394 H 125.633 -2.71161 -4.18657 0
M  V30 1395 H 124.787 -1.15624 -5.9558 0
M  V30 1396 H 123.526 -0.548722 -4.84603 0
M  V30 1397 H 122.531 -2.84909 -4.7022 0
M  V30 1398 H 123.756 -3.45503 -5.8464 0
M  V30 1399 H 121.702 -1.28881 -6.43215 0
M  V30 1400 H 121.619 -2.9353 -6.96689 0
M  V30 1401 H 122.887 -1.90397 -7.5589 0
M  V30 1402 N 127.117 1.15442 -1.07289 0
M  V30 1403 C 128.049 2.19773 -0.650585 0
M  V30 1404 C 129.062 1.60076 0.296572 0
M  V30 1405 O 130.251 1.78293 0.0859905 0
M  V30 1406 C 127.351 3.38838 0.0650398 0
M  V30 1407 C 126.524 4.2808 -0.898141 0
M  V30 1408 C 125.583 5.2574 -0.219926 0
M  V30 1409 O 124.609 5.62654 -0.860773 0
M  V30 1410 N 125.811 5.71205 1.03466 0
M  V30 1411 H 128.576 2.56622 -1.54808 0
M  V30 1412 H 126.137 1.30551 -0.957494 0
M  V30 1413 H 128.129 4.01222 0.529415 0
M  V30 1414 H 126.699 3.00409 0.864466 0
M  V30 1415 H 125.919 3.62804 -1.54165 0
M  V30 1416 H 127.207 4.84577 -1.5512 0
M  V30 1417 H 126.605 5.43325 1.57526 0
M  V30 1418 H 125.162 6.35633 1.44272 0
M  V30 1419 N 128.595 0.856903 1.32268 0
M  V30 1420 C 129.542 0.301172 2.28827 0
M  V30 1421 C 130.512 -0.593104 1.5515 0
M  V30 1422 O 131.697 -0.527537 1.83362 0
M  V30 1423 C 128.837 -0.502523 3.41422 0
M  V30 1424 C 127.95 0.417797 4.29975 0
M  V30 1425 C 127.085 -0.398749 5.29701 0
M  V30 1426 C 126.124 0.518827 6.09897 0
M  V30 1427 N 125.261 -0.260674 7.01616 0
M  V30 1428 H 130.101 1.12983 2.75751 0
M  V30 1429 H 127.638 0.568582 1.35667 0
M  V30 1430 H 129.596 -0.984141 4.05426 0
M  V30 1431 H 128.226 -1.29599 2.95642 0
M  V30 1432 H 127.278 1.01781 3.66531 0
M  V30 1433 H 128.59 1.12191 4.86019 0
M  V30 1434 H 127.744 -0.943435 5.9932 0
M  V30 1435 H 126.483 -1.13622 4.7428 0
M  V30 1436 H 125.488 1.07538 5.39181 0
M  V30 1437 H 126.713 1.25495 6.67404 0
M  V30 1438 H 124.659 -0.981198 6.4862 0
M  V30 1439 H 124.576 0.384364 7.55022 0
M  V30 1440 H 125.844 -0.787014 7.75517 0
M  V30 1441 N 130.073 -1.45103 0.615059 0
M  V30 1442 C 131.003 -2.33339 -0.0865619 0
M  V30 1443 C 131.984 -1.4727 -0.851209 0
M  V30 1444 O 133.169 -1.76026 -0.820281 0
M  V30 1445 C 130.299 -3.30095 -1.07956 0
M  V30 1446 C 129.253 -4.25858 -0.427628 0
M  V30 1447 C 128.579 -5.12361 -1.5294 0
M  V30 1448 C 129.879 -5.18165 0.655944 0
M  V30 1449 H 131.573 -2.92254 0.650224 0
M  V30 1450 H 129.119 -1.40532 0.314138 0
M  V30 1451 H 131.072 -3.90698 -1.57901 0
M  V30 1452 H 129.796 -2.69355 -1.84703 0
M  V30 1453 H 128.455 -3.66564 0.0510292 0
M  V30 1454 H 128.103 -4.47984 -2.28734 0
M  V30 1455 H 127.803 -5.77238 -1.09865 0
M  V30 1456 H 129.327 -5.75833 -2.03098 0
M  V30 1457 H 130.741 -5.72796 0.240257 0
M  V30 1458 H 129.138 -5.91559 1.00888 0
M  V30 1459 H 130.208 -4.60144 1.52957 0
M  V30 1460 N 131.551 -0.354651 -1.53558 0
M  V30 1461 C 132.514 0.484566 -2.24019 0
M  V30 1462 C 133.514 1.01861 -1.24422 0
M  V30 1463 O 134.704 0.906097 -1.4878 0
M  V30 1464 C 131.836 1.67615 -2.96847 0
M  V30 1465 H 133.029 -0.131843 -2.9961 0
M  V30 1466 H 130.582 -0.106165 -1.55939 0
M  V30 1467 H 131.317 2.33095 -2.25471 0
M  V30 1468 H 131.102 1.30029 -3.69912 0
M  V30 1469 H 132.592 2.27114 -3.50441 0
M  V30 1470 N 133.029 1.57378 -0.0835403 0
M  V30 1471 C 133.939 2.16897 0.894021 0
M  V30 1472 C 134.955 1.13528 1.31861 0
M  V30 1473 O 136.131 1.45848 1.3889 0
M  V30 1474 C 133.196 2.72831 2.13925 0
M  V30 1475 C 132.257 3.91115 1.76997 0
M  V30 1476 C 131.49 4.44371 2.95584 0
M  V30 1477 O 131.713 3.96596 4.09961 0
M  V30 1478 O 130.647 5.35549 2.74719 0
M  V30 1479 H 134.473 3.00814 0.417679 0
M  V30 1480 H 132.058 1.48741 0.140181 0
M  V30 1481 H 133.94 3.0863 2.86924 0
M  V30 1482 H 132.615 1.91967 2.60635 0
M  V30 1483 H 131.522 3.60148 1.01214 0
M  V30 1484 H 132.855 4.73307 1.3506 0
M  V30 1485 N 134.507 -0.190092 1.56449 0
M  V30 1486 C 135.753 -0.911052 1.81184 0
M  V30 1487 C 136.086 -1.82699 0.658396 0
M  V30 1488 O 135.361 -1.91491 -0.340775 0
M  V30 1489 C 135.644 -1.72297 3.16205 0
M  V30 1490 C 135.497 -0.831419 4.42049 0
M  V30 1491 C 136.816 -2.69454 3.47969 0
M  V30 1492 H 133.935 -0.32977 0.659106 0
M  V30 1493 H 136.577 -0.178169 1.89163 0
M  V30 1494 H 134.727 -2.34778 3.09534 0
M  V30 1495 H 136.399 -0.220929 4.60771 0
M  V30 1496 H 134.642 -0.138406 4.33579 0
M  V30 1497 H 135.313 -1.43461 5.33032 0
M  V30 1498 H 137.789 -2.17104 3.54972 0
M  V30 1499 H 136.665 -3.23342 4.43555 0
M  V30 1500 H 136.926 -3.48744 2.71717 0
M  V30 1501 N 135.985 -1.50799 -0.457987 0
M  V30 1502 C 137.234 -1.6168 -1.20593 0
M  V30 1503 C 137.547 -0.32888 -1.92815 0
M  V30 1504 O 138.753 -0.316773 -2.69646 0
M  V30 1505 C 137.209 -2.8545 -2.19195 0
M  V30 1506 C 136.817 -4.21168 -1.52715 0
M  V30 1507 C 138.561 -3.05681 -2.94549 0
M  V30 1508 C 136.468 -5.3611 -2.4968 0
M  V30 1509 H 135.398 -0.602134 -0.453818 0
M  V30 1510 H 138.049 -1.77245 -0.475031 0
M  V30 1511 H 136.431 -2.63472 -2.95632 0
M  V30 1512 H 137.605 -4.53449 -0.819775 0
M  V30 1513 H 135.92 -4.06648 -0.895922 0
M  V30 1514 H 138.517 -3.88727 -3.67145 0
M  V30 1515 H 138.86 -2.17929 -3.54701 0
M  V30 1516 H 139.393 -3.27901 -2.25223 0
M  V30 1517 H 136.132 -6.26057 -1.94249 0
M  V30 1518 H 135.652 -5.0823 -3.18532 0
M  V30 1519 H 137.331 -5.6722 -3.11241 0
M  V30 1520 N 137.463 0.71206 -1.40597 0
M  V30 1521 C 138.393 1.83889 -1.43899 0
M  V30 1522 C 139.374 1.67442 -0.299504 0
M  V30 1523 O 140.559 1.87421 -0.508624 0
M  V30 1524 C 137.689 3.21877 -1.30431 0
M  V30 1525 C 136.643 3.53002 -2.42019 0
M  V30 1526 C 135.969 4.90172 -2.13626 0
M  V30 1527 C 137.269 3.53643 -3.84362 0
M  V30 1528 H 138.963 1.81383 -2.38203 0
M  V30 1529 H 136.509 0.871237 -1.14654 0
M  V30 1530 H 138.462 4.00404 -1.31357 0
M  V30 1531 H 137.186 3.24968 -0.326049 0
M  V30 1532 H 135.845 2.76818 -2.40349 0
M  V30 1533 H 135.493 4.89869 -1.14182 0
M  V30 1534 H 135.193 5.11962 -2.88389 0
M  V30 1535 H 136.717 5.71028 -2.1624 0
M  V30 1536 H 138.131 4.22203 -3.87837 0
M  V30 1537 H 136.528 3.86961 -4.58673 0
M  V30 1538 H 137.598 2.52954 -4.13693 0
M  V30 1539 N 138.941 1.26152 0.944643 0
M  V30 1540 C 139.888 1.07408 2.04285 0
M  V30 1541 C 140.858 -0.0198413 1.66088 0
M  V30 1542 O 142.043 0.139264 1.90291 0
M  V30 1543 C 139.183 0.70945 3.37729 0
M  V30 1544 C 138.296 1.87926 3.88983 0
M  V30 1545 C 137.431 1.45807 5.10797 0
M  V30 1546 C 136.47 2.5964 5.54305 0
M  V30 1547 N 135.607 2.18226 6.67324 0
M  V30 1548 H 140.447 2.01389 2.1965 0
M  V30 1549 H 137.984 1.00275 1.07626 0
M  V30 1550 H 139.942 0.478948 4.14442 0
M  V30 1551 H 138.572 -0.193389 3.2222 0
M  V30 1552 H 137.624 2.22279 3.08701 0
M  V30 1553 H 138.936 2.73377 4.17213 0
M  V30 1554 H 138.09 1.18781 5.94959 0
M  V30 1555 H 136.829 0.574414 4.84305 0
M  V30 1556 H 135.834 2.87399 4.68702 0
M  V30 1557 H 137.059 3.48599 5.828 0
M  V30 1558 H 135.005 1.3229 6.42523 0
M  V30 1559 H 134.922 2.97221 6.95123 0
M  V30 1560 H 136.19 1.94403 7.54869 0
M  V30 1561 N 140.419 -1.14872 1.07899 0
M  V30 1562 C 141.366 -2.19791 0.704319 0
M  V30 1563 C 142.336 -1.63238 -0.306987 0
M  V30 1564 O 143.521 -1.8983 -0.192171 0
M  V30 1565 C 140.661 -3.44911 0.114244 0
M  V30 1566 C 139.774 -4.15637 1.1777 0
M  V30 1567 C 138.909 -5.28324 0.552037 0
M  V30 1568 C 137.948 -5.90875 1.59789 0
M  V30 1569 N 137.085 -6.95022 0.994404 0
M  V30 1570 H 141.925 -2.5119 1.60336 0
M  V30 1571 H 139.462 -1.23356 0.801352 0
M  V30 1572 H 141.42 -4.16477 -0.245544 0
M  V30 1573 H 140.05 -3.14011 -0.74813 0
M  V30 1574 H 139.102 -3.42512 1.65499 0
M  V30 1575 H 140.414 -4.5823 1.97046 0
M  V30 1576 H 139.568 -6.06538 0.1402 0
M  V30 1577 H 138.307 -4.86939 -0.272431 0
M  V30 1578 H 137.312 -5.11369 2.01945 0
M  V30 1579 H 138.537 -6.34337 2.42474 0
M  V30 1580 H 136.483 -6.55722 0.190939 0
M  V30 1581 H 136.4 -7.36073 1.72432 0
M  V30 1582 H 137.668 -7.77123 0.608253 0
M  V30 1583 N 141.898 -0.863906 -1.31812 0
M  V30 1584 C 142.83 -0.272485 -2.27575 0
M  V30 1585 C 143.843 0.56104 -1.52827 0
M  V30 1586 O 145.032 0.384021 -1.7432 0
M  V30 1587 C 142.132 0.63283 -3.32939 0
M  V30 1588 C 141.305 -0.166902 -4.37081 0
M  V30 1589 C 140.364 0.665608 -5.21973 0
M  V30 1590 O 139.39 0.0958091 -5.69119 0
M  V30 1591 N 140.592 1.9787 -5.45736 0
M  V30 1592 H 143.357 -1.0954 -2.78964 0
M  V30 1593 H 140.918 -0.724791 -1.4477 0
M  V30 1594 H 142.91 1.19532 -3.86645 0
M  V30 1595 H 141.48 1.35642 -2.81638 0
M  V30 1596 H 140.7 -0.910838 -3.83533 0
M  V30 1597 H 141.988 -0.715874 -5.03739 0
M  V30 1598 H 141.386 2.46484 -5.09178 0
M  V30 1599 H 139.943 2.48911 -6.024 0
M  V30 1600 N 143.376 1.44774 -0.622745 0
M  V30 1601 C 144.308 2.28856 0.125485 0
M  V30 1602 C 145.321 1.40811 0.817069 0
M  V30 1603 O 146.51 1.65044 0.679918 0
M  V30 1604 C 143.61 3.16963 1.19949 0
M  V30 1605 C 142.783 4.33374 0.592064 0
M  V30 1606 C 141.842 5.02577 1.55893 0
M  V30 1607 O 140.868 5.58873 1.07933 0
M  V30 1608 N 142.07 5.03256 2.89334 0
M  V30 1609 H 144.835 2.93713 -0.596068 0
M  V30 1610 H 142.396 1.55129 -0.463303 0
M  V30 1611 H 144.388 3.60123 1.84644 0
M  V30 1612 H 142.958 2.53913 1.82337 0
M  V30 1613 H 142.178 3.93509 -0.233322 0
M  V30 1614 H 143.466 5.08527 0.166738 0
M  V30 1615 H 142.864 4.58836 3.30887 0
M  V30 1616 H 141.421 5.50232 3.49412 0
M  V30 1617 N 144.854 0.36279 1.53368 0
M  V30 1618 C 145.817 -0.472679 2.24273 0
M  V30 1619 C 146.817 -1.012 1.24961 0
M  V30 1620 O 148.007 -0.898194 1.49259 0
M  V30 1621 C 145.139 -1.66039 2.97731 0
M  V30 1622 H 146.332 0.14773 2.99536 0
M  V30 1623 H 143.885 0.114434 1.55881 0
M  V30 1624 H 144.62 -2.31896 2.26704 0
M  V30 1625 H 144.405 -1.28066 3.70596 0
M  V30 1626 H 145.895 -2.25252 3.51641 0
M  V30 1627 N 146.332 -1.57332 0.0918853 0
M  V30 1628 C 147.295 -2.12708 -0.85369 0
M  V30 1629 C 148.295 -1.05561 -1.213 0
M  V30 1630 O 149.485 -1.31461 -1.14296 0
M  V30 1631 C 146.617 -2.64503 -2.15061 0
M  V30 1632 H 147.81 -2.97573 -0.3729 0
M  V30 1633 H 145.363 -1.55509 -0.157072 0
M  V30 1634 H 146.098 -1.83149 -2.67632 0
M  V30 1635 H 145.883 -3.4284 -1.90272 0
M  V30 1636 H 147.373 -3.07351 -2.82711 0
M  V30 1637 N 147.81 0.181792 -1.56548 0
M  V30 1638 C 148.74 1.22765 -1.98623 0
M  V30 1639 C 149.721 1.46747 -0.860189 0
M  V30 1640 O 150.906 1.58259 -1.12551 0
M  V30 1641 C 148.036 2.56894 -2.33715 0
M  V30 1642 C 146.99 2.475 -3.49182 0
M  V30 1643 C 146.316 3.86023 -3.69986 0
M  V30 1644 C 147.616 1.98866 -4.82959 0
M  V30 1645 H 149.31 0.877942 -2.86239 0
M  V30 1646 H 146.856 0.42088 -1.37712 0
M  V30 1647 H 148.809 3.30253 -2.61746 0
M  V30 1648 H 147.533 2.93632 -1.42997 0
M  V30 1649 H 146.192 1.76596 -3.21262 0
M  V30 1650 H 145.84 4.20136 -2.76576 0
M  V30 1651 H 145.54 3.80609 -4.47672 0
M  V30 1652 H 147.064 4.60984 -4.00407 0
M  V30 1653 H 148.478 2.61992 -5.09934 0
M  V30 1654 H 146.875 2.04424 -5.64208 0
M  V30 1655 H 147.945 0.942465 -4.75653 0
M  V30 1656 N 149.288 1.51039 0.449983 0
M  V30 1657 C 150.198 1.74261 1.57067 0
M  V30 1658 C 151.214 0.626363 1.62335 0
M  V30 1659 O 152.39 0.907162 1.79812 0
M  V30 1660 C 149.455 1.85114 2.93144 0
M  V30 1661 C 148.516 3.0893 2.98095 0
M  V30 1662 C 147.749 3.19256 4.27681 0
M  V30 1663 O 147.972 2.35835 5.19363 0
M  V30 1664 O 146.906 4.12144 4.38658 0
M  V30 1665 H 150.732 2.69303 1.40391 0
M  V30 1666 H 148.317 1.35389 0.631688 0
M  V30 1667 H 150.199 1.94311 3.73926 0
M  V30 1668 H 148.874 0.932588 3.09975 0
M  V30 1669 H 147.781 3.0522 2.16314 0
M  V30 1670 H 149.114 4.00433 2.86206 0
M  V30 1671 N 150.766 -0.704594 1.40972 0
M  V30 1672 C 152.182 -1.01406 1.23244 0
M  V30 1673 C 152.382 -2.01169 0.115399 0
M  V30 1674 O 151.438 -2.47021 -0.523147 0
M  V30 1675 C 152.751 -1.54728 2.57836 0
M  V30 1676 C 154.299 -1.66658 2.64942 0
M  V30 1677 C 154.774 -2.23383 3.9983 0
M  V30 1678 N 156.265 -2.30756 4.01629 0
M  V30 1679 C 157 -2.75655 5.02794 0
M  V30 1680 N 156.496 -3.20225 6.14352 0
M  V30 1681 N 158.289 -2.75138 4.90159 0
M  V30 1682 H 150.44 -0.0435285 2.12355 0
M  V30 1683 H 152.703 -0.0818951 0.944456 0
M  V30 1684 H 152.409 -0.888832 3.40283 0
M  V30 1685 H 152.283 -2.53084 2.79693 0
M  V30 1686 H 154.67 -2.31617 1.8286 0
M  V30 1687 H 154.751 -0.668717 2.46904 0
M  V30 1688 H 154.395 -1.59043 4.82357 0
M  V30 1689 H 154.325 -3.23904 4.15203 0
M  V30 1690 H 156.816 -1.99291 3.21079 0
M  V30 1691 H 157.129 -3.53084 6.87424 0
M  V30 1692 H 155.474 -3.18156 6.17901 0
M  V30 1693 H 158.665 -2.39661 4.02095 0
M  V30 1694 H 158.838 -3.09812 5.6914 0
M  V30 1695 N 152.244 -1.26651 -0.937939 0
M  V30 1696 C 153.472 -1.15173 -1.7188 0
M  V30 1697 C 153.887 0.292668 -1.86518 0
M  V30 1698 O 153.244 1.20014 -1.37488 0
M  V30 1699 C 153.295 -1.81925 -3.12387 0
M  V30 1700 O 153.016 -3.2072 -2.98446 0
M  V30 1701 C 154.517 -1.76442 -4.06673 0
M  V30 1702 H 151.737 -0.400911 -0.538063 0
M  V30 1703 H 154.281 -1.67332 -1.1756 0
M  V30 1704 H 152.436 -1.33696 -3.63599 0
M  V30 1705 H 152.85 -3.53802 -3.872 0
M  V30 1706 H 154.324 -2.27781 -5.02812 0
M  V30 1707 H 154.801 -0.731608 -4.33064 0
M  V30 1708 H 155.407 -2.24238 -3.61382 0
M  V30 1709 N 153.722 1.14298 -1.08507 0
M  V30 1710 C 154.968 1.85633 -0.816581 0
M  V30 1711 C 155.301 1.82784 0.656021 0
M  V30 1712 O 154.576 1.25926 1.48233 0
M  V30 1713 C 154.859 3.34223 -1.34041 0
M  V30 1714 C 154.712 3.45639 -2.87843 0
M  V30 1715 C 156.031 4.29356 -0.9665 0
M  V30 1716 H 153.15 0.67402 -0.298104 0
M  V30 1717 H 155.792 1.34214 -1.34487 0
M  V30 1718 H 153.942 3.78144 -0.89104 0
M  V30 1719 H 155.614 3.10498 -3.41158 0
M  V30 1720 H 153.857 2.86817 -3.25451 0
M  V30 1721 H 154.528 4.50089 -3.19569 0
M  V30 1722 H 157.004 3.93457 -1.35391 0
M  V30 1723 H 155.88 5.3178 -1.3602 0
M  V30 1724 H 156.141 4.41919 0.126362 0
M  V30 1725 N 155.201 0.870884 1.31352 0
M  V30 1726 C 156.151 0.298889 2.26032 0
M  V30 1727 C 157.135 -0.564595 1.50669 0
M  V30 1728 O 158.327 -0.411323 1.72154 0
M  V30 1729 C 155.456 -0.497842 3.39671 0
M  V30 1730 C 154.542 0.378937 4.22404 0
M  V30 1731 N 154.933 1.47284 4.83881 0
M  V30 1732 C 153.231 0.171535 4.4567 0
M  V30 1733 C 153.932 2.01359 5.45738 0
M  V30 1734 N 152.908 1.31047 5.27568 0
M  V30 1735 H 156.71 1.13494 2.71102 0
M  V30 1736 H 154.224 0.718745 1.45629 0
M  V30 1737 H 156.221 -0.924155 4.06528 0
M  V30 1738 H 154.881 -1.33149 2.96144 0
M  V30 1739 H 155.892 1.85575 4.8351 0
M  V30 1740 H 152.569 -0.626091 4.12779 0
M  V30 1741 H 153.959 2.93143 6.0458 0
M  V30 1742 N 156.679 -1.44442 0.630414 0
M  V30 1743 C 158.09 -1.85434 0.217063 0
M  V30 1744 C 158.441 -1.52748 -1.23136 0
M  V30 1745 O 157.566 -0.965205 -1.93682 0
M  V30 1746 C 158.161 -3.36581 0.387168 0
M  V30 1747 C 156.72 -3.76389 0.0283297 0
M  V30 1748 C 155.867 -2.68296 0.700889 0
M  V30 1749 H 158.818 -1.34919 0.83562 0
M  V30 1750 H 158.839 -3.78657 -0.374086 0
M  V30 1751 H 158.351 -3.60339 1.44144 0
M  V30 1752 H 156.452 -3.58246 -1.02423 0
M  V30 1753 H 156.565 -4.77095 0.437892 0
M  V30 1754 H 154.929 -2.54335 0.136267 0
M  V30 1755 H 155.712 -2.94887 1.75774 0
M  V30 1756 N 158.157 -0.370918 -1.53173 0
M  V30 1757 C 159.105 0.488101 -2.27421 0
M  V30 1758 C 160.099 1.07884 -1.30604 0
M  V30 1759 O 161.305 1.02143 -1.48212 0
M  V30 1760 H 157.68 0.176134 -0.731082 0
M  V30 1761 H 159.651 -0.159815 -2.97972 0
M  V30 1762 C 158.4 1.61306 -3.08019 0
M  V30 1763 H 157.723 1.1678 -3.82364 0
M  V30 1764 H 159.163 2.18872 -3.63141 0
M  V30 1765 C 157.622 2.55848 -2.19188 0
M  V30 1766 O 158.152 3.58799 -1.80626 0
M  V30 1767 N 156.358 2.2516 -1.83715 0
M  V30 1768 H 155.905 1.41476 -2.15273 0
M  V30 1769 H 155.863 2.8867 -1.24567 0
M  V30 1770 N 159.635 1.57281 -0.100228 0
M  V30 1771 C 160.86 1.99302 0.573881 0
M  V30 1772 C 161.285 0.979059 1.60611 0
M  V30 1773 O 160.643 -0.0517803 1.81226 0
M  V30 1774 C 160.691 3.40274 1.19358 0
M  V30 1775 O 159.795 3.41676 2.30935 0
M  V30 1776 H 159.136 0.647944 0.145138 0
M  V30 1777 H 161.666 2.03779 -0.183156 0
M  V30 1778 H 161.676 3.78078 1.53365 0
M  V30 1779 H 160.351 4.13594 0.437385 0
M  V30 1780 H 158.928 3.15672 1.98509 0
M  V30 1781 N 161.113 -0.173488 1.56642 0
M  V30 1782 C 162.524 -0.736155 1.71574 0
M  V30 1783 C 162.875 -1.82888 0.710389 0
M  V30 1784 O 162 -2.16017 -0.1287 0
M  V30 1785 C 162.595 -1.34211 3.11083 0
M  V30 1786 C 161.154 -1.85162 3.27707 0
M  V30 1787 C 160.301 -0.729765 2.67525 0
M  V30 1788 H 163.252 0.0518786 1.58615 0
M  V30 1789 H 163.273 -2.21178 3.09613 0
M  V30 1790 H 162.785 -0.546579 3.84232 0
M  V30 1791 H 160.886 -2.67366 2.59512 0
M  V30 1792 H 160.999 -1.99855 4.35425 0
M  V30 1793 H 159.363 -1.14965 2.27278 0
M  V30 1794 H 160.146 0.0538806 3.43258 0
M  V30 1795 N 162.591 -1.51276 -0.441967 0
M  V30 1796 C 163.839 -1.63392 -1.18943 0
M  V30 1797 C 164.16 -0.350159 -1.9183 0
M  V30 1798 O 163.43 0.633784 -1.85364 0
M  V30 1799 H 162.01 -0.602164 -0.442049 0
M  V30 1800 H 164.672 -1.88186 -0.507165 0
M  V30 1801 H 163.768 -2.45934 -1.92154 0
M  V30 1802 N 164.069 0.697108 -1.41344 0
M  V30 1803 C 165.318 1.45279 -1.39918 0
M  V30 1804 C 165.631 1.95597 -0.0109624 0
M  V30 1805 O 166.837 2.71208 0.125919 0
M  V30 1806 C 165.293 2.62695 -2.46007 0
M  V30 1807 C 164.901 2.19169 -3.90729 0
M  V30 1808 C 166.645 3.40336 -2.53715 0
M  V30 1809 C 164.552 3.33535 -4.88373 0
M  V30 1810 H 163.482 0.545692 -0.520323 0
M  V30 1811 H 166.133 0.756929 -1.67161 0
M  V30 1812 H 164.515 3.34541 -2.11892 0
M  V30 1813 H 165.689 1.54623 -4.34083 0
M  V30 1814 H 164.004 1.54525 -3.86666 0
M  V30 1815 H 166.601 4.2547 -3.2385 0
M  V30 1816 H 166.944 3.85418 -1.5735 0
M  V30 1817 H 167.477 2.75546 -2.86913 0
M  V30 1818 H 164.216 2.93468 -5.86137 0
M  V30 1819 H 163.736 3.96936 -4.49668 0
M  V30 1820 H 165.415 3.99335 -5.09059 0
M  V30 1821 N 165.547 1.27147 0.931209 0
M  V30 1822 C 166.958 1.12044 1.49342 0
M  V30 1823 C 167.309 -0.295795 1.93957 0
M  V30 1824 O 166.434 -1.18835 1.80852 0
M  V30 1825 C 167.029 2.02781 2.71414 0
M  V30 1826 C 165.588 1.91794 3.2387 0
M  V30 1827 C 164.735 1.95543 1.96617 0
M  V30 1828 H 167.686 1.40091 0.745672 0
M  V30 1829 H 167.707 1.58156 3.46074 0
M  V30 1830 H 167.219 3.05848 2.38911 0
M  V30 1831 H 165.32 0.916992 3.6114 0
M  V30 1832 H 165.433 2.77852 3.90302 0
M  V30 1833 H 163.797 1.39722 2.12955 0
M  V30 1834 H 164.58 3.00259 1.66432 0
M  V30 1835 N 167.025 -1.13721 1.09112 0
M  V30 1836 C 168.255 -1.88499 0.845671 0
M  V30 1837 C 168.663 -1.79218 -0.606432 0
M  V30 1838 O 168.006 -1.1544 -1.42896 0
M  V30 1839 C 168.068 -3.38954 1.19793 0
M  V30 1840 C 167.732 -3.72018 2.65428 0
M  V30 1841 C 168.729 -3.7153 3.63677 0
M  V30 1842 C 166.414 -4.01775 3.01467 0
M  V30 1843 C 168.408 -4.00336 4.95994 0
M  V30 1844 C 166.095 -4.30243 4.33975 0
M  V30 1845 C 167.093 -4.29508 5.31048 0
M  V30 1846 O 166.781 -4.5728 6.61173 0
M  V30 1847 H 166.513 -0.603702 0.304171 0
M  V30 1848 H 169.067 -1.44903 1.45576 0
M  V30 1849 H 167.297 -3.83039 0.530871 0
M  V30 1850 H 168.986 -3.95052 0.932146 0
M  V30 1851 H 169.752 -3.4862 3.37179 0
M  V30 1852 H 165.631 -4.01496 2.26544 0
M  V30 1853 H 169.175 -3.99678 5.71755 0
M  V30 1854 H 165.072 -4.52625 4.60219 0
M  V30 1855 H 165.84 -4.74964 6.66597 0
M  V30 1856 N 168.503 -0.877838 -1.30888 0
M  V30 1857 C 169.919 -0.570844 -1.49042 0
M  V30 1858 C 170.119 0.893159 -1.80624 0
M  V30 1859 O 169.175 1.67485 -1.88958 0
M  V30 1860 C 170.488 -1.47784 -2.61878 0
M  V30 1861 C 172.036 -1.48071 -2.75761 0
M  V30 1862 C 172.511 -2.37347 -3.91702 0
M  V30 1863 N 174.002 -2.35271 -3.99001 0
M  V30 1864 C 174.737 -3.01063 -4.88004 0
M  V30 1865 N 174.233 -3.76055 -5.81854 0
M  V30 1866 N 176.026 -2.90332 -4.81315 0
M  V30 1867 H 168.177 -1.82502 -1.0866 0
M  V30 1868 H 170.44 -0.780797 -0.537644 0
M  V30 1869 H 170.146 -2.51993 -2.45341 0
M  V30 1870 H 170.02 -1.18215 -3.58197 0
M  V30 1871 H 172.407 -0.446166 -2.91708 0
M  V30 1872 H 172.488 -1.81668 -1.80085 0
M  V30 1873 H 172.132 -3.40883 -3.76512 0
M  V30 1874 H 172.062 -2.01071 -4.86701 0
M  V30 1875 H 174.553 -1.80768 -3.3186 0
M  V30 1876 H 174.866 -4.23366 -6.46514 0
M  V30 1877 H 173.211 -3.80163 -5.81808 0
M  V30 1878 H 176.402 -2.31278 -4.06974 0
M  V30 1879 H 176.575 -3.41885 -5.50471 0
M  V30 1880 N 169.982 1.44106 -0.638065 0
M  V30 1881 C 171.21 2.06336 -0.152615 0
M  V30 1882 C 171.625 1.47731 1.17563 0
M  V30 1883 O 170.982 0.602806 1.72257 0
M  V30 1884 C 171.033 3.61479 -0.0391491 0
M  V30 1885 O 170.754 4.17903 -1.31487 0
M  V30 1886 C 172.255 4.40757 0.474176 0
M  V30 1887 H 169.475 0.665862 -0.0828776 0
M  V30 1888 H 172.019 1.84862 -0.87443 0
M  V30 1889 H 170.174 3.82191 0.633142 0
M  V30 1890 H 170.588 5.11416 -1.16421 0
M  V30 1891 H 172.062 5.49707 0.502562 0
M  V30 1892 H 172.539 4.12697 1.50258 0
M  V30 1893 H 173.145 4.24979 -0.165102 0
M  V30 1894 N 171.46 0.379036 1.52974 0
M  V30 1895 C 172.39 -0.452706 2.29069 0
M  V30 1896 C 173.371 -1.07237 1.32039 0
M  V30 1897 O 174.556 -1.08708 1.60923 0
M  V30 1898 C 171.686 -1.5856 3.08992 0
M  V30 1899 C 170.64 -1.0925 4.13822 0
M  V30 1900 C 169.966 -2.31668 4.81907 0
M  V30 1901 C 171.266 -0.167702 5.22031 0
M  V30 1902 H 172.96 0.182181 2.98845 0
M  V30 1903 H 170.506 0.0890592 1.43724 0
M  V30 1904 H 172.459 -2.1742 3.6098 0
M  V30 1905 H 171.183 -2.24792 2.36931 0
M  V30 1906 H 169.842 -0.526494 3.628 0
M  V30 1907 H 169.49 -2.96386 4.06404 0
M  V30 1908 H 169.19 -1.9934 5.52754 0
M  V30 1909 H 170.714 -2.91189 5.36695 0
M  V30 1910 H 172.128 -0.664186 5.6944 0
M  V30 1911 H 170.525 0.0653265 6.00064 0
M  V30 1912 H 171.595 0.786347 4.78482 0
M  V30 1913 N 172.938 -1.57226 0.108567 0
M  V30 1914 C 173.848 -2.18292 -0.859401 0
M  V30 1915 C 174.864 -1.15612 -1.30038 0
M  V30 1916 O 176.04 -1.48039 -1.36552 0
M  V30 1917 C 173.105 -2.762 -2.09558 0
M  V30 1918 C 172.166 -3.93881 -1.70752 0
M  V30 1919 C 171.399 -4.49018 -2.88477 0
M  V30 1920 O 171.622 -4.03068 -4.036 0
M  V30 1921 O 170.556 -5.39852 -2.66164 0
M  V30 1922 H 174.382 -3.01441 -0.369769 0
M  V30 1923 H 171.967 -1.48945 -0.1165 0
M  V30 1924 H 173.849 -3.13156 -2.81978 0
M  V30 1925 H 172.524 -1.96089 -2.57548 0
M  V30 1926 H 171.431 -3.61713 -0.954714 0
M  V30 1927 H 172.764 -4.75396 -1.27513 0
M  V30 1928 N 174.416 0.165178 -1.56732 0
M  V30 1929 C 175.827 0.727046 -1.71962 0
M  V30 1930 C 176.178 1.82508 -0.720078 0
M  V30 1931 O 175.303 2.16082 0.117242 0
M  V30 1932 C 175.898 1.32559 -3.11791 0
M  V30 1933 C 174.457 1.83422 -3.28684 0
M  V30 1934 C 173.604 0.715567 -2.67908 0
M  V30 1935 H 176.555 -0.0602896 -1.58585 0
M  V30 1936 H 176.576 2.19533 -3.10782 0
M  V30 1937 H 176.088 0.526195 -3.84516 0
M  V30 1938 H 174.189 2.65986 -2.60926 0
M  V30 1939 H 174.302 1.97543 -4.36478 0
M  V30 1940 H 172.666 1.13758 -2.27884 0
M  V30 1941 H 173.449 -0.0720836 -3.43224 0
M  V30 1942 N 175.894 1.51508 0.433938 0
M  V30 1943 C 176.824 1.76016 1.53429 0
M  V30 1944 C 177.805 0.610112 1.58782 0
M  V30 1945 O 178.99 0.853177 1.74455 0
M  V30 1946 C 176.12 1.88831 2.9148 0
M  V30 1947 C 175.074 3.04288 3.00987 0
M  V30 1948 C 174.4 3.0229 4.4105 0
M  V30 1949 C 175.7 4.44193 2.74754 0
M  V30 1950 H 177.394 2.68152 1.33171 0
M  V30 1951 H 174.94 1.29035 0.639214 0
M  V30 1952 H 176.893 2.04559 3.6842 0
M  V30 1953 H 175.617 0.933455 3.12976 0
M  V30 1954 H 174.276 2.8827 2.26486 0
M  V30 1955 H 173.924 2.04576 4.59519 0
M  V30 1956 H 173.624 3.79822 4.4834 0
M  V30 1957 H 175.148 3.20116 5.1996 0
M  V30 1958 H 176.562 4.60544 3.41426 0
M  V30 1959 H 174.959 5.23457 2.9345 0
M  V30 1960 H 176.029 4.53996 1.70339 0
M  V30 1961 N 177.372 -0.689602 1.41712 0
M  V30 1962 C 178.282 -1.83314 1.46401 0
M  V30 1963 C 179.298 -1.7036 0.35405 0
M  V30 1964 O 180.474 -1.92171 0.602692 0
M  V30 1965 C 177.539 -3.19344 1.34982 0
M  V30 1966 C 176.6 -3.44363 2.56344 0
M  V30 1967 C 175.833 -4.73904 2.45461 0
M  V30 1968 O 176.056 -5.508 1.48241 0
M  V30 1969 O 174.99 -4.99839 3.35328 0
M  V30 1970 H 178.816 -1.82314 2.42889 0
M  V30 1971 H 176.401 -0.843438 1.23315 0
M  V30 1972 H 178.283 -4.00547 1.3092 0
M  V30 1973 H 176.958 -3.21014 0.41612 0
M  V30 1974 H 175.865 -2.63067 2.65982 0
M  V30 1975 H 177.198 -3.47512 3.48563 0
M  V30 1976 N 178.85 -1.27639 -0.924453 0
M  V30 1977 C 180.078 -1.16989 -1.70649 0
M  V30 1978 C 180.493 0.272869 -1.86818 0
M  V30 1979 O 179.85 1.18549 -1.38753 0
M  V30 1980 C 179.901 -1.85229 -3.10439 0
M  V30 1981 O 179.622 -3.23868 -2.95028 0
M  V30 1982 C 181.123 -1.80746 -4.04779 0
M  V30 1983 H 178.343 -0.406595 -0.53378 0
M  V30 1984 H 180.887 -1.68569 -1.15778 0
M  V30 1985 H 179.042 -1.37545 -3.6216 0
M  V30 1986 H 179.456 -3.57889 -3.83426 0
M  V30 1987 H 180.93 -2.33101 -5.00368 0
M  V30 1988 H 181.407 -0.777499 -4.32263 0
M  V30 1989 H 182.013 -2.28059 -3.58984 0
M  V30 1990 N 180.328 1.1314 -1.09713 0
M  V30 1991 C 181.238 2.22242 -0.751367 0
M  V30 1992 C 182.254 1.72224 0.247938 0
M  V30 1993 O 183.43 2.01205 0.0885463 0
M  V30 1994 C 180.495 3.46231 -0.180274 0
M  V30 1995 C 179.556 4.11125 -1.2359 0
M  V30 1996 C 178.789 5.29195 -0.691966 0
M  V30 1997 O 179.012 5.68342 0.48414 0
M  V30 1998 O 177.946 5.84214 -1.44838 0
M  V30 1999 H 181.772 2.54197 -1.66186 0
M  V30 2000 H 179.357 1.21331 -0.871735 0
M  V30 2001 H 181.239 4.21185 0.134739 0
M  V30 2002 H 179.914 3.1597 0.703185 0
M  V30 2003 H 178.821 3.37985 -1.60366 0
M  V30 2004 H 180.154 4.45524 -2.09211 0
M  V30 2005 N 181.806 0.884767 1.30421 0
M  V30 2006 C 183.054 0.502112 1.95763 0
M  V30 2007 C 183.375 -0.951815 1.70192 0
M  V30 2008 O 182.645 -1.6692 1.0254 0
M  V30 2009 H 181.225 0.182694 0.724315 0
M  V30 2010 H 183.887 1.1278 1.58955 0
M  V30 2011 H 182.983 0.672188 3.04775 0
M  V30 2012 N 183.284 -1.43765 0.645699 0
M  V30 2013 C 184.247 -2.29163 -0.0409488 0
M  V30 2014 C 185.247 -1.41813 -0.757996 0
M  V30 2015 O 186.437 -1.63527 -0.600382 0
M  V30 2016 C 183.569 -3.23716 -1.06869 0
M  V30 2017 H 184.762 -2.91366 0.710345 0
M  V30 2018 H 182.315 -1.5092 0.406547 0
M  V30 2019 H 183.05 -2.66393 -1.84947 0
M  V30 2020 H 182.835 -3.88105 -0.558277 0
M  V30 2021 H 184.325 -3.87831 -1.54845 0
M  V30 2022 N 184.763 -0.387143 -1.52771 0
M  V30 2023 C 185.991 0.195869 -2.05971 0
M  V30 2024 C 186.406 1.40691 -1.25903 0
M  V30 2025 O 185.763 1.79931 -0.305134 0
M  V30 2026 C 185.814 0.56812 -3.57008 0
M  V30 2027 O 185.535 -0.594803 -4.34043 0
M  V30 2028 C 187.036 1.20723 -4.26545 0
M  V30 2029 H 184.256 0.0300578 -0.670326 0
M  V30 2030 H 186.8 -0.551749 -1.96916 0
M  V30 2031 H 184.955 1.26564 -3.66143 0
M  V30 2032 H 185.369 -0.289322 -5.23701 0
M  V30 2033 H 186.843 1.41807 -5.33474 0
M  V30 2034 H 187.32 2.17395 -3.81623 0
M  V30 2035 H 187.926 0.550535 -4.21722 0
M  V30 2036 N 186.241 1.57166 -0.116904 0
M  V30 2037 C 187.657 1.5779 0.239693 0
M  V30 2038 C 187.857 1.1295 1.66867 0
M  V30 2039 O 186.913 0.81592 2.38954 0
M  V30 2040 C 188.226 3.00699 0.00828202 0
M  V30 2041 C 189.774 3.12912 0.0743438 0
M  V30 2042 C 190.249 4.57817 -0.129348 0
M  V30 2043 N 191.74 4.63139 -0.075247 0
M  V30 2044 C 192.475 5.73023 -0.207788 0
M  V30 2045 N 191.971 6.91665 -0.396382 0
M  V30 2046 N 193.764 5.61906 -0.14751 0
M  V30 2047 H 185.915 1.84615 -1.05029 0
M  V30 2048 H 188.178 0.85311 -0.41341 0
M  V30 2049 H 187.884 3.37784 -0.979531 0
M  V30 2050 H 187.758 3.69848 0.741077 0
M  V30 2051 H 190.145 2.75686 1.05268 0
M  V30 2052 H 190.226 2.4631 -0.690297 0
M  V30 2053 H 189.87 4.95742 -1.10465 0
M  V30 2054 H 189.8 5.22507 0.655253 0
M  V30 2055 H 192.291 3.7784 0.0670898 0
M  V30 2056 H 192.604 7.71255 -0.488437 0
M  V30 2057 H 190.949 6.93654 -0.432329 0
M  V30 2058 H 194.14 4.681 -0.00115036 0
M  V30 2059 H 194.313 6.47501 -0.254247 0
M  V30 2060 N 187.719 -0.156864 1.56817 0
M  V30 2061 C 188.944 -0.890331 1.87318 0
M  V30 2062 C 189.369 -1.74394 0.704855 0
M  V30 2063 O 188.727 -1.77972 -0.345786 0
M  V30 2064 C 188.775 -1.73102 3.16336 0
M  V30 2065 O 187.879 -2.83422 2.99576 0
M  V30 2066 H 187.22 -0.24857 0.615718 0
M  V30 2067 H 189.75 -0.150649 2.04045 0
M  V30 2068 H 189.76 -2.12803 3.48107 0
M  V30 2069 H 188.435 -1.10412 4.00976 0
M  V30 2070 H 187.012 -2.47199 2.7919 0
M  V30 2071 N 189.197 -1.51736 -0.425897 0
M  V30 2072 C 190.13 -1.68574 -1.53812 0
M  V30 2073 C 191.108 -0.53328 -1.53606 0
M  V30 2074 O 192.292 -0.758555 -1.72564 0
M  V30 2075 C 189.419 -1.70977 -2.92377 0
M  V30 2076 C 188.465 -2.92324 -3.10563 0
M  V30 2077 S 189.298 -4.52952 -2.85648 0
M  V30 2078 C 190.454 -4.58117 -4.26474 0
M  V30 2079 H 190.687 -2.62647 -1.39298 0
M  V30 2080 H 188.22 -1.41564 -0.616361 0
M  V30 2081 H 190.178 -1.73047 -3.72243 0
M  V30 2082 H 188.839 -0.78061 -3.04245 0
M  V30 2083 H 188.032 -2.90439 -4.11899 0
M  V30 2084 H 187.634 -2.88055 -2.38538 0
M  V30 2085 H 189.926 -4.34462 -5.19855 0
M  V30 2086 H 190.869 -5.59983 -4.33388 0
M  V30 2087 H 191.277 -3.8732 -4.10662 0
M  V30 2088 N 190.675 0.682077 -1.42076 0
M  V30 2089 C 191.605 1.80796 -1.47767 0
M  V30 2090 C 192.586 1.6677 -0.334954 0
M  V30 2091 O 193.771 1.863 -0.548264 0
M  V30 2092 C 190.901 3.19038 -1.37229 0
M  V30 2093 C 189.855 3.47789 -2.49453 0
M  V30 2094 C 189.181 4.8553 -2.23975 0
M  V30 2095 C 190.481 3.45411 -3.91776 0
M  V30 2096 H 192.175 1.7629 -2.41997 0
M  V30 2097 H 189.721 0.846721 -1.16476 0
M  V30 2098 H 191.674 3.97528 -1.39821 0
M  V30 2099 H 190.398 3.24204 -0.394907 0
M  V30 2100 H 189.057 2.71657 -2.46166 0
M  V30 2101 H 188.705 4.87337 -1.24547 0
M  V30 2102 H 188.405 5.0573 -2.99184 0
M  V30 2103 H 189.929 5.66312 -2.28304 0
M  V30 2104 H 191.343 4.13882 -3.96705 0
M  V30 2105 H 189.74 3.77145 -4.66778 0
M  V30 2106 H 190.81 2.44122 -4.18966 0
M  V30 2107 N 192.153 1.28127 0.917671 0
M  V30 2108 C 193.378 1.18007 1.70555 0
M  V30 2109 C 193.803 -0.258257 1.86319 0
M  V30 2110 O 193.161 -1.1869 1.37049 0
M  V30 2111 C 193.209 1.87948 3.07746 0
M  V30 2112 O 192.313 1.18427 3.9503 0
M  V30 2113 H 191.654 0.409867 0.522403 0
M  V30 2114 H 194.184 1.69379 1.1477 0
M  V30 2115 H 194.194 1.95701 3.58001 0
M  V30 2116 H 192.869 2.92573 2.95591 0
M  V30 2117 H 191.446 1.18811 3.53466 0
M  V30 2118 N 193.631 -1.12557 1.10312 0
M  V30 2119 C 194.856 -1.88405 0.867085 0
M  V30 2120 C 195.281 -1.79038 -0.576817 0
M  V30 2121 O 194.639 -1.14439 -1.40618 0
M  V30 2122 C 194.687 -3.3563 1.31851 0
M  V30 2123 O 193.791 -4.09565 0.482734 0
M  V30 2124 H 193.132 -0.585455 0.313271 0
M  V30 2125 H 195.662 -1.42352 1.4696 0
M  V30 2126 H 195.672 -3.86469 1.3079 0
M  V30 2127 H 194.347 -3.41765 2.37001 0
M  V30 2128 H 192.924 -3.68695 0.558448 0
M  V30 2129 N 195.109 -0.891671 -1.2995 0
M  V30 2130 C 196.356 -0.513501 -1.95881 0
M  V30 2131 C 196.684 0.938655 -1.70351 0
M  V30 2132 O 195.939 1.67936 -1.00478 0
M  V30 2133 C 196.238 -0.742868 -3.49594 0
M  V30 2134 C 195.904 -2.17114 -3.95186 0
M  V30 2135 C 194.566 -2.56169 -4.07346 0
M  V30 2136 C 196.918 -3.10162 -4.18866 0
M  V30 2137 C 194.246 -3.87469 -4.4055 0
M  V30 2138 C 196.598 -4.41001 -4.53542 0
M  V30 2139 C 195.262 -4.79941 -4.63911 0
M  V30 2140 H 194.532 -0.187903 -0.71678 0
M  V30 2141 H 197.179 -1.1288 -1.54694 0
M  V30 2142 H 195.484 -0.044586 -3.91775 0
M  V30 2143 H 197.181 -0.429767 -3.9869 0
M  V30 2144 H 193.771 -1.85801 -3.86233 0
M  V30 2145 H 197.955 -2.81206 -4.08946 0
M  V30 2146 H 193.211 -4.17371 -4.46779 0
M  V30 2147 H 197.385 -5.13133 -4.70815 0
M  V30 2148 H 195.012 -5.81719 -4.89395 0
M  V30 2149 N 196.587 1.43421 -0.653314 0
M  V30 2150 C 197.517 2.33487 0.0246656 0
M  V30 2151 C 198.498 1.49475 0.811863 0
M  V30 2152 O 199.683 1.78139 0.773322 0
M  V30 2153 C 196.813 3.32841 0.99166 0
M  V30 2154 C 195.767 4.26842 0.314568 0
M  V30 2155 C 195.093 5.16236 1.39302 0
M  V30 2156 C 196.393 5.16243 -0.793095 0
M  V30 2157 H 198.087 2.90427 -0.727481 0
M  V30 2158 H 195.633 1.39649 -0.351287 0
M  V30 2159 H 197.586 3.94747 1.47487 0
M  V30 2160 H 196.31 2.74158 1.77497 0
M  V30 2161 H 194.969 3.663 -0.148199 0
M  V30 2162 H 194.617 4.53891 2.16776 0
M  V30 2163 H 194.317 5.79948 0.945223 0
M  V30 2164 H 195.841 5.81015 1.87759 0
M  V30 2165 H 197.255 5.71958 -0.392039 0
M  V30 2166 H 195.652 5.88676 -1.16536 0
M  V30 2167 H 196.722 4.55927 -1.65103 0
M  V30 2168 N 198.065 0.39524 1.52563 0
M  V30 2169 C 199.476 -0.0774719 1.86539 0
M  V30 2170 C 199.827 -1.45641 1.31466 0
M  V30 2171 O 198.952 -2.06459 0.648367 0
M  V30 2172 C 199.547 -0.147356 3.38479 0
M  V30 2173 C 198.106 -0.564373 3.72145 0
M  V30 2174 C 197.253 0.269919 2.75983 0
M  V30 2175 H 200.204 0.612876 1.46388 0
M  V30 2176 H 200.225 -0.965343 3.68051 0
M  V30 2177 H 199.737 0.856387 3.78534 0
M  V30 2178 H 197.838 -1.57527 3.37663 0
M  V30 2179 H 197.951 -0.318402 4.78041 0
M  V30 2180 H 196.315 -0.265696 2.5331 0
M  V30 2181 H 197.098 1.27175 3.18875 0
M  V30 2182 N 199.544 -1.57102 0.125237 0
M  V30 2183 C 200.955 -1.82384 -0.399142 0
M  V30 2184 C 201.306 -1.04276 -1.66195 0
M  V30 2185 O 200.431 -0.281269 -2.14564 0
M  V30 2186 C 201.026 -3.30821 -0.730932 0
M  V30 2187 C 199.585 -3.56762 -1.19992 0
M  V30 2188 C 198.732 -2.7649 -0.211792 0
M  V30 2189 H 201.683 -1.54786 0.350277 0
M  V30 2190 H 201.704 -3.4579 -1.58775 0
M  V30 2191 H 201.216 -3.87643 0.188345 0
M  V30 2192 H 199.317 -3.05305 -2.13588 0
M  V30 2193 H 199.43 -4.65317 -1.14093 0
M  V30 2194 H 197.794 -2.4489 -0.700085 0
M  V30 2195 H 198.577 -3.36073 0.700691 0
M  V30 2196 N 201.022 0.148545 -1.56898 0
M  V30 2197 C 202.268 0.862694 -1.83536 0
M  V30 2198 C 202.601 1.80889 -0.706604 0
M  V30 2199 O 201.876 1.92328 0.289885 0
M  V30 2200 C 202.159 1.63853 -3.20662 0
M  V30 2201 C 202.012 0.713925 -4.44098 0
M  V30 2202 C 203.331 2.60133 -3.54991 0
M  V30 2203 H 200.45 0.312179 -0.667618 0
M  V30 2204 H 203.092 0.127953 -1.89569 0
M  V30 2205 H 201.242 2.26489 -3.1565 0
M  V30 2206 H 202.914 0.098686 -4.61194 0
M  V30 2207 H 201.157 0.0234019 -4.33794 0
M  V30 2208 H 201.828 1.29278 -5.36648 0
M  V30 2209 H 204.304 2.07616 -3.60603 0
M  V30 2210 H 203.18 3.11468 -4.51972 0
M  V30 2211 H 203.441 3.41417 -2.80868 0
M  V30 2212 N 202.5 1.5196 0.417844 0
M  V30 2213 C 203.911 1.57851 0.997 0
M  V30 2214 C 204.262 0.413714 1.91789 0
M  V30 2215 O 203.387 -0.467057 2.113 0
M  V30 2216 C 203.982 2.86085 1.81496 0
M  V30 2217 C 202.541 2.94483 2.34428 0
M  V30 2218 C 201.688 2.52707 1.14169 0
M  V30 2219 H 204.639 1.57455 0.198392 0
M  V30 2220 H 204.66 2.70947 2.67148 0
M  V30 2221 H 204.172 3.70842 1.14446 0
M  V30 2222 H 202.273 2.142 3.04875 0
M  V30 2223 H 202.386 3.98546 2.65891 0
M  V30 2224 H 200.75 2.06353 1.49301 0
M  V30 2225 H 201.533 3.39828 0.486999 0
M  V30 2226 N 203.978 -0.674533 1.42435 0
M  V30 2227 C 205.203 -1.46784 1.46524 0
M  V30 2228 C 205.628 -1.87938 0.078066 0
M  V30 2229 O 204.986 -1.56014 -0.92354 0
M  V30 2230 C 205.034 -2.69307 2.39805 0
M  V30 2231 O 204.138 -3.67587 1.86959 0
M  V30 2232 H 203.479 -0.440959 0.496439 0
M  V30 2233 H 206.009 -0.827326 1.87127 0
M  V30 2234 H 206.019 -3.17374 2.56393 0
M  V30 2235 H 204.694 -2.38692 3.40586 0
M  V30 2236 H 203.271 -3.2662 1.79927 0
M  V30 2237 N 205.456 -1.28612 -0.910864 0
M  V30 2238 C 206.386 -1.15326 -2.03032 0
M  V30 2239 C 207.367 -0.0502924 -1.70026 0
M  V30 2240 O 208.552 -0.227797 -1.92859 0
M  V30 2241 C 205.682 -0.817343 -3.37545 0
M  V30 2242 C 204.636 -1.8754 -3.84724 0
M  V30 2243 C 203.962 -1.39305 -5.16235 0
M  V30 2244 C 205.262 -3.28244 -4.06267 0
M  V30 2245 H 206.956 -2.08975 -2.14406 0
M  V30 2246 H 204.502 -1.00612 -1.03021 0
M  V30 2247 H 206.455 -0.711151 -4.15356 0
M  V30 2248 H 205.179 0.154846 -3.26233 0
M  V30 2249 H 203.838 -1.97079 -3.09121 0
M  V30 2250 H 203.486 -0.409846 -5.01328 0
M  V30 2251 H 203.186 -2.10057 -5.48771 0
M  V30 2252 H 204.71 -1.30014 -5.96598 0
M  V30 2253 H 206.124 -3.21611 -4.74594 0
M  V30 2254 H 204.521 -3.96855 -4.5014 0
M  V30 2255 H 205.591 -3.72048 -3.10979 0
M  V30 2256 N 206.934 1.1197 -1.10907 0
M  V30 2257 C 208.345 1.65114 -0.871446 0
M  V30 2258 C 208.696 1.86885 0.597353 0
M  V30 2259 O 207.821 1.59896 1.45816 0
M  V30 2260 C 208.416 2.99944 -1.5754 0
M  V30 2261 C 206.975 3.50018 -1.38435 0
M  V30 2262 C 206.122 2.24941 -1.62164 0
M  V30 2263 H 209.073 0.956851 -1.2661 0
M  V30 2264 H 209.094 3.66651 -1.01721 0
M  V30 2265 H 208.606 2.84067 -2.64438 0
M  V30 2266 H 206.707 3.71071 -0.337214 0
M  V30 2267 H 206.82 4.29165 -2.12965 0
M  V30 2268 H 205.184 2.3229 -1.04467 0
M  V30 2269 H 205.967 2.11612 -2.70324 0
M  V30 2270 N 208.412 0.89855 1.29475 0
M  V30 2271 C 209.637 0.538561 2.00285 0
M  V30 2272 C 210.062 -0.869135 1.66816 0
M  V30 2273 O 209.42 -1.57831 0.892145 0
M  V30 2274 C 209.468 0.736475 3.52999 0
M  V30 2275 O 208.572 -0.211537 4.11857 0
M  V30 2276 H 207.913 0.210563 0.62973 0
M  V30 2277 H 210.443 1.20982 1.64998 0
M  V30 2278 H 210.453 0.640685 4.02938 0
M  V30 2279 H 209.128 1.76276 3.76696 0
M  V30 2280 H 207.705 -0.0682991 3.72837 0
M  V30 2281 N 209.89 -1.43072 0.660911 0
M  V30 2282 C 211.167 -1.95307 0.107017 0
M  V30 2283 C 211.547 -1.60192 -1.37484 0
M  V30 2284 O 210.895 -0.890949 -2.10415 0
M  V30 2285 C 211.105 -3.47124 0.361402 0
M  V30 2286 C 212.453 -4.23738 0.270455 0
M  V30 2287 O 213.477 -3.54981 0.294382 0
M  V30 2288 O 212.336 -5.46131 0.200737 0
M  V30 2289 H 209.43 -0.826984 -0.00517729 0
M  V30 2290 H 211.976 -1.52972 0.734681 0
M  V30 2291 H 210.748 -3.65837 1.38848 0
M  V30 2292 H 210.371 -3.96475 -0.298953 0
M  V30 2293 N 211.368 -0.403325 -1.52352 0
M  V30 2294 C 212.779 0.0675782 -1.86578 0
M  V30 2295 C 213.13 1.44941 -1.32236 0
M  V30 2296 O 212.255 2.06112 -0.659307 0
M  V30 2297 C 212.85 0.129404 -3.38553 0
M  V30 2298 C 211.409 0.544629 -3.72439 0
M  V30 2299 C 210.556 -0.284551 -2.75836 0
M  V30 2300 H 213.507 -0.620631 -1.46061 0
M  V30 2301 H 213.528 0.94581 -3.68558 0
M  V30 2302 H 213.04 -0.87645 -3.78074 0
M  V30 2303 H 211.141 1.55734 -3.38493 0
M  V30 2304 H 211.254 0.293046 -4.78203 0
M  V30 2305 H 209.618 0.252258 -2.53448 0
M  V30 2306 H 210.401 -1.28865 -3.18196 0
M  V30 2307 N 212.846 1.57033 -0.133567 0
M  V30 2308 C 214.257 1.82593 0.389464 0
M  V30 2309 C 214.608 1.05156 1.6564 0
M  V30 2310 O 213.733 0.292644 2.14412 0
M  V30 2311 C 214.328 3.31204 0.713377 0
M  V30 2312 C 212.887 3.57393 1.18098 0
M  V30 2313 C 212.034 2.76598 0.197126 0
M  V30 2314 H 214.985 1.54598 -0.358481 0
M  V30 2315 H 215.006 3.46627 1.56939 0
M  V30 2316 H 214.518 3.87537 -0.2089 0
M  V30 2317 H 212.619 3.06433 2.11966 0
M  V30 2318 H 212.732 4.65915 1.11624 0
M  V30 2319 H 211.096 2.45257 0.687088 0
M  V30 2320 H 211.879 3.35697 -0.718504 0
M  V30 2321 N 214.325 -0.140222 1.56975 0
M  V30 2322 C 215.235 -1.19223 2.02047 0
M  V30 2323 C 216.251 -1.46612 0.937062 0
M  V30 2324 O 217.427 -1.58148 1.24704 0
M  V30 2325 C 214.492 -2.50414 2.39778 0
M  V30 2326 C 213.553 -2.30612 3.621 0
M  V30 2327 C 212.786 -3.55547 3.98023 0
M  V30 2328 O 213.009 -4.62004 3.34528 0
M  V30 2329 O 211.943 -3.47808 4.91237 0
M  V30 2330 H 215.769 -0.839559 2.91865 0
M  V30 2331 H 213.354 -0.349453 1.45256 0
M  V30 2332 H 215.236 -3.27747 2.64877 0
M  V30 2333 H 213.911 -2.85198 1.53114 0
M  V30 2334 H 212.818 -1.51207 3.4218 0
M  V30 2335 H 214.151 -2.00741 4.49404 0
M  V30 2336 N 215.803 -1.52179 -0.40978 0
M  V30 2337 C 216.753 -1.71857 -1.49831 0
M  V30 2338 C 217.737 -0.572469 -1.50372 0
M  V30 2339 O 218.929 -0.829509 -1.56359 0
M  V30 2340 C 216.058 -1.87206 -2.87765 0
M  V30 2341 C 215.144 -3.07685 -2.91875 0
M  V30 2342 N 215.535 -4.30403 -2.65683 0
M  V30 2343 C 213.833 -3.07505 -3.23043 0
M  V30 2344 C 214.534 -5.11868 -2.76344 0
M  V30 2345 N 213.51 -4.47101 -3.09195 0
M  V30 2346 H 217.312 -2.64381 -1.28375 0
M  V30 2347 H 214.826 -1.50203 -0.617479 0
M  V30 2348 H 216.823 -1.99419 -3.66111 0
M  V30 2349 H 215.483 -0.958814 -3.10221 0
M  V30 2350 H 216.494 -4.58887 -2.4009 0
M  V30 2351 H 213.171 -2.25915 -3.51096 0
M  V30 2352 H 214.561 -6.19634 -2.59814 0
M  V30 2353 N 217.281 0.66697 -1.42791 0
M  V30 2354 C 218.528 1.42699 -1.43678 0
M  V30 2355 C 218.856 1.94419 -0.0560425 0
M  V30 2356 O 218.111 1.7182 0.936831 0
M  V30 2357 C 218.41 2.6349 -2.4147 0
M  V30 2358 C 218.076 2.30267 -3.8767 0
M  V30 2359 C 216.738 2.20918 -4.27491 0
M  V30 2360 C 219.09 2.03435 -4.79858 0
M  V30 2361 C 216.418 1.82873 -5.57471 0
M  V30 2362 C 218.77 1.66892 -6.10188 0
M  V30 2363 C 217.434 1.56058 -6.49001 0
M  V30 2364 H 216.704 0.522171 -0.525755 0
M  V30 2365 H 219.351 0.759785 -1.75783 0
M  V30 2366 H 217.656 3.35279 -2.0272 0
M  V30 2367 H 219.353 3.21684 -2.39417 0
M  V30 2368 H 215.943 2.38449 -3.56146 0
M  V30 2369 H 220.127 2.09586 -4.49875 0
M  V30 2370 H 215.383 1.7306 -5.86396 0
M  V30 2371 H 219.557 1.45157 -6.81104 0
M  V30 2372 H 217.184 1.26348 -7.49627 0
M  V30 2373 N 218.759 1.29093 0.90403 0
M  V30 2374 C 220.17 1.15186 1.46932 0
M  V30 2375 C 220.521 -0.254587 1.94541 0
M  V30 2376 O 219.646 -1.14972 1.83332 0
M  V30 2377 C 220.241 2.08492 2.67051 0
M  V30 2378 C 218.8 1.98621 3.19729 0
M  V30 2379 C 217.947 1.9967 1.92425 0
M  V30 2380 H 220.898 1.41641 0.715789 0
M  V30 2381 H 220.919 1.65461 3.42641 0
M  V30 2382 H 220.431 3.10847 2.3237 0
M  V30 2383 H 218.532 0.993389 3.59114 0
M  V30 2384 H 218.645 2.86068 3.8432 0
M  V30 2385 H 217.009 1.44208 2.09943 0
M  V30 2386 H 217.792 3.03721 1.60026 0
M  V30 2387 N 220.237 -1.11381 1.11499 0
M  V30 2388 C 221.167 -2.19509 0.796125 0
M  V30 2389 C 222.148 -1.68458 -0.235796 0
M  V30 2390 O 223.333 -1.93947 -0.0991344 0
M  V30 2391 C 220.463 -3.46475 0.239205 0
M  V30 2392 C 219.417 -4.10744 1.20307 0
M  V30 2393 C 218.743 -5.32293 0.50683 0
M  V30 2394 C 220.043 -4.55597 2.55399 0
M  V30 2395 H 221.737 -2.46439 1.70024 0
M  V30 2396 H 219.283 -1.18446 0.818935 0
M  V30 2397 H 221.236 -4.214 0.00392006 0
M  V30 2398 H 219.96 -3.19006 -0.700206 0
M  V30 2399 H 218.619 -3.37813 1.42399 0
M  V30 2400 H 218.267 -5.01095 -0.437408 0
M  V30 2401 H 217.967 -5.76243 1.1497 0
M  V30 2402 H 219.491 -6.09956 0.280351 0
M  V30 2403 H 220.905 -5.21841 2.37391 0
M  V30 2404 H 219.302 -5.10363 3.15673 0
M  V30 2405 H 220.372 -3.69013 3.14575 0
M  V30 2406 N 221.715 -0.905404 -1.28997 0
M  V30 2407 C 223.131 -0.60233 -1.47798 0
M  V30 2408 C 223.331 0.854645 -1.82478 0
M  V30 2409 O 222.387 1.63439 -1.92468 0
M  V30 2410 C 223.7 -1.53306 -2.58685 0
M  V30 2411 C 225.248 -1.53887 -2.72558 0
M  V30 2412 C 225.723 -2.45602 -3.86579 0
M  V30 2413 N 227.214 -2.43681 -3.93921 0
M  V30 2414 C 227.949 -3.11347 -4.81509 0
M  V30 2415 N 227.445 -3.88313 -5.73746 0
M  V30 2416 N 229.238 -3.00476 -4.75048 0
M  V30 2417 H 221.389 -1.84765 -1.04764 0
M  V30 2418 H 223.652 -0.792025 -0.520961 0
M  V30 2419 H 223.358 -2.57141 -2.39941 0
M  V30 2420 H 223.232 -1.25787 -3.55609 0
M  V30 2421 H 225.619 -0.507941 -2.90696 0
M  V30 2422 H 225.7 -1.85447 -1.76191 0
M  V30 2423 H 225.344 -3.48792 -3.69197 0
M  V30 2424 H 225.274 -2.11349 -4.82327 0
M  V30 2425 H 227.765 -1.87767 -3.27951 0
M  V30 2426 H 228.078 -4.36985 -6.37389 0
M  V30 2427 H 226.423 -3.92419 -5.73614 0
M  V30 2428 H 229.614 -2.39858 -4.01977 0
M  V30 2429 H 229.787 -3.53485 -5.43095 0
M  V30 2430 N 223.193 1.4272 -0.668489 0
M  V30 2431 C 224.14 2.30796 0.0137489 0
M  V30 2432 C 225.11 1.4561 0.799177 0
M  V30 2433 O 226.295 1.74453 0.772702 0
M  V30 2434 C 223.435 3.31377 0.963507 0
M  V30 2435 C 222.548 4.31655 0.172569 0
M  V30 2436 C 221.683 5.19312 1.1175 0
M  V30 2437 C 220.722 6.11274 0.317886 0
M  V30 2438 N 219.859 6.91504 1.2152 0
M  V30 2439 H 224.699 2.88585 -0.743161 0
M  V30 2440 H 222.236 1.42154 -0.378226 0
M  V30 2441 H 224.194 3.88214 1.52792 0
M  V30 2442 H 222.824 2.75202 1.68712 0
M  V30 2443 H 221.876 3.76988 -0.508374 0
M  V30 2444 H 223.188 4.96779 -0.448527 0
M  V30 2445 H 222.342 5.80851 1.75206 0
M  V30 2446 H 221.081 4.5435 1.77249 0
M  V30 2447 H 220.086 5.48809 -0.329918 0
M  V30 2448 H 221.311 6.78283 -0.332917 0
M  V30 2449 H 219.257 6.29176 1.85671 0
M  V30 2450 H 219.174 7.53209 0.649036 0
M  V30 2451 H 220.442 7.57535 1.83742 0
M  V30 2452 N 224.671 0.411399 1.52136 0
M  V30 2453 C 225.899 -0.163076 2.06256 0
M  V30 2454 C 226.314 -1.3867 1.28125 0
M  V30 2455 O 225.671 -1.79423 0.333721 0
M  V30 2456 C 225.722 -0.511252 3.57867 0
M  V30 2457 O 225.443 0.66378 4.33042 0
M  V30 2458 C 226.944 -1.13921 4.28412 0
M  V30 2459 H 224.164 -0.0193897 0.67072 0
M  V30 2460 H 226.708 0.583007 1.96013 0
M  V30 2461 H 224.863 -1.20723 3.6811 0
M  V30 2462 H 225.277 0.372601 5.23175 0
M  V30 2463 H 226.751 -1.33302 5.35663 0
M  V30 2464 H 227.228 -2.11296 3.85033 0
M  V30 2465 H 227.834 -0.483373 4.22544 0
M  V30 2466 N 226.149 -1.5696 0.141893 0
M  V30 2467 C 227.395 -1.9625 -0.511248 0
M  V30 2468 C 227.728 -1.02654 -1.64851 0
M  V30 2469 O 227.003 -0.0679676 -1.94381 0
M  V30 2470 C 227.286 -3.45285 -1.02227 0
M  V30 2471 C 227.139 -4.49658 0.113138 0
M  V30 2472 C 228.458 -3.96698 -1.90574 0
M  V30 2473 H 225.577 -0.713567 -0.184367 0
M  V30 2474 H 228.219 -1.88698 0.222087 0
M  V30 2475 H 226.369 -3.51852 -1.64719 0
M  V30 2476 H 228.041 -4.55174 0.749302 0
M  V30 2477 H 226.284 -4.26857 0.773026 0
M  V30 2478 H 226.955 -5.51258 -0.286053 0
M  V30 2479 H 229.431 -3.92578 -1.37918 0
M  V30 2480 H 228.307 -5.01453 -2.2324 0
M  V30 2481 H 228.568 -3.3875 -2.84079 0
M  V30 2482 N 227.627 0.131896 -1.57047 0
M  V30 2483 C 228.852 0.860418 -1.8871 0
M  V30 2484 C 229.277 1.73251 -0.73251 0
M  V30 2485 O 228.635 1.785 0.317429 0
M  V30 2486 C 228.683 1.68047 -3.19049 0
M  V30 2487 O 227.787 2.7862 -3.04047 0
M  V30 2488 H 227.128 0.238743 -0.619595 0
M  V30 2489 H 229.658 0.118169 -2.04258 0
M  V30 2490 H 229.668 2.07238 -3.51449 0
M  V30 2491 H 228.343 1.04018 -4.02682 0
M  V30 2492 H 226.92 2.42726 -2.83088 0
M  V30 2493 N 229.106 1.52395 0.401703 0
M  V30 2494 C 230.016 1.7917 1.51444 0
M  V30 2495 C 231.032 0.677691 1.6026 0
M  V30 2496 O 232.208 0.963909 1.76835 0
M  V30 2497 C 229.273 1.94347 2.87107 0
M  V30 2498 C 228.334 3.18257 2.88116 0
M  V30 2499 C 227.567 3.32701 4.17308 0
M  V30 2500 O 227.79 2.52238 5.11598 0
M  V30 2501 O 226.724 4.25891 4.25324 0
M  V30 2502 H 230.55 2.73633 1.31752 0
M  V30 2503 H 228.135 1.3733 0.588296 0
M  V30 2504 H 230.017 2.06109 3.67555 0
M  V30 2505 H 228.692 1.03073 3.06851 0
M  V30 2506 H 227.599 3.11947 2.06494 0
M  V30 2507 H 228.932 4.09336 2.73322 0
M  V30 2508 N 230.584 -0.659388 1.43143 0
M  V30 2509 C 231.995 -1.24041 1.39537 0
M  V30 2510 C 232.346 -1.95963 0.0963364 0
M  V30 2511 O 231.471 -2.00892 -0.804438 0
M  V30 2512 C 232.066 -2.25601 2.52764 0
M  V30 2513 C 230.625 -2.79195 2.52443 0
M  V30 2514 C 229.772 -1.53743 2.30778 0
M  V30 2515 H 232.723 -0.451792 1.52133 0
M  V30 2516 H 232.744 -3.07651 2.23899 0
M  V30 2517 H 232.256 -1.73226 3.47296 0
M  V30 2518 H 230.357 -3.35649 1.61773 0
M  V30 2519 H 230.47 -3.2716 3.50004 0
M  V30 2520 H 228.834 -1.80869 1.79328 0
M  V30 2521 H 229.617 -1.03312 3.27386 0
M  V30 2522 N 232.062 -1.29571 -0.897171 0
M  V30 2523 C 233.01 -1.14802 -2.02295 0
M  V30 2524 C 234.004 -0.0629637 -1.69283 0
M  V30 2525 O 235.21 -0.222945 -1.78614 0
M  V30 2526 H 231.585 -0.354692 -0.663097 0
M  V30 2527 H 233.556 -2.10108 -2.11889 0
M  V30 2528 C 232.305 -0.843966 -3.37302 0
M  V30 2529 H 231.628 -1.67093 -3.63208 0
M  V30 2530 H 233.068 -0.780672 -4.16751 0
M  V30 2531 C 231.527 0.452843 -3.33843 0
M  V30 2532 O 232.057 1.47813 -3.73516 0
M  V30 2533 N 230.263 0.459601 -2.86943 0
M  V30 2534 H 229.81 -0.375213 -2.54853 0
M  V30 2535 H 229.768 1.32726 -2.85011 0
M  V30 2536 N 233.54 1.10788 -1.12088 0
M  V30 2537 C 234.47 2.19083 -0.807755 0
M  V30 2538 C 235.451 1.6858 0.226859 0
M  V30 2539 O 236.636 1.93997 0.0888475 0
M  V30 2540 C 233.766 3.46344 -0.257576 0
M  V30 2541 C 232.72 4.101 -1.22483 0
M  V30 2542 C 232.046 5.32016 -0.535052 0
M  V30 2543 C 233.346 4.54236 -2.57811 0
M  V30 2544 H 235.04 2.45534 -1.71328 0
M  V30 2545 H 232.586 1.1801 -0.825205 0
M  V30 2546 H 234.539 4.21392 -0.0262679 0
M  V30 2547 H 233.263 3.19373 0.683278 0
M  V30 2548 H 231.922 3.37054 -1.44189 0
M  V30 2549 H 231.57 5.01319 0.410827 0
M  V30 2550 H 231.27 5.75625 -1.18024 0
M  V30 2551 H 232.794 6.09799 -0.312695 0
M  V30 2552 H 234.208 5.20575 -2.40155 0
M  V30 2553 H 232.605 5.08682 -3.18375 0
M  V30 2554 H 233.675 3.6734 -3.16528 0
M  V30 2555 N 235.018 0.912232 1.28515 0
M  V30 2556 C 235.965 0.397954 2.27343 0
M  V30 2557 C 236.935 -0.526766 1.57526 0
M  V30 2558 O 238.12 -0.449292 1.85435 0
M  V30 2559 C 235.26 -0.357263 3.43246 0
M  V30 2560 C 234.373 0.599788 4.27816 0
M  V30 2561 C 233.508 -0.173725 5.30916 0
M  V30 2562 C 232.547 0.777039 6.07148 0
M  V30 2563 N 231.684 0.0371398 7.0209 0
M  V30 2564 H 236.524 1.24577 2.70711 0
M  V30 2565 H 234.061 0.625612 1.33133 0
M  V30 2566 H 236.019 -0.8113 4.09236 0
M  V30 2567 H 234.649 -1.16943 3.00872 0
M  V30 2568 H 233.701 1.17235 3.61884 0
M  V30 2569 H 235.013 1.32704 4.80823 0
M  V30 2570 H 234.167 -0.688394 6.02782 0
M  V30 2571 H 232.906 -0.934041 4.78672 0
M  V30 2572 H 231.911 1.3031 5.34134 0
M  V30 2573 H 233.136 1.53689 6.61481 0
M  V30 2574 H 231.082 -0.705213 6.52198 0
M  V30 2575 H 230.999 0.704249 7.52713 0
M  V30 2576 H 232.267 -0.457383 7.78157 0
M  V30 2577 N 236.496 -1.42363 0.676048 0
M  V30 2578 C 237.426 -2.33497 0.0124832 0
M  V30 2579 C 238.407 -1.50748 -0.787981 0
M  V30 2580 O 239.592 -1.79346 -0.744884 0
M  V30 2581 C 236.722 -3.34377 -0.938582 0
M  V30 2582 C 235.676 -4.27289 -0.246622 0
M  V30 2583 C 235.002 -5.18386 -1.31071 0
M  V30 2584 C 236.302 -5.14916 0.875125 0
M  V30 2585 H 237.996 -2.89233 0.773593 0
M  V30 2586 H 235.542 -1.39073 0.37346 0
M  V30 2587 H 237.495 -3.97044 -1.41188 0
M  V30 2588 H 236.219 -2.76947 -1.73113 0
M  V30 2589 H 234.878 -3.66018 0.206456 0
M  V30 2590 H 234.526 -4.57282 -2.09528 0
M  V30 2591 H 234.226 -5.81378 -0.852839 0
M  V30 2592 H 235.75 -5.83929 -1.78492 0
M  V30 2593 H 237.164 -5.71262 0.482983 0
M  V30 2594 H 235.561 -5.86747 1.25887 0
M  V30 2595 H 236.631 -4.53242 1.72335 0
M  V30 2596 N 237.974 -0.419461 -1.51915 0
M  V30 2597 C 239.39 -0.0708431 -1.59443 0
M  V30 2598 C 239.59 1.41796 -1.43164 0
M  V30 2599 O 238.646 2.18596 -1.26381 0
M  V30 2600 C 239.959 -0.574991 -2.95151 0
M  V30 2601 C 241.507 -0.533867 -3.08413 0
M  V30 2602 C 241.982 -1.01469 -4.46618 0
M  V30 2603 N 243.473 -0.971939 -4.52888 0
M  V30 2604 C 244.208 -1.31505 -5.58116 0
M  V30 2605 N 243.704 -1.73014 -6.70849 0
M  V30 2606 N 245.497 -1.23436 -5.48379 0
M  V30 2607 H 237.648 -1.38836 -1.60743 0
M  V30 2608 H 239.911 -0.570998 -0.756747 0
M  V30 2609 H 239.617 -1.61597 -3.12377 0
M  V30 2610 H 239.491 0.00979777 -3.77199 0
M  V30 2611 H 241.878 0.498086 -2.90866 0
M  V30 2612 H 241.959 -1.15484 -2.28248 0
M  V30 2613 H 241.603 -2.04502 -4.6491 0
M  V30 2614 H 241.533 -0.370433 -5.25295 0
M  V30 2615 H 244.024 -0.666893 -3.71969 0
M  V30 2616 H 244.337 -1.97479 -7.47143 0
M  V30 2617 H 242.682 -1.76926 -6.72103 0
M  V30 2618 H 245.873 -0.908869 -4.59192 0
M  V30 2619 H 246.046 -1.50506 -6.30279 0
M  V30 2620 N 239.452 1.56882 -0.150215 0
M  V30 2621 C 240.682 2.00302 0.506213 0
M  V30 2622 C 241.09 1.02934 1.58749 0
M  V30 2623 O 240.433 0.0188384 1.8369 0
M  V30 2624 C 240.495 3.40156 1.16337 0
M  V30 2625 C 240.159 4.56439 0.226311 0
M  V30 2626 C 241.156 5.17012 -0.547265 0
M  V30 2627 C 238.841 5.02136 0.128279 0
M  V30 2628 C 240.835 6.21693 -1.40629 0
M  V30 2629 C 238.522 6.06672 -0.734345 0
M  V30 2630 C 239.52 6.6632 -1.50023 0
M  V30 2631 O 239.208 7.68831 -2.34848 0
M  V30 2632 H 238.94 0.662182 0.135984 0
M  V30 2633 H 241.494 2.03961 -0.242746 0
M  V30 2634 H 239.724 3.33346 1.96004 0
M  V30 2635 H 241.413 3.67663 1.71985 0
M  V30 2636 H 242.179 4.82603 -0.48158 0
M  V30 2637 H 238.058 4.55435 0.714157 0
M  V30 2638 H 241.602 6.68179 -2.00455 0
M  V30 2639 H 237.499 6.40507 -0.801309 0
M  V30 2640 H 238.267 7.86065 -2.28131 0
M  V30 2641 N 240.93 -0.123565 1.57115 0
M  V30 2642 C 241.877 -1.15177 2.00007 0
M  V30 2643 C 242.847 -1.41403 0.871454 0
M  V30 2644 O 244.032 -1.53346 1.13533 0
M  V30 2645 C 241.172 -2.47436 2.40561 0
M  V30 2646 C 240.285 -2.28184 3.66819 0
M  V30 2647 C 239.42 -3.53641 3.96373 0
M  V30 2648 C 238.459 -3.29528 5.15827 0
M  V30 2649 N 237.596 -4.47175 5.41275 0
M  V30 2650 H 242.436 -0.779008 2.87638 0
M  V30 2651 H 239.973 -0.373166 1.42288 0
M  V30 2652 H 241.931 -3.24584 2.62109 0
M  V30 2653 H 240.561 -2.82614 1.55978 0
M  V30 2654 H 239.613 -1.41976 3.52912 0
M  V30 2655 H 240.925 -2.0634 4.5412 0
M  V30 2656 H 240.079 -4.39209 4.18545 0
M  V30 2657 H 238.818 -3.78512 3.07538 0
M  V30 2658 H 237.823 -2.42349 4.93505 0
M  V30 2659 H 239.048 -3.06031 6.06236 0
M  V30 2660 H 236.994 -4.72175 4.55397 0
M  V30 2661 H 236.911 -4.28419 6.22891 0
M  V30 2662 H 238.179 -5.3389 5.67963 0
M  V30 2663 N 242.408 -1.52605 -0.393616 0
M  V30 2664 C 243.819 -1.59417 -0.971761 0
M  V30 2665 C 244.17 -0.444173 -1.91106 0
M  V30 2666 O 243.295 0.433382 -2.12016 0
M  V30 2667 C 243.89 -2.88936 -1.76921 0
M  V30 2668 C 242.449 -2.98175 -2.29714 0
M  V30 2669 C 241.596 -2.54491 -1.10135 0
M  V30 2670 H 244.547 -1.57751 -0.173317 0
M  V30 2671 H 244.568 -2.75163 -2.62804 0
M  V30 2672 H 244.08 -3.72616 -1.08532 0
M  V30 2673 H 242.181 -2.19024 -3.01429 0
M  V30 2674 H 242.294 -4.02726 -2.59517 0
M  V30 2675 H 240.658 -2.08702 -1.45999 0
M  V30 2676 H 241.441 -3.4056 -0.432874 0
M  V30 2677 N 243.887 0.651787 -1.4349 0
M  V30 2678 C 244.834 1.76462 -1.4876 0
M  V30 2679 C 245.804 1.62641 -0.337189 0
M  V30 2680 O 246.989 1.82864 -0.544544 0
M  V30 2681 C 244.129 3.14623 -1.41796 0
M  V30 2682 C 243.242 3.39568 -2.67053 0
M  V30 2683 C 242.377 4.67585 -2.52068 0
M  V30 2684 C 241.416 4.85639 -3.72587 0
M  V30 2685 N 240.553 6.04915 -3.56402 0
M  V30 2686 H 245.393 1.71293 -2.43849 0
M  V30 2687 H 242.93 0.835889 -1.21043 0
M  V30 2688 H 244.888 3.94496 -1.35753 0
M  V30 2689 H 243.518 3.18859 -0.50288 0
M  V30 2690 H 242.57 2.53783 -2.8337 0
M  V30 2691 H 243.882 3.48795 -3.56572 0
M  V30 2692 H 243.036 5.55586 -2.4374 0
M  V30 2693 H 241.775 4.60681 -1.60075 0
M  V30 2694 H 240.78 3.96073 -3.81321 0
M  V30 2695 H 242.005 4.94372 -4.65589 0
M  V30 2696 H 239.951 5.9914 -2.67146 0
M  V30 2697 H 239.868 6.15106 -4.39524 0
M  V30 2698 H 241.136 6.95533 -3.51929 0
M  V30 2699 N 245.365 1.30045 0.890287 0
M  V30 2700 C 246.312 1.15976 1.99545 0
M  V30 2701 C 247.282 0.0506202 1.66023 0
M  V30 2702 O 248.467 0.219847 1.89529 0
M  V30 2703 C 245.607 0.852054 3.34416 0
M  V30 2704 C 244.72 2.04255 3.80662 0
M  V30 2705 C 243.855 1.6734 5.04154 0
M  V30 2706 C 242.894 2.82916 5.42794 0
M  V30 2707 N 242.031 2.46333 6.57468 0
M  V30 2708 H 246.871 2.10524 2.10911 0
M  V30 2709 H 244.408 1.04749 1.03276 0
M  V30 2710 H 246.366 0.654296 4.12037 0
M  V30 2711 H 244.996 -0.0565502 3.2275 0
M  V30 2712 H 244.048 2.35172 2.98995 0
M  V30 2713 H 245.36 2.90826 4.05242 0
M  V30 2714 H 244.514 1.43908 5.89386 0
M  V30 2715 H 243.253 0.779308 4.81433 0
M  V30 2716 H 242.258 3.0702 4.56091 0
M  V30 2717 H 243.483 3.73004 5.6749 0
M  V30 2718 H 241.429 1.59423 6.36334 0
M  V30 2719 H 241.346 3.26436 6.81891 0
M  V30 2720 H 242.614 2.26244 7.45945 0
M  V30 2721 N 246.843 -1.10192 1.12674 0
M  V30 2722 C 248.068 -1.86523 0.906853 0
M  V30 2723 C 248.493 -1.80221 -0.538711 0
M  V30 2724 O 247.851 -1.17396 -1.38158 0
M  V30 2725 C 247.899 -3.32758 1.3894 0
M  V30 2726 O 247.003 -4.08449 0.5695 0
M  V30 2727 H 246.344 -0.578678 0.325619 0
M  V30 2728 H 248.874 -1.39203 1.49946 0
M  V30 2729 H 248.884 -3.83608 1.38958 0
M  V30 2730 H 247.559 -3.36661 2.44197 0
M  V30 2731 H 246.136 -3.67427 0.636528 0
M  V30 2732 N 248.321 -0.919034 -1.28029 0
M  V30 2733 C 249.251 -0.428581 -2.29533 0
M  V30 2734 C 250.232 0.50659 -1.62381 0
M  V30 2735 O 251.417 0.413195 -1.89753 0
M  V30 2736 C 248.547 0.327388 -3.45753 0
M  V30 2737 C 247.501 -0.519137 -4.2484 0
M  V30 2738 C 246.827 0.365486 -5.33449 0
M  V30 2739 C 248.127 -1.77914 -4.91064 0
M  V30 2740 H 249.821 -1.27687 -2.70807 0
M  V30 2741 H 247.367 -0.615428 -1.30186 0
M  V30 2742 H 249.32 0.681378 -4.15855 0
M  V30 2743 H 248.044 1.20963 -3.03374 0
M  V30 2744 H 246.703 -0.855717 -3.56473 0
M  V30 2745 H 246.351 1.24642 -4.87312 0
M  V30 2746 H 246.051 -0.197356 -5.87268 0
M  V30 2747 H 247.575 0.715241 -6.06396 0
M  V30 2748 H 248.989 -1.49374 -5.53498 0
M  V30 2749 H 247.386 -2.2848 -5.54903 0
M  V30 2750 H 248.456 -2.50382 -4.15255 0
M  V30 2751 N 249.799 1.42003 -0.683588 0
M  V30 2752 C 250.709 2.34597 -0.0109075 0
M  V30 2753 C 251.725 1.55576 0.779245 0
M  V30 2754 O 252.901 1.88107 0.719555 0
M  V30 2755 C 249.966 3.34199 0.922588 0
M  V30 2756 C 249.027 4.29115 0.125984 0
M  V30 2757 C 248.26 5.23959 1.01502 0
M  V30 2758 O 248.483 5.23952 2.25456 0
M  V30 2759 O 247.417 6.00053 0.47111 0
M  V30 2760 H 251.243 2.93675 -0.773853 0
M  V30 2761 H 248.828 1.42654 -0.443861 0
M  V30 2762 H 250.71 3.95365 1.45823 0
M  V30 2763 H 249.385 2.77582 1.66523 0
M  V30 2764 H 248.292 3.71335 -0.453969 0
M  V30 2765 H 249.625 4.88798 -0.577736 0
M  V30 2766 N 251.277 0.427512 1.51691 0
M  V30 2767 C 252.693 0.0792977 1.59403 0
M  V30 2768 C 252.893 -1.41035 1.43914 0
M  V30 2769 O 251.949 -2.17922 1.27539 0
M  V30 2770 C 253.262 0.590636 2.94842 0
M  V30 2771 C 254.81 0.550215 3.08126 0
M  V30 2772 C 255.285 1.03836 4.46074 0
M  V30 2773 N 256.776 0.995943 4.52366 0
M  V30 2774 C 257.511 1.34463 5.57411 0
M  V30 2775 N 257.007 1.76569 6.69922 0
M  V30 2776 N 258.8 1.26343 5.47717 0
M  V30 2777 H 250.951 1.39687 1.60004 0
M  V30 2778 H 253.214 0.575003 0.753708 0
M  V30 2779 H 252.92 1.63251 3.11516 0
M  V30 2780 H 252.794 0.0102061 3.77199 0
M  V30 2781 H 255.181 -0.482654 2.91126 0
M  V30 2782 H 255.262 1.16693 2.27632 0
M  V30 2783 H 254.906 2.06965 4.63819 0
M  V30 2784 H 254.836 0.398286 5.25092 0
M  V30 2785 H 257.327 0.68661 3.7161 0
M  V30 2786 H 257.64 2.01438 7.46085 0
M  V30 2787 H 255.985 1.80488 6.71155 0
M  V30 2788 H 259.176 0.933209 4.58703 0
M  V30 2789 H 259.349 1.53846 6.29472 0
M  V30 2790 N 252.755 -1.56801 0.158532 0
M  V30 2791 C 254.171 -1.5837 -0.197774 0
M  V30 2792 C 254.371 -1.17334 -1.63814 0
M  V30 2793 O 253.427 -0.878988 -2.36707 0
M  V30 2794 C 254.74 -3.00615 0.0714459 0
M  V30 2795 C 256.288 -3.12999 0.00864533 0
M  V30 2796 C 256.763 -4.57313 0.250685 0
M  V30 2797 N 258.254 -4.62777 0.198014 0
M  V30 2798 C 258.989 -5.72271 0.359642 0
M  V30 2799 N 258.485 -6.90371 0.579625 0
M  V30 2800 N 260.278 -5.61318 0.296438 0
M  V30 2801 H 252.429 -1.81765 1.09887 0
M  V30 2802 H 254.692 -0.841849 0.435884 0
M  V30 2803 H 254.398 -3.35068 1.06874 0
M  V30 2804 H 254.272 -3.71683 -0.642757 0
M  V30 2805 H 256.659 -2.7838 -0.979217 0
M  V30 2806 H 256.74 -2.44393 0.755359 0
M  V30 2807 H 256.384 -4.92639 1.2357 0
M  V30 2808 H 256.314 -5.24061 -0.516489 0
M  V30 2809 H 258.805 -3.77885 0.0331115 0
M  V30 2810 H 259.118 -7.69689 0.69275 0
M  V30 2811 H 257.463 -6.92264 0.616087 0
M  V30 2812 H 260.654 -4.67932 0.125258 0
M  V30 2813 H 260.827 -6.46599 0.425831 0
M  V30 2814 N 254.233 0.115231 -1.57178 0
M  V30 2815 C 255.18 1.14115 -2.00615 0
M  V30 2816 C 256.15 1.40939 -0.878941 0
M  V30 2817 O 257.335 1.52741 -1.14345 0
M  V30 2818 C 254.475 2.46156 -2.4187 0
M  V30 2819 C 253.588 2.26236 -3.68024 0
M  V30 2820 C 252.723 3.51534 -3.98243 0
M  V30 2821 C 251.762 3.26787 -5.17568 0
M  V30 2822 N 250.899 4.44298 -5.43639 0
M  V30 2823 H 255.739 0.763743 -2.88047 0
M  V30 2824 H 253.276 0.365615 -1.42484 0
M  V30 2825 H 255.234 3.23189 -2.63827 0
M  V30 2826 H 253.864 2.81783 -1.57475 0
M  V30 2827 H 252.916 1.40102 -3.5366 0
M  V30 2828 H 254.228 2.03929 -4.55208 0
M  V30 2829 H 253.382 4.36984 -4.20868 0
M  V30 2830 H 252.121 3.76876 -3.09541 0
M  V30 2831 H 251.126 2.39729 -4.94783 0
M  V30 2832 H 252.351 3.02812 -6.0785 0
M  V30 2833 H 250.297 4.69754 -4.57895 0
M  V30 2834 H 250.214 4.25109 -6.25154 0
M  V30 2835 H 251.482 5.3087 -5.70786 0
M  V30 2836 N 255.711 1.52812 0.385517 0
M  V30 2837 C 256.659 1.78482 1.49155 0
M  V30 2838 C 257.653 0.652914 1.56312 0
M  V30 2839 O 258.859 0.835464 1.59436 0
M  V30 2840 H 255.234 0.5648 0.496493 0
M  V30 2841 H 257.205 2.71095 1.24699 0
M  V30 2842 C 255.954 1.97378 2.86247 0
M  V30 2843 H 255.277 2.83907 2.81491 0
M  V30 2844 H 256.717 2.19327 3.62866 0
M  V30 2845 C 255.176 0.74728 3.28508 0
M  V30 2846 O 255.706 -0.0736232 4.01633 0
M  V30 2847 N 253.912 0.576396 2.84826 0
M  V30 2848 H 253.459 1.24555 2.25486 0
M  V30 2849 H 253.417 -0.24288 3.1346 0
M  V30 2850 N 257.189 -0.644168 1.43834 0
M  V30 2851 C 258.6 -1.22554 1.40845 0
M  V30 2852 C 258.951 -1.9585 0.117115 0
M  V30 2853 O 258.076 -2.01734 -0.783086 0
M  V30 2854 C 258.671 -2.22907 2.55143 0
M  V30 2855 C 257.23 -2.76501 2.5539 0
M  V30 2856 C 256.377 -1.51287 2.32396 0
M  V30 2857 H 259.328 -0.43563 1.52604 0
M  V30 2858 H 259.349 -3.05259 2.2715 0
M  V30 2859 H 258.861 -1.69533 3.49114 0
M  V30 2860 H 256.962 -3.33914 1.65324 0
M  V30 2861 H 257.075 -3.23429 3.53455 0
M  V30 2862 H 255.439 -1.78957 1.81236 0
M  V30 2863 H 256.222 -0.998336 3.28463 0
M  V30 2864 N 258.668 -1.30515 -0.883378 0
M  V30 2865 C 259.598 -1.19607 -2.00541 0
M  V30 2866 C 260.579 -0.086346 -1.69881 0
M  V30 2867 O 261.764 -0.268654 -1.92333 0
M  V30 2868 C 258.894 -0.888758 -3.35736 0
M  V30 2869 C 257.848 -1.95659 -3.8066 0
M  V30 2870 C 257.174 -1.50224 -5.13164 0
M  V30 2871 C 258.474 -3.36788 -3.99213 0
M  V30 2872 H 260.168 -2.13476 -2.09925 0
M  V30 2873 H 257.714 -1.02775 -1.00863 0
M  V30 2874 H 259.667 -0.799094 -4.13754 0
M  V30 2875 H 258.391 0.0856125 -3.26488 0
M  V30 2876 H 257.05 -2.03591 -3.04871 0
M  V30 2877 H 256.698 -0.516092 -5.00345 0
M  V30 2878 H 256.398 -2.2165 -5.44192 0
M  V30 2879 H 257.922 -1.42639 -5.93706 0
M  V30 2880 H 259.336 -3.31605 -4.67665 0
M  V30 2881 H 257.733 -4.06314 -4.41621 0
M  V30 2882 H 258.803 -3.78561 -3.03017 0
M  V30 2883 N 260.146 1.09593 -1.13257 0
M  V30 2884 C 261.076 2.18214 -0.830946 0
M  V30 2885 C 262.057 1.68812 0.208966 0
M  V30 2886 O 263.242 1.9408 0.0682666 0
M  V30 2887 C 260.372 3.46051 -0.294296 0
M  V30 2888 C 259.326 4.08778 -1.26826 0
M  V30 2889 C 258.652 5.31419 -0.591449 0
M  V30 2890 C 259.952 4.51476 -2.62615 0
M  V30 2891 H 261.646 2.43703 -1.73923 0
M  V30 2892 H 259.192 1.17128 -0.837675 0
M  V30 2893 H 261.145 4.2134 -0.0709606 0
M  V30 2894 H 259.869 3.20079 0.649366 0
M  V30 2895 H 258.528 3.35505 -1.47756 0
M  V30 2896 H 258.176 5.01727 0.357633 0
M  V30 2897 H 257.876 5.74341 -1.24123 0
M  V30 2898 H 259.4 6.09433 -0.377355 0
M  V30 2899 H 260.814 5.17999 -2.45663 0
M  V30 2900 H 259.211 5.05277 -3.23752 0
M  V30 2901 H 260.281 3.63962 -3.20406 0
M  V30 2902 N 261.624 0.925811 1.2754 0
M  V30 2903 C 263.04 0.625767 1.46821 0
M  V30 2904 C 263.24 -0.825506 1.83814 0
M  V30 2905 O 262.296 -1.60356 1.95044 0
M  V30 2906 C 263.609 1.57402 2.56213 0
M  V30 2907 C 265.157 1.58204 2.70075 0
M  V30 2908 C 265.632 2.51721 3.82623 0
M  V30 2909 N 267.123 2.49917 3.89994 0
M  V30 2910 C 267.858 3.18968 4.76494 0
M  V30 2911 N 267.354 3.97391 5.67496 0
M  V30 2912 N 269.147 3.07996 4.70208 0
M  V30 2913 H 261.298 1.86409 1.01811 0
M  V30 2914 H 263.561 0.800213 0.508295 0
M  V30 2915 H 263.267 2.60925 2.35819 0
M  V30 2916 H 263.141 1.31428 3.53563 0
M  V30 2917 H 265.528 0.554124 2.89851 0
M  V30 2918 H 265.609 1.88226 1.73218 0
M  V30 2919 H 265.253 3.54622 3.63601 0
M  V30 2920 H 265.183 2.18996 4.78903 0
M  V30 2921 H 267.674 1.9296 3.24923 0
M  V30 2922 H 267.987 4.4707 6.30356 0
M  V30 2923 H 266.332 4.01495 5.67298 0
M  V30 2924 H 269.523 2.46223 3.9811 0
M  V30 2925 H 269.696 3.6208 5.37403 0
M  V30 2926 N 263.102 -1.41638 0.69111 0
M  V30 2927 C 264.049 -2.30789 0.0229705 0
M  V30 2928 C 265.019 -1.46863 -0.775911 0
M  V30 2929 O 266.204 -1.75661 -0.74485 0
M  V30 2930 C 263.344 -3.32868 -0.910666 0
M  V30 2931 C 262.457 -4.31875 -0.103874 0
M  V30 2932 C 261.592 -5.21024 -1.03475 0
M  V30 2933 C 260.631 -6.11702 -0.220598 0
M  V30 2934 N 259.768 -6.93349 -1.10504 0
M  V30 2935 H 264.608 -2.87366 0.788978 0
M  V30 2936 H 262.145 -1.41535 0.400794 0
M  V30 2937 H 264.103 -3.90596 -1.46597 0
M  V30 2938 H 262.733 -2.77851 -1.64312 0
M  V30 2939 H 261.785 -3.76131 0.568285 0
M  V30 2940 H 263.097 -4.96003 0.527504 0
M  V30 2941 H 262.251 -5.83565 -1.65943 0
M  V30 2942 H 260.99 -4.57112 -1.69999 0
M  V30 2943 H 259.995 -5.48215 0.417187 0
M  V30 2944 H 261.22 -6.77668 0.440784 0
M  V30 2945 H 259.166 -6.3205 -1.75638 0
M  V30 2946 H 259.083 -7.54146 -0.529125 0
M  V30 2947 H 260.351 -7.60362 -1.71667 0
M  V30 2948 N 264.58 -0.43555 -1.51462 0
M  V30 2949 C 265.49 0.383001 -2.31453 0
M  V30 2950 C 266.506 1.02931 -1.4029 0
M  V30 2951 O 267.682 1.02507 -1.73362 0
M  V30 2952 C 264.747 1.47043 -3.13973 0
M  V30 2953 C 263.808 0.844433 -4.20913 0
M  V30 2954 C 263.041 1.88004 -4.9949 0
M  V30 2955 O 263.264 3.10199 -4.78678 0
M  V30 2956 O 262.198 1.47157 -5.83634 0
M  V30 2957 H 266.024 -0.269964 -3.02498 0
M  V30 2958 H 263.609 -0.19813 -1.4808 0
M  V30 2959 H 265.491 2.10113 -3.65281 0
M  V30 2960 H 264.166 2.10751 -2.45695 0
M  V30 2961 H 263.073 0.175729 -3.73687 0
M  V30 2962 H 264.406 0.250869 -4.9156 0
M  V30 2963 N 266.058 1.56714 -0.166846 0
M  V30 2964 C 267.283 2.01557 0.488833 0
M  V30 2965 C 267.708 1.0463 1.56314 0
M  V30 2966 O 267.066 0.0251304 1.81283 0
M  V30 2967 C 267.114 3.4503 1.04818 0
M  V30 2968 O 266.218 3.51163 2.16236 0
M  V30 2969 H 265.559 0.653516 0.117526 0
M  V30 2970 H 268.089 2.02818 -0.269421 0
M  V30 2971 H 268.099 3.84243 1.37191 0
M  V30 2972 H 266.774 4.15077 0.261572 0
M  V30 2973 H 265.351 3.23807 1.84942 0
M  V30 2974 N 267.536 -0.106894 1.57237 0
M  V30 2975 C 268.499 -1.11466 2.0027 0
M  V30 2976 C 269.499 -1.33623 0.894519 0
M  V30 2977 O 270.689 -1.29935 1.16028 0
M  V30 2978 C 267.821 -2.46646 2.35327 0
M  V30 2979 H 269.014 -0.744516 2.90512 0
M  V30 2980 H 266.567 -0.351576 1.52295 0
M  V30 2981 H 267.302 -2.88558 1.48003 0
M  V30 2982 H 267.087 -2.31915 3.16161 0
M  V30 2983 H 268.577 -3.19151 2.69318 0
M  V30 2984 N 269.014 -1.53014 -0.377408 0
M  V30 2985 C 270.425 -1.60438 -0.954798 0
M  V30 2986 C 270.776 -0.464418 -1.90624 0
M  V30 2987 O 269.901 0.41087 -2.12464 0
M  V30 2988 C 270.496 -2.90797 -1.73847 0
M  V30 2989 C 269.055 -3.00595 -2.26538 0
M  V30 2990 C 268.202 -2.55645 -1.07429 0
M  V30 2991 H 271.153 -1.57926 -0.156575 0
M  V30 2992 H 271.174 -2.77935 -2.5987 0
M  V30 2993 H 270.686 -3.73746 -1.04574 0
M  V30 2994 H 268.787 -2.22208 -2.99089 0
M  V30 2995 H 268.9 -4.05456 -2.5523 0
M  V30 2996 H 267.264 -2.10239 -1.43777 0
M  V30 2997 H 268.047 -3.41 -0.396728 0
M  V30 2998 N 270.492 0.636531 -1.44174 0
M  V30 2999 C 271.903 1.21806 -1.41493 0
M  V30 3000 C 272.254 1.95785 -0.1275 0
M  V30 3001 O 271.379 2.02147 0.772376 0
M  V30 3002 C 271.974 2.21551 -2.56321 0
M  V30 3003 C 270.533 2.75143 -2.56853 0
M  V30 3004 C 269.68 1.50052 -2.33195 0
M  V30 3005 H 272.631 0.427531 -1.52833 0
M  V30 3006 H 272.652 3.0405 -2.28765 0
M  V30 3007 H 272.164 1.67679 -3.50008 0
M  V30 3008 H 270.265 3.33033 -1.67093 0
M  V30 3009 H 270.378 3.2155 -3.55165 0
M  V30 3010 H 268.742 1.77993 -1.82183 0
M  V30 3011 H 269.525 0.980903 -3.28988 0
M  V30 3012 N 271.97 1.30982 0.876444 0
M  V30 3013 C 273.195 1.23373 1.66715 0
M  V30 3014 C 273.62 -0.19885 1.87046 0
M  V30 3015 O 272.978 -1.1427 1.40756 0
M  V30 3016 C 273.026 1.97644 3.01611 0
M  V30 3017 O 272.13 1.30935 3.91062 0
M  V30 3018 H 271.471 0.426279 0.509099 0
M  V30 3019 H 274.001 1.72944 1.09323 0
M  V30 3020 H 274.011 2.06992 3.51594 0
M  V30 3021 H 272.686 3.01829 2.86133 0
M  V30 3022 H 271.263 1.29996 3.49507 0
M  V30 3023 N 273.449 -1.08991 1.13837 0
M  V30 3024 C 274.379 -2.17771 0.842507 0
M  V30 3025 C 275.36 -1.6892 -0.20001 0
M  V30 3026 O 276.545 -1.94113 -0.0579731 0
M  V30 3027 C 273.675 -3.4589 0.312644 0
M  V30 3028 C 272.629 -4.08099 1.28992 0
M  V30 3029 C 271.955 -5.31098 0.619623 0
M  V30 3030 C 273.255 -4.50077 2.65005 0
M  V30 3031 H 274.949 -2.42777 1.75213 0
M  V30 3032 H 272.495 -1.16682 0.843875 0
M  V30 3033 H 274.448 -4.21297 0.0933043 0
M  V30 3034 H 273.172 -3.20419 -0.632382 0
M  V30 3035 H 271.831 -3.34717 1.49533 0
M  V30 3036 H 271.479 -5.0191 -0.33102 0
M  V30 3037 H 271.179 -5.73674 1.27167 0
M  V30 3038 H 272.703 -6.09224 0.409669 0
M  V30 3039 H 274.117 -5.16688 2.48407 0
M  V30 3040 H 272.514 -5.03553 3.26427 0
M  V30 3041 H 273.584 -3.62257 3.22332 0
M  V30 3042 N 274.927 -0.932562 -1.27047 0
M  V30 3043 C 276.343 -0.633544 -1.46487 0
M  V30 3044 C 276.543 0.815746 -1.84249 0
M  V30 3045 O 275.599 1.59319 -1.95892 0
M  V30 3046 C 276.912 -1.58758 -2.55375 0
M  V30 3047 C 278.46 -1.59634 -2.69232 0
M  V30 3048 C 278.935 -2.53747 -3.81283 0
M  V30 3049 N 280.426 -2.51982 -3.88664 0
M  V30 3050 C 281.161 -3.21491 -4.74796 0
M  V30 3051 N 280.657 -4.00395 -5.65381 0
M  V30 3052 N 282.45 -3.10485 -4.68568 0
M  V30 3053 H 274.601 -1.86946 -1.00821 0
M  V30 3054 H 276.864 -0.802897 -0.504044 0
M  V30 3055 H 276.57 -2.62172 -2.34432 0
M  V30 3056 H 276.444 -1.33301 -3.52861 0
M  V30 3057 H 278.831 -0.569488 -2.89553 0
M  V30 3058 H 278.912 -1.89142 -1.72218 0
M  V30 3059 H 278.556 -3.56545 -3.61715 0
M  V30 3060 H 278.486 -2.21532 -4.77735 0
M  V30 3061 H 280.977 -1.94681 -3.23895 0
M  V30 3062 H 281.29 -4.50406 -6.27976 0
M  V30 3063 H 279.635 -4.04498 -5.65161 0
M  V30 3064 H 282.826 -2.48331 -3.96799 0
M  V30 3065 H 282.999 -3.64925 -5.35475 0
M  V30 3066 N 276.405 1.4127 -0.698611 0
M  V30 3067 C 277.821 1.55241 -0.370462 0
M  V30 3068 C 278.021 1.67351 1.12231 0
M  V30 3069 O 277.077 1.65363 1.90818 0
M  V30 3070 C 278.39 2.78997 -1.12165 0
M  V30 3071 C 279.938 2.92797 -1.1063 0
M  V30 3072 C 280.413 4.19445 -1.8393 0
M  V30 3073 N 281.904 4.26409 -1.80914 0
M  V30 3074 C 282.639 5.23271 -2.34467 0
M  V30 3075 N 282.135 6.26145 -2.96504 0
M  V30 3076 N 283.928 5.15232 -2.24706 0
M  V30 3077 H 276.079 1.31654 -1.66676 0
M  V30 3078 H 278.342 0.635393 -0.703548 0
M  V30 3079 H 278.048 2.76268 -2.17644 0
M  V30 3080 H 277.922 3.70606 -0.702209 0
M  V30 3081 H 280.309 2.95039 -0.0597713 0
M  V30 3082 H 280.39 2.02353 -1.56483 0
M  V30 3083 H 280.034 4.17964 -2.88563 0
M  V30 3084 H 279.964 5.08866 -1.35509 0
M  V30 3085 H 282.455 3.527 -1.35687 0
M  V30 3086 H 282.768 6.96451 -3.34927 0
M  V30 3087 H 281.113 6.26638 -3.00583 0
M  V30 3088 H 284.304 4.33789 -1.7591 0
M  V30 3089 H 284.477 5.90552 -2.66745 0
M  V30 3090 N 277.883 0.443576 1.51229 0
M  V30 3091 C 279.299 0.0962001 1.5931 0
M  V30 3092 C 279.499 -1.39501 1.45402 0
M  V30 3093 O 278.555 -2.16557 1.29843 0
M  V30 3094 C 279.868 0.621875 2.94199 0
M  V30 3095 C 281.416 0.582865 3.07525 0
M  V30 3096 C 281.891 1.08562 4.44948 0
M  V30 3097 N 283.382 1.04387 4.51284 0
M  V30 3098 C 284.117 1.40368 5.55954 0
M  V30 3099 N 283.613 1.83664 6.68011 0
M  V30 3100 N 285.406 1.32145 5.46346 0
M  V30 3101 H 277.557 1.41376 1.58514 0
M  V30 3102 H 279.82 0.582965 0.747567 0
M  V30 3103 H 279.526 1.66546 3.09767 0
M  V30 3104 H 279.4 0.0502125 3.77167 0
M  V30 3105 H 281.787 -0.451749 2.91622 0
M  V30 3106 H 281.868 1.191 2.26382 0
M  V30 3107 H 281.512 2.11873 4.61598 0
M  V30 3108 H 281.442 0.453956 5.2464 0
M  V30 3109 H 283.933 0.725986 3.70861 0
M  V30 3110 H 284.246 2.0934 7.43906 0
M  V30 3111 H 282.591 1.87596 6.69203 0
M  V30 3112 H 285.782 0.981808 4.57688 0
M  V30 3113 H 285.955 1.60514 6.27805 0
M  V30 3114 N 279.361 -1.56624 0.175154 0
M  V30 3115 C 280.772 -1.83561 -0.340916 0
M  V30 3116 C 281.123 -1.09511 -1.62794 0
M  V30 3117 O 280.248 -0.349389 -2.13561 0
M  V30 3118 C 280.843 -3.32979 -0.625313 0
M  V30 3119 C 279.402 -3.60399 -1.08581 0
M  V30 3120 C 278.549 -2.77024 -0.123722 0
M  V30 3121 H 281.5 -1.53593 0.399344 0
M  V30 3122 H 281.521 -3.50666 -1.47694 0
M  V30 3123 H 281.033 -3.86847 0.311575 0
M  V30 3124 H 279.134 -3.11945 -2.03767 0
M  V30 3125 H 279.247 -4.68711 -0.992317 0
M  V30 3126 H 277.611 -2.46993 -0.621821 0
M  V30 3127 H 278.394 -3.33674 0.807256 0
M  V30 3128 N 280.839 0.0985539 -1.57292 0
M  V30 3129 C 281.802 1.10402 -2.00858 0
M  V30 3130 C 282.802 1.33146 -0.901593 0
M  V30 3131 O 283.992 1.29318 -1.16716 0
M  V30 3132 C 281.124 2.45394 -2.36632 0
M  V30 3133 H 282.317 0.729099 -2.90902 0
M  V30 3134 H 279.87 0.343495 -1.52479 0
M  V30 3135 H 280.605 2.87769 -1.49531 0
M  V30 3136 H 280.39 2.30235 -3.17387 0
M  V30 3137 H 281.88 3.17718 -2.71007 0
M  V30 3138 N 282.317 1.53212 0.369288 0
M  V30 3139 C 283.227 1.82342 1.47609 0
M  V30 3140 C 284.243 0.711532 1.58787 0
M  V30 3141 O 285.419 1.0012 1.74751 0
M  V30 3142 C 282.484 2.00393 2.8292 0
M  V30 3143 C 281.545 3.24297 2.81301 0
M  V30 3144 C 280.778 3.41478 4.10157 0
M  V30 3145 O 281.001 2.63033 5.06132 0
M  V30 3146 O 279.935 4.34817 4.16194 0
M  V30 3147 H 283.761 2.76366 1.25918 0
M  V30 3148 H 281.346 1.38547 0.559034 0
M  V30 3149 H 283.228 2.13859 3.63101 0
M  V30 3150 H 281.903 1.09559 3.04596 0
M  V30 3151 H 280.81 3.16257 1.99831 0
M  V30 3152 H 282.143 4.15041 2.64578 0
M  V30 3153 N 283.795 -0.628877 1.44509 0
M  V30 3154 C 285.023 -1.41554 1.50897 0
M  V30 3155 C 285.438 -1.8832 0.134564 0
M  V30 3156 O 284.795 -1.60969 -0.859965 0
M  V30 3157 C 284.846 -2.63435 2.47556 0
M  V30 3158 O 284.567 -2.18619 3.79654 0
M  V30 3159 C 286.068 -3.56537 2.63431 0
M  V30 3160 H 283.288 -0.434044 0.511709 0
M  V30 3161 H 285.832 -0.768895 1.89495 0
M  V30 3162 H 283.987 -3.24187 2.12089 0
M  V30 3163 H 284.401 -2.97652 4.31861 0
M  V30 3164 H 285.875 -4.38657 3.35088 0
M  V30 3165 H 286.352 -4.05493 1.68738 0
M  V30 3166 H 286.958 -3.01653 2.9981 0
M  V30 3167 N 285.273 -1.31445 -0.869486 0
M  V30 3168 C 286.203 -1.21727 -1.99261 0
M  V30 3169 C 287.184 -0.104359 -1.6978 0
M  V30 3170 O 288.369 -0.289038 -1.92037 0
M  V30 3171 C 285.499 -0.924317 -3.34774 0
M  V30 3172 C 284.453 -1.99685 -3.78563 0
M  V30 3173 C 283.779 -1.55658 -5.11541 0
M  V30 3174 C 285.079 -3.41003 -3.95619 0
M  V30 3175 H 286.773 -2.1569 -2.07649 0
M  V30 3176 H 284.319 -1.03839 -0.997675 0
M  V30 3177 H 286.272 -0.842934 -4.12883 0
M  V30 3178 H 284.996 0.0509793 -3.2656 0
M  V30 3179 H 283.655 -2.06813 -3.02694 0
M  V30 3180 H 283.303 -0.569132 -4.9977 0
M  V30 3181 H 283.003 -2.27409 -5.41811 0
M  V30 3182 H 284.527 -1.48928 -5.92159 0
M  V30 3183 H 285.941 -3.36547 -4.64122 0
M  V30 3184 H 284.338 -4.10975 -4.37286 0
M  V30 3185 H 285.408 -3.81754 -2.98985 0
M  V30 3186 N 286.751 1.08385 -1.14413 0
M  V30 3187 C 287.999 1.80419 -0.910679 0
M  V30 3188 C 288.32 1.86658 0.564243 0
M  V30 3189 O 287.59 1.35985 1.41014 0
M  V30 3190 H 286.17 0.668204 -0.333934 0
M  V30 3191 H 288.832 1.31037 -1.44275 0
M  V30 3192 H 287.928 2.83238 -1.31082 0
M  V30 3193 N 288.23 0.939286 1.26551 0
M  V30 3194 C 289.507 0.5038 1.89001 0
M  V30 3195 C 289.887 -1.01854 1.84903 0
M  V30 3196 O 289.235 -1.87773 1.30206 0
M  V30 3197 C 289.445 1.063 3.32417 0
M  V30 3198 C 290.793 1.13051 4.09273 0
M  V30 3199 O 291.817 1.01345 3.41479 0
M  V30 3200 O 290.676 1.31233 5.30509 0
M  V30 3201 H 287.77 0.163897 0.810597 0
M  V30 3202 H 290.316 1.03173 1.34735 0
M  V30 3203 H 289.088 2.10665 3.29752 0
M  V30 3204 H 288.711 0.517408 3.94219 0
M  V30 3205 N 289.708 -1.40897 0.706093 0
M  V30 3206 C 290.933 -2.05895 0.249435 0
M  V30 3207 C 291.358 -1.52823 -1.09666 0
M  V30 3208 O 290.716 -0.659589 -1.68876 0
M  V30 3209 C 290.764 -3.59872 0.22904 0
M  V30 3210 O 289.868 -4.04708 -0.792784 0
M  V30 3211 H 289.209 -0.653206 0.119241 0
M  V30 3212 H 291.739 -1.80471 0.96391 0
M  V30 3213 H 291.749 -4.07951 0.0634791 0
M  V30 3214 H 290.424 -3.97866 1.21141 0
M  V30 3215 H 289.001 -3.68111 -0.59572 0
M  V30 3216 N 291.186 -0.45159 -1.50991 0
M  V30 3217 C 292.411 0.110667 -2.07105 0
M  V30 3218 C 292.836 1.3446 -1.31538 0
M  V30 3219 O 292.194 1.77743 -0.357365 0
M  V30 3220 C 292.242 0.397238 -3.58405 0
M  V30 3221 O 291.346 1.48124 -3.84881 0
M  V30 3222 H 290.687 -0.00439271 -0.663985 0
M  V30 3223 H 293.217 -0.637026 -1.9443 0
M  V30 3224 H 293.227 0.64351 -4.02893 0
M  V30 3225 H 291.902 -0.504553 -4.12828 0
M  V30 3226 H 290.479 1.22381 -3.52246 0
M  V30 3227 N 292.664 1.56529 -0.183458 0
M  V30 3228 C 294.075 1.83739 0.331177 0
M  V30 3229 C 294.426 1.10373 1.62211 0
M  V30 3230 O 293.551 0.36071 2.13373 0
M  V30 3231 C 294.146 3.33306 0.607646 0
M  V30 3232 C 292.705 3.60969 1.06668 0
M  V30 3233 C 291.852 2.77086 0.109029 0
M  V30 3234 H 294.803 1.53379 -0.407484 0
M  V30 3235 H 294.824 3.51444 1.45832 0
M  V30 3236 H 294.336 3.86677 -0.332086 0
M  V30 3237 H 292.437 3.13021 2.0211 0
M  V30 3238 H 292.55 4.69231 0.967447 0
M  V30 3239 H 290.914 2.47319 0.608714 0
M  V30 3240 H 291.697 3.33241 -0.82494 0
M  V30 3241 N 294.142 -0.090211 1.57342 0
M  V30 3242 C 295.367 -0.810082 1.90925 0
M  V30 3243 C 295.792 -1.71248 0.778187 0
M  V30 3244 O 295.15 -1.79278 -0.269991 0
M  V30 3245 C 295.198 -1.59529 3.23393 0
M  V30 3246 O 294.302 -2.70461 3.11327 0
M  V30 3247 H 293.643 -0.222231 0.625707 0
M  V30 3248 H 296.173 -0.0639716 2.045 0
M  V30 3249 H 296.183 -1.97847 3.5682 0
M  V30 3250 H 294.858 -0.933055 4.05299 0
M  V30 3251 H 293.435 -2.35135 2.89423 0
M  V30 3252 N 295.62 -1.53406 -0.361157 0
M  V30 3253 C 296.845 -1.74024 -1.12829 0
M  V30 3254 C 297.27 -0.470069 -1.82132 0
M  V30 3255 O 296.628 0.57619 -1.719 0
M  V30 3256 C 296.676 -2.90903 -2.13091 0
M  V30 3257 O 295.78 -2.59821 -3.20261 0
M  V30 3258 H 295.121 -0.577804 -0.327168 0
M  V30 3259 H 297.651 -2.00307 -0.41693 0
M  V30 3260 H 297.661 -3.17194 -2.56616 0
M  V30 3261 H 296.336 -3.83034 -1.62042 0
M  V30 3262 H 294.913 -2.44362 -2.81677 0
M  V30 3263 N 297.098 0.621204 -1.44841 0
M  V30 3264 C 298.323 1.41244 -1.51871 0
M  V30 3265 C 298.748 1.87519 -0.147764 0
M  V30 3266 O 298.106 1.59334 0.865 0
M  V30 3267 C 298.154 2.60221 -2.49634 0
M  V30 3268 O 297.258 3.60395 -2.00473 0
M  V30 3269 H 296.599 0.42223 -0.512463 0
M  V30 3270 H 299.129 0.757305 -1.90069 0
M  V30 3271 H 299.139 3.0764 -2.67996 0
M  V30 3272 H 297.814 2.25887 -3.4921 0
M  V30 3273 H 296.391 3.19717 -1.91925 0
M  V30 3274 N 298.576 1.31904 0.862503 0
M  V30 3275 C 299.801 1.25135 1.65397 0
M  V30 3276 C 300.226 -0.179 1.87246 0
M  V30 3277 O 299.584 -1.1277 1.4196 0
M  V30 3278 C 299.632 2.00832 2.99498 0
M  V30 3279 O 298.736 1.35075 3.89652 0
M  V30 3280 H 298.077 0.431655 0.504549 0
M  V30 3281 H 300.607 1.74094 1.07483 0
M  V30 3282 H 300.617 2.10709 3.49379 0
M  V30 3283 H 299.292 3.04847 2.82916 0
M  V30 3284 H 297.869 1.33696 3.48109 0
M  V30 3285 N 300.054 -1.07777 1.14986 0
M  V30 3286 C 301.282 -1.84018 0.945773 0
M  V30 3287 C 301.697 -1.81897 -0.505863 0
M  V30 3288 O 301.054 -1.22726 -1.35072 0
M  V30 3289 C 301.105 -3.31287 1.44677 0
M  V30 3290 O 300.826 -3.33449 2.84154 0
M  V30 3291 C 302.327 -4.24311 1.28355 0
M  V30 3292 H 299.547 -0.580716 0.336169 0
M  V30 3293 H 302.091 -1.36077 1.52654 0
M  V30 3294 H 300.246 -3.76594 0.908625 0
M  V30 3295 H 300.66 -4.25427 3.06777 0
M  V30 3296 H 302.134 -5.2573 1.68261 0
M  V30 3297 H 302.611 -4.38612 0.227184 0
M  V30 3298 H 303.217 -3.84836 1.81056 0
M  V30 3299 N 301.532 -0.945985 -1.26051 0
M  V30 3300 C 302.943 -0.638096 -1.75457 0
M  V30 3301 C 303.294 0.846672 -1.76991 0
M  V30 3302 O 302.419 1.66262 -1.38513 0
M  V30 3303 C 303.014 -1.15157 -3.18629 0
M  V30 3304 C 301.573 -0.894004 -3.65629 0
M  V30 3305 C 300.72 -1.29967 -2.44957 0
M  V30 3306 H 303.671 -1.12376 -1.1206 0
M  V30 3307 H 303.692 -0.507615 -3.77099 0
M  V30 3308 H 303.204 -2.23222 -3.1748 0
M  V30 3309 H 301.305 0.172057 -3.72203 0
M  V30 3310 H 301.418 -1.52439 -4.54202 0
M  V30 3311 H 299.782 -0.718078 -2.44368 0
M  V30 3312 H 300.565 -2.38935 -2.46505 0
M  V30 3313 N 303.011 1.40521 -0.713556 0
M  V30 3314 C 303.974 2.29098 -0.0684347 0
M  V30 3315 C 304.974 1.45268 0.689472 0
M  V30 3316 O 306.164 1.66205 0.521677 0
M  V30 3317 C 303.296 3.28446 0.913024 0
M  V30 3318 H 304.489 2.87645 -0.84855 0
M  V30 3319 H 302.042 1.48809 -0.47809 0
M  V30 3320 H 302.777 2.74913 1.72027 0
M  V30 3321 H 302.562 3.90327 0.372472 0
M  V30 3322 H 304.052 3.94777 1.36165 0
M  V30 3323 N 304.489 0.459591 1.5075 0
M  V30 3324 C 305.714 -0.0996819 2.0716 0
M  V30 3325 C 306.139 -1.33761 1.32249 0
M  V30 3326 O 305.497 -1.77551 0.366786 0
M  V30 3327 C 305.545 -0.378226 3.58611 0
M  V30 3328 O 304.649 -1.46081 3.85661 0
M  V30 3329 H 303.99 0.00791392 0.663953 0
M  V30 3330 H 306.52 0.647329 1.9409 0
M  V30 3331 H 306.53 -0.622135 4.03229 0
M  V30 3332 H 305.205 0.526439 4.12555 0
M  V30 3333 H 303.782 -1.20511 3.5289 0
M  V30 3334 N 305.967 -1.56429 0.191757 0
M  V30 3335 C 307.215 -1.97095 -0.447006 0
M  V30 3336 C 307.536 -1.07967 -1.62383 0
M  V30 3337 O 306.806 -0.150248 -1.95323 0
M  V30 3338 H 305.386 -0.727832 -0.168135 0
M  V30 3339 H 308.048 -1.92911 0.27771 0
M  V30 3340 H 307.144 -3.01848 -0.793371 0
M  V30 3341 N 307.445 0.0818655 -1.57387 0
M  V30 3342 C 308.685 0.788375 -1.88584 0
M  V30 3343 C 309.049 1.75248 -0.784351 0
M  V30 3344 O 310.25 2.50334 -0.979105 0
M  V30 3345 C 308.521 1.48654 -3.25018 0
M  V30 3346 S 310.08 2.22951 -3.7794 0
M  V30 3347 H 306.898 0.262383 -0.660815 0
M  V30 3348 H 309.5 0.0448995 -1.95448 0
M  V30 3349 H 308.204 0.770919 -4.03094 0
M  V30 3350 H 307.735 2.26965 -3.21326 0
M  V30 3351 H 309.75 3.49309 -3.52417 0
M  V30 3352 N 308.923 1.53595 0.353017 0
M  V30 3353 C 310.148 1.7462 1.11904 0
M  V30 3354 C 310.573 0.479721 1.8188 0
M  V30 3355 O 309.931 -0.567066 1.72204 0
M  V30 3356 C 309.979 2.92029 2.11545 0
M  V30 3357 O 309.083 2.61516 3.18878 0
M  V30 3358 H 308.424 0.579531 0.324099 0
M  V30 3359 H 310.954 2.00525 0.406301 0
M  V30 3360 H 310.964 3.18551 2.5493 0
M  V30 3361 H 309.639 3.83888 1.60008 0
M  V30 3362 H 308.216 2.45852 2.80377 0
M  V30 3363 N 310.401 -0.613514 1.45168 0
M  V30 3364 C 311.626 -1.40437 1.52618 0
M  V30 3365 C 312.051 -1.87438 0.157707 0
M  V30 3366 O 311.409 -1.59791 -0.856537 0
M  V30 3367 C 311.457 -2.58894 2.51011 0
M  V30 3368 O 310.561 -3.59326 2.02382 0
M  V30 3369 H 309.902 -0.419506 0.514695 0
M  V30 3370 H 312.432 -0.747215 1.90467 0
M  V30 3371 H 312.442 -3.06214 2.69624 0
M  V30 3372 H 311.117 -2.24032 3.50403 0
M  V30 3373 H 309.694 -3.18695 1.93618 0
M  V30 3374 N 311.879 -1.3236 -0.855495 0
M  V30 3375 C 313.29 -1.2056 -1.42556 0
M  V30 3376 C 313.641 0.182209 -1.95352 0
M  V30 3377 O 312.766 1.08088 -1.87472 0
M  V30 3378 C 313.361 -2.1826 -2.59129 0
M  V30 3379 C 311.92 -2.10351 -3.12137 0
M  V30 3380 C 311.067 -2.06674 -1.84882 0
M  V30 3381 H 314.018 -1.442 -0.662727 0
M  V30 3382 H 314.039 -1.78064 -3.36264 0
M  V30 3383 H 313.551 -3.19257 -2.20673 0
M  V30 3384 H 311.652 -1.12599 -3.55179 0
M  V30 3385 H 311.765 -3.00135 -3.73438 0
M  V30 3386 H 310.129 -1.51901 -2.04446 0
M  V30 3387 H 310.912 -3.09451 -1.48643 0
M  V30 3388 N 313.357 1.07166 -1.15556 0
M  V30 3389 C 314.305 2.16517 -0.8499 0
M  V30 3390 C 315.299 1.68468 0.177454 0
M  V30 3391 O 316.505 1.79971 0.0323026 0
M  V30 3392 H 312.88 0.706652 -0.25719 0
M  V30 3393 H 314.851 2.39514 -1.77976 0
M  V30 3394 C 313.6 3.45855 -0.357682 0
M  V30 3395 H 312.923 3.83214 -1.13961 0
M  V30 3396 H 314.363 4.23607 -0.182489 0
M  V30 3397 C 312.822 3.24062 0.921152 0
M  V30 3398 O 313.352 3.48813 1.9923 0
M  V30 3399 N 311.558 2.77539 0.86141 0
M  V30 3400 H 311.105 2.57598 -0.0104408 0
M  V30 3401 H 311.063 2.63337 1.71758 0
M  V30 3402 N 314.835 0.952656 1.25548 0
M  V30 3403 C 316.112 0.523818 1.88456 0
M  V30 3404 C 316.492 -0.998871 1.85973 0
M  V30 3405 O 315.84 -1.86381 1.3219 0
M  V30 3406 C 316.05 1.0982 3.31271 0
M  V30 3407 C 317.398 1.17385 4.08051 0
M  V30 3408 O 318.422 1.04961 3.40384 0
M  V30 3409 O 317.281 1.36852 5.29088 0
M  V30 3410 H 314.375 0.172485 0.808813 0
M  V30 3411 H 316.921 1.04596 1.33633 0
M  V30 3412 H 315.693 2.1415 3.27499 0
M  V30 3413 H 315.316 0.559191 3.93648 0
M  V30 3414 N 316.313 -1.40141 0.720998 0
M  V30 3415 C 317.538 -2.05618 0.271258 0
M  V30 3416 C 317.963 -1.53978 -1.08039 0
M  V30 3417 O 317.321 -0.677463 -1.68167 0
M  V30 3418 C 317.369 -3.59609 0.267197 0
M  V30 3419 O 316.473 -4.05526 -0.749814 0
M  V30 3420 H 315.814 -0.651904 0.126162 0
M  V30 3421 H 318.344 -1.79439 0.982997 0
M  V30 3422 H 318.354 -4.0786 0.106744 0
M  V30 3423 H 317.029 -3.96559 1.25354 0
M  V30 3424 H 315.606 -3.68722 -0.556644 0
M  V30 3425 N 317.792 -0.46758 -1.50504 0
M  V30 3426 C 318.702 0.33382 -2.32213 0
M  V30 3427 C 319.718 0.999323 -1.42441 0
M  V30 3428 O 320.894 0.988068 -1.75497 0
M  V30 3429 C 317.959 1.4035 -3.17022 0
M  V30 3430 C 317.02 0.754961 -4.2261 0
M  V30 3431 C 316.253 1.77367 -5.03365 0
M  V30 3432 O 316.476 2.99976 -4.8515 0
M  V30 3433 O 315.41 1.34744 -5.86624 0
M  V30 3434 H 319.236 -0.334067 -3.01857 0
M  V30 3435 H 316.821 -0.229496 -1.47627 0
M  V30 3436 H 318.703 2.02318 -3.69656 0
M  V30 3437 H 317.378 2.05492 -2.5011 0
M  V30 3438 H 316.285 0.0964244 -3.73976 0
M  V30 3439 H 317.618 0.146545 -4.91982 0
M  V30 3440 N 319.27 1.56325 -0.20005 0
M  V30 3441 C 320.22 2.15939 0.731743 0
M  V30 3442 C 321.204 1.10154 1.17281 0
M  V30 3443 O 322.396 1.36203 1.13038 0
M  V30 3444 C 319.525 2.82614 1.94895 0
M  V30 3445 C 318.611 3.95596 1.52855 0
M  V30 3446 N 319.002 4.99118 0.819418 0
M  V30 3447 C 317.3 4.07288 1.81748 0
M  V30 3448 C 318.001 5.78513 0.608053 0
M  V30 3449 N 316.977 5.31117 1.15828 0
M  V30 3450 H 320.779 2.9334 0.181285 0
M  V30 3451 H 318.293 1.624 -0.000452172 0
M  V30 3452 H 320.29 3.23718 2.62702 0
M  V30 3453 H 318.95 2.06702 2.50408 0
M  V30 3454 H 319.961 5.15723 0.47436 0
M  V30 3455 H 316.638 3.42509 2.38734 0
M  V30 3456 H 318.028 6.71885 0.0451619 0
M  V30 3457 N 320.748 -0.0735177 1.57428 0
M  V30 3458 C 321.996 -0.771472 1.86796 0
M  V30 3459 C 322.317 -1.78201 0.791804 0
M  V30 3460 O 321.587 -1.95074 -0.179718 0
M  V30 3461 H 320.167 -0.28791 0.689287 0
M  V30 3462 H 322.829 -0.0500161 1.94836 0
M  V30 3463 H 321.925 -1.28874 2.8425 0
M  V30 3464 N 322.226 -1.5378 -0.344866 0
M  V30 3465 C 323.637 -1.62428 -0.920552 0
M  V30 3466 C 323.988 -0.504747 -1.89596 0
M  V30 3467 O 323.113 0.365711 -2.13287 0
M  V30 3468 C 323.708 -2.94419 -1.67639 0
M  V30 3469 C 322.267 -3.05333 -2.20111 0
M  V30 3470 C 321.414 -2.57866 -1.01982 0
M  V30 3471 H 324.365 -1.58222 -0.123042 0
M  V30 3472 H 324.386 -2.83384 -2.53917 0
M  V30 3473 H 323.898 -3.7588 -0.966224 0
M  V30 3474 H 321.999 -2.28502 -2.94308 0
M  V30 3475 H 322.112 -4.10778 -2.46573 0
M  V30 3476 H 320.476 -2.13241 -1.39285 0
M  V30 3477 H 321.259 -3.41765 -0.324308 0
M  V30 3478 N 323.704 0.605807 -1.45491 0
M  V30 3479 C 324.652 1.73754 -1.54636 0
M  V30 3480 C 325.646 1.64207 -0.416219 0
M  V30 3481 O 326.852 1.69979 -0.592199 0
M  V30 3482 H 323.227 0.574073 -0.485741 0
M  V30 3483 H 325.198 1.63169 -2.49837 0
M  V30 3484 C 323.947 3.12135 -1.53189 0
M  V30 3485 H 323.27 3.20141 -2.39478 0
M  V30 3486 H 324.71 3.91147 -1.63645 0
M  V30 3487 C 323.169 3.35921 -0.256616 0
M  V30 3488 O 323.699 3.96194 0.662798 0
M  V30 3489 N 321.905 2.90204 -0.151751 0
M  V30 3490 H 321.452 2.41336 -0.90081 0
M  V30 3491 H 321.41 3.06492 0.700699 0
M  V30 3492 N 325.182 1.32811 0.848464 0
M  V30 3493 C 326.593 1.21315 1.41914 0
M  V30 3494 C 326.944 -0.171847 1.95446 0
M  V30 3495 O 326.069 -1.07093 1.88043 0
M  V30 3496 C 326.664 2.19631 2.57968 0
M  V30 3497 C 325.223 2.12003 3.11017 0
M  V30 3498 C 324.37 2.07651 1.83783 0
M  V30 3499 H 327.321 1.44549 0.655071 0
M  V30 3500 H 327.342 1.79845 3.35315 0
M  V30 3501 H 326.854 3.20423 2.18976 0
M  V30 3502 H 324.955 1.14481 3.54577 0
M  V30 3503 H 325.068 3.02111 3.71841 0
M  V30 3504 H 323.432 1.52983 2.03638 0
M  V30 3505 H 324.215 3.10235 1.47 0
M  V30 3506 N 326.66 -1.06551 1.16123 0
M  V30 3507 C 327.909 -1.78687 0.935622 0
M  V30 3508 C 328.222 -1.88056 -0.538001 0
M  V30 3509 O 329.428 -2.56794 -0.88143 0
M  V30 3510 C 327.884 -3.21143 1.62466 0
M  V30 3511 C 327.492 -3.19949 3.13587 0
M  V30 3512 C 329.236 -3.9783 1.48092 0
M  V30 3513 C 327.143 -4.57108 3.75241 0
M  V30 3514 H 326.073 -0.669712 0.346412 0
M  V30 3515 H 328.724 -1.19534 1.39226 0
M  V30 3516 H 327.106 -3.80539 1.09572 0
M  V30 3517 H 328.28 -2.70151 3.73303 0
M  V30 3518 H 326.595 -2.5676 3.27816 0
M  V30 3519 H 329.192 -4.99217 1.91538 0
M  V30 3520 H 329.535 -4.14078 0.429507 0
M  V30 3521 H 330.068 -3.4495 1.98127 0
M  V30 3522 H 326.807 -4.46065 4.80319 0
M  V30 3523 H 326.327 -5.07111 3.20309 0
M  V30 3524 H 328.006 -5.26069 3.76644 0
M  V30 3525 N 328.138 -0.959301 -1.25041 0
M  V30 3526 C 329.068 -0.501388 -2.28053 0
M  V30 3527 C 330.049 0.454673 -1.63911 0
M  V30 3528 O 331.234 0.352618 -1.90972 0
M  V30 3529 C 328.364 0.217224 -3.4662 0
M  V30 3530 C 327.318 -0.654034 -4.22973 0
M  V30 3531 C 326.644 0.195589 -5.34342 0
M  V30 3532 C 327.944 -1.93447 -4.85155 0
M  V30 3533 H 329.638 -1.36238 -2.66608 0
M  V30 3534 H 327.184 -0.656534 -1.28163 0
M  V30 3535 H 329.137 0.548732 -4.17812 0
M  V30 3536 H 327.861 1.1125 -3.07068 0
M  V30 3537 H 326.52 -0.968693 -3.5357 0
M  V30 3538 H 326.168 1.09076 -4.91031 0
M  V30 3539 H 325.868 -0.384091 -5.86343 0
M  V30 3540 H 327.392 0.521958 -6.08365 0
M  V30 3541 H 328.806 -1.66908 -5.48466 0
M  V30 3542 H 327.203 -2.46018 -5.47353 0
M  V30 3543 H 328.273 -2.63466 -4.07079 0
M  V30 3544 N 329.616 1.39756 -0.72842 0
M  V30 3545 C 330.864 2.00248 -0.272946 0
M  V30 3546 C 331.185 1.58077 1.14178 0
M  V30 3547 O 330.455 0.826014 1.77634 0
M  V30 3548 H 329.035 0.740554 -0.0979247 0
M  V30 3549 H 331.697 1.70903 -0.936912 0
M  V30 3550 H 330.793 3.10495 -0.316142 0
M  V30 3551 N 331.094 0.475555 1.50254 0
M  V30 3552 C 332.319 -0.0777042 2.07254 0
M  V30 3553 C 332.744 -1.3235 1.3366 0
M  V30 3554 O 332.102 -1.77152 0.385597 0
M  V30 3555 C 332.15 -0.340169 3.58992 0
M  V30 3556 O 331.254 -1.41982 3.87188 0
M  V30 3557 H 330.595 0.0149556 0.663832 0
M  V30 3558 H 333.125 0.667878 1.93392 0
M  V30 3559 H 333.135 -0.579332 4.03866 0
M  V30 3560 H 331.81 0.570167 4.11973 0
M  V30 3561 H 330.387 -1.16762 3.54148 0
M  V30 3562 N 332.573 -1.56217 0.208337 0
M  V30 3563 C 333.483 -2.23316 -0.718836 0
M  V30 3564 C 334.499 -1.23648 -1.22422 0
M  V30 3565 O 335.675 -1.56423 -1.26861 0
M  V30 3566 C 332.74 -2.88968 -1.91568 0
M  V30 3567 C 331.801 -4.03943 -1.45357 0
M  V30 3568 C 331.034 -4.66455 -2.59337 0
M  V30 3569 O 331.257 -4.27919 -3.77149 0
M  V30 3570 O 330.191 -5.55686 -2.31293 0
M  V30 3571 H 334.017 -3.03182 -0.177315 0
M  V30 3572 H 331.602 -1.49384 -0.0215402 0
M  V30 3573 H 333.484 -3.30455 -2.61491 0
M  V30 3574 H 332.159 -2.12071 -2.44556 0
M  V30 3575 H 331.066 -3.67052 -0.722746 0
M  V30 3576 H 332.399 -4.82543 -0.970219 0
M  V30 3577 N 334.051 0.0651679 -1.57465 0
M  V30 3578 C 335.014 1.06117 -2.03155 0
M  V30 3579 C 336.014 1.31204 -0.929632 0
M  V30 3580 O 337.204 1.26813 -1.19432 0
M  V30 3581 C 334.336 2.4032 -2.41783 0
M  V30 3582 H 335.529 0.667231 -2.92383 0
M  V30 3583 H 333.082 0.311075 -1.53173 0
M  V30 3584 H 333.817 2.84532 -1.55601 0
M  V30 3585 H 333.602 2.23451 -3.22199 0
M  V30 3586 H 335.092 3.11898 -2.77685 0
M  V30 3587 N 335.529 1.53961 0.336706 0
M  V30 3588 C 336.459 1.85417 1.41925 0
M  V30 3589 C 337.44 0.709856 1.5458 0
M  V30 3590 O 338.625 0.962396 1.68676 0
M  V30 3591 C 335.755 2.06985 2.78881 0
M  V30 3592 C 334.709 3.22813 2.81026 0
M  V30 3593 C 334.035 3.29727 4.20932 0
M  V30 3594 C 335.335 4.60767 2.45949 0
M  V30 3595 H 337.029 2.76079 1.15848 0
M  V30 3596 H 334.575 1.32839 0.555859 0
M  V30 3597 H 336.528 2.27575 3.54665 0
M  V30 3598 H 335.252 1.13061 3.06406 0
M  V30 3599 H 333.911 3.0209 2.07695 0
M  V30 3600 H 333.559 2.33385 4.45579 0
M  V30 3601 H 333.259 4.07566 4.23277 0
M  V30 3602 H 334.783 3.52536 4.98549 0
M  V30 3603 H 336.197 4.81325 3.11446 0
M  V30 3604 H 334.594 5.4106 2.59566 0
M  V30 3605 H 335.664 4.6391 1.41122 0
M  V30 3606 N 337.007 -0.598083 1.45811 0
M  V30 3607 C 337.937 -1.71873 1.58057 0
M  V30 3608 C 338.918 -1.64533 0.431615 0
M  V30 3609 O 340.103 -1.82787 0.65595 0
M  V30 3610 C 337.233 -3.10495 1.55597 0
M  V30 3611 C 336.187 -3.32654 2.69305 0
M  V30 3612 C 335.513 -4.71646 2.51902 0
M  V30 3613 C 336.813 -3.21981 4.11248 0
M  V30 3614 H 338.507 -1.61881 2.51863 0
M  V30 3615 H 336.053 -0.777372 1.21214 0
M  V30 3616 H 338.006 -3.88699 1.6276 0
M  V30 3617 H 336.73 -3.2135 0.583255 0
M  V30 3618 H 335.389 -2.56843 2.61586 0
M  V30 3619 H 335.037 -4.79246 1.52748 0
M  V30 3620 H 334.737 -4.87426 3.2816 0
M  V30 3621 H 336.261 -5.52038 2.60933 0
M  V30 3622 H 337.675 -3.90049 4.20161 0
M  V30 3623 H 336.072 -3.49289 4.87972 0
M  V30 3624 H 337.142 -2.1928 4.32486 0
M  V30 3625 N 338.485 -1.33259 -0.841409 0
M  V30 3626 C 339.733 -1.24326 -1.59334 0
M  V30 3627 C 340.054 0.191564 -1.94057 0
M  V30 3628 O 339.324 1.11967 -1.60749 0
M  V30 3629 H 337.904 -0.457174 -0.590763 0
M  V30 3630 H 340.566 -1.66947 -1.00571 0
M  V30 3631 H 339.662 -1.8352 -2.52442 0
M  V30 3632 N 339.963 1.05934 -1.16686 0
M  V30 3633 C 340.895 2.13468 -0.834503 0
M  V30 3634 C 341.908 1.62013 0.15984 0
M  V30 3635 O 343.097 1.7838 -0.0654228 0
M  V30 3636 C 340.197 3.3817 -0.222361 0
M  V30 3637 C 339.37 4.18928 -1.25771 0
M  V30 3638 C 338.429 5.21985 -0.664703 0
M  V30 3639 O 337.455 5.53334 -1.33453 0
M  V30 3640 N 338.657 5.77919 0.546834 0
M  V30 3641 H 341.422 2.42578 -1.75999 0
M  V30 3642 H 338.983 1.21967 -1.06469 0
M  V30 3643 H 340.975 4.04266 0.187472 0
M  V30 3644 H 339.545 3.06655 0.606758 0
M  V30 3645 H 338.765 3.48433 -1.84358 0
M  V30 3646 H 340.053 4.69687 -1.95631 0
M  V30 3647 H 339.451 5.54721 1.10912 0
M  V30 3648 H 338.008 6.45573 0.898829 0
M  V30 3649 N 341.441 0.965919 1.2453 0
M  V30 3650 C 342.857 0.67216 1.44756 0
M  V30 3651 C 343.057 -0.766609 1.86347 0
M  V30 3652 O 342.113 -1.5407 2.00047 0
M  V30 3653 C 343.426 1.65473 2.51076 0
M  V30 3654 C 344.974 1.66716 2.64905 0
M  V30 3655 C 345.449 2.63766 3.74421 0
M  V30 3656 N 346.94 2.62198 3.81846 0
M  V30 3657 C 347.675 3.33966 4.66106 0
M  V30 3658 N 347.171 4.15245 5.54566 0
M  V30 3659 N 348.964 3.22799 4.60171 0
M  V30 3660 H 341.115 1.89553 0.958293 0
M  V30 3661 H 343.378 0.815979 0.482579 0
M  V30 3662 H 343.084 2.68296 2.27399 0
M  V30 3663 H 342.958 1.4261 3.49202 0
M  V30 3664 H 345.345 0.646057 2.87941 0
M  V30 3665 H 345.426 1.93642 1.67142 0
M  V30 3666 H 345.07 3.6601 3.52135 0
M  V30 3667 H 345 2.34121 4.71694 0
M  V30 3668 H 347.491 2.032 3.18619 0
M  V30 3669 H 347.804 4.66898 6.15814 0
M  V30 3670 H 346.149 4.1934 5.54237 0
M  V30 3671 H 349.34 2.58764 3.90075 0
M  V30 3672 H 349.513 3.78994 5.25612 0
M  V30 3673 N 342.919 -1.39368 0.735821 0
M  V30 3674 C 343.849 -2.33234 0.111506 0
M  V30 3675 C 344.83 -1.53954 -0.723334 0
M  V30 3676 O 346.015 -1.82344 -0.668147 0
M  V30 3677 C 343.145 -3.38057 -0.795917 0
M  V30 3678 C 342.099 -4.2795 -0.065172 0
M  V30 3679 C 341.425 -5.23479 -1.08967 0
M  V30 3680 C 342.725 -5.10741 1.09273 0
M  V30 3681 H 344.419 -2.85692 0.895571 0
M  V30 3682 H 341.965 -1.37364 0.432109 0
M  V30 3683 H 343.918 -4.02675 -1.24221 0
M  V30 3684 H 342.642 -2.8404 -1.61211 0
M  V30 3685 H 341.301 -3.64813 0.361511 0
M  V30 3686 H 340.949 -4.65758 -1.89944 0
M  V30 3687 H 340.649 -5.84472 -0.605489 0
M  V30 3688 H 342.173 -5.90974 -1.53565 0
M  V30 3689 H 343.587 -5.68699 0.724841 0
M  V30 3690 H 341.984 -5.8088 1.50659 0
M  V30 3691 H 343.054 -4.45525 1.91404 0
M  V30 3692 N 344.397 -0.483516 -1.5 0
M  V30 3693 C 345.813 -0.138404 -1.58999 0
M  V30 3694 C 346.013 1.35597 -1.4905 0
M  V30 3695 O 345.069 2.13039 -1.35539 0
M  V30 3696 C 346.382 -0.699658 -2.92447 0
M  V30 3697 C 347.93 -0.664195 -3.05872 0
M  V30 3698 C 348.405 -1.20321 -4.41913 0
M  V30 3699 N 349.896 -1.16315 -4.48358 0
M  V30 3700 C 350.631 -1.55058 -5.52037 0
M  V30 3701 N 350.127 -2.01311 -6.62907 0
M  V30 3702 N 351.92 -1.46584 -5.42651 0
M  V30 3703 H 344.071 -1.45529 -1.5471 0
M  V30 3704 H 346.334 -0.60258 -0.731848 0
M  V30 3705 H 346.04 -1.747 -3.05242 0
M  V30 3706 H 345.914 -0.150194 -3.76901 0
M  V30 3707 H 348.301 0.374272 -2.92717 0
M  V30 3708 H 348.382 -1.25061 -2.23144 0
M  V30 3709 H 348.026 -2.24037 -4.55818 0
M  V30 3710 H 347.956 -0.592896 -5.23252 0
M  V30 3711 H 350.447 -0.824058 -3.68806 0
M  V30 3712 H 350.76 -2.2899 -7.38095 0
M  V30 3713 H 349.105 -2.05273 -6.63994 0
M  V30 3714 H 352.296 -1.10281 -4.54924 0
M  V30 3715 H 352.469 -1.77103 -6.23329 0
M  V30 3716 N 345.875 1.56104 -0.216619 0
M  V30 3717 C 346.805 2.23063 0.690296 0
M  V30 3718 C 347.786 1.20072 1.20485 0
M  V30 3719 O 348.971 1.48643 1.24976 0
M  V30 3720 C 346.101 2.90672 1.90072 0
M  V30 3721 C 345.055 4.00092 1.5202 0
M  V30 3722 C 344.381 4.54972 2.80899 0
M  V30 3723 C 345.681 5.17398 0.71391 0
M  V30 3724 H 347.375 2.99109 0.132038 0
M  V30 3725 H 344.921 1.43866 0.0620664 0
M  V30 3726 H 346.874 3.36204 2.54057 0
M  V30 3727 H 345.598 2.12066 2.48386 0
M  V30 3728 H 344.257 3.55283 0.903839 0
M  V30 3729 H 343.905 3.73102 3.37348 0
M  V30 3730 H 343.605 5.28817 2.56176 0
M  V30 3731 H 345.129 5.0322 3.45836 0
M  V30 3732 H 346.543 5.59342 1.25735 0
M  V30 3733 H 344.94 5.97444 0.563951 0
M  V30 3734 H 346.01 4.84088 -0.280527 0
M  V30 3735 N 347.353 -0.0568162 1.57498 0
M  V30 3736 C 348.285 -1.09292 2.01464 0
M  V30 3737 C 349.298 -1.34112 0.922913 0
M  V30 3738 O 350.487 -1.32089 1.20062 0
M  V30 3739 C 347.587 -2.44068 2.35125 0
M  V30 3740 C 346.76 -2.38995 3.66333 0
M  V30 3741 C 345.819 -3.55997 3.87495 0
M  V30 3742 O 344.845 -3.36746 4.58901 0
M  V30 3743 N 346.047 -4.76888 3.30996 0
M  V30 3744 H 348.812 -0.718386 2.90963 0
M  V30 3745 H 346.373 -0.245235 1.60032 0
M  V30 3746 H 348.365 -3.21011 2.46443 0
M  V30 3747 H 346.935 -2.73468 1.5144 0
M  V30 3748 H 346.155 -1.47336 3.65631 0
M  V30 3749 H 347.443 -2.3272 4.52458 0
M  V30 3750 H 346.841 -4.95431 2.73065 0
M  V30 3751 H 345.398 -5.51291 3.47738 0
M  V30 3752 N 348.832 -1.54138 -0.328536 0
M  V30 3753 C 349.742 -1.86192 -1.42723 0
M  V30 3754 C 350.758 -0.753382 -1.56844 0
M  V30 3755 O 351.934 -1.04718 -1.72035 0
M  V30 3756 C 348.999 -2.07824 -2.77507 0
M  V30 3757 C 348.06 -3.31641 -2.72603 0
M  V30 3758 C 347.293 -3.52232 -4.00959 0
M  V30 3759 O 347.516 -2.7636 -4.9898 0
M  V30 3760 O 346.45 -4.45699 -4.0452 0
M  V30 3761 H 350.276 -2.79608 -1.18547 0
M  V30 3762 H 347.861 -1.3998 -0.522104 0
M  V30 3763 H 349.743 -2.23411 -3.57303 0
M  V30 3764 H 348.418 -1.17596 -3.01584 0
M  V30 3765 H 347.325 -3.21444 -1.91376 0
M  V30 3766 H 348.658 -4.2191 -2.53481 0
M  V30 3767 N 350.31 0.590341 -1.46126 0
M  V30 3768 C 351.538 1.37504 -1.54597 0
M  V30 3769 C 351.953 1.87897 -0.184447 0
M  V30 3770 O 351.31 1.63192 0.816984 0
M  V30 3771 C 351.361 2.56779 -2.54454 0
M  V30 3772 O 351.082 2.08476 -3.85317 0
M  V30 3773 C 352.583 3.49427 -2.72792 0
M  V30 3774 H 349.803 0.420325 -0.523037 0
M  V30 3775 H 352.347 0.718383 -1.91467 0
M  V30 3776 H 350.502 3.1845 -2.20609 0
M  V30 3777 H 350.916 2.86097 -4.396 0
M  V30 3778 H 352.39 4.29619 -3.466 0
M  V30 3779 H 352.867 4.00876 -1.79429 0
M  V30 3780 H 353.473 2.93598 -3.07702 0
M  V30 3781 N 351.788 1.33704 0.83433 0
M  V30 3782 C 353.013 1.28615 1.62705 0
M  V30 3783 C 353.438 -0.139242 1.87584 0
M  V30 3784 O 352.796 -1.09734 1.4432 0
M  V30 3785 C 352.844 2.07139 2.95171 0
M  V30 3786 O 351.948 1.4331 3.86699 0
M  V30 3787 H 351.289 0.44226 0.49528 0
M  V30 3788 H 353.819 1.76335 1.03766 0
M  V30 3789 H 353.829 2.18073 3.44831 0
M  V30 3790 H 352.504 3.10779 2.76386 0
M  V30 3791 H 351.081 1.4105 3.45195 0
M  V30 3792 N 353.266 -1.05314 1.17247 0
M  V30 3793 C 354.512 -1.78557 0.961513 0
M  V30 3794 C 354.845 -1.87419 -0.508697 0
M  V30 3795 O 354.12 -1.37307 -1.37757 0
M  V30 3796 C 354.403 -3.22514 1.60176 0
M  V30 3797 C 354.256 -3.21673 3.14399 0
M  V30 3798 C 355.575 -4.20318 1.30463 0
M  V30 3799 H 352.694 -0.6482 0.350723 0
M  V30 3800 H 355.336 -1.23102 1.44727 0
M  V30 3801 H 353.486 -3.69867 1.18871 0
M  V30 3802 H 355.158 -2.82405 3.64753 0
M  V30 3803 H 353.401 -2.60048 3.47214 0
M  V30 3804 H 354.072 -4.23271 3.54324 0
M  V30 3805 H 356.548 -3.81454 1.66229 0
M  V30 3806 H 355.424 -5.19289 1.77848 0
M  V30 3807 H 355.685 -4.41526 0.22521 0
M  V30 3808 N 354.744 -0.972509 -1.24016 0
M  V30 3809 C 355.707 -0.511403 -2.23422 0
M  V30 3810 C 356.707 0.394679 -1.55881 0
M  V30 3811 O 357.897 0.189469 -1.73167 0
M  V30 3812 C 355.029 0.258769 -3.39916 0
M  V30 3813 H 356.222 -1.39024 -2.6573 0
M  V30 3814 H 353.775 -0.757585 -1.36713 0
M  V30 3815 H 354.51 1.1545 -3.03054 0
M  V30 3816 H 354.295 -0.391522 -3.9014 0
M  V30 3817 H 355.785 0.570244 -4.13688 0
M  V30 3818 N 356.222 1.38976 -0.743202 0
M  V30 3819 C 357.633 1.83123 -0.363732 0
M  V30 3820 C 357.984 1.6205 1.10609 0
M  V30 3821 O 357.109 1.11606 1.854 0
M  V30 3822 C 357.704 3.32439 -0.653408 0
M  V30 3823 C 356.263 3.74974 -0.327338 0
M  V30 3824 C 355.41 2.61878 -0.911875 0
M  V30 3825 H 358.361 1.27852 -0.940191 0
M  V30 3826 H 358.382 3.80432 0.0720031 0
M  V30 3827 H 357.894 3.47745 -1.72323 0
M  V30 3828 H 355.995 3.65252 0.736314 0
M  V30 3829 H 356.108 4.72106 -0.815631 0
M  V30 3830 H 354.472 2.52448 -0.337944 0
M  V30 3831 H 355.255 2.79987 -1.98651 0
M  V30 3832 N 357.7 0.491464 1.49741 0
M  V30 3833 C 358.947 -0.0564256 2.02421 0
M  V30 3834 C 359.275 -1.37872 1.37192 0
M  V30 3835 O 358.53 -1.89375 0.493508 0
M  V30 3836 C 358.829 -0.267329 3.56399 0
M  V30 3837 C 358.495 0.975775 4.40215 0
M  V30 3838 C 357.157 1.31655 4.62839 0
M  V30 3839 C 359.509 1.80251 4.89039 0
M  V30 3840 C 356.837 2.48375 5.31532 0
M  V30 3841 C 359.189 2.96116 5.59015 0
M  V30 3842 C 357.853 3.30585 5.79888 0
M  V30 3843 H 357.123 -0.0206476 0.740712 0
M  V30 3844 H 359.77 0.649686 1.80143 0
M  V30 3845 H 358.075 -1.05588 3.77304 0
M  V30 3846 H 359.772 -0.705549 3.94744 0
M  V30 3847 H 356.362 0.700315 4.2284 0
M  V30 3848 H 360.546 1.55239 4.71396 0
M  V30 3849 H 355.802 2.7533 5.45897 0
M  V30 3850 H 359.976 3.60509 5.95824 0
M  V30 3851 H 357.603 4.21132 6.32892 0
M  V30 3852 N 359.178 -1.55987 0.224894 0
M  V30 3853 C 360.141 -2.19178 -0.670348 0
M  V30 3854 C 361.141 -1.15461 -1.11917 0
M  V30 3855 O 362.331 -1.40675 -1.02743 0
M  V30 3856 C 359.463 -2.81777 -1.9187 0
M  V30 3857 H 360.656 -2.99662 -0.119364 0
M  V30 3858 H 358.209 -1.5628 -0.0247128 0
M  V30 3859 H 358.944 -2.05172 -2.51147 0
M  V30 3860 H 358.729 -3.57732 -1.60531 0
M  V30 3861 H 360.219 -3.30205 -2.55645 0
M  V30 3862 N 360.656 0.0484629 -1.57525 0
M  V30 3863 C 361.586 1.0549 -2.08313 0
M  V30 3864 C 362.567 1.38929 -0.981463 0
M  V30 3865 O 363.752 1.48151 -1.25558 0
M  V30 3866 C 360.882 2.36162 -2.54646 0
M  V30 3867 C 359.836 2.17016 -3.68901 0
M  V30 3868 C 359.162 3.53278 -4.01371 0
M  V30 3869 C 360.462 1.57219 -4.98076 0
M  V30 3870 H 362.156 0.632195 -2.92649 0
M  V30 3871 H 359.702 0.302654 -1.40784 0
M  V30 3872 H 361.655 3.06882 -2.88793 0
M  V30 3873 H 360.379 2.80456 -1.67368 0
M  V30 3874 H 359.038 1.48733 -3.35073 0
M  V30 3875 H 358.686 3.95185 -3.11188 0
M  V30 3876 H 358.386 3.41299 -4.78318 0
M  V30 3877 H 359.91 4.25391 -4.38035 0
M  V30 3878 H 361.324 2.17832 -5.30304 0
M  V30 3879 H 359.721 1.55871 -5.79503 0
M  V30 3880 H 360.791 0.535956 -4.81929 0
M  V30 3881 N 362.134 1.5431 0.320358 0
M  V30 3882 C 363.545 1.63872 0.894594 0
M  V30 3883 C 363.896 0.534847 1.88769 0
M  V30 3884 O 363.021 -0.331732 2.13842 0
M  V30 3885 C 363.616 2.97049 1.62934 0
M  V30 3886 C 362.175 3.08796 2.15226 0
M  V30 3887 C 361.322 2.59456 0.978671 0
M  V30 3888 H 364.273 1.58398 0.0978544 0
M  V30 3889 H 364.294 2.87388 2.49376 0
M  V30 3890 H 363.806 3.7737 0.906302 0
M  V30 3891 H 361.907 2.33156 2.90636 0
M  V30 3892 H 362.02 4.14649 2.40006 0
M  V30 3893 H 360.384 2.1543 1.35875 0
M  V30 3894 H 361.167 3.42237 0.269895 0
M  V30 3895 N 363.613 -0.582584 1.46437 0
M  V30 3896 C 364.841 -1.36682 1.55324 0
M  V30 3897 C 365.256 -1.87796 0.194409 0
M  V30 3898 O 364.613 -1.63623 -0.808318 0
M  V30 3899 C 364.664 -2.55426 2.55812 0
M  V30 3900 O 364.385 -2.0643 3.86417 0
M  V30 3901 C 365.886 -3.47976 2.74641 0
M  V30 3902 H 363.106 -0.417545 0.525259 0
M  V30 3903 H 365.65 -0.708219 1.91845 0
M  V30 3904 H 363.805 -3.17275 2.22295 0
M  V30 3905 H 364.219 -2.83762 4.41111 0
M  V30 3906 H 365.693 -4.27775 3.48874 0
M  V30 3907 H 366.17 -3.99919 1.81553 0
M  V30 3908 H 366.776 -2.91962 3.09255 0
M  V30 3909 N 365.091 -1.34144 -0.827227 0
M  V30 3910 C 366.337 -1.26446 -1.58554 0
M  V30 3911 C 366.67 0.1664 -1.93486 0
M  V30 3912 O 365.945 1.1107 -1.59667 0
M  V30 3913 C 366.228 -2.15111 -2.8879 0
M  V30 3914 C 366.081 -3.66712 -2.60465 0
M  V30 3915 C 367.4 -2.03311 -3.90324 0
M  V30 3916 H 364.519 -0.46067 -0.575284 0
M  V30 3917 H 367.161 -1.64356 -0.953269 0
M  V30 3918 H 365.311 -1.8291 -3.42748 0
M  V30 3919 H 366.983 -4.09259 -2.1285 0
M  V30 3920 H 365.226 -3.88014 -1.93978 0
M  V30 3921 H 365.897 -4.24112 -3.53317 0
M  V30 3922 H 368.373 -2.31574 -3.45706 0
M  V30 3923 H 367.249 -2.67582 -4.79261 0
M  V30 3924 H 367.51 -1.00879 -4.30437 0
M  V30 3925 N 366.569 1.04691 -1.17803 0
M  V30 3926 C 367.794 1.81984 -0.994813 0
M  V30 3927 C 368.219 1.82586 0.452112 0
M  V30 3928 O 367.577 1.23854 1.324 0
M  V30 3929 C 367.625 3.2575 -1.54659 0
M  V30 3930 O 366.729 4.05267 -0.763728 0
M  V30 3931 H 366.07 0.562483 -0.352857 0
M  V30 3932 H 368.6 1.3189 -1.56417 0
M  V30 3933 H 368.61 3.76541 -1.57102 0
M  V30 3934 H 367.285 3.24627 -2.59981 0
M  V30 3935 H 365.862 3.63972 -0.811108 0
M  V30 3936 N 368.047 0.979072 1.23499 0
M  V30 3937 C 368.977 0.537606 2.27227 0
M  V30 3938 C 369.958 -0.428539 1.64613 0
M  V30 3939 O 371.143 -0.322191 1.91509 0
M  V30 3940 C 368.273 -0.162052 3.46922 0
M  V30 3941 C 367.227 0.721242 4.21879 0
M  V30 3942 C 366.553 -0.110555 5.34586 0
M  V30 3943 C 367.853 2.01141 4.82016 0
M  V30 3944 H 369.547 1.40462 2.64406 0
M  V30 3945 H 367.093 0.67684 1.27102 0
M  V30 3946 H 369.046 -0.482192 4.18632 0
M  V30 3947 H 367.77 -1.06351 3.08799 0
M  V30 3948 H 366.429 1.02482 3.51984 0
M  V30 3949 H 366.077 -1.0125 4.92704 0
M  V30 3950 H 365.777 0.477325 5.85658 0
M  V30 3951 H 367.301 -0.425107 6.09118 0
M  V30 3952 H 368.715 1.75612 5.45741 0
M  V30 3953 H 367.112 2.54695 5.43369 0
M  V30 3954 H 368.182 2.69909 4.02836 0
M  V30 3955 N 369.525 -1.3858 0.750561 0
M  V30 3956 C 370.455 -2.33102 0.136237 0
M  V30 3957 C 371.436 -1.54713 -0.706965 0
M  V30 3958 O 372.621 -1.83043 -0.648769 0
M  V30 3959 C 369.751 -3.38882 -0.760017 0
M  V30 3960 C 368.705 -4.27995 -0.0197785 0
M  V30 3961 C 368.031 -5.24605 -1.03408 0
M  V30 3962 C 369.331 -5.09554 1.14684 0
M  V30 3963 H 371.025 -2.84726 0.925822 0
M  V30 3964 H 368.571 -1.36898 0.446654 0
M  V30 3965 H 370.524 -4.0397 -1.19943 0
M  V30 3966 H 369.248 -2.85734 -1.58189 0
M  V30 3967 H 367.907 -3.64409 0.400184 0
M  V30 3968 H 367.555 -4.67746 -1.84994 0
M  V30 3969 H 367.255 -5.85081 -0.543464 0
M  V30 3970 H 368.779 -5.9257 -1.47288 0
M  V30 3971 H 370.193 -5.67899 0.785118 0
M  V30 3972 H 368.59 -5.7925 1.56812 0
M  V30 3973 H 369.66 -4.4347 1.96118 0
M  V30 3974 N 371.003 -0.499398 -1.49478 0
M  V30 3975 C 372.414 -0.051215 -1.8663 0
M  V30 3976 C 372.765 1.36238 -1.41186 0
M  V30 3977 O 371.89 2.01502 -0.789051 0
M  V30 3978 C 372.485 -0.0861651 -3.3869 0
M  V30 3979 C 371.044 0.30667 -3.75149 0
M  V30 3980 C 370.191 -0.459397 -2.73468 0
M  V30 3981 H 373.142 -0.712264 -1.41818 0
M  V30 3982 H 373.163 0.709507 -3.73826 0
M  V30 3983 H 372.675 -1.11512 -3.71735 0
M  V30 3984 H 370.776 1.33892 -3.47712 0
M  V30 3985 H 370.889 -0.0116669 -4.79099 0
M  V30 3986 H 369.253 0.0905645 -2.54539 0
M  V30 3987 H 370.036 -1.4884 -3.09357 0
M  V30 3988 N 372.481 1.55866 -0.233164 0
M  V30 3989 C 373.444 2.1953 0.658715 0
M  V30 3990 C 374.444 1.16053 1.11303 0
M  V30 3991 O 375.634 1.41218 1.01996 0
M  V30 3992 C 372.766 2.82791 1.90373 0
M  V30 3993 H 373.959 2.99721 0.10347 0
M  V30 3994 H 371.512 1.56291 0.0164245 0
M  V30 3995 H 372.247 2.06501 2.50056 0
M  V30 3996 H 372.032 3.58578 1.58632 0
M  V30 3997 H 373.522 3.31556 2.53891 0
M  V30 3998 N 373.959 -0.0401083 1.57549 0
M  V30 3999 C 375.208 -0.732108 1.87944 0
M  V30 4000 C 375.521 -1.77107 0.830206 0
M  V30 4001 O 376.727 -2.51488 1.02302 0
M  V30 4002 C 375.183 -1.35315 3.33494 0
M  V30 4003 C 374.791 -0.351105 4.46622 0
M  V30 4004 C 376.535 -2.02566 3.73051 0
M  V30 4005 C 374.442 -0.979859 5.83226 0
M  V30 4006 H 373.372 -0.277188 0.701201 0
M  V30 4007 H 376.023 0.0138501 1.83495 0
M  V30 4008 H 374.405 -2.14844 3.32653 0
M  V30 4009 H 375.579 0.416674 4.58912 0
M  V30 4010 H 373.894 0.218708 4.15825 0
M  V30 4011 H 376.491 -2.50441 4.72423 0
M  V30 4012 H 376.834 -2.83904 3.04474 0
M  V30 4013 H 377.367 -1.29827 3.76018 0
M  V30 4014 H 374.106 -0.206135 6.55176 0
M  V30 4015 H 373.626 -1.71774 5.74677 0
M  V30 4016 H 375.305 -1.49046 6.29599 0
M  V30 4017 N 375.437 -1.54477 -0.31217 0
M  V30 4018 C 376.665 -1.77205 -1.068 0
M  V30 4019 C 377.08 -0.526114 -1.81321 0
M  V30 4020 O 376.437 0.503647 -1.75413 0
M  V30 4021 C 376.488 -2.97253 -2.05725 0
M  V30 4022 O 376.209 -4.1703 -1.34228 0
M  V30 4023 C 377.71 -3.32281 -2.93435 0
M  V30 4024 H 374.93 -0.591287 -0.317208 0
M  V30 4025 H 377.474 -2.01398 -0.354834 0
M  V30 4026 H 375.629 -2.753 -2.72559 0
M  V30 4027 H 376.043 -4.84636 -2.00571 0
M  V30 4028 H 377.517 -4.19551 -3.58721 0
M  V30 4029 H 377.994 -2.49945 -3.61143 0
M  V30 4030 H 378.6 -3.56353 -2.32147 0
M  V30 4031 N 376.915 0.57481 -1.46744 0
M  V30 4032 C 377.845 1.69337 -1.60771 0
M  V30 4033 C 378.826 1.63825 -0.457736 0
M  V30 4034 O 380.011 1.8172 -0.684947 0
M  V30 4035 C 377.141 3.0798 -1.60517 0
M  V30 4036 C 376.095 3.28327 -2.74564 0
M  V30 4037 C 375.421 4.67578 -2.59373 0
M  V30 4038 C 376.721 3.15398 -4.16319 0
M  V30 4039 H 378.415 1.57853 -2.54407 0
M  V30 4040 H 375.961 0.75799 -1.22436 0
M  V30 4041 H 377.914 3.86061 -1.68923 0
M  V30 4042 H 376.638 3.20381 -0.634305 0
M  V30 4043 H 375.297 2.52649 -2.65639 0
M  V30 4044 H 374.945 4.76755 -1.60353 0
M  V30 4045 H 374.645 4.82144 -3.35873 0
M  V30 4046 H 376.169 5.47817 -2.69682 0
M  V30 4047 H 377.583 3.83315 -4.26313 0
M  V30 4048 H 375.98 3.41482 -4.93468 0
M  V30 4049 H 377.05 2.12372 -4.3592 0
M  V30 4050 N 378.394 1.34581 0.820102 0
M  V30 4051 C 379.642 1.26845 1.57336 0
M  V30 4052 C 379.963 -0.160667 1.94337 0
M  V30 4053 O 379.233 -1.09396 1.6251 0
M  V30 4054 H 377.813 0.466514 0.583415 0
M  V30 4055 H 380.475 1.68526 0.979027 0
M  V30 4056 H 379.571 1.87513 2.4949 0
M  V30 4057 N 379.872 -1.04064 1.18357 0
M  V30 4058 C 380.802 -2.14001 0.934113 0
M  V30 4059 C 381.783 -1.69616 -0.128186 0
M  V30 4060 O 382.968 -1.94185 0.0244093 0
M  V30 4061 C 380.098 -3.44253 0.459066 0
M  V30 4062 C 379.052 -4.02261 1.46185 0
M  V30 4063 C 378.378 -5.27992 0.844322 0
M  V30 4064 C 379.678 -4.38432 2.83856 0
M  V30 4065 H 381.372 -2.35127 1.85352 0
M  V30 4066 H 378.918 -1.12998 0.892604 0
M  V30 4067 H 380.871 -4.20522 0.271907 0
M  V30 4068 H 379.595 -3.22813 -0.495912 0
M  V30 4069 H 378.254 -3.28074 1.63595 0
M  V30 4070 H 377.902 -5.02862 -0.117845 0
M  V30 4071 H 377.602 -5.67765 1.51384 0
M  V30 4072 H 379.126 -6.06938 0.667693 0
M  V30 4073 H 380.54 -5.05688 2.70098 0
M  V30 4074 H 378.937 -4.89254 3.47491 0
M  V30 4075 H 380.007 -3.4826 3.37406 0
M  V30 4076 N 381.35 -0.985608 -1.22978 0
M  V30 4077 C 382.761 -0.693593 -1.73338 0
M  V30 4078 C 383.112 0.789935 -1.79595 0
M  V30 4079 O 382.237 1.61771 -1.43733 0
M  V30 4080 C 382.832 -1.25235 -3.14804 0
M  V30 4081 C 381.391 -1.00987 -3.626 0
M  V30 4082 C 380.538 -1.37695 -2.40698 0
M  V30 4083 H 383.489 -1.15884 -1.08428 0
M  V30 4084 H 383.51 -0.627329 -3.75293 0
M  V30 4085 H 383.022 -2.33209 -3.10218 0
M  V30 4086 H 381.123 0.0535565 -3.72562 0
M  V30 4087 H 381.236 -1.66812 -4.49122 0
M  V30 4088 H 379.6 -0.795459 -2.4196 0
M  V30 4089 H 380.383 -2.46657 -2.38779 0
M  V30 4090 N 382.828 1.3818 -0.7579 0
M  V30 4091 C 383.791 2.28764 -0.141286 0
M  V30 4092 C 384.791 1.47388 0.642907 0
M  V30 4093 O 385.981 1.67781 0.468536 0
M  V30 4094 C 383.113 3.31184 0.808069 0
M  V30 4095 H 384.306 2.848 -0.939633 0
M  V30 4096 H 381.859 1.47212 -0.525191 0
M  V30 4097 H 382.594 2.80247 1.63193 0
M  V30 4098 H 382.379 3.91314 0.248104 0
M  V30 4099 H 383.869 3.98909 1.23536 0
M  V30 4100 N 384.306 0.507319 1.49211 0
M  V30 4101 C 385.717 0.0611118 1.866 0
M  V30 4102 C 386.068 -1.35488 1.41907 0
M  V30 4103 O 385.193 -2.0108 0.799726 0
M  V30 4104 C 385.788 0.104125 3.3864 0
M  V30 4105 C 384.347 -0.28677 3.75306 0
M  V30 4106 C 383.494 0.473893 2.73221 0
M  V30 4107 H 386.445 0.719775 1.41439 0
M  V30 4108 H 386.466 -0.689672 3.74198 0
M  V30 4109 H 385.978 1.13482 3.71138 0
M  V30 4110 H 384.079 -1.32046 3.48417 0
M  V30 4111 H 384.192 0.0370745 4.79086 0
M  V30 4112 H 382.556 -0.0770644 2.54583 0
M  V30 4113 H 383.339 1.50478 3.08563 0
M  V30 4114 N 385.784 -1.5574 0.241426 0
M  V30 4115 C 386.747 -2.19877 -0.647063 0
M  V30 4116 C 387.747 -1.16642 -1.10686 0
M  V30 4117 O 388.937 -1.41757 -1.01245 0
M  V30 4118 C 386.069 -2.83797 -1.88871 0
M  V30 4119 H 387.262 -2.99772 -0.087574 0
M  V30 4120 H 384.815 -1.56298 -0.00813574 0
M  V30 4121 H 385.55 -2.07824 -2.48957 0
M  V30 4122 H 385.335 -3.59414 -1.56728 0
M  V30 4123 H 386.825 -3.32898 -2.52129 0
M  V30 4124 N 387.262 0.0317525 -1.57568 0
M  V30 4125 C 388.678 0.38735 -1.54828 0
M  V30 4126 C 388.878 1.7677 -0.967187 0
M  V30 4127 O 387.934 2.45581 -0.587063 0
M  V30 4128 C 389.247 0.291667 -2.99282 0
M  V30 4129 C 390.795 0.368946 -3.10818 0
M  V30 4130 C 391.27 0.302741 -4.56998 0
M  V30 4131 N 392.761 0.361617 -4.61786 0
M  V30 4132 C 393.496 0.333238 -5.72431 0
M  V30 4133 N 392.992 0.257308 -6.92322 0
M  V30 4134 N 394.785 0.382769 -5.60795 0
M  V30 4135 H 386.936 -0.871609 -1.93692 0
M  V30 4136 H 389.199 -0.331161 -0.888277 0
M  V30 4137 H 388.905 -0.656794 -3.45513 0
M  V30 4138 H 388.779 1.08638 -3.61217 0
M  V30 4139 H 391.166 1.30784 -2.64536 0
M  V30 4140 H 391.247 -0.455066 -2.5172 0
M  V30 4141 H 390.891 -0.632473 -5.03947 0
M  V30 4142 H 390.821 1.14482 -5.14005 0
M  V30 4143 H 393.312 0.422923 -3.75526 0
M  V30 4144 H 393.625 0.24068 -7.72425 0
M  V30 4145 H 391.97 0.223396 -6.94641 0
M  V30 4146 H 395.161 0.44006 -4.66027 0
M  V30 4147 H 395.334 0.357184 -6.47015 0
M  V30 4148 N 388.74 1.54641 0.303973 0
M  V30 4149 C 389.703 1.84646 1.35789 0
M  V30 4150 C 390.703 0.7192 1.4382 0
M  V30 4151 O 391.893 0.987491 1.43507 0
M  V30 4152 C 389.025 2.02407 2.74307 0
M  V30 4153 H 390.218 2.78829 1.10429 0
M  V30 4154 H 387.771 1.46658 0.540487 0
M  V30 4155 H 388.506 1.10502 3.04893 0
M  V30 4156 H 388.291 2.84453 2.69868 0
M  V30 4157 H 389.781 2.27002 3.50514 0
M  V30 4158 N 390.218 -0.567019 1.47046 0
M  V30 4159 C 391.495 -1.3276 1.43646 0
M  V30 4160 C 391.875 -2.1071 0.128186 0
M  V30 4161 O 391.223 -2.10441 -0.890326 0
M  V30 4162 C 391.433 -2.2404 2.67595 0
M  V30 4163 C 392.781 -2.85372 3.14401 0
M  V30 4164 O 393.805 -2.34346 2.68254 0
M  V30 4165 O 392.664 -3.78091 3.946 0
M  V30 4166 H 389.758 -0.597293 0.571988 0
M  V30 4167 H 392.304 -0.586735 1.59234 0
M  V30 4168 H 391.076 -1.65975 3.54356 0
M  V30 4169 H 390.699 -3.05439 2.54544 0
M  V30 4170 N 391.696 -1.35014 -0.812953 0
M  V30 4171 C 392.921 -1.31187 -1.60639 0
M  V30 4172 C 393.346 0.109382 -1.87782 0
M  V30 4173 O 392.704 1.07424 -1.46047 0
M  V30 4174 C 392.752 -2.11809 -2.91838 0
M  V30 4175 O 391.856 -1.49444 -3.8437 0
M  V30 4176 H 391.197 -0.450084 -0.488181 0
M  V30 4177 H 393.727 -1.77963 -1.00947 0
M  V30 4178 H 393.737 -2.23531 -3.41318 0
M  V30 4179 H 392.412 -3.15137 -2.71407 0
M  V30 4180 H 390.989 -1.46524 -3.42907 0
M  V30 4181 N 393.175 1.03435 -1.18907 0
M  V30 4182 C 394.452 1.73778 -0.89781 0
M  V30 4183 C 394.832 2.02458 0.597832 0
M  V30 4184 O 394.18 1.67482 1.55441 0
M  V30 4185 C 394.39 3.01845 -1.75187 0
M  V30 4186 C 395.738 3.7546 -1.9828 0
M  V30 4187 O 396.762 3.11759 -1.72293 0
M  V30 4188 O 395.621 4.89966 -2.42065 0
M  V30 4189 H 392.715 0.75651 -0.334098 0
M  V30 4190 H 395.261 1.09444 -1.29693 0
M  V30 4191 H 394.033 2.76836 -2.76545 0
M  V30 4192 H 393.656 3.73919 -1.35167 0
M  V30 4193 N 394.653 0.992116 1.22453 0
M  V30 4194 C 396.069 0.702713 1.43297 0
M  V30 4195 C 396.269 -0.726909 1.87932 0
M  V30 4196 O 395.325 -1.49792 2.0327 0
M  V30 4197 C 396.638 1.70762 2.47509 0
M  V30 4198 C 398.186 1.72298 2.61309 0
M  V30 4199 C 398.661 2.71649 3.68742 0
M  V30 4200 N 400.152 2.70239 3.76199 0
M  V30 4201 C 400.887 3.43778 4.58917 0
M  V30 4202 N 400.383 4.26914 5.45633 0
M  V30 4203 N 402.176 3.32487 4.5322 0
M  V30 4204 H 394.327 1.91543 0.917871 0
M  V30 4205 H 396.59 0.826031 0.465162 0
M  V30 4206 H 396.296 2.73059 2.21657 0
M  V30 4207 H 396.17 1.49985 3.46099 0
M  V30 4208 H 398.557 0.706989 2.86506 0
M  V30 4209 H 398.638 1.97143 1.62997 0
M  V30 4210 H 398.282 3.73397 3.44292 0
M  V30 4211 H 398.212 2.44074 4.66622 0
M  V30 4212 H 400.703 2.09912 3.14237 0
M  V30 4213 H 401.016 4.79855 6.05771 0
M  V30 4214 H 399.361 4.31002 5.45218 0
M  V30 4215 H 402.552 2.6698 3.84499 0
M  V30 4216 H 402.725 3.90058 5.17454 0
M  V30 4217 N 396.131 -1.37776 0.765217 0
M  V30 4218 C 397.547 -1.53297 0.444108 0
M  V30 4219 C 397.747 -1.72515 -1.04119 0
M  V30 4220 O 396.803 -1.74278 -1.82711 0
M  V30 4221 C 398.116 -2.73328 1.25349 0
M  V30 4222 C 399.664 -2.87185 1.24473 0
M  V30 4223 C 400.139 -4.10191 2.03733 0
M  V30 4224 N 401.63 -4.17291 2.01053 0
M  V30 4225 C 402.365 -5.11488 2.59166 0
M  V30 4226 N 401.861 -6.11285 3.26041 0
M  V30 4227 N 403.654 -5.03924 2.49032 0
M  V30 4228 H 395.805 -1.23552 1.72768 0
M  V30 4229 H 398.068 -0.601103 0.733062 0
M  V30 4230 H 397.774 -2.6557 2.30577 0
M  V30 4231 H 397.648 -3.66834 0.87823 0
M  V30 4232 H 400.035 -2.94418 0.20047 0
M  V30 4233 H 400.116 -1.94657 1.65959 0
M  V30 4234 H 399.76 -4.0372 3.08176 0
M  V30 4235 H 399.69 -5.01821 1.59633 0
M  V30 4236 H 402.181 -3.45825 1.5236 0
M  V30 4237 H 402.494 -6.79678 3.67774 0
M  V30 4238 H 400.839 -6.11583 3.30138 0
M  V30 4239 H 404.03 -4.24902 1.96407 0
M  V30 4240 H 404.203 -5.77152 2.94617 0
M  V30 4241 N 397.609 -0.515225 -1.4894 0
M  V30 4242 C 398.837 0.0206034 -2.0689 0
M  V30 4243 C 399.252 1.29514 -1.37374 0
M  V30 4244 O 398.609 1.76698 -0.456529 0
M  V30 4245 C 398.66 0.26351 -3.60538 0
M  V30 4246 O 398.381 -0.960517 -4.27441 0
M  V30 4247 C 399.882 0.841383 -4.35242 0
M  V30 4248 H 397.102 -0.0268608 -0.670462 0
M  V30 4249 H 399.646 -0.716651 -1.91532 0
M  V30 4250 H 397.801 0.950777 -3.75552 0
M  V30 4251 H 398.215 -0.73212 -5.19365 0
M  V30 4252 H 399.689 0.96085 -5.43573 0
M  V30 4253 H 400.166 1.8427 -3.98674 0
M  V30 4254 H 400.772 0.191143 -4.2487 0
M  V30 4255 N 399.087 1.5561 -0.249682 0
M  V30 4256 C 400.037 2.18157 0.662673 0
M  V30 4257 C 401.021 1.1383 1.13717 0
M  V30 4258 O 402.213 1.39731 1.08648 0
M  V30 4259 C 399.342 2.88672 1.85805 0
M  V30 4260 C 398.428 4.00258 1.40193 0
M  V30 4261 N 398.819 5.01473 0.660213 0
M  V30 4262 C 397.117 4.12864 1.68698 0
M  V30 4263 C 397.818 5.80155 0.423695 0
M  V30 4264 N 396.794 5.34533 0.988721 0
M  V30 4265 H 400.596 2.93769 0.0878688 0
M  V30 4266 H 398.11 1.62316 -0.0521183 0
M  V30 4267 H 400.107 3.31912 2.5227 0
M  V30 4268 H 398.767 2.14564 2.43705 0
M  V30 4269 H 399.778 5.16971 0.310047 0
M  V30 4270 H 396.455 3.4993 2.27717 0
M  V30 4271 H 397.845 6.71688 -0.168616 0
M  V30 4272 N 400.565 -0.0233959 1.57583 0
M  V30 4273 C 401.976 -0.56927 1.77809 0
M  V30 4274 C 402.327 -1.75284 0.881472 0
M  V30 4275 O 401.452 -2.1626 0.0777805 0
M  V30 4276 C 402.047 -1.03949 3.22459 0
M  V30 4277 C 400.606 -1.53084 3.43864 0
M  V30 4278 C 399.753 -0.471454 2.73263 0
M  V30 4279 H 402.704 0.202825 1.57399 0
M  V30 4280 H 402.725 -1.90661 3.29285 0
M  V30 4281 H 402.237 -0.177865 3.87692 0
M  V30 4282 H 400.338 -2.41414 2.83814 0
M  V30 4283 H 400.451 -1.57443 4.52491 0
M  V30 4284 H 398.815 -0.927788 2.37201 0
M  V30 4285 H 399.598 0.380808 3.41181 0
M  V30 4286 N 402.043 -1.548 -0.295768 0
M  V30 4287 C 403.271 -1.78327 -1.04914 0
M  V30 4288 C 403.686 -0.545316 -1.80753 0
M  V30 4289 O 403.043 0.485013 -1.75937 0
M  V30 4290 C 403.094 -2.99418 -2.02561 0
M  V30 4291 O 402.815 -4.18431 -1.29798 0
M  V30 4292 C 404.316 -3.35375 -2.89895 0
M  V30 4293 H 401.536 -0.594618 -0.310918 0
M  V30 4294 H 404.08 -2.01763 -0.333454 0
M  V30 4295 H 402.235 -2.78175 -2.69624 0
M  V30 4296 H 402.649 -4.86736 -1.95419 0
M  V30 4297 H 404.123 -4.23332 -3.54251 0
M  V30 4298 H 404.6 -2.53761 -3.58472 0
M  V30 4299 H 405.206 -3.58796 -2.28355 0
M  V30 4300 N 403.521 0.559213 -1.47345 0
M  V30 4301 C 404.451 1.67622 -1.62558 0
M  V30 4302 C 405.432 1.63331 -0.475087 0
M  V30 4303 O 406.617 1.80983 -0.704182 0
M  V30 4304 C 403.747 3.0626 -1.63774 0
M  V30 4305 C 402.701 3.25397 -2.7803 0
M  V30 4306 C 402.027 4.64801 -2.64318 0
M  V30 4307 C 403.327 3.10965 -4.19641 0
M  V30 4308 H 405.021 1.55146 -2.56067 0
M  V30 4309 H 402.567 0.744961 -1.23233 0
M  V30 4310 H 404.52 3.84247 -1.73008 0
M  V30 4311 H 403.244 3.1969 -0.66825 0
M  V30 4312 H 401.903 2.49817 -2.68304 0
M  V30 4313 H 401.551 4.75028 -1.65401 0
M  V30 4314 H 401.251 4.78555 -3.40968 0
M  V30 4315 H 402.775 5.44926 -2.75478 0
M  V30 4316 H 404.189 3.78772 -4.30354 0
M  V30 4317 H 402.586 3.36229 -4.97062 0
M  V30 4318 H 403.656 2.07736 -4.38148 0
M  V30 4319 N 404.999 1.35443 0.805782 0
M  V30 4320 C 406.247 1.28507 1.55982 0
M  V30 4321 C 406.568 -0.140046 1.94496 0
M  V30 4322 O 405.838 -1.07666 1.63661 0
M  V30 4323 H 404.418 0.472676 0.578434 0
M  V30 4324 H 407.08 1.69555 0.961098 0
M  V30 4325 H 406.176 1.90148 2.47488 0
M  V30 4326 N 406.477 -1.02803 1.19454 0
M  V30 4327 C 407.888 -1.57667 0.999899 0
M  V30 4328 C 408.239 -1.91041 -0.446956 0
M  V30 4329 O 407.364 -1.70978 -1.32648 0
M  V30 4330 C 407.959 -2.86477 1.80877 0
M  V30 4331 C 406.518 -3.37911 1.65811 0
M  V30 4332 C 405.665 -2.11343 1.79526 0
M  V30 4333 H 408.616 -0.853214 1.33813 0
M  V30 4334 H 408.637 -3.57408 1.30536 0
M  V30 4335 H 408.149 -2.62155 2.86175 0
M  V30 4336 H 406.25 -3.67218 0.63102 0
M  V30 4337 H 406.363 -4.10885 2.46395 0
M  V30 4338 H 404.727 -2.23254 1.22596 0
M  V30 4339 H 405.51 -1.89461 2.86285 0
M  V30 4340 N 407.956 -0.998596 -1.21925 0
M  V30 4341 C 409.372 -0.710303 -1.42923 0
M  V30 4342 C 409.572 0.716933 -1.88314 0
M  V30 4343 O 408.628 1.48712 -2.04062 0
M  V30 4344 C 409.941 -1.72072 -2.466 0
M  V30 4345 C 411.489 -1.73681 -2.60392 0
M  V30 4346 C 411.964 -2.73601 -3.67296 0
M  V30 4347 N 413.455 -2.7223 -3.7476 0
M  V30 4348 C 414.19 -3.46206 -4.57087 0
M  V30 4349 N 413.686 -4.29802 -5.43362 0
M  V30 4350 N 415.479 -3.34886 -4.51451 0
M  V30 4351 H 407.63 -1.92028 -0.9077 0
M  V30 4352 H 409.893 -0.828487 -0.460775 0
M  V30 4353 H 409.599 -2.74231 -2.20206 0
M  V30 4354 H 409.473 -1.51818 -3.45299 0
M  V30 4355 H 411.86 -0.722173 -2.86127 0
M  V30 4356 H 411.941 -1.98005 -1.61949 0
M  V30 4357 H 411.585 -3.75217 -3.42307 0
M  V30 4358 H 411.515 -2.46545 -4.65321 0
M  V30 4359 H 414.006 -2.11576 -3.1312 0
M  V30 4360 H 414.319 -4.83061 -6.03218 0
M  V30 4361 H 412.664 -4.33887 -5.42925 0
M  V30 4362 H 415.855 -2.69015 -3.83078 0
M  V30 4363 H 416.028 -3.92796 -5.15379 0
M  V30 4364 N 409.434 1.37368 -0.772513 0
M  V30 4365 C 410.682 1.99279 -0.336516 0
M  V30 4366 C 411.003 1.6163 1.09091 0
M  V30 4367 O 410.273 0.882109 1.74916 0
M  V30 4368 H 408.853 0.737063 -0.121435 0
M  V30 4369 H 411.515 1.67836 -0.990809 0
M  V30 4370 H 410.611 3.09332 -0.414763 0
M  V30 4371 N 410.912 0.523116 1.48665 0
M  V30 4372 C 412.323 0.0808997 1.86525 0
M  V30 4373 C 412.674 -1.33975 1.43336 0
M  V30 4374 O 411.799 -2.00221 0.821009 0
M  V30 4375 C 412.394 0.140037 3.3851 0
M  V30 4376 C 410.953 -0.246948 3.75589 0
M  V30 4377 C 410.1 0.502845 2.72703 0
M  V30 4378 H 413.051 0.734736 1.40667 0
M  V30 4379 H 413.072 -0.649945 3.74908 0
M  V30 4380 H 412.584 1.17412 3.69914 0
M  V30 4381 H 410.685 -1.28343 3.49798 0
M  V30 4382 H 410.798 0.0878859 4.79019 0
M  V30 4383 H 409.162 -0.0500581 2.54651 0
M  V30 4384 H 409.945 1.53743 3.0695 0
M  V30 4385 N 412.39 -1.55475 0.257931 0
M  V30 4386 C 413.639 -1.98383 -0.364275 0
M  V30 4387 C 413.952 -1.14952 -1.58258 0
M  V30 4388 O 415.158 -1.47924 -2.27664 0
M  V30 4389 C 413.614 -3.53037 -0.699479 0
M  V30 4390 C 413.222 -4.45223 0.498046 0
M  V30 4391 C 414.966 -4.04575 -1.28526 0
M  V30 4392 C 412.873 -5.91238 0.138383 0
M  V30 4393 H 411.803 -0.740911 -0.13988 0
M  V30 4394 H 414.454 -1.79936 0.359883 0
M  V30 4395 H 412.836 -3.6722 -1.48207 0
M  V30 4396 H 414.01 -4.42803 1.27522 0
M  V30 4397 H 412.325 -4.04226 0.999503 0
M  V30 4398 H 414.922 -5.11196 -1.56788 0
M  V30 4399 H 415.265 -3.5258 -2.21344 0
M  V30 4400 H 415.798 -3.93762 -0.565337 0
M  V30 4401 H 412.537 -6.47294 1.03398 0
M  V30 4402 H 412.057 -5.96768 -0.602374 0
M  V30 4403 H 413.736 -6.46413 -0.27553 0
M  V30 4404 N 413.868 0.0150385 -1.57593 0
M  V30 4405 C 414.798 1.01047 -2.10503 0
M  V30 4406 C 415.779 1.36816 -1.01071 0
M  V30 4407 O 416.964 1.45455 -1.28672 0
M  V30 4408 C 414.094 2.30708 -2.59598 0
M  V30 4409 C 413.048 2.09142 -3.73421 0
M  V30 4410 C 412.374 3.44685 -4.08774 0
M  V30 4411 C 413.674 1.46619 -5.01298 0
M  V30 4412 H 415.368 0.569978 -2.93925 0
M  V30 4413 H 412.914 0.272724 -1.41394 0
M  V30 4414 H 414.867 3.00687 -2.95238 0
M  V30 4415 H 413.591 2.76843 -1.73279 0
M  V30 4416 H 412.25 1.41592 -3.38153 0
M  V30 4417 H 411.898 3.88495 -3.195 0
M  V30 4418 H 411.598 3.31077 -4.8545 0
M  V30 4419 H 413.122 4.16004 -4.4696 0
M  V30 4420 H 414.536 2.06535 -5.34805 0
M  V30 4421 H 412.933 1.43544 -5.82679 0
M  V30 4422 H 414.003 0.433611 -4.82957 0
M  V30 4423 N 415.346 1.54954 0.287554 0
M  V30 4424 C 416.594 1.74528 1.01904 0
M  V30 4425 C 416.915 0.541349 1.87335 0
M  V30 4426 O 416.185 -0.444108 1.908 0
M  V30 4427 H 414.765 0.643576 0.379235 0
M  V30 4428 H 417.427 1.92333 0.315294 0
M  V30 4429 H 416.523 2.64015 1.6644 0
M  V30 4430 N 416.824 -0.551391 1.4764 0
M  V30 4431 C 418.049 -1.33837 1.58437 0
M  V30 4432 C 418.474 -1.866 0.237063 0
M  V30 4433 O 417.832 -1.6328 -0.787994 0
M  V30 4434 C 417.88 -2.48014 2.61766 0
M  V30 4435 O 416.984 -3.50419 2.1744 0
M  V30 4436 H 416.325 -0.397299 0.532024 0
M  V30 4437 H 418.855 -0.665759 1.93465 0
M  V30 4438 H 418.865 -2.94503 2.82369 0
M  V30 4439 H 417.54 -2.08969 3.5959 0
M  V30 4440 H 416.117 -3.10196 2.06961 0
M  V30 4441 N 418.302 -1.35869 -0.798587 0
M  V30 4442 C 419.713 -1.26498 -1.37314 0
M  V30 4443 C 420.064 0.0991899 -1.95949 0
M  V30 4444 O 419.189 1.0004 -1.91888 0
M  V30 4445 C 419.784 -2.29054 -2.49639 0
M  V30 4446 C 418.343 -2.234 -3.02935 0
M  V30 4447 C 417.49 -2.14329 -1.75949 0
M  V30 4448 H 420.441 -1.46881 -0.600971 0
M  V30 4449 H 420.462 -1.92166 -3.28409 0
M  V30 4450 H 419.974 -3.2833 -2.06933 0
M  V30 4451 H 418.075 -1.27562 -3.50084 0
M  V30 4452 H 418.188 -3.15703 -3.60372 0
M  V30 4453 H 416.552 -1.60435 -1.9782 0
M  V30 4454 H 417.335 -3.15477 -1.35384 0
M  V30 4455 N 419.78 1.02168 -1.19998 0
M  V30 4456 C 420.73 2.08969 -0.911921 0
M  V30 4457 C 421.714 1.60404 0.12621 0
M  V30 4458 O 422.906 1.76817 -0.0804706 0
M  V30 4459 C 420.035 3.402 -0.460277 0
M  V30 4460 C 419.121 3.9548 -1.53155 0
M  V30 4461 N 419.512 4.24332 -2.75275 0
M  V30 4462 C 417.81 4.23572 -1.39653 0
M  V30 4463 C 418.511 4.68834 -3.44339 0
M  V30 4464 N 417.487 4.70804 -2.71744 0
M  V30 4465 H 421.289 2.29178 -1.83997 0
M  V30 4466 H 418.803 1.20094 -1.09322 0
M  V30 4467 H 420.8 4.16235 -0.235337 0
M  V30 4468 H 419.46 3.21408 0.4612 0
M  V30 4469 H 420.471 4.13393 -3.11973 0
M  V30 4470 H 417.148 4.14005 -0.539067 0
M  V30 4471 H 418.538 5.00019 -4.4881 0
M  V30 4472 N 421.258 1.00505 1.21394 0
M  V30 4473 C 422.486 0.706609 1.9446 0
M  V30 4474 C 422.901 -0.73081 1.74082 0
M  V30 4475 O 422.258 -1.49446 1.04747 0
M  V30 4476 C 422.309 1.01824 3.46863 0
M  V30 4477 O 422.03 2.39919 3.66566 0
M  V30 4478 C 423.531 0.739216 4.37093 0
M  V30 4479 H 420.751 0.260394 0.618414 0
M  V30 4480 H 423.295 1.34311 1.54211 0
M  V30 4481 H 421.45 0.427343 3.85036 0
M  V30 4482 H 421.864 2.50784 4.6066 0
M  V30 4483 H 423.338 1.00744 5.42729 0
M  V30 4484 H 423.815 -0.326746 4.37983 0
M  V30 4485 H 424.421 1.31173 4.04566 0
M  V30 4486 N 422.737 -1.36956 0.779787 0
M  V30 4487 C 424.148 -1.82094 0.412156 0
M  V30 4488 C 424.499 -1.64926 -1.06273 0
M  V30 4489 O 423.624 -1.16483 -1.82375 0
M  V30 4490 C 424.219 -3.3059 0.741319 0
M  V30 4491 C 422.778 -3.73974 0.426641 0
M  V30 4492 C 421.925 -2.59368 0.980987 0
M  V30 4493 H 424.876 -1.25314 0.973758 0
M  V30 4494 H 424.897 -3.80489 0.028887 0
M  V30 4495 H 424.409 -3.43054 1.81482 0
M  V30 4496 H 422.51 -3.67076 -0.639215 0
M  V30 4497 H 422.623 -4.69778 0.940515 0
M  V30 4498 H 420.987 -2.51463 0.404757 0
M  V30 4499 H 421.77 -2.74621 2.06005 0
M  V30 4500 N 424.215 -0.530993 -1.48385 0
M  V30 4501 C 425.145 0.219985 -2.32461 0
M  V30 4502 C 426.126 0.934111 -1.42156 0
M  V30 4503 O 427.311 0.919694 -1.71042 0
M  V30 4504 C 424.441 1.26674 -3.23375 0
M  V30 4505 C 423.395 0.67069 -4.22712 0
M  V30 4506 C 422.721 1.82017 -5.02766 0
M  V30 4507 C 424.021 -0.358268 -5.2107 0
M  V30 4508 H 425.715 -0.48187 -2.95497 0
M  V30 4509 H 423.261 -0.233182 -1.42099 0
M  V30 4510 H 425.214 1.80006 -3.81019 0
M  V30 4511 H 423.938 1.99818 -2.58341 0
M  V30 4512 H 422.597 0.158878 -3.66256 0
M  V30 4513 H 422.245 2.54002 -4.34157 0
M  V30 4514 H 421.945 1.42727 -5.70003 0
M  V30 4515 H 423.469 2.35725 -5.63264 0
M  V30 4516 H 424.883 0.0880081 -5.73232 0
M  V30 4517 H 423.28 -0.66861 -5.96364 0
M  V30 4518 H 424.35 -1.26367 -4.68145 0
M  V30 4519 N 425.693 1.55336 -0.266172 0
M  V30 4520 C 426.94 1.99397 0.353158 0
M  V30 4521 C 427.268 1.15451 1.56529 0
M  V30 4522 O 426.523 0.209974 1.9457 0
M  V30 4523 C 426.822 3.48606 0.787957 0
M  V30 4524 C 426.488 4.49773 -0.318541 0
M  V30 4525 C 425.15 4.77158 -0.62239 0
M  V30 4526 C 427.502 5.10212 -1.06459 0
M  V30 4527 C 424.83 5.62251 -1.67602 0
M  V30 4528 C 427.182 5.96449 -2.10788 0
M  V30 4529 C 425.846 6.22158 -2.41817 0
M  V30 4530 H 425.116 0.729644 0.12923 0
M  V30 4531 H 427.763 1.87732 -0.37802 0
M  V30 4532 H 426.068 3.57701 1.59866 0
M  V30 4533 H 427.765 3.80098 1.27775 0
M  V30 4534 H 424.355 4.2854 -0.0715925 0
M  V30 4535 H 428.539 4.89086 -0.843098 0
M  V30 4536 H 423.795 5.80419 -1.92155 0
M  V30 4537 H 427.969 6.42317 -2.69076 0
M  V30 4538 H 425.596 6.87888 -3.23596 0
M  V30 4539 N 427.171 -0.0066808 1.57599 0
M  V30 4540 C 428.101 -0.999296 2.11036 0
M  V30 4541 C 429.082 -1.36278 1.01795 0
M  V30 4542 O 430.267 -1.4477 1.29442 0
M  V30 4543 C 427.397 -2.29328 2.60818 0
M  V30 4544 C 426.351 -2.07159 3.74525 0
M  V30 4545 C 425.677 -3.42512 4.10596 0
M  V30 4546 C 426.977 -1.43959 5.02069 0
M  V30 4547 H 428.671 -0.554382 2.94223 0
M  V30 4548 H 426.217 -0.265221 1.41536 0
M  V30 4549 H 428.17 -2.99117 2.96828 0
M  V30 4550 H 426.894 -2.7592 1.74745 0
M  V30 4551 H 425.553 -1.39797 3.38899 0
M  V30 4552 H 425.201 -3.86795 3.21556 0
M  V30 4553 H 424.901 -3.28498 4.87199 0
M  V30 4554 H 426.425 -4.13628 4.4916 0
M  V30 4555 H 427.839 -2.03696 5.35893 0
M  V30 4556 H 426.236 -1.40452 5.83432 0
M  V30 4557 H 427.306 -0.407992 4.83181 0
M  V30 4558 N 428.649 -1.55105 -0.279332 0
M  V30 4559 C 430.06 -1.66186 -0.850832 0
M  V30 4560 C 430.411 -0.584707 -1.87285 0
M  V30 4561 O 429.536 0.274919 -2.14647 0
M  V30 4562 C 430.131 -3.01264 -1.55001 0
M  V30 4563 C 428.69 -3.14394 -2.06963 0
M  V30 4564 C 427.837 -2.61959 -0.909536 0
M  V30 4565 H 430.788 -1.58602 -0.0558235 0
M  V30 4566 H 430.809 -2.93899 -2.41669 0
M  V30 4567 H 430.321 -3.7964 -0.805931 0
M  V30 4568 H 428.422 -2.4078 -2.84352 0
M  V30 4569 H 428.535 -4.20867 -2.28928 0
M  V30 4570 H 426.899 -2.18957 -1.30116 0
M  V30 4571 H 427.682 -3.42833 -0.179062 0
M  V30 4572 N 430.127 0.543554 -1.4793 0
M  V30 4573 C 431.077 1.64527 -1.57844 0
M  V30 4574 C 432.061 1.54869 -0.436408 0
M  V30 4575 O 433.253 1.63119 -0.687101 0
M  V30 4576 C 430.382 3.03281 -1.6086 0
M  V30 4577 C 429.468 3.18093 -2.80495 0
M  V30 4578 N 429.859 3.02923 -4.05057 0
M  V30 4579 C 428.157 3.49121 -2.77543 0
M  V30 4580 C 428.858 3.20791 -4.85251 0
M  V30 4581 N 427.834 3.47749 -4.17818 0
M  V30 4582 H 431.636 1.51388 -2.5191 0
M  V30 4583 H 429.15 0.748671 -1.44113 0
M  V30 4584 H 431.147 3.82403 -1.66054 0
M  V30 4585 H 429.807 3.17521 -0.678996 0
M  V30 4586 H 430.818 2.79966 -4.35705 0
M  V30 4587 H 427.495 3.69804 -1.93781 0
M  V30 4588 H 428.885 3.13915 -5.9406 0
M  V30 4589 N 431.605 1.3629 0.791371 0
M  V30 4590 C 432.853 1.30154 1.5461 0
M  V30 4591 C 433.174 -0.119409 1.94634 0
M  V30 4592 O 432.444 -1.05924 1.64794 0
M  V30 4593 H 431.024 0.478784 0.573389 0
M  V30 4594 H 433.686 1.70565 0.94306 0
M  V30 4595 H 432.782 1.92762 2.45457 0
M  V30 4596 N 433.083 -1.0153 1.20538 0
M  V30 4597 C 434.013 -2.11972 0.979295 0
M  V30 4598 C 434.994 -1.6985 -0.0921787 0
M  V30 4599 O 436.179 -1.94089 0.0655932 0
M  V30 4600 C 433.309 -3.43201 0.531984 0
M  V30 4601 C 432.263 -3.9907 1.54685 0
M  V30 4602 C 431.589 -5.26082 0.956127 0
M  V30 4603 C 432.889 -4.32313 2.93092 0
M  V30 4604 H 434.583 -2.31143 1.90298 0
M  V30 4605 H 432.129 -1.11079 0.916372 0
M  V30 4606 H 434.082 -4.1985 0.361044 0
M  V30 4607 H 432.806 -3.23792 -0.427327 0
M  V30 4608 H 431.465 -3.2453 1.70517 0
M  V30 4609 H 431.113 -5.02999 -0.0111538 0
M  V30 4610 H 430.813 -5.64426 1.63393 0
M  V30 4611 H 432.337 -6.05386 0.796284 0
M  V30 4612 H 433.751 -4.99845 2.80763 0
M  V30 4613 H 432.148 -4.81774 3.57791 0
M  V30 4614 H 433.218 -3.41025 3.44717 0
M  V30 4615 N 434.561 -1.01147 -1.20859 0
M  V30 4616 C 435.471 -0.58686 -2.27141 0
M  V30 4617 C 436.487 0.373198 -1.69951 0
M  V30 4618 O 437.663 0.235423 -2.00019 0
M  V30 4619 C 434.728 0.0733602 -3.46622 0
M  V30 4620 C 433.789 -0.931995 -4.19061 0
M  V30 4621 C 433.022 -0.303186 -5.32838 0
M  V30 4622 O 433.245 0.898395 -5.63281 0
M  V30 4623 O 432.179 -1.01735 -5.9324 0
M  V30 4624 H 436.005 -1.47155 -2.65667 0
M  V30 4625 H 433.59 -0.780689 -1.2738 0
M  V30 4626 H 435.472 0.442333 -4.19072 0
M  V30 4627 H 434.147 0.932329 -3.09983 0
M  V30 4628 H 433.054 -1.35224 -3.48805 0
M  V30 4629 H 434.387 -1.76076 -4.59628 0
M  V30 4630 N 436.039 1.36541 -0.78704 0
M  V30 4631 C 437.45 1.81873 -0.421807 0
M  V30 4632 C 437.801 1.65487 1.05397 0
M  V30 4633 O 436.926 1.17448 1.81755 0
M  V30 4634 C 437.521 3.30192 -0.758841 0
M  V30 4635 C 436.08 3.73743 -0.446468 0
M  V30 4636 C 435.227 2.58844 -0.994728 0
M  V30 4637 H 438.178 1.24796 -0.98039 0
M  V30 4638 H 438.199 3.80468 -0.0490648 0
M  V30 4639 H 437.711 3.42087 -1.83299 0
M  V30 4640 H 435.812 3.6741 0.619739 0
M  V30 4641 H 435.925 4.69272 -0.965415 0
M  V30 4642 H 434.289 2.51245 -0.418087 0
M  V30 4643 H 435.072 2.73525 -2.07458 0
M  V30 4644 N 437.518 0.538854 1.48102 0
M  V30 4645 C 438.428 -0.222648 2.33541 0
M  V30 4646 C 439.444 -0.930225 1.47047 0
M  V30 4647 O 440.62 -0.903211 1.80011 0
M  V30 4648 C 437.685 -1.25064 3.23357 0
M  V30 4649 C 436.746 -0.552469 4.2573 0
M  V30 4650 C 435.979 -1.53149 5.11254 0
M  V30 4651 O 436.202 -2.76487 4.9891 0
M  V30 4652 O 435.136 -1.06602 5.92385 0
M  V30 4653 H 438.962 0.477707 2.99919 0
M  V30 4654 H 436.547 0.299669 1.46364 0
M  V30 4655 H 438.429 -1.8445 3.78888 0
M  V30 4656 H 437.104 -1.93325 2.59629 0
M  V30 4657 H 436.011 0.082114 3.7401 0
M  V30 4658 H 437.344 0.0883526 4.92121 0
M  V30 4659 N 438.996 -1.55193 0.274407 0
M  V30 4660 C 439.959 -2.212 -0.600279 0
M  V30 4661 C 440.959 -1.18963 -1.08187 0
M  V30 4662 O 442.149 -1.43873 -0.982158 0
M  V30 4663 C 439.281 -2.87739 -1.82809 0
M  V30 4664 H 440.474 -2.9989 -0.0239682 0
M  V30 4665 H 438.027 -1.5628 0.0250192 0
M  V30 4666 H 438.762 -2.13058 -2.44493 0
M  V30 4667 H 438.547 -3.62658 -1.49069 0
M  V30 4668 H 440.037 -3.38171 -2.45011 0
M  V30 4669 N 440.474 -0.00167713 -1.576 0
M  V30 4670 C 441.722 0.681471 -1.90264 0
M  V30 4671 C 442.043 1.7422 -0.875924 0
M  V30 4672 O 441.313 1.95709 0.0864412 0
M  V30 4673 H 439.893 0.254696 -0.702239 0
M  V30 4674 H 442.555 -0.0429996 -1.94853 0
M  V30 4675 H 441.651 1.15166 -2.90075 0
M  V30 4676 N 441.952 1.55251 0.271103 0
M  V30 4677 C 443.2 1.75599 1.00047 0
M  V30 4678 C 443.521 0.561188 1.8675 0
M  V30 4679 O 442.791 -0.423846 1.9126 0
M  V30 4680 H 441.371 0.647562 0.372387 0
M  V30 4681 H 444.033 1.92656 0.294876 0
M  V30 4682 H 443.129 2.65766 1.6363 0
M  V30 4683 N 443.43 -0.535701 1.48216 0
M  V30 4684 C 444.658 -1.31671 1.59594 0
M  V30 4685 C 445.073 -1.87083 0.254056 0
M  V30 4686 O 444.43 -1.66112 -0.755854 0
M  V30 4687 C 444.481 -2.47158 2.63809 0
M  V30 4688 O 444.202 -1.94032 3.92789 0
M  V30 4689 C 445.703 -3.39062 2.85573 0
M  V30 4690 H 442.923 -0.400623 0.538277 0
M  V30 4691 H 445.467 -0.646827 1.94001 0
M  V30 4692 H 443.622 -3.10043 2.32276 0
M  V30 4693 H 444.036 -2.69585 4.49916 0
M  V30 4694 H 445.51 -4.16459 3.62306 0
M  V30 4695 H 445.987 -3.93941 1.94184 0
M  V30 4696 H 446.593 -2.81975 3.18387 0
M  V30 4697 N 444.908 -1.36708 -0.784132 0
M  V30 4698 C 445.838 -1.34153 -1.91116 0
M  V30 4699 C 446.819 -0.212121 -1.68772 0
M  V30 4700 O 448.004 -0.410581 -1.8981 0
M  V30 4701 C 445.134 -1.13535 -3.28218 0
M  V30 4702 C 444.088 -2.23356 -3.65097 0
M  V30 4703 C 443.414 -1.87875 -5.00607 0
M  V30 4704 C 444.714 -3.65473 -3.73131 0
M  V30 4705 H 446.408 -2.28459 -1.93512 0
M  V30 4706 H 443.954 -1.09973 -0.929618 0
M  V30 4707 H 445.907 -1.10381 -4.06687 0
M  V30 4708 H 444.631 -0.156804 -3.26223 0
M  V30 4709 H 443.29 -2.25645 -2.88929 0
M  V30 4710 H 442.938 -0.885814 -4.95139 0
M  V30 4711 H 442.638 -2.61406 -5.26252 0
M  V30 4712 H 444.162 -1.86286 -5.81489 0
M  V30 4713 H 445.576 -3.65382 -4.41779 0
M  V30 4714 H 443.973 -4.37953 -4.10265 0
M  V30 4715 H 445.043 -3.99995 -2.74102 0
M  V30 4716 N 446.386 1.0089 -1.21074 0
M  V30 4717 C 447.797 1.56056 -1.02486 0
M  V30 4718 C 448.148 1.91728 0.416506 0
M  V30 4719 O 447.273 1.73066 1.29912 0
M  V30 4720 C 447.868 2.83563 -1.85411 0
M  V30 4721 C 446.427 3.3523 -1.71166 0
M  V30 4722 C 445.574 2.0846 -1.82865 0
M  V30 4723 H 448.525 0.831818 -1.35154 0
M  V30 4724 H 448.546 3.55286 -1.36205 0
M  V30 4725 H 448.058 2.57569 -2.9031 0
M  V30 4726 H 446.159 3.66167 -0.689361 0
M  V30 4727 H 446.272 4.06913 -2.52901 0
M  V30 4728 H 444.636 2.21275 -1.26132 0
M  V30 4729 H 445.419 1.84883 -2.89263 0
M  V30 4730 N 447.864 1.01787 1.20321 0
M  V30 4731 C 449.089 0.727009 1.9424 0
M  V30 4732 C 449.514 -0.706179 1.74341 0
M  V30 4733 O 448.872 -1.48609 1.03852 0
M  V30 4734 C 448.92 1.06958 3.44372 0
M  V30 4735 O 448.024 0.181983 4.11998 0
M  V30 4736 H 447.365 0.269626 0.606793 0
M  V30 4737 H 449.895 1.36158 1.52716 0
M  V30 4738 H 449.905 1.02182 3.94997 0
M  V30 4739 H 448.58 2.11378 3.58179 0
M  V30 4740 H 447.157 0.287378 3.71791 0
M  V30 4741 N 449.342 -1.36122 0.79427 0
M  V30 4742 C 450.758 -1.5232 0.476525 0
M  V30 4743 C 450.958 -1.74685 -1.00436 0
M  V30 4744 O 450.014 -1.78115 -1.78973 0
M  V30 4745 C 451.327 -2.70607 1.31119 0
M  V30 4746 C 452.875 -2.8448 1.30537 0
M  V30 4747 C 453.35 -4.05778 2.12387 0
M  V30 4748 N 454.841 -4.12933 2.09859 0
M  V30 4749 C 455.576 -5.05876 2.69957 0
M  V30 4750 N 455.072 -6.04232 3.38934 0
M  V30 4751 N 456.865 -4.98528 2.59665 0
M  V30 4752 H 449.016 -1.1986 1.75349 0
M  V30 4753 H 451.279 -0.585418 0.745647 0
M  V30 4754 H 450.985 -2.60619 2.36158 0
M  V30 4755 H 450.859 -3.64888 0.955843 0
M  V30 4756 H 453.246 -2.93927 0.262876 0
M  V30 4757 H 453.327 -1.91093 1.70051 0
M  V30 4758 H 452.971 -3.97092 3.1667 0
M  V30 4759 H 452.901 -4.98323 1.70242 0
M  V30 4760 H 455.392 -3.42515 1.59662 0
M  V30 4761 H 455.705 -6.71724 3.82109 0
M  V30 4762 H 454.05 -6.04443 3.43036 0
M  V30 4763 H 457.241 -4.20641 2.05375 0
M  V30 4764 H 457.414 -5.70773 3.06793 0
M  V30 4765 N 450.82 -0.546701 -1.47814 0
M  V30 4766 C 451.75 0.195317 -2.32682 0
M  V30 4767 C 452.731 0.918981 -1.43139 0
M  V30 4768 O 453.916 0.901501 -1.72008 0
M  V30 4769 C 451.046 1.23237 -3.247 0
M  V30 4770 C 450 0.625818 -4.234 0
M  V30 4771 C 449.326 1.76674 -5.04669 0
M  V30 4772 C 450.626 -0.413515 -5.2066 0
M  V30 4773 H 452.32 -0.513184 -2.94969 0
M  V30 4774 H 449.866 -0.248241 -1.41844 0
M  V30 4775 H 451.819 1.75955 -3.82907 0
M  V30 4776 H 450.543 1.97067 -2.60446 0
M  V30 4777 H 449.202 0.120023 -3.66403 0
M  V30 4778 H 448.85 2.49383 -4.36826 0
M  V30 4779 H 448.55 1.36673 -5.71484 0
M  V30 4780 H 450.074 2.29738 -5.65732 0
M  V30 4781 H 451.488 0.0272042 -5.73294 0
M  V30 4782 H 449.885 -0.731825 -5.95621 0
M  V30 4783 H 450.955 -1.31325 -4.66778 0
M  V30 4784 N 452.299 1.55045 -0.282633 0
M  V30 4785 C 453.231 2.2023 0.634924 0
M  V30 4786 C 454.244 1.18931 1.11172 0
M  V30 4787 O 455.433 1.4562 1.03233 0
M  V30 4788 C 452.533 2.82041 1.87899 0
M  V30 4789 C 451.706 4.091 1.54776 0
M  V30 4790 C 450.765 4.54887 2.64507 0
M  V30 4791 O 449.791 5.20496 2.30375 0
M  V30 4792 N 450.993 4.25659 3.94709 0
M  V30 4793 H 453.758 2.99601 0.0769811 0
M  V30 4794 H 451.319 1.61565 -0.104048 0
M  V30 4795 H 453.311 3.09613 2.60619 0
M  V30 4796 H 451.881 2.06618 2.3458 0
M  V30 4797 H 451.101 3.88736 0.654049 0
M  V30 4798 H 452.389 4.9187 1.30158 0
M  V30 4799 H 451.787 3.7306 4.25256 0
M  V30 4800 H 450.344 4.57984 4.63782 0
M  V30 4801 N 453.777 0.010035 1.57597 0
M  V30 4802 C 455.188 -0.531426 1.78977 0
M  V30 4803 C 455.539 -1.73375 0.918454 0
M  V30 4804 O 454.664 -2.16047 0.123635 0
M  V30 4805 C 455.259 -0.97086 3.24592 0
M  V30 4806 C 453.818 -1.45756 3.47033 0
M  V30 4807 C 452.965 -0.413384 2.74201 0
M  V30 4808 H 455.916 0.236166 1.56933 0
M  V30 4809 H 455.937 -1.83633 3.33255 0
M  V30 4810 H 455.449 -0.0955893 3.87982 0
M  V30 4811 H 453.55 -2.35339 2.88871 0
M  V30 4812 H 453.663 -1.4781 4.55729 0
M  V30 4813 H 452.027 -0.877266 2.39115 0
M  V30 4814 H 452.81 0.453092 3.40297 0
M  V30 4815 N 455.255 -1.55392 -0.262866 0
M  V30 4816 C 456.504 -1.75679 -0.990943 0
M  V30 4817 C 456.817 -0.57097 -1.87081 0
M  V30 4818 O 458.023 -0.656486 -2.63444 0
M  V30 4819 C 456.479 -3.10964 -1.81188 0
M  V30 4820 C 456.087 -4.37146 -0.980188 0
M  V30 4821 C 457.831 -3.40597 -2.53365 0
M  V30 4822 C 455.738 -5.63466 -1.7961 0
M  V30 4823 H 454.668 -0.654868 -0.373716 0
M  V30 4824 H 457.319 -1.81841 -0.246203 0
M  V30 4825 H 455.701 -2.98867 -2.59797 0
M  V30 4826 H 456.875 -4.60187 -0.237558 0
M  V30 4827 H 455.19 -4.14731 -0.372497 0
M  V30 4828 H 457.787 -4.32186 -3.14833 0
M  V30 4829 H 458.13 -2.6119 -3.24169 0
M  V30 4830 H 458.663 -3.53838 -1.81779 0
M  V30 4831 H 455.402 -6.4565 -1.13209 0
M  V30 4832 H 454.922 -5.44552 -2.51443 0
M  V30 4833 H 456.601 -6.02139 -2.36723 0
M  V30 4834 N 456.733 0.527833 -1.48498 0
M  V30 4835 C 457.663 1.64136 -1.66077 0
M  V30 4836 C 458.644 1.62286 -0.509625 0
M  V30 4837 O 459.829 1.79449 -0.742413 0
M  V30 4838 C 456.959 3.02717 -1.70234 0
M  V30 4839 C 455.913 3.19426 -2.8487 0
M  V30 4840 C 455.239 4.5909 -2.74118 0
M  V30 4841 C 456.539 3.01993 -4.26142 0
M  V30 4842 H 458.233 1.4968 -2.593 0
M  V30 4843 H 455.779 0.718654 -1.24785 0
M  V30 4844 H 457.732 3.80491 -1.8112 0
M  V30 4845 H 456.456 3.18201 -0.735911 0
M  V30 4846 H 455.115 2.4407 -2.73542 0
M  V30 4847 H 454.763 4.71413 -1.7544 0
M  V30 4848 H 454.463 4.71214 -3.51042 0
M  V30 4849 H 455.987 5.3896 -2.86974 0
M  V30 4850 H 457.401 3.69558 -4.38292 0
M  V30 4851 H 455.798 3.2561 -5.04082 0
M  V30 4852 H 456.868 1.98396 -4.42456 0
M  V30 4853 N 458.211 1.37122 0.776871 0
M  V30 4854 C 459.141 1.35164 1.90402 0
M  V30 4855 C 460.122 0.221069 1.68657 0
M  V30 4856 O 461.307 0.420642 1.8959 0
M  V30 4857 C 458.437 1.15274 3.27611 0
M  V30 4858 C 457.391 2.25289 3.63908 0
M  V30 4859 C 456.717 1.90527 4.99603 0
M  V30 4860 C 458.017 3.67446 3.71188 0
M  V30 4861 H 459.711 2.29482 1.92297 0
M  V30 4862 H 457.257 1.10465 0.923773 0
M  V30 4863 H 459.21 1.12536 4.06096 0
M  V30 4864 H 457.934 0.174102 3.26136 0
M  V30 4865 H 456.593 2.27174 2.87728 0
M  V30 4866 H 456.241 0.91206 4.94662 0
M  V30 4867 H 455.941 2.64193 5.24858 0
M  V30 4868 H 457.465 1.89367 5.80493 0
M  V30 4869 H 458.879 3.67719 4.39836 0
M  V30 4870 H 457.276 4.40123 4.07936 0
M  V30 4871 H 458.346 4.01443 2.71977 0
M  V30 4872 N 459.689 -1.00246 1.21608 0
M  V30 4873 C 460.619 -2.10921 1.00172 0
M  V30 4874 C 461.6 -1.69938 -0.0741587 0
M  V30 4875 O 462.785 -1.94009 0.0861753 0
M  V30 4876 C 459.915 -3.42618 0.568355 0
M  V30 4877 C 458.869 -3.97407 1.58909 0
M  V30 4878 C 458.195 -5.25038 1.01187 0
M  V30 4879 C 459.495 -4.2918 2.97661 0
M  V30 4880 H 461.189 -2.29112 1.92739 0
M  V30 4881 H 458.735 -1.10101 0.928102 0
M  V30 4882 H 460.688 -4.19444 0.405555 0
M  V30 4883 H 459.412 -3.24227 -0.392961 0
M  V30 4884 H 458.071 -3.22703 1.73949 0
M  V30 4885 H 457.719 -5.02982 0.0421965 0
M  V30 4886 H 457.419 -5.62661 1.6937 0
M  V30 4887 H 458.943 -6.04507 0.860448 0
M  V30 4888 H 460.357 -4.96839 2.86049 0
M  V30 4889 H 458.754 -4.77952 3.6288 0
M  V30 4890 H 459.824 -3.3735 3.48315 0
M  V30 4891 N 461.167 -1.02423 -1.1978 0
M  V30 4892 C 462.444 -0.632802 -1.85081 0
M  V30 4893 C 462.824 0.888745 -1.9148 0
M  V30 4894 O 462.172 1.78357 -1.42832 0
M  V30 4895 C 462.382 -1.28947 -3.24305 0
M  V30 4896 C 463.73 -1.40976 -4.00513 0
M  V30 4897 O 464.754 -1.24628 -3.33686 0
M  V30 4898 O 463.613 -1.67467 -5.20209 0
M  V30 4899 H 460.707 -0.219348 -0.79738 0
M  V30 4900 H 463.253 -1.12209 -1.27307 0
M  V30 4901 H 462.025 -2.3288 -3.14456 0
M  V30 4902 H 461.648 -0.787748 -3.89718 0
M  V30 4903 N 462.645 1.35699 -0.801477 0
M  V30 4904 C 464.056 1.81415 -0.441073 0
M  V30 4905 C 464.407 1.66595 1.03636 0
M  V30 4906 O 463.532 1.19369 1.80499 0
M  V30 4907 C 464.127 3.29369 -0.793819 0
M  V30 4908 C 462.686 3.73248 -0.486083 0
M  V30 4909 C 461.833 2.57775 -1.02213 0
M  V30 4910 H 464.784 1.23749 -0.993572 0
M  V30 4911 H 464.805 3.80395 -0.0894158 0
M  V30 4912 H 464.317 3.40123 -1.86917 0
M  V30 4913 H 462.418 3.68046 0.580735 0
M  V30 4914 H 462.531 4.68222 -1.01513 0
M  V30 4915 H 460.895 2.50788 -0.444712 0
M  V30 4916 H 461.678 2.71309 -2.10348 0
M  V30 4917 N 464.123 0.554532 1.47522 0
M  V30 4918 C 465.348 0.0322661 2.07375 0
M  V30 4919 C 465.773 -1.25079 1.40488 0
M  V30 4920 O 465.131 -1.74859 0.47896 0
M  V30 4921 C 465.179 -0.149397 3.6029 0
M  V30 4922 O 464.283 -1.21259 3.9417 0
M  V30 4923 H 463.624 0.0501228 0.662106 0
M  V30 4924 H 466.154 0.769452 1.8958 0
M  V30 4925 H 466.164 -0.364437 4.06369 0
M  V30 4926 H 464.839 0.787743 4.08372 0
M  V30 4927 H 463.416 -0.97825 3.5984 0
M  V30 4928 N 465.601 -1.54893 0.290851 0
M  V30 4929 C 466.849 -1.99538 -0.320756 0
M  V30 4930 C 467.17 -1.18075 -1.55188 0
M  V30 4931 O 466.44 -0.274162 -1.93972 0
M  V30 4932 H 465.02 -0.737052 -0.121507 0
M  V30 4933 H 467.682 -1.90755 0.399832 0
M  V30 4934 H 466.778 -3.06282 -0.599802 0
M  V30 4935 N 467.08 -0.0183926 -1.57589 0
M  V30 4936 C 468.305 0.676634 -1.96052 0
M  V30 4937 C 468.73 1.6548 -0.894307 0
M  V30 4938 O 468.088 1.80712 0.145849 0
M  V30 4939 C 468.136 1.36872 -3.33614 0
M  V30 4940 O 467.24 2.48372 -3.29219 0
M  V30 4941 H 466.581 0.1786 -0.63953 0
M  V30 4942 H 469.111 -0.077056 -2.04455 0
M  V30 4943 H 469.121 1.72797 -3.69601 0
M  V30 4944 H 467.796 0.651636 -4.10763 0
M  V30 4945 H 466.373 2.14639 -3.04934 0
M  V30 4946 N 468.558 1.5553 0.254621 0
M  V30 4947 C 469.508 1.86057 1.31783 0
M  V30 4948 C 470.492 0.720827 1.4385 0
M  V30 4949 O 471.684 0.982586 1.47222 0
M  V30 4950 C 468.813 2.15203 2.67475 0
M  V30 4951 C 467.899 3.35484 2.59444 0
M  V30 4952 N 468.29 4.54945 2.2104 0
M  V30 4953 C 466.588 3.38441 2.90472 0
M  V30 4954 C 467.289 5.3707 2.23453 0
M  V30 4955 N 466.265 4.75936 2.62652 0
M  V30 4956 H 470.067 2.75953 1.01129 0
M  V30 4957 H 467.581 1.55653 0.463255 0
M  V30 4958 H 469.578 2.35235 3.44195 0
M  V30 4959 H 468.238 1.26601 2.99002 0
M  V30 4960 H 469.249 4.8071 1.92712 0
M  V30 4961 H 465.926 2.60087 3.2659 0
M  V30 4962 H 467.316 6.42626 1.96166 0
M  V30 4963 N 470.036 -0.519951 1.48776 0
M  V30 4964 C 470.999 -1.60574 1.6355 0
M  V30 4965 C 471.999 -1.52557 0.508234 0
M  V30 4966 O 473.189 -1.56047 0.774262 0
M  V30 4967 C 470.321 -3.00211 1.61512 0
M  V30 4968 H 471.514 -1.4881 2.60376 0
M  V30 4969 H 469.067 -0.742772 1.37523 0
M  V30 4970 H 469.802 -3.17471 0.662009 0
M  V30 4971 H 469.587 -3.07439 2.43359 0
M  V30 4972 H 471.077 -3.79134 1.75064 0
M  V30 4973 N 471.514 -1.37532 -0.769588 0
M  V30 4974 C 472.925 -1.29382 -1.346 0
M  V30 4975 C 473.276 0.0576039 -1.96115 0
M  V30 4976 O 472.401 0.95947 -1.93967 0
M  V30 4977 C 472.996 -2.34298 -2.44724 0
M  V30 4978 C 471.555 -2.29776 -2.98128 0
M  V30 4979 C 470.702 -2.18013 -1.71364 0
M  V30 4980 H 473.653 -1.48123 -0.56968 0
M  V30 4981 H 473.674 -1.99089 -3.24259 0
M  V30 4982 H 473.186 -3.32645 -1.99922 0
M  V30 4983 H 471.287 -1.34959 -3.47299 0
M  V30 4984 H 471.4 -3.23276 -3.53595 0
M  V30 4985 H 469.764 -1.64595 -1.94372 0
M  V30 4986 H 470.547 -3.18278 -1.28662 0
M  V30 4987 N 472.992 0.995999 -1.22138 0
M  V30 4988 C 473.922 2.10387 -1.01289 0
M  V30 4989 C 474.903 1.69975 0.0651454 0
M  V30 4990 O 476.088 1.9396 -0.0964628 0
M  V30 4991 C 473.218 3.42312 -0.586517 0
M  V30 4992 C 472.172 3.96558 -1.61014 0
M  V30 4993 C 471.498 5.24494 -1.0397 0
M  V30 4994 C 472.798 4.27595 -2.99933 0
M  V30 4995 H 474.492 2.28086 -1.93951 0
M  V30 4996 H 472.038 1.09607 -0.933928 0
M  V30 4997 H 473.991 4.19223 -0.427793 0
M  V30 4998 H 472.715 3.24431 0.375761 0
M  V30 4999 H 471.374 3.21776 -1.75658 0
M  V30 5000 H 471.022 5.02953 -0.0688703 0
M  V30 5001 H 470.722 5.61755 -1.72352 0
M  V30 5002 H 472.246 6.04042 -0.892494 0
M  V30 5003 H 473.66 4.95315 -2.8868 0
M  V30 5004 H 472.057 4.76021 -3.6541 0
M  V30 5005 H 473.127 3.35498 -3.50099 0
M  V30 5006 N 474.47 1.03057 1.19235 0
M  V30 5007 C 475.4 0.633497 2.24742 0
M  V30 5008 C 476.381 -0.358335 1.66283 0
M  V30 5009 O 477.566 -0.240676 1.92703 0
M  V30 5010 C 474.696 -0.0147648 3.47297 0
M  V30 5011 C 473.65 0.899527 4.18441 0
M  V30 5012 C 472.976 0.116281 5.34574 0
M  V30 5013 C 474.276 2.21404 4.73051 0
M  V30 5014 H 475.97 1.5155 2.58211 0
M  V30 5015 H 473.516 0.73014 1.24117 0
M  V30 5016 H 475.469 -0.304202 4.20301 0
M  V30 5017 H 474.193 -0.931577 3.13032 0
M  V30 5018 H 472.852 1.17319 3.47321 0
M  V30 5019 H 472.5 -0.802619 4.96555 0
M  V30 5020 H 472.2 0.725293 5.83107 0
M  V30 5021 H 473.724 -0.166376 6.10373 0
M  V30 5022 H 475.138 1.98601 5.37802 0
M  V30 5023 H 473.535 2.77512 5.32078 0
M  V30 5024 H 474.605 2.86752 3.91026 0
M  V30 5025 N 475.948 -1.35272 0.808662 0
M  V30 5026 C 477.176 -2.02946 0.402537 0
M  V30 5027 C 477.591 -1.60937 -0.987147 0
M  V30 5028 O 476.948 -0.807917 -1.63643 0
M  V30 5029 C 476.999 -3.58317 0.47868 0
M  V30 5030 O 476.72 -3.98799 1.81358 0
M  V30 5031 C 478.221 -4.43251 0.0656281 0
M  V30 5032 H 475.441 -0.650831 0.163279 0
M  V30 5033 H 477.985 -1.72849 1.09286 0
M  V30 5034 H 476.14 -3.87055 -0.163415 0
M  V30 5035 H 476.554 -4.93451 1.77781 0
M  V30 5036 H 478.028 -5.51738 0.170017 0
M  V30 5037 H 478.505 -4.27913 -0.989278 0
M  V30 5038 H 479.111 -4.19813 0.68096 0
M  V30 5039 N 477.426 -0.562348 -1.47226 0
M  V30 5040 C 478.672 -0.0402761 -2.0276 0
M  V30 5041 C 479.005 1.30823 -1.43523 0
M  V30 5042 O 478.28 1.85249 -0.592705 0
M  V30 5043 C 478.563 0.047311 -3.60069 0
M  V30 5044 C 478.416 -1.32865 -4.29729 0
M  V30 5045 C 479.735 0.758182 -4.3352 0
M  V30 5046 H 476.854 -0.0161105 -0.736824 0
M  V30 5047 H 479.496 -0.725628 -1.75598 0
M  V30 5048 H 477.646 0.630986 -3.83342 0
M  V30 5049 H 479.318 -1.95593 -4.17781 0
M  V30 5050 H 477.561 -1.90195 -3.89882 0
M  V30 5051 H 478.232 -1.22004 -5.38349 0
M  V30 5052 H 480.708 0.262546 -4.15271 0
M  V30 5053 H 479.584 0.78844 -5.43208 0
M  V30 5054 H 479.845 1.81537 -4.03109 0
M  V30 5055 N 478.904 1.54736 -0.299062 0
M  V30 5056 C 480.315 1.8569 0.193971 0
M  V30 5057 C 480.666 1.22101 1.53577 0
M  V30 5058 O 479.791 0.51799 2.10109 0
M  V30 5059 C 480.386 3.36895 0.358733 0
M  V30 5060 C 478.945 3.67887 0.795986 0
M  V30 5061 C 478.092 2.77131 -0.096807 0
M  V30 5062 H 481.043 1.49934 -0.520134 0
M  V30 5063 H 481.064 3.61294 1.19361 0
M  V30 5064 H 480.576 3.83148 -0.617998 0
M  V30 5065 H 478.677 3.27151 1.78334 0
M  V30 5066 H 478.79 4.75114 0.616718 0
M  V30 5067 H 477.154 2.51153 0.423581 0
M  V30 5068 H 477.937 3.26204 -1.06986 0
M  V30 5069 N 480.382 0.0267497 1.57577 0
M  V30 5070 C 481.63 -0.651116 1.91324 0
M  V30 5071 C 481.951 -1.72804 0.90353 0
M  V30 5072 O 481.221 -1.95822 -0.0552946 0
M  V30 5073 H 479.801 -0.243491 0.706202 0
M  V30 5074 H 482.463 0.0739935 1.94759 0
M  V30 5075 H 481.559 -1.10536 2.9187 0
M  V30 5076 N 481.861 -1.55662 -0.24637 0
M  V30 5077 C 482.791 -1.93377 -1.30873 0
M  V30 5078 C 483.772 -0.798773 -1.50179 0
M  V30 5079 O 484.957 -1.0591 -1.62778 0
M  V30 5080 C 482.087 -2.22893 -2.66338 0
M  V30 5081 C 481.041 -3.38649 -2.61727 0
M  V30 5082 C 480.367 -3.53708 -4.00992 0
M  V30 5083 C 481.667 -4.74323 -2.18666 0
M  V30 5084 H 483.361 -2.82363 -0.995552 0
M  V30 5085 H 480.907 -1.35854 -0.477464 0
M  V30 5086 H 482.86 -2.47866 -3.40794 0
M  V30 5087 H 481.584 -1.30733 -2.99293 0
M  V30 5088 H 480.243 -3.13685 -1.89729 0
M  V30 5089 H 479.891 -2.58967 -4.31214 0
M  V30 5090 H 479.591 -4.31551 -3.98795 0
M  V30 5091 H 481.115 -3.81003 -4.77147 0
M  V30 5092 H 482.529 -4.98665 -2.82854 0
M  V30 5093 H 480.926 -5.55273 -2.27579 0
M  V30 5094 H 481.996 -4.71349 -1.13834 0
M  V30 5095 N 483.339 0.512053 -1.4905 0
M  V30 5096 C 484.587 1.26436 -1.57665 0
M  V30 5097 C 484.908 1.93255 -0.260293 0
M  V30 5098 O 484.178 1.82206 0.719564 0
M  V30 5099 H 482.758 0.469658 -0.580888 0
M  V30 5100 H 485.42 0.594398 -1.85615 0
M  V30 5101 H 484.516 2.03417 -2.36702 0
M  V30 5102 N 484.817 1.37938 0.762283 0
M  V30 5103 C 486.228 1.30094 1.33912 0
M  V30 5104 C 486.579 -0.0472026 1.96143 0
M  V30 5105 O 485.704 -0.94917 1.94473 0
M  V30 5106 C 486.299 2.35592 2.43478 0
M  V30 5107 C 484.858 2.31353 2.96905 0
M  V30 5108 C 484.005 2.18919 1.70205 0
M  V30 5109 H 486.956 1.48423 0.561816 0
M  V30 5110 H 486.977 2.00806 3.23199 0
M  V30 5111 H 486.489 3.33701 1.98155 0
M  V30 5112 H 484.59 1.36799 3.46579 0
M  V30 5113 H 484.703 3.25147 3.51875 0
M  V30 5114 H 483.067 1.65624 1.93496 0
M  V30 5115 H 483.85 3.18956 1.26973 0
M  V30 5116 N 486.295 -0.989507 1.22664 0
M  V30 5117 C 487.225 -2.09847 1.02404 0
M  V30 5118 C 488.206 -1.70007 -0.0561303 0
M  V30 5119 O 489.391 -1.93906 0.106748 0
M  V30 5120 C 486.521 -3.41996 0.604663 0
M  V30 5121 C 485.475 -3.95699 1.63115 0
M  V30 5122 C 484.801 -5.23936 1.0675 0
M  V30 5123 C 486.101 -4.25999 3.02196 0
M  V30 5124 H 487.795 -2.27054 1.95158 0
M  V30 5125 H 485.341 -1.09111 0.939727 0
M  V30 5126 H 487.294 -4.1899 0.45002 0
M  V30 5127 H 486.018 -3.24626 -0.35855 0
M  V30 5128 H 484.677 -3.2084 1.77362 0
M  V30 5129 H 484.325 -5.02909 0.0955422 0
M  V30 5130 H 484.025 -5.60833 1.75328 0
M  V30 5131 H 485.549 -6.0356 0.924516 0
M  V30 5132 H 486.963 -4.93777 2.91303 0
M  V30 5133 H 485.36 -4.74076 3.67929 0
M  V30 5134 H 486.43 -3.33636 3.51873 0
M  V30 5135 N 487.773 -1.03688 -1.18687 0
M  V30 5136 C 489.184 -0.766488 -1.70241 0
M  V30 5137 C 489.535 0.713052 -1.82784 0
M  V30 5138 O 488.66 1.55529 -1.50465 0
M  V30 5139 C 489.255 -1.38475 -3.09209 0
M  V30 5140 C 487.814 -1.16276 -3.5799 0
M  V30 5141 C 486.961 -1.4778 -2.34641 0
M  V30 5142 H 489.912 -1.20378 -1.03415 0
M  V30 5143 H 489.933 -0.785939 -3.72295 0
M  V30 5144 H 489.445 -2.46157 -3.00048 0
M  V30 5145 H 487.546 -0.104508 -3.72453 0
M  V30 5146 H 487.659 -1.8571 -4.41643 0
M  V30 5147 H 486.023 -0.897366 -2.38368 0
M  V30 5148 H 486.806 -2.56562 -2.28102 0
M  V30 5149 N 489.251 1.34841 -0.815825 0
M  V30 5150 C 490.498 1.98499 -0.400535 0
M  V30 5151 C 490.826 1.64699 1.03463 0
M  V30 5152 O 490.081 0.907006 1.73412 0
M  V30 5153 C 490.38 3.53273 -0.541541 0
M  V30 5154 C 490.046 4.06966 -1.94138 0
M  V30 5155 C 488.708 4.21341 -2.32433 0
M  V30 5156 C 491.06 4.35933 -2.85677 0
M  V30 5157 C 488.388 4.62007 -3.61617 0
M  V30 5158 C 490.74 4.78042 -4.14317 0
M  V30 5159 C 489.404 4.90622 -4.52599 0
M  V30 5160 H 488.674 0.72636 -0.146566 0
M  V30 5161 H 491.321 1.60902 -1.0384 0
M  V30 5162 H 489.626 3.91387 0.179741 0
M  V30 5163 H 491.323 4.00497 -0.20085 0
M  V30 5164 H 487.913 3.96235 -1.63388 0
M  V30 5165 H 492.097 4.24372 -2.57337 0
M  V30 5166 H 487.353 4.69937 -3.91113 0
M  V30 5167 H 491.527 4.99415 -4.85342 0
M  V30 5168 H 489.154 5.2189 -5.52752 0
M  V30 5169 N 490.729 0.570148 1.46925 0
M  V30 5170 C 491.679 -0.190921 2.27199 0
M  V30 5171 C 492.663 -0.873457 1.35128 0
M  V30 5172 O 493.855 -0.769627 1.59392 0
M  V30 5173 C 490.984 -1.21204 3.21192 0
M  V30 5174 C 490.07 -0.532261 4.20747 0
M  V30 5175 N 490.461 0.405038 5.04176 0
M  V30 5176 C 488.759 -0.784582 4.39045 0
M  V30 5177 C 489.46 0.801149 5.76157 0
M  V30 5178 N 488.436 0.153082 5.43384 0
M  V30 5179 H 492.238 0.529535 2.8909 0
M  V30 5180 H 489.752 0.391019 1.57622 0
M  V30 5181 H 491.749 -1.77135 3.77398 0
M  V30 5182 H 490.409 -1.93345 2.6086 0
M  V30 5183 H 491.42 0.779903 5.11994 0
M  V30 5184 H 488.097 -1.49352 3.89872 0
M  V30 5185 H 489.487 1.57208 6.5325 0
M  V30 5186 N 492.207 -1.54576 0.307264 0
M  V30 5187 C 493.454 -2.00263 -0.300167 0
M  V30 5188 C 493.782 -1.19561 -1.53413 0
M  V30 5189 O 493.037 -0.261487 -1.93945 0
M  V30 5190 C 493.336 -3.50572 -0.695253 0
M  V30 5191 C 493.002 -4.48771 0.437679 0
M  V30 5192 C 491.664 -4.7534 0.748681 0
M  V30 5193 C 494.016 -5.0721 1.19949 0
M  V30 5194 C 491.344 -5.5761 1.8245 0
M  V30 5195 C 493.696 -5.90651 2.26527 0
M  V30 5196 C 492.36 -6.15528 2.58227 0
M  V30 5197 H 491.63 -0.732814 -0.109839 0
M  V30 5198 H 494.277 -1.86664 0.427661 0
M  V30 5199 H 492.582 -3.61814 -1.50326 0
M  V30 5200 H 494.279 -3.83352 -1.17653 0
M  V30 5201 H 490.869 -4.282 0.185187 0
M  V30 5202 H 495.053 -4.86679 0.972474 0
M  V30 5203 H 490.309 -5.75121 2.07476 0
M  V30 5204 H 494.483 -6.34957 2.86011 0
M  V30 5205 H 492.11 -6.79066 3.4172 0
M  V30 5206 N 493.685 -0.035106 -1.57561 0
M  V30 5207 C 494.648 0.929819 -2.09492 0
M  V30 5208 C 495.648 1.25026 -1.01119 0
M  V30 5209 O 496.838 1.18961 -1.27255 0
M  V30 5210 C 493.97 2.24457 -2.56577 0
M  V30 5211 H 495.163 0.479935 -2.96035 0
M  V30 5212 H 492.716 0.213033 -1.54841 0
M  V30 5213 H 493.451 2.74061 -1.73382 0
M  V30 5214 H 493.236 2.02508 -3.35757 0
M  V30 5215 H 494.726 2.93607 -2.96959 0
M  V30 5216 N 495.163 1.55791 0.238111 0
M  V30 5217 C 496.095 1.87513 1.31802 0
M  V30 5218 C 497.108 0.762053 1.43863 0
M  V30 5219 O 498.297 1.04024 1.45056 0
M  V30 5220 C 495.397 2.05402 2.69561 0
M  V30 5221 C 494.57 3.3632 2.79656 0
M  V30 5222 C 493.629 3.43844 3.98319 0
M  V30 5223 O 492.655 4.16994 3.87433 0
M  V30 5224 N 493.857 2.73777 5.11885 0
M  V30 5225 H 496.622 2.80734 1.04922 0
M  V30 5226 H 494.183 1.56135 0.428196 0
M  V30 5227 H 496.175 2.07769 3.47296 0
M  V30 5228 H 494.745 1.18884 2.89111 0
M  V30 5229 H 493.965 3.46195 1.88528 0
M  V30 5230 H 495.253 4.22594 2.83358 0
M  V30 5231 H 494.651 2.14094 5.23622 0
M  V30 5232 H 493.208 2.81825 5.87723 0
M  V30 5233 N 496.642 -0.504142 1.49319 0
M  V30 5234 C 497.867 -1.28729 1.62615 0
M  V30 5235 C 498.292 -1.85752 0.296309 0
M  V30 5236 O 497.65 -1.65704 -0.735649 0
M  V30 5237 C 497.698 -2.39561 2.69524 0
M  V30 5238 O 496.802 -3.43324 2.28478 0
M  V30 5239 H 496.143 -0.380172 0.544395 0
M  V30 5240 H 498.673 -0.603872 1.95485 0
M  V30 5241 H 498.683 -2.8537 2.91595 0
M  V30 5242 H 497.358 -1.97423 3.66056 0
M  V30 5243 H 495.935 -3.03455 2.16725 0
M  V30 5244 N 498.12 -1.38341 -0.754957 0
M  V30 5245 C 499.05 -1.38176 -1.88227 0
M  V30 5246 C 500.031 -0.247873 -1.68284 0
M  V30 5247 O 501.216 -0.45075 -1.88896 0
M  V30 5248 C 498.346 -1.20471 -3.25736 0
M  V30 5249 C 497.3 -2.3105 -3.60278 0
M  V30 5250 C 496.626 -1.98452 -4.96509 0
M  V30 5251 C 497.926 -3.73305 -3.65295 0
M  V30 5252 H 499.62 -2.32512 -1.88622 0
M  V30 5253 H 497.166 -1.1192 -0.906082 0
M  V30 5254 H 499.119 -1.18982 -4.04254 0
M  V30 5255 H 497.843 -0.225965 -3.25817 0
M  V30 5256 H 496.502 -2.31723 -2.84078 0
M  V30 5257 H 496.15 -0.990641 -4.93148 0
M  V30 5258 H 495.85 -2.7251 -5.20588 0
M  V30 5259 H 497.374 -1.98578 -5.77407 0
M  V30 5260 H 498.788 -3.7467 -4.3393 0
M  V30 5261 H 497.185 -4.46557 -4.00883 0
M  V30 5262 H 498.255 -4.05719 -2.65556 0
M  V30 5263 N 499.598 0.982988 -1.23187 0
M  V30 5264 C 500.531 2.07302 -0.953993 0
M  V30 5265 C 501.509 1.62249 0.106753 0
M  V30 5266 O 502.693 1.88481 -0.0269525 0
M  V30 5267 C 499.82 3.35873 -0.436716 0
M  V30 5268 C 498.866 3.99862 -1.48367 0
M  V30 5269 S 499.699 4.39443 -3.06023 0
M  V30 5270 C 500.855 5.7117 -2.55959 0
M  V30 5271 H 501.088 2.30554 -1.87702 0
M  V30 5272 H 498.621 1.11883 -1.06403 0
M  V30 5273 H 500.579 4.10244 -0.144872 0
M  V30 5274 H 499.24 3.10634 0.465351 0
M  V30 5275 H 498.433 4.92471 -1.07182 0
M  V30 5276 H 498.035 3.31857 -1.72473 0
M  V30 5277 H 500.327 6.47977 -1.97818 0
M  V30 5278 H 501.27 6.17194 -3.47098 0
M  V30 5279 H 501.678 5.29046 -1.96902 0
M  V30 5280 N 501.076 1.04316 1.18135 0
M  V30 5281 C 502.304 0.768117 1.92113 0
M  V30 5282 C 502.719 -0.675057 1.76319 0
M  V30 5283 O 502.076 -1.46038 1.09449 0
M  V30 5284 C 502.127 1.12808 3.43448 0
M  V30 5285 O 501.848 2.5146 3.58747 0
M  V30 5286 C 503.349 0.8779 4.3452 0
M  V30 5287 H 500.569 0.279937 0.609817 0
M  V30 5288 H 503.113 1.39149 1.49859 0
M  V30 5289 H 501.268 0.549623 3.83481 0
M  V30 5290 H 501.682 2.65313 4.52448 0
M  V30 5291 H 503.156 1.17959 5.39249 0
M  V30 5292 H 503.633 -0.187239 4.38801 0
M  V30 5293 H 504.239 1.43977 4.00188 0
M  V30 5294 N 502.554 -1.34406 0.822964 0
M  V30 5295 C 503.782 -2.02508 0.424039 0
M  V30 5296 C 504.197 -1.61975 -0.970022 0
M  V30 5297 O 503.554 -0.825228 -1.62777 0
M  V30 5298 C 503.605 -3.57789 0.516657 0
M  V30 5299 O 503.326 -3.96853 1.85577 0
M  V30 5300 C 504.827 -4.43157 0.112637 0
M  V30 5301 H 502.047 -0.649063 0.170173 0
M  V30 5302 H 504.591 -1.7168 1.11113 0
M  V30 5303 H 502.746 -3.87207 -0.122353 0
M  V30 5304 H 503.16 -4.91538 1.83005 0
M  V30 5305 H 504.634 -5.51527 0.228526 0
M  V30 5306 H 505.111 -4.28939 -0.943837 0
M  V30 5307 H 505.717 -4.19067 0.725449 0
M  V30 5308 N 504.032 -0.577932 -1.46621 0
M  V30 5309 C 504.942 0.160651 -2.34049 0
M  V30 5310 C 505.958 0.890911 -1.49462 0
M  V30 5311 O 507.134 0.855166 -1.82343 0
M  V30 5312 C 504.199 1.16447 -3.26559 0
M  V30 5313 C 503.26 0.4394 -4.27045 0
M  V30 5314 C 502.493 1.3954 -5.15135 0
M  V30 5315 O 502.716 2.63162 -5.06065 0
M  V30 5316 O 501.65 0.908585 -5.95003 0
M  V30 5317 H 505.476 -0.557057 -2.98547 0
M  V30 5318 H 503.061 -0.338369 -1.45518 0
M  V30 5319 H 504.943 1.7434 -3.83645 0
M  V30 5320 H 503.618 1.86373 -2.64663 0
M  V30 5321 H 502.525 -0.181247 -3.73661 0
M  V30 5322 H 503.858 -0.218799 -4.91713 0
M  V30 5323 N 505.51 1.54411 -0.315457 0
M  V30 5324 C 506.926 1.59556 0.037464 0
M  V30 5325 C 507.126 1.33217 1.5118 0
M  V30 5326 O 506.182 1.11264 2.26664 0
M  V30 5327 C 507.495 2.98372 -0.373477 0
M  V30 5328 C 509.043 3.11324 -0.323452 0
M  V30 5329 C 509.518 4.52472 -0.709433 0
M  V30 5330 N 511.009 4.58437 -0.662524 0
M  V30 5331 C 511.744 5.65751 -0.933474 0
M  V30 5332 N 511.24 6.81039 -1.27114 0
M  V30 5333 N 513.033 5.55489 -0.859573 0
M  V30 5334 H 505.184 1.6979 -1.27614 0
M  V30 5335 H 507.447 0.793732 -0.518356 0
M  V30 5336 H 507.153 3.22618 -1.40037 0
M  V30 5337 H 507.027 3.76264 0.265615 0
M  V30 5338 H 509.414 2.86818 0.694223 0
M  V30 5339 H 509.495 2.35555 -0.997367 0
M  V30 5340 H 509.139 4.7771 -1.72498 0
M  V30 5341 H 509.069 5.26598 -0.0132923 0
M  V30 5342 H 511.56 3.75636 -0.413065 0
M  V30 5343 H 511.873 7.58816 -1.46348 0
M  V30 5344 H 510.218 6.82555 -1.30932 0
M  V30 5345 H 513.409 4.64299 -0.595324 0
M  V30 5346 H 513.582 6.39036 -1.0741 0
M  V30 5347 N 506.988 0.0434614 1.5754 0
M  V30 5348 C 507.918 -0.931651 2.14109 0
M  V30 5349 C 508.899 -1.32971 1.06079 0
M  V30 5350 O 510.084 -1.40579 1.33982 0
M  V30 5351 C 507.214 -2.20914 2.67982 0
M  V30 5352 C 506.168 -1.95139 3.80926 0
M  V30 5353 C 505.494 -3.29276 4.21285 0
M  V30 5354 C 506.794 -1.27913 5.06395 0
M  V30 5355 H 508.488 -0.460497 2.95837 0
M  V30 5356 H 506.034 -0.220058 1.42309 0
M  V30 5357 H 507.987 -2.89522 3.06194 0
M  V30 5358 H 506.711 -2.70221 1.83434 0
M  V30 5359 H 505.37 -1.28945 3.43175 0
M  V30 5360 H 505.018 -3.76369 3.33699 0
M  V30 5361 H 504.718 -3.12831 4.97404 0
M  V30 5362 H 506.242 -3.99129 4.62091 0
M  V30 5363 H 507.656 -1.86544 5.42102 0
M  V30 5364 H 506.053 -1.2182 5.87605 0
M  V30 5365 H 507.123 -0.254066 4.84234 0
M  V30 5366 N 508.466 -1.55915 -0.229846 0
M  V30 5367 C 509.691 -1.8296 -0.976743 0
M  V30 5368 C 510.116 -0.622735 -1.77493 0
M  V30 5369 O 509.474 0.428431 -1.76165 0
M  V30 5370 C 509.522 -3.07916 -1.8767 0
M  V30 5371 O 508.626 -2.86028 -2.97088 0
M  V30 5372 H 507.967 -0.603453 -0.277021 0
M  V30 5373 H 510.497 -2.0312 -0.245669 0
M  V30 5374 H 510.507 -3.37802 -2.2881 0
M  V30 5375 H 509.182 -3.95389 -1.28996 0
M  V30 5376 H 507.759 -2.67355 -2.59954 0
M  V30 5377 N 509.944 0.496216 -1.49584 0
M  V30 5378 C 511.192 1.24756 -1.58998 0
M  V30 5379 C 511.513 1.92968 -0.280775 0
M  V30 5380 O 510.783 1.82959 0.700198 0
M  V30 5381 H 509.363 0.463471 -0.585836 0
M  V30 5382 H 512.025 0.574678 -1.86235 0
M  V30 5383 H 511.121 2.00895 -2.38847 0
M  V30 5384 N 511.423 1.38739 0.74761 0
M  V30 5385 C 512.648 1.38702 1.54197 0
M  V30 5386 C 513.073 -0.019664 1.8809 0
M  V30 5387 O 512.431 -1.00333 1.51006 0
M  V30 5388 C 512.479 2.25492 2.814 0
M  V30 5389 O 511.583 1.67613 3.76802 0
M  V30 5390 H 510.924 0.472863 0.466151 0
M  V30 5391 H 513.454 1.82577 0.923413 0
M  V30 5392 H 513.464 2.39561 3.30264 0
M  V30 5393 H 512.139 3.27727 2.56062 0
M  V30 5394 H 510.716 1.62718 3.35526 0
M  V30 5395 N 512.901 -0.976442 1.23707 0
M  V30 5396 C 514.149 -1.71487 1.06942 0
M  V30 5397 C 514.47 -1.9098 -0.393897 0
M  V30 5398 O 513.74 -1.48128 -1.28198 0
M  V30 5399 H 512.32 -0.635425 0.392739 0
M  V30 5400 H 514.982 -1.17515 1.55487 0
M  V30 5401 H 514.078 -2.70286 1.56051 0
M  V30 5402 N 514.379 -1.04941 -1.1758 0
M  V30 5403 C 515.309 -0.669172 -2.23706 0
M  V30 5404 C 516.29 0.331835 -1.66832 0
M  V30 5405 O 517.475 0.209988 -1.93061 0
M  V30 5406 C 514.605 -0.0404889 -3.47276 0
M  V30 5407 C 513.559 -0.965983 -4.16957 0
M  V30 5408 C 512.885 -0.201312 -5.34321 0
M  V30 5409 C 514.185 -2.28902 -4.69469 0
M  V30 5410 H 515.879 -1.55639 -2.55767 0
M  V30 5411 H 513.425 -0.749793 -1.22939 0
M  V30 5412 H 515.378 0.237298 -4.20731 0
M  V30 5413 H 514.102 0.881658 -3.14475 0
M  V30 5414 H 512.761 -1.22829 -3.45411 0
M  V30 5415 H 512.409 0.723519 -4.97769 0
M  V30 5416 H 512.109 -0.817968 -5.81879 0
M  V30 5417 H 513.633 0.0692499 -6.10561 0
M  V30 5418 H 515.047 -2.07132 -5.34574 0
M  V30 5419 H 513.444 -2.85942 -5.27596 0
M  V30 5420 H 514.514 -2.92937 -3.86414 0
M  V30 5421 N 515.857 1.33968 -0.830081 0
M  V30 5422 C 516.807 2.26845 -0.229242 0
M  V30 5423 C 517.791 1.48862 0.610659 0
M  V30 5424 O 518.983 1.70808 0.464067 0
M  V30 5425 C 516.112 3.3798 0.602057 0
M  V30 5426 C 515.198 4.23369 -0.248866 0
M  V30 5427 N 515.589 4.88182 -1.32334 0
M  V30 5428 C 513.887 4.45987 -0.0344077 0
M  V30 5429 C 514.588 5.51671 -1.84482 0
M  V30 5430 N 513.564 5.31348 -1.14762 0
M  V30 5431 H 517.366 2.74464 -1.05104 0
M  V30 5432 H 514.88 1.4777 -0.673623 0
M  V30 5433 H 516.877 4.03494 1.04873 0
M  V30 5434 H 515.537 2.9191 1.42193 0
M  V30 5435 H 516.548 4.88988 -1.70619 0
M  V30 5436 H 513.225 4.10658 0.752727 0
M  V30 5437 H 514.615 6.13308 -2.74413 0
M  V30 5438 N 517.335 0.585699 1.46312 0
M  V30 5439 C 518.581 0.0808731 2.03239 0
M  V30 5440 C 518.936 -1.26609 1.44872 0
M  V30 5441 O 518.229 -1.81779 0.60556 0
M  V30 5442 C 518.423 -0.0401312 3.57377 0
M  V30 5443 C 518.252 1.29356 4.30694 0
M  V30 5444 C 517.022 1.86849 4.69484 0
M  V30 5445 C 519.22 2.21742 4.64042 0
M  V30 5446 N 517.202 3.13926 5.27564 0
M  V30 5447 C 518.573 3.33408 5.22723 0
M  V30 5448 C 520.628 2.21386 4.45974 0
M  V30 5449 C 519.331 4.44852 5.65242 0
M  V30 5450 C 521.357 3.31862 4.89511 0
M  V30 5451 C 520.719 4.42248 5.48266 0
M  V30 5452 H 516.818 0.072443 0.778637 0
M  V30 5453 H 519.402 0.779254 1.78426 0
M  V30 5454 H 517.573 -0.707686 3.81898 0
M  V30 5455 H 519.305 -0.549615 4.00951 0
M  V30 5456 H 516.06 1.40307 4.52339 0
M  V30 5457 H 516.484 3.78775 5.61122 0
M  V30 5458 H 521.126 1.37314 3.99881 0
M  V30 5459 H 518.844 5.29665 6.10312 0
M  V30 5460 H 522.43 3.32708 4.7728 0
M  V30 5461 H 521.31 5.26323 5.81338 0
M  V30 5462 N 518.813 -1.54241 0.323641 0
M  V30 5463 C 520.224 -1.85975 -0.164405 0
M  V30 5464 C 520.575 -1.24529 -1.51615 0
M  V30 5465 O 519.7 -0.551351 -2.09258 0
M  V30 5466 C 520.295 -3.37424 -0.305091 0
M  V30 5467 C 518.854 -3.69107 -0.737358 0
M  V30 5468 C 518.001 -2.76942 0.140884 0
M  V30 5469 H 520.952 -1.49088 0.543922 0
M  V30 5470 H 520.973 -3.63147 -1.13598 0
M  V30 5471 H 520.485 -3.82116 0.678876 0
M  V30 5472 H 518.586 -3.29947 -1.73107 0
M  V30 5473 H 518.699 -4.76035 -0.541053 0
M  V30 5474 H 517.063 -2.51795 -0.383572 0
M  V30 5475 H 517.846 -3.24461 1.12162 0
M  V30 5476 N 520.291 -0.0518155 -1.57515 0
M  V30 5477 C 521.221 0.920283 -2.146 0
M  V30 5478 C 522.202 1.32406 -1.06783 0
M  V30 5479 O 523.387 1.39866 -1.34726 0
M  V30 5480 C 520.517 2.1949 -2.6915 0
M  V30 5481 C 519.471 1.93116 -3.81956 0
M  V30 5482 C 518.797 3.27037 -4.23026 0
M  V30 5483 C 520.097 1.25225 -5.07066 0
M  V30 5484 H 521.791 0.444801 -2.96077 0
M  V30 5485 H 519.337 0.212508 -1.42423 0
M  V30 5486 H 521.29 2.87894 -3.07725 0
M  V30 5487 H 520.014 2.69244 -1.84865 0
M  V30 5488 H 518.673 1.27123 -3.43854 0
M  V30 5489 H 518.321 3.74595 -3.3569 0
M  V30 5490 H 518.021 3.10189 -4.99056 0
M  V30 5491 H 519.545 3.96673 -4.64202 0
M  V30 5492 H 520.959 1.83666 -5.43083 0
M  V30 5493 H 519.356 1.18702 -5.88243 0
M  V30 5494 H 520.426 0.228382 -4.84362 0
M  V30 5495 N 521.769 1.56035 0.221574 0
M  V30 5496 C 522.994 1.83476 0.967026 0
M  V30 5497 C 523.419 0.632139 1.7716 0
M  V30 5498 O 522.777 -0.419082 1.7639 0
M  V30 5499 C 522.825 3.08907 1.86034 0
M  V30 5500 O 521.929 2.876 2.95567 0
M  V30 5501 H 521.27 0.604913 0.273817 0
M  V30 5502 H 523.8 2.03247 0.234893 0
M  V30 5503 H 523.81 3.3901 2.27016 0
M  V30 5504 H 522.485 3.96068 1.26898 0
M  V30 5505 H 521.062 2.6873 2.58532 0
M  V30 5506 N 523.247 -0.488276 1.49845 0
M  V30 5507 C 524.663 -0.820566 1.3689 0
M  V30 5508 C 524.863 -1.97248 0.411752 0
M  V30 5509 O 523.919 -2.52042 -0.151931 0
M  V30 5510 C 525.232 -1.1488 2.77891 0
M  V30 5511 C 526.78 -1.25626 2.86683 0
M  V30 5512 C 527.255 -1.61772 4.28479 0
M  V30 5513 N 528.746 -1.68797 4.31349 0
M  V30 5514 C 529.481 -1.98235 5.38043 0
M  V30 5515 N 528.977 -2.2581 6.54967 0
M  V30 5516 N 530.77 -1.99593 5.2547 0
M  V30 5517 H 522.921 0.271123 2.10662 0
M  V30 5518 H 525.184 0.058735 0.946179 0
M  V30 5519 H 524.89 -0.375614 3.49688 0
M  V30 5520 H 524.764 -2.08919 3.14058 0
M  V30 5521 H 527.151 -2.02014 2.15114 0
M  V30 5522 H 527.232 -0.296072 2.54081 0
M  V30 5523 H 526.876 -0.859295 5.00578 0
M  V30 5524 H 526.806 -2.58912 4.58554 0
M  V30 5525 H 529.297 -1.49595 3.4703 0
M  V30 5526 H 529.61 -2.47497 7.32096 0
M  V30 5527 H 527.955 -2.23239 6.58171 0
M  V30 5528 H 531.146 -1.77535 4.33127 0
M  V30 5529 H 531.319 -2.222 6.08713 0
M  V30 5530 N 524.725 -1.39134 -0.740242 0
M  V30 5531 C 525.953 -1.39334 -1.5295 0
M  V30 5532 C 526.368 0.0135008 -1.88795 0
M  V30 5533 O 525.725 0.983524 -1.5373 0
M  V30 5534 C 525.776 -2.2614 -2.82034 0
M  V30 5535 O 525.497 -3.61345 -2.47712 0
M  V30 5536 C 526.998 -2.34666 -3.76094 0
M  V30 5537 H 524.218 -0.476103 -0.472828 0
M  V30 5538 H 526.762 -1.82883 -0.9151 0
M  V30 5539 H 524.917 -1.86018 -3.39818 0
M  V30 5540 H 525.331 -4.07194 -3.30595 0
M  V30 5541 H 526.805 -2.99663 -4.63579 0
M  V30 5542 H 527.282 -1.36426 -4.17474 0
M  V30 5543 H 527.888 -2.75236 -3.2423 0
M  V30 5544 N 526.204 0.969867 -1.24223 0
M  V30 5545 C 527.62 1.23809 -1.00716 0
M  V30 5546 C 527.82 1.99469 0.285358 0
M  V30 5547 O 526.876 2.31764 1.00207 0
M  V30 5548 C 528.189 2.02734 -2.2208 0
M  V30 5549 C 529.737 2.15834 -2.26681 0
M  V30 5550 C 530.212 2.98154 -3.47661 0
M  V30 5551 N 531.703 3.05737 -3.47964 0
M  V30 5552 C 532.438 3.69785 -4.38231 0
M  V30 5553 N 531.934 4.35569 -5.3875 0
M  V30 5554 N 533.727 3.66775 -4.25949 0
M  V30 5555 H 525.878 0.463294 -2.07286 0
M  V30 5556 H 528.141 0.267348 -0.909521 0
M  V30 5557 H 527.847 1.54524 -3.15935 0
M  V30 5558 H 527.721 3.0347 -2.24021 0
M  V30 5559 H 530.108 2.63248 -1.33359 0
M  V30 5560 H 530.189 1.14453 -2.28767 0
M  V30 5561 H 529.833 2.51435 -4.41297 0
M  V30 5562 H 529.763 3.99729 -3.42818 0
M  V30 5563 H 532.254 2.58941 -2.75242 0
M  V30 5564 H 532.567 4.82251 -6.03866 0
M  V30 5565 H 530.912 4.34244 -5.42639 0
M  V30 5566 H 534.103 3.14558 -3.46657 0
M  V30 5567 H 534.276 4.16407 -4.96497 0
M  V30 5568 N 527.682 1.05563 1.17022 0
M  V30 5569 C 528.907 0.788437 1.91829 0
M  V30 5570 C 529.332 -0.650356 1.76499 0
M  V30 5571 O 528.69 -1.45229 1.08527 0
M  V30 5572 C 528.738 1.1786 3.40795 0
M  V30 5573 O 527.842 0.312965 4.11211 0
M  V30 5574 H 527.183 0.288794 0.597908 0
M  V30 5575 H 529.713 1.40948 1.48307 0
M  V30 5576 H 529.723 1.14697 3.91546 0
M  V30 5577 H 528.398 2.22666 3.51273 0
M  V30 5578 H 526.975 0.405515 3.70689 0
M  V30 5579 N 529.16 -1.33526 0.837174 0
M  V30 5580 C 530.07 -2.33023 0.271568 0
M  V30 5581 C 531.086 -1.63272 -0.601514 0
M  V30 5582 O 532.262 -1.94939 -0.506038 0
M  V30 5583 C 529.327 -3.42382 -0.545448 0
M  V30 5584 C 528.388 -4.27857 0.351709 0
M  V30 5585 C 527.621 -5.31994 -0.426409 0
M  V30 5586 O 527.844 -5.45763 -1.65828 0
M  V30 5587 O 526.778 -6.01572 0.1987 0
M  V30 5588 H 530.604 -2.83256 1.09545 0
M  V30 5589 H 528.189 -1.36837 0.599655 0
M  V30 5590 H 530.071 -4.09122 -1.00979 0
M  V30 5591 H 528.746 -2.94369 -1.34641 0
M  V30 5592 H 527.653 -3.6399 0.863853 0
M  V30 5593 H 528.986 -4.79349 1.1174 0
M  V30 5594 N 530.638 -0.59345 -1.46 0
M  V30 5595 C 532.049 -0.169801 -1.85926 0
M  V30 5596 C 532.4 1.26984 -1.49565 0
M  V30 5597 O 531.525 1.96076 -0.915602 0
M  V30 5598 C 532.12 -0.301385 -3.37457 0
M  V30 5599 C 530.679 0.0674684 -3.7634 0
M  V30 5600 C 529.826 -0.632383 -2.69993 0
M  V30 5601 H 532.777 -0.801014 -1.37002 0
M  V30 5602 H 532.798 0.470331 -3.77582 0
M  V30 5603 H 532.31 -1.34927 -3.63891 0
M  V30 5604 H 530.411 1.11507 -3.55523 0
M  V30 5605 H 530.524 -0.316332 -4.78055 0
M  V30 5606 H 528.888 -0.0714961 -2.546 0
M  V30 5607 H 529.671 -1.68212 -2.99265 0
M  V30 5608 N 532.116 1.54067 -0.331816 0
M  V30 5609 C 533.046 2.27569 0.522932 0
M  V30 5610 C 534.027 1.28679 1.11247 0
M  V30 5611 O 535.212 1.57504 1.13605 0
M  V30 5612 C 532.342 3.0397 1.67987 0
M  V30 5613 C 531.296 4.10267 1.21924 0
M  V30 5614 C 530.622 4.74555 2.46377 0
M  V30 5615 C 531.922 5.21268 0.32815 0
M  V30 5616 H 533.616 2.99264 -0.0901977 0
M  V30 5617 H 531.162 1.4393 -0.044821 0
M  V30 5618 H 533.115 3.54123 2.28418 0
M  V30 5619 H 531.839 2.29906 2.31971 0
M  V30 5620 H 530.498 3.61009 0.637809 0
M  V30 5621 H 530.146 3.97098 3.08743 0
M  V30 5622 H 529.846 5.46363 2.16243 0
M  V30 5623 H 531.37 5.27487 3.07555 0
M  V30 5624 H 532.784 5.67128 0.838978 0
M  V30 5625 H 531.181 5.99982 0.119228 0
M  V30 5626 H 532.251 4.80673 -0.638839 0
M  V30 5627 N 533.594 0.0601682 1.57485 0
M  V30 5628 C 535.005 -0.474217 1.80577 0
M  V30 5629 C 535.356 -1.70365 0.973147 0
M  V30 5630 O 534.481 -2.15544 0.192306 0
M  V30 5631 C 535.076 -0.867102 3.27516 0
M  V30 5632 C 533.635 -1.34642 3.51495 0
M  V30 5633 C 532.782 -0.32594 2.75378 0
M  V30 5634 H 535.733 0.285973 1.56102 0
M  V30 5635 H 535.754 -1.72938 3.38929 0
M  V30 5636 H 535.266 0.0278927 3.8809 0
M  V30 5637 H 533.367 -2.2603 2.96212 0
M  V30 5638 H 533.48 -1.33237 4.60201 0
M  V30 5639 H 531.844 -0.800749 2.41785 0
M  V30 5640 H 532.627 0.561125 3.38683 0
M  V30 5641 N 535.072 -1.5615 -0.213296 0
M  V30 5642 C 536.483 -1.69645 -0.779582 0
M  V30 5643 C 536.834 -0.663615 -1.84636 0
M  V30 5644 O 535.959 0.183633 -2.15619 0
M  V30 5645 C 536.554 -3.07567 -1.42084 0
M  V30 5646 C 535.113 -3.22889 -1.93442 0
M  V30 5647 C 534.26 -2.65581 -0.797612 0
M  V30 5648 H 537.211 -1.58696 0.0114951 0
M  V30 5649 H 537.232 -3.03884 -2.28986 0
M  V30 5650 H 536.744 -3.82716 -0.644187 0
M  V30 5651 H 534.845 -2.52623 -2.73884 0
M  V30 5652 H 534.958 -4.30197 -2.10872 0
M  V30 5653 H 533.322 -2.24278 -1.20712 0
M  V30 5654 H 534.105 -3.43284 -0.033494 0
M  V30 5655 N 536.55 0.480323 -1.50102 0
M  V30 5656 C 537.775 1.26126 -1.64642 0
M  V30 5657 C 538.2 1.85257 -0.325823 0
M  V30 5658 O 537.558 1.66854 0.709194 0
M  V30 5659 C 537.606 2.35243 -2.73301 0
M  V30 5660 O 536.71 3.39646 -2.33911 0
M  V30 5661 H 536.051 0.371463 -0.550374 0
M  V30 5662 H 538.581 0.572696 -1.96421 0
M  V30 5663 H 538.591 2.80695 -2.96098 0
M  V30 5664 H 537.266 1.91574 -3.6915 0
M  V30 5665 H 535.843 2.99969 -2.21525 0
M  V30 5666 N 538.028 1.39524 0.732853 0
M  V30 5667 C 538.991 1.38189 1.82857 0
M  V30 5668 C 539.991 0.278624 1.58368 0
M  V30 5669 O 541.181 0.536639 1.65728 0
M  V30 5670 C 538.313 1.15661 3.2068 0
M  V30 5671 H 539.506 2.35692 1.85444 0
M  V30 5672 H 537.059 1.2512 0.936728 0
M  V30 5673 H 537.794 0.188482 3.23752 0
M  V30 5674 H 537.579 1.95559 3.39852 0
M  V30 5675 H 539.069 1.17472 4.00737 0
M  V30 5676 N 539.506 -0.963266 1.24736 0
M  V30 5677 C 540.734 -1.74166 1.11686 0
M  V30 5678 C 541.149 -1.8589 -0.330187 0
M  V30 5679 O 540.506 -1.35042 -1.2276 0
M  V30 5680 C 540.557 -3.15989 1.75595 0
M  V30 5681 O 540.278 -3.04847 3.14642 0
M  V30 5682 C 541.779 -4.10145 1.68213 0
M  V30 5683 H 538.999 -0.546031 0.389989 0
M  V30 5684 H 541.543 -1.20907 1.64929 0
M  V30 5685 H 539.698 -3.66219 1.26343 0
M  V30 5686 H 540.112 -3.9425 3.4593 0
M  V30 5687 H 541.586 -5.07299 2.17604 0
M  V30 5688 H 542.063 -4.3445 0.644208 0
M  V30 5689 H 542.669 -3.65827 2.16912 0
M  V30 5690 N 540.985 -1.06182 -1.16461 0
M  V30 5691 C 541.948 -0.675723 -2.19013 0
M  V30 5692 C 542.948 0.277963 -1.58379 0
M  V30 5693 O 544.138 0.0604962 -1.74095 0
M  V30 5694 C 541.27 0.00591459 -3.40899 0
M  V30 5695 H 542.463 -1.58353 -2.54685 0
M  V30 5696 H 540.016 -0.856908 -1.30716 0
M  V30 5697 H 540.751 0.92652 -3.10783 0
M  V30 5698 H 540.536 -0.67984 -3.86161 0
M  V30 5699 H 542.026 0.26181 -4.16778 0
M  V30 5700 N 542.463 1.3308 -0.844243 0
M  V30 5701 C 543.874 1.7992 -0.498566 0
M  V30 5702 C 544.225 1.69808 0.982834 0
M  V30 5703 O 543.35 1.25051 1.7661 0
M  V30 5704 C 543.945 3.26677 -0.898204 0
M  V30 5705 C 542.504 3.71513 -0.604583 0
M  V30 5706 C 541.651 2.54393 -1.10362 0
M  V30 5707 H 544.602 1.20526 -1.03244 0
M  V30 5708 H 544.623 3.79918 -0.21039 0
M  V30 5709 H 544.135 3.34004 -1.97643 0
M  V30 5710 H 542.236 3.69708 0.46335 0
M  V30 5711 H 542.349 4.64755 -1.16358 0
M  V30 5712 H 540.713 2.49246 -0.524273 0
M  V30 5713 H 541.496 2.6448 -2.18873 0
M  V30 5714 N 543.941 0.601185 1.45683 0
M  V30 5715 C 545.352 0.179659 1.85834 0
M  V30 5716 C 545.703 -1.26189 1.50236 0
M  V30 5717 O 544.828 -1.95587 0.925987 0
M  V30 5718 C 545.423 0.319277 3.37292 0
M  V30 5719 C 543.982 -0.0475092 3.7637 0
M  V30 5720 C 543.129 0.646692 2.69654 0
M  V30 5721 H 546.08 0.808268 1.36575 0
M  V30 5722 H 546.101 -0.4503 3.77826 0
M  V30 5723 H 545.613 1.36855 3.6317 0
M  V30 5724 H 543.714 -1.0962 3.5611 0
M  V30 5725 H 543.827 0.34168 4.7788 0
M  V30 5726 H 542.191 0.0849971 2.54558 0
M  V30 5727 H 542.974 1.69797 2.98369 0
M  V30 5728 N 545.419 -1.53889 0.339982 0
M  V30 5729 C 546.83 -1.86139 -0.144671 0
M  V30 5730 C 547.181 -1.2613 -1.50285 0
M  V30 5731 O 546.306 -0.573515 -2.08662 0
M  V30 5732 C 546.901 -3.37728 -0.269285 0
M  V30 5733 C 545.46 -3.69868 -0.698168 0
M  V30 5734 C 544.607 -2.76777 0.170249 0
M  V30 5735 H 547.558 -1.48503 0.559704 0
M  V30 5736 H 547.579 -3.64331 -1.0974 0
M  V30 5737 H 547.091 -3.81375 0.719366 0
M  V30 5738 H 545.192 -3.31764 -1.69597 0
M  V30 5739 H 545.305 -4.76582 -0.490533 0
M  V30 5740 H 543.669 -2.52188 -0.356844 0
M  V30 5741 H 544.452 -3.23253 1.15597 0
M  V30 5742 N 546.897 -0.0685191 -1.57451 0
M  V30 5743 C 548.308 0.464634 -1.80826 0
M  V30 5744 C 548.659 1.69847 -0.982169 0
M  V30 5745 O 547.784 2.15439 -0.203734 0
M  V30 5746 C 548.379 0.849721 -3.27971 0
M  V30 5747 C 546.938 1.32776 -3.52204 0
M  V30 5748 C 546.085 0.311332 -2.75547 0
M  V30 5749 H 549.036 -0.294248 -1.55948 0
M  V30 5750 H 549.057 1.71138 -3.39841 0
M  V30 5751 H 548.569 -0.0484736 -3.8807 0
M  V30 5752 H 546.67 2.24456 -2.97406 0
M  V30 5753 H 546.783 1.30794 -4.60901 0
M  V30 5754 H 545.147 0.787915 -2.42206 0
M  V30 5755 H 545.93 -0.579078 -3.38381 0
M  V30 5756 N 548.375 1.56261 0.205012 0
M  V30 5757 C 549.623 1.79684 0.925096 0
M  V30 5758 C 549.944 0.63989 1.84202 0
M  V30 5759 O 549.214 -0.342345 1.92885 0
M  V30 5760 H 547.794 0.662774 0.344587 0
M  V30 5761 H 550.456 1.93734 0.212899 0
M  V30 5762 H 549.552 2.72467 1.52211 0
M  V30 5763 N 549.853 -0.472356 1.50355 0
M  V30 5764 C 551.264 -1.05326 1.54154 0
M  V30 5765 C 551.615 -1.93155 0.344303 0
M  V30 5766 O 550.74 -2.09479 -0.542928 0
M  V30 5767 C 551.335 -1.91691 2.79356 0
M  V30 5768 C 549.894 -2.44892 2.8584 0
M  V30 5769 C 549.041 -1.23205 2.48426 0
M  V30 5770 H 551.992 -0.255027 1.56637 0
M  V30 5771 H 552.013 -2.76742 2.6114 0
M  V30 5772 H 551.525 -1.27741 3.66475 0
M  V30 5773 H 549.626 -3.12399 2.0307 0
M  V30 5774 H 549.739 -2.80086 3.88701 0
M  V30 5775 H 548.103 -1.56643 2.00836 0
M  V30 5776 H 548.886 -0.609194 3.37852 0
M  V30 5777 N 551.331 -1.39911 -0.725443 0
M  V30 5778 C 552.264 -1.33788 -1.84867 0
M  V30 5779 C 553.242 -0.209907 -1.61239 0
M  V30 5780 O 554.426 -0.391943 -1.8438 0
M  V30 5781 C 551.553 -1.07975 -3.21028 0
M  V30 5782 C 550.599 -2.23092 -3.635 0
M  V30 5783 S 551.432 -3.85431 -3.71757 0
M  V30 5784 C 552.588 -3.61862 -5.10692 0
M  V30 5785 H 552.821 -2.28848 -1.89779 0
M  V30 5786 H 550.354 -1.26079 -0.891254 0
M  V30 5787 H 552.312 -0.937669 -3.99647 0
M  V30 5788 H 550.973 -0.145865 -3.13761 0
M  V30 5789 H 550.166 -2.00647 -4.62338 0
M  V30 5790 H 549.768 -2.33553 -2.92112 0
M  V30 5791 H 552.06 -3.19719 -5.97316 0
M  V30 5792 H 553.003 -4.60196 -5.38169 0
M  V30 5793 H 553.411 -2.95757 -4.8082 0
M  V30 5794 N 552.809 0.956637 -1.25245 0
M  V30 5795 C 553.741 2.05628 -1.01242 0
M  V30 5796 C 554.754 1.62785 0.0219579 0
M  V30 5797 O 555.943 1.77184 -0.216365 0
M  V30 5798 C 553.043 3.35069 -0.508161 0
M  V30 5799 C 552.216 4.06761 -1.60823 0
M  V30 5800 C 551.275 5.14473 -1.1047 0
M  V30 5801 O 550.301 5.40033 -1.79868 0
M  V30 5802 N 551.503 5.80474 0.0550773 0
M  V30 5803 H 554.268 2.2679 -1.95925 0
M  V30 5804 H 551.829 1.12505 -1.16423 0
M  V30 5805 H 553.821 4.044 -0.155819 0
M  V30 5806 H 552.391 3.10694 0.344683 0
M  V30 5807 H 551.611 3.31555 -2.13224 0
M  V30 5808 H 552.899 4.51418 -2.34733 0
M  V30 5809 H 552.297 5.62125 0.635004 0
M  V30 5810 H 550.854 6.50868 0.348469 0
M  V30 5811 N 554.287 1.06798 1.15896 0
M  V30 5812 C 555.698 0.811355 1.68149 0
M  V30 5813 C 556.049 -0.664339 1.8461 0
M  V30 5814 O 555.174 -1.51485 1.54535 0
M  V30 5815 C 555.769 1.46624 3.05429 0
M  V30 5816 C 554.328 1.25726 3.54781 0
M  V30 5817 C 553.475 1.53949 2.3064 0
M  V30 5818 H 556.426 1.23078 1.00187 0
M  V30 5819 H 556.447 0.88437 3.7008 0
M  V30 5820 H 555.959 2.54025 2.93416 0
M  V30 5821 H 554.06 0.20322 3.72045 0
M  V30 5822 H 554.173 1.97354 4.36564 0
M  V30 5823 H 552.537 0.96025 2.35905 0
M  V30 5824 H 553.32 2.6252 2.2122 0
M  V30 5825 N 555.766 -1.3263 0.851289 0
M  V30 5826 C 557.182 -1.50162 0.5407 0
M  V30 5827 C 557.382 -1.78788 -0.929369 0
M  V30 5828 O 556.438 -1.85545 -1.71258 0
M  V30 5829 C 557.751 -2.64803 1.42478 0
M  V30 5830 C 559.299 -2.78688 1.42485 0
M  V30 5831 C 559.774 -3.96405 2.29407 0
M  V30 5832 N 561.265 -4.0366 2.27184 0
M  V30 5833 C 562 -4.93971 2.9117 0
M  V30 5834 N 561.496 -5.89313 3.64256 0
M  V30 5835 N 563.289 -4.87066 2.80576 0
M  V30 5836 H 555.44 -1.12315 1.80275 0
M  V30 5837 H 557.703 -0.553266 0.769806 0
M  V30 5838 H 557.409 -2.50368 2.46999 0
M  V30 5839 H 557.283 -3.60506 1.10974 0
M  V30 5840 H 559.67 -2.92547 0.387304 0
M  V30 5841 H 559.751 -1.83708 1.78002 0
M  V30 5842 H 559.395 -3.83304 3.33228 0
M  V30 5843 H 559.325 -4.90654 1.91224 0
M  V30 5844 H 561.816 -3.35435 1.74045 0
M  V30 5845 H 562.129 -6.54913 4.10255 0
M  V30 5846 H 560.474 -5.8935 3.68364 0
M  V30 5847 H 563.665 -4.11552 2.23031 0
M  V30 5848 H 563.838 -5.57248 3.30725 0
M  V30 5849 N 557.244 -0.608902 -1.45362 0
M  V30 5850 C 558.174 0.0964526 -2.33301 0
M  V30 5851 C 559.155 0.857444 -1.46908 0
M  V30 5852 O 560.34 0.827735 -1.75676 0
M  V30 5853 C 557.47 1.09354 -3.29635 0
M  V30 5854 C 556.424 0.445676 -4.25673 0
M  V30 5855 C 555.75 1.5511 -5.11708 0
M  V30 5856 C 557.05 -0.633972 -5.18438 0
M  V30 5857 H 558.744 -0.637829 -2.92527 0
M  V30 5858 H 556.29 -0.308178 -1.40664 0
M  V30 5859 H 558.243 1.59556 -3.90025 0
M  V30 5860 H 556.967 1.85843 -2.6857 0
M  V30 5861 H 555.626 -0.0354897 -3.66583 0
M  V30 5862 H 555.274 2.30631 -4.4701 0
M  V30 5863 H 554.974 1.12311 -5.76767 0
M  V30 5864 H 556.498 2.05537 -5.74967 0
M  V30 5865 H 557.912 -0.215974 -5.72893 0
M  V30 5866 H 556.309 -0.983789 -5.91981 0
M  V30 5867 H 557.379 -1.51005 -4.60788 0
M  V30 5868 N 558.722 1.53707 -0.348139 0
M  V30 5869 C 559.632 2.28881 0.514857 0
M  V30 5870 C 560.648 1.34168 1.10793 0
M  V30 5871 O 561.824 1.6721 1.12262 0
M  V30 5872 C 558.889 3.05042 1.64774 0
M  V30 5873 C 557.95 4.15389 1.08398 0
M  V30 5874 C 557.183 4.87909 2.16287 0
M  V30 5875 O 557.406 4.60137 3.3709 0
M  V30 5876 O 556.34 5.74254 1.80323 0
M  V30 5877 H 560.166 3.03547 -0.0963699 0
M  V30 5878 H 557.751 1.48972 -0.113043 0
M  V30 5879 H 559.633 3.52656 2.30677 0
M  V30 5880 H 558.308 2.33228 2.24469 0
M  V30 5881 H 557.215 3.72068 0.389341 0
M  V30 5882 H 558.548 4.89318 0.531829 0
M  V30 5883 N 560.2 0.0768682 1.57412 0
M  V30 5884 C 561.132 -0.918248 2.10002 0
M  V30 5885 C 562.145 -1.25808 1.03325 0
M  V30 5886 O 563.334 -1.21438 1.30824 0
M  V30 5887 C 560.434 -2.23263 2.54964 0
M  V30 5888 C 559.607 -2.07088 3.8527 0
M  V30 5889 C 558.666 -3.21876 4.16272 0
M  V30 5890 O 557.692 -2.96643 4.8579 0
M  V30 5891 N 558.894 -4.4712 3.70221 0
M  V30 5892 H 561.659 -0.469209 2.96004 0
M  V30 5893 H 559.22 -0.108725 1.61535 0
M  V30 5894 H 561.212 -2.9897 2.72762 0
M  V30 5895 H 559.782 -2.59649 1.74072 0
M  V30 5896 H 559.002 -1.15818 3.76802 0
M  V30 5897 H 560.29 -1.93537 4.70554 0
M  V30 5898 H 559.688 -4.70506 3.1407 0
M  V30 5899 H 558.245 -5.19837 3.93209 0
M  V30 5900 N 561.678 -1.56367 -0.196722 0
M  V30 5901 C 562.608 -1.97442 -1.24655 0
M  V30 5902 C 563.589 -0.846147 -1.47561 0
M  V30 5903 O 564.774 -1.11035 -1.59326 0
M  V30 5904 C 561.904 -2.31253 -2.59112 0
M  V30 5905 C 560.858 -3.46804 -2.50821 0
M  V30 5906 C 560.184 -3.66286 -3.89536 0
M  V30 5907 C 561.484 -4.8104 -2.03465 0
M  V30 5908 H 563.178 -2.85388 -0.905216 0
M  V30 5909 H 560.724 -1.37304 -0.434002 0
M  V30 5910 H 562.677 -2.58583 -3.32736 0
M  V30 5911 H 561.401 -1.40188 -2.94983 0
M  V30 5912 H 560.06 -3.19563 -1.79653 0
M  V30 5913 H 559.708 -2.72555 -4.22756 0
M  V30 5914 H 559.408 -4.4402 -3.84864 0
M  V30 5915 H 560.932 -3.9599 -4.64784 0
M  V30 5916 H 562.346 -5.07411 -2.66846 0
M  V30 5917 H 560.743 -5.62232 -2.09798 0
M  V30 5918 H 561.813 -4.74732 -0.98781 0
M  V30 5919 N 563.156 0.464375 -1.50603 0
M  V30 5920 C 564.103 1.56152 -1.69956 0
M  V30 5921 C 565.073 1.57046 -0.54091 0
M  V30 5922 O 566.258 1.74473 -0.772258 0
M  V30 5923 C 563.398 2.94079 -1.80586 0
M  V30 5924 C 562.511 3.02923 -3.07996 0
M  V30 5925 C 561.646 4.31806 -3.09382 0
M  V30 5926 C 560.685 4.34417 -4.31218 0
M  V30 5927 N 559.822 5.54782 -4.30304 0
M  V30 5928 H 564.662 1.38955 -2.6362 0
M  V30 5929 H 562.199 0.675482 -1.30674 0
M  V30 5930 H 564.157 3.74073 -1.8473 0
M  V30 5931 H 562.787 3.09896 -0.903556 0
M  V30 5932 H 561.839 2.1576 -3.13292 0
M  V30 5933 H 563.151 3.00712 -3.97962 0
M  V30 5934 H 562.305 5.20153 -3.12292 0
M  V30 5935 H 561.044 4.36636 -2.17257 0
M  V30 5936 H 560.049 3.44467 -4.28512 0
M  V30 5937 H 561.274 4.31273 -5.24576 0
M  V30 5938 H 559.22 5.60384 -3.41037 0
M  V30 5939 H 559.137 5.54339 -5.14047 0
M  V30 5940 H 560.405 6.45235 -4.3737 0
M  V30 5941 N 564.634 1.40294 0.718013 0
M  V30 5942 C 565.862 1.4175 1.50714 0
M  V30 5943 C 566.277 0.0165366 1.88793 0
M  V30 5944 O 565.634 -0.958942 1.55276 0
M  V30 5945 C 565.685 2.30598 2.784 0
M  V30 5946 O 565.406 3.6524 2.41932 0
M  V30 5947 C 566.907 2.4062 3.72313 0
M  V30 5948 H 564.127 0.483565 0.465194 0
M  V30 5949 H 566.671 1.84316 0.885889 0
M  V30 5950 H 564.826 1.91401 3.36815 0
M  V30 5951 H 565.24 4.12402 3.24076 0
M  V30 5952 H 566.714 3.07001 4.58753 0
M  V30 5953 H 567.191 1.4305 4.15251 0
M  V30 5954 H 567.797 2.80359 3.19811 0
M  V30 5955 N 566.112 -0.949982 1.2575 0
M  V30 5956 C 567.062 -2.03297 1.03221 0
M  V30 5957 C 568.046 -1.60867 -0.0324751 0
M  V30 5958 O 569.238 -1.76047 0.183423 0
M  V30 5959 C 566.367 -3.36938 0.657841 0
M  V30 5960 C 565.453 -3.85878 1.75952 0
M  V30 5961 N 565.844 -4.0756 2.99547 0
M  V30 5962 C 564.142 -4.14709 1.64111 0
M  V30 5963 C 564.843 -4.47961 3.71087 0
M  V30 5964 N 563.819 -4.5416 2.98731 0
M  V30 5965 H 567.621 -2.1806 1.97045 0
M  V30 5966 H 565.135 -1.13516 1.16138 0
M  V30 5967 H 567.132 -4.14155 0.477614 0
M  V30 5968 H 565.792 -3.2355 -0.273025 0
M  V30 5969 H 566.803 -3.94501 3.35544 0
M  V30 5970 H 563.48 -4.10158 0.779527 0
M  V30 5971 H 564.87 -4.73002 4.77199 0
M  V30 5972 N 567.59 -1.07411 -1.15328 0
M  V30 5973 C 568.836 -0.798831 -1.86404 0
M  V30 5974 C 569.169 0.673433 -1.8215 0
M  V30 5975 O 568.444 1.49428 -1.24505 0
M  V30 5976 C 568.727 -1.30846 -3.35487 0
M  V30 5977 C 568.58 -2.84532 -3.4837 0
M  V30 5978 C 569.899 -0.925486 -4.30259 0
M  V30 5979 H 567.018 -0.291659 -0.676834 0
M  V30 5980 H 569.66 -1.332 -1.35491 0
M  V30 5981 H 567.81 -0.854916 -3.78977 0
M  V30 5982 H 569.482 -3.3818 -3.13739 0
M  V30 5983 H 567.725 -3.22699 -2.8991 0
M  V30 5984 H 568.396 -3.15259 -4.53118 0
M  V30 5985 H 570.872 -1.3163 -3.94731 0
M  V30 5986 H 569.748 -1.3094 -5.33053 0
M  V30 5987 H 570.009 0.168525 -4.41779 0
M  V30 5988 N 569.068 1.32177 -0.85831 0
M  V30 5989 C 570 2.27688 -0.262835 0
M  V30 5990 C 571.013 1.52588 0.567513 0
M  V30 5991 O 572.202 1.74156 0.391407 0
M  V30 5992 C 569.302 3.32668 0.646937 0
M  V30 5993 C 568.475 4.37148 -0.148372 0
M  V30 5994 C 567.534 5.21686 0.687728 0
M  V30 5995 O 566.56 5.69074 0.119934 0
M  V30 5996 N 567.762 5.44892 2.00182 0
M  V30 5997 H 570.527 2.79426 -1.08356 0
M  V30 5998 H 568.088 1.45076 -0.718647 0
M  V30 5999 H 570.08 3.86134 1.2117 0
M  V30 6000 H 568.65 2.81061 1.36834 0
M  V30 6001 H 567.87 3.83915 -0.894572 0
M  V30 6002 H 569.158 5.04038 -0.694514 0
M  V30 6003 H 568.556 5.08128 2.4864 0
M  V30 6004 H 567.113 6.0134 2.51463 0
M  V30 6005 N 570.547 0.616602 1.45037 0
M  V30 6006 C 571.793 0.115501 2.02471 0
M  V30 6007 C 572.126 -1.25406 1.4828 0
M  V30 6008 O 571.401 -1.82922 0.661051 0
M  V30 6009 C 571.684 0.0863588 3.59996 0
M  V30 6010 C 571.537 1.48723 4.24501 0
M  V30 6011 C 572.856 -0.596762 4.36035 0
M  V30 6012 H 569.975 0.0434461 0.735718 0
M  V30 6013 H 572.617 0.7903 1.72784 0
M  V30 6014 H 570.767 -0.488277 3.85419 0
M  V30 6015 H 572.439 2.10964 4.10234 0
M  V30 6016 H 570.682 2.04534 3.82555 0
M  V30 6017 H 571.353 1.419 5.3345 0
M  V30 6018 H 573.829 -0.10824 4.15959 0
M  V30 6019 H 572.705 -0.586289 5.4576 0
M  V30 6020 H 572.966 -1.66451 4.09569 0
M  V30 6021 N 572.025 -1.5352 0.356285 0
M  V30 6022 C 573.274 -2.00298 -0.237373 0
M  V30 6023 C 573.587 -1.24784 -1.50627 0
M  V30 6024 O 574.793 -1.62103 -2.17795 0
M  V30 6025 C 573.249 -3.56771 -0.473545 0
M  V30 6026 C 572.857 -4.41154 0.780183 0
M  V30 6027 C 574.601 -4.1193 -1.02537 0
M  V30 6028 C 572.508 -5.89161 0.514108 0
M  V30 6029 H 571.438 -0.748307 -0.092478 0
M  V30 6030 H 574.089 -1.77283 0.473588 0
M  V30 6031 H 572.471 -3.75902 -1.24553 0
M  V30 6032 H 573.645 -4.33797 1.55425 0
M  V30 6033 H 571.96 -3.97052 1.25455 0
M  V30 6034 H 574.557 -5.20133 -1.2396 0
M  V30 6035 H 574.9 -3.65943 -1.98473 0
M  V30 6036 H 575.433 -3.96561 -0.313775 0
M  V30 6037 H 572.172 -6.39408 1.44355 0
M  V30 6038 H 571.692 -5.9939 -0.221632 0
M  V30 6039 H 573.371 -6.46857 0.136122 0
M  V30 6040 N 573.503 -0.0852151 -1.57369 0
M  V30 6041 C 574.45 0.877268 -2.13478 0
M  V30 6042 C 575.42 1.28642 -1.05073 0
M  V30 6043 O 576.605 1.36992 -1.32808 0
M  V30 6044 C 573.745 2.13464 -2.71159 0
M  V30 6045 C 572.858 1.77691 -3.93764 0
M  V30 6046 C 571.993 2.98139 -4.39643 0
M  V30 6047 C 571.032 2.58447 -5.54862 0
M  V30 6048 N 570.169 3.71698 -5.95639 0
M  V30 6049 H 575.009 0.391933 -2.95411 0
M  V30 6050 H 572.546 0.181796 -1.45972 0
M  V30 6051 H 574.504 2.87086 -3.02717 0
M  V30 6052 H 573.134 2.59514 -1.91969 0
M  V30 6053 H 572.186 0.940768 -3.68583 0
M  V30 6054 H 573.498 1.44497 -4.77412 0
M  V30 6055 H 572.652 3.80026 -4.72933 0
M  V30 6056 H 571.391 3.34536 -3.54876 0
M  V30 6057 H 570.396 1.74984 -5.21211 0
M  V30 6058 H 571.621 2.23205 -6.41371 0
M  V30 6059 H 569.567 4.07831 -5.13819 0
M  V30 6060 H 569.484 3.42317 -6.74059 0
M  V30 6061 H 570.752 4.54123 -6.33555 0
M  V30 6062 N 574.981 1.5647 0.188427 0
M  V30 6063 C 576.397 1.50204 0.539532 0
M  V30 6064 C 576.597 0.78644 1.85519 0
M  V30 6065 O 575.653 0.339714 2.50204 0
M  V30 6066 C 576.966 2.94893 0.588103 0
M  V30 6067 C 578.514 3.05602 0.67648 0
M  V30 6068 C 578.989 4.51716 0.756101 0
M  V30 6069 N 580.48 4.55894 0.819451 0
M  V30 6070 C 581.215 5.66272 0.90134 0
M  V30 6071 N 580.711 6.86323 0.945118 0
M  V30 6072 N 582.504 5.54201 0.939043 0
M  V30 6073 H 574.655 2.01406 -0.674493 0
M  V30 6074 H 576.918 0.916828 -0.241103 0
M  V30 6075 H 576.624 3.50334 -0.309633 0
M  V30 6076 H 576.498 3.4861 1.44051 0
M  V30 6077 H 578.885 2.50206 1.56465 0
M  V30 6078 H 578.966 2.54999 -0.202262 0
M  V30 6079 H 578.61 5.07739 -0.12774 0
M  V30 6080 H 578.54 5.00058 1.65074 0
M  V30 6081 H 581.031 3.69452 0.794594 0
M  V30 6082 H 581.344 7.66194 1.0083 0
M  V30 6083 H 579.689 6.88968 0.913683 0
M  V30 6084 H 582.88 4.59333 0.901725 0
M  V30 6085 H 583.053 6.40247 0.999402 0
M  V30 6086 N 576.459 -0.456382 1.50847 0
M  V30 6087 C 577.684 -1.2349 1.66628 0
M  V30 6088 C 578.109 -1.84715 0.355254 0
M  V30 6089 O 577.467 -1.67961 -0.682559 0
M  V30 6090 C 577.515 -2.30865 2.77009 0
M  V30 6091 O 576.619 -3.35882 2.39285 0
M  V30 6092 H 575.96 -0.36266 0.556214 0
M  V30 6093 H 578.49 -0.541374 1.97308 0
M  V30 6094 H 578.5 -2.75949 3.00526 0
M  V30 6095 H 577.175 -1.85677 3.72152 0
M  V30 6096 H 575.752 -2.96406 2.26269 0
M  V30 6097 N 577.937 -1.40673 -0.710563 0
M  V30 6098 C 578.9 -1.4108 -1.80635 0
M  V30 6099 C 579.9 -0.303783 -1.57904 0
M  V30 6100 O 581.09 -0.562937 -1.64853 0
M  V30 6101 C 578.222 -1.20748 -3.18799 0
M  V30 6102 H 579.415 -2.38612 -1.81671 0
M  V30 6103 H 576.968 -1.26595 -0.916704 0
M  V30 6104 H 577.703 -0.239964 -3.23411 0
M  V30 6105 H 577.488 -2.00941 -3.36698 0
M  V30 6106 H 578.978 -1.23833 -3.98817 0
M  V30 6107 N 579.415 0.9433 -1.26252 0
M  V30 6108 C 580.362 2.0417 -1.07625 0
M  V30 6109 C 581.332 1.6609 0.0180738 0
M  V30 6110 O 582.517 1.90276 -0.141289 0
M  V30 6111 C 579.657 3.37653 -0.713043 0
M  V30 6112 C 578.77 3.88783 -1.8834 0
M  V30 6113 C 577.905 5.10642 -1.4635 0
M  V30 6114 C 576.944 5.54028 -2.60229 0
M  V30 6115 N 576.081 6.67092 -2.18936 0
M  V30 6116 H 580.921 2.19436 -2.01623 0
M  V30 6117 H 578.458 1.07519 -1.00389 0
M  V30 6118 H 580.416 4.14391 -0.483358 0
M  V30 6119 H 579.046 3.22241 0.18996 0
M  V30 6120 H 578.098 3.08464 -2.22608 0
M  V30 6121 H 579.41 4.16922 -2.73821 0
M  V30 6122 H 578.564 5.94832 -1.19414 0
M  V30 6123 H 577.303 4.84244 -0.579568 0
M  V30 6124 H 576.308 4.68396 -2.87898 0
M  V30 6125 H 577.533 5.82429 -3.49219 0
M  V30 6126 H 575.479 6.42381 -1.32974 0
M  V30 6127 H 575.396 6.94806 -2.97961 0
M  V30 6128 H 576.664 7.54662 -1.95206 0
M  V30 6129 N 580.893 1.08022 1.14757 0
M  V30 6130 C 582.304 0.829144 1.67279 0
M  V30 6131 C 582.655 -0.644721 1.85305 0
M  V30 6132 O 581.78 -1.49838 1.56133 0
M  V30 6133 C 582.375 1.49855 3.03857 0
M  V30 6134 C 580.934 1.29482 3.53428 0
M  V30 6135 C 580.081 1.56386 2.28995 0
M  V30 6136 H 583.032 1.24134 0.988762 0
M  V30 6137 H 583.053 0.923572 3.69121 0
M  V30 6138 H 582.565 2.57123 2.90705 0
M  V30 6139 H 580.666 0.242669 3.71809 0
M  V30 6140 H 580.779 2.01974 4.34446 0
M  V30 6141 H 579.143 0.985217 2.34874 0
M  V30 6142 H 579.926 2.64851 2.18423 0
M  V30 6143 N 582.371 -1.3172 0.865308 0
M  V30 6144 C 583.596 -2.01591 0.487415 0
M  V30 6145 C 584.021 -1.6455 -0.911307 0
M  V30 6146 O 583.379 -0.851689 -1.6005 0
M  V30 6147 C 583.427 -3.54759 0.646401 0
M  V30 6148 O 582.531 -4.11185 -0.316284 0
M  V30 6149 H 581.872 -0.634884 0.194468 0
M  V30 6150 H 584.402 -1.68024 1.16744 0
M  V30 6151 H 584.412 -4.04438 0.537932 0
M  V30 6152 H 583.087 -3.8106 1.66632 0
M  V30 6153 H 581.664 -3.72543 -0.163162 0
M  V30 6154 N 583.85 -0.624285 -1.44708 0
M  V30 6155 C 584.76 0.0861083 -2.34442 0
M  V30 6156 C 585.776 0.84291 -1.5222 0
M  V30 6157 O 586.952 0.796723 -1.84971 0
M  V30 6158 C 584.017 1.05999 -3.30099 0
M  V30 6159 C 583.077 0.303316 -4.28227 0
M  V30 6160 C 582.311 1.23081 -5.19314 0
M  V30 6161 O 582.534 2.46929 -5.14181 0
M  V30 6162 O 581.468 0.71883 -5.97592 0
M  V30 6163 H 585.293 -0.651756 -2.96624 0
M  V30 6164 H 582.879 -0.384493 -1.44368 0
M  V30 6165 H 584.76 1.62046 -3.88997 0
M  V30 6166 H 583.436 1.77859 -2.70459 0
M  V30 6167 H 582.343 -0.300033 -3.72895 0
M  V30 6168 H 583.676 -0.375123 -4.90768 0
M  V30 6169 N 585.328 1.53329 -0.364422 0
M  V30 6170 C 586.275 2.25698 0.482607 0
M  V30 6171 C 587.245 1.26325 1.07848 0
M  V30 6172 O 588.43 1.55104 1.11119 0
M  V30 6173 C 585.57 3.04873 1.61699 0
M  V30 6174 C 584.683 4.19135 1.0464 0
M  V30 6175 C 583.818 4.85754 2.14979 0
M  V30 6176 C 582.857 5.9205 1.5538 0
M  V30 6177 N 581.994 6.52365 2.59547 0
M  V30 6178 H 586.834 2.97666 -0.141032 0
M  V30 6179 H 584.371 1.46875 -0.0813692 0
M  V30 6180 H 586.329 3.49051 2.28516 0
M  V30 6181 H 584.959 2.35162 2.2113 0
M  V30 6182 H 584.011 3.79451 0.268553 0
M  V30 6183 H 585.323 4.95525 0.570653 0
M  V30 6184 H 584.477 5.3311 2.89619 0
M  V30 6185 H 583.216 4.08834 2.65906 0
M  V30 6186 H 582.221 5.44058 0.792549 0
M  V30 6187 H 583.446 6.7089 1.0528 0
M  V30 6188 H 581.392 5.78298 3.09689 0
M  V30 6189 H 581.309 7.2429 2.16655 0
M  V30 6190 H 582.577 7.0437 3.33892 0
M  V30 6191 N 586.806 0.0935595 1.57322 0
M  V30 6192 C 588.217 -0.435807 1.81542 0
M  V30 6193 C 588.568 -1.68263 1.00907 0
M  V30 6194 O 587.693 -2.15087 0.237983 0
M  V30 6195 C 588.288 -0.797436 3.29282 0
M  V30 6196 C 586.847 -1.27155 3.54272 0
M  V30 6197 C 585.994 -0.267455 2.76007 0
M  V30 6198 H 588.945 0.31902 1.5546 0
M  V30 6199 H 588.966 -1.6571 3.42521 0
M  V30 6200 H 588.478 0.110206 3.87943 0
M  V30 6201 H 586.579 -2.19696 3.00939 0
M  V30 6202 H 586.692 -1.23445 4.62923 0
M  V30 6203 H 585.056 -0.749282 2.43429 0
M  V30 6204 H 585.839 0.632839 3.37417 0
M  V30 6205 N 588.284 -1.56567 -0.180126 0
M  V30 6206 C 589.7 -1.50488 -0.531559 0
M  V30 6207 C 589.9 -0.796267 -1.851 0
M  V30 6208 O 588.956 -0.352978 -2.50021 0
M  V30 6209 C 590.269 -2.95201 -0.572456 0
M  V30 6210 C 591.817 -3.05957 -0.660264 0
M  V30 6211 C 592.292 -4.5211 -0.732135 0
M  V30 6212 N 593.783 -4.56322 -0.795262 0
M  V30 6213 C 594.518 -5.66742 -0.871296 0
M  V30 6214 N 594.014 -6.86815 -0.908708 0
M  V30 6215 N 595.807 -5.54691 -0.909639 0
M  V30 6216 H 587.958 -2.01045 0.685165 0
M  V30 6217 H 590.221 -0.915536 0.245962 0
M  V30 6218 H 589.927 -3.50165 0.328208 0
M  V30 6219 H 589.801 -3.49369 -1.422 0
M  V30 6220 H 592.188 -2.51032 -1.55136 0
M  V30 6221 H 592.269 -2.54888 0.215783 0
M  V30 6222 H 591.913 -5.07664 0.154664 0
M  V30 6223 H 591.843 -5.00926 -1.6242 0
M  V30 6224 H 594.334 -3.69868 -0.77499 0
M  V30 6225 H 594.647 -7.66718 -0.967654 0
M  V30 6226 H 592.992 -6.89443 -0.877132 0
M  V30 6227 H 596.183 -4.59804 -0.877353 0
M  V30 6228 H 596.356 -6.40768 -0.965434 0
M  V30 6229 N 589.762 0.448376 -1.51087 0
M  V30 6230 C 590.692 1.55102 -1.74544 0
M  V30 6231 C 591.673 1.59357 -0.594932 0
M  V30 6232 O 592.858 1.75261 -0.836491 0
M  V30 6233 C 589.988 2.93268 -1.86041 0
M  V30 6234 C 588.942 3.03877 -3.01402 0
M  V30 6235 C 588.268 4.43914 -2.98068 0
M  V30 6236 C 589.568 2.7898 -4.41551 0
M  V30 6237 H 591.262 1.35724 -2.66869 0
M  V30 6238 H 588.808 0.651498 -1.28419 0
M  V30 6239 H 590.761 3.70356 -2.01034 0
M  V30 6240 H 589.485 3.13853 -0.903548 0
M  V30 6241 H 588.144 2.29227 -2.86096 0
M  V30 6242 H 587.792 4.6145 -2.00182 0
M  V30 6243 H 587.492 4.51944 -3.75527 0
M  V30 6244 H 589.016 5.22991 -3.1514 0
M  V30 6245 H 590.43 3.45805 -4.57265 0
M  V30 6246 H 588.827 2.98431 -5.20633 0
M  V30 6247 H 589.897 1.74663 -4.5235 0
M  V30 6248 N 591.24 1.41047 0.703093 0
M  V30 6249 C 592.656 1.23351 1.01275 0
M  V30 6250 C 592.856 0.11754 2.01157 0
M  V30 6251 O 591.912 -0.520518 2.47077 0
M  V30 6252 C 593.225 2.58001 1.54454 0
M  V30 6253 C 594.773 2.65119 1.66376 0
M  V30 6254 C 595.248 4.00067 2.22958 0
M  V30 6255 N 596.739 4.01875 2.30328 0
M  V30 6256 C 597.474 5.03087 2.75119 0
M  V30 6257 N 596.97 6.14692 3.19571 0
M  V30 6258 N 598.763 4.90451 2.74616 0
M  V30 6259 H 590.914 2.1236 0.0412686 0
M  V30 6260 H 593.177 0.944543 0.08089 0
M  V30 6261 H 592.883 3.40378 0.88521 0
M  V30 6262 H 592.757 2.79962 2.52786 0
M  V30 6263 H 595.144 1.83106 2.31422 0
M  V30 6264 H 595.225 2.46975 0.666089 0
M  V30 6265 H 594.869 4.82526 1.58529 0
M  V30 6266 H 594.799 4.15547 3.23462 0
M  V30 6267 H 597.29 3.21291 1.98949 0
M  V30 6268 H 597.603 6.87799 3.52352 0
M  V30 6269 H 595.948 6.18239 3.17498 0
M  V30 6270 H 599.139 4.0235 2.39233 0
M  V30 6271 H 599.312 5.6947 3.09206 0
M  V30 6272 N 592.718 -0.936591 1.26751 0
M  V30 6273 C 593.65 -2.03991 1.045 0
M  V30 6274 C 594.663 -1.628 0.00394261 0
M  V30 6275 O 595.852 -1.76817 0.244526 0
M  V30 6276 C 592.952 -3.34218 0.561403 0
M  V30 6277 C 592.125 -4.04151 1.67274 0
M  V30 6278 C 591.184 -5.12651 1.1864 0
M  V30 6279 O 590.21 -5.37104 1.88437 0
M  V30 6280 N 591.412 -5.80488 0.037278 0
M  V30 6281 H 594.177 -2.23644 1.99508 0
M  V30 6282 H 591.738 -1.10638 1.18198 0
M  V30 6283 H 593.73 -4.04101 0.220136 0
M  V30 6284 H 592.3 -3.11203 -0.295211 0
M  V30 6285 H 591.52 -3.28121 2.18472 0
M  V30 6286 H 592.808 -4.47626 2.41885 0
M  V30 6287 H 592.206 -5.63064 -0.545494 0
M  V30 6288 H 590.763 -6.5134 -0.244877 0
M  V30 6289 N 594.196 -1.08629 -1.14182 0
M  V30 6290 C 595.445 -0.812271 -1.84621 0
M  V30 6291 C 595.758 0.664313 -1.83973 0
M  V30 6292 O 596.964 1.05357 -2.50224 0
M  V30 6293 C 595.42 -1.4031 -3.31423 0
M  V30 6294 C 595.028 -2.91164 -3.40481 0
M  V30 6295 C 596.772 -1.20767 -4.06959 0
M  V30 6296 C 594.679 -3.43373 -4.81507 0
M  V30 6297 H 593.609 -0.30019 -0.691666 0
M  V30 6298 H 596.26 -1.30798 -1.28701 0
M  V30 6299 H 594.642 -0.835096 -3.87094 0
M  V30 6300 H 595.816 -3.5412 -2.94848 0
M  V30 6301 H 594.131 -3.09646 -2.78403 0
M  V30 6302 H 596.728 -1.57237 -5.11058 0
M  V30 6303 H 597.071 -0.147664 -4.16038 0
M  V30 6304 H 597.604 -1.74274 -3.57594 0
M  V30 6305 H 594.343 -4.48958 -4.77616 0
M  V30 6306 H 593.863 -2.85176 -5.27669 0
M  V30 6307 H 595.542 -3.40095 -5.50404 0
M  V30 6308 N 595.674 1.31259 -0.872281 0
M  V30 6309 C 597.085 1.78822 -0.536617 0
M  V30 6310 C 597.436 1.71855 0.946594 0
M  V30 6311 O 596.561 1.28769 1.73918 0
M  V30 6312 C 597.156 3.24698 -0.967294 0
M  V30 6313 C 595.715 3.70147 -0.683251 0
M  V30 6314 C 594.862 2.51994 -1.15733 0
M  V30 6315 H 597.813 1.18308 -1.05777 0
M  V30 6316 H 597.834 3.79386 -0.290929 0
M  V30 6317 H 597.346 3.29737 -2.04683 0
M  V30 6318 H 595.447 3.70607 0.384825 0
M  V30 6319 H 595.56 4.62183 -1.2619 0
M  V30 6320 H 593.924 2.48078 -0.577024 0
M  V30 6321 H 594.707 2.59778 -2.24434 0
M  V30 6322 N 597.152 0.631951 1.44375 0
M  V30 6323 C 598.377 0.142146 2.06912 0
M  V30 6324 C 598.802 -1.17456 1.4692 0
M  V30 6325 O 598.16 -1.72074 0.570975 0
M  V30 6326 C 598.208 0.0417952 3.60576 0
M  V30 6327 O 597.312 -1.00194 4.00044 0
M  V30 6328 H 596.653 0.0851491 0.658518 0
M  V30 6329 H 599.183 0.868863 1.85235 0
M  V30 6330 H 599.193 -0.148517 4.0773 0
M  V30 6331 H 597.868 1.0031 4.03622 0
M  V30 6332 H 596.445 -0.786131 3.64519 0
M  V30 6333 N 598.631 -1.53133 0.372548 0
M  V30 6334 C 599.594 -2.24569 -0.458389 0
M  V30 6335 C 600.594 -1.25603 -1.00402 0
M  V30 6336 O 601.784 -1.49827 -0.888672 0
M  V30 6337 C 598.916 -2.98783 -1.6414 0
M  V30 6338 H 600.109 -2.99436 0.166799 0
M  V30 6339 H 597.662 -1.55805 0.124357 0
M  V30 6340 H 598.397 -2.28176 -2.30448 0
M  V30 6341 H 598.182 -3.71404 -1.25704 0
M  V30 6342 H 599.672 -3.53068 -2.23008 0
M  V30 6343 N 600.109 -0.101901 -1.5727 0
M  V30 6344 C 601.019 0.868647 -2.17926 0
M  V30 6345 C 602.035 1.30527 -1.1506 0
M  V30 6346 O 603.211 1.37178 -1.47459 0
M  V30 6347 C 600.276 2.10727 -2.75309 0
M  V30 6348 C 599.337 1.7242 -3.93154 0
M  V30 6349 C 598.57 2.90377 -4.47791 0
M  V30 6350 O 598.793 4.05305 -4.01353 0
M  V30 6351 O 597.727 2.6845 -5.38719 0
M  V30 6352 H 601.553 0.382544 -3.01281 0
M  V30 6353 H 599.138 0.122812 -1.48894 0
M  V30 6354 H 601.02 2.83303 -3.11958 0
M  V30 6355 H 599.695 2.58376 -1.94996 0
M  V30 6356 H 598.602 0.970039 -3.61305 0
M  V30 6357 H 599.935 1.29528 -4.74851 0
M  V30 6358 N 601.587 1.56661 0.17182 0
M  V30 6359 C 602.864 1.72838 0.915778 0
M  V30 6360 C 603.244 0.66316 2.00413 0
M  V30 6361 O 602.592 -0.322123 2.26218 0
M  V30 6362 C 602.802 3.16019 1.48097 0
M  V30 6363 C 604.15 3.76962 1.95408 0
M  V30 6364 O 605.174 3.19294 1.57892 0
M  V30 6365 O 604.033 4.78219 2.64516 0
M  V30 6366 H 601.127 0.705797 0.431021 0
M  V30 6367 H 603.673 1.68947 0.159689 0
M  V30 6368 H 602.445 3.85031 0.697618 0
M  V30 6369 H 602.068 3.24234 2.30126 0
M  V30 6370 N 603.065 -0.440357 1.51323 0
M  V30 6371 C 603.995 -1.54174 1.75364 0
M  V30 6372 C 604.976 -1.59039 0.603375 0
M  V30 6373 O 606.161 -1.74815 0.845774 0
M  V30 6374 C 603.291 -2.92277 1.87593 0
M  V30 6375 C 602.245 -3.02274 3.03009 0
M  V30 6376 C 601.571 -4.42327 3.00418 0
M  V30 6377 C 602.871 -2.76634 4.43024 0
M  V30 6378 H 604.565 -1.34307 2.67585 0
M  V30 6379 H 602.111 -0.644678 1.28763 0
M  V30 6380 H 604.064 -3.69284 2.02995 0
M  V30 6381 H 602.788 -3.13369 0.920179 0
M  V30 6382 H 601.447 -2.27706 2.87307 0
M  V30 6383 H 601.095 -4.60382 2.02626 0
M  V30 6384 H 600.795 -4.49946 3.77918 0
M  V30 6385 H 602.319 -5.21312 3.17909 0
M  V30 6386 H 603.733 -3.43376 4.59093 0
M  V30 6387 H 602.13 -2.95666 5.22208 0
M  V30 6388 H 603.2 -1.72262 4.5327 0
M  V30 6389 N 604.543 -1.41418 -0.695603 0
M  V30 6390 C 605.453 -1.45622 -1.83933 0
M  V30 6391 C 606.469 -0.346825 -1.70508 0
M  V30 6392 O 607.645 -0.59454 -1.92424 0
M  V30 6393 C 604.71 -1.33627 -3.19914 0
M  V30 6394 C 603.771 -2.54882 -3.45447 0
M  V30 6395 C 603.004 -2.43449 -4.7494 0
M  V30 6396 O 603.227 -1.45905 -5.51424 0
M  V30 6397 O 602.161 -3.33206 -5.01256 0
M  V30 6398 H 605.987 -2.42114 -1.83342 0
M  V30 6399 H 603.572 -1.22956 -0.848658 0
M  V30 6400 H 605.454 -1.29221 -4.01098 0
M  V30 6401 H 604.129 -0.402508 -3.21188 0
M  V30 6402 H 603.036 -2.64865 -2.64192 0
M  V30 6403 H 604.369 -3.47087 -3.48987 0
M  V30 6404 N 606.021 0.929856 -1.27246 0
M  V30 6405 C 607.249 1.71144 -1.16265 0
M  V30 6406 C 607.664 1.867 0.280786 0
M  V30 6407 O 607.021 1.38249 1.19136 0
M  V30 6408 C 607.072 3.11222 -1.83911 0
M  V30 6409 O 606.793 2.96398 -3.22614 0
M  V30 6410 C 608.294 4.05541 -1.79028 0
M  V30 6411 H 605.514 0.535499 -0.404328 0
M  V30 6412 H 608.058 1.16492 -1.68077 0
M  V30 6413 H 606.213 3.6274 -1.36009 0
M  V30 6414 H 606.627 3.8494 -3.56261 0
M  V30 6415 H 608.101 5.01351 -2.30978 0
M  V30 6416 H 608.578 4.32589 -0.759168 0
M  V30 6417 H 609.184 3.59947 -2.26535 0
M  V30 6418 N 607.499 1.09233 1.13605 0
M  V30 6419 C 608.776 0.739633 1.81077 0
M  V30 6420 C 609.156 -0.775595 1.96336 0
M  V30 6421 O 608.504 -1.69726 1.52988 0
M  V30 6422 C 608.714 1.47636 3.16235 0
M  V30 6423 C 610.062 1.64087 3.91613 0
M  V30 6424 O 611.086 1.43871 3.25852 0
M  V30 6425 O 609.945 1.97511 5.0956 0
M  V30 6426 H 607.039 0.265464 0.783236 0
M  V30 6427 H 609.585 1.19441 1.20549 0
M  V30 6428 H 608.357 2.50818 3.00344 0
M  V30 6429 H 607.98 1.01362 3.84462 0
M  V30 6430 N 608.977 -1.30795 0.87923 0
M  V30 6431 C 610.225 -1.95974 0.493809 0
M  V30 6432 C 610.546 -1.69787 -0.959021 0
M  V30 6433 O 609.816 -1.01832 -1.67353 0
M  V30 6434 H 608.396 -0.725083 0.179622 0
M  V30 6435 H 611.058 -1.59432 1.12105 0
M  V30 6436 H 610.154 -3.05058 0.659263 0
M  V30 6437 N 610.455 -0.639598 -1.44038 0
M  V30 6438 C 611.703 -0.147188 -2.01563 0
M  V30 6439 C 612.024 1.2384 -1.50628 0
M  V30 6440 O 611.294 1.82452 -0.713316 0
M  V30 6441 H 609.874 -0.0514231 -0.745228 0
M  V30 6442 H 612.536 -0.828205 -1.76428 0
M  V30 6443 H 611.632 -0.121358 -3.11864 0
M  V30 6444 N 611.933 1.52934 -0.380664 0
M  V30 6445 C 613.181 2.01069 0.203874 0
M  V30 6446 C 613.502 1.26922 1.4804 0
M  V30 6447 O 612.772 0.386787 1.92044 0
M  V30 6448 H 611.352 0.742882 0.0783279 0
M  V30 6449 H 614.014 1.88099 -0.510368 0
M  V30 6450 H 613.11 3.09258 0.42021 0
M  V30 6451 N 613.412 0.11024 1.57214 0
M  V30 6452 C 614.823 -0.416527 1.81994 0
M  V30 6453 C 615.174 -1.67183 1.02686 0
M  V30 6454 O 614.299 -2.14823 0.260782 0
M  V30 6455 C 614.894 -0.762466 3.30109 0
M  V30 6456 C 613.453 -1.23391 3.556 0
M  V30 6457 C 612.6 -0.238166 2.76275 0
M  V30 6458 H 615.551 0.335491 1.55113 0
M  V30 6459 H 615.572 -1.62068 3.44259 0
M  V30 6460 H 615.084 0.151346 3.87805 0
M  V30 6461 H 613.185 -2.16492 3.03253 0
M  V30 6462 H 613.298 -1.18528 4.64207 0
M  V30 6463 H 611.662 -0.723421 2.4421 0
M  V30 6464 H 612.445 0.668591 3.36727 0
M  V30 6465 N 614.89 -1.56749 -0.16351 0
M  V30 6466 C 616.138 -1.82074 -0.87713 0
M  V30 6467 C 616.459 -0.688503 -1.82441 0
M  V30 6468 O 615.729 0.291085 -1.93725 0
M  V30 6469 H 614.309 -0.671677 -0.326893 0
M  V30 6470 H 616.971 -1.9423 -0.161459 0
M  V30 6471 H 616.067 -2.76407 -1.44934 0
M  V30 6472 N 616.368 0.432326 -1.51554 0
M  V30 6473 C 617.3 1.54357 -1.6943 0
M  V30 6474 C 618.313 1.52311 -0.574897 0
M  V30 6475 O 619.502 1.56997 -0.849369 0
M  V30 6476 C 616.602 2.93273 -1.69836 0
M  V30 6477 C 615.775 3.19768 -2.98442 0
M  V30 6478 C 614.834 4.38433 -2.90969 0
M  V30 6479 O 613.86 4.36842 -3.64908 0
M  V30 6480 N 615.062 5.42276 -2.07163 0
M  V30 6481 H 617.827 1.39426 -2.65293 0
M  V30 6482 H 615.388 0.621331 -1.49503 0
M  V30 6483 H 617.38 3.70687 -1.62399 0
M  V30 6484 H 615.95 3.01777 -0.815456 0
M  V30 6485 H 615.17 2.30607 -3.19709 0
M  V30 6486 H 616.458 3.343 -3.83563 0
M  V30 6487 H 615.856 5.46407 -1.46477 0
M  V30 6488 H 614.413 6.18524 -2.05601 0
M  V30 6489 N 617.846 1.41785 0.688094 0
M  V30 6490 C 619.092 1.41753 1.4503 0
M  V30 6491 C 619.425 0.0290745 1.94178 0
M  V30 6492 O 618.7 -0.944456 1.7003 0
M  V30 6493 C 618.983 2.43069 2.65686 0
M  V30 6494 C 618.836 3.91053 2.22256 0
M  V30 6495 C 620.155 2.41543 3.67893 0
M  V30 6496 H 617.274 0.516202 0.526027 0
M  V30 6497 H 619.916 1.73111 0.783105 0
M  V30 6498 H 618.066 2.1646 3.2261 0
M  V30 6499 H 619.738 4.28594 1.70602 0
M  V30 6500 H 617.981 4.05559 1.53963 0
M  V30 6501 H 618.652 4.57501 3.08863 0
M  V30 6502 H 621.128 2.65175 3.20658 0
M  V30 6503 H 620.004 3.14434 4.49914 0
M  V30 6504 H 620.265 1.43666 4.18106 0
M  V30 6505 N 619.324 -0.923095 1.27737 0
M  V30 6506 C 620.57 -1.67375 1.14514 0
M  V30 6507 C 620.903 -1.91751 -0.307424 0
M  V30 6508 O 620.178 -1.51119 -1.22447 0
M  V30 6509 C 620.461 -3.03745 1.9342 0
M  V30 6510 C 620.314 -2.86581 3.46686 0
M  V30 6511 C 621.633 -4.04144 1.74228 0
M  V30 6512 H 618.752 -0.607427 0.417374 0
M  V30 6513 H 621.394 -1.07089 1.56946 0
M  V30 6514 H 619.544 -3.55204 1.5736 0
M  V30 6515 H 621.216 -2.42203 3.92601 0
M  V30 6516 H 619.459 -2.21829 3.72793 0
M  V30 6517 H 620.13 -3.83381 3.97143 0
M  V30 6518 H 622.606 -3.61712 2.05678 0
M  V30 6519 H 621.482 -4.97543 2.31824 0
M  V30 6520 H 621.743 -4.36661 0.691373 0
M  V30 6521 N 620.802 -1.09834 -1.13024 0
M  V30 6522 C 622.079 -0.749225 -1.80682 0
M  V30 6523 C 622.459 0.765171 -1.96744 0
M  V30 6524 O 621.807 1.68912 -1.53886 0
M  V30 6525 C 622.017 -1.49311 -3.15448 0
M  V30 6526 C 623.365 -1.66162 -3.90737 0
M  V30 6527 O 624.389 -1.45597 -3.25085 0
M  V30 6528 O 623.248 -2.00211 -5.08505 0
M  V30 6529 H 620.342 -0.269614 -0.781817 0
M  V30 6530 H 622.888 -1.20078 -1.19914 0
M  V30 6531 H 621.66 -2.52407 -2.99009 0
M  V30 6532 H 621.283 -1.034 -3.8392 0
M  V30 6533 N 622.28 1.30327 -0.886154 0
M  V30 6534 C 623.557 1.90922 -0.425217 0
M  V30 6535 C 623.937 1.80533 1.09413 0
M  V30 6536 O 623.285 1.2233 1.92996 0
M  V30 6537 C 623.495 3.36529 -0.924638 0
M  V30 6538 C 624.843 4.13598 -0.960305 0
M  V30 6539 O 625.867 3.45377 -0.871382 0
M  V30 6540 O 624.726 5.35482 -1.09184 0
M  V30 6541 H 621.82 0.81668 -0.130238 0
M  V30 6542 H 624.366 1.38886 -0.975132 0
M  V30 6543 H 623.138 3.38181 -1.96849 0
M  V30 6544 H 622.761 3.96021 -0.353955 0
M  V30 6545 N 623.758 0.647228 1.43697 0
M  V30 6546 C 625.006 0.157876 2.01482 0
M  V30 6547 C 625.327 -1.23039 1.51282 0
M  V30 6548 O 624.597 -1.82071 0.722982 0
M  V30 6549 H 623.177 0.0553745 0.744945 0
M  V30 6550 H 625.839 0.83755 1.75986 0
M  V30 6551 H 624.935 0.137895 3.11795 0
M  V30 6552 N 625.236 -1.5273 0.388769 0
M  V30 6553 C 626.166 -2.29353 -0.438111 0
M  V30 6554 C 627.147 -1.32719 -1.06394 0
M  V30 6555 O 628.332 -1.61612 -1.07681 0
M  V30 6556 C 625.462 -3.09995 -1.56589 0
M  V30 6557 C 624.416 -4.14509 -1.06613 0
M  V30 6558 C 623.742 -4.83372 -2.28594 0
M  V30 6559 C 625.042 -5.22127 -0.134459 0
M  V30 6560 H 626.736 -2.98723 0.201206 0
M  V30 6561 H 624.282 -1.43665 0.0982089 0
M  V30 6562 H 626.235 -3.62357 -2.15118 0
M  V30 6563 H 624.959 -2.38357 -2.23279 0
M  V30 6564 H 623.618 -3.63128 -0.503383 0
M  V30 6565 H 623.266 -4.08283 -2.93792 0
M  V30 6566 H 622.966 -5.54012 -1.95817 0
M  V30 6567 H 624.49 -5.38538 -2.87766 0
M  V30 6568 H 625.904 -5.69851 -0.627914 0
M  V30 6569 H 624.301 -6.00011 0.103534 0
M  V30 6570 H 625.371 -4.77971 0.816798 0
M  V30 6571 N 626.714 -0.118576 -1.57153 0
M  V30 6572 C 627.624 0.845484 -2.18835 0
M  V30 6573 C 628.64 1.29299 -1.16438 0
M  V30 6574 O 629.816 1.35607 -1.48905 0
M  V30 6575 C 626.881 2.07795 -2.77529 0
M  V30 6576 C 625.942 1.6824 -3.9496 0
M  V30 6577 C 625.175 2.85612 -4.50845 0
M  V30 6578 O 625.398 4.01025 -4.05629 0
M  V30 6579 O 624.332 2.62721 -5.41536 0
M  V30 6580 H 628.158 0.350568 -3.0167 0
M  V30 6581 H 625.743 0.107013 -1.49016 0
M  V30 6582 H 627.625 2.79978 -3.14945 0
M  V30 6583 H 626.3 2.56294 -1.97725 0
M  V30 6584 H 625.207 0.931663 -3.62313 0
M  V30 6585 H 626.54 1.24484 -4.76198 0
M  V30 6586 N 628.193 1.56834 0.155195 0
M  V30 6587 C 629.143 1.94061 1.19684 0
M  V30 6588 C 630.127 0.810851 1.38975 0
M  V30 6589 O 631.319 1.07422 1.40675 0
M  V30 6590 C 628.448 2.31778 2.53247 0
M  V30 6591 C 627.534 3.51305 2.37583 0
M  V30 6592 N 627.925 4.68081 1.9166 0
M  V30 6593 C 626.223 3.56228 2.6836 0
M  V30 6594 C 626.924 5.50193 1.88845 0
M  V30 6595 N 625.9 4.91676 2.31852 0
M  V30 6596 H 629.702 2.81826 0.833747 0
M  V30 6597 H 627.216 1.58284 0.363328 0
M  V30 6598 H 629.213 2.56649 3.28538 0
M  V30 6599 H 627.873 1.4536 2.90346 0
M  V30 6600 H 628.884 4.91993 1.6175 0
M  V30 6601 H 625.561 2.8033 3.09389 0
M  V30 6602 H 626.951 6.53801 1.54901 0
M  V30 6603 N 629.671 -0.424282 1.51781 0
M  V30 6604 C 631.087 -0.761768 1.40247 0
M  V30 6605 C 631.287 -1.95324 0.495041 0
M  V30 6606 O 630.343 -2.5246 -0.0448949 0
M  V30 6607 C 631.656 -1.0299 2.82513 0
M  V30 6608 C 633.204 -1.13354 2.91753 0
M  V30 6609 C 633.679 -1.43453 4.34954 0
M  V30 6610 N 635.17 -1.5035 4.3812 0
M  V30 6611 C 635.905 -1.75236 5.45967 0
M  V30 6612 N 635.401 -1.97827 6.63955 0
M  V30 6613 N 637.194 -1.77126 5.33463 0
M  V30 6614 H 629.345 0.360228 2.09323 0
M  V30 6615 H 631.608 0.0988128 0.942836 0
M  V30 6616 H 631.314 -0.226961 3.50967 0
M  V30 6617 H 631.188 -1.95411 3.22637 0
M  V30 6618 H 633.575 -1.92709 2.23489 0
M  V30 6619 H 633.656 -0.188041 2.55108 0
M  V30 6620 H 633.3 -0.646209 5.03772 0
M  V30 6621 H 633.23 -2.3923 4.69123 0
M  V30 6622 H 635.721 -1.34742 3.53062 0
M  V30 6623 H 636.034 -2.16223 7.41935 0
M  V30 6624 H 634.379 -1.95123 6.67047 0
M  V30 6625 H 637.57 -1.59005 4.40267 0
M  V30 6626 H 637.743 -1.96182 6.17589 0
M  V30 6627 N 631.149 -1.42148 -0.680565 0
M  V30 6628 C 632.059 -1.47565 -1.82378 0
M  V30 6629 C 633.075 -0.36489 -1.70131 0
M  V30 6630 O 634.251 -0.614916 -1.91783 0
M  V30 6631 C 631.316 -1.37013 -3.18478 0
M  V30 6632 C 630.377 -2.58532 -3.42724 0
M  V30 6633 C 629.61 -2.48473 -4.72331 0
M  V30 6634 O 629.833 -1.51745 -5.49845 0
M  V30 6635 O 628.767 -3.38503 -4.97694 0
M  V30 6636 H 632.593 -2.44045 -1.80764 0
M  V30 6637 H 630.178 -1.23849 -0.835569 0
M  V30 6638 H 632.06 -1.33468 -3.99705 0
M  V30 6639 H 630.735 -0.436552 -3.20743 0
M  V30 6640 H 629.642 -2.67652 -2.61368 0
M  V30 6641 H 630.975 -3.50769 -3.45286 0
M  V30 6642 N 632.627 0.916307 -1.28225 0
M  V30 6643 C 633.557 2.0352 -1.14464 0
M  V30 6644 C 634.538 1.70045 -0.0430844 0
M  V30 6645 O 635.723 1.92954 -0.219619 0
M  V30 6646 C 632.853 3.37889 -0.803027 0
M  V30 6647 C 631.807 3.85516 -1.85908 0
M  V30 6648 C 631.133 5.1682 -1.37116 0
M  V30 6649 C 632.433 4.07655 -3.26519 0
M  V30 6650 H 634.127 2.1529 -2.08064 0
M  V30 6651 H 631.673 1.03446 -1.00174 0
M  V30 6652 H 633.626 4.15654 -0.693537 0
M  V30 6653 H 632.35 3.26164 0.168674 0
M  V30 6654 H 631.009 3.09953 -1.95767 0
M  V30 6655 H 630.657 5.01497 -0.38859 0
M  V30 6656 H 630.357 5.49657 -2.07728 0
M  V30 6657 H 631.881 5.97143 -1.27484 0
M  V30 6658 H 633.295 4.75953 -3.19596 0
M  V30 6659 H 631.692 4.51818 -3.94943 0
M  V30 6660 H 632.762 3.12553 -3.70727 0
M  V30 6661 N 634.105 1.10431 1.1244 0
M  V30 6662 C 635.353 0.845045 1.83585 0
M  V30 6663 C 635.674 -0.631168 1.84503 0
M  V30 6664 O 634.944 -1.45825 1.30813 0
M  V30 6665 H 633.524 0.309628 0.679809 0
M  V30 6666 H 636.186 1.39458 1.36153 0
M  V30 6667 H 635.282 1.20786 2.8778 0
M  V30 6668 N 635.583 -1.29855 0.893053 0
M  V30 6669 C 636.533 -2.25493 0.337211 0
M  V30 6670 C 637.517 -1.51606 -0.53894 0
M  V30 6671 O 638.709 -1.72828 -0.382043 0
M  V30 6672 C 635.838 -3.40467 -0.440117 0
M  V30 6673 C 634.924 -4.217 0.450578 0
M  V30 6674 N 635.315 -4.81312 1.55476 0
M  V30 6675 C 633.613 -4.45315 0.247154 0
M  V30 6676 C 634.314 -5.42241 2.10593 0
M  V30 6677 N 633.29 -5.25267 1.39982 0
M  V30 6678 H 637.092 -2.69137 1.18079 0
M  V30 6679 H 634.606 -1.44388 0.743359 0
M  V30 6680 H 636.603 -4.08038 -0.855021 0
M  V30 6681 H 635.263 -2.98361 -1.28104 0
M  V30 6682 H 636.274 -4.80291 1.93755 0
M  V30 6683 H 632.951 -4.13782 -0.555939 0
M  V30 6684 H 634.341 -5.99517 3.03362 0
M  V30 6685 N 637.061 -0.65484 -1.43351 0
M  V30 6686 C 638.309 -0.168559 -2.01396 0
M  V30 6687 C 638.63 1.22235 -1.51933 0
M  V30 6688 O 637.9 1.81685 -0.732627 0
M  V30 6689 H 636.48 -0.0593244 -0.744641 0
M  V30 6690 H 639.142 -0.846871 -1.75539 0
M  V30 6691 H 638.238 -0.154428 -3.11718 0
M  V30 6692 N 638.539 1.52521 -0.396863 0
M  V30 6693 C 639.471 2.24333 0.469814 0
M  V30 6694 C 640.484 1.2685 1.02043 0
M  V30 6695 O 641.673 1.52876 0.92147 0
M  V30 6696 C 638.773 2.95202 1.66461 0
M  V30 6697 C 637.946 4.19454 1.24003 0
M  V30 6698 C 637.005 4.73255 2.30036 0
M  V30 6699 O 636.031 5.36151 1.91131 0
M  V30 6700 N 637.233 4.53765 3.62047 0
M  V30 6701 H 639.998 2.99347 -0.145468 0
M  V30 6702 H 637.559 1.60348 -0.223606 0
M  V30 6703 H 639.551 3.28092 2.36934 0
M  V30 6704 H 638.121 2.2345 2.18607 0
M  V30 6705 H 637.341 3.92517 0.363892 0
M  V30 6706 H 638.629 5.0017 0.933135 0
M  V30 6707 H 638.027 4.03576 3.96412 0
M  V30 6708 H 636.584 4.91124 4.28533 0
M  V30 6709 N 640.017 0.126909 1.57088 0
M  V30 6710 C 641.428 -0.397201 1.82426 0
M  V30 6711 C 641.779 -1.66084 1.04453 0
M  V30 6712 O 640.904 -2.14534 0.283552 0
M  V30 6713 C 641.499 -0.727411 3.30899 0
M  V30 6714 C 640.058 -1.19612 3.56889 0
M  V30 6715 C 639.205 -0.20885 2.76512 0
M  V30 6716 H 642.156 0.351924 1.54749 0
M  V30 6717 H 642.177 -1.58407 3.45959 0
M  V30 6718 H 641.689 0.19247 3.87622 0
M  V30 6719 H 639.79 -2.13263 3.05532 0
M  V30 6720 H 639.903 -1.13598 4.65438 0
M  V30 6721 H 638.267 -0.697479 2.44964 0
M  V30 6722 H 639.05 0.704267 3.35998 0
M  V30 6723 N 641.495 -1.56914 -0.146875 0
M  V30 6724 C 642.405 -2.0154 -1.20079 0
M  V30 6725 C 643.421 -0.930838 -1.47008 0
M  V30 6726 O 644.597 -1.24032 -1.58676 0
M  V30 6727 C 641.662 -2.38715 -2.51428 0
M  V30 6728 C 640.723 -3.6112 -2.32145 0
M  V30 6729 C 639.956 -3.96512 -3.57231 0
M  V30 6730 O 640.179 -3.32566 -4.63418 0
M  V30 6731 O 639.113 -4.89758 -3.49887 0
M  V30 6732 H 642.939 -2.91506 -0.851924 0
M  V30 6733 H 640.524 -1.45106 -0.355607 0
M  V30 6734 H 642.406 -2.63485 -3.28867 0
M  V30 6735 H 641.081 -1.51903 -2.85845 0
M  V30 6736 H 639.988 -3.41536 -1.52656 0
M  V30 6737 H 641.321 -4.48549 -2.02644 0
M  V30 6738 N 642.974 0.416227 -1.52004 0
M  V30 6739 C 643.937 1.48926 -1.74223 0
M  V30 6740 C 644.937 1.48693 -0.612119 0
M  V30 6741 O 646.127 1.50343 -0.879921 0
M  V30 6742 C 643.259 2.88372 -1.81809 0
M  V30 6743 H 644.452 1.3052 -2.70008 0
M  V30 6744 H 642.005 0.646271 -1.42313 0
M  V30 6745 H 642.74 3.12157 -0.879135 0
M  V30 6746 H 642.525 2.89944 -2.6396 0
M  V30 6747 H 644.015 3.66173 -2.00766 0
M  V30 6748 N 644.452 1.42507 0.673017 0
M  V30 6749 C 645.868 1.25472 0.986355 0
M  V30 6750 C 646.068 0.160181 2.00862 0
M  V30 6751 O 645.124 -0.467993 2.48125 0
M  V30 6752 C 646.437 2.61219 1.48947 0
M  V30 6753 C 647.985 2.68589 1.60715 0
M  V30 6754 C 648.46 4.04707 2.14422 0
M  V30 6755 N 649.951 4.0667 2.21752 0
M  V30 6756 C 650.686 5.0881 2.64386 0
M  V30 6757 N 650.182 6.21332 3.0646 0
M  V30 6758 N 651.975 4.96166 2.64151 0
M  V30 6759 H 644.126 2.124 -0.00378532 0
M  V30 6760 H 646.389 0.946046 0.0608367 0
M  V30 6761 H 646.095 3.42179 0.812812 0
M  V30 6762 H 645.969 2.85261 2.46791 0
M  V30 6763 H 648.356 1.87974 2.27486 0
M  V30 6764 H 648.437 2.48333 0.613552 0
M  V30 6765 H 648.081 4.8578 1.48258 0
M  V30 6766 H 648.011 4.22315 3.14575 0
M  V30 6767 H 650.502 3.25438 1.92089 0
M  V30 6768 H 650.815 6.95118 3.37684 0
M  V30 6769 H 649.16 6.24835 3.04313 0
M  V30 6770 H 652.351 4.07334 2.30644 0
M  V30 6771 H 652.524 5.759 2.97057 0
M  V30 6772 N 645.93 -0.909495 1.28709 0
M  V30 6773 C 647.178 -1.65577 1.15882 0
M  V30 6774 C 647.499 -1.928 -0.292108 0
M  V30 6775 O 646.769 -1.54716 -1.20166 0
M  V30 6776 H 645.349 -0.613714 0.425869 0
M  V30 6777 H 648.011 -1.09108 1.61498 0
M  V30 6778 H 647.107 -2.61634 1.70159 0
M  V30 6779 N 647.408 -1.11026 -1.11852 0
M  V30 6780 C 648.819 -0.873203 -1.65021 0
M  V30 6781 C 649.17 0.595364 -1.86949 0
M  V30 6782 O 648.295 1.45645 -1.60051 0
M  V30 6783 C 648.89 -1.57859 -2.99777 0
M  V30 6784 C 647.449 -1.38807 -3.49871 0
M  V30 6785 C 646.596 -1.62403 -2.24768 0
M  V30 6786 H 649.547 -1.26712 -0.955503 0
M  V30 6787 H 649.568 -1.02111 -3.66543 0
M  V30 6788 H 649.08 -2.6474 -2.83786 0
M  V30 6789 H 647.181 -0.341163 -3.71035 0
M  V30 6790 H 647.294 -2.13421 -4.28938 0
M  V30 6791 H 645.658 -1.04714 -2.32179 0
M  V30 6792 H 646.441 -2.70549 -2.11324 0
M  V30 6793 N 648.886 1.2938 -0.899927 0
M  V30 6794 C 649.849 2.25983 -0.382677 0
M  V30 6795 C 650.849 1.53366 0.483259 0
M  V30 6796 O 652.039 1.71798 0.28828 0
M  V30 6797 C 649.171 3.37878 0.452915 0
M  V30 6798 H 650.364 2.73252 -1.23586 0
M  V30 6799 H 647.917 1.40825 -0.678088 0
M  V30 6800 H 648.652 2.95949 1.32608 0
M  V30 6801 H 648.437 3.91742 -0.167562 0
M  V30 6802 H 649.927 4.09746 0.806107 0
M  V30 6803 N 650.364 0.662433 1.43002 0
M  V30 6804 C 651.775 0.258315 1.84904 0
M  V30 6805 C 652.126 -1.19703 1.55453 0
M  V30 6806 O 651.251 -1.91484 1.00811 0
M  V30 6807 C 651.846 0.462047 3.35635 0
M  V30 6808 C 650.405 0.112165 3.76233 0
M  V30 6809 C 649.552 0.760479 2.66668 0
M  V30 6810 H 652.503 0.865467 1.33024 0
M  V30 6811 H 652.524 -0.289646 3.79396 0
M  V30 6812 H 652.036 1.52135 3.57039 0
M  V30 6813 H 650.137 -0.944179 3.60439 0
M  V30 6814 H 650.25 0.544058 4.76001 0
M  V30 6815 H 648.614 0.192887 2.53969 0
M  V30 6816 H 649.397 1.82299 2.90898 0
M  V30 6817 N 651.842 -1.52309 0.404946 0
M  V30 6818 C 652.772 -2.29805 -0.41376 0
M  V30 6819 C 653.753 -1.3384 -1.0498 0
M  V30 6820 O 654.938 -1.62745 -1.05961 0
M  V30 6821 C 652.068 -3.11639 -1.53292 0
M  V30 6822 C 651.022 -4.15616 -1.02211 0
M  V30 6823 C 650.348 -4.8577 -2.23455 0
M  V30 6824 C 651.648 -5.2224 -0.0790725 0
M  V30 6825 H 653.342 -2.98493 0.232878 0
M  V30 6826 H 650.888 -1.43552 0.113441 0
M  V30 6827 H 652.841 -3.64618 -2.11262 0
M  V30 6828 H 651.565 -2.40712 -2.20738 0
M  V30 6829 H 650.224 -3.63641 -0.46484 0
M  V30 6830 H 649.872 -4.11376 -2.89445 0
M  V30 6831 H 649.572 -5.56058 -1.89929 0
M  V30 6832 H 651.096 -5.4156 -2.82038 0
M  V30 6833 H 652.51 -5.70485 -0.567438 0
M  V30 6834 H 650.907 -5.99867 0.167167 0
M  V30 6835 H 651.977 -4.77078 0.867447 0
M  V30 6836 N 653.32 -0.135238 -1.57019 0
M  V30 6837 C 654.252 0.839675 -2.13265 0
M  V30 6838 C 655.265 1.21887 -1.07923 0
M  V30 6839 O 656.454 1.16499 -1.35241 0
M  V30 6840 C 653.554 2.13647 -2.63075 0
M  V30 6841 C 652.727 1.92646 -3.92691 0
M  V30 6842 C 651.786 3.06205 -4.27931 0
M  V30 6843 O 650.812 2.78409 -4.96465 0
M  V30 6844 N 652.014 4.33072 -3.86561 0
M  V30 6845 H 654.779 0.359026 -2.97542 0
M  V30 6846 H 652.34 0.0486979 -1.61827 0
M  V30 6847 H 654.332 2.88641 -2.8367 0
M  V30 6848 H 652.902 2.5301 -1.83588 0
M  V30 6849 H 652.122 1.01754 -3.80841 0
M  V30 6850 H 653.41 1.75939 -4.77413 0
M  V30 6851 H 652.808 4.58526 -3.31316 0
M  V30 6852 H 651.365 5.04885 -4.12231 0
M  V30 6853 N 654.798 1.5699 0.138552 0
M  V30 6854 C 655.73 1.95515 1.1961 0
M  V30 6855 C 656.743 0.852002 1.38726 0
M  V30 6856 O 657.932 1.13038 1.38147 0
M  V30 6857 C 655.032 2.2213 2.55952 0
M  V30 6858 C 654.205 3.53424 2.57702 0
M  V30 6859 C 653.264 3.6848 3.75645 0
M  V30 6860 O 652.29 4.4079 3.60129 0
M  V30 6861 N 653.492 3.05777 4.93438 0
M  V30 6862 H 656.257 2.86838 0.868557 0
M  V30 6863 H 653.818 1.58542 0.328033 0
M  V30 6864 H 655.81 2.29435 3.33379 0
M  V30 6865 H 654.38 1.3703 2.80965 0
M  V30 6866 H 653.6 3.57484 1.6613 0
M  V30 6867 H 654.888 4.39759 2.55909 0
M  V30 6868 H 654.286 2.46961 5.08947 0
M  V30 6869 H 652.843 3.18631 5.6861 0
M  V30 6870 N 656.276 -0.40816 1.52223 0
M  V30 6871 C 657.226 -1.49648 1.72016 0
M  V30 6872 C 658.21 -1.50311 0.574069 0
M  V30 6873 O 659.402 -1.56271 0.831173 0
M  V30 6874 C 656.531 -2.87566 1.87512 0
M  V30 6875 C 655.617 -2.91547 3.07995 0
M  V30 6876 N 656.008 -2.65225 4.30685 0
M  V30 6877 C 654.306 -3.22715 3.07849 0
M  V30 6878 C 655.007 -2.75799 5.12162 0
M  V30 6879 N 653.983 -3.08719 4.4743 0
M  V30 6880 H 657.785 -1.28093 2.64517 0
M  V30 6881 H 655.299 -0.61588 1.50269 0
M  V30 6882 H 657.296 -3.65899 1.99809 0
M  V30 6883 H 655.956 -3.10118 0.962114 0
M  V30 6884 H 656.967 -2.39601 4.59142 0
M  V30 6885 H 653.644 -3.50856 2.26289 0
M  V30 6886 H 655.034 -2.59155 6.1991 0
M  V30 6887 N 657.755 -1.42862 -0.66545 0
M  V30 6888 C 659.166 -1.3901 -1.24632 0
M  V30 6889 C 659.517 -0.0880285 -1.96002 0
M  V30 6890 O 658.642 0.812947 -2.0055 0
M  V30 6891 C 659.237 -2.51806 -2.2667 0
M  V30 6892 C 657.796 -2.51257 -2.80262 0
M  V30 6893 C 656.943 -2.30124 -1.5472 0
M  V30 6894 H 659.894 -1.5194 -0.458237 0
M  V30 6895 H 659.915 -2.22593 -3.08598 0
M  V30 6896 H 659.427 -3.46558 -1.74697 0
M  V30 6897 H 657.528 -1.60349 -3.36332 0
M  V30 6898 H 657.641 -3.48614 -3.28641 0
M  V30 6899 H 656.005 -1.7856 -1.81627 0
M  V30 6900 H 656.788 -3.26945 -1.04699 0
M  V30 6901 N 659.233 0.902656 -1.29189 0
M  V30 6902 C 660.165 2.01149 -1.09872 0
M  V30 6903 C 661.178 1.62732 -0.0471046 0
M  V30 6904 O 662.367 1.76107 -0.29132 0
M  V30 6905 C 659.467 3.32612 -0.649818 0
M  V30 6906 C 658.64 3.99574 -1.7793 0
M  V30 6907 C 657.699 5.09325 -1.32191 0
M  V30 6908 O 656.725 5.31919 -2.02611 0
M  V30 6909 N 657.927 5.80185 -0.191171 0
M  V30 6910 H 660.692 2.18276 -2.05368 0
M  V30 6911 H 658.253 1.07466 -1.2109 0
M  V30 6912 H 660.245 4.03375 -0.327199 0
M  V30 6913 H 658.815 3.11876 0.212597 0
M  V30 6914 H 658.035 3.22213 -2.27095 0
M  V30 6915 H 659.323 4.41056 -2.53668 0
M  V30 6916 H 658.721 5.64312 0.396016 0
M  V30 6917 H 657.278 6.5176 0.0721001 0
M  V30 6918 N 660.711 1.11618 1.11262 0
M  V30 6919 C 661.957 0.867463 1.83311 0
M  V30 6920 C 662.29 -0.605366 1.84524 0
M  V30 6921 O 661.565 -1.44704 1.29965 0
M  V30 6922 C 661.848 1.43207 3.30399 0
M  V30 6923 C 661.701 2.97265 3.3757 0
M  V30 6924 C 663.02 1.08454 4.26528 0
M  V30 6925 H 660.139 0.316578 0.665543 0
M  V30 6926 H 662.781 1.38137 1.30454 0
M  V30 6927 H 660.931 0.994982 3.75543 0
M  V30 6928 H 662.603 3.49591 3.00971 0
M  V30 6929 H 660.846 3.33237 2.77733 0
M  V30 6930 H 661.517 3.31859 4.41105 0
M  V30 6931 H 663.993 1.4619 3.89574 0
M  V30 6932 H 662.869 1.50633 5.27826 0
M  V30 6933 H 663.13 -0.00444568 4.421 0
M  V30 6934 N 662.189 -1.289 0.906776 0
M  V30 6935 C 663.119 -2.29932 0.406659 0
M  V30 6936 C 664.1 -1.6189 -0.522061 0
M  V30 6937 O 665.285 -1.8935 -0.431283 0
M  V30 6938 C 662.415 -3.45425 -0.360366 0
M  V30 6939 C 661.369 -4.25316 0.478574 0
M  V30 6940 C 660.695 -5.33076 -0.416373 0
M  V30 6941 C 661.995 -4.92739 1.7322 0
M  V30 6942 H 663.689 -2.72013 1.25097 0
M  V30 6943 H 661.235 -1.30768 0.602977 0
M  V30 6944 H 663.188 -4.15186 -0.721029 0
M  V30 6945 H 661.912 -3.02206 -1.23852 0
M  V30 6946 H 660.571 -3.57273 0.821662 0
M  V30 6947 H 660.219 -4.86101 -1.29287 0
M  V30 6948 H 659.919 -5.8743 0.141309 0
M  V30 6949 H 661.443 -6.05686 -0.773072 0
M  V30 6950 H 662.857 -5.54898 1.44086 0
M  V30 6951 H 661.254 -5.57057 2.23175 0
M  V30 6952 H 662.324 -4.17625 2.46408 0
M  V30 6953 N 663.667 -0.670007 -1.42649 0
M  V30 6954 C 664.597 -0.00258501 -2.335 0
M  V30 6955 C 665.578 0.794364 -1.50412 0
M  V30 6956 O 666.763 0.75248 -1.79029 0
M  V30 6957 C 663.893 0.952748 -3.33976 0
M  V30 6958 C 662.847 0.264733 -4.2718 0
M  V30 6959 C 662.173 1.33267 -5.17826 0
M  V30 6960 C 663.473 -0.853289 -5.15283 0
M  V30 6961 H 665.167 -0.761326 -2.89559 0
M  V30 6962 H 662.713 -0.367561 -1.3923 0
M  V30 6963 H 664.666 1.4287 -3.96442 0
M  V30 6964 H 663.39 1.74285 -2.7621 0
M  V30 6965 H 662.049 -0.190938 -3.66102 0
M  V30 6966 H 661.697 2.11464 -4.5639 0
M  V30 6967 H 661.397 0.877476 -5.81011 0
M  V30 6968 H 662.921 1.80965 -5.83167 0
M  V30 6969 H 664.335 -0.458763 -5.71462 0
M  V30 6970 H 662.732 -1.23398 -5.87276 0
M  V30 6971 H 663.802 -1.70412 -4.53969 0
M  V30 6972 N 665.145 1.52092 -0.413018 0
M  V30 6973 C 666.391 2.02815 0.154104 0
M  V30 6974 C 666.746 1.293 1.42475 0
M  V30 6975 O 666.039 0.391835 1.87551 0
M  V30 6976 C 666.233 3.54529 0.4521 0
M  V30 6977 C 666.062 4.4274 -0.788116 0
M  V30 6978 C 664.832 4.87903 -1.31447 0
M  V30 6979 C 667.03 4.86522 -1.66735 0
M  V30 6980 N 665.012 5.60254 -2.50976 0
M  V30 6981 C 666.383 5.57692 -2.70886 0
M  V30 6982 C 668.438 4.68534 -1.68465 0
M  V30 6983 C 667.141 6.12783 -3.76682 0
M  V30 6984 C 669.167 5.24524 -2.73182 0
M  V30 6985 C 668.529 5.9562 -3.76054 0
M  V30 6986 H 664.628 0.781796 0.0178567 0
M  V30 6987 H 667.212 1.86223 -0.568237 0
M  V30 6988 H 665.383 3.71186 1.14348 0
M  V30 6989 H 667.115 3.91934 1.00844 0
M  V30 6990 H 663.87 4.65504 -0.871931 0
M  V30 6991 H 664.294 6.01069 -3.11521 0
M  V30 6992 H 668.936 4.13051 -0.902708 0
M  V30 6993 H 666.654 6.67335 -4.55729 0
M  V30 6994 H 670.24 5.12473 -2.75433 0
M  V30 6995 H 669.12 6.38169 -4.55752 0
M  V30 6996 N 666.623 0.143563 1.56945 0
M  V30 6997 C 667.533 -0.810562 2.20152 0
M  V30 6998 C 668.549 -1.27431 1.1848 0
M  V30 6999 O 669.725 -1.33221 1.51044 0
M  V30 7000 C 666.79 -2.03353 2.80799 0
M  V30 7001 C 665.851 -1.61936 3.97587 0
M  V30 7002 C 665.084 -2.78403 4.55332 0
M  V30 7003 O 665.307 -3.94521 4.11958 0
M  V30 7004 O 664.241 -2.54073 5.45647 0
M  V30 7005 H 668.067 -0.30253 3.02189 0
M  V30 7006 H 665.652 -0.0832925 1.49168 0
M  V30 7007 H 667.534 -2.74932 3.19359 0
M  V30 7008 H 666.209 -2.53116 2.01777 0
M  V30 7009 H 665.116 -0.873904 3.6375 0
M  V30 7010 H 666.449 -1.16892 4.78118 0
M  V30 7011 N 668.101 -1.57061 -0.130224 0
M  V30 7012 C 669.033 -1.96147 -1.18571 0
M  V30 7013 C 670.046 -0.859347 -1.38272 0
M  V30 7014 O 671.235 -1.13769 -1.37545 0
M  V30 7015 C 668.335 -2.23484 -2.54771 0
M  V30 7016 C 667.508 -3.54786 -2.55824 0
M  V30 7017 C 666.567 -3.70467 -3.73686 0
M  V30 7018 O 665.593 -4.42693 -3.57787 0
M  V30 7019 N 666.795 -3.08389 -4.91809 0
M  V30 7020 H 669.56 -2.87295 -0.853333 0
M  V30 7021 H 667.121 -1.58714 -0.319621 0
M  V30 7022 H 669.113 -2.312 -3.32158 0
M  V30 7023 H 667.683 -1.38518 -2.80235 0
M  V30 7024 H 666.903 -3.5836 -1.64232 0
M  V30 7025 H 668.191 -4.4111 -2.53573 0
M  V30 7026 H 667.589 -2.49656 -5.0763 0
M  V30 7027 H 666.146 -3.21642 -5.66912 0
M  V30 7028 N 669.579 0.400081 -1.52437 0
M  V30 7029 C 670.511 1.50729 -1.72666 0
M  V30 7030 C 671.524 1.51058 -0.607075 0
M  V30 7031 O 672.713 1.5516 -0.88248 0
M  V30 7032 C 669.813 2.89604 -1.76019 0
M  V30 7033 C 668.986 3.13365 -3.05157 0
M  V30 7034 C 668.045 4.32163 -3.00203 0
M  V30 7035 O 667.071 4.29004 -3.74092 0
M  V30 7036 N 668.273 5.3776 -2.18619 0
M  V30 7037 H 671.038 1.33767 -2.68191 0
M  V30 7038 H 668.599 0.58948 -1.50787 0
M  V30 7039 H 670.591 3.67159 -1.70225 0
M  V30 7040 H 669.161 2.99979 -0.879284 0
M  V30 7041 H 668.381 2.23774 -3.24529 0
M  V30 7042 H 669.669 3.26089 -3.90568 0
M  V30 7043 H 669.067 5.43177 -1.58035 0
M  V30 7044 H 667.624 6.14023 -2.18674 0
M  V30 7045 N 671.057 1.43213 0.657864 0
M  V30 7046 C 672.473 1.26511 0.972992 0
M  V30 7047 C 672.673 0.181477 2.00681 0
M  V30 7048 O 671.729 -0.441649 2.48608 0
M  V30 7049 C 673.042 2.62784 1.46168 0
M  V30 7050 C 674.59 2.70278 1.57857 0
M  V30 7051 C 675.065 4.06958 2.10117 0
M  V30 7052 N 676.556 4.08999 2.17426 0
M  V30 7053 C 677.291 5.11585 2.58975 0
M  V30 7054 N 676.787 6.24548 2.99853 0
M  V30 7055 N 678.58 4.9894 2.58873 0
M  V30 7056 H 670.731 2.12384 -0.0263129 0
M  V30 7057 H 672.994 0.946638 0.0507992 0
M  V30 7058 H 672.7 3.43022 0.776474 0
M  V30 7059 H 672.574 2.87863 2.43751 0
M  V30 7060 H 674.961 1.90376 2.25479 0
M  V30 7061 H 675.042 2.4897 0.587179 0
M  V30 7062 H 674.686 4.87325 1.43098 0
M  V30 7063 H 674.616 4.25628 3.10078 0
M  V30 7064 H 677.107 3.27457 1.88627 0
M  V30 7065 H 677.42 6.98661 3.30292 0
M  V30 7066 H 675.765 6.28027 2.97669 0
M  V30 7067 H 678.956 4.09757 2.26311 0
M  V30 7068 H 679.129 5.79019 2.90932 0
M  V30 7069 N 672.536 -0.895792 1.29666 0
M  V30 7070 C 673.466 -2.01673 1.17688 0
M  V30 7071 C 674.447 -1.69955 0.0701317 0
M  V30 7072 O 675.632 -1.9258 0.250289 0
M  V30 7073 C 672.762 -3.36568 0.856681 0
M  V30 7074 C 671.716 -3.82509 1.92017 0
M  V30 7075 C 671.042 -5.14574 1.4532 0
M  V30 7076 C 672.342 -4.02409 3.32963 0
M  V30 7077 H 674.036 -2.11953 2.11463 0
M  V30 7078 H 671.582 -1.01839 1.01807 0
M  V30 7079 H 673.535 -4.14498 0.759577 0
M  V30 7080 H 672.259 -3.26391 -0.116763 0
M  V30 7081 H 670.918 -3.068 2.00673 0
M  V30 7082 H 670.566 -5.00815 0.468325 0
M  V30 7083 H 670.266 -5.46283 2.16447 0
M  V30 7084 H 671.79 -5.9504 1.36968 0
M  V30 7085 H 673.204 -4.70808 3.27127 0
M  V30 7086 H 671.601 -4.45478 4.02082 0
M  V30 7087 H 672.671 -3.06616 3.75652 0
M  V30 7088 N 674.014 -1.12206 -1.10668 0
M  V30 7089 C 674.977 -0.790867 -2.15123 0
M  V30 7090 C 675.977 0.193618 -1.5963 0
M  V30 7091 O 677.167 -0.0318728 -1.74171 0
M  V30 7092 C 674.299 -0.174797 -3.40452 0
M  V30 7093 H 675.492 -1.7163 -2.45933 0
M  V30 7094 H 673.045 -0.924993 -1.2599 0
M  V30 7095 H 673.78 0.760478 -3.15257 0
M  V30 7096 H 673.565 -0.88358 -3.82015 0
M  V30 7097 H 675.055 0.0405162 -4.1758 0
M  V30 7098 N 675.492 1.28418 -0.913599 0
M  V30 7099 C 676.74 1.94596 -0.545594 0
M  V30 7100 C 677.061 1.7227 0.913668 0
M  V30 7101 O 676.331 1.06233 1.64595 0
M  V30 7102 H 674.911 0.720065 -0.198783 0
M  V30 7103 H 677.573 1.56404 -1.16292 0
M  V30 7104 H 676.669 3.03202 -0.739911 0
M  V30 7105 N 676.97 0.677563 1.42291 0
M  V30 7106 C 678.386 0.347376 1.55774 0
M  V30 7107 C 678.586 -1.14703 1.65667 0
M  V30 7108 O 677.642 -1.93252 1.62512 0
M  V30 7109 C 678.955 1.08011 2.80631 0
M  V30 7110 C 680.503 1.06271 2.94407 0
M  V30 7111 C 680.978 1.77683 4.22129 0
M  V30 7112 N 682.469 1.74564 4.29047 0
M  V30 7113 C 683.204 2.26673 5.26694 0
M  V30 7114 N 682.7 2.87176 6.30477 0
M  V30 7115 N 684.493 2.17032 5.18511 0
M  V30 7116 H 676.644 1.64703 1.34114 0
M  V30 7117 H 678.907 0.694038 0.645768 0
M  V30 7118 H 678.613 2.13518 2.79469 0
M  V30 7119 H 678.487 0.647115 3.71608 0
M  V30 7120 H 680.874 0.0159658 2.95096 0
M  V30 7121 H 680.955 1.53461 2.04654 0
M  V30 7122 H 680.599 2.82327 4.22201 0
M  V30 7123 H 680.529 1.2794 5.10822 0
M  V30 7124 H 683.02 1.30436 3.54676 0
M  V30 7125 H 683.333 3.24551 7.01346 0
M  V30 7126 H 681.678 2.91247 6.31031 0
M  V30 7127 H 684.869 1.69451 4.36353 0
M  V30 7128 H 685.042 2.57948 5.94446 0
M  V30 7129 N 678.448 -1.51871 0.421078 0
M  V30 7130 C 679.378 -2.30231 -0.389363 0
M  V30 7131 C 680.359 -1.34946 -1.03555 0
M  V30 7132 O 681.544 -1.63859 -1.04229 0
M  V30 7133 C 678.674 -3.13247 -1.49979 0
M  V30 7134 C 677.628 -4.16677 -0.977966 0
M  V30 7135 C 676.954 -4.88112 -2.1829 0
M  V30 7136 C 678.254 -5.22295 -0.0236775 0
M  V30 7137 H 679.948 -2.98229 0.264524 0
M  V30 7138 H 677.494 -1.43424 0.12866 0
M  V30 7139 H 679.447 -3.66838 -2.07383 0
M  V30 7140 H 678.171 -2.4304 -2.18173 0
M  V30 7141 H 676.83 -3.64114 -0.426245 0
M  V30 7142 H 676.478 -4.14423 -2.85066 0
M  V30 7143 H 676.178 -5.58041 -1.84021 0
M  V30 7144 H 677.702 -5.44521 -2.76278 0
M  V30 7145 H 679.116 -5.71055 -0.506899 0
M  V30 7146 H 677.513 -5.99656 0.230782 0
M  V30 7147 H 678.583 -4.76131 0.917999 0
M  V30 7148 N 679.926 -0.151884 -1.56866 0
M  V30 7149 C 681.337 0.368128 -1.83035 0
M  V30 7150 C 681.688 1.64402 -1.07082 0
M  V30 7151 O 680.813 2.14056 -0.317647 0
M  V30 7152 C 681.408 0.674676 -3.32014 0
M  V30 7153 C 679.967 1.13919 -3.58747 0
M  V30 7154 C 679.114 0.164833 -2.7681 0
M  V30 7155 H 682.065 -0.376499 -1.54169 0
M  V30 7156 H 682.086 1.52883 -3.48435 0
M  V30 7157 H 681.598 -0.254113 -3.87267 0
M  V30 7158 H 679.699 2.08375 -3.08886 0
M  V30 7159 H 679.812 1.06179 -4.67186 0
M  V30 7160 H 678.176 0.658419 -2.46043 0
M  V30 7161 H 678.959 -0.757633 -3.34836 0
M  V30 7162 N 681.404 1.57128 0.121893 0
M  V30 7163 C 682.82 1.52357 0.47534 0
M  V30 7164 C 683.02 0.864417 1.82017 0
M  V30 7165 O 682.076 0.445529 2.48538 0
M  V30 7166 C 683.389 2.97122 0.4625 0
M  V30 7167 C 684.937 3.08196 0.546255 0
M  V30 7168 C 685.412 4.54516 0.563833 0
M  V30 7169 N 686.903 4.58959 0.625353 0
M  V30 7170 C 687.638 5.69585 0.660354 0
M  V30 7171 N 687.134 6.89714 0.653175 0
M  V30 7172 N 688.927 5.57685 0.703143 0
M  V30 7173 H 681.078 1.98364 -0.75931 0
M  V30 7174 H 683.341 0.905777 -0.279772 0
M  V30 7175 H 683.047 3.48706 -0.457943 0
M  V30 7176 H 682.921 3.54406 1.29136 0
M  V30 7177 H 685.308 2.56617 1.45712 0
M  V30 7178 H 685.389 2.53912 -0.310234 0
M  V30 7179 H 685.033 5.06741 -0.342974 0
M  V30 7180 H 684.963 5.06609 1.43716 0
M  V30 7181 H 687.454 3.72489 0.637182 0
M  V30 7182 H 687.767 7.69781 0.682425 0
M  V30 7183 H 686.112 6.92223 0.620646 0
M  V30 7184 H 689.303 4.62744 0.706095 0
M  V30 7185 H 689.476 6.43909 0.726952 0
M  V30 7186 N 682.882 -0.391992 1.52647 0
M  V30 7187 C 684.13 -1.13507 1.67214 0
M  V30 7188 C 684.451 -1.90575 0.41304 0
M  V30 7189 O 683.721 -1.87348 -0.572498 0
M  V30 7190 H 682.301 -0.422013 0.616372 0
M  V30 7191 H 684.963 -0.44502 1.89751 0
M  V30 7192 H 684.059 -1.83964 2.52118 0
M  V30 7193 N 684.36 -1.4356 -0.65026 0
M  V30 7194 C 685.585 -1.48995 -1.44275 0
M  V30 7195 C 686.01 -0.109954 -1.87778 0
M  V30 7196 O 685.368 0.896926 -1.57559 0
M  V30 7197 C 685.416 -2.44341 -2.65198 0
M  V30 7198 O 684.52 -1.93172 -3.6436 0
M  V30 7199 H 683.861 -0.503852 -0.432469 0
M  V30 7200 H 686.391 -1.88504 -0.795446 0
M  V30 7201 H 686.401 -2.61743 -3.12977 0
M  V30 7202 H 685.076 -3.44588 -2.32877 0
M  V30 7203 H 683.653 -1.85445 -3.23519 0
M  V30 7204 N 685.838 0.888903 -1.30139 0
M  V30 7205 C 687.066 1.67358 -1.21651 0
M  V30 7206 C 687.481 1.87499 0.221246 0
M  V30 7207 O 686.838 1.41969 1.14677 0
M  V30 7208 C 686.889 3.05213 -1.93719 0
M  V30 7209 O 686.61 2.85984 -3.31881 0
M  V30 7210 C 688.111 3.9964 -1.9184 0
M  V30 7211 H 685.331 0.522365 -0.42116 0
M  V30 7212 H 687.875 1.11086 -1.71698 0
M  V30 7213 H 686.03 3.5823 -1.4748 0
M  V30 7214 H 686.444 3.73411 -3.68327 0
M  V30 7215 H 687.918 4.93749 -2.46811 0
M  V30 7216 H 688.395 4.29955 -0.896409 0
M  V30 7217 H 689.001 3.52558 -2.37872 0
M  V30 7218 N 687.317 1.12792 1.10072 0
M  V30 7219 C 688.565 0.883796 1.81751 0
M  V30 7220 C 688.886 -0.591891 1.858 0
M  V30 7221 O 688.156 -1.43017 1.33876 0
M  V30 7222 H 686.736 0.323978 0.673088 0
M  V30 7223 H 689.398 1.42314 1.33164 0
M  V30 7224 H 688.494 1.26863 2.85153 0
M  V30 7225 N 688.795 -1.27931 0.920396 0
M  V30 7226 C 690.072 -1.89728 0.475687 0
M  V30 7227 C 690.452 -1.8337 -1.04588 0
M  V30 7228 O 689.8 -1.27404 -1.89685 0
M  V30 7229 C 690.01 -3.33959 1.01354 0
M  V30 7230 C 691.358 -4.10907 1.06963 0
M  V30 7231 O 692.382 -3.42945 0.962646 0
M  V30 7232 O 691.241 -5.32399 1.23343 0
M  V30 7233 H 688.335 -0.81294 0.151845 0
M  V30 7234 H 690.881 -1.36252 1.01161 0
M  V30 7235 H 689.653 -3.32843 2.05746 0
M  V30 7236 H 689.276 -3.94944 0.458829 0
M  V30 7237 N 690.273 -0.685099 -1.4193 0
M  V30 7238 C 691.501 -0.220372 -2.05723 0
M  V30 7239 C 691.916 1.12642 -1.51516 0
M  V30 7240 O 691.273 1.70182 -0.659114 0
M  V30 7241 C 691.324 -0.157974 -3.61155 0
M  V30 7242 O 691.045 -1.45156 -4.13354 0
M  V30 7243 C 692.546 0.329009 -4.42077 0
M  V30 7244 H 689.766 -0.104725 -0.662777 0
M  V30 7245 H 692.31 -0.934736 -1.81887 0
M  V30 7246 H 690.465 0.507144 -3.84066 0
M  V30 7247 H 690.879 -1.33172 -5.07312 0
M  V30 7248 H 692.353 0.321559 -5.51063 0
M  V30 7249 H 692.83 1.36608 -4.17414 0
M  V30 7250 H 693.436 -0.304737 -4.24207 0
M  V30 7251 N 691.751 1.51645 -0.429126 0
M  V30 7252 C 692.997 2.02314 0.140286 0
M  V30 7253 C 693.33 1.31314 1.43074 0
M  V30 7254 O 692.605 0.425531 1.89788 0
M  V30 7255 C 692.888 3.5822 0.36749 0
M  V30 7256 C 692.741 4.39846 -0.941039 0
M  V30 7257 C 694.06 4.25055 1.14089 0
M  V30 7258 H 691.179 0.735335 0.0495112 0
M  V30 7259 H 693.821 1.81358 -0.566514 0
M  V30 7260 H 691.971 3.76207 0.969556 0
M  V30 7261 H 693.643 4.33527 -1.57646 0
M  V30 7262 H 691.886 4.05259 -1.54751 0
M  V30 7263 H 692.557 5.47069 -0.73621 0
M  V30 7264 H 695.033 4.11288 0.630986 0
M  V30 7265 H 693.909 5.34038 1.26863 0
M  V30 7266 H 694.17 3.85358 2.16683 0
M  V30 7267 N 693.229 0.160201 1.56784 0
M  V30 7268 C 694.159 -0.770264 2.2043 0
M  V30 7269 C 695.14 -1.24736 1.15651 0
M  V30 7270 O 696.325 -1.30253 1.44041 0
M  V30 7271 C 693.455 -2.00427 2.83631 0
M  V30 7272 C 692.409 -1.66345 3.94352 0
M  V30 7273 C 691.735 -2.97119 4.4455 0
M  V30 7274 C 693.035 -0.899972 5.14488 0
M  V30 7275 H 694.729 -0.239783 2.98438 0
M  V30 7276 H 692.275 -0.113891 1.43549 0
M  V30 7277 H 694.228 -2.66012 3.26827 0
M  V30 7278 H 692.952 -2.5587 2.02973 0
M  V30 7279 H 691.611 -1.03133 3.51794 0
M  V30 7280 H 691.259 -3.5058 3.60698 0
M  V30 7281 H 690.959 -2.75073 5.19238 0
M  V30 7282 H 692.483 -3.63753 4.90425 0
M  V30 7283 H 693.897 -1.45818 5.54446 0
M  V30 7284 H 692.294 -0.778968 5.95023 0
M  V30 7285 H 693.364 0.105827 4.84785 0
M  V30 7286 N 694.707 -1.5719 -0.113559 0
M  V30 7287 C 695.637 -2.03772 -1.14013 0
M  V30 7288 C 696.618 -0.923176 -1.42869 0
M  V30 7289 O 697.803 -1.19325 -1.53216 0
M  V30 7290 C 694.933 -2.44663 -2.4649 0
M  V30 7291 C 693.887 -3.59612 -2.32085 0
M  V30 7292 C 693.213 -3.8642 -3.69573 0
M  V30 7293 C 694.513 -4.91149 -1.7768 0
M  V30 7294 H 696.207 -2.89785 -0.752665 0
M  V30 7295 H 693.753 -1.39412 -0.360609 0
M  V30 7296 H 695.706 -2.75857 -3.18561 0
M  V30 7297 H 694.43 -1.55628 -2.87137 0
M  V30 7298 H 693.089 -3.28636 -1.62461 0
M  V30 7299 H 692.737 -2.94581 -4.07715 0
M  V30 7300 H 692.437 -4.63797 -3.60786 0
M  V30 7301 H 693.961 -4.2007 -4.4314 0
M  V30 7302 H 695.375 -5.20843 -2.39574 0
M  V30 7303 H 693.772 -5.72562 -1.79701 0
M  V30 7304 H 694.842 -4.79301 -0.734776 0
M  V30 7305 N 696.185 0.383891 -1.52853 0
M  V30 7306 C 697.596 0.961591 -1.60032 0
M  V30 7307 C 697.947 1.90819 -0.456333 0
M  V30 7308 O 697.072 2.12288 0.419873 0
M  V30 7309 C 697.667 1.75078 -2.90057 0
M  V30 7310 C 696.226 2.2781 -2.99632 0
M  V30 7311 C 695.373 1.08512 -2.55187 0
M  V30 7312 H 698.324 0.163269 -1.57858 0
M  V30 7313 H 698.345 2.61046 -2.7683 0
M  V30 7314 H 697.857 1.06157 -3.73299 0
M  V30 7315 H 695.958 3.00028 -2.20939 0
M  V30 7316 H 696.071 2.56947 -4.0437 0
M  V30 7317 H 694.435 1.44667 -2.09627 0
M  V30 7318 H 695.218 0.41118 -3.40829 0
M  V30 7319 N 697.663 1.43903 0.642637 0
M  V30 7320 C 698.593 1.52697 1.76652 0
M  V30 7321 C 699.574 0.380816 1.65782 0
M  V30 7322 O 700.759 0.599432 1.84717 0
M  V30 7323 C 697.889 1.45975 3.15133 0
M  V30 7324 C 696.843 2.58949 3.40778 0
M  V30 7325 C 696.169 2.37279 4.79169 0
M  V30 7326 C 697.469 4.01153 3.34475 0
M  V30 7327 H 699.163 2.46766 1.69549 0
M  V30 7328 H 696.709 1.18767 0.814279 0
M  V30 7329 H 698.662 1.5073 3.93521 0
M  V30 7330 H 697.386 0.484162 3.22991 0
M  V30 7331 H 696.045 2.53564 2.64765 0
M  V30 7332 H 695.693 1.37939 4.83717 0
M  V30 7333 H 695.393 3.13016 4.97287 0
M  V30 7334 H 696.917 2.43834 5.59801 0
M  V30 7335 H 698.331 4.07968 4.02784 0
M  V30 7336 H 696.728 4.77001 3.64129 0
M  V30 7337 H 697.798 4.25539 2.32475 0
M  V30 7338 N 699.141 -0.881989 1.30609 0
M  V30 7339 C 700.104 -1.96957 1.1722 0
M  V30 7340 C 701.104 -1.60472 0.102598 0
M  V30 7341 O 702.294 -1.70628 0.350943 0
M  V30 7342 C 699.426 -3.31463 0.796572 0
M  V30 7343 H 700.619 -2.10262 2.13846 0
M  V30 7344 H 698.172 -1.06877 1.14048 0
M  V30 7345 H 698.907 -3.23859 -0.169053 0
M  V30 7346 H 698.692 -3.59314 1.56959 0
M  V30 7347 H 700.182 -4.11233 0.72645 0
M  V30 7348 N 700.619 -1.13374 -1.09472 0
M  V30 7349 C 701.551 -0.768466 -2.15933 0
M  V30 7350 C 702.564 0.209585 -1.61445 0
M  V30 7351 O 703.753 -0.010539 -1.78497 0
M  V30 7352 C 700.853 -0.118266 -3.38694 0
M  V30 7353 C 700.026 -1.12829 -4.22597 0
M  V30 7354 C 699.085 -0.503875 -5.23782 0
M  V30 7355 O 698.111 -1.16374 -5.57177 0
M  V30 7356 N 699.313 0.724288 -5.75964 0
M  V30 7357 H 702.078 -1.68457 -2.47876 0
M  V30 7358 H 699.639 -1.02668 -1.25183 0
M  V30 7359 H 701.631 0.311698 -4.03498 0
M  V30 7360 H 700.201 0.700769 -3.04644 0
M  V30 7361 H 699.421 -1.73556 -3.53938 0
M  V30 7362 H 700.709 -1.81095 -4.75481 0
M  V30 7363 H 700.107 1.27918 -5.51048 0
M  V30 7364 H 698.664 1.09692 -6.42504 0
M  V30 7365 N 702.098 1.27442 -0.927168 0
M  V30 7366 C 703.346 1.94007 -0.566203 0
M  V30 7367 C 703.667 1.7323 0.895345 0
M  V30 7368 O 702.937 1.07973 1.63459 0
M  V30 7369 H 701.517 0.717917 -0.206409 0
M  V30 7370 H 704.179 1.55161 -1.17945 0
M  V30 7371 H 703.275 3.02401 -0.772028 0
M  V30 7372 N 703.576 0.692616 1.41565 0
M  V30 7373 C 704.824 0.221896 2.00878 0
M  V30 7374 C 705.145 -1.18164 1.5512 0
M  V30 7375 O 704.415 -1.79679 0.78054 0
M  V30 7376 H 702.995 0.0790463 0.742806 0
M  V30 7377 H 705.657 0.893115 1.73232 0
M  V30 7378 H 704.753 0.23702 3.11199 0
M  V30 7379 N 705.054 -1.51416 0.437162 0
M  V30 7380 C 706.004 -2.24599 -0.392311 0
M  V30 7381 C 706.988 -1.2682 -0.990221 0
M  V30 7382 O 708.18 -1.51912 -0.908391 0
M  V30 7383 C 705.309 -3.09134 -1.49301 0
M  V30 7384 C 704.395 -4.14342 -0.904503 0
M  V30 7385 N 704.786 -5.0578 -0.0451511 0
M  V30 7386 C 703.084 -4.30323 -1.1721 0
M  V30 7387 C 703.785 -5.81 0.285344 0
M  V30 7388 N 702.761 -5.42591 -0.330993 0
M  V30 7389 H 706.563 -2.92655 0.270221 0
M  V30 7390 H 704.077 -1.60476 0.249226 0
M  V30 7391 H 706.074 -3.6014 -2.10011 0
M  V30 7392 H 704.734 -2.42622 -2.15788 0
M  V30 7393 H 705.745 -5.16903 0.321271 0
M  V30 7394 H 702.422 -3.75037 -1.83448 0
M  V30 7395 H 703.812 -6.64646 0.984626 0
M  V30 7396 N 706.532 -0.168513 -1.56696 0
M  V30 7397 C 707.948 0.187686 -1.58493 0
M  V30 7398 C 708.148 1.63063 -1.18375 0
M  V30 7399 O 707.204 2.36142 -0.894042 0
M  V30 7400 C 708.517 -0.0905858 -3.00564 0
M  V30 7401 C 710.065 -0.028575 -3.12987 0
M  V30 7402 C 710.54 -0.279799 -4.57145 0
M  V30 7403 N 712.031 -0.227476 -4.62641 0
M  V30 7404 C 712.766 -0.396073 -5.7203 0
M  V30 7405 N 712.262 -0.623572 -6.89988 0
M  V30 7406 N 714.055 -0.332173 -5.61118 0
M  V30 7407 H 706.206 -1.11042 -1.81062 0
M  V30 7408 H 708.469 -0.441235 -0.839056 0
M  V30 7409 H 708.175 -1.09006 -3.34381 0
M  V30 7410 H 708.049 0.619078 -3.72085 0
M  V30 7411 H 710.436 0.961471 -2.78998 0
M  V30 7412 H 710.517 -0.770905 -2.43907 0
M  V30 7413 H 710.161 -1.26704 -4.91842 0
M  V30 7414 H 710.091 0.48311 -5.24379 0
M  V30 7415 H 712.582 -0.0571723 -3.77857 0
M  V30 7416 H 712.895 -0.741745 -7.69232 0
M  V30 7417 H 711.24 -0.660153 -6.91858 0
M  V30 7418 H 714.431 -0.155051 -4.67843 0
M  V30 7419 H 714.604 -0.466994 -6.46315 0
M  V30 7420 N 708.01 1.57248 0.105221 0
M  V30 7421 C 709.421 1.74612 0.660865 0
M  V30 7422 C 709.772 0.789231 1.79626 0
M  V30 7423 O 708.897 -0.0346611 2.16372 0
M  V30 7424 C 709.492 3.16624 1.20559 0
M  V30 7425 C 708.051 3.35447 1.7074 0
M  V30 7426 C 707.198 2.70445 0.612764 0
M  V30 7427 H 710.149 1.5824 -0.12079 0
M  V30 7428 H 710.17 3.18937 2.07508 0
M  V30 7429 H 709.682 3.86245 0.379012 0
M  V30 7430 H 707.783 2.7089 2.5583 0
M  V30 7431 H 707.896 4.43702 1.80736 0
M  V30 7432 H 706.26 2.32061 1.04975 0
M  V30 7433 H 707.043 3.42699 -0.203066 0
M  V30 7434 N 709.488 -0.375779 1.53054 0
M  V30 7435 C 710.418 -1.46598 1.81745 0
M  V30 7436 C 711.399 -1.56337 0.670286 0
M  V30 7437 O 712.584 -1.71071 0.919158 0
M  V30 7438 C 709.714 -2.84058 1.99821 0
M  V30 7439 C 708.668 -2.8915 3.15557 0
M  V30 7440 C 707.994 -4.29187 3.18908 0
M  V30 7441 C 709.294 -2.57595 4.54359 0
M  V30 7442 H 710.988 -1.22837 2.73041 0
M  V30 7443 H 708.534 -0.589485 1.31381 0
M  V30 7444 H 710.487 -3.60342 2.18475 0
M  V30 7445 H 709.211 -3.09184 1.05226 0
M  V30 7446 H 707.87 -2.15316 2.96706 0
M  V30 7447 H 707.518 -4.51374 2.2197 0
M  V30 7448 H 707.218 -4.33512 3.96662 0
M  V30 7449 H 708.742 -5.07359 3.39734 0
M  V30 7450 H 710.156 -3.23595 4.73243 0
M  V30 7451 H 708.553 -2.73252 5.34279 0
M  V30 7452 H 709.623 -1.52882 4.60169 0
M  V30 7453 N 710.966 -1.44241 -0.634997 0
M  V30 7454 C 712.191 -1.50516 -1.42687 0
M  V30 7455 C 712.616 -0.129864 -1.87651 0
M  V30 7456 O 711.974 0.880164 -1.58502 0
M  V30 7457 C 712.022 -2.4714 -2.62591 0
M  V30 7458 O 711.126 -1.97025 -3.62291 0
M  V30 7459 H 710.467 -0.50841 -0.427101 0
M  V30 7460 H 712.997 -1.89337 -0.775408 0
M  V30 7461 H 713.007 -2.65048 -3.10183 0
M  V30 7462 H 711.682 -3.47039 -2.29209 0
M  V30 7463 H 710.259 -1.88866 -3.21534 0
M  V30 7464 N 712.444 0.87505 -1.31075 0
M  V30 7465 C 713.86 1.15997 -1.09622 0
M  V30 7466 C 714.06 2.01036 0.136611 0
M  V30 7467 O 713.116 2.38559 0.827397 0
M  V30 7468 C 714.429 1.85702 -2.36506 0
M  V30 7469 C 715.977 1.98425 -2.42067 0
M  V30 7470 C 716.452 2.71544 -3.68819 0
M  V30 7471 N 717.943 2.79084 -3.69684 0
M  V30 7472 C 718.678 3.36259 -4.64454 0
M  V30 7473 N 718.174 3.94406 -5.69575 0
M  V30 7474 N 719.967 3.34169 -4.51982 0
M  V30 7475 H 712.118 0.308258 -2.10151 0
M  V30 7476 H 714.381 0.199145 -0.926847 0
M  V30 7477 H 714.087 1.30663 -3.26527 0
M  V30 7478 H 713.961 2.86017 -2.45915 0
M  V30 7479 H 716.348 2.5263 -1.52518 0
M  V30 7480 H 716.429 0.971682 -2.36626 0
M  V30 7481 H 716.073 2.18008 -4.58732 0
M  V30 7482 H 716.003 3.73198 -3.71525 0
M  V30 7483 H 718.494 2.3781 -2.93691 0
M  V30 7484 H 718.807 4.36129 -6.37974 0
M  V30 7485 H 717.152 3.92797 -5.73355 0
M  V30 7486 H 720.343 2.87977 -3.69035 0
M  V30 7487 H 720.516 3.78431 -5.26017 0
M  V30 7488 N 713.922 1.13953 1.08869 0
M  V30 7489 C 714.885 0.824991 2.13838 0
M  V30 7490 C 715.885 -0.168198 1.59918 0
M  V30 7491 O 717.075 0.0595778 1.74098 0
M  V30 7492 C 714.207 0.228938 3.4013 0
M  V30 7493 H 715.4 1.75521 2.43171 0
M  V30 7494 H 712.953 0.94492 1.24503 0
M  V30 7495 H 713.688 -0.710227 3.16427 0
M  V30 7496 H 713.473 0.944243 3.80561 0
M  V30 7497 H 714.963 0.0259223 4.17592 0
M  V30 7498 N 715.4 -1.26948 0.933913 0
M  V30 7499 C 716.332 -2.25768 0.395137 0
M  V30 7500 C 717.345 -1.55637 -0.477585 0
M  V30 7501 O 718.534 -1.76142 -0.289204 0
M  V30 7502 C 715.634 -3.35874 -0.451882 0
M  V30 7503 C 714.807 -4.3554 0.40299 0
M  V30 7504 C 713.866 -5.24809 -0.3824 0
M  V30 7505 O 712.892 -5.68805 0.212057 0
M  V30 7506 N 714.094 -5.55636 -1.68072 0
M  V30 7507 H 716.859 -2.72634 1.24463 0
M  V30 7508 H 714.42 -1.40639 0.802008 0
M  V30 7509 H 716.412 -3.92542 -0.984516 0
M  V30 7510 H 714.982 -2.8856 -1.20215 0
M  V30 7511 H 714.202 -3.78047 1.11688 0
M  V30 7512 H 715.49 -4.99131 0.987201 0
M  V30 7513 H 714.888 -5.2176 -2.18592 0
M  V30 7514 H 713.445 -6.14978 -2.15975 0
M  V30 7515 N 716.879 -0.700114 -1.41195 0
M  V30 7516 C 718.104 -0.240704 -2.05998 0
M  V30 7517 C 718.529 1.10313 -1.52357 0
M  V30 7518 O 717.887 1.69154 -0.652424 0
M  V30 7519 C 717.935 -0.213783 -3.59966 0
M  V30 7520 O 717.039 0.809933 -4.04368 0
M  V30 7521 H 716.38 -0.116471 -0.653705 0
M  V30 7522 H 718.91 -0.956251 -1.80878 0
M  V30 7523 H 718.92 -0.0461852 -4.07974 0
M  V30 7524 H 717.595 -1.19454 -3.98376 0
M  V30 7525 H 716.172 0.611319 -3.67855 0
M  V30 7526 N 718.357 1.51182 -0.445186 0
M  V30 7527 C 719.582 2.07056 0.119445 0
M  V30 7528 C 720.007 1.30966 1.35016 0
M  V30 7529 O 719.365 0.349827 1.77893 0
M  V30 7530 C 719.413 3.58234 0.412428 0
M  V30 7531 O 718.517 3.84249 1.49754 0
M  V30 7532 H 717.858 0.663998 -0.00157797 0
M  V30 7533 H 720.388 1.94699 -0.628779 0
M  V30 7534 H 720.398 4.02617 0.660583 0
M  V30 7535 H 719.073 4.13038 -0.487049 0
M  V30 7536 H 717.65 3.51724 1.23873 0
M  V30 7537 N 719.835 0.176821 1.56605 0
M  V30 7538 C 721.246 -0.338963 1.83597 0
M  V30 7539 C 721.597 -1.62677 1.09684 0
M  V30 7540 O 720.722 -2.13524 0.351661 0
M  V30 7541 C 721.317 -0.62177 3.33046 0
M  V30 7542 C 719.876 -1.08198 3.60514 0
M  V30 7543 C 719.023 -0.120774 2.77037 0
M  V30 7544 H 721.974 0.400978 1.53551 0
M  V30 7545 H 721.995 -1.47321 3.50823 0
M  V30 7546 H 721.507 0.315692 3.86814 0
M  V30 7547 H 719.608 -2.03435 3.12162 0
M  V30 7548 H 719.721 -0.987329 4.68816 0
M  V30 7549 H 718.085 -0.619192 2.47059 0
M  V30 7550 H 718.868 0.810806 3.33588 0
M  V30 7551 N 721.313 -1.57302 -0.09688 0
M  V30 7552 C 722.276 -2.00976 -1.10188 0
M  V30 7553 C 723.276 -0.903009 -1.3305 0
M  V30 7554 O 724.466 -1.16853 -1.29194 0
M  V30 7555 C 721.598 -2.36893 -2.45142 0
M  V30 7556 H 722.791 -2.9098 -0.726003 0
M  V30 7557 H 720.344 -1.52515 -0.341872 0
M  V30 7558 H 721.079 -1.49837 -2.8761 0
M  V30 7559 H 720.864 -3.17632 -2.29897 0
M  V30 7560 H 722.354 -2.71345 -3.1743 0
M  V30 7561 N 722.791 0.367657 -1.53252 0
M  V30 7562 C 723.754 1.43308 -1.78873 0
M  V30 7563 C 724.754 1.46671 -0.659115 0
M  V30 7564 O 725.944 1.47468 -0.927306 0
M  V30 7565 C 723.076 2.82442 -1.90892 0
M  V30 7566 H 724.269 1.21864 -2.74024 0
M  V30 7567 H 721.822 0.600668 -1.44297 0
M  V30 7568 H 722.557 3.09202 -0.978 0
M  V30 7569 H 722.342 2.81399 -2.73051 0
M  V30 7570 H 723.832 3.59601 -2.12314 0
M  V30 7571 N 724.269 1.44576 0.627338 0
M  V30 7572 C 725.68 1.42266 1.20902 0
M  V30 7573 C 726.031 0.139964 1.957 0
M  V30 7574 O 725.156 -0.759489 2.02634 0
M  V30 7575 C 725.751 2.57727 2.19914 0
M  V30 7576 C 724.31 2.58599 2.73502 0
M  V30 7577 C 723.457 2.34145 1.48564 0
M  V30 7578 H 726.408 1.53102 0.417791 0
M  V30 7579 H 726.429 2.30697 3.02588 0
M  V30 7580 H 725.941 3.51068 1.65447 0
M  V30 7581 H 724.042 1.6921 3.31962 0
M  V30 7582 H 724.155 3.57205 3.19282 0
M  V30 7583 H 722.519 1.83313 1.76829 0
M  V30 7584 H 723.302 3.29606 0.959935 0
M  V30 7585 N 725.747 -0.868086 1.31537 0
M  V30 7586 C 726.71 -1.95703 1.19302 0
M  V30 7587 C 727.71 -1.60355 0.119612 0
M  V30 7588 O 728.9 -1.70247 0.36902 0
M  V30 7589 C 726.032 -3.30599 0.831684 0
M  V30 7590 H 727.225 -2.07982 2.16064 0
M  V30 7591 H 724.778 -1.05661 1.15176 0
M  V30 7592 H 725.513 -3.2402 -0.134694 0
M  V30 7593 H 725.298 -3.57629 1.60761 0
M  V30 7594 H 726.788 -4.10439 0.770026 0
M  V30 7595 N 727.225 -1.14528 -1.08264 0
M  V30 7596 C 728.45 -0.938381 -1.84957 0
M  V30 7597 C 728.875 0.508044 -1.81109 0
M  V30 7598 O 728.233 1.36146 -1.19724 0
M  V30 7599 C 728.281 -1.44568 -3.30352 0
M  V30 7600 O 727.385 -0.638745 -4.07423 0
M  V30 7601 H 726.726 -0.335394 -0.573068 0
M  V30 7602 H 729.256 -1.52287 -1.36637 0
M  V30 7603 H 729.266 -1.45449 -3.81194 0
M  V30 7604 H 727.941 -2.49876 -3.32468 0
M  V30 7605 H 726.518 -0.698801 -3.66294 0
M  V30 7606 N 728.703 1.26451 -0.940633 0
M  V30 7607 C 729.633 2.28773 -0.467479 0
M  V30 7608 C 730.614 1.63218 0.478955 0
M  V30 7609 O 731.799 1.90427 0.380929 0
M  V30 7610 C 728.929 3.46259 0.268656 0
M  V30 7611 C 727.883 4.23898 -0.591171 0
M  V30 7612 C 727.209 5.33993 0.274891 0
M  V30 7613 C 728.509 4.87974 -1.86223 0
M  V30 7614 H 730.203 2.68601 -1.32265 0
M  V30 7615 H 727.749 1.29123 -0.637436 0
M  V30 7616 H 729.702 4.16951 0.610696 0
M  V30 7617 H 728.426 3.05383 1.15796 0
M  V30 7618 H 727.085 3.54969 -0.916098 0
M  V30 7619 H 726.733 4.89358 1.16353 0
M  V30 7620 H 726.433 5.86849 -0.297006 0
M  V30 7621 H 727.957 6.07523 0.612213 0
M  V30 7622 H 729.371 5.50883 -1.58747 0
M  V30 7623 H 727.768 5.50945 -2.37866 0
M  V30 7624 H 728.838 4.10945 -2.57394 0
M  V30 7625 N 730.181 0.707592 1.40822 0
M  V30 7626 C 731.406 0.251626 2.05868 0
M  V30 7627 C 731.831 -1.09503 1.5294 0
M  V30 7628 O 731.189 -1.68806 0.661385 0
M  V30 7629 C 731.237 0.23287 3.59847 0
M  V30 7630 O 730.341 -0.788477 4.04792 0
M  V30 7631 H 729.682 0.119936 0.653078 0
M  V30 7632 H 732.212 0.96583 1.80369 0
M  V30 7633 H 732.222 0.0678204 4.07944 0
M  V30 7634 H 730.897 1.21565 3.97737 0
M  V30 7635 H 729.474 -0.591802 3.68174 0
M  V30 7636 N 731.66 -1.50943 0.453197 0
M  V30 7637 C 732.623 -2.26684 -0.338705 0
M  V30 7638 C 733.623 -1.30748 -0.936032 0
M  V30 7639 O 734.813 -1.54327 -0.808002 0
M  V30 7640 C 731.945 -3.07063 -1.48071 0
M  V30 7641 H 733.138 -2.98131 0.325289 0
M  V30 7642 H 730.691 -1.54926 0.206771 0
M  V30 7643 H 731.426 -2.4007 -2.18029 0
M  V30 7644 H 731.211 -3.77545 -1.0584 0
M  V30 7645 H 732.701 -3.64393 -2.0398 0
M  V30 7646 N 733.138 -0.185124 -1.56509 0
M  V30 7647 C 734.549 0.329221 -1.83774 0
M  V30 7648 C 734.9 1.62093 -1.10545 0
M  V30 7649 O 734.025 2.13334 -0.36298 0
M  V30 7650 C 734.62 0.604099 -3.33371 0
M  V30 7651 C 733.179 1.06284 -3.61083 0
M  V30 7652 C 732.326 0.10608 -2.77097 0
M  V30 7653 H 735.277 -0.409116 -1.53336 0
M  V30 7654 H 735.298 1.45458 -3.51599 0
M  V30 7655 H 734.81 -0.336201 -3.86641 0
M  V30 7656 H 732.911 2.01777 -3.13236 0
M  V30 7657 H 733.024 0.962453 -4.69333 0
M  V30 7658 H 731.388 0.606082 -2.47384 0
M  V30 7659 H 732.171 -0.828486 -3.33153 0
M  V30 7660 N 734.616 1.57351 0.0885366 0
M  V30 7661 C 735.526 2.05858 1.12516 0
M  V30 7662 C 736.542 0.984758 1.43452 0
M  V30 7663 O 737.718 1.29836 1.53963 0
M  V30 7664 C 734.783 2.47882 2.42395 0
M  V30 7665 C 733.844 3.69487 2.18582 0
M  V30 7666 C 733.077 4.09497 3.42268 0
M  V30 7667 O 733.3 3.49536 4.50755 0
M  V30 7668 O 732.234 5.02406 3.31469 0
M  V30 7669 H 736.06 2.94467 0.743146 0
M  V30 7670 H 733.645 1.46326 0.301507 0
M  V30 7671 H 735.527 2.75509 3.18862 0
M  V30 7672 H 734.202 1.62408 2.8001 0
M  V30 7673 H 733.109 3.46967 1.39875 0
M  V30 7674 H 734.442 4.55761 1.85857 0
M  V30 7675 N 736.094 -0.359525 1.53444 0
M  V30 7676 C 737.505 -0.936009 1.61542 0
M  V30 7677 C 737.856 -1.90069 0.486633 0
M  V30 7678 O 736.981 -2.12929 -0.386047 0
M  V30 7679 C 737.576 -1.70441 2.92806 0
M  V30 7680 C 736.135 -2.23015 3.03218 0
M  V30 7681 C 735.282 -1.04438 2.56881 0
M  V30 7682 H 738.233 -0.138134 1.58098 0
M  V30 7683 H 738.254 -2.56609 2.80948 0
M  V30 7684 H 737.766 -1.00205 3.74941 0
M  V30 7685 H 735.867 -2.96475 2.25684 0
M  V30 7686 H 735.98 -2.50481 4.08407 0
M  V30 7687 H 734.344 -1.41314 2.11902 0
M  V30 7688 H 735.127 -0.356905 3.4144 0
M  V30 7689 N 737.572 -1.44907 -0.619662 0
M  V30 7690 C 738.535 -1.52282 -1.71297 0
M  V30 7691 C 739.535 -0.40359 -1.55653 0
M  V30 7692 O 740.725 -0.666638 -1.6094 0
M  V30 7693 C 737.857 -1.40778 -3.10474 0
M  V30 7694 H 739.05 -2.49683 -1.66128 0
M  V30 7695 H 736.603 -1.32168 -0.834339 0
M  V30 7696 H 737.338 -0.445156 -3.2123 0
M  V30 7697 H 737.123 -2.21947 -3.23237 0
M  V30 7698 H 738.613 -1.48946 -3.90135 0
M  V30 7699 N 739.05 0.861098 -1.31996 0
M  V30 7700 C 740.275 1.65264 -1.2531 0
M  V30 7701 C 740.7 1.87265 0.177007 0
M  V30 7702 O 740.058 1.4208 1.12619 0
M  V30 7703 C 740.106 2.99284 -2.0115 0
M  V30 7704 O 739.21 3.89508 -1.3549 0
M  V30 7705 H 738.551 0.50409 -0.432192 0
M  V30 7706 H 741.081 1.07297 -1.74208 0
M  V30 7707 H 741.091 3.49154 -2.11081 0
M  V30 7708 H 739.766 2.82591 -3.05148 0
M  V30 7709 H 738.343 3.47966 -1.34066 0
M  V30 7710 N 740.528 1.15101 1.07655 0
M  V30 7711 C 741.46 0.802722 2.14684 0
M  V30 7712 C 742.473 -0.183874 1.61758 0
M  V30 7713 O 743.662 0.0389349 1.78458 0
M  V30 7714 C 740.762 0.172135 3.38463 0
M  V30 7715 C 739.935 1.19538 4.20749 0
M  V30 7716 C 738.994 0.58714 5.22914 0
M  V30 7717 O 738.02 1.25224 5.55255 0
M  V30 7718 N 739.222 -0.632566 5.77043 0
M  V30 7719 H 741.987 1.72379 2.45164 0
M  V30 7720 H 739.548 1.04647 1.23534 0
M  V30 7721 H 741.54 -0.247465 4.03943 0
M  V30 7722 H 740.11 -0.652214 3.0572 0
M  V30 7723 H 739.33 1.79165 3.51132 0
M  V30 7724 H 740.618 1.88636 4.7254 0
M  V30 7725 H 740.016 -1.19135 5.53013 0
M  V30 7726 H 738.573 -0.994566 6.44167 0
M  V30 7727 N 742.006 -1.2595 0.947325 0
M  V30 7728 C 742.969 -2.24407 0.466285 0
M  V30 7729 C 743.969 -1.55054 -0.426005 0
M  V30 7730 O 745.159 -1.7275 -0.224319 0
M  V30 7731 C 742.291 -3.39326 -0.327201 0
M  V30 7732 H 743.484 -2.68477 1.33642 0
M  V30 7733 H 741.037 -1.38211 0.729887 0
M  V30 7734 H 741.772 -3.00667 -1.21532 0
M  V30 7735 H 741.557 -3.9085 0.312839 0
M  V30 7736 H 743.047 -4.12455 -0.653477 0
M  V30 7737 N 743.484 -0.715051 -1.40445 0
M  V30 7738 C 744.9 -0.388555 -1.54798 0
M  V30 7739 C 745.1 1.10271 -1.68649 0
M  V30 7740 O 744.156 1.88875 -1.67578 0
M  V30 7741 C 745.469 -1.15414 -2.77669 0
M  V30 7742 C 747.017 -1.14039 -2.91486 0
M  V30 7743 C 747.492 -1.88812 -4.1727 0
M  V30 7744 N 748.983 -1.85878 -4.24268 0
M  V30 7745 C 749.718 -2.40558 -5.20499 0
M  V30 7746 N 749.214 -3.03791 -6.22642 0
M  V30 7747 N 751.007 -2.30703 -5.12574 0
M  V30 7748 H 743.158 -1.68201 -1.297 0
M  V30 7749 H 745.421 -0.710915 -0.627139 0
M  V30 7750 H 745.127 -2.20853 -2.7371 0
M  V30 7751 H 745.001 -0.745412 -3.69761 0
M  V30 7752 H 747.388 -0.0941996 -2.9495 0
M  V30 7753 H 747.469 -1.58834 -2.00513 0
M  V30 7754 H 747.113 -2.93422 -4.14568 0
M  V30 7755 H 747.043 -1.41438 -5.0725 0
M  V30 7756 H 749.534 -1.39794 -3.51093 0
M  V30 7757 H 749.847 -3.43032 -6.92495 0
M  V30 7758 H 748.192 -3.07875 -6.23087 0
M  V30 7759 H 751.383 -1.80961 -4.31707 0
M  V30 7760 H 751.556 -2.73618 -5.87398 0
M  V30 7761 N 744.962 1.50701 -0.461195 0
M  V30 7762 C 746.208 2.02566 0.0973411 0
M  V30 7763 C 746.541 1.3432 1.40257 0
M  V30 7764 O 745.816 0.465692 1.88843 0
M  V30 7765 C 746.099 3.58919 0.291423 0
M  V30 7766 C 745.952 4.37751 -1.03413 0
M  V30 7767 C 747.271 4.27379 1.05048 0
M  V30 7768 H 744.39 0.73622 0.0339026 0
M  V30 7769 H 747.032 1.80115 -0.604855 0
M  V30 7770 H 745.182 3.78179 0.889539 0
M  V30 7771 H 746.854 4.30085 -1.66806 0
M  V30 7772 H 745.097 4.01885 -1.63313 0
M  V30 7773 H 745.768 5.45384 -0.852085 0
M  V30 7774 H 748.244 4.12534 0.543603 0
M  V30 7775 H 747.12 5.36609 1.15506 0
M  V30 7776 H 747.381 3.89868 2.0846 0
M  V30 7777 N 746.441 0.193421 1.56409 0
M  V30 7778 C 747.371 -0.723334 2.22014 0
M  V30 7779 C 748.352 -1.22254 1.1827 0
M  V30 7780 O 749.537 -1.27168 1.46771 0
M  V30 7781 C 746.667 -1.94366 2.87818 0
M  V30 7782 C 745.621 -1.57943 3.97791 0
M  V30 7783 C 744.947 -2.87623 4.50752 0
M  V30 7784 C 746.247 -0.790639 5.16281 0
M  V30 7785 H 747.941 -0.176426 2.9888 0
M  V30 7786 H 745.487 -0.0834166 1.43758 0
M  V30 7787 H 747.44 -2.5902 3.32396 0
M  V30 7788 H 746.164 -2.51507 2.08355 0
M  V30 7789 H 744.823 -0.956482 3.53903 0
M  V30 7790 H 744.471 -3.4285 3.68053 0
M  V30 7791 H 744.171 -2.63998 5.24956 0
M  V30 7792 H 745.695 -3.53268 4.9803 0
M  V30 7793 H 747.109 -1.34024 5.57414 0
M  V30 7794 H 745.506 -0.65258 5.96541 0
M  V30 7795 H 746.576 0.208633 4.84451 0
M  V30 7796 N 747.919 -1.57396 -0.0801906 0
M  V30 7797 C 749.144 -1.91437 -0.797909 0
M  V30 7798 C 749.569 -0.789075 -1.70749 0
M  V30 7799 O 748.927 0.25857 -1.79447 0
M  V30 7800 C 748.975 -3.24402 -1.57467 0
M  V30 7801 O 748.079 -3.13043 -2.68473 0
M  V30 7802 H 747.42 -0.627109 -0.218243 0
M  V30 7803 H 749.95 -2.04537 -0.050949 0
M  V30 7804 H 749.96 -3.58072 -1.95571 0
M  V30 7805 H 748.635 -4.05884 -0.907229 0
M  V30 7806 H 747.212 -2.90915 -2.33287 0
M  V30 7807 N 749.397 0.351382 -1.53633 0
M  V30 7808 C 750.622 1.11718 -1.74739 0
M  V30 7809 C 751.047 1.81829 -0.481657 0
M  V30 7810 O 750.405 1.72264 0.565233 0
M  V30 7811 C 750.453 2.11234 -2.92254 0
M  V30 7812 O 749.557 3.186 -2.61855 0
M  V30 7813 H 748.898 0.323482 -0.579875 0
M  V30 7814 H 751.428 0.404167 -2.00568 0
M  V30 7815 H 751.438 2.54591 -3.18822 0
M  V30 7816 H 750.113 1.59599 -3.84058 0
M  V30 7817 H 748.69 2.80115 -2.4615 0
M  V30 7818 N 750.875 1.45233 0.611969 0
M  V30 7819 C 752.1 1.52767 1.40274 0
M  V30 7820 C 752.525 0.159701 1.87421 0
M  V30 7821 O 751.883 -0.854837 1.59882 0
M  V30 7822 C 751.931 2.51286 2.58626 0
M  V30 7823 O 751.035 2.02764 3.59111 0
M  V30 7824 H 750.376 0.515141 0.418958 0
M  V30 7825 H 752.906 1.90547 0.745188 0
M  V30 7826 H 752.916 2.69949 3.05927 0
M  V30 7827 H 751.591 3.50641 2.23659 0
M  V30 7828 H 750.168 1.93957 3.18489 0
M  V30 7829 N 752.353 -0.854086 1.3245 0
M  V30 7830 C 753.263 -1.99503 1.23434 0
M  V30 7831 C 754.279 -1.73371 0.147828 0
M  V30 7832 O 755.455 -1.97998 0.368609 0
M  V30 7833 C 752.52 -3.33192 0.958328 0
M  V30 7834 C 751.581 -3.72542 2.13333 0
M  V30 7835 C 750.814 -4.99852 1.8704 0
M  V30 7836 O 751.037 -5.64573 0.813239 0
M  V30 7837 O 749.971 -5.36345 2.73161 0
M  V30 7838 H 753.797 -2.10046 2.1935 0
M  V30 7839 H 751.382 -0.984823 1.12346 0
M  V30 7840 H 753.264 -4.13327 0.820918 0
M  V30 7841 H 751.939 -3.23687 0.0293299 0
M  V30 7842 H 750.846 -2.92981 2.32622 0
M  V30 7843 H 752.179 -3.86694 3.04514 0
M  V30 7844 N 753.831 -1.1567 -1.07043 0
M  V30 7845 C 755.059 -0.957471 -1.83412 0
M  V30 7846 C 755.474 0.494271 -1.82215 0
M  V30 7847 O 754.831 1.34288 -1.23584 0
M  V30 7848 C 754.882 -1.46784 -3.30359 0
M  V30 7849 O 754.603 -2.86271 -3.31633 0
M  V30 7850 C 756.104 -1.31054 -4.23485 0
M  V30 7851 H 753.324 -0.33986 -0.578564 0
M  V30 7852 H 755.868 -1.53518 -1.35102 0
M  V30 7853 H 754.023 -0.932586 -3.76007 0
M  V30 7854 H 754.437 -3.0948 -4.23465 0
M  V30 7855 H 755.911 -1.71605 -5.24648 0
M  V30 7856 H 756.388 -0.255107 -4.38458 0
M  V30 7857 H 756.994 -1.83503 -3.83676 0
M  V30 7858 N 755.309 1.25446 -0.953992 0
M  V30 7859 C 756.72 1.75047 -0.649255 0
M  V30 7860 C 757.071 1.77527 0.835385 0
M  V30 7861 O 756.196 1.39569 1.65377 0
M  V30 7862 C 756.791 3.17889 -1.17183 0
M  V30 7863 C 755.35 3.65052 -0.917267 0
M  V30 7864 C 754.497 2.44124 -1.31525 0
M  V30 7865 H 757.448 1.11342 -1.13087 0
M  V30 7866 H 757.469 3.76768 -0.531616 0
M  V30 7867 H 756.981 3.16052 -2.25239 0
M  V30 7868 H 755.082 3.72305 0.148354 0
M  V30 7869 H 755.195 4.53222 -1.55328 0
M  V30 7870 H 753.559 2.43906 -0.733624 0
M  V30 7871 H 754.342 2.44979 -2.405 0
M  V30 7872 N 756.787 0.722489 1.40064 0
M  V30 7873 C 757.75 0.0830209 2.2905 0
M  V30 7874 C 758.75 -0.680208 1.45705 0
M  V30 7875 O 759.94 -0.511084 1.66534 0
M  V30 7876 C 757.072 -0.892092 3.29021 0
M  V30 7877 H 758.265 0.866848 2.87099 0
M  V30 7878 H 755.818 0.487556 1.48501 0
M  V30 7879 H 756.553 -1.70273 2.76003 0
M  V30 7880 H 756.338 -0.34761 3.90556 0
M  V30 7881 H 757.828 -1.33648 3.95636 0
M  V30 7882 N 758.265 -1.50454 0.469181 0
M  V30 7883 C 759.681 -1.59124 0.123226 0
M  V30 7884 C 759.881 -1.47749 -1.37013 0
M  V30 7885 O 758.937 -1.335 -2.14322 0
M  V30 7886 C 760.25 -2.93101 0.67172 0
M  V30 7887 C 761.798 -3.06491 0.634978 0
M  V30 7888 C 762.273 -4.43041 1.16098 0
M  V30 7889 N 763.764 -4.49448 1.12031 0
M  V30 7890 C 764.499 -5.53491 1.49784 0
M  V30 7891 N 763.995 -6.64798 1.94976 0
M  V30 7892 N 765.788 -5.44025 1.41399 0
M  V30 7893 H 757.939 -1.56091 1.44046 0
M  V30 7894 H 760.202 -0.737564 0.59557 0
M  V30 7895 H 759.908 -3.06895 1.7178 0
M  V30 7896 H 759.782 -3.77027 0.114222 0
M  V30 7897 H 762.169 -2.92346 -0.402187 0
M  V30 7898 H 762.25 -2.24328 1.22926 0
M  V30 7899 H 761.894 -4.57935 2.19677 0
M  V30 7900 H 761.824 -5.23794 0.542939 0
M  V30 7901 H 764.315 -3.69575 0.788828 0
M  V30 7902 H 764.628 -7.40246 2.21936 0
M  V30 7903 H 762.973 -6.65923 1.98927 0
M  V30 7904 H 766.164 -4.55955 1.05935 0
M  V30 7905 H 766.337 -6.2499 1.71147 0
M  V30 7906 N 759.743 -0.201713 -1.56304 0
M  V30 7907 C 760.971 0.440723 -2.02152 0
M  V30 7908 C 761.386 1.54735 -1.08179 0
M  V30 7909 O 760.743 1.82289 -0.0878196 0
M  V30 7910 C 760.794 0.990884 -3.47655 0
M  V30 7911 O 760.515 -0.0715937 -4.38041 0
M  V30 7912 C 762.016 1.70854 -4.09052 0
M  V30 7913 H 759.236 0.109987 -0.661924 0
M  V30 7914 H 761.78 -0.312358 -2.021 0
M  V30 7915 H 759.935 1.69432 -3.48384 0
M  V30 7916 H 760.349 0.338892 -5.23404 0
M  V30 7917 H 761.823 2.04572 -5.12693 0
M  V30 7918 H 762.3 2.61462 -3.52894 0
M  V30 7919 H 762.906 1.0508 -4.12114 0
M  V30 7920 N 761.222 1.57436 0.0718424 0
M  V30 7921 C 762.152 2.06724 1.08571 0
M  V30 7922 C 763.133 0.960731 1.40371 0
M  V30 7923 O 764.318 1.23345 1.49999 0
M  V30 7924 C 761.448 2.51112 2.39916 0
M  V30 7925 C 760.402 3.65639 2.22469 0
M  V30 7926 C 759.728 3.96082 3.59198 0
M  V30 7927 C 761.028 4.95687 1.64596 0
M  V30 7928 H 762.722 2.91679 0.675569 0
M  V30 7929 H 760.268 1.40319 0.32352 0
M  V30 7930 H 762.221 2.84206 3.11135 0
M  V30 7931 H 760.945 1.63186 2.8291 0
M  V30 7932 H 759.604 3.32828 1.53691 0
M  V30 7933 H 759.252 3.05287 3.99761 0
M  V30 7934 H 758.952 4.73199 3.48362 0
M  V30 7935 H 760.476 4.31672 4.31847 0
M  V30 7936 H 761.89 5.27011 2.25681 0
M  V30 7937 H 760.287 5.77126 1.64457 0
M  V30 7938 H 761.357 4.8108 0.60744 0
M  V30 7939 N 762.7 -0.34323 1.53817 0
M  V30 7940 C 764.111 -0.918823 1.62525 0
M  V30 7941 C 764.462 -1.89542 0.506765 0
M  V30 7942 O 763.587 -2.13326 -0.363441 0
M  V30 7943 C 764.182 -1.67326 2.94597 0
M  V30 7944 C 762.741 -2.19786 3.05567 0
M  V30 7945 C 761.888 -1.01708 2.57974 0
M  V30 7946 H 764.839 -0.121358 1.58235 0
M  V30 7947 H 764.86 -2.53615 2.83654 0
M  V30 7948 H 764.372 -0.962223 3.75983 0
M  V30 7949 H 762.473 -2.94065 2.28816 0
M  V30 7950 H 762.586 -2.46135 4.1104 0
M  V30 7951 H 760.95 -1.39058 2.13389 0
M  V30 7952 H 761.733 -0.320671 3.41799 0
M  V30 7953 N 764.178 -1.45556 -0.604258 0
M  V30 7954 C 765.425 -1.49746 -1.36317 0
M  V30 7955 C 765.753 -0.140516 -1.93992 0
M  V30 7956 O 765.008 0.861244 -1.7573 0
M  V30 7957 C 765.307 -2.52697 -2.52743 0
M  V30 7958 C 764.973 -3.97315 -2.13195 0
M  V30 7959 C 763.635 -4.36692 -2.02123 0
M  V30 7960 C 765.987 -4.88249 -1.8238 0
M  V30 7961 C 763.315 -5.64895 -1.58463 0
M  V30 7962 C 765.667 -6.16867 -1.40205 0
M  V30 7963 C 764.331 -6.55172 -1.27694 0
M  V30 7964 H 763.601 -0.54796 -0.49882 0
M  V30 7965 H 766.248 -1.7892 -0.682643 0
M  V30 7966 H 764.553 -2.17105 -3.26148 0
M  V30 7967 H 766.25 -2.53176 -3.10971 0
M  V30 7968 H 762.84 -3.66176 -2.22739 0
M  V30 7969 H 767.024 -4.58561 -1.89829 0
M  V30 7970 H 762.28 -5.93365 -1.47402 0
M  V30 7971 H 766.454 -6.86771 -1.15408 0
M  V30 7972 H 764.081 -7.54411 -0.936375 0
M  V30 7973 N 765.656 0.84705 -1.32902 0
M  V30 7974 C 766.884 1.63403 -1.26913 0
M  V30 7975 C 767.299 1.88108 0.161483 0
M  V30 7976 O 766.656 1.45546 1.10103 0
M  V30 7977 C 766.707 2.98896 -2.03331 0
M  V30 7978 O 766.428 2.75281 -3.40811 0
M  V30 7979 C 767.929 3.93335 -2.04457 0
M  V30 7980 H 765.149 0.508701 -0.437566 0
M  V30 7981 H 767.693 1.05567 -1.75145 0
M  V30 7982 H 765.848 3.53356 -1.58802 0
M  V30 7983 H 766.262 3.61504 -3.8002 0
M  V30 7984 H 767.736 4.85647 -2.62394 0
M  V30 7985 H 768.213 4.26885 -1.03274 0
M  V30 7986 H 768.819 3.44812 -2.48967 0
M  V30 7987 N 767.134 1.16236 1.06428 0
M  V30 7988 C 768.362 0.967184 1.82902 0
M  V30 7989 C 768.777 -0.484601 1.82475 0
M  V30 7990 O 768.134 -1.33631 1.24294 0
M  V30 7991 C 768.185 1.48534 3.29576 0
M  V30 7992 O 767.906 2.88026 3.3011 0
M  V30 7993 C 769.407 1.33298 4.22784 0
M  V30 7994 H 766.627 0.342923 0.576754 0
M  V30 7995 H 769.171 1.54232 1.34286 0
M  V30 7996 H 767.326 0.952513 3.75508 0
M  V30 7997 H 767.74 3.11721 4.21818 0
M  V30 7998 H 769.214 1.74385 5.23731 0
M  V30 7999 H 769.691 0.278356 4.38317 0
M  V30 8000 H 770.297 1.85535 3.82697 0
M  V30 8001 N 768.612 -1.24939 0.960631 0
M  V30 8002 C 769.86 -1.92437 0.617441 0
M  V30 8003 C 770.181 -1.75543 -0.849101 0
M  V30 8004 O 769.451 -1.12269 -1.60538 0
M  V30 8005 H 768.031 -0.712192 0.225371 0
M  V30 8006 H 770.693 -1.5198 1.22017 0
M  V30 8007 H 769.789 -3.00247 0.851933 0
M  V30 8008 N 770.09 -0.729906 -1.39679 0
M  V30 8009 C 771.02 -0.101618 -2.33279 0
M  V30 8010 C 772.001 0.729854 -1.53646 0
M  V30 8011 O 773.186 0.67587 -1.82059 0
M  V30 8012 C 770.316 0.81024 -3.37716 0
M  V30 8013 C 769.27 0.0833126 -4.27919 0
M  V30 8014 C 768.596 1.11185 -5.23012 0
M  V30 8015 C 769.896 -1.07107 -5.112 0
M  V30 8016 H 771.59 -0.883452 -2.86069 0
M  V30 8017 H 769.136 -0.426283 -1.37546 0
M  V30 8018 H 771.089 1.25927 -4.02145 0
M  V30 8019 H 769.813 1.62413 -2.83354 0
M  V30 8020 H 768.472 -0.346043 -3.64963 0
M  V30 8021 H 768.12 1.91917 -4.64948 0
M  V30 8022 H 767.82 0.63026 -5.8421 0
M  V30 8023 H 769.344 1.56068 -5.90318 0
M  V30 8024 H 770.758 -0.700726 -5.69002 0
M  V30 8025 H 769.155 -1.48196 -5.81514 0
M  V30 8026 H 770.225 -1.89513 -4.46332 0
M  V30 8027 N 771.568 1.50203 -0.477153 0
M  V30 8028 C 772.817 2.01551 0.0774548 0
M  V30 8029 C 773.13 1.36359 1.40234 0
M  V30 8030 O 774.336 1.78898 2.04225 0
M  V30 8031 C 772.792 3.59406 0.188539 0
M  V30 8032 C 772.4 4.3356 -1.12828 0
M  V30 8033 C 774.144 4.18776 0.694782 0
M  V30 8034 C 772.051 5.83213 -0.98066 0
M  V30 8035 H 770.981 0.75329 0.0327212 0
M  V30 8036 H 773.632 1.72959 -0.612969 0
M  V30 8037 H 772.014 3.84611 0.942881 0
M  V30 8038 H 773.188 4.20074 -1.89405 0
M  V30 8039 H 771.503 3.85827 -1.5661 0
M  V30 8040 H 774.1 5.28338 0.822356 0
M  V30 8041 H 774.443 3.80557 1.68766 0
M  V30 8042 H 774.976 3.978 -0.00234519 0
M  V30 8043 H 771.715 6.25914 -1.94709 0
M  V30 8044 H 771.235 5.99256 -0.255375 0
M  V30 8045 H 772.914 6.4373 -0.649717 0
M  V30 8046 N 773.046 0.209999 1.56195 0
M  V30 8047 C 774.276 -0.429373 2.02089 0
M  V30 8048 C 774.684 -1.54703 1.0892 0
M  V30 8049 O 774.027 -1.83485 0.0889535 0
M  V30 8050 C 774.089 -1.03266 3.44349 0
M  V30 8051 C 773.753 -0.0518873 4.56971 0
M  V30 8052 C 774.75 0.744249 5.14545 0
M  V30 8053 C 772.435 0.0635185 5.0226 0
M  V30 8054 C 774.429 1.64261 6.15871 0
M  V30 8055 C 772.116 0.965423 6.03426 0
M  V30 8056 C 773.114 1.75352 6.60106 0
M  V30 8057 O 772.802 2.64029 7.59305 0
M  V30 8058 H 772.534 -0.110604 0.66689 0
M  V30 8059 H 775.088 0.320436 2.02885 0
M  V30 8060 H 773.318 -1.83134 3.40586 0
M  V30 8061 H 775.007 -1.57823 3.73961 0
M  V30 8062 H 775.773 0.665476 4.80413 0
M  V30 8063 H 771.652 -0.539762 4.57829 0
M  V30 8064 H 775.196 2.25819 6.60039 0
M  V30 8065 H 771.093 1.04526 6.36981 0
M  V30 8066 H 771.861 2.57974 7.76783 0
M  V30 8067 N 774.524 -1.57472 -0.0634922 0
M  V30 8068 C 775.801 -1.78736 -0.794538 0
M  V30 8069 C 776.181 -0.799645 -1.95369 0
M  V30 8070 O 775.529 0.165521 -2.279 0
M  V30 8071 C 775.739 -3.25471 -1.25975 0
M  V30 8072 C 777.087 -3.89528 -1.68976 0
M  V30 8073 O 778.111 -3.29412 -1.35521 0
M  V30 8074 O 776.97 -4.95305 -2.30944 0
M  V30 8075 H 774.064 -0.733813 -0.381376 0
M  V30 8076 H 776.61 -1.69646 -0.0429258 0
M  V30 8077 H 775.382 -3.88922 -0.430721 0
M  V30 8078 H 775.005 -3.39317 -2.07243 0
M  V30 8079 N 776.003 0.335068 -1.53997 0
M  V30 8080 C 777.228 1.09859 -1.75914 0
M  V30 8081 C 777.653 1.81308 -0.500915 0
M  V30 8082 O 777.011 1.72854 0.54693 0
M  V30 8083 C 777.059 2.08122 -2.94478 0
M  V30 8084 O 776.163 3.15805 -2.65219 0
M  V30 8085 H 775.504 0.317313 -0.583274 0
M  V30 8086 H 778.034 0.382872 -2.00986 0
M  V30 8087 H 778.044 2.51195 -3.21504 0
M  V30 8088 H 776.719 1.55517 -3.8573 0
M  V30 8089 H 775.296 2.77489 -2.49107 0
M  V30 8090 N 777.481 1.45874 0.596531 0
M  V30 8091 C 778.727 1.5069 1.35722 0
M  V30 8092 C 779.06 0.152506 1.936 0
M  V30 8093 O 778.335 -0.834411 1.75692 0
M  V30 8094 C 778.618 2.59474 2.4969 0
M  V30 8095 C 778.471 4.04396 1.96937 0
M  V30 8096 C 779.79 2.64451 3.51787 0
M  V30 8097 H 776.909 0.548611 0.492133 0
M  V30 8098 H 779.551 1.77741 0.671428 0
M  V30 8099 H 777.701 2.36539 3.08191 0
M  V30 8100 H 779.373 4.38576 1.43 0
M  V30 8101 H 777.616 4.14529 1.27859 0
M  V30 8102 H 778.287 4.76218 2.79143 0
M  V30 8103 H 780.763 2.85031 3.03145 0
M  V30 8104 H 779.639 3.42411 4.29006 0
M  V30 8105 H 779.9 1.69965 4.08123 0
M  V30 8106 N 778.959 -0.83999 1.33349 0
M  V30 8107 C 779.892 -1.95415 1.17848 0
M  V30 8108 C 780.87 -1.6243 0.0742296 0
M  V30 8109 O 782.054 -1.87014 0.23626 0
M  V30 8110 C 779.181 -3.28938 0.807295 0
M  V30 8111 C 778.227 -3.80895 1.91888 0
M  V30 8112 S 779.06 -4.02709 3.52967 0
M  V30 8113 C 780.216 -5.39185 3.17853 0
M  V30 8114 H 780.449 -2.08265 2.12162 0
M  V30 8115 H 777.982 -0.993643 1.18178 0
M  V30 8116 H 779.94 -4.06093 0.599914 0
M  V30 8117 H 778.601 -3.13881 -0.117234 0
M  V30 8118 H 777.794 -4.77508 1.6125 0
M  V30 8119 H 777.396 -3.10633 2.08286 0
M  V30 8120 H 779.688 -6.21978 2.68608 0
M  V30 8121 H 780.631 -5.74795 4.13542 0
M  V30 8122 H 781.039 -5.03885 2.5448 0
M  V30 8123 N 780.437 -1.16799 -1.0581 0
M  V30 8124 C 781.367 -0.902241 -2.15364 0
M  V30 8125 C 782.348 0.153351 -1.69407 0
M  V30 8126 O 783.533 0.00442032 -1.94199 0
M  V30 8127 C 780.663 -0.407911 -3.44896 0
M  V30 8128 C 779.617 -1.40197 -4.04387 0
M  V30 8129 C 778.943 -0.765848 -5.29187 0
M  V30 8130 C 780.243 -2.77316 -4.42598 0
M  V30 8131 H 781.937 -1.81841 -2.37853 0
M  V30 8132 H 779.483 -0.875731 -1.14311 0
M  V30 8133 H 781.436 -0.20945 -4.20879 0
M  V30 8134 H 780.16 0.54378 -3.22041 0
M  V30 8135 H 778.819 -1.58707 -3.30466 0
M  V30 8136 H 778.467 0.192482 -5.02632 0
M  V30 8137 H 778.167 -1.42939 -5.69949 0
M  V30 8138 H 779.691 -0.577519 -6.07863 0
M  V30 8139 H 781.105 -2.62561 -5.09642 0
M  V30 8140 H 779.502 -3.4019 -4.94359 0
M  V30 8141 H 780.572 -3.32199 -3.53231 0
M  V30 8142 N 781.915 1.24427 -0.967243 0
M  V30 8143 C 782.862 2.25398 -0.496419 0
M  V30 8144 C 783.832 1.59667 0.457781 0
M  V30 8145 O 785.017 1.87213 0.368246 0
M  V30 8146 C 782.157 3.44474 0.207693 0
M  V30 8147 C 781.27 4.24804 -0.785221 0
M  V30 8148 C 780.405 5.31169 -0.0572631 0
M  V30 8149 C 779.444 6.03195 -1.04027 0
M  V30 8150 N 778.581 7.01265 -0.34235 0
M  V30 8151 H 783.421 2.65039 -1.36229 0
M  V30 8152 H 780.958 1.30288 -0.682902 0
M  V30 8153 H 782.916 4.12376 0.632612 0
M  V30 8154 H 781.546 3.05672 1.03752 0
M  V30 8155 H 780.598 3.56445 -1.32858 0
M  V30 8156 H 781.91 4.74599 -1.53483 0
M  V30 8157 H 781.064 6.05205 0.425674 0
M  V30 8158 H 779.803 4.8228 0.725047 0
M  V30 8159 H 778.808 5.27964 -1.53409 0
M  V30 8160 H 780.033 6.54173 -1.82302 0
M  V30 8161 H 777.979 6.54648 0.420993 0
M  V30 8162 H 777.896 7.48939 -1.03084 0
M  V30 8163 H 779.164 7.7941 0.118634 0
M  V30 8164 N 783.393 0.737304 1.3929 0
M  V30 8165 C 784.343 0.0748537 2.27877 0
M  V30 8166 C 785.327 -0.71022 1.44377 0
M  V30 8167 O 786.519 -0.578851 1.67267 0
M  V30 8168 C 783.648 -0.82991 3.33118 0
M  V30 8169 C 782.734 -0.0388619 4.24082 0
M  V30 8170 N 783.125 0.989182 4.96033 0
M  V30 8171 C 781.423 -0.268167 4.45193 0
M  V30 8172 C 782.124 1.46639 5.62914 0
M  V30 8173 N 781.1 0.784581 5.37908 0
M  V30 8174 H 784.902 0.862457 2.80961 0
M  V30 8175 H 782.416 0.571845 1.51999 0
M  V30 8176 H 784.413 -1.31999 3.95452 0
M  V30 8177 H 783.073 -1.61665 2.81593 0
M  V30 8178 H 784.084 1.3706 4.99435 0
M  V30 8179 H 780.761 -1.02953 4.04607 0
M  V30 8180 H 782.151 2.32182 6.30508 0
M  V30 8181 N 784.871 -1.49948 0.485112 0
M  V30 8182 C 785.803 -2.26691 -0.338222 0
M  V30 8183 C 786.816 -1.32584 -0.944742 0
M  V30 8184 O 788.005 -1.57989 -0.830772 0
M  V30 8185 C 785.105 -3.04405 -1.48966 0
M  V30 8186 C 784.278 -4.25971 -0.993371 0
M  V30 8187 C 783.337 -4.85861 -2.02052 0
M  V30 8188 O 782.363 -5.46382 -1.59547 0
M  V30 8189 N 783.565 -4.74101 -3.34975 0
M  V30 8190 H 786.33 -2.97989 0.319748 0
M  V30 8191 H 783.891 -1.58772 0.316714 0
M  V30 8192 H 785.883 -3.41348 -2.17403 0
M  V30 8193 H 784.453 -2.35815 -2.05207 0
M  V30 8194 H 783.673 -3.93971 -0.134424 0
M  V30 8195 H 784.961 -5.0476 -0.639934 0
M  V30 8196 H 784.359 -4.26002 -3.72208 0
M  V30 8197 H 782.916 -5.15274 -3.9917 0
M  V30 8198 N 786.349 -0.21828 -1.56081 0
M  V30 8199 C 787.589 0.416193 -2.00118 0
M  V30 8200 C 787.953 1.5718 -1.10265 0
M  V30 8201 O 789.154 2.27206 -1.43635 0
M  V30 8202 C 787.425 0.842781 -3.47321 0
M  V30 8203 S 788.984 1.47182 -4.1338 0
M  V30 8204 H 785.802 0.132219 -0.698598 0
M  V30 8205 H 788.404 -0.326799 -1.92749 0
M  V30 8206 H 787.108 -0.00799925 -4.10399 0
M  V30 8207 H 786.639 1.61867 -3.58556 0
M  V30 8208 H 788.654 2.76087 -4.12299 0
M  V30 8209 N 787.827 1.57504 0.0551401 0
M  V30 8210 C 789.052 1.92682 0.767352 0
M  V30 8211 C 789.477 0.81614 1.69472 0
M  V30 8212 O 788.835 -0.229989 1.79835 0
M  V30 8213 C 788.883 3.26866 1.52286 0
M  V30 8214 O 787.987 3.17274 2.63459 0
M  V30 8215 H 787.328 0.630502 0.208238 0
M  V30 8216 H 789.858 2.04592 0.0184026 0
M  V30 8217 H 789.868 3.61138 1.8985 0
M  V30 8218 H 788.543 4.07276 0.842541 0
M  V30 8219 H 787.12 2.94589 2.2863 0
M  V30 8220 N 789.305 -0.326896 1.54172 0
M  V30 8221 C 790.545 -1.07349 1.73941 0
M  V30 8222 C 790.909 -1.85355 0.50075 0
M  V30 8223 O 792.11 -2.62562 0.575731 0
M  V30 8224 C 790.381 -1.97636 2.97783 0
M  V30 8225 S 791.94 -2.79292 3.3844 0
M  V30 8226 H 788.758 -0.362459 0.611673 0
M  V30 8227 H 791.36 -0.349884 1.92344 0
M  V30 8228 H 790.064 -1.39158 3.86087 0
M  V30 8229 H 789.595 -2.74406 2.81895 0
M  V30 8230 H 791.61 -4.00106 2.93478 0
M  V30 8231 N 790.784 -1.46188 -0.588786 0
M  V30 8232 C 792.032 -1.50885 -1.34455 0
M  V30 8233 C 792.353 -0.159555 -1.94346 0
M  V30 8234 O 791.623 0.813239 -1.78222 0
M  V30 8235 H 790.203 -0.555707 -0.499198 0
M  V30 8236 H 792.865 -1.82277 -0.690014 0
M  V30 8237 H 791.961 -2.25816 -2.15438 0
M  V30 8238 N 792.262 0.832906 -1.33792 0
M  V30 8239 C 793.539 1.57359 -1.16178 0
M  V30 8240 C 793.919 2.09372 0.269532 0
M  V30 8241 O 793.267 1.89993 1.26944 0
M  V30 8242 C 793.477 2.70279 -2.20795 0
M  V30 8243 C 794.825 3.39305 -2.55259 0
M  V30 8244 O 795.849 2.80526 -2.19508 0
M  V30 8245 O 794.708 4.45428 -3.16632 0
M  V30 8246 H 791.802 0.694025 -0.449731 0
M  V30 8247 H 794.348 0.875144 -1.45394 0
M  V30 8248 H 793.12 2.29527 -3.16911 0
M  V30 8249 H 792.743 3.47782 -1.927 0
M  V30 8250 N 793.74 1.17359 1.05189 0
M  V30 8251 C 794.688 0.886527 2.15043 0
M  V30 8252 C 795.682 -0.148834 1.68745 0
M  V30 8253 O 796.888 -0.00175123 1.8 0
M  V30 8254 H 793.263 0.269147 0.702185 0
M  V30 8255 H 795.234 1.82016 2.36459 0
M  V30 8256 C 793.983 0.416333 3.45198 0
M  V30 8257 H 793.306 1.20449 3.81225 0
M  V30 8258 H 794.746 0.254362 4.23236 0
M  V30 8259 C 793.205 -0.866016 3.25579 0
M  V30 8260 O 793.735 -1.9328 3.52144 0
M  V30 8261 N 791.941 -0.814179 2.78961 0
M  V30 8262 H 791.488 0.0541618 2.57543 0
M  V30 8263 H 791.446 -1.67264 2.66214 0
M  V30 8264 N 795.218 -1.23913 0.973828 0
M  V30 8265 C 796.443 -1.96735 0.656511 0
M  V30 8266 C 796.868 -1.71682 -0.768571 0
M  V30 8267 O 796.226 -0.984267 -1.52256 0
M  V30 8268 C 796.274 -3.48004 0.944735 0
M  V30 8269 O 795.378 -4.12387 0.0333357 0
M  V30 8270 H 794.719 -0.616119 0.247575 0
M  V30 8271 H 797.249 -1.57525 1.30564 0
M  V30 8272 H 797.259 -3.98424 0.87876 0
M  V30 8273 H 795.934 -3.65567 1.98328 0
M  V30 8274 H 794.511 -3.72585 0.153157 0
M  V30 8275 N 796.696 -0.74468 -1.38897 0
M  V30 8276 C 798.112 -0.421302 -1.53939 0
M  V30 8277 C 798.312 1.06668 -1.70951 0
M  V30 8278 O 797.368 1.85278 -1.71547 0
M  V30 8279 C 798.681 -1.21278 -2.75159 0
M  V30 8280 C 800.229 -1.20196 -2.89001 0
M  V30 8281 C 800.704 -1.97621 -4.13171 0
M  V30 8282 N 802.195 -1.94836 -4.2023 0
M  V30 8283 C 802.93 -2.51545 -5.15279 0
M  V30 8284 N 802.426 -3.1693 -6.16058 0
M  V30 8285 N 804.219 -2.41524 -5.07565 0
M  V30 8286 H 796.37 -1.70914 -1.26103 0
M  V30 8287 H 798.633 -0.724058 -0.611919 0
M  V30 8288 H 798.339 -2.26609 -2.68963 0
M  V30 8289 H 798.213 -0.823677 -3.68097 0
M  V30 8290 H 800.6 -0.156742 -2.94683 0
M  V30 8291 H 800.681 -1.63051 -1.97099 0
M  V30 8292 H 800.325 -3.02149 -4.0825 0
M  V30 8293 H 800.255 -1.52166 -5.04136 0
M  V30 8294 H 802.746 -1.4721 -3.48048 0
M  V30 8295 H 803.059 -3.57644 -6.85062 0
M  V30 8296 H 801.404 -3.21023 -6.16417 0
M  V30 8297 H 804.595 -1.90077 -4.27771 0
M  V30 8298 H 804.768 -2.86016 -5.81462 0
M  V30 8299 N 798.174 1.49689 -0.493057 0
M  V30 8300 C 799.124 2.25901 0.308682 0
M  V30 8301 C 800.108 1.30408 0.94247 0
M  V30 8302 O 801.3 1.55179 0.851384 0
M  V30 8303 C 798.429 3.14463 1.37725 0
M  V30 8304 C 797.515 4.17414 0.7501 0
M  V30 8305 N 797.906 5.05599 -0.142597 0
M  V30 8306 C 796.204 4.34377 1.01159 0
M  V30 8307 C 796.905 5.7954 -0.500782 0
M  V30 8308 N 795.881 5.43446 0.129386 0
M  V30 8309 H 799.683 2.91451 -0.378652 0
M  V30 8310 H 797.197 1.59441 -0.308614 0
M  V30 8311 H 799.194 3.67687 1.965 0
M  V30 8312 H 797.854 2.50464 2.06635 0
M  V30 8313 H 798.865 5.15354 -0.512894 0
M  V30 8314 H 795.542 3.81588 1.69402 0
M  V30 8315 H 796.932 6.60534 -1.23063 0
M  V30 8316 N 799.652 0.226554 1.55963 0
M  V30 8317 C 801.063 -0.280381 1.84583 0
M  V30 8318 C 801.414 -1.59105 1.14804 0
M  V30 8319 O 800.539 -2.12297 0.419414 0
M  V30 8320 C 801.134 -0.515499 3.34855 0
M  V30 8321 C 799.693 -0.966733 3.63774 0
M  V30 8322 C 798.84 -0.0325753 2.77281 0
M  V30 8323 H 801.791 0.449626 1.52197 0
M  V30 8324 H 801.812 -1.36085 3.55332 0
M  V30 8325 H 801.324 0.438594 3.85614 0
M  V30 8326 H 799.425 -1.93401 3.18476 0
M  V30 8327 H 799.538 -0.837679 4.7172 0
M  V30 8328 H 797.902 -0.540279 2.48904 0
M  V30 8329 H 798.685 0.916524 3.30839 0
M  V30 8330 N 801.13 -1.57531 -0.0467866 0
M  V30 8331 C 802.04 -2.08768 -1.07018 0
M  V30 8332 C 803.056 -1.02245 -1.40791 0
M  V30 8333 O 804.232 -1.33873 -1.50466 0
M  V30 8334 C 801.297 -2.54221 -2.35738 0
M  V30 8335 C 800.358 -3.75152 -2.08709 0
M  V30 8336 C 799.591 -4.18428 -3.31291 0
M  V30 8337 O 799.814 -3.61365 -4.4133 0
M  V30 8338 O 798.748 -5.11018 -3.18032 0
M  V30 8339 H 802.574 -2.96334 -0.664812 0
M  V30 8340 H 800.159 -1.47074 -0.262605 0
M  V30 8341 H 802.041 -2.83866 -3.11445 0
M  V30 8342 H 800.716 -1.69774 -2.75605 0
M  V30 8343 H 799.623 -3.50553 -1.30627 0
M  V30 8344 H 800.956 -4.60528 -1.73708 0
M  V30 8345 N 802.608 0.318715 -1.54344 0
M  V30 8346 C 803.558 1.39364 -1.80448 0
M  V30 8347 C 804.542 1.46708 -0.660728 0
M  V30 8348 O 805.734 1.51159 -0.920869 0
M  V30 8349 C 802.863 2.76144 -2.03959 0
M  V30 8350 C 801.949 2.73094 -3.24469 0
M  V30 8351 N 802.34 2.39663 -4.45416 0
M  V30 8352 C 800.638 3.04218 -3.2614 0
M  V30 8353 C 801.339 2.45469 -5.27371 0
M  V30 8354 N 800.315 2.82107 -4.64668 0
M  V30 8355 H 804.117 1.12453 -2.71535 0
M  V30 8356 H 801.631 0.527221 -1.53604 0
M  V30 8357 H 803.628 3.53627 -2.20802 0
M  V30 8358 H 802.288 3.03982 -1.14129 0
M  V30 8359 H 803.299 2.12424 -4.72331 0
M  V30 8360 H 799.976 3.37066 -2.4636 0
M  V30 8361 H 801.366 2.22571 -6.33965 0
M  V30 8362 N 804.086 1.46499 0.581025 0
M  V30 8363 C 805.049 1.5677 1.672 0
M  V30 8364 C 806.049 0.444716 1.54528 0
M  V30 8365 O 807.239 0.709074 1.59116 0
M  V30 8366 C 804.371 1.4896 3.06633 0
M  V30 8367 H 805.564 2.54 1.5945 0
M  V30 8368 H 803.117 1.34334 0.799003 0
M  V30 8369 H 803.852 0.530168 3.19937 0
M  V30 8370 H 803.637 2.30439 3.17239 0
M  V30 8371 H 805.127 1.59237 3.86048 0
M  V30 8372 N 805.565 -0.825799 1.34232 0
M  V30 8373 C 806.813 -1.57873 1.26177 0
M  V30 8374 C 807.134 -1.94267 -0.168904 0
M  V30 8375 O 806.404 -1.62045 -1.10084 0
M  V30 8376 H 804.984 -0.585388 0.464037 0
M  V30 8377 H 807.646 -0.986163 1.6811 0
M  V30 8378 H 806.742 -2.50283 1.86453 0
M  V30 8379 N 807.043 -1.17915 -1.04565 0
M  V30 8380 C 808.459 -0.927761 -1.29864 0
M  V30 8381 C 808.659 0.409536 -1.97294 0
M  V30 8382 O 807.715 1.14505 -2.25044 0
M  V30 8383 C 809.028 -2.08967 -2.16225 0
M  V30 8384 C 810.576 -2.12741 -2.29587 0
M  V30 8385 C 811.051 -3.28335 -3.19312 0
M  V30 8386 N 812.542 -3.28164 -3.26898 0
M  V30 8387 C 813.277 -4.14249 -3.96466 0
M  V30 8388 N 812.773 -5.10457 -4.68407 0
M  V30 8389 N 814.566 -4.02179 -3.92694 0
M  V30 8390 H 806.717 -2.03983 -0.592011 0
M  V30 8391 H 808.98 -0.891023 -0.323701 0
M  V30 8392 H 808.686 -3.05654 -1.73979 0
M  V30 8393 H 808.56 -2.04606 -3.16885 0
M  V30 8394 H 810.947 -1.16636 -2.71072 0
M  V30 8395 H 811.028 -2.21162 -1.28535 0
M  V30 8396 H 810.672 -4.2471 -2.78539 0
M  V30 8397 H 810.602 -3.17151 -4.20384 0
M  V30 8398 H 813.093 -2.58511 -2.75646 0
M  V30 8399 H 813.406 -5.72526 -5.1907 0
M  V30 8400 H 811.751 -5.14422 -4.67328 0
M  V30 8401 H 814.942 -3.26308 -3.3562 0
M  V30 8402 H 815.115 -4.69486 -4.4664 0
M  V30 8403 N 808.521 1.23394 -0.980386 0
M  V30 8404 C 809.77 1.91116 -0.644785 0
M  V30 8405 C 810.083 1.77333 0.825367 0
M  V30 8406 O 811.289 2.39858 1.27203 0
M  V30 8407 C 809.745 3.42592 -1.10266 0
M  V30 8408 C 809.353 3.65037 -2.59715 0
M  V30 8409 C 811.097 4.1609 -0.8408 0
M  V30 8410 C 809.004 5.10148 -2.9917 0
M  V30 8411 H 807.934 0.715632 -0.23746 0
M  V30 8412 H 810.585 1.39829 -1.18828 0
M  V30 8413 H 808.967 3.92989 -0.487372 0
M  V30 8414 H 810.141 3.25186 -3.26482 0
M  V30 8415 H 808.456 3.04849 -2.83647 0
M  V30 8416 H 811.053 5.23021 -1.11143 0
M  V30 8417 H 811.396 4.15702 0.223085 0
M  V30 8418 H 811.929 3.71681 -1.41767 0
M  V30 8419 H 808.668 5.15668 -4.04682 0
M  V30 8420 H 808.188 5.50949 -2.37097 0
M  V30 8421 H 809.867 5.7848 -2.89775 0
M  V30 8422 N 809.999 0.752036 1.385 0
M  V30 8423 C 810.931 0.0835089 2.29048 0
M  V30 8424 C 811.944 -0.685402 1.47669 0
M  V30 8425 O 813.133 -0.526748 1.70551 0
M  V30 8426 C 810.233 -0.905772 3.26572 0
M  V30 8427 C 809.406 -0.194828 4.36966 0
M  V30 8428 C 808.465 -1.09464 5.14688 0
M  V30 8429 O 807.491 -0.565743 5.66381 0
M  V30 8430 N 808.693 -2.42287 5.2752 0
M  V30 8431 H 811.458 0.861142 2.87062 0
M  V30 8432 H 809.019 0.602689 1.50264 0
M  V30 8433 H 811.011 -1.51072 3.75446 0
M  V30 8434 H 809.581 -1.58449 2.69467 0
M  V30 8435 H 808.801 0.590812 3.89747 0
M  V30 8436 H 810.089 0.297189 5.07931 0
M  V30 8437 H 809.487 -2.87715 4.8707 0
M  V30 8438 H 808.044 -2.97836 5.79773 0
M  V30 8439 N 811.477 -1.49425 0.500989 0
M  V30 8440 C 812.702 -2.07356 -0.0425154 0
M  V30 8441 C 813.127 -1.35887 -1.30063 0
M  V30 8442 O 812.485 -0.41561 -1.76472 0
M  V30 8443 C 812.533 -3.59518 -0.279188 0
M  V30 8444 O 811.637 -3.89542 -1.3539 0
M  V30 8445 H 810.978 -0.663482 0.0262207 0
M  V30 8446 H 813.508 -1.92231 0.700607 0
M  V30 8447 H 813.518 -4.04791 -0.5107 0
M  V30 8448 H 812.193 -4.10946 0.640009 0
M  V30 8449 H 810.77 -3.56079 -1.10734 0
M  V30 8450 N 812.955 -0.234822 -1.55841 0
M  V30 8451 C 814.204 0.393685 -1.97821 0
M  V30 8452 C 814.517 1.59947 -1.1259 0
M  V30 8453 O 815.723 2.29835 -1.44528 0
M  V30 8454 C 814.179 0.751811 -3.5196 0
M  V30 8455 C 813.787 -0.431898 -4.45913 0
M  V30 8456 C 815.531 1.34518 -4.02623 0
M  V30 8457 C 813.438 -0.0505976 -5.91378 0
M  V30 8458 H 812.368 0.150864 -0.738753 0
M  V30 8459 H 815.019 -0.333132 -1.80451 0
M  V30 8460 H 813.401 1.53642 -3.6498 0
M  V30 8461 H 814.575 -1.20935 -4.44647 0
M  V30 8462 H 812.89 -0.939385 -4.05666 0
M  V30 8463 H 815.487 1.64359 -5.08813 0
M  V30 8464 H 815.83 2.26554 -3.49255 0
M  V30 8465 H 816.363 0.623729 -3.9288 0
M  V30 8466 H 813.102 -0.937779 -6.48757 0
M  V30 8467 H 812.622 0.690898 -5.95808 0
M  V30 8468 H 814.301 0.37146 -6.45933 0
M  V30 8469 N 814.433 1.57553 0.0384317 0
M  V30 8470 C 815.679 1.89973 0.726772 0
M  V30 8471 C 816.034 0.832381 1.73462 0
M  V30 8472 O 815.327 -0.159975 1.90931 0
M  V30 8473 C 815.521 3.26862 1.44554 0
M  V30 8474 C 815.35 4.46812 0.508814 0
M  V30 8475 C 814.12 5.05124 0.133323 0
M  V30 8476 C 816.318 5.13876 -0.20881 0
M  V30 8477 N 814.3 6.08591 -0.805636 0
M  V30 8478 C 815.671 6.11821 -1.00376 0
M  V30 8479 C 817.726 4.9713 -0.276749 0
M  V30 8480 C 816.429 6.94825 -1.86038 0
M  V30 8481 C 818.455 5.80689 -1.12047 0
M  V30 8482 C 817.817 6.78197 -1.90337 0
M  V30 8483 H 813.916 0.744153 0.240334 0
M  V30 8484 H 816.5 1.94696 -0.0128735 0
M  V30 8485 H 814.671 3.23085 2.1557 0
M  V30 8486 H 816.403 3.46826 2.08552 0
M  V30 8487 H 813.158 4.71022 0.493484 0
M  V30 8488 H 813.582 6.64994 -1.26935 0
M  V30 8489 H 818.224 4.21631 0.314222 0
M  V30 8490 H 815.942 7.69676 -2.46219 0
M  V30 8491 H 819.528 5.69782 -1.17645 0
M  V30 8492 H 818.408 7.41731 -2.54569 0
M  V30 8493 N 815.911 -0.310526 1.54511 0
M  V30 8494 C 817.136 -1.07046 1.7764 0
M  V30 8495 C 817.561 -1.80488 0.529696 0
M  V30 8496 O 816.919 -1.73702 -0.519361 0
M  V30 8497 C 816.967 -2.03411 2.97752 0
M  V30 8498 O 816.071 -3.11545 2.7021 0
M  V30 8499 H 815.412 -0.307994 0.588248 0
M  V30 8500 H 817.942 -0.350848 2.01569 0
M  V30 8501 H 817.952 -2.46048 3.2546 0
M  V30 8502 H 816.627 -1.49361 3.88155 0
M  V30 8503 H 815.204 -2.7349 2.53491 0
M  V30 8504 N 817.389 -1.46805 -0.573248 0
M  V30 8505 C 818.805 -1.31969 -0.897577 0
M  V30 8506 C 819.005 -0.298171 -1.99282 0
M  V30 8507 O 818.061 0.295953 -2.5076 0
M  V30 8508 C 819.374 -2.70859 -1.30598 0
M  V30 8509 C 820.922 -2.79022 -1.4183 0
M  V30 8510 C 821.397 -4.18516 -1.86033 0
M  V30 8511 N 822.888 -4.2098 -1.9321 0
M  V30 8512 C 823.623 -5.25814 -2.28707 0
M  V30 8513 N 823.119 -6.40968 -2.6293 0
M  V30 8514 N 824.912 -5.13184 -2.29343 0
M  V30 8515 H 817.063 -2.11869 0.150094 0
M  V30 8516 H 819.326 -0.947989 0.00447895 0
M  V30 8517 H 819.032 -3.46965 -0.575161 0
M  V30 8518 H 818.906 -3.01585 -2.26554 0
M  V30 8519 H 821.293 -2.03198 -2.13996 0
M  V30 8520 H 821.374 -2.51969 -0.441024 0
M  V30 8521 H 821.018 -4.94839 -1.14442 0
M  V30 8522 H 820.948 -4.42982 -2.84735 0
M  V30 8523 H 823.439 -3.37898 -1.69214 0
M  V30 8524 H 823.752 -7.16729 -2.88996 0
M  V30 8525 H 822.097 -6.44314 -2.60547 0
M  V30 8526 H 825.288 -4.22255 -2.02036 0
M  V30 8527 H 825.461 -5.94996 -2.56679 0
M  V30 8528 N 818.867 0.818669 -1.34668 0
M  V30 8529 C 819.797 1.94468 -1.29245 0
M  V30 8530 C 820.778 1.69257 -0.169101 0
M  V30 8531 O 821.963 1.90794 -0.362143 0
M  V30 8532 C 819.093 3.31001 -1.05145 0
M  V30 8533 C 818.047 3.70663 -2.13992 0
M  V30 8534 C 817.373 5.05226 -1.75074 0
M  V30 8535 C 818.673 3.82312 -3.55858 0
M  V30 8536 H 820.367 1.99263 -2.2346 0
M  V30 8537 H 817.913 0.957304 -1.07572 0
M  V30 8538 H 819.866 4.09364 -0.999949 0
M  V30 8539 H 818.59 3.26517 -0.0737312 0
M  V30 8540 H 817.249 2.94578 -2.18219 0
M  V30 8541 H 816.897 4.97233 -0.759518 0
M  V30 8542 H 816.597 5.32734 -2.47928 0
M  V30 8543 H 818.121 5.86042 -1.71427 0
M  V30 8544 H 819.535 4.50935 -3.5402 0
M  V30 8545 H 817.932 4.21278 -4.2737 0
M  V30 8546 H 819.002 2.84193 -3.9289 0
M  V30 8547 N 820.346 1.18468 1.03938 0
M  V30 8548 C 821.278 0.870615 2.12021 0
M  V30 8549 C 822.291 -0.132318 1.62261 0
M  V30 8550 O 823.48 0.0956901 1.78243 0
M  V30 8551 C 820.58 0.279727 3.37744 0
M  V30 8552 C 819.753 1.32863 4.16733 0
M  V30 8553 C 818.812 0.753204 5.20781 0
M  V30 8554 O 817.838 1.42825 5.5099 0
M  V30 8555 N 819.04 -0.448664 5.78764 0
M  V30 8556 H 821.805 1.80091 2.39556 0
M  V30 8557 H 819.366 1.08524 1.20142 0
M  V30 8558 H 821.358 -0.118829 4.04526 0
M  V30 8559 H 819.928 -0.554621 3.07641 0
M  V30 8560 H 819.148 1.90245 3.45254 0
M  V30 8561 H 820.436 2.03574 4.66299 0
M  V30 8562 H 819.834 -1.01481 5.56523 0
M  V30 8563 H 818.391 -0.789125 6.47005 0
M  V30 8564 N 821.824 -1.22873 0.986916 0
M  V30 8565 C 822.734 -2.28277 0.540978 0
M  V30 8566 C 823.75 -1.69164 -0.407363 0
M  V30 8567 O 824.926 -1.99504 -0.275674 0
M  V30 8568 C 821.991 -3.46404 -0.143181 0
M  V30 8569 C 821.052 -4.20854 0.847375 0
M  V30 8570 C 820.285 -5.33341 0.19577 0
M  V30 8571 O 820.508 -5.61356 -1.0117 0
M  V30 8572 O 819.442 -5.95169 0.897623 0
M  V30 8573 H 823.268 -2.68578 1.41773 0
M  V30 8574 H 820.853 -1.28927 0.754867 0
M  V30 8575 H 822.735 -4.18096 -0.526676 0
M  V30 8576 H 821.41 -3.08041 -0.994593 0
M  V30 8577 H 820.317 -3.51459 1.28169 0
M  V30 8578 H 821.65 -4.63082 1.6678 0
M  V30 8579 N 823.302 -0.75937 -1.38099 0
M  V30 8580 C 824.718 -0.437606 -1.53483 0
M  V30 8581 C 824.918 1.04849 -1.72072 0
M  V30 8582 O 823.974 1.83448 -1.73502 0
M  V30 8583 C 825.287 -1.24189 -2.73857 0
M  V30 8584 C 826.835 -1.23255 -2.8771 0
M  V30 8585 C 827.31 -2.01992 -4.11051 0
M  V30 8586 N 828.801 -1.99282 -4.1814 0
M  V30 8587 C 829.536 -2.56996 -5.12583 0
M  V30 8588 N 829.032 -3.23446 -6.12662 0
M  V30 8589 N 830.825 -2.46894 -5.04975 0
M  V30 8590 H 822.976 -1.72242 -1.24283 0
M  V30 8591 H 825.239 -0.730507 -0.604205 0
M  V30 8592 H 824.945 -2.29449 -2.66545 0
M  V30 8593 H 824.819 -0.862672 -3.67203 0
M  V30 8594 H 827.206 -0.187988 -2.94501 0
M  V30 8595 H 827.287 -1.65132 -1.95359 0
M  V30 8596 H 826.931 -3.06462 -4.05023 0
M  V30 8597 H 826.861 -1.57505 -5.02494 0
M  V30 8598 H 829.352 -1.50893 -3.46467 0
M  V30 8599 H 829.665 -3.6489 -6.81231 0
M  V30 8600 H 828.01 -3.27543 -6.12977 0
M  V30 8601 H 831.201 -1.94604 -4.25731 0
M  V30 8602 H 831.374 -2.92168 -5.78396 0
M  V30 8603 N 824.78 1.49157 -0.508906 0
M  V30 8604 C 826.028 2.02073 0.0327335 0
M  V30 8605 C 826.349 1.39012 1.3675 0
M  V30 8606 O 825.619 0.548153 1.88075 0
M  V30 8607 H 824.199 0.746848 0.0150864 0
M  V30 8608 H 826.861 1.83097 -0.667946 0
M  V30 8609 H 825.957 3.11707 0.1566 0
M  V30 8610 N 826.258 0.243083 1.55714 0
M  V30 8611 C 827.188 -0.652336 2.24203 0
M  V30 8612 C 828.169 -1.1843 1.221 0
M  V30 8613 O 829.354 -1.22435 1.50743 0
M  V30 8614 C 826.484 -1.85111 2.93856 0
M  V30 8615 C 825.438 -1.45208 4.02615 0
M  V30 8616 C 824.764 -2.73137 4.59674 0
M  V30 8617 C 826.064 -0.625988 5.18535 0
M  V30 8618 H 827.758 -0.0812504 2.9929 0
M  V30 8619 H 825.304 -0.0376388 1.43951 0
M  V30 8620 H 827.257 -2.48314 3.40468 0
M  V30 8621 H 825.981 -2.44751 2.16251 0
M  V30 8622 H 824.64 -0.843406 3.56766 0
M  V30 8623 H 824.288 -3.30967 3.78774 0
M  V30 8624 H 823.988 -2.47163 5.33089 0
M  V30 8625 H 825.512 -3.37245 5.09017 0
M  V30 8626 H 826.926 -1.16223 5.61396 0
M  V30 8627 H 825.323 -0.462465 5.98315 0
M  V30 8628 H 826.393 0.362652 4.83542 0
M  V30 8629 N 827.736 -1.57571 -0.0300757 0
M  V30 8630 C 829.152 -1.54869 -0.385703 0
M  V30 8631 C 829.352 -0.969068 -1.76667 0
M  V30 8632 O 828.408 -0.589676 -2.45518 0
M  V30 8633 C 829.721 -2.99313 -0.288482 0
M  V30 8634 C 831.269 -3.10857 -0.365638 0
M  V30 8635 C 831.744 -4.5703 -0.297878 0
M  V30 8636 N 833.235 -4.61825 -0.356703 0
M  V30 8637 C 833.97 -5.72466 -0.327146 0
M  V30 8638 N 833.466 -6.92349 -0.249941 0
M  V30 8639 N 835.259 -5.60836 -0.376801 0
M  V30 8640 H 827.41 -1.936 0.87367 0
M  V30 8641 H 829.673 -0.887924 0.332106 0
M  V30 8642 H 829.379 -3.45443 0.66047 0
M  V30 8643 H 829.253 -3.61332 -1.08253 0
M  V30 8644 H 831.64 -2.64676 -1.30502 0
M  V30 8645 H 831.721 -2.51671 0.457744 0
M  V30 8646 H 831.365 -5.03879 0.637835 0
M  V30 8647 H 831.295 -5.14127 -1.13935 0
M  V30 8648 H 833.786 -3.75571 -0.418926 0
M  V30 8649 H 834.099 -7.7245 -0.23246 0
M  V30 8650 H 832.444 -6.94664 -0.216004 0
M  V30 8651 H 835.635 -4.66073 -0.435101 0
M  V30 8652 H 835.808 -6.47052 -0.350298 0
M  V30 8653 N 829.214 0.302327 -1.54673 0
M  V30 8654 C 830.439 1.06103 -1.78205 0
M  V30 8655 C 830.864 1.80204 -0.53926 0
M  V30 8656 O 830.222 1.73975 0.510142 0
M  V30 8657 C 830.27 2.01829 -2.98827 0
M  V30 8658 O 829.374 3.10108 -2.71858 0
M  V30 8659 H 828.715 0.30487 -0.589873 0
M  V30 8660 H 831.245 0.340153 -2.01753 0
M  V30 8661 H 831.255 2.44319 -3.2676 0
M  V30 8662 H 829.93 1.473 -3.88942 0
M  V30 8663 H 828.507 2.72142 -2.54937 0
M  V30 8664 N 830.692 1.47107 0.565454 0
M  V30 8665 C 831.624 1.55024 1.6882 0
M  V30 8666 C 832.637 0.4371 1.56822 0
M  V30 8667 O 833.826 0.706315 1.63931 0
M  V30 8668 C 830.926 1.43069 3.0722 0
M  V30 8669 C 830.099 2.68807 3.45053 0
M  V30 8670 C 829.158 2.50806 4.62583 0
M  V30 8671 O 828.184 3.24593 4.67577 0
M  V30 8672 N 829.386 1.58093 5.58558 0
M  V30 8673 H 832.151 2.51836 1.62477 0
M  V30 8674 H 829.712 1.43382 0.751885 0
M  V30 8675 H 831.704 1.28773 3.83666 0
M  V30 8676 H 830.274 0.543721 3.07835 0
M  V30 8677 H 829.494 2.97923 2.58138 0
M  V30 8678 H 830.782 3.52298 3.67101 0
M  V30 8679 H 830.18 0.972807 5.57273 0
M  V30 8680 H 828.737 1.49753 6.34364 0
M  V30 8681 N 832.17 -0.811516 1.35101 0
M  V30 8682 C 833.41 -1.58177 1.29458 0
M  V30 8683 C 833.774 -1.91555 -0.130688 0
M  V30 8684 O 834.975 -2.6699 -0.311428 0
M  V30 8685 C 833.246 -2.83896 2.17112 0
M  V30 8686 S 834.805 -3.74344 2.28936 0
M  V30 8687 H 831.623 -0.542021 0.460146 0
M  V30 8688 H 834.225 -0.957653 1.70438 0
M  V30 8689 H 832.929 -2.57391 3.19653 0
M  V30 8690 H 832.46 -3.51297 1.7707 0
M  V30 8691 H 834.475 -4.73909 1.47054 0
M  V30 8692 N 833.648 -1.19017 -1.03309 0
M  V30 8693 C 834.558 -0.939303 -2.14975 0
M  V30 8694 C 835.574 0.0992359 -1.73717 0
M  V30 8695 O 836.75 -0.0844362 -2.01223 0
M  V30 8696 C 833.815 -0.476712 -3.43407 0
M  V30 8697 C 832.876 -1.58413 -3.99003 0
M  V30 8698 C 832.109 -1.14352 -5.21305 0
M  V30 8699 O 832.332 -0.00534408 -5.704 0
M  V30 8700 O 831.266 -1.94436 -5.6963 0
M  V30 8701 H 835.092 -1.87386 -2.38998 0
M  V30 8702 H 832.677 -0.972635 -1.13403 0
M  V30 8703 H 834.559 -0.22718 -4.20787 0
M  V30 8704 H 833.234 0.429455 -3.20839 0
M  V30 8705 H 832.141 -1.88777 -3.22977 0
M  V30 8706 H 833.474 -2.4667 -4.25928 0
M  V30 8707 N 835.127 1.22348 -0.993418 0
M  V30 8708 C 836.367 1.92835 -0.677779 0
M  V30 8709 C 836.731 1.75624 0.775893 0
M  V30 8710 O 837.932 2.40379 1.20297 0
M  V30 8711 C 836.203 3.40906 -1.07322 0
M  V30 8712 S 837.762 4.29966 -0.876032 0
M  V30 8713 H 834.58 0.666421 -0.247799 0
M  V30 8714 H 837.182 1.48133 -1.27581 0
M  V30 8715 H 835.886 3.50946 -2.12756 0
M  V30 8716 H 835.417 3.90618 -0.467015 0
M  V30 8717 H 837.432 4.95652 0.233162 0
M  V30 8718 N 836.605 0.766683 1.37694 0
M  V30 8719 C 837.535 0.163432 2.32927 0
M  V30 8720 C 838.516 -0.688861 1.55527 0
M  V30 8721 O 839.701 -0.627363 1.83787 0
M  V30 8722 C 836.831 -0.720416 3.39746 0
M  V30 8723 C 835.785 0.0301718 4.27989 0
M  V30 8724 C 835.111 -0.972788 5.25776 0
M  V30 8725 C 836.411 1.20623 5.0818 0
M  V30 8726 H 838.105 0.958988 2.83626 0
M  V30 8727 H 835.651 0.462601 1.36367 0
M  V30 8728 H 837.604 -1.15221 4.05342 0
M  V30 8729 H 836.328 -1.54844 2.8756 0
M  V30 8730 H 834.987 0.442685 3.63917 0
M  V30 8731 H 834.635 -1.79522 4.69873 0
M  V30 8732 H 834.335 -0.475145 5.85676 0
M  V30 8733 H 835.859 -1.40362 5.94248 0
M  V30 8734 H 837.273 0.851341 5.66944 0
M  V30 8735 H 835.67 1.63561 5.7738 0
M  V30 8736 H 836.74 2.01281 4.41151 0
M  V30 8737 N 838.083 -1.48885 0.516809 0
M  V30 8738 C 839.499 -1.58651 0.173788 0
M  V30 8739 C 839.699 -1.52033 -1.32243 0
M  V30 8740 O 838.755 -1.40251 -2.09967 0
M  V30 8741 C 840.068 -2.90816 0.764628 0
M  V30 8742 C 841.616 -3.04316 0.732164 0
M  V30 8743 C 842.091 -4.39123 1.30135 0
M  V30 8744 N 843.582 -4.45656 1.26273 0
M  V30 8745 C 844.317 -5.48446 1.67317 0
M  V30 8746 N 843.813 -6.58258 2.16028 0
M  V30 8747 N 845.606 -5.39251 1.58635 0
M  V30 8748 H 837.757 -1.5143 1.48939 0
M  V30 8749 H 840.02 -0.718243 0.618733 0
M  V30 8750 H 839.726 -3.01275 1.81456 0
M  V30 8751 H 839.6 -3.76473 0.234113 0
M  V30 8752 H 841.987 -2.93478 -0.308975 0
M  V30 8753 H 842.068 -2.20303 1.3 0
M  V30 8754 H 841.712 -4.50714 2.34135 0
M  V30 8755 H 841.642 -5.21801 0.709305 0
M  V30 8756 H 844.133 -3.66879 0.906006 0
M  V30 8757 H 844.446 -7.32811 2.45374 0
M  V30 8758 H 842.791 -6.59257 2.20013 0
M  V30 8759 H 845.982 -4.52354 1.20387 0
M  V30 8760 H 846.155 -6.19229 1.90944 0
M  V30 8761 N 839.561 -0.251338 -1.55583 0
M  V30 8762 C 840.809 0.371434 -1.98657 0
M  V30 8763 C 841.13 1.58143 -1.14087 0
M  V30 8764 O 840.4 1.94607 -0.224708 0
M  V30 8765 H 838.98 0.140225 -0.733721 0
M  V30 8766 H 841.642 -0.351157 -1.9171 0
M  V30 8767 H 840.738 0.677554 -3.04657 0
M  V30 8768 N 841.039 1.57585 0.0217189 0
M  V30 8769 C 842.455 1.55072 0.377484 0
M  V30 8770 C 842.655 0.978423 1.76151 0
M  V30 8771 O 841.711 0.602688 2.45202 0
M  V30 8772 C 843.024 2.99462 0.272605 0
M  V30 8773 C 844.572 3.11047 0.349148 0
M  V30 8774 C 845.047 4.57182 0.273636 0
M  V30 8775 N 846.538 4.62007 0.332206 0
M  V30 8776 C 847.273 5.72631 0.296782 0
M  V30 8777 N 846.769 6.92472 0.21322 0
M  V30 8778 N 848.562 5.61028 0.347053 0
M  V30 8779 H 840.713 1.93133 -0.883925 0
M  V30 8780 H 842.976 0.886151 -0.33681 0
M  V30 8781 H 842.682 3.45088 -0.67878 0
M  V30 8782 H 842.556 3.61901 1.06335 0
M  V30 8783 H 844.943 2.65364 1.29097 0
M  V30 8784 H 845.024 2.51425 -0.471085 0
M  V30 8785 H 844.668 5.03534 -0.664548 0
M  V30 8786 H 844.598 5.14724 1.11207 0
M  V30 8787 H 847.089 3.75788 0.399003 0
M  V30 8788 H 847.402 7.72563 0.191492 0
M  V30 8789 H 845.747 6.94769 0.179161 0
M  V30 8790 H 848.938 4.66298 0.410378 0
M  V30 8791 H 849.111 6.47229 0.315979 0
M  V30 8792 N 842.517 -0.29412 1.54831 0
M  V30 8793 C 843.464 -1.36296 1.86258 0
M  V30 8794 C 844.434 -1.50061 0.712097 0
M  V30 8795 O 845.619 -1.64809 0.961381 0
M  V30 8796 C 842.759 -2.72187 2.12151 0
M  V30 8797 C 841.872 -2.66816 3.39755 0
M  V30 8798 C 841.007 -3.94747 3.55455 0
M  V30 8799 C 840.046 -3.838 4.76827 0
M  V30 8800 N 839.183 -5.03521 4.89296 0
M  V30 8801 H 844.023 -1.08796 2.7743 0
M  V30 8802 H 841.56 -0.526069 1.37371 0
M  V30 8803 H 843.518 -3.51225 2.25159 0
M  V30 8804 H 842.148 -2.97934 1.24237 0
M  V30 8805 H 841.2 -1.79605 3.3533 0
M  V30 8806 H 842.512 -2.5462 4.28917 0
M  V30 8807 H 841.666 -4.82223 3.68166 0
M  V30 8808 H 840.405 -4.09785 2.64438 0
M  V30 8809 H 839.41 -2.94708 4.64141 0
M  V30 8810 H 840.635 -3.70301 5.69258 0
M  V30 8811 H 838.581 -5.1901 4.01204 0
M  V30 8812 H 838.498 -4.93775 5.72471 0
M  V30 8813 H 839.766 -5.92629 5.06371 0
M  V30 8814 N 843.995 -1.47404 -0.557645 0
M  V30 8815 C 844.958 -1.59411 -1.64684 0
M  V30 8816 C 845.958 -0.469244 -1.53801 0
M  V30 8817 O 847.148 -0.734298 -1.57967 0
M  V30 8818 C 844.28 -1.5382 -3.04224 0
M  V30 8819 H 845.473 -2.56504 -1.55389 0
M  V30 8820 H 843.026 -1.35588 -0.777531 0
M  V30 8821 H 843.761 -0.581 -3.19053 0
M  V30 8822 H 843.546 -2.35456 -3.13533 0
M  V30 8823 H 845.036 -1.65358 -3.83466 0
M  V30 8824 N 845.473 0.80434 -1.35529 0
M  V30 8825 C 846.698 1.598 -1.32207 0
M  V30 8826 C 847.123 1.87848 0.0974226 0
M  V30 8827 O 846.481 1.46728 1.06492 0
M  V30 8828 C 846.529 2.90483 -2.13663 0
M  V30 8829 O 845.633 3.83411 -1.51888 0
M  V30 8830 H 844.974 0.485305 -0.453183 0
M  V30 8831 H 847.504 0.998119 -1.78602 0
M  V30 8832 H 847.514 3.39888 -2.257 0
M  V30 8833 H 846.189 2.69395 -3.16859 0
M  V30 8834 H 844.766 3.41967 -1.48704 0
M  V30 8835 N 846.951 1.19563 1.02676 0
M  V30 8836 C 847.881 0.959024 2.12897 0
M  V30 8837 C 848.862 -0.108382 1.69754 0
M  V30 8838 O 850.047 0.0470698 1.94143 0
M  V30 8839 C 847.177 0.499211 3.43693 0
M  V30 8840 C 846.131 1.5087 4.00528 0
M  V30 8841 C 845.457 0.905884 5.2697 0
M  V30 8842 C 846.757 2.88954 4.3509 0
M  V30 8843 H 848.451 1.88084 2.32948 0
M  V30 8844 H 845.997 0.905731 1.11949 0
M  V30 8845 H 847.95 0.320965 4.20176 0
M  V30 8846 H 846.674 -0.458205 3.2337 0
M  V30 8847 H 845.333 1.67413 3.26142 0
M  V30 8848 H 844.981 -0.0591506 5.02965 0
M  V30 8849 H 844.681 1.58 5.65959 0
M  V30 8850 H 846.205 0.73848 6.06118 0
M  V30 8851 H 847.619 2.75981 5.02501 0
M  V30 8852 H 846.016 3.53177 4.85166 0
M  V30 8853 H 847.086 3.41447 3.44299 0
M  V30 8854 N 848.429 -1.21819 0.999893 0
M  V30 8855 C 849.339 -2.27691 0.565159 0
M  V30 8856 C 850.355 -1.69587 -0.389398 0
M  V30 8857 O 851.531 -1.99786 -0.254499 0
M  V30 8858 C 848.596 -3.46537 -0.106432 0
M  V30 8859 C 847.657 -4.19932 0.891964 0
M  V30 8860 C 846.89 -5.33103 0.252327 0
M  V30 8861 O 847.113 -5.62398 -0.952103 0
M  V30 8862 O 846.047 -5.94184 0.960698 0
M  V30 8863 H 849.873 -2.67059 1.44613 0
M  V30 8864 H 847.458 -1.28119 0.768499 0
M  V30 8865 H 849.34 -4.18631 -0.482301 0
M  V30 8866 H 848.015 -3.09079 -0.961865 0
M  V30 8867 H 846.922 -3.5008 1.3189 0
M  V30 8868 H 848.255 -4.61287 1.71682 0
M  V30 8869 N 849.908 -0.773975 -1.37286 0
M  V30 8870 C 850.818 -0.162571 -2.34036 0
M  V30 8871 C 851.834 0.677022 -1.60289 0
M  V30 8872 O 853.01 0.596423 -1.92366 0
M  V30 8873 C 850.075 0.70457 -3.39465 0
M  V30 8874 C 849.136 -0.151738 -4.29032 0
M  V30 8875 C 848.369 0.674111 -5.29426 0
M  V30 8876 O 848.592 1.91107 -5.37433 0
M  V30 8877 O 847.526 0.0821398 -6.01844 0
M  V30 8878 H 851.352 -0.962119 -2.88057 0
M  V30 8879 H 848.937 -0.53517 -1.39486 0
M  V30 8880 H 850.819 1.19954 -4.03967 0
M  V30 8881 H 849.494 1.48227 -2.87768 0
M  V30 8882 H 848.401 -0.693118 -3.67623 0
M  V30 8883 H 849.734 -0.892575 -4.84039 0
M  V30 8884 N 851.386 1.48609 -0.524698 0
M  V30 8885 C 852.316 2.32366 0.229837 0
M  V30 8886 C 853.297 1.41759 0.940129 0
M  V30 8887 O 854.482 1.7065 0.926936 0
M  V30 8888 C 851.612 3.22835 1.28043 0
M  V30 8889 C 850.566 4.22424 0.688603 0
M  V30 8890 C 849.892 5.0199 1.84146 0
M  V30 8891 C 851.192 5.21217 -0.336176 0
M  V30 8892 H 852.886 2.95698 -0.469339 0
M  V30 8893 H 850.432 1.42197 -0.227156 0
M  V30 8894 H 852.385 3.80253 1.8162 0
M  V30 8895 H 851.109 2.57492 2.00912 0
M  V30 8896 H 849.768 3.66185 0.174402 0
M  V30 8897 H 849.416 4.33076 2.5584 0
M  V30 8898 H 849.116 5.69392 1.45142 0
M  V30 8899 H 850.64 5.62259 2.38111 0
M  V30 8900 H 852.054 5.7319 0.112307 0
M  V30 8901 H 850.451 5.96642 -0.643324 0
M  V30 8902 H 851.521 4.68676 -1.24381 0
M  V30 8903 N 852.864 0.259585 1.55447 0
M  V30 8904 C 853.796 -0.667548 2.19263 0
M  V30 8905 C 854.809 -1.12925 1.17268 0
M  V30 8906 O 855.998 -1.05384 1.44071 0
M  V30 8907 C 853.098 -1.92066 2.7922 0
M  V30 8908 C 852.271 -1.60832 4.06758 0
M  V30 8909 C 851.33 -2.71231 4.50911 0
M  V30 8910 O 850.356 -2.38077 5.17019 0
M  V30 8911 N 851.558 -4.00984 4.19752 0
M  V30 8912 H 854.323 -0.121449 2.99454 0
M  V30 8913 H 851.884 0.0800519 1.61702 0
M  V30 8914 H 853.876 -2.65186 3.0571 0
M  V30 8915 H 852.446 -2.37621 2.03113 0
M  V30 8916 H 851.666 -0.711685 3.87722 0
M  V30 8917 H 852.954 -1.37445 4.89884 0
M  V30 8918 H 852.352 -4.30748 3.66706 0
M  V30 8919 H 850.909 -4.7053 4.51048 0
M  V30 8920 N 854.342 -1.57594 -0.0133615 0
M  V30 8921 C 855.567 -1.94649 -0.715996 0
M  V30 8922 C 855.992 -0.860786 -1.67249 0
M  V30 8923 O 855.35 0.182228 -1.80382 0
M  V30 8924 C 855.398 -3.30789 -1.43566 0
M  V30 8925 O 854.502 -3.24148 -2.54955 0
M  V30 8926 H 853.843 -0.635801 -0.191449 0
M  V30 8927 H 856.373 -2.04569 0.0358478 0
M  V30 8928 H 856.383 -3.66045 -1.80208 0
M  V30 8929 H 855.058 -4.09367 -0.734263 0
M  V30 8930 H 853.635 -3.00548 -2.20739 0
M  V30 8931 N 855.82 0.285905 -1.54985 0
M  V30 8932 C 857.066 1.02071 -1.75241 0
M  V30 8933 C 857.399 1.864 -0.544842 0
M  V30 8934 O 856.674 1.89034 0.457844 0
M  V30 8935 C 856.957 1.91409 -3.05016 0
M  V30 8936 C 856.81 1.10158 -4.36102 0
M  V30 8937 C 858.129 2.90335 -3.30747 0
M  V30 8938 H 855.248 0.369663 -0.637588 0
M  V30 8939 H 857.89 0.294114 -1.8771 0
M  V30 8940 H 856.04 2.53362 -2.94517 0
M  V30 8941 H 857.712 0.503756 -4.58541 0
M  V30 8942 H 855.955 0.404675 -4.31908 0
M  V30 8943 H 856.626 1.75956 -5.23205 0
M  V30 8944 H 859.102 2.38514 -3.40955 0
M  V30 8945 H 857.978 3.49997 -4.2284 0
M  V30 8946 H 858.239 3.64787 -2.49765 0
M  V30 8947 N 857.298 1.47698 0.54982 0
M  V30 8948 C 858.248 1.57145 1.65195 0
M  V30 8949 C 859.232 0.429839 1.55052 0
M  V30 8950 O 860.424 0.68018 1.63409 0
M  V30 8951 C 857.553 1.59573 3.0396 0
M  V30 8952 C 856.639 2.79144 3.19279 0
M  V30 8953 N 857.03 4.03769 3.04638 0
M  V30 8954 C 855.328 2.76061 3.50295 0
M  V30 8955 C 856.029 4.83887 3.22845 0
M  V30 8956 N 855.005 4.1634 3.49517 0
M  V30 8957 H 858.807 2.51266 1.52455 0
M  V30 8958 H 856.321 1.43795 0.754773 0
M  V30 8959 H 858.318 1.64431 3.83103 0
M  V30 8960 H 856.978 0.66553 3.17806 0
M  V30 8961 H 857.989 4.34515 2.81811 0
M  V30 8962 H 854.666 1.92211 3.70622 0
M  V30 8963 H 856.056 5.92724 3.1643 0
M  V30 8964 N 858.776 -0.797141 1.35954 0
M  V30 8965 C 860.001 -1.59097 1.33053 0
M  V30 8966 C 860.426 -1.87897 -0.0874592 0
M  V30 8967 O 859.784 -1.47291 -1.05712 0
M  V30 8968 C 859.832 -2.89346 2.152 0
M  V30 8969 O 858.936 -3.826 1.5392 0
M  V30 8970 H 858.277 -0.482895 0.45575 0
M  V30 8971 H 860.807 -0.988633 1.79129 0
M  V30 8972 H 860.817 -3.38686 2.27499 0
M  V30 8973 H 859.492 -2.6771 3.18283 0
M  V30 8974 H 858.069 -3.41174 1.50516 0
M  V30 8975 N 860.254 -1.20106 -1.0204 0
M  V30 8976 C 861.164 -0.962051 -2.13967 0
M  V30 8977 C 862.18 0.0808053 -1.73812 0
M  V30 8978 O 863.356 -0.105774 -2.01122 0
M  V30 8979 C 860.421 -0.513108 -3.42882 0
M  V30 8980 C 859.482 -1.62636 -3.97301 0
M  V30 8981 C 858.715 -1.19875 -5.20063 0
M  V30 8982 O 858.938 -0.0658423 -5.70362 0
M  V30 8983 O 857.872 -2.00467 -5.67536 0
M  V30 8984 H 861.698 -1.8991 -2.36998 0
M  V30 8985 H 859.283 -0.984608 -1.12365 0
M  V30 8986 H 861.165 -0.271797 -4.20523 0
M  V30 8987 H 859.84 0.395402 -3.21276 0
M  V30 8988 H 858.747 -1.92192 -3.20957 0
M  V30 8989 H 860.08 -2.51174 -4.23288 0
M  V30 8990 N 861.732 1.21287 -1.00634 0
M  V30 8991 C 863.148 1.42467 -0.719389 0
M  V30 8992 C 863.348 1.88767 0.704927 0
M  V30 8993 O 862.404 2.05004 1.47409 0
M  V30 8994 C 863.717 2.455 -1.73639 0
M  V30 8995 C 865.265 2.59281 -1.75335 0
M  V30 8996 C 865.74 3.65547 -2.75934 0
M  V30 8997 N 867.231 3.73019 -2.74611 0
M  V30 8998 C 867.966 4.54873 -3.4911 0
M  V30 8999 N 867.462 5.40614 -4.33253 0
M  V30 9000 N 869.255 4.49309 -3.37754 0
M  V30 9001 H 861.406 0.895454 -1.92602 0
M  V30 9002 H 863.669 0.455491 -0.831404 0
M  V30 9003 H 863.375 2.18455 -2.75627 0
M  V30 9004 H 863.249 3.44325 -1.54014 0
M  V30 9005 H 865.636 2.85661 -0.740377 0
M  V30 9006 H 865.717 1.60685 -1.99032 0
M  V30 9007 H 865.361 3.39911 -3.77389 0
M  V30 9008 H 865.291 4.63741 -2.49503 0
M  V30 9009 H 867.782 3.11766 -2.13565 0
M  V30 9010 H 868.095 6.0013 -4.86892 0
M  V30 9011 H 866.44 5.40151 -4.37335 0
M  V30 9012 H 869.631 3.81357 -2.71449 0
M  V30 9013 H 869.804 5.12867 -3.9607 0
M  V30 9014 N 863.21 0.781244 1.36873 0
M  V30 9015 C 864.16 0.147313 2.27524 0
M  V30 9016 C 865.144 -0.663928 1.46563 0
M  V30 9017 O 866.336 -0.525343 1.69024 0
M  V30 9018 C 863.465 -0.723511 3.35589 0
M  V30 9019 C 862.551 0.0960763 4.23991 0
M  V30 9020 N 862.942 1.14649 4.92635 0
M  V30 9021 C 861.24 -0.126397 4.45821 0
M  V30 9022 C 861.941 1.64474 5.57964 0
M  V30 9023 N 860.917 0.955316 5.3514 0
M  V30 9024 H 864.719 0.951406 2.78075 0
M  V30 9025 H 862.233 0.619913 1.50103 0
M  V30 9026 H 864.23 -1.19351 3.99451 0
M  V30 9027 H 862.89 -1.52624 2.86594 0
M  V30 9028 H 863.901 1.5288 4.94821 0
M  V30 9029 H 860.578 -0.900284 4.07678 0
M  V30 9030 H 861.968 2.52124 6.22803 0
M  V30 9031 N 864.689 -1.48329 0.532571 0
M  V30 9032 C 865.935 -2.028 -0.000583219 0
M  V30 9033 C 866.268 -1.40858 -1.33688 0
M  V30 9034 O 865.543 -0.555261 -1.86406 0
M  V30 9035 C 865.826 -3.59901 -0.119846 0
M  V30 9036 C 865.679 -4.32318 1.2418 0
M  V30 9037 C 866.998 -4.31904 -0.845372 0
M  V30 9038 H 864.117 -0.736999 0.00126205 0
M  V30 9039 H 866.759 -1.77024 0.690102 0
M  V30 9040 H 864.909 -3.81993 -0.708092 0
M  V30 9041 H 866.581 -4.21637 1.87136 0
M  V30 9042 H 864.824 -3.93635 1.82301 0
M  V30 9043 H 865.495 -5.40697 1.11132 0
M  V30 9044 H 867.971 -4.14658 -0.346159 0
M  V30 9045 H 866.847 -5.41509 -0.897723 0
M  V30 9046 H 867.108 -3.99369 -1.89622 0
M  V30 9047 N 866.167 -0.267825 -1.55308 0
M  V30 9048 C 867.097 0.616585 -2.25212 0
M  V30 9049 C 868.078 1.16472 -1.23969 0
M  V30 9050 O 869.263 1.20021 -1.52672 0
M  V30 9051 C 866.393 1.80412 -2.96764 0
M  V30 9052 C 865.347 1.38784 -4.04874 0
M  V30 9053 C 864.673 2.65789 -4.63961 0
M  V30 9054 C 865.973 0.543415 -5.19465 0
M  V30 9055 H 867.667 0.0336257 -2.99381 0
M  V30 9056 H 865.213 0.0147328 -1.43992 0
M  V30 9057 H 867.166 2.42866 -3.44375 0
M  V30 9058 H 865.89 2.4128 -2.20118 0
M  V30 9059 H 864.549 0.786541 -3.58063 0
M  V30 9060 H 864.197 3.24899 -3.83992 0
M  V30 9061 H 863.897 2.38651 -5.36954 0
M  V30 9062 H 865.421 3.29104 -5.14318 0
M  V30 9063 H 866.835 1.07277 -5.63174 0
M  V30 9064 H 865.232 0.367219 -5.98975 0
M  V30 9065 H 866.302 -0.439534 -4.82904 0
M  V30 9066 N 867.645 1.57599 0.00500368 0
M  V30 9067 C 868.575 2.11143 0.99705 0
M  V30 9068 C 869.556 1.0194 1.3617 0
M  V30 9069 O 870.741 1.29596 1.44632 0
M  V30 9070 C 867.871 2.61062 2.2905 0
M  V30 9071 C 866.825 3.74745 2.0676 0
M  V30 9072 C 866.151 4.10961 3.42075 0
M  V30 9073 C 867.451 5.02222 1.43424 0
M  V30 9074 H 869.145 2.94281 0.551251 0
M  V30 9075 H 866.691 1.41565 0.263715 0
M  V30 9076 H 868.644 2.97146 2.98801 0
M  V30 9077 H 867.368 1.75038 2.75734 0
M  V30 9078 H 866.027 3.39047 1.39436 0
M  V30 9079 H 865.675 3.21968 3.86453 0
M  V30 9080 H 865.375 4.87549 3.27979 0
M  V30 9081 H 866.899 4.49599 4.1315 0
M  V30 9082 H 868.313 5.36109 2.03125 0
M  V30 9083 H 866.71 5.83581 1.39831 0
M  V30 9084 H 867.78 4.83224 0.40285 0
M  V30 9085 N 869.123 -0.277682 1.55134 0
M  V30 9086 C 870.353 -1.02677 1.79279 0
M  V30 9087 C 870.761 -1.80599 0.563962 0
M  V30 9088 O 870.104 -1.77416 -0.476378 0
M  V30 9089 C 870.166 -2.03617 2.96277 0
M  V30 9090 C 869.83 -1.44676 4.33495 0
M  V30 9091 C 870.827 -0.864811 5.12657 0
M  V30 9092 C 868.512 -1.47537 4.80144 0
M  V30 9093 C 870.506 -0.319322 6.366 0
M  V30 9094 C 868.193 -0.926016 6.04043 0
M  V30 9095 C 869.191 -0.348988 6.82108 0
M  V30 9096 O 868.879 0.191964 8.03671 0
M  V30 9097 H 868.611 -0.309232 0.601125 0
M  V30 9098 H 871.165 -0.315308 2.02965 0
M  V30 9099 H 869.395 -2.78509 2.68272 0
M  V30 9100 H 871.084 -2.64616 3.07788 0
M  V30 9101 H 871.85 -0.835438 4.7775 0
M  V30 9102 H 867.729 -1.91389 4.19394 0
M  V30 9103 H 871.273 0.131709 6.97476 0
M  V30 9104 H 867.17 -0.952613 6.38432 0
M  V30 9105 H 867.938 0.0808779 8.1846 0
M  V30 9106 N 870.601 -1.47988 -0.541979 0
M  V30 9107 C 871.849 -1.55086 -1.29587 0
M  V30 9108 C 872.17 -0.221304 -1.9374 0
M  V30 9109 O 871.44 0.756128 -1.80719 0
M  V30 9110 H 870.02 -0.571307 -0.481266 0
M  V30 9111 H 872.682 -1.8438 -0.631675 0
M  V30 9112 H 871.778 -2.32556 -2.08144 0
M  V30 9113 N 872.079 0.78992 -1.36375 0
M  V30 9114 C 873.307 1.57873 -1.3373 0
M  V30 9115 C 873.722 1.88624 0.0815544 0
M  V30 9116 O 873.079 1.50085 1.03831 0
M  V30 9117 C 873.13 2.90003 -2.15825 0
M  V30 9118 O 872.851 2.60578 -3.5218 0
M  V30 9119 C 874.352 3.84309 -2.20955 0
M  V30 9120 H 871.572 0.489685 -0.458748 0
M  V30 9121 H 874.116 0.980436 -1.79465 0
M  V30 9122 H 872.271 3.46303 -1.73646 0
M  V30 9123 H 872.685 3.4506 -3.95011 0
M  V30 9124 H 874.159 4.74081 -2.82756 0
M  V30 9125 H 874.636 4.22121 -1.21287 0
M  V30 9126 H 875.242 3.33942 -2.63368 0
M  V30 9127 N 873.557 1.20646 1.01402 0
M  V30 9128 C 874.505 0.954493 2.12114 0
M  V30 9129 C 875.499 -0.0950737 1.69133 0
M  V30 9130 O 876.705 0.0555153 1.79914 0
M  V30 9131 H 873.08 0.29135 0.693267 0
M  V30 9132 H 875.051 1.89447 2.30548 0
M  V30 9133 C 873.8 0.525944 3.43699 0
M  V30 9134 H 873.123 1.32516 3.772 0
M  V30 9135 H 874.563 0.388883 4.22213 0
M  V30 9136 C 873.022 -0.761997 3.28169 0
M  V30 9137 O 873.552 -1.81979 3.58115 0
M  V30 9138 N 871.758 -0.725017 2.8141 0
M  V30 9139 H 871.305 0.13607 2.5724 0
M  V30 9140 H 871.263 -1.5871 2.71401 0
M  V30 9141 N 875.035 -1.20752 1.01276 0
M  V30 9142 C 876.446 -1.7175 0.732033 0
M  V30 9143 C 876.797 -1.8131 -0.749733 0
M  V30 9144 O 875.922 -1.47301 -1.58529 0
M  V30 9145 C 876.517 -3.11936 1.32217 0
M  V30 9146 C 875.076 -3.6026 1.09039 0
M  V30 9147 C 874.223 -2.37571 1.43022 0
M  V30 9148 H 877.174 -1.0582 1.1827 0
M  V30 9149 H 877.195 -3.73802 0.710771 0
M  V30 9150 H 876.707 -3.04946 2.40061 0
M  V30 9151 H 874.808 -3.72588 0.0294464 0
M  V30 9152 H 874.921 -4.45295 1.76775 0
M  V30 9153 H 873.285 -2.40128 0.849159 0
M  V30 9154 H 874.068 -2.33225 2.51915 0
M  V30 9155 N 876.513 -0.788492 -1.36457 0
M  V30 9156 C 877.443 -0.200468 -2.32638 0
M  V30 9157 C 878.424 0.664031 -1.56603 0
M  V30 9158 O 879.609 0.598045 -1.84762 0
M  V30 9159 C 876.739 0.666274 -3.40849 0
M  V30 9160 C 875.693 -0.0982574 -4.27887 0
M  V30 9161 C 875.019 0.889018 -5.27258 0
M  V30 9162 C 876.319 -1.28692 -5.06197 0
M  V30 9163 H 878.013 -1.00399 -2.82065 0
M  V30 9164 H 875.559 -0.484237 -1.35614 0
M  V30 9165 H 877.512 1.08757 -4.07124 0
M  V30 9166 H 876.236 1.50249 -2.89987 0
M  V30 9167 H 874.895 -0.500525 -3.63167 0
M  V30 9168 H 874.543 1.72024 -4.7267 0
M  V30 9169 H 874.243 0.381909 -5.86358 0
M  V30 9170 H 875.767 1.30891 -5.96406 0
M  V30 9171 H 877.181 -0.941429 -5.65517 0
M  V30 9172 H 875.578 -1.72726 -5.74705 0
M  V30 9173 H 876.648 -2.08273 -4.37893 0
M  V30 9174 N 877.991 1.48044 -0.54043 0
M  V30 9175 C 879.216 2.07396 -0.0124765 0
M  V30 9176 C 879.641 1.39288 1.26414 0
M  V30 9177 O 878.999 0.462252 1.75308 0
M  V30 9178 C 879.047 3.60131 0.18377 0
M  V30 9179 O 878.151 3.92995 1.25014 0
M  V30 9180 H 877.492 0.662554 -0.0438026 0
M  V30 9181 H 880.022 1.90306 -0.751327 0
M  V30 9182 H 880.032 4.06003 0.403197 0
M  V30 9183 H 878.707 4.09105 -0.74874 0
M  V30 9184 H 877.284 3.5889 1.01254 0
M  V30 9185 N 879.47 0.276058 1.55163 0
M  V30 9186 C 880.886 -0.0780579 1.59409 0
M  V30 9187 C 881.086 -1.54521 1.29327 0
M  V30 9188 O 880.142 -2.29422 1.05459 0
M  V30 9189 C 881.455 0.297422 2.99225 0
M  V30 9190 C 883.003 0.244117 3.12047 0
M  V30 9191 C 883.478 0.594051 4.54131 0
M  V30 9192 N 884.969 0.54564 4.59975 0
M  V30 9193 C 885.704 0.789192 5.67943 0
M  V30 9194 N 885.2 1.09741 6.84053 0
M  V30 9195 N 886.993 0.717926 5.57496 0
M  V30 9196 H 879.144 1.23251 1.72982 0
M  V30 9197 H 881.407 0.497988 0.806667 0
M  V30 9198 H 881.113 1.31782 3.26077 0
M  V30 9199 H 880.987 -0.361286 3.75466 0
M  V30 9200 H 883.374 -0.766992 2.84958 0
M  V30 9201 H 883.455 0.937097 2.38017 0
M  V30 9202 H 883.099 1.60285 4.81945 0
M  V30 9203 H 883.029 -0.120728 5.26462 0
M  V30 9204 H 885.52 0.317334 3.76565 0
M  V30 9205 H 885.833 1.26989 7.62295 0
M  V30 9206 H 884.178 1.13519 6.85666 0
M  V30 9207 H 887.369 0.47697 4.65664 0
M  V30 9208 H 887.542 0.911118 6.41563 0
M  V30 9209 N 880.948 -1.576 0.00335426 0
M  V30 9210 C 881.878 -2.11668 -0.985839 0
M  V30 9211 C 882.859 -1.02661 -1.35627 0
M  V30 9212 O 884.044 -1.30361 -1.43943 0
M  V30 9213 C 881.174 -2.62273 -2.27662 0
M  V30 9214 C 880.128 -3.75837 -2.0477 0
M  V30 9215 C 879.454 -4.12769 -3.39891 0
M  V30 9216 C 880.754 -5.02975 -1.40759 0
M  V30 9217 H 882.448 -2.9457 -0.535637 0
M  V30 9218 H 879.994 -1.41702 -0.256204 0
M  V30 9219 H 881.947 -2.98727 -2.97221 0
M  V30 9220 H 880.671 -1.76498 -2.74802 0
M  V30 9221 H 879.33 -3.39782 -1.37636 0
M  V30 9222 H 878.978 -3.24013 -3.8474 0
M  V30 9223 H 878.678 -4.89281 -3.25389 0
M  V30 9224 H 880.202 -4.51784 -4.1076 0
M  V30 9225 H 881.616 -5.37179 -2.00279 0
M  V30 9226 H 880.013 -5.84315 -1.36734 0
M  V30 9227 H 881.083 -4.83431 -0.377218 0
M  V30 9228 N 882.426 0.269451 -1.5528 0
M  V30 9229 C 883.373 1.33316 -1.88403 0
M  V30 9230 C 884.343 1.48909 -0.735881 0
M  V30 9231 O 885.528 1.63259 -0.987479 0
M  V30 9232 C 882.668 2.68778 -2.16454 0
M  V30 9233 C 881.781 2.61377 -3.43956 0
M  V30 9234 C 880.916 3.89042 -3.6169 0
M  V30 9235 C 879.955 3.76166 -4.82872 0
M  V30 9236 N 879.092 4.95673 -4.97245 0
M  V30 9237 H 883.932 1.04368 -2.79126 0
M  V30 9238 H 881.469 0.504147 -1.38191 0
M  V30 9239 H 883.427 3.47599 -2.30719 0
M  V30 9240 H 882.057 2.9592 -1.28961 0
M  V30 9241 H 881.109 1.74247 -3.38145 0
M  V30 9242 H 882.421 2.47764 -4.32914 0
M  V30 9243 H 881.575 4.76304 -3.75791 0
M  V30 9244 H 880.314 4.05526 -2.70924 0
M  V30 9245 H 879.319 2.87287 -4.68771 0
M  V30 9246 H 880.544 3.61198 -5.75077 0
M  V30 9247 H 878.49 5.12561 -4.09411 0
M  V30 9248 H 878.407 4.84605 -5.80254 0
M  V30 9249 H 879.675 5.84498 -5.15735 0
M  V30 9250 N 883.904 1.48273 0.534124 0
M  V30 9251 C 884.834 1.6538 1.64839 0
M  V30 9252 C 885.815 0.502741 1.62501 0
M  V30 9253 O 887 0.734799 1.79762 0
M  V30 9254 C 884.13 1.68949 3.03436 0
M  V30 9255 C 883.084 2.83513 3.20631 0
M  V30 9256 C 882.41 2.72169 4.60248 0
M  V30 9257 C 883.71 4.24858 3.03797 0
M  V30 9258 H 885.404 2.58663 1.50777 0
M  V30 9259 H 882.95 1.24479 0.723937 0
M  V30 9260 H 884.903 1.79505 3.81256 0
M  V30 9261 H 883.627 0.722415 3.1851 0
M  V30 9262 H 882.286 2.72505 2.45227 0
M  V30 9263 H 881.934 1.7344 4.72152 0
M  V30 9264 H 881.634 3.49042 4.72698 0
M  V30 9265 H 883.158 2.84687 5.40172 0
M  V30 9266 H 884.572 4.36721 3.71413 0
M  V30 9267 H 882.969 5.02697 3.27743 0
M  V30 9268 H 884.039 4.41611 2.0027 0
M  V30 9269 N 885.382 -0.782676 1.36792 0
M  V30 9270 C 886.659 -1.52939 1.21939 0
M  V30 9271 C 887.039 -2.10228 -0.191639 0
M  V30 9272 O 886.387 -1.94574 -1.19805 0
M  V30 9273 C 886.597 -2.61898 2.30674 0
M  V30 9274 C 887.945 -3.29598 2.67676 0
M  V30 9275 O 888.969 -2.72186 2.29768 0
M  V30 9276 O 887.828 -4.3337 3.32946 0
M  V30 9277 H 884.922 -0.676856 0.47518 0
M  V30 9278 H 887.468 -0.82058 1.48542 0
M  V30 9279 H 886.24 -2.17607 3.25212 0
M  V30 9280 H 885.863 -3.40391 2.05475 0
M  V30 9281 N 886.86 -1.21182 -1.00761 0
M  V30 9282 C 887.808 -0.965728 -2.11604 0
M  V30 9283 C 888.802 0.0861028 -1.69181 0
M  V30 9284 O 890.008 -0.0650558 -1.79882 0
M  V30 9285 H 886.383 -0.295023 -0.691712 0
M  V30 9286 H 888.354 -1.90667 -2.2954 0
M  V30 9287 C 887.103 -0.544164 -3.43415 0
M  V30 9288 H 886.426 -1.34515 -3.76491 0
M  V30 9289 H 887.866 -0.411268 -4.22001 0
M  V30 9290 C 886.325 0.744583 -3.28569 0
M  V30 9291 O 886.855 1.80078 -3.59075 0
M  V30 9292 N 885.061 0.710083 -2.81791 0
M  V30 9293 H 884.608 -0.14971 -2.57165 0
M  V30 9294 H 884.566 1.57268 -2.72239 0
M  V30 9295 N 888.338 1.20213 -1.01915 0
M  V30 9296 C 889.586 1.89272 -0.708552 0
M  V30 9297 C 889.907 1.79394 0.76438 0
M  V30 9298 O 889.177 1.198 1.54999 0
M  V30 9299 H 887.757 0.700628 -0.259094 0
M  V30 9300 H 890.419 1.45985 -1.29129 0
M  V30 9301 H 889.515 2.95841 -0.994215 0
M  V30 9302 N 889.816 0.795718 1.36037 0
M  V30 9303 C 890.763 0.196548 2.29962 0
M  V30 9304 C 891.733 -0.663213 1.52285 0
M  V30 9305 O 892.918 -0.610574 1.80767 0
M  V30 9306 C 890.058 -0.657639 3.38776 0
M  V30 9307 C 889.171 0.221358 4.31433 0
M  V30 9308 C 888.306 -0.6398 5.27333 0
M  V30 9309 C 887.345 0.240265 6.11628 0
M  V30 9310 N 886.482 -0.580237 6.99698 0
M  V30 9311 H 891.322 1.00295 2.80615 0
M  V30 9312 H 888.859 0.506147 1.38118 0
M  V30 9313 H 890.817 -1.16793 4.00519 0
M  V30 9314 H 889.447 -1.42941 2.89426 0
M  V30 9315 H 888.499 0.84967 3.70789 0
M  V30 9316 H 889.811 0.899195 4.90628 0
M  V30 9317 H 888.965 -1.21566 5.94396 0
M  V30 9318 H 887.704 -1.35124 4.68607 0
M  V30 9319 H 886.709 0.828474 5.43522 0
M  V30 9320 H 887.934 0.949403 6.72431 0
M  V30 9321 H 885.88 -1.27585 6.43473 0
M  V30 9322 H 885.797 0.0397853 7.5599 0
M  V30 9323 H 887.065 -1.13972 7.71123 0
M  V30 9324 N 891.294 -1.47756 0.548274 0
M  V30 9325 C 892.224 -2.32702 -0.19284 0
M  V30 9326 C 893.205 -1.43237 -0.917457 0
M  V30 9327 O 894.39 -1.72103 -0.89967 0
M  V30 9328 C 891.52 -3.24831 -1.22891 0
M  V30 9329 C 890.474 -4.23466 -0.621312 0
M  V30 9330 C 889.8 -5.04856 -1.76137 0
M  V30 9331 C 891.1 -5.20616 0.419055 0
M  V30 9332 H 892.794 -2.94914 0.516323 0
M  V30 9333 H 890.34 -1.41818 0.24975 0
M  V30 9334 H 892.293 -3.83094 -1.75547 0
M  V30 9335 H 891.017 -2.60656 -1.9679 0
M  V30 9336 H 889.676 -3.66416 -0.116123 0
M  V30 9337 H 889.324 -4.37091 -2.48918 0
M  V30 9338 H 889.024 -5.71629 -1.36065 0
M  V30 9339 H 890.548 -5.65976 -2.29136 0
M  V30 9340 H 891.962 -5.73296 -0.0211034 0
M  V30 9341 H 890.359 -5.95543 0.738163 0
M  V30 9342 H 891.429 -4.66638 1.31822 0
M  V30 9343 N 892.772 -0.284283 -1.55015 0
M  V30 9344 C 893.735 0.586182 -2.21577 0
M  V30 9345 C 894.735 1.07427 -1.1965 0
M  V30 9346 O 895.925 0.972977 -1.44495 0
M  V30 9347 C 893.057 1.80973 -2.88897 0
M  V30 9348 H 894.25 0.00487253 -2.999 0
M  V30 9349 H 891.803 -0.0349696 -1.56261 0
M  V30 9350 H 892.538 2.43131 -2.14611 0
M  V30 9351 H 892.323 1.46757 -3.636 0
M  V30 9352 H 893.813 2.42853 -3.39724 0
M  V30 9353 N 894.251 1.57596 -0.0117121 0
M  V30 9354 C 895.499 1.90694 0.669342 0
M  V30 9355 C 895.82 0.886999 1.73659 0
M  V30 9356 O 895.09 -0.0739779 1.9576 0
M  V30 9357 H 893.67 0.703846 0.250219 0
M  V30 9358 H 896.332 1.94821 -0.0554057 0
M  V30 9359 H 895.428 2.90802 1.13316 0
M  V30 9360 N 895.729 -0.261212 1.5542 0
M  V30 9361 C 896.659 -1.32712 1.92119 0
M  V30 9362 C 897.64 -1.50934 0.784406 0
M  V30 9363 O 898.825 -1.63781 1.04352 0
M  V30 9364 C 895.955 -2.68453 2.20341 0
M  V30 9365 C 894.909 -2.64947 3.36136 0
M  V30 9366 C 894.235 -4.04349 3.49865 0
M  V30 9367 C 895.535 -2.23182 4.72215 0
M  V30 9368 H 897.229 -1.02245 2.81401 0
M  V30 9369 H 894.775 -0.490406 1.35392 0
M  V30 9370 H 896.728 -3.43144 2.44603 0
M  V30 9371 H 895.452 -3.00527 1.27871 0
M  V30 9372 H 894.111 -1.92714 3.11861 0
M  V30 9373 H 893.759 -4.33665 2.5484 0
M  V30 9374 H 893.459 -4.02895 4.27726 0
M  V30 9375 H 894.983 -4.80761 3.76432 0
M  V30 9376 H 896.397 -2.87599 4.95943 0
M  V30 9377 H 894.794 -2.32867 5.53076 0
M  V30 9378 H 895.864 -1.18327 4.70241 0
M  V30 9379 N 897.207 -1.48554 -0.526253 0
M  V30 9380 C 898.137 -1.66252 -1.63959 0
M  V30 9381 C 899.118 -0.511351 -1.62232 0
M  V30 9382 O 900.303 -0.744322 -1.7937 0
M  V30 9383 C 897.433 -1.70556 -3.02536 0
M  V30 9384 C 896.387 -2.8521 -3.19123 0
M  V30 9385 C 895.713 -2.74606 -4.58798 0
M  V30 9386 C 897.013 -4.26463 -3.0154 0
M  V30 9387 H 898.707 -2.59459 -1.49404 0
M  V30 9388 H 896.253 -1.24862 -0.717326 0
M  V30 9389 H 898.206 -1.81524 -3.80298 0
M  V30 9390 H 896.93 -0.739297 -3.18123 0
M  V30 9391 H 895.589 -2.73802 -2.43779 0
M  V30 9392 H 895.237 -1.75941 -4.71226 0
M  V30 9393 H 894.937 -3.51544 -4.70841 0
M  V30 9394 H 896.461 -2.87548 -5.38655 0
M  V30 9395 H 897.875 -4.38685 -3.69091 0
M  V30 9396 H 896.272 -5.04428 -3.25073 0
M  V30 9397 H 897.342 -4.42667 -1.97925 0
M  V30 9398 N 898.685 0.775411 -1.37205 0
M  V30 9399 C 899.648 1.8702 -1.325 0
M  V30 9400 C 900.648 1.5915 -0.229793 0
M  V30 9401 O 901.838 1.673 -0.485423 0
M  V30 9402 C 898.97 3.24085 -1.05745 0
M  V30 9403 H 900.163 1.92604 -2.29878 0
M  V30 9404 H 897.716 0.97476 -1.22181 0
M  V30 9405 H 898.451 3.24178 -0.0888371 0
M  V30 9406 H 898.236 3.45705 -1.85016 0
M  V30 9407 H 899.726 4.0416 -1.05094 0
M  V30 9408 N 900.163 1.21714 1.00117 0
M  V30 9409 C 901.095 0.937627 2.09144 0
M  V30 9410 C 902.108 -0.0806291 1.626 0
M  V30 9411 O 903.297 0.152348 1.77849 0
M  V30 9412 C 900.397 0.387036 3.36683 0
M  V30 9413 C 899.57 1.46054 4.12295 0
M  V30 9414 C 898.629 0.918505 5.18122 0
M  V30 9415 O 897.655 1.60282 5.46167 0
M  V30 9416 N 898.857 -0.264308 5.79898 0
M  V30 9417 H 901.622 1.87622 2.33705 0
M  V30 9418 H 899.183 1.12291 1.16629 0
M  V30 9419 H 901.175 0.00992825 4.04699 0
M  V30 9420 H 899.745 -0.456467 3.09249 0
M  V30 9421 H 898.965 2.01133 3.39027 0
M  V30 9422 H 900.253 2.18306 4.59587 0
M  V30 9423 H 899.651 -0.837242 5.5947 0
M  V30 9424 H 898.208 -0.582886 6.49188 0
M  V30 9425 N 901.641 -1.19671 1.02551 0
M  V30 9426 C 903.057 -1.41305 0.741963 0
M  V30 9427 C 903.257 -1.89865 -0.674807 0
M  V30 9428 O 902.313 -2.07323 -1.44129 0
M  V30 9429 C 903.626 -2.42706 1.77522 0
M  V30 9430 C 905.174 -2.56458 1.79438 0
M  V30 9431 C 905.649 -3.61111 2.81715 0
M  V30 9432 N 907.14 -3.68603 2.8051 0
M  V30 9433 C 907.875 -4.49262 3.56302 0
M  V30 9434 N 907.371 -5.33653 4.41799 0
M  V30 9435 N 909.164 -4.43879 3.44859 0
M  V30 9436 H 901.315 -0.8647 1.94002 0
M  V30 9437 H 903.578 -0.442206 0.838545 0
M  V30 9438 H 903.284 -2.14042 2.79068 0
M  V30 9439 H 903.158 -3.41831 1.59472 0
M  V30 9440 H 905.545 -2.84447 0.78573 0
M  V30 9441 H 905.626 -1.57499 2.01563 0
M  V30 9442 H 905.27 -3.33864 3.82749 0
M  V30 9443 H 905.2 -4.59713 2.56849 0
M  V30 9444 H 907.691 -3.08329 2.18498 0
M  V30 9445 H 908.004 -5.92308 4.96378 0
M  V30 9446 H 906.349 -5.33125 4.45873 0
M  V30 9447 H 909.54 -3.7699 2.77482 0
M  V30 9448 H 909.713 -5.06501 4.04179 0
M  V30 9449 N 903.119 -0.802921 -1.35613 0
M  V30 9450 C 904.052 -0.156345 -2.27664 0
M  V30 9451 C 905.03 0.675517 -1.47904 0
M  V30 9452 O 906.214 0.643589 -1.77173 0
M  V30 9453 C 903.341 0.78348 -3.29514 0
M  V30 9454 C 902.387 0.0317062 -4.26488 0
M  V30 9455 S 903.22 -1.30183 -5.19435 0
M  V30 9456 C 904.376 -0.366354 -6.24827 0
M  V30 9457 H 904.609 -0.936803 -2.82155 0
M  V30 9458 H 902.142 -0.597799 -1.42358 0
M  V30 9459 H 904.1 1.32023 -3.8869 0
M  V30 9460 H 902.761 1.53729 -2.73909 0
M  V30 9461 H 901.954 0.745364 -4.98458 0
M  V30 9462 H 901.556 -0.43497 -3.71462 0
M  V30 9463 H 903.848 0.44976 -6.76005 0
M  V30 9464 H 904.791 -1.05513 -7.00195 0
M  V30 9465 H 905.199 0.0363203 -5.64488 0
M  V30 9466 N 904.597 1.47463 -0.556102 0
M  V30 9467 C 905.844 2.02475 -0.0316337 0
M  V30 9468 C 906.172 1.43057 1.31777 0
M  V30 9469 O 905.427 0.575376 1.87051 0
M  V30 9470 C 905.726 3.57224 0.112126 0
M  V30 9471 C 905.392 4.35557 -1.16624 0
M  V30 9472 C 904.054 4.56678 -1.51654 0
M  V30 9473 C 906.406 4.8074 -2.01342 0
M  V30 9474 C 903.734 5.20231 -2.7125 0
M  V30 9475 C 906.086 5.45613 -3.2014 0
M  V30 9476 C 904.75 5.64967 -3.55484 0
M  V30 9477 H 904.02 0.74091 -0.0115756 0
M  V30 9478 H 906.667 1.77148 -0.727392 0
M  V30 9479 H 904.972 3.81538 0.890842 0
M  V30 9480 H 906.669 3.97438 0.533261 0
M  V30 9481 H 903.259 4.19395 -0.883489 0
M  V30 9482 H 907.443 4.64201 -1.75587 0
M  V30 9483 H 902.699 5.3341 -2.98804 0
M  V30 9484 H 906.873 5.79587 -3.86073 0
M  V30 9485 H 904.5 6.13984 -4.4825 0
M  V30 9486 N 906.075 0.2925 1.54862 0
M  V30 9487 C 907.321 -0.319736 2.00264 0
M  V30 9488 C 907.654 -1.5419 1.18064 0
M  V30 9489 O 906.929 -1.92821 0.254983 0
M  V30 9490 C 907.212 -0.684753 3.5353 0
M  V30 9491 C 907.065 0.545961 4.46474 0
M  V30 9492 C 908.384 -1.51456 4.13218 0
M  V30 9493 H 905.503 -0.11474 0.728014 0
M  V30 9494 H 908.145 0.402907 1.85679 0
M  V30 9495 H 906.295 -1.30044 3.66089 0
M  V30 9496 H 907.967 1.18448 4.45834 0
M  V30 9497 H 906.21 1.1808 4.1742 0
M  V30 9498 H 906.881 0.246544 5.51449 0
M  V30 9499 H 909.357 -0.994421 4.04043 0
M  V30 9500 H 908.233 -1.73875 5.20633 0
M  V30 9501 H 908.494 -2.5011 3.64551 0
M  V30 9502 N 907.553 -1.57587 0.0200696 0
M  V30 9503 C 908.486 -2.05157 -0.999295 0
M  V30 9504 C 909.464 -0.945466 -1.32286 0
M  V30 9505 O 910.648 -1.21512 -1.44108 0
M  V30 9506 C 907.775 -2.46604 -2.32173 0
M  V30 9507 C 906.821 -3.68146 -2.15339 0
M  V30 9508 S 907.654 -5.15194 -1.46065 0
M  V30 9509 C 908.81 -5.59929 -2.79697 0
M  V30 9510 H 909.043 -2.91299 -0.59433 0
M  V30 9511 H 906.576 -1.53209 -0.191372 0
M  V30 9512 H 908.534 -2.7115 -3.08201 0
M  V30 9513 H 907.195 -1.60825 -2.69804 0
M  V30 9514 H 906.388 -3.94963 -3.13082 0
M  V30 9515 H 905.99 -3.43705 -1.47454 0
M  V30 9516 H 908.282 -5.63615 -3.75957 0
M  V30 9517 H 909.225 -6.59599 -2.57555 0
M  V30 9518 H 909.633 -4.87549 -2.84528 0
M  V30 9519 N 909.032 0.252966 -1.55557 0
M  V30 9520 C 909.962 1.31691 -1.9282 0
M  V30 9521 C 910.943 1.50516 -0.7924 0
M  V30 9522 O 912.128 1.63225 -1.05219 0
M  V30 9523 C 909.258 2.67281 -2.21762 0
M  V30 9524 C 908.212 2.6316 -3.37536 0
M  V30 9525 C 907.538 4.02488 -3.52005 0
M  V30 9526 C 908.838 2.20675 -4.73392 0
M  V30 9527 H 910.532 1.00751 -2.81939 0
M  V30 9528 H 908.078 0.483219 -1.3565 0
M  V30 9529 H 910.031 3.41842 -2.46419 0
M  V30 9530 H 908.755 2.99845 -1.29463 0
M  V30 9531 H 907.414 1.91057 -3.12878 0
M  V30 9532 H 907.062 4.32307 -2.57137 0
M  V30 9533 H 906.762 4.00621 -4.29857 0
M  V30 9534 H 908.286 4.78758 -3.78977 0
M  V30 9535 H 909.7 2.84965 -4.97461 0
M  V30 9536 H 908.097 2.29931 -5.54303 0
M  V30 9537 H 909.167 1.15831 -4.70862 0
M  V30 9538 N 910.51 1.48831 0.518367 0
M  V30 9539 C 911.921 1.50842 1.10016 0
M  V30 9540 C 912.272 0.284744 1.94123 0
M  V30 9541 O 911.397 -0.607088 2.0771 0
M  V30 9542 C 911.992 2.73329 2.00191 0
M  V30 9543 C 910.551 2.78175 2.53566 0
M  V30 9544 C 909.698 2.4452 1.30786 0
M  V30 9545 H 912.649 1.55779 0.303073 0
M  V30 9546 H 912.67 2.52506 2.84642 0
M  V30 9547 H 912.182 3.62374 1.3895 0
M  V30 9548 H 910.283 1.93368 3.18496 0
M  V30 9549 H 910.396 3.79905 2.91906 0
M  V30 9550 H 908.76 1.95924 1.62744 0
M  V30 9551 H 909.543 3.35819 0.712797 0
M  V30 9552 N 911.988 -0.768124 1.37614 0
M  V30 9553 C 913.228 -1.53979 1.34424 0
M  V30 9554 C 913.592 -1.91874 -0.0696803 0
M  V30 9555 O 914.793 -2.67845 -0.22633 0
M  V30 9556 C 913.064 -2.76845 2.26034 0
M  V30 9557 S 914.623 -3.66871 2.4073 0
M  V30 9558 H 911.441 -0.527108 0.477157 0
M  V30 9559 H 914.043 -0.902945 1.73399 0
M  V30 9560 H 912.747 -2.47091 3.2768 0
M  V30 9561 H 912.278 -3.45486 1.88157 0
M  V30 9562 H 914.293 -4.6899 1.62057 0
M  V30 9563 N 913.466 -1.22244 -0.994698 0
M  V30 9564 C 914.714 -1.04384 -1.73056 0
M  V30 9565 C 915.035 0.422204 -1.90374 0
M  V30 9566 O 914.305 1.30383 -1.46209 0
M  V30 9567 H 912.885 -0.383263 -0.641185 0
M  V30 9568 H 915.547 -1.53725 -1.1981 0
M  V30 9569 H 914.643 -1.52021 -2.72573 0
M  V30 9570 N 914.944 1.19125 -1.03184 0
M  V30 9571 C 916.192 1.8851 -0.728587 0
M  V30 9572 C 916.513 1.80195 0.74531 0
M  V30 9573 O 915.783 1.21437 1.5372 0
M  V30 9574 H 914.363 0.69784 -0.266511 0
M  V30 9575 H 917.025 1.44607 -1.3067 0
M  V30 9576 H 916.121 2.9477 -1.02554 0
M  V30 9577 N 916.422 0.810101 1.35185 0
M  V30 9578 C 917.668 0.392698 1.98962 0
M  V30 9579 C 918.001 -1.03835 1.64109 0
M  V30 9580 O 917.276 -1.721 0.9062 0
M  V30 9581 C 917.559 0.580349 3.55393 0
M  V30 9582 C 917.412 2.05658 4.00031 0
M  V30 9583 C 918.731 0.00822618 4.40099 0
M  V30 9584 H 915.85 0.144157 0.722764 0
M  V30 9585 H 918.492 1.02029 1.60281 0
M  V30 9586 H 916.642 0.0461106 3.88473 0
M  V30 9587 H 918.314 2.65348 3.77344 0
M  V30 9588 H 916.557 2.55174 3.50811 0
M  V30 9589 H 917.228 2.13875 5.08883 0
M  V30 9590 H 919.704 0.464517 4.13499 0
M  V30 9591 H 918.58 0.169414 5.48638 0
M  V30 9592 H 918.841 -1.08576 4.2856 0
M  V30 9593 N 917.9 -1.47166 0.563914 0
M  V30 9594 C 919.148 -2.02056 0.0422873 0
M  V30 9595 C 919.469 -1.43992 -1.31497 0
M  V30 9596 O 918.739 -0.617578 -1.85911 0
M  V30 9597 H 917.319 -0.746893 0.0126427 0
M  V30 9598 H 919.981 -1.80492 0.735441 0
M  V30 9599 H 919.077 -3.12073 -0.0408044 0
M  V30 9600 N 919.378 -0.300708 -1.54705 0
M  V30 9601 C 920.624 0.309111 -2.0043 0
M  V30 9602 C 920.957 1.53562 -1.1888 0
M  V30 9603 O 920.232 1.92683 -0.265205 0
M  V30 9604 C 920.515 0.665995 -3.53888 0
M  V30 9605 C 920.368 -0.56963 -4.46178 0
M  V30 9606 C 921.687 1.49262 -4.14016 0
M  V30 9607 H 918.806 0.110878 -0.728612 0
M  V30 9608 H 921.448 -0.412748 -1.85463 0
M  V30 9609 H 919.598 1.281 -3.66773 0
M  V30 9610 H 921.27 -1.20811 -4.45199 0
M  V30 9611 H 919.513 -1.20292 -4.16788 0
M  V30 9612 H 920.184 -0.275785 -5.51311 0
M  V30 9613 H 922.66 0.972979 -4.04564 0
M  V30 9614 H 921.536 1.71111 -5.21548 0
M  V30 9615 H 921.797 2.48174 -3.65872 0
M  V30 9616 N 920.856 1.57574 -0.0284266 0
M  V30 9617 C 922.133 1.83064 0.688979 0
M  V30 9618 C 922.513 0.91219 1.90374 0
M  V30 9619 O 921.861 -0.0323672 2.28477 0
M  V30 9620 C 922.071 3.32262 1.06785 0
M  V30 9621 C 923.419 3.98717 1.45978 0
M  V30 9622 O 924.443 3.36753 1.16085 0
M  V30 9623 O 923.302 5.07927 2.01673 0
M  V30 9624 H 920.396 0.7548 0.337944 0
M  V30 9625 H 922.942 1.69607 -0.0560555 0
M  V30 9626 H 921.714 3.90772 0.203235 0
M  V30 9627 H 921.337 3.50823 1.87107 0
M  V30 9628 N 922.334 -0.244713 1.55689 0
M  V30 9629 C 923.562 -0.989944 1.8168 0
M  V30 9630 C 923.977 -1.78863 0.604449 0
M  V30 9631 O 923.334 -1.77437 -0.426907 0
M  V30 9632 C 923.385 -1.92607 3.05916 0
M  V30 9633 O 923.106 -1.1597 4.22472 0
M  V30 9634 C 924.607 -2.78711 3.44724 0
M  V30 9635 H 921.827 -0.2912 0.604519 0
M  V30 9636 H 924.371 -0.266938 2.0275 0
M  V30 9637 H 922.526 -2.60333 2.8689 0
M  V30 9638 H 922.94 -1.79311 4.92898 0
M  V30 9639 H 924.414 -3.40141 4.34751 0
M  V30 9640 H 924.891 -3.49935 2.6541 0
M  V30 9641 H 925.497 -2.16435 3.66109 0
M  V30 9642 N 923.813 -1.49104 -0.510467 0
M  V30 9643 C 925.09 -1.48609 -1.27179 0
M  V30 9644 C 925.47 -0.208537 -2.10067 0
M  V30 9645 O 924.818 0.809335 -2.13687 0
M  V30 9646 C 925.028 -2.75953 -2.1366 0
M  V30 9647 C 926.376 -3.25067 -2.73161 0
M  V30 9648 O 927.4 -2.77005 -2.23934 0
M  V30 9649 O 926.259 -4.08747 -3.62751 0
M  V30 9650 H 923.353 -0.594374 -0.57502 0
M  V30 9651 H 925.899 -1.61358 -0.525515 0
M  V30 9652 H 924.671 -3.60434 -1.52325 0
M  V30 9653 H 924.294 -2.66019 -2.95499 0
M  V30 9654 N 925.291 0.760815 -1.38019 0
M  V30 9655 C 926.519 1.55001 -1.37048 0
M  V30 9656 C 926.934 1.88754 0.0415261 0
M  V30 9657 O 926.291 1.52254 1.00624 0
M  V30 9658 C 926.342 2.8536 -2.21928 0
M  V30 9659 O 926.063 2.53049 -3.57628 0
M  V30 9660 C 927.564 3.79536 -2.29057 0
M  V30 9661 H 924.784 0.479844 -0.469032 0
M  V30 9662 H 927.328 0.942148 -1.81504 0
M  V30 9663 H 925.483 3.42542 -1.80953 0
M  V30 9664 H 925.897 3.36604 -4.02241 0
M  V30 9665 H 927.371 4.67977 -2.92749 0
M  V30 9666 H 927.848 4.19453 -1.30213 0
M  V30 9667 H 928.454 3.28281 -2.70392 0
M  V30 9668 N 926.769 1.22769 0.988202 0
M  V30 9669 C 928.018 1.0492 1.72263 0
M  V30 9670 C 928.331 -0.415282 1.91141 0
M  V30 9671 O 929.537 -0.713547 2.61956 0
M  V30 9672 C 927.993 1.82891 3.09966 0
M  V30 9673 C 927.601 3.33618 2.99003 0
M  V30 9674 C 929.345 1.73505 3.87423 0
M  V30 9675 C 927.252 4.04012 4.3189 0
M  V30 9676 H 926.182 0.38899 0.645912 0
M  V30 9677 H 928.833 1.46664 1.10281 0
M  V30 9678 H 927.215 1.33948 3.72658 0
M  V30 9679 H 928.389 3.8999 2.45448 0
M  V30 9680 H 926.704 3.43732 2.35027 0
M  V30 9681 H 929.301 2.23416 4.85787 0
M  V30 9682 H 929.644 0.696344 4.10435 0
M  V30 9683 H 930.177 2.20016 3.31418 0
M  V30 9684 H 926.916 5.08155 4.14075 0
M  V30 9685 H 926.436 3.52428 4.8534 0
M  V30 9686 H 928.115 4.0987 5.00615 0
M  V30 9687 N 928.247 -1.18576 1.03814 0
M  V30 9688 C 929.493 -1.89032 0.750892 0
M  V30 9689 C 929.848 -1.78683 -0.713444 0
M  V30 9690 O 929.141 -1.1746 -1.51373 0
M  V30 9691 C 929.335 -3.38448 1.14837 0
M  V30 9692 C 929.164 -3.63339 2.64981 0
M  V30 9693 C 927.934 -3.80847 3.3209 0
M  V30 9694 C 930.132 -3.64131 3.63198 0
M  V30 9695 N 928.114 -3.93453 4.71241 0
M  V30 9696 C 929.485 -3.82421 4.88011 0
M  V30 9697 C 931.54 -3.47206 3.56865 0
M  V30 9698 C 930.243 -3.85538 6.0725 0
M  V30 9699 C 932.269 -3.51605 4.75529 0
M  V30 9700 C 931.631 -3.70388 5.99159 0
M  V30 9701 H 927.73 -0.710447 0.326786 0
M  V30 9702 H 930.314 -1.42444 1.32732 0
M  V30 9703 H 928.485 -3.83737 0.600058 0
M  V30 9704 H 930.217 -3.96462 0.812406 0
M  V30 9705 H 926.972 -3.80122 2.82496 0
M  V30 9706 H 927.396 -4.03584 5.43552 0
M  V30 9707 H 932.038 -3.31632 2.6226 0
M  V30 9708 H 929.756 -3.99901 7.02214 0
M  V30 9709 H 933.342 -3.39787 4.72267 0
M  V30 9710 H 932.222 -3.73679 6.89445 0
M  V30 9711 N 929.725 -0.817259 -1.34754 0
M  V30 9712 C 930.673 -0.223352 -2.31525 0
M  V30 9713 C 931.667 0.632785 -1.57137 0
M  V30 9714 O 932.873 0.524757 -1.72181 0
M  V30 9715 H 929.248 -0.0534765 -0.750096 0
M  V30 9716 H 931.219 -1.05446 -2.79148 0
M  V30 9717 C 929.968 0.604784 -3.424 0
M  V30 9718 H 929.291 -0.0446664 -3.99775 0
M  V30 9719 H 930.731 0.986543 -4.12363 0
M  V30 9720 C 929.19 1.77478 -2.86362 0
M  V30 9721 O 929.72 2.87273 -2.8078 0
M  V30 9722 N 927.926 1.58971 -2.43263 0
M  V30 9723 H 927.473 0.696598 -2.48003 0
M  V30 9724 H 927.431 2.37408 -2.06119 0
M  V30 9725 N 931.203 1.46865 -0.571711 0
M  V30 9726 C 932.113 2.33979 0.170571 0
M  V30 9727 C 933.129 1.49083 0.897239 0
M  V30 9728 O 934.305 1.81979 0.862888 0
M  V30 9729 C 931.37 3.26063 1.17831 0
M  V30 9730 C 930.431 4.26855 0.457499 0
M  V30 9731 C 929.664 5.14539 1.41722 0
M  V30 9732 O 929.887 5.04945 2.65305 0
M  V30 9733 O 928.821 5.94612 0.9338 0
M  V30 9734 H 932.647 2.98781 -0.544396 0
M  V30 9735 H 930.232 1.4566 -0.332198 0
M  V30 9736 H 932.114 3.82903 1.75965 0
M  V30 9737 H 930.789 2.63871 1.87493 0
M  V30 9738 H 929.696 3.73734 -0.165406 0
M  V30 9739 H 931.029 4.91802 -0.197953 0
M  V30 9740 N 932.681 0.308908 1.54543 0
M  V30 9741 C 933.611 -0.556657 2.26768 0
M  V30 9742 C 934.592 -1.13145 1.27013 0
M  V30 9743 O 935.777 -1.15931 1.558 0
M  V30 9744 C 932.907 -1.72481 3.01443 0
M  V30 9745 C 931.861 -1.28001 4.08411 0
M  V30 9746 C 931.187 -2.53395 4.70845 0
M  V30 9747 C 932.487 -0.405497 5.20724 0
M  V30 9748 H 934.181 0.0457618 2.99365 0
M  V30 9749 H 931.727 0.0234495 1.43981 0
M  V30 9750 H 933.68 -2.3365 3.50693 0
M  V30 9751 H 932.404 -2.35359 2.26437 0
M  V30 9752 H 931.063 -0.69133 3.60022 0
M  V30 9753 H 930.711 -3.14604 3.92471 0
M  V30 9754 H 930.411 -2.2433 5.43093 0
M  V30 9755 H 931.935 -3.15352 5.22863 0
M  V30 9756 H 933.349 -0.923076 5.6582 0
M  V30 9757 H 931.746 -0.208282 5.99738 0
M  V30 9758 H 932.816 0.567412 4.81569 0
M  V30 9759 N 934.159 -1.57557 0.0367827 0
M  V30 9760 C 935.109 -2.07182 -0.95183 0
M  V30 9761 C 936.093 -0.973921 -1.28076 0
M  V30 9762 O 937.285 -1.23741 -1.26559 0
M  V30 9763 C 934.414 -2.60869 -2.23164 0
M  V30 9764 C 933.5 -3.77602 -1.93074 0
M  V30 9765 N 933.891 -4.87923 -1.33283 0
M  V30 9766 C 932.189 -3.86234 -2.23023 0
M  V30 9767 C 932.89 -5.69083 -1.20498 0
M  V30 9768 N 931.866 -5.16233 -1.70306 0
M  V30 9769 H 935.668 -2.89876 -0.484647 0
M  V30 9770 H 933.182 -1.61528 -0.16804 0
M  V30 9771 H 935.179 -2.94716 -2.9487 0
M  V30 9772 H 933.839 -1.79607 -2.70502 0
M  V30 9773 H 934.85 -5.08018 -1.00686 0
M  V30 9774 H 931.527 -3.15891 -2.72981 0
M  V30 9775 H 932.917 -6.6779 -0.741999 0
M  V30 9776 N 935.637 0.236453 -1.55816 0
M  V30 9777 C 936.862 0.98449 -1.82545 0
M  V30 9778 C 937.287 1.77755 -0.615206 0
M  V30 9779 O 936.645 1.75982 0.435895 0
M  V30 9780 C 936.693 1.88973 -3.07118 0
M  V30 9781 O 935.797 2.98298 -2.84766 0
M  V30 9782 H 935.138 0.279577 -0.602273 0
M  V30 9783 H 937.668 0.254277 -2.03014 0
M  V30 9784 H 937.678 2.3024 -3.36829 0
M  V30 9785 H 936.353 1.30671 -3.94839 0
M  V30 9786 H 934.93 2.61085 -2.6625 0
M  V30 9787 N 937.115 1.49373 0.502552 0
M  V30 9788 C 938.34 1.62752 1.28556 0
M  V30 9789 C 938.765 0.298285 1.8572 0
M  V30 9790 O 938.123 -0.733885 1.65782 0
M  V30 9791 C 938.171 2.69778 2.39274 0
M  V30 9792 O 937.275 2.28843 3.43081 0
M  V30 9793 H 936.616 0.544799 0.379592 0
M  V30 9794 H 939.146 1.9555 0.601792 0
M  V30 9795 H 939.156 2.91899 2.8506 0
M  V30 9796 H 937.831 3.66266 1.97033 0
M  V30 9797 H 936.408 2.17047 3.03224 0
M  V30 9798 N 938.594 -0.753485 1.38421 0
M  V30 9799 C 939.542 -1.8886 1.35774 0
M  V30 9800 C 940.536 -1.67639 0.243608 0
M  V30 9801 O 941.742 -1.75206 0.412649 0
M  V30 9802 H 938.117 -0.62137 0.42356 0
M  V30 9803 H 940.088 -1.88209 2.3156 0
M  V30 9804 C 938.837 -3.26344 1.19979 0
M  V30 9805 H 938.16 -3.43259 2.04971 0
M  V30 9806 H 939.6 -4.06015 1.22181 0
M  V30 9807 C 938.059 -3.36771 -0.0932867 0
M  V30 9808 O 938.589 -3.8718 -1.07027 0
M  V30 9809 N 936.795 -2.90212 -0.150154 0
M  V30 9810 H 936.342 -2.4938 0.645562 0
M  V30 9811 H 936.3 -2.97569 -1.0149 0
M  V30 9812 N 940.072 -1.23292 -0.981677 0
M  V30 9813 C 941.035 -1.01417 -2.05542 0
M  V30 9814 C 942.035 0.0235354 -1.60783 0
M  V30 9815 O 943.225 -0.216082 -1.72855 0
M  V30 9816 C 940.357 -0.534239 -3.36688 0
M  V30 9817 H 941.55 -1.96702 -2.26381 0
M  V30 9818 H 939.103 -1.05318 -1.1549 0
M  V30 9819 H 939.838 0.422452 -3.21537 0
M  V30 9820 H 939.623 -1.28304 -3.70514 0
M  V30 9821 H 941.113 -0.40179 -4.15663 0
M  V30 9822 N 941.55 1.18024 -1.04442 0
M  V30 9823 C 942.513 2.19992 -0.643136 0
M  V30 9824 C 943.513 1.57949 0.301444 0
M  V30 9825 O 944.703 1.73986 0.0863341 0
M  V30 9826 C 941.835 3.40853 0.0565208 0
M  V30 9827 H 943.028 2.57008 -1.54554 0
M  V30 9828 H 940.581 1.31974 -0.837408 0
M  V30 9829 H 941.316 3.09373 0.972553 0
M  V30 9830 H 941.101 3.87128 -0.622439 0
M  V30 9831 H 942.591 4.16344 0.323652 0
M  V30 9832 N 943.028 0.824394 1.34319 0
M  V30 9833 C 944.444 0.510336 1.51221 0
M  V30 9834 C 944.644 -0.965201 1.76879 0
M  V30 9835 O 943.7 -1.74961 1.82057 0
M  V30 9836 C 945.013 1.37114 2.6762 0
M  V30 9837 C 946.561 1.36842 2.81502 0
M  V30 9838 C 947.036 2.21374 4.00946 0
M  V30 9839 N 948.527 2.19005 4.08156 0
M  V30 9840 C 949.262 2.81159 4.99737 0
M  V30 9841 N 948.758 3.52309 5.96532 0
M  V30 9842 N 950.551 2.70706 4.9262 0
M  V30 9843 H 942.702 1.77976 1.15924 0
M  V30 9844 H 944.965 0.758503 0.568663 0
M  V30 9845 H 944.671 2.41905 2.55294 0
M  V30 9846 H 944.545 1.03689 3.62669 0
M  V30 9847 H 946.932 0.328284 2.93268 0
M  V30 9848 H 947.013 1.74265 1.87257 0
M  V30 9849 H 946.657 3.25437 3.8994 0
M  V30 9850 H 946.587 1.813 4.94407 0
M  V30 9851 H 949.078 1.67252 3.38874 0
M  V30 9852 H 949.391 3.96977 6.63045 0
M  V30 9853 H 947.736 3.56415 5.96652 0
M  V30 9854 H 950.927 2.14694 4.15962 0
M  V30 9855 H 951.1 3.19431 5.63798 0
M  V30 9856 N 944.506 -1.46559 0.579492 0
M  V30 9857 C 945.752 -2.03272 0.0722569 0
M  V30 9858 C 946.107 -1.44334 -1.27222 0
M  V30 9859 O 945.4 -0.597848 -1.82034 0
M  V30 9860 C 945.594 -3.57357 -0.0552803 0
M  V30 9861 C 945.423 -4.31238 1.27529 0
M  V30 9862 C 944.193 -4.70272 1.84857 0
M  V30 9863 C 946.391 -4.64978 2.19773 0
M  V30 9864 N 944.373 -5.2889 3.11687 0
M  V30 9865 C 945.744 -5.24132 3.31189 0
M  V30 9866 C 947.799 -4.46908 2.19493 0
M  V30 9867 C 946.502 -5.67123 4.42452 0
M  V30 9868 C 948.528 -4.90914 3.29784 0
M  V30 9869 C 947.89 -5.50136 4.3992 0
M  V30 9870 H 943.989 -0.778937 0.0691416 0
M  V30 9871 H 946.573 -1.78754 0.771683 0
M  V30 9872 H 944.744 -3.81595 -0.723868 0
M  V30 9873 H 946.476 -4.00714 -0.566606 0
M  V30 9874 H 943.231 -4.5293 1.38388 0
M  V30 9875 H 943.655 -5.62723 3.76393 0
M  V30 9876 H 948.297 -4.00459 1.35617 0
M  V30 9877 H 946.015 -6.12552 5.27073 0
M  V30 9878 H 949.601 -4.78687 3.30682 0
M  V30 9879 H 948.481 -5.83564 5.23854 0
M  V30 9880 N 945.984 -0.3171 -1.54377 0
M  V30 9881 C 946.947 0.53905 -2.22771 0
M  V30 9882 C 947.947 1.04865 -1.21901 0
M  V30 9883 O 949.137 0.942108 -1.46526 0
M  V30 9884 C 946.269 1.74804 -2.92671 0
M  V30 9885 H 947.462 -0.0587417 -2.99842 0
M  V30 9886 H 945.015 -0.068107 -1.56152 0
M  V30 9887 H 945.75 2.38524 -2.1972 0
M  V30 9888 H 945.535 1.39011 -3.66631 0
M  V30 9889 H 947.025 2.35592 -3.44799 0
M  V30 9890 N 947.462 1.57535 -0.0451378 0
M  V30 9891 C 948.425 2.1008 0.916461 0
M  V30 9892 C 949.425 1.01913 1.2438 0
M  V30 9893 O 950.615 1.2801 1.18148 0
M  V30 9894 C 947.747 2.58001 2.22818 0
M  V30 9895 H 948.94 2.96334 0.461076 0
M  V30 9896 H 946.493 1.54974 0.203169 0
M  V30 9897 H 947.228 1.75123 2.72951 0
M  V30 9898 H 947.013 3.3704 2.00366 0
M  V30 9899 H 948.503 2.98822 2.9171 0
M  V30 9900 N 948.94 -0.228186 1.55939 0
M  V30 9901 C 950.188 -0.951668 1.78291 0
M  V30 9902 C 950.509 -1.85132 0.612474 0
M  V30 9903 O 949.779 -1.92356 -0.370942 0
M  V30 9904 H 948.359 -0.354388 0.657585 0
M  V30 9905 H 951.021 -0.241635 1.93396 0
M  V30 9906 H 950.117 -1.56239 2.70177 0
M  V30 9907 N 950.418 -1.49637 -0.494624 0
M  V30 9908 C 951.643 -1.63431 -1.27691 0
M  V30 9909 C 952.068 -0.30813 -1.85559 0
M  V30 9910 O 951.426 0.725083 -1.66169 0
M  V30 9911 C 951.474 -2.71043 -2.3784 0
M  V30 9912 O 950.578 -2.3066 -3.41862 0
M  V30 9913 H 949.919 -0.546804 -0.376698 0
M  V30 9914 H 952.449 -1.95866 -0.591413 0
M  V30 9915 H 952.459 -2.93406 -2.83508 0
M  V30 9916 H 951.134 -3.67306 -1.95088 0
M  V30 9917 H 949.711 -2.18652 -3.02069 0
M  V30 9918 N 951.896 0.746133 -1.38819 0
M  V30 9919 C 953.142 1.50768 -1.35635 0
M  V30 9920 C 953.475 1.94132 0.0512435 0
M  V30 9921 O 952.75 1.65979 1.01396 0
M  V30 9922 C 953.033 2.7551 -2.31875 0
M  V30 9923 C 952.886 2.38236 -3.81528 0
M  V30 9924 C 954.205 3.77566 -2.26124 0
M  V30 9925 H 951.324 0.546922 -0.494009 0
M  V30 9926 H 953.966 0.854017 -1.69725 0
M  V30 9927 H 952.116 3.31285 -2.02935 0
M  V30 9928 H 953.788 1.88178 -4.21173 0
M  V30 9929 H 952.031 1.70601 -3.98846 0
M  V30 9930 H 952.702 3.27517 -4.44339 0
M  V30 9931 H 955.178 3.31349 -2.51689 0
M  V30 9932 H 954.054 4.62531 -2.95561 0
M  V30 9933 H 954.315 4.23689 -1.26254 0
M  V30 9934 N 953.375 1.23811 0.975125 0
M  V30 9935 C 954.603 1.10019 1.75224 0
M  V30 9936 C 955.018 -0.34791 1.85567 0
M  V30 9937 O 954.375 -1.24043 1.33864 0
M  V30 9938 C 954.426 1.72572 3.1765 0
M  V30 9939 O 954.147 3.11719 3.07836 0
M  V30 9940 C 955.648 1.64292 4.11732 0
M  V30 9941 H 952.868 0.38476 0.549728 0
M  V30 9942 H 955.412 1.63768 1.22476 0
M  V30 9943 H 953.567 1.22843 3.67408 0
M  V30 9944 H 953.981 3.42152 3.97533 0
M  V30 9945 H 955.455 2.12754 5.09352 0
M  V30 9946 H 955.932 0.602722 4.35045 0
M  V30 9947 H 956.538 2.13411 3.6788 0
M  V30 9948 N 954.853 -1.17469 1.05066 0
M  V30 9949 C 956.13 -1.83625 0.673872 0
M  V30 9950 C 956.51 -1.93412 -0.845871 0
M  V30 9951 O 955.858 -1.4677 -1.75131 0
M  V30 9952 C 956.068 -3.21352 1.36139 0
M  V30 9953 C 957.416 -3.97274 1.49863 0
M  V30 9954 O 958.44 -3.30827 1.3203 0
M  V30 9955 O 957.299 -5.16349 1.79013 0
M  V30 9956 H 954.393 -0.792297 0.237055 0
M  V30 9957 H 956.939 -1.24776 1.15017 0
M  V30 9958 H 955.711 -3.0919 2.39827 0
M  V30 9959 H 955.334 -3.87867 0.874364 0
M  V30 9960 N 956.331 -0.831506 -1.3388 0
M  V30 9961 C 957.261 -0.274378 -2.31882 0
M  V30 9962 C 958.242 0.613872 -1.58637 0
M  V30 9963 O 959.427 0.538961 -1.86571 0
M  V30 9964 C 956.557 0.557498 -3.42796 0
M  V30 9965 C 955.511 -0.234337 -4.27358 0
M  V30 9966 C 954.837 0.720825 -5.29819 0
M  V30 9967 C 956.137 -1.44732 -5.01847 0
M  V30 9968 H 957.831 -1.09322 -2.78728 0
M  V30 9969 H 955.377 -0.527136 -1.34005 0
M  V30 9970 H 957.33 0.957501 -4.10378 0
M  V30 9971 H 956.054 1.40947 -2.94621 0
M  V30 9972 H 954.713 -0.61581 -3.61391 0
M  V30 9973 H 954.361 1.569 -4.77903 0
M  V30 9974 H 954.061 0.195171 -5.87276 0
M  V30 9975 H 955.585 1.1185 -6.00268 0
M  V30 9976 H 956.999 -1.12087 -5.62236 0
M  V30 9977 H 955.396 -1.90923 -5.68919 0
M  V30 9978 H 956.466 -2.22099 -4.31045 0
M  V30 9979 N 957.809 1.4625 -0.587256 0
M  V30 9980 C 958.772 2.28812 0.133238 0
M  V30 9981 C 959.772 1.38645 0.814513 0
M  V30 9982 O 960.962 1.60975 0.665774 0
M  V30 9983 C 958.094 3.19147 1.19824 0
M  V30 9984 H 959.287 2.93991 -0.592386 0
M  V30 9985 H 956.84 1.52435 -0.345416 0
M  V30 9986 H 957.575 2.58725 1.95529 0
M  V30 9987 H 957.36 3.85541 0.71418 0
M  V30 9988 H 958.85 3.81278 1.70344 0
M  V30 9989 N 959.287 0.325282 1.54207 0
M  V30 9990 C 960.534 -0.276775 2.006 0
M  V30 9991 C 960.862 -1.52007 1.21343 0
M  V30 9992 O 960.117 -1.93627 0.284104 0
M  V30 9993 C 960.416 -0.654292 3.5136 0
M  V30 9994 C 960.082 0.490023 4.48229 0
M  V30 9995 C 958.744 0.804104 4.74434 0
M  V30 9996 C 961.096 1.2586 5.05775 0
M  V30 9997 C 958.424 1.88945 5.55443 0
M  V30 9998 C 960.776 2.33405 5.87967 0
M  V30 9999 C 959.44 2.65393 6.12473 0
M  V30 10000 H 958.71 -0.101279 0.734046 0
M  V30 10001 H 961.357 0.449416 1.86152 0
M  V30 10002 H 959.662 -1.46093 3.63544 0
M  V30 10003 H 961.359 -1.13171 3.84699 0
M  V30 10004 H 957.949 0.235147 4.27954 0
M  V30 10005 H 962.133 1.02921 4.85511 0
M  V30 10006 H 957.389 2.14174 5.7266 0
M  V30 10007 H 961.563 2.93402 6.31576 0
M  V30 10008 H 959.19 3.49622 6.75032 0
M  V30 10009 N 960.765 -1.57509 0.0534917 0
M  V30 10010 C 961.712 -2.11667 -0.920101 0
M  V30 10011 C 962.682 -1.0246 -1.30733 0
M  V30 10012 O 963.867 -1.30021 -1.39639 0
M  V30 10013 C 961.007 -2.66803 -2.18883 0
M  V30 10014 C 960.12 -3.90104 -1.85588 0
M  V30 10015 C 959.255 -4.33547 -3.06937 0
M  V30 10016 C 958.294 -5.49542 -2.69573 0
M  V30 10017 N 957.431 -5.88029 -3.83623 0
M  V30 10018 H 962.271 -2.94562 -0.451371 0
M  V30 10019 H 959.808 -1.45576 -0.211168 0
M  V30 10020 H 961.766 -2.96871 -2.93127 0
M  V30 10021 H 960.396 -1.86702 -2.63329 0
M  V30 10022 H 959.448 -3.66613 -1.01484 0
M  V30 10023 H 960.76 -4.74404 -1.54087 0
M  V30 10024 H 959.914 -4.6518 -3.89477 0
M  V30 10025 H 958.653 -3.48064 -3.41618 0
M  V30 10026 H 957.658 -5.17579 -1.8545 0
M  V30 10027 H 958.883 -6.36743 -2.36082 0
M  V30 10028 H 956.829 -5.05498 -4.181 0
M  V30 10029 H 956.746 -6.67025 -3.55828 0
M  V30 10030 H 958.014 -6.24277 -4.66796 0
M  V30 10031 N 962.243 0.219913 -1.56058 0
M  V30 10032 C 963.489 0.945463 -1.79412 0
M  V30 10033 C 963.822 1.83922 -0.62341 0
M  V30 10034 O 963.097 1.90806 0.377256 0
M  V30 10035 C 963.38 1.783 -3.1286 0
M  V30 10036 C 963.233 0.915626 -4.40382 0
M  V30 10037 C 964.552 2.76045 -3.42764 0
M  V30 10038 H 961.671 0.342288 -0.652693 0
M  V30 10039 H 964.313 0.214235 -1.88788 0
M  V30 10040 H 962.463 2.40642 -3.04998 0
M  V30 10041 H 964.135 0.30882 -4.60265 0
M  V30 10042 H 962.378 0.221124 -4.33236 0
M  V30 10043 H 963.049 1.53607 -5.30197 0
M  V30 10044 H 965.525 2.23838 -3.50764 0
M  V30 10045 H 964.401 3.31748 -4.37304 0
M  V30 10046 H 964.662 3.53866 -2.65012 0
M  V30 10047 N 963.721 1.49897 0.486681 0
M  V30 10048 C 964.684 1.67086 1.56891 0
M  V30 10049 C 965.684 0.54209 1.51387 0
M  V30 10050 O 966.874 0.80883 1.54284 0
M  V30 10051 C 964.006 1.68159 2.96539 0
M  V30 10052 H 965.199 2.63626 1.42974 0
M  V30 10053 H 962.752 1.39143 0.711954 0
M  V30 10054 H 963.487 0.732562 3.15918 0
M  V30 10055 H 963.272 2.50147 3.01942 0
M  V30 10056 H 964.762 1.83466 3.7514 0
M  V30 10057 N 965.199 -0.738761 1.39212 0
M  V30 10058 C 966.424 -1.5331 1.39681 0
M  V30 10059 C 966.849 -1.88098 -0.00768715 0
M  V30 10060 O 966.207 -1.51642 -0.993699 0
M  V30 10061 C 966.255 -2.79958 2.27279 0
M  V30 10062 O 965.359 -3.75727 1.70008 0
M  V30 10063 H 964.7 -0.463131 0.475821 0
M  V30 10064 H 967.23 -0.911768 1.83161 0
M  V30 10065 H 967.24 -3.28732 2.41659 0
M  V30 10066 H 965.915 -2.5397 3.29351 0
M  V30 10067 H 964.492 -3.34483 1.64851 0
M  V30 10068 N 966.677 -1.24326 -0.968545 0
M  V30 10069 C 968.093 -1.00847 -1.23701 0
M  V30 10070 C 968.293 0.283235 -1.99499 0
M  V30 10071 O 967.349 0.999607 -2.31871 0
M  V30 10072 C 968.662 -2.22295 -2.02498 0
M  V30 10073 C 970.21 -2.26911 -2.15593 0
M  V30 10074 C 970.685 -3.47978 -2.97784 0
M  V30 10075 N 972.176 -3.48289 -3.05367 0
M  V30 10076 C 972.911 -4.38625 -3.69318 0
M  V30 10077 N 972.407 -5.39213 -4.34995 0
M  V30 10078 N 974.2 -4.26339 -3.66322 0
M  V30 10079 H 966.351 -2.07335 -0.461087 0
M  V30 10080 H 968.614 -0.909805 -0.26638 0
M  V30 10081 H 968.32 -3.161 -1.54188 0
M  V30 10082 H 968.194 -2.24344 -3.03232 0
M  V30 10083 H 970.581 -1.33639 -2.63106 0
M  V30 10084 H 970.662 -2.28888 -1.14209 0
M  V30 10085 H 970.306 -4.41564 -2.50965 0
M  V30 10086 H 970.236 -3.43244 -3.99364 0
M  V30 10087 H 972.727 -2.75517 -2.58648 0
M  V30 10088 H 973.04 -6.04378 -4.81608 0
M  V30 10089 H 971.385 -5.43101 -4.33667 0
M  V30 10090 H 974.576 -3.46991 -3.14189 0
M  V30 10091 H 974.749 -4.9694 -4.15878 0
M  V30 10092 N 968.156 1.1691 -1.05688 0
M  V30 10093 C 969.066 2.24735 -0.67315 0
M  V30 10094 C 970.082 1.71252 0.308043 0
M  V30 10095 O 971.258 2.00772 0.158889 0
M  V30 10096 C 968.323 3.4665 -0.059026 0
M  V30 10097 C 967.384 4.15198 -1.0913 0
M  V30 10098 C 966.617 5.31292 -0.50639 0
M  V30 10099 O 966.84 5.663 0.682692 0
M  V30 10100 O 965.774 5.88923 -1.2431 0
M  V30 10101 H 969.6 2.59855 -1.57191 0
M  V30 10102 H 967.185 1.24306 -0.828751 0
M  V30 10103 H 969.067 4.20455 0.282018 0
M  V30 10104 H 967.742 3.13316 0.813304 0
M  V30 10105 H 966.649 3.43389 -1.48442 0
M  V30 10106 H 967.982 4.52571 -1.93495 0
M  V30 10107 N 969.634 0.838594 1.33437 0
M  V30 10108 C 970.564 0.286672 2.31734 0
M  V30 10109 C 971.545 -0.605451 1.5896 0
M  V30 10110 O 972.73 -0.529059 1.86854 0
M  V30 10111 C 969.86 -0.539311 3.43087 0
M  V30 10112 C 968.814 0.256997 4.27228 0
M  V30 10113 C 968.14 -0.692718 5.30194 0
M  V30 10114 C 969.44 1.47391 5.01072 0
M  V30 10115 H 971.134 1.10798 2.78144 0
M  V30 10116 H 968.68 0.534235 1.33723 0
M  V30 10117 H 970.633 -0.935724 4.1088 0
M  V30 10118 H 969.357 -1.39383 2.95364 0
M  V30 10119 H 968.016 0.634967 3.61059 0
M  V30 10120 H 967.664 -1.54363 4.78729 0
M  V30 10121 H 967.364 -0.164023 5.87371 0
M  V30 10122 H 968.888 -1.08665 6.00853 0
M  V30 10123 H 970.302 1.15067 5.61634 0
M  V30 10124 H 968.699 1.93937 5.67898 0
M  V30 10125 H 969.769 2.24382 4.29861 0
M  V30 10126 N 971.112 -1.45937 0.595003 0
M  V30 10127 C 972.059 -2.30427 -0.131165 0
M  V30 10128 C 973.029 -1.41355 -0.872232 0
M  V30 10129 O 974.214 -1.70296 -0.860467 0
M  V30 10130 C 971.354 -3.26045 -1.13087 0
M  V30 10131 C 970.467 -4.30218 -0.391982 0
M  V30 10132 C 969.602 -5.12953 -1.3803 0
M  V30 10133 C 968.641 -6.08865 -0.628505 0
M  V30 10134 N 967.778 -6.84425 -1.56548 0
M  V30 10135 H 972.618 -2.91992 0.595359 0
M  V30 10136 H 970.155 -1.43895 0.305405 0
M  V30 10137 H 972.113 -3.79937 -1.72348 0
M  V30 10138 H 970.743 -2.66261 -1.82496 0
M  V30 10139 H 969.795 -3.79086 0.315895 0
M  V30 10140 H 971.107 -4.98418 0.195173 0
M  V30 10141 H 970.261 -5.71184 -2.04534 0
M  V30 10142 H 969 -4.44743 -2.00138 0
M  V30 10143 H 968.005 -5.49777 0.0502431 0
M  V30 10144 H 969.23 -6.79099 -0.012641 0
M  V30 10145 H 967.176 -6.18913 -2.17444 0
M  V30 10146 H 967.093 -7.48931 -1.03145 0
M  V30 10147 H 968.361 -7.47204 -2.22049 0
M  V30 10148 N 972.59 -0.333456 -1.54032 0
M  V30 10149 C 973.538 0.543414 -2.26163 0
M  V30 10150 C 974.532 1.11037 -1.27934 0
M  V30 10151 O 975.738 1.05727 -1.45677 0
M  V30 10152 H 972.113 0.19391 -0.726569 0
M  V30 10153 H 974.084 -0.0871052 -2.98273 0
M  V30 10154 C 972.833 1.68769 -3.03994 0
M  V30 10155 H 972.156 1.26069 -3.79403 0
M  V30 10156 H 973.596 2.27662 -3.57695 0
M  V30 10157 C 972.055 2.61117 -2.12884 0
M  V30 10158 O 972.585 3.63097 -1.71823 0
M  V30 10159 N 970.791 2.29573 -1.7817 0
M  V30 10160 H 970.338 1.46684 -2.11759 0
M  V30 10161 H 970.296 2.91622 -1.1749 0
M  V30 10162 N 974.068 1.57479 -0.061844 0
M  V30 10163 C 975.316 1.92727 0.608336 0
M  V30 10164 C 975.637 0.941799 1.70749 0
M  V30 10165 O 974.907 -0.0116608 1.95897 0
M  V30 10166 H 973.487 0.71145 0.2277 0
M  V30 10167 H 976.149 1.94546 -0.117359 0
M  V30 10168 H 975.245 2.9426 1.04007 0
M  V30 10169 N 975.546 -0.211634 1.56173 0
M  V30 10170 C 976.793 -0.93455 1.79645 0
M  V30 10171 C 977.121 -1.83936 0.632294 0
M  V30 10172 O 976.376 -1.91919 -0.382841 0
M  V30 10173 C 976.675 -1.79657 3.08963 0
M  V30 10174 C 976.341 -1.04415 4.38644 0
M  V30 10175 C 975.003 -0.836351 4.73876 0
M  V30 10176 C 977.355 -0.51355 5.18664 0
M  V30 10177 C 974.683 -0.0861976 5.86637 0
M  V30 10178 C 977.035 0.223309 6.32206 0
M  V30 10179 C 975.699 0.442279 6.66033 0
M  V30 10180 H 974.969 -0.341976 0.657368 0
M  V30 10181 H 977.616 -0.202024 1.90431 0
M  V30 10182 H 975.921 -2.59726 2.93342 0
M  V30 10183 H 977.618 -2.35823 3.24328 0
M  V30 10184 H 974.208 -1.21611 4.10985 0
M  V30 10185 H 978.392 -0.661541 4.91871 0
M  V30 10186 H 973.648 0.0935866 6.11328 0
M  V30 10187 H 977.822 0.641917 6.93435 0
M  V30 10188 H 975.449 1.02547 7.53252 0
M  V30 10189 N 977.024 -1.50153 -0.478725 0
M  V30 10190 C 977.987 -1.67916 -1.56003 0
M  V30 10191 C 978.987 -0.550111 -1.51097 0
M  V30 10192 O 980.177 -0.817001 -1.53853 0
M  V30 10193 C 977.309 -1.6973 -2.95643 0
M  V30 10194 H 978.502 -2.6438 -1.41573 0
M  V30 10195 H 976.055 -1.39519 -0.704565 0
M  V30 10196 H 976.79 -0.749306 -3.15525 0
M  V30 10197 H 976.575 -2.51745 -3.00611 0
M  V30 10198 H 978.065 -1.85453 -3.74162 0
M  V30 10199 N 978.502 0.731368 -1.39602 0
M  V30 10200 C 979.748 1.49321 -1.37227 0
M  V30 10201 C 980.081 1.94176 0.0306502 0
M  V30 10202 O 979.356 1.67046 0.996294 0
M  V30 10203 C 979.639 2.73035 -2.34784 0
M  V30 10204 C 979.492 2.34176 -3.84033 0
M  V30 10205 C 980.811 3.75146 -2.30116 0
M  V30 10206 H 977.93 0.541652 -0.499783 0
M  V30 10207 H 980.572 0.835968 -1.70621 0
M  V30 10208 H 978.722 3.29114 -2.06437 0
M  V30 10209 H 980.394 1.83701 -4.23145 0
M  V30 10210 H 978.637 1.66361 -4.00633 0
M  V30 10211 H 979.308 3.22786 -4.47787 0
M  V30 10212 H 981.784 3.28661 -2.55189 0
M  V30 10213 H 980.66 4.5937 -3.00451 0
M  V30 10214 H 980.921 4.22326 -1.30741 0
M  V30 10215 N 979.98 1.24838 0.961938 0
M  V30 10216 C 981.226 1.09313 1.70817 0
M  V30 10217 C 981.559 -0.366244 1.90715 0
M  V30 10218 O 980.834 -1.27036 1.47282 0
M  V30 10219 C 981.117 1.83988 3.09549 0
M  V30 10220 C 980.97 3.3771 2.97106 0
M  V30 10221 C 982.289 1.61718 4.09311 0
M  V30 10222 H 979.408 0.398498 0.619974 0
M  V30 10223 H 982.05 1.53579 1.11864 0
M  V30 10224 H 980.2 1.46363 3.59875 0
M  V30 10225 H 981.872 3.84967 2.54161 0
M  V30 10226 H 980.115 3.65795 2.33187 0
M  V30 10227 H 980.786 3.85166 3.95412 0
M  V30 10228 H 983.262 1.94458 3.67866 0
M  V30 10229 H 982.138 2.16415 5.04436 0
M  V30 10230 H 982.399 0.55677 4.3858 0
M  V30 10231 N 981.458 -1.16348 1.06306 0
M  V30 10232 C 982.874 -1.38873 0.786543 0
M  V30 10233 C 983.074 -1.91915 -0.614061 0
M  V30 10234 O 982.13 -2.11804 -1.3746 0
M  V30 10235 C 983.443 -2.36936 1.85154 0
M  V30 10236 C 984.991 -2.5062 1.87506 0
M  V30 10237 C 985.466 -3.51965 2.9306 0
M  V30 10238 N 986.957 -3.59492 2.92095 0
M  V30 10239 C 987.692 -4.37699 3.70415 0
M  V30 10240 N 987.188 -5.19327 4.58553 0
M  V30 10241 N 988.981 -4.32683 3.58806 0
M  V30 10242 H 981.132 -0.802542 1.96655 0
M  V30 10243 H 983.395 -0.415304 0.852189 0
M  V30 10244 H 983.101 -2.05056 2.85736 0
M  V30 10245 H 982.975 -3.36585 1.70267 0
M  V30 10246 H 985.362 -2.81804 0.875827 0
M  V30 10247 H 985.443 -1.51006 2.06472 0
M  V30 10248 H 985.087 -3.21518 3.93177 0
M  V30 10249 H 985.017 -4.51309 2.71344 0
M  V30 10250 H 987.508 -3.01222 2.28197 0
M  V30 10251 H 987.821 -5.76216 5.1497 0
M  V30 10252 H 986.166 -5.1867 4.62608 0
M  V30 10253 H 989.357 -3.67971 2.89335 0
M  V30 10254 H 989.53 -4.93386 4.20088 0
M  V30 10255 N 982.937 -0.845659 -1.3299 0
M  V30 10256 C 984.348 -0.50048 -1.79867 0
M  V30 10257 C 984.699 0.981027 -1.69913 0
M  V30 10258 O 983.824 1.76477 -1.25239 0
M  V30 10259 C 984.419 -0.901679 -3.26581 0
M  V30 10260 C 982.978 -0.608536 -3.71448 0
M  V30 10261 C 982.125 -1.10632 -2.54275 0
M  V30 10262 H 985.076 -1.03372 -1.20416 0
M  V30 10263 H 985.097 -0.214433 -3.79895 0
M  V30 10264 H 984.609 -1.97998 -3.33794 0
M  V30 10265 H 982.71 0.459416 -3.69757 0
M  V30 10266 H 982.823 -1.16853 -4.64631 0
M  V30 10267 H 981.187 -0.526925 -2.4919 0
M  V30 10268 H 981.97 -2.19154 -2.64247 0
M  V30 10269 N 984.415 1.45619 -0.602734 0
M  V30 10270 C 985.826 1.85814 -0.181636 0
M  V30 10271 C 986.177 1.5037 1.26029 0
M  V30 10272 O 985.302 0.928068 1.95489 0
M  V30 10273 C 985.897 3.37258 -0.322866 0
M  V30 10274 C 984.456 3.76375 0.043504 0
M  V30 10275 C 983.603 2.69585 -0.649561 0
M  V30 10276 H 986.554 1.36489 -0.809721 0
M  V30 10277 H 986.575 3.77874 0.446279 0
M  V30 10278 H 986.087 3.63024 -1.37241 0
M  V30 10279 H 984.188 3.56226 1.09241 0
M  V30 10280 H 984.301 4.77843 -0.346765 0
M  V30 10281 H 982.665 2.54549 -0.087706 0
M  V30 10282 H 983.448 2.98188 -1.70115 0
M  V30 10283 N 985.893 0.34162 1.53853 0
M  V30 10284 C 987.141 -0.254979 2.00485 0
M  V30 10285 C 987.462 -1.51222 1.23114 0
M  V30 10286 O 986.732 -1.92966 0.337787 0
M  V30 10287 H 985.312 -0.0972084 0.740648 0
M  V30 10288 H 987.974 0.462332 1.89337 0
M  V30 10289 H 987.07 -0.498778 3.08089 0
M  V30 10290 N 987.371 -1.57444 0.0701946 0
M  V30 10291 C 988.321 -2.09154 -0.90767 0
M  V30 10292 C 989.305 -1.00087 -1.25982 0
M  V30 10293 O 990.497 -1.26397 -1.23906 0
M  V30 10294 C 987.626 -2.65544 -2.17581 0
M  V30 10295 C 986.712 -3.81613 -1.85021 0
M  V30 10296 N 987.103 -4.90641 -1.22904 0
M  V30 10297 C 985.401 -3.90878 -2.1478 0
M  V30 10298 C 986.102 -5.71511 -1.084 0
M  V30 10299 N 985.078 -5.1973 -1.59318 0
M  V30 10300 H 988.88 -2.90839 -0.423051 0
M  V30 10301 H 986.394 -1.61848 -0.13374 0
M  V30 10302 H 988.391 -3.00904 -2.88552 0
M  V30 10303 H 987.051 -1.85304 -2.66632 0
M  V30 10304 H 988.062 -5.1004 -0.898878 0
M  V30 10305 H 984.739 -3.21611 -2.66219 0
M  V30 10306 H 986.129 -6.69214 -0.600183 0
M  V30 10307 N 988.849 0.203349 -1.56283 0
M  V30 10308 C 989.799 1.25595 -1.90289 0
M  V30 10309 C 990.783 1.41403 -0.767732 0
M  V30 10310 O 991.975 1.43912 -1.03046 0
M  V30 10311 C 989.104 2.60255 -2.23881 0
M  V30 10312 C 988.19 2.48274 -3.43833 0
M  V30 10313 N 988.581 2.05963 -4.61966 0
M  V30 10314 C 986.879 2.79188 -3.47808 0
M  V30 10315 C 987.58 2.05674 -5.44126 0
M  V30 10316 N 986.556 2.46862 -4.84314 0
M  V30 10317 H 990.358 0.920016 -2.79129 0
M  V30 10318 H 987.872 0.411829 -1.57091 0
M  V30 10319 H 989.869 3.36274 -2.46425 0
M  V30 10320 H 988.529 2.94678 -1.36363 0
M  V30 10321 H 989.54 1.76803 -4.86787 0
M  V30 10322 H 986.217 3.17863 -2.70684 0
M  V30 10323 H 987.607 1.74932 -6.48728 0
M  V30 10324 N 990.327 1.50405 0.470755 0
M  V30 10325 C 991.29 1.68741 1.5511 0
M  V30 10326 C 992.29 0.558116 1.50804 0
M  V30 10327 O 993.48 0.825149 1.53418 0
M  V30 10328 C 990.612 1.71295 2.94739 0
M  V30 10329 H 991.805 2.65127 1.40169 0
M  V30 10330 H 989.358 1.39891 0.697156 0
M  V30 10331 H 990.093 0.766029 3.15123 0
M  V30 10332 H 989.878 2.53336 2.99271 0
M  V30 10333 H 991.368 1.87434 3.73173 0
M  V30 10334 N 991.805 -0.723954 1.39988 0
M  V30 10335 C 993.082 -1.4763 1.28316 0
M  V30 10336 C 993.462 -2.10852 -0.102302 0
M  V30 10337 O 992.81 -1.9948 -1.11445 0
M  V30 10338 C 993.02 -2.51878 2.41574 0
M  V30 10339 C 994.368 -3.17948 2.81415 0
M  V30 10340 O 995.392 -2.62195 2.41106 0
M  V30 10341 O 994.251 -4.18858 3.51027 0
M  V30 10342 H 991.345 -0.656092 0.50346 0
M  V30 10343 H 993.891 -0.75684 1.51888 0
M  V30 10344 H 992.663 -2.03618 3.34149 0
M  V30 10345 H 992.286 -3.3137 2.19727 0
M  V30 10346 N 993.283 -1.25346 -0.955304 0
M  V30 10347 C 994.233 -1.02358 -2.03732 0
M  V30 10348 C 995.217 0.0392941 -1.60852 0
M  V30 10349 O 996.409 -0.175959 -1.76123 0
M  V30 10350 C 993.538 -0.643552 -3.37214 0
M  V30 10351 C 992.624 -1.74315 -3.8662 0
M  V30 10352 N 993.015 -2.97816 -4.08827 0
M  V30 10353 C 991.313 -1.62351 -4.15401 0
M  V30 10354 C 992.014 -3.69185 -4.4953 0
M  V30 10355 N 990.99 -2.96803 -4.55422 0
M  V30 10356 H 994.792 -1.96119 -2.18894 0
M  V30 10357 H 992.306 -1.15655 -1.14007 0
M  V30 10358 H 994.303 -0.460053 -4.14354 0
M  V30 10359 H 992.963 0.286738 -3.23431 0
M  V30 10360 H 993.974 -3.33868 -3.95919 0
M  V30 10361 H 990.651 -0.762133 -4.10485 0
M  V30 10362 H 992.041 -4.7519 -4.7502 0
M  V30 10363 N 994.761 1.15782 -1.06922 0
M  V30 10364 C 995.986 1.90896 -0.810771 0
M  V30 10365 C 996.411 1.77246 0.629714 0
M  V30 10366 O 995.769 1.10215 1.43953 0
M  V30 10367 C 995.817 3.39397 -1.21829 0
M  V30 10368 O 994.921 4.10818 -0.360934 0
M  V30 10369 H 994.262 0.594497 -0.295752 0
M  V30 10370 H 996.792 1.46652 -1.42669 0
M  V30 10371 H 996.802 3.90181 -1.19259 0
M  V30 10372 H 995.477 3.4865 -2.2675 0
M  V30 10373 H 994.054 3.7019 -0.448748 0
M  V30 10374 N 996.239 0.8527 1.3254 0
M  V30 10375 C 997.467 0.469044 2.01513 0
M  V30 10376 C 997.882 -0.933701 1.64096 0
M  V30 10377 O 997.239 -1.60898 0.861283 0
M  V30 10378 C 997.29 0.596228 3.56549 0
M  V30 10379 O 997.011 1.94371 3.92621 0
M  V30 10380 C 998.512 0.211324 4.42796 0
M  V30 10381 H 995.732 0.184589 0.645111 0
M  V30 10382 H 998.276 1.1491 1.69163 0
M  V30 10383 H 996.431 -0.0360712 3.87383 0
M  V30 10384 H 996.845 1.93909 4.87339 0
M  V30 10385 H 998.319 0.351324 5.50881 0
M  V30 10386 H 998.796 -0.848055 4.30935 0
M  V30 10387 H 999.402 0.818617 4.17347 0
M  V30 10388 N 997.718 -1.45297 0.610449 0
M  V30 10389 C 998.681 -2.28995 -0.0968194 0
M  V30 10390 C 999.681 -1.39923 -0.792353 0
M  V30 10391 O 1000.87 -1.62014 -0.64008 0
M  V30 10392 C 998.003 -3.21013 -1.14731 0
M  V30 10393 H 999.196 -2.93012 0.639082 0
M  V30 10394 H 996.749 -1.51867 0.369624 0
M  V30 10395 H 997.484 -2.61803 -1.91388 0
M  V30 10396 H 997.269 -3.86628 -0.652753 0
M  V30 10397 H 998.759 -3.8394 -1.64256 0
M  V30 10398 N 999.196 -0.349774 -1.5367 0
M  V30 10399 C 1000.13 0.547309 -2.2154 0
M  V30 10400 C 1001.11 1.09543 -1.20163 0
M  V30 10401 O 1002.29 1.15453 -1.49006 0
M  V30 10402 C 999.418 1.75356 -2.89772 0
M  V30 10403 C 998.464 1.33433 -4.0509 0
M  V30 10404 S 999.297 0.348891 -5.34362 0
M  V30 10405 C 1000.45 1.56183 -6.061 0
M  V30 10406 H 1000.69 -0.0291392 -2.97286 0
M  V30 10407 H 998.219 -0.133853 -1.53819 0
M  V30 10408 H 1000.18 2.44555 -3.29701 0
M  V30 10409 H 998.838 2.30123 -2.1378 0
M  V30 10410 H 998.031 2.23388 -4.5179 0
M  V30 10411 H 997.633 0.721746 -3.6697 0
M  V30 10412 H 999.925 2.49535 -6.29872 0
M  V30 10413 H 1000.87 1.13651 -6.9892 0
M  V30 10414 H 1001.28 1.76071 -5.36339 0
M  V30 10415 N 1000.67 1.57404 -0.0785433 0
M  V30 10416 C 1001.92 1.93361 0.58786 0
M  V30 10417 C 1002.24 0.959856 1.6974 0
M  V30 10418 O 1001.51 0.0091173 1.95898 0
M  V30 10419 H 1000.09 0.713825 0.220141 0
M  V30 10420 H 1002.75 1.94411 -0.137986 0
M  V30 10421 H 1001.85 2.95346 1.00881 0
M  V30 10422 N 1002.15 -0.195058 1.56388 0
M  V30 10423 C 1003.4 -0.915444 1.80626 0
M  V30 10424 C 1003.73 -1.83255 0.651768 0
M  V30 10425 O 1002.98 -1.92314 -0.362464 0
M  V30 10426 C 1003.28 -1.7637 3.10851 0
M  V30 10427 C 1002.95 -0.997572 4.39726 0
M  V30 10428 C 1001.61 -0.786043 4.74737 0
M  V30 10429 C 1003.96 -0.45851 5.19179 0
M  V30 10430 C 1001.29 -0.023972 5.86695 0
M  V30 10431 C 1003.64 0.29035 6.31933 0
M  V30 10432 C 1002.3 0.512895 6.65527 0
M  V30 10433 H 1001.57 -0.334985 0.660959 0
M  V30 10434 H 1004.22 -0.181815 1.90635 0
M  V30 10435 H 1002.53 -2.566 2.9608 0
M  V30 10436 H 1004.22 -2.3237 3.26811 0
M  V30 10437 H 1000.81 -1.17245 4.12252 0
M  V30 10438 H 1005 -0.609334 4.92545 0
M  V30 10439 H 1000.25 0.158421 6.11195 0
M  V30 10440 H 1004.43 0.715429 6.92715 0
M  V30 10441 H 1002.05 1.10531 7.52122 0
M  V30 10442 N 1003.63 -1.50653 -0.462772 0
M  V30 10443 C 1004.87 -1.637 -1.22399 0
M  V30 10444 C 1005.23 -0.333847 -1.89075 0
M  V30 10445 O 1006.43 -0.339837 -2.66643 0
M  V30 10446 C 1004.71 -2.79018 -2.23347 0
M  V30 10447 S 1006.26 -3.12248 -3.08296 0
M  V30 10448 H 1003.08 -0.576998 -0.415444 0
M  V30 10449 H 1005.68 -1.88468 -0.519631 0
M  V30 10450 H 1004.39 -3.72174 -1.72958 0
M  V30 10451 H 1003.92 -2.56362 -2.98399 0
M  V30 10452 H 1005.93 -2.56716 -4.24631 0
M  V30 10453 N 1005.11 0.71652 -1.4037 0
M  V30 10454 C 1006.36 1.47638 -1.38597 0
M  V30 10455 C 1006.68 1.94496 0.0120141 0
M  V30 10456 O 1005.94 1.68437 0.996373 0
M  V30 10457 C 1006.24 2.71777 -2.32103 0
M  V30 10458 C 1005.9 2.43689 -3.79376 0
M  V30 10459 C 1004.57 2.35739 -4.195 0
M  V30 10460 C 1006.92 2.20099 -4.72447 0
M  V30 10461 C 1004.25 2.02265 -5.50732 0
M  V30 10462 C 1006.6 1.88138 -6.03976 0
M  V30 10463 C 1005.26 1.78669 -6.43143 0
M  V30 10464 H 1004.53 0.540246 -0.507163 0
M  V30 10465 H 1007.18 0.820822 -1.73017 0
M  V30 10466 H 1005.48 3.42166 -1.90865 0
M  V30 10467 H 1007.18 3.29864 -2.28015 0
M  V30 10468 H 1003.77 2.50763 -3.47585 0
M  V30 10469 H 1007.95 2.25198 -4.42266 0
M  V30 10470 H 1003.21 1.93471 -5.79982 0
M  V30 10471 H 1007.38 1.68898 -6.75608 0
M  V30 10472 H 1005.01 1.52498 -7.44747 0
M  V30 10473 N 1006.59 1.25851 0.948643 0
M  V30 10474 C 1007.83 1.10954 1.69397 0
M  V30 10475 C 1008.16 -0.348443 1.91353 0
M  V30 10476 O 1007.42 -1.27285 1.48651 0
M  V30 10477 C 1007.72 1.81565 3.07846 0
M  V30 10478 C 1007.38 3.31477 3.0567 0
M  V30 10479 C 1006.04 3.72371 3.04784 0
M  V30 10480 C 1008.4 4.27225 2.98543 0
M  V30 10481 C 1005.72 5.07416 2.94527 0
M  V30 10482 C 1008.08 5.62301 2.89828 0
M  V30 10483 C 1006.74 6.02516 2.87281 0
M  V30 10484 H 1006.01 0.406011 0.619868 0
M  V30 10485 H 1008.66 1.562 1.10787 0
M  V30 10486 H 1006.96 1.28767 3.70035 0
M  V30 10487 H 1008.66 1.67486 3.64348 0
M  V30 10488 H 1005.25 2.98941 3.07135 0
M  V30 10489 H 1009.43 3.96618 2.98342 0
M  V30 10490 H 1004.69 5.37746 2.90928 0
M  V30 10491 H 1008.86 6.36182 2.83276 0
M  V30 10492 H 1006.49 7.07116 2.79089 0
M  V30 10493 N 1008.06 -1.15214 1.07534 0
M  V30 10494 C 1009.01 -2.22078 0.69168 0
M  V30 10495 C 1010.01 -1.66751 -0.298382 0
M  V30 10496 O 1011.21 -1.7927 -0.161897 0
M  V30 10497 H 1007.59 -0.723347 0.205604 0
M  V30 10498 H 1009.56 -2.51716 1.60256 0
M  V30 10499 C 1008.31 -3.47534 0.107546 0
M  V30 10500 H 1007.63 -3.90429 0.860522 0
M  V30 10501 H 1009.07 -4.23821 -0.123215 0
M  V30 10502 C 1007.53 -3.16583 -1.15226 0
M  V30 10503 O 1008.06 -3.33551 -2.23845 0
M  V30 10504 N 1006.27 -2.70611 -1.05915 0
M  V30 10505 H 1005.81 -2.57004 -0.175198 0
M  V30 10506 H 1005.77 -2.50277 -1.90287 0
M  V30 10507 N 1009.54 -0.859717 -1.32086 0
M  V30 10508 C 1010.77 -0.478865 -2.01796 0
M  V30 10509 C 1011.19 0.918274 -1.64163 0
M  V30 10510 O 1010.55 1.60409 -0.844896 0
M  V30 10511 C 1010.6 -0.631356 -3.5503 0
M  V30 10512 O 1009.7 0.333712 -4.11048 0
M  V30 10513 H 1009.04 -0.191775 -0.635703 0
M  V30 10514 H 1011.57 -1.16031 -1.68517 0
M  V30 10515 H 1011.58 -0.520783 -4.04663 0
M  V30 10516 H 1010.26 -1.65015 -3.81763 0
M  V30 10517 H 1008.84 0.178953 -3.7247 0
M  V30 10518 N 1011.02 1.44971 -0.618145 0
M  V30 10519 C 1012.27 2.02458 -0.117656 0
M  V30 10520 C 1012.6 1.48413 1.25248 0
M  V30 10521 O 1011.87 0.662997 1.82851 0
M  V30 10522 C 1012.16 3.59987 -0.0901897 0
M  V30 10523 C 1012.01 4.24343 -1.49175 0
M  V30 10524 C 1013.33 4.36099 0.592121 0
M  V30 10525 H 1010.45 0.735672 -0.0442291 0
M  V30 10526 H 1013.09 1.727 -0.792138 0
M  V30 10527 H 1011.24 3.85471 0.484175 0
M  V30 10528 H 1012.91 4.10009 -2.114 0
M  V30 10529 H 1011.16 3.82337 -2.04941 0
M  V30 10530 H 1011.83 5.33298 -1.42468 0
M  V30 10531 H 1014.3 4.1597 0.103813 0
M  V30 10532 H 1013.18 5.45822 0.580481 0
M  V30 10533 H 1013.44 4.09746 1.66015 0
M  V30 10534 N 1012.5 0.357919 1.53482 0
M  V30 10535 C 1013.46 -0.479797 2.24122 0
M  V30 10536 C 1014.46 -1.01596 1.24639 0
M  V30 10537 O 1015.65 -0.902928 1.48973 0
M  V30 10538 C 1012.78 -1.66983 2.97203 0
M  V30 10539 H 1013.98 0.138219 2.99581 0
M  V30 10540 H 1011.53 0.109484 1.55916 0
M  V30 10541 H 1012.26 -2.32615 2.25966 0
M  V30 10542 H 1012.05 -1.29242 3.70188 0
M  V30 10543 H 1013.54 -2.26367 3.50924 0
M  V30 10544 N 1013.98 -1.5736 0.0868897 0
M  V30 10545 C 1015.23 -1.93229 -0.578387 0
M  V30 10546 C 1015.54 -0.970127 -1.69847 0
M  V30 10547 O 1016.74 -1.22222 -2.42434 0
M  V30 10548 C 1015.2 -3.43307 -1.0802 0
M  V30 10549 C 1014.81 -4.47999 0.00968135 0
M  V30 10550 C 1016.55 -3.88151 -1.71868 0
M  V30 10551 C 1014.46 -5.89223 -0.507029 0
M  V30 10552 H 1013.39 -0.721245 -0.219823 0
M  V30 10553 H 1016.04 -1.82787 0.161566 0
M  V30 10554 H 1014.42 -3.48873 -1.87359 0
M  V30 10555 H 1015.6 -4.54067 0.784865 0
M  V30 10556 H 1013.91 -4.12714 0.552845 0
M  V30 10557 H 1016.51 -4.91056 -2.11585 0
M  V30 10558 H 1016.85 -3.26347 -2.58464 0
M  V30 10559 H 1017.38 -3.85252 -0.991259 0
M  V30 10560 H 1014.12 -6.54708 0.322121 0
M  V30 10561 H 1013.64 -5.86643 -1.2494 0
M  V30 10562 H 1015.32 -6.39556 -0.978628 0
M  V30 10563 N 1015.45 0.186762 -1.56489 0
M  V30 10564 C 1016.42 1.21511 -1.94339 0
M  V30 10565 C 1017.42 1.38001 -0.82537 0
M  V30 10566 O 1018.61 1.3567 -1.09266 0
M  V30 10567 C 1015.74 2.583 -2.22472 0
M  V30 10568 H 1016.93 0.891371 -2.86347 0
M  V30 10569 H 1014.49 0.428612 -1.50308 0
M  V30 10570 H 1015.22 2.95715 -1.33129 0
M  V30 10571 H 1015.01 2.47701 -3.03951 0
M  V30 10572 H 1016.5 3.32441 -2.5273 0
M  V30 10573 N 1016.93 1.50896 0.454776 0
M  V30 10574 C 1018.17 1.64347 1.21529 0
M  V30 10575 C 1018.54 0.343869 1.88896 0
M  V30 10576 O 1019.74 0.353973 2.66459 0
M  V30 10577 C 1018.01 2.80199 2.21864 0
M  V30 10578 S 1019.57 3.13879 3.06636 0
M  V30 10579 H 1016.39 0.579193 0.412379 0
M  V30 10580 H 1018.99 1.88741 0.509629 0
M  V30 10581 H 1017.69 3.73086 1.70982 0
M  V30 10582 H 1017.22 2.57941 2.97036 0
M  V30 10583 H 1019.24 2.58964 4.23264 0
M  V30 10584 N 1018.41 -0.709066 1.40748 0
M  V30 10585 C 1019.83 -1.01797 1.22921 0
M  V30 10586 C 1020.03 -2.01205 0.109011 0
M  V30 10587 O 1019.08 -2.46854 -0.530987 0
M  V30 10588 C 1020.4 -1.55546 2.57344 0
M  V30 10589 C 1021.94 -1.67498 2.64412 0
M  V30 10590 C 1022.42 -2.24652 3.99119 0
M  V30 10591 N 1023.91 -2.3203 4.00895 0
M  V30 10592 C 1024.64 -2.7725 5.01917 0
M  V30 10593 N 1024.14 -3.22174 6.13332 0
M  V30 10594 N 1025.93 -2.76692 4.89283 0
M  V30 10595 H 1018.08 -0.0502704 2.12341 0
M  V30 10596 H 1020.35 -0.0848933 0.944191 0
M  V30 10597 H 1020.05 -0.899631 3.39999 0
M  V30 10598 H 1019.93 -2.53971 2.78888 0
M  V30 10599 H 1022.31 -2.32196 1.82123 0
M  V30 10600 H 1022.4 -0.676553 2.46691 0
M  V30 10601 H 1022.04 -1.60573 4.81849 0
M  V30 10602 H 1021.97 -3.25221 4.14173 0
M  V30 10603 H 1024.46 -2.00309 3.20444 0
M  V30 10604 H 1024.77 -3.55265 6.86299 0
M  V30 10605 H 1023.12 -3.20116 6.16888 0
M  V30 10606 H 1026.31 -2.40936 4.01332 0
M  V30 10607 H 1026.48 -3.11617 5.68154 0
M  V30 10608 N 1019.89 -1.26353 -0.941956 0
M  V30 10609 C 1020.82 -1.03634 -2.04432 0
M  V30 10610 C 1021.83 0.00295864 -1.628 0
M  V30 10611 O 1023.02 -0.237029 -1.76919 0
M  V30 10612 C 1020.12 -0.547231 -3.34453 0
M  V30 10613 C 1019.3 -1.65559 -4.04857 0
M  V30 10614 C 1018.36 -1.16466 -5.13149 0
M  V30 10615 O 1017.38 -1.86158 -5.37898 0
M  V30 10616 N 1018.58 -0.0126703 -5.80499 0
M  V30 10617 H 1021.35 -1.98558 -2.24488 0
M  V30 10618 H 1018.91 -1.17728 -1.11138 0
M  V30 10619 H 1020.9 -0.203004 -4.04191 0
M  V30 10620 H 1019.47 0.308401 -3.11075 0
M  V30 10621 H 1018.69 -2.17079 -3.29044 0
M  V30 10622 H 1019.98 -2.39985 -4.48647 0
M  V30 10623 H 1019.38 0.569358 -5.62828 0
M  V30 10624 H 1017.93 0.272486 -6.5123 0
M  V30 10625 N 1021.37 1.14642 -1.08144 0
M  V30 10626 C 1022.3 2.21775 -0.730609 0
M  V30 10627 C 1023.28 1.67683 0.285702 0
M  V30 10628 O 1024.46 1.93567 0.156667 0
M  V30 10629 C 1021.59 3.47033 -0.136242 0
M  V30 10630 C 1020.55 4.14134 -1.0806 0
M  V30 10631 C 1019.87 5.33563 -0.348585 0
M  V30 10632 C 1021.17 4.62978 -2.41761 0
M  V30 10633 H 1022.87 2.51378 -1.62633 0
M  V30 10634 H 1020.41 1.20825 -0.783411 0
M  V30 10635 H 1022.37 4.21226 0.121182 0
M  V30 10636 H 1021.09 3.16786 0.7946 0
M  V30 10637 H 1019.75 3.41892 -1.32308 0
M  V30 10638 H 1019.4 4.99575 0.585974 0
M  V30 10639 H 1019.1 5.79402 -0.978122 0
M  V30 10640 H 1020.62 6.10519 -0.0991508 0
M  V30 10641 H 1022.04 5.28659 -2.21795 0
M  V30 10642 H 1020.43 5.1951 -3.00383 0
M  V30 10643 H 1021.5 3.78189 -3.03482 0
M  V30 10644 N 1022.85 0.866709 1.31628 0
M  V30 10645 C 1023.78 0.277328 2.27516 0
M  V30 10646 C 1024.79 -0.557786 1.52946 0
M  V30 10647 O 1025.98 -0.38031 1.74402 0
M  V30 10648 C 1023.08 -0.625742 3.33073 0
M  V30 10649 C 1022.25 0.176204 4.37045 0
M  V30 10650 C 1021.31 -0.654497 5.22114 0
M  V30 10651 O 1020.34 -0.0836961 5.69138 0
M  V30 10652 N 1021.54 -1.96708 5.46156 0
M  V30 10653 H 1024.3 1.10133 2.78731 0
M  V30 10654 H 1021.87 0.72787 1.44616 0
M  V30 10655 H 1023.86 -1.18709 3.86898 0
M  V30 10656 H 1022.43 -1.35042 2.81926 0
M  V30 10657 H 1021.65 0.918999 3.83338 0
M  V30 10658 H 1022.94 0.726594 5.03585 0
M  V30 10659 H 1022.33 -2.454 5.09701 0
M  V30 10660 H 1020.89 -2.47629 6.02929 0
M  V30 10661 N 1024.32 -1.44642 0.625825 0
M  V30 10662 C 1025.26 -2.28882 -0.120614 0
M  V30 10663 C 1026.27 -1.40985 -0.81407 0
M  V30 10664 O 1027.46 -1.65188 -0.676404 0
M  V30 10665 C 1024.56 -3.17217 -1.19274 0
M  V30 10666 C 1023.73 -4.33499 -0.582839 0
M  V30 10667 C 1022.79 -5.02908 -1.54823 0
M  V30 10668 O 1021.82 -5.59102 -1.06743 0
M  V30 10669 N 1023.02 -5.0387 -2.88262 0
M  V30 10670 H 1025.78 -2.93585 0.602318 0
M  V30 10671 H 1023.34 -1.5503 0.466604 0
M  V30 10672 H 1025.34 -3.60515 -1.83878 0
M  V30 10673 H 1023.91 -2.54301 -1.81797 0
M  V30 10674 H 1023.13 -3.93458 0.241696 0
M  V30 10675 H 1024.41 -5.08561 -0.155914 0
M  V30 10676 H 1023.81 -4.59539 -3.2991 0
M  V30 10677 H 1022.37 -5.50974 -3.4824 0
M  V30 10678 N 1025.8 -0.366053 -1.5329 0
M  V30 10679 C 1026.73 0.514916 -2.23341 0
M  V30 10680 C 1027.75 1.04579 -1.24768 0
M  V30 10681 O 1028.94 0.952084 -1.50989 0
M  V30 10682 C 1026.04 1.72374 -2.91788 0
M  V30 10683 C 1025.21 1.32429 -4.16871 0
M  V30 10684 C 1024.27 2.39524 -4.68524 0
M  V30 10685 O 1023.29 2.01895 -5.32191 0
M  V30 10686 N 1024.5 3.71116 -4.46378 0
M  V30 10687 H 1027.26 -0.0851272 -2.99579 0
M  V30 10688 H 1024.82 -0.191255 -1.60766 0
M  V30 10689 H 1026.81 2.43496 -3.23252 0
M  V30 10690 H 1025.38 2.23064 -2.19 0
M  V30 10691 H 1024.6 0.442901 -3.91704 0
M  V30 10692 H 1025.89 1.03372 -4.98188 0
M  V30 10693 H 1025.29 4.04463 -3.95508 0
M  V30 10694 H 1023.85 4.38341 -4.82391 0
M  V30 10695 N 1027.28 1.57312 -0.0952337 0
M  V30 10696 C 1028.5 1.99119 0.580206 0
M  V30 10697 C 1028.93 0.973955 1.60922 0
M  V30 10698 O 1028.29 -0.0575338 1.81209 0
M  V30 10699 C 1028.34 3.39893 1.20438 0
M  V30 10700 O 1027.44 3.40941 2.32019 0
M  V30 10701 H 1026.78 0.64748 0.147195 0
M  V30 10702 H 1029.31 2.03836 -0.176686 0
M  V30 10703 H 1029.32 3.7759 1.54564 0
M  V30 10704 H 1028 4.13453 0.450514 0
M  V30 10705 H 1026.57 3.1504 1.9951 0
M  V30 10706 N 1028.76 -0.17846 1.56586 0
M  V30 10707 C 1029.7 -1.22104 1.95855 0
M  V30 10708 C 1030.67 -1.44366 0.821447 0
M  V30 10709 O 1031.86 -1.57224 1.08098 0
M  V30 10710 C 1029 -2.55701 2.31757 0
M  V30 10711 C 1028.11 -2.40879 3.5861 0
M  V30 10712 C 1027.25 -3.67293 3.83757 0
M  V30 10713 C 1026.29 -3.47373 5.03982 0
M  V30 10714 N 1025.42 -4.65839 5.25298 0
M  V30 10715 H 1030.26 -0.879168 2.84736 0
M  V30 10716 H 1027.8 -0.422721 1.40895 0
M  V30 10717 H 1029.76 -3.33556 2.50592 0
M  V30 10718 H 1028.39 -2.87898 1.45995 0
M  V30 10719 H 1027.44 -1.54236 3.47729 0
M  V30 10720 H 1028.75 -2.22102 4.46623 0
M  V30 10721 H 1027.91 -4.53584 4.02922 0
M  V30 10722 H 1026.65 -3.89041 2.94107 0
M  V30 10723 H 1025.65 -2.59467 4.84723 0
M  V30 10724 H 1026.88 -3.27055 5.95157 0
M  V30 10725 H 1024.82 -4.8782 4.38598 0
M  V30 10726 H 1024.74 -4.4995 6.0752 0
M  V30 10727 H 1026.01 -5.53435 5.48936 0
M  V30 10728 N 1030.24 -1.51135 -0.446768 0
M  V30 10729 C 1031.2 -1.71187 -1.52406 0
M  V30 10730 C 1032.2 -0.582037 -1.49897 0
M  V30 10731 O 1033.39 -0.849452 -1.52085 0
M  V30 10732 C 1030.52 -1.75962 -2.91976 0
M  V30 10733 H 1031.71 -2.67324 -1.35934 0
M  V30 10734 H 1029.27 -1.40982 -0.674813 0
M  V30 10735 H 1030 -0.816065 -3.13864 0
M  V30 10736 H 1029.79 -2.58065 -2.95203 0
M  V30 10737 H 1031.28 -1.93347 -3.70144 0
M  V30 10738 N 1031.71 0.701592 -1.41122 0
M  V30 10739 C 1032.94 1.49553 -1.43696 0
M  V30 10740 C 1033.36 1.88053 -0.0421865 0
M  V30 10741 O 1032.72 1.54223 0.953144 0
M  V30 10742 C 1032.77 2.73834 -2.34622 0
M  V30 10743 O 1031.87 3.71088 -1.7991 0
M  V30 10744 H 1031.21 0.450352 -0.487933 0
M  V30 10745 H 1033.74 0.862886 -1.85514 0
M  V30 10746 H 1033.75 3.22209 -2.5029 0
M  V30 10747 H 1032.43 2.45149 -3.35969 0
M  V30 10748 H 1031.01 3.29994 -1.73661 0
M  V30 10749 N 1033.19 1.2685 0.935242 0
M  V30 10750 C 1034.14 1.08923 2.03481 0
M  V30 10751 C 1035.11 -0.00749786 1.66098 0
M  V30 10752 O 1036.29 0.153401 1.90182 0
M  V30 10753 C 1033.43 0.734529 3.37192 0
M  V30 10754 C 1032.55 1.90812 3.87576 0
M  V30 10755 C 1031.68 1.49599 5.097 0
M  V30 10756 C 1030.72 2.63752 5.5236 0
M  V30 10757 N 1029.86 2.23179 6.65684 0
M  V30 10758 H 1034.7 2.03016 2.18148 0
M  V30 10759 H 1032.23 1.01072 1.06878 0
M  V30 10760 H 1034.19 0.509734 4.14074 0
M  V30 10761 H 1032.82 -0.169438 3.22355 0
M  V30 10762 H 1031.87 2.24567 3.0704 0
M  V30 10763 H 1033.19 2.7647 4.1517 0
M  V30 10764 H 1032.34 1.23199 5.9406 0
M  V30 10765 H 1031.08 0.61039 4.83865 0
M  V30 10766 H 1030.08 2.90874 4.66554 0
M  V30 10767 H 1031.31 3.5292 5.80193 0
M  V30 10768 H 1029.26 1.37061 6.41522 0
M  V30 10769 H 1029.17 3.02379 6.92895 0
M  V30 10770 H 1030.44 2.00007 7.53404 0
M  V30 10771 N 1034.67 -1.14067 1.0875 0
M  V30 10772 C 1035.92 -1.84535 0.814235 0
M  V30 10773 C 1036.23 -1.84044 -0.662355 0
M  V30 10774 O 1037.44 -2.50336 -1.05091 0
M  V30 10775 C 1035.89 -3.31273 1.40663 0
M  V30 10776 C 1035.5 -3.40171 2.91526 0
M  V30 10777 C 1037.25 -4.0683 1.21201 0
M  V30 10778 C 1035.15 -4.81141 3.43885 0
M  V30 10779 H 1034.08 -0.691346 0.300926 0
M  V30 10780 H 1036.73 -1.28562 1.30935 0
M  V30 10781 H 1035.12 -3.87005 0.839215 0
M  V30 10782 H 1036.29 -2.94471 3.54434 0
M  V30 10783 H 1034.61 -2.78073 3.09942 0
M  V30 10784 H 1037.2 -5.10891 1.57781 0
M  V30 10785 H 1037.55 -4.16022 0.152092 0
M  V30 10786 H 1038.08 -3.57408 1.74655 0
M  V30 10787 H 1034.82 -4.77138 4.49466 0
M  V30 10788 H 1034.34 -5.27365 2.85738 0
M  V30 10789 H 1036.02 -5.50042 3.40681 0
M  V30 10790 N 1036.15 -0.873678 -1.31166 0
M  V30 10791 C 1037.08 -0.348011 -2.30892 0
M  V30 10792 C 1038.06 0.563092 -1.60509 0
M  V30 10793 O 1039.24 0.479332 -1.88192 0
M  V30 10794 C 1036.37 0.448158 -3.44396 0
M  V30 10795 C 1035.33 -0.370179 -4.26396 0
M  V30 10796 C 1034.65 0.551903 -5.31844 0
M  V30 10797 C 1035.95 -1.60624 -4.96988 0
M  V30 10798 H 1037.65 -1.18134 -2.75109 0
M  V30 10799 H 1035.19 -0.569502 -1.3226 0
M  V30 10800 H 1037.15 0.826458 -4.13216 0
M  V30 10801 H 1035.87 1.31503 -2.98956 0
M  V30 10802 H 1034.53 -0.730472 -3.59249 0
M  V30 10803 H 1034.18 1.41616 -4.82653 0
M  V30 10804 H 1033.88 0.00823478 -5.87599 0
M  V30 10805 H 1035.4 0.926965 -6.03523 0
M  V30 10806 H 1036.82 -1.29917 -5.58386 0
M  V30 10807 H 1035.21 -2.08926 -5.62557 0
M  V30 10808 H 1036.28 -2.357 -4.23761 0
M  V30 10809 N 1037.63 1.44308 -0.633487 0
M  V30 10810 C 1038.88 2.01239 -0.136356 0
M  V30 10811 C 1039.19 1.50438 1.25011 0
M  V30 10812 O 1040.39 1.99513 1.84138 0
M  V30 10813 C 1038.85 3.59382 -0.193011 0
M  V30 10814 C 1038.46 4.19178 -1.58093 0
M  V30 10815 C 1040.2 4.23778 0.247534 0
M  V30 10816 C 1038.11 5.69553 -1.59258 0
M  V30 10817 H 1037.04 0.752521 -0.0472109 0
M  V30 10818 H 1039.69 1.65498 -0.79263 0
M  V30 10819 H 1038.07 3.92432 0.530408 0
M  V30 10820 H 1039.25 3.97662 -2.32813 0
M  V30 10821 H 1037.56 3.67079 -1.96576 0
M  V30 10822 H 1040.16 5.34075 0.258401 0
M  V30 10823 H 1040.5 3.96285 1.27529 0
M  V30 10824 H 1041.03 3.9554 -0.423469 0
M  V30 10825 H 1037.77 6.01784 -2.59878 0
M  V30 10826 H 1037.29 5.93185 -0.888352 0
M  V30 10827 H 1038.97 6.33234 -1.32756 0
M  V30 10828 N 1039.1 0.374177 1.53094 0
M  V30 10829 C 1040.35 -0.213131 2.01677 0
M  V30 10830 C 1040.68 -1.47715 1.26071 0
M  V30 10831 O 1039.96 -1.91199 0.356834 0
M  V30 10832 C 1040.24 -0.496392 3.56662 0
M  V30 10833 C 1040.09 0.781859 4.42953 0
M  V30 10834 C 1041.41 -1.29339 4.20666 0
M  V30 10835 H 1038.53 -0.0759885 0.733072 0
M  V30 10836 H 1041.17 0.500765 1.83282 0
M  V30 10837 H 1039.32 -1.10455 3.72467 0
M  V30 10838 H 1041 1.41914 4.38928 0
M  V30 10839 H 1039.24 1.40041 4.10574 0
M  V30 10840 H 1039.91 0.538508 5.49367 0
M  V30 10841 H 1042.39 -0.778848 4.08746 0
M  V30 10842 H 1041.26 -1.46033 5.29118 0
M  V30 10843 H 1041.52 -2.30435 3.77296 0
M  V30 10844 N 1040.58 -1.57259 0.103575 0
M  V30 10845 C 1041.86 -1.86143 -0.600852 0
M  V30 10846 C 1042.24 -1.00198 -1.85805 0
M  V30 10847 O 1041.59 -0.0766791 -2.28371 0
M  V30 10848 C 1041.8 -3.36978 -0.908108 0
M  V30 10849 C 1043.15 -4.05228 -1.26788 0
M  V30 10850 O 1044.17 -3.41908 -0.998859 0
M  V30 10851 O 1043.03 -5.16971 -1.7721 0
M  V30 10852 H 1040.12 -0.770064 -0.301547 0
M  V30 10853 H 1042.67 -1.69147 0.136914 0
M  V30 10854 H 1041.44 -3.91296 -0.0165615 0
M  V30 10855 H 1041.06 -3.5935 -1.70156 0
M  V30 10856 N 1042.06 0.170153 -1.56679 0
M  V30 10857 C 1043.31 0.883211 -1.83224 0
M  V30 10858 C 1043.66 1.7982 -0.68429 0
M  V30 10859 O 1042.95 1.88922 0.319204 0
M  V30 10860 C 1043.15 1.71402 -3.13618 0
M  V30 10861 C 1042.98 0.880967 -4.40986 0
M  V30 10862 C 1041.75 0.555594 -5.02236 0
M  V30 10863 C 1043.95 0.221986 -5.13821 0
M  V30 10864 N 1041.93 -0.293479 -6.13198 0
M  V30 10865 C 1043.3 -0.488202 -6.18075 0
M  V30 10866 C 1045.35 0.14027 -4.97702 0
M  V30 10867 C 1044.06 -1.27236 -7.07957 0
M  V30 10868 C 1046.08 -0.630556 -5.88029 0
M  V30 10869 C 1045.44 -1.3291 -6.91747 0
M  V30 10870 H 1041.54 0.301769 -0.721429 0
M  V30 10871 H 1044.13 0.150113 -1.9412 0
M  V30 10872 H 1042.3 2.41853 -3.03911 0
M  V30 10873 H 1044.03 2.36847 -3.28155 0
M  V30 10874 H 1040.79 0.885952 -4.6524 0
M  V30 10875 H 1041.21 -0.708359 -6.73284 0
M  V30 10876 H 1045.85 0.665983 -4.17522 0
M  V30 10877 H 1043.57 -1.80941 -7.87582 0
M  V30 10878 H 1047.16 -0.695468 -5.77628 0
M  V30 10879 H 1046.04 -1.916 -7.60433 0
M  V30 10880 N 1043.54 1.5137 0.438746 0
M  V30 10881 C 1044.82 1.54508 1.19944 0
M  V30 10882 C 1045.2 0.308525 2.08833 0
M  V30 10883 O 1044.54 -0.706461 2.17305 0
M  V30 10884 C 1044.75 2.85833 2.00251 0
M  V30 10885 C 1046.1 3.37729 2.5734 0
M  V30 10886 O 1047.13 2.87374 2.10463 0
M  V30 10887 O 1045.98 4.25589 3.42836 0
M  V30 10888 H 1043.08 0.621132 0.546007 0
M  V30 10889 H 1045.62 1.63682 0.447931 0
M  V30 10890 H 1044.4 3.67291 1.34955 0
M  V30 10891 H 1044.02 2.79815 2.8247 0
M  V30 10892 N 1045.02 -0.694098 1.41492 0
M  V30 10893 C 1046.26 -1.4563 1.41137 0
M  V30 10894 C 1046.6 -1.94189 0.0208428 0
M  V30 10895 O 1045.87 -1.69628 -0.951655 0
M  V30 10896 C 1046.15 -2.66714 2.41941 0
M  V30 10897 C 1046.01 -2.23912 3.90107 0
M  V30 10898 C 1047.33 -3.68913 2.39981 0
M  V30 10899 H 1044.44 -0.52821 0.513968 0
M  V30 10900 H 1047.09 -0.790437 1.72778 0
M  V30 10901 H 1045.24 -3.23525 2.1509 0
M  V30 10902 H 1046.91 -1.72417 4.27867 0
M  V30 10903 H 1045.15 -1.5568 4.04903 0
M  V30 10904 H 1045.82 -3.108 4.56188 0
M  V30 10905 H 1048.3 -3.21779 2.63813 0
M  V30 10906 H 1047.17 -4.51242 3.12524 0
M  V30 10907 H 1047.44 -4.18711 1.41892 0
M  V30 10908 N 1046.49 -1.27344 -0.928501 0
M  V30 10909 C 1047.44 -1.06656 -2.01515 0
M  V30 10910 C 1048.43 0.00516619 -1.60899 0
M  V30 10911 O 1049.62 -0.213277 -1.7571 0
M  V30 10912 C 1046.75 -0.714935 -3.35773 0
M  V30 10913 C 1045.84 -1.82476 -3.82836 0
M  V30 10914 N 1046.23 -3.06421 -4.02417 0
M  V30 10915 C 1044.52 -1.71126 -4.11864 0
M  V30 10916 C 1045.23 -3.78637 -4.41598 0
M  V30 10917 N 1044.2 -3.06396 -4.49024 0
M  V30 10918 H 1048 -2.00718 -2.14685 0
M  V30 10919 H 1045.52 -1.18048 -1.11528 0
M  V30 10920 H 1047.51 -0.54784 -4.13285 0
M  V30 10921 H 1046.17 0.218069 -3.23967 0
M  V30 10922 H 1047.19 -3.42191 -3.88749 0
M  V30 10923 H 1043.86 -0.849031 -4.08776 0
M  V30 10924 H 1045.25 -4.85159 -4.64834 0
M  V30 10925 N 1047.97 1.13488 -1.09353 0
M  V30 10926 C 1048.92 2.16933 -0.701709 0
M  V30 10927 C 1049.91 1.58382 0.283553 0
M  V30 10928 O 1051.1 1.7675 0.0940391 0
M  V30 10929 C 1048.23 3.43079 -0.123031 0
M  V30 10930 C 1047.31 4.08639 -1.13466 0
M  V30 10931 N 1047.7 4.49377 -2.32152 0
M  V30 10932 C 1046 4.35265 -0.972632 0
M  V30 10933 C 1046.7 5.00464 -2.96497 0
M  V30 10934 N 1045.68 4.95275 -2.24061 0
M  V30 10935 H 1049.48 2.46183 -1.60534 0
M  V30 10936 H 1047 1.30275 -0.969644 0
M  V30 10937 H 1048.99 4.1653 0.17569 0
M  V30 10938 H 1047.65 3.15304 0.775461 0
M  V30 10939 H 1048.66 4.42105 -2.69748 0
M  V30 10940 H 1045.34 4.17301 -0.12876 0
M  V30 10941 H 1046.73 5.41785 -3.9739 0
M  V30 10942 N 1049.45 0.880621 1.30701 0
M  V30 10943 C 1050.7 0.495894 1.95922 0
M  V30 10944 C 1051.02 -0.957214 1.69889 0
M  V30 10945 O 1050.29 -1.67245 1.0201 0
M  V30 10946 H 1048.87 0.180394 0.724891 0
M  V30 10947 H 1051.53 1.12274 1.59313 0
M  V30 10948 H 1050.63 0.662508 3.04987 0
M  V30 10949 N 1050.93 -1.4397 0.641131 0
M  V30 10950 C 1051.88 -2.32495 -0.0698668 0
M  V30 10951 C 1052.87 -1.47922 -0.825555 0
M  V30 10952 O 1054.08 -1.64206 -0.737323 0
M  V30 10953 H 1050.45 -0.750861 -0.0413706 0
M  V30 10954 H 1052.42 -2.90201 0.694682 0
M  V30 10955 C 1051.17 -3.32063 -1.03098 0
M  V30 10956 H 1050.5 -3.97157 -0.458923 0
M  V30 10957 H 1051.94 -3.96664 -1.49778 0
M  V30 10958 C 1050.39 -2.61743 -2.12113 0
M  V30 10959 O 1050.92 -2.42385 -3.20332 0
M  V30 10960 N 1049.13 -2.21316 -1.88328 0
M  V30 10961 H 1048.68 -2.37261 -1.00324 0
M  V30 10962 H 1048.64 -1.74594 -2.61465 0
M  V30 10963 N 1052.41 -0.382291 -1.52893 0
M  V30 10964 C 1053.66 0.201734 -2.01091 0
M  V30 10965 C 1053.98 1.47905 -1.2708 0
M  V30 10966 O 1053.25 1.92002 -0.38883 0
M  V30 10967 H 1051.83 0.0775373 -0.742965 0
M  V30 10968 H 1054.49 -0.512369 -1.88045 0
M  V30 10969 H 1053.58 0.416919 -3.09303 0
M  V30 10970 N 1053.89 1.57202 -0.111913 0
M  V30 10971 C 1055.11 1.99297 0.555713 0
M  V30 10972 C 1055.53 0.991444 1.60673 0
M  V30 10973 O 1054.89 -0.0166672 1.82492 0
M  V30 10974 C 1054.94 3.41413 1.18826 0
M  V30 10975 O 1054.66 4.37733 0.179261 0
M  V30 10976 C 1056.16 3.98602 1.93989 0
M  V30 10977 H 1053.38 0.654543 0.147695 0
M  V30 10978 H 1055.92 2.03557 -0.196163 0
M  V30 10979 H 1054.08 3.38115 1.89096 0
M  V30 10980 H 1054.49 5.20606 0.637935 0
M  V30 10981 H 1055.97 5.00143 2.33584 0
M  V30 10982 H 1056.44 3.37349 2.81233 0
M  V30 10983 H 1057.05 4.05424 1.28497 0
M  V30 10984 N 1055.36 -0.161842 1.56767 0
M  V30 10985 C 1056.3 -1.22499 1.93718 0
M  V30 10986 C 1057.31 -1.39975 0.831314 0
M  V30 10987 O 1058.5 -1.3981 1.10975 0
M  V30 10988 C 1055.6 -2.59222 2.18306 0
M  V30 10989 C 1054.77 -2.6292 3.4956 0
M  V30 10990 C 1053.83 -3.81074 3.62863 0
M  V30 10991 O 1052.86 -3.66633 4.35395 0
M  V30 10992 N 1054.06 -4.97923 2.98418 0
M  V30 10993 H 1056.82 -0.911043 2.85517 0
M  V30 10994 H 1054.38 -0.351533 1.58038 0
M  V30 10995 H 1056.38 -3.36749 2.24461 0
M  V30 10996 H 1054.95 -2.82969 1.32844 0
M  V30 10997 H 1054.17 -1.71418 3.54978 0
M  V30 10998 H 1055.45 -2.62409 4.35911 0
M  V30 10999 H 1054.85 -5.12557 2.39378 0
M  V30 11000 H 1053.41 -5.73277 3.10155 0
M  V30 11001 N 1056.84 -1.516 -0.430713 0
M  V30 11002 C 1057.77 -1.69594 -1.54177 0
M  V30 11003 C 1058.79 -0.576518 -1.5225 0
M  V30 11004 O 1059.98 -0.85104 -1.56906 0
M  V30 11005 C 1057.08 -1.70148 -2.93092 0
M  V30 11006 C 1056.25 -2.98782 -3.1945 0
M  V30 11007 C 1055.31 -2.91435 -4.38123 0
M  V30 11008 O 1054.33 -3.65372 -4.36454 0
M  V30 11009 N 1055.54 -2.0774 -5.42056 0
M  V30 11010 H 1058.3 -2.65442 -1.39143 0
M  V30 11011 H 1055.86 -1.49569 -0.61974 0
M  V30 11012 H 1057.85 -1.62793 -3.70514 0
M  V30 11013 H 1056.42 -0.818667 -3.0169 0
M  V30 11014 H 1055.64 -3.19954 -2.30267 0
M  V30 11015 H 1056.93 -3.83919 -3.33892 0
M  V30 11016 H 1056.33 -1.47059 -5.46251 0
M  V30 11017 H 1054.89 -2.06259 -6.18305 0
M  V30 11018 N 1058.32 0.686584 -1.41858 0
M  V30 11019 C 1059.55 1.47519 -1.45072 0
M  V30 11020 C 1059.96 1.88709 -0.0585868 0
M  V30 11021 O 1059.32 1.57373 0.924116 0
M  V30 11022 C 1059.37 2.73195 -2.36742 0
M  V30 11023 O 1059.09 2.33736 -3.70539 0
M  V30 11024 C 1060.59 3.66861 -2.48854 0
M  V30 11025 H 1057.81 0.454307 -0.493808 0
M  V30 11026 H 1060.36 0.844612 -1.86243 0
M  V30 11027 H 1058.51 3.32468 -1.98856 0
M  V30 11028 H 1058.93 3.14809 -4.19518 0
M  V30 11029 H 1060.4 4.51801 -3.17143 0
M  V30 11030 H 1060.88 4.11961 -1.52265 0
M  V30 11031 H 1061.48 3.13486 -2.87414 0
M  V30 11032 N 1059.8 1.27835 0.921735 0
M  V30 11033 C 1061.04 1.14523 1.67005 0
M  V30 11034 C 1061.37 -0.307776 1.92049 0
M  V30 11035 O 1060.63 -1.24103 1.51317 0
M  V30 11036 C 1060.93 1.88054 3.03925 0
M  V30 11037 C 1060.59 3.37886 2.9857 0
M  V30 11038 C 1059.25 3.78752 2.96817 0
M  V30 11039 C 1061.61 4.33462 2.89414 0
M  V30 11040 C 1058.93 5.13549 2.83698 0
M  V30 11041 C 1061.29 5.68322 2.77836 0
M  V30 11042 C 1059.95 6.08475 2.74436 0
M  V30 11043 H 1059.22 0.419068 0.611116 0
M  V30 11044 H 1061.87 1.58515 1.07449 0
M  V30 11045 H 1060.17 1.36587 3.67221 0
M  V30 11046 H 1061.87 1.75176 3.60714 0
M  V30 11047 H 1058.46 3.05389 3.00725 0
M  V30 11048 H 1062.64 4.02857 2.89862 0
M  V30 11049 H 1057.9 5.43796 2.79456 0
M  V30 11050 H 1062.07 6.42048 2.69717 0
M  V30 11051 H 1059.7 7.12877 2.64027 0
M  V30 11052 N 1061.28 -1.12907 1.09954 0
M  V30 11053 C 1062.51 -1.87866 0.859656 0
M  V30 11054 C 1062.91 -1.79664 -0.593096 0
M  V30 11055 O 1062.26 -1.16499 -1.42034 0
M  V30 11056 C 1062.32 -3.38055 1.22308 0
M  V30 11057 C 1061.98 -3.70035 2.68185 0
M  V30 11058 C 1062.98 -3.68817 3.66428 0
M  V30 11059 C 1060.66 -3.99523 3.04444 0
M  V30 11060 C 1062.66 -3.96639 4.98955 0
M  V30 11061 C 1060.35 -4.27006 4.37161 0
M  V30 11062 C 1061.34 -4.25549 5.34225 0
M  V30 11063 O 1061.03 -4.52354 6.64553 0
M  V30 11064 H 1060.76 -0.601425 0.308649 0
M  V30 11065 H 1063.32 -1.43817 1.46649 0
M  V30 11066 H 1061.55 -3.82634 0.559322 0
M  V30 11067 H 1063.24 -3.94348 0.961479 0
M  V30 11068 H 1064 -3.46104 3.3976 0
M  V30 11069 H 1059.88 -3.99801 2.29521 0
M  V30 11070 H 1063.43 -3.95418 5.74709 0
M  V30 11071 H 1059.32 -4.49192 4.6357 0
M  V30 11072 H 1060.09 -4.69997 6.70108 0
M  V30 11073 N 1062.75 -0.88754 -1.30232 0
M  V30 11074 C 1063.69 -0.313488 -2.27046 0
M  V30 11075 C 1064.7 0.533383 -1.53814 0
M  V30 11076 O 1065.89 0.352516 -1.74984 0
M  V30 11077 C 1062.99 0.572674 -3.34026 0
M  V30 11078 C 1062.16 -0.245712 -4.36709 0
M  V30 11079 C 1061.22 0.57135 -5.23089 0
M  V30 11080 O 1060.25 -0.00685948 -5.692 0
M  V30 11081 N 1061.45 1.87994 -5.49216 0
M  V30 11082 H 1064.21 -1.14553 -2.76943 0
M  V30 11083 H 1061.77 -0.750785 -1.43439 0
M  V30 11084 H 1063.77 1.12539 -3.88738 0
M  V30 11085 H 1062.34 1.3054 -2.84039 0
M  V30 11086 H 1061.56 -0.979869 -3.81827 0
M  V30 11087 H 1062.84 -0.806618 -5.02366 0
M  V30 11088 H 1062.24 2.3726 -5.13541 0
M  V30 11089 H 1060.8 2.38005 -6.06792 0
M  V30 11090 N 1064.23 1.43628 -0.648757 0
M  V30 11091 C 1065.51 1.95391 -0.0904551 0
M  V30 11092 C 1065.89 1.59021 1.38837 0
M  V30 11093 O 1065.24 0.873078 2.11163 0
M  V30 11094 C 1065.45 3.47418 -0.33196 0
M  V30 11095 C 1066.8 4.23952 -0.234521 0
M  V30 11096 O 1067.82 3.55218 -0.264276 0
M  V30 11097 O 1066.68 5.46282 -0.154428 0
M  V30 11098 H 1063.77 0.82691 0.0121884 0
M  V30 11099 H 1066.32 1.5359 -0.721685 0
M  V30 11100 H 1065.09 3.67001 -1.35741 0
M  V30 11101 H 1064.71 3.96207 0.332556 0
M  V30 11102 N 1065.71 0.390394 1.52688 0
M  V30 11103 C 1067.12 -0.083394 1.86514 0
M  V30 11104 C 1067.47 -1.46057 1.31003 0
M  V30 11105 O 1066.6 -2.06663 0.641809 0
M  V30 11106 C 1067.19 -0.158102 3.38431 0
M  V30 11107 C 1065.75 -0.576186 3.71964 0
M  V30 11108 C 1064.9 0.261156 2.76068 0
M  V30 11109 H 1067.85 0.608226 1.46582 0
M  V30 11110 H 1067.87 -0.977023 3.67742 0
M  V30 11111 H 1067.38 0.844365 3.78803 0
M  V30 11112 H 1065.48 -1.58598 3.37161 0
M  V30 11113 H 1065.6 -0.333577 4.77937 0
M  V30 11114 H 1063.96 -0.273737 2.53225 0
M  V30 11115 H 1064.74 1.26162 3.19277 0
M  V30 11116 N 1067.19 -1.57141 0.120249 0
M  V30 11117 C 1068.41 -2.00017 -0.548454 0
M  V30 11118 C 1068.84 -0.999433 -1.59352 0
M  V30 11119 O 1068.2 0.0286978 -1.81277 0
M  V30 11120 C 1068.24 -3.41766 -1.15015 0
M  V30 11121 O 1067.35 -3.44589 -2.26566 0
M  V30 11122 H 1066.69 -0.649739 -0.136875 0
M  V30 11123 H 1069.22 -2.03529 0.209092 0
M  V30 11124 H 1069.23 -3.80001 -1.48537 0
M  V30 11125 H 1067.9 -4.14117 -0.384681 0
M  V30 11126 H 1066.48 -3.18174 -1.94473 0
M  V30 11127 N 1068.67 0.153526 -1.5685 0
M  V30 11128 C 1069.91 0.868517 -1.83261 0
M  V30 11129 C 1070.25 1.81112 -0.700857 0
M  V30 11130 O 1069.52 1.92235 0.295989 0
M  V30 11131 C 1069.8 1.6487 -3.2014 0
M  V30 11132 C 1069.66 0.728021 -4.43869 0
M  V30 11133 C 1070.98 2.61259 -3.54163 0
M  V30 11134 H 1068.09 0.314297 -0.666623 0
M  V30 11135 H 1070.74 0.133971 -1.89527 0
M  V30 11136 H 1068.89 2.2749 -3.1493 0
M  V30 11137 H 1070.56 0.113328 -4.61161 0
M  V30 11138 H 1068.8 0.0371744 -4.33784 0
M  V30 11139 H 1069.47 1.30981 -5.36235 0
M  V30 11140 H 1071.95 2.0876 -3.59942 0
M  V30 11141 H 1070.82 3.12902 -4.50981 0
M  V30 11142 H 1071.09 3.42307 -2.79782 0
M  V30 11143 N 1070.14 1.51827 0.422667 0
M  V30 11144 C 1071.07 1.77152 1.52117 0
M  V30 11145 C 1072.06 0.621895 1.58324 0
M  V30 11146 O 1073.24 0.866118 1.73816 0
M  V30 11147 C 1070.37 1.90991 2.90068 0
M  V30 11148 C 1069.32 3.06516 2.98717 0
M  V30 11149 C 1068.65 3.05559 4.38791 0
M  V30 11150 C 1069.95 4.46223 2.71445 0
M  V30 11151 H 1071.64 2.69135 1.31175 0
M  V30 11152 H 1069.19 1.29507 0.629607 0
M  V30 11153 H 1071.14 2.07291 3.6689 0
M  V30 11154 H 1069.87 0.956688 3.12274 0
M  V30 11155 H 1068.53 2.89945 2.24338 0
M  V30 11156 H 1068.17 2.07985 4.57986 0
M  V30 11157 H 1067.87 3.83144 4.45505 0
M  V30 11158 H 1069.4 3.23971 5.17566 0
M  V30 11159 H 1070.81 4.63069 3.37994 0
M  V30 11160 H 1069.21 5.25623 2.89552 0
M  V30 11161 H 1070.28 4.5525 1.6696 0
M  V30 11162 N 1071.62 -0.679052 1.4222 0
M  V30 11163 C 1072.85 -1.46534 1.45641 0
M  V30 11164 C 1073.26 -1.89088 0.0649574 0
M  V30 11165 O 1072.6 -1.58436 -0.929712 0
M  V30 11166 C 1072.67 -2.74882 2.3169 0
M  V30 11167 C 1072.33 -2.5443 3.79624 0
M  V30 11168 C 1073.33 -2.19307 4.71382 0
M  V30 11169 C 1071.01 -2.69557 4.23845 0
M  V30 11170 C 1073.01 -1.99571 6.05351 0
M  V30 11171 C 1070.69 -2.49437 5.57875 0
M  V30 11172 C 1071.69 -2.14497 6.48444 0
M  V30 11173 O 1071.38 -1.94567 7.79999 0
M  V30 11174 H 1071.11 -0.457542 0.497626 0
M  V30 11175 H 1073.66 -0.842145 1.87342 0
M  V30 11176 H 1071.89 -3.39669 1.8483 0
M  V30 11177 H 1073.58 -3.3675 2.26615 0
M  V30 11178 H 1074.35 -2.0722 4.38503 0
M  V30 11179 H 1070.23 -2.95733 3.53642 0
M  V30 11180 H 1073.77 -1.72222 6.76007 0
M  V30 11181 H 1069.67 -2.61119 5.90328 0
M  V30 11182 H 1070.44 -2.092 7.91314 0
M  V30 11183 N 1073.1 -1.28322 -0.914942 0
M  V30 11184 C 1074.35 -1.14785 -1.65853 0
M  V30 11185 C 1074.66 0.303135 -1.93237 0
M  V30 11186 O 1075.87 0.559606 -2.6567 0
M  V30 11187 C 1074.32 -2.00652 -2.98776 0
M  V30 11188 C 1073.93 -3.50483 -2.79044 0
M  V30 11189 C 1075.68 -1.95798 -3.76648 0
M  V30 11190 C 1073.58 -4.28505 -4.076 0
M  V30 11191 H 1072.51 -0.425987 -0.622135 0
M  V30 11192 H 1075.16 -1.52844 -1.01543 0
M  V30 11193 H 1073.55 -1.55447 -3.64214 0
M  V30 11194 H 1074.72 -4.03636 -2.22293 0
M  V30 11195 H 1073.04 -3.5685 -2.14586 0
M  V30 11196 H 1075.63 -2.51359 -4.71935 0
M  V30 11197 H 1075.98 -0.934455 -4.05677 0
M  V30 11198 H 1076.51 -2.38965 -3.18026 0
M  V30 11199 H 1073.25 -5.31433 -3.83744 0
M  V30 11200 H 1072.77 -3.80125 -4.63966 0
M  V30 11201 H 1074.45 -4.3836 -4.75867 0
M  V30 11202 N 1074.58 1.12322 -1.10551 0
M  V30 11203 C 1075.8 1.8822 -0.871093 0
M  V30 11204 C 1076.23 1.7916 0.573005 0
M  V30 11205 O 1075.59 1.14738 1.40374 0
M  V30 11206 C 1075.63 3.35349 -1.32565 0
M  V30 11207 O 1074.74 4.09461 -0.49145 0
M  V30 11208 H 1074.08 0.584787 -0.314516 0
M  V30 11209 H 1076.61 1.42039 -1.47262 0
M  V30 11210 H 1076.62 3.86189 -1.31612 0
M  V30 11211 H 1075.29 3.4126 -2.37728 0
M  V30 11212 H 1073.87 3.68575 -0.566294 0
M  V30 11213 N 1076.06 0.894434 1.2976 0
M  V30 11214 C 1076.99 0.3847 2.30309 0
M  V30 11215 C 1077.97 -0.537486 1.61385 0
M  V30 11216 O 1079.15 -0.449332 1.8893 0
M  V30 11217 C 1076.28 -0.393311 3.45066 0
M  V30 11218 C 1075.24 0.437968 4.25753 0
M  V30 11219 C 1074.56 -0.467221 5.32655 0
M  V30 11220 C 1075.86 1.6851 4.9437 0
M  V30 11221 H 1077.56 1.22496 2.73194 0
M  V30 11222 H 1075.1 0.590471 1.31337 0
M  V30 11223 H 1077.06 -0.760614 4.14479 0
M  V30 11224 H 1075.78 -1.2673 3.0101 0
M  V30 11225 H 1074.44 0.787533 3.58041 0
M  V30 11226 H 1074.09 -1.33919 4.84845 0
M  V30 11227 H 1073.79 0.0852482 5.87538 0
M  V30 11228 H 1075.31 -0.830833 6.04921 0
M  V30 11229 H 1076.72 1.38784 5.56248 0
M  V30 11230 H 1075.12 2.17849 5.59162 0
M  V30 11231 H 1076.19 2.42412 4.19958 0
M  V30 11232 N 1077.53 -1.43282 0.656365 0
M  V30 11233 C 1078.48 -2.27932 -0.0557069 0
M  V30 11234 C 1079.47 -1.40075 -0.791698 0
M  V30 11235 O 1080.66 -1.6368 -0.673646 0
M  V30 11236 C 1077.79 -3.27821 -1.01923 0
M  V30 11237 C 1076.88 -4.23164 -0.281545 0
M  V30 11238 N 1077.27 -5.00882 0.703629 0
M  V30 11239 C 1075.56 -4.42928 -0.522558 0
M  V30 11240 C 1076.27 -5.70384 1.14177 0
M  V30 11241 N 1075.24 -5.41517 0.475394 0
M  V30 11242 H 1079.04 -2.85437 0.70022 0
M  V30 11243 H 1076.56 -1.55023 0.483902 0
M  V30 11244 H 1078.55 -3.87248 -1.54418 0
M  V30 11245 H 1077.21 -2.71878 -1.77518 0
M  V30 11246 H 1078.23 -5.06461 1.08247 0
M  V30 11247 H 1074.9 -3.98051 -1.25944 0
M  V30 11248 H 1076.29 -6.42765 1.95711 0
M  V30 11249 N 1079.01 -0.398486 -1.52479 0
M  V30 11250 C 1080.43 -0.0488635 -1.59525 0
M  V30 11251 C 1080.63 1.43756 -1.41197 0
M  V30 11252 O 1079.69 2.20317 -1.23357 0
M  V30 11253 C 1081 -0.534262 -2.95916 0
M  V30 11254 C 1082.55 -0.491314 -3.0912 0
M  V30 11255 C 1083.02 -0.953049 -4.47974 0
M  V30 11256 N 1084.51 -0.909434 -4.54184 0
M  V30 11257 C 1085.25 -1.23801 -5.59876 0
M  V30 11258 N 1084.74 -1.63752 -6.73169 0
M  V30 11259 N 1086.54 -1.15867 -5.50028 0
M  V30 11260 H 1078.69 -1.36608 -1.62641 0
M  V30 11261 H 1080.95 -0.560515 -0.764544 0
M  V30 11262 H 1080.66 -1.57277 -3.14574 0
M  V30 11263 H 1080.53 0.0617787 -3.77149 0
M  V30 11264 H 1082.92 0.538123 -2.90152 0
M  V30 11265 H 1083 -1.12327 -2.29818 0
M  V30 11266 H 1082.64 -1.98076 -4.67684 0
M  V30 11267 H 1082.57 -0.298007 -5.25756 0
M  V30 11268 H 1085.06 -0.615569 -3.72853 0
M  V30 11269 H 1085.38 -1.87163 -7.49793 0
M  V30 11270 H 1083.72 -1.67647 -6.74477 0
M  V30 11271 H 1086.91 -0.845502 -4.60401 0
M  V30 11272 H 1087.09 -1.41805 -6.32294 0
M  V30 11273 N 1080.49 1.57075 -0.12858 0
M  V30 11274 C 1081.44 2.12379 0.829418 0
M  V30 11275 C 1082.43 1.04694 1.2218 0
M  V30 11276 O 1083.62 1.30909 1.1913 0
M  V30 11277 C 1080.75 2.73436 2.07575 0
M  V30 11278 C 1079.83 3.88217 1.7073 0
M  V30 11279 N 1080.22 4.94864 1.04609 0
M  V30 11280 C 1078.52 3.9858 2.00125 0
M  V30 11281 C 1079.22 5.7514 0.871137 0
M  V30 11282 N 1078.2 5.25284 1.39918 0
M  V30 11283 H 1082 2.92209 0.314816 0
M  V30 11284 H 1079.51 1.62233 0.0735788 0
M  V30 11285 H 1081.51 3.11406 2.77185 0
M  V30 11286 H 1080.17 1.95073 2.5957 0
M  V30 11287 H 1081.18 5.13025 0.708961 0
M  V30 11288 H 1077.86 3.3127 2.541 0
M  V30 11289 H 1079.25 6.7098 0.351395 0
M  V30 11290 N 1081.97 -0.145205 1.5693 0
M  V30 11291 C 1083.25 -0.88631 1.74367 0
M  V30 11292 C 1083.63 -1.99259 0.697081 0
M  V30 11293 O 1082.97 -2.26732 -0.28368 0
M  V30 11294 C 1083.18 -1.42712 3.18488 0
M  V30 11295 C 1084.53 -1.88982 3.80225 0
M  V30 11296 O 1085.56 -1.5245 3.21928 0
M  V30 11297 O 1084.42 -2.56361 4.8264 0
M  V30 11298 H 1081.51 -0.418979 0.713011 0
M  V30 11299 H 1084.06 -0.130991 1.69194 0
M  V30 11300 H 1082.83 -0.632165 3.8616 0
M  V30 11301 H 1082.45 -2.24589 3.28094 0
M  V30 11302 N 1083.45 -1.52049 -0.414609 0
M  V30 11303 C 1084.72 -1.56397 -1.17471 0
M  V30 11304 C 1085.1 -0.34171 -2.08316 0
M  V30 11305 O 1084.45 0.6718 -2.18401 0
M  V30 11306 C 1084.66 -2.88983 -1.95678 0
M  V30 11307 C 1086.01 -3.41781 -2.51935 0
M  V30 11308 O 1087.03 -2.90686 -2.05865 0
M  V30 11309 O 1085.89 -4.30989 -3.36022 0
M  V30 11310 H 1082.99 -0.62974 -0.536056 0
M  V30 11311 H 1085.53 -1.64374 -0.421834 0
M  V30 11312 H 1084.31 -3.69392 -1.29094 0
M  V30 11313 H 1083.93 -2.84274 -2.77983 0
M  V30 11314 N 1084.93 0.6715 -1.42579 0
M  V30 11315 C 1086.17 1.42871 -1.42941 0
M  V30 11316 C 1086.49 1.94941 -0.0480483 0
M  V30 11317 O 1085.76 1.73275 0.913921 0
M  V30 11318 H 1084.34 0.530189 -0.526221 0
M  V30 11319 H 1087.01 0.793219 -1.78028 0
M  V30 11320 H 1086.1 2.2801 -2.13114 0
M  V30 11321 N 1086.4 1.28806 0.908124 0
M  V30 11322 C 1087.35 1.13083 2.03261 0
M  V30 11323 C 1088.35 0.0486094 1.6933 0
M  V30 11324 O 1089.55 0.207794 1.78797 0
M  V30 11325 H 1085.93 0.349057 0.666081 0
M  V30 11326 H 1087.9 2.08304 2.13663 0
M  V30 11327 C 1086.65 0.815339 3.38005 0
M  V30 11328 H 1085.97 1.64007 3.64612 0
M  V30 11329 H 1087.41 0.745311 4.17398 0
M  V30 11330 C 1085.87 -0.48113 3.33447 0
M  V30 11331 O 1086.4 -1.50974 3.7225 0
M  V30 11332 N 1084.6 -0.483912 2.86543 0
M  V30 11333 H 1084.15 0.353593 2.55162 0
M  V30 11334 H 1084.11 -1.35138 2.83875 0
M  V30 11335 N 1087.88 -1.11734 1.11145 0
M  V30 11336 C 1089.13 -1.83405 0.858413 0
M  V30 11337 C 1089.46 -1.84488 -0.615975 0
M  V30 11338 O 1088.71 -1.29123 -1.47057 0
M  V30 11339 C 1089.01 -3.3046 1.36129 0
M  V30 11340 C 1088.68 -3.4954 2.84837 0
M  V30 11341 C 1087.34 -3.54456 3.25445 0
M  V30 11342 C 1089.69 -3.56048 3.8063 0
M  V30 11343 C 1087.02 -3.63431 4.60581 0
M  V30 11344 C 1089.37 -3.66554 5.15579 0
M  V30 11345 C 1088.03 -3.69728 5.55749 0
M  V30 11346 H 1087.3 -0.671128 0.314115 0
M  V30 11347 H 1089.95 -1.31795 1.38933 0
M  V30 11348 H 1088.26 -3.84544 0.750547 0
M  V30 11349 H 1089.95 -3.84398 1.14188 0
M  V30 11350 H 1086.54 -3.46382 2.52423 0
M  V30 11351 H 1090.73 -3.51513 3.5036 0
M  V30 11352 H 1085.98 -3.64164 4.91116 0
M  V30 11353 H 1090.16 -3.70532 5.89643 0
M  V30 11354 H 1087.78 -3.76435 6.60455 0
M  V30 11355 N 1089.36 -0.901303 -1.29284 0
M  V30 11356 C 1090.61 -0.528043 -1.95494 0
M  V30 11357 C 1090.93 0.92597 -1.71044 0
M  V30 11358 O 1090.19 1.67185 -1.01723 0
M  V30 11359 C 1090.49 -0.768828 -3.49033 0
M  V30 11360 C 1090.15 -2.20045 -3.93562 0
M  V30 11361 C 1088.82 -2.59189 -4.05431 0
M  V30 11362 C 1091.17 -3.13266 -4.1655 0
M  V30 11363 C 1088.5 -3.90733 -4.37658 0
M  V30 11364 C 1090.85 -4.4436 -4.50252 0
M  V30 11365 C 1089.51 -4.83375 -4.60331 0
M  V30 11366 H 1088.78 -0.193225 -0.715364 0
M  V30 11367 H 1091.43 -1.14027 -1.53851 0
M  V30 11368 H 1089.73 -0.0736997 -3.91731 0
M  V30 11369 H 1091.43 -0.459384 -3.9836 0
M  V30 11370 H 1088.02 -1.88666 -3.84842 0
M  V30 11371 H 1092.21 -2.84237 -4.06845 0
M  V30 11372 H 1087.46 -4.2068 -4.43665 0
M  V30 11373 H 1091.64 -5.16618 -4.66989 0
M  V30 11374 H 1089.26 -5.8534 -4.85058 0
M  V30 11375 N 1090.84 1.42931 -0.663954 0
M  V30 11376 C 1092.25 1.84877 -0.260283 0
M  V30 11377 C 1092.6 1.5558 1.19538 0
M  V30 11378 O 1091.72 1.01015 1.91377 0
M  V30 11379 C 1092.32 3.35585 -0.465618 0
M  V30 11380 C 1090.88 3.76221 -0.116169 0
M  V30 11381 C 1090.03 2.66587 -0.763317 0
M  V30 11382 H 1092.98 1.32932 -0.866882 0
M  V30 11383 H 1093 3.79427 0.285608 0
M  V30 11384 H 1092.51 3.56877 -1.52515 0
M  V30 11385 H 1090.61 3.60539 0.940342 0
M  V30 11386 H 1090.72 4.75943 -0.549123 0
M  V30 11387 H 1089.09 2.53948 -0.19559 0
M  V30 11388 H 1089.87 2.90704 -1.82609 0
M  V30 11389 N 1092.32 0.406567 1.52266 0
M  V30 11390 C 1093.56 -0.169717 2.01386 0
M  V30 11391 C 1093.88 -1.45864 1.29417 0
M  V30 11392 O 1093.15 -1.9136 0.419327 0
M  V30 11393 H 1091.73 -0.0657075 0.744105 0
M  V30 11394 H 1094.4 0.542221 1.87206 0
M  V30 11395 H 1093.49 -0.367659 3.09927 0
M  V30 11396 N 1093.79 -1.57004 0.136909 0
M  V30 11397 C 1095.02 -2.00587 -0.527209 0
M  V30 11398 C 1095.44 -1.01628 -1.58283 0
M  V30 11399 O 1094.8 0.00946934 -1.81298 0
M  V30 11400 C 1094.85 -3.42967 -1.11384 0
M  V30 11401 O 1093.95 -3.46973 -2.22898 0
M  V30 11402 H 1093.3 -0.651155 -0.129976 0
M  V30 11403 H 1095.83 -2.03296 0.230667 0
M  V30 11404 H 1095.84 -3.81555 -1.44499 0
M  V30 11405 H 1094.51 -4.14502 -0.340736 0
M  V30 11406 H 1093.09 -3.20219 -1.91087 0
M  V30 11407 N 1095.27 0.136881 -1.57004 0
M  V30 11408 C 1096.52 0.8461 -1.83536 0
M  V30 11409 C 1096.84 1.81246 -0.71937 0
M  V30 11410 O 1096.11 1.94191 0.258161 0
M  V30 11411 H 1094.69 0.315446 -0.677128 0
M  V30 11412 H 1097.35 0.128469 -1.94476 0
M  V30 11413 H 1096.45 1.40221 -2.78827 0
M  V30 11414 N 1096.75 1.52266 0.40654 0
M  V30 11415 C 1097.71 1.75168 1.47814 0
M  V30 11416 C 1098.71 0.621575 1.48301 0
M  V30 11417 O 1099.9 0.889476 1.4978 0
M  V30 11418 C 1097.04 1.83642 2.87208 0
M  V30 11419 H 1098.23 2.70834 1.28798 0
M  V30 11420 H 1095.78 1.42722 0.637196 0
M  V30 11421 H 1096.52 0.898994 3.1159 0
M  V30 11422 H 1096.3 2.65801 2.88257 0
M  V30 11423 H 1097.79 2.03093 3.64888 0
M  V30 11424 N 1098.23 -0.663929 1.42933 0
M  V30 11425 C 1099.47 -1.42603 1.44195 0
M  V30 11426 C 1099.81 -1.94101 0.0620284 0
M  V30 11427 O 1099.08 -1.71609 -0.91546 0
M  V30 11428 C 1099.37 -2.61522 2.47544 0
M  V30 11429 C 1099.22 -2.15587 3.94769 0
M  V30 11430 C 1100.54 -3.6374 2.47753 0
M  V30 11431 H 1097.66 -0.517189 0.525056 0
M  V30 11432 H 1100.3 -0.75361 1.74415 0
M  V30 11433 H 1098.45 -3.1889 2.21904 0
M  V30 11434 H 1100.12 -1.63303 4.31428 0
M  V30 11435 H 1098.36 -1.47057 4.08114 0
M  V30 11436 H 1099.03 -3.01053 4.62678 0
M  V30 11437 H 1101.51 -3.16111 2.70579 0
M  V30 11438 H 1100.39 -4.44512 3.22025 0
M  V30 11439 H 1100.65 -4.15607 1.50742 0
M  V30 11440 N 1099.71 -1.29285 -0.901281 0
M  V30 11441 C 1100.98 -1.07847 -1.63182 0
M  V30 11442 C 1101.36 0.377927 -2.07689 0
M  V30 11443 O 1100.71 1.36642 -1.83143 0
M  V30 11444 C 1100.92 -2.06457 -2.81383 0
M  V30 11445 C 1102.27 -2.37289 -3.52107 0
M  V30 11446 O 1103.29 -2.0464 -2.91549 0
M  V30 11447 O 1102.15 -2.93067 -4.61274 0
M  V30 11448 H 1099.25 -0.413073 -0.71645 0
M  V30 11449 H 1101.79 -1.40651 -0.949488 0
M  V30 11450 H 1100.56 -3.04561 -2.4568 0
M  V30 11451 H 1100.19 -1.74374 -3.57323 0
M  V30 11452 N 1101.18 1.11143 -1.11736 0
M  V30 11453 C 1102.09 2.20851 -0.791331 0
M  V30 11454 C 1103.11 1.72644 0.216833 0
M  V30 11455 O 1104.29 2.01332 0.0522401 0
M  V30 11456 C 1101.35 3.4585 -0.242694 0
M  V30 11457 C 1100.41 4.08829 -1.30986 0
M  V30 11458 C 1099.65 5.27861 -0.787305 0
M  V30 11459 O 1099.87 5.69122 0.381549 0
M  V30 11460 O 1098.8 5.81506 -1.55352 0
M  V30 11461 H 1102.63 2.51158 -1.70744 0
M  V30 11462 H 1100.21 1.19739 -0.893478 0
M  V30 11463 H 1102.1 4.21359 0.0587472 0
M  V30 11464 H 1100.77 3.17187 0.646079 0
M  V30 11465 H 1099.68 3.35037 -1.66436 0
M  V30 11466 H 1101.01 4.41678 -2.17213 0
M  V30 11467 N 1102.66 0.908147 1.28804 0
M  V30 11468 C 1103.91 0.539201 1.95501 0
M  V30 11469 C 1104.24 -0.913759 1.7136 0
M  V30 11470 O 1103.52 -1.64904 1.03136 0
M  V30 11471 C 1103.8 0.842372 3.50109 0
M  V30 11472 C 1103.65 2.34765 3.83673 0
M  V30 11473 C 1104.97 0.334658 4.38826 0
M  V30 11474 H 1102.09 0.197373 0.71008 0
M  V30 11475 H 1104.73 1.13637 1.52272 0
M  V30 11476 H 1102.88 0.334143 3.8706 0
M  V30 11477 H 1104.55 2.92607 3.56621 0
M  V30 11478 H 1102.8 2.80494 3.30916 0
M  V30 11479 H 1103.47 2.51034 4.91616 0
M  V30 11480 H 1105.94 0.769961 4.08914 0
M  V30 11481 H 1104.82 0.575914 5.4587 0
M  V30 11482 H 1105.08 -0.764878 4.35433 0
M  V30 11483 N 1104.14 -1.42577 0.671525 0
M  V30 11484 C 1105.39 -2.01185 0.192051 0
M  V30 11485 C 1105.71 -1.53349 -1.20454 0
M  V30 11486 O 1104.98 -0.753781 -1.80817 0
M  V30 11487 H 1103.56 -0.743898 0.0680106 0
M  V30 11488 H 1106.22 -1.74539 0.8673 0
M  V30 11489 H 1105.32 -3.11516 0.190796 0
M  V30 11490 N 1105.62 -0.414636 -1.52048 0
M  V30 11491 C 1106.58 0.396285 -2.25748 0
M  V30 11492 C 1107.58 0.969003 -1.28324 0
M  V30 11493 O 1108.77 0.847016 -1.52221 0
M  V30 11494 C 1105.9 1.55838 -3.03195 0
M  V30 11495 H 1107.1 -0.249311 -2.98862 0
M  V30 11496 H 1104.65 -0.167276 -1.55402 0
M  V30 11497 H 1105.38 2.24068 -2.34444 0
M  V30 11498 H 1105.17 1.15414 -3.74729 0
M  V30 11499 H 1106.66 2.13187 -3.59084 0
M  V30 11500 N 1107.1 1.56929 -0.145233 0
M  V30 11501 C 1108.34 1.95681 0.50532 0
M  V30 11502 C 1108.67 1.03098 1.65516 0
M  V30 11503 O 1107.94 0.0921961 1.95683 0
M  V30 11504 H 1106.52 0.72252 0.189668 0
M  V30 11505 H 1109.18 1.93651 -0.220318 0
M  V30 11506 H 1108.27 2.99359 0.882631 0
M  V30 11507 N 1108.58 -0.128553 1.57075 0
M  V30 11508 C 1109.8 -0.8564 1.88893 0
M  V30 11509 C 1110.23 -1.73095 0.736196 0
M  V30 11510 O 1109.58 -1.78567 -0.313629 0
M  V30 11511 C 1109.63 -1.67368 3.19406 0
M  V30 11512 O 1108.74 -2.77973 3.04639 0
M  V30 11513 H 1108.08 -0.237424 0.620102 0
M  V30 11514 H 1110.61 -0.113821 2.04283 0
M  V30 11515 H 1110.62 -2.0649 3.51889 0
M  V30 11516 H 1109.29 -1.03161 4.02903 0
M  V30 11517 H 1107.87 -2.42123 2.83603 0
M  V30 11518 N 1110.05 -1.5248 -0.398459 0
M  V30 11519 C 1111.3 -1.66731 -1.14215 0
M  V30 11520 C 1111.62 -0.404957 -1.90749 0
M  V30 11521 O 1110.89 0.580434 -1.87104 0
M  V30 11522 H 1109.47 -0.614577 -0.424622 0
M  V30 11523 H 1112.13 -1.89561 -0.453059 0
M  V30 11524 H 1111.23 -2.51336 -1.85031 0
M  V30 11525 N 1111.53 0.65634 -1.43283 0
M  V30 11526 C 1112.44 1.79847 -1.50639 0
M  V30 11527 C 1113.46 1.69487 -0.393714 0
M  V30 11528 O 1114.63 1.90712 -0.647379 0
M  V30 11529 C 1111.7 3.16107 -1.42398 0
M  V30 11530 C 1110.76 3.38287 -2.64312 0
M  V30 11531 C 1109.99 4.68046 -2.56454 0
M  V30 11532 O 1110.22 5.4719 -1.61056 0
M  V30 11533 O 1109.15 4.91877 -3.46902 0
M  V30 11534 H 1112.98 1.76596 -2.47078 0
M  V30 11535 H 1110.56 0.814428 -1.25249 0
M  V30 11536 H 1112.44 3.97382 -1.40233 0
M  V30 11537 H 1111.12 3.19956 -0.490929 0
M  V30 11538 H 1110.02 2.56788 -2.72049 0
M  V30 11539 H 1111.36 3.39282 -3.56579 0
M  V30 11540 N 1113.01 1.29761 0.894412 0
M  V30 11541 C 1114.26 1.17806 1.64214 0
M  V30 11542 C 1114.58 -0.269588 1.93127 0
M  V30 11543 O 1113.85 -1.18352 1.56107 0
M  V30 11544 H 1112.43 0.433002 0.608702 0
M  V30 11545 H 1115.09 1.6276 1.07216 0
M  V30 11546 H 1114.19 1.73201 2.5963 0
M  V30 11547 N 1114.49 -1.10549 1.12324 0
M  V30 11548 C 1115.73 -1.82485 0.877817 0
M  V30 11549 C 1116.06 -1.85131 -0.596373 0
M  V30 11550 O 1115.32 -1.30675 -1.45679 0
M  V30 11551 C 1115.62 -3.28997 1.39626 0
M  V30 11552 C 1115.28 -3.465 2.88529 0
M  V30 11553 C 1113.94 -3.50984 3.29186 0
M  V30 11554 C 1116.3 -3.51991 3.84385 0
M  V30 11555 C 1113.62 -3.58525 4.6441 0
M  V30 11556 C 1115.98 -3.61065 5.19437 0
M  V30 11557 C 1114.64 -3.63813 5.5964 0
M  V30 11558 H 1113.91 -0.667758 0.321216 0
M  V30 11559 H 1116.56 -1.30314 1.40323 0
M  V30 11560 H 1114.86 -3.83726 0.791291 0
M  V30 11561 H 1116.56 -3.83165 1.18259 0
M  V30 11562 H 1113.15 -3.43686 2.56082 0
M  V30 11563 H 1117.33 -3.47777 3.54069 0
M  V30 11564 H 1112.59 -3.58934 4.94951 0
M  V30 11565 H 1116.76 -3.64257 5.9354 0
M  V30 11566 H 1114.39 -3.69409 6.6441 0
M  V30 11567 N 1115.97 -0.914965 -1.28321 0
M  V30 11568 C 1116.91 -0.394477 -2.29231 0
M  V30 11569 C 1117.91 0.514481 -1.61398 0
M  V30 11570 O 1119.11 0.395591 -1.75599 0
M  V30 11571 H 1115.49 -0.108969 -0.744063 0
M  V30 11572 H 1117.46 -1.25862 -2.70557 0
M  V30 11573 C 1116.21 0.349134 -3.45943 0
M  V30 11574 H 1115.53 -0.341087 -3.98342 0
M  V30 11575 H 1116.97 0.677944 -4.18545 0
M  V30 11576 C 1115.43 1.55747 -2.98738 0
M  V30 11577 O 1115.96 2.65654 -3.01315 0
M  V30 11578 N 1114.17 1.40488 -2.54384 0
M  V30 11579 H 1113.71 0.510716 -2.52487 0
M  V30 11580 H 1113.67 2.21464 -2.23161 0
M  V30 11581 N 1117.44 1.42219 -0.679077 0
M  V30 11582 C 1118.69 2.01777 -0.20342 0
M  V30 11583 C 1119.02 1.53592 1.18841 0
M  V30 11584 O 1118.3 0.739954 1.79875 0
M  V30 11585 C 1118.58 3.59281 -0.242791 0
M  V30 11586 C 1118.43 4.17634 -1.67038 0
M  V30 11587 C 1119.75 4.38218 0.406624 0
M  V30 11588 H 1116.87 0.733134 -0.0753916 0
M  V30 11589 H 1119.51 1.69185 -0.864673 0
M  V30 11590 H 1117.66 3.87178 0.320248 0
M  V30 11591 H 1119.34 4.00674 -2.286 0
M  V30 11592 H 1117.58 3.73301 -2.20973 0
M  V30 11593 H 1118.25 5.26776 -1.64958 0
M  V30 11594 H 1120.73 4.16036 -0.0727077 0
M  V30 11595 H 1119.6 5.47793 0.348457 0
M  V30 11596 H 1119.86 4.16418 1.48487 0
M  V30 11597 N 1118.92 0.422693 1.51826 0
M  V30 11598 C 1119.87 -0.41063 2.28947 0
M  V30 11599 C 1120.86 -1.03389 1.34191 0
M  V30 11600 O 1122.07 -0.970533 1.51594 0
M  V30 11601 H 1118.44 -0.151219 0.736639 0
M  V30 11602 H 1120.42 0.260859 2.97258 0
M  V30 11603 C 1119.16 -1.50758 3.13317 0
M  V30 11604 H 1118.49 -1.03734 3.86108 0
M  V30 11605 H 1119.93 -2.0642 3.7036 0
M  V30 11606 C 1118.39 -2.48261 2.27746 0
M  V30 11607 O 1118.92 -3.52462 1.92701 0
M  V30 11608 N 1117.12 -2.18795 1.91251 0
M  V30 11609 H 1116.67 -1.34088 2.1995 0
M  V30 11610 H 1116.63 -2.84276 1.34293 0
M  V30 11611 N 1120.4 -1.5685 0.153553 0
M  V30 11612 C 1121.65 -1.96625 -0.49665 0
M  V30 11613 C 1121.98 -1.03877 -1.64083 0
M  V30 11614 O 1121.25 -0.0824112 -1.94325 0
M  V30 11615 C 1121.54 -3.46035 -0.996585 0
M  V30 11616 C 1121.39 -4.49561 0.146551 0
M  V30 11617 C 1122.71 -3.98104 -1.8762 0
M  V30 11618 H 1119.83 -0.714917 -0.179059 0
M  V30 11619 H 1122.47 -1.88527 0.236104 0
M  V30 11620 H 1120.62 -3.53066 -1.621 0
M  V30 11621 H 1122.29 -4.54604 0.783108 0
M  V30 11622 H 1120.53 -4.26271 0.804727 0
M  V30 11623 H 1121.21 -5.51456 -0.245078 0
M  V30 11624 H 1123.68 -3.93593 -1.34997 0
M  V30 11625 H 1122.56 -5.03098 -2.19508 0
M  V30 11626 H 1122.82 -3.40852 -2.81554 0
M  V30 11627 N 1121.88 0.120221 -1.57141 0
M  V30 11628 C 1122.84 1.13159 -1.99318 0
M  V30 11629 C 1123.84 1.34376 -0.883158 0
M  V30 11630 O 1125.03 1.30914 -1.14922 0
M  V30 11631 C 1122.16 2.48632 -2.33227 0
M  V30 11632 H 1123.36 0.769119 -2.8987 0
M  V30 11633 H 1120.91 0.364475 -1.51991 0
M  V30 11634 H 1121.64 2.89802 -1.45551 0
M  V30 11635 H 1121.43 2.34587 -3.14184 0
M  V30 11636 H 1122.92 3.21423 -2.66603 0
M  V30 11637 N 1123.36 1.52689 0.390367 0
M  V30 11638 C 1124.6 1.68866 1.13383 0
M  V30 11639 C 1124.96 0.422683 1.877 0
M  V30 11640 O 1124.25 -0.583587 1.82496 0
M  V30 11641 C 1124.44 2.86177 2.14096 0
M  V30 11642 C 1124.27 4.24062 1.49672 0
M  V30 11643 C 1123.04 4.89303 1.26139 0
M  V30 11644 C 1125.24 5.05496 0.947554 0
M  V30 11645 N 1123.22 6.11172 0.578051 0
M  V30 11646 C 1124.59 6.18758 0.392199 0
M  V30 11647 C 1126.65 4.90697 0.843832 0
M  V30 11648 C 1125.35 7.18842 -0.256734 0
M  V30 11649 C 1127.38 5.91032 0.208722 0
M  V30 11650 C 1126.74 7.03599 -0.33587 0
M  V30 11651 H 1122.84 0.671411 0.400914 0
M  V30 11652 H 1125.42 1.90037 0.423563 0
M  V30 11653 H 1123.59 2.66589 2.82462 0
M  V30 11654 H 1125.33 2.91298 2.80941 0
M  V30 11655 H 1122.08 4.48 1.53601 0
M  V30 11656 H 1122.51 6.76529 0.252464 0
M  V30 11657 H 1127.15 4.03879 1.25067 0
M  V30 11658 H 1124.87 8.05271 -0.675589 0
M  V30 11659 H 1128.45 5.81655 0.129732 0
M  V30 11660 H 1127.33 7.79906 -0.819557 0
M  V30 11661 N 1124.83 -0.648732 1.43629 0
M  V30 11662 C 1125.8 -1.74331 1.488 0
M  V30 11663 C 1126.8 -1.56434 0.372147 0
M  V30 11664 O 1127.99 -1.6225 0.634078 0
M  V30 11665 C 1125.12 -3.13248 1.34494 0
M  V30 11666 H 1126.31 -1.71125 2.46285 0
M  V30 11667 H 1123.87 -0.860798 1.30461 0
M  V30 11668 H 1124.6 -3.22062 0.380345 0
M  V30 11669 H 1124.39 -3.27643 2.15389 0
M  V30 11670 H 1125.88 -3.93056 1.41055 0
M  V30 11671 N 1126.31 -1.30234 -0.887518 0
M  V30 11672 C 1127.56 -1.18675 -1.63587 0
M  V30 11673 C 1127.88 0.259342 -1.93268 0
M  V30 11674 O 1127.15 1.17523 -1.56733 0
M  V30 11675 H 1125.73 -0.436224 -0.606397 0
M  V30 11676 H 1128.39 -1.63326 -1.06351 0
M  V30 11677 H 1127.49 -1.74575 -2.58708 0
M  V30 11678 N 1127.79 1.09952 -1.12909 0
M  V30 11679 C 1129.04 1.81657 -0.885729 0
M  V30 11680 C 1129.36 1.85863 0.589913 0
M  V30 11681 O 1128.63 1.34028 1.42875 0
M  V30 11682 H 1127.21 0.672743 -0.324694 0
M  V30 11683 H 1129.87 1.33013 -1.42456 0
M  V30 11684 H 1128.97 2.85018 -1.27167 0
M  V30 11685 N 1129.27 0.921757 1.27833 0
M  V30 11686 C 1130.2 0.433466 2.29441 0
M  V30 11687 C 1131.18 -0.503133 1.62489 0
M  V30 11688 O 1132.36 -0.409156 1.89841 0
M  V30 11689 C 1129.49 -0.320029 3.45822 0
M  V30 11690 C 1128.45 0.528178 4.24728 0
M  V30 11691 C 1127.77 -0.354132 5.33526 0
M  V30 11692 C 1129.07 1.78959 4.90684 0
M  V30 11693 H 1130.77 1.28263 2.70535 0
M  V30 11694 H 1128.31 0.618197 1.30055 0
M  V30 11695 H 1130.27 -0.672526 4.15999 0
M  V30 11696 H 1128.99 -1.20317 3.0363 0
M  V30 11697 H 1127.65 0.863302 3.5629 0
M  V30 11698 H 1127.3 -1.23605 4.87576 0
M  V30 11699 H 1127 0.209855 5.87225 0
M  V30 11700 H 1128.52 -0.702333 6.06547 0
M  V30 11701 H 1129.94 1.50552 5.53179 0
M  V30 11702 H 1128.33 2.29661 5.54415 0
M  V30 11703 H 1129.4 2.51265 4.14721 0
M  V30 11704 N 1130.75 -1.41857 0.686609 0
M  V30 11705 C 1132.02 -1.95082 0.142228 0
M  V30 11706 C 1132.4 -1.62646 -1.34572 0
M  V30 11707 O 1131.75 -0.928757 -2.08773 0
M  V30 11708 C 1131.96 -3.46415 0.423955 0
M  V30 11709 C 1133.31 -4.23181 0.346842 0
M  V30 11710 O 1134.33 -3.54393 0.358363 0
M  V30 11711 O 1133.19 -5.4568 0.299211 0
M  V30 11712 H 1130.29 -0.826943 0.00974 0
M  V30 11713 H 1132.83 -1.51622 0.762153 0
M  V30 11714 H 1131.6 -3.63273 1.45424 0
M  V30 11715 H 1131.23 -3.96949 -0.227391 0
M  V30 11716 N 1132.22 -0.430739 -1.51599 0
M  V30 11717 C 1133.64 0.0339139 -1.86669 0
M  V30 11718 C 1133.99 1.42533 -1.34829 0
M  V30 11719 O 1133.11 2.04889 -0.696376 0
M  V30 11720 C 1133.71 0.0683174 -3.38731 0
M  V30 11721 C 1132.27 0.477363 -3.73361 0
M  V30 11722 C 1131.41 -0.334258 -2.75278 0
M  V30 11723 H 1134.36 -0.646875 -1.44918 0
M  V30 11724 H 1134.38 0.879179 -3.70204 0
M  V30 11725 H 1133.9 -0.944501 -3.76432 0
M  V30 11726 H 1132 1.49603 -3.41247 0
M  V30 11727 H 1132.11 0.206744 -4.78654 0
M  V30 11728 H 1130.47 0.206503 -2.53861 0
M  V30 11729 H 1131.26 -1.34583 -3.1582 0
M  V30 11730 N 1133.7 1.56767 -0.161869 0
M  V30 11731 C 1135.11 1.83265 0.356466 0
M  V30 11732 C 1135.46 1.08127 1.63716 0
M  V30 11733 O 1134.59 0.33127 2.13849 0
M  V30 11734 C 1135.18 3.32437 0.653521 0
M  V30 11735 C 1133.74 3.59465 1.11633 0
M  V30 11736 C 1132.89 2.76909 0.147204 0
M  V30 11737 H 1135.84 1.53926 -0.386308 0
M  V30 11738 H 1135.86 3.49401 1.50662 0
M  V30 11739 H 1135.37 3.87098 -0.278766 0
M  V30 11740 H 1133.48 3.10206 2.06404 0
M  V30 11741 H 1133.59 4.67853 1.03202 0
M  V30 11742 H 1131.95 2.46457 0.642739 0
M  V30 11743 H 1132.74 3.34346 -0.778938 0
M  V30 11744 N 1135.18 -0.111886 1.57202 0
M  V30 11745 C 1136.11 -1.16749 1.96074 0
M  V30 11746 C 1137.09 -1.39735 0.831438 0
M  V30 11747 O 1138.28 -1.53772 1.09025 0
M  V30 11748 C 1135.4 -2.51996 2.26308 0
M  V30 11749 C 1134.45 -2.45394 3.48832 0
M  V30 11750 S 1135.28 -1.8867 5.01163 0
M  V30 11751 C 1136.44 -3.25576 5.34557 0
M  V30 11752 H 1136.67 -0.836033 2.85303 0
M  V30 11753 H 1134.2 -0.318922 1.5107 0
M  V30 11754 H 1136.16 -3.29813 2.44405 0
M  V30 11755 H 1134.82 -2.82317 1.3768 0
M  V30 11756 H 1134.02 -3.45038 3.67376 0
M  V30 11757 H 1133.62 -1.75702 3.30159 0
M  V30 11758 H 1135.91 -4.21807 5.30174 0
M  V30 11759 H 1136.85 -3.11853 6.35731 0
M  V30 11760 H 1137.26 -3.24333 4.62026 0
M  V30 11761 N 1136.66 -1.52894 -0.382264 0
M  V30 11762 C 1137.91 -1.67933 -1.1244 0
M  V30 11763 C 1138.23 -0.425166 -1.90309 0
M  V30 11764 O 1137.5 0.560557 -1.87709 0
M  V30 11765 H 1136.08 -0.619047 -0.418079 0
M  V30 11766 H 1138.74 -1.90031 -0.432928 0
M  V30 11767 H 1137.84 -2.53285 -1.82355 0
M  V30 11768 N 1138.14 0.641106 -1.43971 0
M  V30 11769 C 1139.41 1.39897 -1.36704 0
M  V30 11770 C 1139.79 2.1109 -0.0208051 0
M  V30 11771 O 1139.14 2.05638 0.99625 0
M  V30 11772 C 1139.35 2.37366 -2.55849 0
M  V30 11773 C 1140.7 3.01 -2.99473 0
M  V30 11774 O 1141.72 2.47692 -2.55982 0
M  V30 11775 O 1140.58 3.9768 -3.74851 0
M  V30 11776 H 1137.68 0.625623 -0.540855 0
M  V30 11777 H 1140.22 0.666997 -1.56042 0
M  V30 11778 H 1139 1.8379 -3.45452 0
M  V30 11779 H 1138.62 3.17995 -2.38673 0
M  V30 11780 N 1139.62 1.30703 0.880598 0
M  V30 11781 C 1141.03 1.17818 1.4483 0
M  V30 11782 C 1141.38 -0.219456 1.94969 0
M  V30 11783 O 1140.5 -1.11646 1.85375 0
M  V30 11784 C 1141.1 2.13275 2.63247 0
M  V30 11785 C 1139.66 2.04356 3.16094 0
M  V30 11786 C 1138.8 2.03108 1.88792 0
M  V30 11787 H 1141.75 1.42909 0.690125 0
M  V30 11788 H 1141.78 1.71615 3.39601 0
M  V30 11789 H 1141.29 3.14988 2.26725 0
M  V30 11790 H 1139.39 1.058 3.57263 0
M  V30 11791 H 1139.5 2.92953 3.79098 0
M  V30 11792 H 1137.87 1.47971 2.07308 0
M  V30 11793 H 1138.65 3.06558 1.54521 0
M  V30 11794 N 1141.09 -1.09351 1.1349 0
M  V30 11795 C 1142 -2.19564 0.826366 0
M  V30 11796 C 1143.02 -1.72967 -0.189339 0
M  V30 11797 O 1144.2 -2.0139 -0.0202033 0
M  V30 11798 C 1141.26 -3.4542 0.297685 0
M  V30 11799 C 1140.32 -4.06694 1.37473 0
M  V30 11800 C 1139.55 -5.26542 0.871183 0
M  V30 11801 O 1139.78 -5.69657 -0.290958 0
M  V30 11802 O 1138.71 -5.78961 1.64584 0
M  V30 11803 H 1142.54 -2.4841 1.74718 0
M  V30 11804 H 1140.12 -1.18302 0.912414 0
M  V30 11805 H 1142 -4.21399 0.00829479 0
M  V30 11806 H 1140.68 -3.18175 -0.595536 0
M  V30 11807 H 1139.59 -3.32347 1.71745 0
M  V30 11808 H 1140.92 -4.38166 2.24212 0
M  V30 11809 N 1142.57 -0.928524 -1.27343 0
M  V30 11810 C 1143.8 -0.584884 -1.98148 0
M  V30 11811 C 1144.21 0.841603 -1.69451 0
M  V30 11812 O 1143.55 1.57104 -0.952053 0
M  V30 11813 C 1143.61 -0.731911 -3.51971 0
M  V30 11814 C 1143.28 -2.13067 -4.04291 0
M  V30 11815 C 1144.28 -3.10492 -4.17002 0
M  V30 11816 C 1141.96 -2.44784 -4.38619 0
M  V30 11817 C 1143.95 -4.37742 -4.63315 0
M  V30 11818 C 1141.64 -3.72269 -4.84622 0
M  V30 11819 C 1142.64 -4.68562 -4.9693 0
M  V30 11820 O 1142.33 -5.93779 -5.41924 0
M  V30 11821 H 1142.06 -0.220347 -0.63908 0
M  V30 11822 H 1144.61 -1.24799 -1.63139 0
M  V30 11823 H 1142.84 -0.0116966 -3.86698 0
M  V30 11824 H 1144.53 -0.393206 -4.03991 0
M  V30 11825 H 1145.3 -2.8731 -3.9074 0
M  V30 11826 H 1141.18 -1.70577 -4.28281 0
M  V30 11827 H 1144.72 -5.12905 -4.72836 0
M  V30 11828 H 1140.62 -3.95269 -5.10326 0
M  V30 11829 H 1141.39 -5.96779 -5.60176 0
M  V30 11830 N 1144.05 1.41491 -0.694123 0
M  V30 11831 C 1144.98 2.33462 -0.0422169 0
M  V30 11832 C 1145.96 1.51739 0.76872 0
M  V30 11833 O 1147.15 1.8028 0.721985 0
M  V30 11834 C 1144.28 3.35545 0.895925 0
M  V30 11835 C 1143.23 4.27568 0.192188 0
M  V30 11836 C 1142.56 5.20014 1.24459 0
M  V30 11837 C 1143.86 5.1376 -0.940626 0
M  V30 11838 H 1145.55 2.88225 -0.810363 0
M  V30 11839 H 1143.1 1.38586 -0.39114 0
M  V30 11840 H 1145.05 3.9881 1.36121 0
M  V30 11841 H 1143.77 2.79129 1.69572 0
M  V30 11842 H 1142.43 3.65726 -0.25305 0
M  V30 11843 H 1142.08 4.59913 2.03687 0
M  V30 11844 H 1141.78 5.82417 0.778734 0
M  V30 11845 H 1143.3 5.86155 1.71041 0
M  V30 11846 H 1144.72 5.70601 -0.555692 0
M  V30 11847 H 1143.11 5.85097 -1.33349 0
M  V30 11848 H 1144.18 4.51011 -1.78093 0
M  V30 11849 N 1145.53 0.438773 1.51369 0
M  V30 11850 C 1146.49 -0.36032 2.2635 0
M  V30 11851 C 1147.49 -0.948465 1.29849 0
M  V30 11852 O 1148.68 -0.822692 1.53549 0
M  V30 11853 C 1145.81 -1.50994 3.05636 0
M  V30 11854 H 1147.01 0.296826 2.98427 0
M  V30 11855 H 1144.56 0.191978 1.55117 0
M  V30 11856 H 1145.29 -2.2031 2.37979 0
M  V30 11857 H 1145.08 -1.09437 3.76518 0
M  V30 11858 H 1146.57 -2.07447 3.6243 0
M  V30 11859 N 1147.01 -1.56678 0.170181 0
M  V30 11860 C 1147.97 -2.16698 -0.746622 0
M  V30 11861 C 1148.97 -1.11475 -1.15888 0
M  V30 11862 O 1150.16 -1.36994 -1.07602 0
M  V30 11863 C 1147.29 -2.74892 -2.01612 0
M  V30 11864 H 1148.48 -2.99061 -0.224135 0
M  V30 11865 H 1146.04 -1.56098 -0.0793761 0
M  V30 11866 H 1146.77 -1.96259 -2.58172 0
M  V30 11867 H 1146.56 -3.51896 -1.72949 0
M  V30 11868 H 1148.05 -3.21058 -2.67042 0
M  V30 11869 N 1148.48 0.103547 -1.57259 0
M  V30 11870 C 1149.73 0.808576 -1.85656 0
M  V30 11871 C 1150.06 1.79143 -0.757502 0
M  V30 11872 O 1149.31 1.941 0.249723 0
M  V30 11873 C 1149.61 1.57946 -3.20605 0
M  V30 11874 C 1149.28 0.739502 -4.44795 0
M  V30 11875 C 1147.94 0.507921 -4.78512 0
M  V30 11876 C 1150.29 0.155034 -5.20969 0
M  V30 11877 C 1147.62 -0.318129 -5.85837 0
M  V30 11878 C 1149.97 -0.658292 -6.29166 0
M  V30 11879 C 1148.64 -0.900044 -6.61404 0
M  V30 11880 H 1147.91 0.295879 -0.679365 0
M  V30 11881 H 1150.55 0.0703604 -1.91371 0
M  V30 11882 H 1148.86 2.38902 -3.10537 0
M  V30 11883 H 1150.56 2.12921 -3.39803 0
M  V30 11884 H 1147.15 0.930103 -4.18386 0
M  V30 11885 H 1151.33 0.32113 -4.9526 0
M  V30 11886 H 1146.59 -0.514495 -6.09231 0
M  V30 11887 H 1150.76 -1.11809 -6.87366 0
M  V30 11888 H 1148.39 -1.54194 -7.44398 0
M  V30 11889 N 1149.96 1.53094 0.37415 0
M  V30 11890 C 1151.38 1.42676 0.715246 0
M  V30 11891 C 1151.58 0.558992 1.93591 0
M  V30 11892 O 1150.63 0.0381328 2.52471 0
M  V30 11893 C 1151.95 2.85746 0.936459 0
M  V30 11894 C 1153.49 2.95322 1.03701 0
M  V30 11895 C 1153.97 4.39436 1.29075 0
M  V30 11896 N 1155.46 4.42826 1.35864 0
M  V30 11897 C 1156.2 5.51433 1.57191 0
M  V30 11898 N 1155.69 6.701 1.75891 0
M  V30 11899 N 1157.48 5.38998 1.59491 0
M  V30 11900 H 1149.64 2.08025 -0.428854 0
M  V30 11901 H 1151.9 0.939078 -0.129758 0
M  V30 11902 H 1151.6 3.51523 0.111448 0
M  V30 11903 H 1151.48 3.28887 1.84698 0
M  V30 11904 H 1153.87 2.29704 1.85257 0
M  V30 11905 H 1153.95 2.55588 0.104066 0
M  V30 11906 H 1153.59 5.05625 0.480231 0
M  V30 11907 H 1153.52 4.76735 2.23677 0
M  V30 11908 H 1156.01 3.57301 1.23061 0
M  V30 11909 H 1156.32 7.48643 1.91713 0
M  V30 11910 H 1154.67 6.73102 1.73086 0
M  V30 11911 H 1157.86 4.45257 1.44444 0
M  V30 11912 H 1158.03 6.23705 1.75771 0
M  V30 11913 N 1151.44 -0.633461 1.44309 0
M  V30 11914 C 1152.69 -1.38902 1.4625 0
M  V30 11915 C 1153 -1.95354 0.0980699 0
M  V30 11916 O 1154.21 -2.715 -0.0049983 0
M  V30 11917 C 1152.66 -2.51477 2.57463 0
M  V30 11918 C 1152.27 -2.01549 4.00103 0
M  V30 11919 C 1154.02 -3.28698 2.68622 0
M  V30 11920 C 1151.92 -3.11452 5.02744 0
M  V30 11921 H 1150.85 -0.521976 0.544112 0
M  V30 11922 H 1153.5 -0.681725 1.70367 0
M  V30 11923 H 1151.89 -3.24771 2.26582 0
M  V30 11924 H 1153.06 -1.35135 4.4054 0
M  V30 11925 H 1151.37 -1.3715 3.93165 0
M  V30 11926 H 1153.97 -4.10624 3.42479 0
M  V30 11927 H 1154.31 -3.78027 1.7436 0
M  V30 11928 H 1154.85 -2.62494 2.98901 0
M  V30 11929 H 1151.59 -2.6707 5.98627 0
M  V30 11930 H 1151.11 -3.76514 4.66902 0
M  V30 11931 H 1152.79 -3.76265 5.2634 0
M  V30 11932 N 1152.92 -1.31168 -0.873655 0
M  V30 11933 C 1154.16 -1.20821 -1.62881 0
M  V30 11934 C 1154.5 0.233994 -1.92785 0
M  V30 11935 O 1153.77 1.16588 -1.55684 0
M  V30 11936 C 1154.06 -2.04875 -2.96139 0
M  V30 11937 C 1153.91 -3.57375 -2.73136 0
M  V30 11938 C 1155.23 -1.8953 -3.97198 0
M  V30 11939 H 1152.35 -0.44026 -0.59105 0
M  V30 11940 H 1154.99 -1.6092 -1.01019 0
M  V30 11941 H 1153.14 -1.70806 -3.48938 0
M  V30 11942 H 1154.81 -4.01561 -2.27038 0
M  V30 11943 H 1153.05 -3.8099 -2.07434 0
M  V30 11944 H 1153.72 -4.1149 -3.6794 0
M  V30 11945 H 1156.2 -2.19337 -3.53596 0
M  V30 11946 H 1155.08 -2.5065 -4.8833 0
M  V30 11947 H 1155.34 -0.857576 -4.33703 0
M  V30 11948 N 1154.4 1.08748 -1.14068 0
M  V30 11949 C 1155.64 1.81333 -0.908081 0
M  V30 11950 C 1155.98 1.85826 0.564112 0
M  V30 11951 O 1155.25 1.33157 1.41773 0
M  V30 11952 C 1155.53 3.27127 -1.50531 0
M  V30 11953 C 1155.39 3.30865 -3.04711 0
M  V30 11954 C 1156.71 4.24006 -1.17928 0
M  V30 11955 H 1153.82 0.658326 -0.331325 0
M  V30 11956 H 1156.47 1.27345 -1.41008 0
M  V30 11957 H 1154.62 3.73233 -1.07839 0
M  V30 11958 H 1156.29 2.93109 -3.56209 0
M  V30 11959 H 1154.53 2.70241 -3.39341 0
M  V30 11960 H 1155.2 4.33603 -3.41603 0
M  V30 11961 H 1157.68 3.86221 -1.54831 0
M  V30 11962 H 1156.55 5.2434 -1.62353 0
M  V30 11963 H 1156.82 4.42 -0.0940349 0
M  V30 11964 N 1155.87 0.935264 1.26849 0
M  V30 11965 C 1156.81 0.384563 2.24936 0
M  V30 11966 C 1157.79 -0.523311 1.53949 0
M  V30 11967 O 1158.97 -0.462103 1.82748 0
M  V30 11968 C 1156.1 -0.448043 3.35723 0
M  V30 11969 C 1155.14 0.397466 4.24644 0
M  V30 11970 S 1155.98 1.81773 5.03705 0
M  V30 11971 C 1157.13 0.99302 6.17972 0
M  V30 11972 H 1157.36 1.21588 2.713 0
M  V30 11973 H 1154.9 0.737966 1.35622 0
M  V30 11974 H 1156.86 -0.922541 3.99999 0
M  V30 11975 H 1155.52 -1.25397 2.87983 0
M  V30 11976 H 1154.71 -0.240176 5.03427 0
M  V30 11977 H 1154.31 0.806423 3.65202 0
M  V30 11978 H 1156.6 0.232526 6.77101 0
M  V30 11979 H 1157.55 1.75412 6.86029 0
M  V30 11980 H 1157.95 0.531692 5.6199 0
M  V30 11981 N 1157.35 -1.41121 0.701616 0
M  V30 11982 C 1158.76 -1.84122 0.309208 0
M  V30 11983 C 1159.11 -1.58695 -1.15371 0
M  V30 11984 O 1158.24 -1.06053 -1.88631 0
M  V30 11985 C 1158.83 -3.34233 0.554429 0
M  V30 11986 C 1157.39 -3.7578 0.215876 0
M  V30 11987 C 1156.54 -2.6447 0.833729 0
M  V30 11988 H 1159.49 -1.30587 0.901822 0
M  V30 11989 H 1159.51 -3.8005 -0.18491 0
M  V30 11990 H 1159.02 -3.52707 1.61923 0
M  V30 11991 H 1157.13 -3.62905 -0.844421 0
M  V30 11992 H 1157.24 -4.74319 0.675118 0
M  V30 11993 H 1155.6 -2.5334 0.262851 0
M  V30 11994 H 1156.39 -2.85761 1.90252 0
M  V30 11995 N 1158.83 -0.446794 -1.51134 0
M  V30 11996 C 1160.08 0.118047 -2.01354 0
M  V30 11997 C 1160.39 1.42953 -1.33505 0
M  V30 11998 O 1161.6 2.07788 -1.74747 0
M  V30 11999 C 1160.05 0.260912 -3.58953 0
M  V30 12000 C 1159.66 -1.0407 -4.35745 0
M  V30 12001 C 1161.41 0.779014 -4.17291 0
M  V30 12002 C 1159.31 -0.862958 -5.8507 0
M  V30 12003 H 1158.24 0.0478915 -0.752478 0
M  V30 12004 H 1160.89 -0.577997 -1.74159 0
M  V30 12005 H 1159.28 1.02018 -3.82633 0
M  V30 12006 H 1160.45 -1.80903 -4.23805 0
M  V30 12007 H 1158.77 -1.48805 -3.88904 0
M  V30 12008 H 1161.36 0.928636 -5.26574 0
M  V30 12009 H 1161.71 1.76399 -3.7708 0
M  V30 12010 H 1162.24 0.0778022 -3.97724 0
M  V30 12011 H 1158.98 -1.82059 -6.2971 0
M  V30 12012 H 1158.5 -0.134588 -5.99649 0
M  V30 12013 H 1160.18 -0.51989 -6.44908 0
M  V30 12014 N 1160.31 1.56586 -0.178487 0
M  V30 12015 C 1161.27 2.17091 0.73512 0
M  V30 12016 C 1162.27 1.12088 1.15295 0
M  V30 12017 O 1163.46 1.37563 1.06874 0
M  V30 12018 C 1160.59 2.75957 2.00151 0
M  V30 12019 H 1161.79 2.99176 0.208272 0
M  V30 12020 H 1159.34 1.56138 0.0710967 0
M  V30 12021 H 1160.07 1.97626 2.57127 0
M  V30 12022 H 1159.86 3.52809 1.7108 0
M  V30 12023 H 1161.35 3.2247 2.65335 0
M  V30 12024 N 1161.79 -0.095206 1.57312 0
M  V30 12025 C 1163.2 -0.449411 1.53142 0
M  V30 12026 C 1163.4 -1.80523 0.895187 0
M  V30 12027 O 1162.46 -2.47746 0.487649 0
M  V30 12028 C 1163.77 -0.412002 2.97864 0
M  V30 12029 C 1165.32 -0.493866 3.09079 0
M  V30 12030 C 1165.79 -0.486606 4.55408 0
M  V30 12031 N 1167.29 -0.547363 4.59955 0
M  V30 12032 C 1168.02 -0.563582 5.70624 0
M  V30 12033 N 1167.52 -0.536015 6.90723 0
M  V30 12034 N 1169.31 -0.608385 5.58798 0
M  V30 12035 H 1161.46 0.792869 1.97047 0
M  V30 12036 H 1163.72 0.295106 0.900898 0
M  V30 12037 H 1163.43 0.517064 3.47878 0
M  V30 12038 H 1163.3 -1.23102 3.56547 0
M  V30 12039 H 1165.69 -1.41335 2.59053 0
M  V30 12040 H 1165.77 0.353286 2.53349 0
M  V30 12041 H 1165.42 0.428935 5.06086 0
M  V30 12042 H 1165.35 -1.35097 5.08976 0
M  V30 12043 H 1167.84 -0.573867 3.73517 0
M  V30 12044 H 1168.15 -0.551671 7.70828 0
M  V30 12045 H 1166.49 -0.503064 6.93177 0
M  V30 12046 H 1169.69 -0.627451 4.63876 0
M  V30 12047 H 1169.86 -0.617556 6.45051 0
M  V30 12048 N 1163.26 -1.53291 -0.366026 0
M  V30 12049 C 1164.17 -1.82656 -1.47221 0
M  V30 12050 C 1165.19 -0.71491 -1.58635 0
M  V30 12051 O 1166.37 -1.00492 -1.74538 0
M  V30 12052 C 1163.43 -2.00995 -2.82492 0
M  V30 12053 C 1162.49 -3.24895 -2.8061 0
M  V30 12054 C 1161.73 -3.4235 -4.09429 0
M  V30 12055 O 1161.95 -2.6411 -5.05571 0
M  V30 12056 O 1160.88 -4.35702 -4.15268 0
M  V30 12057 H 1164.71 -2.76634 -1.2533 0
M  V30 12058 H 1162.29 -1.38665 -0.556084 0
M  V30 12059 H 1164.18 -2.14632 -3.62645 0
M  V30 12060 H 1162.85 -1.10207 -3.04362 0
M  V30 12061 H 1161.76 -3.16682 -1.99157 0
M  V30 12062 H 1163.09 -4.15604 -2.63694 0
M  V30 12063 N 1164.74 0.6258 -1.44643 0
M  V30 12064 C 1165.99 1.38525 -1.47706 0
M  V30 12065 C 1166.32 1.94179 -0.111703 0
M  V30 12066 O 1165.57 1.74432 0.887237 0
M  V30 12067 C 1165.87 2.56466 -2.48917 0
M  V30 12068 C 1165.54 2.19069 -3.94106 0
M  V30 12069 C 1164.2 2.08583 -4.33643 0
M  V30 12070 C 1166.55 1.89608 -4.85488 0
M  V30 12071 C 1163.88 1.66831 -5.6248 0
M  V30 12072 C 1166.23 1.49347 -6.14718 0
M  V30 12073 C 1164.9 1.37406 -6.53204 0
M  V30 12074 H 1164.17 0.506899 -0.540494 0
M  V30 12075 H 1166.81 0.709128 -1.77887 0
M  V30 12076 H 1165.12 3.29335 -2.12239 0
M  V30 12077 H 1166.81 3.14695 -2.48532 0
M  V30 12078 H 1163.4 2.28151 -3.62829 0
M  V30 12079 H 1167.59 1.96616 -4.55693 0
M  V30 12080 H 1162.84 1.56195 -5.91112 0
M  V30 12081 H 1167.02 1.2559 -6.84982 0
M  V30 12082 H 1164.65 1.04826 -7.52938 0
M  V30 12083 N 1166.22 1.31629 0.866686 0
M  V30 12084 C 1167.45 1.24609 1.65793 0
M  V30 12085 C 1167.87 -0.184944 1.87189 0
M  V30 12086 O 1167.23 -1.1322 1.41601 0
M  V30 12087 C 1167.28 1.9988 3.00134 0
M  V30 12088 O 1166.38 1.33838 3.90079 0
M  V30 12089 H 1165.72 0.430051 0.505917 0
M  V30 12090 H 1168.25 1.73752 1.08035 0
M  V30 12091 H 1168.26 2.09599 3.50046 0
M  V30 12092 H 1166.94 3.03947 2.83882 0
M  V30 12093 H 1165.51 1.3259 3.48532 0
M  V30 12094 N 1167.7 -1.08142 1.14644 0
M  V30 12095 C 1169.11 -1.62061 0.926986 0
M  V30 12096 C 1169.46 -1.88805 -0.533578 0
M  V30 12097 O 1168.59 -1.64753 -1.40305 0
M  V30 12098 C 1169.18 -2.94425 1.67629 0
M  V30 12099 C 1167.74 -3.45118 1.50235 0
M  V30 12100 C 1166.89 -2.19307 1.69705 0
M  V30 12101 H 1169.84 -0.913326 1.29785 0
M  V30 12102 H 1169.86 -3.62987 1.14107 0
M  V30 12103 H 1169.37 -2.74928 2.73927 0
M  V30 12104 H 1167.47 -3.69713 0.462967 0
M  V30 12105 H 1167.59 -4.2169 2.27408 0
M  V30 12106 H 1165.95 -2.28611 1.12291 0
M  V30 12107 H 1166.73 -2.02315 2.77351 0
M  V30 12108 N 1169.18 -0.941978 -1.26351 0
M  V30 12109 C 1170.45 -0.507822 -1.88893 0
M  V30 12110 C 1170.83 1.0146 -1.85119 0
M  V30 12111 O 1170.18 1.87495 -1.30606 0
M  V30 12112 C 1170.39 -1.07007 -3.3219 0
M  V30 12113 C 1171.74 -1.13922 -4.09032 0
M  V30 12114 O 1172.76 -1.02072 -3.41262 0
M  V30 12115 O 1171.62 -1.32362 -5.30229 0
M  V30 12116 H 1168.72 -0.165621 -0.810246 0
M  V30 12117 H 1171.26 -1.03459 -1.34515 0
M  V30 12118 H 1170.04 -2.11366 -3.29302 0
M  V30 12119 H 1169.66 -0.525797 -3.94108 0
M  V30 12120 N 1170.66 1.40747 -0.709091 0
M  V30 12121 C 1171.59 2.33404 -0.0669763 0
M  V30 12122 C 1172.57 1.52546 0.752582 0
M  V30 12123 O 1173.75 1.81036 0.702823 0
M  V30 12124 C 1170.88 3.36476 0.860285 0
M  V30 12125 C 1169.84 4.27748 0.146828 0
M  V30 12126 C 1169.16 5.21304 1.18937 0
M  V30 12127 C 1170.46 5.12734 -0.995064 0
M  V30 12128 H 1172.16 2.87349 -0.840888 0
M  V30 12129 H 1169.7 1.38163 -0.405817 0
M  V30 12130 H 1171.65 4.00231 1.31883 0
M  V30 12131 H 1170.38 2.80912 1.66602 0
M  V30 12132 H 1169.04 3.65437 -0.291826 0
M  V30 12133 H 1168.69 4.62048 1.98798 0
M  V30 12134 H 1168.39 5.8321 0.716917 0
M  V30 12135 H 1169.91 5.87936 1.64815 0
M  V30 12136 H 1171.32 5.69979 -0.61618 0
M  V30 12137 H 1169.72 5.83649 -1.39547 0
M  V30 12138 H 1170.79 4.49097 -1.82867 0
M  V30 12139 N 1172.13 0.454803 1.50895 0
M  V30 12140 C 1173.38 -0.105927 2.02523 0
M  V30 12141 C 1173.71 -1.40825 1.33724 0
M  V30 12142 O 1172.99 -1.89038 0.457683 0
M  V30 12143 C 1173.27 -0.306635 3.58792 0
M  V30 12144 C 1173.12 1.01556 4.38185 0
M  V30 12145 C 1174.44 -1.06858 4.2693 0
M  V30 12146 H 1171.56 -0.0370232 0.736069 0
M  V30 12147 H 1174.2 0.597215 1.8037 0
M  V30 12148 H 1172.35 -0.905563 3.77799 0
M  V30 12149 H 1174.03 1.64981 4.30789 0
M  V30 12150 H 1172.27 1.61608 4.02574 0
M  V30 12151 H 1172.94 0.828959 5.4574 0
M  V30 12152 H 1175.42 -0.561086 4.123 0
M  V30 12153 H 1174.29 -1.1778 5.36115 0
M  V30 12154 H 1174.55 -2.10111 3.8898 0
M  V30 12155 N 1173.61 -1.56489 0.186789 0
M  V30 12156 C 1174.54 -2.21705 -0.732739 0
M  V30 12157 C 1175.52 -1.17751 -1.22755 0
M  V30 12158 O 1176.71 -1.46231 -1.27789 0
M  V30 12159 C 1173.84 -2.86992 -1.95584 0
M  V30 12160 C 1172.79 -3.97118 -1.59628 0
M  V30 12161 C 1172.12 -4.49529 -2.89531 0
M  V30 12162 C 1173.42 -5.15941 -0.812518 0
M  V30 12163 H 1175.11 -2.98802 -0.189094 0
M  V30 12164 H 1172.66 -1.43722 -0.0895099 0
M  V30 12165 H 1174.61 -3.31295 -2.60426 0
M  V30 12166 H 1173.33 -2.07287 -2.52388 0
M  V30 12167 H 1171.99 -3.53494 -0.971475 0
M  V30 12168 H 1171.64 -3.66596 -3.44407 0
M  V30 12169 H 1171.34 -5.23832 -2.66221 0
M  V30 12170 H 1172.87 -4.96528 -3.55376 0
M  V30 12171 H 1174.28 -5.56841 -1.36386 0
M  V30 12172 H 1172.68 -5.96259 -0.677862 0
M  V30 12173 H 1173.75 -4.84535 0.188095 0
M  V30 12174 N 1175.09 0.086862 -1.5736 0
M  V30 12175 C 1176.34 0.790008 -1.8678 0
M  V30 12176 C 1176.67 1.77977 -0.777042 0
M  V30 12177 O 1175.94 1.93317 0.21419 0
M  V30 12178 C 1176.23 1.51143 -3.26845 0
M  V30 12179 C 1176.08 0.539106 -4.46558 0
M  V30 12180 C 1177.4 2.46003 -3.64926 0
M  V30 12181 H 1174.52 0.285741 -0.679354 0
M  V30 12182 H 1177.16 0.0534655 -1.89925 0
M  V30 12183 H 1175.31 2.13928 -3.24295 0
M  V30 12184 H 1176.98 -0.0823679 -4.61226 0
M  V30 12185 H 1175.22 -0.146842 -4.33551 0
M  V30 12186 H 1175.9 1.0812 -5.41308 0
M  V30 12187 H 1178.37 1.93306 -3.68473 0
M  V30 12188 H 1177.25 2.93493 -4.63846 0
M  V30 12189 H 1177.51 3.30133 -2.94049 0
M  V30 12190 N 1176.57 1.53483 0.357892 0
M  V30 12191 C 1177.79 1.74264 1.12458 0
M  V30 12192 C 1178.22 0.473944 1.82031 0
M  V30 12193 O 1177.58 -0.57253 1.72023 0
M  V30 12194 C 1177.62 2.91356 2.12471 0
M  V30 12195 O 1176.73 2.60502 3.19707 0
M  V30 12196 H 1176.07 0.578499 0.325937 0
M  V30 12197 H 1178.6 2.00395 0.412666 0
M  V30 12198 H 1178.61 3.1774 2.5594 0
M  V30 12199 H 1177.28 3.83378 1.61226 0
M  V30 12200 H 1175.86 2.44961 2.81156 0
M  V30 12201 N 1178.05 -0.61812 1.44973 0
M  V30 12202 C 1179.01 -1.71135 1.52465 0
M  V30 12203 C 1180.01 -1.5561 0.405246 0
M  V30 12204 O 1181.2 -1.60869 0.668351 0
M  V30 12205 C 1178.33 -3.10324 1.41108 0
M  V30 12206 H 1179.52 -1.65862 2.49859 0
M  V30 12207 H 1177.08 -0.832932 1.32257 0
M  V30 12208 H 1177.81 -3.21183 0.448574 0
M  V30 12209 H 1177.6 -3.23001 2.2229 0
M  V30 12210 H 1179.09 -3.89976 1.49361 0
M  V30 12211 N 1179.52 -1.32087 -0.859693 0
M  V30 12212 C 1180.77 -1.22119 -1.61033 0
M  V30 12213 C 1181.09 0.218289 -1.93774 0
M  V30 12214 O 1180.36 1.14172 -1.5919 0
M  V30 12215 H 1178.94 -0.448989 -0.597008 0
M  V30 12216 H 1181.6 -1.65545 -1.02863 0
M  V30 12217 H 1180.7 -1.80023 -2.54947 0
M  V30 12218 N 1181 1.07532 -1.15215 0
M  V30 12219 C 1182.25 1.80093 -0.925891 0
M  V30 12220 C 1182.58 1.86648 0.547079 0
M  V30 12221 O 1181.83 1.34492 1.42164 0
M  V30 12222 C 1182.13 3.2518 -1.483 0
M  V30 12223 C 1181.8 3.38728 -2.97614 0
M  V30 12224 C 1180.46 3.42133 -3.38376 0
M  V30 12225 C 1182.81 3.41676 -3.93583 0
M  V30 12226 C 1180.14 3.46086 -4.73752 0
M  V30 12227 C 1182.49 3.47166 -5.28828 0
M  V30 12228 C 1181.15 3.48847 -5.69089 0
M  V30 12229 H 1180.42 0.659007 -0.338808 0
M  V30 12230 H 1183.07 1.26548 -1.43728 0
M  V30 12231 H 1181.38 3.81493 -0.892751 0
M  V30 12232 H 1183.07 3.79895 -1.28376 0
M  V30 12233 H 1179.66 3.36775 -2.65105 0
M  V30 12234 H 1183.85 3.38268 -3.63165 0
M  V30 12235 H 1179.1 3.45686 -5.04293 0
M  V30 12236 H 1183.28 3.48393 -6.02989 0
M  V30 12237 H 1180.9 3.51663 -6.73971 0
M  V30 12238 N 1182.48 0.948665 1.2585 0
M  V30 12239 C 1183.76 0.517832 1.88621 0
M  V30 12240 C 1184.14 -1.00477 1.85654 0
M  V30 12241 O 1183.49 -1.868 1.31598 0
M  V30 12242 C 1183.7 1.08768 3.31618 0
M  V30 12243 C 1185.04 1.16089 4.08422 0
M  V30 12244 O 1186.07 1.0388 3.40716 0
M  V30 12245 O 1184.93 1.35172 5.29519 0
M  V30 12246 H 1182.02 0.169916 0.809356 0
M  V30 12247 H 1184.57 1.04171 1.33964 0
M  V30 12248 H 1183.34 2.13109 3.28177 0
M  V30 12249 H 1182.96 0.54669 3.93824 0
M  V30 12250 N 1183.96 -1.40369 0.716545 0
M  V30 12251 C 1184.92 -2.29083 0.0733105 0
M  V30 12252 C 1185.92 -1.45415 -0.686378 0
M  V30 12253 O 1187.11 -1.66316 -0.518139 0
M  V30 12254 C 1184.24 -3.28639 -0.906032 0
M  V30 12255 H 1185.44 -2.87464 0.85467 0
M  V30 12256 H 1182.99 -1.48706 0.481256 0
M  V30 12257 H 1183.72 -2.75279 -1.71441 0
M  V30 12258 H 1183.51 -3.90405 -0.364163 0
M  V30 12259 H 1185 -3.95066 -1.35324 0
M  V30 12260 N 1185.44 -0.462799 -1.50652 0
M  V30 12261 C 1186.4 0.324264 -2.26895 0
M  V30 12262 C 1187.4 0.927687 -1.31342 0
M  V30 12263 O 1188.59 0.798159 -1.54839 0
M  V30 12264 C 1185.72 1.46113 -3.08 0
M  V30 12265 H 1186.91 -0.344266 -2.97917 0
M  V30 12266 H 1184.47 -0.216631 -1.54791 0
M  V30 12267 H 1185.2 2.16496 -2.41454 0
M  V30 12268 H 1184.99 1.03433 -3.78212 0
M  V30 12269 H 1186.48 2.01655 -3.65684 0
M  V30 12270 N 1186.91 1.56388 -0.195085 0
M  V30 12271 C 1187.82 2.22698 0.737743 0
M  V30 12272 C 1188.84 1.22605 1.23466 0
M  V30 12273 O 1190.02 1.55342 1.28183 0
M  V30 12274 C 1187.08 2.87333 1.94011 0
M  V30 12275 C 1186.14 4.02696 1.48776 0
M  V30 12276 C 1185.38 4.64239 2.63282 0
M  V30 12277 O 1185.6 4.24706 3.80763 0
M  V30 12278 O 1184.53 5.53705 2.35996 0
M  V30 12279 H 1188.36 3.03021 0.203013 0
M  V30 12280 H 1185.94 1.49361 0.0342044 0
M  V30 12281 H 1187.83 3.28226 2.64284 0
M  V30 12282 H 1186.5 2.0999 2.46345 0
M  V30 12283 H 1185.41 3.66426 0.753839 0
M  V30 12284 H 1186.74 4.81703 1.01109 0
M  V30 12285 N 1188.39 -0.0785156 1.57404 0
M  V30 12286 C 1189.64 -0.777399 1.8655 0
M  V30 12287 C 1189.96 -1.78451 0.786142 0
M  V30 12288 O 1189.23 -1.95016 -0.185911 0
M  V30 12289 H 1187.81 -0.290097 0.688369 0
M  V30 12290 H 1190.47 -0.0562017 1.94819 0
M  V30 12291 H 1189.57 -1.29776 2.83839 0
M  V30 12292 N 1189.87 -1.5367 -0.349747 0
M  V30 12293 C 1190.82 -1.77604 -1.42972 0
M  V30 12294 C 1191.8 -0.631036 -1.48009 0
M  V30 12295 O 1193 -0.890228 -1.52983 0
M  V30 12296 C 1190.13 -1.98354 -2.80198 0
M  V30 12297 C 1189.21 -3.18901 -2.79576 0
M  V30 12298 N 1189.6 -4.40497 -2.48589 0
M  V30 12299 C 1187.9 -3.19945 -3.10727 0
M  V30 12300 C 1188.6 -5.22318 -2.56045 0
M  V30 12301 N 1187.58 -4.5889 -2.91412 0
M  V30 12302 H 1191.38 -2.69215 -1.17901 0
M  V30 12303 H 1188.89 -1.5251 -0.558062 0
M  V30 12304 H 1190.89 -2.13632 -3.58004 0
M  V30 12305 H 1189.55 -1.07981 -3.06219 0
M  V30 12306 H 1190.56 -4.67955 -2.21898 0
M  V30 12307 H 1187.24 -2.39519 -3.41961 0
M  V30 12308 H 1188.63 -6.29352 -2.35299 0
M  V30 12309 N 1191.35 0.610423 -1.45298 0
M  V30 12310 C 1192.76 1.19234 -1.43667 0
M  V30 12311 C 1193.11 1.95523 -0.162794 0
M  V30 12312 O 1192.24 2.03507 0.735789 0
M  V30 12313 C 1192.83 2.16892 -2.60276 0
M  V30 12314 C 1191.39 2.70465 -2.61774 0
M  V30 12315 C 1190.54 1.45821 -2.35863 0
M  V30 12316 H 1193.49 0.399895 -1.53579 0
M  V30 12317 H 1193.51 2.99875 -2.34212 0
M  V30 12318 H 1193.02 1.61339 -3.52975 0
M  V30 12319 H 1191.12 3.29965 -1.73072 0
M  V30 12320 H 1191.23 3.15092 -3.60907 0
M  V30 12321 H 1189.6 1.74678 -1.85364 0
M  V30 12322 H 1190.38 0.921403 -3.30704 0
M  V30 12323 N 1192.83 1.32541 0.852676 0
M  V30 12324 C 1193.79 1.21578 1.94297 0
M  V30 12325 C 1194.79 0.138318 1.60204 0
M  V30 12326 O 1195.98 0.388864 1.69804 0
M  V30 12327 C 1193.11 0.870209 3.29606 0
M  V30 12328 H 1194.3 2.18476 2.05446 0
M  V30 12329 H 1191.86 1.16401 1.0431 0
M  V30 12330 H 1192.59 -0.0968698 3.24155 0
M  V30 12331 H 1192.38 1.64924 3.55728 0
M  V30 12332 H 1193.87 0.817874 4.09513 0
M  V30 12333 N 1194.3 -1.0692 1.15784 0
M  V30 12334 C 1195.72 -1.61069 0.944123 0
M  V30 12335 C 1196.07 -1.8936 -0.513522 0
M  V30 12336 O 1195.19 -1.66232 -1.38549 0
M  V30 12337 C 1195.79 -2.9263 1.70743 0
M  V30 12338 C 1194.35 -3.43505 1.53887 0
M  V30 12339 C 1193.49 -2.17495 1.72021 0
M  V30 12340 H 1196.44 -0.89951 1.30746 0
M  V30 12341 H 1196.46 -3.61757 1.17951 0
M  V30 12342 H 1195.98 -2.72007 2.76828 0
M  V30 12343 H 1194.08 -3.69201 0.502153 0
M  V30 12344 H 1194.19 -4.19254 2.31868 0
M  V30 12345 H 1192.55 -2.27407 1.1471 0
M  V30 12346 H 1193.34 -1.99362 2.79481 0
M  V30 12347 N 1195.78 -0.955326 -1.25345 0
M  V30 12348 C 1196.71 -0.494145 -2.28211 0
M  V30 12349 C 1197.69 0.459875 -1.63766 0
M  V30 12350 O 1198.88 0.358679 -1.90859 0
M  V30 12351 C 1196.01 0.228228 -3.46549 0
M  V30 12352 C 1194.96 -0.640601 -4.23179 0
M  V30 12353 C 1194.29 0.212553 -5.34277 0
M  V30 12354 C 1195.59 -1.91906 -4.85767 0
M  V30 12355 H 1197.28 -1.35391 -2.67039 0
M  V30 12356 H 1194.83 -0.652462 -1.2837 0
M  V30 12357 H 1196.78 0.561995 -4.17636 0
M  V30 12358 H 1195.51 1.12224 -3.06714 0
M  V30 12359 H 1194.16 -0.957462 -3.53876 0
M  V30 12360 H 1193.81 1.10634 -4.90682 0
M  V30 12361 H 1193.51 -0.365473 -5.86462 0
M  V30 12362 H 1195.04 0.541271 -6.08196 0
M  V30 12363 H 1196.45 -1.65165 -5.48993 0
M  V30 12364 H 1194.85 -2.44279 -5.48131 0
M  V30 12365 H 1195.92 -2.62173 -4.07914 0
M  V30 12366 N 1197.26 1.39987 -0.723979 0
M  V30 12367 C 1198.51 2.00334 -0.266587 0
M  V30 12368 C 1198.83 1.57714 1.14679 0
M  V30 12369 O 1198.1 0.82037 1.77895 0
M  V30 12370 H 1196.68 0.740861 -0.095573 0
M  V30 12371 H 1199.34 1.712 -0.931481 0
M  V30 12372 H 1198.44 3.10594 -0.306282 0
M  V30 12373 N 1198.74 0.470782 1.50404 0
M  V30 12374 C 1199.99 -0.0841494 2.01925 0
M  V30 12375 C 1200.31 -1.40244 1.35487 0
M  V30 12376 O 1199.58 -1.89409 0.500111 0
M  V30 12377 H 1198.16 -0.0340884 0.746222 0
M  V30 12378 H 1200.82 0.621133 1.84738 0
M  V30 12379 H 1199.92 -0.235877 3.11207 0
M  V30 12380 N 1200.22 -1.56282 0.203376 0
M  V30 12381 C 1201.45 -2.01905 -0.437936 0
M  V30 12382 C 1201.86 -1.08263 -1.55164 0
M  V30 12383 O 1201.2 -0.0811746 -1.83521 0
M  V30 12384 C 1201.26 -3.43908 -1.04725 0
M  V30 12385 C 1200.92 -4.56944 -0.0712582 0
M  V30 12386 C 1201.92 -5.14856 0.72243 0
M  V30 12387 C 1199.61 -5.02282 0.0422267 0
M  V30 12388 C 1201.6 -6.16562 1.61649 0
M  V30 12389 C 1199.29 -6.0383 0.939835 0
M  V30 12390 C 1200.29 -6.60844 1.72552 0
M  V30 12391 O 1199.97 -7.60417 2.60808 0
M  V30 12392 H 1199.71 -0.666416 -0.11343 0
M  V30 12393 H 1202.26 -2.03019 0.311833 0
M  V30 12394 H 1200.49 -3.39806 -1.84577 0
M  V30 12395 H 1202.18 -3.73288 -1.59407 0
M  V30 12396 H 1202.94 -4.80691 0.645105 0
M  V30 12397 H 1198.82 -4.57596 -0.559165 0
M  V30 12398 H 1202.37 -6.6099 2.23019 0
M  V30 12399 H 1198.26 -6.37418 1.01824 0
M  V30 12400 H 1199.03 -7.77869 2.54679 0
M  V30 12401 N 1201.7 0.070167 -1.57444 0
M  V30 12402 C 1202.65 1.09016 -2.00249 0
M  V30 12403 C 1203.63 1.34387 -0.884809 0
M  V30 12404 O 1204.82 1.34661 -1.14872 0
M  V30 12405 C 1201.95 2.40344 -2.45132 0
M  V30 12406 C 1201.04 2.1824 -3.63637 0
M  V30 12407 N 1201.43 1.6607 -4.7776 0
M  V30 12408 C 1199.73 2.48706 -3.70218 0
M  V30 12409 C 1200.43 1.58819 -5.59599 0
M  V30 12410 N 1199.4 2.04928 -5.03493 0
M  V30 12411 H 1203.2 0.680143 -2.85922 0
M  V30 12412 H 1200.72 0.277212 -1.60017 0
M  V30 12413 H 1202.72 3.1418 -2.74037 0
M  V30 12414 H 1201.38 2.82061 -1.60846 0
M  V30 12415 H 1202.39 1.34911 -5.00019 0
M  V30 12416 H 1199.06 2.93778 -2.96649 0
M  V30 12417 H 1200.45 1.19323 -6.6122 0
M  V30 12418 N 1203.17 1.53854 0.341593 0
M  V30 12419 C 1204.42 1.71447 1.08322 0
M  V30 12420 C 1204.75 0.477289 1.88243 0
M  V30 12421 O 1204.03 -0.525695 1.87261 0
M  V30 12422 C 1204.31 2.97917 2.02281 0
M  V30 12423 C 1204.16 4.31847 1.25809 0
M  V30 12424 C 1205.48 3.20065 3.0207 0
M  V30 12425 H 1202.6 0.623847 0.392408 0
M  V30 12426 H 1205.24 1.86527 0.361594 0
M  V30 12427 H 1203.39 2.85191 2.63815 0
M  V30 12428 H 1205.07 4.56427 0.668737 0
M  V30 12429 H 1203.31 4.30169 0.560119 0
M  V30 12430 H 1203.98 5.16522 1.94704 0
M  V30 12431 H 1206.46 3.32135 2.50651 0
M  V30 12432 H 1205.33 4.09947 3.65013 0
M  V30 12433 H 1205.59 2.36452 3.73554 0
M  V30 12434 N 1204.65 -0.602709 1.4562 0
M  V30 12435 C 1205.88 -1.39299 1.53657 0
M  V30 12436 C 1206.3 -1.87315 0.171632 0
M  V30 12437 O 1205.66 -1.60423 -0.844639 0
M  V30 12438 C 1205.71 -2.57021 2.52928 0
M  V30 12439 O 1204.81 -3.57812 2.05047 0
M  V30 12440 H 1204.15 -0.41567 0.517798 0
M  V30 12441 H 1206.68 -0.73304 1.91018 0
M  V30 12442 H 1206.69 -3.04202 2.71892 0
M  V30 12443 H 1205.37 -2.21422 3.52058 0
M  V30 12444 H 1203.94 -3.17247 1.95981 0
M  V30 12445 N 1206.13 -1.32992 -0.845635 0
M  V30 12446 C 1207.09 -1.22607 -1.9365 0
M  V30 12447 C 1208.09 -0.146812 -1.60128 0
M  V30 12448 O 1209.28 -0.397863 -1.69596 0
M  V30 12449 C 1206.41 -0.887677 -3.2914 0
M  V30 12450 H 1207.61 -2.19563 -2.04285 0
M  V30 12451 H 1205.16 -1.16952 -1.03691 0
M  V30 12452 H 1205.9 0.0796777 -3.24202 0
M  V30 12453 H 1205.68 -1.66808 -3.54849 0
M  V30 12454 H 1207.17 -0.83958 -4.09073 0
M  V30 12455 N 1207.61 1.06304 -1.1635 0
M  V30 12456 C 1208.55 2.13776 -0.869965 0
M  V30 12457 C 1209.52 1.65105 0.181541 0
M  V30 12458 O 1210.71 1.90743 0.0467705 0
M  V30 12459 C 1207.85 3.43034 -0.377077 0
M  V30 12460 C 1206.96 4.0544 -1.4914 0
M  V30 12461 C 1206.1 5.22572 -0.953538 0
M  V30 12462 C 1205.14 5.76961 -2.04407 0
M  V30 12463 N 1204.27 6.85409 -1.52181 0
M  V30 12464 H 1209.11 2.38224 -1.79034 0
M  V30 12465 H 1206.65 1.16882 -0.893136 0
M  V30 12466 H 1208.61 4.17136 -0.0729426 0
M  V30 12467 H 1207.24 3.18804 0.506359 0
M  V30 12468 H 1206.29 3.28886 -1.9115 0
M  V30 12469 H 1207.6 4.41859 -2.31434 0
M  V30 12470 H 1206.76 6.037 -0.602579 0
M  V30 12471 H 1205.5 4.87598 -0.099897 0
M  V30 12472 H 1204.5 4.9447 -2.40373 0
M  V30 12473 H 1205.73 6.13987 -2.90167 0
M  V30 12474 H 1203.67 6.52354 -0.690697 0
M  V30 12475 H 1203.59 7.2077 -2.28092 0
M  V30 12476 H 1204.86 7.70217 -1.19942 0
M  V30 12477 N 1209.09 0.96196 1.24836 0
M  V30 12478 C 1210.33 0.628484 1.94498 0
M  V30 12479 C 1210.69 -0.820337 1.73593 0
M  V30 12480 O 1211.89 -1.26376 2.37239 0
M  V30 12481 C 1210.16 0.986119 3.43527 0
M  V30 12482 S 1211.72 0.766324 4.32057 0
M  V30 12483 H 1208.54 0.230758 0.672511 0
M  V30 12484 H 1211.14 1.23769 1.51332 0
M  V30 12485 H 1209.84 2.03756 3.56247 0
M  V30 12486 H 1209.38 0.367454 3.9168 0
M  V30 12487 H 1211.39 -0.359227 4.94898 0
M  V30 12488 N 1210.56 -1.39601 0.731392 0
M  V30 12489 C 1211.81 -2.00586 0.277756 0
M  V30 12490 C 1212.14 -1.58027 -1.13391 0
M  V30 12491 O 1211.39 -0.798691 -1.7866 0
M  V30 12492 C 1211.69 -3.55934 0.323352 0
M  V30 12493 C 1211.36 -4.18131 1.68753 0
M  V30 12494 C 1210.02 -4.34833 2.06092 0
M  V30 12495 C 1212.37 -4.5267 2.58339 0
M  V30 12496 C 1209.7 -4.83362 3.32532 0
M  V30 12497 C 1212.05 -5.02607 3.84148 0
M  V30 12498 C 1210.72 -5.17517 4.21584 0
M  V30 12499 H 1209.99 -0.733996 0.101638 0
M  V30 12500 H 1212.63 -1.66981 0.937528 0
M  V30 12501 H 1210.94 -3.89542 -0.419995 0
M  V30 12502 H 1212.64 -4.00974 -0.0457235 0
M  V30 12503 H 1209.23 -4.0553 1.38722 0
M  V30 12504 H 1213.41 -4.39388 2.30763 0
M  V30 12505 H 1208.67 -4.93091 3.61485 0
M  V30 12506 H 1212.84 -5.28306 4.53724 0
M  V30 12507 H 1210.47 -5.54882 5.19625 0
M  V30 12508 N 1212.04 -0.478751 -1.50152 0
M  V30 12509 C 1213.29 0.0734397 -2.01967 0
M  V30 12510 C 1213.61 1.39523 -1.36229 0
M  V30 12511 O 1212.88 1.89141 -0.510149 0
M  V30 12512 H 1211.46 0.0301305 -0.746392 0
M  V30 12513 H 1214.12 -0.630921 -1.84406 0
M  V30 12514 H 1213.22 0.21937 -3.11328 0
M  V30 12515 N 1213.52 1.56172 -0.211661 0
M  V30 12516 C 1214.75 2.02135 0.427222 0
M  V30 12517 C 1215.16 1.09084 1.54587 0
M  V30 12518 O 1214.5 0.090906 1.83475 0
M  V30 12519 C 1214.56 3.44459 1.029 0
M  V30 12520 C 1214.23 4.56976 0.0470243 0
M  V30 12521 C 1215.22 5.14466 -0.749724 0
M  V30 12522 C 1212.91 5.02253 -0.0688634 0
M  V30 12523 C 1214.9 6.15696 -1.64916 0
M  V30 12524 C 1212.59 6.03323 -0.971844 0
M  V30 12525 C 1213.59 6.5992 -1.76055 0
M  V30 12526 O 1213.28 7.59024 -2.64837 0
M  V30 12527 H 1213.01 0.667008 0.109894 0
M  V30 12528 H 1215.56 2.02851 -0.322595 0
M  V30 12529 H 1213.79 3.4078 1.82772 0
M  V30 12530 H 1215.48 3.74128 1.57425 0
M  V30 12531 H 1216.25 4.80342 -0.670588 0
M  V30 12532 H 1212.13 4.57886 0.534889 0
M  V30 12533 H 1215.67 6.59798 -2.26521 0
M  V30 12534 H 1211.57 6.36869 -1.05203 0
M  V30 12535 H 1212.34 7.76508 -2.58801 0
M  V30 12536 N 1215 -0.0618163 1.57479 0
M  V30 12537 C 1215.93 -1.10452 1.99689 0
M  V30 12538 C 1216.91 -1.37019 0.875473 0
M  V30 12539 O 1218.09 -1.50226 1.13862 0
M  V30 12540 C 1215.22 -2.44669 2.34211 0
M  V30 12541 C 1214.27 -2.34172 3.56463 0
M  V30 12542 S 1215.1 -1.7263 5.06911 0
M  V30 12543 C 1216.26 -3.08405 5.44644 0
M  V30 12544 H 1216.49 -0.744843 2.87818 0
M  V30 12545 H 1214.02 -0.270698 1.52008 0
M  V30 12546 H 1215.98 -3.2187 2.54774 0
M  V30 12547 H 1214.64 -2.77794 1.46592 0
M  V30 12548 H 1213.83 -3.33175 3.78167 0
M  V30 12549 H 1213.44 -1.65109 3.35582 0
M  V30 12550 H 1215.73 -4.04727 5.43325 0
M  V30 12551 H 1216.67 -2.9147 6.4533 0
M  V30 12552 H 1217.08 -3.0947 4.72111 0
M  V30 12553 N 1216.48 -1.54033 -0.333429 0
M  V30 12554 C 1217.7 -1.75716 -1.09232 0
M  V30 12555 C 1218.12 -0.501076 -1.82029 0
M  V30 12556 O 1217.48 0.527772 -1.74702 0
M  V30 12557 C 1217.53 -2.9439 -2.09802 0
M  V30 12558 O 1217.25 -4.15141 -1.39963 0
M  V30 12559 C 1218.75 -3.28206 -2.97987 0
M  V30 12560 H 1215.97 -0.586859 -0.325326 0
M  V30 12561 H 1218.51 -2.0089 -0.382555 0
M  V30 12562 H 1216.67 -2.71518 -2.76327 0
M  V30 12563 H 1217.08 -4.81826 -2.0723 0
M  V30 12564 H 1218.56 -4.14568 -3.64469 0
M  V30 12565 H 1219.03 -2.44944 -3.64553 0
M  V30 12566 H 1219.64 -3.5312 -2.37036 0
M  V30 12567 N 1217.95 0.594978 -1.45938 0
M  V30 12568 C 1218.89 1.71909 -1.51591 0
M  V30 12569 C 1219.9 1.57671 -0.405416 0
M  V30 12570 O 1221.09 1.65321 -0.673144 0
M  V30 12571 C 1218.19 3.10041 -1.3685 0
M  V30 12572 C 1217.36 3.50399 -2.61801 0
M  V30 12573 C 1216.42 4.67542 -2.41435 0
M  V30 12574 O 1215.45 4.74022 -3.15106 0
M  V30 12575 N 1216.65 5.6163 -1.46808 0
M  V30 12576 H 1219.41 1.67518 -2.48511 0
M  V30 12577 H 1216.97 0.78062 -1.41838 0
M  V30 12578 H 1218.97 3.86183 -1.21017 0
M  V30 12579 H 1217.54 3.08868 -0.481589 0
M  V30 12580 H 1216.76 2.64088 -2.92662 0
M  V30 12581 H 1218.04 3.74125 -3.44831 0
M  V30 12582 H 1217.44 5.5912 -0.860333 0
M  V30 12583 H 1216 6.37252 -1.36942 0
M  V30 12584 N 1219.43 1.33438 0.838571 0
M  V30 12585 C 1220.36 1.19552 1.9555 0
M  V30 12586 C 1221.38 0.12642 1.62308 0
M  V30 12587 O 1222.57 0.376868 1.74476 0
M  V30 12588 C 1219.67 0.811273 3.29046 0
M  V30 12589 C 1218.84 1.97207 3.9042 0
M  V30 12590 C 1217.9 1.56875 5.02271 0
M  V30 12591 O 1216.92 2.28314 5.21403 0
M  V30 12592 N 1218.13 0.473924 5.78562 0
M  V30 12593 H 1220.89 2.15769 2.07999 0
M  V30 12594 H 1218.45 1.26187 1.01432 0
M  V30 12595 H 1220.44 0.523553 4.01299 0
M  V30 12596 H 1219.01 -0.0602291 3.12542 0
M  V30 12597 H 1218.23 2.4254 3.10754 0
M  V30 12598 H 1219.52 2.74878 4.28158 0
M  V30 12599 H 1218.92 -0.120306 5.65572 0
M  V30 12600 H 1217.48 0.245877 6.51336 0
M  V30 12601 N 1220.91 -1.05686 1.16912 0
M  V30 12602 C 1221.84 -2.15268 0.904532 0
M  V30 12603 C 1222.82 -1.69424 -0.151548 0
M  V30 12604 O 1224.01 -1.942 -0.00235371 0
M  V30 12605 C 1221.14 -3.44853 0.411581 0
M  V30 12606 C 1220.09 -4.04237 1.40628 0
M  V30 12607 C 1219.42 -5.29105 0.771479 0
M  V30 12608 C 1220.72 -4.42303 2.77787 0
M  V30 12609 H 1222.41 -2.37659 1.82094 0
M  V30 12610 H 1219.96 -1.14217 0.876947 0
M  V30 12611 H 1221.91 -4.20857 0.213929 0
M  V30 12612 H 1220.63 -3.22099 -0.540352 0
M  V30 12613 H 1219.29 -3.30297 1.59058 0
M  V30 12614 H 1218.94 -5.02652 -0.187133 0
M  V30 12615 H 1218.64 -5.69797 1.43545 0
M  V30 12616 H 1220.16 -6.07801 0.583988 0
M  V30 12617 H 1221.58 -5.09362 2.63103 0
M  V30 12618 H 1219.98 -4.93997 3.40716 0
M  V30 12619 H 1221.05 -3.52877 3.32575 0
M  V30 12620 N 1222.39 -0.968567 -1.24324 0
M  V30 12621 C 1223.32 -0.444065 -2.23838 0
M  V30 12622 C 1224.3 0.482311 -1.55282 0
M  V30 12623 O 1225.48 0.413489 -1.83909 0
M  V30 12624 C 1222.61 0.358874 -3.36793 0
M  V30 12625 C 1221.66 -0.509913 -4.23441 0
M  V30 12626 S 1222.49 -1.95064 -4.98708 0
M  V30 12627 C 1223.65 -1.15652 -6.15122 0
M  V30 12628 H 1223.88 -1.28738 -2.67981 0
M  V30 12629 H 1221.41 -0.773665 -1.33618 0
M  V30 12630 H 1223.37 0.816164 -4.02305 0
M  V30 12631 H 1222.03 1.17717 -2.91207 0
M  V30 12632 H 1221.22 0.106617 -5.03887 0
M  V30 12633 H 1220.83 -0.902967 -3.62936 0
M  V30 12634 H 1223.12 -0.411966 -6.76246 0
M  V30 12635 H 1224.06 -1.93539 -6.81137 0
M  V30 12636 H 1224.47 -0.680507 -5.60383 0
M  V30 12637 N 1223.87 1.39211 -0.738786 0
M  V30 12638 C 1224.81 2.32424 -0.0904601 0
M  V30 12639 C 1225.81 1.53258 0.721694 0
M  V30 12640 O 1227.01 1.68895 0.622454 0
M  V30 12641 H 1223.39 0.751927 -0.010453 0
M  V30 12642 H 1225.36 2.84726 -0.892945 0
M  V30 12643 C 1224.11 3.38377 0.799783 0
M  V30 12644 H 1223.43 3.99375 0.18424 0
M  V30 12645 H 1224.87 4.0604 1.22096 0
M  V30 12646 C 1223.33 2.75734 1.93578 0
M  V30 12647 O 1223.86 2.63876 3.02874 0
M  V30 12648 N 1222.07 2.33764 1.72634 0
M  V30 12649 H 1221.61 2.43609 0.837413 0
M  V30 12650 H 1221.57 1.92191 2.48817 0
M  V30 12651 N 1225.34 0.486708 1.49896 0
M  V30 12652 C 1226.27 -0.288898 2.31706 0
M  V30 12653 C 1227.26 -0.975901 1.3932 0
M  V30 12654 O 1228.44 -0.970065 1.68236 0
M  V30 12655 C 1225.57 -1.36218 3.19471 0
M  V30 12656 C 1224.52 -0.795884 4.20535 0
M  V30 12657 C 1223.85 -1.96862 4.97141 0
M  V30 12658 C 1225.15 0.203421 5.21904 0
M  V30 12659 H 1226.84 0.393934 2.96797 0
M  V30 12660 H 1224.39 0.190894 1.42729 0
M  V30 12661 H 1226.34 -1.91238 3.75508 0
M  V30 12662 H 1225.07 -2.074 2.52295 0
M  V30 12663 H 1223.73 -0.267538 3.65622 0
M  V30 12664 H 1223.37 -2.66779 4.26425 0
M  V30 12665 H 1223.07 -1.59585 5.65514 0
M  V30 12666 H 1224.6 -2.52343 5.56017 0
M  V30 12667 H 1226.01 -0.258144 5.72719 0
M  V30 12668 H 1224.41 0.491273 5.98086 0
M  V30 12669 H 1225.48 1.12414 4.7169 0
M  V30 12670 N 1226.82 -1.56058 0.219941 0
M  V30 12671 C 1227.79 -2.18964 -0.677303 0
M  V30 12672 C 1228.79 -1.15105 -1.12283 0
M  V30 12673 O 1229.98 -1.40348 -1.03189 0
M  V30 12674 C 1227.11 -2.81167 -1.92764 0
M  V30 12675 H 1228.3 -2.99623 -0.128877 0
M  V30 12676 H 1225.85 -1.56272 -0.0296744 0
M  V30 12677 H 1226.59 -2.04374 -2.51797 0
M  V30 12678 H 1226.37 -3.5722 -1.61666 0
M  V30 12679 H 1227.86 -3.29391 -2.56693 0
M  V30 12680 N 1228.3 0.053464 -1.57509 0
M  V30 12681 C 1229.55 0.747622 -1.87763 0
M  V30 12682 C 1229.87 1.77178 -0.814433 0
M  V30 12683 O 1229.14 1.95287 0.154862 0
M  V30 12684 H 1227.72 0.279109 -0.692898 0
M  V30 12685 H 1230.38 0.0252006 -1.94884 0
M  V30 12686 H 1229.48 1.25244 -2.85868 0
M  V30 12687 N 1229.78 1.54207 0.325255 0
M  V30 12688 C 1231.03 1.71991 1.0613 0
M  V30 12689 C 1231.35 0.495505 1.88599 0
M  V30 12690 O 1230.62 -0.490504 1.8966 0
M  V30 12691 H 1229.2 0.634137 0.394816 0
M  V30 12692 H 1231.86 1.91507 0.362101 0
M  V30 12693 H 1230.96 2.59878 1.72829 0
M  V30 12694 N 1231.26 -0.58723 1.46251 0
M  V30 12695 C 1232.22 -1.67863 1.5606 0
M  V30 12696 C 1233.22 -1.54715 0.438162 0
M  V30 12697 O 1234.41 -1.59415 0.702323 0
M  V30 12698 C 1231.54 -3.07262 1.47659 0
M  V30 12699 H 1232.74 -1.60525 2.53321 0
M  V30 12700 H 1230.29 -0.804691 1.33994 0
M  V30 12701 H 1231.02 -3.20159 0.5166 0
M  V30 12702 H 1230.81 -3.18213 2.29092 0
M  V30 12703 H 1232.3 -3.8672 1.57599 0
M  V30 12704 N 1232.74 -1.33881 -0.831482 0
M  V30 12705 C 1233.98 -1.25942 -1.58955 0
M  V30 12706 C 1234.31 0.172542 -1.93432 0
M  V30 12707 O 1233.59 1.11577 -1.59314 0
M  V30 12708 C 1233.87 -2.14193 -2.89471 0
M  V30 12709 C 1233.73 -3.65883 -2.61628 0
M  V30 12710 C 1235.04 -2.02071 -3.90967 0
M  V30 12711 H 1232.16 -0.458841 -0.576744 0
M  V30 12712 H 1234.81 -1.64052 -0.958482 0
M  V30 12713 H 1232.96 -1.81821 -3.43327 0
M  V30 12714 H 1234.63 -4.08581 -2.14148 0
M  V30 12715 H 1232.87 -3.87397 -1.95208 0
M  V30 12716 H 1233.54 -4.22988 -3.54662 0
M  V30 12717 H 1236.02 -2.30476 -3.46439 0
M  V30 12718 H 1234.89 -2.66059 -4.80108 0
M  V30 12719 H 1235.15 -0.995121 -4.30755 0
M  V30 12720 N 1234.21 1.05064 -1.1747 0
M  V30 12721 C 1235.46 1.78352 -0.965311 0
M  V30 12722 C 1235.79 1.87527 0.504707 0
M  V30 12723 O 1235.07 1.376 1.37465 0
M  V30 12724 C 1235.35 3.22173 -1.60862 0
M  V30 12725 C 1235.2 3.21003 -3.15083 0
M  V30 12726 C 1236.52 4.2004 -1.31358 0
M  V30 12727 H 1233.64 0.647452 -0.352101 0
M  V30 12728 H 1236.28 1.22794 -1.44988 0
M  V30 12729 H 1234.43 3.69613 -1.19658 0
M  V30 12730 H 1236.11 2.81629 -3.65353 0
M  V30 12731 H 1234.35 2.59309 -3.47766 0
M  V30 12732 H 1235.02 4.22516 -3.55224 0
M  V30 12733 H 1237.5 3.81099 -1.6704 0
M  V30 12734 H 1236.37 5.1891 -1.78953 0
M  V30 12735 H 1236.63 4.41477 -0.234606 0
M  V30 12736 N 1235.69 0.975146 1.23809 0
M  V30 12737 C 1236.62 0.530389 2.27396 0
M  V30 12738 C 1237.6 -0.433763 1.64476 0
M  V30 12739 O 1238.79 -0.32827 1.91405 0
M  V30 12740 C 1235.92 -0.173066 3.46869 0
M  V30 12741 C 1234.87 0.707844 4.22106 0
M  V30 12742 C 1234.2 -0.127527 5.34548 0
M  V30 12743 C 1235.5 1.99609 4.82652 0
M  V30 12744 H 1237.19 1.39622 2.64851 0
M  V30 12745 H 1234.74 0.672802 1.27316 0
M  V30 12746 H 1236.69 -0.495481 4.18477 0
M  V30 12747 H 1235.41 -1.0733 3.0846 0
M  V30 12748 H 1234.07 1.01364 3.52308 0
M  V30 12749 H 1233.72 -1.02814 4.9238 0
M  V30 12750 H 1233.42 0.458728 5.85807 0
M  V30 12751 H 1234.95 -0.444443 6.0898 0
M  V30 12752 H 1236.36 1.73878 5.46296 0
M  V30 12753 H 1234.76 2.52969 5.44175 0
M  V30 12754 H 1235.83 2.68629 4.03691 0
M  V30 12755 N 1237.17 -1.38817 0.746158 0
M  V30 12756 C 1238.13 -2.28876 0.121886 0
M  V30 12757 C 1239.13 -1.46838 -0.655379 0
M  V30 12758 O 1240.32 -1.67377 -0.482744 0
M  V30 12759 C 1237.45 -3.30487 -0.836118 0
M  V30 12760 H 1238.65 -2.85586 0.915453 0
M  V30 12761 H 1236.2 -1.47652 0.512691 0
M  V30 12762 H 1236.94 -2.78853 -1.65563 0
M  V30 12763 H 1236.72 -3.9109 -0.281271 0
M  V30 12764 H 1238.21 -3.97848 -1.26914 0
M  V30 12765 N 1238.65 -0.49465 -1.49636 0
M  V30 12766 C 1239.58 0.276606 -2.31856 0
M  V30 12767 C 1240.56 0.968499 -1.39836 0
M  V30 12768 O 1241.74 0.96113 -1.68748 0
M  V30 12769 C 1238.87 1.34522 -3.20189 0
M  V30 12770 C 1237.83 0.773571 -4.20951 0
M  V30 12771 C 1237.15 1.94223 -4.98178 0
M  V30 12772 C 1238.45 -0.231096 -5.21788 0
M  V30 12773 H 1240.15 -0.409668 -2.96584 0
M  V30 12774 H 1237.69 -0.198461 -1.42626 0
M  V30 12775 H 1239.65 1.89244 -3.76517 0
M  V30 12776 H 1238.37 2.06059 -2.53392 0
M  V30 12777 H 1237.03 0.248144 -3.65759 0
M  V30 12778 H 1236.68 2.64514 -4.27834 0
M  V30 12779 H 1236.38 1.56584 -5.66353 0
M  V30 12780 H 1237.9 2.49391 -5.57348 0
M  V30 12781 H 1239.32 0.227768 -5.72847 0
M  V30 12782 H 1237.71 -0.522984 -5.97817 0
M  V30 12783 H 1238.78 -1.14914 -4.71087 0
M  V30 12784 N 1240.13 1.55939 -0.228214 0
M  V30 12785 C 1241.04 2.24213 0.690339 0
M  V30 12786 C 1242.05 1.25197 1.20838 0
M  V30 12787 O 1243.23 1.58026 1.24859 0
M  V30 12788 C 1240.29 2.91384 1.87873 0
M  V30 12789 C 1239.35 4.05761 1.40201 0
M  V30 12790 C 1238.59 4.6972 2.53376 0
M  V30 12791 O 1238.81 4.32687 3.71669 0
M  V30 12792 O 1237.74 5.58587 2.24198 0
M  V30 12793 H 1241.57 3.03383 0.138692 0
M  V30 12794 H 1239.15 1.494 0.00251504 0
M  V30 12795 H 1241.04 3.33758 2.57262 0
M  V30 12796 H 1239.71 2.15168 2.41835 0
M  V30 12797 H 1238.62 3.67943 0.675945 0
M  V30 12798 H 1239.95 4.83739 0.908691 0
M  V30 12799 N 1241.6 -0.0451101 1.57535 0
M  V30 12800 C 1242.85 -0.737654 1.88157 0
M  V30 12801 C 1243.17 -1.76743 0.823817 0
M  V30 12802 O 1242.44 -1.95366 -0.144503 0
M  V30 12803 H 1241.02 -0.275431 0.694368 0
M  V30 12804 H 1243.69 -0.0148651 1.94894 0
M  V30 12805 H 1242.78 -1.23726 2.86528 0
M  V30 12806 N 1243.08 -1.54377 -0.317073 0
M  V30 12807 C 1244.33 -1.72551 -1.05216 0
M  V30 12808 C 1244.65 -0.5055 -1.88334 0
M  V30 12809 O 1243.92 0.480439 -1.89917 0
M  V30 12810 H 1242.5 -0.636222 -0.391447 0
M  V30 12811 H 1245.16 -1.91696 -0.35194 0
M  V30 12812 H 1244.26 -2.60791 -1.71448 0
M  V30 12813 N 1244.56 0.579466 -1.4656 0
M  V30 12814 C 1245.51 1.68327 -1.53785 0
M  V30 12815 C 1246.49 1.55887 -0.398512 0
M  V30 12816 O 1247.69 1.64746 -0.647119 0
M  V30 12817 C 1244.82 3.07113 -1.53416 0
M  V30 12818 C 1243.9 3.24839 -2.72655 0
M  V30 12819 N 1244.29 3.12711 -3.97549 0
M  V30 12820 C 1242.59 3.55786 -2.68947 0
M  V30 12821 C 1243.29 3.32528 -4.77284 0
M  V30 12822 N 1242.27 3.57834 -4.09214 0
M  V30 12823 H 1246.07 1.57486 -2.48144 0
M  V30 12824 H 1243.58 0.783591 -1.42245 0
M  V30 12825 H 1245.58 3.86338 -1.5668 0
M  V30 12826 H 1244.24 3.19083 -0.601365 0
M  V30 12827 H 1245.25 2.90508 -4.28749 0
M  V30 12828 H 1241.93 3.7442 -1.84705 0
M  V30 12829 H 1243.32 3.28308 -5.86228 0
M  V30 12830 N 1246.04 1.3432 0.824371 0
M  V30 12831 C 1247.32 1.17178 1.56616 0
M  V30 12832 C 1247.7 -0.256195 2.0954 0
M  V30 12833 O 1247.04 -1.25732 1.90798 0
M  V30 12834 C 1247.25 2.22511 2.68867 0
M  V30 12835 C 1248.6 2.57414 3.37673 0
M  V30 12836 O 1249.63 2.2129 2.79122 0
M  V30 12837 O 1248.48 3.19462 4.43403 0
M  V30 12838 H 1245.58 0.454141 0.691147 0
M  V30 12839 H 1248.12 1.45948 0.865869 0
M  V30 12840 H 1246.9 3.18366 2.27505 0
M  V30 12841 H 1246.52 1.9491 3.46548 0
M  V30 12842 N 1247.52 -1.0444 1.18026 0
M  V30 12843 C 1248.45 -2.14297 0.927314 0
M  V30 12844 C 1249.43 -1.69575 -0.13357 0
M  V30 12845 O 1250.61 -1.94191 0.0182439 0
M  V30 12846 C 1247.74 -3.44397 0.448134 0
M  V30 12847 C 1246.7 -4.02723 1.44907 0
M  V30 12848 C 1246.02 -5.28257 0.827555 0
M  V30 12849 C 1247.32 -4.39331 2.82463 0
M  V30 12850 H 1249.02 -2.35715 1.84605 0
M  V30 12851 H 1246.56 -1.13281 0.889012 0
M  V30 12852 H 1248.52 -4.20606 0.258554 0
M  V30 12853 H 1247.24 -3.22654 -0.506159 0
M  V30 12854 H 1245.9 -3.28591 1.62552 0
M  V30 12855 H 1245.55 -5.02822 -0.13381 0
M  V30 12856 H 1245.25 -5.68242 1.49581 0
M  V30 12857 H 1246.77 -6.07147 0.64842 0
M  V30 12858 H 1248.18 -5.06543 2.68491 0
M  V30 12859 H 1246.58 -4.90355 3.45936 0
M  V30 12860 H 1247.65 -3.4933 3.36299 0
M  V30 12861 N 1248.99 -0.981699 -1.2329 0
M  V30 12862 C 1250.22 -0.66937 -1.95773 0
M  V30 12863 C 1250.64 0.763898 -1.72656 0
M  V30 12864 O 1249.99 1.51418 -1.01876 0
M  V30 12865 C 1250.05 -0.951863 -3.48743 0
M  V30 12866 O 1249.77 -2.3288 -3.71078 0
M  V30 12867 C 1251.27 -0.655668 -4.38424 0
M  V30 12868 H 1248.49 -0.248545 -0.623271 0
M  V30 12869 H 1251.03 -1.31343 -1.56746 0
M  V30 12870 H 1249.19 -0.353787 -3.85781 0
M  V30 12871 H 1249.6 -2.41948 -4.65362 0
M  V30 12872 H 1251.07 -0.903683 -5.44553 0
M  V30 12873 H 1251.55 0.410269 -4.3728 0
M  V30 12874 H 1252.16 -1.23428 -4.06996 0
M  V30 12875 N 1250.47 1.3842 -0.753509 0
M  V30 12876 C 1251.44 2.28808 -0.134022 0
M  V30 12877 C 1252.44 1.47184 0.647583 0
M  V30 12878 O 1253.63 1.67631 0.473861 0
M  V30 12879 C 1250.76 3.30926 0.81858 0
M  V30 12880 H 1251.95 2.85097 -0.930586 0
M  V30 12881 H 1249.5 1.47378 -0.520514 0
M  V30 12882 H 1250.24 2.79728 1.64082 0
M  V30 12883 H 1250.02 3.91234 0.260526 0
M  V30 12884 H 1251.51 3.98515 1.24802 0
M  V30 12885 N 1251.95 0.502579 1.49372 0
M  V30 12886 C 1253.2 -0.0432341 2.01654 0
M  V30 12887 C 1253.51 -1.379 1.38719 0
M  V30 12888 O 1254.72 -2.01159 1.82338 0
M  V30 12889 C 1253.17 -0.127509 3.59674 0
M  V30 12890 C 1252.78 1.20171 4.31582 0
M  V30 12891 C 1254.53 -0.623603 4.19895 0
M  V30 12892 C 1252.43 1.07951 5.81464 0
M  V30 12893 H 1251.36 -0.0199308 0.753737 0
M  V30 12894 H 1254.01 0.642237 1.71894 0
M  V30 12895 H 1252.4 -0.877465 3.86156 0
M  V30 12896 H 1253.57 1.96508 4.16799 0
M  V30 12897 H 1251.89 1.63136 3.83113 0
M  V30 12898 H 1254.48 -0.732562 5.29658 0
M  V30 12899 H 1254.83 -1.62282 3.83367 0
M  V30 12900 H 1255.36 0.0698641 3.97739 0
M  V30 12901 H 1252.1 2.05304 6.22519 0
M  V30 12902 H 1251.62 0.357051 5.98736 0
M  V30 12903 H 1253.3 0.758885 6.42534 0
M  V30 12904 N 1253.43 -1.55816 0.23648 0
M  V30 12905 C 1254.67 -2.0059 -0.39281 0
M  V30 12906 C 1255.03 -1.12092 -1.55883 0
M  V30 12907 O 1256.23 -1.46277 -2.25514 0
M  V30 12908 C 1254.5 -3.48281 -0.80219 0
M  V30 12909 S 1256.06 -4.15069 -1.42348 0
M  V30 12910 H 1252.88 -0.700093 -0.124057 0
M  V30 12911 H 1255.48 -1.92355 0.349272 0
M  V30 12912 H 1254.19 -4.10362 0.0558941 0
M  V30 12913 H 1253.72 -3.60421 -1.57671 0
M  V30 12914 H 1255.73 -4.15493 -2.71257 0
M  V30 12915 N 1254.91 0.036755 -1.57557 0
M  V30 12916 C 1256.18 0.764087 -1.80059 0
M  V30 12917 C 1256.56 1.93983 -0.83269 0
M  V30 12918 O 1255.91 2.28148 0.126815 0
M  V30 12919 C 1256.12 1.20433 -3.27562 0
M  V30 12920 C 1257.47 1.6234 -3.9234 0
M  V30 12921 O 1258.49 1.29911 -3.31665 0
M  V30 12922 O 1257.35 2.22504 -4.99154 0
M  V30 12923 H 1254.45 0.368866 -0.74018 0
M  V30 12924 H 1256.99 0.0141254 -1.69694 0
M  V30 12925 H 1255.76 0.364646 -3.89597 0
M  V30 12926 H 1255.39 2.01454 -3.42786 0
M  V30 12927 N 1256.39 1.54543 0.308881 0
M  V30 12928 C 1257.35 1.84214 1.36374 0
M  V30 12929 C 1258.35 0.71463 1.44047 0
M  V30 12930 O 1259.54 0.98293 1.4382 0
M  V30 12931 C 1256.67 2.01535 2.74948 0
M  V30 12932 H 1257.86 2.78477 1.11314 0
M  V30 12933 H 1255.42 1.46485 0.545141 0
M  V30 12934 H 1256.15 1.09533 3.05242 0
M  V30 12935 H 1255.94 2.83595 2.7077 0
M  V30 12936 H 1257.43 2.25888 3.51233 0
M  V30 12937 N 1257.86 -0.571685 1.46866 0
M  V30 12938 C 1259.09 -1.36008 1.56578 0
M  V30 12939 C 1259.51 -1.86909 0.211326 0
M  V30 12940 O 1258.87 -1.62179 -0.810421 0
M  V30 12941 C 1258.92 -2.51598 2.58323 0
M  V30 12942 O 1258.02 -3.53383 2.1259 0
M  V30 12943 H 1257.36 -0.404593 0.526498 0
M  V30 12944 H 1259.89 -0.692357 1.92529 0
M  V30 12945 H 1259.9 -2.98366 2.78283 0
M  V30 12946 H 1258.58 -2.13904 3.56676 0
M  V30 12947 H 1257.16 -3.13019 2.02666 0
M  V30 12948 N 1259.34 -1.34755 -0.817236 0
M  V30 12949 C 1260.25 -1.28888 -1.96023 0
M  V30 12950 C 1261.27 -0.195582 -1.72897 0
M  V30 12951 O 1262.44 -0.423071 -1.96906 0
M  V30 12952 C 1259.51 -1.04985 -3.30423 0
M  V30 12953 C 1258.57 -2.23526 -3.66517 0
M  V30 12954 C 1257.8 -2.00753 -4.94504 0
M  V30 12955 O 1258.03 -0.968622 -5.62116 0
M  V30 12956 O 1256.96 -2.87848 -5.28608 0
M  V30 12957 H 1260.79 -2.25059 -2.03917 0
M  V30 12958 H 1258.37 -1.15019 -0.953467 0
M  V30 12959 H 1260.25 -0.934589 -4.10906 0
M  V30 12960 H 1258.93 -0.118582 -3.23483 0
M  V30 12961 H 1257.83 -2.40613 -2.86455 0
M  V30 12962 H 1259.17 -3.15062 -3.78149 0
M  V30 12963 N 1260.82 1.03812 -1.18578 0
M  V30 12964 C 1261.78 2.10049 -0.91718 0
M  V30 12965 C 1262.78 1.60498 0.0985122 0
M  V30 12966 O 1263.97 1.73674 -0.135213 0
M  V30 12967 C 1261.1 3.38813 -0.376599 0
M  V30 12968 H 1262.3 2.3531 -1.85927 0
M  V30 12969 H 1259.85 1.20277 -0.998156 0
M  V30 12970 H 1260.59 3.19216 0.571983 0
M  V30 12971 H 1260.37 3.76096 -1.10881 0
M  V30 12972 H 1261.86 4.17084 -0.207453 0
M  V30 12973 N 1262.3 0.988223 1.22768 0
M  V30 12974 C 1263.54 0.669599 1.93121 0
M  V30 12975 C 1263.9 -0.783331 1.75294 0
M  V30 12976 O 1265.1 -1.21315 2.39867 0
M  V30 12977 C 1263.37 1.05876 3.41358 0
M  V30 12978 S 1264.93 0.857797 4.30334 0
M  V30 12979 H 1261.75 0.244972 0.667465 0
M  V30 12980 H 1264.35 1.26952 1.48673 0
M  V30 12981 H 1263.06 2.11267 3.51844 0
M  V30 12982 H 1262.59 0.450453 3.90813 0
M  V30 12983 H 1264.6 -0.254171 4.95549 0
M  V30 12984 N 1263.78 -1.38018 0.760839 0
M  V30 12985 C 1265.02 -2.00248 0.320716 0
M  V30 12986 C 1265.35 -1.60259 -1.09684 0
M  V30 12987 O 1264.63 -0.843567 -1.75255 0
M  V30 12988 C 1264.91 -3.57254 0.451849 0
M  V30 12989 C 1264.77 -4.07185 1.91103 0
M  V30 12990 C 1266.08 -4.39843 -0.150439 0
M  V30 12991 H 1263.2 -0.727491 0.118007 0
M  V30 12992 H 1265.85 -1.63855 0.961842 0
M  V30 12993 H 1264 -3.88386 -0.0939672 0
M  V30 12994 H 1265.67 -3.86665 2.51571 0
M  V30 12995 H 1263.91 -3.59782 2.42362 0
M  V30 12996 H 1264.58 -5.16262 1.9539 0
M  V30 12997 H 1267.06 -4.14905 0.315145 0
M  V30 12998 H 1265.93 -5.48893 -0.0284853 0
M  V30 12999 H 1266.19 -4.24367 -1.23956 0
M  V30 13000 N 1265.25 -0.510493 -1.49103 0
M  V30 13001 C 1266.22 0.251915 -2.27811 0
M  V30 13002 C 1267.22 0.885432 -1.34226 0
M  V30 13003 O 1268.41 0.748494 -1.573 0
M  V30 13004 C 1265.54 1.3624 -3.12492 0
M  V30 13005 H 1266.73 -0.438872 -2.96671 0
M  V30 13006 H 1264.28 -0.265767 -1.54024 0
M  V30 13007 H 1265.02 2.08705 -2.48219 0
M  V30 13008 H 1264.8 0.913485 -3.81311 0
M  V30 13009 H 1266.29 1.89919 -3.71915 0
M  V30 13010 N 1266.73 1.55688 -0.24474 0
M  V30 13011 C 1267.69 2.20014 0.642382 0
M  V30 13012 C 1268.69 1.16877 1.10437 0
M  V30 13013 O 1269.88 1.41972 1.00943 0
M  V30 13014 C 1267.02 2.84198 1.88267 0
M  V30 13015 H 1268.21 2.9979 0.0811937 0
M  V30 13016 H 1265.76 1.56299 0.00480917 0
M  V30 13017 H 1266.5 2.08354 2.48514 0
M  V30 13018 H 1266.28 3.59747 1.55963 0
M  V30 13019 H 1267.77 3.33434 2.5142 0
M  V30 13020 N 1268.21 -0.0283989 1.57574 0
M  V30 13021 C 1269.14 -1.02828 2.09639 0
M  V30 13022 C 1270.12 -1.37668 0.999076 0
M  V30 13023 O 1271.31 -1.4654 1.27435 0
M  V30 13024 C 1268.44 -2.329 2.57633 0
M  V30 13025 C 1267.39 -2.12301 3.71635 0
M  V30 13026 C 1266.72 -3.48138 4.05837 0
M  V30 13027 C 1268.02 -1.50864 5.00037 0
M  V30 13028 H 1269.71 -0.594876 2.93431 0
M  V30 13029 H 1267.26 -0.284701 1.41158 0
M  V30 13030 H 1269.21 -3.03179 2.92678 0
M  V30 13031 H 1267.93 -2.78302 1.70926 0
M  V30 13032 H 1266.59 -1.44454 3.3694 0
M  V30 13033 H 1266.24 -3.9119 3.16195 0
M  V30 13034 H 1265.94 -3.3518 4.82626 0
M  V30 13035 H 1267.46 -4.19779 4.43417 0
M  V30 13036 H 1268.88 -2.11062 5.33035 0
M  V30 13037 H 1267.27 -1.48479 5.81441 0
M  V30 13038 H 1268.34 -0.474541 4.82572 0
M  V30 13039 N 1269.69 -1.54705 -0.300681 0
M  V30 13040 C 1270.62 -1.88679 -1.37559 0
M  V30 13041 C 1271.6 -0.74574 -1.52881 0
M  V30 13042 O 1272.78 -1.0015 -1.66384 0
M  V30 13043 C 1269.91 -2.13438 -2.73974 0
M  V30 13044 C 1268.87 -3.29284 -2.73415 0
M  V30 13045 C 1268.19 -3.39462 -4.13122 0
M  V30 13046 C 1269.49 -4.66382 -2.35128 0
M  V30 13047 H 1271.19 -2.78707 -1.09373 0
M  V30 13048 H 1268.73 -1.341 -0.524704 0
M  V30 13049 H 1270.69 -2.35791 -3.49257 0
M  V30 13050 H 1269.41 -1.20181 -3.03684 0
M  V30 13051 H 1268.07 -3.06855 -2.00588 0
M  V30 13052 H 1267.72 -2.43721 -4.4001 0
M  V30 13053 H 1267.42 -4.17334 -4.1365 0
M  V30 13054 H 1268.94 -3.64075 -4.90185 0
M  V30 13055 H 1270.36 -4.88463 -3.00128 0
M  V30 13056 H 1268.75 -5.4697 -2.46867 0
M  V30 13057 H 1269.82 -4.67078 -1.30256 0
M  V30 13058 N 1271.17 0.563888 -1.47167 0
M  V30 13059 C 1272.41 1.31875 -1.53145 0
M  V30 13060 C 1272.74 1.94047 -0.192518 0
M  V30 13061 O 1272.01 1.79577 0.782872 0
M  V30 13062 H 1270.59 0.489694 -0.5641 0
M  V30 13063 H 1273.25 0.658976 -1.83422 0
M  V30 13064 H 1272.34 2.11574 -2.2944 0
M  V30 13065 N 1272.64 1.35187 0.810078 0
M  V30 13066 C 1273.59 1.27848 1.94313 0
M  V30 13067 C 1274.59 0.174081 1.68503 0
M  V30 13068 O 1275.79 0.339848 1.76763 0
M  V30 13069 H 1272.17 0.397504 0.638353 0
M  V30 13070 H 1274.14 2.23579 1.97623 0
M  V30 13071 C 1272.89 1.06382 3.31026 0
M  V30 13072 H 1272.21 1.90601 3.51441 0
M  V30 13073 H 1273.65 1.05287 4.1072 0
M  V30 13074 C 1272.11 -0.232462 3.36097 0
M  V30 13075 O 1272.64 -1.22946 3.82423 0
M  V30 13076 N 1270.85 -0.270028 2.89343 0
M  V30 13077 H 1270.39 0.541891 2.51836 0
M  V30 13078 H 1270.35 -1.13708 2.93117 0
M  V30 13079 N 1274.12 -1.03182 1.19127 0
M  V30 13080 C 1275.54 -1.28773 0.942854 0
M  V30 13081 C 1275.74 -1.97759 -0.386483 0
M  V30 13082 O 1274.79 -2.26365 -1.1187 0
M  V30 13083 C 1276.11 -2.13771 2.11476 0
M  V30 13084 C 1277.66 -2.27089 2.15406 0
M  V30 13085 C 1278.13 -3.15458 3.32039 0
M  V30 13086 N 1279.62 -3.23046 3.31957 0
M  V30 13087 C 1280.36 -3.91604 4.18848 0
M  V30 13088 N 1279.85 -4.62418 5.15889 0
M  V30 13089 N 1281.65 -3.87974 4.06734 0
M  V30 13090 H 1273.8 -0.568165 2.0466 0
M  V30 13091 H 1276.06 -0.31328 0.89474 0
M  V30 13092 H 1275.77 -1.704 3.07663 0
M  V30 13093 H 1275.64 -3.14476 2.0829 0
M  V30 13094 H 1278.03 -2.69693 1.19791 0
M  V30 13095 H 1278.11 -1.25945 2.22647 0
M  V30 13096 H 1277.75 -2.73564 4.27931 0
M  V30 13097 H 1277.68 -4.16654 3.22035 0
M  V30 13098 H 1280.17 -2.7261 2.6171 0
M  V30 13099 H 1280.49 -5.12353 5.78545 0
M  V30 13100 H 1278.83 -4.61293 5.1984 0
M  V30 13101 H 1282.02 -3.31789 3.30202 0
M  V30 13102 H 1282.19 -4.4113 4.74666 0
M  V30 13103 N 1275.6 -0.99472 -1.22242 0
M  V30 13104 C 1276.85 -0.672596 -1.91322 0
M  V30 13105 C 1277.18 0.793542 -1.77247 0
M  V30 13106 O 1276.45 1.57407 -1.14251 0
M  V30 13107 C 1276.74 -1.08155 -3.43474 0
M  V30 13108 C 1276.59 -2.60638 -3.6659 0
M  V30 13109 C 1277.91 -0.636161 -4.35478 0
M  V30 13110 H 1275.03 -0.24582 -0.694796 0
M  V30 13111 H 1277.67 -1.23857 -1.44082 0
M  V30 13112 H 1275.82 -0.599987 -3.83839 0
M  V30 13113 H 1277.49 -3.16479 -3.35617 0
M  V30 13114 H 1275.74 -3.02624 -3.10808 0
M  V30 13115 H 1276.41 -2.84304 -4.73155 0
M  V30 13116 H 1278.88 -1.04982 -4.02639 0
M  V30 13117 H 1277.76 -0.950584 -5.40606 0
M  V30 13118 H 1278.02 0.4631 -4.39668 0
M  V30 13119 N 1277.08 1.37613 -0.768148 0
M  V30 13120 C 1278.36 1.93921 -0.255724 0
M  V30 13121 C 1278.74 1.70215 1.2486 0
M  V30 13122 O 1278.08 1.0489 2.03003 0
M  V30 13123 C 1278.29 3.43354 -0.625204 0
M  V30 13124 C 1279.64 4.20439 -0.592978 0
M  V30 13125 O 1280.67 3.51701 -0.564375 0
M  V30 13126 O 1279.52 5.43008 -0.616849 0
M  V30 13127 H 1276.62 0.824968 -0.0579366 0
M  V30 13128 H 1279.16 1.46921 -0.849257 0
M  V30 13129 H 1277.94 3.54177 -1.66356 0
M  V30 13130 H 1277.56 3.976 -0.00442816 0
M  V30 13131 N 1278.56 0.518393 1.4883 0
M  V30 13132 C 1279.97 0.0749773 1.86549 0
M  V30 13133 C 1280.32 -1.34429 1.4291 0
M  V30 13134 O 1279.44 -2.00481 0.814648 0
M  V30 13135 C 1280.04 0.129289 3.38553 0
M  V30 13136 C 1278.6 -0.258871 3.75509 0
M  V30 13137 C 1277.74 0.494185 2.72861 0
M  V30 13138 H 1280.7 0.730266 1.409 0
M  V30 13139 H 1280.72 -0.661844 3.747 0
M  V30 13140 H 1280.23 1.16237 3.70285 0
M  V30 13141 H 1278.33 -1.29453 3.49389 0
M  V30 13142 H 1278.44 0.0726769 4.79045 0
M  V30 13143 H 1276.81 -0.0581428 2.54634 0
M  V30 13144 H 1277.59 1.52767 3.07436 0
M  V30 13145 N 1280.03 -1.55556 0.252993 0
M  V30 13146 C 1280.96 -2.24613 -0.638047 0
M  V30 13147 C 1281.95 -1.22852 -1.1765 0
M  V30 13148 O 1283.13 -1.51519 -1.21472 0
M  V30 13149 C 1280.26 -2.95029 -1.83236 0
M  V30 13150 C 1279.21 -4.03531 -1.42641 0
M  V30 13151 C 1278.54 -4.61404 -2.70204 0
M  V30 13152 C 1279.84 -5.18923 -0.592958 0
M  V30 13153 H 1281.53 -2.99335 -0.0621918 0
M  V30 13154 H 1279.08 -1.43972 -0.0284722 0
M  V30 13155 H 1281.03 -3.42042 -2.46141 0
M  V30 13156 H 1279.76 -2.17805 -2.43369 0
M  V30 13157 H 1278.42 -3.57296 -0.820672 0
M  V30 13158 H 1278.06 -3.80874 -3.28548 0
M  V30 13159 H 1277.76 -5.34652 -2.43764 0
M  V30 13160 H 1279.29 -5.11154 -3.33997 0
M  V30 13161 H 1280.7 -5.62124 -1.12646 0
M  V30 13162 H 1279.1 -5.98598 -0.424358 0
M  V30 13163 H 1280.17 -4.83301 0.393434 0
M  V30 13164 N 1281.51 0.0200419 -1.57587 0
M  V30 13165 C 1282.74 0.724241 -1.94344 0
M  V30 13166 C 1283.16 1.67612 -0.853688 0
M  V30 13167 O 1282.52 1.80303 0.189873 0
M  V30 13168 C 1282.57 1.44967 -3.30177 0
M  V30 13169 O 1281.67 2.56326 -3.23064 0
M  V30 13170 H 1281.01 0.194142 -0.634984 0
M  V30 13171 H 1283.54 -0.0271756 -2.04582 0
M  V30 13172 H 1283.55 1.81758 -3.65278 0
M  V30 13173 H 1282.23 0.75161 -4.09052 0
M  V30 13174 H 1280.81 2.22011 -2.99609 0
M  V30 13175 N 1282.99 1.54862 0.292472 0
M  V30 13176 C 1283.9 1.89472 1.38339 0
M  V30 13177 C 1284.92 0.789783 1.55043 0
M  V30 13178 O 1286.09 1.08705 1.69544 0
M  V30 13179 C 1283.16 2.14244 2.72581 0
M  V30 13180 C 1282.22 3.37913 2.64789 0
M  V30 13181 C 1281.45 3.61494 3.92629 0
M  V30 13182 O 1281.67 2.87931 4.92394 0
M  V30 13183 O 1280.61 4.55019 3.94007 0
M  V30 13184 H 1284.43 2.82298 1.11989 0
M  V30 13185 H 1282.02 1.41161 0.489291 0
M  V30 13186 H 1283.9 2.31689 3.51991 0
M  V30 13187 H 1282.58 1.24603 2.98757 0
M  V30 13188 H 1281.48 3.25823 1.83821 0
M  V30 13189 H 1282.82 4.27711 2.43565 0
M  V30 13190 N 1284.47 -0.556076 1.47464 0
M  V30 13191 C 1285.38 -1.69043 1.62671 0
M  V30 13192 C 1286.39 -1.66372 0.509535 0
M  V30 13193 O 1287.57 -1.85799 0.777218 0
M  V30 13194 C 1284.64 -3.05546 1.63836 0
M  V30 13195 C 1283.7 -3.19275 2.86988 0
M  V30 13196 C 1282.93 -4.49267 2.88088 0
M  V30 13197 O 1283.15 -5.34796 1.98368 0
M  V30 13198 O 1282.09 -4.66811 3.79962 0
M  V30 13199 H 1285.91 -1.59155 2.58657 0
M  V30 13200 H 1283.5 -0.726211 1.30562 0
M  V30 13201 H 1285.38 -3.86778 1.67275 0
M  V30 13202 H 1284.05 -3.15814 0.710173 0
M  V30 13203 H 1282.96 -2.37437 2.89093 0
M  V30 13204 H 1284.29 -3.13912 3.79104 0
M  V30 13205 N 1285.95 -1.35615 -0.802897 0
M  V30 13206 C 1287.2 -1.28839 -1.55708 0
M  V30 13207 C 1287.52 0.135906 -1.94526 0
M  V30 13208 O 1286.79 1.07317 -1.6389 0
M  V30 13209 H 1285.37 -0.473906 -0.577427 0
M  V30 13210 H 1288.03 -1.69759 -0.957487 0
M  V30 13211 H 1287.12 -1.90675 -2.47082 0
M  V30 13212 N 1287.43 1.02549 -1.19673 0
M  V30 13213 C 1288.67 1.76382 -1.01296 0
M  V30 13214 C 1289.03 1.87036 0.451162 0
M  V30 13215 O 1288.32 1.37859 1.33062 0
M  V30 13216 C 1288.51 3.18597 -1.61959 0
M  V30 13217 C 1288.34 3.21808 -3.14117 0
M  V30 13218 C 1287.11 3.2956 -3.83038 0
M  V30 13219 C 1289.31 3.08576 -4.11443 0
M  V30 13220 N 1287.29 3.22181 -5.22564 0
M  V30 13221 C 1288.66 3.08868 -5.37588 0
M  V30 13222 C 1290.72 2.92728 -4.02759 0
M  V30 13223 C 1289.42 2.94938 -6.56052 0
M  V30 13224 C 1291.45 2.80149 -5.20837 0
M  V30 13225 C 1290.81 2.81098 -6.45882 0
M  V30 13226 H 1286.91 0.656544 -0.424822 0
M  V30 13227 H 1289.49 1.22046 -1.517 0
M  V30 13228 H 1287.66 3.71247 -1.14151 0
M  V30 13229 H 1289.4 3.80812 -1.36984 0
M  V30 13230 H 1286.15 3.3592 -3.33848 0
M  V30 13231 H 1286.57 3.21889 -5.95581 0
M  V30 13232 H 1291.22 2.90814 -3.069 0
M  V30 13233 H 1288.93 2.95603 -7.52093 0
M  V30 13234 H 1292.52 2.68917 -5.15921 0
M  V30 13235 H 1291.4 2.71471 -7.35713 0
M  V30 13236 N 1288.9 1.00119 1.21713 0
M  V30 13237 C 1289.85 0.558388 2.23943 0
M  V30 13238 C 1290.82 -0.413576 1.60869 0
M  V30 13239 O 1292.01 -0.316478 1.88157 0
M  V30 13240 C 1289.15 -0.112618 3.44916 0
M  V30 13241 C 1288.26 0.902071 4.22477 0
M  V30 13242 C 1287.39 0.203722 5.30809 0
M  V30 13243 C 1286.43 1.20622 6.00097 0
M  V30 13244 N 1285.57 0.535607 7.00054 0
M  V30 13245 H 1290.41 1.43486 2.61182 0
M  V30 13246 H 1287.95 0.718572 1.28355 0
M  V30 13247 H 1289.9 -0.51865 4.13964 0
M  V30 13248 H 1288.53 -0.952827 3.08417 0
M  V30 13249 H 1287.59 1.42637 3.52645 0
M  V30 13250 H 1288.9 1.66513 4.70186 0
M  V30 13251 H 1288.05 -0.258614 6.06149 0
M  V30 13252 H 1286.79 -0.591773 4.84096 0
M  V30 13253 H 1285.8 1.6791 5.23532 0
M  V30 13254 H 1287.02 2.00273 6.48897 0
M  V30 13255 H 1284.97 -0.2403 6.5556 0
M  V30 13256 H 1284.88 1.23698 7.45812 0
M  V30 13257 H 1286.15 0.0963489 7.7944 0
M  V30 13258 N 1290.38 -1.37203 0.775435 0
M  V30 13259 C 1291.31 -2.28873 0.122374 0
M  V30 13260 C 1292.33 -1.48811 -0.660239 0
M  V30 13261 O 1293.52 -1.7142 -0.497724 0
M  V30 13262 C 1290.62 -3.28062 -0.850212 0
M  V30 13263 C 1289.79 -4.37234 -0.120633 0
M  V30 13264 C 1288.85 -5.16472 -1.00712 0
M  V30 13265 O 1287.87 -5.6726 -0.469528 0
M  V30 13266 N 1289.08 -5.31556 -2.33299 0
M  V30 13267 H 1291.84 -2.85559 0.909741 0
M  V30 13268 H 1289.4 -1.49219 0.628107 0
M  V30 13269 H 1291.39 -3.77956 -1.44678 0
M  V30 13270 H 1289.96 -2.72118 -1.53853 0
M  V30 13271 H 1289.18 -3.88688 0.656879 0
M  V30 13272 H 1290.47 -5.07354 0.383358 0
M  V30 13273 H 1289.87 -4.91883 -2.79406 0
M  V30 13274 H 1288.43 -5.84745 -2.87953 0
M  V30 13275 N 1291.86 -0.526279 -1.48553 0
M  V30 13276 C 1292.81 0.238513 -2.29564 0
M  V30 13277 C 1293.78 0.937222 -1.37133 0
M  V30 13278 O 1294.96 0.93897 -1.66096 0
M  V30 13279 C 1292.1 1.28173 -3.20415 0
M  V30 13280 C 1291.21 0.592244 -4.27921 0
M  V30 13281 C 1290.35 1.61808 -5.05956 0
M  V30 13282 C 1289.39 0.911846 -6.0527 0
M  V30 13283 N 1288.53 1.88305 -6.76377 0
M  V30 13284 H 1293.37 -0.458502 -2.94452 0
M  V30 13285 H 1290.9 -0.237948 -1.45163 0
M  V30 13286 H 1292.86 1.89883 -3.71484 0
M  V30 13287 H 1291.49 1.94718 -2.57458 0
M  V30 13288 H 1290.54 -0.138714 -3.80147 0
M  V30 13289 H 1291.85 0.0375427 -4.98786 0
M  V30 13290 H 1291.01 2.30956 -5.61021 0
M  V30 13291 H 1289.75 2.20667 -4.34922 0
M  V30 13292 H 1288.75 0.206273 -5.49413 0
M  V30 13293 H 1289.98 0.329415 -6.78301 0
M  V30 13294 H 1287.92 2.46079 -6.08096 0
M  V30 13295 H 1287.84 1.37969 -7.43304 0
M  V30 13296 H 1289.11 2.56663 -7.36033 0
M  V30 13297 N 1293.34 1.5542 -0.261239 0
M  V30 13298 C 1294.75 1.85161 0.239195 0
M  V30 13299 C 1295.1 1.18319 1.56509 0
M  V30 13300 O 1294.22 0.4666 2.1131 0
M  V30 13301 C 1294.82 3.3592 0.440781 0
M  V30 13302 C 1293.38 3.65837 0.885461 0
M  V30 13303 C 1292.53 2.77285 -0.0291982 0
M  V30 13304 H 1295.48 1.51158 -0.483417 0
M  V30 13305 H 1295.5 3.58276 1.28136 0
M  V30 13306 H 1295.01 3.84541 -0.524382 0
M  V30 13307 H 1293.11 3.22705 1.86259 0
M  V30 13308 H 1293.22 4.73469 0.732394 0
M  V30 13309 H 1291.59 2.50045 0.484701 0
M  V30 13310 H 1292.37 3.28716 -0.989992 0
M  V30 13311 N 1294.82 -0.0116844 1.57596 0
M  V30 13312 C 1295.76 -1.02514 2.08791 0
M  V30 13313 C 1296.76 -1.36341 1.00536 0
M  V30 13314 O 1297.96 -1.35042 1.19011 0
M  V30 13315 H 1294.34 -0.348201 0.666528 0
M  V30 13316 H 1296.31 -0.567698 2.9295 0
M  V30 13317 C 1295.06 -2.312 2.59696 0
M  V30 13318 H 1294.38 -2.06036 3.42621 0
M  V30 13319 H 1295.82 -3.00417 2.99208 0
M  V30 13320 C 1294.28 -3.01372 1.50586 0
M  V30 13321 O 1294.81 -3.91896 0.882046 0
M  V30 13322 N 1293.02 -2.62997 1.23616 0
M  V30 13323 H 1292.56 -1.89466 1.74529 0
M  V30 13324 H 1292.52 -3.10264 0.508289 0
M  V30 13325 N 1296.29 -1.55015 -0.284256 0
M  V30 13326 C 1297.22 -1.90128 -1.3555 0
M  V30 13327 C 1298.2 -0.761914 -1.52082 0
M  V30 13328 O 1299.39 -1.01909 -1.65312 0
M  V30 13329 C 1296.52 -2.16332 -2.71695 0
M  V30 13330 C 1295.47 -3.32166 -2.69907 0
M  V30 13331 C 1294.8 -3.43824 -4.09498 0
M  V30 13332 C 1296.1 -4.6885 -2.30168 0
M  V30 13333 H 1297.79 -2.79852 -1.06411 0
M  V30 13334 H 1295.34 -1.34649 -0.510451 0
M  V30 13335 H 1297.29 -2.39482 -3.46737 0
M  V30 13336 H 1296.02 -1.23395 -3.02392 0
M  V30 13337 H 1294.68 -3.08965 -1.97322 0
M  V30 13338 H 1294.32 -2.48375 -4.374 0
M  V30 13339 H 1294.02 -4.21698 -4.092 0
M  V30 13340 H 1295.55 -3.69254 -4.86296 0
M  V30 13341 H 1296.96 -4.91619 -2.9493 0
M  V30 13342 H 1295.36 -5.49558 -2.41052 0
M  V30 13343 H 1296.43 -4.68433 -1.25294 0
M  V30 13344 N 1297.77 0.548248 -1.47757 0
M  V30 13345 C 1298.72 1.67553 -1.61335 0
M  V30 13346 C 1299.71 1.62447 -0.480335 0
M  V30 13347 O 1300.92 1.67525 -0.658445 0
M  V30 13348 H 1297.29 0.55457 -0.507894 0
M  V30 13349 H 1299.27 1.53239 -2.56047 0
M  V30 13350 C 1298.01 3.05883 -1.6532 0
M  V30 13351 H 1297.34 3.10497 -2.51856 0
M  V30 13352 H 1298.78 3.84424 -1.78868 0
M  V30 13353 C 1297.24 3.34656 -0.388238 0
M  V30 13354 O 1297.77 3.9849 0.506816 0
M  V30 13355 N 1295.97 2.89384 -0.265514 0
M  V30 13356 H 1295.52 2.37615 -0.994819 0
M  V30 13357 H 1295.48 3.09006 0.579889 0
M  V30 13358 N 1299.25 1.36039 0.795694 0
M  V30 13359 C 1300.21 1.29709 1.88966 0
M  V30 13360 C 1301.21 0.206142 1.59473 0
M  V30 13361 O 1302.4 0.460534 1.68002 0
M  V30 13362 C 1299.53 1.00922 3.25619 0
M  V30 13363 H 1300.73 2.26993 1.95995 0
M  V30 13364 H 1298.28 1.2072 0.992791 0
M  V30 13365 H 1299.02 0.0407027 3.24274 0
M  V30 13366 H 1298.8 1.79863 3.48413 0
M  V30 13367 H 1300.29 0.990826 4.05675 0
M  V30 13368 N 1300.73 -1.01913 1.20215 0
M  V30 13369 C 1301.98 -1.74878 1.00502 0
M  V30 13370 C 1302.29 -1.90022 -0.463792 0
M  V30 13371 O 1303.5 -2.60055 -0.779982 0
M  V30 13372 C 1301.95 -3.1452 1.74943 0
M  V30 13373 C 1301.56 -3.07397 3.259 0
M  V30 13374 C 1303.3 -3.91713 1.63589 0
M  V30 13375 C 1301.21 -4.42032 3.92889 0
M  V30 13376 H 1300.14 -0.655603 0.372426 0
M  V30 13377 H 1302.79 -1.13978 1.4381 0
M  V30 13378 H 1301.17 -3.75946 1.24421 0
M  V30 13379 H 1302.35 -2.55294 3.83617 0
M  V30 13380 H 1300.66 -2.43698 3.37639 0
M  V30 13381 H 1303.26 -4.91316 2.1098 0
M  V30 13382 H 1303.6 -4.12074 0.591665 0
M  V30 13383 H 1304.14 -3.3691 2.11511 0
M  V30 13384 H 1300.88 -4.26874 4.97453 0
M  V30 13385 H 1300.4 -4.94151 3.39962 0
M  V30 13386 H 1302.07 -5.10884 3.96997 0
M  V30 13387 N 1302.21 -1.00763 -1.2118 0
M  V30 13388 C 1303.62 -0.720905 -1.42391 0
M  V30 13389 C 1303.82 0.702918 -1.88842 0
M  V30 13390 O 1302.88 1.47191 -2.05161 0
M  V30 13391 C 1304.19 -1.739 -2.45315 0
M  V30 13392 C 1305.74 -1.75611 -2.59094 0
M  V30 13393 C 1306.21 -2.76323 -3.65253 0
M  V30 13394 N 1307.71 -2.75007 -3.72727 0
M  V30 13395 C 1308.44 -3.49594 -4.54502 0
M  V30 13396 N 1307.94 -4.33828 -5.40153 0
M  V30 13397 N 1309.73 -3.38232 -4.4895 0
M  V30 13398 H 1301.88 -1.92697 -0.893404 0
M  V30 13399 H 1304.14 -0.831888 -0.454606 0
M  V30 13400 H 1303.85 -2.75859 -2.18162 0
M  V30 13401 H 1303.72 -1.5438 -3.44161 0
M  V30 13402 H 1306.11 -0.743416 -2.85582 0
M  V30 13403 H 1306.19 -1.99203 -1.60474 0
M  V30 13404 H 1305.84 -3.77751 -3.39509 0
M  V30 13405 H 1305.77 -2.49996 -4.63476 0
M  V30 13406 H 1308.26 -2.13897 -3.11539 0
M  V30 13407 H 1308.57 -4.8753 -5.99612 0
M  V30 13408 H 1306.91 -4.3791 -5.39685 0
M  V30 13409 H 1310.11 -2.71855 -3.81068 0
M  V30 13410 H 1310.28 -3.96615 -5.12445 0
M  V30 13411 N 1303.68 1.3679 -0.7827 0
M  V30 13412 C 1304.91 2.04206 -0.362571 0
M  V30 13413 C 1305.33 1.58637 1.01074 0
M  V30 13414 O 1304.69 0.751692 1.64983 0
M  V30 13415 C 1304.74 3.58062 -0.4271 0
M  V30 13416 O 1303.84 4.08463 0.56845 0
M  V30 13417 H 1303.19 0.645638 -0.155073 0
M  V30 13418 H 1305.72 1.74883 -1.06194 0
M  V30 13419 H 1305.73 4.0698 -0.288298 0
M  V30 13420 H 1304.4 3.90582 -1.42893 0
M  V30 13421 H 1302.98 3.70835 0.391863 0
M  V30 13422 N 1305.16 0.53415 1.48272 0
M  V30 13423 C 1306.09 -0.215037 2.32508 0
M  V30 13424 C 1307.07 -0.931083 1.42355 0
M  V30 13425 O 1308.26 -0.916051 1.71237 0
M  V30 13426 C 1305.39 -1.25985 3.23643 0
M  V30 13427 C 1304.34 -0.661692 4.22854 0
M  V30 13428 C 1303.67 -1.80946 5.03153 0
M  V30 13429 C 1304.97 0.369358 5.20992 0
M  V30 13430 H 1306.66 0.488158 2.95394 0
M  V30 13431 H 1304.21 0.236206 1.4205 0
M  V30 13432 H 1306.16 -1.79195 3.81402 0
M  V30 13433 H 1304.89 -1.99268 2.58766 0
M  V30 13434 H 1303.54 -0.151082 3.66289 0
M  V30 13435 H 1303.19 -2.53077 4.34696 0
M  V30 13436 H 1302.89 -1.41513 5.70305 0
M  V30 13437 H 1304.42 -2.34526 5.63764 0
M  V30 13438 H 1305.83 -0.0758076 5.7325 0
M  V30 13439 H 1304.23 0.681301 5.9622 0
M  V30 13440 H 1305.3 1.27363 4.67875 0
M  V30 13441 N 1306.64 -1.55279 0.269478 0
M  V30 13442 C 1307.55 -2.25965 -0.63065 0
M  V30 13443 C 1308.57 -1.28357 -1.17476 0
M  V30 13444 O 1309.74 -1.61281 -1.20625 0
M  V30 13445 C 1306.81 -2.96263 -1.80081 0
M  V30 13446 C 1305.87 -4.09336 -1.29394 0
M  V30 13447 C 1305.1 -4.76272 -2.40833 0
M  V30 13448 O 1305.32 -4.42389 -3.60066 0
M  V30 13449 O 1304.26 -5.64334 -2.09309 0
M  V30 13450 H 1308.08 -3.03644 -0.0582069 0
M  V30 13451 H 1305.67 -1.49354 0.0370966 0
M  V30 13452 H 1307.55 -3.40461 -2.48322 0
M  V30 13453 H 1306.23 -2.21505 -2.36045 0
M  V30 13454 H 1305.13 -3.69605 -0.578154 0
M  V30 13455 H 1306.47 -4.85978 -0.780117 0
M  V30 13456 N 1308.12 0.00332656 -1.576 0
M  V30 13457 C 1309.08 0.980628 -2.07163 0
M  V30 13458 C 1310.08 1.27455 -0.980402 0
M  V30 13459 O 1311.27 1.22029 -1.24317 0
M  V30 13460 C 1308.4 2.30647 -2.51028 0
M  V30 13461 H 1309.6 0.551982 -2.94776 0
M  V30 13462 H 1307.15 0.250728 -1.54276 0
M  V30 13463 H 1307.88 2.78207 -1.66647 0
M  V30 13464 H 1307.67 2.10635 -3.30719 0
M  V30 13465 H 1309.16 3.00761 -2.89711 0
M  V30 13466 N 1309.6 1.55164 0.276031 0
M  V30 13467 C 1310.84 1.75887 1.00953 0
M  V30 13468 C 1311.18 0.5567 1.8605 0
M  V30 13469 O 1310.45 -0.445799 1.89322 0
M  V30 13470 C 1310.73 3.06228 1.89463 0
M  V30 13471 C 1310.59 4.36795 1.07379 0
M  V30 13472 C 1311.91 3.32589 2.88223 0
M  V30 13473 H 1309.02 0.639929 0.365596 0
M  V30 13474 H 1311.67 1.87893 0.282156 0
M  V30 13475 H 1309.82 2.96124 2.51481 0
M  V30 13476 H 1311.49 4.58853 0.474549 0
M  V30 13477 H 1309.73 4.32157 0.377165 0
M  V30 13478 H 1310.4 5.24315 1.72621 0
M  V30 13479 H 1312.88 3.42467 2.36338 0
M  V30 13480 H 1311.75 4.2506 3.47297 0
M  V30 13481 H 1312.02 2.52083 3.6319 0
M  V30 13482 N 1311.07 -0.540404 1.48045 0
M  V30 13483 C 1312.32 -1.2932 1.54787 0
M  V30 13484 C 1312.64 -1.94335 0.222109 0
M  V30 13485 O 1313.84 -2.70982 0.167675 0
M  V30 13486 C 1312.3 -2.34594 2.72935 0
M  V30 13487 C 1311.91 -1.75696 4.1211 0
M  V30 13488 C 1313.65 -3.10949 2.88982 0
M  V30 13489 C 1311.56 -2.78849 5.21534 0
M  V30 13490 H 1310.49 -0.486315 0.576206 0
M  V30 13491 H 1313.14 -0.571998 1.74357 0
M  V30 13492 H 1311.52 -3.09704 2.46778 0
M  V30 13493 H 1312.69 -1.06845 4.48242 0
M  V30 13494 H 1311.01 -1.11869 4.01091 0
M  V30 13495 H 1313.61 -3.88012 3.679 0
M  V30 13496 H 1313.95 -3.66173 1.98048 0
M  V30 13497 H 1314.48 -2.42953 3.1499 0
M  V30 13498 H 1311.22 -2.28459 6.144 0
M  V30 13499 H 1310.74 -3.46059 4.89901 0
M  V30 13500 H 1312.42 -3.4203 5.49203 0
M  V30 13501 N 1312.55 -1.36459 -0.788468 0
M  V30 13502 C 1313.97 -1.16893 -1.08666 0
M  V30 13503 C 1314.17 0.00633808 -2.01499 0
M  V30 13504 O 1313.22 0.671417 -2.4341 0
M  V30 13505 C 1314.54 -2.48018 -1.70022 0
M  V30 13506 C 1316.09 -2.5439 -1.82358 0
M  V30 13507 C 1316.56 -3.85605 -2.47129 0
M  V30 13508 N 1318.05 -3.86956 -2.54597 0
M  V30 13509 C 1318.79 -4.85224 -3.05525 0
M  V30 13510 N 1318.28 -5.93885 -3.56753 0
M  V30 13511 N 1320.08 -4.72643 -3.04246 0
M  V30 13512 H 1312.23 -2.11705 -0.171733 0
M  V30 13513 H 1314.49 -0.937784 -0.1388 0
M  V30 13514 H 1314.2 -3.34292 -1.09277 0
M  V30 13515 H 1314.07 -2.63894 -2.69518 0
M  V30 13516 H 1316.46 -1.68534 -2.4224 0
M  V30 13517 H 1316.54 -2.42414 -0.816651 0
M  V30 13518 H 1316.18 -4.71868 -1.87891 0
M  V30 13519 H 1316.11 -3.94878 -3.48395 0
M  V30 13520 H 1318.6 -3.08453 -2.18323 0
M  V30 13521 H 1318.92 -6.64839 -3.93966 0
M  V30 13522 H 1317.26 -5.97553 -3.54902 0
M  V30 13523 H 1320.45 -3.86883 -2.63513 0
M  V30 13524 H 1320.62 -5.49385 -3.43627 0
M  V30 13525 N 1314.03 1.01274 -1.20754 0
M  V30 13526 C 1315.28 1.75191 -1.02156 0
M  V30 13527 C 1315.61 1.89038 0.444791 0
M  V30 13528 O 1314.88 1.41903 1.33018 0
M  V30 13529 C 1315.17 3.16892 -1.71031 0
M  V30 13530 C 1315.02 3.10816 -3.25136 0
M  V30 13531 C 1316.34 4.15648 -1.44654 0
M  V30 13532 H 1313.46 0.635922 -0.372521 0
M  V30 13533 H 1316.1 1.18119 -1.48822 0
M  V30 13534 H 1314.25 3.6562 -1.31357 0
M  V30 13535 H 1315.92 2.69863 -3.74128 0
M  V30 13536 H 1314.17 2.48113 -3.5584 0
M  V30 13537 H 1314.84 4.11001 -3.68487 0
M  V30 13538 H 1317.31 3.75592 -1.7908 0
M  V30 13539 H 1316.19 5.12954 -1.95371 0
M  V30 13540 H 1316.45 4.40507 -0.37494 0
M  V30 13541 N 1315.51 1.01404 1.20644 0
M  V30 13542 C 1316.46 0.552956 2.21193 0
M  V30 13543 C 1317.44 -0.390324 1.56094 0
M  V30 13544 O 1318.64 -0.213705 1.75705 0
M  V30 13545 C 1315.76 -0.10995 3.43124 0
M  V30 13546 C 1314.85 0.854886 4.15394 0
M  V30 13547 N 1315.24 2.01137 4.64088 0
M  V30 13548 C 1313.54 0.675168 4.4086 0
M  V30 13549 C 1314.24 2.6187 5.19422 0
M  V30 13550 N 1313.22 1.89952 5.09332 0
M  V30 13551 H 1317.02 1.43467 2.56504 0
M  V30 13552 H 1314.53 0.87905 1.36552 0
M  V30 13553 H 1316.53 -0.457802 4.14379 0
M  V30 13554 H 1315.19 -0.987534 3.09318 0
M  V30 13555 H 1316.2 2.3914 4.59383 0
M  V30 13556 H 1312.88 -0.154577 4.17214 0
M  V30 13557 H 1314.27 3.59727 5.67491 0
M  V30 13558 N 1316.99 -1.36373 0.789944 0
M  V30 13559 C 1318.21 -2.04011 0.373396 0
M  V30 13560 C 1318.64 -1.59171 -1.00231 0
M  V30 13561 O 1318 -0.760431 -1.64582 0
M  V30 13562 C 1318.04 -3.5783 0.446083 0
M  V30 13563 O 1317.15 -4.08759 -0.54678 0
M  V30 13564 H 1316.49 -0.644807 0.158495 0
M  V30 13565 H 1319.02 -1.74317 1.0712 0
M  V30 13566 H 1319.03 -4.06822 0.309877 0
M  V30 13567 H 1317.7 -3.89819 1.44962 0
M  V30 13568 H 1316.28 -3.71038 -0.372192 0
M  V30 13569 N 1318.47 -0.542005 -1.47987 0
M  V30 13570 C 1319.41 0.214151 -2.29804 0
M  V30 13571 C 1320.38 0.922625 -1.38119 0
M  V30 13572 O 1321.57 0.921301 -1.67083 0
M  V30 13573 C 1318.71 1.24768 -3.21756 0
M  V30 13574 C 1317.82 0.546824 -4.28525 0
M  V30 13575 C 1316.96 1.56432 -5.07644 0
M  V30 13576 C 1315.99 0.847598 -6.06203 0
M  V30 13577 N 1315.13 1.81121 -6.78336 0
M  V30 13578 H 1319.97 -0.489707 -2.93949 0
M  V30 13579 H 1317.51 -0.253331 -1.44902 0
M  V30 13580 H 1319.47 1.85933 -3.73477 0
M  V30 13581 H 1318.1 1.91976 -2.59509 0
M  V30 13582 H 1317.15 -0.179026 -3.79978 0
M  V30 13583 H 1318.46 -0.0153623 -4.98798 0
M  V30 13584 H 1317.61 2.24992 -5.63439 0
M  V30 13585 H 1316.35 2.16041 -4.37238 0
M  V30 13586 H 1315.36 0.147989 -5.49601 0
M  V30 13587 H 1316.58 0.257454 -6.78612 0
M  V30 13588 H 1314.53 2.39615 -6.10672 0
M  V30 13589 H 1314.45 1.30077 -7.44725 0
M  V30 13590 H 1315.71 2.48842 -7.38714 0
M  V30 13591 N 1319.94 1.55134 -0.277709 0
M  V30 13592 C 1321.17 2.03765 0.341106 0
M  V30 13593 C 1321.58 1.15543 1.49822 0
M  V30 13594 O 1320.92 0.168642 1.82924 0
M  V30 13595 C 1320.99 3.48513 0.881974 0
M  V30 13596 C 1320.65 4.56764 -0.146837 0
M  V30 13597 C 1321.65 5.10823 -0.967252 0
M  V30 13598 C 1319.33 5.01509 -0.281824 0
M  V30 13599 C 1321.33 6.08147 -1.90882 0
M  V30 13600 C 1319.01 5.98658 -1.22686 0
M  V30 13601 C 1320.01 6.51859 -2.03886 0
M  V30 13602 O 1319.7 7.47108 -2.96791 0
M  V30 13603 H 1319.43 0.671068 0.0815052 0
M  V30 13604 H 1321.99 2.013 -0.408341 0
M  V30 13605 H 1320.22 3.48226 1.68154 0
M  V30 13606 H 1321.9 3.80469 1.41416 0
M  V30 13607 H 1322.67 4.77065 -0.873714 0
M  V30 13608 H 1318.55 4.59743 0.340203 0
M  V30 13609 H 1322.09 6.49597 -2.54301 0
M  V30 13610 H 1317.99 6.31834 -1.32121 0
M  V30 13611 H 1318.76 7.64832 -2.91502 0
M  V30 13612 N 1321.42 0.00503138 1.57599 0
M  V30 13613 C 1322.67 -0.674107 1.91905 0
M  V30 13614 C 1323.02 -1.71101 0.8799 0
M  V30 13615 O 1322.32 -1.913 -0.107261 0
M  V30 13616 C 1322.51 -1.35485 3.30724 0
M  V30 13617 C 1322.34 -0.385403 4.48045 0
M  V30 13618 C 1321.11 0.00602574 5.053 0
M  V30 13619 C 1323.31 0.350442 5.13105 0
M  V30 13620 N 1321.29 0.97316 6.06138 0
M  V30 13621 C 1322.66 1.1721 6.0882 0
M  V30 13622 C 1324.71 0.413738 4.96178 0
M  V30 13623 C 1323.42 2.05129 6.89431 0
M  V30 13624 C 1325.44 1.28018 5.77378 0
M  V30 13625 C 1324.81 2.08967 6.7269 0
M  V30 13626 H 1320.9 -0.219721 0.750498 0
M  V30 13627 H 1323.49 0.0665598 1.94586 0
M  V30 13628 H 1321.66 -2.06578 3.28907 0
M  V30 13629 H 1323.39 -1.98909 3.52445 0
M  V30 13630 H 1320.15 -0.363403 4.72204 0
M  V30 13631 H 1320.57 1.45225 6.6124 0
M  V30 13632 H 1325.21 -0.19783 4.22337 0
M  V30 13633 H 1322.93 2.67351 7.62594 0
M  V30 13634 H 1326.52 1.33313 5.66321 0
M  V30 13635 H 1325.4 2.74926 7.34428 0
M  V30 13636 N 1322.9 -1.55308 -0.267798 0
M  V30 13637 C 1324.15 -1.75811 -0.996734 0
M  V30 13638 C 1324.47 -0.565161 -1.8663 0
M  V30 13639 O 1323.74 0.419775 -1.9135 0
M  V30 13640 H 1322.32 -0.648353 -0.371008 0
M  V30 13641 H 1324.98 -1.92719 -0.290775 0
M  V30 13642 H 1324.08 -2.66113 -1.63064 0
M  V30 13643 N 1324.38 0.532545 -1.4833 0
M  V30 13644 C 1325.62 1.29902 -1.57812 0
M  V30 13645 C 1325.98 1.90427 -0.245283 0
M  V30 13646 O 1327.18 2.67938 -0.215083 0
M  V30 13647 C 1325.45 2.36119 -2.68296 0
M  V30 13648 S 1327.01 3.22526 -2.97527 0
M  V30 13649 H 1323.83 0.441908 -0.55699 0
M  V30 13650 H 1326.43 0.606983 -1.85839 0
M  V30 13651 H 1325.14 1.90131 -3.63701 0
M  V30 13652 H 1324.67 3.10033 -2.42163 0
M  V30 13653 H 1326.68 4.36144 -2.36628 0
M  V30 13654 N 1325.86 1.36875 0.78122 0
M  V30 13655 C 1326.79 1.26232 1.90107 0
M  V30 13656 C 1327.77 0.144779 1.61954 0
M  V30 13657 O 1328.95 0.317344 1.8581 0
M  V30 13658 C 1326.08 0.949543 3.25117 0
M  V30 13659 C 1325.12 2.08266 3.72193 0
M  V30 13660 S 1325.96 3.70141 3.86983 0
M  V30 13661 C 1327.11 3.40994 5.24856 0
M  V30 13662 H 1327.35 2.21016 1.98844 0
M  V30 13663 H 1324.88 1.22387 0.941324 0
M  V30 13664 H 1326.84 0.775902 4.031 0
M  V30 13665 H 1325.5 0.0193416 3.14094 0
M  V30 13666 H 1324.69 1.81858 4.70046 0
M  V30 13667 H 1324.29 2.21595 3.01284 0
M  V30 13668 H 1326.58 2.95395 6.09711 0
M  V30 13669 H 1327.53 4.38141 5.56272 0
M  V30 13670 H 1327.94 2.76146 4.92345 0
M  V30 13671 N 1327.33 -1.00632 1.21289 0
M  V30 13672 C 1328.27 -2.0954 0.928753 0
M  V30 13673 C 1329.28 -1.62565 -0.0875212 0
M  V30 13674 O 1330.47 -1.77912 0.144808 0
M  V30 13675 C 1327.57 -3.36844 0.37276 0
M  V30 13676 C 1326.74 -4.1291 1.44305 0
M  V30 13677 C 1325.8 -5.18506 0.896534 0
M  V30 13678 O 1324.83 -5.46841 1.57966 0
M  V30 13679 N 1326.03 -5.79781 -0.288888 0
M  V30 13680 H 1328.79 -2.34499 1.86629 0
M  V30 13681 H 1326.35 -1.17104 1.11796 0
M  V30 13682 H 1328.35 -4.04699 -0.00722737 0
M  V30 13683 H 1326.92 -3.09053 -0.469572 0
M  V30 13684 H 1326.14 -3.39876 1.99694 0
M  V30 13685 H 1327.42 -4.60508 2.16356 0
M  V30 13686 H 1326.82 -5.5911 -0.860951 0
M  V30 13687 H 1325.38 -6.48936 -0.6104 0
M  V30 13688 N 1328.81 -1.02043 -1.20104 0
M  V30 13689 C 1330.23 -0.735967 -1.41618 0
M  V30 13690 C 1330.43 0.68285 -1.89577 0
M  V30 13691 O 1329.48 1.45007 -2.06711 0
M  V30 13692 C 1330.8 -1.76492 -2.43457 0
M  V30 13693 C 1332.34 -1.78349 -2.57217 0
M  V30 13694 C 1332.82 -2.80181 -3.62302 0
M  V30 13695 N 1334.31 -2.78945 -3.69789 0
M  V30 13696 C 1335.05 -3.54395 -4.50768 0
M  V30 13697 N 1334.54 -4.39533 -5.35521 0
M  V30 13698 N 1336.33 -3.42974 -4.45337 0
M  V30 13699 H 1328.49 -1.93634 -0.872916 0
M  V30 13700 H 1330.75 -0.836663 -0.445757 0
M  V30 13701 H 1330.45 -2.78158 -2.15223 0
M  V30 13702 H 1330.33 -1.58022 -3.42504 0
M  V30 13703 H 1332.72 -0.773665 -2.84778 0
M  V30 13704 H 1332.8 -2.00894 -1.58352 0
M  V30 13705 H 1332.44 -3.81331 -3.35484 0
M  V30 13706 H 1332.37 -2.54898 -4.60798 0
M  V30 13707 H 1334.86 -2.17189 -3.09253 0
M  V30 13708 H 1335.17 -4.93863 -5.94407 0
M  V30 13709 H 1333.52 -4.43609 -5.3501 0
M  V30 13710 H 1336.71 -2.75881 -3.78163 0
M  V30 13711 H 1336.88 -4.02028 -5.0821 0
M  V30 13712 N 1330.29 1.35952 -0.797165 0
M  V30 13713 C 1331.22 2.32506 -0.215277 0
M  V30 13714 C 1332.2 1.57023 0.654046 0
M  V30 13715 O 1333.39 1.85139 0.586268 0
M  V30 13716 C 1330.52 3.41266 0.644557 0
M  V30 13717 C 1329.47 4.27816 -0.125501 0
M  V30 13718 C 1328.8 5.27813 0.855428 0
M  V30 13719 C 1330.1 5.05367 -1.31913 0
M  V30 13720 H 1331.79 2.8142 -1.02193 0
M  V30 13721 H 1329.34 1.35303 -0.492862 0
M  V30 13722 H 1331.29 4.07808 1.06163 0
M  V30 13723 H 1330.01 2.90938 1.484 0
M  V30 13724 H 1328.67 3.62841 -0.523639 0
M  V30 13725 H 1328.32 4.73755 1.69011 0
M  V30 13726 H 1328.02 5.86589 0.344566 0
M  V30 13727 H 1329.54 5.97227 1.2709 0
M  V30 13728 H 1330.96 5.64907 -0.977418 0
M  V30 13729 H 1329.36 5.73593 -1.76382 0
M  V30 13730 H 1330.43 4.36558 -2.11057 0
M  V30 13731 N 1331.77 0.549846 1.47697 0
M  V30 13732 C 1332.73 -0.191427 2.28399 0
M  V30 13733 C 1333.73 -0.849533 1.36527 0
M  V30 13734 O 1334.92 -0.706526 1.59229 0
M  V30 13735 C 1332.05 -1.27907 3.15995 0
M  V30 13736 H 1333.25 0.517375 2.95404 0
M  V30 13737 H 1330.8 0.30651 1.53265 0
M  V30 13738 H 1331.53 -2.0205 2.53665 0
M  V30 13739 H 1331.32 -0.812066 3.83599 0
M  V30 13740 H 1332.81 -1.79992 3.76819 0
M  V30 13741 N 1333.25 -1.54984 0.285932 0
M  V30 13742 C 1334.47 -2.04699 -0.333621 0
M  V30 13743 C 1334.9 -1.16252 -1.47875 0
M  V30 13744 O 1334.25 -0.163376 -1.80562 0
M  V30 13745 C 1334.3 -3.52022 -0.78187 0
M  V30 13746 O 1333.41 -3.66639 -1.88812 0
M  V30 13747 H 1332.75 -0.660579 -0.0673203 0
M  V30 13748 H 1335.28 -2.00171 0.423386 0
M  V30 13749 H 1335.29 -3.93591 -1.07473 0
M  V30 13750 H 1333.96 -4.15862 0.055893 0
M  V30 13751 H 1332.54 -3.36974 -1.59696 0
M  V30 13752 N 1334.72 -0.0133892 -1.57594 0
M  V30 13753 C 1335.96 0.672977 -1.93004 0
M  V30 13754 C 1336.33 1.70188 -0.888816 0
M  V30 13755 O 1337.53 2.4396 -1.12859 0
M  V30 13756 C 1335.8 1.28743 -3.33407 0
M  V30 13757 S 1337.36 1.99706 -3.90721 0
M  V30 13758 H 1334.18 0.221972 -0.675462 0
M  V30 13759 H 1336.78 -0.0732871 -1.95363 0
M  V30 13760 H 1335.48 0.525931 -4.07016 0
M  V30 13761 H 1335.01 2.07134 -3.34454 0
M  V30 13762 H 1337.03 3.27375 -3.72881 0
M  V30 13763 N 1336.2 1.55448 0.259558 0
M  V30 13764 C 1337.61 1.67256 0.8296 0
M  V30 13765 C 1337.96 0.60851 1.86525 0
M  V30 13766 O 1337.09 -0.247563 2.14979 0
M  V30 13767 C 1337.68 3.03213 1.51152 0
M  V30 13768 C 1336.24 3.17004 2.02943 0
M  V30 13769 C 1335.39 2.63096 0.876103 0
M  V30 13770 H 1338.34 1.5866 0.0356218 0
M  V30 13771 H 1338.36 2.96952 2.37906 0
M  V30 13772 H 1337.87 3.80635 0.75752 0
M  V30 13773 H 1335.98 2.44381 2.81263 0
M  V30 13774 H 1336.09 4.23748 2.2355 0
M  V30 13775 H 1334.45 2.20596 1.27317 0
M  V30 13776 H 1335.24 3.43033 0.13539 0
M  V30 13777 N 1337.68 -0.524672 1.4861 0
M  V30 13778 C 1338.96 -1.28592 1.47389 0
M  V30 13779 C 1339.34 -2.10257 0.188482 0
M  V30 13780 O 1338.69 -2.12905 -0.829689 0
M  V30 13781 C 1338.9 -2.16284 2.73902 0
M  V30 13782 C 1340.24 -2.7625 3.22445 0
M  V30 13783 O 1341.27 -2.26567 2.74856 0
M  V30 13784 O 1340.13 -3.66635 4.05267 0
M  V30 13785 H 1337.22 -0.580666 0.58886 0
M  V30 13786 H 1339.77 -0.540888 1.60849 0
M  V30 13787 H 1338.54 -1.55757 3.58964 0
M  V30 13788 H 1338.16 -2.98024 2.63188 0
M  V30 13789 N 1339.16 -1.37287 -0.77395 0
M  V30 13790 C 1340.38 -1.35734 -1.56815 0
M  V30 13791 C 1340.81 0.0555546 -1.88018 0
M  V30 13792 O 1340.17 1.03197 -1.49064 0
M  V30 13793 C 1340.21 -2.2008 -2.85652 0
M  V30 13794 O 1339.32 -1.60391 -3.79932 0
M  V30 13795 H 1338.66 -0.463881 -0.47509 0
M  V30 13796 H 1341.19 -1.80781 -0.958087 0
M  V30 13797 H 1341.2 -2.33215 -3.34776 0
M  V30 13798 H 1339.87 -3.22781 -2.6227 0
M  V30 13799 H 1338.45 -1.56285 -3.3857 0
M  V30 13800 N 1340.64 0.999871 -1.21821 0
M  V30 13801 C 1341.88 1.74194 -1.05014 0
M  V30 13802 C 1342.24 1.8795 0.411388 0
M  V30 13803 O 1341.53 1.4065 1.30108 0
M  V30 13804 C 1341.72 3.1509 -1.6868 0
M  V30 13805 C 1341.55 3.15073 -3.20872 0
M  V30 13806 C 1340.32 3.21361 -3.89942 0
M  V30 13807 C 1342.52 2.9978 -4.17896 0
M  V30 13808 N 1340.5 3.11024 -5.2928 0
M  V30 13809 C 1341.87 2.97396 -5.44018 0
M  V30 13810 C 1343.93 2.84119 -4.08877 0
M  V30 13811 C 1342.63 2.80956 -6.6216 0
M  V30 13812 C 1344.66 2.69038 -5.26662 0
M  V30 13813 C 1344.02 2.67335 -6.51699 0
M  V30 13814 H 1340.12 0.647385 -0.438653 0
M  V30 13815 H 1342.7 1.18801 -1.54255 0
M  V30 13816 H 1340.87 3.68742 -1.22 0
M  V30 13817 H 1342.61 3.7782 -1.45031 0
M  V30 13818 H 1339.36 3.28763 -3.40898 0
M  V30 13819 H 1339.79 3.09184 -6.02274 0
M  V30 13820 H 1344.43 2.84238 -3.12999 0
M  V30 13821 H 1342.15 2.79583 -7.58194 0
M  V30 13822 H 1345.73 2.57913 -5.21509 0
M  V30 13823 H 1344.61 2.55805 -7.41305 0
M  V30 13824 N 1342.11 1.02678 1.19562 0
M  V30 13825 C 1343.36 0.723086 1.89471 0
M  V30 13826 C 1343.69 -0.746269 1.79289 0
M  V30 13827 O 1342.97 -1.54322 1.18384 0
M  V30 13828 C 1343.25 1.17224 3.40486 0
M  V30 13829 C 1343.1 2.70266 3.5955 0
M  V30 13830 C 1344.42 0.751397 4.33638 0
M  V30 13831 H 1341.54 0.264155 0.688034 0
M  V30 13832 H 1344.18 1.27633 1.40747 0
M  V30 13833 H 1342.33 0.701544 3.82113 0
M  V30 13834 H 1344.01 3.25266 3.27108 0
M  V30 13835 H 1342.25 3.10758 3.02675 0
M  V30 13836 H 1342.92 2.96748 4.65451 0
M  V30 13837 H 1345.4 1.15621 3.99714 0
M  V30 13838 H 1344.27 1.09358 5.37896 0
M  V30 13839 H 1344.53 -0.346367 4.40741 0
M  V30 13840 N 1343.59 -1.35528 0.804364 0
M  V30 13841 C 1345 -1.81321 0.444933 0
M  V30 13842 C 1345.35 -1.66816 -1.03281 0
M  V30 13843 O 1344.48 -1.19753 -1.80245 0
M  V30 13844 C 1345.07 -3.29199 0.800827 0
M  V30 13845 C 1343.63 -3.73144 0.494026 0
M  V30 13846 C 1342.78 -2.57557 1.02761 0
M  V30 13847 H 1345.73 -1.23537 0.996203 0
M  V30 13848 H 1345.75 -3.80375 0.0975117 0
M  V30 13849 H 1345.26 -3.39725 1.8764 0
M  V30 13850 H 1343.37 -3.68169 -0.572901 0
M  V30 13851 H 1343.48 -4.68005 1.0251 0
M  V30 13852 H 1341.84 -2.50692 0.450048 0
M  V30 13853 H 1342.63 -2.70861 2.10925 0
M  V30 13854 N 1345.07 -0.557671 -1.47404 0
M  V30 13855 C 1346.49 -0.217473 -1.58111 0
M  V30 13856 C 1346.69 1.28 -1.55622 0
M  V30 13857 O 1345.74 2.06019 -1.45988 0
M  V30 13858 C 1347.06 -0.844535 -2.88597 0
M  V30 13859 C 1348.6 -0.815807 -3.02181 0
M  V30 13860 C 1349.08 -1.42195 -4.35367 0
M  V30 13861 N 1350.57 -1.38515 -4.42004 0
M  V30 13862 C 1351.31 -1.82378 -5.43623 0
M  V30 13863 N 1350.8 -2.34098 -6.52051 0
M  V30 13864 N 1352.59 -1.73446 -5.34671 0
M  V30 13865 H 1344.75 -1.53058 -1.47265 0
M  V30 13866 H 1347.01 -0.638305 -0.700907 0
M  V30 13867 H 1346.71 -1.89696 -2.96156 0
M  V30 13868 H 1346.59 -0.337844 -3.75684 0
M  V30 13869 H 1348.98 0.227925 -2.94218 0
M  V30 13870 H 1349.06 -1.36026 -2.16635 0
M  V30 13871 H 1348.7 -2.46475 -4.44086 0
M  V30 13872 H 1348.63 -0.852932 -5.19647 0
M  V30 13873 H 1351.12 -1.00684 -3.64241 0
M  V30 13874 H 1351.43 -2.6549 -7.25765 0
M  V30 13875 H 1349.78 -2.38109 -6.52939 0
M  V30 13876 H 1352.97 -1.32816 -4.48862 0
M  V30 13877 H 1353.14 -2.07947 -6.13728 0
M  V30 13878 N 1346.55 1.54831 -0.294147 0
M  V30 13879 C 1347.8 2.00298 0.317605 0
M  V30 13880 C 1348.13 1.18228 1.54064 0
M  V30 13881 O 1347.4 0.257034 1.92794 0
M  V30 13882 C 1347.69 3.53602 0.680991 0
M  V30 13883 C 1347.54 4.46416 -0.550711 0
M  V30 13884 C 1348.86 4.13379 1.51016 0
M  V30 13885 H 1345.98 0.728135 0.113965 0
M  V30 13886 H 1348.62 1.85636 -0.404883 0
M  V30 13887 H 1346.77 3.66227 1.29654 0
M  V30 13888 H 1348.44 4.45707 -1.18922 0
M  V30 13889 H 1346.68 4.17294 -1.18524 0
M  V30 13890 H 1347.36 5.51423 -0.252412 0
M  V30 13891 H 1349.83 4.04148 0.99012 0
M  V30 13892 H 1348.71 5.20818 1.73321 0
M  V30 13893 H 1348.97 3.64817 2.49722 0
M  V30 13894 N 1348.03 0.0217466 1.57585 0
M  V30 13895 C 1349.44 -0.51811 1.79367 0
M  V30 13896 C 1349.79 -1.72688 0.931313 0
M  V30 13897 O 1348.91 -2.15949 0.139687 0
M  V30 13898 C 1349.51 -0.946711 3.25304 0
M  V30 13899 C 1348.07 -1.43173 3.48107 0
M  V30 13900 C 1347.22 -0.392996 2.74501 0
M  V30 13901 H 1350.17 0.247822 1.56753 0
M  V30 13902 H 1350.19 -1.81152 3.34611 0
M  V30 13903 H 1349.7 -0.0667536 3.88043 0
M  V30 13904 H 1347.8 -2.33186 2.90612 0
M  V30 13905 H 1347.91 -1.44419 4.56815 0
M  V30 13906 H 1346.28 -0.859471 2.39761 0
M  V30 13907 H 1347.06 0.478368 3.39951 0
M  V30 13908 N 1349.51 -1.55583 -0.251311 0
M  V30 13909 C 1350.75 -1.76859 -0.978031 0
M  V30 13910 C 1351.07 -0.584924 -1.86021 0
M  V30 13911 O 1350.34 0.399456 -1.91784 0
M  V30 13912 H 1348.92 -0.652252 -0.364111 0
M  V30 13913 H 1351.59 -1.93016 -0.270319 0
M  V30 13914 H 1350.68 -2.67828 -1.60233 0
M  V30 13915 N 1350.98 0.516783 -1.48886 0
M  V30 13916 C 1351.95 1.60226 -1.63891 0
M  V30 13917 C 1352.95 1.52448 -0.511479 0
M  V30 13918 O 1354.14 1.55882 -0.777582 0
M  V30 13919 C 1351.27 2.99867 -1.62151 0
M  V30 13920 H 1352.46 1.48256 -2.60692 0
M  V30 13921 H 1350.01 0.739844 -1.37681 0
M  V30 13922 H 1350.75 3.1733 -0.668764 0
M  V30 13923 H 1350.53 3.0692 -2.44013 0
M  V30 13924 H 1352.02 3.7876 -1.7587 0
M  V30 13925 N 1352.46 1.37696 0.766659 0
M  V30 13926 C 1353.74 1.23715 1.51506 0
M  V30 13927 C 1354.12 -0.167091 2.10438 0
M  V30 13928 O 1353.47 -1.17526 1.95959 0
M  V30 13929 C 1353.68 2.33715 2.59188 0
M  V30 13930 C 1355.02 2.71504 3.26451 0
M  V30 13931 O 1356.05 2.32929 2.69486 0
M  V30 13932 O 1354.91 3.37981 4.29454 0
M  V30 13933 H 1352 0.483046 0.671264 0
M  V30 13934 H 1354.55 1.49489 0.803188 0
M  V30 13935 H 1353.32 3.27729 2.13797 0
M  V30 13936 H 1352.94 2.09433 3.3797 0
M  V30 13937 N 1353.94 -0.993397 1.22349 0
M  V30 13938 C 1354.89 -2.0834 0.993123 0
M  V30 13939 C 1355.86 -1.65883 -0.0849717 0
M  V30 13940 O 1357.04 -1.90691 0.0645176 0
M  V30 13941 C 1354.18 -3.40252 0.576434 0
M  V30 13942 C 1353.29 -3.96055 1.72524 0
M  V30 13943 C 1352.43 -5.16123 1.25659 0
M  V30 13944 C 1351.47 -5.64062 2.37698 0
M  V30 13945 N 1350.61 -6.7537 1.91883 0
M  V30 13946 H 1355.45 -2.27381 1.92619 0
M  V30 13947 H 1352.98 -1.11476 0.959763 0
M  V30 13948 H 1354.94 -4.16001 0.316021 0
M  V30 13949 H 1353.57 -3.21214 -0.319626 0
M  V30 13950 H 1352.62 -3.17182 2.1 0
M  V30 13951 H 1353.93 -4.27614 2.56802 0
M  V30 13952 H 1353.09 -5.9916 0.953528 0
M  V30 13953 H 1351.83 -4.86186 0.384011 0
M  V30 13954 H 1350.83 -4.79614 2.68794 0
M  V30 13955 H 1352.06 -5.96025 3.25471 0
M  V30 13956 H 1350 -6.47217 1.06986 0
M  V30 13957 H 1349.92 -7.06246 2.69727 0
M  V30 13958 H 1351.19 -7.61914 1.64644 0
M  V30 13959 N 1355.42 -1.03311 -1.19015 0
M  V30 13960 C 1356.33 -0.627735 -2.26046 0
M  V30 13961 C 1357.34 0.342483 -1.70596 0
M  V30 13962 O 1358.52 0.199307 -2.00411 0
M  V30 13963 C 1355.58 0.0108274 -3.46698 0
M  V30 13964 C 1354.65 -1.00743 -4.17312 0
M  V30 13965 C 1353.88 -0.399245 -5.32205 0
M  V30 13966 O 1354.1 0.796649 -5.64809 0
M  V30 13967 O 1353.04 -1.12419 -5.91308 0
M  V30 13968 H 1356.86 -1.51923 -2.6297 0
M  V30 13969 H 1354.45 -0.803538 -1.25951 0
M  V30 13970 H 1356.33 0.366672 -4.19802 0
M  V30 13971 H 1355 0.876265 -3.11614 0
M  V30 13972 H 1353.91 -1.41494 -3.4631 0
M  V30 13973 H 1355.24 -1.84338 -4.56377 0
M  V30 13974 N 1356.9 1.35099 -0.81154 0
M  V30 13975 C 1357.81 2.33499 -0.22705 0
M  V30 13976 C 1358.82 1.62095 0.632562 0
M  V30 13977 O 1360 1.93938 0.543147 0
M  V30 13978 C 1357.06 3.41279 0.610687 0
M  V30 13979 C 1356.12 4.2845 -0.269994 0
M  V30 13980 C 1355.36 5.31083 0.527854 0
M  V30 13981 O 1355.58 5.42499 1.76213 0
M  V30 13982 O 1354.51 6.01842 -0.083862 0
M  V30 13983 H 1358.34 2.85294 -1.04119 0
M  V30 13984 H 1355.92 1.37957 -0.573432 0
M  V30 13985 H 1357.81 4.07121 1.08768 0
M  V30 13986 H 1356.48 2.91746 1.40235 0
M  V30 13987 H 1355.39 3.65572 -0.794234 0
M  V30 13988 H 1356.72 4.81394 -1.02572 0
M  V30 13989 N 1358.37 0.56548 1.47106 0
M  V30 13990 C 1359.62 0.0445914 2.02751 0
M  V30 13991 C 1359.95 -1.30517 1.43801 0
M  V30 13992 O 1359.23 -1.85123 0.596646 0
M  V30 13993 C 1359.51 -0.0396474 3.60078 0
M  V30 13994 C 1359.36 1.3378 4.29445 0
M  V30 13995 C 1360.68 -0.748954 4.3368 0
M  V30 13996 H 1357.8 0.0176787 0.736788 0
M  V30 13997 H 1360.44 0.729363 1.75443 0
M  V30 13998 H 1358.59 -0.622826 3.83475 0
M  V30 13999 H 1360.27 1.96482 4.17364 0
M  V30 14000 H 1358.51 1.91024 3.89477 0
M  V30 14001 H 1359.18 1.23149 5.38088 0
M  V30 14002 H 1361.66 -0.253707 4.15326 0
M  V30 14003 H 1360.53 -0.776877 5.43374 0
M  V30 14004 H 1360.79 -1.80679 4.03494 0
M  V30 14005 N 1359.85 -1.54672 0.302354 0
M  V30 14006 C 1360.76 -2.27251 -0.582578 0
M  V30 14007 C 1361.78 -1.30819 -1.14727 0
M  V30 14008 O 1362.95 -1.63803 -1.17177 0
M  V30 14009 C 1360.02 -3.00016 -1.73757 0
M  V30 14010 C 1359.08 -4.11988 -1.20682 0
M  V30 14011 C 1358.31 -4.81273 -2.30676 0
M  V30 14012 O 1358.54 -4.49927 -3.50602 0
M  V30 14013 O 1357.47 -5.68647 -1.97291 0
M  V30 14014 H 1361.3 -3.03699 0.00621365 0
M  V30 14015 H 1358.88 -1.49242 0.0687684 0
M  V30 14016 H 1360.76 -3.45652 -2.41045 0
M  V30 14017 H 1359.44 -2.26462 -2.31294 0
M  V30 14018 H 1358.35 -3.70749 -0.499625 0
M  V30 14019 H 1359.68 -4.87524 -0.676858 0
M  V30 14020 N 1361.33 -0.0301034 -1.57571 0
M  V30 14021 C 1362.29 0.936465 -2.09196 0
M  V30 14022 C 1363.29 1.25347 -1.00722 0
M  V30 14023 O 1364.48 1.19364 -1.26877 0
M  V30 14024 C 1361.62 2.2527 -2.55864 0
M  V30 14025 H 1362.81 0.489332 -2.95881 0
M  V30 14026 H 1360.36 0.217948 -1.54773 0
M  V30 14027 H 1361.1 2.7461 -1.72511 0
M  V30 14028 H 1360.88 2.03573 -3.35113 0
M  V30 14029 H 1362.37 2.94549 -2.96025 0
M  V30 14030 N 1362.81 1.55714 0.243056 0
M  V30 14031 C 1364.05 1.77989 0.971993 0
M  V30 14032 C 1364.39 0.596038 1.84827 0
M  V30 14033 O 1363.66 -0.40554 1.90225 0
M  V30 14034 C 1363.95 3.10178 1.82925 0
M  V30 14035 C 1363.8 4.38974 0.9809 0
M  V30 14036 C 1365.12 3.38628 2.81103 0
M  V30 14037 H 1362.24 0.64754 0.35194 0
M  V30 14038 H 1364.88 1.88449 0.242237 0
M  V30 14039 H 1363.03 3.01392 2.45143 0
M  V30 14040 H 1364.7 4.59756 0.377113 0
M  V30 14041 H 1362.94 4.3286 0.285414 0
M  V30 14042 H 1363.61 5.27858 1.61461 0
M  V30 14043 H 1366.09 3.47403 2.29021 0
M  V30 14044 H 1364.97 4.32331 3.38203 0
M  V30 14045 H 1365.23 2.5973 3.57761 0
M  V30 14046 N 1364.29 -0.50888 1.49158 0
M  V30 14047 C 1365.51 -1.28771 1.61943 0
M  V30 14048 C 1365.93 -1.86594 0.287759 0
M  V30 14049 O 1365.29 -1.67448 -0.725769 0
M  V30 14050 C 1365.34 -2.4236 2.68224 0
M  V30 14051 O 1365.06 -1.86915 3.96225 0
M  V30 14052 C 1366.56 -3.33856 2.91642 0
M  V30 14053 H 1363.78 -0.390849 0.545416 0
M  V30 14054 H 1366.32 -0.611729 1.95136 0
M  V30 14055 H 1364.48 -3.05803 2.37831 0
M  V30 14056 H 1364.89 -2.61426 4.54705 0
M  V30 14057 H 1366.37 -4.09856 3.69759 0
M  V30 14058 H 1366.84 -3.90374 2.01258 0
M  V30 14059 H 1367.45 -2.76187 3.23421 0
M  V30 14060 N 1365.76 -1.381 -0.759346 0
M  V30 14061 C 1366.73 -1.34674 -1.8546 0
M  V30 14062 C 1367.73 -0.248351 -1.58871 0
M  V30 14063 O 1368.92 -0.504915 -1.66722 0
M  V30 14064 C 1366.05 -1.0952 -3.22828 0
M  V30 14065 H 1367.24 -2.3211 -1.89908 0
M  V30 14066 H 1364.8 -1.2331 -0.960435 0
M  V30 14067 H 1365.53 -0.126664 -3.24053 0
M  V30 14068 H 1365.32 -1.89037 -3.43522 0
M  V30 14069 H 1366.81 -1.09804 -4.02906 0
M  V30 14070 N 1367.24 0.986894 -1.22875 0
M  V30 14071 C 1368.17 2.09628 -1.0285 0
M  V30 14072 C 1369.15 1.70019 0.0525118 0
M  V30 14073 O 1370.34 1.93883 -0.110874 0
M  V30 14074 C 1367.47 3.41866 -0.61194 0
M  V30 14075 C 1366.42 3.95351 -1.63956 0
M  V30 14076 C 1365.75 5.23707 -1.07865 0
M  V30 14077 C 1367.05 4.25354 -3.03102 0
M  V30 14078 H 1368.74 2.26639 -1.95641 0
M  V30 14079 H 1366.29 1.0891 -0.942048 0
M  V30 14080 H 1368.24 4.18893 -0.458936 0
M  V30 14081 H 1366.97 3.24701 0.35164 0
M  V30 14082 H 1365.62 3.20462 -1.78045 0
M  V30 14083 H 1365.27 5.02888 -0.106246 0
M  V30 14084 H 1364.97 5.60459 -1.76522 0
M  V30 14085 H 1366.5 6.03362 -0.937359 0
M  V30 14086 H 1367.91 4.93156 -2.92353 0
M  V30 14087 H 1366.31 4.73292 -3.68938 0
M  V30 14088 H 1367.38 3.32887 -3.52583 0
M  V30 14089 N 1368.72 1.0394 1.18466 0
M  V30 14090 C 1369.68 0.633804 2.20262 0
M  V30 14091 C 1370.68 -0.308136 1.5782 0
M  V30 14092 O 1371.87 -0.0937087 1.73948 0
M  V30 14093 C 1369.01 -0.0709693 3.40826 0
M  V30 14094 H 1370.2 1.53463 2.57661 0
M  V30 14095 H 1367.75 0.831806 1.32328 0
M  V30 14096 H 1368.49 -0.985659 3.08958 0
M  V30 14097 H 1368.27 0.606023 3.87388 0
M  V30 14098 H 1369.76 -0.341298 4.16203 0
M  V30 14099 N 1370.2 -1.34667 0.818693 0
M  V30 14100 C 1371.42 -2.03173 0.416585 0
M  V30 14101 C 1371.85 -1.61261 -0.968321 0
M  V30 14102 O 1371.21 -0.79517 -1.62932 0
M  V30 14103 C 1371.25 -3.56803 0.521884 0
M  V30 14104 O 1370.36 -4.09827 -0.459953 0
M  V30 14105 H 1369.7 -0.6413 0.172136 0
M  V30 14106 H 1372.23 -1.72006 1.10794 0
M  V30 14107 H 1372.24 -4.06073 0.3961 0
M  V30 14108 H 1370.91 -3.86656 1.53198 0
M  V30 14109 H 1369.49 -3.71744 -0.293405 0
M  V30 14110 N 1371.68 -0.573274 -1.46804 0
M  V30 14111 C 1372.61 0.153316 -2.32996 0
M  V30 14112 C 1373.59 0.893013 -1.44773 0
M  V30 14113 O 1374.77 0.870329 -1.73606 0
M  V30 14114 C 1371.9 1.1736 -3.2687 0
M  V30 14115 C 1370.86 0.549347 -4.2446 0
M  V30 14116 C 1370.18 1.67542 -5.07773 0
M  V30 14117 C 1371.48 -0.50736 -5.1983 0
M  V30 14118 H 1373.18 -0.566305 -2.93995 0
M  V30 14119 H 1370.72 -0.273785 -1.41373 0
M  V30 14120 H 1372.68 1.6902 -3.86019 0
M  V30 14121 H 1371.4 1.92337 -2.63958 0
M  V30 14122 H 1370.06 0.0539142 -3.6656 0
M  V30 14123 H 1369.71 2.41463 -4.41253 0
M  V30 14124 H 1369.41 1.26343 -5.73856 0
M  V30 14125 H 1370.93 2.19496 -5.69784 0
M  V30 14126 H 1372.34 -0.0762061 -5.73249 0
M  V30 14127 H 1370.74 -0.839139 -5.94204 0
M  V30 14128 H 1371.81 -1.39723 -4.64333 0
M  V30 14129 N 1373.15 1.5451 -0.310553 0
M  V30 14130 C 1374.38 2.05204 0.301013 0
M  V30 14131 C 1374.8 1.1859 1.46007 0
M  V30 14132 O 1374.16 0.192081 1.8028 0
M  V30 14133 C 1374.21 3.53221 0.725767 0
M  V30 14134 O 1373.31 3.69596 1.82955 0
M  V30 14135 H 1372.66 0.661566 0.0568026 0
M  V30 14136 H 1375.19 1.99473 -0.455178 0
M  V30 14137 H 1375.2 3.9525 1.01198 0
M  V30 14138 H 1373.87 4.15721 -0.122046 0
M  V30 14139 H 1372.45 3.39472 1.54315 0
M  V30 14140 N 1374.63 0.0384594 1.57553 0
M  V30 14141 C 1375.88 -0.639085 1.92467 0
M  V30 14142 C 1376.21 -1.71239 0.916014 0
M  V30 14143 O 1375.49 -1.94408 -0.0598928 0
M  V30 14144 C 1375.77 -1.24693 3.37822 0
M  V30 14145 C 1375.62 -0.182544 4.49429 0
M  V30 14146 C 1376.94 -2.16226 3.8332 0
M  V30 14147 H 1374.06 -0.230852 0.699912 0
M  V30 14148 H 1376.7 0.0976276 1.89749 0
M  V30 14149 H 1374.85 -1.87481 3.40269 0
M  V30 14150 H 1376.53 0.448622 4.59113 0
M  V30 14151 H 1374.77 0.4909 4.31013 0
M  V30 14152 H 1375.44 -0.647626 5.48188 0
M  V30 14153 H 1377.92 -1.63413 3.82669 0
M  V30 14154 H 1376.79 -2.55705 4.85702 0
M  V30 14155 H 1377.05 -3.05722 3.19353 0
M  V30 14156 N 1376.11 -1.55841 -0.234795 0
M  V30 14157 C 1377.36 -1.77886 -0.959217 0
M  V30 14158 C 1377.68 -0.604621 -1.8539 0
M  V30 14159 O 1376.95 0.379092 -1.92197 0
M  V30 14160 H 1375.53 -0.656077 -0.357172 0
M  V30 14161 H 1378.19 -1.93292 -0.249831 0
M  V30 14162 H 1377.29 -2.69512 -1.57383 0
M  V30 14163 N 1377.59 0.500963 -1.49426 0
M  V30 14164 C 1378.84 1.25171 -1.58162 0
M  V30 14165 C 1379.15 1.93678 -0.273556 0
M  V30 14166 O 1380.36 2.70442 -0.239462 0
M  V30 14167 C 1378.81 2.27276 -2.79059 0
M  V30 14168 C 1378.42 1.64708 -4.16624 0
M  V30 14169 C 1380.17 3.03178 -2.97125 0
M  V30 14170 C 1378.07 2.64923 -5.28743 0
M  V30 14171 H 1377 0.470867 -0.588897 0
M  V30 14172 H 1379.65 0.525569 -1.75812 0
M  V30 14173 H 1378.04 3.03052 -2.54903 0
M  V30 14174 H 1379.21 0.949231 -4.50917 0
M  V30 14175 H 1377.52 1.01195 -4.03916 0
M  V30 14176 H 1380.12 3.78122 -3.78058 0
M  V30 14177 H 1380.46 3.60793 -2.07687 0
M  V30 14178 H 1381 2.34517 -3.2132 0
M  V30 14179 H 1377.74 2.12089 -6.20241 0
M  V30 14180 H 1377.26 3.32948 -4.98904 0
M  V30 14181 H 1378.94 3.27349 -5.58079 0
M  V30 14182 N 1379.07 1.38501 0.752011 0
M  V30 14183 C 1380 1.38577 1.87933 0
M  V30 14184 C 1380.98 0.251454 1.68231 0
M  V30 14185 O 1382.16 0.45477 1.888 0
M  V30 14186 C 1379.29 1.21164 3.25479 0
M  V30 14187 C 1378.25 2.31816 3.59785 0
M  V30 14188 C 1377.57 1.99508 4.96085 0
M  V30 14189 C 1378.87 3.74082 3.645 0
M  V30 14190 H 1380.57 2.32913 1.88127 0
M  V30 14191 H 1378.11 1.12113 0.903698 0
M  V30 14192 H 1380.07 1.19842 4.04 0
M  V30 14193 H 1378.79 0.232899 3.25769 0
M  V30 14194 H 1377.45 2.32327 2.83584 0
M  V30 14195 H 1377.1 1.00114 4.92936 0
M  V30 14196 H 1376.8 2.73617 5.20007 0
M  V30 14197 H 1378.32 1.99807 5.76983 0
M  V30 14198 H 1379.74 3.75593 4.33131 0
M  V30 14199 H 1378.13 4.47409 3.99931 0
M  V30 14200 H 1379.2 4.06284 2.64692 0
M  V30 14201 N 1380.55 -0.980364 1.23396 0
M  V30 14202 C 1381.51 -2.05433 1.01635 0
M  V30 14203 C 1382.51 -1.60785 -0.0218244 0
M  V30 14204 O 1383.7 -1.72832 0.217922 0
M  V30 14205 C 1380.83 -3.36631 0.537822 0
M  V30 14206 H 1382.02 -2.26172 1.96943 0
M  V30 14207 H 1379.58 -1.15378 1.05441 0
M  V30 14208 H 1380.31 -3.21581 -0.41903 0
M  V30 14209 H 1380.1 -3.70377 1.28698 0
M  V30 14210 H 1381.59 -4.1562 0.406213 0
M  V30 14211 N 1382.02 -1.04567 -1.17913 0
M  V30 14212 C 1382.93 -0.651674 -2.25367 0
M  V30 14213 C 1383.95 0.32437 -1.7095 0
M  V30 14214 O 1385.13 0.178039 -2.00612 0
M  V30 14215 C 1382.19 -0.0259452 -3.4669 0
M  V30 14216 C 1381.25 -1.05163 -4.1622 0
M  V30 14217 C 1380.48 -0.45567 -5.31751 0
M  V30 14218 O 1380.71 0.736698 -5.65623 0
M  V30 14219 O 1379.64 -1.18684 -5.90083 0
M  V30 14220 H 1383.47 -1.54704 -2.61344 0
M  V30 14221 H 1381.05 -0.816852 -1.25092 0
M  V30 14222 H 1382.93 0.322126 -4.20167 0
M  V30 14223 H 1381.61 0.843165 -3.12526 0
M  V30 14224 H 1380.52 -1.45159 -3.44789 0
M  V30 14225 H 1381.85 -1.89168 -4.54397 0
M  V30 14226 N 1383.5 1.34231 -0.825823 0
M  V30 14227 C 1384.78 1.92662 -0.337743 0
M  V30 14228 C 1385.16 1.75358 1.17529 0
M  V30 14229 O 1384.51 1.13405 1.98372 0
M  V30 14230 C 1384.72 3.40394 -0.770269 0
M  V30 14231 C 1386.06 4.17546 -0.770767 0
M  V30 14232 O 1387.09 3.4899 -0.713035 0
M  V30 14233 O 1385.95 5.39903 -0.846602 0
M  V30 14234 H 1383.04 0.821768 -0.0928741 0
M  V30 14235 H 1385.59 1.43187 -0.910807 0
M  V30 14236 H 1384.36 3.46802 -1.81228 0
M  V30 14237 H 1383.98 3.97223 -0.17306 0
M  V30 14238 N 1384.98 0.581051 1.46498 0
M  V30 14239 C 1386.4 0.242599 1.57745 0
M  V30 14240 C 1386.6 -1.25508 1.57639 0
M  V30 14241 O 1385.65 -2.0367 1.49247 0
M  V30 14242 C 1386.96 0.890342 2.87217 0
M  V30 14243 C 1388.51 0.863778 3.00845 0
M  V30 14244 C 1388.99 1.49103 4.3305 0
M  V30 14245 N 1390.48 1.4553 4.39745 0
M  V30 14246 C 1391.21 1.91003 5.40653 0
M  V30 14247 N 1390.71 2.44442 6.48244 0
M  V30 14248 N 1392.5 1.8193 5.31844 0
M  V30 14249 H 1384.65 1.55382 1.44811 0
M  V30 14250 H 1386.92 0.649375 0.690664 0
M  V30 14251 H 1386.62 1.94383 2.93101 0
M  V30 14252 H 1386.5 0.397569 3.75099 0
M  V30 14253 H 1388.88 -0.181089 2.94544 0
M  V30 14254 H 1388.96 1.39455 2.14443 0
M  V30 14255 H 1388.61 2.53509 4.40109 0
M  V30 14256 H 1388.54 0.935496 5.18224 0
M  V30 14257 H 1391.03 1.06466 3.62593 0
M  V30 14258 H 1391.34 2.77002 7.2145 0
M  V30 14259 H 1389.69 2.48467 6.49068 0
M  V30 14260 H 1392.88 1.3994 4.46693 0
M  V30 14261 H 1393.05 2.17685 6.10342 0
M  V30 14262 N 1386.46 -1.54343 0.318742 0
M  V30 14263 C 1387.87 -1.85922 -0.170309 0
M  V30 14264 C 1388.22 -1.24047 -1.52009 0
M  V30 14265 O 1387.34 -0.544705 -2.09432 0
M  V30 14266 C 1387.94 -3.37325 -0.315802 0
M  V30 14267 C 1386.5 -3.68871 -0.749073 0
M  V30 14268 C 1385.65 -2.76985 0.13209 0
M  V30 14269 H 1388.6 -1.4926 0.539185 0
M  V30 14270 H 1388.62 -3.62784 -1.14751 0
M  V30 14271 H 1388.13 -3.8233 0.66674 0
M  V30 14272 H 1386.23 -3.29396 -1.74153 0
M  V30 14273 H 1386.34 -4.75861 -0.556164 0
M  V30 14274 H 1384.71 -2.51672 -0.391564 0
M  V30 14275 H 1385.49 -3.24815 1.11131 0
M  V30 14276 N 1387.94 -0.0468143 -1.5753 0
M  V30 14277 C 1389.16 0.641161 -1.97241 0
M  V30 14278 C 1389.59 1.6384 -0.92401 0
M  V30 14279 O 1388.94 1.80946 0.113229 0
M  V30 14280 C 1388.99 1.30832 -3.36029 0
M  V30 14281 O 1388.1 2.42394 -3.33645 0
M  V30 14282 H 1387.44 0.167035 -0.642647 0
M  V30 14283 H 1389.97 -0.113921 -2.04283 0
M  V30 14284 H 1389.98 1.66102 -3.72658 0
M  V30 14285 H 1388.65 0.57744 -4.11872 0
M  V30 14286 H 1387.23 2.09104 -3.08756 0
M  V30 14287 N 1389.41 1.55964 0.226527 0
M  V30 14288 C 1390.32 1.95169 1.30178 0
M  V30 14289 C 1391.34 0.854831 1.51554 0
M  V30 14290 O 1392.52 1.15798 1.64781 0
M  V30 14291 C 1389.58 2.25612 2.63249 0
M  V30 14292 C 1388.64 3.4884 2.50219 0
M  V30 14293 C 1387.88 3.77822 3.76944 0
M  V30 14294 O 1388.1 3.08556 4.79739 0
M  V30 14295 O 1387.03 4.7132 3.74354 0
M  V30 14296 H 1390.86 2.86794 0.999145 0
M  V30 14297 H 1388.44 1.43109 0.42898 0
M  V30 14298 H 1390.33 2.4641 3.41848 0
M  V30 14299 H 1389 1.37162 2.93203 0
M  V30 14300 H 1387.91 3.33326 1.69836 0
M  V30 14301 H 1389.24 4.37657 2.25205 0
M  V30 14302 N 1390.89 -0.493031 1.4969 0
M  V30 14303 C 1391.82 -1.61058 1.63074 0
M  V30 14304 C 1392.84 -1.54504 0.513069 0
M  V30 14305 O 1394.03 -1.60291 0.785431 0
M  V30 14306 C 1391.13 -2.99877 1.57883 0
M  V30 14307 C 1390.3 -3.31531 2.85317 0
M  V30 14308 C 1389.36 -4.49799 2.7307 0
M  V30 14309 O 1388.38 -4.51189 3.47012 0
M  V30 14310 N 1389.59 -5.50182 1.85148 0
M  V30 14311 H 1392.35 -1.5 2.59461 0
M  V30 14312 H 1389.91 -0.681057 1.46878 0
M  V30 14313 H 1391.9 -3.76928 1.47333 0
M  V30 14314 H 1390.47 -3.04817 0.693218 0
M  V30 14315 H 1389.69 -2.433 3.10159 0
M  V30 14316 H 1390.98 -3.49481 3.69784 0
M  V30 14317 H 1390.38 -5.51865 1.24345 0
M  V30 14318 H 1388.94 -6.26305 1.80516 0
M  V30 14319 N 1392.37 -1.38898 -0.744656 0
M  V30 14320 C 1393.3 -1.39571 -1.87195 0
M  V30 14321 C 1394.28 -0.260372 -1.68095 0
M  V30 14322 O 1395.47 -0.464776 -1.88556 0
M  V30 14323 C 1392.6 -1.22889 -3.24832 0
M  V30 14324 C 1391.55 -2.33721 -3.58551 0
M  V30 14325 C 1390.88 -2.02136 -4.9502 0
M  V30 14326 C 1392.18 -3.7601 -3.62511 0
M  V30 14327 H 1393.87 -2.33908 -1.86889 0
M  V30 14328 H 1391.42 -1.12591 -0.897739 0
M  V30 14329 H 1393.37 -1.21983 -4.03359 0
M  V30 14330 H 1392.09 -0.250172 -3.2564 0
M  V30 14331 H 1390.75 -2.33828 -2.82348 0
M  V30 14332 H 1390.4 -1.02726 -4.92399 0
M  V30 14333 H 1390.1 -2.76371 -5.18549 0
M  V30 14334 H 1391.62 -2.02864 -5.75915 0
M  V30 14335 H 1393.04 -3.77885 -4.31133 0
M  V30 14336 H 1391.44 -4.49524 -3.97553 0
M  V30 14337 H 1392.51 -4.07682 -2.62533 0
M  V30 14338 N 1393.85 0.973806 -1.23914 0
M  V30 14339 C 1395.09 1.71852 -1.07678 0
M  V30 14340 C 1395.43 1.90357 0.384425 0
M  V30 14341 O 1394.7 1.46063 1.28436 0
M  V30 14342 C 1394.99 3.1129 -1.81026 0
M  V30 14343 C 1394.84 3.00315 -3.3486 0
M  V30 14344 C 1396.16 4.10835 -1.57805 0
M  V30 14345 H 1393.28 0.623749 -0.392564 0
M  V30 14346 H 1395.92 1.13325 -1.52504 0
M  V30 14347 H 1394.07 3.61255 -1.42922 0
M  V30 14348 H 1395.74 2.57823 -3.82524 0
M  V30 14349 H 1393.98 2.36667 -3.63553 0
M  V30 14350 H 1394.65 3.9907 -3.81376 0
M  V30 14351 H 1397.13 3.69705 -1.90939 0
M  V30 14352 H 1396.01 5.06478 -2.11591 0
M  V30 14353 H 1396.27 4.39091 -0.514894 0
M  V30 14354 N 1395.33 1.05191 1.17357 0
M  V30 14355 C 1396.24 0.663617 2.25018 0
M  V30 14356 C 1397.25 -0.315299 1.71119 0
M  V30 14357 O 1398.43 -0.167398 2.00703 0
M  V30 14358 C 1395.49 0.0443307 3.46672 0
M  V30 14359 C 1394.55 1.07369 4.15656 0
M  V30 14360 C 1393.79 0.483864 5.31502 0
M  V30 14361 O 1394.01 -0.706692 5.66005 0
M  V30 14362 O 1392.94 1.21812 5.89445 0
M  V30 14363 H 1396.77 1.56088 2.60519 0
M  V30 14364 H 1394.36 0.823474 1.24657 0
M  V30 14365 H 1396.24 -0.299839 4.20332 0
M  V30 14366 H 1394.91 -0.826579 3.12969 0
M  V30 14367 H 1393.82 1.46985 3.44015 0
M  V30 14368 H 1395.15 1.91575 4.53387 0
M  V30 14369 N 1396.8 -1.33791 0.83293 0
M  V30 14370 C 1397.71 -2.33108 0.264169 0
M  V30 14371 C 1398.73 -1.6308 -0.606694 0
M  V30 14372 O 1399.91 -1.94777 -0.512225 0
M  V30 14373 C 1396.97 -3.42208 -0.556315 0
M  V30 14374 C 1396.03 -4.27966 0.338123 0
M  V30 14375 C 1395.27 -5.31856 -0.443297 0
M  V30 14376 O 1395.49 -5.45234 -1.6756 0
M  V30 14377 O 1394.42 -6.01632 0.179599 0
M  V30 14378 H 1398.25 -2.83602 1.08645 0
M  V30 14379 H 1395.83 -1.37027 0.595307 0
M  V30 14380 H 1397.72 -4.088 -1.02277 0
M  V30 14381 H 1396.39 -2.9394 -1.35575 0
M  V30 14382 H 1395.3 -3.64262 0.852293 0
M  V30 14383 H 1396.63 -4.79701 1.10217 0
M  V30 14384 N 1398.28 -0.588812 -1.46187 0
M  V30 14385 C 1399.19 0.143253 -2.34162 0
M  V30 14386 C 1400.21 0.879779 -1.5012 0
M  V30 14387 O 1401.38 0.841592 -1.82973 0
M  V30 14388 C 1398.45 1.14017 -3.27416 0
M  V30 14389 C 1397.51 0.407651 -4.2736 0
M  V30 14390 C 1396.74 1.35708 -5.16158 0
M  V30 14391 O 1396.97 2.59394 -5.08007 0
M  V30 14392 O 1395.9 0.864343 -5.95662 0
M  V30 14393 H 1399.73 -0.579228 -2.98125 0
M  V30 14394 H 1397.31 -0.349174 -1.45262 0
M  V30 14395 H 1399.19 1.71484 -3.8493 0
M  V30 14396 H 1397.87 1.84401 -2.66041 0
M  V30 14397 H 1396.78 -0.209011 -3.73516 0
M  V30 14398 H 1398.11 -0.255334 -4.91537 0
M  V30 14399 N 1399.76 1.54172 -0.326923 0
M  V30 14400 C 1400.67 2.28149 0.546351 0
M  V30 14401 C 1401.69 1.32628 1.12631 0
M  V30 14402 O 1402.86 1.65647 1.14556 0
M  V30 14403 C 1399.93 3.02742 1.68962 0
M  V30 14404 C 1398.99 4.13856 1.14112 0
M  V30 14405 C 1398.22 4.84882 2.2299 0
M  V30 14406 O 1398.44 4.55448 3.43399 0
M  V30 14407 O 1397.38 5.71714 1.8822 0
M  V30 14408 H 1401.2 3.03651 -0.0545288 0
M  V30 14409 H 1398.79 1.49113 -0.0925027 0
M  V30 14410 H 1400.67 3.49443 2.35515 0
M  V30 14411 H 1399.35 2.30113 2.27662 0
M  V30 14412 H 1398.25 3.71497 0.440579 0
M  V30 14413 H 1399.59 4.88539 0.599211 0
M  V30 14414 N 1401.24 0.0551678 1.57503 0
M  V30 14415 C 1402.65 -0.479948 1.80426 0
M  V30 14416 C 1403 -1.70673 0.967733 0
M  V30 14417 O 1402.13 -2.15604 0.185462 0
M  V30 14418 C 1402.72 -0.877496 3.27239 0
M  V30 14419 C 1401.28 -1.35757 3.51066 0
M  V30 14420 C 1400.43 -0.334681 2.75273 0
M  V30 14421 H 1403.38 0.281016 1.56192 0
M  V30 14422 H 1403.4 -1.74013 3.38378 0
M  V30 14423 H 1402.91 0.015571 3.88097 0
M  V30 14424 H 1401.01 -2.26969 2.95492 0
M  V30 14425 H 1401.12 -1.34697 4.59776 0
M  V30 14426 H 1399.49 -0.808421 2.4153 0
M  V30 14427 H 1400.27 0.550369 3.3886 0
M  V30 14428 N 1402.72 -1.56081 -0.218252 0
M  V30 14429 C 1403.65 -1.87704 -1.29779 0
M  V30 14430 C 1404.63 -0.734747 -1.45053 0
M  V30 14431 O 1405.81 -0.98344 -1.60813 0
M  V30 14432 C 1402.94 -2.08695 -2.66766 0
M  V30 14433 C 1401.98 -3.31385 -2.68489 0
M  V30 14434 S 1402.82 -4.87212 -2.22227 0
M  V30 14435 C 1403.97 -5.11243 -3.61083 0
M  V30 14436 H 1404.21 -2.78975 -1.02762 0
M  V30 14437 H 1401.74 -1.48559 -0.420653 0
M  V30 14438 H 1403.7 -2.21472 -3.4563 0
M  V30 14439 H 1402.36 -1.18215 -2.91005 0
M  V30 14440 H 1401.55 -3.43127 -3.69161 0
M  V30 14441 H 1401.15 -3.17482 -1.9769 0
M  V30 14442 H 1403.45 -5.00344 -4.56796 0
M  V30 14443 H 1404.39 -6.13115 -3.54254 0
M  V30 14444 H 1404.8 -4.38964 -3.54924 0
M  V30 14445 N 1404.2 0.485086 -1.49949 0
M  V30 14446 C 1405.14 1.60559 -1.68296 0
M  V30 14447 C 1406.14 1.60264 -0.548802 0
M  V30 14448 O 1407.34 1.64581 -0.728905 0
M  V30 14449 H 1403.72 0.532529 -0.530958 0
M  V30 14450 H 1405.69 1.42242 -2.62316 0
M  V30 14451 C 1404.44 2.98596 -1.78145 0
M  V30 14452 H 1403.76 2.99536 -2.64799 0
M  V30 14453 H 1405.2 3.76492 -1.95012 0
M  V30 14454 C 1403.66 3.32708 -0.529828 0
M  V30 14455 O 1404.19 4.00281 0.337347 0
M  V30 14456 N 1402.4 2.87998 -0.388012 0
M  V30 14457 H 1401.94 2.33182 -1.0947 0
M  V30 14458 H 1401.9 3.11187 0.448307 0
M  V30 14459 N 1405.67 1.39291 0.737279 0
M  V30 14460 C 1406.6 1.40562 1.86452 0
M  V30 14461 C 1407.58 0.269283 1.67955 0
M  V30 14462 O 1408.77 0.474769 1.88307 0
M  V30 14463 C 1405.9 1.2461 3.24175 0
M  V30 14464 C 1404.85 2.35619 3.57306 0
M  V30 14465 C 1404.18 2.04758 4.93941 0
M  V30 14466 C 1405.48 3.77927 3.60512 0
M  V30 14467 H 1407.17 2.34896 1.85646 0
M  V30 14468 H 1404.72 1.13065 0.891756 0
M  V30 14469 H 1406.67 1.2412 4.02706 0
M  V30 14470 H 1405.4 0.267438 3.25503 0
M  V30 14471 H 1404.06 2.35322 2.81104 0
M  V30 14472 H 1403.7 1.05336 4.91847 0
M  V30 14473 H 1403.4 2.79117 5.17076 0
M  V30 14474 H 1404.93 2.05915 5.74832 0
M  V30 14475 H 1406.34 3.80166 4.29123 0
M  V30 14476 H 1404.74 4.51626 3.95164 0
M  V30 14477 H 1405.81 4.09068 2.60368 0
M  V30 14478 O 1407.19 -0.878324 1.35528 0
M  V30 14479 H 1407.88 -1.51613 1.20554 0
M  V30 END ATOM
M  V30 BEGIN BOND
M  V30 END BOND
M  V30 END CTAB
M  END
$$$$
