drugbank_target|Q8WU03 Glycine N-acyltransferase-like protein 2 (DB00145)
 OpenBabel12092120083D

  0  0  0     0  0            999 V3000
M  V30 BEGIN CTAB
M  V30 COUNTS 4782 4842 0 0 0
M  V30 BEGIN ATOM
M  V30 1 H -0.908 1.98254 -0.117106 0
M  V30 2 N 0 1.576 0 0
M  V30 3 C 0.933 2.03868 1.02534 0
M  V30 4 C 1.911 0.928543 1.3348 0
M  V30 5 O 3.095 1.19667 1.45644 0
M  V30 6 C 0.222 2.43627 2.35294 0
M  V30 7 C -0.732 3.65373 2.2001 0
M  V30 8 S 0.101 5.13292 1.52614 0
M  V30 9 C 1.257 5.56322 2.86805 0
M  V30 10 H 1.49 2.90518 0.631377 0
M  V30 11 H -0.977 1.52953 0.210867 0
M  V30 12 H 0.981 2.67203 3.11629 0
M  V30 13 H -0.358 1.57376 2.7183 0
M  V30 14 H -1.165 3.90944 3.18086 0
M  V30 15 H -1.563 3.418 1.51819 0
M  V30 16 H 0.729 5.58782 3.83104 0
M  V30 17 H 1.672 6.56266 2.65933 0
M  V30 18 H 2.08 4.83886 2.90714 0
M  V30 19 N 1.4781 -0.272755 1.55222 0
M  V30 20 C 2.4081 -1.34136 1.91127 0
M  V30 21 C 3.3891 -1.51513 0.773168 0
M  V30 22 O 4.5741 -1.64552 1.03132 0
M  V30 23 C 1.7041 -2.70083 2.1834 0
M  V30 24 C 0.6581 -2.67437 3.34158 0
M  V30 25 C -0.0159 -4.06938 3.46851 0
M  V30 26 C 1.2841 -2.26686 4.70543 0
M  V30 27 H 2.9781 -1.04333 2.80633 0
M  V30 28 H 0.5241 -0.500454 1.35024 0
M  V30 29 H 2.4771 -3.44952 2.42046 0
M  V30 30 H 1.2011 -3.01469 1.25634 0
M  V30 31 H -0.1399 -1.95026 3.1042 0
M  V30 32 H -0.4919 -4.35547 2.51611 0
M  V30 33 H -0.7919 -4.06062 4.2472 0
M  V30 34 H 0.7321 -4.83545 3.72849 0
M  V30 35 H 2.1461 -2.91277 4.93792 0
M  V30 36 H 0.5431 -2.36971 5.5133 0
M  V30 37 H 1.6131 -1.21818 4.69349 0
M  V30 38 N 2.9562 -1.48159 -0.537278 0
M  V30 39 C 4.2022 -1.56035 -1.29541 0
M  V30 40 C 4.5352 -0.230377 -1.92829 0
M  V30 41 O 3.8102 0.762952 -1.78911 0
M  V30 42 C 4.0932 -2.69323 -2.39034 0
M  V30 43 C 3.9462 -4.12002 -1.80485 0
M  V30 44 C 5.2652 -2.78408 -3.40847 0
M  V30 45 H 2.3842 -0.567992 -0.469632 0
M  V30 46 H 5.0262 -1.80302 -0.599277 0
M  V30 47 H 3.1762 -2.48763 -2.98412 0
M  V30 48 H 4.8482 -4.43981 -1.25215 0
M  V30 49 H 3.0912 -4.19344 -1.11055 0
M  V30 50 H 3.7622 -4.87077 -2.59731 0
M  V30 51 H 6.2382 -2.97012 -2.91416 0
M  V30 52 H 5.1142 -3.59416 -4.14863 0
M  V30 53 H 5.3752 -1.86269 -4.00944 0
M  V30 54 N 4.4343 0.785586 -1.36625 0
M  V30 55 C 5.3643 1.91259 -1.33949 0
M  V30 56 C 6.3453 1.68795 -0.210325 0
M  V30 57 O 7.5303 1.89854 -0.408561 0
M  V30 58 C 4.6603 3.28339 -1.13186 0
M  V30 59 C 3.6143 3.65335 -2.22967 0
M  V30 60 C 2.9403 5.00806 -1.87342 0
M  V30 61 C 4.2403 3.7352 -3.65075 0
M  V30 62 H 5.9343 1.93755 -2.28253 0
M  V30 63 H 3.4803 0.930788 -1.09874 0
M  V30 64 H 5.4333 4.06804 -1.09948 0
M  V30 65 H 4.1573 3.2624 -0.153332 0
M  V30 66 H 2.8163 2.89169 -2.25337 0
M  V30 67 H 2.4643 4.95233 -0.880545 0
M  V30 68 H 2.1643 5.26529 -2.60846 0
M  V30 69 H 3.6883 5.81687 -1.85667 0
M  V30 70 H 5.1023 4.42168 -3.64911 0
M  V30 71 H 3.4993 4.10731 -4.37516 0
M  V30 72 H 4.5693 2.74527 -3.99703 0
M  V30 73 N 5.9124 1.20967 1.01018 0
M  V30 74 C 6.8624 0.93182 2.08089 0
M  V30 75 C 7.8464 -0.110898 1.60517 0
M  V30 76 O 9.0384 0.0973392 1.76732 0
M  V30 77 C 6.1674 0.492719 3.39746 0
M  V30 78 C 5.2534 1.56922 3.94 0
M  V30 79 N 5.6444 2.79312 4.21686 0
M  V30 80 C 3.9424 1.43688 4.2222 0
M  V30 81 C 4.6434 3.48797 4.65527 0
M  V30 82 N 3.6194 2.76224 4.68189 0
M  V30 83 H 7.4214 1.86175 2.27412 0
M  V30 84 H 4.9354 1.10463 1.19045 0
M  V30 85 H 6.9324 0.275044 4.15992 0
M  V30 86 H 5.5924 -0.430509 3.21833 0
M  V30 87 H 6.6034 3.15903 4.10397 0
M  V30 88 H 3.2804 0.578548 4.13472 0
M  V30 89 H 4.6704 4.53561 4.95714 0
M  V30 90 N 7.3905 -1.2043 1.01659 0
M  V30 91 C 8.3385 -2.25249 0.580143 0
M  V30 92 C 9.3325 -1.65057 -0.381115 0
M  V30 93 O 10.5385 -1.78241 -0.251039 0
M  V30 94 H 6.9135 -0.732695 0.169299 0
M  V30 95 H 8.8845 -2.59389 1.47512 0
M  V30 96 C 7.6335 -3.47638 -0.065788 0
M  V30 97 H 6.9565 -3.94233 0.664874 0
M  V30 98 H 8.3965 -4.2268 -0.334282 0
M  V30 99 C 6.8555 -3.10447 -1.3086 0
M  V30 100 O 7.3855 -3.21981 -2.4019 0
M  V30 101 N 5.5915 -2.64996 -1.1927 0
M  V30 102 H 5.1385 -2.55811 -0.303064 0
M  V30 103 H 5.0965 -2.40482 -2.02523 0
M  V30 104 N 8.8686 -0.792821 -1.36206 0
M  V30 105 C 10.0936 -0.377701 -2.03932 0
M  V30 106 C 10.5186 0.998947 -1.59382 0
M  V30 107 O 9.8766 1.64421 -0.763903 0
M  V30 108 C 9.9246 -0.453635 -3.57735 0
M  V30 109 O 9.0286 0.538151 -4.08874 0
M  V30 110 H 8.3696 -0.159855 -0.644471 0
M  V30 111 H 10.8996 -1.07488 -1.7409 0
M  V30 112 H 10.9096 -0.318464 -4.06755 0
M  V30 113 H 9.5846 -1.45784 -3.89512 0
M  V30 114 H 8.1616 0.364359 -3.71116 0
M  V30 115 N 10.3467 1.47872 -0.545128 0
M  V30 116 C 11.2787 2.27869 0.246621 0
M  V30 117 C 12.2917 1.36282 0.890561 0
M  V30 118 O 13.4807 1.61207 0.766449 0
M  V30 119 C 10.5807 3.10159 1.36582 0
M  V30 120 C 9.7537 4.29627 0.820954 0
M  V30 121 C 8.8127 4.93607 1.82314 0
M  V30 122 O 7.8387 5.52366 1.37406 0
M  V30 123 N 9.0407 4.87211 3.15603 0
M  V30 124 H 11.8057 2.96459 -0.439539 0
M  V30 125 H 9.3667 1.57367 -0.380421 0
M  V30 126 H 11.3587 3.49829 2.03474 0
M  V30 127 H 9.9287 2.43891 1.9554 0
M  V30 128 H 9.1487 3.94192 -0.0244032 0
M  V30 129 H 10.4367 5.06928 0.436063 0
M  V30 130 H 9.8347 4.40651 3.54744 0
M  V30 131 H 8.3917 5.30937 3.78087 0
M  V30 132 N 11.8248 0.280983 1.55075 0
M  V30 133 C 12.7718 -0.603937 2.22758 0
M  V30 134 C 13.7418 -1.1452 1.20309 0
M  V30 135 O 14.9268 -1.19343 1.48869 0
M  V30 136 C 12.0668 -1.77947 2.95684 0
M  V30 137 C 11.1798 -1.2715 4.12864 0
M  V30 138 C 10.3148 -2.4093 4.7342 0
M  V30 139 C 9.3538 -1.87165 5.82783 0
M  V30 140 N 8.4908 -2.94441 6.37377 0
M  V30 141 H 13.3308 -0.020124 2.97993 0
M  V30 142 H 10.8678 0.00183425 1.471 0
M  V30 143 H 12.8258 -2.47055 3.36184 0
M  V30 144 H 11.4558 -2.33522 2.22861 0
M  V30 145 H 10.5078 -0.473331 3.77444 0
M  V30 146 H 11.8198 -0.837751 4.91715 0
M  V30 147 H 10.9738 -3.18021 5.1667 0
M  V30 148 H 9.7128 -2.87623 3.93859 0
M  V30 149 H 8.7178 -1.08556 5.38976 0
M  V30 150 H 9.9428 -1.41401 6.64216 0
M  V30 151 H 7.8888 -3.40505 5.60707 0
M  V30 152 H 7.8058 -2.55501 7.11516 0
M  V30 153 H 9.0738 -3.71489 6.85285 0
M  V30 154 N 13.3029 -1.57598 0.00835791 0
M  V30 155 C 14.2329 -2.1198 -0.979113 0
M  V30 156 C 15.2139 -1.03091 -1.35301 0
M  V30 157 O 16.3989 -1.30818 -1.43528 0
M  V30 158 C 13.5289 -2.62995 -2.26828 0
M  V30 159 C 12.4829 -3.76485 -2.03576 0
M  V30 160 C 11.8089 -4.13846 -3.38579 0
M  V30 161 C 13.1089 -5.0342 -1.39161 0
M  V30 162 H 14.8029 -2.94738 -0.526281 0
M  V30 163 H 12.3489 -1.41783 -0.251704 0
M  V30 164 H 14.3019 -2.99669 -2.96271 0
M  V30 165 H 13.0259 -1.7737 -2.7424 0
M  V30 166 H 11.6849 -3.40217 -1.36557 0
M  V30 167 H 11.3329 -3.25232 -3.83709 0
M  V30 168 H 11.0329 -4.90312 -3.23834 0
M  V30 169 H 12.5569 -4.53086 -4.09323 0
M  V30 170 H 13.9709 -5.37812 -1.98573 0
M  V30 171 H 12.3679 -5.84746 -1.34878 0
M  V30 172 H 13.4379 -4.83548 -0.361868 0
M  V30 173 N 14.781 0.264519 -1.55364 0
M  V30 174 C 15.713 1.34965 -1.85248 0
M  V30 175 C 16.726 1.45136 -0.737525 0
M  V30 176 O 17.915 1.46801 -1.01547 0
M  V30 177 C 15.015 2.73008 -2.00797 0
M  V30 178 C 14.188 2.85324 -3.31525 0
M  V30 179 C 13.247 4.04097 -3.37034 0
M  V30 180 O 12.273 3.94455 -4.10358 0
M  V30 181 N 13.475 5.16458 -2.65049 0
M  V30 182 H 16.24 1.09672 -2.78913 0
M  V30 183 H 13.801 0.454635 -1.55386 0
M  V30 184 H 15.793 3.50772 -2.01844 0
M  V30 185 H 14.363 2.91087 -1.1396 0
M  V30 186 H 13.583 1.94377 -3.42945 0
M  V30 187 H 14.871 2.9049 -4.17724 0
M  V30 188 H 14.269 5.27181 -2.05175 0
M  V30 189 H 12.826 5.92422 -2.71809 0
M  V30 190 N 16.2591 1.48442 0.529413 0
M  V30 191 C 17.5081 1.55742 1.28169 0
M  V30 192 C 17.8211 0.236511 1.94165 0
M  V30 193 O 19.0271 0.187761 2.7085 0
M  V30 194 C 17.4831 2.74667 2.32564 0
M  V30 195 C 17.0911 4.13402 1.72636 0
M  V30 196 C 18.8351 2.9128 3.08798 0
M  V30 197 C 16.7421 5.23587 2.74975 0
M  V30 198 H 15.6721 0.579796 0.48203 0
M  V30 199 H 18.3231 1.74776 0.559056 0
M  V30 200 H 16.7051 2.49067 3.07866 0
M  V30 201 H 17.8791 4.49022 1.03519 0
M  V30 202 H 16.1941 4.0191 1.08892 0
M  V30 203 H 18.7911 3.70767 3.85274 0
M  V30 204 H 19.1341 2.00757 3.64695 0
M  V30 205 H 19.6671 3.16782 2.40611 0
M  V30 206 H 16.4061 6.16076 2.23897 0
M  V30 207 H 15.9261 4.92454 3.42417 0
M  V30 208 H 17.6051 5.51724 3.37949 0
M  V30 209 N 17.7372 -0.778329 1.37039 0
M  V30 210 C 18.6672 -1.90546 1.34962 0
M  V30 211 C 19.6482 -1.68681 0.219274 0
M  V30 212 O 20.8332 -1.89634 0.418624 0
M  V30 213 C 17.9632 -3.27734 1.14925 0
M  V30 214 C 16.9172 -3.64147 2.24902 0
M  V30 215 C 16.2432 -4.99806 1.89996 0
M  V30 216 C 17.5432 -3.71579 3.67051 0
M  V30 217 H 19.2372 -1.92541 2.29277 0
M  V30 218 H 16.7832 -0.924948 1.10366 0
M  V30 219 H 18.7362 -4.06215 1.12104 0
M  V30 220 H 17.4602 -3.26154 0.170631 0
M  V30 221 H 16.1192 -2.8797 2.26868 0
M  V30 222 H 15.7672 -4.94759 0.906796 0
M  V30 223 H 15.4672 -5.25139 2.63634 0
M  V30 224 H 16.9912 -5.80694 1.88749 0
M  V30 225 H 18.4052 -4.40227 3.67251 0
M  V30 226 H 16.8022 -4.08405 4.39688 0
M  V30 227 H 17.8722 -2.72404 4.01154 0
M  V30 228 N 19.2153 -1.21501 -1.00376 0
M  V30 229 C 20.4453 -1.05746 -1.77486 0
M  V30 230 C 20.8533 0.395655 -1.85017 0
M  V30 231 O 20.1963 1.28626 -1.31152 0
M  V30 232 C 20.2583 -1.58092 -3.22873 0
M  V30 233 C 19.9223 -3.06568 -3.38917 0
M  V30 234 C 20.9193 -4.04106 -3.271 0
M  V30 235 C 18.6043 -3.45799 -3.64319 0
M  V30 236 C 20.5983 -5.38862 -3.40451 0
M  V30 237 C 18.2853 -4.80707 -3.77311 0
M  V30 238 C 19.2833 -5.77047 -3.65384 0
M  V30 239 O 18.9713 -7.09507 -3.77961 0
M  V30 240 H 18.7033 -0.371778 -0.564586 0
M  V30 241 H 21.2573 -1.61319 -1.27143 0
M  V30 242 H 19.4873 -0.969163 -3.74358 0
M  V30 243 H 21.1763 -1.38162 -3.81662 0
M  V30 244 H 21.9423 -3.75141 -3.07399 0
M  V30 245 H 17.8213 -2.71344 -3.72684 0
M  V30 246 H 21.3653 -6.14041 -3.31058 0
M  V30 247 H 17.2623 -5.09357 -3.96517 0
M  V30 248 H 18.0303 -7.16935 -3.94901 0
M  V30 249 N 20.6934 1.19889 -1.02296 0
M  V30 250 C 21.6404 2.22901 -0.598651 0
M  V30 251 C 22.6104 1.61588 0.384521 0
M  V30 252 O 23.7954 1.88697 0.282522 0
M  V30 253 C 20.9354 3.45063 0.0504476 0
M  V30 254 C 20.0484 4.20783 -0.978053 0
M  V30 255 C 19.1834 5.30356 -0.299338 0
M  V30 256 C 18.2224 5.97826 -1.31416 0
M  V30 257 N 17.3594 6.98975 -0.661667 0
M  V30 258 H 22.1994 2.58554 -1.48169 0
M  V30 259 H 19.7364 1.27039 -0.741584 0
M  V30 260 H 21.6944 4.14831 0.443971 0
M  V30 261 H 20.3244 3.10084 0.897097 0
M  V30 262 H 19.3764 3.50018 -1.48969 0
M  V30 263 H 20.6884 4.67109 -1.74958 0
M  V30 264 H 19.8424 6.06516 0.149347 0
M  V30 265 H 18.5814 4.85084 0.504445 0
M  V30 266 H 17.5864 5.20422 -1.77317 0
M  V30 267 H 18.8114 6.45183 -2.11933 0
M  V30 268 H 16.7574 6.55886 0.122132 0
M  V30 269 H 16.6744 7.43461 -1.37117 0
M  V30 270 H 17.9424 7.7914 -0.236785 0
M  V30 271 N 22.1715 0.800033 1.35784 0
M  V30 272 C 23.3965 0.388511 2.03729 0
M  V30 273 C 23.8215 -0.990481 1.5991 0
M  V30 274 O 23.1795 -1.64013 0.772612 0
M  V30 275 C 23.2275 0.4726 3.5749 0
M  V30 276 O 22.3315 -0.51646 4.09153 0
M  V30 277 H 21.6725 0.163271 0.643614 0
M  V30 278 H 24.2025 1.0841 1.73518 0
M  V30 279 H 24.2125 0.34003 4.06581 0
M  V30 280 H 22.8875 1.47848 3.88734 0
M  V30 281 H 21.4645 -0.344673 3.71304 0
M  V30 282 N 23.6496 -1.47581 0.552962 0
M  V30 283 C 24.5796 -2.32762 -0.185451 0
M  V30 284 C 25.5606 -1.43527 -0.912905 0
M  V30 285 O 26.7456 -1.72388 -0.894201 0
M  V30 286 C 23.8756 -3.25219 -1.21859 0
M  V30 287 C 22.8296 -4.23661 -0.607864 0
M  V30 288 C 22.1556 -5.05413 -1.74533 0
M  V30 289 C 23.4556 -5.20481 0.435582 0
M  V30 290 H 25.1496 -2.94749 0.525684 0
M  V30 291 H 22.6956 -1.41738 0.254251 0
M  V30 292 H 24.6486 -3.8365 -1.7433 0
M  V30 293 H 23.3726 -2.61279 -1.95961 0
M  V30 294 H 22.0316 -3.66451 -0.104489 0
M  V30 295 H 21.6796 -4.3788 -2.47529 0
M  V30 296 H 21.3796 -5.72059 -1.34249 0
M  V30 297 H 22.9036 -5.66701 -2.27338 0
M  V30 298 H 24.3176 -5.733 -0.00290157 0
M  V30 299 H 22.7146 -5.95305 0.757067 0
M  V30 300 H 23.7846 -4.66217 1.33303 0
M  V30 301 N 25.1277 -0.289203 -1.54924 0
M  V30 302 C 26.0377 0.601863 -2.26748 0
M  V30 303 C 27.0537 1.15834 -1.2984 0
M  V30 304 O 28.2297 1.18564 -1.62802 0
M  V30 305 C 25.2947 1.76299 -2.98529 0
M  V30 306 C 24.3557 1.24178 -4.10948 0
M  V30 307 C 23.5887 2.34757 -4.79296 0
M  V30 308 O 23.8117 3.54411 -4.46933 0
M  V30 309 O 22.7457 2.02115 -5.66951 0
M  V30 310 H 26.5717 0.0195879 -3.03694 0
M  V30 311 H 24.1567 -0.0560868 -1.49295 0
M  V30 312 H 26.0387 2.43973 -3.43592 0
M  V30 313 H 24.7137 2.33209 -2.24488 0
M  V30 314 H 23.6207 0.531104 -3.70311 0
M  V30 315 H 24.9537 0.718252 -4.86931 0
M  V30 316 N 26.6058 1.57591 -0.0167156 0
M  V30 317 C 27.5528 2.09462 0.969251 0
M  V30 318 C 28.5228 0.99381 1.33089 0
M  V30 319 O 29.7078 1.26726 1.42636 0
M  V30 320 C 26.8478 2.61622 2.25051 0
M  V30 321 C 25.9608 3.85666 1.94642 0
M  V30 322 C 25.0958 4.26266 3.16972 0
M  V30 323 C 24.1348 5.43101 2.82326 0
M  V30 324 N 23.2718 5.78915 3.97243 0
M  V30 325 H 28.1118 2.93428 0.519997 0
M  V30 326 H 25.6488 1.45044 0.245087 0
M  V30 327 H 27.6068 2.89949 2.99976 0
M  V30 328 H 26.2368 1.80505 2.67615 0
M  V30 329 H 25.2888 3.64145 1.10013 0
M  V30 330 H 26.6008 4.70678 1.65117 0
M  V30 331 H 25.7548 4.55963 4.00228 0
M  V30 332 H 24.4938 3.39996 3.49648 0
M  V30 333 H 23.4988 5.1311 1.97479 0
M  V30 334 H 24.7238 6.3106 2.50879 0
M  V30 335 H 22.6698 4.95602 4.29785 0
M  V30 336 H 22.5868 6.58539 3.71299 0
M  V30 337 H 23.8548 6.13212 4.81239 0
M  V30 338 N 28.0839 -0.256276 1.55502 0
M  V30 339 C 29.3089 -1.00766 1.81276 0
M  V30 340 C 29.7339 -1.78524 0.59252 0
M  V30 341 O 29.0919 -1.75413 -0.45827 0
M  V30 342 C 29.1399 -1.92869 3.04687 0
M  V30 343 O 28.2439 -3.019 2.80945 0
M  V30 344 H 27.5849 -0.287224 0.598664 0
M  V30 345 H 30.1149 -0.280109 2.02674 0
M  V30 346 H 30.1249 -2.34511 3.33869 0
M  V30 347 H 28.7999 -1.35689 3.93143 0
M  V30 348 H 27.3769 -2.64454 2.62904 0
M  V30 349 N 29.562 -1.4872 -0.521534 0
M  V30 350 C 30.811 -1.56419 -1.27341 0
M  V30 351 C 31.124 -0.246805 -1.94037 0
M  V30 352 O 32.33 -0.202122 -2.70747 0
M  V30 353 C 30.786 -2.75896 -2.31105 0
M  V30 354 C 30.394 -4.14311 -1.70441 0
M  V30 355 C 32.138 -2.92913 -3.07249 0
M  V30 356 C 30.045 -5.25038 -2.72194 0
M  V30 357 H 28.975 -0.582344 -0.478949 0
M  V30 358 H 31.626 -1.75071 -0.549779 0
M  V30 359 H 30.008 -2.50697 -3.06541 0
M  V30 360 H 31.182 -4.49564 -1.01136 0
M  V30 361 H 29.497 -4.02482 -1.06759 0
M  V30 362 H 32.094 -3.72805 -3.83302 0
M  V30 363 H 32.437 -2.02689 -3.63625 0
M  V30 364 H 32.97 -3.18054 -2.38928 0
M  V30 365 H 29.709 -6.17255 -2.20627 0
M  V30 366 H 29.229 -4.94263 -3.39801 0
M  V30 367 H 30.908 -5.53508 -3.35019 0
M  V30 368 N 31.0401 0.771051 -1.3745 0
M  V30 369 C 32.4511 1.34737 -1.29239 0
M  V30 370 C 32.8021 1.96109 0.0596908 0
M  V30 371 O 31.9271 1.93865 0.961534 0
M  V30 372 C 32.5221 2.44973 -2.34037 0
M  V30 373 C 31.0811 2.98372 -2.29458 0
M  V30 374 C 30.2281 1.71595 -2.17831 0
M  V30 375 H 33.1791 0.571256 -1.48062 0
M  V30 376 H 33.2001 3.24471 -1.98744 0
M  V30 377 H 32.7121 2.00276 -3.32432 0
M  V30 378 H 30.8131 3.47443 -1.34589 0
M  V30 379 H 30.9261 3.53939 -3.229 0
M  V30 380 H 29.2901 1.94547 -1.64388 0
M  V30 381 H 30.0731 1.29001 -3.18141 0
M  V30 382 N 32.5182 1.22032 0.997298 0
M  V30 383 C 33.4282 1.00271 2.12092 0
M  V30 384 C 34.4442 -0.047621 1.73935 0
M  V30 385 O 35.6202 0.144136 2.00884 0
M  V30 386 C 32.6852 0.578449 3.4184 0
M  V30 387 C 31.7462 1.70189 3.94125 0
M  V30 388 C 30.9792 1.29778 5.17681 0
M  V30 389 O 31.2022 0.174676 5.70132 0
M  V30 390 O 30.1362 2.11261 5.63607 0
M  V30 391 H 33.9622 1.94398 2.3333 0
M  V30 392 H 31.5472 1.00587 1.10465 0
M  V30 393 H 33.4292 0.351998 4.19927 0
M  V30 394 H 32.1042 -0.334019 3.21972 0
M  V30 395 H 31.0112 1.98282 3.1723 0
M  V30 396 H 32.3442 2.59206 4.18417 0
M  V30 397 N 33.9963 -1.19345 1.0293 0
M  V30 398 C 35.2213 -1.93538 0.745511 0
M  V30 399 C 35.6463 -1.75007 -0.689511 0
M  V30 400 O 35.0043 -1.05265 -1.47611 0
M  V30 401 C 35.0523 -3.43336 1.10239 0
M  V30 402 O 34.1563 -4.11806 0.221289 0
M  V30 403 H 33.4973 -0.604193 0.275404 0
M  V30 404 H 36.0273 -1.5141 1.37609 0
M  V30 405 H 36.0373 -3.94004 1.05947 0
M  V30 406 H 34.7123 -3.56146 2.14786 0
M  V30 407 H 33.2893 -3.715 0.322842 0
M  V30 408 N 35.4744 -0.807222 -1.35358 0
M  V30 409 C 36.7234 -0.384376 -1.98004 0
M  V30 410 C 37.0364 1.0543 -1.64754 0
M  V30 411 O 38.2424 1.58029 -2.20769 0
M  V30 412 C 36.6984 -0.636326 -3.5423 0
M  V30 413 C 36.3064 -2.08759 -3.96388 0
M  V30 414 C 38.0504 -0.278869 -4.23583 0
M  V30 415 C 35.9574 -2.28525 -5.45463 0
M  V30 416 H 34.8874 -0.139986 -0.740891 0
M  V30 417 H 37.5384 -0.991369 -1.54415 0
M  V30 418 H 35.9204 0.0406256 -3.95979 0
M  V30 419 H 37.0944 -2.8024 -3.6579 0
M  V30 420 H 35.4094 -2.40497 -3.39926 0
M  V30 421 H 38.0064 -0.404599 -5.33167 0
M  V30 422 H 38.3494 0.775012 -4.09022 0
M  V30 423 H 38.8824 -0.909764 -3.87257 0
M  V30 424 H 35.6214 -3.32361 -5.64992 0
M  V30 425 H 35.1414 -1.61569 -5.77629 0
M  V30 426 H 36.8204 -2.10109 -6.11934 0
M  V30 427 N 36.9525 1.47285 -0.560781 0
M  V30 428 C 37.8995 2.30058 0.18491 0
M  V30 429 C 38.8695 1.39281 0.904986 0
M  V30 430 O 40.0545 1.68241 0.899979 0
M  V30 431 C 37.1945 3.23317 1.20666 0
M  V30 432 C 36.3075 4.29186 0.492285 0
M  V30 433 C 35.4425 5.09592 1.49964 0
M  V30 434 C 34.4815 6.07232 0.770439 0
M  V30 435 N 33.6185 6.80584 1.72479 0
M  V30 436 H 38.4585 2.93302 -0.527048 0
M  V30 437 H 35.9955 1.44568 -0.271738 0
M  V30 438 H 37.9535 3.75811 1.81168 0
M  V30 439 H 36.5835 2.61929 1.88661 0
M  V30 440 H 35.6355 3.7972 -0.227333 0
M  V30 441 H 36.9475 4.98738 -0.0787929 0
M  V30 442 H 36.1015 5.66254 2.17809 0
M  V30 443 H 34.8405 4.3995 2.10464 0
M  V30 444 H 33.8455 5.49745 0.0780846 0
M  V30 445 H 35.0705 6.78884 0.171134 0
M  V30 446 H 33.0165 6.1367 2.3183 0
M  V30 447 H 32.9335 7.46319 1.20596 0
M  V30 448 H 34.2015 7.41818 2.39428 0
M  V30 449 N 38.4306 0.297415 1.54768 0
M  V30 450 C 39.6766 -0.313376 2.00364 0
M  V30 451 C 40.0096 -1.53815 1.18553 0
M  V30 452 O 39.2846 -1.92739 0.261103 0
M  V30 453 C 39.5676 -0.673525 3.53745 0
M  V30 454 C 39.4206 0.560133 4.46299 0
M  V30 455 C 40.7396 -1.50143 4.13697 0
M  V30 456 H 37.8586 -0.112428 0.728374 0
M  V30 457 H 40.5006 0.4088 1.8555 0
M  V30 458 H 38.6506 -1.28881 3.665 0
M  V30 459 H 40.3226 1.19863 4.45455 0
M  V30 460 H 38.5656 1.19405 4.17043 0
M  V30 461 H 39.2366 0.26405 5.51368 0
M  V30 462 H 41.7126 -0.981588 4.04356 0
M  V30 463 H 40.5886 -1.72221 5.21182 0
M  V30 464 H 40.8496 -2.48952 3.65343 0
M  V30 465 N 39.9087 -1.5758 0.0250728 0
M  V30 466 C 41.1387 -1.95646 -0.663783 0
M  V30 467 C 41.5467 -0.899935 -1.66427 0
M  V30 468 O 40.8897 0.127191 -1.83259 0
M  V30 469 C 40.9517 -3.29835 -1.43 0
M  V30 470 C 40.6157 -4.53197 -0.588305 0
M  V30 471 C 41.6127 -5.19726 0.13469 0
M  V30 472 C 39.2977 -4.99529 -0.526897 0
M  V30 473 C 41.2917 -6.30902 0.90781 0
M  V30 474 C 38.9787 -6.10589 0.24993 0
M  V30 475 C 39.9767 -6.76134 0.965994 0
M  V30 476 O 39.6647 -7.85062 1.7301 0
M  V30 477 H 39.3967 -0.649282 -0.188174 0
M  V30 478 H 41.9507 -2.05245 0.0799006 0
M  V30 479 H 40.1807 -3.16716 -2.21873 0
M  V30 480 H 41.8697 -3.52833 -2.00658 0
M  V30 481 H 42.6357 -4.84904 0.0965562 0
M  V30 482 H 38.5147 -4.48319 -1.07381 0
M  V30 483 H 42.0587 -6.81995 1.46724 0
M  V30 484 H 37.9557 -6.44849 0.289795 0
M  V30 485 H 38.7237 -8.01708 1.64944 0
M  V30 486 N 41.3868 0.248026 -1.55636 0
M  V30 487 C 42.6348 0.974295 -1.77065 0
M  V30 488 C 42.9558 1.85897 -0.588849 0
M  V30 489 O 42.2258 1.91868 0.395407 0
M  V30 490 H 40.8058 0.362733 -0.653019 0
M  V30 491 H 43.4678 0.266244 -1.93073 0
M  V30 492 H 42.5638 1.59667 -2.68166 0
M  V30 493 N 42.8649 1.48995 0.513639 0
M  V30 494 C 43.8279 1.64229 1.59879 0
M  V30 495 C 44.8279 0.514696 1.5234 0
M  V30 496 O 46.0179 0.78087 1.55718 0
M  V30 497 C 43.1499 1.62783 2.99524 0
M  V30 498 H 44.3429 2.61004 1.47705 0
M  V30 499 H 41.8959 1.37837 0.736936 0
M  V30 500 H 42.6309 0.675461 3.17188 0
M  V30 501 H 42.4159 2.4466 3.06404 0
M  V30 502 H 43.9059 1.76669 3.78388 0
M  V30 503 N 44.343 -0.763751 1.37857 0
M  V30 504 C 45.592 -1.51789 1.32827 0
M  V30 505 C 45.905 -1.95426 -0.0823719 0
M  V30 506 O 47.111 -2.70298 -0.255172 0
M  V30 507 C 45.567 -2.74133 2.33193 0
M  V30 508 C 45.175 -2.37562 3.79827 0
M  V30 509 C 46.919 -3.52054 2.37188 0
M  V30 510 C 44.826 -3.56456 4.71904 0
M  V30 511 H 43.756 -0.569896 0.493695 0
M  V30 512 H 46.407 -0.835822 1.63359 0
M  V30 513 H 44.789 -3.4427 1.9569 0
M  V30 514 H 45.963 -1.75157 4.26212 0
M  V30 515 H 44.278 -1.72798 3.78853 0
M  V30 516 H 46.875 -4.40437 3.03182 0
M  V30 517 H 47.218 -3.92486 1.38782 0
M  V30 518 H 47.751 -2.88921 2.7344 0
M  V30 519 H 44.49 -3.21099 5.71468 0
M  V30 520 H 44.01 -4.17938 4.30218 0
M  V30 521 H 45.689 -4.23168 4.89426 0
M  V30 522 N 45.8211 -1.22559 -0.990812 0
M  V30 523 C 47.0681 -1.05141 -1.73065 0
M  V30 524 C 47.3961 0.413191 -1.9006 0
M  V30 525 O 46.6511 1.32257 -1.44245 0
M  V30 526 C 46.9501 -1.71011 -3.13831 0
M  V30 527 C 46.6161 -3.20911 -3.16745 0
M  V30 528 C 45.2781 -3.61812 -3.17247 0
M  V30 529 C 47.6301 -4.16846 -3.12872 0
M  V30 530 C 44.9581 -4.97127 -3.1158 0
M  V30 531 C 47.3101 -5.5214 -3.08746 0
M  V30 532 C 45.9741 -5.92419 -3.07565 0
M  V30 533 H 45.2441 -0.384738 -0.633291 0
M  V30 534 H 47.8911 -1.5235 -1.16025 0
M  V30 535 H 46.1961 -1.16133 -3.74193 0
M  V30 536 H 47.8931 -1.55023 -3.69823 0
M  V30 537 H 44.4831 -2.88344 -3.17105 0
M  V30 538 H 48.6671 -3.86263 -3.11632 0
M  V30 539 H 43.9231 -5.27562 -3.09012 0
M  V30 540 H 48.0971 -6.26201 -3.04705 0
M  V30 541 H 45.7241 -6.97236 -3.02929 0
M  V30 542 N 47.2992 1.18797 -1.03562 0
M  V30 543 C 48.2472 2.24297 -0.615905 0
M  V30 544 C 49.2412 1.65643 0.354808 0
M  V30 545 O 50.4472 1.78618 0.22265 0
M  V30 546 H 46.8222 0.729909 -0.180934 0
M  V30 547 H 48.7932 2.5701 -1.5162 0
M  V30 548 C 47.5422 3.47698 0.0104735 0
M  V30 549 H 46.8652 3.93125 -0.727509 0
M  V30 550 H 48.3052 4.23159 0.266995 0
M  V30 551 C 46.7642 3.12489 1.25905 0
M  V30 552 O 47.2942 3.25761 2.35038 0
M  V30 553 N 45.5002 2.6686 1.15039 0
M  V30 554 H 45.0472 2.56261 0.262328 0
M  V30 555 H 45.0052 2.43674 1.98672 0
M  V30 556 N 48.7773 0.814389 1.34928 0
M  V30 557 C 50.0263 0.394871 1.97797 0
M  V30 558 C 50.3393 -1.04555 1.65311 0
M  V30 559 O 51.5453 -1.56856 2.21604 0
M  V30 560 C 50.0013 0.655103 3.53888 0
M  V30 561 C 49.6093 2.10858 3.95276 0
M  V30 562 C 51.3533 0.301329 4.23429 0
M  V30 563 C 49.2603 2.31415 5.44244 0
M  V30 564 H 48.1903 0.143913 0.740139 0
M  V30 565 H 50.8413 0.999544 1.53888 0
M  V30 566 H 49.2233 -0.0196253 3.95995 0
M  V30 567 H 50.3973 2.82176 3.64298 0
M  V30 568 H 48.7123 2.42297 3.38646 0
M  V30 569 H 51.3093 0.432869 5.32945 0
M  V30 570 H 51.6523 -0.75331 4.09428 0
M  V30 571 H 52.1853 0.930288 3.86769 0
M  V30 572 H 48.9243 3.35353 5.63222 0
M  V30 573 H 48.4443 1.6463 5.76764 0
M  V30 574 H 50.1233 2.13352 6.10811 0
M  V30 575 N 50.2554 -1.46986 0.568584 0
M  V30 576 C 51.2024 -2.30153 -0.172707 0
M  V30 577 C 52.1724 -1.39759 -0.897586 0
M  V30 578 O 53.3574 -1.68716 -0.891044 0
M  V30 579 C 50.4974 -3.23952 -1.1895 0
M  V30 580 C 49.6104 -4.29441 -0.469517 0
M  V30 581 C 48.7454 -5.1038 -1.47259 0
M  V30 582 C 47.7844 -6.07632 -0.738225 0
M  V30 583 N 46.9214 -6.8149 -1.68868 0
M  V30 584 H 51.7614 -2.93019 0.542596 0
M  V30 585 H 49.2984 -1.44422 0.279401 0
M  V30 586 H 51.2564 -3.76767 -1.79173 0
M  V30 587 H 49.8864 -2.62926 -1.87269 0
M  V30 588 H 48.9384 -3.79594 0.247467 0
M  V30 589 H 50.2504 -4.98689 0.105241 0
M  V30 590 H 49.4044 -5.67402 -2.14803 0
M  V30 591 H 48.1434 -4.4106 -2.08128 0
M  V30 592 H 47.1484 -5.49778 -0.0489293 0
M  V30 593 H 48.3734 -6.78966 -0.135129 0
M  V30 594 H 46.3194 -6.14891 -2.28573 0
M  V30 595 H 46.2364 -7.46948 -1.16636 0
M  V30 596 H 47.5044 -7.43078 -2.3549 0
M  V30 597 N 51.7335 -0.305618 -1.54608 0
M  V30 598 C 53.0105 0.355652 -1.92339 0
M  V30 599 C 53.3905 1.71324 -1.23335 0
M  V30 600 O 52.7385 2.25473 -0.370702 0
M  V30 601 C 52.9485 0.46572 -3.45879 0
M  V30 602 C 54.2965 0.734426 -4.182 0
M  V30 603 O 55.3205 0.54935 -3.51938 0
M  V30 604 O 54.1795 1.09024 -5.35515 0
M  V30 605 H 51.2735 0.199666 -0.802535 0
M  V30 606 H 53.8195 -0.354017 -1.65966 0
M  V30 607 H 52.5915 -0.488461 -3.88239 0
M  V30 608 H 52.2145 1.22367 -3.78301 0
M  V30 609 N 53.2116 1.57565 -0.0334293 0
M  V30 610 C 54.1586 2.10478 0.946981 0
M  V30 611 C 55.1286 1.00787 1.32027 0
M  V30 612 O 56.3136 1.28232 1.41284 0
M  V30 613 C 53.4536 2.63994 2.22263 0
M  V30 614 C 52.5666 3.87709 1.90541 0
M  V30 615 C 51.7016 4.29604 3.12433 0
M  V30 616 C 50.7406 5.46065 2.76549 0
M  V30 617 N 49.8776 5.83096 3.9108 0
M  V30 618 H 54.7176 2.93963 0.488846 0
M  V30 619 H 52.2546 1.45296 0.22969 0
M  V30 620 H 54.2126 2.93114 2.96884 0
M  V30 621 H 52.8426 1.83333 2.65685 0
M  V30 622 H 51.8946 3.65291 1.06144 0
M  V30 623 H 53.2066 4.72403 1.60116 0
M  V30 624 H 52.3606 4.60182 3.9537 0
M  V30 625 H 51.0996 3.43685 3.46023 0
M  V30 626 H 50.1046 5.15176 1.92026 0
M  V30 627 H 51.3296 6.33685 2.44171 0
M  V30 628 H 49.2756 5.00132 4.24504 0
M  V30 629 H 49.1926 6.6244 3.64293 0
M  V30 630 H 50.4606 6.18282 4.74708 0
M  V30 631 N 54.6897 -0.239769 1.55765 0
M  V30 632 C 55.6377 -1.31668 1.91745 0
M  V30 633 C 56.6317 -1.49462 0.797338 0
M  V30 634 O 57.8377 -1.50852 0.982021 0
M  V30 635 H 54.2127 -0.441048 0.609082 0
M  V30 636 H 56.1837 -0.985923 2.81642 0
M  V30 637 C 54.9327 -2.66368 2.2348 0
M  V30 638 H 54.2557 -2.53478 3.09175 0
M  V30 639 H 55.6957 -3.40578 2.52553 0
M  V30 640 C 54.1547 -3.20002 1.05359 0
M  V30 641 O 54.6847 -4.00538 0.305261 0
M  V30 642 N 52.8907 -2.78126 0.842292 0
M  V30 643 H 52.4377 -2.12742 1.45253 0
M  V30 644 H 52.3957 -3.14354 0.053652 0
M  V30 645 N 56.1678 -1.49265 -0.50573 0
M  V30 646 C 57.5788 -1.51769 -1.08734 0
M  V30 647 C 57.9298 -0.301192 -1.93874 0
M  V30 648 O 57.0548 0.589456 -2.08217 0
M  V30 649 C 57.6498 -2.75017 -1.97867 0
M  V30 650 C 56.2088 -2.80314 -2.51199 0
M  V30 651 C 55.3558 -2.4562 -1.28709 0
M  V30 652 H 58.3068 -1.56031 -0.289855 0
M  V30 653 H 58.3278 -2.5491 -2.82491 0
M  V30 654 H 57.8398 -3.63539 -1.35873 0
M  V30 655 H 55.9408 -1.96061 -3.16845 0
M  V30 656 H 56.0538 -3.82366 -2.88675 0
M  V30 657 H 54.4178 -1.97297 -1.61078 0
M  V30 658 H 55.2008 -3.36411 -0.6843 0
M  V30 659 N 57.6459 0.756429 -1.3826 0
M  V30 660 C 58.8929 1.51547 -1.34312 0
M  V30 661 C 59.2209 1.94382 0.0677144 0
M  V30 662 O 58.4759 1.65514 1.04421 0
M  V30 663 C 58.7749 2.78313 -2.24224 0
M  V30 664 C 58.4409 2.54455 -3.72241 0
M  V30 665 C 57.1029 2.47657 -4.12576 0
M  V30 666 C 59.4549 2.3354 -4.65949 0
M  V30 667 C 56.7829 2.17956 -5.44713 0
M  V30 668 C 59.1349 2.05359 -5.9834 0
M  V30 669 C 57.7989 1.97016 -6.37762 0
M  V30 670 H 57.0689 0.55455 -0.491482 0
M  V30 671 H 59.7159 0.870039 -1.70595 0
M  V30 672 H 58.0209 3.47492 -1.80987 0
M  V30 673 H 59.7179 3.36259 -2.18474 0
M  V30 674 H 56.3079 2.60616 -3.40261 0
M  V30 675 H 60.4919 2.37772 -4.35635 0
M  V30 676 H 55.7479 2.10003 -5.74203 0
M  V30 677 H 59.9219 1.88179 -6.70494 0
M  V30 678 H 57.5489 1.73766 -7.40074 0
M  V30 679 N 59.124 1.23083 0.984299 0
M  V30 680 C 60.072 1.00593 2.09723 0
M  V30 681 C 61.066 -0.0538014 1.69315 0
M  V30 682 O 62.272 0.0993719 1.79725 0
M  V30 683 H 58.647 0.30817 0.685956 0
M  V30 684 H 60.618 1.95012 2.2586 0
M  V30 685 C 59.367 0.609601 3.42314 0
M  V30 686 H 58.69 1.41675 3.73856 0
M  V30 687 H 60.13 0.491726 4.21139 0
M  V30 688 C 58.589 -0.681745 3.2993 0
M  V30 689 O 59.119 -1.73192 3.62446 0
M  V30 690 N 57.325 -0.656178 2.83095 0
M  V30 691 H 56.872 0.198759 2.56832 0
M  V30 692 H 56.83 -1.52044 2.75191 0
M  V30 693 N 60.6021 -1.18246 1.0419 0
M  V30 694 C 61.5351 -2.20746 0.578474 0
M  V30 695 C 62.5131 -1.57912 -0.387624 0
M  V30 696 O 63.6971 -1.86071 -0.301634 0
M  V30 697 C 60.8241 -3.38346 -0.154762 0
M  V30 698 C 59.8701 -4.19587 0.764782 0
M  V30 699 S 60.7031 -4.86014 2.24835 0
M  V30 700 C 61.8591 -6.07012 1.526 0
M  V30 701 H 62.0921 -2.59715 1.44691 0
M  V30 702 H 59.6251 -1.287 0.85297 0
M  V30 703 H 61.5831 -4.065 -0.571641 0
M  V30 704 H 60.2441 -2.97786 -0.999105 0
M  V30 705 H 59.4371 -5.03611 0.197976 0
M  V30 706 H 59.0391 -3.56818 1.12057 0
M  V30 707 H 61.3311 -6.72523 0.819733 0
M  V30 708 H 62.2741 -6.68202 2.34333 0
M  V30 709 H 62.6821 -5.55249 1.01779 0
M  V30 710 N 62.0802 -0.821533 -1.34494 0
M  V30 711 C 62.9902 -0.244355 -2.33324 0
M  V30 712 C 64.0062 0.620527 -1.62559 0
M  V30 713 O 65.1822 0.528754 -1.94335 0
M  V30 714 C 62.2472 0.585368 -3.41723 0
M  V30 715 C 61.3082 -0.301752 -4.28238 0
M  V30 716 C 60.5412 0.488466 -5.3146 0
M  V30 717 O 60.7642 1.72186 -5.4379 0
M  V30 718 O 59.6982 -0.12848 -6.01763 0
M  V30 719 H 63.5242 -1.06231 -2.84515 0
M  V30 720 H 61.1092 -0.583645 -1.37528 0
M  V30 721 H 62.9912 1.05747 -4.07916 0
M  V30 722 H 61.6662 1.38068 -2.92778 0
M  V30 723 H 60.5732 -0.821315 -3.64973 0
M  V30 724 H 61.9062 -1.06138 -4.8062 0
M  V30 725 N 63.5583 1.46682 -0.576371 0
M  V30 726 C 64.8043 2.02712 -0.0596221 0
M  V30 727 C 65.1373 1.44765 1.29448 0
M  V30 728 O 64.4123 0.610355 1.84675 0
M  V30 729 C 64.6953 3.60098 0.0129503 0
M  V30 730 C 64.5483 4.28441 -1.3696 0
M  V30 731 C 65.8673 4.34224 0.71678 0
M  V30 732 H 62.9863 0.736637 -0.0231407 0
M  V30 733 H 65.6283 1.74898 -0.742351 0
M  V30 734 H 63.7783 3.83926 0.594378 0
M  V30 735 H 65.4503 4.15896 -1.9957 0
M  V30 736 H 63.6933 3.8805 -1.93907 0
M  V30 737 H 64.3643 5.3716 -1.27135 0
M  V30 738 H 66.8403 4.15503 0.222908 0
M  V30 739 H 65.7163 5.43936 0.73657 0
M  V30 740 H 65.9773 4.04823 1.77682 0
M  V30 741 N 65.0364 0.313813 1.54444 0
M  V30 742 C 65.9664 -0.549454 2.26943 0
M  V30 743 C 66.9474 -1.12741 1.27372 0
M  V30 744 O 68.1324 -1.15436 1.56167 0
M  V30 745 C 65.2624 -1.71523 3.01989 0
M  V30 746 C 64.2164 -1.26703 4.08816 0
M  V30 747 C 63.5424 -2.51898 4.71647 0
M  V30 748 C 64.8424 -0.388962 5.2085 0
M  V30 749 H 66.5364 0.0552661 2.99349 0
M  V30 750 H 64.0824 0.0280207 1.43973 0
M  V30 751 H 66.0354 -2.32535 3.51433 0
M  V30 752 H 64.7594 -2.34639 2.27183 0
M  V30 753 H 63.4184 -0.679896 3.6024 0
M  V30 754 H 63.0664 -3.13356 3.93468 0
M  V30 755 H 62.7664 -2.22605 5.43802 0
M  V30 756 H 64.2904 -3.1369 5.23861 0
M  V30 757 H 65.7044 -0.905107 5.6611 0
M  V30 758 H 64.1014 -0.18924 5.99802 0
M  V30 759 H 65.1714 0.582699 4.81386 0
M  V30 760 N 66.5145 -1.57545 0.0417849 0
M  V30 761 C 67.7605 -1.92601 -0.635021 0
M  V30 762 C 68.0935 -0.919627 -1.71045 0
M  V30 763 O 67.3685 0.0557892 -1.9442 0
M  V30 764 C 67.6515 -3.38085 -1.23979 0
M  V30 765 C 67.5045 -4.49467 -0.173057 0
M  V30 766 C 68.8235 -3.83776 -2.15416 0
M  V30 767 H 65.9425 -0.700397 -0.229374 0
M  V30 768 H 68.5845 -1.89728 0.101633 0
M  V30 769 H 66.7345 -3.40664 -1.86762 0
M  V30 770 H 68.4065 -4.59018 0.458312 0
M  V30 771 H 66.6495 -4.30909 0.499996 0
M  V30 772 H 67.3205 -5.48323 -0.636054 0
M  V30 773 H 69.7965 -3.83013 -1.62605 0
M  V30 774 H 68.6725 -4.8624 -2.54679 0
M  V30 775 H 68.9335 -3.19998 -3.05047 0
M  V30 776 N 67.9926 0.231505 -1.5589 0
M  V30 777 C 69.2696 0.981096 -1.69215 0
M  V30 778 C 69.6496 2.02799 -0.586164 0
M  V30 779 O 68.9976 2.24823 0.408253 0
M  V30 780 C 69.2076 1.60054 -3.10135 0
M  V30 781 C 70.5556 2.09658 -3.69227 0
M  V30 782 O 71.5796 1.69967 -3.13033 0
M  V30 783 O 70.4386 2.8258 -4.67772 0
M  V30 784 H 67.5326 0.457653 -0.688827 0
M  V30 785 H 70.0786 0.224073 -1.68214 0
M  V30 786 H 68.8506 0.844105 -3.82087 0
M  V30 787 H 68.4736 2.42336 -3.15212 0
M  V30 788 N 69.4707 1.49531 0.497807 0
M  V30 789 C 70.4337 1.65916 1.58128 0
M  V30 790 C 71.4337 0.530825 1.51786 0
M  V30 791 O 72.6237 0.797342 1.54881 0
M  V30 792 C 69.7557 1.65951 2.9778 0
M  V30 793 H 70.9487 2.62556 1.44929 0
M  V30 794 H 68.5017 1.38611 0.722275 0
M  V30 795 H 69.2367 0.709065 3.16453 0
M  V30 796 H 69.0217 2.47897 3.03792 0
M  V30 797 H 70.5117 1.80673 3.76493 0
M  V30 798 N 70.9488 -0.749086 1.3866 0
M  V30 799 C 72.1948 -1.50959 1.36319 0
M  V30 800 C 72.5498 -1.92347 -0.0452451 0
M  V30 801 O 71.8428 -1.6289 -1.00884 0
M  V30 802 C 72.0368 -2.7712 2.25697 0
M  V30 803 C 71.8658 -2.48067 3.7509 0
M  V30 804 C 70.6358 -2.41062 4.44091 0
M  V30 805 C 72.8338 -2.14544 4.67414 0
M  V30 806 N 70.8158 -2.04331 5.78897 0
M  V30 807 C 72.1868 -1.88141 5.90765 0
M  V30 808 C 74.2418 -2.00892 4.55573 0
M  V30 809 C 72.9448 -1.49463 7.036 0
M  V30 810 C 74.9708 -1.63616 5.68317 0
M  V30 811 C 74.3328 -1.38088 6.90732 0
M  V30 812 H 70.4318 -0.551804 0.554108 0
M  V30 813 H 73.0158 -0.871886 1.74087 0
M  V30 814 H 71.1868 -3.38693 1.9011 0
M  V30 815 H 72.9188 -3.4321 2.1445 0
M  V30 816 H 69.6738 -2.57685 3.9736 0
M  V30 817 H 70.0978 -1.88598 6.502 0
M  V30 818 H 74.7398 -2.19301 3.61479 0
M  V30 819 H 72.4578 -1.29794 7.97608 0
M  V30 820 H 76.0438 -1.53678 5.61137 0
M  V30 821 H 74.9238 -1.09674 7.76493 0
M  V30 822 N 72.4269 -1.23603 -0.977757 0
M  V30 823 C 73.8379 -1.06424 -1.53398 0
M  V30 824 C 74.1889 0.367578 -1.92726 0
M  V30 825 O 73.3139 1.25465 -1.76316 0
M  V30 826 C 73.9089 -1.92568 -2.78753 0
M  V30 827 C 72.4679 -1.79642 -3.30765 0
M  V30 828 C 71.6149 -1.88111 -2.03739 0
M  V30 829 H 74.5659 -1.37227 -0.797152 0
M  V30 830 H 74.5869 -1.45203 -3.51705 0
M  V30 831 H 74.0989 -2.96771 -2.50098 0
M  V30 832 H 72.1999 -0.782325 -3.64294 0
M  V30 833 H 72.3129 -2.63174 -4.00345 0
M  V30 834 H 70.6769 -1.31723 -2.17994 0
M  V30 835 H 71.4599 -2.93875 -1.77461 0
M  V30 836 N 73.905 1.17692 -1.04816 0
M  V30 837 C 75.182 1.83768 -0.669963 0
M  V30 838 C 75.562 1.93232 0.849986 0
M  V30 839 O 74.91 1.46397 1.75443 0
M  V30 840 C 75.12 3.21641 -1.35455 0
M  V30 841 C 76.468 3.97592 -1.49017 0
M  V30 842 O 77.492 3.31107 -1.31326 0
M  V30 843 O 76.351 5.16729 -1.77914 0
M  V30 844 H 73.445 0.792799 -0.235368 0
M  V30 845 H 75.991 1.25021 -1.14751 0
M  V30 846 H 74.763 3.097 -2.39168 0
M  V30 847 H 74.386 3.88052 -0.866107 0
M  V30 848 N 75.3831 0.828654 1.34056 0
M  V30 849 C 76.6131 0.431993 2.02033 0
M  V30 850 C 77.0211 -0.96844 1.62536 0
M  V30 851 O 76.3641 -1.6391 0.829408 0
M  V30 852 C 76.4261 0.461224 3.56529 0
M  V30 853 C 76.0901 1.81599 4.1937 0
M  V30 854 C 77.0871 2.7777 4.39477 0
M  V30 855 C 74.7721 2.10604 4.56017 0
M  V30 856 C 76.7661 4.01115 4.95364 0
M  V30 857 C 74.4531 3.34207 5.11614 0
M  V30 858 C 75.4511 4.2928 5.31232 0
M  V30 859 O 75.1391 5.50699 5.8565 0
M  V30 860 H 74.8711 0.170943 0.654029 0
M  V30 861 H 77.4251 1.11988 1.72185 0
M  V30 862 H 75.6551 -0.283388 3.8566 0
M  V30 863 H 77.3441 0.0838149 4.05813 0
M  V30 864 H 78.1101 2.56659 4.11523 0
M  V30 865 H 73.9891 1.37402 4.40047 0
M  V30 866 H 77.5331 4.75333 5.10592 0
M  V30 867 H 73.4301 3.55179 5.38997 0
M  V30 868 H 74.1981 5.52298 6.04077 0
M  V30 869 N 76.8612 -1.46375 0.584142 0
M  V30 870 C 77.7932 -2.28443 -0.186119 0
M  V30 871 C 78.8062 -1.38596 -0.854115 0
M  V30 872 O 79.9952 -1.63183 -0.723438 0
M  V30 873 C 77.0952 -3.13671 -1.28311 0
M  V30 874 C 76.2682 -4.31652 -0.706758 0
M  V30 875 C 75.3272 -4.98267 -1.69163 0
M  V30 876 O 74.3532 -5.55815 -1.22712 0
M  V30 877 N 75.5552 -4.95408 -3.02575 0
M  V30 878 H 78.3202 -2.9519 0.517986 0
M  V30 879 H 75.8812 -1.56303 0.42201 0
M  V30 880 H 77.8732 -3.55101 -1.94128 0
M  V30 881 H 76.4432 -2.48989 -1.89005 0
M  V30 882 H 75.6632 -3.93989 0.128908 0
M  V30 883 H 76.9512 -5.07906 -0.301506 0
M  V30 884 H 76.3492 -4.49902 -3.42936 0
M  V30 885 H 74.9062 -5.40774 -3.63877 0
M  V30 886 N 78.3393 -0.321999 -1.54275 0
M  V30 887 C 79.5883 0.281931 -1.9972 0
M  V30 888 C 79.9013 1.53369 -1.21397 0
M  V30 889 O 81.1073 2.21352 -1.57211 0
M  V30 890 C 79.5633 0.5529 -3.55628 0
M  V30 891 C 79.1713 -0.681721 -4.42783 0
M  V30 892 C 80.9153 1.11687 -4.09544 0
M  V30 893 C 78.8223 -0.382742 -5.9016 0
M  V30 894 H 77.7523 0.109124 -0.746062 0
M  V30 895 H 80.4033 -0.43398 -1.78294 0
M  V30 896 H 78.7853 1.32896 -3.73035 0
M  V30 897 H 79.9593 -1.45723 -4.37151 0
M  V30 898 H 78.2743 -1.1658 -3.99748 0
M  V30 899 H 80.8713 1.35515 -5.17242 0
M  V30 900 H 81.2143 2.06575 -3.61431 0
M  V30 901 H 81.7473 0.402032 -3.95763 0
M  V30 902 H 78.4863 -1.30076 -6.42464 0
M  V30 903 H 78.0063 0.355094 -5.98748 0
M  V30 904 H 79.6853 0.00800157 -6.47 0
M  V30 905 N 79.8174 1.5752 -0.0501392 0
M  V30 906 C 81.0634 1.92936 0.624798 0
M  V30 907 C 81.3964 0.928685 1.70555 0
M  V30 908 O 80.6714 -0.0454779 1.94447 0
M  V30 909 C 80.9544 3.38737 1.22185 0
M  V30 910 C 80.8074 4.49552 0.149218 0
M  V30 911 C 82.1264 3.84913 2.13378 0
M  V30 912 H 79.2454 0.701604 0.225657 0
M  V30 913 H 81.8874 1.89671 -0.111693 0
M  V30 914 H 80.0374 3.4165 1.84953 0
M  V30 915 H 81.7094 4.58768 -0.482648 0
M  V30 916 H 79.9524 4.30638 -0.522841 0
M  V30 917 H 80.6234 5.48653 0.606966 0
M  V30 918 H 83.0994 3.8387 1.60572 0
M  V30 919 H 81.9754 4.87584 2.52097 0
M  V30 920 H 82.2364 3.21611 3.03346 0
M  V30 921 N 81.2955 -0.223234 1.56011 0
M  V30 922 C 82.5445 -0.945912 1.78144 0
M  V30 923 C 82.8575 -1.85567 0.618396 0
M  V30 924 O 84.0635 -2.61688 0.723318 0
M  V30 925 C 82.5195 -1.73216 3.15475 0
M  V30 926 C 82.1275 -0.868619 4.39499 0
M  V30 927 C 83.8715 -2.44615 3.46935 0
M  V30 928 C 81.7785 -1.65212 5.67855 0
M  V30 929 H 80.7085 -0.356929 0.664167 0
M  V30 930 H 83.3595 -0.199845 1.82409 0
M  V30 931 H 81.7415 -2.52107 3.05382 0
M  V30 932 H 82.9155 -0.120366 4.60643 0
M  V30 933 H 81.2305 -0.26683 4.15544 0
M  V30 934 H 83.8275 -3.03732 4.40058 0
M  V30 935 H 84.1705 -3.17417 2.69355 0
M  V30 936 H 84.7035 -1.72715 3.58349 0
M  V30 937 H 81.4425 -0.967407 6.48322 0
M  V30 938 H 80.9625 -2.37503 5.50774 0
M  V30 939 H 82.6415 -2.21322 6.07968 0
M  V30 940 N 82.7736 -1.49793 -0.48987 0
M  V30 941 C 84.0016 -1.63568 -1.26701 0
M  V30 942 C 84.4166 -0.311465 -1.86213 0
M  V30 943 O 83.7736 0.704416 -1.68357 0
M  V30 944 C 83.8246 -2.71284 -2.38929 0
M  V30 945 O 83.5456 -3.9857 -1.81861 0
M  V30 946 C 85.0466 -2.95864 -3.3012 0
M  V30 947 H 82.2666 -0.550342 -0.383881 0
M  V30 948 H 84.8106 -1.95898 -0.586864 0
M  V30 949 H 82.9656 -2.417 -3.02753 0
M  V30 950 H 83.3796 -4.57993 -2.55622 0
M  V30 951 H 84.8536 -3.74941 -4.05121 0
M  V30 952 H 85.3306 -2.06206 -3.87783 0
M  V30 953 H 85.9366 -3.26907 -2.72051 0
M  V30 954 N 84.2517 0.741722 -1.39055 0
M  V30 955 C 85.6677 1.04638 -1.20512 0
M  V30 956 C 85.8677 2.01405 -0.0620218 0
M  V30 957 O 84.9237 2.45547 0.588457 0
M  V30 958 C 86.2367 1.6151 -2.53643 0
M  V30 959 C 87.7847 1.73623 -2.6043 0
M  V30 960 C 88.2597 2.33906 -3.93767 0
M  V30 961 N 89.7507 2.41323 -3.9537 0
M  V30 962 C 90.4857 2.88888 -4.95309 0
M  V30 963 N 89.9817 3.36401 -6.05645 0
M  V30 964 N 91.7747 2.88037 -4.82692 0
M  V30 965 H 83.9257 0.0998155 -2.12165 0
M  V30 966 H 86.1887 0.106907 -0.941953 0
M  V30 967 H 85.8947 0.978739 -3.37807 0
M  V30 968 H 85.7687 2.60411 -2.72885 0
M  V30 969 H 88.1557 2.36384 -1.76655 0
M  V30 970 H 88.2367 0.733945 -2.45045 0
M  V30 971 H 87.8807 1.71776 -4.7797 0
M  V30 972 H 87.8107 3.34799 -4.06469 0
M  V30 973 H 90.3017 2.07734 -3.15682 0
M  V30 974 H 90.6147 3.71186 -6.77821 0
M  V30 975 H 88.9597 3.34427 -6.09248 0
M  V30 976 H 92.1507 2.50237 -3.95599 0
M  V30 977 H 92.3237 3.24792 -5.60726 0
M  V30 978 N 85.7298 1.2412 0.971189 0
M  V30 979 C 87.1408 1.07236 1.52831 0
M  V30 980 C 87.4918 -0.357352 1.92918 0
M  V30 981 O 86.6168 -1.24528 1.76979 0
M  V30 982 C 87.2118 1.94043 2.77728 0
M  V30 983 C 85.7708 1.81394 3.29808 0
M  V30 984 C 84.9178 1.89189 2.02738 0
M  V30 985 H 87.8688 1.37648 0.789864 0
M  V30 986 H 87.8898 1.47066 3.5093 0
M  V30 987 H 87.4018 2.98093 2.4852 0
M  V30 988 H 85.5028 0.801634 3.63874 0
M  V30 989 H 85.6158 2.65294 3.98944 0
M  V30 990 H 83.9798 1.32877 2.17292 0
M  V30 991 H 84.7628 2.94812 1.759 0
M  V30 992 N 87.2079 -1.17134 1.05439 0
M  V30 993 C 88.1399 -2.2078 0.615539 0
M  V30 994 C 89.1529 -1.59584 -0.322001 0
M  V30 995 O 90.3419 -1.78133 -0.114344 0
M  V30 996 C 87.4419 -3.38691 -0.118938 0
M  V30 997 C 86.6149 -4.29454 0.829924 0
M  V30 998 C 85.6739 -5.26024 0.136258 0
M  V30 999 O 84.6999 -5.63952 0.77115 0
M  V30 1000 N 85.9019 -5.69487 -1.1254 0
M  V30 1001 H 88.6669 -2.59052 1.50705 0
M  V30 1002 H 86.2279 -1.32058 0.936603 0
M  V30 1003 H 88.2199 -4.00329 -0.593179 0
M  V30 1004 H 86.7899 -2.98996 -0.91215 0
M  V30 1005 H 86.0099 -3.65211 1.48373 0
M  V30 1006 H 87.2979 -4.86984 1.47392 0
M  V30 1007 H 86.6959 -5.4075 -1.6615 0
M  V30 1008 H 85.2529 -6.33257 -1.54366 0
M  V30 1009 N 88.686 -0.835752 -1.33615 0
M  V30 1010 C 89.633 -0.26473 -2.29277 0
M  V30 1011 C 90.603 0.617712 -1.54187 0
M  V30 1012 O 91.788 0.556641 -1.825 0
M  V30 1013 C 88.928 0.556777 -3.40579 0
M  V30 1014 C 88.041 -0.349339 -4.30585 0
M  V30 1015 C 87.176 0.482969 -5.29 0
M  V30 1016 C 86.215 -0.421732 -6.10645 0
M  V30 1017 N 85.352 0.372262 -7.01112 0
M  V30 1018 H 90.192 -1.08582 -2.77514 0
M  V30 1019 H 87.729 -0.546927 -1.36554 0
M  V30 1020 H 89.687 1.04852 -4.03809 0
M  V30 1021 H 88.317 1.34286 -2.93542 0
M  V30 1022 H 87.369 -0.959372 -3.68104 0
M  V30 1023 H 88.681 -1.04445 -4.87742 0
M  V30 1024 H 87.835 1.03866 -5.97743 0
M  V30 1025 H 86.574 1.21153 -4.72412 0
M  V30 1026 H 85.579 -0.989464 -5.40823 0
M  V30 1027 H 86.804 -1.14861 -6.69316 0
M  V30 1028 H 84.75 1.08426 -6.46977 0
M  V30 1029 H 84.667 -0.264198 -7.55538 0
M  V30 1030 H 85.935 0.910293 -7.74167 0
M  V30 1031 N 90.1641 1.46063 -0.591896 0
M  V30 1032 C 91.0961 2.28539 0.174001 0
M  V30 1033 C 92.1091 1.39047 0.846753 0
M  V30 1034 O 93.2981 1.63564 0.714774 0
M  V30 1035 C 90.3981 3.14347 1.26645 0
M  V30 1036 C 89.5711 4.32021 0.683856 0
M  V30 1037 C 88.6301 4.99157 1.66518 0
M  V30 1038 O 87.6561 5.56458 1.19763 0
M  V30 1039 N 88.8581 4.97005 2.99943 0
M  V30 1040 H 91.6231 2.94911 -0.533633 0
M  V30 1041 H 89.1841 1.56077 -0.430294 0
M  V30 1042 H 91.1761 3.56125 1.92242 0
M  V30 1043 H 89.7461 2.49988 1.87682 0
M  V30 1044 H 88.9661 3.93915 -0.1498 0
M  V30 1045 H 90.2541 5.08059 0.274567 0
M  V30 1046 H 89.6521 4.51714 3.40545 0
M  V30 1047 H 88.2091 5.42696 3.61004 0
M  V30 1048 N 91.6422 0.330177 1.54103 0
M  V30 1049 C 92.5522 -0.541534 2.28264 0
M  V30 1050 C 93.5682 -1.12351 1.32866 0
M  V30 1051 O 94.7442 -1.14206 1.65888 0
M  V30 1052 C 91.8092 -1.68322 3.03098 0
M  V30 1053 C 90.8702 -1.13238 4.14096 0
M  V30 1054 C 90.1032 -2.21966 4.85352 0
M  V30 1055 O 90.3262 -3.42437 4.56172 0
M  V30 1056 O 89.2602 -1.87013 5.7211 0
M  V30 1057 H 93.0862 0.060938 3.03639 0
M  V30 1058 H 90.6712 0.09565 1.49093 0
M  V30 1059 H 92.5532 -2.34777 3.49939 0
M  V30 1060 H 91.2282 -2.27176 2.30593 0
M  V30 1061 H 90.1352 -0.432736 3.71589 0
M  V30 1062 H 91.4682 -0.588898 4.88664 0
M  V30 1063 N 93.1203 -1.57491 0.0584922 0
M  V30 1064 C 94.0533 -2.07533 -0.948969 0
M  V30 1065 C 95.0313 -0.977444 -1.29942 0
M  V30 1066 O 96.2153 -1.2499 -1.41102 0
M  V30 1067 C 93.3423 -2.52192 -2.2609 0
M  V30 1068 C 92.3883 -3.73287 -2.06298 0
M  V30 1069 S 93.2213 -5.18603 -1.33459 0
M  V30 1070 C 94.3773 -5.66583 -2.65959 0
M  V30 1071 H 94.6103 -2.92662 -0.523118 0
M  V30 1072 H 92.1433 -1.53631 -0.153954 0
M  V30 1073 H 94.1013 -2.78585 -3.01498 0
M  V30 1074 H 92.7623 -1.67356 -2.65802 0
M  V30 1075 H 91.9553 -4.0248 -3.03357 0
M  V30 1076 H 91.5573 -3.47199 -1.39029 0
M  V30 1077 H 93.8493 -5.72616 -3.62101 0
M  V30 1078 H 94.7923 -6.65684 -2.41393 0
M  V30 1079 H 95.2003 -4.94342 -2.72554 0
M  V30 1080 N 94.5984 0.214957 -1.56127 0
M  V30 1081 C 95.5454 1.26642 -1.92952 0
M  V30 1082 C 96.5154 1.46244 -0.78753 0
M  V30 1083 O 97.7004 1.59704 -1.04399 0
M  V30 1084 C 94.8404 2.6104 -2.25726 0
M  V30 1085 C 93.9534 2.49183 -3.52891 0
M  V30 1086 C 93.0884 3.76149 -3.7508 0
M  V30 1087 C 92.1274 3.59041 -4.95738 0
M  V30 1088 N 91.2644 4.77972 -5.14283 0
M  V30 1089 H 96.1044 0.945384 -2.82607 0
M  V30 1090 H 93.6414 0.455489 -1.3987 0
M  V30 1091 H 95.5994 3.39313 -2.42739 0
M  V30 1092 H 94.2294 2.91227 -1.39236 0
M  V30 1093 H 93.2814 1.6231 -3.44034 0
M  V30 1094 H 94.5934 2.32466 -4.41318 0
M  V30 1095 H 93.7474 4.62865 -3.92226 0
M  V30 1096 H 92.4864 3.95799 -2.84947 0
M  V30 1097 H 91.4914 2.7071 -4.78535 0
M  V30 1098 H 92.7164 3.40856 -5.87362 0
M  V30 1099 H 90.6624 4.97923 -4.27093 0
M  V30 1100 H 90.5794 4.64006 -5.96853 0
M  V30 1101 H 91.8474 5.66096 -5.35869 0
M  V30 1102 N 96.0765 1.50051 0.48192 0
M  V30 1103 C 97.3535 1.51009 1.2432 0
M  V30 1104 C 97.7335 0.248587 2.09631 0
M  V30 1105 O 97.0815 -0.768409 2.15192 0
M  V30 1106 C 97.2915 2.79981 2.08355 0
M  V30 1107 C 98.6395 3.3022 2.66908 0
M  V30 1108 O 99.6635 2.81228 2.18607 0
M  V30 1109 O 98.5225 4.15595 3.54884 0
M  V30 1110 H 95.6165 0.605239 0.563573 0
M  V30 1111 H 98.1625 1.62332 0.494627 0
M  V30 1112 H 96.9345 3.63275 1.45419 0
M  V30 1113 H 96.5575 2.7161 2.90368 0
M  V30 1114 N 97.5546 -0.734337 1.39446 0
M  V30 1115 C 98.8316 -1.48579 1.27215 0
M  V30 1116 C 99.2116 -2.1077 -0.117968 0
M  V30 1117 O 98.5596 -1.98646 -1.12924 0
M  V30 1118 C 98.7696 -2.53667 2.39696 0
M  V30 1119 C 100.118 -3.20031 2.79044 0
M  V30 1120 O 101.142 -2.6398 2.39151 0
M  V30 1121 O 100.001 -4.21455 3.47905 0
M  V30 1122 H 97.0946 -0.659816 0.49857 0
M  V30 1123 H 99.6406 -0.768106 1.51322 0
M  V30 1124 H 98.4126 -2.06096 3.32626 0
M  V30 1125 H 98.0356 -3.32994 2.17258 0
M  V30 1126 N 99.0327 -1.24633 -0.964593 0
M  V30 1127 C 99.9647 -0.999302 -2.06268 0
M  V30 1128 C 100.978 0.0323226 -1.62768 0
M  V30 1129 O 102.167 -0.205079 -1.77318 0
M  V30 1130 C 99.2667 -0.486816 -3.35385 0
M  V30 1131 C 98.4397 -1.5823 -4.07777 0
M  V30 1132 C 97.4987 -1.07191 -5.15166 0
M  V30 1133 O 96.5247 -1.76426 -5.41168 0
M  V30 1134 N 97.7267 0.0920373 -5.80427 0
M  V30 1135 H 100.492 -1.94477 -2.28033 0
M  V30 1136 H 98.0527 -1.15704 -1.13244 0
M  V30 1137 H 100.045 -0.130066 -4.04491 0
M  V30 1138 H 98.6147 0.364459 -3.10468 0
M  V30 1139 H 97.8347 -2.11109 -3.32906 0
M  V30 1140 H 99.1227 -2.31854 -4.52903 0
M  V30 1141 H 98.5207 0.670784 -5.61709 0
M  V30 1142 H 97.0777 0.389905 -6.50633 0
M  V30 1143 N 100.511 1.16574 -1.06058 0
M  V30 1144 C 101.788 1.83048 -0.689416 0
M  V30 1145 C 102.168 1.94122 0.829443 0
M  V30 1146 O 101.516 1.48249 1.7388 0
M  V30 1147 C 101.726 3.20186 -1.38859 0
M  V30 1148 C 103.074 3.95989 -1.53226 0
M  V30 1149 O 104.098 3.29696 -1.3483 0
M  V30 1150 O 102.957 5.14813 -1.83384 0
M  V30 1151 H 100.051 0.790258 -0.243764 0
M  V30 1152 H 102.597 1.23797 -1.16071 0
M  V30 1153 H 101.369 3.07146 -2.4244 0
M  V30 1154 H 100.992 3.87112 -0.907216 0
M  V30 1155 N 101.989 0.842826 1.3317 0
M  V30 1156 C 102.939 0.250877 2.26616 0
M  V30 1157 C 103.923 -0.596427 1.49437 0
M  V30 1158 O 105.115 -0.447747 1.71243 0
M  V30 1159 C 102.244 -0.569779 3.38539 0
M  V30 1160 C 101.33 0.289254 4.23112 0
M  V30 1161 N 101.721 1.36987 4.86897 0
M  V30 1162 C 100.019 0.0769631 4.45934 0
M  V30 1163 C 100.72 1.89737 5.49886 0
M  V30 1164 N 99.6959 1.19827 5.30229 0
M  V30 1165 H 103.498 1.07718 2.73448 0
M  V30 1166 H 101.012 0.687693 1.47121 0
M  V30 1167 H 103.009 -1.01018 4.04476 0
M  V30 1168 H 101.669 -1.39401 2.93253 0
M  V30 1169 H 102.68 1.75277 4.87338 0
M  V30 1170 H 99.3569 -0.713507 4.11358 0
M  V30 1171 H 100.747 2.80253 6.10662 0
M  V30 1172 N 103.467 -1.45747 0.599634 0
M  V30 1173 C 104.697 -2.06369 0.0977132 0
M  V30 1174 C 105.105 -1.44624 -1.21985 0
M  V30 1175 O 104.448 -0.551831 -1.75216 0
M  V30 1176 C 104.51 -3.59284 -0.124673 0
M  V30 1177 C 104.174 -4.43318 1.10987 0
M  V30 1178 C 105.171 -4.78796 2.02609 0
M  V30 1179 C 102.856 -4.84194 1.33647 0
M  V30 1180 C 104.85 -5.53997 3.15224 0
M  V30 1181 C 102.537 -5.5915 2.46565 0
M  V30 1182 C 103.535 -5.93968 3.37182 0
M  V30 1183 O 103.223 -6.67405 4.48136 0
M  V30 1184 H 102.955 -0.673122 0.0623153 0
M  V30 1185 H 105.509 -1.88104 0.824981 0
M  V30 1186 H 103.739 -3.75919 -0.906745 0
M  V30 1187 H 105.428 -4.01775 -0.577201 0
M  V30 1188 H 106.194 -4.47781 1.86325 0
M  V30 1189 H 102.073 -4.56534 0.64016 0
M  V30 1190 H 105.617 -5.81091 3.85978 0
M  V30 1191 H 101.514 -5.89579 2.62805 0
M  V30 1192 H 102.282 -6.85847 4.46717 0
M  V30 1193 N 104.945 -0.338344 -1.53925 0
M  V30 1194 C 106.173 0.261298 -2.05243 0
M  V30 1195 C 106.588 1.44625 -1.21363 0
M  V30 1196 O 105.945 1.80811 -0.247736 0
M  V30 1197 C 105.996 0.681412 -3.5502 0
M  V30 1198 O 105.717 -0.456414 -4.35716 0
M  V30 1199 C 107.218 1.34232 -4.22489 0
M  V30 1200 H 104.438 0.0513685 -0.669031 0
M  V30 1201 H 106.982 -0.488822 -1.98572 0
M  V30 1202 H 105.137 1.38148 -3.61931 0
M  V30 1203 H 105.551 -0.122564 -5.24357 0
M  V30 1204 H 107.025 1.58708 -5.28693 0
M  V30 1205 H 107.502 2.29426 -3.74514 0
M  V30 1206 H 108.108 0.684424 -4.19757 0
M  V30 1207 N 106.423 1.57458 -0.0668435 0
M  V30 1208 C 107.371 2.13639 0.919851 0
M  V30 1209 C 108.365 1.07204 1.31163 0
M  V30 1210 O 109.571 1.25591 1.28945 0
M  V30 1211 H 105.946 0.683048 0.314562 0
M  V30 1212 H 107.917 2.95415 0.421047 0
M  V30 1213 C 106.666 2.70892 2.17975 0
M  V30 1214 H 105.989 3.5246 1.88711 0
M  V30 1215 H 107.429 3.13803 2.85138 0
M  V30 1216 C 105.888 1.65414 2.93496 0
M  V30 1217 O 106.418 1.07619 3.87015 0
M  V30 1218 N 104.624 1.36564 2.56512 0
M  V30 1219 H 104.171 1.83751 1.80536 0
M  V30 1220 H 104.129 0.66223 3.07347 0
M  V30 1221 N 107.901 -0.206675 1.56239 0
M  V30 1222 C 109.129 -0.945345 1.8404 0
M  V30 1223 C 109.544 -1.77336 0.647885 0
M  V30 1224 O 108.901 -1.78425 -0.383511 0
M  V30 1225 C 108.952 -1.8509 3.10522 0
M  V30 1226 O 108.673 -1.05634 4.25174 0
M  V30 1227 C 110.174 -2.70222 3.51418 0
M  V30 1228 H 107.394 -0.276372 0.61144 0
M  V30 1229 H 109.938 -0.217417 2.03341 0
M  V30 1230 H 108.093 -2.53259 2.93153 0
M  V30 1231 H 108.507 -1.67238 4.97124 0
M  V30 1232 H 109.981 -3.29438 4.42916 0
M  V30 1233 H 110.458 -3.43358 2.73864 0
M  V30 1234 H 111.064 -2.07443 3.71278 0
M  V30 1235 N 109.379 -1.50304 -0.473955 0
M  V30 1236 C 110.609 -1.64663 -1.24778 0
M  V30 1237 C 111.017 -0.328174 -1.86332 0
M  V30 1238 O 110.36 0.699536 -1.69859 0
M  V30 1239 C 110.422 -2.6778 -2.39863 0
M  V30 1240 C 110.086 -4.11413 -1.98969 0
M  V30 1241 C 111.083 -4.97372 -1.51385 0
M  V30 1242 C 108.768 -4.57312 -2.07777 0
M  V30 1243 C 110.762 -6.27277 -1.13148 0
M  V30 1244 C 108.449 -5.87223 -1.69152 0
M  V30 1245 C 109.447 -6.72031 -1.21915 0
M  V30 1246 O 109.135 -7.99518 -0.838237 0
M  V30 1247 H 108.867 -0.556602 -0.383627 0
M  V30 1248 H 111.421 -1.9726 -0.572491 0
M  V30 1249 H 109.651 -2.30419 -3.10554 0
M  V30 1250 H 111.34 -2.71388 -3.01833 0
M  V30 1251 H 112.106 -4.63128 -1.44004 0
M  V30 1252 H 107.985 -3.91449 -2.43493 0
M  V30 1253 H 111.529 -6.93425 -0.762077 0
M  V30 1254 H 107.426 -6.20989 -1.76191 0
M  V30 1255 H 108.194 -8.12764 -0.967339 0
M  V30 1256 N 110.857 0.726932 -1.39834 0
M  V30 1257 C 111.807 1.83232 -1.35683 0
M  V30 1258 C 112.791 1.59155 -0.236295 0
M  V30 1259 O 113.983 1.70522 -0.474488 0
M  V30 1260 C 111.112 3.21246 -1.21062 0
M  V30 1261 C 110.198 3.51125 -2.37849 0
M  V30 1262 N 110.589 3.51889 -3.63329 0
M  V30 1263 C 108.887 3.81527 -2.30982 0
M  V30 1264 C 109.588 3.79791 -4.40606 0
M  V30 1265 N 108.564 3.97971 -3.70297 0
M  V30 1266 H 112.366 1.8214 -2.30656 0
M  V30 1267 H 109.88 0.925545 -1.33444 0
M  V30 1268 H 111.877 4.00387 -1.16171 0
M  V30 1269 H 110.537 3.23572 -0.270458 0
M  V30 1270 H 111.548 3.33008 -3.96643 0
M  V30 1271 H 108.225 3.91411 -1.45272 0
M  V30 1272 H 109.615 3.86783 -5.49408 0
M  V30 1273 N 112.336 1.25143 0.95797 0
M  V30 1274 C 113.585 1.0909 1.69654 0
M  V30 1275 C 113.898 -0.368548 1.92097 0
M  V30 1276 O 115.104 -0.649455 2.63618 0
M  V30 1277 C 113.56 1.90395 3.05414 0
M  V30 1278 C 113.168 3.4081 2.90779 0
M  V30 1279 C 114.912 1.82901 3.83076 0
M  V30 1280 C 112.819 4.14423 4.21909 0
M  V30 1281 H 111.749 0.404625 0.636235 0
M  V30 1282 H 114.4 1.4931 1.06672 0
M  V30 1283 H 112.782 1.42996 3.69281 0
M  V30 1284 H 113.956 3.95859 2.35865 0
M  V30 1285 H 112.271 3.49361 2.26575 0
M  V30 1286 H 114.868 2.35196 4.80195 0
M  V30 1287 H 115.211 0.796224 4.08615 0
M  V30 1288 H 115.744 2.28033 3.25954 0
M  V30 1289 H 112.483 5.18102 4.01561 0
M  V30 1290 H 112.003 3.64159 4.76601 0
M  V30 1291 H 113.682 4.21956 4.90471 0
M  V30 1292 N 113.814 -1.1601 1.06675 0
M  V30 1293 C 115.061 -1.86633 0.785781 0
M  V30 1294 C 115.389 -1.81929 -0.687896 0
M  V30 1295 O 114.644 -1.23253 -1.52011 0
M  V30 1296 C 114.943 -3.35547 1.23057 0
M  V30 1297 C 114.609 -3.60448 2.70902 0
M  V30 1298 C 113.271 -3.66954 3.11285 0
M  V30 1299 C 115.623 -3.7071 3.66365 0
M  V30 1300 C 112.951 -3.81225 4.45965 0
M  V30 1301 C 115.303 -3.86503 5.00797 0
M  V30 1302 C 113.967 -3.91252 5.40813 0
M  V30 1303 H 113.237 -0.682937 0.287538 0
M  V30 1304 H 115.884 -1.37146 1.33654 0
M  V30 1305 H 114.189 -3.87193 0.59907 0
M  V30 1306 H 115.886 -3.88583 0.990163 0
M  V30 1307 H 112.476 -3.56021 2.38636 0
M  V30 1308 H 116.66 -3.64991 3.36296 0
M  V30 1309 H 111.916 -3.83155 4.76447 0
M  V30 1310 H 116.09 -3.93385 5.74649 0
M  V30 1311 H 113.717 -4.02062 6.45174 0
M  V30 1312 N 115.292 -0.849877 -1.32721 0
M  V30 1313 C 116.52 -0.464754 -2.01613 0
M  V30 1314 C 116.935 0.937191 -1.63897 0
M  V30 1315 O 116.292 1.61081 -0.857856 0
M  V30 1316 C 116.343 -0.588638 -3.56675 0
M  V30 1317 O 116.064 -1.93535 -3.93034 0
M  V30 1318 C 117.565 -0.2019 -4.4284 0
M  V30 1319 H 114.785 -0.183215 -0.645502 0
M  V30 1320 H 117.329 -1.1455 -1.69407 0
M  V30 1321 H 115.484 0.0443159 -3.87375 0
M  V30 1322 H 115.898 -1.92871 -4.87751 0
M  V30 1323 H 117.372 -0.339599 -5.50954 0
M  V30 1324 H 117.849 0.857224 -4.30753 0
M  V30 1325 H 118.455 -0.809733 -4.17521 0
M  V30 1326 N 116.77 1.45427 -0.607355 0
M  V30 1327 C 117.717 2.3053 0.111625 0
M  V30 1328 C 118.687 1.4209 0.860216 0
M  V30 1329 O 119.872 1.71019 0.845998 0
M  V30 1330 C 117.012 3.26992 1.10319 0
M  V30 1331 C 116.125 4.30535 0.355493 0
M  V30 1332 C 115.26 5.14105 1.33676 0
M  V30 1333 C 114.299 6.09376 0.576862 0
M  V30 1334 N 113.436 6.85727 1.5074 0
M  V30 1335 H 118.276 2.91477 -0.620093 0
M  V30 1336 H 115.813 1.43631 -0.317594 0
M  V30 1337 H 117.771 3.81385 1.6912 0
M  V30 1338 H 116.401 2.67799 1.80232 0
M  V30 1339 H 115.453 3.78805 -0.348023 0
M  V30 1340 H 116.765 4.98235 -0.237423 0
M  V30 1341 H 115.919 5.72897 1.99684 0
M  V30 1342 H 114.658 4.46423 1.9636 0
M  V30 1343 H 113.663 5.49715 -0.0968519 0
M  V30 1344 H 114.888 6.79085 -0.0449341 0
M  V30 1345 H 112.834 6.20735 2.12189 0
M  V30 1346 H 112.751 7.49778 0.967913 0
M  V30 1347 H 114.019 7.4906 2.15706 0
M  V30 1348 N 118.248 0.346503 1.53744 0
M  V30 1349 C 119.211 -0.496439 2.23759 0
M  V30 1350 C 120.211 -1.0252 1.2388 0
M  V30 1351 O 121.401 -0.913974 1.48297 0
M  V30 1352 C 118.533 -1.69187 2.95954 0
M  V30 1353 H 119.726 0.115952 2.99676 0
M  V30 1354 H 117.279 0.0978939 1.55993 0
M  V30 1355 H 118.014 -2.34288 2.24231 0
M  V30 1356 H 117.799 -1.31989 3.69217 0
M  V30 1357 H 119.289 -2.28969 3.49232 0
M  V30 1358 N 119.726 -1.57421 0.075193 0
M  V30 1359 C 121.137 -1.81021 -0.456964 0
M  V30 1360 C 121.488 -0.98936 -1.69429 0
M  V30 1361 O 120.613 -0.212865 -2.15351 0
M  V30 1362 C 121.208 -3.28329 -0.83581 0
M  V30 1363 C 119.767 -3.52764 -1.31281 0
M  V30 1364 C 118.914 -2.75676 -0.299648 0
M  V30 1365 H 121.865 -1.55822 0.300856 0
M  V30 1366 H 121.886 -3.40564 -1.69696 0
M  V30 1367 H 121.398 -3.88046 0.0649238 0
M  V30 1368 H 119.499 -2.98355 -2.23193 0
M  V30 1369 H 119.612 -4.61451 -1.28839 0
M  V30 1370 H 117.976 -2.42538 -0.777641 0
M  V30 1371 H 118.759 -3.38132 0.593417 0
M  V30 1372 N 121.204 0.198386 -1.56346 0
M  V30 1373 C 122.481 0.944982 -1.71258 0
M  V30 1374 C 122.861 2.0151 -0.629048 0
M  V30 1375 O 122.209 2.25639 0.360473 0
M  V30 1376 C 122.419 1.5344 -3.1346 0
M  V30 1377 C 123.767 2.01778 -3.73591 0
M  V30 1378 O 124.791 1.63288 -3.16568 0
M  V30 1379 O 123.65 2.72594 -4.73661 0
M  V30 1380 H 120.744 0.442939 -0.69838 0
M  V30 1381 H 123.29 0.188342 -1.68652 0
M  V30 1382 H 122.062 0.762869 -3.83792 0
M  V30 1383 H 121.685 2.35596 -3.20282 0
M  V30 1384 N 122.682 1.50554 0.465978 0
M  V30 1385 C 123.629 1.6979 1.56333 0
M  V30 1386 C 124.599 0.539239 1.57103 0
M  V30 1387 O 125.784 0.770401 1.74555 0
M  V30 1388 C 122.924 1.80273 2.94271 0
M  V30 1389 C 122.037 3.07674 3.0325 0
M  V30 1390 C 121.172 3.08922 4.32135 0
M  V30 1391 C 120.211 4.30755 4.34875 0
M  V30 1392 N 119.348 4.29714 5.55239 0
M  V30 1393 H 124.188 2.63472 1.39235 0
M  V30 1394 H 121.725 1.30602 0.676873 0
M  V30 1395 H 123.683 1.84332 3.74269 0
M  V30 1396 H 122.313 0.900258 3.09992 0
M  V30 1397 H 121.365 3.13062 2.16094 0
M  V30 1398 H 122.677 3.97642 3.01135 0
M  V30 1399 H 121.831 3.11738 5.20485 0
M  V30 1400 H 120.57 2.16792 4.36866 0
M  V30 1401 H 119.575 4.28146 3.44922 0
M  V30 1402 H 120.8 5.24117 4.31831 0
M  V30 1403 H 118.746 3.4044 5.60746 0
M  V30 1404 H 118.663 5.13456 5.54886 0
M  V30 1405 H 119.931 4.36683 6.457 0
M  V30 1406 N 124.16 -0.719506 1.40217 0
M  V30 1407 C 125.09 -1.8465 1.42922 0
M  V30 1408 C 126.071 -1.67599 0.29062 0
M  V30 1409 O 127.256 -1.87688 0.498677 0
M  V30 1410 C 124.386 -3.22565 1.28722 0
M  V30 1411 C 123.34 -3.54281 2.40144 0
M  V30 1412 C 122.666 -4.91298 2.11023 0
M  V30 1413 C 123.966 -3.55676 3.82481 0
M  V30 1414 H 125.66 -1.82644 2.37237 0
M  V30 1415 H 123.206 -0.877305 1.1419 0
M  V30 1416 H 125.159 -4.01095 1.29232 0
M  V30 1417 H 123.883 -3.25137 0.308811 0
M  V30 1418 H 122.542 -2.78088 2.38877 0
M  V30 1419 H 122.19 -4.90468 1.11582 0
M  V30 1420 H 121.89 -5.13485 2.8567 0
M  V30 1421 H 123.414 -5.72166 2.13209 0
M  V30 1422 H 124.828 -4.24254 3.85592 0
M  V30 1423 H 123.225 -3.89388 4.56614 0
M  V30 1424 H 124.295 -2.55144 4.12346 0
M  V30 1425 N 125.638 -1.25649 -0.95132 0
M  V30 1426 C 126.548 -1.08073 -2.08224 0
M  V30 1427 C 127.564 -0.0169666 -1.73992 0
M  V30 1428 O 128.74 -0.218593 -2.0021 0
M  V30 1429 C 125.805 -0.704922 -3.39458 0
M  V30 1430 C 124.866 -1.84699 -3.87537 0
M  V30 1431 C 124.099 -1.48902 -5.12508 0
M  V30 1432 O 124.322 -0.386156 -5.69091 0
M  V30 1433 O 123.256 -2.32033 -5.55378 0
M  V30 1434 H 127.082 -2.02924 -2.25954 0
M  V30 1435 H 124.667 -1.04618 -1.06656 0
M  V30 1436 H 126.549 -0.507609 -4.18332 0
M  V30 1437 H 125.224 0.214291 -3.2299 0
M  V30 1438 H 124.131 -2.09919 -3.09653 0
M  V30 1439 H 125.464 -2.74557 -4.08509 0
M  V30 1440 N 127.117 1.15442 -1.07289 0
M  V30 1441 C 128.027 2.23786 -0.704057 0
M  V30 1442 C 129.043 1.7166 0.284413 0
M  V30 1443 O 130.219 2.00972 0.131205 0
M  V30 1444 C 127.284 3.46535 -0.106792 0
M  V30 1445 C 126.345 4.13654 -1.14842 0
M  V30 1446 C 125.578 5.30544 -0.57956 0
M  V30 1447 O 125.801 5.67187 0.604585 0
M  V30 1448 O 124.735 5.87154 -1.32414 0
M  V30 1449 H 128.561 2.57664 -1.60757 0
M  V30 1450 H 126.146 1.23152 -0.845803 0
M  V30 1451 H 128.028 4.20804 0.224048 0
M  V30 1452 H 126.703 3.14407 0.770049 0
M  V30 1453 H 125.61 3.4131 -1.5316 0
M  V30 1454 H 126.943 4.49861 -1.99714 0
M  V30 1455 N 128.595 0.856903 1.32268 0
M  V30 1456 C 129.841 0.462069 1.97466 0
M  V30 1457 C 130.174 -0.980298 1.67642 0
M  V30 1458 O 129.449 -1.68824 0.965858 0
M  V30 1459 C 129.732 0.704336 3.53145 0
M  V30 1460 C 129.585 2.19529 3.9259 0
M  V30 1461 C 130.904 0.1622 4.39801 0
M  V30 1462 H 128.023 0.169357 0.717278 0
M  V30 1463 H 130.665 1.07574 1.56614 0
M  V30 1464 H 128.815 0.181999 3.88073 0
M  V30 1465 H 130.487 2.78387 3.67829 0
M  V30 1466 H 128.73 2.67292 3.41668 0
M  V30 1467 H 129.401 2.31549 5.01088 0
M  V30 1468 H 131.877 0.608905 4.11621 0
M  V30 1469 H 130.753 0.361265 5.4771 0
M  V30 1470 H 131.014 -0.935158 4.32096 0
M  V30 1471 N 130.073 -1.45103 0.615059 0
M  V30 1472 C 131.003 -2.33339 -0.0865619 0
M  V30 1473 C 131.984 -1.4727 -0.851209 0
M  V30 1474 O 133.169 -1.76026 -0.820281 0
M  V30 1475 C 130.299 -3.30095 -1.07956 0
M  V30 1476 C 129.253 -4.25858 -0.427628 0
M  V30 1477 C 128.579 -5.12361 -1.5294 0
M  V30 1478 C 129.879 -5.18165 0.655944 0
M  V30 1479 H 131.573 -2.92254 0.650224 0
M  V30 1480 H 129.119 -1.40532 0.314138 0
M  V30 1481 H 131.072 -3.90698 -1.57901 0
M  V30 1482 H 129.796 -2.69355 -1.84703 0
M  V30 1483 H 128.455 -3.66564 0.0510292 0
M  V30 1484 H 128.103 -4.47984 -2.28734 0
M  V30 1485 H 127.803 -5.77238 -1.09865 0
M  V30 1486 H 129.327 -5.75833 -2.03098 0
M  V30 1487 H 130.741 -5.72796 0.240257 0
M  V30 1488 H 129.138 -5.91559 1.00888 0
M  V30 1489 H 130.208 -4.60144 1.52957 0
M  V30 1490 N 131.551 -0.354651 -1.53558 0
M  V30 1491 C 132.776 0.242153 -2.05981 0
M  V30 1492 C 133.201 1.42553 -1.2272 0
M  V30 1493 O 132.559 1.79656 -0.243604 0
M  V30 1494 C 132.607 0.624367 -3.55154 0
M  V30 1495 O 131.711 1.72301 -3.74681 0
M  V30 1496 H 131.052 0.0378432 -0.662921 0
M  V30 1497 H 133.582 -0.512087 -1.98088 0
M  V30 1498 H 133.592 0.898433 -3.97985 0
M  V30 1499 H 132.267 -0.240989 -4.15201 0
M  V30 1500 H 130.844 1.44535 -3.4375 0
M  V30 1501 N 133.029 1.57378 -0.0835403 0
M  V30 1502 C 134.259 1.97975 0.590713 0
M  V30 1503 C 134.667 0.961083 1.62972 0
M  V30 1504 O 134.01 -0.0590879 1.83605 0
M  V30 1505 C 134.072 3.34915 1.3066 0
M  V30 1506 C 133.736 4.55069 0.419698 0
M  V30 1507 C 134.733 5.18868 -0.32749 0
M  V30 1508 C 132.418 5.0114 0.341137 0
M  V30 1509 C 134.412 6.27098 -1.14134 0
M  V30 1510 C 132.099 6.0924 -0.476374 0
M  V30 1511 C 133.097 6.72083 -1.21627 0
M  V30 1512 O 132.785 7.781 -2.02028 0
M  V30 1513 H 132.517 0.655818 0.163947 0
M  V30 1514 H 135.071 2.04807 -0.156021 0
M  V30 1515 H 133.301 3.24733 2.09966 0
M  V30 1516 H 134.99 3.60037 1.87424 0
M  V30 1517 H 135.756 4.84211 -0.276459 0
M  V30 1518 H 131.635 4.51996 0.90668 0
M  V30 1519 H 135.179 6.7608 -1.71935 0
M  V30 1520 H 131.076 6.43329 -0.528927 0
M  V30 1521 H 131.844 7.95034 -1.94586 0
M  V30 1522 N 134.507 -0.190092 1.56449 0
M  V30 1523 C 135.732 -0.929864 1.85387 0
M  V30 1524 C 136.157 -1.7585 0.667704 0
M  V30 1525 O 135.515 -1.77198 -0.383459 0
M  V30 1526 C 135.563 -1.79773 3.12593 0
M  V30 1527 O 134.667 -2.89713 2.93496 0
M  V30 1528 H 134.008 -0.261574 0.610307 0
M  V30 1529 H 136.538 -0.193896 2.03679 0
M  V30 1530 H 136.548 -2.20139 3.43515 0
M  V30 1531 H 135.223 -1.18892 3.98544 0
M  V30 1532 H 133.8 -2.53065 2.73884 0
M  V30 1533 N 135.985 -1.50799 -0.457987 0
M  V30 1534 C 136.933 -1.71162 -1.575 0
M  V30 1535 C 137.927 -0.577592 -1.59249 0
M  V30 1536 O 139.133 -0.758443 -1.63241 0
M  V30 1537 H 135.508 -0.540468 -0.522875 0
M  V30 1538 H 137.479 -2.64837 -1.37492 0
M  V30 1539 C 136.228 -1.83496 -2.95338 0
M  V30 1540 H 135.551 -2.70153 -2.94716 0
M  V30 1541 H 136.991 -2.01765 -3.72917 0
M  V30 1542 C 135.45 -0.589694 -3.31699 0
M  V30 1543 O 135.98 0.265163 -4.00824 0
M  V30 1544 N 134.186 -0.439845 -2.87252 0
M  V30 1545 H 133.733 -1.13655 -2.31172 0
M  V30 1546 H 133.691 0.392159 -3.11945 0
M  V30 1547 N 137.463 0.71206 -1.40597 0
M  V30 1548 C 138.709 1.47416 -1.39271 0
M  V30 1549 C 139.042 1.942 0.00388791 0
M  V30 1550 O 138.317 1.68403 0.973179 0
M  V30 1551 C 138.6 2.69774 -2.38525 0
M  V30 1552 C 138.453 2.28861 -3.87224 0
M  V30 1553 C 139.772 3.71939 -2.35264 0
M  V30 1554 H 136.891 0.534713 -0.5072 0
M  V30 1555 H 139.533 0.812375 -1.71757 0
M  V30 1556 H 137.683 3.26238 -2.10953 0
M  V30 1557 H 139.355 1.77852 -4.25636 0
M  V30 1558 H 137.598 1.60824 -4.02887 0
M  V30 1559 H 138.269 3.16584 -4.52193 0
M  V30 1560 H 140.745 3.25113 -2.59694 0
M  V30 1561 H 139.621 4.55186 -3.06753 0
M  V30 1562 H 139.882 4.20484 -1.36549 0
M  V30 1563 N 138.941 1.26152 0.944643 0
M  V30 1564 C 140.19 1.10883 1.68487 0
M  V30 1565 C 140.503 -0.348153 1.92477 0
M  V30 1566 O 141.709 -0.621459 2.64292 0
M  V30 1567 C 140.165 1.93624 3.03377 0
M  V30 1568 C 139.773 3.43875 2.87148 0
M  V30 1569 C 141.517 1.86954 3.81115 0
M  V30 1570 C 139.424 4.18875 4.1749 0
M  V30 1571 H 138.354 0.41135 0.631907 0
M  V30 1572 H 141.005 1.50433 1.05082 0
M  V30 1573 H 139.387 1.46904 3.67743 0
M  V30 1574 H 140.561 3.98338 2.31653 0
M  V30 1575 H 138.876 3.51744 2.22856 0
M  V30 1576 H 141.473 2.40275 4.77673 0
M  V30 1577 H 141.816 0.839518 4.07747 0
M  V30 1578 H 142.349 2.31477 3.23517 0
M  V30 1579 H 139.088 5.22332 3.96043 0
M  V30 1580 H 138.608 3.69193 4.72712 0
M  V30 1581 H 140.287 4.27134 4.85968 0
M  V30 1582 N 140.419 -1.14872 1.07899 0
M  V30 1583 C 141.644 -1.90202 0.826926 0
M  V30 1584 C 142.069 -1.77774 -0.614664 0
M  V30 1585 O 141.427 -1.11431 -1.43013 0
M  V30 1586 C 141.475 -3.38352 1.24702 0
M  V30 1587 O 140.579 -4.10497 0.39575 0
M  V30 1588 H 139.92 -0.591968 0.300782 0
M  V30 1589 H 142.45 -1.45437 1.43907 0
M  V30 1590 H 142.46 -3.89156 1.22563 0
M  V30 1591 H 141.135 -3.46715 2.29698 0
M  V30 1592 H 139.712 -3.69796 0.480117 0
M  V30 1593 N 141.898 -0.863906 -1.31812 0
M  V30 1594 C 143.144 -0.481841 -1.9761 0
M  V30 1595 C 143.499 0.954048 -1.6708 0
M  V30 1596 O 142.792 1.66182 -0.953624 0
M  V30 1597 C 142.986 -0.668547 -3.51091 0
M  V30 1598 C 142.815 -2.12103 -3.96538 0
M  V30 1599 C 141.585 -2.76141 -4.23171 0
M  V30 1600 C 143.783 -3.09265 -4.10925 0
M  V30 1601 N 141.765 -4.12205 -4.54929 0
M  V30 1602 C 143.136 -4.30341 -4.46326 0
M  V30 1603 C 145.191 -3.05337 -3.93286 0
M  V30 1604 C 143.894 -5.48 -4.65928 0
M  V30 1605 C 145.92 -4.22248 -4.14078 0
M  V30 1606 C 145.282 -5.42085 -4.49804 0
M  V30 1607 H 141.381 -0.225238 -0.74886 0
M  V30 1608 H 143.965 -1.11723 -1.59455 0
M  V30 1609 H 142.136 -0.0627898 -3.88349 0
M  V30 1610 H 143.868 -0.255467 -4.03893 0
M  V30 1611 H 140.623 -2.27125 -4.15585 0
M  V30 1612 H 141.047 -4.82416 -4.74978 0
M  V30 1613 H 145.689 -2.138 -3.64759 0
M  V30 1614 H 143.407 -6.40059 -4.93305 0
M  V30 1615 H 146.993 -4.20654 -4.01922 0
M  V30 1616 H 145.873 -6.31044 -4.65567 0
M  V30 1617 N 143.376 1.44774 -0.622745 0
M  V30 1618 C 144.286 2.34433 0.0886031 0
M  V30 1619 C 145.302 1.52131 0.844529 0
M  V30 1620 O 146.478 1.84886 0.798691 0
M  V30 1621 C 143.543 3.29986 1.0635 0
M  V30 1622 C 142.604 4.28195 0.307873 0
M  V30 1623 C 141.837 5.19183 1.23633 0
M  V30 1624 O 142.06 5.13918 2.47476 0
M  V30 1625 O 140.994 5.97515 0.725189 0
M  V30 1626 H 144.82 2.96693 -0.648599 0
M  V30 1627 H 142.405 1.44408 -0.382957 0
M  V30 1628 H 144.287 3.88825 1.6246 0
M  V30 1629 H 142.962 2.70269 1.78146 0
M  V30 1630 H 141.869 3.72927 -0.296064 0
M  V30 1631 H 143.202 4.90808 -0.3699 0
M  V30 1632 N 144.854 0.36279 1.53368 0
M  V30 1633 C 145.786 -0.519668 2.23231 0
M  V30 1634 C 146.799 -1.04844 1.24546 0
M  V30 1635 O 147.988 -0.955296 1.50786 0
M  V30 1636 C 145.088 -1.72995 2.9142 0
M  V30 1637 C 144.261 -1.33316 4.16588 0
M  V30 1638 C 143.32 -2.40521 4.68013 0
M  V30 1639 O 142.346 -2.03027 5.3176 0
M  V30 1640 N 143.548 -3.72065 4.45587 0
M  V30 1641 H 146.313 0.078751 2.99597 0
M  V30 1642 H 143.874 0.187833 1.60807 0
M  V30 1643 H 145.866 -2.44184 3.22733 0
M  V30 1644 H 144.436 -2.2353 2.18525 0
M  V30 1645 H 143.656 -0.451236 3.91609 0
M  V30 1646 H 144.944 -1.04432 4.97967 0
M  V30 1647 H 144.342 -4.05304 3.94646 0
M  V30 1648 H 142.899 -4.39366 4.81457 0
M  V30 1649 N 146.332 -1.57332 0.0918853 0
M  V30 1650 C 147.56 -1.98574 -0.581048 0
M  V30 1651 C 147.975 -0.970903 -1.61923 0
M  V30 1652 O 147.332 0.0399054 -1.82456 0
M  V30 1653 C 147.383 -3.39872 -1.23164 0
M  V30 1654 O 147.104 -4.37469 -0.234989 0
M  V30 1655 C 148.605 -3.96099 -1.99049 0
M  V30 1656 H 145.825 -0.65261 -0.156018 0
M  V30 1657 H 148.369 -2.0379 0.170225 0
M  V30 1658 H 146.524 -3.35679 -1.93386 0
M  V30 1659 H 146.938 -5.19751 -0.70418 0
M  V30 1660 H 148.412 -4.97127 -2.39934 0
M  V30 1661 H 148.889 -3.3374 -2.85507 0
M  V30 1662 H 149.495 -4.03755 -1.3365 0
M  V30 1663 N 147.81 0.181792 -1.56548 0
M  V30 1664 C 148.74 1.22765 -1.98623 0
M  V30 1665 C 149.721 1.46747 -0.860189 0
M  V30 1666 O 150.906 1.58259 -1.12551 0
M  V30 1667 C 148.036 2.56894 -2.33715 0
M  V30 1668 C 146.99 2.475 -3.49182 0
M  V30 1669 C 146.316 3.86023 -3.69986 0
M  V30 1670 C 147.616 1.98866 -4.82959 0
M  V30 1671 H 149.31 0.877942 -2.86239 0
M  V30 1672 H 146.856 0.42088 -1.37712 0
M  V30 1673 H 148.809 3.30253 -2.61746 0
M  V30 1674 H 147.533 2.93632 -1.42997 0
M  V30 1675 H 146.192 1.76596 -3.21262 0
M  V30 1676 H 145.84 4.20136 -2.76576 0
M  V30 1677 H 145.54 3.80609 -4.47672 0
M  V30 1678 H 147.064 4.60984 -4.00407 0
M  V30 1679 H 148.478 2.61992 -5.09934 0
M  V30 1680 H 146.875 2.04424 -5.64208 0
M  V30 1681 H 147.945 0.942465 -4.75653 0
M  V30 1682 N 149.288 1.51039 0.449983 0
M  V30 1683 C 150.22 1.67617 1.56324 0
M  V30 1684 C 151.233 0.557083 1.52972 0
M  V30 1685 O 152.422 0.830989 1.57977 0
M  V30 1686 C 149.522 1.66402 2.95235 0
M  V30 1687 C 148.695 2.9469 3.23229 0
M  V30 1688 C 147.754 2.85832 4.41799 0
M  V30 1689 O 146.78 3.59785 4.41071 0
M  V30 1690 N 147.982 2.00821 5.44657 0
M  V30 1691 H 150.747 2.63648 1.42512 0
M  V30 1692 H 148.308 1.48767 0.638737 0
M  V30 1693 H 150.3 1.58062 3.72557 0
M  V30 1694 H 148.87 0.780182 3.02708 0
M  V30 1695 H 148.09 3.16996 2.34323 0
M  V30 1696 H 149.378 3.79636 3.38754 0
M  V30 1697 H 148.776 1.40091 5.48079 0
M  V30 1698 H 147.333 1.98368 6.20881 0
M  V30 1699 N 150.766 -0.704594 1.40972 0
M  V30 1700 C 152.015 -1.46018 1.39146 0
M  V30 1701 C 152.328 -1.956 0.000589254 0
M  V30 1702 O 153.534 -2.71137 -0.1403 0
M  V30 1703 C 151.99 -2.63996 2.4461 0
M  V30 1704 C 151.598 -2.21238 3.89561 0
M  V30 1705 C 153.342 -3.41677 2.51907 0
M  V30 1706 C 151.249 -3.3612 4.86598 0
M  V30 1707 H 150.179 -0.548444 0.517422 0
M  V30 1708 H 152.83 -0.765784 1.66757 0
M  V30 1709 H 151.212 -3.3566 2.10115 0
M  V30 1710 H 152.386 -1.56923 4.33257 0
M  V30 1711 H 150.701 -1.56574 3.85841 0
M  V30 1712 H 153.298 -4.27182 3.2159 0
M  V30 1713 H 153.641 -3.86247 1.55303 0
M  V30 1714 H 154.174 -2.77064 2.85448 0
M  V30 1715 H 150.913 -2.96572 5.84573 0
M  V30 1716 H 150.433 -3.99315 4.47557 0
M  V30 1717 H 152.112 -4.02029 5.06934 0
M  V30 1718 N 152.244 -1.26651 -0.937939 0
M  V30 1719 C 153.176 -1.04283 -2.04102 0
M  V30 1720 C 154.189 -0.00221014 -1.628 0
M  V30 1721 O 155.378 -0.242645 -1.76843 0
M  V30 1722 C 152.478 -0.557846 -3.34277 0
M  V30 1723 C 151.651 -1.66843 -4.04329 0
M  V30 1724 C 150.71 -1.18095 -5.12777 0
M  V30 1725 O 149.736 -1.87865 -5.37304 0
M  V30 1726 N 150.938 -0.0311006 -5.80492 0
M  V30 1727 H 153.703 -1.9927 -2.23856 0
M  V30 1728 H 151.264 -1.1808 -1.10764 0
M  V30 1729 H 153.256 -0.215836 -4.04124 0
M  V30 1730 H 151.826 0.298523 -3.11171 0
M  V30 1731 H 151.046 -2.18123 -3.28353 0
M  V30 1732 H 152.334 -2.41408 -4.47883 0
M  V30 1733 H 151.732 0.551486 -5.63005 0
M  V30 1734 H 150.289 0.251809 -6.51313 0
M  V30 1735 N 153.722 1.14298 -1.08507 0
M  V30 1736 C 154.97 1.84993 -0.813763 0
M  V30 1737 C 155.291 1.83405 0.662393 0
M  V30 1738 O 154.561 1.28319 1.48024 0
M  V30 1739 H 153.141 0.684966 -0.298045 0
M  V30 1740 H 155.803 1.385 -1.37126 0
M  V30 1741 H 154.899 2.89788 -1.15884 0
M  V30 1742 N 155.201 0.870884 1.31352 0
M  V30 1743 C 156.441 0.488783 1.9847 0
M  V30 1744 C 156.805 -0.941536 1.67329 0
M  V30 1745 O 158.006 -1.42903 2.27667 0
M  V30 1746 C 156.277 0.739688 3.49662 0
M  V30 1747 S 157.836 0.457582 4.36408 0
M  V30 1748 H 154.654 0.18242 0.6872 0
M  V30 1749 H 157.256 1.12711 1.59739 0
M  V30 1750 H 155.96 1.77944 3.69816 0
M  V30 1751 H 155.491 0.0883905 3.93301 0
M  V30 1752 H 157.506 -0.709752 4.91098 0
M  V30 1753 N 156.679 -1.44442 0.630414 0
M  V30 1754 C 157.611 -2.2892 -0.113347 0
M  V30 1755 C 158.624 -1.41243 -0.80959 0
M  V30 1756 O 159.813 -1.65402 -0.671156 0
M  V30 1757 C 156.913 -3.17594 -1.18266 0
M  V30 1758 C 156.086 -4.33682 -0.569073 0
M  V30 1759 C 155.145 -5.03397 -1.53226 0
M  V30 1760 O 154.171 -5.59438 -1.04967 0
M  V30 1761 N 155.373 -5.04783 -2.86661 0
M  V30 1762 H 158.138 -2.93392 0.611636 0
M  V30 1763 H 155.699 -1.54881 0.471523 0
M  V30 1764 H 157.691 -3.61097 -1.82732 0
M  V30 1765 H 156.261 -2.54876 -1.80988 0
M  V30 1766 H 155.481 -3.9338 0.254187 0
M  V30 1767 H 156.769 -5.08608 -0.139767 0
M  V30 1768 H 156.167 -4.60584 -3.28449 0
M  V30 1769 H 154.724 -5.52077 -3.46489 0
M  V30 1770 N 158.157 -0.370918 -1.53173 0
M  V30 1771 C 159.067 0.480823 -2.2962 0
M  V30 1772 C 160.083 1.08789 -1.35798 0
M  V30 1773 O 161.259 1.09768 -1.68858 0
M  V30 1774 C 158.324 1.60227 -3.07454 0
M  V30 1775 C 157.385 1.0222 -4.16953 0
M  V30 1776 C 156.618 2.0902 -4.91066 0
M  V30 1777 O 156.841 3.30222 -4.65091 0
M  V30 1778 O 155.775 1.71778 -5.76867 0
M  V30 1779 H 159.601 -0.141421 -3.03371 0
M  V30 1780 H 157.186 -0.135146 -1.48787 0
M  V30 1781 H 159.068 2.25417 -3.56041 0
M  V30 1782 H 157.743 2.20982 -2.36535 0
M  V30 1783 H 156.65 0.334064 -3.72605 0
M  V30 1784 H 157.983 0.459131 -4.90054 0
M  V30 1785 N 159.635 1.57281 -0.100228 0
M  V30 1786 C 160.883 1.94153 0.561157 0
M  V30 1787 C 161.204 0.983157 1.68401 0
M  V30 1788 O 160.474 0.0361132 1.95867 0
M  V30 1789 H 159.054 0.716791 0.210283 0
M  V30 1790 H 161.716 1.94202 -0.164765 0
M  V30 1791 H 160.812 2.96709 0.968008 0
M  V30 1792 N 161.113 -0.173488 1.56642 0
M  V30 1793 C 162.043 -1.2171 1.99271 0
M  V30 1794 C 163.024 -1.46289 0.867959 0
M  V30 1795 O 164.209 -1.5766 1.13388 0
M  V30 1796 C 161.339 -2.55651 2.35074 0
M  V30 1797 C 160.293 -2.45645 3.50489 0
M  V30 1798 C 159.619 -3.84056 3.72028 0
M  V30 1799 C 160.919 -1.96302 4.84007 0
M  V30 1800 H 162.613 -0.86275 2.867 0
M  V30 1801 H 160.159 -0.413571 1.37933 0
M  V30 1802 H 162.112 -3.2886 2.63494 0
M  V30 1803 H 160.836 -2.92869 1.44552 0
M  V30 1804 H 159.495 -1.7489 3.22194 0
M  V30 1805 H 159.143 -4.18664 2.788 0
M  V30 1806 H 158.843 -3.7823 4.49684 0
M  V30 1807 H 160.367 -4.58854 4.02846 0
M  V30 1808 H 161.781 -2.59284 5.11317 0
M  V30 1809 H 160.178 -2.01429 5.65284 0
M  V30 1810 H 161.248 -0.917226 4.76146 0
M  V30 1811 N 162.591 -1.51276 -0.441967 0
M  V30 1812 C 163.868 -1.54252 -1.20273 0
M  V30 1813 C 164.248 -0.30408 -2.08898 0
M  V30 1814 O 163.596 0.711084 -2.17154 0
M  V30 1815 C 163.806 -2.85406 -2.00859 0
M  V30 1816 C 165.154 -3.37181 -2.58059 0
M  V30 1817 O 166.178 -2.86925 -2.11074 0
M  V30 1818 O 165.037 -4.24858 -3.43741 0
M  V30 1819 H 162.131 -0.619969 -0.547328 0
M  V30 1820 H 164.677 -1.63586 -0.451413 0
M  V30 1821 H 163.449 -3.67003 -1.35736 0
M  V30 1822 H 163.072 -2.79213 -2.83065 0
M  V30 1823 N 164.069 0.697108 -1.41344 0
M  V30 1824 C 164.979 1.84088 -1.45427 0
M  V30 1825 C 165.995 1.70545 -0.34501 0
M  V30 1826 O 167.171 1.92488 -0.592492 0
M  V30 1827 C 164.236 3.20056 -1.33286 0
M  V30 1828 C 163.297 3.45718 -2.54514 0
M  V30 1829 C 162.53 4.75199 -2.42944 0
M  V30 1830 O 162.753 5.51579 -1.45318 0
M  V30 1831 O 161.687 5.0161 -3.32672 0
M  V30 1832 H 165.513 1.836 -2.41919 0
M  V30 1833 H 163.098 0.849966 -1.22866 0
M  V30 1834 H 164.98 4.01236 -1.28794 0
M  V30 1835 H 163.655 3.2123 -0.39909 0
M  V30 1836 H 162.562 2.64474 -2.64583 0
M  V30 1837 H 163.895 3.49356 -3.46715 0
M  V30 1838 N 165.547 1.27147 0.931209 0
M  V30 1839 C 166.51 1.09615 2.01289 0
M  V30 1840 C 167.51 0.0412581 1.60747 0
M  V30 1841 O 168.7 0.285545 1.71844 0
M  V30 1842 C 165.832 0.669447 3.34262 0
M  V30 1843 H 167.025 2.05662 2.18273 0
M  V30 1844 H 164.578 1.09885 1.11153 0
M  V30 1845 H 165.313 -0.292572 3.22978 0
M  V30 1846 H 165.098 1.43127 3.65044 0
M  V30 1847 H 166.588 0.568921 4.13706 0
M  V30 1848 N 167.025 -1.13721 1.09112 0
M  V30 1849 C 168.274 -1.84275 0.82009 0
M  V30 1850 C 168.587 -1.84253 -0.656509 0
M  V30 1851 O 169.793 -2.50668 -1.04296 0
M  V30 1852 C 168.249 -3.30825 1.41714 0
M  V30 1853 C 167.857 -3.39244 2.92605 0
M  V30 1854 C 169.601 -4.06443 1.22492 0
M  V30 1855 C 167.508 -4.80047 3.45411 0
M  V30 1856 H 166.438 -0.690387 0.30312 0
M  V30 1857 H 169.089 -1.28146 1.31343 0
M  V30 1858 H 167.471 -3.86737 0.851498 0
M  V30 1859 H 168.645 -2.93344 3.55367 0
M  V30 1860 H 166.96 -2.77088 3.10823 0
M  V30 1861 H 169.557 -5.10387 1.59402 0
M  V30 1862 H 169.9 -4.15972 0.165299 0
M  V30 1863 H 170.433 -3.56852 1.75788 0
M  V30 1864 H 167.172 -4.75709 4.50978 0
M  V30 1865 H 166.692 -5.26455 2.87411 0
M  V30 1866 H 168.371 -5.48957 3.42425 0
M  V30 1867 N 168.503 -0.877838 -1.30888 0
M  V30 1868 C 169.919 -0.570844 -1.49042 0
M  V30 1869 C 170.119 0.893159 -1.80624 0
M  V30 1870 O 169.175 1.67485 -1.88958 0
M  V30 1871 C 170.488 -1.47784 -2.61878 0
M  V30 1872 C 172.036 -1.48071 -2.75761 0
M  V30 1873 C 172.511 -2.37347 -3.91702 0
M  V30 1874 N 174.002 -2.35271 -3.99001 0
M  V30 1875 C 174.737 -3.01063 -4.88004 0
M  V30 1876 N 174.233 -3.76055 -5.81854 0
M  V30 1877 N 176.026 -2.90332 -4.81315 0
M  V30 1878 H 168.177 -1.82502 -1.0866 0
M  V30 1879 H 170.44 -0.780797 -0.537644 0
M  V30 1880 H 170.146 -2.51993 -2.45341 0
M  V30 1881 H 170.02 -1.18215 -3.58197 0
M  V30 1882 H 172.407 -0.446166 -2.91708 0
M  V30 1883 H 172.488 -1.81668 -1.80085 0
M  V30 1884 H 172.132 -3.40883 -3.76512 0
M  V30 1885 H 172.062 -2.01071 -4.86701 0
M  V30 1886 H 174.553 -1.80768 -3.3186 0
M  V30 1887 H 174.866 -4.23366 -6.46514 0
M  V30 1888 H 173.211 -3.80163 -5.81808 0
M  V30 1889 H 176.402 -2.31278 -4.06974 0
M  V30 1890 H 176.575 -3.41885 -5.50471 0
M  V30 1891 N 169.982 1.44106 -0.638065 0
M  V30 1892 C 170.929 2.30715 0.062701 0
M  V30 1893 C 171.899 1.43882 0.829883 0
M  V30 1894 O 173.084 1.72775 0.809532 0
M  V30 1895 C 170.224 3.29258 1.03358 0
M  V30 1896 C 169.337 4.31192 0.26409 0
M  V30 1897 C 168.472 5.16825 1.22741 0
M  V30 1898 C 167.511 6.10462 0.447475 0
M  V30 1899 N 166.648 6.8877 1.36161 0
M  V30 1900 H 171.488 2.90096 -0.681781 0
M  V30 1901 H 169.025 1.42925 -0.347988 0
M  V30 1902 H 170.983 3.84886 1.60992 0
M  V30 1903 H 169.613 2.71562 1.74511 0
M  V30 1904 H 168.665 3.77981 -0.428295 0
M  V30 1905 H 169.977 4.97619 -0.343052 0
M  V30 1906 H 169.131 5.77004 1.87487 0
M  V30 1907 H 167.87 4.50488 1.86847 0
M  V30 1908 H 166.875 5.49386 -0.213433 0
M  V30 1909 H 168.1 6.78837 -0.188968 0
M  V30 1910 H 166.046 6.25096 1.98975 0
M  V30 1911 H 165.963 7.51663 0.808656 0
M  V30 1912 H 167.231 7.53467 1.99769 0
M  V30 1913 N 171.46 0.379036 1.52974 0
M  V30 1914 C 172.706 -0.206727 2.01744 0
M  V30 1915 C 173.039 -1.47314 1.26539 0
M  V30 1916 O 172.314 -1.91084 0.362903 0
M  V30 1917 C 172.597 -0.485066 3.56818 0
M  V30 1918 C 172.45 0.795919 4.42702 0
M  V30 1919 C 173.769 -1.28003 4.21074 0
M  V30 1920 H 170.888 -0.0736607 0.73331 0
M  V30 1921 H 173.53 0.506581 1.83122 0
M  V30 1922 H 171.68 -1.09272 3.72816 0
M  V30 1923 H 173.352 1.43307 4.38476 0
M  V30 1924 H 171.595 1.41344 4.10127 0
M  V30 1925 H 172.266 0.555947 5.49193 0
M  V30 1926 H 174.742 -0.765867 4.08991 0
M  V30 1927 H 173.618 -1.44352 5.29579 0
M  V30 1928 H 173.879 -2.29236 3.78026 0
M  V30 1929 N 172.938 -1.57226 0.108567 0
M  V30 1930 C 173.901 -2.13602 -0.831082 0
M  V30 1931 C 174.901 -1.06841 -1.20173 0
M  V30 1932 O 176.091 -1.32666 -1.12895 0
M  V30 1933 C 173.223 -2.66769 -2.12243 0
M  V30 1934 H 174.416 -2.97951 -0.341317 0
M  V30 1935 H 171.969 -1.55667 -0.14057 0
M  V30 1936 H 172.704 -1.85977 -2.65675 0
M  V30 1937 H 172.489 -3.44839 -1.86625 0
M  V30 1938 H 173.979 -3.10332 -2.79435 0
M  V30 1939 N 174.416 0.165178 -1.56732 0
M  V30 1940 C 175.644 0.896218 -1.86482 0
M  V30 1941 C 176.059 1.75555 -0.694675 0
M  V30 1942 O 175.416 1.79379 0.33607 0
M  V30 1943 C 175.467 1.76792 -3.1532 0
M  V30 1944 O 175.188 0.943239 -4.27825 0
M  V30 1945 C 176.689 2.6081 -3.58459 0
M  V30 1946 H 173.909 0.260064 -0.618553 0
M  V30 1947 H 176.453 0.163428 -2.03846 0
M  V30 1948 H 174.608 2.45398 -2.99764 0
M  V30 1949 H 175.022 1.53998 -5.01383 0
M  V30 1950 H 176.496 3.17579 -4.51495 0
M  V30 1951 H 176.973 3.35977 -2.82872 0
M  V30 1952 H 177.579 1.97526 -3.76648 0
M  V30 1953 N 175.894 1.51508 0.433938 0
M  V30 1954 C 177.119 1.68443 1.21003 0
M  V30 1955 C 177.544 0.382636 1.84167 0
M  V30 1956 O 176.902 -0.65755 1.68956 0
M  V30 1957 C 176.95 2.80405 2.26727 0
M  V30 1958 O 176.054 2.44245 3.32292 0
M  V30 1959 H 175.395 0.561536 0.354363 0
M  V30 1960 H 177.925 1.9809 0.512024 0
M  V30 1961 H 177.935 3.0459 2.71457 0
M  V30 1962 H 176.61 3.74867 1.80132 0
M  V30 1963 H 175.187 2.30644 2.93015 0
M  V30 1964 N 177.372 -0.689602 1.41712 0
M  V30 1965 C 178.319 -1.80345 1.44029 0
M  V30 1966 C 179.289 -1.63478 0.293948 0
M  V30 1967 O 180.474 -1.84244 0.495869 0
M  V30 1968 C 177.614 -3.18272 1.33405 0
M  V30 1969 C 176.727 -3.46529 2.57956 0
M  V30 1970 C 175.862 -4.74103 2.39582 0
M  V30 1971 C 174.901 -4.95347 3.5958 0
M  V30 1972 N 174.038 -6.14151 3.40239 0
M  V30 1973 H 178.878 -1.77698 2.39222 0
M  V30 1974 H 176.415 -0.867688 1.18784 0
M  V30 1975 H 178.373 -3.97956 1.25246 0
M  V30 1976 H 177.003 -3.2008 0.418164 0
M  V30 1977 H 176.055 -2.61207 2.76542 0
M  V30 1978 H 177.367 -3.58126 3.47199 0
M  V30 1979 H 176.521 -5.61853 2.28924 0
M  V30 1980 H 175.26 -4.64763 1.47805 0
M  V30 1981 H 174.265 -4.06044 3.70686 0
M  V30 1982 H 175.49 -5.06542 4.52318 0
M  V30 1983 H 173.436 -6.06013 2.51167 0
M  V30 1984 H 173.353 -6.26543 4.23061 0
M  V30 1985 H 174.621 -7.04619 3.33365 0
M  V30 1986 N 178.85 -1.27639 -0.924453 0
M  V30 1987 C 180.075 -1.17101 -1.71179 0
M  V30 1988 C 180.5 0.268134 -1.86179 0
M  V30 1989 O 179.858 1.19415 -1.36418 0
M  V30 1990 C 179.906 -1.86313 -3.08739 0
M  V30 1991 O 179.01 -1.16331 -3.95652 0
M  V30 1992 H 178.351 -0.407091 -0.524569 0
M  V30 1993 H 180.881 -1.68767 -1.15666 0
M  V30 1994 H 180.891 -1.938 -3.59034 0
M  V30 1995 H 179.566 -2.91001 -2.97138 0
M  V30 1996 H 178.143 -1.16935 -3.54091 0
M  V30 1997 N 180.328 1.1314 -1.09713 0
M  V30 1998 C 181.574 1.84757 -0.836224 0
M  V30 1999 C 181.907 1.8347 0.636598 0
M  V30 2000 O 181.182 1.27491 1.46889 0
M  V30 2001 C 181.465 3.32782 -1.37578 0
M  V30 2002 C 181.318 3.42567 -2.91493 0
M  V30 2003 C 182.637 4.28307 -1.01198 0
M  V30 2004 H 179.756 0.67082 -0.305236 0
M  V30 2005 H 182.398 1.3278 -1.35903 0
M  V30 2006 H 180.548 3.77177 -0.931097 0
M  V30 2007 H 182.22 3.06862 -3.44432 0
M  V30 2008 H 180.463 2.83349 -3.28475 0
M  V30 2009 H 181.134 4.46674 -3.24324 0
M  V30 2010 H 183.61 3.91999 -1.39556 0
M  V30 2011 H 182.486 5.30307 -1.41653 0
M  V30 2012 H 182.747 4.42029 0.0794833 0
M  V30 2013 N 181.806 0.884767 1.30421 0
M  V30 2014 C 182.738 0.308655 2.27112 0
M  V30 2015 C 183.751 -0.536655 1.53701 0
M  V30 2016 O 184.94 -0.35624 1.74909 0
M  V30 2017 C 182.04 -0.579782 3.33904 0
M  V30 2018 C 181.213 0.236417 4.36761 0
M  V30 2019 C 180.272 -0.582482 5.22966 0
M  V30 2020 O 179.298 -0.00525502 5.692 0
M  V30 2021 N 180.5 -1.89163 5.48815 0
M  V30 2022 H 183.265 1.13964 2.77186 0
M  V30 2023 H 180.826 0.747731 1.43599 0
M  V30 2024 H 182.818 -1.13366 3.88497 0
M  V30 2025 H 181.388 -1.31144 2.83761 0
M  V30 2026 H 180.608 0.97174 3.82035 0
M  V30 2027 H 181.896 0.795924 5.02536 0
M  V30 2028 H 181.294 -2.38352 5.13035 0
M  V30 2029 H 179.851 -2.39296 6.06284 0
M  V30 2030 N 183.284 -1.43765 0.645699 0
M  V30 2031 C 184.53 -2.02197 0.156271 0
M  V30 2032 C 184.863 -1.50776 -1.22393 0
M  V30 2033 O 184.138 -0.697771 -1.81553 0
M  V30 2034 C 184.421 -3.59749 0.158872 0
M  V30 2035 C 184.274 -4.21419 1.57245 0
M  V30 2036 C 185.593 -4.37149 -0.50879 0
M  V30 2037 H 182.712 -0.734694 0.0582602 0
M  V30 2038 H 185.354 -1.71157 0.824951 0
M  V30 2039 H 183.504 -3.86325 -0.410525 0
M  V30 2040 H 185.176 -4.059 2.19186 0
M  V30 2041 H 183.419 -3.78356 2.122 0
M  V30 2042 H 184.09 -5.30482 1.52619 0
M  V30 2043 H 186.566 -4.16093 -0.024412 0
M  V30 2044 H 185.442 -5.4683 -0.476213 0
M  V30 2045 H 185.703 -4.12839 -1.58165 0
M  V30 2046 N 184.763 -0.387143 -1.52771 0
M  V30 2047 C 186.04 0.253197 -1.93954 0
M  V30 2048 C 186.42 1.64545 -1.32243 0
M  V30 2049 O 185.768 2.23191 -0.489699 0
M  V30 2050 C 185.978 0.281722 -3.47861 0
M  V30 2051 C 187.326 0.511715 -4.21505 0
M  V30 2052 O 188.35 0.362023 -3.54356 0
M  V30 2053 O 187.209 0.804847 -5.40541 0
M  V30 2054 H 184.303 0.156845 -0.811991 0
M  V30 2055 H 186.849 -0.441494 -1.63856 0
M  V30 2056 H 185.621 -0.693571 -3.85104 0
M  V30 2057 H 185.244 1.02142 -3.84256 0
M  V30 2058 N 186.241 1.57166 -0.116904 0
M  V30 2059 C 187.471 1.99184 0.548586 0
M  V30 2060 C 187.879 0.995436 1.60897 0
M  V30 2061 O 187.222 -0.0201293 1.83689 0
M  V30 2062 C 187.284 3.37611 1.23526 0
M  V30 2063 C 186.948 4.55857 0.323077 0
M  V30 2064 C 187.945 5.18056 -0.437476 0
M  V30 2065 C 185.63 5.01751 0.234761 0
M  V30 2066 C 187.624 6.24536 -1.2741 0
M  V30 2067 C 185.311 6.08093 -0.605496 0
M  V30 2068 C 186.309 6.69352 -1.35856 0
M  V30 2069 O 185.997 7.7364 -2.18487 0
M  V30 2070 H 185.729 0.659148 0.149999 0
M  V30 2071 H 188.283 2.0443 -0.199428 0
M  V30 2072 H 186.513 3.29113 2.0303 0
M  V30 2073 H 188.202 3.63932 1.79745 0
M  V30 2074 H 188.968 4.83516 -0.379105 0
M  V30 2075 H 184.847 4.53817 0.810601 0
M  V30 2076 H 188.391 6.72281 -1.86237 0
M  V30 2077 H 184.288 6.42063 -0.665268 0
M  V30 2078 H 185.056 7.90727 -2.11406 0
M  V30 2079 N 187.719 -0.156864 1.56817 0
M  V30 2080 C 188.652 -1.22316 1.9265 0
M  V30 2081 C 189.63 -1.42059 0.791076 0
M  V30 2082 O 190.814 -1.56831 1.04576 0
M  V30 2083 C 187.941 -2.58375 2.18998 0
M  V30 2084 C 186.987 -2.55284 3.41661 0
M  V30 2085 S 187.82 -2.02946 4.95553 0
M  V30 2086 C 188.976 -3.40753 5.25013 0
M  V30 2087 H 189.209 -0.917403 2.82791 0
M  V30 2088 H 186.742 -0.362059 1.50095 0
M  V30 2089 H 188.7 -3.36677 2.34859 0
M  V30 2090 H 187.361 -2.86145 1.29538 0
M  V30 2091 H 186.554 -3.55418 3.57343 0
M  V30 2092 H 186.156 -1.85086 3.24991 0
M  V30 2093 H 188.448 -4.36819 5.17876 0
M  V30 2094 H 189.391 -3.29933 6.26538 0
M  V30 2095 H 189.799 -3.37433 4.52548 0
M  V30 2096 N 189.197 -1.51736 -0.425897 0
M  V30 2097 C 190.144 -1.73875 -1.51776 0
M  V30 2098 C 191.114 -0.580702 -1.55618 0
M  V30 2099 O 192.299 -0.81641 -1.72451 0
M  V30 2100 C 189.439 -1.88012 -2.89388 0
M  V30 2101 C 188.552 -3.15606 -2.94986 0
M  V30 2102 C 187.687 -3.20271 -4.23793 0
M  V30 2103 C 186.726 -4.42134 -4.23302 0
M  V30 2104 N 185.863 -4.44284 -5.43651 0
M  V30 2105 H 190.703 -2.67071 -1.32201 0
M  V30 2106 H 188.24 -1.32351 -0.642008 0
M  V30 2107 H 190.198 -1.9419 -3.69251 0
M  V30 2108 H 188.828 -0.98213 -3.07496 0
M  V30 2109 H 187.88 -3.18681 -2.07717 0
M  V30 2110 H 189.192 -4.05486 -2.90486 0
M  V30 2111 H 188.346 -3.25428 -5.12036 0
M  V30 2112 H 187.085 -2.28299 -4.30965 0
M  V30 2113 H 186.09 -4.3714 -3.3345 0
M  V30 2114 H 187.315 -5.35382 -4.17783 0
M  V30 2115 H 185.261 -3.55188 -5.51523 0
M  V30 2116 H 185.178 -5.27988 -5.41078 0
M  V30 2117 H 186.446 -4.53649 -6.33895 0
M  V30 2118 N 190.675 0.682077 -1.42076 0
M  V30 2119 C 191.903 1.47057 -1.4554 0
M  V30 2120 C 192.318 1.8869 -0.0645779 0
M  V30 2121 O 191.675 1.57666 0.919115 0
M  V30 2122 C 191.726 2.72442 -2.37609 0
M  V30 2123 O 191.447 2.32559 -3.71279 0
M  V30 2124 C 192.948 3.66069 -2.50017 0
M  V30 2125 H 190.168 0.452737 -0.495248 0
M  V30 2126 H 192.712 0.838695 -1.8651 0
M  V30 2127 H 190.867 3.31835 -1.9991 0
M  V30 2128 H 191.281 3.13475 -4.20516 0
M  V30 2129 H 192.755 4.50792 -3.18576 0
M  V30 2130 H 193.232 4.11476 -1.53572 0
M  V30 2131 H 193.838 3.12572 -2.88407 0
M  V30 2132 N 192.153 1.28127 0.917671 0
M  V30 2133 C 193.402 1.14432 1.66097 0
M  V30 2134 C 193.715 -0.307247 1.93172 0
M  V30 2135 O 194.921 -0.565259 2.65551 0
M  V30 2136 C 193.377 2.00015 2.99202 0
M  V30 2137 C 192.985 3.49889 2.79789 0
M  V30 2138 C 194.729 1.94996 3.77064 0
M  V30 2139 C 192.636 4.27636 4.08511 0
M  V30 2140 H 191.566 0.424662 0.62304 0
M  V30 2141 H 194.217 1.52628 1.01868 0
M  V30 2142 H 192.599 1.54672 3.64544 0
M  V30 2143 H 193.773 4.03162 2.23152 0
M  V30 2144 H 192.088 3.56392 2.15345 0
M  V30 2145 H 194.685 2.50354 4.72469 0
M  V30 2146 H 195.028 0.925819 4.05875 0
M  V30 2147 H 195.561 2.38287 3.18534 0
M  V30 2148 H 192.3 5.30615 3.84874 0
M  V30 2149 H 191.82 3.79137 4.64774 0
M  V30 2150 H 193.499 4.37346 4.76799 0
M  V30 2151 N 193.631 -1.12557 1.10312 0
M  V30 2152 C 194.561 -2.20341 0.772798 0
M  V30 2153 C 195.542 -1.68198 -0.25365 0
M  V30 2154 O 196.727 -1.93831 -0.119699 0
M  V30 2155 C 193.857 -3.46709 0.202443 0
M  V30 2156 C 192.811 -4.11996 1.15943 0
M  V30 2157 C 192.137 -5.328 0.450345 0
M  V30 2158 C 193.437 -4.5828 2.50552 0
M  V30 2159 H 195.131 -2.48229 1.674 0
M  V30 2160 H 192.677 -1.19308 0.806326 0
M  V30 2161 H 194.63 -4.2138 -0.0407752 0
M  V30 2162 H 193.354 -3.18245 -0.734001 0
M  V30 2163 H 192.013 -3.39305 1.38808 0
M  V30 2164 H 191.661 -5.00602 -0.490531 0
M  V30 2165 H 191.361 -5.7743 1.08851 0
M  V30 2166 H 192.885 -6.10219 0.215642 0
M  V30 2167 H 194.299 -5.2433 2.31843 0
M  V30 2168 H 192.696 -5.13683 3.10242 0
M  V30 2169 H 193.766 -3.72329 3.10643 0
M  V30 2170 N 195.109 -0.891671 -1.2995 0
M  V30 2171 C 196.356 -0.513501 -1.95881 0
M  V30 2172 C 196.684 0.938655 -1.70351 0
M  V30 2173 O 195.939 1.67936 -1.00478 0
M  V30 2174 C 196.238 -0.742868 -3.49594 0
M  V30 2175 C 195.904 -2.17114 -3.95186 0
M  V30 2176 C 194.566 -2.56169 -4.07346 0
M  V30 2177 C 196.918 -3.10162 -4.18866 0
M  V30 2178 C 194.246 -3.87469 -4.4055 0
M  V30 2179 C 196.598 -4.41001 -4.53542 0
M  V30 2180 C 195.262 -4.79941 -4.63911 0
M  V30 2181 H 194.532 -0.187903 -0.71678 0
M  V30 2182 H 197.179 -1.1288 -1.54694 0
M  V30 2183 H 195.484 -0.044586 -3.91775 0
M  V30 2184 H 197.181 -0.429767 -3.9869 0
M  V30 2185 H 193.771 -1.85801 -3.86233 0
M  V30 2186 H 197.955 -2.81206 -4.08946 0
M  V30 2187 H 193.211 -4.17371 -4.46779 0
M  V30 2188 H 197.385 -5.13133 -4.70815 0
M  V30 2189 H 195.012 -5.81719 -4.89395 0
M  V30 2190 N 196.587 1.43421 -0.653314 0
M  V30 2191 C 197.836 2.01032 -0.164076 0
M  V30 2192 C 198.149 1.52147 1.22926 0
M  V30 2193 O 199.355 2.02031 1.81371 0
M  V30 2194 C 197.811 3.59082 -0.24252 0
M  V30 2195 C 197.419 4.1696 -1.63855 0
M  V30 2196 C 199.163 4.24079 0.18911 0
M  V30 2197 C 197.07 5.67304 -1.67092 0
M  V30 2198 H 196 0.751798 -0.0575769 0
M  V30 2199 H 198.651 1.6439 -0.815362 0
M  V30 2200 H 197.033 3.93125 0.476276 0
M  V30 2201 H 198.207 3.94416 -2.38271 0
M  V30 2202 H 196.522 3.64335 -2.01616 0
M  V30 2203 H 199.119 5.34381 0.184775 0
M  V30 2204 H 199.462 3.98005 1.22056 0
M  V30 2205 H 199.995 3.94918 -0.477938 0
M  V30 2206 H 196.734 5.98145 -2.68146 0
M  V30 2207 H 196.254 5.91904 -0.970014 0
M  V30 2208 H 197.933 6.31344 -1.4147 0
M  V30 2209 N 198.065 0.39524 1.52563 0
M  V30 2210 C 199.476 -0.0774719 1.86539 0
M  V30 2211 C 199.827 -1.45641 1.31466 0
M  V30 2212 O 198.952 -2.06459 0.648367 0
M  V30 2213 C 199.547 -0.147356 3.38479 0
M  V30 2214 C 198.106 -0.564373 3.72145 0
M  V30 2215 C 197.253 0.269919 2.75983 0
M  V30 2216 H 200.204 0.612876 1.46388 0
M  V30 2217 H 200.225 -0.965343 3.68051 0
M  V30 2218 H 199.737 0.856387 3.78534 0
M  V30 2219 H 197.838 -1.57527 3.37663 0
M  V30 2220 H 197.951 -0.318402 4.78041 0
M  V30 2221 H 196.315 -0.265696 2.5331 0
M  V30 2222 H 197.098 1.27175 3.18875 0
M  V30 2223 N 199.544 -1.57102 0.125237 0
M  V30 2224 C 200.454 -2.19191 -0.8362 0
M  V30 2225 C 201.47 -1.16985 -1.28805 0
M  V30 2226 O 202.646 -1.49479 -1.34974 0
M  V30 2227 C 199.711 -2.78407 -2.06617 0
M  V30 2228 C 198.772 -3.9567 -1.66565 0
M  V30 2229 C 198.005 -4.52052 -2.83698 0
M  V30 2230 O 198.228 -4.07326 -3.99302 0
M  V30 2231 O 197.162 -5.42645 -2.60423 0
M  V30 2232 H 200.988 -3.01816 -0.337776 0
M  V30 2233 H 198.573 -1.4906 -0.100695 0
M  V30 2234 H 200.455 -3.16129 -2.7864 0
M  V30 2235 H 199.13 -1.9881 -2.55453 0
M  V30 2236 H 198.037 -3.62705 -0.916296 0
M  V30 2237 H 199.37 -4.76722 -1.22464 0
M  V30 2238 N 201.022 0.148545 -1.56898 0
M  V30 2239 C 201.952 1.18524 -2.01182 0
M  V30 2240 C 202.933 1.4489 -0.891123 0
M  V30 2241 O 204.118 1.55836 -1.15882 0
M  V30 2242 C 201.248 2.51879 -2.39112 0
M  V30 2243 C 200.202 2.40038 -3.54353 0
M  V30 2244 C 199.528 3.78089 -3.78091 0
M  V30 2245 C 200.828 1.88577 -4.87069 0
M  V30 2246 H 202.522 0.817029 -2.88036 0
M  V30 2247 H 200.068 0.391575 -1.38574 0
M  V30 2248 H 202.021 3.24627 -2.68692 0
M  V30 2249 H 200.745 2.90532 -1.49193 0
M  V30 2250 H 199.404 1.69742 -3.24936 0
M  V30 2251 H 199.052 4.14175 -2.85426 0
M  V30 2252 H 198.752 3.71028 -4.55645 0
M  V30 2253 H 200.276 4.52387 -4.10095 0
M  V30 2254 H 201.69 2.51117 -5.15377 0
M  V30 2255 H 200.087 1.9241 -5.68417 0
M  V30 2256 H 201.157 0.84136 -4.77545 0
M  V30 2257 N 202.5 1.5196 0.417844 0
M  V30 2258 C 203.911 1.57851 0.997 0
M  V30 2259 C 204.262 0.413714 1.91789 0
M  V30 2260 O 203.387 -0.467057 2.113 0
M  V30 2261 C 203.982 2.86085 1.81496 0
M  V30 2262 C 202.541 2.94483 2.34428 0
M  V30 2263 C 201.688 2.52707 1.14169 0
M  V30 2264 H 204.639 1.57455 0.198392 0
M  V30 2265 H 204.66 2.70947 2.67148 0
M  V30 2266 H 204.172 3.70842 1.14446 0
M  V30 2267 H 202.273 2.142 3.04875 0
M  V30 2268 H 202.386 3.98546 2.65891 0
M  V30 2269 H 200.75 2.06353 1.49301 0
M  V30 2270 H 201.533 3.39828 0.486999 0
M  V30 2271 N 203.978 -0.674533 1.42435 0
M  V30 2272 C 204.925 -1.78807 1.45934 0
M  V30 2273 C 205.895 -1.63157 0.311271 0
M  V30 2274 O 207.08 -1.83707 0.515383 0
M  V30 2275 C 204.22 -3.16839 1.36773 0
M  V30 2276 C 203.333 -3.43774 2.61617 0
M  V30 2277 C 202.468 -4.71536 2.44597 0
M  V30 2278 C 201.507 -4.91505 3.64814 0
M  V30 2279 N 200.644 -6.10508 3.46734 0
M  V30 2280 H 205.484 -1.75151 2.41093 0
M  V30 2281 H 203.021 -0.85504 1.19697 0
M  V30 2282 H 204.979 -3.96606 1.29459 0
M  V30 2283 H 203.609 -3.19619 0.452089 0
M  V30 2284 H 202.661 -2.58259 2.79297 0
M  V30 2285 H 203.973 -3.54423 3.50978 0
M  V30 2286 H 203.127 -5.59393 2.3487 0
M  V30 2287 H 201.866 -4.6317 1.52726 0
M  V30 2288 H 200.871 -4.0209 3.74972 0
M  V30 2289 H 202.096 -5.01716 4.57665 0
M  V30 2290 H 200.042 -6.03315 2.5758 0
M  V30 2291 H 199.959 -6.2202 4.29682 0
M  V30 2292 H 201.227 -7.01044 3.40819 0
M  V30 2293 N 205.456 -1.28612 -0.910864 0
M  V30 2294 C 206.403 -1.12786 -2.01365 0
M  V30 2295 C 207.373 -0.024201 -1.66082 0
M  V30 2296 O 208.558 -0.189667 -1.89855 0
M  V30 2297 C 205.698 -0.798743 -3.35729 0
M  V30 2298 C 204.811 -1.98173 -3.83864 0
M  V30 2299 C 203.946 -1.59298 -5.06752 0
M  V30 2300 C 202.985 -2.74245 -5.47226 0
M  V30 2301 N 202.122 -2.35842 -6.61304 0
M  V30 2302 H 206.962 -2.07142 -2.14234 0
M  V30 2303 H 204.499 -1.03093 -1.0493 0
M  V30 2304 H 206.457 -0.588662 -4.13026 0
M  V30 2305 H 205.087 0.10789 -3.2262 0
M  V30 2306 H 204.139 -2.30386 -3.02699 0
M  V30 2307 H 205.451 -2.84343 -4.09818 0
M  V30 2308 H 204.605 -1.34513 -5.916 0
M  V30 2309 H 203.344 -0.702618 -4.82612 0
M  V30 2310 H 202.349 -2.99725 -4.60918 0
M  V30 2311 H 203.574 -3.63928 -5.73353 0
M  V30 2312 H 201.52 -1.49279 -6.38789 0
M  V30 2313 H 201.437 -3.15546 -6.86998 0
M  V30 2314 H 202.705 -2.14348 -7.4945 0
M  V30 2315 N 206.934 1.1197 -1.10907 0
M  V30 2316 C 207.884 2.15946 -0.731538 0
M  V30 2317 C 208.868 1.58758 0.261699 0
M  V30 2318 O 210.06 1.76863 0.0696722 0
M  V30 2319 C 207.189 3.42877 -0.170299 0
M  V30 2320 C 206.275 4.07037 -1.19087 0
M  V30 2321 N 206.666 4.46135 -2.38322 0
M  V30 2322 C 204.964 4.33884 -1.03252 0
M  V30 2323 C 205.665 4.96331 -3.03366 0
M  V30 2324 N 204.641 4.9214 -2.30865 0
M  V30 2325 H 208.443 2.43947 -1.63912 0
M  V30 2326 H 205.957 1.28927 -0.987505 0
M  V30 2327 H 207.954 4.16732 0.118271 0
M  V30 2328 H 206.614 3.16343 0.731935 0
M  V30 2329 H 207.625 4.38345 -2.75815 0
M  V30 2330 H 204.302 4.17084 -0.186256 0
M  V30 2331 H 205.692 5.36257 -4.04818 0
M  V30 2332 N 208.412 0.89855 1.29475 0
M  V30 2333 C 209.359 0.373819 2.27753 0
M  V30 2334 C 210.329 -0.543444 1.56958 0
M  V30 2335 O 211.514 -0.468934 1.84948 0
M  V30 2336 C 208.654 -0.393648 3.42848 0
M  V30 2337 C 207.767 0.554379 4.28428 0
M  V30 2338 C 206.902 -0.230026 5.30702 0
M  V30 2339 C 205.941 0.712599 6.07938 0
M  V30 2340 N 205.078 -0.0373283 7.0209 0
M  V30 2341 H 209.918 1.21699 2.72017 0
M  V30 2342 H 207.455 0.611456 1.33789 0
M  V30 2343 H 209.413 -0.85466 4.08352 0
M  V30 2344 H 208.043 -1.20128 2.99615 0
M  V30 2345 H 207.095 1.13391 3.63107 0
M  V30 2346 H 208.407 1.27597 4.82204 0
M  V30 2347 H 207.561 -0.752288 6.02018 0
M  V30 2348 H 206.3 -0.984758 4.77654 0
M  V30 2349 H 205.305 1.24637 5.35486 0
M  V30 2350 H 206.53 1.46664 6.63074 0
M  V30 2351 H 204.476 -0.774348 6.51414 0
M  V30 2352 H 204.393 0.624374 7.53417 0
M  V30 2353 H 205.661 -0.539891 7.77628 0
M  V30 2354 N 209.89 -1.43072 0.660911 0
M  V30 2355 C 211.118 -2.06067 0.185422 0
M  V30 2356 C 211.533 -1.49582 -1.15198 0
M  V30 2357 O 210.89 -0.630134 -1.71276 0
M  V30 2358 C 210.941 -3.61371 0.0966523 0
M  V30 2359 O 210.662 -4.15758 1.38119 0
M  V30 2360 C 212.163 -4.41455 -0.403996 0
M  V30 2361 H 209.383 -0.664459 0.0934604 0
M  V30 2362 H 211.927 -1.83447 0.90373 0
M  V30 2363 H 210.082 -3.8315 -0.572259 0
M  V30 2364 H 210.496 -5.09499 1.24542 0
M  V30 2365 H 211.97 -5.50437 -0.415045 0
M  V30 2366 H 212.447 -4.15036 -1.43674 0
M  V30 2367 H 213.053 -4.24663 0.232691 0
M  V30 2368 N 211.368 -0.403325 -1.52352 0
M  V30 2369 C 212.593 0.176499 -2.06648 0
M  V30 2370 C 213.018 1.38577 -1.27193 0
M  V30 2371 O 212.376 1.7879 -0.300637 0
M  V30 2372 C 212.424 0.511061 -3.5696 0
M  V30 2373 O 211.528 1.60294 -3.79973 0
M  V30 2374 H 210.869 0.0167337 -0.663789 0
M  V30 2375 H 213.399 -0.574848 -1.96359 0
M  V30 2376 H 213.409 0.771362 -4.00642 0
M  V30 2377 H 212.084 -0.37296 -4.14224 0
M  V30 2378 H 210.661 1.33526 -3.48174 0
M  V30 2379 N 212.846 1.57033 -0.133567 0
M  V30 2380 C 214.071 2.00475 0.531477 0
M  V30 2381 C 214.496 1.01291 1.58499 0
M  V30 2382 O 213.854 -0.0133279 1.81295 0
M  V30 2383 C 213.902 3.42729 1.12113 0
M  V30 2384 O 213.006 3.46498 2.23636 0
M  V30 2385 H 212.347 0.650876 0.131362 0
M  V30 2386 H 214.877 2.03344 -0.22634 0
M  V30 2387 H 214.887 3.81246 1.4531 0
M  V30 2388 H 213.562 4.14428 0.349557 0
M  V30 2389 H 212.139 3.19811 1.91769 0
M  V30 2390 N 214.325 -0.140222 1.56975 0
M  V30 2391 C 215.273 -1.19207 1.99731 0
M  V30 2392 C 216.267 -1.44089 0.890777 0
M  V30 2393 O 217.473 -1.44301 1.07597 0
M  V30 2394 H 213.848 -0.40142 0.635898 0
M  V30 2395 H 215.819 -0.804813 2.87342 0
M  V30 2396 C 214.568 -2.51617 2.39967 0
M  V30 2397 H 213.891 -2.33303 3.24669 0
M  V30 2398 H 215.331 -3.23827 2.73701 0
M  V30 2399 C 213.79 -3.12654 1.25496 0
M  V30 2400 O 214.32 -3.97786 0.559371 0
M  V30 2401 N 212.526 -2.72206 1.01746 0
M  V30 2402 H 212.073 -2.03074 1.58489 0
M  V30 2403 H 212.031 -3.13377 0.253461 0
M  V30 2404 N 215.803 -1.52179 -0.40978 0
M  V30 2405 C 217.08 -1.56769 -1.16974 0
M  V30 2406 C 217.46 -0.348322 -2.08206 0
M  V30 2407 O 216.808 0.664862 -2.18613 0
M  V30 2408 C 217.018 -2.89603 -1.9476 0
M  V30 2409 C 218.366 -3.42579 -2.50849 0
M  V30 2410 O 219.39 -2.91338 -2.04941 0
M  V30 2411 O 218.249 -4.32054 -3.34652 0
M  V30 2412 H 215.343 -0.631439 -0.534054 0
M  V30 2413 H 217.889 -1.64507 -0.416613 0
M  V30 2414 H 216.661 -3.698 -1.27921 0
M  V30 2415 H 216.284 -2.85155 -2.77079 0
M  V30 2416 N 217.281 0.66697 -1.42791 0
M  V30 2417 C 218.228 1.7803 -1.4688 0
M  V30 2418 C 219.198 1.6299 -0.319919 0
M  V30 2419 O 220.383 1.83432 -0.525118 0
M  V30 2420 C 217.523 3.1611 -1.38451 0
M  V30 2421 C 216.636 3.42381 -2.63437 0
M  V30 2422 C 215.771 4.70232 -2.47094 0
M  V30 2423 C 214.81 4.89564 -3.67415 0
M  V30 2424 N 213.947 6.08661 -3.49966 0
M  V30 2425 H 218.787 1.7387 -2.42019 0
M  V30 2426 H 216.324 0.84868 -1.20149 0
M  V30 2427 H 218.282 3.95914 -1.31561 0
M  V30 2428 H 216.912 3.19374 -0.469033 0
M  V30 2429 H 215.964 2.56774 -2.80662 0
M  V30 2430 H 217.276 3.52557 -3.52853 0
M  V30 2431 H 216.43 5.5814 -2.37834 0
M  V30 2432 H 215.169 4.62353 -1.5518 0
M  V30 2433 H 214.174 4.00096 -3.77099 0
M  V30 2434 H 215.399 4.99282 -4.6032 0
M  V30 2435 H 213.345 6.0194 -2.60776 0
M  V30 2436 H 213.262 6.19733 -4.32975 0
M  V30 2437 H 214.53 6.99226 -3.44532 0
M  V30 2438 N 218.759 1.29093 0.90403 0
M  V30 2439 C 219.692 1.08176 2.00931 0
M  V30 2440 C 220.67 -0.005083 1.62599 0
M  V30 2441 O 221.854 0.144765 1.87943 0
M  V30 2442 C 218.981 0.645897 3.32484 0
M  V30 2443 C 218.027 1.73081 3.89801 0
M  V30 2444 S 218.86 3.32905 4.19446 0
M  V30 2445 C 220.016 2.91176 5.54046 0
M  V30 2446 H 220.249 2.01752 2.18365 0
M  V30 2447 H 217.782 1.13191 1.0501 0
M  V30 2448 H 219.74 0.401131 4.08535 0
M  V30 2449 H 218.401 -0.270188 3.12936 0
M  V30 2450 H 217.594 1.37768 4.84805 0
M  V30 2451 H 217.196 1.92888 3.20422 0
M  V30 2452 H 219.488 2.37952 6.34338 0
M  V30 2453 H 220.431 3.85014 5.94281 0
M  V30 2454 H 220.839 2.296 5.15698 0
M  V30 2455 N 220.237 -1.11381 1.11499 0
M  V30 2456 C 221.147 -2.21019 0.786628 0
M  V30 2457 C 222.163 -1.72597 -0.220507 0
M  V30 2458 O 223.339 -2.01321 -0.0565251 0
M  V30 2459 C 220.404 -3.459 0.235333 0
M  V30 2460 C 219.465 -4.09107 1.30115 0
M  V30 2461 C 218.698 -5.28027 0.776068 0
M  V30 2462 O 218.921 -5.6904 -0.393661 0
M  V30 2463 O 217.855 -5.81835 1.54114 0
M  V30 2464 H 221.681 -2.51521 1.70209 0
M  V30 2465 H 219.266 -1.19928 0.890928 0
M  V30 2466 H 221.148 -4.21346 -0.067715 0
M  V30 2467 H 219.823 -3.17049 -0.652828 0
M  V30 2468 H 218.73 -3.35391 1.65722 0
M  V30 2469 H 220.063 -4.42139 2.16273 0
M  V30 2470 N 221.715 -0.905404 -1.28997 0
M  V30 2471 C 222.645 -0.404212 -2.29975 0
M  V30 2472 C 223.626 0.523784 -1.61835 0
M  V30 2473 O 224.811 0.433298 -1.89304 0
M  V30 2474 C 221.941 0.364042 -3.45387 0
M  V30 2475 C 220.895 -0.474048 -4.25367 0
M  V30 2476 C 220.221 0.422045 -5.33032 0
M  V30 2477 C 221.521 -1.72696 -4.92923 0
M  V30 2478 H 223.215 -1.24807 -2.72146 0
M  V30 2479 H 220.761 -0.601585 -1.30832 0
M  V30 2480 H 222.714 0.725447 -4.15109 0
M  V30 2481 H 221.438 1.24174 -3.02074 0
M  V30 2482 H 220.097 -0.81786 -3.57361 0
M  V30 2483 H 219.745 1.29804 -4.85963 0
M  V30 2484 H 219.445 -0.135057 -5.87445 0
M  V30 2485 H 220.969 0.779517 -6.05604 0
M  V30 2486 H 222.383 -1.43495 -5.55051 0
M  V30 2487 H 220.78 -2.22582 -5.57295 0
M  V30 2488 H 221.85 -2.45964 -4.17887 0
M  V30 2489 N 223.193 1.4272 -0.668489 0
M  V30 2490 C 224.44 2.01624 -0.18814 0
M  V30 2491 C 224.768 1.5282 1.20317 0
M  V30 2492 O 224.023 0.718323 1.8204 0
M  V30 2493 C 224.322 3.57021 -0.164499 0
M  V30 2494 C 223.988 4.25232 -1.49962 0
M  V30 2495 C 222.65 4.4358 -1.8652 0
M  V30 2496 C 225.002 4.63727 -2.37921 0
M  V30 2497 C 222.33 4.97694 -3.10674 0
M  V30 2498 C 224.682 5.19218 -3.6138 0
M  V30 2499 C 223.346 5.3578 -3.98115 0
M  V30 2500 H 222.616 0.737795 -0.0688454 0
M  V30 2501 H 225.263 1.70991 -0.862225 0
M  V30 2502 H 223.568 3.87285 0.593079 0
M  V30 2503 H 225.265 4.00372 0.224271 0
M  V30 2504 H 221.855 4.11306 -1.20522 0
M  V30 2505 H 226.039 4.4923 -2.10964 0
M  V30 2506 H 221.295 5.08702 -3.39164 0
M  V30 2507 H 225.469 5.4799 -4.29743 0
M  V30 2508 H 223.096 5.77475 -4.94395 0
M  V30 2509 N 224.671 0.411399 1.52136 0
M  V30 2510 C 225.581 -0.419774 2.30814 0
M  V30 2511 C 226.597 -1.0515 1.38634 0
M  V30 2512 O 227.773 -1.05252 1.71709 0
M  V30 2513 C 224.838 -1.52019 3.11594 0
M  V30 2514 C 223.899 -0.91129 4.19516 0
M  V30 2515 C 223.132 -1.95927 4.96436 0
M  V30 2516 O 223.355 -3.17775 4.73683 0
M  V30 2517 O 222.289 -1.56423 5.81219 0
M  V30 2518 H 226.115 0.221805 3.02889 0
M  V30 2519 H 223.7 0.174547 1.48377 0
M  V30 2520 H 225.582 -2.15898 3.61892 0
M  V30 2521 H 224.257 -2.14633 2.42311 0
M  V30 2522 H 223.164 -0.235157 3.7336 0
M  V30 2523 H 224.497 -0.32904 4.91099 0
M  V30 2524 N 226.149 -1.5696 0.141893 0
M  V30 2525 C 227.395 -1.9625 -0.511248 0
M  V30 2526 C 227.728 -1.02654 -1.64851 0
M  V30 2527 O 227.003 -0.0679676 -1.94381 0
M  V30 2528 C 227.286 -3.45285 -1.02227 0
M  V30 2529 C 227.139 -4.49658 0.113138 0
M  V30 2530 C 228.458 -3.96698 -1.90574 0
M  V30 2531 H 225.577 -0.713567 -0.184367 0
M  V30 2532 H 228.219 -1.88698 0.222087 0
M  V30 2533 H 226.369 -3.51852 -1.64719 0
M  V30 2534 H 228.041 -4.55174 0.749302 0
M  V30 2535 H 226.284 -4.26857 0.773026 0
M  V30 2536 H 226.955 -5.51258 -0.286053 0
M  V30 2537 H 229.431 -3.92578 -1.37918 0
M  V30 2538 H 228.307 -5.01453 -2.2324 0
M  V30 2539 H 228.568 -3.3875 -2.84079 0
M  V30 2540 N 227.627 0.131896 -1.57047 0
M  V30 2541 C 228.904 0.871495 -1.75112 0
M  V30 2542 C 229.284 1.9866 -0.713949 0
M  V30 2543 O 228.632 2.26965 0.264447 0
M  V30 2544 C 228.842 1.40007 -3.19686 0
M  V30 2545 C 230.19 1.85752 -3.81813 0
M  V30 2546 O 231.214 1.49715 -3.23209 0
M  V30 2547 O 230.073 2.5226 -4.84796 0
M  V30 2548 H 227.167 0.412919 -0.716538 0
M  V30 2549 H 229.713 0.116641 -1.69299 0
M  V30 2550 H 228.485 0.599404 -3.86682 0
M  V30 2551 H 228.108 2.218 -3.29986 0
M  V30 2552 N 229.106 1.52395 0.401703 0
M  V30 2553 C 230.383 1.57387 1.16141 0
M  V30 2554 C 230.763 0.359359 2.08019 0
M  V30 2555 O 230.111 -0.65326 2.18963 0
M  V30 2556 C 230.321 2.90631 1.93221 0
M  V30 2557 C 231.669 3.43904 2.49028 0
M  V30 2558 O 232.693 2.92421 2.03393 0
M  V30 2559 O 231.552 4.33823 3.32356 0
M  V30 2560 H 228.646 0.634262 0.530698 0
M  V30 2561 H 231.192 1.64725 0.407883 0
M  V30 2562 H 229.964 3.70473 1.25958 0
M  V30 2563 H 229.587 2.8662 2.75563 0
M  V30 2564 N 230.584 -0.659388 1.43143 0
M  V30 2565 C 231.861 -1.41627 1.34912 0
M  V30 2566 C 232.241 -2.11099 -0.00607785 0
M  V30 2567 O 231.589 -2.04353 -1.02236 0
M  V30 2568 C 231.799 -2.40604 2.52805 0
M  V30 2569 C 233.147 -3.04789 2.95616 0
M  V30 2570 O 234.171 -2.50932 2.52807 0
M  V30 2571 O 233.03 -4.02421 3.69756 0
M  V30 2572 H 230.124 -0.63246 0.532844 0
M  V30 2573 H 232.67 -0.686814 1.5518 0
M  V30 2574 H 231.442 -1.88174 3.43083 0
M  V30 2575 H 231.065 -3.21009 2.34604 0
M  V30 2576 N 232.062 -1.29571 -0.897171 0
M  V30 2577 C 233.01 -1.14802 -2.02295 0
M  V30 2578 C 234.004 -0.0629637 -1.69283 0
M  V30 2579 O 235.21 -0.222945 -1.78614 0
M  V30 2580 H 231.585 -0.354692 -0.663097 0
M  V30 2581 H 233.556 -2.10108 -2.11889 0
M  V30 2582 C 232.305 -0.843966 -3.37302 0
M  V30 2583 H 231.628 -1.67093 -3.63208 0
M  V30 2584 H 233.068 -0.780672 -4.16751 0
M  V30 2585 C 231.527 0.452843 -3.33843 0
M  V30 2586 O 232.057 1.47813 -3.73516 0
M  V30 2587 N 230.263 0.459601 -2.86943 0
M  V30 2588 H 229.81 -0.375213 -2.54853 0
M  V30 2589 H 229.768 1.32726 -2.85011 0
M  V30 2590 N 233.54 1.10788 -1.12088 0
M  V30 2591 C 234.487 2.17025 -0.785407 0
M  V30 2592 C 235.457 1.64265 0.246191 0
M  V30 2593 O 236.642 1.90412 0.121584 0
M  V30 2594 C 233.782 3.44249 -0.242177 0
M  V30 2595 C 232.895 4.1098 -1.33115 0
M  V30 2596 C 232.03 5.25911 -0.747741 0
M  V30 2597 C 231.069 5.84538 -1.81609 0
M  V30 2598 N 230.206 6.90853 -1.25167 0
M  V30 2599 H 235.046 2.45066 -1.69548 0
M  V30 2600 H 232.583 1.20297 -0.846582 0
M  V30 2601 H 234.541 4.17101 0.0908026 0
M  V30 2602 H 233.171 3.16571 0.631072 0
M  V30 2603 H 232.223 3.36133 -1.78097 0
M  V30 2604 H 233.535 4.50601 -2.13917 0
M  V30 2605 H 232.689 6.056 -0.365216 0
M  V30 2606 H 231.428 4.87614 0.0915188 0
M  V30 2607 H 230.433 5.03522 -2.20785 0
M  V30 2608 H 231.658 6.249 -2.6585 0
M  V30 2609 H 229.604 6.54562 -0.434174 0
M  V30 2610 H 229.521 7.29166 -1.99633 0
M  V30 2611 H 230.789 7.7433 -0.896259 0
M  V30 2612 N 235.018 0.912232 1.28515 0
M  V30 2613 C 235.928 0.404506 2.31086 0
M  V30 2614 C 236.944 -0.50707 1.66448 0
M  V30 2615 O 238.12 -0.393624 1.97516 0
M  V30 2616 C 235.185 -0.348572 3.44943 0
M  V30 2617 C 234.246 0.59604 4.25142 0
M  V30 2618 C 233.479 -0.121194 5.33562 0
M  V30 2619 O 233.702 -1.34317 5.5436 0
M  V30 2620 O 232.636 0.542716 5.99448 0
M  V30 2621 H 236.462 1.25579 2.76521 0
M  V30 2622 H 234.047 0.676998 1.33181 0
M  V30 2623 H 235.929 -0.77395 4.14232 0
M  V30 2624 H 234.604 -1.17571 3.01594 0
M  V30 2625 H 233.511 1.07079 3.58448 0
M  V30 2626 H 234.844 1.38995 4.72167 0
M  V30 2627 N 236.496 -1.42363 0.676048 0
M  V30 2628 C 237.744 -2.01123 0.198437 0
M  V30 2629 C 238.065 -1.53731 -1.19966 0
M  V30 2630 O 237.335 -0.759518 -1.80577 0
M  V30 2631 H 235.915 -0.743678 0.0703721 0
M  V30 2632 H 238.577 -1.74263 0.872837 0
M  V30 2633 H 237.673 -3.11454 0.200686 0
M  V30 2634 N 237.974 -0.419461 -1.51915 0
M  V30 2635 C 238.922 0.415502 -2.28859 0
M  V30 2636 C 239.916 1.03674 -1.3397 0
M  V30 2637 O 241.122 0.973757 -1.51387 0
M  V30 2638 H 237.497 0.152786 -0.736315 0
M  V30 2639 H 239.468 -0.254531 -2.97312 0
M  V30 2640 C 238.217 1.51425 -3.12995 0
M  V30 2641 H 237.54 1.04556 -3.85886 0
M  V30 2642 H 238.98 2.07208 -3.6992 0
M  V30 2643 C 237.439 2.48745 -2.27217 0
M  V30 2644 O 237.969 3.52871 -1.9195 0
M  V30 2645 N 236.175 2.19202 -1.90785 0
M  V30 2646 H 235.722 1.34556 -2.19664 0
M  V30 2647 H 235.68 2.84561 -1.33687 0
M  V30 2648 N 239.452 1.56882 -0.150215 0
M  V30 2649 C 240.699 1.96228 0.500093 0
M  V30 2650 C 241.027 1.03522 1.64661 0
M  V30 2651 O 240.282 0.0650683 1.95592 0
M  V30 2652 C 240.581 3.41801 1.04437 0
M  V30 2653 C 240.247 4.50897 0.0159671 0
M  V30 2654 C 238.909 4.8046 -0.266731 0
M  V30 2655 C 241.261 5.16703 -0.683192 0
M  V30 2656 C 238.589 5.73135 -1.25434 0
M  V30 2657 C 240.941 6.10441 -1.65964 0
M  V30 2658 C 239.605 6.38382 -1.95 0
M  V30 2659 H 238.875 0.718048 0.182997 0
M  V30 2660 H 241.522 1.90019 -0.237724 0
M  V30 2661 H 239.827 3.44857 1.85959 0
M  V30 2662 H 241.524 3.69573 1.55618 0
M  V30 2663 H 238.114 4.27891 0.246485 0
M  V30 2664 H 242.298 4.93993 -0.477983 0
M  V30 2665 H 237.554 5.93074 -1.48571 0
M  V30 2666 H 241.728 6.60507 -2.20689 0
M  V30 2667 H 239.355 7.09996 -2.71679 0
M  V30 2668 N 240.93 -0.123565 1.57115 0
M  V30 2669 C 242.155 -0.850398 1.89164 0
M  V30 2670 C 242.58 -1.7286 0.741688 0
M  V30 2671 O 241.938 -1.78665 -0.307958 0
M  V30 2672 C 241.986 -1.66353 3.19936 0
M  V30 2673 O 241.09 -2.77004 3.0552 0
M  V30 2674 H 240.431 -0.235454 0.620852 0
M  V30 2675 H 242.961 -0.107335 2.04318 0
M  V30 2676 H 242.971 -2.05372 3.52543 0
M  V30 2677 H 241.646 -1.01881 4.03228 0
M  V30 2678 H 240.223 -2.41221 2.84371 0
M  V30 2679 N 242.408 -1.52605 -0.393616 0
M  V30 2680 C 243.356 -1.77688 -1.50099 0
M  V30 2681 C 244.35 -0.644615 -1.56656 0
M  V30 2682 O 245.556 -0.826997 -1.59877 0
M  V30 2683 H 241.931 -0.562159 -0.499481 0
M  V30 2684 H 243.902 -2.7043 -1.26135 0
M  V30 2685 C 242.651 -1.95858 -2.87289 0
M  V30 2686 H 241.974 -2.8241 -2.82992 0
M  V30 2687 H 243.414 -2.174 -3.64024 0
M  V30 2688 C 241.873 -0.729848 -3.28899 0
M  V30 2689 O 242.403 0.0949217 -4.01588 0
M  V30 2690 N 240.609 -0.561283 -2.85128 0
M  V30 2691 H 240.156 -1.23357 -2.26143 0
M  V30 2692 H 240.114 0.2595 -3.13327 0
M  V30 2693 N 243.887 0.651787 -1.4349 0
M  V30 2694 C 244.82 1.77668 -1.43211 0
M  V30 2695 C 245.798 1.59931 -0.29338 0
M  V30 2696 O 246.982 1.82095 -0.487191 0
M  V30 2697 C 244.109 3.14986 -1.24505 0
M  V30 2698 C 243.155 3.51421 -2.41673 0
M  V30 2699 S 243.988 3.51234 -4.04222 0
M  V30 2700 C 245.144 4.91206 -3.87902 0
M  V30 2701 H 245.377 1.77635 -2.38397 0
M  V30 2702 H 242.91 0.824558 -1.30539 0
M  V30 2703 H 244.868 3.94237 -1.144 0
M  V30 2704 H 243.529 3.1258 -0.308651 0
M  V30 2705 H 242.722 4.51291 -2.24393 0
M  V30 2706 H 242.324 2.79585 -2.48411 0
M  V30 2707 H 244.616 5.79902 -3.50315 0
M  V30 2708 H 245.559 5.13537 -4.8753 0
M  V30 2709 H 245.967 4.64808 -3.20334 0
M  V30 2710 N 245.365 1.30045 0.890287 0
M  V30 2711 C 246.612 1.18561 1.64163 0
M  V30 2712 C 246.94 -0.260852 1.92743 0
M  V30 2713 O 246.195 -1.20376 1.54299 0
M  V30 2714 C 246.494 1.95409 2.99249 0
M  V30 2715 C 246.16 3.45066 2.90242 0
M  V30 2716 C 244.822 3.85878 2.87492 0
M  V30 2717 C 247.174 4.4039 2.78758 0
M  V30 2718 C 244.502 5.20314 2.7109 0
M  V30 2719 C 246.854 5.74928 2.63894 0
M  V30 2720 C 245.518 6.14986 2.59516 0
M  V30 2721 H 244.788 0.433846 0.600715 0
M  V30 2722 H 247.435 1.61088 1.03552 0
M  V30 2723 H 245.74 1.45501 3.63781 0
M  V30 2724 H 247.437 1.8392 3.56334 0
M  V30 2725 H 244.027 3.12631 2.93189 0
M  V30 2726 H 248.211 4.09806 2.79952 0
M  V30 2727 H 243.467 5.50449 2.66112 0
M  V30 2728 H 247.641 6.48434 2.53981 0
M  V30 2729 H 245.268 7.19104 2.46565 0
M  V30 2730 N 246.843 -1.10192 1.12674 0
M  V30 2731 C 247.773 -2.18652 0.819362 0
M  V30 2732 C 248.754 -1.68698 -0.217915 0
M  V30 2733 O 249.939 -1.94041 -0.0785581 0
M  V30 2734 C 247.069 -3.46202 0.27594 0
M  V30 2735 C 246.023 -4.09444 1.24656 0
M  V30 2736 C 245.349 -5.31725 0.563258 0
M  V30 2737 C 246.649 -4.52863 2.60217 0
M  V30 2738 H 248.343 -2.44622 1.72628 0
M  V30 2739 H 245.889 -1.17571 0.831451 0
M  V30 2740 H 247.842 -4.21372 0.0486149 0
M  V30 2741 H 246.566 -3.1973 -0.666331 0
M  V30 2742 H 245.225 -3.36284 1.45974 0
M  V30 2743 H 244.873 -5.0153 -0.384235 0
M  V30 2744 H 244.573 -5.74991 1.21075 0
M  V30 2745 H 246.097 -6.09624 0.34503 0
M  V30 2746 H 247.511 -5.19294 2.42913 0
M  V30 2747 H 245.908 -5.06986 3.21068 0
M  V30 2748 H 246.978 -3.65656 3.18471 0
M  V30 2749 N 248.321 -0.919034 -1.28029 0
M  V30 2750 C 249.598 -0.473668 -1.89778 0
M  V30 2751 C 249.978 1.04783 -1.83259 0
M  V30 2752 O 249.326 1.8982 -1.27202 0
M  V30 2753 C 249.536 -1.00998 -3.34066 0
M  V30 2754 C 250.884 -1.06525 -4.1102 0
M  V30 2755 O 251.908 -0.958996 -3.43048 0
M  V30 2756 O 250.767 -1.22776 -5.3253 0
M  V30 2757 H 247.861 -0.15098 -0.813101 0
M  V30 2758 H 250.407 -1.01016 -1.36359 0
M  V30 2759 H 249.179 -2.05392 -3.33061 0
M  V30 2760 H 248.802 -0.454626 -3.94992 0
M  V30 2761 N 249.799 1.42003 -0.683588 0
M  V30 2762 C 250.762 2.29191 -0.0198243 0
M  V30 2763 C 251.762 1.43773 0.72013 0
M  V30 2764 O 252.952 1.65061 0.556815 0
M  V30 2765 C 250.084 3.26435 0.982487 0
M  V30 2766 H 251.277 2.8938 -0.787345 0
M  V30 2767 H 248.83 1.49789 -0.446418 0
M  V30 2768 H 249.565 2.71203 1.77819 0
M  V30 2769 H 249.35 3.89449 0.455182 0
M  V30 2770 H 250.84 3.918 1.44508 0
M  V30 2771 N 251.277 0.427512 1.51691 0
M  V30 2772 C 252.502 -0.143601 2.06902 0
M  V30 2773 C 252.927 -1.36536 1.29382 0
M  V30 2774 O 252.285 -1.78289 0.329043 0
M  V30 2775 C 252.333 -0.454207 3.57728 0
M  V30 2776 O 251.437 -1.54228 3.82475 0
M  V30 2777 H 250.778 -0.00617128 0.663971 0
M  V30 2778 H 253.308 0.606014 1.95419 0
M  V30 2779 H 253.318 -0.707525 4.01818 0
M  V30 2780 H 251.993 0.438812 4.13579 0
M  V30 2781 H 250.57 -1.2797 3.50254 0
M  V30 2782 N 252.755 -1.56801 0.158532 0
M  V30 2783 C 253.705 -2.13923 -0.788738 0
M  V30 2784 C 254.689 -1.07006 -1.2016 0
M  V30 2785 O 255.881 -1.33159 -1.1661 0
M  V30 2786 C 253.01 -2.77348 -2.02319 0
M  V30 2787 C 252.096 -3.91404 -1.6329 0
M  V30 2788 N 252.487 -4.9677 -0.951463 0
M  V30 2789 C 250.785 -4.02326 -1.92482 0
M  V30 2790 C 251.486 -5.76698 -0.761221 0
M  V30 2791 N 250.462 -5.27859 -1.29869 0
M  V30 2792 H 254.264 -2.92757 -0.258995 0
M  V30 2793 H 251.778 -1.62344 -0.0426055 0
M  V30 2794 H 253.775 -3.16639 -2.71192 0
M  V30 2795 H 252.435 -1.99991 -2.558 0
M  V30 2796 H 253.446 -5.14284 -0.610928 0
M  V30 2797 H 250.123 -3.36059 -2.47732 0
M  V30 2798 H 251.513 -6.71529 -0.223284 0
M  V30 2799 N 254.233 0.115231 -1.57178 0
M  V30 2800 C 255.196 1.12526 -1.99676 0
M  V30 2801 C 256.196 1.34095 -0.88742 0
M  V30 2802 O 257.386 1.30548 -1.15337 0
M  V30 2803 C 254.518 2.4789 -2.34015 0
M  V30 2804 H 255.711 0.759912 -2.90113 0
M  V30 2805 H 253.264 0.359648 -1.52106 0
M  V30 2806 H 253.999 2.89339 -1.4647 0
M  V30 2807 H 253.784 2.33588 -3.14927 0
M  V30 2808 H 255.274 3.20575 -2.67622 0
M  V30 2809 N 255.711 1.52812 0.385517 0
M  V30 2810 C 256.959 1.67694 1.12797 0
M  V30 2811 C 257.28 0.421115 1.90399 0
M  V30 2812 O 256.55 -0.564551 1.87589 0
M  V30 2813 H 255.13 0.618155 0.419396 0
M  V30 2814 H 257.792 1.89938 0.436972 0
M  V30 2815 H 256.888 2.52896 1.82894 0
M  V30 2816 N 257.189 -0.644168 1.43834 0
M  V30 2817 C 258.119 -1.76814 1.52509 0
M  V30 2818 C 259.1 -1.65823 0.379052 0
M  V30 2819 O 260.285 -1.84781 0.597466 0
M  V30 2820 C 257.415 -3.15288 1.4564 0
M  V30 2821 C 256.369 -3.41053 2.58586 0
M  V30 2822 C 255.695 -4.79421 2.36769 0
M  V30 2823 C 256.995 -3.34902 4.00797 0
M  V30 2824 H 258.689 -1.69812 2.46586 0
M  V30 2825 H 256.235 -0.815542 1.1868 0
M  V30 2826 H 258.188 -3.93681 1.50311 0
M  V30 2827 H 256.912 -3.23043 0.480725 0
M  V30 2828 H 255.571 -2.65035 2.53282 0
M  V30 2829 H 255.219 -4.83863 1.37424 0
M  V30 2830 H 254.919 -4.9762 3.12487 0
M  V30 2831 H 256.443 -5.6006 2.43238 0
M  V30 2832 H 257.857 -4.03218 4.07539 0
M  V30 2833 H 256.254 -3.64637 4.76613 0
M  V30 2834 H 257.324 -2.32928 4.25291 0
M  V30 2835 N 258.668 -1.30515 -0.883378 0
M  V30 2836 C 259.914 -1.19607 -1.63774 0
M  V30 2837 C 260.247 0.248314 -1.92606 0
M  V30 2838 O 259.522 1.17742 -1.54813 0
M  V30 2839 C 259.805 -2.02669 -2.97653 0
M  V30 2840 C 259.658 -3.55335 -2.75784 0
M  V30 2841 C 260.977 -1.86573 -3.98596 0
M  V30 2842 H 258.096 -0.435856 -0.594305 0
M  V30 2843 H 260.738 -1.60165 -1.02212 0
M  V30 2844 H 258.888 -1.68208 -3.50197 0
M  V30 2845 H 260.56 -3.99863 -2.30016 0
M  V30 2846 H 258.803 -3.79438 -2.1026 0
M  V30 2847 H 259.474 -4.08745 -3.70988 0
M  V30 2848 H 261.95 -2.16703 -3.55217 0
M  V30 2849 H 260.826 -2.47014 -4.90179 0
M  V30 2850 H 261.087 -0.825321 -4.34328 0
M  V30 2851 N 260.146 1.09593 -1.13257 0
M  V30 2852 C 261.094 2.18271 -0.803783 0
M  V30 2853 C 262.088 1.68054 0.213148 0
M  V30 2854 O 263.294 1.79862 0.0704699 0
M  V30 2855 H 259.669 0.711949 -0.242143 0
M  V30 2856 H 261.64 2.43235 -1.72856 0
M  V30 2857 C 260.389 3.46536 -0.28424 0
M  V30 2858 H 259.712 3.85545 -1.05807 0
M  V30 2859 H 261.152 4.23899 -0.0925945 0
M  V30 2860 C 259.611 3.22036 0.989684 0
M  V30 2861 O 260.141 3.44509 2.06584 0
M  V30 2862 N 258.347 2.7565 0.920086 0
M  V30 2863 H 257.894 2.57562 0.0442019 0
M  V30 2864 H 257.852 2.59635 1.77306 0
M  V30 2865 N 261.624 0.925811 1.2754 0
M  V30 2866 C 262.534 0.428993 2.30644 0
M  V30 2867 C 263.55 -0.489387 1.66976 0
M  V30 2868 O 264.726 -0.372653 1.97922 0
M  V30 2869 C 261.791 -0.311967 3.45294 0
M  V30 2870 C 260.852 0.641098 4.24486 0
M  V30 2871 C 260.085 -0.0645955 5.33661 0
M  V30 2872 O 260.308 -1.28429 5.55754 0
M  V30 2873 O 259.242 0.606265 5.98839 0
M  V30 2874 H 263.068 1.28504 2.75173 0
M  V30 2875 H 260.653 0.691086 1.32455 0
M  V30 2876 H 262.535 -0.729972 4.15029 0
M  V30 2877 H 261.21 -1.14365 3.02824 0
M  V30 2878 H 260.117 1.10874 3.57292 0
M  V30 2879 H 261.45 1.43995 4.70666 0
M  V30 2880 N 263.102 -1.41638 0.69111 0
M  V30 2881 C 264.052 -2.28 -0.000107832 0
M  V30 2882 C 265.036 -1.41964 -0.757304 0
M  V30 2883 O 266.228 -1.65274 -0.633532 0
M  V30 2884 C 263.357 -3.30209 -0.938983 0
M  V30 2885 C 262.443 -4.23725 -0.17827 0
M  V30 2886 N 262.834 -4.99017 0.825563 0
M  V30 2887 C 261.132 -4.44071 -0.414392 0
M  V30 2888 C 261.833 -5.67431 1.28052 0
M  V30 2889 N 260.809 -5.40197 0.607304 0
M  V30 2890 H 264.611 -2.83644 0.769617 0
M  V30 2891 H 262.125 -1.53797 0.521562 0
M  V30 2892 H 264.122 -3.90898 -1.44929 0
M  V30 2893 H 262.782 -2.76126 -1.70836 0
M  V30 2894 H 263.793 -5.03671 1.20566 0
M  V30 2895 H 260.47 -4.01004 -1.162 0
M  V30 2896 H 261.86 -6.37801 2.11327 0
M  V30 2897 N 264.58 -0.43555 -1.51462 0
M  V30 2898 C 265.826 0.123979 -2.03022 0
M  V30 2899 C 266.181 1.4054 -1.31401 0
M  V30 2900 O 265.474 1.86948 -0.419634 0
M  V30 2901 C 265.668 0.39942 -3.55161 0
M  V30 2902 C 265.497 -0.853754 -4.41521 0
M  V30 2903 C 264.267 -1.38675 -4.85898 0
M  V30 2904 C 266.465 -1.73939 -4.83994 0
M  V30 2905 N 264.447 -2.59265 -5.56466 0
M  V30 2906 C 265.818 -2.79135 -5.5361 0
M  V30 2907 C 267.873 -1.75402 -4.65981 0
M  V30 2908 C 266.576 -3.85737 -6.07124 0
M  V30 2909 C 268.602 -2.80938 -5.20411 0
M  V30 2910 C 267.964 -3.84854 -5.89972 0
M  V30 2911 H 264.063 0.00624887 -0.781975 0
M  V30 2912 H 266.647 -0.59582 -1.85359 0
M  V30 2913 H 264.818 1.08825 -3.72843 0
M  V30 2914 H 266.55 0.95015 -3.93388 0
M  V30 2915 H 263.305 -0.94094 -4.64159 0
M  V30 2916 H 263.729 -3.2041 -5.96378 0
M  V30 2917 H 268.371 -0.963926 -4.11665 0
M  V30 2918 H 266.089 -4.65586 -6.60496 0
M  V30 2919 H 269.675 -2.8301 -5.08327 0
M  V30 2920 H 268.555 -4.65176 -6.31333 0
M  V30 2921 N 266.058 1.56714 -0.166846 0
M  V30 2922 C 267.021 2.16539 0.751232 0
M  V30 2923 C 268.021 1.11228 1.16125 0
M  V30 2924 O 269.211 1.36765 1.07894 0
M  V30 2925 C 266.343 2.74462 2.02196 0
M  V30 2926 H 267.536 2.99013 0.230499 0
M  V30 2927 H 265.089 1.56081 0.0826982 0
M  V30 2928 H 265.824 1.95709 2.58589 0
M  V30 2929 H 265.609 3.51527 1.73698 0
M  V30 2930 H 267.099 3.20489 2.67725 0
M  V30 2931 N 267.536 -0.106894 1.57237 0
M  V30 2932 C 268.783 -0.812526 1.85484 0
M  V30 2933 C 269.111 -1.79304 0.753687 0
M  V30 2934 O 268.366 -1.94047 -0.253853 0
M  V30 2935 C 268.665 -1.58628 3.20268 0
M  V30 2936 C 268.331 -0.748967 4.44636 0
M  V30 2937 C 266.993 -0.518104 4.78403 0
M  V30 2938 C 269.345 -0.166122 5.20935 0
M  V30 2939 C 266.673 0.305659 5.85903 0
M  V30 2940 C 269.025 0.644899 6.29304 0
M  V30 2941 C 267.689 0.885965 6.61594 0
M  V30 2942 H 266.959 -0.297324 0.678734 0
M  V30 2943 H 269.606 -0.0744332 1.91355 0
M  V30 2944 H 267.911 -2.39562 3.10028 0
M  V30 2945 H 269.608 -2.13643 3.39349 0
M  V30 2946 H 266.198 -0.939006 4.18187 0
M  V30 2947 H 270.382 -0.33167 4.95191 0
M  V30 2948 H 265.638 0.501528 6.0934 0
M  V30 2949 H 269.812 1.10345 6.87602 0
M  V30 2950 H 267.439 1.52609 7.44725 0
M  V30 2951 N 269.014 -1.53014 -0.377408 0
M  V30 2952 C 270.262 -1.6829 -1.11906 0
M  V30 2953 C 270.583 -0.431206 -1.90173 0
M  V30 2954 O 269.853 0.554595 -1.87886 0
M  V30 2955 H 268.433 -0.620371 -0.416112 0
M  V30 2956 H 271.095 -1.90167 -0.426893 0
M  V30 2957 H 270.191 -2.53862 -1.8155 0
M  V30 2958 N 270.492 0.636531 -1.44174 0
M  V30 2959 C 271.439 1.74875 -1.50624 0
M  V30 2960 C 272.409 1.62275 -0.35442 0
M  V30 2961 O 273.594 1.82276 -0.563908 0
M  V30 2962 C 270.734 3.13102 -1.45125 0
M  V30 2963 C 269.847 3.36717 -2.7064 0
M  V30 2964 C 268.982 4.64885 -2.57013 0
M  V30 2965 C 268.021 4.8166 -3.77717 0
M  V30 2966 N 267.158 6.01101 -3.62798 0
M  V30 2967 H 271.998 1.68697 -2.45653 0
M  V30 2968 H 269.535 0.823004 -1.21922 0
M  V30 2969 H 271.493 3.93034 -1.39929 0
M  V30 2970 H 270.123 3.18308 -0.536671 0
M  V30 2971 H 269.175 2.50763 -2.86046 0
M  V30 2972 H 270.487 3.44993 -3.60252 0
M  V30 2973 H 269.641 5.52969 -2.49619 0
M  V30 2974 H 268.38 4.58957 -1.64953 0
M  V30 2975 H 267.385 3.92007 -3.85501 0
M  V30 2976 H 268.61 4.89406 -4.70807 0
M  V30 2977 H 266.556 5.96273 -2.73486 0
M  V30 2978 H 266.473 6.10409 -4.46023 0
M  V30 2979 H 267.741 6.91761 -3.59286 0
M  V30 2980 N 271.97 1.30982 0.876444 0
M  V30 2981 C 272.918 1.18006 2.00443 0
M  V30 2982 C 273.912 0.0898871 1.69161 0
M  V30 2983 O 275.118 0.251333 1.78237 0
M  V30 2984 H 271.493 0.365196 0.65737 0
M  V30 2985 H 273.464 2.13453 2.0852 0
M  V30 2986 C 272.213 0.897521 3.35916 0
M  V30 2987 H 271.536 1.7285 3.60504 0
M  V30 2988 H 272.976 0.846874 4.15456 0
M  V30 2989 C 271.435 -0.399674 3.34521 0
M  V30 2990 O 271.965 -1.41852 3.7582 0
M  V30 2991 N 270.171 -0.413893 2.87637 0
M  V30 2992 H 269.718 0.41571 2.54224 0
M  V30 2993 H 269.676 -1.28175 2.87086 0
M  V30 2994 N 273.449 -1.08991 1.13837 0
M  V30 2995 C 274.359 -2.19301 0.833333 0
M  V30 2996 C 275.375 -1.73026 -0.183847 0
M  V30 2997 O 276.551 -2.01395 -0.0138092 0
M  V30 2998 C 273.616 -3.45323 0.308651 0
M  V30 2999 C 272.677 -4.06255 1.38764 0
M  V30 3000 C 271.91 -5.26262 0.887896 0
M  V30 3001 O 272.133 -5.69747 -0.27287 0
M  V30 3002 O 271.067 -5.78435 1.66421 0
M  V30 3003 H 274.893 -2.47854 1.75506 0
M  V30 3004 H 272.478 -1.18012 0.916166 0
M  V30 3005 H 274.36 -4.21394 0.0216739 0
M  V30 3006 H 273.035 -3.18362 -0.585431 0
M  V30 3007 H 271.942 -3.318 1.72799 0
M  V30 3008 H 273.275 -4.37452 2.25602 0
M  V30 3009 N 274.927 -0.932562 -1.27047 0
M  V30 3010 C 276.343 -0.633544 -1.46487 0
M  V30 3011 C 276.543 0.815746 -1.84249 0
M  V30 3012 O 275.599 1.59319 -1.95892 0
M  V30 3013 C 276.912 -1.58758 -2.55375 0
M  V30 3014 C 278.46 -1.59634 -2.69232 0
M  V30 3015 C 278.935 -2.53747 -3.81283 0
M  V30 3016 N 280.426 -2.51982 -3.88664 0
M  V30 3017 C 281.161 -3.21491 -4.74796 0
M  V30 3018 N 280.657 -4.00395 -5.65381 0
M  V30 3019 N 282.45 -3.10485 -4.68568 0
M  V30 3020 H 274.601 -1.86946 -1.00821 0
M  V30 3021 H 276.864 -0.802897 -0.504044 0
M  V30 3022 H 276.57 -2.62172 -2.34432 0
M  V30 3023 H 276.444 -1.33301 -3.52861 0
M  V30 3024 H 278.831 -0.569488 -2.89553 0
M  V30 3025 H 278.912 -1.89142 -1.72218 0
M  V30 3026 H 278.556 -3.56545 -3.61715 0
M  V30 3027 H 278.486 -2.21532 -4.77735 0
M  V30 3028 H 280.977 -1.94681 -3.23895 0
M  V30 3029 H 281.29 -4.50406 -6.27976 0
M  V30 3030 H 279.635 -4.04498 -5.65161 0
M  V30 3031 H 282.826 -2.48331 -3.96799 0
M  V30 3032 H 282.999 -3.64925 -5.35475 0
M  V30 3033 N 276.405 1.4127 -0.698611 0
M  V30 3034 C 277.63 2.06024 -0.238512 0
M  V30 3035 C 278.055 1.5224 1.10475 0
M  V30 3036 O 277.413 0.650623 1.69223 0
M  V30 3037 C 277.461 3.59988 -0.209952 0
M  V30 3038 O 276.565 4.04282 0.814235 0
M  V30 3039 H 275.906 0.653829 -0.115775 0
M  V30 3040 H 278.436 1.8098 -0.954326 0
M  V30 3041 H 278.446 4.07979 -0.0418436 0
M  V30 3042 H 277.121 3.98503 -1.1903 0
M  V30 3043 H 275.698 3.6779 0.615234 0
M  V30 3044 N 277.883 0.443576 1.51229 0
M  V30 3045 C 278.813 -0.355142 2.30783 0
M  V30 3046 C 279.794 -1.0154 1.36468 0
M  V30 3047 O 280.979 -1.01785 1.65389 0
M  V30 3048 C 278.109 -1.45312 3.15439 0
M  V30 3049 C 277.063 -0.916002 4.18083 0
M  V30 3050 C 276.389 -2.1102 4.91299 0
M  V30 3051 C 277.689 0.0538602 5.22272 0
M  V30 3052 H 279.383 0.308767 2.97804 0
M  V30 3053 H 276.929 0.149937 1.43217 0
M  V30 3054 H 278.882 -2.01914 3.69876 0
M  V30 3055 H 277.606 -2.14541 2.46252 0
M  V30 3056 H 276.265 -0.372145 3.64706 0
M  V30 3057 H 275.913 -2.78882 4.18609 0
M  V30 3058 H 275.613 -1.75717 5.60712 0
M  V30 3059 H 277.137 -2.68164 5.48562 0
M  V30 3060 H 278.551 -0.422069 5.71744 0
M  V30 3061 H 276.948 0.319776 5.99247 0
M  V30 3062 H 278.018 0.98858 4.74716 0
M  V30 3063 N 279.361 -1.56624 0.175154 0
M  V30 3064 C 280.308 -2.18149 -0.753634 0
M  V30 3065 C 281.278 -1.12265 -1.22417 0
M  V30 3066 O 282.463 -1.40432 -1.29165 0
M  V30 3067 C 279.603 -2.82933 -1.97592 0
M  V30 3068 C 278.716 -4.03289 -1.5486 0
M  V30 3069 C 277.851 -4.55988 -2.72485 0
M  V30 3070 C 276.89 -5.68746 -2.26262 0
M  V30 3071 N 276.027 -6.15938 -3.36994 0
M  V30 3072 H 280.867 -2.9717 -0.222195 0
M  V30 3073 H 278.404 -1.46774 -0.0979422 0
M  V30 3074 H 280.362 -3.18653 -2.69288 0
M  V30 3075 H 278.992 -2.06509 -2.481 0
M  V30 3076 H 278.044 -3.73364 -0.728246 0
M  V30 3077 H 279.356 -4.849 -1.16933 0
M  V30 3078 H 278.51 -4.9391 -3.52332 0
M  V30 3079 H 277.249 -3.73443 -3.13674 0
M  V30 3080 H 276.254 -5.30372 -1.44863 0
M  V30 3081 H 277.479 -6.53095 -1.86127 0
M  V30 3082 H 275.425 -5.36321 -3.77751 0
M  V30 3083 H 275.342 -6.92548 -3.03172 0
M  V30 3084 H 276.61 -6.58511 -4.17114 0
M  V30 3085 N 280.839 0.0985539 -1.57292 0
M  V30 3086 C 282.069 0.815135 -1.8984 0
M  V30 3087 C 282.477 1.7297 -0.766679 0
M  V30 3088 O 281.82 1.81698 0.270483 0
M  V30 3089 C 281.882 1.6842 -3.17608 0
M  V30 3090 C 281.546 0.94182 -4.4719 0
M  V30 3091 C 282.543 0.273212 -5.19182 0
M  V30 3092 C 280.228 0.916927 -4.9386 0
M  V30 3093 C 282.222 -0.410361 -6.36078 0
M  V30 3094 C 279.909 0.229567 -6.10669 0
M  V30 3095 C 280.907 -0.432902 -6.81627 0
M  V30 3096 O 280.595 -1.10925 -7.9621 0
M  V30 3097 H 280.327 0.238501 -0.632529 0
M  V30 3098 H 282.881 0.0812659 -2.05239 0
M  V30 3099 H 281.111 2.46022 -2.98345 0
M  V30 3100 H 282.8 2.27704 -3.36015 0
M  V30 3101 H 283.566 0.283927 -4.84168 0
M  V30 3102 H 279.445 1.42201 -4.3852 0
M  V30 3103 H 282.989 -0.928013 -6.914 0
M  V30 3104 H 278.886 0.216686 -6.45136 0
M  V30 3105 H 279.654 -1.01579 -8.12172 0
M  V30 3106 N 282.317 1.53212 0.369288 0
M  V30 3107 C 283.566 1.68436 1.10961 0
M  V30 3108 C 283.879 0.440738 1.9057 0
M  V30 3109 O 285.085 0.473446 2.6734 0
M  V30 3110 C 283.541 2.97744 2.0218 0
M  V30 3111 C 283.149 4.29355 1.279 0
M  V30 3112 C 284.893 3.22334 2.76226 0
M  V30 3113 C 282.8 5.49755 2.17999 0
M  V30 3114 H 281.73 0.627568 0.41794 0
M  V30 3115 H 284.381 1.79713 0.370884 0
M  V30 3116 H 282.763 2.8026 2.79768 0
M  V30 3117 H 283.937 4.57458 0.554007 0
M  V30 3118 H 282.252 4.11179 0.657311 0
M  V30 3119 H 284.849 4.09471 3.43857 0
M  V30 3120 H 285.192 2.38238 3.41392 0
M  V30 3121 H 285.725 3.40475 2.05723 0
M  V30 3122 H 282.464 6.36318 1.57417 0
M  V30 3123 H 281.984 5.25937 2.88359 0
M  V30 3124 H 283.663 5.84401 2.77641 0
M  V30 3125 N 283.795 -0.628877 1.44509 0
M  V30 3126 C 284.705 -1.7694 1.54044 0
M  V30 3127 C 285.721 -1.68705 0.425987 0
M  V30 3128 O 286.897 -1.89442 0.683656 0
M  V30 3129 C 283.962 -3.13332 1.48405 0
M  V30 3130 C 283.023 -3.33181 2.70719 0
M  V30 3131 C 282.256 -4.63067 2.6534 0
M  V30 3132 O 282.479 -5.44017 1.71469 0
M  V30 3133 O 281.413 -4.85167 3.56226 0
M  V30 3134 H 285.239 -1.71848 2.50403 0
M  V30 3135 H 282.824 -0.790378 1.26781 0
M  V30 3136 H 284.706 -3.94634 1.47791 0
M  V30 3137 H 283.381 -3.1896 0.551898 0
M  V30 3138 H 282.288 -2.51549 2.769 0
M  V30 3139 H 283.621 -3.32416 3.62988 0
M  V30 3140 N 285.273 -1.31445 -0.869486 0
M  V30 3141 C 286.689 -1.10113 -1.15531 0
M  V30 3142 C 286.889 0.128087 -2.01092 0
M  V30 3143 O 285.945 0.817276 -2.38908 0
M  V30 3144 C 287.258 -2.37291 -1.84698 0
M  V30 3145 C 288.806 -2.42906 -1.97397 0
M  V30 3146 C 289.281 -3.69967 -2.69979 0
M  V30 3147 N 290.772 -3.70864 -2.77514 0
M  V30 3148 C 291.507 -4.65875 -3.34287 0
M  V30 3149 N 291.003 -5.71242 -3.91988 0
M  V30 3150 N 292.796 -4.53394 -3.3225 0
M  V30 3151 H 284.947 -2.1028 -0.299347 0
M  V30 3152 H 287.21 -0.927683 -0.195214 0
M  V30 3153 H 286.916 -3.27078 -1.29278 0
M  V30 3154 H 286.79 -2.47125 -2.84972 0
M  V30 3155 H 289.177 -1.53588 -2.51982 0
M  V30 3156 H 289.258 -2.37036 -0.961643 0
M  V30 3157 H 288.902 -4.59652 -2.16062 0
M  V30 3158 H 288.832 -3.73103 -3.7162 0
M  V30 3159 H 291.323 -2.94697 -2.36563 0
M  V30 3160 H 291.636 -6.39817 -4.33421 0
M  V30 3161 H 289.981 -5.75015 -3.90362 0
M  V30 3162 H 293.172 -3.70252 -2.8641 0
M  V30 3163 H 293.345 -5.27617 -3.76197 0
M  V30 3164 N 286.751 1.08385 -1.14413 0
M  V30 3165 C 287.991 1.8238 -0.922868 0
M  V30 3166 C 288.355 1.84225 0.540842 0
M  V30 3167 O 289.556 2.53985 0.880058 0
M  V30 3168 C 287.827 3.24048 -1.50757 0
M  V30 3169 S 289.386 4.14917 -1.4279 0
M  V30 3170 H 286.204 0.628524 -0.332384 0
M  V30 3171 H 288.806 1.30278 -1.45766 0
M  V30 3172 H 287.51 3.20288 -2.56601 0
M  V30 3173 H 287.041 3.81224 -0.971178 0
M  V30 3174 H 289.056 4.94473 -0.413582 0
M  V30 3175 N 288.23 0.939286 1.26551 0
M  V30 3176 C 289.16 0.465044 2.28822 0
M  V30 3177 C 290.141 -0.480692 1.63167 0
M  V30 3178 O 291.326 -0.382955 1.90387 0
M  V30 3179 C 288.456 -0.27234 3.46231 0
M  V30 3180 C 287.41 0.58666 4.2396 0
M  V30 3181 C 286.736 -0.280573 5.33963 0
M  V30 3182 C 288.036 1.85704 4.88171 0
M  V30 3183 H 289.73 1.31979 2.68741 0
M  V30 3184 H 287.276 0.636061 1.29191 0
M  V30 3185 H 289.229 -0.615133 4.16886 0
M  V30 3186 H 287.953 -1.16121 3.0526 0
M  V30 3187 H 286.612 0.91232 3.55067 0
M  V30 3188 H 286.26 -1.16874 4.89234 0
M  V30 3189 H 285.96 0.29076 5.8688 0
M  V30 3190 H 287.484 -0.618678 6.07458 0
M  V30 3191 H 288.898 1.58161 5.51052 0
M  V30 3192 H 287.295 2.37279 5.51197 0
M  V30 3193 H 288.365 2.56957 4.11219 0
M  V30 3194 N 289.708 -1.40897 0.706093 0
M  V30 3195 C 290.64 -2.29199 0.00815776 0
M  V30 3196 C 291.653 -1.45336 -0.733582 0
M  V30 3197 O 292.842 -1.68727 -0.582537 0
M  V30 3198 C 289.942 -3.23417 -1.01265 0
M  V30 3199 C 289.115 -4.36089 -0.338387 0
M  V30 3200 C 288.174 -5.10811 -1.26326 0
M  V30 3201 O 287.2 -5.64215 -0.751651 0
M  V30 3202 N 288.402 -5.19269 -2.595 0
M  V30 3203 H 291.167 -2.89738 0.766297 0
M  V30 3204 H 288.728 -1.52164 0.55296 0
M  V30 3205 H 290.72 -3.70276 -1.63334 0
M  V30 3206 H 289.29 -2.64112 -1.67223 0
M  V30 3207 H 288.51 -3.91479 0.462352 0
M  V30 3208 H 289.798 -5.08634 0.130031 0
M  V30 3209 H 289.196 -4.77347 -3.03573 0
M  V30 3210 H 287.753 -5.69667 -3.16737 0
M  V30 3211 N 291.186 -0.45159 -1.50991 0
M  V30 3212 C 292.463 0.170707 -1.94854 0
M  V30 3213 C 292.843 1.58788 -1.39103 0
M  V30 3214 O 292.191 2.20913 -0.583921 0
M  V30 3215 C 292.401 0.133929 -3.48743 0
M  V30 3216 C 293.749 0.33248 -4.23296 0
M  V30 3217 O 294.773 0.211403 -3.55572 0
M  V30 3218 O 293.632 0.57486 -5.43468 0
M  V30 3219 H 290.726 0.122264 -0.817912 0
M  V30 3220 H 293.272 -0.510594 -1.61836 0
M  V30 3221 H 292.044 -0.856283 -3.81816 0
M  V30 3222 H 291.667 0.857529 -3.88242 0
M  V30 3223 N 292.664 1.56529 -0.183458 0
M  V30 3224 C 293.911 1.97244 0.458357 0
M  V30 3225 C 294.239 1.06992 1.62428 0
M  V30 3226 O 293.494 0.106542 1.9541 0
M  V30 3227 C 293.793 3.43939 0.971637 0
M  V30 3228 C 293.459 4.5083 -0.0796784 0
M  V30 3229 C 292.121 4.79786 -0.368584 0
M  V30 3230 C 294.473 5.15138 -0.792638 0
M  V30 3231 C 291.801 5.70345 -1.37563 0
M  V30 3232 C 294.153 6.06784 -1.78875 0
M  V30 3233 C 292.817 6.34102 -2.08497 0
M  V30 3234 H 292.087 0.721768 0.167725 0
M  V30 3235 H 294.734 1.89472 -0.277976 0
M  V30 3236 H 293.039 3.48724 1.78602 0
M  V30 3237 H 294.736 3.72791 1.47744 0
M  V30 3238 H 291.326 4.28317 0.155668 0
M  V30 3239 H 295.51 4.92868 -0.582659 0
M  V30 3240 H 290.766 5.89789 -1.61118 0
M  V30 3241 H 294.94 6.55677 -2.3465 0
M  V30 3242 H 292.567 7.04074 -2.86678 0
M  V30 3243 N 294.142 -0.090211 1.57342 0
M  V30 3244 C 295.072 -1.10976 2.05443 0
M  V30 3245 C 296.053 -1.41482 0.944284 0
M  V30 3246 O 297.238 -1.51428 1.21586 0
M  V30 3247 C 294.368 -2.42831 2.48295 0
M  V30 3248 C 293.322 -2.26721 3.63018 0
M  V30 3249 C 292.648 -3.63796 3.91863 0
M  V30 3250 C 293.948 -1.7037 4.93732 0
M  V30 3251 H 295.642 -0.709564 2.9087 0
M  V30 3252 H 293.188 -0.339874 1.39932 0
M  V30 3253 H 295.141 -3.14431 2.80555 0
M  V30 3254 H 293.865 -2.84795 1.59873 0
M  V30 3255 H 292.524 -1.57565 3.31012 0
M  V30 3256 H 292.172 -4.03297 3.00601 0
M  V30 3257 H 291.872 -3.53861 4.69101 0
M  V30 3258 H 293.396 -4.36855 4.26603 0
M  V30 3259 H 294.81 -2.31816 5.24342 0
M  V30 3260 H 293.207 -1.71181 5.75167 0
M  V30 3261 H 294.277 -0.663542 4.80339 0
M  V30 3262 N 295.62 -1.53406 -0.361157 0
M  V30 3263 C 296.868 -1.69467 -1.10115 0
M  V30 3264 C 297.189 -0.451352 -1.89705 0
M  V30 3265 O 296.459 0.534636 -1.88463 0
M  V30 3266 H 295.039 -0.624749 -0.409508 0
M  V30 3267 H 297.701 -1.90609 -0.406699 0
M  V30 3268 H 296.797 -2.55774 -1.78847 0
M  V30 3269 N 297.098 0.621204 -1.44841 0
M  V30 3270 C 298.345 1.38055 -1.48145 0
M  V30 3271 C 298.673 1.94143 -0.117867 0
M  V30 3272 O 297.928 1.74713 0.881694 0
M  V30 3273 C 298.227 2.55675 -2.4973 0
M  V30 3274 C 297.893 2.17817 -3.94799 0
M  V30 3275 C 296.555 2.07205 -4.34303 0
M  V30 3276 C 298.907 1.88065 -4.86087 0
M  V30 3277 C 296.235 1.65045 -5.63007 0
M  V30 3278 C 298.587 1.47394 -6.15189 0
M  V30 3279 C 297.251 1.35331 -6.53637 0
M  V30 3280 H 296.521 0.505181 -0.542101 0
M  V30 3281 H 299.168 0.703477 -1.78111 0
M  V30 3282 H 297.473 3.2866 -2.13284 0
M  V30 3283 H 299.17 3.13904 -2.4953 0
M  V30 3284 H 295.76 2.26998 -3.63552 0
M  V30 3285 H 299.944 1.95168 -4.56315 0
M  V30 3286 H 295.2 1.54317 -5.91605 0
M  V30 3287 H 299.374 1.23415 -6.85377 0
M  V30 3288 H 297.001 1.02435 -7.53267 0
M  V30 3289 N 298.576 1.31904 0.862503 0
M  V30 3290 C 299.824 1.21776 1.61292 0
M  V30 3291 C 300.145 -0.222413 1.93727 0
M  V30 3292 O 299.415 -1.1451 1.58947 0
M  V30 3293 H 297.995 0.447717 0.597962 0
M  V30 3294 H 300.657 1.65326 1.03215 0
M  V30 3295 H 299.753 1.7948 2.5533 0
M  V30 3296 N 300.054 -1.07777 1.14986 0
M  V30 3297 C 301.3 -1.80557 0.923422 0
M  V30 3298 C 301.633 -1.86298 -0.548337 0
M  V30 3299 O 300.908 -1.34354 -1.40639 0
M  V30 3300 C 301.191 -3.25839 1.53299 0
M  V30 3301 C 301.044 -3.28269 3.07505 0
M  V30 3302 C 302.363 -4.22991 1.21518 0
M  V30 3303 H 299.482 -0.655493 0.336894 0
M  V30 3304 H 302.124 -1.26144 1.42083 0
M  V30 3305 H 300.274 -3.72306 1.10999 0
M  V30 3306 H 301.946 -2.90079 3.58681 0
M  V30 3307 H 300.189 -2.67355 3.4162 0
M  V30 3308 H 300.86 -4.30691 3.45266 0
M  V30 3309 H 303.336 -3.84894 1.581 0
M  V30 3310 H 302.212 -5.22945 1.66793 0
M  V30 3311 H 302.473 -4.41904 0.131505 0
M  V30 3312 N 301.532 -0.945985 -1.26051 0
M  V30 3313 C 302.462 -0.477172 -2.28572 0
M  V30 3314 C 303.443 0.472032 -1.63419 0
M  V30 3315 O 304.628 0.372853 -1.90587 0
M  V30 3316 C 301.758 0.253975 -3.4637 0
M  V30 3317 C 300.712 -0.609135 -4.23643 0
M  V30 3318 C 300.038 0.252252 -5.34105 0
M  V30 3319 C 301.338 -1.8829 -4.8718 0
M  V30 3320 H 303.032 -1.33402 -2.68038 0
M  V30 3321 H 300.578 -0.642904 -1.28852 0
M  V30 3322 H 302.531 0.593016 -4.17207 0
M  V30 3323 H 301.255 1.145 -3.05871 0
M  V30 3324 H 299.914 -0.931138 -3.54578 0
M  V30 3325 H 299.562 1.14278 -4.89846 0
M  V30 3326 H 299.262 -0.32188 -5.86718 0
M  V30 3327 H 300.786 0.586454 -6.07777 0
M  V30 3328 H 302.2 -1.61081 -5.50205 0
M  V30 3329 H 300.597 -2.40199 -5.49931 0
M  V30 3330 H 301.667 -2.59134 -4.09851 0
M  V30 3331 N 303.011 1.40521 -0.713556 0
M  V30 3332 C 304.259 2.00527 -0.251692 0
M  V30 3333 C 304.58 1.56857 1.15848 0
M  V30 3334 O 303.85 0.807127 1.785 0
M  V30 3335 H 302.43 0.741551 -0.0900646 0
M  V30 3336 H 305.092 1.71887 -0.918733 0
M  V30 3337 H 304.188 3.10813 -0.283192 0
M  V30 3338 N 304.489 0.459591 1.5075 0
M  V30 3339 C 305.9 0.00171547 1.867 0
M  V30 3340 C 306.251 -1.39934 1.37525 0
M  V30 3341 O 305.376 -2.03523 0.735349 0
M  V30 3342 C 305.971 -0.00366298 3.388 0
M  V30 3343 C 304.53 -0.406026 3.74204 0
M  V30 3344 C 303.677 0.38673 2.7459 0
M  V30 3345 H 306.628 0.674413 1.43657 0
M  V30 3346 H 306.649 -0.808371 3.71814 0
M  V30 3347 H 306.161 1.01617 3.74561 0
M  V30 3348 H 304.262 -1.43063 3.4404 0
M  V30 3349 H 304.375 -0.115362 4.78961 0
M  V30 3350 H 302.739 -0.158019 2.54209 0
M  V30 3351 H 303.522 1.40585 3.13194 0
M  V30 3352 N 305.967 -1.56429 0.191757 0
M  V30 3353 C 306.877 -2.22541 -0.742481 0
M  V30 3354 C 307.893 -1.22342 -1.23727 0
M  V30 3355 O 309.069 -1.55069 -1.28513 0
M  V30 3356 C 306.134 -2.8692 -1.94623 0
M  V30 3357 C 305.195 -4.02378 -1.49633 0
M  V30 3358 C 304.428 -4.63678 -2.6427 0
M  V30 3359 O 304.651 -4.23895 -3.81666 0
M  V30 3360 O 303.585 -5.53202 -2.37174 0
M  V30 3361 H 307.411 -3.02977 -0.209462 0
M  V30 3362 H 304.996 -1.49353 -0.0373832 0
M  V30 3363 H 306.878 -3.27663 -2.64982 0
M  V30 3364 H 305.553 -2.09466 -2.46791 0
M  V30 3365 H 304.46 -3.66265 -0.761636 0
M  V30 3366 H 305.793 -4.81487 -1.02134 0
M  V30 3367 N 307.445 0.0818655 -1.57387 0
M  V30 3368 C 308.693 0.781368 -1.86384 0
M  V30 3369 C 309.014 1.78618 -0.782342 0
M  V30 3370 O 308.284 1.94976 0.190061 0
M  V30 3371 H 306.864 0.291562 -0.687751 0
M  V30 3372 H 309.526 0.060348 -1.94807 0
M  V30 3373 H 308.622 1.3038 -2.83562 0
M  V30 3374 N 308.923 1.53595 0.353017 0
M  V30 3375 C 309.855 1.77219 1.45348 0
M  V30 3376 C 310.868 0.65324 1.49119 0
M  V30 3377 O 312.057 0.929775 1.52373 0
M  V30 3378 C 309.157 1.84841 2.84055 0
M  V30 3379 C 308.33 3.14649 3.03833 0
M  V30 3380 C 307.389 3.13351 4.22727 0
M  V30 3381 O 306.415 3.87107 4.17297 0
M  V30 3382 N 307.617 2.35052 5.30783 0
M  V30 3383 H 310.382 2.72178 1.25457 0
M  V30 3384 H 307.943 1.52528 0.542833 0
M  V30 3385 H 309.935 1.81435 3.61751 0
M  V30 3386 H 308.505 0.971114 2.97133 0
M  V30 3387 H 307.725 3.31256 2.13689 0
M  V30 3388 H 309.013 4.00411 3.13925 0
M  V30 3389 H 308.411 1.74663 5.38061 0
M  V30 3390 H 306.968 2.37453 6.07009 0
M  V30 3391 N 310.401 -0.613514 1.45168 0
M  V30 3392 C 311.331 -1.7354 1.56225 0
M  V30 3393 C 312.312 -1.64981 0.41414 0
M  V30 3394 O 313.497 -1.83472 0.636526 0
M  V30 3395 C 310.627 -3.12128 1.52295 0
M  V30 3396 C 309.581 -3.35491 2.65762 0
M  V30 3397 C 308.907 -4.74291 2.46885 0
M  V30 3398 C 310.207 -3.26325 4.0781 0
M  V30 3399 H 311.901 -1.64543 2.50132 0
M  V30 3400 H 309.447 -0.790185 1.20383 0
M  V30 3401 H 311.4 -3.90404 1.58628 0
M  V30 3402 H 310.124 -3.2195 0.549139 0
M  V30 3403 H 308.783 -2.59603 2.58847 0
M  V30 3404 H 308.431 -4.80839 1.47657 0
M  V30 3405 H 308.131 -4.9088 3.22972 0
M  V30 3406 H 309.655 -5.54775 2.55063 0
M  V30 3407 H 311.069 -3.94483 4.16 0
M  V30 3408 H 309.466 -3.54445 4.8424 0
M  V30 3409 H 310.536 -2.23855 4.30136 0
M  V30 3410 N 311.879 -1.3236 -0.855495 0
M  V30 3411 C 313.125 -1.23054 -1.612 0
M  V30 3412 C 313.458 0.207404 -1.93089 0
M  V30 3413 O 312.733 1.14432 -1.57275 0
M  V30 3414 C 313.016 -2.08937 -2.93287 0
M  V30 3415 C 312.869 -3.61105 -2.68185 0
M  V30 3416 C 314.188 -1.94986 -3.94549 0
M  V30 3417 H 311.307 -0.448364 -0.584926 0
M  V30 3418 H 313.949 -1.62297 -0.987917 0
M  V30 3419 H 312.099 -1.75599 -3.46551 0
M  V30 3420 H 313.771 -4.04652 -2.21483 0
M  V30 3421 H 312.014 -3.83813 -2.02164 0
M  V30 3422 H 312.685 -4.16522 -3.62234 0
M  V30 3423 H 315.161 -2.24189 -3.5054 0
M  V30 3424 H 314.037 -2.57356 -4.84829 0
M  V30 3425 H 314.298 -0.917263 -4.3248 0
M  V30 3426 N 313.357 1.07166 -1.15556 0
M  V30 3427 C 314.582 1.84053 -0.955988 0
M  V30 3428 C 315.007 1.81586 0.490739 0
M  V30 3429 O 314.365 1.21018 1.34997 0
M  V30 3430 C 314.413 3.28957 -1.47714 0
M  V30 3431 O 313.517 4.06795 -0.677593 0
M  V30 3432 H 312.858 0.569842 -0.340847 0
M  V30 3433 H 315.388 1.35178 -1.53584 0
M  V30 3434 H 315.398 3.79788 -1.4908 0
M  V30 3435 H 314.073 3.30068 -2.53037 0
M  V30 3436 H 312.65 3.6561 -0.733721 0
M  V30 3437 N 314.835 0.952656 1.25548 0
M  V30 3438 C 316.081 0.616826 1.93822 0
M  V30 3439 C 316.436 -0.836684 1.73255 0
M  V30 3440 O 315.729 -1.59218 1.06584 0
M  V30 3441 C 315.923 0.908818 3.45652 0
M  V30 3442 C 315.752 2.38916 3.80984 0
M  V30 3443 C 314.522 3.04637 4.03143 0
M  V30 3444 C 316.72 3.36838 3.88645 0
M  V30 3445 N 314.702 4.42565 4.25453 0
M  V30 3446 C 316.073 4.60065 4.1562 0
M  V30 3447 C 318.128 3.31704 3.71318 0
M  V30 3448 C 316.831 5.78795 4.2707 0
M  V30 3449 C 318.857 4.4977 3.84006 0
M  V30 3450 C 318.219 5.71783 4.11392 0
M  V30 3451 H 314.318 0.27629 0.731565 0
M  V30 3452 H 316.902 1.22443 1.5138 0
M  V30 3453 H 315.073 0.330166 3.86994 0
M  V30 3454 H 316.805 0.533093 4.01174 0
M  V30 3455 H 313.56 2.55215 3.98952 0
M  V30 3456 H 313.984 5.1399 4.40617 0
M  V30 3457 H 318.626 2.3842 3.49164 0
M  V30 3458 H 316.344 6.72521 4.48041 0
M  V30 3459 H 319.93 4.47342 3.71989 0
M  V30 3460 H 318.81 6.61617 4.2099 0
M  V30 3461 N 316.313 -1.40141 0.720998 0
M  V30 3462 C 317.562 -2.0002 0.259804 0
M  V30 3463 C 317.875 -1.57839 -1.15526 0
M  V30 3464 O 319.081 -2.10455 -1.71525 0
M  V30 3465 C 317.537 -3.57516 0.413566 0
M  V30 3466 C 317.145 -4.08667 1.83562 0
M  V30 3467 C 318.889 -4.24498 0.0134387 0
M  V30 3468 C 316.796 -5.58686 1.93968 0
M  V30 3469 H 315.726 -0.748195 0.0933806 0
M  V30 3470 H 318.377 -1.60313 0.892866 0
M  V30 3471 H 316.759 -3.9495 -0.288169 0
M  V30 3472 H 317.933 -3.82598 2.56817 0
M  V30 3473 H 316.248 -3.543 2.1877 0
M  V30 3474 H 318.845 -5.34654 0.0703954 0
M  V30 3475 H 319.188 -4.03375 -1.02927 0
M  V30 3476 H 319.721 -3.92188 0.665815 0
M  V30 3477 H 316.46 -5.8467 2.96379 0
M  V30 3478 H 315.98 -5.86602 1.25131 0
M  V30 3479 H 317.659 -6.23875 1.71431 0
M  V30 3480 N 317.792 -0.46758 -1.50504 0
M  V30 3481 C 319.038 0.0887532 -2.02606 0
M  V30 3482 C 319.371 1.39686 -1.34913 0
M  V30 3483 O 318.646 1.88644 -0.473694 0
M  V30 3484 C 318.929 0.276206 -3.59039 0
M  V30 3485 C 318.782 -1.05267 -4.37309 0
M  V30 3486 C 320.101 1.03235 -4.27821 0
M  V30 3487 H 317.22 0.0307814 -0.736357 0
M  V30 3488 H 319.862 -0.612485 -1.79857 0
M  V30 3489 H 318.012 0.8735 -3.78553 0
M  V30 3490 H 319.684 -1.68628 -4.29374 0
M  V30 3491 H 317.927 -1.65015 -4.01189 0
M  V30 3492 H 318.598 -0.875197 -5.45018 0
M  V30 3493 H 321.074 0.526111 -4.12761 0
M  V30 3494 H 319.95 1.1323 -5.37094 0
M  V30 3495 H 320.211 2.06806 -3.90748 0
M  V30 3496 N 319.27 1.56325 -0.20005 0
M  V30 3497 C 320.203 2.15234 0.758267 0
M  V30 3498 C 321.181 1.09046 1.20614 0
M  V30 3499 O 322.365 1.37186 1.29276 0
M  V30 3500 C 319.492 2.71524 2.02466 0
M  V30 3501 C 318.538 3.90345 1.71852 0
M  V30 3502 S 319.371 5.28513 0.862249 0
M  V30 3503 C 320.527 5.88227 2.13868 0
M  V30 3504 H 320.76 2.96183 0.2575 0
M  V30 3505 H 318.293 1.54393 0.0150099 0
M  V30 3506 H 320.251 3.04598 2.75191 0
M  V30 3507 H 318.912 1.90607 2.49655 0
M  V30 3508 H 318.105 4.28158 2.65888 0
M  V30 3509 H 317.707 3.58306 1.07205 0
M  V30 3510 H 319.999 6.02891 3.09076 0
M  V30 3511 H 320.942 6.84714 1.80479 0
M  V30 3512 H 321.35 5.16874 2.2694 0
M  V30 3513 N 320.748 -0.0735177 1.57428 0
M  V30 3514 C 321.658 -1.10547 2.06922 0
M  V30 3515 C 322.674 -1.42506 0.998402 0
M  V30 3516 O 323.85 -1.52717 1.31299 0
M  V30 3517 C 320.915 -2.40019 2.50184 0
M  V30 3518 C 319.976 -2.15046 3.71556 0
M  V30 3519 C 319.209 -3.38345 4.12745 0
M  V30 3520 O 319.432 -4.47399 3.53822 0
M  V30 3521 O 318.366 -3.2666 5.05546 0
M  V30 3522 H 322.192 -0.715013 2.95163 0
M  V30 3523 H 319.777 -0.287531 1.46607 0
M  V30 3524 H 321.659 -3.16218 2.78539 0
M  V30 3525 H 320.334 -2.78447 1.65072 0
M  V30 3526 H 319.241 -1.36558 3.48285 0
M  V30 3527 H 320.574 -1.81499 4.57514 0
M  V30 3528 N 322.226 -1.5378 -0.344866 0
M  V30 3529 C 323.158 -1.77988 -1.44406 0
M  V30 3530 C 324.171 -0.661138 -1.48771 0
M  V30 3531 O 325.36 -0.937842 -1.51877 0
M  V30 3532 C 322.46 -1.86345 -2.8307 0
M  V30 3533 C 321.633 -3.16256 -3.0216 0
M  V30 3534 C 320.692 -3.15588 -4.21059 0
M  V30 3535 O 319.718 -3.89314 -4.15239 0
M  V30 3536 N 320.92 -2.37864 -5.29529 0
M  V30 3537 H 323.685 -2.72839 -1.24012 0
M  V30 3538 H 321.246 -1.52814 -0.534737 0
M  V30 3539 H 323.238 -1.83351 -3.60783 0
M  V30 3540 H 321.808 -0.986858 -2.96614 0
M  V30 3541 H 321.028 -3.32385 -2.11929 0
M  V30 3542 H 322.316 -4.0207 -3.11797 0
M  V30 3543 H 321.714 -1.77514 -5.37127 0
M  V30 3544 H 320.271 -2.40668 -6.05741 0
M  V30 3545 N 323.704 0.605807 -1.45491 0
M  V30 3546 C 324.929 1.39625 -1.53361 0
M  V30 3547 C 325.354 1.87351 -0.167645 0
M  V30 3548 O 324.712 1.60243 0.848051 0
M  V30 3549 C 324.76 2.57559 -2.5238 0
M  V30 3550 O 323.864 3.58248 -2.04285 0
M  V30 3551 H 323.205 0.416771 -0.516912 0
M  V30 3552 H 325.735 0.737103 -1.90861 0
M  V30 3553 H 325.745 3.0478 -2.71244 0
M  V30 3554 H 324.42 2.22171 -3.51586 0
M  V30 3555 H 322.997 3.17664 -1.95305 0
M  V30 3556 N 325.182 1.32811 0.848464 0
M  V30 3557 C 326.422 1.25046 1.61687 0
M  V30 3558 C 326.786 -0.183464 1.91121 0
M  V30 3559 O 327.987 -0.384937 2.66029 0
M  V30 3560 C 326.258 2.09201 2.89775 0
M  V30 3561 S 327.817 2.18526 3.80515 0
M  V30 3562 H 324.635 0.445023 0.554505 0
M  V30 3563 H 327.237 1.67733 1.00429 0
M  V30 3564 H 325.941 3.12433 2.66108 0
M  V30 3565 H 325.472 1.67315 3.56047 0
M  V30 3566 H 327.487 1.3393 4.77784 0
M  V30 3567 N 326.66 -1.06551 1.16123 0
M  V30 3568 C 327.57 -2.17484 0.879662 0
M  V30 3569 C 328.586 -1.73377 -0.147104 0
M  V30 3570 O 329.762 -2.01379 0.0289128 0
M  V30 3571 C 326.827 -3.44591 0.381829 0
M  V30 3572 C 325.888 -4.0322 1.4735 0
M  V30 3573 C 325.121 -5.24261 0.999324 0
M  V30 3574 O 325.344 -5.70198 -0.151957 0
M  V30 3575 O 324.278 -5.74775 1.78653 0
M  V30 3576 H 328.104 -2.44075 1.80724 0
M  V30 3577 H 325.689 -1.16042 0.940992 0
M  V30 3578 H 327.571 -4.21254 0.111053 0
M  V30 3579 H 326.246 -3.19532 -0.51777 0
M  V30 3580 H 325.153 -3.2806 1.79798 0
M  V30 3581 H 326.486 -4.32568 2.34831 0
M  V30 3582 N 328.138 -0.959301 -1.25041 0
M  V30 3583 C 329.068 -0.501388 -2.28053 0
M  V30 3584 C 330.049 0.454673 -1.63911 0
M  V30 3585 O 331.234 0.352618 -1.90972 0
M  V30 3586 C 328.364 0.217224 -3.4662 0
M  V30 3587 C 327.318 -0.654034 -4.22973 0
M  V30 3588 C 326.644 0.195589 -5.34342 0
M  V30 3589 C 327.944 -1.93447 -4.85155 0
M  V30 3590 H 329.638 -1.36238 -2.66608 0
M  V30 3591 H 327.184 -0.656534 -1.28163 0
M  V30 3592 H 329.137 0.548732 -4.17812 0
M  V30 3593 H 327.861 1.1125 -3.07068 0
M  V30 3594 H 326.52 -0.968693 -3.5357 0
M  V30 3595 H 326.168 1.09076 -4.91031 0
M  V30 3596 H 325.868 -0.384091 -5.86343 0
M  V30 3597 H 327.392 0.521958 -6.08365 0
M  V30 3598 H 328.806 -1.66908 -5.48466 0
M  V30 3599 H 327.203 -2.46018 -5.47353 0
M  V30 3600 H 328.273 -2.63466 -4.07079 0
M  V30 3601 N 329.616 1.39756 -0.72842 0
M  V30 3602 C 331.032 1.5442 -0.403308 0
M  V30 3603 C 331.232 1.69694 1.08656 0
M  V30 3604 O 330.288 1.69373 1.87267 0
M  V30 3605 C 331.601 2.76555 -1.18058 0
M  V30 3606 C 333.149 2.90384 -1.16815 0
M  V30 3607 C 333.624 4.15449 -1.92785 0
M  V30 3608 N 335.115 4.22475 -1.89918 0
M  V30 3609 C 335.85 5.1818 -2.45514 0
M  V30 3610 N 335.346 6.19714 -3.09719 0
M  V30 3611 N 337.139 5.1035 -2.35584 0
M  V30 3612 H 329.29 1.28089 -1.69431 0
M  V30 3613 H 331.553 0.620327 -0.716867 0
M  V30 3614 H 331.259 2.7159 -2.23455 0
M  V30 3615 H 331.133 3.69033 -0.780662 0
M  V30 3616 H 333.52 2.94846 -0.12234 0
M  V30 3617 H 333.601 1.98988 -1.6074 0
M  V30 3618 H 333.245 4.11749 -2.97364 0
M  V30 3619 H 333.175 5.05877 -1.46272 0
M  V30 3620 H 335.666 3.49743 -1.43138 0
M  V30 3621 H 335.979 6.8919 -3.49625 0
M  V30 3622 H 334.324 6.20121 -3.13807 0
M  V30 3623 H 337.515 4.2996 -1.85072 0
M  V30 3624 H 337.688 5.84761 -2.79211 0
M  V30 3625 N 331.094 0.475555 1.50254 0
M  V30 3626 C 332.027 -0.362381 2.25304 0
M  V30 3627 C 333.005 -0.992393 1.28803 0
M  V30 3628 O 334.189 -1.02746 1.58036 0
M  V30 3629 C 331.316 -1.50813 3.03271 0
M  V30 3630 C 330.362 -0.995044 4.1473 0
M  V30 3631 S 331.195 0.0938436 5.35418 0
M  V30 3632 C 332.351 -1.05567 6.16933 0
M  V30 3633 H 332.584 0.274686 2.96028 0
M  V30 3634 H 330.117 0.260495 1.52187 0
M  V30 3635 H 332.075 -2.16476 3.48781 0
M  V30 3636 H 330.736 -2.11672 2.32064 0
M  V30 3637 H 329.929 -1.85293 4.68703 0
M  V30 3638 H 329.531 -0.416052 3.71679 0
M  V30 3639 H 331.823 -1.96636 6.48337 0
M  V30 3640 H 332.766 -0.555109 7.05921 0
M  V30 3641 H 333.174 -1.31151 5.49053 0
M  V30 3642 N 332.573 -1.56217 0.208337 0
M  V30 3643 C 333.821 -1.97558 -0.426076 0
M  V30 3644 C 334.142 -1.09683 -1.61229 0
M  V30 3645 O 333.412 -0.170956 -1.95153 0
M  V30 3646 H 331.992 -0.729575 -0.160405 0
M  V30 3647 H 334.654 -1.92606 0.298155 0
M  V30 3648 H 333.75 -3.02672 -0.761312 0
M  V30 3649 N 334.051 0.0651679 -1.57465 0
M  V30 3650 C 335.281 0.774683 -1.91526 0
M  V30 3651 C 335.689 1.71305 -0.803196 0
M  V30 3652 O 335.032 1.82231 0.231881 0
M  V30 3653 C 335.094 1.61645 -3.21109 0
M  V30 3654 C 334.758 0.846753 -4.49087 0
M  V30 3655 C 335.755 0.163024 -5.19644 0
M  V30 3656 C 333.44 0.811966 -4.95694 0
M  V30 3657 C 335.434 -0.54519 -6.35064 0
M  V30 3658 C 333.121 0.0999836 -6.11018 0
M  V30 3659 C 334.119 -0.577388 -6.80555 0
M  V30 3660 O 333.807 -1.27789 -7.93678 0
M  V30 3661 H 333.539 0.225031 -0.637446 0
M  V30 3662 H 336.093 0.0377134 -2.05365 0
M  V30 3663 H 334.323 2.39638 -3.03497 0
M  V30 3664 H 336.012 2.20525 -3.40769 0
M  V30 3665 H 336.778 0.181163 -4.84662 0
M  V30 3666 H 332.657 1.32867 -4.41438 0
M  V30 3667 H 336.201 -1.07446 -6.89276 0
M  V30 3668 H 332.098 0.0797945 -6.45451 0
M  V30 3669 H 332.866 -1.18784 -8.09835 0
M  V30 3670 N 335.529 1.53961 0.336706 0
M  V30 3671 C 336.757 1.75483 1.09605 0
M  V30 3672 C 337.172 0.4972 1.82136 0
M  V30 3673 O 336.529 -0.53149 1.74589 0
M  V30 3674 C 336.58 2.93943 2.10428 0
M  V30 3675 O 336.301 4.14842 1.40846 0
M  V30 3676 C 337.802 3.27571 2.98684 0
M  V30 3677 H 335.022 0.586166 0.326574 0
M  V30 3678 H 337.566 2.00808 0.38683 0
M  V30 3679 H 335.721 2.70929 2.76905 0
M  V30 3680 H 336.135 4.81383 2.08255 0
M  V30 3681 H 337.609 4.13791 3.6535 0
M  V30 3682 H 338.086 2.44168 3.65074 0
M  V30 3683 H 338.692 3.52615 2.37787 0
M  V30 3684 N 337.007 -0.598083 1.45811 0
M  V30 3685 C 338.253 -1.35882 1.50545 0
M  V30 3686 C 338.586 -1.93616 0.150445 0
M  V30 3687 O 337.861 -1.75604 -0.83628 0
M  V30 3688 C 338.144 -2.49966 2.59208 0
M  V30 3689 C 337.997 -1.97367 4.04186 0
M  V30 3690 C 339.316 -3.52068 2.64076 0
M  V30 3691 H 336.435 -0.492717 0.548087 0
M  V30 3692 H 339.077 -0.673319 1.77669 0
M  V30 3693 H 337.227 -3.08443 2.3621 0
M  V30 3694 H 338.899 -1.43466 4.38423 0
M  V30 3695 H 337.142 -1.283 4.14393 0
M  V30 3696 H 337.813 -2.79649 4.75921 0
M  V30 3697 H 340.289 -3.03448 2.84708 0
M  V30 3698 H 339.165 -4.2937 3.41954 0
M  V30 3699 H 339.426 -4.08304 1.69531 0
M  V30 3700 N 338.485 -1.33259 -0.841409 0
M  V30 3701 C 339.896 -1.22066 -1.41269 0
M  V30 3702 C 340.247 0.161479 -1.95534 0
M  V30 3703 O 339.372 1.06094 -1.88608 0
M  V30 3704 C 339.967 -2.20996 -2.568 0
M  V30 3705 C 338.526 -2.13649 -3.09888 0
M  V30 3706 C 337.673 -2.08623 -1.82679 0
M  V30 3707 H 340.624 -1.44895 -0.647395 0
M  V30 3708 H 340.645 -1.81621 -3.34356 0
M  V30 3709 H 340.157 -3.2158 -2.17274 0
M  V30 3710 H 338.258 -1.16359 -3.53965 0
M  V30 3711 H 338.371 -3.04079 -3.70234 0
M  V30 3712 H 336.735 -1.54061 -2.02824 0
M  V30 3713 H 337.518 -3.1101 -1.45353 0
M  V30 3714 N 339.963 1.05934 -1.16686 0
M  V30 3715 C 340.91 2.13499 -0.876748 0
M  V30 3716 C 341.88 1.65162 0.176299 0
M  V30 3717 O 343.065 1.90757 0.0407143 0
M  V30 3718 C 340.205 3.42912 -0.387967 0
M  V30 3719 C 339.318 4.04964 -1.50426 0
M  V30 3720 C 338.453 5.22266 -0.970125 0
M  V30 3721 C 337.492 5.76309 -2.06238 0
M  V30 3722 N 336.629 6.84922 -1.54356 0
M  V30 3723 H 341.469 2.37654 -1.7979 0
M  V30 3724 H 339.006 1.16598 -0.896843 0
M  V30 3725 H 340.964 4.17111 -0.086186 0
M  V30 3726 H 339.594 3.18963 0.496235 0
M  V30 3727 H 338.646 3.28277 -1.92193 0
M  V30 3728 H 339.958 4.41122 -2.32836 0
M  V30 3729 H 339.112 6.03506 -0.621743 0
M  V30 3730 H 337.851 4.87564 -0.115377 0
M  V30 3731 H 336.856 4.93704 -2.41942 0
M  V30 3732 H 338.081 6.13062 -2.92115 0
M  V30 3733 H 336.027 6.52131 -0.711406 0
M  V30 3734 H 335.944 7.20043 -2.30379 0
M  V30 3735 H 337.212 7.69832 -1.22387 0
M  V30 3736 N 341.441 0.965919 1.2453 0
M  V30 3737 C 342.671 0.643451 1.96324 0
M  V30 3738 C 343.079 -0.790927 1.71875 0
M  V30 3739 O 342.422 -1.54208 0.998273 0
M  V30 3740 C 342.484 0.836078 3.49643 0
M  V30 3741 C 342.148 2.24975 3.97788 0
M  V30 3742 C 343.145 3.22735 4.07601 0
M  V30 3743 C 340.83 2.57697 4.31158 0
M  V30 3744 C 342.824 4.51303 4.50116 0
M  V30 3745 C 340.511 3.86492 4.73357 0
M  V30 3746 C 341.509 4.83107 4.828 0
M  V30 3747 O 341.197 6.09605 5.24058 0
M  V30 3748 H 340.929 0.239223 0.632257 0
M  V30 3749 H 343.483 1.29587 1.59362 0
M  V30 3750 H 341.713 0.12649 3.86493 0
M  V30 3751 H 343.402 0.512965 4.02646 0
M  V30 3752 H 344.168 2.98783 3.82039 0
M  V30 3753 H 340.047 1.83216 4.23028 0
M  V30 3754 H 343.591 5.26716 4.57401 0
M  V30 3755 H 339.488 4.10245 4.98366 0
M  V30 3756 H 340.256 6.13146 5.42213 0
M  V30 3757 N 342.919 -1.39368 0.735821 0
M  V30 3758 C 344.335 -1.54204 0.411492 0
M  V30 3759 C 344.535 -1.70268 -1.07755 0
M  V30 3760 O 343.591 -1.70364 -1.86366 0
M  V30 3761 C 344.904 -2.75925 1.19523 0
M  V30 3762 C 346.452 -2.89761 1.18354 0
M  V30 3763 C 346.927 -4.14421 1.94986 0
M  V30 3764 N 348.418 -4.21462 1.92156 0
M  V30 3765 C 349.153 -5.16871 2.48258 0
M  V30 3766 N 348.649 -6.18063 3.13001 0
M  V30 3767 N 350.442 -5.09093 2.38287 0
M  V30 3768 H 342.593 -1.27189 1.70108 0
M  V30 3769 H 344.856 -0.616517 0.720147 0
M  V30 3770 H 344.562 -2.70401 2.24892 0
M  V30 3771 H 344.436 -3.68614 0.800222 0
M  V30 3772 H 346.823 -2.94777 0.137975 0
M  V30 3773 H 346.904 -1.98133 1.61793 0
M  V30 3774 H 346.548 -4.10166 2.99543 0
M  V30 3775 H 346.478 -5.05095 1.48953 0
M  V30 3776 H 348.969 -3.48979 1.44991 0
M  V30 3777 H 349.282 -6.87326 3.53275 0
M  V30 3778 H 347.627 -6.18448 3.17091 0
M  V30 3779 H 350.818 -4.28973 1.8735 0
M  V30 3780 H 350.991 -5.83272 2.82308 0
M  V30 3781 N 344.397 -0.483516 -1.5 0
M  V30 3782 C 345.347 0.32306 -2.257 0
M  V30 3783 C 346.331 0.950755 -1.29805 0
M  V30 3784 O 347.523 0.861247 -1.54634 0
M  V30 3785 C 344.652 1.39724 -3.13579 0
M  V30 3786 C 343.738 0.776663 -4.16928 0
M  V30 3787 N 344.129 -0.1104 -5.0568 0
M  V30 3788 C 342.427 1.03922 -4.33724 0
M  V30 3789 C 343.128 -0.46387 -5.79848 0
M  V30 3790 N 342.104 0.163987 -5.43353 0
M  V30 3791 H 345.906 -0.360086 -2.91686 0
M  V30 3792 H 343.42 -0.298456 -1.59634 0
M  V30 3793 H 345.417 1.98837 -3.66428 0
M  V30 3794 H 344.077 2.08225 -2.49143 0
M  V30 3795 H 345.088 -0.480069 -5.1567 0
M  V30 3796 H 341.765 1.71829 -3.80501 0
M  V30 3797 H 343.155 -1.18854 -6.61304 0
M  V30 3798 N 345.875 1.56104 -0.216619 0
M  V30 3799 C 346.807 2.17339 0.72776 0
M  V30 3800 C 347.82 1.14109 1.16116 0
M  V30 3801 O 349.009 1.4111 1.09317 0
M  V30 3802 C 346.109 2.73818 1.99693 0
M  V30 3803 C 345.282 4.02168 1.71988 0
M  V30 3804 C 344.341 4.43259 2.83562 0
M  V30 3805 O 343.367 5.10257 2.52244 0
M  V30 3806 N 344.569 4.08535 4.12407 0
M  V30 3807 H 347.334 2.99005 0.203983 0
M  V30 3808 H 344.895 1.61861 -0.0354289 0
M  V30 3809 H 346.887 2.9828 2.73516 0
M  V30 3810 H 345.457 1.96483 2.43132 0
M  V30 3811 H 344.677 3.85612 0.818337 0
M  V30 3812 H 345.965 4.85907 1.50903 0
M  V30 3813 H 345.363 3.54687 4.40696 0
M  V30 3814 H 343.92 4.37901 4.8279 0
M  V30 3815 N 347.353 -0.0568162 1.57498 0
M  V30 3816 C 348.601 -0.751617 1.87604 0
M  V30 3817 C 348.922 -1.77351 0.81066 0
M  V30 3818 O 348.192 -1.95254 -0.159018 0
M  V30 3819 H 346.772 -0.280583 0.692302 0
M  V30 3820 H 349.434 -0.0293483 1.94878 0
M  V30 3821 H 348.53 -1.25852 2.856 0
M  V30 3822 N 348.832 -1.54138 -0.328536 0
M  V30 3823 C 349.78 -1.83894 -1.42428 0
M  V30 3824 C 350.774 -0.710478 -1.53781 0
M  V30 3825 O 351.98 -0.894062 -1.56226 0
M  V30 3826 H 348.355 -0.582837 -0.475189 0
M  V30 3827 H 350.326 -2.75537 -1.14552 0
M  V30 3828 C 349.075 -2.07866 -2.78724 0
M  V30 3829 H 348.398 -2.94158 -2.7076 0
M  V30 3830 H 349.838 -2.32644 -3.54476 0
M  V30 3831 C 348.297 -0.868689 -3.25508 0
M  V30 3832 O 348.827 -0.0754908 -4.01629 0
M  V30 3833 N 347.033 -0.681711 -2.82491 0
M  V30 3834 H 346.58 -1.32838 -2.20708 0
M  V30 3835 H 346.538 0.126374 -3.14146 0
M  V30 3836 N 350.31 0.590341 -1.46126 0
M  V30 3837 C 351.243 1.71434 -1.50617 0
M  V30 3838 C 352.221 1.58543 -0.360948 0
M  V30 3839 O 353.405 1.79865 -0.563985 0
M  V30 3840 C 350.532 3.09422 -1.37753 0
M  V30 3841 C 349.578 3.40854 -2.5636 0
M  V30 3842 S 350.411 3.33773 -4.18755 0
M  V30 3843 C 351.567 4.74312 -4.08386 0
M  V30 3844 H 351.8 1.67364 -2.45717 0
M  V30 3845 H 349.333 0.76845 -1.33919 0
M  V30 3846 H 351.291 3.8903 -1.31018 0
M  V30 3847 H 349.952 3.10989 -0.440949 0
M  V30 3848 H 349.145 4.41368 -2.43332 0
M  V30 3849 H 348.747 2.68798 -2.60046 0
M  V30 3850 H 351.039 5.64522 -3.74595 0
M  V30 3851 H 351.982 4.92397 -5.08872 0
M  V30 3852 H 352.39 4.50803 -3.3976 0
M  V30 3853 N 351.788 1.33704 0.83433 0
M  V30 3854 C 352.718 1.26967 1.95963 0
M  V30 3855 C 353.699 0.149337 1.69443 0
M  V30 3856 O 354.884 0.339852 1.91203 0
M  V30 3857 C 352.014 1.01275 3.32206 0
M  V30 3858 C 350.968 2.09652 3.73136 0
M  V30 3859 C 350.294 1.69166 5.07235 0
M  V30 3860 C 351.594 3.51372 3.86439 0
M  V30 3861 H 353.288 2.2112 2.01857 0
M  V30 3862 H 350.834 1.06447 0.969793 0
M  V30 3863 H 352.787 0.952106 4.10503 0
M  V30 3864 H 351.511 0.0356203 3.26581 0
M  V30 3865 H 350.17 2.14766 2.97104 0
M  V30 3866 H 349.818 0.701437 4.98085 0
M  V30 3867 H 349.518 2.41694 5.35591 0
M  V30 3868 H 351.042 1.64576 5.88003 0
M  V30 3869 H 352.456 3.48734 4.55036 0
M  V30 3870 H 350.853 4.22425 4.26236 0
M  V30 3871 H 351.923 3.89546 2.88759 0
M  V30 3872 N 353.266 -1.05314 1.17247 0
M  V30 3873 C 354.198 -2.13023 0.845812 0
M  V30 3874 C 355.211 -1.62096 -0.151246 0
M  V30 3875 O 356.4 -1.78343 0.0748818 0
M  V30 3876 C 353.5 -3.38047 0.240292 0
M  V30 3877 C 352.673 -4.18255 1.27991 0
M  V30 3878 C 351.732 -5.21625 0.692375 0
M  V30 3879 O 350.758 -5.52619 1.36385 0
M  V30 3880 N 351.96 -5.78201 -0.516178 0
M  V30 3881 H 354.725 -2.41642 1.77283 0
M  V30 3882 H 352.286 -1.21401 1.07115 0
M  V30 3883 H 354.278 -4.04359 -0.16603 0
M  V30 3884 H 352.848 -3.06972 -0.590487 0
M  V30 3885 H 352.068 -3.47451 1.86203 0
M  V30 3886 H 353.356 -4.68643 1.98119 0
M  V30 3887 H 352.754 -5.55301 -1.07969 0
M  V30 3888 H 351.311 -6.4604 -0.86458 0
M  V30 3889 N 354.744 -0.972509 -1.24016 0
M  V30 3890 C 355.993 -0.632603 -1.91523 0
M  V30 3891 C 356.306 0.836641 -1.76804 0
M  V30 3892 O 357.512 1.28728 -2.39043 0
M  V30 3893 C 355.968 -1.08082 -3.43287 0
M  V30 3894 C 355.576 -2.57386 -3.66683 0
M  V30 3895 C 357.32 -0.814288 -4.16617 0
M  V30 3896 C 355.227 -2.95915 -5.12043 0
M  V30 3897 H 354.157 -0.232898 -0.717129 0
M  V30 3898 H 356.808 -1.17936 -1.40582 0
M  V30 3899 H 355.19 -0.462339 -3.93292 0
M  V30 3900 H 356.364 -3.24405 -3.27258 0
M  V30 3901 H 354.679 -2.81701 -3.06649 0
M  V30 3902 H 357.276 -1.0781 -5.23718 0
M  V30 3903 H 357.619 0.24955 -4.15551 0
M  V30 3904 H 358.152 -1.39397 -3.72577 0
M  V30 3905 H 354.891 -4.0139 -5.18234 0
M  V30 3906 H 354.411 -2.33584 -5.52448 0
M  V30 3907 H 356.09 -2.86086 -5.80314 0
M  V30 3908 N 356.222 1.38976 -0.743202 0
M  V30 3909 C 357.47 1.99948 -0.29417 0
M  V30 3910 C 357.791 1.59279 1.12495 0
M  V30 3911 O 357.061 0.844808 1.76748 0
M  V30 3912 H 355.641 0.739473 -0.105774 0
M  V30 3913 H 358.303 1.699 -0.954986 0
M  V30 3914 H 357.399 3.10142 -0.349056 0
M  V30 3915 N 357.7 0.491464 1.49741 0
M  V30 3916 C 358.93 -0.0534375 2.06531 0
M  V30 3917 C 359.338 -1.32233 1.35318 0
M  V30 3918 O 358.681 -1.78781 0.422243 0
M  V30 3919 C 358.743 -0.387034 3.57411 0
M  V30 3920 C 358.407 0.782764 4.50246 0
M  V30 3921 C 359.404 1.67059 4.92329 0
M  V30 3922 C 357.089 0.978866 4.9267 0
M  V30 3923 C 359.083 2.73874 5.75562 0
M  V30 3924 C 356.77 2.05022 5.75682 0
M  V30 3925 C 357.768 2.92851 6.17031 0
M  V30 3926 O 357.456 3.98138 6.98385 0
M  V30 3927 H 357.188 0.0129324 0.675876 0
M  V30 3928 H 359.742 0.685238 1.93633 0
M  V30 3929 H 357.972 -1.17918 3.68283 0
M  V30 3930 H 359.661 -0.869419 3.96479 0
M  V30 3931 H 360.427 1.53086 4.60206 0
M  V30 3932 H 356.306 0.304646 4.59992 0
M  V30 3933 H 359.85 3.42458 6.07757 0
M  V30 3934 H 355.747 2.18993 6.07217 0
M  V30 3935 H 356.515 3.95374 7.16674 0
M  V30 3936 N 359.178 -1.55987 0.224894 0
M  V30 3937 C 360.128 -2.17076 -0.697296 0
M  V30 3938 C 361.112 -1.12006 -1.15514 0
M  V30 3939 O 362.304 -1.37985 -1.10857 0
M  V30 3940 C 359.433 -2.85679 -1.90374 0
M  V30 3941 C 358.519 -3.97977 -1.46543 0
M  V30 3942 N 358.91 -5.00359 -0.739909 0
M  V30 3943 C 357.208 -4.10128 -1.75245 0
M  V30 3944 C 357.909 -5.79407 -0.515939 0
M  V30 3945 N 356.885 -5.32892 -1.07364 0
M  V30 3946 H 360.687 -2.93592 -0.134594 0
M  V30 3947 H 358.201 -1.62379 0.0262885 0
M  V30 3948 H 360.198 -3.27857 -2.57518 0
M  V30 3949 H 358.858 -2.1066 -2.47088 0
M  V30 3950 H 359.869 -5.16412 -0.392253 0
M  V30 3951 H 356.546 -3.46263 -2.33255 0
M  V30 3952 H 357.936 -6.71872 0.0617349 0
M  V30 3953 N 360.656 0.0484629 -1.57525 0
M  V30 3954 C 361.586 1.0549 -2.08313 0
M  V30 3955 C 362.567 1.38929 -0.981463 0
M  V30 3956 O 363.752 1.48151 -1.25558 0
M  V30 3957 C 360.882 2.36162 -2.54646 0
M  V30 3958 C 359.836 2.17016 -3.68901 0
M  V30 3959 C 359.162 3.53278 -4.01371 0
M  V30 3960 C 360.462 1.57219 -4.98076 0
M  V30 3961 H 362.156 0.632195 -2.92649 0
M  V30 3962 H 359.702 0.302654 -1.40784 0
M  V30 3963 H 361.655 3.06882 -2.88793 0
M  V30 3964 H 360.379 2.80456 -1.67368 0
M  V30 3965 H 359.038 1.48733 -3.35073 0
M  V30 3966 H 358.686 3.95185 -3.11188 0
M  V30 3967 H 358.386 3.41299 -4.78318 0
M  V30 3968 H 359.91 4.25391 -4.38035 0
M  V30 3969 H 361.324 2.17832 -5.30304 0
M  V30 3970 H 359.721 1.55871 -5.79503 0
M  V30 3971 H 360.791 0.535956 -4.81929 0
M  V30 3972 N 362.134 1.5431 0.320358 0
M  V30 3973 C 363.044 1.86946 1.41734 0
M  V30 3974 C 364.06 0.761689 1.56443 0
M  V30 3975 O 365.236 1.05629 1.71477 0
M  V30 3976 C 362.301 2.09293 2.76401 0
M  V30 3977 C 361.362 3.33082 2.70841 0
M  V30 3978 C 360.595 3.54353 3.99086 0
M  V30 3979 O 360.818 2.79002 4.97508 0
M  V30 3980 O 359.752 4.47838 4.0215 0
M  V30 3981 H 363.578 2.80232 1.17062 0
M  V30 3982 H 361.163 1.40255 0.514673 0
M  V30 3983 H 363.045 2.25303 3.56113 0
M  V30 3984 H 361.72 1.19194 3.00956 0
M  V30 3985 H 360.627 3.22454 1.89668 0
M  V30 3986 H 361.96 4.23249 2.5124 0
M  V30 3987 N 363.613 -0.582584 1.46437 0
M  V30 3988 C 364.56 -1.69164 1.5701 0
M  V30 3989 C 365.53 -1.60847 0.414403 0
M  V30 3990 O 366.715 -1.80058 0.631171 0
M  V30 3991 C 363.855 -3.075 1.56646 0
M  V30 3992 C 362.968 -3.2644 2.82951 0
M  V30 3993 C 362.103 -4.55026 2.7409 0
M  V30 3994 C 361.142 -4.6731 3.95333 0
M  V30 3995 N 360.279 -5.87221 3.84858 0
M  V30 3996 H 365.119 -1.59464 2.51744 0
M  V30 3997 H 362.656 -0.777186 1.24893 0
M  V30 3998 H 364.614 -3.8757 1.5442 0
M  V30 3999 H 363.244 -3.16096 0.654439 0
M  V30 4000 H 362.296 -2.39974 2.95155 0
M  V30 4001 H 363.608 -3.31385 3.72808 0
M  V30 4002 H 362.762 -5.43324 2.6997 0
M  V30 4003 H 361.501 -4.52519 1.81873 0
M  V30 4004 H 360.506 -3.77429 3.99784 0
M  V30 4005 H 361.731 -4.71595 4.88646 0
M  V30 4006 H 359.677 -5.85712 2.95427 0
M  V30 4007 H 359.594 -5.93435 4.6837 0
M  V30 4008 H 360.862 -6.7795 3.84713 0
M  V30 4009 N 365.091 -1.34144 -0.827227 0
M  V30 4010 C 366.321 -1.29138 -1.61267 0
M  V30 4011 C 366.729 0.137597 -1.88699 0
M  V30 4012 O 366.072 1.09379 -1.47587 0
M  V30 4013 C 366.134 -2.0097 -2.9808 0
M  V30 4014 C 365.798 -3.50242 -2.93563 0
M  V30 4015 C 366.795 -4.4523 -2.68452 0
M  V30 4016 C 364.48 -3.92592 -3.13331 0
M  V30 4017 C 366.474 -5.80542 -2.63154 0
M  V30 4018 C 364.161 -5.28005 -3.07658 0
M  V30 4019 C 365.159 -6.21792 -2.82602 0
M  V30 4020 O 364.847 -7.54723 -2.76853 0
M  V30 4021 H 364.579 -0.445851 -0.508127 0
M  V30 4022 H 367.133 -1.77263 -1.03763 0
M  V30 4023 H 365.363 -1.47451 -3.57484 0
M  V30 4024 H 367.052 -1.89309 -3.5905 0
M  V30 4025 H 367.818 -4.13832 -2.52919 0
M  V30 4026 H 363.697 -3.19994 -3.31851 0
M  V30 4027 H 367.241 -6.53717 -2.43516 0
M  V30 4028 H 363.138 -5.59023 -3.22743 0
M  V30 4029 H 363.906 -7.64409 -2.92611 0
M  V30 4030 N 366.569 1.04691 -1.17803 0
M  V30 4031 C 367.499 2.14494 -0.92275 0
M  V30 4032 C 368.48 1.69546 0.137179 0
M  V30 4033 O 369.665 1.94195 -0.0141108 0
M  V30 4034 C 366.795 3.44491 -0.440803 0
M  V30 4035 C 365.749 4.03031 -1.4405 0
M  V30 4036 C 365.075 5.28432 -0.81631 0
M  V30 4037 C 366.375 4.39932 -2.81527 0
M  V30 4038 H 368.069 2.36107 -1.84103 0
M  V30 4039 H 365.615 1.1347 -0.886599 0
M  V30 4040 H 367.568 4.2066 -0.249602 0
M  V30 4041 H 366.292 3.22546 0.513025 0
M  V30 4042 H 364.951 3.28937 -1.61853 0
M  V30 4043 H 364.599 5.02792 0.144511 0
M  V30 4044 H 364.299 5.68559 -1.48371 0
M  V30 4045 H 365.823 6.07284 -0.635496 0
M  V30 4046 H 367.237 5.07113 -2.67412 0
M  V30 4047 H 365.634 4.9109 -3.44892 0
M  V30 4048 H 366.704 3.50045 -3.35554 0
M  V30 4049 N 368.047 0.979072 1.23499 0
M  V30 4050 C 369.272 0.664845 1.96455 0
M  V30 4051 C 369.697 -0.761287 1.72006 0
M  V30 4052 O 369.055 -1.51837 0.990713 0
M  V30 4053 C 369.103 0.959479 3.47601 0
M  V30 4054 O 368.207 0.0508168 4.12369 0
M  V30 4055 H 367.548 0.250185 0.615064 0
M  V30 4056 H 370.078 1.31231 1.5697 0
M  V30 4057 H 370.088 0.895642 3.98048 0
M  V30 4058 H 368.763 1.99876 3.64723 0
M  V30 4059 H 367.34 0.16895 3.72517 0
M  V30 4060 N 369.525 -1.3858 0.750561 0
M  V30 4061 C 370.457 -2.29057 0.0810714 0
M  V30 4062 C 371.47 -1.47596 -0.686973 0
M  V30 4063 O 372.659 -1.70495 -0.528563 0
M  V30 4064 C 369.759 -3.26475 -0.909247 0
M  V30 4065 C 368.932 -4.36945 -0.199478 0
M  V30 4066 C 367.991 -5.14572 -1.10011 0
M  V30 4067 O 367.017 -5.66321 -0.57177 0
M  V30 4068 N 368.219 -5.27262 -2.42849 0
M  V30 4069 H 370.984 -2.87153 0.858087 0
M  V30 4070 H 368.545 -1.50328 0.60109 0
M  V30 4071 H 370.537 -3.75285 -1.51471 0
M  V30 4072 H 369.107 -2.69298 -1.58736 0
M  V30 4073 H 368.327 -3.8981 0.586664 0
M  V30 4074 H 369.615 -5.07963 0.291783 0
M  V30 4075 H 369.013 -4.86763 -2.88233 0
M  V30 4076 H 367.57 -5.79456 -2.98453 0
M  V30 4077 N 371.003 -0.499398 -1.49478 0
M  V30 4078 C 371.95 0.279881 -2.29097 0
M  V30 4079 C 372.92 0.961805 -1.3542 0
M  V30 4080 O 374.105 0.968777 -1.64376 0
M  V30 4081 C 371.245 1.33932 -3.18051 0
M  V30 4082 C 370.358 0.669333 -4.26783 0
M  V30 4083 C 369.493 1.70907 -5.02955 0
M  V30 4084 C 368.532 1.02087 -6.03527 0
M  V30 4085 N 367.669 2.00474 -6.7287 0
M  V30 4086 H 372.509 -0.405317 -2.95231 0
M  V30 4087 H 370.046 -0.211726 -1.45568 0
M  V30 4088 H 372.004 1.96553 -3.67998 0
M  V30 4089 H 370.634 1.9933 -2.53904 0
M  V30 4090 H 369.686 -0.0701234 -3.80335 0
M  V30 4091 H 370.998 0.127503 -4.98637 0
M  V30 4092 H 370.152 2.41037 -5.56764 0
M  V30 4093 H 368.891 2.28476 -4.30871 0
M  V30 4094 H 367.896 0.305338 -5.48951 0
M  V30 4095 H 369.121 0.451708 -6.77596 0
M  V30 4096 H 367.067 2.57007 -6.03559 0
M  V30 4097 H 366.984 1.51353 -7.40694 0
M  V30 4098 H 368.252 2.69897 -7.31284 0
M  V30 4099 N 372.481 1.55866 -0.233164 0
M  V30 4100 C 373.391 2.24431 0.683217 0
M  V30 4101 C 374.407 1.2558 1.2044 0
M  V30 4102 O 375.583 1.58422 1.24356 0
M  V30 4103 C 372.648 2.91979 1.86947 0
M  V30 4104 C 371.709 4.06204 1.38912 0
M  V30 4105 C 370.942 4.70522 2.51883 0
M  V30 4106 O 371.165 4.33865 3.70293 0
M  V30 4107 O 370.099 5.59296 2.22423 0
M  V30 4108 H 373.925 3.03426 0.129059 0
M  V30 4109 H 371.51 1.494 -0.0022283 0
M  V30 4110 H 373.392 3.34573 2.56201 0
M  V30 4111 H 372.067 2.15935 2.41151 0
M  V30 4112 H 370.974 3.68155 0.664259 0
M  V30 4113 H 372.307 4.84025 0.893328 0
M  V30 4114 N 373.959 -0.0401083 1.57549 0
M  V30 4115 C 375.208 -0.732108 1.87944 0
M  V30 4116 C 375.521 -1.77107 0.830206 0
M  V30 4117 O 376.727 -2.51488 1.02302 0
M  V30 4118 C 375.183 -1.35315 3.33494 0
M  V30 4119 C 374.791 -0.351105 4.46622 0
M  V30 4120 C 376.535 -2.02566 3.73051 0
M  V30 4121 C 374.442 -0.979859 5.83226 0
M  V30 4122 H 373.372 -0.277188 0.701201 0
M  V30 4123 H 376.023 0.0138501 1.83495 0
M  V30 4124 H 374.405 -2.14844 3.32653 0
M  V30 4125 H 375.579 0.416674 4.58912 0
M  V30 4126 H 373.894 0.218708 4.15825 0
M  V30 4127 H 376.491 -2.50441 4.72423 0
M  V30 4128 H 376.834 -2.83904 3.04474 0
M  V30 4129 H 377.367 -1.29827 3.76018 0
M  V30 4130 H 374.106 -0.206135 6.55176 0
M  V30 4131 H 373.626 -1.71774 5.74677 0
M  V30 4132 H 375.305 -1.49046 6.29599 0
M  V30 4133 N 375.437 -1.54477 -0.31217 0
M  V30 4134 C 376.848 -1.64344 -0.885891 0
M  V30 4135 C 377.199 -0.54485 -1.88483 0
M  V30 4136 O 376.324 0.320387 -2.14015 0
M  V30 4137 C 376.919 -2.97908 -1.61357 0
M  V30 4138 C 375.478 -3.09933 -2.13585 0
M  V30 4139 C 374.625 -2.59971 -0.964897 0
M  V30 4140 H 377.576 -1.58448 -0.0894528 0
M  V30 4141 H 377.597 -2.88706 -2.47848 0
M  V30 4142 H 377.109 -3.77845 -0.886277 0
M  V30 4143 H 375.21 -2.34694 -2.89395 0
M  V30 4144 H 375.323 -4.15916 -2.37804 0
M  V30 4145 H 373.687 -2.16147 -1.34731 0
M  V30 4146 H 374.47 -3.42376 -0.251742 0
M  V30 4147 N 376.915 0.57481 -1.46744 0
M  V30 4148 C 378.162 1.33272 -1.52462 0
M  V30 4149 C 378.49 1.93669 -0.179572 0
M  V30 4150 O 377.745 1.7743 0.825664 0
M  V30 4151 C 378.044 2.476 -2.57738 0
M  V30 4152 C 377.71 2.05146 -4.01529 0
M  V30 4153 C 376.372 1.93284 -4.40676 0
M  V30 4154 C 378.724 1.72506 -4.91824 0
M  V30 4155 C 376.052 1.47049 -5.67973 0
M  V30 4156 C 378.404 1.27748 -6.19567 0
M  V30 4157 C 377.068 1.14468 -6.57612 0
M  V30 4158 H 376.338 0.487678 -0.557899 0
M  V30 4159 H 378.985 0.646456 -1.80259 0
M  V30 4160 H 377.29 3.21708 -2.23632 0
M  V30 4161 H 378.987 3.05807 -2.5939 0
M  V30 4162 H 375.577 2.15316 -3.7059 0
M  V30 4163 H 379.761 1.80552 -4.62293 0
M  V30 4164 H 375.017 1.35417 -5.96215 0
M  V30 4165 H 379.191 1.01547 -6.88957 0
M  V30 4166 H 376.818 0.78419 -7.56145 0
M  V30 4167 N 378.394 1.34581 0.820102 0
M  V30 4168 C 379.624 1.29991 1.6058 0
M  V30 4169 C 380.032 -0.127588 1.88769 0
M  V30 4170 O 379.375 -1.08595 1.48165 0
M  V30 4171 C 379.437 2.02548 2.9701 0
M  V30 4172 C 379.101 3.51794 2.91701 0
M  V30 4173 C 380.098 4.46647 2.66087 0
M  V30 4174 C 377.783 3.94249 3.11245 0
M  V30 4175 C 379.777 5.81929 2.60071 0
M  V30 4176 C 377.464 5.2963 3.04853 0
M  V30 4177 C 378.462 6.23282 2.793 0
M  V30 4178 O 378.15 7.56181 2.72847 0
M  V30 4179 H 377.882 0.448539 0.505756 0
M  V30 4180 H 380.436 1.77811 1.02822 0
M  V30 4181 H 378.666 1.49345 3.56697 0
M  V30 4182 H 380.355 1.91211 3.58041 0
M  V30 4183 H 381.121 4.15168 2.5072 0
M  V30 4184 H 377 3.21749 3.30149 0
M  V30 4185 H 380.544 6.54999 2.40046 0
M  V30 4186 H 376.441 5.60727 3.19774 0
M  V30 4187 H 377.209 7.6595 2.88553 0
M  V30 4188 N 379.872 -1.04064 1.18357 0
M  V30 4189 C 381.119 -1.77265 0.978947 0
M  V30 4190 C 381.447 -1.88189 -0.491428 0
M  V30 4191 O 380.702 -1.38653 -1.38108 0
M  V30 4192 C 381.001 -3.20634 1.57888 0
M  V30 4193 C 380.667 -3.29743 3.07539 0
M  V30 4194 C 379.329 -3.31937 3.48384 0
M  V30 4195 C 381.681 -3.29841 4.03552 0
M  V30 4196 C 379.009 -3.3187 4.83818 0
M  V30 4197 C 381.361 -3.31313 5.38901 0
M  V30 4198 C 380.025 -3.31799 5.79194 0
M  V30 4199 H 379.295 -0.648659 0.358222 0
M  V30 4200 H 381.942 -1.22225 1.47422 0
M  V30 4201 H 380.247 -3.78675 1.00561 0
M  V30 4202 H 381.944 -3.75917 1.39598 0
M  V30 4203 H 378.534 -3.28757 2.74986 0
M  V30 4204 H 382.718 -3.27337 3.73047 0
M  V30 4205 H 377.974 -3.30562 5.14333 0
M  V30 4206 H 382.148 -3.30338 6.13066 0
M  V30 4207 H 379.775 -3.315 6.84114 0
M  V30 4208 N 381.35 -0.985608 -1.22978 0
M  V30 4209 C 382.3 -0.50118 -2.22423 0
M  V30 4210 C 383.284 0.426649 -1.5514 0
M  V30 4211 O 384.476 0.254656 -1.75159 0
M  V30 4212 C 381.605 0.190003 -3.42774 0
M  V30 4213 C 380.691 -0.757703 -4.17276 0
M  V30 4214 N 381.082 -1.90251 -4.68656 0
M  V30 4215 C 379.38 -0.57209 -4.42316 0
M  V30 4216 C 380.081 -2.49676 -5.25392 0
M  V30 4217 N 379.057 -1.78013 -5.13627 0
M  V30 4218 H 382.859 -1.37441 -2.59783 0
M  V30 4219 H 380.373 -0.846941 -1.38567 0
M  V30 4220 H 382.37 0.55439 -4.13197 0
M  V30 4221 H 381.03 1.05946 -3.06929 0
M  V30 4222 H 382.041 -2.28354 -4.64839 0
M  V30 4223 H 378.718 0.251909 -4.16739 0
M  V30 4224 H 380.108 -3.46384 -5.75732 0
M  V30 4225 N 382.828 1.3818 -0.7579 0
M  V30 4226 C 384.074 2.00316 -0.316453 0
M  V30 4227 C 384.407 1.60026 1.10025 0
M  V30 4228 O 383.682 0.839835 1.75434 0
M  V30 4229 C 383.965 3.57349 -0.444245 0
M  V30 4230 C 383.818 4.07591 -1.90236 0
M  V30 4231 C 385.137 4.3981 0.1598 0
M  V30 4232 H 382.256 0.727741 -0.116459 0
M  V30 4233 H 384.898 1.6406 -0.958352 0
M  V30 4234 H 383.048 3.88365 0.102233 0
M  V30 4235 H 384.72 3.87199 -2.50748 0
M  V30 4236 H 382.963 3.60297 -2.41595 0
M  V30 4237 H 383.634 5.16677 -1.94291 0
M  V30 4238 H 386.11 4.14971 -0.306314 0
M  V30 4239 H 384.986 5.48885 0.0401675 0
M  V30 4240 H 385.247 4.24102 1.24859 0
M  V30 4241 N 384.306 0.507319 1.49211 0
M  V30 4242 C 385.269 -0.256763 2.27757 0
M  V30 4243 C 386.269 -0.888287 1.34038 0
M  V30 4244 O 387.459 -0.751841 1.5714 0
M  V30 4245 C 384.591 -1.36905 3.12202 0
M  V30 4246 H 385.784 0.432557 2.96764 0
M  V30 4247 H 383.337 0.262488 1.5408 0
M  V30 4248 H 384.072 -2.09233 2.47775 0
M  V30 4249 H 383.857 -0.921599 3.81115 0
M  V30 4250 H 385.347 -1.9071 3.7151 0
M  V30 4251 N 385.784 -1.5574 0.241426 0
M  V30 4252 C 387.061 -1.90704 -0.434881 0
M  V30 4253 C 387.441 -1.16145 -1.76277 0
M  V30 4254 O 386.789 -0.277152 -2.26813 0
M  V30 4255 C 386.999 -3.43657 -0.608343 0
M  V30 4256 C 388.347 -4.14806 -0.906725 0
M  V30 4257 O 389.371 -3.49366 -0.694408 0
M  V30 4258 O 388.23 -5.30548 -1.31075 0
M  V30 4259 H 385.324 -0.793592 -0.23268 0
M  V30 4260 H 387.87 -1.67288 0.285086 0
M  V30 4261 H 386.642 -3.89927 0.327505 0
M  V30 4262 H 386.265 -3.72918 -1.37906 0
M  V30 4263 N 387.262 0.0317525 -1.57568 0
M  V30 4264 C 388.21 1.05165 -2.07468 0
M  V30 4265 C 389.204 1.3761 -0.98792 0
M  V30 4266 O 390.41 1.36546 -1.17282 0
M  V30 4267 H 386.785 0.35666 -0.66204 0
M  V30 4268 H 388.756 0.604958 -2.92203 0
M  V30 4269 C 387.505 2.34488 -2.56731 0
M  V30 4270 H 386.828 2.10383 -3.39969 0
M  V30 4271 H 388.268 3.04203 -2.95358 0
M  V30 4272 C 386.727 3.03266 -1.46736 0
M  V30 4273 O 387.257 3.92988 -0.832069 0
M  V30 4274 N 385.463 2.6455 -1.20256 0
M  V30 4275 H 385.01 1.91674 -1.72102 0
M  V30 4276 H 384.968 3.10886 -0.468737 0
M  V30 4277 N 388.74 1.54641 0.303973 0
M  V30 4278 C 389.688 1.86137 1.39484 0
M  V30 4279 C 390.682 0.734854 1.52631 0
M  V30 4280 O 391.888 0.918803 1.54784 0
M  V30 4281 H 388.263 0.590324 0.465856 0
M  V30 4282 H 390.234 2.77324 1.10154 0
M  V30 4283 C 388.983 2.12274 2.75382 0
M  V30 4284 H 388.306 2.98429 2.66046 0
M  V30 4285 H 389.746 2.38254 3.5073 0
M  V30 4286 C 388.205 0.920365 3.24085 0
M  V30 4287 O 388.735 0.139377 4.01458 0
M  V30 4288 N 386.941 0.726566 2.81371 0
M  V30 4289 H 386.488 1.36332 2.18567 0
M  V30 4290 H 386.446 -0.0763799 3.14307 0
M  V30 4291 N 390.218 -0.567019 1.47046 0
M  V30 4292 C 391.128 -1.70247 1.6141 0
M  V30 4293 C 392.144 -1.66746 0.497157 0
M  V30 4294 O 393.32 -1.86371 0.763389 0
M  V30 4295 C 390.385 -3.06756 1.61561 0
M  V30 4296 C 389.446 -3.21399 2.84607 0
M  V30 4297 C 388.679 -4.51396 2.84741 0
M  V30 4298 O 388.902 -5.36255 1.94388 0
M  V30 4299 O 387.836 -4.69621 3.76483 0
M  V30 4300 H 391.662 -1.61073 2.57467 0
M  V30 4301 H 389.247 -0.735894 1.30019 0
M  V30 4302 H 391.129 -3.8801 1.64396 0
M  V30 4303 H 389.804 -3.16333 0.686684 0
M  V30 4304 H 388.711 -2.39579 2.8732 0
M  V30 4305 H 390.044 -3.16721 3.76761 0
M  V30 4306 N 391.696 -1.35014 -0.812953 0
M  V30 4307 C 392.643 -1.27412 -1.92444 0
M  V30 4308 C 393.613 -0.14733 -1.65445 0
M  V30 4309 O 394.798 -0.329974 -1.87925 0
M  V30 4310 C 391.938 -1.04558 -3.28879 0
M  V30 4311 C 391.051 -2.26101 -3.68106 0
M  V30 4312 C 390.186 -1.96449 -4.9354 0
M  V30 4313 C 389.225 -3.14081 -5.25376 0
M  V30 4314 N 388.362 -2.84246 -6.41988 0
M  V30 4315 H 393.202 -2.22463 -1.98278 0
M  V30 4316 H 390.739 -1.10593 -0.969933 0
M  V30 4317 H 392.697 -0.893413 -4.07522 0
M  V30 4318 H 391.327 -0.131719 -3.22531 0
M  V30 4319 H 390.379 -2.52204 -2.84775 0
M  V30 4320 H 391.691 -3.13959 -3.87597 0
M  V30 4321 H 390.845 -1.78026 -5.79993 0
M  V30 4322 H 389.584 -1.05867 -4.76071 0
M  V30 4323 H 388.589 -3.33089 -4.37415 0
M  V30 4324 H 389.814 -4.05455 -5.44778 0
M  V30 4325 H 387.76 -1.96252 -6.25956 0
M  V30 4326 H 387.677 -3.65637 -6.61699 0
M  V30 4327 H 388.945 -2.6935 -7.31485 0
M  V30 4328 N 393.175 1.03435 -1.18907 0
M  V30 4329 C 394.4 1.80919 -1.01406 0
M  V30 4330 C 394.825 1.83055 0.432721 0
M  V30 4331 O 394.183 1.25252 1.31079 0
M  V30 4332 C 394.231 3.24091 -1.58105 0
M  V30 4333 O 393.335 4.04434 -0.806669 0
M  V30 4334 H 392.676 0.558709 -0.358803 0
M  V30 4335 H 395.206 1.30223 -1.57807 0
M  V30 4336 H 395.216 3.74853 -1.61087 0
M  V30 4337 H 393.891 3.21851 -2.6341 0
M  V30 4338 H 392.468 3.63091 -0.849666 0
M  V30 4339 N 394.653 0.992116 1.22453 0
M  V30 4340 C 395.583 0.561677 2.26644 0
M  V30 4341 C 396.564 -0.411055 1.65059 0
M  V30 4342 O 397.749 -0.301861 1.9184 0
M  V30 4343 C 394.879 -0.125247 3.47074 0
M  V30 4344 C 393.833 0.765948 4.21091 0
M  V30 4345 C 393.159 -0.0538484 5.34673 0
M  V30 4346 C 394.459 2.06242 4.79856 0
M  V30 4347 H 396.153 1.43259 2.62902 0
M  V30 4348 H 393.699 0.690283 1.26377 0
M  V30 4349 H 395.652 -0.437764 4.1912 0
M  V30 4350 H 394.376 -1.03069 3.0991 0
M  V30 4351 H 393.035 1.0621 3.50878 0
M  V30 4352 H 392.683 -0.960188 4.9375 0
M  V30 4353 H 392.383 0.539415 5.85119 0
M  V30 4354 H 393.907 -0.360477 6.09535 0
M  V30 4355 H 395.321 1.8139 5.43848 0
M  V30 4356 H 393.718 2.60444 5.40638 0
M  V30 4357 H 394.788 2.74167 3.99951 0
M  V30 4358 N 396.131 -1.37776 0.765217 0
M  V30 4359 C 397.063 -2.28958 0.105361 0
M  V30 4360 C 398.076 -1.48316 -0.67128 0
M  V30 4361 O 399.265 -1.71046 -0.51045 0
M  V30 4362 C 396.365 -3.27421 -0.874569 0
M  V30 4363 C 395.538 -4.37132 -0.153123 0
M  V30 4364 C 394.597 -5.1571 -1.04547 0
M  V30 4365 O 393.623 -5.66896 -0.511672 0
M  V30 4366 N 394.825 -5.29808 -2.37243 0
M  V30 4367 H 397.59 -2.86227 0.888495 0
M  V30 4368 H 395.151 -1.49682 0.617 0
M  V30 4369 H 397.143 -3.7687 -1.47483 0
M  V30 4370 H 395.713 -2.70967 -1.55871 0
M  V30 4371 H 394.933 -3.89166 0.627975 0
M  V30 4372 H 396.221 -5.07625 0.345643 0
M  V30 4373 H 395.619 -4.89793 -2.83054 0
M  V30 4374 H 394.176 -5.82589 -2.9229 0
M  V30 4375 N 397.609 -0.515225 -1.4894 0
M  V30 4376 C 398.572 0.244681 -2.2789 0
M  V30 4377 C 399.572 0.881166 -1.34507 0
M  V30 4378 O 400.762 0.743497 -1.57537 0
M  V30 4379 C 397.894 1.35247 -3.12923 0
M  V30 4380 H 399.087 -0.448289 -2.96531 0
M  V30 4381 H 396.64 -0.270656 -1.53939 0
M  V30 4382 H 397.375 2.07916 -2.48881 0
M  V30 4383 H 397.16 0.901374 -3.81599 0
M  V30 4384 H 398.65 1.88737 -3.72516 0
M  V30 4385 N 399.087 1.5561 -0.249682 0
M  V30 4386 C 400.017 2.24477 0.642826 0
M  V30 4387 C 400.998 1.22601 1.17911 0
M  V30 4388 O 402.183 1.5126 1.21795 0
M  V30 4389 C 399.313 2.94638 1.83863 0
M  V30 4390 C 398.267 4.03227 1.435 0
M  V30 4391 C 397.593 4.60828 2.71186 0
M  V30 4392 C 398.893 5.18796 0.604002 0
M  V30 4393 H 400.587 2.99321 0.0685625 0
M  V30 4394 H 398.133 1.43965 0.0315363 0
M  V30 4395 H 400.086 3.41517 2.46868 0
M  V30 4396 H 398.81 2.17287 2.43832 0
M  V30 4397 H 397.469 3.57121 0.828275 0
M  V30 4398 H 397.117 3.80174 3.29358 0
M  V30 4399 H 396.817 5.34132 2.44901 0
M  V30 4400 H 398.341 5.10442 3.35084 0
M  V30 4401 H 399.755 5.61883 1.13842 0
M  V30 4402 H 398.152 5.98506 0.437097 0
M  V30 4403 H 399.222 4.83384 -0.383147 0
M  V30 4404 N 400.565 -0.0233959 1.57583 0
M  V30 4405 C 401.513 -1.04063 2.08023 0
M  V30 4406 C 402.507 -1.37084 0.995204 0
M  V30 4407 O 403.713 -1.35923 1.18004 0
M  V30 4408 H 400.088 -0.353144 0.663922 0
M  V30 4409 H 402.059 -0.589453 2.9252 0
M  V30 4410 C 400.808 -2.33123 2.57971 0
M  V30 4411 H 400.131 -2.08577 3.4108 0
M  V30 4412 H 401.571 -3.02632 2.96967 0
M  V30 4413 C 400.03 -3.02483 1.48342 0
M  V30 4414 O 400.56 -3.92541 0.852898 0
M  V30 4415 N 398.766 -2.63909 1.21658 0
M  V30 4416 H 398.313 -1.90758 1.73116 0
M  V30 4417 H 398.271 -3.10633 0.485218 0
M  V30 4418 N 402.043 -1.548 -0.295768 0
M  V30 4419 C 402.991 -1.86874 -1.38495 0
M  V30 4420 C 403.985 -0.742938 -1.52239 0
M  V30 4421 O 405.191 -0.926999 -1.54294 0
M  V30 4422 H 401.566 -0.592786 -0.462719 0
M  V30 4423 H 403.537 -2.77904 -1.08682 0
M  V30 4424 C 402.286 -2.13732 -2.74252 0
M  V30 4425 H 401.609 -2.99835 -2.64459 0
M  V30 4426 H 403.049 -2.4011 -3.49461 0
M  V30 4427 C 401.508 -0.937539 -3.23592 0
M  V30 4428 O 402.038 -0.160665 -4.01379 0
M  V30 4429 N 400.244 -0.741478 -2.80981 0
M  V30 4430 H 399.791 -1.37489 -2.1784 0
M  V30 4431 H 399.749 0.0597103 -3.14343 0
M  V30 4432 N 403.521 0.559213 -1.47345 0
M  V30 4433 C 404.451 1.67622 -1.62558 0
M  V30 4434 C 405.432 1.63331 -0.475087 0
M  V30 4435 O 406.617 1.80983 -0.704182 0
M  V30 4436 C 403.747 3.0626 -1.63774 0
M  V30 4437 C 402.701 3.25397 -2.7803 0
M  V30 4438 C 402.027 4.64801 -2.64318 0
M  V30 4439 C 403.327 3.10965 -4.19641 0
M  V30 4440 H 405.021 1.55146 -2.56067 0
M  V30 4441 H 402.567 0.744961 -1.23233 0
M  V30 4442 H 404.52 3.84247 -1.73008 0
M  V30 4443 H 403.244 3.1969 -0.66825 0
M  V30 4444 H 401.903 2.49817 -2.68304 0
M  V30 4445 H 401.551 4.75028 -1.65401 0
M  V30 4446 H 401.251 4.78555 -3.40968 0
M  V30 4447 H 402.775 5.44926 -2.75478 0
M  V30 4448 H 404.189 3.78772 -4.30354 0
M  V30 4449 H 402.586 3.36229 -4.97062 0
M  V30 4450 H 403.656 2.07736 -4.38148 0
M  V30 4451 N 404.999 1.35443 0.805782 0
M  V30 4452 C 406.247 1.28507 1.55982 0
M  V30 4453 C 406.568 -0.140046 1.94496 0
M  V30 4454 O 405.838 -1.07666 1.63661 0
M  V30 4455 H 404.418 0.472676 0.578434 0
M  V30 4456 H 407.08 1.69555 0.961098 0
M  V30 4457 H 406.176 1.90148 2.47488 0
M  V30 4458 N 406.477 -1.02803 1.19454 0
M  V30 4459 C 407.724 -1.76217 0.997693 0
M  V30 4460 C 408.052 -1.887 -0.47144 0
M  V30 4461 O 407.307 -1.4011 -1.3663 0
M  V30 4462 C 407.606 -3.18941 1.6128 0
M  V30 4463 C 407.272 -3.26463 3.11019 0
M  V30 4464 C 405.934 -3.28223 3.51885 0
M  V30 4465 C 408.286 -3.25542 4.07028 0
M  V30 4466 C 405.614 -3.26719 4.8731 0
M  V30 4467 C 407.966 -3.25579 5.42385 0
M  V30 4468 C 406.63 -3.25637 5.82681 0
M  V30 4469 H 405.9 -0.644823 0.365082 0
M  V30 4470 H 408.547 -1.20655 1.4871 0
M  V30 4471 H 406.852 -3.77587 1.04572 0
M  V30 4472 H 408.549 -3.74415 1.43577 0
M  V30 4473 H 405.139 -3.25822 2.78457 0
M  V30 4474 H 409.323 -3.23362 3.76498 0
M  V30 4475 H 404.579 -3.25089 5.1781 0
M  V30 4476 H 408.753 -3.23817 6.16535 0
M  V30 4477 H 406.38 -3.24226 6.87591 0
M  V30 4478 N 407.956 -0.998596 -1.21925 0
M  V30 4479 C 408.903 -0.553621 -2.24062 0
M  V30 4480 C 409.873 0.416999 -1.6078 0
M  V30 4481 O 411.058 0.320482 -1.88089 0
M  V30 4482 C 408.198 0.119959 -3.44891 0
M  V30 4483 C 407.311 -0.893077 -4.22668 0
M  V30 4484 C 406.446 -0.192424 -5.30851 0
M  V30 4485 C 405.485 -1.19344 -6.00353 0
M  V30 4486 N 404.622 -0.520707 -7.00166 0
M  V30 4487 H 409.462 -1.4293 -2.61486 0
M  V30 4488 H 406.999 -0.715838 -1.28507 0
M  V30 4489 H 408.957 0.527459 -4.13852 0
M  V30 4490 H 407.587 0.959389 -3.08214 0
M  V30 4491 H 406.639 -1.41886 -3.52948 0
M  V30 4492 H 407.951 -1.65512 -4.70539 0
M  V30 4493 H 407.105 0.271515 -6.06092 0
M  V30 4494 H 405.844 0.602075 -4.83969 0
M  V30 4495 H 404.849 -1.66795 -5.23889 0
M  V30 4496 H 406.074 -1.98891 -6.49322 0
M  V30 4497 H 404.02 0.254252 -6.55507 0
M  V30 4498 H 403.937 -1.2211 -7.46073 0
M  V30 4499 H 405.205 -0.0797596 -7.79459 0
M  V30 4500 N 409.434 1.37368 -0.772513 0
M  V30 4501 C 410.683 1.98918 -0.333861 0
M  V30 4502 C 410.996 1.62017 1.09589 0
M  V30 4503 O 412.202 2.16676 1.63596 0
M  V30 4504 C 410.658 3.55735 -0.545971 0
M  V30 4505 C 410.266 4.01573 -1.98603 0
M  V30 4506 C 412.01 4.24156 -0.170979 0
M  V30 4507 C 409.917 5.51102 -2.1457 0
M  V30 4508 H 408.847 0.744214 -0.121085 0
M  V30 4509 H 411.498 1.56888 -0.95175 0
M  V30 4510 H 409.88 3.95748 0.141387 0
M  V30 4511 H 411.054 3.72803 -2.7084 0
M  V30 4512 H 409.369 3.45937 -2.31769 0
M  V30 4513 H 411.966 5.34024 -0.26878 0
M  V30 4514 H 412.309 4.06917 0.878855 0
M  V30 4515 H 412.842 3.89447 -0.810914 0
M  V30 4516 H 409.581 5.73268 -3.17875 0
M  V30 4517 H 409.101 5.81554 -1.46817 0
M  V30 4518 H 410.78 6.17083 -1.94468 0
M  V30 4519 N 410.912 0.523116 1.48665 0
M  V30 4520 C 412.152 -0.0115588 2.04397 0
M  V30 4521 C 412.516 -1.32225 1.39214 0
M  V30 4522 O 413.717 -1.94253 1.85793 0
M  V30 4523 C 411.988 -0.138119 3.57133 0
M  V30 4524 S 413.547 -0.623849 4.34343 0
M  V30 4525 H 410.365 0.00877706 0.710946 0
M  V30 4526 H 412.967 0.702116 1.82457 0
M  V30 4527 H 411.671 0.820748 4.02109 0
M  V30 4528 H 411.202 -0.876377 3.83514 0
M  V30 4529 H 413.217 -1.8895 4.58816 0
M  V30 4530 N 412.39 -1.55475 0.257931 0
M  V30 4531 C 413.801 -1.8511 -0.243135 0
M  V30 4532 C 414.152 -1.17986 -1.5676 0
M  V30 4533 O 413.277 -0.462102 -2.11409 0
M  V30 4534 C 413.872 -3.35826 -0.447929 0
M  V30 4535 C 412.431 -3.65647 -0.893245 0
M  V30 4536 C 411.578 -2.7729 0.0232965 0
M  V30 4537 H 414.529 -1.51261 0.480199 0
M  V30 4538 H 414.55 -3.58002 -1.28898 0
M  V30 4539 H 414.062 -3.84652 0.516196 0
M  V30 4540 H 412.163 -3.22308 -1.86945 0
M  V30 4541 H 412.276 -4.73312 -0.742469 0
M  V30 4542 H 410.64 -2.49942 -0.490021 0
M  V30 4543 H 411.423 -3.28926 0.982994 0
M  V30 4544 N 413.868 0.0150385 -1.57593 0
M  V30 4545 C 415.108 0.70768 -1.91758 0
M  V30 4546 C 415.472 1.71764 -0.857974 0
M  V30 4547 O 416.673 2.45956 -1.0844 0
M  V30 4548 C 414.944 1.34736 -3.3103 0
M  V30 4549 S 416.503 2.06721 -3.87056 0
M  V30 4550 H 413.321 0.234119 -0.671349 0
M  V30 4551 H 415.923 -0.0380373 -1.95463 0
M  V30 4552 H 414.627 0.59926 -4.06001 0
M  V30 4553 H 414.158 2.13133 -3.30663 0
M  V30 4554 H 416.173 3.34047 -3.66915 0
M  V30 4555 N 415.346 1.54954 0.287554 0
M  V30 4556 C 416.594 1.74528 1.01904 0
M  V30 4557 C 416.915 0.541349 1.87335 0
M  V30 4558 O 416.185 -0.444108 1.908 0
M  V30 4559 H 414.765 0.643576 0.379235 0
M  V30 4560 H 417.427 1.92333 0.315294 0
M  V30 4561 H 416.523 2.64015 1.6644 0
M  V30 4562 N 416.824 -0.551391 1.4764 0
M  V30 4563 C 418.07 -1.30789 1.55774 0
M  V30 4564 C 418.425 -1.91143 0.219562 0
M  V30 4565 O 417.718 -1.7521 -0.775375 0
M  V30 4566 C 417.912 -2.43469 2.61644 0
M  V30 4567 C 417.741 -1.94157 4.05627 0
M  V30 4568 C 416.511 -1.77734 4.7301 0
M  V30 4569 C 418.709 -1.48262 4.92466 0
M  V30 4570 N 416.691 -1.22823 6.01488 0
M  V30 4571 C 418.062 -1.05156 6.11017 0
M  V30 4572 C 420.117 -1.36367 4.78862 0
M  V30 4573 C 418.82 -0.513357 7.17466 0
M  V30 4574 C 420.846 -0.839484 5.85411 0
M  V30 4575 C 420.208 -0.418377 7.03156 0
M  V30 4576 H 416.307 -0.470406 0.624694 0
M  V30 4577 H 418.891 -0.624331 1.84419 0
M  V30 4578 H 417.062 -3.09348 2.34859 0
M  V30 4579 H 418.794 -3.10477 2.59589 0
M  V30 4580 H 415.549 -2.00623 4.29007 0
M  V30 4581 H 415.973 -0.974393 6.69951 0
M  V30 4582 H 420.615 -1.67535 3.88191 0
M  V30 4583 H 418.333 -0.189318 8.07878 0
M  V30 4584 H 421.919 -0.750921 5.76934 0
M  V30 4585 H 420.799 -0.0190538 7.84198 0
M  V30 4586 N 418.302 -1.35869 -0.798587 0
M  V30 4587 C 419.252 -1.25982 -1.90033 0
M  V30 4588 C 420.236 -0.153303 -1.60168 0
M  V30 4589 O 421.428 -0.38527 -1.72756 0
M  V30 4590 C 418.557 -1.04211 -3.27101 0
M  V30 4591 C 417.643 -2.19289 -3.63006 0
M  V30 4592 N 418.034 -3.44559 -3.70287 0
M  V30 4593 C 416.332 -2.10852 -3.93011 0
M  V30 4594 C 417.033 -4.20283 -4.02166 0
M  V30 4595 N 416.009 -3.49124 -4.16669 0
M  V30 4596 H 419.811 -2.20883 -1.93876 0
M  V30 4597 H 417.325 -1.28457 -0.993614 0
M  V30 4598 H 419.322 -0.952155 -4.05881 0
M  V30 4599 H 417.982 -0.102013 -3.2454 0
M  V30 4600 H 418.993 -3.7881 -3.53162 0
M  V30 4601 H 415.67 -1.24744 -3.98428 0
M  V30 4602 H 417.06 -5.28575 -4.14799 0
M  V30 4603 N 419.78 1.02168 -1.19998 0
M  V30 4604 C 420.712 2.10705 -0.901994 0
M  V30 4605 C 421.725 1.6244 0.108216 0
M  V30 4606 O 422.914 1.78082 -0.12214 0
M  V30 4607 C 420.014 3.37291 -0.329834 0
M  V30 4608 C 419.187 4.14714 -1.39035 0
M  V30 4609 C 418.246 5.19606 -0.830432 0
M  V30 4610 O 417.272 5.48809 -1.50989 0
M  V30 4611 N 418.474 5.79366 0.362696 0
M  V30 4612 H 421.239 2.36856 -1.83628 0
M  V30 4613 H 418.8 1.18518 -1.10296 0
M  V30 4614 H 420.792 4.04657 0.0587633 0
M  V30 4615 H 419.362 3.0843 0.508891 0
M  V30 4616 H 418.582 3.42392 -1.9535 0
M  V30 4617 H 419.87 4.63226 -2.10474 0
M  V30 4618 H 419.268 5.57968 0.932081 0
M  V30 4619 H 417.825 6.48106 0.69299 0
M  V30 4620 N 421.258 1.00505 1.21394 0
M  V30 4621 C 422.504 0.698477 1.91031 0
M  V30 4622 C 422.859 -0.762448 1.76648 0
M  V30 4623 O 422.152 -1.54554 1.13241 0
M  V30 4624 C 422.346 1.0546 3.41486 0
M  V30 4625 C 422.175 2.5486 3.70508 0
M  V30 4626 C 420.945 3.21461 3.8986 0
M  V30 4627 C 423.143 3.53019 3.74008 0
M  V30 4628 N 421.125 4.60211 4.06299 0
M  V30 4629 C 422.496 4.77279 3.95733 0
M  V30 4630 C 424.551 3.47154 3.56915 0
M  V30 4631 C 423.254 5.96388 4.02137 0
M  V30 4632 C 425.28 4.65652 3.64585 0
M  V30 4633 C 424.642 5.88717 3.86771 0
M  V30 4634 H 420.741 0.30707 0.719189 0
M  V30 4635 H 423.325 1.28753 1.46051 0
M  V30 4636 H 421.496 0.494007 3.85246 0
M  V30 4637 H 423.228 0.702765 3.98552 0
M  V30 4638 H 419.983 2.71906 3.87768 0
M  V30 4639 H 420.407 5.32216 4.1842 0
M  V30 4640 H 425.049 2.53015 3.38738 0
M  V30 4641 H 422.767 6.90919 4.19114 0
M  V30 4642 H 426.353 4.62717 3.52681 0
M  V30 4643 H 425.233 6.78877 3.92549 0
M  V30 4644 N 422.737 -1.36956 0.779787 0
M  V30 4645 C 423.684 -2.30175 0.169697 0
M  V30 4646 C 424.654 -1.51501 -0.68094 0
M  V30 4647 O 425.839 -1.80042 -0.631629 0
M  V30 4648 C 422.979 -3.37985 -0.697131 0
M  V30 4649 C 422.092 -4.31661 0.170992 0
M  V30 4650 C 421.227 -5.2655 -0.701298 0
M  V30 4651 C 420.266 -6.11867 0.168869 0
M  V30 4652 N 419.403 -6.98973 -0.661855 0
M  V30 4653 H 424.243 -2.81767 0.970135 0
M  V30 4654 H 421.78 -1.38699 0.489994 0
M  V30 4655 H 423.738 -3.99128 -1.2146 0
M  V30 4656 H 422.368 -2.87739 -1.46309 0
M  V30 4657 H 421.42 -3.71756 0.80634 0
M  V30 4658 H 422.732 -4.91644 0.841875 0
M  V30 4659 H 421.886 -5.92937 -1.28494 0
M  V30 4660 H 420.625 -4.66998 -1.40584 0
M  V30 4661 H 419.63 -5.44452 0.764986 0
M  V30 4662 H 420.855 -6.73493 0.870863 0
M  V30 4663 H 418.801 -6.41941 -1.35086 0
M  V30 4664 H 418.718 -7.55984 -0.0484447 0
M  V30 4665 H 419.986 -7.6974 -1.22963 0
M  V30 4666 N 424.215 -0.530993 -1.48385 0
M  V30 4667 C 425.455 0.000718982 -2.044 0
M  V30 4668 C 425.819 1.31485 -1.39913 0
M  V30 4669 O 427.02 1.93265 -1.86821 0
M  V30 4670 C 425.291 0.119177 -3.57201 0
M  V30 4671 S 426.85 0.600806 -4.34667 0
M  V30 4672 H 423.668 -0.0125473 -0.710889 0
M  V30 4673 H 426.27 -0.711783 -1.82082 0
M  V30 4674 H 424.974 -0.842061 -4.01668 0
M  V30 4675 H 424.505 0.856026 -3.83974 0
M  V30 4676 H 426.52 1.86514 -4.59812 0
M  V30 4677 N 425.693 1.55336 -0.266172 0
M  V30 4678 C 426.921 2.03801 0.356756 0
M  V30 4679 C 427.336 1.14485 1.50129 0
M  V30 4680 O 426.693 0.163121 1.8177 0
M  V30 4681 C 426.744 3.51455 0.846281 0
M  V30 4682 O 426.465 4.37371 -0.252663 0
M  V30 4683 C 427.966 4.15767 1.53794 0
M  V30 4684 H 425.186 0.665906 0.0825218 0
M  V30 4685 H 427.73 2.00636 -0.39566 0
M  V30 4686 H 425.885 3.55092 1.54881 0
M  V30 4687 H 426.299 5.24358 0.122173 0
M  V30 4688 H 427.773 5.20714 1.83198 0
M  V30 4689 H 428.25 3.63404 2.46646 0
M  V30 4690 H 428.856 4.16107 0.879488 0
M  V30 4691 N 427.171 -0.0066808 1.57599 0
M  V30 4692 C 428.582 -0.550379 1.78403 0
M  V30 4693 C 428.933 -1.74339 0.900014 0
M  V30 4694 O 428.058 -2.16166 0.100713 0
M  V30 4695 C 428.653 -1.00523 3.23544 0
M  V30 4696 C 427.212 -1.49428 3.45468 0
M  V30 4697 C 426.359 -0.442444 2.73748 0
M  V30 4698 H 429.31 0.219508 1.57175 0
M  V30 4699 H 429.331 -1.87157 3.31289 0
M  V30 4700 H 428.843 -0.136735 3.87859 0
M  V30 4701 H 426.944 -2.3839 2.86358 0
M  V30 4702 H 427.057 -1.52635 4.54136 0
M  V30 4703 H 425.421 -0.902578 2.38171 0
M  V30 4704 H 426.204 0.416973 3.40758 0
M  V30 4705 N 428.649 -1.55105 -0.279332 0
M  V30 4706 C 429.596 -1.8755 -1.34513 0
M  V30 4707 C 430.566 -0.726384 -1.49375 0
M  V30 4708 O 431.751 -0.977063 -1.63884 0
M  V30 4709 C 428.891 -2.14738 -2.70151 0
M  V30 4710 C 428.004 -3.42285 -2.63562 0
M  V30 4711 C 427.139 -3.59206 -3.91337 0
M  V30 4712 C 426.178 -4.80467 -3.79233 0
M  V30 4713 N 425.315 -4.94079 -4.98829 0
M  V30 4714 H 430.155 -2.78456 -1.06143 0
M  V30 4715 H 427.692 -1.37867 -0.512936 0
M  V30 4716 H 429.65 -2.28501 -3.49061 0
M  V30 4717 H 428.28 -1.27075 -2.96735 0
M  V30 4718 H 427.332 -3.37029 -1.76397 0
M  V30 4719 H 428.644 -4.31328 -2.50515 0
M  V30 4720 H 427.798 -3.72751 -4.78687 0
M  V30 4721 H 426.537 -2.68337 -4.07243 0
M  V30 4722 H 425.542 -4.66932 -2.90266 0
M  V30 4723 H 426.767 -5.72765 -3.64852 0
M  V30 4724 H 424.713 -4.06139 -5.15158 0
M  V30 4725 H 424.63 -5.77156 -4.8829 0
M  V30 4726 H 425.898 -5.12003 -5.8777 0
M  V30 4727 N 430.127 0.543554 -1.4793 0
M  V30 4728 C 431.074 1.64942 -1.6144 0
M  V30 4729 C 432.044 1.59692 -0.456903 0
M  V30 4730 O 433.229 1.78321 -0.678688 0
M  V30 4731 C 430.369 3.03238 -1.64744 0
M  V30 4732 C 429.482 3.18823 -2.91506 0
M  V30 4733 C 428.617 4.47599 -2.86057 0
M  V30 4734 C 427.656 4.56664 -4.07584 0
M  V30 4735 N 426.793 5.76811 -4.00292 0
M  V30 4736 H 431.633 1.52733 -2.55884 0
M  V30 4737 H 429.17 0.7438 -1.2691 0
M  V30 4738 H 431.128 3.83339 -1.64641 0
M  V30 4739 H 429.758 3.1425 -0.738017 0
M  V30 4740 H 428.81 2.32064 -3.01414 0
M  V30 4741 H 430.122 3.21384 -3.81463 0
M  V30 4742 H 429.276 5.35975 -2.84281 0
M  V30 4743 H 428.015 4.47538 -1.93807 0
M  V30 4744 H 427.02 3.66697 -4.09651 0
M  V30 4745 H 428.245 4.58474 -5.00978 0
M  V30 4746 H 426.191 5.77673 -3.10853 0
M  V30 4747 H 426.108 5.80808 -4.8394 0
M  V30 4748 H 427.376 6.67512 -4.02553 0
M  V30 4749 N 431.605 1.3629 0.791371 0
M  V30 4750 C 432.835 1.33368 1.57786 0
M  V30 4751 C 433.243 -0.0875188 1.88997 0
M  V30 4752 O 432.586 -1.05427 1.50435 0
M  V30 4753 C 432.648 2.08802 2.92646 0
M  V30 4754 C 432.312 3.57903 2.84174 0
M  V30 4755 C 433.309 4.52191 2.56553 0
M  V30 4756 C 430.994 4.00762 3.02812 0
M  V30 4757 C 432.988 5.87315 2.47669 0
M  V30 4758 C 430.675 5.35977 2.93551 0
M  V30 4759 C 431.673 6.29066 2.66017 0
M  V30 4760 O 431.361 7.61798 2.56746 0
M  V30 4761 H 431.093 0.459166 0.496128 0
M  V30 4762 H 433.647 1.79952 0.990269 0
M  V30 4763 H 431.877 1.56878 3.53449 0
M  V30 4764 H 433.566 1.98762 3.53904 0
M  V30 4765 H 434.332 4.20393 2.41858 0
M  V30 4766 H 430.211 3.2868 3.2325 0
M  V30 4767 H 433.755 6.59943 2.26099 0
M  V30 4768 H 429.652 5.67384 3.07808 0
M  V30 4769 H 430.42 7.71898 2.72242 0
M  V30 4770 N 433.083 -1.0153 1.20538 0
M  V30 4771 C 434.323 -1.76689 1.02763 0
M  V30 4772 C 434.687 -1.87065 -0.432513 0
M  V30 4773 O 435.888 -2.58684 -0.730481 0
M  V30 4774 C 434.159 -3.14707 1.69393 0
M  V30 4775 S 435.718 -4.05886 1.66738 0
M  V30 4776 H 432.536 -0.608076 0.368463 0
M  V30 4777 H 435.138 -1.21558 1.53114 0
M  V30 4778 H 433.842 -3.04782 2.74838 0
M  V30 4779 H 433.373 -3.74913 1.19179 0
M  V30 4780 H 435.388 -4.91221 0.70117 0
M  V30 4781 O 434.6 -1.13875 -1.14519 0
M  V30 4782 H 435.291 -0.85746 -1.73687 0
M  V30 END ATOM
M  V30 BEGIN BOND
M  V30 END BOND
M  V30 END CTAB
M  END
$$$$
