drugbank_target|Q8WU08 Serine/threonine-protein kinase 32A (DB12010)
 OpenBabel12092121193D

  0  0  0     0  0            999 V3000
M  V30 BEGIN CTAB
M  V30 COUNTS 6484 6556 0 0 0
M  V30 BEGIN ATOM
M  V30 1 H -0.908 1.98254 -0.117106 0
M  V30 2 N 0 1.576 0 0
M  V30 3 C 0.933 2.03868 1.02534 0
M  V30 4 C 1.911 0.928543 1.3348 0
M  V30 5 O 3.095 1.19667 1.45644 0
M  V30 6 C 0.222 2.43627 2.35294 0
M  V30 7 C -0.732 3.65373 2.2001 0
M  V30 8 S 0.101 5.13292 1.52614 0
M  V30 9 C 1.257 5.56322 2.86805 0
M  V30 10 H 1.49 2.90518 0.631377 0
M  V30 11 H -0.977 1.52953 0.210867 0
M  V30 12 H 0.981 2.67203 3.11629 0
M  V30 13 H -0.358 1.57376 2.7183 0
M  V30 14 H -1.165 3.90944 3.18086 0
M  V30 15 H -1.563 3.418 1.51819 0
M  V30 16 H 0.729 5.58782 3.83104 0
M  V30 17 H 1.672 6.56266 2.65933 0
M  V30 18 H 2.08 4.83886 2.90714 0
M  V30 19 N 1.4781 -0.272755 1.55222 0
M  V30 20 C 2.7261 -1.00234 1.75492 0
M  V30 21 C 3.0471 -1.8681 0.5592 0
M  V30 22 O 2.3171 -1.91215 -0.425882 0
M  V30 23 H 0.8971 -0.373076 0.647166 0
M  V30 24 H 3.5591 -0.296926 1.92625 0
M  V30 25 H 2.6551 -1.63913 2.65592 0
M  V30 26 N 2.9562 -1.48159 -0.537278 0
M  V30 27 C 3.9192 -1.61665 -1.62472 0
M  V30 28 C 4.9192 -0.490395 -1.5314 0
M  V30 29 O 6.1092 -0.755998 -1.5694 0
M  V30 30 C 3.2412 -1.57997 -3.02076 0
M  V30 31 H 4.4342 -2.58621 -1.51839 0
M  V30 32 H 1.9872 -1.36647 -0.758771 0
M  V30 33 H 2.7222 -0.624913 -3.18222 0
M  V30 34 H 2.5072 -2.39755 -3.10258 0
M  V30 35 H 3.9972 -1.70627 -3.81151 0
M  V30 36 N 4.4343 0.785586 -1.36625 0
M  V30 37 C 5.3823 1.91978 -1.31329 0
M  V30 38 C 6.3763 1.68162 -0.204416 0
M  V30 39 O 7.5823 1.76122 -0.371645 0
M  V30 40 H 3.9573 0.631087 -0.408942 0
M  V30 41 H 5.9283 1.93562 -2.27104 0
M  V30 42 C 4.6773 3.29055 -1.12329 0
M  V30 43 H 4.0003 3.4795 -1.96903 0
M  V30 44 H 5.4403 4.08756 -1.12671 0
M  V30 45 C 3.8993 3.36461 0.171861 0
M  V30 46 O 4.4293 3.84576 1.16035 0
M  V30 47 N 2.6353 2.89782 0.217846 0
M  V30 48 H 2.1823 2.50819 -0.587183 0
M  V30 49 H 2.1403 2.95119 1.08408 0
M  V30 50 N 5.9124 1.20967 1.01018 0
M  V30 51 C 7.1404 1.04956 1.78303 0
M  V30 52 C 7.5554 -0.400915 1.84494 0
M  V30 53 O 6.9124 -1.27826 1.30257 0
M  V30 54 C 6.9634 1.63403 3.22462 0
M  V30 55 O 6.6844 3.02775 3.16637 0
M  V30 56 C 8.1854 1.52432 4.16268 0
M  V30 57 H 5.4054 0.368858 0.560522 0
M  V30 58 H 7.9494 1.60193 1.27116 0
M  V30 59 H 6.1044 1.1227 3.70775 0
M  V30 60 H 6.5184 3.30626 4.07169 0
M  V30 61 H 7.9924 1.98078 5.15237 0
M  V30 62 H 8.4694 0.477875 4.36592 0
M  V30 63 H 9.0754 2.02787 3.73841 0
M  V30 64 N 7.3905 -1.2043 1.01659 0
M  V30 65 C 8.6155 -1.94318 0.724942 0
M  V30 66 C 9.0405 -1.74266 -0.708034 0
M  V30 67 O 8.3985 -1.03694 -1.48719 0
M  V30 68 C 8.4465 -3.44486 1.06591 0
M  V30 69 O 7.5505 -4.12017 0.177599 0
M  V30 70 H 6.8915 -0.60708 0.26898 0
M  V30 71 H 9.4215 -1.52861 1.35995 0
M  V30 72 H 9.4315 -3.95106 1.01762 0
M  V30 73 H 8.1065 -3.58404 2.10997 0
M  V30 74 H 6.6835 -3.71821 0.283421 0
M  V30 75 N 8.8686 -0.792821 -1.36206 0
M  V30 76 C 10.2846 -0.474903 -1.52371 0
M  V30 77 C 10.4846 1.00622 -1.74578 0
M  V30 78 O 9.5406 1.79162 -1.77924 0
M  V30 79 C 10.8536 -1.3083 -2.70747 0
M  V30 80 C 12.4016 -1.30234 -2.84619 0
M  V30 81 C 12.8766 -2.11956 -4.06004 0
M  V30 82 N 14.3676 -2.09419 -4.13156 0
M  V30 83 C 15.1026 -2.69419 -5.06163 0
M  V30 84 N 14.5986 -3.3829 -6.04592 0
M  V30 85 N 16.3916 -2.59134 -4.98804 0
M  V30 86 H 8.5426 -1.75222 -1.20046 0
M  V30 87 H 10.8056 -0.745024 -0.586211 0
M  V30 88 H 10.5116 -2.35881 -2.6087 0
M  V30 89 H 10.3856 -0.95196 -3.6499 0
M  V30 90 H 12.7726 -0.259748 -2.93955 0
M  V30 91 H 12.8536 -1.69847 -1.91274 0
M  V30 92 H 12.4976 -3.16248 -3.97429 0
M  V30 93 H 12.4276 -1.69711 -4.98503 0
M  V30 94 H 14.9186 -1.59297 -3.42685 0
M  V30 95 H 15.2316 -3.81394 -6.7213 0
M  V30 96 H 13.5766 -3.42393 -6.04807 0
M  V30 97 H 16.7676 -2.04927 -4.20859 0
M  V30 98 H 16.9406 -3.06185 -5.711 0
M  V30 99 N 10.3467 1.47872 -0.545128 0
M  V30 100 C 11.2937 2.29849 0.2093 0
M  V30 101 C 12.2637 1.38313 0.919707 0
M  V30 102 O 13.4487 1.67277 0.917772 0
M  V30 103 C 10.5887 3.22019 1.24088 0
M  V30 104 C 9.7017 4.2864 0.537778 0
M  V30 105 C 8.8367 5.07973 1.5536 0
M  V30 106 C 7.8757 6.06381 0.8348 0
M  V30 107 N 7.0127 6.78717 1.79688 0
M  V30 108 H 11.8527 2.93845 -0.49591 0
M  V30 109 H 9.3897 1.44848 -0.256389 0
M  V30 110 H 11.3477 3.73868 1.85144 0
M  V30 111 H 9.9777 2.59914 1.91428 0
M  V30 112 H 9.0297 3.7994 -0.187046 0
M  V30 113 H 10.3417 4.98793 -0.0258907 0
M  V30 114 H 9.4957 5.63912 2.23803 0
M  V30 115 H 8.2347 4.37693 2.15118 0
M  V30 116 H 7.2397 5.49631 0.136388 0
M  V30 117 H 8.4647 6.78665 0.24313 0
M  V30 118 H 6.4107 6.11177 2.38326 0
M  V30 119 H 6.3277 7.44998 1.28505 0
M  V30 120 H 7.5957 7.39237 2.47282 0
M  V30 121 N 11.8248 0.280983 1.55075 0
M  V30 122 C 13.2358 -0.215629 1.85451 0
M  V30 123 C 13.5868 -1.54991 1.203 0
M  V30 124 O 12.7118 -2.10699 0.493435 0
M  V30 125 C 13.3068 -0.398026 3.36454 0
M  V30 126 C 11.8658 -0.838866 3.66933 0
M  V30 127 C 11.0128 0.064458 2.77225 0
M  V30 128 H 13.9638 0.502601 1.50531 0
M  V30 129 H 13.9848 -1.23569 3.59876 0
M  V30 130 H 13.4968 0.573241 3.83843 0
M  V30 131 H 11.5978 -1.8214 3.25048 0
M  V30 132 H 11.7108 -0.672123 4.74362 0
M  V30 133 H 10.0748 -0.452863 2.50642 0
M  V30 134 H 10.8578 1.03172 3.2743 0
M  V30 135 N 13.3029 -1.57598 0.00835791 0
M  V30 136 C 14.7139 -1.7892 -0.53333 0
M  V30 137 C 15.0649 -0.916609 -1.73473 0
M  V30 138 O 14.1899 -0.121336 -2.1606 0
M  V30 139 C 14.7849 -3.24488 -0.974313 0
M  V30 140 C 13.3439 -3.46878 -1.46125 0
M  V30 141 C 12.4909 -2.74157 -0.416302 0
M  V30 142 H 15.4419 -1.56958 0.234495 0
M  V30 143 H 15.4629 -3.3306 -1.83988 0
M  V30 144 H 14.9749 -3.87972 -0.099718 0
M  V30 145 H 13.0759 -2.8862 -2.35646 0
M  V30 146 H 13.1889 -4.55572 -1.48295 0
M  V30 147 H 11.5529 -2.39022 -0.87981 0
M  V30 148 H 12.3359 -3.40345 0.44947 0
M  V30 149 N 14.781 0.264519 -1.55364 0
M  V30 150 C 16.027 0.99646 -1.76631 0
M  V30 151 C 16.36 1.85632 -0.570478 0
M  V30 152 O 15.635 1.89647 0.43175 0
M  V30 153 C 15.918 1.87187 -3.07625 0
M  V30 154 C 15.771 1.04138 -4.37579 0
M  V30 155 C 17.09 2.85749 -3.34717 0
M  V30 156 H 14.209 0.360841 -0.642622 0
M  V30 157 H 16.851 0.268218 -1.88097 0
M  V30 158 H 15.001 2.49279 -2.9798 0
M  V30 159 H 16.673 0.440517 -4.59192 0
M  V30 160 H 14.916 0.345115 -4.32425 0
M  V30 161 H 15.587 1.68729 -5.2558 0
M  V30 162 H 18.063 2.33793 -3.4421 0
M  V30 163 H 16.939 3.44136 -4.27623 0
M  V30 164 H 17.2 3.61311 -2.54768 0
M  V30 165 N 16.2591 1.48442 0.529413 0
M  V30 166 C 17.5061 1.56488 1.28521 0
M  V30 167 C 17.8341 0.239042 1.93025 0
M  V30 168 O 17.0891 -0.770713 1.79885 0
M  V30 169 C 17.3881 2.6523 2.39558 0
M  V30 170 C 17.0541 4.07648 1.92702 0
M  V30 171 C 15.7161 4.46411 1.79641 0
M  V30 172 C 18.0681 4.96896 1.573 0
M  V30 173 C 15.3961 5.72226 1.29514 0
M  V30 174 C 17.7481 6.23202 1.08636 0
M  V30 175 C 16.4121 6.60821 0.941919 0
M  V30 176 H 15.6821 0.572631 0.470292 0
M  V30 177 H 18.3291 1.82161 0.59072 0
M  V30 178 H 16.6341 2.33419 3.14679 0
M  V30 179 H 18.3311 2.68671 2.97686 0
M  V30 180 H 14.9211 3.77036 2.03819 0
M  V30 181 H 19.1051 4.67626 1.66251 0
M  V30 182 H 14.3611 6.00097 1.17019 0
M  V30 183 H 18.5351 6.91753 0.803136 0
M  V30 184 H 16.1621 7.58198 0.5513 0
M  V30 185 N 17.7372 -0.778329 1.37039 0
M  V30 186 C 19.0142 -1.52551 1.22424 0
M  V30 187 C 19.3942 -2.10288 -0.184964 0
M  V30 188 O 18.7422 -1.94953 -1.19187 0
M  V30 189 C 18.9522 -2.61164 2.31504 0
M  V30 190 C 20.3002 -3.28746 2.68721 0
M  V30 191 O 21.3242 -2.71455 2.30631 0
M  V30 192 O 20.1832 -4.3231 3.3432 0
M  V30 193 H 17.2772 -0.675343 0.477326 0
M  V30 194 H 19.8232 -0.815859 1.48801 0
M  V30 195 H 18.5952 -2.16574 3.25901 0
M  V30 196 H 18.2182 -3.39737 2.06554 0
M  V30 197 N 19.2153 -1.21501 -1.00376 0
M  V30 198 C 20.1253 -0.991447 -2.12621 0
M  V30 199 C 21.1413 0.0568446 -1.73907 0
M  V30 200 O 22.3173 -0.13348 -2.00957 0
M  V30 201 C 19.3823 -0.560312 -3.42142 0
M  V30 202 C 18.4433 -1.68096 -3.95022 0
M  V30 203 C 17.6763 -1.2703 -5.18362 0
M  V30 204 O 17.8993 -0.144438 -5.70217 0
M  V30 205 O 16.8333 -2.08269 -5.64719 0
M  V30 206 H 20.6593 -1.93158 -2.34358 0
M  V30 207 H 18.2443 -0.999999 -1.10997 0
M  V30 208 H 20.1263 -0.329724 -4.20108 0
M  V30 209 H 18.8013 0.351089 -3.2179 0
M  V30 210 H 17.7083 -1.96597 -3.18278 0
M  V30 211 H 19.0413 -2.56983 -4.19786 0
M  V30 212 N 20.6934 1.19889 -1.02296 0
M  V30 213 C 21.6414 2.24938 -0.592081 0
M  V30 214 C 22.6354 1.65257 0.372357 0
M  V30 215 O 23.8414 1.78371 0.241583 0
M  V30 216 H 20.2164 0.731787 -0.173182 0
M  V30 217 H 22.1874 2.58603 -1.48885 0
M  V30 218 C 20.9364 3.47668 0.047351 0
M  V30 219 H 20.2594 3.93875 -0.685772 0
M  V30 220 H 21.6994 4.22852 0.311862 0
M  V30 221 C 20.1584 3.11136 1.29212 0
M  V30 222 O 20.6884 3.2325 2.38479 0
M  V30 223 N 18.8944 2.65625 1.17863 0
M  V30 224 H 18.4414 2.55968 0.289493 0
M  V30 225 H 18.3994 2.41553 2.01245 0
M  V30 226 N 22.1715 0.800033 1.35784 0
M  V30 227 C 23.0815 0.207204 2.33683 0
M  V30 228 C 24.0975 -0.64631 1.61551 0
M  V30 229 O 25.2735 -0.559604 1.93469 0
M  V30 230 C 22.3385 -0.639659 3.40748 0
M  V30 231 C 21.3995 0.233585 4.28664 0
M  V30 232 C 20.6325 -0.572954 5.30616 0
M  V30 233 O 20.8555 -1.80816 5.40982 0
M  V30 234 O 19.7895 0.0327285 6.01891 0
M  V30 235 H 23.6155 1.01692 2.86169 0
M  V30 236 H 21.2005 0.561691 1.38439 0
M  V30 237 H 23.0825 -1.12223 4.06182 0
M  V30 238 H 21.7575 -1.42708 2.90544 0
M  V30 239 H 20.6645 0.763147 3.66233 0
M  V30 240 H 21.9975 0.984784 4.82248 0
M  V30 241 N 23.6496 -1.47581 0.552962 0
M  V30 242 C 24.9266 -1.95563 -0.0381515 0
M  V30 243 C 25.3066 -1.49552 -1.48988 0
M  V30 244 O 24.6546 -0.732414 -2.16444 0
M  V30 245 C 24.8646 -3.48848 0.102919 0
M  V30 246 C 26.2126 -4.24577 -0.0446082 0
M  V30 247 O 27.2366 -3.56187 0.0302548 0
M  V30 248 O 26.0956 -5.46116 -0.204923 0
M  V30 249 H 23.1896 -0.824321 -0.0665067 0
M  V30 250 H 25.7356 -1.58001 0.619186 0
M  V30 251 H 24.5076 -3.75129 1.11328 0
M  V30 252 H 24.1306 -3.93165 -0.592224 0
M  V30 253 N 25.1277 -0.289203 -1.54924 0
M  V30 254 C 26.3737 0.323998 -2.00195 0
M  V30 255 C 26.7067 1.54441 -1.17735 0
M  V30 256 O 25.9817 1.92875 -0.250878 0
M  V30 257 C 26.2647 0.692276 -3.53383 0
M  V30 258 C 26.1177 -0.536457 -4.46589 0
M  V30 259 C 27.4367 1.52335 -4.12895 0
M  V30 260 H 24.5557 0.116289 -0.727768 0
M  V30 261 H 27.1977 -0.398954 -1.85764 0
M  V30 262 H 25.3477 1.30822 -3.65811 0
M  V30 263 H 27.0197 -1.17499 -4.46085 0
M  V30 264 H 25.2627 -1.17192 -4.1767 0
M  V30 265 H 25.9337 -0.234806 -5.515 0
M  V30 266 H 28.4097 1.00302 -4.0383 0
M  V30 267 H 27.2857 1.74982 -5.20262 0
M  V30 268 H 27.5467 2.50886 -3.64018 0
M  V30 269 N 26.6058 1.57591 -0.0167156 0
M  V30 270 C 27.5538 2.10604 0.987353 0
M  V30 271 C 28.5478 1.02977 1.34507 0
M  V30 272 O 29.7538 1.21425 1.32875 0
M  V30 273 H 26.1288 0.672695 0.336134 0
M  V30 274 H 28.0998 2.93925 0.514817 0
M  V30 275 C 26.8488 2.6382 2.26483 0
M  V30 276 H 26.1718 3.46278 1.99829 0
M  V30 277 H 27.6118 3.04573 2.94977 0
M  V30 278 C 26.0708 1.55992 2.9861 0
M  V30 279 O 26.6008 0.952521 3.90243 0
M  V30 280 N 24.8068 1.28335 2.60727 0
M  V30 281 H 24.3538 1.77914 1.86291 0
M  V30 282 H 24.3118 0.564115 3.09298 0
M  V30 283 N 28.0839 -0.256276 1.55502 0
M  V30 284 C 29.3309 -0.985619 1.76895 0
M  V30 285 C 29.6589 -1.85671 0.579355 0
M  V30 286 O 28.9139 -1.90744 -0.437651 0
M  V30 287 C 29.2129 -1.88432 3.03691 0
M  V30 288 C 28.8789 -1.16936 4.35473 0
M  V30 289 C 27.5409 -0.97173 4.71286 0
M  V30 290 C 29.8929 -0.661889 5.1698 0
M  V30 291 C 27.2209 -0.254179 5.86149 0
M  V30 292 C 29.5729 0.042149 6.32586 0
M  V30 293 C 28.2369 0.25134 6.67027 0
M  V30 294 H 27.5069 -0.360663 0.647304 0
M  V30 295 H 30.1539 -0.256483 1.89775 0
M  V30 296 H 28.4589 -2.68021 2.85783 0
M  V30 297 H 30.1559 -2.45015 3.1744 0
M  V30 298 H 26.7459 -1.33332 4.07333 0
M  V30 299 H 30.9299 -0.802145 4.89775 0
M  V30 300 H 26.1859 -0.0815408 6.11346 0
M  V30 301 H 30.3599 0.443049 6.94989 0
M  V30 302 H 27.9869 0.809314 7.5588 0
M  V30 303 N 29.562 -1.4872 -0.521534 0
M  V30 304 C 30.839 -1.4766 -1.2828 0
M  V30 305 C 31.219 -0.19292 -2.10217 0
M  V30 306 O 30.567 0.825193 -2.13079 0
M  V30 307 C 30.777 -2.74358 -2.15705 0
M  V30 308 C 32.125 -3.23028 -2.75569 0
M  V30 309 O 33.149 -2.75333 -2.25987 0
M  V30 310 O 32.008 -4.0604 -3.65778 0
M  V30 311 H 29.102 -0.590085 -0.579421 0
M  V30 312 H 31.648 -1.60963 -0.537492 0
M  V30 313 H 30.42 -3.59292 -1.54999 0
M  V30 314 H 30.043 -2.63816 -2.97467 0
M  V30 315 N 31.0401 0.771051 -1.3745 0
M  V30 316 C 31.9901 1.87456 -1.29785 0
M  V30 317 C 32.9741 1.59827 -0.185541 0
M  V30 318 O 34.1661 1.71945 -0.419997 0
M  V30 319 C 31.2951 3.24935 -1.1078 0
M  V30 320 C 30.3811 3.58514 -2.26558 0
M  V30 321 N 30.7721 3.6327 -3.5195 0
M  V30 322 C 29.0701 3.88683 -2.18727 0
M  V30 323 C 29.7711 3.93616 -4.283 0
M  V30 324 N 28.7471 4.09551 -3.57448 0
M  V30 325 H 32.5491 1.89386 -2.24745 0
M  V30 326 H 30.0631 0.967531 -1.30432 0
M  V30 327 H 32.0601 4.03881 -1.03374 0
M  V30 328 H 30.7201 3.24268 -0.16738 0
M  V30 329 H 31.7311 3.45458 -3.85848 0
M  V30 330 H 28.4081 3.95834 -1.32746 0
M  V30 331 H 29.7981 4.04066 -5.36824 0
M  V30 332 N 32.5182 1.22032 0.997298 0
M  V30 333 C 33.7652 1.04222 1.73621 0
M  V30 334 C 34.0932 -0.423264 1.89839 0
M  V30 335 O 33.3482 -1.3302 1.43542 0
M  V30 336 C 33.6472 1.69345 3.14733 0
M  V30 337 C 33.3132 3.19226 3.18442 0
M  V30 338 C 31.9752 3.60124 3.19161 0
M  V30 339 C 34.3272 4.15181 3.15078 0
M  V30 340 C 31.6552 4.95467 3.14212 0
M  V30 341 C 34.0072 5.50495 3.1167 0
M  V30 342 C 32.6712 5.90779 3.10703 0
M  V30 343 H 31.9412 0.381374 0.635323 0
M  V30 344 H 34.5882 1.51732 1.16831 0
M  V30 345 H 32.8932 1.14147 3.74803 0
M  V30 346 H 34.5902 1.53059 3.7064 0
M  V30 347 H 31.1802 2.86659 3.18629 0
M  V30 348 H 35.3642 3.84605 3.13676 0
M  V30 349 H 30.6202 5.25916 3.11805 0
M  V30 350 H 34.7942 6.24576 3.08022 0
M  V30 351 H 32.4212 6.9562 3.06622 0
M  V30 352 N 33.9963 -1.19345 1.0293 0
M  V30 353 C 34.9063 -2.26245 0.620515 0
M  V30 354 C 35.9223 -1.70486 -0.347928 0
M  V30 355 O 37.0983 -2.00347 -0.205704 0
M  V30 356 C 34.1633 -3.46693 -0.0218957 0
M  V30 357 C 33.2243 -4.17632 0.994102 0
M  V30 358 C 32.4573 -5.32329 0.382253 0
M  V30 359 O 32.6803 -5.64552 -0.814676 0
M  V30 360 O 31.6143 -5.91664 1.10531 0
M  V30 361 H 35.4403 -2.63453 1.51083 0
M  V30 362 H 33.0253 -1.26207 0.799513 0
M  V30 363 H 34.9073 -4.19683 -0.380072 0
M  V30 364 H 33.5823 -3.11333 -0.886209 0
M  V30 365 H 32.4893 -3.4676 1.40387 0
M  V30 366 H 33.8223 -4.56964 1.8288 0
M  V30 367 N 35.4744 -0.807222 -1.35358 0
M  V30 368 C 36.7234 -0.384376 -1.98004 0
M  V30 369 C 37.0364 1.0543 -1.64754 0
M  V30 370 O 38.2424 1.58029 -2.20769 0
M  V30 371 C 36.6984 -0.636326 -3.5423 0
M  V30 372 C 36.3064 -2.08759 -3.96388 0
M  V30 373 C 38.0504 -0.278869 -4.23583 0
M  V30 374 C 35.9574 -2.28525 -5.45463 0
M  V30 375 H 34.8874 -0.139986 -0.740891 0
M  V30 376 H 37.5384 -0.991369 -1.54415 0
M  V30 377 H 35.9204 0.0406256 -3.95979 0
M  V30 378 H 37.0944 -2.8024 -3.6579 0
M  V30 379 H 35.4094 -2.40497 -3.39926 0
M  V30 380 H 38.0064 -0.404599 -5.33167 0
M  V30 381 H 38.3494 0.775012 -4.09022 0
M  V30 382 H 38.8824 -0.909764 -3.87257 0
M  V30 383 H 35.6214 -3.32361 -5.64992 0
M  V30 384 H 35.1414 -1.61569 -5.77629 0
M  V30 385 H 36.8204 -2.10109 -6.11934 0
M  V30 386 N 36.9525 1.47285 -0.560781 0
M  V30 387 C 37.8825 2.32857 0.173105 0
M  V30 388 C 38.8635 1.44009 0.905281 0
M  V30 389 O 40.0485 1.7286 0.885046 0
M  V30 390 C 37.1785 3.25861 1.20133 0
M  V30 391 C 36.1325 4.23978 0.585388 0
M  V30 392 C 35.4585 5.06332 1.7185 0
M  V30 393 C 36.7585 5.20242 -0.463178 0
M  V30 394 H 38.4525 2.94466 -0.541307 0
M  V30 395 H 35.9985 1.41601 -0.261764 0
M  V30 396 H 37.9515 3.84569 1.72293 0
M  V30 397 H 36.6755 2.62315 1.94573 0
M  V30 398 H 35.3345 3.66501 0.085054 0
M  V30 399 H 34.9825 4.39186 2.45203 0
M  V30 400 H 34.6825 5.72762 1.31213 0
M  V30 401 H 36.2065 5.67899 2.24329 0
M  V30 402 H 37.6205 5.73293 -0.027502 0
M  V30 403 H 36.0175 5.94896 -0.788627 0
M  V30 404 H 37.0875 4.65504 -1.35773 0
M  V30 405 N 38.4306 0.297415 1.54768 0
M  V30 406 C 39.8466 -0.0560823 1.59501 0
M  V30 407 C 40.0466 -1.52725 1.31444 0
M  V30 408 O 39.1026 -2.27947 1.08611 0
M  V30 409 C 40.4156 0.338631 2.98787 0
M  V30 410 C 41.9636 0.287097 3.11681 0
M  V30 411 C 42.4386 0.656579 4.53269 0
M  V30 412 N 43.9296 0.608977 4.59179 0
M  V30 413 C 44.6646 0.867385 5.66802 0
M  V30 414 N 44.1606 1.19157 6.82476 0
M  V30 415 N 45.9536 0.794687 5.56454 0
M  V30 416 H 38.1046 1.25624 1.71267 0
M  V30 417 H 40.3676 0.509057 0.799728 0
M  V30 418 H 40.0736 1.36263 3.2423 0
M  V30 419 H 39.9476 -0.309508 3.75928 0
M  V30 420 H 42.3346 -0.727649 2.85988 0
M  V30 421 H 42.4156 0.969809 2.36703 0
M  V30 422 H 42.0596 1.66912 4.7969 0
M  V30 423 H 41.9896 -0.0481649 5.26578 0
M  V30 424 H 44.4806 0.369198 3.76092 0
M  V30 425 H 44.7936 1.37482 7.60473 0
M  V30 426 H 43.1386 1.22958 6.84037 0
M  V30 427 H 46.3296 0.541098 4.64962 0
M  V30 428 H 46.5026 0.999445 6.40246 0
M  V30 429 N 39.9087 -1.5758 0.0250728 0
M  V30 430 C 40.8717 -2.08896 -0.943139 0
M  V30 431 C 41.8717 -1.00321 -1.25668 0
M  V30 432 O 43.0617 -1.26495 -1.19769 0
M  V30 433 C 40.1937 -2.55143 -2.26086 0
M  V30 434 H 41.3867 -2.95723 -0.498775 0
M  V30 435 H 38.9397 -1.54703 -0.222888 0
M  V30 436 H 39.6747 -1.71633 -2.75159 0
M  V30 437 H 39.4597 -3.34461 -2.04641 0
M  V30 438 H 40.9497 -2.95083 -2.95492 0
M  V30 439 N 41.3868 0.248026 -1.55636 0
M  V30 440 C 42.6358 0.974134 -1.76617 0
M  V30 441 C 42.9488 1.86528 -0.588796 0
M  V30 442 O 44.1548 2.62805 -0.681594 0
M  V30 443 C 42.6108 1.78213 -3.12679 0
M  V30 444 C 42.2188 0.93843 -4.38061 0
M  V30 445 C 43.9628 2.50104 -3.42999 0
M  V30 446 C 41.8698 1.74225 -5.65155 0
M  V30 447 H 40.7998 0.36745 -0.658405 0
M  V30 448 H 43.4508 0.22884 -1.82067 0
M  V30 449 H 41.8328 2.56933 -3.01333 0
M  V30 450 H 43.0068 0.193635 -4.60393 0
M  V30 451 H 41.3218 0.332905 -4.15067 0
M  V30 452 H 43.9188 3.10694 -4.3517 0
M  V30 453 H 44.2618 3.21662 -2.64271 0
M  V30 454 H 44.7948 1.78395 -3.55556 0
M  V30 455 H 41.5338 1.07043 -6.46701 0
M  V30 456 H 41.0538 2.46235 -5.46926 0
M  V30 457 H 42.7328 2.30967 -6.0437 0
M  V30 458 N 42.8649 1.48995 0.513639 0
M  V30 459 C 44.1129 1.57531 1.26604 0
M  V30 460 C 44.4339 0.258236 1.93283 0
M  V30 461 O 43.7039 -0.721502 1.8213 0
M  V30 462 H 42.2839 0.580387 0.470276 0
M  V30 463 H 44.9459 1.85552 0.596373 0
M  V30 464 H 44.0419 2.36486 2.03669 0
M  V30 465 N 44.343 -0.763751 1.37857 0
M  V30 466 C 45.29 -1.87726 1.34267 0
M  V30 467 C 46.26 -1.64807 0.206879 0
M  V30 468 O 47.445 -1.86613 0.397508 0
M  V30 469 C 44.585 -3.24896 1.16346 0
M  V30 470 C 43.698 -3.59716 2.39225 0
M  V30 471 C 42.833 -4.86137 2.14114 0
M  V30 472 C 41.872 -5.13711 3.32817 0
M  V30 473 N 41.009 -6.31323 3.07206 0
M  V30 474 H 45.849 -1.90129 2.29466 0
M  V30 475 H 43.386 -0.929433 1.14017 0
M  V30 476 H 45.344 -4.04036 1.03975 0
M  V30 477 H 43.974 -3.21847 0.247909 0
M  V30 478 H 43.026 -2.75498 2.62307 0
M  V30 479 H 44.338 -3.76027 3.27728 0
M  V30 480 H 43.492 -5.73198 1.9882 0
M  V30 481 H 42.231 -4.71945 1.22961 0
M  V30 482 H 41.236 -4.25123 3.48641 0
M  V30 483 H 42.461 -5.29807 4.24832 0
M  V30 484 H 40.407 -6.18474 2.1869 0
M  V30 485 H 40.324 -6.48087 3.89254 0
M  V30 486 H 41.592 -7.213 2.95546 0
M  V30 487 N 45.8211 -1.22559 -0.990812 0
M  V30 488 C 47.0691 -1.04933 -1.72724 0
M  V30 489 C 47.3901 0.416158 -1.90508 0
M  V30 490 O 46.6601 1.29918 -1.46622 0
M  V30 491 H 45.2401 -0.385296 -0.639965 0
M  V30 492 H 47.9021 -1.54105 -1.19322 0
M  V30 493 H 46.9981 -1.52886 -2.72089 0
M  V30 494 N 47.2992 1.18797 -1.03562 0
M  V30 495 C 48.5242 1.9314 -0.755764 0
M  V30 496 C 48.9492 1.7537 0.68022 0
M  V30 497 O 48.3072 1.06046 1.47051 0
M  V30 498 C 48.3552 3.42747 -1.12058 0
M  V30 499 O 47.4592 4.11683 -0.243124 0
M  V30 500 H 46.8002 0.602724 -0.278604 0
M  V30 501 H 49.3302 1.50678 -1.3841 0
M  V30 502 H 49.3402 3.93437 -1.08035 0
M  V30 503 H 48.0152 3.55002 -2.16672 0
M  V30 504 H 46.5922 3.71323 -0.342539 0
M  V30 505 N 48.7773 0.814389 1.34928 0
M  V30 506 C 50.0243 0.398423 1.98542 0
M  V30 507 C 50.3523 -1.03638 1.64589 0
M  V30 508 O 49.6073 -1.73509 0.90516 0
M  V30 509 C 49.9063 0.537781 3.53331 0
M  V30 510 C 49.5723 1.93704 4.07172 0
M  V30 511 C 48.2343 2.31984 4.21589 0
M  V30 512 C 50.5863 2.85213 4.36237 0
M  V30 513 C 47.9143 3.61125 4.62391 0
M  V30 514 C 50.2663 4.13809 4.78482 0
M  V30 515 C 48.9303 4.52077 4.91104 0
M  V30 516 H 48.2003 0.145793 0.726516 0
M  V30 517 H 50.8473 1.03669 1.61012 0
M  V30 518 H 49.1523 -0.183906 3.91368 0
M  V30 519 H 50.8493 0.196588 4.00518 0
M  V30 520 H 47.4393 1.62966 3.96409 0
M  V30 521 H 51.6233 2.56885 4.24645 0
M  V30 522 H 46.8793 3.90612 4.70353 0
M  V30 523 H 51.0533 4.84811 4.99932 0
M  V30 524 H 48.6803 5.52196 5.22478 0
M  V30 525 N 50.2554 -1.46986 0.568584 0
M  V30 526 C 51.5034 -2.02041 0.0487022 0
M  V30 527 C 51.8244 -1.44408 -1.31039 0
M  V30 528 O 51.0944 -0.623477 -1.85714 0
M  V30 529 H 49.6744 -0.746849 0.015014 0
M  V30 530 H 52.3364 -1.80257 0.741168 0
M  V30 531 H 51.4324 -3.12085 -0.0308961 0
M  V30 532 N 51.7335 -0.305618 -1.54608 0
M  V30 533 C 52.6805 0.568421 -2.23691 0
M  V30 534 C 53.6505 1.12592 -1.22116 0
M  V30 535 O 54.8355 1.16959 -1.50749 0
M  V30 536 C 51.9755 1.7322 -2.98477 0
M  V30 537 C 51.0885 1.20566 -4.14835 0
M  V30 538 C 50.2235 2.33368 -4.77193 0
M  V30 539 C 49.2625 1.7787 -5.85686 0
M  V30 540 N 48.3995 2.84263 -6.4198 0
M  V30 541 H 53.2395 -0.0272867 -2.97988 0
M  V30 542 H 50.7765 -0.0252363 -1.47078 0
M  V30 543 H 52.7345 2.41675 -3.40072 0
M  V30 544 H 51.3645 2.29947 -2.26548 0
M  V30 545 H 50.4165 0.413223 -3.78149 0
M  V30 546 H 51.7285 0.759417 -4.92985 0
M  V30 547 H 50.8825 3.09761 -5.21664 0
M  V30 548 H 49.6215 2.8132 -3.98385 0
M  V30 549 H 48.6265 0.99968 -5.40635 0
M  V30 550 H 49.8515 1.30816 -6.66381 0
M  V30 551 H 47.7975 3.31541 -5.66053 0
M  V30 552 H 47.7145 2.44149 -7.15491 0
M  V30 553 H 48.9825 3.6054 -6.91109 0
M  V30 554 N 53.2116 1.57565 -0.0334293 0
M  V30 555 C 54.4576 1.92262 0.645226 0
M  V30 556 C 54.7906 0.910543 1.71531 0
M  V30 557 O 54.0656 -0.066099 1.94388 0
M  V30 558 C 54.3486 3.37422 1.2577 0
M  V30 559 C 54.2016 4.49369 0.196891 0
M  V30 560 C 55.5206 3.82628 2.17449 0
M  V30 561 H 52.6396 0.699171 0.233085 0
M  V30 562 H 55.2816 1.89779 -0.0915694 0
M  V30 563 H 53.4316 3.39669 1.88566 0
M  V30 564 H 55.1036 4.59254 -0.433962 0
M  V30 565 H 53.3466 4.31168 -0.477137 0
M  V30 566 H 54.0176 5.47978 0.665124 0
M  V30 567 H 56.4936 3.82145 1.64634 0
M  V30 568 H 55.3696 4.84883 2.57254 0
M  V30 569 H 55.6306 3.18376 3.0674 0
M  V30 570 N 54.6897 -0.239769 1.55765 0
M  V30 571 C 55.9297 -0.974076 1.79697 0
M  V30 572 C 56.2937 -1.82249 0.604088 0
M  V30 573 O 57.4947 -2.58913 0.722324 0
M  V30 574 C 55.7657 -1.80595 3.08416 0
M  V30 575 S 57.3247 -2.59838 3.53596 0
M  V30 576 H 54.1427 -0.327524 0.63107 0
M  V30 577 H 56.7447 -0.241277 1.94005 0
M  V30 578 H 55.4487 -1.17249 3.93295 0
M  V30 579 H 54.9797 -2.58137 2.96865 0
M  V30 580 H 56.9947 -3.82987 3.15492 0
M  V30 581 N 56.1678 -1.49265 -0.50573 0
M  V30 582 C 57.4168 -1.57761 -1.25675 0
M  V30 583 C 57.7298 -0.267371 -1.93764 0
M  V30 584 O 58.9358 -0.230827 -2.70517 0
M  V30 585 C 57.3918 -2.78332 -2.28165 0
M  V30 586 C 56.9998 -4.16096 -1.66037 0
M  V30 587 C 58.7438 -2.96155 -3.04125 0
M  V30 588 C 56.6508 -5.27895 -2.6661 0
M  V30 589 H 55.5808 -0.587391 -0.472745 0
M  V30 590 H 58.2318 -1.75644 -0.53118 0
M  V30 591 H 56.6138 -2.53934 -3.03865 0
M  V30 592 H 57.7878 -4.50612 -0.963622 0
M  V30 593 H 56.1028 -4.03591 -1.02484 0
M  V30 594 H 58.6998 -3.76849 -3.79327 0
M  V30 595 H 59.0428 -2.06534 -3.61455 0
M  V30 596 H 59.5758 -3.2057 -2.35541 0
M  V30 597 H 56.3148 -6.1956 -2.14068 0
M  V30 598 H 55.8348 -4.97839 -3.34539 0
M  V30 599 H 57.5138 -5.57031 -3.29129 0
M  V30 600 N 57.6459 0.756429 -1.3826 0
M  V30 601 C 58.8919 1.51772 -1.34511 0
M  V30 602 C 59.2249 1.94089 0.0656691 0
M  V30 603 O 58.4999 1.65221 1.02626 0
M  V30 604 C 58.7829 2.77226 -2.29821 0
M  V30 605 C 58.6359 2.41065 -3.79747 0
M  V30 606 C 59.9549 3.79236 -2.23312 0
M  V30 607 H 57.0739 0.550578 -0.489931 0
M  V30 608 H 59.7159 0.866607 -1.69086 0
M  V30 609 H 57.8659 3.32784 -2.00467 0
M  V30 610 H 59.5379 1.91303 -4.19763 0
M  V30 611 H 57.7809 1.7356 -3.97567 0
M  V30 612 H 58.4519 3.3081 -4.41892 0
M  V30 613 H 60.9279 3.3321 -2.49219 0
M  V30 614 H 59.8039 4.64714 -2.92116 0
M  V30 615 H 60.0649 4.24615 -1.23102 0
M  V30 616 N 59.124 1.23083 0.984299 0
M  V30 617 C 60.056 0.96636 2.07832 0
M  V30 618 C 61.069 -0.0582135 1.62696 0
M  V30 619 O 62.258 0.176843 1.77622 0
M  V30 620 C 59.358 0.433397 3.36117 0
M  V30 621 C 58.531 1.51722 4.10243 0
M  V30 622 C 57.59 0.989821 5.16807 0
M  V30 623 O 56.616 1.67794 5.43906 0
M  V30 624 N 57.818 -0.184367 5.80207 0
M  V30 625 H 60.583 1.90824 2.31098 0
M  V30 626 H 58.144 1.13888 1.1507 0
M  V30 627 H 60.136 0.065699 4.04647 0
M  V30 628 H 58.706 -0.413806 3.09849 0
M  V30 629 H 57.926 2.05786 3.36223 0
M  V30 630 H 59.214 2.24619 4.56534 0
M  V30 631 H 58.612 -0.760062 5.60571 0
M  V30 632 H 57.169 -0.493366 6.4993 0
M  V30 633 N 60.6021 -1.18246 1.0419 0
M  V30 634 C 61.5491 -2.2192 0.634037 0
M  V30 635 C 62.5191 -1.62179 -0.358765 0
M  V30 636 O 63.7041 -1.89122 -0.252466 0
M  V30 637 C 60.8441 -3.451 0.00445535 0
M  V30 638 C 59.9571 -4.19174 1.04487 0
M  V30 639 C 59.0921 -5.29813 0.383676 0
M  V30 640 C 58.1311 -5.9566 1.4091 0
M  V30 641 N 57.2681 -6.97834 0.772784 0
M  V30 642 H 62.1081 -2.56164 1.52263 0
M  V30 643 H 59.6451 -1.25843 0.761701 0
M  V30 644 H 61.6031 -4.15485 -0.377919 0
M  V30 645 H 60.2331 -3.11472 -0.847652 0
M  V30 646 H 59.2851 -3.47604 1.54518 0
M  V30 647 H 60.5971 -4.64267 1.82368 0
M  V30 648 H 59.7511 -6.06677 -0.0528366 0
M  V30 649 H 58.4901 -4.85825 -0.427208 0
M  V30 650 H 57.4951 -5.17535 1.85574 0
M  V30 651 H 58.7201 -6.4173 2.22171 0
M  V30 652 H 56.6661 -6.55998 -0.0177708 0
M  V30 653 H 56.5831 -7.41186 1.48928 0
M  V30 654 H 57.8511 -7.78665 0.36071 0
M  V30 655 N 62.0802 -0.821533 -1.34494 0
M  V30 656 C 63.0282 -0.230702 -2.31453 0
M  V30 657 C 64.0222 0.627793 -1.57338 0
M  V30 658 O 65.2282 0.519288 -1.72347 0
M  V30 659 H 61.6032 -0.0558577 -0.749923 0
M  V30 660 H 63.5742 -1.06332 -2.78812 0
M  V30 661 C 62.3232 0.59391 -3.4259 0
M  V30 662 H 61.6462 -0.0573588 -3.99759 0
M  V30 663 H 63.0862 0.973446 -4.12674 0
M  V30 664 C 61.5452 1.76568 -2.86924 0
M  V30 665 O 62.0752 2.8638 -2.81691 0
M  V30 666 N 60.2812 1.58198 -2.43766 0
M  V30 667 H 59.8282 0.68872 -2.48222 0
M  V30 668 H 59.7862 2.36752 -2.06871 0
M  V30 669 N 63.5583 1.46682 -0.576371 0
M  V30 670 C 64.8353 1.95599 0.00703437 0
M  V30 671 C 65.2153 1.51904 1.46589 0
M  V30 672 O 64.5633 0.766755 2.15251 0
M  V30 673 C 64.7733 3.4864 -0.158404 0
M  V30 674 C 66.1213 4.24594 -0.0229439 0
M  V30 675 O 67.1453 3.56094 -0.0869173 0
M  V30 676 O 66.0043 5.46373 0.118015 0
M  V30 677 H 63.0983 0.825275 0.053384 0
M  V30 678 H 65.6443 1.56996 -0.644244 0
M  V30 679 H 64.4163 3.7331 -1.17282 0
M  V30 680 H 64.0393 3.94057 0.5296 0
M  V30 681 N 65.0364 0.313813 1.54444 0
M  V30 682 C 66.2644 -0.293918 2.04802 0
M  V30 683 C 66.6794 -1.46537 1.19047 0
M  V30 684 O 66.0364 -1.81182 0.218939 0
M  V30 685 C 66.0874 -0.737806 3.53891 0
M  V30 686 O 65.8084 0.387038 4.36387 0
M  V30 687 C 67.3094 -1.40936 4.203 0
M  V30 688 H 64.5294 -0.0620057 0.668129 0
M  V30 689 H 67.0734 0.457169 1.99324 0
M  V30 690 H 65.2284 -1.43889 3.59687 0
M  V30 691 H 65.6424 0.0391274 5.24485 0
M  V30 692 H 67.1164 -1.67099 5.26101 0
M  V30 693 H 67.5934 -2.35355 3.70816 0
M  V30 694 H 68.1994 -0.751117 4.18615 0
M  V30 695 N 66.5145 -1.57545 0.0417849 0
M  V30 696 C 67.4615 -2.10977 -0.935805 0
M  V30 697 C 68.4315 -1.01486 -1.31491 0
M  V30 698 O 69.6165 -1.2898 -1.40602 0
M  V30 699 C 66.7565 -2.65169 -2.2086 0
M  V30 700 C 65.8695 -3.88714 -1.88482 0
M  V30 701 C 65.0045 -4.31254 -3.1015 0
M  V30 702 C 64.0435 -5.47524 -2.7365 0
M  V30 703 N 63.1805 -5.85162 -3.87982 0
M  V30 704 H 68.0205 -2.94218 -0.473249 0
M  V30 705 H 65.5575 -1.45415 -0.221981 0
M  V30 706 H 67.5155 -2.94685 -2.95325 0
M  V30 707 H 66.1455 -1.8474 -2.64709 0
M  V30 708 H 65.1975 -3.65849 -1.04205 0
M  V30 709 H 66.5095 -4.73245 -1.57608 0
M  V30 710 H 65.6635 -4.62273 -3.92923 0
M  V30 711 H 64.4025 -3.45516 -3.44195 0
M  V30 712 H 63.4075 -5.16187 -1.89291 0
M  V30 713 H 64.6325 -6.34971 -2.40807 0
M  V30 714 H 62.5785 -5.02377 -4.21846 0
M  V30 715 H 62.4955 -6.64362 -3.60775 0
M  V30 716 H 63.7635 -6.20791 -4.71422 0
M  V30 717 N 67.9926 0.231505 -1.5589 0
M  V30 718 C 68.9396 1.28682 -1.91598 0
M  V30 719 C 69.9096 1.47071 -0.771974 0
M  V30 720 O 71.0946 1.60802 -1.027 0
M  V30 721 C 68.2346 2.6342 -2.22944 0
M  V30 722 C 67.3476 2.52912 -3.50228 0
M  V30 723 C 66.4826 3.80106 -3.7107 0
M  V30 724 C 65.5216 3.64279 -4.91902 0
M  V30 725 N 64.6586 4.834 -5.09184 0
M  V30 726 H 69.4986 0.975305 -2.81588 0
M  V30 727 H 67.0356 0.470299 -1.39379 0
M  V30 728 H 68.9936 3.41869 -2.39126 0
M  V30 729 H 67.6236 2.92687 -1.36139 0
M  V30 730 H 66.6756 1.6595 -3.42294 0
M  V30 731 H 67.9876 2.37133 -4.38827 0
M  V30 732 H 67.1416 4.66999 -3.87295 0
M  V30 733 H 65.8806 3.98799 -2.80733 0
M  V30 734 H 64.8856 2.7577 -4.75637 0
M  V30 735 H 66.1106 3.47067 -5.83714 0
M  V30 736 H 64.0566 5.02425 -4.21788 0
M  V30 737 H 63.9736 4.70311 -5.91898 0
M  V30 738 H 65.2416 5.71747 -5.29835 0
M  V30 739 N 69.4707 1.49531 0.497807 0
M  V30 740 C 70.4037 1.61043 1.6168 0
M  V30 741 C 71.3817 0.459386 1.55976 0
M  V30 742 O 72.5657 0.675358 1.75986 0
M  V30 743 C 69.6927 1.56833 3.00202 0
M  V30 744 C 68.7387 2.77173 3.24156 0
M  V30 745 S 69.5717 4.38808 3.06933 0
M  V30 746 C 70.7277 4.37248 4.47845 0
M  V30 747 H 70.9607 2.55702 1.51671 0
M  V30 748 H 68.4937 1.38462 0.683201 0
M  V30 749 H 70.4517 1.55089 3.80076 0
M  V30 750 H 69.1127 0.634561 3.07623 0
M  V30 751 H 68.3057 2.70456 4.25288 0
M  V30 752 H 67.9077 2.76346 2.5201 0
M  V30 753 H 70.1997 4.09164 5.39992 0
M  V30 754 H 71.1427 5.38668 4.59612 0
M  V30 755 H 71.5507 3.67286 4.28674 0
M  V30 756 N 70.9488 -0.749086 1.3866 0
M  V30 757 C 72.1788 -1.53611 1.38157 0
M  V30 758 C 72.5868 -1.89177 -0.0293595 0
M  V30 759 O 71.9298 -1.53606 -1.00752 0
M  V30 760 C 71.9918 -2.86087 2.17702 0
M  V30 761 C 71.6558 -2.73034 3.66472 0
M  V30 762 C 72.6528 -2.42526 4.59866 0
M  V30 763 C 70.3378 -2.90345 4.09884 0
M  V30 764 C 72.3318 -2.29492 5.94653 0
M  V30 765 C 70.0188 -2.7693 5.4475 0
M  V30 766 C 71.0168 -2.46547 6.36949 0
M  V30 767 O 70.7048 -2.33199 7.69333 0
M  V30 768 H 70.4368 -0.481773 0.474205 0
M  V30 769 H 72.9908 -0.934465 1.82912 0
M  V30 770 H 71.2208 -3.48458 1.67672 0
M  V30 771 H 72.9098 -3.47625 2.09551 0
M  V30 772 H 73.6758 -2.28816 4.27631 0
M  V30 773 H 69.5548 -3.1299 3.38464 0
M  V30 774 H 73.0988 -2.05698 6.66584 0
M  V30 775 H 68.9958 -2.90215 5.76581 0
M  V30 776 H 69.7638 -2.48376 7.79905 0
M  V30 777 N 72.4269 -1.23603 -0.977757 0
M  V30 778 C 73.3899 -1.02069 -2.05218 0
M  V30 779 C 74.3899 0.0184305 -1.60789 0
M  V30 780 O 75.5799 -0.221569 -1.72785 0
M  V30 781 C 72.7119 -0.544926 -3.36517 0
M  V30 782 H 73.9049 -1.9742 -2.25755 0
M  V30 783 H 71.4579 -1.05684 -1.15155 0
M  V30 784 H 72.1929 0.412241 -3.21669 0
M  V30 785 H 71.9779 -1.2948 -3.70105 0
M  V30 786 H 73.4679 -0.414985 -4.15533 0
M  V30 787 N 73.905 1.17692 -1.04816 0
M  V30 788 C 74.838 2.20436 -0.590173 0
M  V30 789 C 75.816 1.58115 0.379244 0
M  V30 790 O 77 1.86228 0.291762 0
M  V30 791 C 74.127 3.38424 0.136817 0
M  V30 792 C 73.173 4.19176 -0.787023 0
M  V30 793 S 74.006 4.84815 -2.27409 0
M  V30 794 C 75.162 6.06195 -1.55817 0
M  V30 795 H 75.395 2.58944 -1.46067 0
M  V30 796 H 72.928 1.28246 -0.859784 0
M  V30 797 H 74.886 4.06798 0.550076 0
M  V30 798 H 73.547 2.98312 0.983299 0
M  V30 799 H 72.74 5.03499 -0.224681 0
M  V30 800 H 72.342 3.56219 -1.13947 0
M  V30 801 H 74.634 6.72078 -0.855387 0
M  V30 802 H 75.577 6.6695 -2.37873 0
M  V30 803 H 75.985 5.54701 -1.04722 0
M  V30 804 N 75.3831 0.828654 1.34056 0
M  V30 805 C 76.3301 0.252567 2.29414 0
M  V30 806 C 77.3001 -0.62588 1.53857 0
M  V30 807 O 78.4851 -0.566312 1.82202 0
M  V30 808 C 75.6251 -0.574831 3.40279 0
M  V30 809 C 74.7381 0.326499 4.30764 0
M  V30 810 C 73.8731 -0.511016 5.28736 0
M  V30 811 C 72.9121 0.389342 6.1086 0
M  V30 812 N 72.0491 -0.409439 7.00905 0
M  V30 813 H 76.8891 1.07108 2.78086 0
M  V30 814 H 74.4261 0.539677 1.36843 0
M  V30 815 H 76.3841 -1.06992 4.03248 0
M  V30 816 H 75.0141 -1.35841 2.92826 0
M  V30 817 H 74.0661 0.939837 3.68607 0
M  V30 818 H 75.3781 1.01857 4.88289 0
M  V30 819 H 74.5321 -1.07035 5.97184 0
M  V30 820 H 73.2711 -1.23657 4.71763 0
M  V30 821 H 72.2761 0.960769 5.4134 0
M  V30 822 H 73.5011 1.1131 6.69916 0
M  V30 823 H 71.4471 -1.11856 6.46393 0
M  V30 824 H 71.3641 0.224126 7.55668 0
M  V30 825 H 72.6321 -0.951336 7.73673 0
M  V30 826 N 76.8612 -1.46375 0.584142 0
M  V30 827 C 78.0912 -2.06461 0.0758195 0
M  V30 828 C 78.4992 -1.43322 -1.23512 0
M  V30 829 O 77.8422 -0.533216 -1.75791 0
M  V30 830 C 77.9042 -3.59131 -0.162773 0
M  V30 831 C 77.5682 -4.4447 1.06279 0
M  V30 832 C 78.5652 -4.80918 1.97519 0
M  V30 833 C 76.2502 -4.85584 1.28504 0
M  V30 834 C 78.2442 -5.57309 3.09331 0
M  V30 835 C 75.9312 -5.61734 2.4062 0
M  V30 836 C 76.9292 -5.9751 3.30863 0
M  V30 837 O 76.6172 -6.72121 4.41032 0
M  V30 838 H 76.3492 -0.673745 0.0551725 0
M  V30 839 H 78.9032 -1.88969 0.804984 0
M  V30 840 H 77.1332 -3.74936 -0.946565 0
M  V30 841 H 78.8222 -4.0114 -0.619782 0
M  V30 842 H 79.5882 -4.49732 1.81565 0
M  V30 843 H 75.4672 -4.57187 0.591702 0
M  V30 844 H 79.0112 -5.85152 3.79793 0
M  V30 845 H 74.9082 -5.92334 2.56537 0
M  V30 846 H 75.6762 -6.90547 4.39417 0
M  V30 847 N 78.3393 -0.321999 -1.54275 0
M  V30 848 C 79.2723 0.58718 -2.20516 0
M  V30 849 C 80.2503 1.11693 -1.18167 0
M  V30 850 O 81.4343 1.18122 -1.46899 0
M  V30 851 C 78.5613 1.80554 -2.86562 0
M  V30 852 C 77.6073 1.40718 -4.02617 0
M  V30 853 S 78.4403 0.445218 -5.33646 0
M  V30 854 C 79.5963 1.6709 -6.03185 0
M  V30 855 H 79.8293 0.0244875 -2.9729 0
M  V30 856 H 77.3623 -0.106087 -1.54035 0
M  V30 857 H 79.3203 2.50462 -3.25237 0
M  V30 858 H 77.9813 2.33942 -2.09595 0
M  V30 859 H 77.1743 2.31501 -4.47687 0
M  V30 860 H 76.7763 0.78782 -3.65608 0
M  V30 861 H 79.0683 2.60856 -6.25268 0
M  V30 862 H 80.0113 1.26239 -6.96756 0
M  V30 863 H 80.4193 1.85716 -5.33076 0
M  V30 864 N 79.8174 1.5752 -0.0501392 0
M  V30 865 C 80.7654 2.12651 0.942459 0
M  V30 866 C 81.7594 1.05807 1.32292 0
M  V30 867 O 82.9654 1.24217 1.3027 0
M  V30 868 H 79.3404 0.679673 0.321789 0
M  V30 869 H 81.3114 2.94951 0.452356 0
M  V30 870 C 80.0604 2.68565 2.20836 0
M  V30 871 H 79.3834 3.50439 1.92439 0
M  V30 872 H 80.8234 3.10761 2.8845 0
M  V30 873 C 79.2824 1.62291 2.95234 0
M  V30 874 O 79.8124 1.03508 3.88135 0
M  V30 875 N 78.0184 1.33836 2.57946 0
M  V30 876 H 77.5654 1.81826 1.82475 0
M  V30 877 H 77.5234 0.629595 3.08032 0
M  V30 878 N 81.2955 -0.223234 1.56011 0
M  V30 879 C 82.2425 -1.27664 1.92277 0
M  V30 880 C 83.2125 -1.46659 0.779763 0
M  V30 881 O 84.3975 -1.60256 1.03551 0
M  V30 882 C 81.5375 -2.62234 2.24338 0
M  V30 883 C 80.6505 -2.51051 3.51564 0
M  V30 884 C 79.7855 -3.78133 3.7308 0
M  V30 885 C 78.8245 -3.61665 4.93827 0
M  V30 886 N 77.9615 -4.80693 5.11741 0
M  V30 887 H 82.8015 -0.960358 2.82101 0
M  V30 888 H 80.3385 -0.462901 1.39627 0
M  V30 889 H 82.2965 -3.40596 2.40936 0
M  V30 890 H 80.9265 -2.91961 1.3769 0
M  V30 891 H 79.9785 -1.64132 3.43169 0
M  V30 892 H 81.2905 -2.34803 4.40079 0
M  V30 893 H 80.4445 -4.64938 3.89766 0
M  V30 894 H 79.1835 -3.97304 2.82844 0
M  V30 895 H 78.1885 -2.73244 4.77093 0
M  V30 896 H 79.4135 -3.43966 5.85546 0
M  V30 897 H 77.3595 -5.00181 4.24446 0
M  V30 898 H 77.2765 -4.67165 5.94384 0
M  V30 899 H 78.5445 -5.6893 5.3286 0
M  V30 900 N 82.7736 -1.49793 -0.48987 0
M  V30 901 C 83.7056 -1.63413 -1.60713 0
M  V30 902 C 84.7186 -0.516329 -1.54395 0
M  V30 903 O 85.9076 -0.788812 -1.60125 0
M  V30 904 C 83.0076 -1.58516 -2.99543 0
M  V30 905 C 82.1806 -2.86016 -3.30928 0
M  V30 906 C 81.2396 -2.74018 -4.49222 0
M  V30 907 O 80.2656 -3.47964 -4.50455 0
M  V30 908 N 81.4676 -1.86309 -5.4979 0
M  V30 909 H 84.2326 -2.59777 -1.49452 0
M  V30 910 H 81.7936 -1.47022 -0.677955 0
M  V30 911 H 83.7856 -1.48128 -3.76617 0
M  V30 912 H 82.3556 -0.69965 -3.0467 0
M  V30 913 H 81.5756 -3.10672 -2.42645 0
M  V30 914 H 82.8636 -3.70521 -3.487 0
M  V30 915 H 82.2616 -1.2551 -5.51601 0
M  V30 916 H 80.8186 -1.81837 -6.25922 0
M  V30 917 N 84.2517 0.741722 -1.39055 0
M  V30 918 C 85.1987 1.85566 -1.37237 0
M  V30 919 C 86.1687 1.64457 -0.233072 0
M  V30 920 O 87.3537 1.85957 -0.427147 0
M  V30 921 C 84.4937 3.23004 -1.215 0
M  V30 922 C 83.6067 3.55864 -2.44918 0
M  V30 923 C 82.7417 4.82669 -2.21821 0
M  V30 924 C 81.7807 5.08351 -3.40948 0
M  V30 925 N 80.9177 6.26356 -3.17211 0
M  V30 926 H 85.7577 1.86455 -2.32462 0
M  V30 927 H 83.2947 0.911176 -1.15482 0
M  V30 928 H 85.2527 4.02331 -1.10389 0
M  V30 929 H 83.8827 3.21411 -0.29908 0
M  V30 930 H 82.9347 2.7129 -2.66657 0
M  V30 931 H 84.2467 3.70765 -3.33668 0
M  V30 932 H 83.4007 5.69962 -2.07914 0
M  V30 933 H 82.1397 4.69929 -1.30454 0
M  V30 934 H 81.1447 4.19522 -3.55361 0
M  V30 935 H 82.3697 5.22981 -4.33207 0
M  V30 936 H 80.3157 6.14917 -2.28502 0
M  V30 937 H 80.2327 6.41813 -3.99515 0
M  V30 938 H 81.5007 7.16506 -3.06984 0
M  V30 939 N 85.7298 1.2412 0.971189 0
M  V30 940 C 86.9698 1.09066 1.7287 0
M  V30 941 C 87.3338 -0.364794 1.88503 0
M  V30 942 O 88.5348 -0.636748 2.61149 0
M  V30 943 C 86.8058 1.80629 3.08396 0
M  V30 944 S 88.3648 1.81263 3.99611 0
M  V30 945 H 85.1828 0.390145 0.594397 0
M  V30 946 H 87.7848 1.57397 1.15959 0
M  V30 947 H 86.4888 2.85647 2.94676 0
M  V30 948 H 86.0198 1.32617 3.70373 0
M  V30 949 H 88.0348 0.877804 4.88374 0
M  V30 950 N 87.2079 -1.17134 1.05439 0
M  V30 951 C 88.4539 -1.87733 0.767077 0
M  V30 952 C 88.7869 -1.8098 -0.704253 0
M  V30 953 O 88.0619 -1.21951 -1.5152 0
M  V30 954 C 88.3449 -3.37659 1.25133 0
M  V30 955 C 88.1979 -3.53149 2.78578 0
M  V30 956 C 89.5169 -4.31768 0.852324 0
M  V30 957 H 86.6359 -0.681687 0.280129 0
M  V30 958 H 89.2779 -1.37732 1.30881 0
M  V30 959 H 87.4279 -3.80373 0.790469 0
M  V30 960 H 89.0999 -3.19434 3.32806 0
M  V30 961 H 87.3429 -2.95345 3.17732 0
M  V30 962 H 88.0139 -4.58403 3.07523 0
M  V30 963 H 90.4899 -3.96909 1.24911 0
M  V30 964 H 89.3659 -5.35199 1.21873 0
M  V30 965 H 89.6269 -4.41429 -0.243485 0
M  V30 966 N 88.686 -0.835752 -1.33615 0
M  V30 967 C 89.596 -0.269088 -2.33052 0
M  V30 968 C 90.612 0.603251 -1.63208 0
M  V30 969 O 91.788 0.508112 -1.94885 0
M  V30 970 C 88.853 0.549091 -3.42324 0
M  V30 971 C 87.914 -0.347156 -4.27894 0
M  V30 972 C 87.147 0.43207 -5.31948 0
M  V30 973 O 87.37 1.66409 -5.45586 0
M  V30 974 O 86.304 -0.192298 -6.01593 0
M  V30 975 H 90.13 -1.09243 -2.83372 0
M  V30 976 H 87.715 -0.598198 -1.36901 0
M  V30 977 H 89.597 1.01414 -4.09015 0
M  V30 978 H 88.272 1.34955 -2.94226 0
M  V30 979 H 87.179 -0.859979 -3.64081 0
M  V30 980 H 88.512 -1.1123 -4.79467 0
M  V30 981 N 90.1641 1.46063 -0.591896 0
M  V30 982 C 91.5801 1.57561 -0.254288 0
M  V30 983 C 91.7801 1.58565 1.24336 0
M  V30 984 O 90.8361 1.50753 2.02558 0
M  V30 985 C 92.1491 2.86549 -0.911611 0
M  V30 986 C 93.6971 3.00197 -0.886059 0
M  V30 987 C 94.1721 4.31933 -1.5231 0
M  V30 988 N 95.6631 4.38654 -1.48786 0
M  V30 989 C 96.3981 5.39222 -1.95006 0
M  V30 990 N 95.8941 6.46414 -2.49241 0
M  V30 991 N 97.6871 5.3048 -1.85868 0
M  V30 992 H 89.8381 1.43655 -1.56451 0
M  V30 993 H 92.1011 0.68583 -0.654478 0
M  V30 994 H 91.8071 2.91651 -1.96551 0
M  V30 995 H 91.6811 3.74794 -0.425368 0
M  V30 996 H 94.0681 2.9467 0.159246 0
M  V30 997 H 94.1491 2.13403 -1.41041 0
M  V30 998 H 93.7931 4.38217 -2.56765 0
M  V30 999 H 93.7231 5.17516 -0.973891 0
M  V30 1000 H 96.2141 3.61793 -1.09151 0
M  V30 1001 H 96.5271 7.19376 -2.82344 0
M  V30 1002 H 94.8721 6.47208 -2.53272 0
M  V30 1003 H 98.0631 4.45643 -1.43248 0
M  V30 1004 H 98.2361 6.08711 -2.22204 0
M  V30 1005 N 91.6422 0.330177 1.54103 0
M  V30 1006 C 92.5902 -0.548226 2.26047 0
M  V30 1007 C 93.5842 -1.11309 1.27698 0
M  V30 1008 O 94.7902 -1.06036 1.45452 0
M  V30 1009 H 91.1652 -0.195456 0.726155 0
M  V30 1010 H 93.1362 0.0807567 2.98291 0
M  V30 1011 C 91.8852 -1.69415 3.03634 0
M  V30 1012 H 91.2082 -1.26876 3.79134 0
M  V30 1013 H 92.6482 -2.28423 3.5721 0
M  V30 1014 C 91.1072 -2.61569 2.12328 0
M  V30 1015 O 91.6372 -3.63462 1.7105 0
M  V30 1016 N 89.8432 -2.29952 1.77681 0
M  V30 1017 H 89.3902 -1.47134 2.11446 0
M  V30 1018 H 89.3482 -2.91871 1.16869 0
M  V30 1019 N 93.1203 -1.57491 0.0584922 0
M  V30 1020 C 94.0303 -2.15448 -0.928414 0
M  V30 1021 C 95.0463 -1.11416 -1.3365 0
M  V30 1022 O 96.2223 -1.4362 -1.41193 0
M  V30 1023 C 93.2873 -2.69393 -2.18239 0
M  V30 1024 C 92.3483 -3.88249 -1.83196 0
M  V30 1025 C 91.5813 -4.39613 -3.02616 0
M  V30 1026 O 91.8043 -3.90023 -4.16219 0
M  V30 1027 O 90.7383 -5.31111 -2.83204 0
M  V30 1028 H 94.5643 -3.00112 -0.465483 0
M  V30 1029 H 92.1493 -1.48499 -0.163826 0
M  V30 1030 H 94.0313 -3.04026 -2.91798 0
M  V30 1031 H 92.7063 -1.87796 -2.63656 0
M  V30 1032 H 91.6133 -3.58492 -1.06931 0
M  V30 1033 H 92.9463 -4.71098 -1.42573 0
M  V30 1034 N 94.5984 0.214957 -1.56127 0
M  V30 1035 C 95.8444 0.939762 -1.79712 0
M  V30 1036 C 96.1774 1.83723 -0.629247 0
M  V30 1037 O 95.4524 1.90925 0.371197 0
M  V30 1038 C 95.7354 1.77306 -3.13424 0
M  V30 1039 C 95.5884 0.90164 -4.40671 0
M  V30 1040 C 96.9074 2.74956 -3.43638 0
M  V30 1041 H 94.0264 0.340214 -0.653776 0
M  V30 1042 H 96.6684 0.20824 -1.88855 0
M  V30 1043 H 94.8184 2.39673 -3.0576 0
M  V30 1044 H 96.4904 0.294206 -4.60361 0
M  V30 1045 H 94.7334 0.207368 -4.33304 0
M  V30 1046 H 95.4044 1.51923 -5.30682 0
M  V30 1047 H 97.8804 2.22724 -3.51473 0
M  V30 1048 H 96.7564 3.30358 -4.38355 0
M  V30 1049 H 97.0174 3.53023 -2.66134 0
M  V30 1050 N 96.0765 1.50051 0.48192 0
M  V30 1051 C 97.4925 1.37237 0.814756 0
M  V30 1052 C 97.6925 0.420109 1.97072 0
M  V30 1053 O 96.7485 -0.141246 2.52105 0
M  V30 1054 C 98.0615 2.78375 1.13701 0
M  V30 1055 C 99.6095 2.87213 1.2441 0
M  V30 1056 C 100.084 4.29161 1.59954 0
M  V30 1057 N 101.575 4.32061 1.66967 0
M  V30 1058 C 102.31 5.38879 1.95952 0
M  V30 1059 N 101.806 6.55918 2.23031 0
M  V30 1060 N 103.599 5.26312 1.97363 0
M  V30 1061 H 95.7505 2.10546 -0.28005 0
M  V30 1062 H 98.0135 0.945921 -0.0627454 0
M  V30 1063 H 97.7195 3.49845 0.360787 0
M  V30 1064 H 97.5935 3.14941 2.07586 0
M  V30 1065 H 99.9805 2.15969 2.01101 0
M  V30 1066 H 100.061 2.54204 0.285299 0
M  V30 1067 H 99.7055 5.00938 0.838067 0
M  V30 1068 H 99.6355 4.59648 2.56966 0
M  V30 1069 H 102.126 3.47661 1.48123 0
M  V30 1070 H 102.439 7.33139 2.44391 0
M  V30 1071 H 100.784 6.59112 2.20447 0
M  V30 1072 H 103.975 4.33876 1.75697 0
M  V30 1073 H 104.148 6.09649 2.19618 0
M  V30 1074 N 97.5546 -0.734337 1.39446 0
M  V30 1075 C 98.5026 -1.86971 1.38364 0
M  V30 1076 C 99.4966 -1.67288 0.266687 0
M  V30 1077 O 100.703 -1.74621 0.436755 0
M  V30 1078 H 97.0776 -0.615474 0.432082 0
M  V30 1079 H 99.0486 -1.85 2.34132 0
M  V30 1080 C 97.7976 -3.2466 1.24465 0
M  V30 1081 H 97.1206 -3.40402 2.09682 0
M  V30 1082 H 98.5606 -4.04292 1.27764 0
M  V30 1083 C 97.0196 -3.36867 -0.0468674 0
M  V30 1084 O 97.5496 -3.88618 -1.01681 0
M  V30 1085 N 95.7556 -2.90391 -0.110145 0
M  V30 1086 H 95.3026 -2.48466 0.679868 0
M  V30 1087 H 95.2606 -2.98939 -0.973799 0
M  V30 1088 N 99.0327 -1.24633 -0.964593 0
M  V30 1089 C 100.279 -1.08949 -1.71049 0
M  V30 1090 C 100.612 0.370302 -1.90637 0
M  V30 1091 O 99.8867 1.27349 -1.47011 0
M  V30 1092 C 100.17 -1.83329 -3.0994 0
M  V30 1093 C 100.023 -3.37077 -2.97824 0
M  V30 1094 C 101.342 -1.60846 -4.09654 0
M  V30 1095 H 98.4607 -0.397178 -0.620821 0
M  V30 1096 H 101.103 -1.5334 -1.12191 0
M  V30 1097 H 99.2527 -1.45597 -3.60186 0
M  V30 1098 H 100.925 -3.84425 -2.5498 0
M  V30 1099 H 99.1677 -3.65298 -2.33965 0
M  V30 1100 H 99.8387 -3.84324 -3.96231 0
M  V30 1101 H 102.315 -1.93674 -3.68279 0
M  V30 1102 H 101.191 -2.1534 -5.04896 0
M  V30 1103 H 101.452 -0.547434 -4.38698 0
M  V30 1104 N 100.511 1.16574 -1.06058 0
M  V30 1105 C 101.758 1.87047 -0.775873 0
M  V30 1106 C 102.086 1.81562 0.697534 0
M  V30 1107 O 101.341 1.22445 1.52662 0
M  V30 1108 C 101.64 3.36195 -1.21275 0
M  V30 1109 C 101.306 3.6188 -2.68986 0
M  V30 1110 C 99.9678 3.68599 -3.09335 0
M  V30 1111 C 102.32 3.72648 -3.64394 0
M  V30 1112 C 99.6478 3.83584 -4.43937 0
M  V30 1113 C 102 3.89154 -4.98741 0
M  V30 1114 C 100.664 3.94114 -5.3873 0
M  V30 1115 H 99.9338 0.684452 -0.283912 0
M  V30 1116 H 102.581 1.37853 -1.32925 0
M  V30 1117 H 100.886 3.87505 -0.578528 0
M  V30 1118 H 102.583 3.89103 -0.969542 0
M  V30 1119 H 99.1728 3.57281 -2.36744 0
M  V30 1120 H 103.357 3.66769 -3.34356 0
M  V30 1121 H 98.6128 3.85677 -4.74409 0
M  V30 1122 H 102.787 3.96427 -5.72554 0
M  V30 1123 H 100.414 4.05478 -6.43033 0
M  V30 1124 N 101.989 0.842826 1.3317 0
M  V30 1125 C 102.936 0.276885 2.29133 0
M  V30 1126 C 103.906 -0.609527 1.54512 0
M  V30 1127 O 105.091 -0.546955 1.82792 0
M  V30 1128 C 102.231 -0.538707 3.40869 0
M  V30 1129 C 101.344 0.372169 4.30394 0
M  V30 1130 C 100.479 -0.454908 5.29249 0
M  V30 1131 C 99.5179 0.45411 6.10413 0
M  V30 1132 N 98.6549 -0.335075 7.013 0
M  V30 1133 H 103.495 1.10052 2.76934 0
M  V30 1134 H 101.032 0.554161 1.36262 0
M  V30 1135 H 102.99 -1.02709 4.0436 0
M  V30 1136 H 101.62 -1.32727 2.9425 0
M  V30 1137 H 100.672 0.97888 3.6759 0
M  V30 1138 H 101.984 1.0703 4.87182 0
M  V30 1139 H 101.138 -1.00695 5.98285 0
M  V30 1140 H 99.8769 -1.18646 4.73048 0
M  V30 1141 H 98.8819 1.01813 5.40291 0
M  V30 1142 H 100.107 1.18409 6.68697 0
M  V30 1143 H 98.0529 -1.04994 6.47543 0
M  V30 1144 H 97.9699 0.304262 7.55387 0
M  V30 1145 H 99.2379 -0.869224 7.74638 0
M  V30 1146 N 103.467 -1.45747 0.599634 0
M  V30 1147 C 104.377 -2.34262 -0.125888 0
M  V30 1148 C 105.393 -1.50768 -0.868625 0
M  V30 1149 O 106.569 -1.83592 -0.828003 0
M  V30 1150 C 103.634 -3.28252 -1.11587 0
M  V30 1151 C 102.695 -4.27651 -0.375956 0
M  V30 1152 C 101.928 -5.1715 -1.31877 0
M  V30 1153 O 102.151 -5.09916 -2.55621 0
M  V30 1154 O 101.085 -5.96286 -0.820157 0
M  V30 1155 H 104.911 -2.97688 0.601315 0
M  V30 1156 H 102.496 -1.44999 0.359934 0
M  V30 1157 H 104.378 -3.86191 -1.68626 0
M  V30 1158 H 103.053 -2.67401 -1.82424 0
M  V30 1159 H 101.96 -3.7335 0.236698 0
M  V30 1160 H 103.293 -4.91334 0.29177 0
M  V30 1161 N 104.945 -0.338344 -1.53925 0
M  V30 1162 C 105.875 0.51328 -2.27789 0
M  V30 1163 C 106.856 1.107 -1.29149 0
M  V30 1164 O 108.041 1.12937 -1.57984 0
M  V30 1165 C 105.171 1.66697 -3.04679 0
M  V30 1166 C 104.125 1.20183 -4.1078 0
M  V30 1167 C 103.451 2.44363 -4.75595 0
M  V30 1168 C 104.751 0.30605 -5.21403 0
M  V30 1169 H 106.445 -0.102883 -2.99223 0
M  V30 1170 H 103.991 -0.0509219 -1.4391 0
M  V30 1171 H 105.944 2.26915 -3.55088 0
M  V30 1172 H 104.668 2.30995 -2.30887 0
M  V30 1173 H 103.327 0.622499 -3.61276 0
M  V30 1174 H 102.975 3.07057 -3.98403 0
M  V30 1175 H 102.675 2.13925 -5.47275 0
M  V30 1176 H 104.199 3.05317 -5.28786 0
M  V30 1177 H 105.613 0.814929 -5.67478 0
M  V30 1178 H 104.01 0.0937929 -6.00027 0
M  V30 1179 H 105.08 -0.65921 -4.80398 0
M  V30 1180 N 106.423 1.57458 -0.0668435 0
M  V30 1181 C 107.355 2.09413 0.931601 0
M  V30 1182 C 108.368 1.02522 1.26464 0
M  V30 1183 O 109.557 1.30049 1.22269 0
M  V30 1184 C 106.657 2.53537 2.24882 0
M  V30 1185 C 105.83 3.83944 2.09537 0
M  V30 1186 C 104.889 4.14214 3.2452 0
M  V30 1187 O 103.915 4.83891 2.9973 0
M  V30 1188 N 105.117 3.67367 4.49469 0
M  V30 1189 H 107.882 2.95699 0.488048 0
M  V30 1190 H 105.443 1.61462 0.119009 0
M  V30 1191 H 107.435 2.70853 3.00701 0
M  V30 1192 H 106.005 1.72415 2.60753 0
M  V30 1193 H 105.225 3.76057 1.18215 0
M  V30 1194 H 106.513 4.69312 1.96529 0
M  V30 1195 H 105.911 3.11068 4.72497 0
M  V30 1196 H 104.468 3.89891 5.2233 0
M  V30 1197 N 107.901 -0.206675 1.56239 0
M  V30 1198 C 109.15 -0.926964 1.79138 0
M  V30 1199 C 109.463 -1.84901 0.638043 0
M  V30 1200 O 110.669 -2.60906 0.751033 0
M  V30 1201 C 109.125 -1.6986 3.17294 0
M  V30 1202 C 108.733 -0.821956 4.40395 0
M  V30 1203 C 110.477 -2.40922 3.4951 0
M  V30 1204 C 108.384 -1.59179 5.69575 0
M  V30 1205 H 107.314 -0.349864 0.667915 0
M  V30 1206 H 109.965 -0.180487 1.8261 0
M  V30 1207 H 108.347 -2.48853 3.08039 0
M  V30 1208 H 109.521 -0.0715019 4.60745 0
M  V30 1209 H 107.836 -0.222741 4.15804 0
M  V30 1210 H 110.433 -2.99047 4.43255 0
M  V30 1211 H 110.776 -3.14542 2.72707 0
M  V30 1212 H 111.309 -1.68905 3.60161 0
M  V30 1213 H 108.048 -0.898589 6.49312 0
M  V30 1214 H 107.568 -2.31648 5.53262 0
M  V30 1215 H 109.247 -2.14862 6.10281 0
M  V30 1216 N 109.379 -1.50304 -0.473955 0
M  V30 1217 C 110.312 -1.63595 -1.59097 0
M  V30 1218 C 111.29 -0.484142 -1.55225 0
M  V30 1219 O 112.474 -0.703271 -1.7489 0
M  V30 1220 C 109.601 -1.61589 -2.97669 0
M  V30 1221 C 108.647 -2.82295 -3.19705 0
M  V30 1222 S 109.48 -4.43635 -2.99913 0
M  V30 1223 C 110.636 -4.44317 -4.40832 0
M  V30 1224 H 110.869 -2.58082 -1.47583 0
M  V30 1225 H 108.402 -1.39531 -0.661087 0
M  V30 1226 H 110.36 -1.61116 -3.7756 0
M  V30 1227 H 109.021 -0.683421 -3.06575 0
M  V30 1228 H 108.214 -2.77188 -4.20931 0
M  V30 1229 H 107.816 -2.8032 -2.47582 0
M  V30 1230 H 110.108 -4.17703 -5.33414 0
M  V30 1231 H 111.051 -5.45911 -4.50984 0
M  V30 1232 H 111.459 -3.74059 -4.22777 0
M  V30 1233 N 110.857 0.726932 -1.39834 0
M  V30 1234 C 111.789 1.85147 -1.35104 0
M  V30 1235 C 112.802 1.60736 -0.258392 0
M  V30 1236 O 113.991 1.70821 -0.517931 0
M  V30 1237 C 111.091 3.21332 -1.07697 0
M  V30 1238 C 110.264 3.73033 -2.28396 0
M  V30 1239 C 109.323 4.87802 -1.97322 0
M  V30 1240 O 108.349 5.01043 -2.70083 0
M  V30 1241 N 109.551 5.72768 -0.944273 0
M  V30 1242 H 112.316 1.89706 -2.32017 0
M  V30 1243 H 109.877 0.908006 -1.3404 0
M  V30 1244 H 111.869 3.95691 -0.849144 0
M  V30 1245 H 110.439 3.11992 -0.194909 0
M  V30 1246 H 109.659 2.89934 -2.6708 0
M  V30 1247 H 110.947 4.0431 -3.08887 0
M  V30 1248 H 110.345 5.64669 -0.341427 0
M  V30 1249 H 108.902 6.4716 -0.776346 0
M  V30 1250 N 112.336 1.25143 0.95797 0
M  V30 1251 C 113.584 1.09476 1.69881 0
M  V30 1252 C 113.905 -0.365502 1.91544 0
M  V30 1253 O 113.175 -1.25985 1.50015 0
M  V30 1254 H 111.755 0.402128 0.629525 0
M  V30 1255 H 114.417 1.57214 1.15194 0
M  V30 1256 H 113.513 1.60046 2.6794 0
M  V30 1257 N 113.814 -1.1601 1.06675 0
M  V30 1258 C 114.744 -2.22688 0.702307 0
M  V30 1259 C 115.725 -1.67306 -0.307032 0
M  V30 1260 O 116.91 -1.93352 -0.181305 0
M  V30 1261 C 114.04 -3.47178 0.092038 0
M  V30 1262 C 112.994 -4.15477 1.02777 0
M  V30 1263 C 112.32 -5.33963 0.28061 0
M  V30 1264 C 113.62 -4.66019 2.35846 0
M  V30 1265 H 115.314 -2.53429 1.59419 0
M  V30 1266 H 112.86 -1.21813 0.767961 0
M  V30 1267 H 114.813 -4.21037 -0.174814 0
M  V30 1268 H 113.537 -3.15749 -0.834877 0
M  V30 1269 H 112.196 -3.43549 1.27944 0
M  V30 1270 H 111.844 -4.98788 -0.649545 0
M  V30 1271 H 111.544 -5.806 0.904258 0
M  V30 1272 H 113.068 -6.10596 0.021396 0
M  V30 1273 H 114.482 -5.3144 2.15045 0
M  V30 1274 H 112.879 -5.23293 2.93743 0
M  V30 1275 H 113.949 -3.82023 2.98641 0
M  V30 1276 N 115.292 -0.849877 -1.32721 0
M  V30 1277 C 116.202 -0.293791 -2.32753 0
M  V30 1278 C 117.218 0.585906 -1.63839 0
M  V30 1279 O 118.394 0.487413 -1.95413 0
M  V30 1280 C 115.459 0.512752 -3.42887 0
M  V30 1281 C 114.52 -0.39252 -4.27502 0
M  V30 1282 C 113.753 0.375625 -5.32377 0
M  V30 1283 O 113.976 1.60613 -5.4732 0
M  V30 1284 O 112.91 -0.256094 -6.01355 0
M  V30 1285 H 116.736 -1.12242 -2.82197 0
M  V30 1286 H 114.321 -0.612685 -1.36259 0
M  V30 1287 H 116.203 0.970704 -4.10067 0
M  V30 1288 H 114.878 1.31826 -2.95641 0
M  V30 1289 H 113.785 -0.898547 -3.63149 0
M  V30 1290 H 115.118 -1.16309 -4.7826 0
M  V30 1291 N 116.77 1.45427 -0.607355 0
M  V30 1292 C 117.72 2.27612 0.133038 0
M  V30 1293 C 118.704 1.37307 0.838785 0
M  V30 1294 O 119.896 1.61299 0.728813 0
M  V30 1295 C 117.025 3.24173 1.12991 0
M  V30 1296 C 116.111 4.21965 0.425011 0
M  V30 1297 N 116.502 5.02982 -0.533217 0
M  V30 1298 C 114.8 4.40899 0.672593 0
M  V30 1299 C 115.501 5.73931 -0.947518 0
M  V30 1300 N 114.477 5.42819 -0.291321 0
M  V30 1301 H 118.279 2.87649 -0.602935 0
M  V30 1302 H 115.793 1.56576 -0.431006 0
M  V30 1303 H 117.79 3.81783 1.67473 0
M  V30 1304 H 116.45 2.65696 1.86644 0
M  V30 1305 H 117.461 5.09843 -0.90995 0
M  V30 1306 H 114.138 3.93547 1.39382 0
M  V30 1307 H 115.528 6.49037 -1.73782 0
M  V30 1308 N 118.248 0.346503 1.53744 0
M  V30 1309 C 119.659 -0.136779 1.86198 0
M  V30 1310 C 120.01 -1.49749 1.26766 0
M  V30 1311 O 119.135 -2.08417 0.582355 0
M  V30 1312 C 119.73 -0.254966 3.37839 0
M  V30 1313 C 118.289 -0.682482 3.70161 0
M  V30 1314 C 117.436 0.181981 2.76702 0
M  V30 1315 H 120.387 0.565994 1.48264 0
M  V30 1316 H 120.408 -1.08195 3.64793 0
M  V30 1317 H 119.92 0.735526 3.81066 0
M  V30 1318 H 118.021 -1.68189 3.3248 0
M  V30 1319 H 118.134 -0.470326 4.76786 0
M  V30 1320 H 116.498 -0.34615 2.52337 0
M  V30 1321 H 117.281 1.16966 3.2276 0
M  V30 1322 N 119.726 -1.57421 0.075193 0
M  V30 1323 C 120.973 -1.93618 -0.593146 0
M  V30 1324 C 121.301 -0.955484 -1.69413 0
M  V30 1325 O 120.556 0.0283251 -1.9568 0
M  V30 1326 C 120.855 -3.36428 -1.20626 0
M  V30 1327 C 120.521 -4.50307 -0.231078 0
M  V30 1328 C 119.183 -4.81186 0.0371936 0
M  V30 1329 C 121.535 -5.19374 0.435888 0
M  V30 1330 C 118.863 -5.78466 0.979461 0
M  V30 1331 C 121.215 -6.17665 1.3665 0
M  V30 1332 C 119.879 -6.46958 1.6432 0
M  V30 1333 H 119.149 -0.708499 -0.217047 0
M  V30 1334 H 121.796 -1.90937 0.146793 0
M  V30 1335 H 120.101 -3.35592 -2.02201 0
M  V30 1336 H 121.798 -3.61727 -1.73073 0
M  V30 1337 H 118.388 -4.26227 -0.450357 0
M  V30 1338 H 122.572 -4.95711 0.241748 0
M  V30 1339 H 117.828 -5.99487 1.20106 0
M  V30 1340 H 122.002 -6.70284 1.88924 0
M  V30 1341 H 119.629 -7.2215 2.37494 0
M  V30 1342 N 121.204 0.198386 -1.56346 0
M  V30 1343 C 122.134 1.24865 -1.9731 0
M  V30 1344 C 123.115 1.47651 -0.844576 0
M  V30 1345 O 124.3 1.59444 -1.10866 0
M  V30 1346 C 121.43 2.59358 -2.30977 0
M  V30 1347 C 120.384 2.5119 -3.46537 0
M  V30 1348 C 119.71 3.89926 -3.65871 0
M  V30 1349 C 121.01 2.03977 -4.80823 0
M  V30 1350 H 122.704 0.908252 -2.85291 0
M  V30 1351 H 120.25 0.435462 -1.37258 0
M  V30 1352 H 122.203 3.33011 -2.58228 0
M  V30 1353 H 120.927 2.95132 -1.39874 0
M  V30 1354 H 119.586 1.79993 -3.19371 0
M  V30 1355 H 119.234 4.23046 -2.72105 0
M  V30 1356 H 118.934 3.85336 -4.4361 0
M  V30 1357 H 120.458 4.65205 -3.95495 0
M  V30 1358 H 121.872 2.67386 -5.07127 0
M  V30 1359 H 120.269 2.10397 -5.62008 0
M  V30 1360 H 121.339 0.992861 -4.74626 0
M  V30 1361 N 122.682 1.50554 0.465978 0
M  V30 1362 C 123.928 1.62038 1.21949 0
M  V30 1363 C 124.261 0.322116 1.9151 0
M  V30 1364 O 123.536 -0.676723 1.82348 0
M  V30 1365 C 123.819 2.80421 2.25912 0
M  V30 1366 C 123.672 4.20144 1.60622 0
M  V30 1367 C 124.991 2.94354 3.27176 0
M  V30 1368 H 122.11 0.589752 0.441998 0
M  V30 1369 H 124.752 1.82956 0.51257 0
M  V30 1370 H 122.902 2.62717 2.86203 0
M  V30 1371 H 124.574 4.49449 1.03889 0
M  V30 1372 H 122.817 4.24165 0.909211 0
M  V30 1373 H 123.488 4.98914 2.36196 0
M  V30 1374 H 125.964 3.10578 2.76913 0
M  V30 1375 H 124.84 3.788 3.97242 0
M  V30 1376 H 125.101 2.05186 3.916 0
M  V30 1377 N 124.16 -0.719506 1.40217 0
M  V30 1378 C 125.108 -1.85493 1.40339 0
M  V30 1379 C 126.102 -1.66995 0.284415 0
M  V30 1380 O 127.308 -1.74148 0.455252 0
M  V30 1381 H 123.683 -0.610857 0.438586 0
M  V30 1382 H 125.654 -1.82506 2.36081 0
M  V30 1383 C 124.403 -3.23321 1.27901 0
M  V30 1384 H 123.726 -3.38159 2.1328 0
M  V30 1385 H 125.166 -4.02914 1.32045 0
M  V30 1386 C 123.625 -3.36898 -0.0111355 0
M  V30 1387 O 124.155 -3.89674 -0.975538 0
M  V30 1388 N 122.361 -2.90492 -0.0793393 0
M  V30 1389 H 121.908 -2.47731 0.706183 0
M  V30 1390 H 121.866 -2.99955 -0.942038 0
M  V30 1391 N 125.638 -1.25649 -0.95132 0
M  V30 1392 C 126.568 -1.08808 -2.06599 0
M  V30 1393 C 127.549 0.00382547 -1.701 0
M  V30 1394 O 128.734 -0.166325 -1.93486 0
M  V30 1395 C 125.864 -0.709542 -3.39975 0
M  V30 1396 C 124.818 -1.75206 -3.90496 0
M  V30 1397 C 124.144 -1.22811 -5.20405 0
M  V30 1398 C 125.444 -3.15153 -4.16504 0
M  V30 1399 H 127.138 -2.02048 -2.20946 0
M  V30 1400 H 124.684 -0.972835 -1.06169 0
M  V30 1401 H 126.637 -0.578649 -4.17408 0
M  V30 1402 H 125.361 0.258556 -3.25575 0
M  V30 1403 H 124.02 -1.87145 -3.15234 0
M  V30 1404 H 123.668 -0.250145 -5.02378 0
M  V30 1405 H 123.368 -1.92492 -5.55176 0
M  V30 1406 H 124.892 -1.10968 -6.00432 0
M  V30 1407 H 126.306 -3.06349 -4.84586 0
M  V30 1408 H 124.703 -3.82333 -4.62538 0
M  V30 1409 H 125.773 -3.61966 -3.22658 0
M  V30 1410 N 127.117 1.15442 -1.07289 0
M  V30 1411 C 128.363 1.8672 -0.806679 0
M  V30 1412 C 128.718 1.80723 0.660084 0
M  V30 1413 O 128.011 1.21902 1.47819 0
M  V30 1414 C 128.205 3.3489 -1.24834 0
M  V30 1415 C 128.034 3.55313 -2.7565 0
M  V30 1416 C 126.804 3.7082 -3.4325 0
M  V30 1417 C 129.002 3.53188 -3.73848 0
M  V30 1418 N 126.984 3.7929 -4.82713 0
M  V30 1419 C 128.355 3.67765 -4.99149 0
M  V30 1420 C 130.41 3.36459 -3.67015 0
M  V30 1421 C 129.113 3.6734 -6.18428 0
M  V30 1422 C 131.139 3.37333 -4.85758 0
M  V30 1423 C 130.501 3.52438 -6.09891 0
M  V30 1424 H 126.6 0.700433 -0.347733 0
M  V30 1425 H 129.184 1.38441 -1.36902 0
M  V30 1426 H 127.355 3.81786 -0.713713 0
M  V30 1427 H 129.087 3.93875 -0.929745 0
M  V30 1428 H 125.842 3.71568 -2.93656 0
M  V30 1429 H 126.266 3.8727 -5.55294 0
M  V30 1430 H 130.908 3.237 -2.71989 0
M  V30 1431 H 128.626 3.78878 -7.13777 0
M  V30 1432 H 132.212 3.25617 -4.82146 0
M  V30 1433 H 131.092 3.53047 -7.00234 0
M  V30 1434 N 128.595 0.856903 1.32268 0
M  V30 1435 C 129.825 0.47475 2.01071 0
M  V30 1436 C 130.233 -0.933746 1.64553 0
M  V30 1437 O 129.576 -1.62114 0.863989 0
M  V30 1438 C 129.638 0.536746 3.55471 0
M  V30 1439 C 129.302 1.90453 4.15423 0
M  V30 1440 C 130.299 2.87029 4.33486 0
M  V30 1441 C 127.984 2.20229 4.51447 0
M  V30 1442 C 129.978 4.11532 4.86744 0
M  V30 1443 C 127.665 3.44984 5.0441 0
M  V30 1444 C 128.663 4.40452 5.22007 0
M  V30 1445 O 128.351 5.62998 5.73837 0
M  V30 1446 H 128.083 0.184778 0.650256 0
M  V30 1447 H 130.637 1.15615 1.69771 0
M  V30 1448 H 128.867 -0.20152 3.86175 0
M  V30 1449 H 130.556 0.169875 4.05544 0
M  V30 1450 H 131.322 2.6533 4.05986 0
M  V30 1451 H 127.201 1.46705 4.37034 0
M  V30 1452 H 130.745 4.86056 5.00395 0
M  V30 1453 H 126.642 3.66532 5.31342 0
M  V30 1454 H 127.41 5.64987 5.92226 0
M  V30 1455 N 130.073 -1.45103 0.615059 0
M  V30 1456 C 131.298 -2.07064 0.117988 0
M  V30 1457 C 131.723 -1.4554 -1.19163 0
M  V30 1458 O 131.081 -0.550855 -1.72729 0
M  V30 1459 C 131.129 -3.606 -0.000288387 0
M  V30 1460 O 130.233 -3.98847 -1.04856 0
M  V30 1461 H 129.574 -0.659467 0.0774581 0
M  V30 1462 H 132.104 -1.86236 0.847186 0
M  V30 1463 H 132.114 -4.07529 -0.196091 0
M  V30 1464 H 130.789 -4.04765 0.955932 0
M  V30 1465 H 129.366 -3.63577 -0.828619 0
M  V30 1466 N 131.551 -0.354651 -1.53558 0
M  V30 1467 C 132.798 0.238443 -2.01091 0
M  V30 1468 C 133.126 1.49663 -1.24222 0
M  V30 1469 O 132.381 1.93049 -0.321003 0
M  V30 1470 C 132.68 0.587121 -3.52545 0
M  V30 1471 C 132.346 -0.575472 -4.47213 0
M  V30 1472 C 131.008 -0.894497 -4.72813 0
M  V30 1473 C 133.36 -1.35489 -5.03281 0
M  V30 1474 C 130.688 -1.99511 -5.51736 0
M  V30 1475 C 133.04 -2.44583 -5.83405 0
M  V30 1476 C 131.704 -2.77033 -6.07296 0
M  V30 1477 H 130.974 0.0872526 -0.735845 0
M  V30 1478 H 133.621 -0.484859 -1.8526 0
M  V30 1479 H 131.926 1.39129 -3.66265 0
M  V30 1480 H 133.623 1.05809 -3.86789 0
M  V30 1481 H 130.213 -0.316774 -4.27428 0
M  V30 1482 H 134.397 -1.12167 -4.83459 0
M  V30 1483 H 129.653 -2.25063 -5.68469 0
M  V30 1484 H 133.827 -3.05401 -6.25862 0
M  V30 1485 H 131.454 -3.6244 -6.68237 0
M  V30 1486 N 133.029 1.57378 -0.0835403 0
M  V30 1487 C 133.961 2.10389 0.909338 0
M  V30 1488 C 134.974 1.03858 1.25369 0
M  V30 1489 O 136.163 1.31338 1.20882 0
M  V30 1490 C 133.263 2.55908 2.2218 0
M  V30 1491 C 132.436 3.86145 2.05453 0
M  V30 1492 C 131.495 4.17633 3.20108 0
M  V30 1493 O 130.521 4.87043 2.94581 0
M  V30 1494 N 131.723 3.72113 4.45547 0
M  V30 1495 H 134.488 2.962 0.456657 0
M  V30 1496 H 132.049 1.61579 0.101877 0
M  V30 1497 H 134.041 2.74027 2.97811 0
M  V30 1498 H 132.611 1.75171 2.58909 0
M  V30 1499 H 131.831 3.7729 1.1422 0
M  V30 1500 H 133.119 4.7137 1.91541 0
M  V30 1501 H 132.517 3.16062 4.69171 0
M  V30 1502 H 131.074 3.95409 5.18165 0
M  V30 1503 N 134.507 -0.190092 1.56449 0
M  V30 1504 C 135.784 -0.935886 1.71757 0
M  V30 1505 C 136.164 -2.01173 0.639726 0
M  V30 1506 O 135.512 -2.25827 -0.348502 0
M  V30 1507 C 135.722 -1.51775 3.1427 0
M  V30 1508 C 137.07 -1.99794 3.74656 0
M  V30 1509 O 138.094 -1.61607 3.1743 0
M  V30 1510 O 136.953 -2.70079 4.751 0
M  V30 1511 H 134.047 -0.439229 0.700719 0
M  V30 1512 H 136.593 -0.179395 1.68749 0
M  V30 1513 H 135.365 -0.742505 3.84191 0
M  V30 1514 H 134.988 -2.33894 3.21527 0
M  V30 1515 N 135.985 -1.50799 -0.457987 0
M  V30 1516 C 136.895 -1.73426 -1.57989 0
M  V30 1517 C 137.911 -0.617745 -1.62665 0
M  V30 1518 O 139.087 -0.897614 -1.80291 0
M  V30 1519 C 136.152 -1.83557 -2.94122 0
M  V30 1520 C 135.213 -3.07345 -2.99729 0
M  V30 1521 C 134.446 -3.16983 -4.29368 0
M  V30 1522 O 134.669 -2.33077 -5.20607 0
M  V30 1523 O 133.603 -4.09812 -4.40837 0
M  V30 1524 H 137.429 -2.68555 -1.41817 0
M  V30 1525 H 135.014 -1.35052 -0.638859 0
M  V30 1526 H 136.896 -1.92326 -3.74952 0
M  V30 1527 H 135.571 -0.916137 -3.10465 0
M  V30 1528 H 134.478 -3.04068 -2.1793 0
M  V30 1529 H 135.811 -3.9891 -2.88326 0
M  V30 1530 N 137.463 0.71206 -1.40597 0
M  V30 1531 C 138.373 1.8562 -1.43466 0
M  V30 1532 C 139.389 1.70902 -0.326902 0
M  V30 1533 O 140.565 1.93105 -0.572043 0
M  V30 1534 C 137.63 3.21451 -1.29884 0
M  V30 1535 C 136.691 3.48398 -2.50833 0
M  V30 1536 C 135.924 4.77749 -2.3789 0
M  V30 1537 O 136.147 5.53089 -1.39459 0
M  V30 1538 O 135.081 5.05111 -3.27333 0
M  V30 1539 H 138.907 1.86155 -2.39958 0
M  V30 1540 H 136.492 0.86295 -1.21957 0
M  V30 1541 H 138.374 4.02579 -1.24531 0
M  V30 1542 H 137.049 3.21636 -0.364997 0
M  V30 1543 H 135.956 2.67265 -2.61763 0
M  V30 1544 H 137.289 3.53014 -3.4299 0
M  V30 1545 N 138.941 1.26152 0.944643 0
M  V30 1546 C 140.218 1.02247 1.66748 0
M  V30 1547 C 140.598 -0.448202 2.06287 0
M  V30 1548 O 139.946 -1.42779 1.78399 0
M  V30 1549 C 140.156 1.96788 2.88228 0
M  V30 1550 C 141.504 2.25201 3.59958 0
M  V30 1551 O 142.528 1.94626 2.98327 0
M  V30 1552 O 141.387 2.77242 4.70956 0
M  V30 1553 H 138.481 0.388517 0.730057 0
M  V30 1554 H 141.027 1.37348 0.99668 0
M  V30 1555 H 139.799 2.96047 2.55875 0
M  V30 1556 H 139.422 1.62145 3.63035 0
M  V30 1557 N 140.419 -1.14872 1.07899 0
M  V30 1558 C 141.352 -2.18794 0.64841 0
M  V30 1559 C 142.33 -1.59065 -0.337189 0
M  V30 1560 O 143.514 -1.86936 -0.242284 0
M  V30 1561 C 140.641 -3.38667 -0.0470417 0
M  V30 1562 C 139.687 -4.16942 0.897884 0
M  V30 1563 S 140.52 -4.78615 2.40183 0
M  V30 1564 C 141.676 -6.0185 1.71834 0
M  V30 1565 H 141.909 -2.5498 1.52881 0
M  V30 1566 H 139.442 -1.25922 0.893484 0
M  V30 1567 H 141.4 -4.08113 -0.442027 0
M  V30 1568 H 140.061 -3.00814 -0.903861 0
M  V30 1569 H 139.254 -5.02726 0.358096 0
M  V30 1570 H 138.856 -3.53073 1.23352 0
M  V30 1571 H 141.148 -6.69574 1.03328 0
M  V30 1572 H 142.091 -6.60408 2.55473 0
M  V30 1573 H 142.499 -5.5173 1.19392 0
M  V30 1574 N 141.898 -0.863906 -1.31812 0
M  V30 1575 C 143.145 -0.471836 -1.96926 0
M  V30 1576 C 143.473 0.974578 -1.68322 0
M  V30 1577 O 142.728 1.7003 -0.968933 0
M  V30 1578 C 143.027 -0.668547 -3.51091 0
M  V30 1579 C 142.693 -2.08683 -3.99703 0
M  V30 1580 C 141.355 -2.47471 -4.12688 0
M  V30 1581 C 143.707 -3.01207 -4.25351 0
M  V30 1582 C 141.035 -3.78037 -4.4867 0
M  V30 1583 C 143.387 -4.31282 -4.62794 0
M  V30 1584 C 142.051 -4.69992 -4.73987 0
M  V30 1585 H 141.321 -0.172657 -0.720604 0
M  V30 1586 H 143.968 -1.09573 -1.57054 0
M  V30 1587 H 142.273 0.0385252 -3.91781 0
M  V30 1588 H 143.97 -0.345102 -3.99512 0
M  V30 1589 H 140.56 -1.77566 -3.90087 0
M  V30 1590 H 144.744 -2.72469 -4.14819 0
M  V30 1591 H 140 -4.078 -4.55532 0
M  V30 1592 H 144.174 -5.03031 -4.81594 0
M  V30 1593 H 141.801 -5.71207 -5.01624 0
M  V30 1594 N 143.376 1.44774 -0.622745 0
M  V30 1595 C 144.309 2.27792 0.136329 0
M  V30 1596 C 145.287 1.38041 0.859264 0
M  V30 1597 O 146.471 1.67478 0.86506 0
M  V30 1598 C 143.598 3.16776 1.19878 0
M  V30 1599 C 142.644 4.22575 0.57731 0
M  V30 1600 S 143.477 5.31825 -0.626294 0
M  V30 1601 C 144.633 6.24377 0.436378 0
M  V30 1602 H 144.866 2.91824 -0.567967 0
M  V30 1603 H 142.399 1.48838 -0.410677 0
M  V30 1604 H 144.357 3.68596 1.80686 0
M  V30 1605 H 143.018 2.5198 1.87523 0
M  V30 1606 H 142.211 4.84818 1.37721 0
M  V30 1607 H 141.813 3.73974 0.0440439 0
M  V30 1608 H 144.105 6.64689 1.31128 0
M  V30 1609 H 145.048 7.07941 -0.150271 0
M  V30 1610 H 145.456 5.59381 0.758513 0
M  V30 1611 N 144.854 0.36279 1.53368 0
M  V30 1612 C 146.1 -0.228113 2.01513 0
M  V30 1613 C 146.433 -1.48648 1.2497 0
M  V30 1614 O 145.708 -1.91459 0.342616 0
M  V30 1615 C 145.991 -0.522884 3.56284 0
M  V30 1616 C 145.844 0.74892 4.43521 0
M  V30 1617 C 147.163 -1.32461 4.19693 0
M  V30 1618 H 144.282 -0.0814343 0.732487 0
M  V30 1619 H 146.924 0.48713 1.83649 0
M  V30 1620 H 145.074 -1.1322 3.71636 0
M  V30 1621 H 146.746 1.38648 4.39971 0
M  V30 1622 H 144.989 1.36986 4.11603 0
M  V30 1623 H 145.66 0.497667 5.49752 0
M  V30 1624 H 148.136 -0.809203 4.08156 0
M  V30 1625 H 147.012 -1.49961 5.28018 0
M  V30 1626 H 147.273 -2.33232 3.75573 0
M  V30 1627 N 146.332 -1.57332 0.0918853 0
M  V30 1628 C 147.578 -1.94524 -0.573425 0
M  V30 1629 C 147.911 -0.973578 -1.68033 0
M  V30 1630 O 147.186 -0.00609226 -1.94499 0
M  V30 1631 C 147.469 -3.41858 -1.13161 0
M  V30 1632 C 147.322 -4.4979 -0.0299747 0
M  V30 1633 C 148.641 -3.90435 -2.03098 0
M  V30 1634 H 145.76 -0.70734 -0.206975 0
M  V30 1635 H 148.402 -1.89309 0.161942 0
M  V30 1636 H 146.552 -3.46433 -1.7583 0
M  V30 1637 H 148.224 -4.57327 0.604112 0
M  V30 1638 H 146.467 -4.291 0.636833 0
M  V30 1639 H 147.138 -5.50069 -0.461287 0
M  V30 1640 H 149.614 -3.87992 -1.50338 0
M  V30 1641 H 148.49 -4.94097 -2.39081 0
M  V30 1642 H 148.751 -3.29541 -2.94712 0
M  V30 1643 N 147.81 0.181792 -1.56548 0
M  V30 1644 C 149.087 0.926765 -1.72251 0
M  V30 1645 C 149.467 2.00831 -0.650386 0
M  V30 1646 O 148.815 2.26008 0.336521 0
M  V30 1647 C 149.025 1.50106 -3.1507 0
M  V30 1648 C 150.373 1.97805 -3.75711 0
M  V30 1649 O 151.397 1.59922 -3.18282 0
M  V30 1650 O 150.256 2.67555 -4.76525 0
M  V30 1651 H 147.35 0.435506 -0.703039 0
M  V30 1652 H 149.896 0.170443 -1.68842 0
M  V30 1653 H 148.668 0.72212 -3.84579 0
M  V30 1654 H 148.291 2.32186 -3.22763 0
M  V30 1655 N 149.288 1.51039 0.449983 0
M  V30 1656 C 150.218 1.74379 1.55288 0
M  V30 1657 C 151.199 0.593236 1.5942 0
M  V30 1658 O 152.384 0.834625 1.7535 0
M  V30 1659 C 149.514 1.85728 2.93466 0
M  V30 1660 C 148.468 3.01078 3.04197 0
M  V30 1661 C 147.794 2.97595 4.44231 0
M  V30 1662 C 149.094 4.41254 2.7945 0
M  V30 1663 H 150.788 2.66725 1.36008 0
M  V30 1664 H 148.334 1.2835 0.652864 0
M  V30 1665 H 150.287 2.0064 3.70569 0
M  V30 1666 H 149.011 0.900207 3.13949 0
M  V30 1667 H 147.67 2.85851 2.29531 0
M  V30 1668 H 147.318 1.99691 4.61663 0
M  V30 1669 H 147.018 3.75046 4.52343 0
M  V30 1670 H 148.542 3.14583 5.23326 0
M  V30 1671 H 149.956 4.56897 3.46292 0
M  V30 1672 H 148.353 5.20315 2.98985 0
M  V30 1673 H 149.423 4.52164 1.75144 0
M  V30 1674 N 150.766 -0.704594 1.40972 0
M  V30 1675 C 151.696 -1.83124 1.44872 0
M  V30 1676 C 152.677 -1.67281 0.30838 0
M  V30 1677 O 153.862 -1.87149 0.518556 0
M  V30 1678 C 150.992 -3.21181 1.32136 0
M  V30 1679 C 149.946 -3.51714 2.43888 0
M  V30 1680 C 149.272 -4.89032 2.16222 0
M  V30 1681 C 150.572 -3.516 3.86232 0
M  V30 1682 H 152.266 -1.80117 2.39161 0
M  V30 1683 H 149.812 -0.865145 1.15114 0
M  V30 1684 H 151.765 -3.99702 1.33479 0
M  V30 1685 H 150.489 -3.24791 0.343279 0
M  V30 1686 H 149.148 -2.75539 2.41813 0
M  V30 1687 H 148.796 -4.89256 1.16778 0
M  V30 1688 H 148.496 -5.10426 2.911 0
M  V30 1689 H 150.02 -5.69873 2.19265 0
M  V30 1690 H 151.434 -4.2014 3.9007 0
M  V30 1691 H 149.831 -3.84523 4.60719 0
M  V30 1692 H 150.901 -2.50757 4.15029 0
M  V30 1693 N 152.244 -1.26651 -0.937939 0
M  V30 1694 C 153.174 -1.10993 -2.05433 0
M  V30 1695 C 154.155 -0.0142161 -1.70094 0
M  V30 1696 O 155.34 -0.186837 -1.93299 0
M  V30 1697 C 152.47 -0.745561 -3.39203 0
M  V30 1698 C 151.424 -1.79337 -3.88616 0
M  V30 1699 C 150.75 -1.28324 -5.19073 0
M  V30 1700 C 152.05 -3.19553 -4.13138 0
M  V30 1701 H 153.744 -2.0438 -2.1879 0
M  V30 1702 H 151.29 -0.984041 -1.05131 0
M  V30 1703 H 153.243 -0.622888 -4.16771 0
M  V30 1704 H 151.967 0.22401 -3.25831 0
M  V30 1705 H 150.626 -1.90477 -3.13231 0
M  V30 1706 H 150.274 -0.303414 -5.02084 0
M  V30 1707 H 149.974 -1.98369 -5.53103 0
M  V30 1708 H 151.498 -1.1733 -5.99221 0
M  V30 1709 H 152.912 -3.11471 -4.81309 0
M  V30 1710 H 151.309 -3.87218 -4.58457 0
M  V30 1711 H 152.379 -3.65368 -3.18801 0
M  V30 1712 N 153.722 1.14298 -1.08507 0
M  V30 1713 C 154.97 1.84993 -0.813763 0
M  V30 1714 C 155.291 1.83405 0.662393 0
M  V30 1715 O 154.561 1.28319 1.48024 0
M  V30 1716 H 153.141 0.684966 -0.298045 0
M  V30 1717 H 155.803 1.385 -1.37126 0
M  V30 1718 H 154.899 2.89788 -1.15884 0
M  V30 1719 N 155.201 0.870884 1.31352 0
M  V30 1720 C 156.449 0.48132 1.96285 0
M  V30 1721 C 156.77 -0.969813 1.69173 0
M  V30 1722 O 156.04 -1.67998 1.00764 0
M  V30 1723 H 154.62 0.175002 0.726212 0
M  V30 1724 H 157.282 1.11087 1.60143 0
M  V30 1725 H 156.378 0.639825 3.05471 0
M  V30 1726 N 156.679 -1.44442 0.630414 0
M  V30 1727 C 157.956 -1.9549 0.0655657 0
M  V30 1728 C 158.336 -1.5724 -1.40851 0
M  V30 1729 O 157.684 -0.846116 -2.12257 0
M  V30 1730 C 157.894 -3.47812 0.287691 0
M  V30 1731 C 159.242 -4.24216 0.180513 0
M  V30 1732 O 160.266 -3.55526 0.219019 0
M  V30 1733 O 159.125 -5.46434 0.0848493 0
M  V30 1734 H 156.219 -0.826688 -0.0227177 0
M  V30 1735 H 158.765 -1.54496 0.702068 0
M  V30 1736 H 157.537 -3.687 1.31056 0
M  V30 1737 H 157.16 -3.95751 -0.382984 0
M  V30 1738 N 158.157 -0.370918 -1.53173 0
M  V30 1739 C 159.087 0.464847 -2.28826 0
M  V30 1740 C 160.068 1.07936 -1.31468 0
M  V30 1741 O 161.253 1.0956 -1.60344 0
M  V30 1742 C 158.383 1.60196 -3.08147 0
M  V30 1743 C 157.337 1.11443 -4.13237 0
M  V30 1744 C 156.663 2.3422 -4.80672 0
M  V30 1745 C 157.963 0.195384 -5.21934 0
M  V30 1746 H 159.657 -0.166329 -2.98938 0
M  V30 1747 H 157.203 -0.0814359 -1.4377 0
M  V30 1748 H 159.156 2.19332 -3.59822 0
M  V30 1749 H 157.88 2.26045 -2.35735 0
M  V30 1750 H 156.539 0.545727 -3.62515 0
M  V30 1751 H 156.187 2.98537 -4.04827 0
M  V30 1752 H 155.887 2.02269 -5.51689 0
M  V30 1753 H 157.411 2.94032 -5.35143 0
M  V30 1754 H 158.825 0.694375 -5.69079 0
M  V30 1755 H 157.222 -0.0335027 -6.00091 0
M  V30 1756 H 158.292 -0.760961 -4.78892 0
M  V30 1757 N 159.635 1.57281 -0.100228 0
M  V30 1758 C 161.051 1.57527 0.256416 0
M  V30 1759 C 161.251 1.11173 1.68056 0
M  V30 1760 O 160.307 0.79053 2.39806 0
M  V30 1761 C 161.62 3.00673 0.0401747 0
M  V30 1762 C 163.168 3.12815 0.107528 0
M  V30 1763 C 163.643 4.57929 -0.0807834 0
M  V30 1764 N 165.134 4.63193 -0.0261207 0
M  V30 1765 C 165.869 5.73212 -0.146999 0
M  V30 1766 N 165.365 6.92047 -0.322999 0
M  V30 1767 N 167.158 5.62031 -0.0879044 0
M  V30 1768 H 159.309 1.85718 -1.03065 0
M  V30 1769 H 161.572 0.857446 -0.404339 0
M  V30 1770 H 161.278 3.38804 -0.943649 0
M  V30 1771 H 161.152 3.69042 0.780262 0
M  V30 1772 H 163.539 2.74554 1.08186 0
M  V30 1773 H 163.62 2.47028 -0.664134 0
M  V30 1774 H 163.264 4.96886 -1.05201 0
M  V30 1775 H 163.194 5.21783 0.710635 0
M  V30 1776 H 165.685 3.77748 0.107161 0
M  V30 1777 H 165.998 7.7173 -0.406608 0
M  V30 1778 H 164.343 6.94074 -0.358733 0
M  V30 1779 H 167.534 4.68075 0.048498 0
M  V30 1780 H 167.707 6.47734 -0.185557 0
M  V30 1781 N 161.113 -0.173488 1.56642 0
M  V30 1782 C 162.343 -0.904781 1.85734 0
M  V30 1783 C 162.751 -1.76431 0.68328 0
M  V30 1784 O 162.094 -1.802 -0.356865 0
M  V30 1785 C 162.156 -1.83382 3.09211 0
M  V30 1786 C 161.82 -1.15411 4.42187 0
M  V30 1787 C 162.817 -0.520609 5.17287 0
M  V30 1788 C 160.502 -1.15151 4.88923 0
M  V30 1789 C 162.496 0.106412 6.37311 0
M  V30 1790 C 160.183 -0.520664 6.08878 0
M  V30 1791 C 161.181 0.107196 6.82916 0
M  V30 1792 O 160.869 0.728102 8.00596 0
M  V30 1793 H 160.601 -0.268408 0.62043 0
M  V30 1794 H 163.155 -0.179096 2.04618 0
M  V30 1795 H 161.385 -2.59976 2.86268 0
M  V30 1796 H 163.074 -2.43476 3.24768 0
M  V30 1797 H 163.84 -0.514606 4.82262 0
M  V30 1798 H 159.719 -1.62961 4.31236 0
M  V30 1799 H 163.263 0.597081 6.9504 0
M  V30 1800 H 159.16 -0.524242 6.43368 0
M  V30 1801 H 159.928 0.627138 8.16094 0
M  V30 1802 N 162.591 -1.51276 -0.441967 0
M  V30 1803 C 163.541 -1.6864 -1.53442 0
M  V30 1804 C 164.525 -0.540444 -1.51552 0
M  V30 1805 O 165.717 -0.796157 -1.58083 0
M  V30 1806 C 162.846 -1.8106 -2.91672 0
M  V30 1807 C 161.932 -3.01424 -2.98336 0
M  V30 1808 N 162.323 -4.2467 -2.74752 0
M  V30 1809 C 160.621 -3.00584 -3.29493 0
M  V30 1810 C 161.322 -5.05891 -2.87139 0
M  V30 1811 N 160.298 -4.40442 -3.18609 0
M  V30 1812 H 164.1 -2.61598 -1.33954 0
M  V30 1813 H 161.614 -1.4886 -0.6492 0
M  V30 1814 H 163.611 -1.91609 -3.70259 0
M  V30 1815 H 162.271 -0.892795 -3.12185 0
M  V30 1816 H 163.282 -4.53691 -2.49769 0
M  V30 1817 H 159.959 -2.18417 -3.55809 0
M  V30 1818 H 161.349 -6.13983 -2.72899 0
M  V30 1819 N 164.069 0.697108 -1.41344 0
M  V30 1820 C 164.999 1.82353 -1.45841 0
M  V30 1821 C 165.98 1.67115 -0.317247 0
M  V30 1822 O 167.165 1.86871 -0.528474 0
M  V30 1823 C 164.295 3.20476 -1.33838 0
M  V30 1824 C 163.249 3.50415 -2.4575 0
M  V30 1825 C 162.575 4.87878 -2.18813 0
M  V30 1826 C 163.875 3.49546 -3.88091 0
M  V30 1827 H 165.569 1.78846 -2.40113 0
M  V30 1828 H 163.115 0.859028 -1.15571 0
M  V30 1829 H 165.068 3.98988 -1.35596 0
M  V30 1830 H 163.792 3.24604 -0.360498 0
M  V30 1831 H 162.451 2.74253 -2.43271 0
M  V30 1832 H 162.099 4.8863 -1.19371 0
M  V30 1833 H 161.799 5.08875 -2.93803 0
M  V30 1834 H 163.323 5.68702 -2.22284 0
M  V30 1835 H 164.737 4.18066 -3.92293 0
M  V30 1836 H 163.134 3.82075 -4.62751 0
M  V30 1837 H 164.204 2.48552 -4.16353 0
M  V30 1838 N 165.547 1.27147 0.931209 0
M  V30 1839 C 166.479 1.05364 2.03546 0
M  V30 1840 C 167.492 0.0108438 1.62796 0
M  V30 1841 O 168.681 0.25202 1.76712 0
M  V30 1842 C 165.781 0.575566 3.33977 0
M  V30 1843 C 164.954 1.68985 4.03439 0
M  V30 1844 C 164.013 1.20813 5.12143 0
M  V30 1845 O 163.039 1.90712 5.363 0
M  V30 1846 N 164.241 0.0618851 5.80467 0
M  V30 1847 H 167.006 2.00454 2.22796 0
M  V30 1848 H 164.567 1.18666 1.10136 0
M  V30 1849 H 166.559 0.237264 4.04004 0
M  V30 1850 H 165.129 -0.282016 3.11325 0
M  V30 1851 H 164.349 2.19861 3.27192 0
M  V30 1852 H 165.637 2.4378 4.46597 0
M  V30 1853 H 165.035 -0.521621 5.6329 0
M  V30 1854 H 163.592 -0.217264 6.51438 0
M  V30 1855 N 167.025 -1.13721 1.09112 0
M  V30 1856 C 167.957 -2.1871 0.685467 0
M  V30 1857 C 168.97 -1.60527 -0.271068 0
M  V30 1858 O 170.159 -1.78407 -0.0576148 0
M  V30 1859 C 167.259 -3.38898 -0.0111255 0
M  V30 1860 C 166.432 -4.26597 0.966131 0
M  V30 1861 C 165.491 -5.25324 0.303539 0
M  V30 1862 O 164.517 -5.61213 0.950177 0
M  V30 1863 N 165.719 -5.72779 -0.943651 0
M  V30 1864 H 168.484 -2.54126 1.58871 0
M  V30 1865 H 166.045 -1.29012 0.978143 0
M  V30 1866 H 168.037 -4.02014 -0.465517 0
M  V30 1867 H 166.607 -3.01747 -0.816565 0
M  V30 1868 H 165.827 -3.60306 1.59917 0
M  V30 1869 H 167.115 -4.82048 1.6281 0
M  V30 1870 H 166.513 -5.45762 -1.48862 0
M  V30 1871 H 165.07 -6.37847 -1.34142 0
M  V30 1872 N 168.503 -0.877838 -1.30888 0
M  V30 1873 C 169.451 -0.328662 -2.30266 0
M  V30 1874 C 170.445 0.560496 -1.59859 0
M  V30 1875 O 171.651 0.445722 -1.74394 0
M  V30 1876 H 168.026 -0.0876142 -0.746879 0
M  V30 1877 H 169.997 -1.18061 -2.74051 0
M  V30 1878 C 168.746 0.448071 -3.44801 0
M  V30 1879 H 168.069 -0.226859 -3.99156 0
M  V30 1880 H 169.509 0.797541 -4.16432 0
M  V30 1881 C 167.968 1.64239 -2.94155 0
M  V30 1882 O 168.498 2.74175 -2.93583 0
M  V30 1883 N 166.704 1.47716 -2.50256 0
M  V30 1884 H 166.251 0.582821 -2.5092 0
M  V30 1885 H 166.209 2.27765 -2.16727 0
M  V30 1886 N 169.982 1.44106 -0.638065 0
M  V30 1887 C 171.228 2.02277 -0.145546 0
M  V30 1888 C 171.561 1.50125 1.23191 0
M  V30 1889 O 170.836 0.688133 1.8192 0
M  V30 1890 C 171.119 3.59829 -0.139791 0
M  V30 1891 C 170.972 4.22247 -1.55008 0
M  V30 1892 C 172.291 4.36873 0.531966 0
M  V30 1893 H 169.41 0.734992 -0.0543632 0
M  V30 1894 H 172.052 1.71592 -0.815863 0
M  V30 1895 H 170.202 3.86102 0.431007 0
M  V30 1896 H 171.874 4.07057 -2.1703 0
M  V30 1897 H 170.117 3.79476 -2.10191 0
M  V30 1898 H 170.788 5.31284 -1.49804 0
M  V30 1899 H 173.264 4.16074 0.0464781 0
M  V30 1900 H 172.14 5.4657 0.505206 0
M  V30 1901 H 172.401 4.11995 1.60352 0
M  V30 1902 N 171.46 0.379036 1.52974 0
M  V30 1903 C 172.41 -0.477772 2.22938 0
M  V30 1904 C 173.394 -1.03792 1.22948 0
M  V30 1905 O 174.586 -0.965725 1.48333 0
M  V30 1906 C 171.715 -1.60994 3.03209 0
M  V30 1907 C 170.801 -1.06203 4.10587 0
M  V30 1908 N 171.192 -0.238214 5.05239 0
M  V30 1909 C 169.49 -1.33554 4.25534 0
M  V30 1910 C 170.191 0.0633235 5.81666 0
M  V30 1911 N 169.167 -0.537901 5.40932 0
M  V30 1912 H 172.969 0.158295 2.93473 0
M  V30 1913 H 170.483 0.187778 1.61311 0
M  V30 1914 H 172.48 -2.23607 3.5186 0
M  V30 1915 H 171.14 -2.24893 2.34207 0
M  V30 1916 H 172.151 0.123695 5.17752 0
M  V30 1917 H 168.828 -1.97632 3.6776 0
M  V30 1918 H 170.218 0.730161 6.67921 0
M  V30 1919 N 172.938 -1.57226 0.108567 0
M  V30 1920 C 174.185 -1.94833 -0.551943 0
M  V30 1921 C 174.513 -0.991204 -1.67348 0
M  V30 1922 O 173.768 -0.0131878 -1.95696 0
M  V30 1923 C 174.067 -3.38911 -1.13463 0
M  V30 1924 C 173.733 -4.50696 -0.135509 0
M  V30 1925 C 172.395 -4.80998 0.139252 0
M  V30 1926 C 174.747 -5.18333 0.545957 0
M  V30 1927 C 172.075 -5.76259 1.10194 0
M  V30 1928 C 174.427 -6.14627 1.49721 0
M  V30 1929 C 173.091 -6.43327 1.78006 0
M  V30 1930 H 172.361 -0.712944 -0.20197 0
M  V30 1931 H 175.008 -1.90582 0.18726 0
M  V30 1932 H 173.313 -3.39805 -1.95037 0
M  V30 1933 H 175.01 -3.65317 -1.65362 0
M  V30 1934 H 171.6 -4.27087 -0.359846 0
M  V30 1935 H 175.784 -4.95087 0.346842 0
M  V30 1936 H 171.04 -5.96804 1.32795 0
M  V30 1937 H 175.214 -6.66126 2.03099 0
M  V30 1938 H 172.841 -7.1695 2.52759 0
M  V30 1939 N 174.416 0.165178 -1.56732 0
M  V30 1940 C 175.363 1.2044 -1.96883 0
M  V30 1941 C 176.333 1.43664 -0.833657 0
M  V30 1942 O 177.518 1.56302 -1.09427 0
M  V30 1943 C 174.658 2.53727 -2.33916 0
M  V30 1944 C 173.771 2.3783 -3.6064 0
M  V30 1945 C 172.906 3.64026 -3.86857 0
M  V30 1946 C 171.945 3.43088 -5.06909 0
M  V30 1947 N 171.082 4.61369 -5.29229 0
M  V30 1948 H 175.922 0.854996 -2.85471 0
M  V30 1949 H 173.459 0.41076 -1.41249 0
M  V30 1950 H 175.417 3.31419 -2.53411 0
M  V30 1951 H 174.047 2.8665 -1.48431 0
M  V30 1952 H 173.099 1.51282 -3.49024 0
M  V30 1953 H 174.411 2.18308 -4.4849 0
M  V30 1954 H 173.565 4.50152 -4.06753 0
M  V30 1955 H 172.304 3.86533 -2.97394 0
M  V30 1956 H 171.309 2.55349 -4.86906 0
M  V30 1957 H 172.534 3.21997 -5.97909 0
M  V30 1958 H 170.48 4.84084 -4.42718 0
M  V30 1959 H 170.397 4.44783 -6.11313 0
M  V30 1960 H 171.665 5.48761 -5.53608 0
M  V30 1961 N 175.894 1.51508 0.433938 0
M  V30 1962 C 176.804 1.75917 1.5521 0
M  V30 1963 C 177.82 0.643545 1.61662 0
M  V30 1964 O 178.996 0.926183 1.7884 0
M  V30 1965 C 176.061 1.88213 2.91164 0
M  V30 1966 C 175.122 3.12074 2.94802 0
M  V30 1967 C 174.355 3.23774 4.24271 0
M  V30 1968 O 174.578 2.4133 5.16833 0
M  V30 1969 O 173.512 4.16774 4.34262 0
M  V30 1970 H 177.338 2.70777 1.37527 0
M  V30 1971 H 174.923 1.36051 0.617293 0
M  V30 1972 H 176.805 1.98267 3.71845 0
M  V30 1973 H 175.48 0.965413 3.08968 0
M  V30 1974 H 174.387 3.07497 2.13065 0
M  V30 1975 H 175.72 4.03446 2.81943 0
M  V30 1976 N 177.372 -0.689602 1.41712 0
M  V30 1977 C 178.282 -1.83314 1.46401 0
M  V30 1978 C 179.298 -1.7036 0.35405 0
M  V30 1979 O 180.474 -1.92171 0.602692 0
M  V30 1980 C 177.539 -3.19344 1.34982 0
M  V30 1981 C 176.6 -3.44363 2.56344 0
M  V30 1982 C 175.833 -4.73904 2.45461 0
M  V30 1983 O 176.056 -5.508 1.48241 0
M  V30 1984 O 174.99 -4.99839 3.35328 0
M  V30 1985 H 178.816 -1.82314 2.42889 0
M  V30 1986 H 176.401 -0.843438 1.23315 0
M  V30 1987 H 178.283 -4.00547 1.3092 0
M  V30 1988 H 176.958 -3.21014 0.41612 0
M  V30 1989 H 175.865 -2.63067 2.65982 0
M  V30 1990 H 177.198 -3.47512 3.48563 0
M  V30 1991 N 178.85 -1.27639 -0.924453 0
M  V30 1992 C 180.078 -1.16989 -1.70649 0
M  V30 1993 C 180.493 0.272869 -1.86818 0
M  V30 1994 O 179.85 1.18549 -1.38753 0
M  V30 1995 C 179.901 -1.85229 -3.10439 0
M  V30 1996 O 179.622 -3.23868 -2.95028 0
M  V30 1997 C 181.123 -1.80746 -4.04779 0
M  V30 1998 H 178.343 -0.406595 -0.53378 0
M  V30 1999 H 180.887 -1.68569 -1.15778 0
M  V30 2000 H 179.042 -1.37545 -3.6216 0
M  V30 2001 H 179.456 -3.57889 -3.83426 0
M  V30 2002 H 180.93 -2.33101 -5.00368 0
M  V30 2003 H 181.407 -0.777499 -4.32263 0
M  V30 2004 H 182.013 -2.28059 -3.58984 0
M  V30 2005 N 180.328 1.1314 -1.09713 0
M  V30 2006 C 181.574 1.84757 -0.836224 0
M  V30 2007 C 181.907 1.8347 0.636598 0
M  V30 2008 O 181.182 1.27491 1.46889 0
M  V30 2009 C 181.465 3.32782 -1.37578 0
M  V30 2010 C 181.318 3.42567 -2.91493 0
M  V30 2011 C 182.637 4.28307 -1.01198 0
M  V30 2012 H 179.756 0.67082 -0.305236 0
M  V30 2013 H 182.398 1.3278 -1.35903 0
M  V30 2014 H 180.548 3.77177 -0.931097 0
M  V30 2015 H 182.22 3.06862 -3.44432 0
M  V30 2016 H 180.463 2.83349 -3.28475 0
M  V30 2017 H 181.134 4.46674 -3.24324 0
M  V30 2018 H 183.61 3.91999 -1.39556 0
M  V30 2019 H 182.486 5.30307 -1.41653 0
M  V30 2020 H 182.747 4.42029 0.0794833 0
M  V30 2021 N 181.806 0.884767 1.30421 0
M  V30 2022 C 182.753 0.349642 2.28136 0
M  V30 2023 C 183.723 -0.560061 1.56373 0
M  V30 2024 O 184.908 -0.488524 1.8444 0
M  V30 2025 C 182.048 -0.42999 3.42411 0
M  V30 2026 C 181.161 0.508907 4.28992 0
M  V30 2027 C 180.296 -0.286301 5.30428 0
M  V30 2028 C 179.335 0.648079 6.08659 0
M  V30 2029 N 178.472 -0.111792 7.02011 0
M  V30 2030 H 183.312 1.18807 2.73293 0
M  V30 2031 H 180.849 0.597231 1.3443 0
M  V30 2032 H 182.807 -0.897923 4.07423 0
M  V30 2033 H 181.437 -1.23299 2.98324 0
M  V30 2034 H 180.489 1.09533 3.64289 0
M  V30 2035 H 181.801 1.22475 4.8353 0
M  V30 2036 H 180.955 -0.816098 6.01186 0
M  V30 2037 H 179.694 -1.03536 4.76583 0
M  V30 2038 H 178.699 1.18951 5.36778 0
M  V30 2039 H 179.924 1.39623 6.64592 0
M  V30 2040 H 177.87 -0.843395 6.50556 0
M  V30 2041 H 177.787 0.544429 7.54037 0
M  V30 2042 H 179.055 -0.622339 7.77012 0
M  V30 2043 N 183.284 -1.43765 0.645699 0
M  V30 2044 C 184.214 -2.33471 -0.0370477 0
M  V30 2045 C 185.195 -1.49042 -0.819779 0
M  V30 2046 O 186.38 -1.77726 -0.782758 0
M  V30 2047 C 183.51 -3.32311 -1.0093 0
M  V30 2048 C 182.464 -4.2667 -0.337201 0
M  V30 2049 C 181.79 -5.1549 -1.42037 0
M  V30 2050 C 183.09 -5.16657 0.765706 0
M  V30 2051 H 184.784 -2.90809 0.712069 0
M  V30 2052 H 182.33 -1.39834 0.343876 0
M  V30 2053 H 184.283 -3.9396 -1.49578 0
M  V30 2054 H 183.007 -2.73213 -1.78948 0
M  V30 2055 H 181.666 -3.66374 0.128771 0
M  V30 2056 H 181.314 -4.52735 -2.1918 0
M  V30 2057 H 181.014 -5.79438 -0.975966 0
M  V30 2058 H 182.538 -5.80012 -1.90838 0
M  V30 2059 H 183.952 -5.72158 0.361702 0
M  V30 2060 H 182.349 -5.89286 1.13413 0
M  V30 2061 H 183.419 -4.56796 1.62683 0
M  V30 2062 N 184.763 -0.387143 -1.52771 0
M  V30 2063 C 186.01 0.195735 -2.01552 0
M  V30 2064 C 186.338 1.46995 -1.27369 0
M  V30 2065 O 185.593 1.92325 -0.361879 0
M  V30 2066 C 185.892 0.512209 -3.53711 0
M  V30 2067 C 185.558 -0.670202 -4.45891 0
M  V30 2068 C 184.22 -0.994586 -4.70809 0
M  V30 2069 C 186.572 -1.46134 -5.00294 0
M  V30 2070 C 183.9 -2.11169 -5.4738 0
M  V30 2071 C 186.252 -2.56903 -5.78086 0
M  V30 2072 C 184.916 -2.89852 -6.01284 0
M  V30 2073 H 184.186 0.0716246 -0.73753 0
M  V30 2074 H 186.833 -0.524046 -1.8419 0
M  V30 2075 H 185.138 1.31329 -3.69134 0
M  V30 2076 H 186.835 0.975804 -3.88946 0
M  V30 2077 H 183.425 -0.407366 -4.2666 0
M  V30 2078 H 187.609 -1.22397 -4.80971 0
M  V30 2079 H 182.865 -2.3707 -5.63567 0
M  V30 2080 H 187.039 -3.18608 -6.19243 0
M  V30 2081 H 184.666 -3.76533 -6.60399 0
M  V30 2082 N 186.241 1.57166 -0.116904 0
M  V30 2083 C 187.49 1.94298 0.541407 0
M  V30 2084 C 187.803 1.00236 1.67964 0
M  V30 2085 O 189.009 1.26826 2.40057 0
M  V30 2086 C 187.465 3.45306 1.01449 0
M  V30 2087 C 187.073 4.47899 -0.0951738 0
M  V30 2088 C 188.817 3.91361 1.6443 0
M  V30 2089 C 186.724 5.90083 0.394491 0
M  V30 2090 H 185.654 0.725308 0.206019 0
M  V30 2091 H 188.305 1.82446 -0.196419 0
M  V30 2092 H 186.687 3.52385 1.80667 0
M  V30 2093 H 187.861 4.52486 -0.871374 0
M  V30 2094 H 186.176 4.11583 -0.631505 0
M  V30 2095 H 188.773 4.95004 2.02176 0
M  V30 2096 H 189.116 3.3122 2.52189 0
M  V30 2097 H 189.649 3.87073 0.917559 0
M  V30 2098 H 186.388 6.53974 -0.447004 0
M  V30 2099 H 185.908 5.88921 1.13722 0
M  V30 2100 H 187.587 6.41307 0.856399 0
M  V30 2101 N 187.719 -0.156864 1.56817 0
M  V30 2102 C 188.959 -0.877453 1.84608 0
M  V30 2103 C 189.323 -1.78791 0.699845 0
M  V30 2104 O 190.524 -2.5472 0.858553 0
M  V30 2105 C 188.795 -1.63992 3.17555 0
M  V30 2106 S 190.354 -2.40729 3.66872 0
M  V30 2107 H 187.172 -0.293612 0.647544 0
M  V30 2108 H 189.774 -0.138099 1.95012 0
M  V30 2109 H 188.478 -0.962363 3.98957 0
M  V30 2110 H 188.009 -2.42038 3.10131 0
M  V30 2111 H 190.024 -3.65725 3.3535 0
M  V30 2112 N 189.197 -1.51736 -0.425897 0
M  V30 2113 C 190.107 -1.76738 -1.54275 0
M  V30 2114 C 191.123 -0.65211 -1.61318 0
M  V30 2115 O 192.299 -0.935654 -1.78346 0
M  V30 2116 C 189.364 -1.89755 -2.90162 0
M  V30 2117 C 188.425 -3.13633 -2.93143 0
M  V30 2118 C 187.658 -3.2602 -4.22548 0
M  V30 2119 O 187.881 -2.44067 -5.15546 0
M  V30 2120 O 186.815 -4.19071 -4.32046 0
M  V30 2121 H 190.641 -2.71502 -1.36089 0
M  V30 2122 H 188.226 -1.36376 -0.610069 0
M  V30 2123 H 190.108 -2.00236 -3.70788 0
M  V30 2124 H 188.783 -0.981785 -3.08452 0
M  V30 2125 H 187.69 -3.08622 -2.11431 0
M  V30 2126 H 189.023 -4.04936 -2.798 0
M  V30 2127 N 190.675 0.682077 -1.42076 0
M  V30 2128 C 191.605 1.80796 -1.47767 0
M  V30 2129 C 192.586 1.6677 -0.334954 0
M  V30 2130 O 193.771 1.863 -0.548264 0
M  V30 2131 C 190.901 3.19038 -1.37229 0
M  V30 2132 C 189.855 3.47789 -2.49453 0
M  V30 2133 C 189.181 4.8553 -2.23975 0
M  V30 2134 C 190.481 3.45411 -3.91776 0
M  V30 2135 H 192.175 1.7629 -2.41997 0
M  V30 2136 H 189.721 0.846721 -1.16476 0
M  V30 2137 H 191.674 3.97528 -1.39821 0
M  V30 2138 H 190.398 3.24204 -0.394907 0
M  V30 2139 H 189.057 2.71657 -2.46166 0
M  V30 2140 H 188.705 4.87337 -1.24547 0
M  V30 2141 H 188.405 5.0573 -2.99184 0
M  V30 2142 H 189.929 5.66312 -2.28304 0
M  V30 2143 H 191.343 4.13882 -3.96705 0
M  V30 2144 H 189.74 3.77145 -4.66778 0
M  V30 2145 H 190.81 2.44122 -4.18966 0
M  V30 2146 N 192.153 1.28127 0.917671 0
M  V30 2147 C 193.399 1.15223 1.66888 0
M  V30 2148 C 193.732 -0.299293 1.9188 0
M  V30 2149 O 193.007 -1.21805 1.51637 0
M  V30 2150 C 193.29 1.94706 3.02922 0
M  V30 2151 C 193.143 3.47898 2.85109 0
M  V30 2152 C 194.462 1.75939 4.03402 0
M  V30 2153 H 191.581 0.419946 0.605652 0
M  V30 2154 H 194.223 1.57398 1.06423 0
M  V30 2155 H 192.373 1.58864 3.54534 0
M  V30 2156 H 194.045 3.93624 2.40537 0
M  V30 2157 H 192.288 3.7373 2.20246 0
M  V30 2158 H 192.959 3.98765 3.81694 0
M  V30 2159 H 195.435 2.07209 3.60837 0
M  V30 2160 H 194.311 2.33931 4.96556 0
M  V30 2161 H 194.572 0.709877 4.36364 0
M  V30 2162 N 193.631 -1.12557 1.10312 0
M  V30 2163 C 194.564 -2.1737 0.694674 0
M  V30 2164 C 195.542 -1.59745 -0.303373 0
M  V30 2165 O 196.726 -1.87408 -0.202578 0
M  V30 2166 C 193.853 -3.38691 0.0248052 0
M  V30 2167 C 192.899 -4.14943 0.986121 0
M  V30 2168 S 193.732 -4.73413 2.50281 0
M  V30 2169 C 194.888 -5.9807 1.84562 0
M  V30 2170 H 195.121 -2.5168 1.58255 0
M  V30 2171 H 192.654 -1.23998 0.919992 0
M  V30 2172 H 194.612 -4.08959 -0.355361 0
M  V30 2173 H 193.273 -3.02664 -0.839851 0
M  V30 2174 H 192.466 -5.01854 0.464651 0
M  V30 2175 H 192.068 -3.50377 1.30813 0
M  V30 2176 H 194.36 -6.67232 1.17507 0
M  V30 2177 H 195.303 -6.54841 2.69423 0
M  V30 2178 H 195.711 -5.49073 1.31069 0
M  V30 2179 N 195.109 -0.891671 -1.2995 0
M  V30 2180 C 196.072 -0.36828 -2.26222 0
M  V30 2181 C 197.072 0.493014 -1.53056 0
M  V30 2182 O 198.262 0.299213 -1.71611 0
M  V30 2183 C 195.394 0.47442 -3.37583 0
M  V30 2184 H 196.587 -1.21844 -2.74033 0
M  V30 2185 H 194.14 -0.669107 -1.41254 0
M  V30 2186 H 194.875 1.34489 -2.95099 0
M  V30 2187 H 194.66 -0.142615 -3.91841 0
M  V30 2188 H 196.15 0.83218 -4.09224 0
M  V30 2189 N 196.587 1.43421 -0.653314 0
M  V30 2190 C 197.517 2.33487 0.0246656 0
M  V30 2191 C 198.498 1.49475 0.811863 0
M  V30 2192 O 199.683 1.78139 0.773322 0
M  V30 2193 C 196.813 3.32841 0.99166 0
M  V30 2194 C 195.767 4.26842 0.314568 0
M  V30 2195 C 195.093 5.16236 1.39302 0
M  V30 2196 C 196.393 5.16243 -0.793095 0
M  V30 2197 H 198.087 2.90427 -0.727481 0
M  V30 2198 H 195.633 1.39649 -0.351287 0
M  V30 2199 H 197.586 3.94747 1.47487 0
M  V30 2200 H 196.31 2.74158 1.77497 0
M  V30 2201 H 194.969 3.663 -0.148199 0
M  V30 2202 H 194.617 4.53891 2.16776 0
M  V30 2203 H 194.317 5.79948 0.945223 0
M  V30 2204 H 195.841 5.81015 1.87759 0
M  V30 2205 H 197.255 5.71958 -0.392039 0
M  V30 2206 H 195.652 5.88676 -1.16536 0
M  V30 2207 H 196.722 4.55927 -1.65103 0
M  V30 2208 N 198.065 0.39524 1.52563 0
M  V30 2209 C 199.342 -0.242908 1.94086 0
M  V30 2210 C 199.722 -1.63841 1.33114 0
M  V30 2211 O 199.07 -2.22928 0.501529 0
M  V30 2212 C 199.28 -0.26327 3.48006 0
M  V30 2213 C 200.628 -0.489354 4.21771 0
M  V30 2214 O 201.652 -0.343226 3.54543 0
M  V30 2215 O 200.511 -0.776169 5.4096 0
M  V30 2216 H 197.605 -0.152536 0.812811 0
M  V30 2217 H 200.151 0.450178 1.6362 0
M  V30 2218 H 198.923 0.713985 3.84731 0
M  V30 2219 H 198.546 -1.00103 3.84792 0
M  V30 2220 N 199.544 -1.57102 0.125237 0
M  V30 2221 C 200.774 -1.99472 -0.538015 0
M  V30 2222 C 201.182 -1.00395 -1.60366 0
M  V30 2223 O 200.525 0.0103875 -1.83697 0
M  V30 2224 C 200.587 -3.38262 -1.21734 0
M  V30 2225 C 200.251 -4.56021 -0.298897 0
M  V30 2226 C 201.248 -5.17817 0.464943 0
M  V30 2227 C 198.933 -5.01869 -0.208149 0
M  V30 2228 C 200.927 -6.23852 1.3072 0
M  V30 2229 C 198.614 -6.07763 0.637736 0
M  V30 2230 C 199.612 -6.68622 1.39403 0
M  V30 2231 O 199.3 -7.7247 2.22586 0
M  V30 2232 H 199.032 -0.659934 -0.146501 0
M  V30 2233 H 201.586 -2.04321 0.210267 0
M  V30 2234 H 199.816 -3.30185 -2.01282 0
M  V30 2235 H 201.505 -3.6488 -1.77813 0
M  V30 2236 H 202.271 -4.83308 0.404741 0
M  V30 2237 H 198.15 -4.54241 -0.786522 0
M  V30 2238 H 201.694 -6.71284 1.898 0
M  V30 2239 H 197.591 -6.41701 0.699309 0
M  V30 2240 H 198.359 -7.89595 2.15596 0
M  V30 2241 N 201.022 0.148545 -1.56898 0
M  V30 2242 C 201.952 1.18524 -2.01182 0
M  V30 2243 C 202.933 1.4489 -0.891123 0
M  V30 2244 O 204.118 1.55836 -1.15882 0
M  V30 2245 C 201.248 2.51879 -2.39112 0
M  V30 2246 C 200.202 2.40038 -3.54353 0
M  V30 2247 C 199.528 3.78089 -3.78091 0
M  V30 2248 C 200.828 1.88577 -4.87069 0
M  V30 2249 H 202.522 0.817029 -2.88036 0
M  V30 2250 H 200.068 0.391575 -1.38574 0
M  V30 2251 H 202.021 3.24627 -2.68692 0
M  V30 2252 H 200.745 2.90532 -1.49193 0
M  V30 2253 H 199.404 1.69742 -3.24936 0
M  V30 2254 H 199.052 4.14175 -2.85426 0
M  V30 2255 H 198.752 3.71028 -4.55645 0
M  V30 2256 H 200.276 4.52387 -4.10095 0
M  V30 2257 H 201.69 2.51117 -5.15377 0
M  V30 2258 H 200.087 1.9241 -5.68417 0
M  V30 2259 H 201.157 0.84136 -4.77545 0
M  V30 2260 N 202.5 1.5196 0.417844 0
M  V30 2261 C 203.432 1.70895 1.52733 0
M  V30 2262 C 204.445 0.589405 1.51756 0
M  V30 2263 O 205.634 0.864312 1.56179 0
M  V30 2264 C 202.734 1.72627 2.91639 0
M  V30 2265 C 201.907 3.01479 3.16905 0
M  V30 2266 C 200.966 2.95139 4.35637 0
M  V30 2267 O 199.992 3.69059 4.3334 0
M  V30 2268 N 201.194 2.12328 5.40275 0
M  V30 2269 H 203.959 2.66612 1.36888 0
M  V30 2270 H 201.52 1.50089 0.607037 0
M  V30 2271 H 203.512 1.65928 3.6912 0
M  V30 2272 H 202.082 0.844216 3.00985 0
M  V30 2273 H 201.302 3.21895 2.27546 0
M  V30 2274 H 202.59 3.86736 3.30625 0
M  V30 2275 H 201.988 1.51685 5.44985 0
M  V30 2276 H 200.545 2.11494 6.16534 0
M  V30 2277 N 203.978 -0.674533 1.42435 0
M  V30 2278 C 204.926 -1.80934 1.46169 0
M  V30 2279 C 205.92 -1.66006 0.3374 0
M  V30 2280 O 207.126 -1.72611 0.510425 0
M  V30 2281 H 203.501 -0.596594 0.457798 0
M  V30 2282 H 205.472 -1.74903 2.41767 0
M  V30 2283 C 204.221 -3.19088 1.38123 0
M  V30 2284 H 203.544 -3.31203 2.23931 0
M  V30 2285 H 204.984 -3.9851 1.44797 0
M  V30 2286 C 203.443 -3.36763 0.0960517 0
M  V30 2287 O 203.973 -3.92581 -0.851073 0
M  V30 2288 N 202.179 -2.90597 0.0131186 0
M  V30 2289 H 201.726 -2.45359 0.784639 0
M  V30 2290 H 201.684 -3.028 -0.846133 0
M  V30 2291 N 205.456 -1.28612 -0.910864 0
M  V30 2292 C 206.388 -1.08589 -2.01844 0
M  V30 2293 C 207.401 -0.0367419 -1.62759 0
M  V30 2294 O 208.59 -0.280101 -1.76289 0
M  V30 2295 C 205.69 -0.628626 -3.33019 0
M  V30 2296 C 204.863 -1.75382 -4.00699 0
M  V30 2297 C 203.922 -1.28945 -5.10156 0
M  V30 2298 O 202.948 -1.9922 -5.33198 0
M  V30 2299 N 204.15 -0.154224 -5.80295 0
M  V30 2300 H 206.915 -2.03973 -2.19579 0
M  V30 2301 H 204.476 -1.20403 -1.08234 0
M  V30 2302 H 206.468 -0.301508 -4.03575 0
M  V30 2303 H 205.038 0.232451 -3.11735 0
M  V30 2304 H 204.258 -2.25039 -3.23653 0
M  V30 2305 H 205.546 -2.50854 -4.42662 0
M  V30 2306 H 204.944 0.43194 -5.64049 0
M  V30 2307 H 203.501 0.113599 -6.51701 0
M  V30 2308 N 206.934 1.1197 -1.10907 0
M  V30 2309 C 208.35 1.35591 -0.841852 0
M  V30 2310 C 208.55 1.94233 0.536246 0
M  V30 2311 O 207.606 2.1717 1.28816 0
M  V30 2312 C 208.919 2.29284 -1.94549 0
M  V30 2313 C 210.467 2.42862 -1.97451 0
M  V30 2314 C 210.942 3.39873 -3.07002 0
M  V30 2315 N 212.433 3.47433 -3.06341 0
M  V30 2316 C 213.168 4.22421 -3.87748 0
M  V30 2317 N 212.664 5.00432 -4.79103 0
M  V30 2318 N 214.457 4.17876 -3.75946 0
M  V30 2319 H 206.608 0.722664 -1.99728 0
M  V30 2320 H 208.871 0.380635 -0.868229 0
M  V30 2321 H 208.577 1.93378 -2.93765 0
M  V30 2322 H 208.451 3.29452 -1.83688 0
M  V30 2323 H 210.838 2.78046 -0.988645 0
M  V30 2324 H 210.919 1.42566 -2.12388 0
M  V30 2325 H 210.563 3.05417 -4.05811 0
M  V30 2326 H 210.493 4.40011 -2.89306 0
M  V30 2327 H 212.984 2.91784 -2.40147 0
M  V30 2328 H 213.297 5.55002 -5.37766 0
M  V30 2329 H 211.642 4.99612 -4.83128 0
M  V30 2330 H 214.833 3.56016 -3.03924 0
M  V30 2331 H 215.006 4.76061 -4.39624 0
M  V30 2332 N 208.412 0.89855 1.29475 0
M  V30 2333 C 209.661 0.519863 1.94885 0
M  V30 2334 C 209.974 -0.9383 1.71625 0
M  V30 2335 O 211.18 -1.42445 2.31131 0
M  V30 2336 C 209.636 0.878836 3.49005 0
M  V30 2337 C 209.244 2.35569 3.81066 0
M  V30 2338 C 210.988 0.570004 4.20656 0
M  V30 2339 C 208.895 2.65558 5.28425 0
M  V30 2340 H 207.825 0.190692 0.729488 0
M  V30 2341 H 210.476 1.09539 1.47219 0
M  V30 2342 H 208.858 0.232253 3.95318 0
M  V30 2343 H 210.032 3.04773 3.45616 0
M  V30 2344 H 208.347 2.63343 3.22552 0
M  V30 2345 H 210.944 0.770925 5.29113 0
M  V30 2346 H 211.287 -0.491404 4.1339 0
M  V30 2347 H 211.82 1.17438 3.8007 0
M  V30 2348 H 208.559 3.70493 5.40754 0
M  V30 2349 H 208.079 2.00977 5.65127 0
M  V30 2350 H 209.758 2.51765 5.96006 0
M  V30 2351 N 209.89 -1.43072 0.660911 0
M  V30 2352 C 211.139 -2.00942 0.174735 0
M  V30 2353 C 211.452 -1.52797 -1.22117 0
M  V30 2354 O 212.658 -2.02991 -1.80297 0
M  V30 2355 C 211.114 -3.58948 0.261559 0
M  V30 2356 C 210.722 -4.16085 1.66064 0
M  V30 2357 C 212.466 -4.24173 -0.166617 0
M  V30 2358 C 210.373 -5.6641 1.70098 0
M  V30 2359 H 209.303 -0.751483 0.0615631 0
M  V30 2360 H 211.954 -1.63955 0.824069 0
M  V30 2361 H 210.336 -3.93372 -0.455421 0
M  V30 2362 H 211.51 -3.93147 2.40359 0
M  V30 2363 H 209.825 -3.6326 2.03546 0
M  V30 2364 H 212.422 -5.34471 -0.156433 0
M  V30 2365 H 212.765 -3.98647 -1.19943 0
M  V30 2366 H 213.298 -3.94659 0.498875 0
M  V30 2367 H 210.037 -5.96715 2.71315 0
M  V30 2368 H 209.557 -5.91382 1.00139 0
M  V30 2369 H 211.236 -6.30585 1.44816 0
M  V30 2370 N 211.368 -0.403325 -1.52352 0
M  V30 2371 C 212.318 0.442244 -2.2367 0
M  V30 2372 C 213.302 1.01823 -1.24583 0
M  V30 2373 O 214.494 0.942005 -1.49851 0
M  V30 2374 C 211.623 1.5615 -3.05732 0
M  V30 2375 C 210.709 0.996575 -4.12225 0
M  V30 2376 N 211.1 0.157804 -5.05554 0
M  V30 2377 C 209.398 1.26767 -4.27605 0
M  V30 2378 C 210.099 -0.155853 -5.81491 0
M  V30 2379 N 209.075 0.451775 -5.41719 0
M  V30 2380 H 212.877 -0.204964 -2.93184 0
M  V30 2381 H 210.391 -0.213418 -1.60992 0
M  V30 2382 H 212.388 2.17981 -3.55373 0
M  V30 2383 H 211.048 2.21139 -2.37755 0
M  V30 2384 H 212.059 -0.206049 -5.1749 0
M  V30 2385 H 208.736 1.91757 -3.70858 0
M  V30 2386 H 210.126 -0.836329 -6.66675 0
M  V30 2387 N 212.846 1.57033 -0.133567 0
M  V30 2388 C 214.262 1.58035 0.222944 0
M  V30 2389 C 214.462 1.14713 1.6566 0
M  V30 2390 O 213.518 0.841218 2.38075 0
M  V30 2391 C 214.831 3.00691 -0.0236116 0
M  V30 2392 C 216.379 3.12973 0.0411512 0
M  V30 2393 C 216.854 4.57654 -0.177899 0
M  V30 2394 N 218.345 4.63033 -0.124365 0
M  V30 2395 C 219.08 5.72771 -0.268553 0
M  V30 2396 N 218.576 6.91206 -0.46972 0
M  V30 2397 N 220.369 5.61718 -0.2071 0
M  V30 2398 H 212.52 1.8349 -1.06981 0
M  V30 2399 H 214.783 0.848677 -0.422436 0
M  V30 2400 H 214.489 3.36726 -1.0153 0
M  V30 2401 H 214.363 3.70614 0.701808 0
M  V30 2402 H 216.75 2.76787 1.02338 0
M  V30 2403 H 216.831 2.45564 -0.716383 0
M  V30 2404 H 216.475 4.94542 -1.15717 0
M  V30 2405 H 216.405 5.23173 0.599797 0
M  V30 2406 H 218.896 3.7789 0.027011 0
M  V30 2407 H 219.209 7.70693 -0.570212 0
M  V30 2408 H 217.554 6.93156 -0.505876 0
M  V30 2409 H 220.745 4.68072 -0.0507986 0
M  V30 2410 H 220.918 6.47195 -0.322909 0
M  V30 2411 N 214.325 -0.140222 1.56975 0
M  V30 2412 C 215.602 -0.880769 1.74648 0
M  V30 2413 C 215.982 -1.99036 0.703404 0
M  V30 2414 O 215.33 -2.26821 -0.27648 0
M  V30 2415 C 215.54 -1.417 3.18939 0
M  V30 2416 C 216.888 -1.87774 3.80823 0
M  V30 2417 O 217.912 -1.51427 3.2241 0
M  V30 2418 O 216.771 -2.54827 4.83452 0
M  V30 2419 H 213.865 -0.416713 0.714338 0
M  V30 2420 H 216.411 -0.125618 1.69234 0
M  V30 2421 H 215.183 -0.619902 3.86359 0
M  V30 2422 H 214.806 -2.23546 3.28805 0
M  V30 2423 N 215.803 -1.52179 -0.40978 0
M  V30 2424 C 216.736 -1.70196 -1.52015 0
M  V30 2425 C 217.714 -0.549542 -1.53032 0
M  V30 2426 O 218.898 -0.776815 -1.71749 0
M  V30 2427 C 216.025 -1.74069 -2.90547 0
M  V30 2428 C 215.071 -2.95601 -3.07445 0
M  V30 2429 S 215.904 -4.55956 -2.80827 0
M  V30 2430 C 217.06 -4.62614 -4.21591 0
M  V30 2431 H 217.293 -2.64109 -1.36504 0
M  V30 2432 H 214.826 -1.4221 -0.601312 0
M  V30 2433 H 216.784 -1.76985 -3.70387 0
M  V30 2434 H 215.445 -0.812835 -3.034 0
M  V30 2435 H 214.638 -2.94791 -4.08796 0
M  V30 2436 H 214.24 -2.90569 -2.35469 0
M  V30 2437 H 216.532 -4.39951 -5.15218 0
M  V30 2438 H 217.475 -5.64548 -4.27424 0
M  V30 2439 H 217.883 -3.91654 -4.06531 0
M  V30 2440 N 217.281 0.66697 -1.42791 0
M  V30 2441 C 218.228 1.7803 -1.4688 0
M  V30 2442 C 219.198 1.6299 -0.319919 0
M  V30 2443 O 220.383 1.83432 -0.525118 0
M  V30 2444 C 217.523 3.1611 -1.38451 0
M  V30 2445 C 216.636 3.42381 -2.63437 0
M  V30 2446 C 215.771 4.70232 -2.47094 0
M  V30 2447 C 214.81 4.89564 -3.67415 0
M  V30 2448 N 213.947 6.08661 -3.49966 0
M  V30 2449 H 218.787 1.7387 -2.42019 0
M  V30 2450 H 216.324 0.84868 -1.20149 0
M  V30 2451 H 218.282 3.95914 -1.31561 0
M  V30 2452 H 216.912 3.19374 -0.469033 0
M  V30 2453 H 215.964 2.56774 -2.80662 0
M  V30 2454 H 217.276 3.52557 -3.52853 0
M  V30 2455 H 216.43 5.5814 -2.37834 0
M  V30 2456 H 215.169 4.62353 -1.5518 0
M  V30 2457 H 214.174 4.00096 -3.77099 0
M  V30 2458 H 215.399 4.99282 -4.6032 0
M  V30 2459 H 213.345 6.0194 -2.60776 0
M  V30 2460 H 213.262 6.19733 -4.32975 0
M  V30 2461 H 214.53 6.99226 -3.44532 0
M  V30 2462 N 218.759 1.29093 0.90403 0
M  V30 2463 C 220.17 1.15186 1.46932 0
M  V30 2464 C 220.521 -0.254587 1.94541 0
M  V30 2465 O 219.646 -1.14972 1.83332 0
M  V30 2466 C 220.241 2.08492 2.67051 0
M  V30 2467 C 218.8 1.98621 3.19729 0
M  V30 2468 C 217.947 1.9967 1.92425 0
M  V30 2469 H 220.898 1.41641 0.715789 0
M  V30 2470 H 220.919 1.65461 3.42641 0
M  V30 2471 H 220.431 3.10847 2.3237 0
M  V30 2472 H 218.532 0.993389 3.59114 0
M  V30 2473 H 218.645 2.86068 3.8432 0
M  V30 2474 H 217.009 1.44208 2.09943 0
M  V30 2475 H 217.792 3.03721 1.60026 0
M  V30 2476 N 220.237 -1.11381 1.11499 0
M  V30 2477 C 221.514 -1.7955 0.775965 0
M  V30 2478 C 221.894 -1.97859 -0.73588 0
M  V30 2479 O 221.242 -1.56376 -1.66609 0
M  V30 2480 C 221.452 -3.13196 1.53977 0
M  V30 2481 C 222.8 -3.88227 1.71944 0
M  V30 2482 O 223.824 -3.22887 1.50407 0
M  V30 2483 O 222.683 -5.05477 2.07738 0
M  V30 2484 H 219.777 -0.777728 0.28119 0
M  V30 2485 H 222.323 -1.18118 1.21845 0
M  V30 2486 H 221.095 -2.95229 2.56818 0
M  V30 2487 H 220.718 -3.82342 1.09088 0
M  V30 2488 N 221.715 -0.905404 -1.28997 0
M  V30 2489 C 222.663 -0.377431 -2.29517 0
M  V30 2490 C 223.657 0.526461 -1.61012 0
M  V30 2491 O 224.863 0.40863 -1.753 0
M  V30 2492 H 221.238 -0.103437 -0.744852 0
M  V30 2493 H 223.209 -1.23848 -2.71485 0
M  V30 2494 C 221.958 0.374833 -3.45674 0
M  V30 2495 H 221.281 -0.311474 -3.98585 0
M  V30 2496 H 222.721 0.70903 -4.1803 0
M  V30 2497 C 221.18 1.57963 -2.97572 0
M  V30 2498 O 221.71 2.67886 -2.99333 0
M  V30 2499 N 219.916 1.42375 -2.53333 0
M  V30 2500 H 219.463 0.529466 -2.521 0
M  V30 2501 H 219.421 2.23117 -2.21509 0
M  V30 2502 N 223.193 1.4272 -0.668489 0
M  V30 2503 C 224.442 2.00846 -0.185389 0
M  V30 2504 C 224.755 1.53442 1.21305 0
M  V30 2505 O 225.961 2.03944 1.79218 0
M  V30 2506 C 224.417 3.58805 -0.280591 0
M  V30 2507 C 224.025 4.15198 -1.68268 0
M  V30 2508 C 225.769 4.24255 0.14412 0
M  V30 2509 C 223.676 5.655 -1.73099 0
M  V30 2510 H 222.606 0.751145 -0.0655475 0
M  V30 2511 H 225.257 1.63516 -0.832752 0
M  V30 2512 H 223.639 3.93608 0.434553 0
M  V30 2513 H 224.813 3.91866 -2.42441 0
M  V30 2514 H 223.128 3.62176 -2.05469 0
M  V30 2515 H 225.725 5.34547 0.128086 0
M  V30 2516 H 226.068 3.99277 1.17827 0
M  V30 2517 H 226.601 3.94389 -0.519798 0
M  V30 2518 H 223.34 5.95268 -2.74475 0
M  V30 2519 H 222.86 5.90842 -1.03274 0
M  V30 2520 H 224.539 6.29808 -1.48158 0
M  V30 2521 N 224.671 0.411399 1.52136 0
M  V30 2522 C 225.601 -0.404015 2.29978 0
M  V30 2523 C 226.582 -1.04412 1.34284 0
M  V30 2524 O 227.767 -1.0527 1.63192 0
M  V30 2525 C 224.897 -1.5197 3.12286 0
M  V30 2526 C 223.851 -1.00448 4.16046 0
M  V30 2527 C 223.177 -2.21393 4.86712 0
M  V30 2528 C 224.477 -0.0569336 5.22269 0
M  V30 2529 H 226.171 0.245529 2.98392 0
M  V30 2530 H 223.717 0.119525 1.43503 0
M  V30 2531 H 225.67 -2.09715 3.6551 0
M  V30 2532 H 224.394 -2.19716 2.41646 0
M  V30 2533 H 223.053 -0.449421 3.63835 0
M  V30 2534 H 222.701 -2.87699 4.12599 0
M  V30 2535 H 222.401 -1.87571 5.56858 0
M  V30 2536 H 223.925 -2.7974 5.4275 0
M  V30 2537 H 225.339 -0.54325 5.7072 0
M  V30 2538 H 223.736 0.192594 5.99791 0
M  V30 2539 H 224.806 0.887663 4.76706 0
M  V30 2540 N 226.149 -1.5696 0.141893 0
M  V30 2541 C 227.079 -2.19516 -0.795936 0
M  V30 2542 C 228.06 -1.14187 -1.26077 0
M  V30 2543 O 229.245 -1.42511 -1.31925 0
M  V30 2544 C 226.375 -2.81272 -2.03723 0
M  V30 2545 C 225.329 -3.92384 -1.70936 0
M  V30 2546 C 224.655 -4.41052 -3.02287 0
M  V30 2547 C 225.955 -5.13403 -0.959954 0
M  V30 2548 H 227.649 -2.98138 -0.274596 0
M  V30 2549 H 225.195 -1.43406 -0.130636 0
M  V30 2550 H 227.148 -3.237 -2.69808 0
M  V30 2551 H 225.872 -1.99973 -2.58221 0
M  V30 2552 H 224.531 -3.50566 -1.07232 0
M  V30 2553 H 224.179 -3.56582 -3.54765 0
M  V30 2554 H 223.879 -5.15993 -2.81114 0
M  V30 2555 H 225.403 -4.86146 -3.69451 0
M  V30 2556 H 226.817 -5.52706 -1.52279 0
M  V30 2557 H 225.214 -5.94073 -0.848357 0
M  V30 2558 H 226.284 -4.84875 0.0492434 0
M  V30 2559 N 227.627 0.131896 -1.57047 0
M  V30 2560 C 228.904 0.871495 -1.75112 0
M  V30 2561 C 229.284 1.9866 -0.713949 0
M  V30 2562 O 228.632 2.26965 0.264447 0
M  V30 2563 C 228.842 1.40007 -3.19686 0
M  V30 2564 C 230.19 1.85752 -3.81813 0
M  V30 2565 O 231.214 1.49715 -3.23209 0
M  V30 2566 O 230.073 2.5226 -4.84796 0
M  V30 2567 H 227.167 0.412919 -0.716538 0
M  V30 2568 H 229.713 0.116641 -1.69299 0
M  V30 2569 H 228.485 0.599404 -3.86682 0
M  V30 2570 H 228.108 2.218 -3.29986 0
M  V30 2571 N 229.106 1.52395 0.401703 0
M  V30 2572 C 230.016 1.7917 1.51444 0
M  V30 2573 C 231.032 0.677691 1.6026 0
M  V30 2574 O 232.208 0.963909 1.76835 0
M  V30 2575 C 229.273 1.94347 2.87107 0
M  V30 2576 C 228.334 3.18257 2.88116 0
M  V30 2577 C 227.567 3.32701 4.17308 0
M  V30 2578 O 227.79 2.52238 5.11598 0
M  V30 2579 O 226.724 4.25891 4.25324 0
M  V30 2580 H 230.55 2.73633 1.31752 0
M  V30 2581 H 228.135 1.3733 0.588296 0
M  V30 2582 H 230.017 2.06109 3.67555 0
M  V30 2583 H 228.692 1.03073 3.06851 0
M  V30 2584 H 227.599 3.11947 2.06494 0
M  V30 2585 H 228.932 4.09336 2.73322 0
M  V30 2586 N 230.584 -0.659388 1.43143 0
M  V30 2587 C 231.534 -1.7655 1.44271 0
M  V30 2588 C 232.518 -1.57847 0.311961 0
M  V30 2589 O 233.71 -1.68064 0.555306 0
M  V30 2590 C 230.839 -3.15104 1.36251 0
M  V30 2591 C 229.925 -3.39377 2.54331 0
M  V30 2592 N 230.316 -3.34153 3.79704 0
M  V30 2593 C 228.614 -3.70072 2.48922 0
M  V30 2594 C 229.315 -3.58337 4.58225 0
M  V30 2595 N 228.291 -3.79851 3.88863 0
M  V30 2596 H 232.093 -1.70928 2.39083 0
M  V30 2597 H 229.607 -0.860823 1.37708 0
M  V30 2598 H 231.604 -3.94389 1.35141 0
M  V30 2599 H 230.264 -3.21913 0.424531 0
M  V30 2600 H 231.275 -3.13704 4.1208 0
M  V30 2601 H 227.952 -3.84034 1.63781 0
M  V30 2602 H 229.342 -3.60129 5.67236 0
M  V30 2603 N 232.062 -1.29571 -0.897171 0
M  V30 2604 C 233.31 -1.17456 -1.64464 0
M  V30 2605 C 233.631 0.273698 -1.9307 0
M  V30 2606 O 232.901 1.18684 -1.55855 0
M  V30 2607 H 231.481 -0.431706 -0.609622 0
M  V30 2608 H 234.143 -1.62531 -1.07562 0
M  V30 2609 H 233.239 -1.72648 -2.59998 0
M  V30 2610 N 233.54 1.10788 -1.12088 0
M  V30 2611 C 234.49 2.15158 -0.754401 0
M  V30 2612 C 235.474 1.59026 0.244846 0
M  V30 2613 O 236.666 1.76927 0.0509097 0
M  V30 2614 C 233.795 3.42677 -0.206657 0
M  V30 2615 C 232.881 4.05751 -1.23398 0
M  V30 2616 N 233.272 4.43582 -2.43041 0
M  V30 2617 C 231.57 4.32764 -1.07848 0
M  V30 2618 C 232.271 4.93085 -3.08613 0
M  V30 2619 N 231.247 4.89664 -2.36072 0
M  V30 2620 H 235.049 2.42195 -1.6649 0
M  V30 2621 H 232.563 1.27872 -1.00112 0
M  V30 2622 H 234.56 4.16834 0.0740646 0
M  V30 2623 H 233.22 3.17101 0.698342 0
M  V30 2624 H 234.231 4.35395 -2.80449 0
M  V30 2625 H 230.908 4.16863 -0.230483 0
M  V30 2626 H 232.298 5.31933 -4.10483 0
M  V30 2627 N 235.018 0.912232 1.28515 0
M  V30 2628 C 236.264 0.545405 1.95328 0
M  V30 2629 C 236.597 -0.908313 1.71649 0
M  V30 2630 O 235.872 -1.64575 1.03659 0
M  V30 2631 C 236.155 0.853483 3.4984 0
M  V30 2632 C 236.008 2.35982 3.82926 0
M  V30 2633 C 237.327 0.348589 4.38717 0
M  V30 2634 H 234.446 0.199626 0.709449 0
M  V30 2635 H 237.088 1.1412 1.5191 0
M  V30 2636 H 235.238 0.34643 3.86952 0
M  V30 2637 H 236.91 2.93738 3.55691 0
M  V30 2638 H 235.153 2.81543 3.30024 0
M  V30 2639 H 235.824 2.52593 4.90816 0
M  V30 2640 H 238.3 0.78294 4.08668 0
M  V30 2641 H 237.176 0.593242 5.45685 0
M  V30 2642 H 237.437 -0.751049 4.35674 0
M  V30 2643 N 236.496 -1.42363 0.676048 0
M  V30 2644 C 237.446 -2.27987 -0.0242903 0
M  V30 2645 C 238.43 -1.41153 -0.772319 0
M  V30 2646 O 239.622 -1.64592 -0.651025 0
M  V30 2647 C 236.751 -3.29195 -0.973953 0
M  V30 2648 C 235.837 -4.23512 -0.223202 0
M  V30 2649 N 236.228 -4.99865 0.772589 0
M  V30 2650 C 234.526 -4.43606 -0.461469 0
M  V30 2651 C 235.227 -5.68757 1.22027 0
M  V30 2652 N 234.203 -5.40811 0.549975 0
M  V30 2653 H 238.005 -2.84445 0.73949 0
M  V30 2654 H 235.519 -1.54341 0.50522 0
M  V30 2655 H 237.516 -3.89339 -1.49067 0
M  V30 2656 H 236.176 -2.74298 -1.73755 0
M  V30 2657 H 237.187 -5.04921 1.15217 0
M  V30 2658 H 233.864 -3.99749 -1.20446 0
M  V30 2659 H 235.254 -6.40007 2.0455 0
M  V30 2660 N 237.974 -0.419461 -1.51915 0
M  V30 2661 C 239.223 0.154346 -2.01109 0
M  V30 2662 C 239.536 1.45338 -1.30905 0
M  V30 2663 O 240.742 2.10906 -1.7097 0
M  V30 2664 C 239.198 0.325615 -3.58424 0
M  V30 2665 C 238.806 -0.961934 -4.37551 0
M  V30 2666 C 240.55 0.854155 -4.15818 0
M  V30 2667 C 238.457 -0.757287 -5.86531 0
M  V30 2668 H 237.387 0.0614563 -0.751491 0
M  V30 2669 H 240.038 -0.54649 -1.75173 0
M  V30 2670 H 238.42 1.08903 -3.80731 0
M  V30 2671 H 239.594 -1.7323 -4.26999 0
M  V30 2672 H 237.909 -1.41766 -3.91524 0
M  V30 2673 H 240.506 1.02346 -5.24814 0
M  V30 2674 H 240.849 1.83172 -3.73837 0
M  V30 2675 H 241.382 0.149528 -3.97519 0
M  V30 2676 H 238.121 -1.70671 -6.32892 0
M  V30 2677 H 237.641 -0.0264061 -5.99794 0
M  V30 2678 H 239.32 -0.403482 -6.45741 0
M  V30 2679 N 239.452 1.56882 -0.150215 0
M  V30 2680 C 240.68 2.00593 0.506948 0
M  V30 2681 C 241.095 1.03033 1.58208 0
M  V30 2682 O 240.452 0.0278396 1.82479 0
M  V30 2683 C 240.503 3.44209 1.10465 0
M  V30 2684 O 240.224 4.3804 0.0724636 0
M  V30 2685 C 241.725 4.03214 1.84211 0
M  V30 2686 H 238.945 0.65795 0.13169 0
M  V30 2687 H 241.489 2.03018 -0.245743 0
M  V30 2688 H 239.644 3.42625 1.80795 0
M  V30 2689 H 240.058 5.22007 0.510793 0
M  V30 2690 H 241.532 5.0569 2.21318 0
M  V30 2691 H 242.009 3.44107 2.72923 0
M  V30 2692 H 242.615 4.08437 1.18572 0
M  V30 2693 N 240.93 -0.123565 1.57115 0
M  V30 2694 C 242.207 -0.862196 1.75572 0
M  V30 2695 C 242.587 -1.98279 0.724475 0
M  V30 2696 O 241.935 -2.27102 -0.252407 0
M  V30 2697 C 242.145 -1.38309 3.20424 0
M  V30 2698 C 243.493 -1.83724 3.82793 0
M  V30 2699 O 244.517 -1.47999 3.23998 0
M  V30 2700 O 243.376 -2.49685 4.86127 0
M  V30 2701 H 240.47 -0.409113 0.718718 0
M  V30 2702 H 243.016 -0.107661 1.69358 0
M  V30 2703 H 241.788 -0.578889 3.86994 0
M  V30 2704 H 241.411 -2.20046 3.31158 0
M  V30 2705 N 242.408 -1.52605 -0.393616 0
M  V30 2706 C 243.655 -1.67424 -1.1391 0
M  V30 2707 C 243.983 -0.411859 -1.90089 0
M  V30 2708 O 243.238 0.605626 -1.86093 0
M  V30 2709 C 243.537 -2.85721 -2.14705 0
M  V30 2710 C 243.203 -4.23342 -1.55218 0
M  V30 2711 C 241.865 -4.60771 -1.3872 0
M  V30 2712 C 244.217 -5.09041 -1.11924 0
M  V30 2713 C 241.545 -5.81563 -0.774689 0
M  V30 2714 C 243.897 -6.30452 -0.520853 0
M  V30 2715 C 242.561 -6.66617 -0.343134 0
M  V30 2716 H 241.831 -0.612648 -0.416826 0
M  V30 2717 H 244.478 -1.8674 -0.424315 0
M  V30 2718 H 242.783 -2.60803 -2.92385 0
M  V30 2719 H 244.48 -2.94382 -2.72288 0
M  V30 2720 H 241.07 -3.93855 -1.69045 0
M  V30 2721 H 245.254 -4.80695 -1.23473 0
M  V30 2722 H 240.51 -6.08196 -0.625154 0
M  V30 2723 H 244.684 -6.96175 -0.177065 0
M  V30 2724 H 242.311 -7.60083 0.133571 0
M  V30 2725 N 243.887 0.651787 -1.4349 0
M  V30 2726 C 244.835 1.78586 -1.49029 0
M  V30 2727 C 245.829 1.65448 -0.363767 0
M  V30 2728 O 247.035 1.71777 -0.537821 0
M  V30 2729 H 243.41 0.589236 -0.467231 0
M  V30 2730 H 245.381 1.71035 -2.44519 0
M  V30 2731 C 244.13 3.16851 -1.43181 0
M  V30 2732 H 243.453 3.27598 -2.29171 0
M  V30 2733 H 244.893 3.96156 -1.51118 0
M  V30 2734 C 243.352 3.36568 -0.149616 0
M  V30 2735 O 243.882 3.93885 0.788509 0
M  V30 2736 N 242.088 2.90539 -0.0593484 0
M  V30 2737 H 241.635 2.4408 -0.823575 0
M  V30 2738 H 241.593 3.04108 0.797853 0
M  V30 2739 N 245.365 1.30045 0.890287 0
M  V30 2740 C 246.614 1.17929 1.63633 0
M  V30 2741 C 246.927 -0.266204 1.9378 0
M  V30 2742 O 248.133 -0.508804 2.6669 0
M  V30 2743 C 246.589 2.06317 2.94892 0
M  V30 2744 C 246.197 3.55745 2.72305 0
M  V30 2745 C 247.941 2.0295 3.72843 0
M  V30 2746 C 245.848 4.36205 3.99348 0
M  V30 2747 H 244.778 0.437782 0.613892 0
M  V30 2748 H 247.429 1.54754 0.986075 0
M  V30 2749 H 245.811 1.6237 3.61182 0
M  V30 2750 H 246.985 4.07805 2.1455 0
M  V30 2751 H 245.3 3.6088 2.07737 0
M  V30 2752 H 247.897 2.60319 4.67053 0
M  V30 2753 H 248.24 1.0117 4.0382 0
M  V30 2754 H 248.773 2.4499 3.13408 0
M  V30 2755 H 245.512 5.38659 3.73533 0
M  V30 2756 H 245.032 3.8891 4.56628 0
M  V30 2757 H 246.711 4.47362 4.67415 0
M  V30 2758 N 246.843 -1.10192 1.12674 0
M  V30 2759 C 247.806 -2.14786 0.799979 0
M  V30 2760 C 248.806 -1.59711 -0.18685 0
M  V30 2761 O 249.996 -1.74156 0.0392558 0
M  V30 2762 C 247.128 -3.40374 0.189228 0
M  V30 2763 H 248.321 -2.45203 1.72671 0
M  V30 2764 H 245.874 -1.25597 0.930326 0
M  V30 2765 H 246.609 -3.15577 -0.747107 0
M  V30 2766 H 246.394 -3.81637 0.899766 0
M  V30 2767 H 247.884 -4.17594 -0.0228143 0
M  V30 2768 N 248.321 -0.919034 -1.28029 0
M  V30 2769 C 249.284 -0.416182 -2.2539 0
M  V30 2770 C 250.284 0.460438 -1.54067 0
M  V30 2771 O 251.474 0.262744 -1.72207 0
M  V30 2772 C 248.606 0.402707 -3.38513 0
M  V30 2773 H 249.799 -1.27629 -2.71387 0
M  V30 2774 H 247.352 -0.698919 -1.39803 0
M  V30 2775 H 248.087 1.282 -2.97885 0
M  V30 2776 H 247.872 -0.225698 -3.9145 0
M  V30 2777 H 249.362 0.745191 -4.10897 0
M  V30 2778 N 249.799 1.42003 -0.683588 0
M  V30 2779 C 250.732 2.28166 0.039592 0
M  V30 2780 C 251.71 1.41562 0.799942 0
M  V30 2781 O 252.894 1.70997 0.793248 0
M  V30 2782 C 250.021 3.21575 1.06335 0
M  V30 2783 C 249.067 4.24643 0.397562 0
M  V30 2784 S 249.9 5.2869 -0.851296 0
M  V30 2785 C 251.056 6.25666 0.171166 0
M  V30 2786 H 251.289 2.89153 -0.691229 0
M  V30 2787 H 248.822 1.46962 -0.473435 0
M  V30 2788 H 250.78 3.75928 1.6489 0
M  V30 2789 H 249.441 2.59707 1.76667 0
M  V30 2790 H 248.634 4.90223 1.17035 0
M  V30 2791 H 248.236 3.73824 -0.114611 0
M  V30 2792 H 250.528 6.69653 1.02819 0
M  V30 2793 H 251.471 7.06666 -0.450397 0
M  V30 2794 H 251.879 5.62095 0.520578 0
M  V30 2795 N 251.277 0.427512 1.51691 0
M  V30 2796 C 252.207 -0.3796 2.30394 0
M  V30 2797 C 253.188 -1.02982 1.35384 0
M  V30 2798 O 254.373 -1.03534 1.643 0
M  V30 2799 C 251.503 -1.48649 3.1388 0
M  V30 2800 C 250.457 -0.960294 4.17088 0
M  V30 2801 C 249.783 -2.16219 4.89033 0
M  V30 2802 C 251.083 -0.00153679 5.223 0
M  V30 2803 H 252.777 0.277164 2.98114 0
M  V30 2804 H 250.323 0.134739 1.43368 0
M  V30 2805 H 252.276 -2.05826 3.67714 0
M  V30 2806 H 251 -2.1714 2.43962 0
M  V30 2807 H 249.659 -0.410806 3.64291 0
M  V30 2808 H 249.307 -2.83307 4.15628 0
M  V30 2809 H 249.007 -1.81654 5.58816 0
M  V30 2810 H 250.531 -2.73968 5.45687 0
M  V30 2811 H 251.945 -0.482687 5.71264 0
M  V30 2812 H 250.342 0.256199 5.99553 0
M  V30 2813 H 251.412 0.938174 4.75738 0
M  V30 2814 N 252.755 -1.56801 0.158532 0
M  V30 2815 C 254.166 -1.83189 -0.360366 0
M  V30 2816 C 254.517 -1.07778 -1.63946 0
M  V30 2817 O 253.642 -0.326718 -2.13919 0
M  V30 2818 C 254.237 -3.32297 -0.660595 0
M  V30 2819 C 252.796 -3.59227 -1.12398 0
M  V30 2820 C 251.943 -2.76877 -0.153097 0
M  V30 2821 H 254.894 -1.54008 0.383031 0
M  V30 2822 H 254.915 -3.4908 -1.51405 0
M  V30 2823 H 254.427 -3.87156 0.270527 0
M  V30 2824 H 252.528 -3.09766 -2.07064 0
M  V30 2825 H 252.641 -4.67632 -1.04197 0
M  V30 2826 H 251.005 -2.46319 -0.647983 0
M  V30 2827 H 251.788 -3.34511 0.77182 0
M  V30 2828 N 254.233 0.115231 -1.57178 0
M  V30 2829 C 255.649 0.468877 -1.52557 0
M  V30 2830 C 255.849 1.81649 -0.872125 0
M  V30 2831 O 254.905 2.48347 -0.45606 0
M  V30 2832 C 256.218 0.4499 -2.97315 0
M  V30 2833 C 257.766 0.533185 -3.08425 0
M  V30 2834 C 258.241 0.54456 -4.54751 0
M  V30 2835 N 259.732 0.605892 -4.5922 0
M  V30 2836 C 260.467 0.636203 -5.6986 0
M  V30 2837 N 259.963 0.623931 -6.89985 0
M  V30 2838 N 261.756 0.679496 -5.57978 0
M  V30 2839 H 253.907 -0.767712 -1.9804 0
M  V30 2840 H 256.17 -0.283609 -0.904583 0
M  V30 2841 H 255.876 -0.472721 -3.48509 0
M  V30 2842 H 255.75 1.27632 -3.5495 0
M  V30 2843 H 258.137 1.44623 -2.57232 0
M  V30 2844 H 258.218 -0.320995 -2.53778 0
M  V30 2845 H 257.862 -0.364452 -5.06591 0
M  V30 2846 H 257.792 1.41568 -5.07214 0
M  V30 2847 H 260.283 0.621386 -3.72756 0
M  V30 2848 H 260.596 0.649787 -7.70063 0
M  V30 2849 H 258.941 0.591296 -6.9248 0
M  V30 2850 H 262.132 0.686472 -4.63039 0
M  V30 2851 H 262.305 0.69965 -6.44212 0
M  V30 2852 N 255.711 1.52812 0.385517 0
M  V30 2853 C 256.621 1.80766 1.49535 0
M  V30 2854 C 257.637 0.694651 1.59532 0
M  V30 2855 O 258.813 0.982611 1.75803 0
M  V30 2856 C 255.878 1.97381 2.85029 0
M  V30 2857 C 254.939 3.21295 2.84724 0
M  V30 2858 C 254.172 3.37108 4.13756 0
M  V30 2859 O 254.395 2.5765 5.08893 0
M  V30 2860 O 253.329 4.30378 4.20783 0
M  V30 2861 H 257.155 2.75015 1.28842 0
M  V30 2862 H 254.74 1.37946 0.573697 0
M  V30 2863 H 256.622 2.09996 3.65349 0
M  V30 2864 H 255.297 1.06322 3.05741 0
M  V30 2865 H 254.204 3.1412 2.03174 0
M  V30 2866 H 255.537 4.12212 2.68965 0
M  V30 2867 N 257.189 -0.644168 1.43834 0
M  V30 2868 C 258.417 -1.43147 1.49387 0
M  V30 2869 C 258.832 -1.88452 0.114583 0
M  V30 2870 O 258.189 -1.60047 -0.876989 0
M  V30 2871 C 258.24 -2.66046 2.44748 0
M  V30 2872 O 257.961 -2.22633 3.77314 0
M  V30 2873 C 259.462 -3.59311 2.59635 0
M  V30 2874 H 256.682 -0.439447 0.507077 0
M  V30 2875 H 259.226 -0.78895 1.88669 0
M  V30 2876 H 257.381 -3.26418 2.08638 0
M  V30 2877 H 257.795 -3.02216 4.28679 0
M  V30 2878 H 259.269 -4.42187 3.30416 0
M  V30 2879 H 259.746 -4.07259 1.64427 0
M  V30 2880 H 260.352 -3.04816 2.96593 0
M  V30 2881 N 258.668 -1.30515 -0.883378 0
M  V30 2882 C 259.6 -1.12846 -1.99496 0
M  V30 2883 C 260.613 -0.0712571 -1.62644 0
M  V30 2884 O 261.802 -0.317432 -1.75655 0
M  V30 2885 C 258.902 -0.699123 -3.3161 0
M  V30 2886 C 258.075 -1.83842 -3.96889 0
M  V30 2887 C 257.134 -1.39737 -5.07307 0
M  V30 2888 O 256.16 -2.10485 -5.28852 0
M  V30 2889 N 257.362 -0.277279 -5.79837 0
M  V30 2890 H 260.127 -2.08585 -2.15203 0
M  V30 2891 H 257.688 -1.22672 -1.05656 0
M  V30 2892 H 259.68 -0.387044 -4.02845 0
M  V30 2893 H 258.25 0.166276 -3.12157 0
M  V30 2894 H 257.47 -2.31853 -3.18807 0
M  V30 2895 H 258.758 -2.60187 -4.37241 0
M  V30 2896 H 258.156 0.3122 -5.64838 0
M  V30 2897 H 256.713 -0.0246623 -6.51795 0
M  V30 2898 N 260.146 1.09593 -1.13257 0
M  V30 2899 C 261.395 1.81105 -0.887917 0
M  V30 2900 C 261.708 1.86563 0.587672 0
M  V30 2901 O 262.914 2.54367 0.949204 0
M  V30 2902 C 261.37 3.25338 -1.53895 0
M  V30 2903 C 260.978 3.28151 -3.04994 0
M  V30 2904 C 262.722 4.01617 -1.37492 0
M  V30 2905 C 260.629 4.66897 -3.6299 0
M  V30 2906 H 259.559 0.678661 -0.328534 0
M  V30 2907 H 262.21 1.23183 -1.36008 0
M  V30 2908 H 260.592 3.8331 -0.994446 0
M  V30 2909 H 261.766 2.79953 -3.66009 0
M  V30 2910 H 260.081 2.65361 -3.20893 0
M  V30 2911 H 262.678 5.04119 -1.78235 0
M  V30 2912 H 263.021 4.15072 -0.31957 0
M  V30 2913 H 263.554 3.50082 -1.88912 0
M  V30 2914 H 260.293 4.58643 -4.68323 0
M  V30 2915 H 259.813 5.15426 -3.06752 0
M  V30 2916 H 261.492 5.3587 -3.62563 0
M  V30 2917 N 261.624 0.925811 1.2754 0
M  V30 2918 C 262.852 0.581509 1.9856 0
M  V30 2919 C 263.267 -0.840041 1.69082 0
M  V30 2920 O 262.624 -1.55805 0.950312 0
M  V30 2921 C 262.675 0.795589 3.52637 0
M  V30 2922 O 262.396 2.16121 3.81082 0
M  V30 2923 C 263.897 0.459744 4.4091 0
M  V30 2924 H 261.117 0.220538 0.633722 0
M  V30 2925 H 263.661 1.24232 1.6244 0
M  V30 2926 H 261.816 0.18161 3.86974 0
M  V30 2927 H 262.23 2.2098 4.75676 0
M  V30 2928 H 263.704 0.660244 5.48037 0
M  V30 2929 H 264.181 -0.604625 4.35018 0
M  V30 2930 H 264.787 1.05178 4.12089 0
M  V30 2931 N 263.102 -1.41638 0.69111 0
M  V30 2932 C 264.33 -2.05628 0.22909 0
M  V30 2933 C 264.745 -1.51992 -1.11999 0
M  V30 2934 O 264.102 -0.666322 -1.69901 0
M  V30 2935 C 264.153 -3.61084 0.173283 0
M  V30 2936 O 263.874 -4.12735 1.46907 0
M  V30 2937 C 265.375 -4.42213 -0.310266 0
M  V30 2938 H 262.595 -0.662327 0.107534 0
M  V30 2939 H 265.139 -1.81489 0.942438 0
M  V30 2940 H 263.294 -3.84278 -0.490858 0
M  V30 2941 H 263.708 -5.06743 1.35322 0
M  V30 2942 H 265.182 -5.51194 -0.298196 0
M  V30 2943 H 265.659 -4.1799 -1.34838 0
M  V30 2944 H 266.265 -4.24074 0.322716 0
M  V30 2945 N 264.58 -0.43555 -1.51462 0
M  V30 2946 C 265.513 0.421989 -2.24264 0
M  V30 2947 C 266.491 1.02619 -1.26127 0
M  V30 2948 O 267.675 1.069 -1.55257 0
M  V30 2949 C 264.802 1.588 -2.99166 0
M  V30 2950 C 263.848 1.10465 -4.11946 0
M  V30 2951 S 264.681 0.048146 -5.35478 0
M  V30 2952 C 265.837 1.21887 -6.13917 0
M  V30 2953 H 266.07 -0.196102 -2.96653 0
M  V30 2954 H 263.603 -0.220054 -1.52824 0
M  V30 2955 H 265.561 2.25647 -3.42919 0
M  V30 2956 H 264.222 2.1775 -2.26371 0
M  V30 2957 H 263.415 1.97654 -4.63626 0
M  V30 2958 H 263.017 0.51445 -3.70445 0
M  V30 2959 H 265.309 2.13756 -6.42895 0
M  V30 2960 H 266.252 0.742076 -7.04201 0
M  V30 2961 H 266.66 1.45663 -5.45383 0
M  V30 2962 N 266.058 1.56714 -0.166846 0
M  V30 2963 C 267.021 2.16539 0.751232 0
M  V30 2964 C 268.021 1.11228 1.16125 0
M  V30 2965 O 269.211 1.36765 1.07894 0
M  V30 2966 C 266.343 2.74462 2.02196 0
M  V30 2967 H 267.536 2.99013 0.230499 0
M  V30 2968 H 265.089 1.56081 0.0826982 0
M  V30 2969 H 265.824 1.95709 2.58589 0
M  V30 2970 H 265.609 3.51527 1.73698 0
M  V30 2971 H 267.099 3.20489 2.67725 0
M  V30 2972 N 267.536 -0.106894 1.57237 0
M  V30 2973 C 268.784 -0.810921 1.85117 0
M  V30 2974 C 269.105 -1.7984 0.753827 0
M  V30 2975 O 268.375 -1.94649 -0.221056 0
M  V30 2976 H 266.955 -0.302466 0.683025 0
M  V30 2977 H 269.617 -0.0913324 1.94686 0
M  V30 2978 H 268.713 -1.34875 2.81452 0
M  V30 2979 N 269.014 -1.53014 -0.377408 0
M  V30 2980 C 270.242 -1.72515 -1.14219 0
M  V30 2981 C 270.657 -0.448735 -1.8339 0
M  V30 2982 O 270.014 0.577592 -1.73119 0
M  V30 2983 C 270.065 -2.8826 -2.18148 0
M  V30 2984 O 269.786 -4.10962 -1.51795 0
M  V30 2985 C 271.287 -3.19536 -3.07264 0
M  V30 2986 H 268.507 -0.577301 -0.342001 0
M  V30 2987 H 271.051 -1.99712 -0.439935 0
M  V30 2988 H 269.206 -2.63492 -2.83991 0
M  V30 2989 H 269.62 -4.75693 -2.20945 0
M  V30 2990 H 271.094 -4.03959 -3.76193 0
M  V30 2991 H 271.571 -2.34403 -3.71419 0
M  V30 2992 H 272.177 -3.46186 -2.47053 0
M  V30 2993 N 270.492 0.636531 -1.44174 0
M  V30 2994 C 271.439 1.74875 -1.50624 0
M  V30 2995 C 272.409 1.62275 -0.35442 0
M  V30 2996 O 273.594 1.82276 -0.563908 0
M  V30 2997 C 270.734 3.13102 -1.45125 0
M  V30 2998 C 269.847 3.36717 -2.7064 0
M  V30 2999 C 268.982 4.64885 -2.57013 0
M  V30 3000 C 268.021 4.8166 -3.77717 0
M  V30 3001 N 267.158 6.01101 -3.62798 0
M  V30 3002 H 271.998 1.68697 -2.45653 0
M  V30 3003 H 269.535 0.823004 -1.21922 0
M  V30 3004 H 271.493 3.93034 -1.39929 0
M  V30 3005 H 270.123 3.18308 -0.536671 0
M  V30 3006 H 269.175 2.50763 -2.86046 0
M  V30 3007 H 270.487 3.44993 -3.60252 0
M  V30 3008 H 269.641 5.52969 -2.49619 0
M  V30 3009 H 268.38 4.58957 -1.64953 0
M  V30 3010 H 267.385 3.92007 -3.85501 0
M  V30 3011 H 268.61 4.89406 -4.70807 0
M  V30 3012 H 266.556 5.96273 -2.73486 0
M  V30 3013 H 266.473 6.10409 -4.46023 0
M  V30 3014 H 267.741 6.91761 -3.59286 0
M  V30 3015 N 271.97 1.30982 0.876444 0
M  V30 3016 C 273.381 1.18277 1.44456 0
M  V30 3017 C 273.732 -0.213265 1.95037 0
M  V30 3018 O 272.857 -1.11057 1.85729 0
M  V30 3019 C 273.452 2.1411 2.62569 0
M  V30 3020 C 272.011 2.05358 3.15444 0
M  V30 3021 C 271.158 2.03706 1.88146 0
M  V30 3022 H 274.109 1.43127 0.685584 0
M  V30 3023 H 274.13 1.72692 3.39054 0
M  V30 3024 H 273.642 3.15706 2.25724 0
M  V30 3025 H 271.743 1.06934 3.56926 0
M  V30 3026 H 271.856 2.94156 3.78166 0
M  V30 3027 H 270.22 1.48629 2.06837 0
M  V30 3028 H 271.003 3.07047 1.53547 0
M  V30 3029 N 273.449 -1.08991 1.13837 0
M  V30 3030 C 274.679 -1.84743 0.924859 0
M  V30 3031 C 275.087 -1.81629 -0.529874 0
M  V30 3032 O 274.43 -1.21397 -1.37872 0
M  V30 3033 C 274.492 -3.33568 1.34061 0
M  V30 3034 C 274.156 -3.60425 2.80968 0
M  V30 3035 C 275.153 -3.55771 3.79108 0
M  V30 3036 C 272.838 -3.88627 3.18236 0
M  V30 3037 C 274.832 -3.78939 5.12527 0
M  V30 3038 C 272.519 -4.11449 4.51833 0
M  V30 3039 C 273.517 -4.06598 5.48787 0
M  V30 3040 O 273.205 -4.28826 6.79973 0
M  V30 3041 H 272.937 -0.590258 0.329502 0
M  V30 3042 H 275.491 -1.38598 1.51591 0
M  V30 3043 H 273.721 -3.80442 0.692853 0
M  V30 3044 H 275.41 -3.90743 1.09886 0
M  V30 3045 H 276.176 -3.34005 3.51661 0
M  V30 3046 H 272.055 -3.91526 2.43369 0
M  V30 3047 H 275.599 -3.75068 5.88192 0
M  V30 3048 H 271.496 -4.32698 4.79002 0
M  V30 3049 H 272.264 -4.46264 6.86142 0
M  V30 3050 N 274.927 -0.932562 -1.27047 0
M  V30 3051 C 275.86 -0.379774 -2.25018 0
M  V30 3052 C 276.838 0.526587 -1.53837 0
M  V30 3053 O 278.022 0.465992 -1.82649 0
M  V30 3054 C 275.149 0.455187 -3.35627 0
M  V30 3055 C 274.195 -0.388428 -4.24728 0
M  V30 3056 S 275.028 -1.80701 -5.04091 0
M  V30 3057 C 276.184 -0.979865 -6.18182 0
M  V30 3058 H 276.417 -1.2101 -2.71558 0
M  V30 3059 H 273.95 -0.735078 -1.35779 0
M  V30 3060 H 275.908 0.931052 -3.99802 0
M  V30 3061 H 274.569 1.26009 -2.87716 0
M  V30 3062 H 273.762 0.25089 -5.03375 0
M  V30 3063 H 273.364 -0.798649 -3.65373 0
M  V30 3064 H 275.656 -0.218115 -6.77149 0
M  V30 3065 H 276.599 -1.73951 -6.86401 0
M  V30 3066 H 277.007 -0.51973 -5.62102 0
M  V30 3067 N 276.405 1.4127 -0.698611 0
M  V30 3068 C 277.368 2.29158 -0.044132 0
M  V30 3069 C 278.368 1.44529 0.704841 0
M  V30 3070 O 279.558 1.65643 0.539276 0
M  V30 3071 C 276.69 3.27459 0.947809 0
M  V30 3072 H 277.883 2.88529 -0.817994 0
M  V30 3073 H 275.436 1.49307 -0.46228 0
M  V30 3074 H 276.171 2.73073 1.74933 0
M  V30 3075 H 275.956 3.8991 0.41385 0
M  V30 3076 H 277.446 3.93311 1.40344 0
M  V30 3077 N 277.883 0.443576 1.51229 0
M  V30 3078 C 279.294 -0.0180867 1.86691 0
M  V30 3079 C 279.645 -1.41384 1.36033 0
M  V30 3080 O 278.77 -2.04291 0.713722 0
M  V30 3081 C 279.365 -0.039597 3.38777 0
M  V30 3082 C 277.924 -0.445692 3.73752 0
M  V30 3083 C 277.071 0.357584 2.74985 0
M  V30 3084 H 280.022 0.659138 1.44364 0
M  V30 3085 H 280.043 -0.847761 3.70936 0
M  V30 3086 H 279.555 0.976382 3.75617 0
M  V30 3087 H 277.656 -1.46704 3.42503 0
M  V30 3088 H 277.769 -0.166155 4.78812 0
M  V30 3089 H 276.133 -0.184973 2.54027 0
M  V30 3090 H 276.916 1.37256 3.14668 0
M  V30 3091 N 279.361 -1.56624 0.175154 0
M  V30 3092 C 280.271 -2.21741 -0.766042 0
M  V30 3093 C 281.287 -1.21023 -1.25018 0
M  V30 3094 O 282.463 -1.53697 -1.3015 0
M  V30 3095 C 279.528 -2.84839 -1.97655 0
M  V30 3096 C 278.589 -4.00769 -1.53892 0
M  V30 3097 C 277.822 -4.60849 -2.69173 0
M  V30 3098 O 278.045 -4.19823 -3.86141 0
M  V30 3099 O 276.979 -5.50655 -2.43028 0
M  V30 3100 H 280.805 -3.02738 -0.241585 0
M  V30 3101 H 278.39 -1.49305 -0.053222 0
M  V30 3102 H 280.272 -3.24834 -2.68442 0
M  V30 3103 H 278.947 -2.06836 -2.48999 0
M  V30 3104 H 277.854 -3.65436 -0.80044 0
M  V30 3105 H 279.187 -4.80376 -1.07236 0
M  V30 3106 N 280.839 0.0985539 -1.57292 0
M  V30 3107 C 281.772 1.15082 -1.97057 0
M  V30 3108 C 282.75 1.39025 -0.843255 0
M  V30 3109 O 283.934 1.52842 -1.10325 0
M  V30 3110 C 281.061 2.50069 -2.28437 0
M  V30 3111 C 280.107 2.42428 -3.509 0
M  V30 3112 S 280.94 1.84414 -5.02744 0
M  V30 3113 C 282.096 3.21032 -5.37298 0
M  V30 3114 H 282.329 0.811815 -2.86002 0
M  V30 3115 H 279.862 0.306102 -1.51335 0
M  V30 3116 H 281.82 3.27729 -2.47192 0
M  V30 3117 H 280.481 2.8114 -1.40069 0
M  V30 3118 H 279.674 3.41911 -3.70288 0
M  V30 3119 H 279.276 1.72896 -3.31637 0
M  V30 3120 H 281.568 4.17297 -5.33731 0
M  V30 3121 H 282.511 3.06452 -6.38352 0
M  V30 3122 H 282.919 3.20404 -4.64759 0
M  V30 3123 N 282.317 1.53212 0.369288 0
M  V30 3124 C 283.564 1.69215 1.11232 0
M  V30 3125 C 283.892 0.442048 1.8941 0
M  V30 3126 O 283.147 -0.575944 1.87033 0
M  V30 3127 C 283.446 2.89101 2.10132 0
M  V30 3128 C 283.112 4.25758 1.48463 0
M  V30 3129 C 281.774 4.6292 1.31372 0
M  V30 3130 C 284.126 5.10757 1.03811 0
M  V30 3131 C 281.454 5.82722 0.68207 0
M  V30 3132 C 283.806 6.31201 0.420487 0
M  V30 3133 C 282.47 6.67079 0.237038 0
M  V30 3134 H 281.74 0.619201 0.407027 0
M  V30 3135 H 284.387 1.87391 0.394552 0
M  V30 3136 H 282.692 2.65421 2.88199 0
M  V30 3137 H 284.389 2.98676 2.6757 0
M  V30 3138 H 280.979 3.96494 1.62758 0
M  V30 3139 H 285.163 4.82599 1.1581 0
M  V30 3140 H 280.419 6.09113 0.528316 0
M  V30 3141 H 284.593 6.96368 0.0662874 0
M  V30 3142 H 282.22 7.59774 -0.254477 0
M  V30 3143 N 283.795 -0.628877 1.44509 0
M  V30 3144 C 285.02 -1.42048 1.5112 0
M  V30 3145 C 285.445 -1.87594 0.137818 0
M  V30 3146 O 284.803 -1.58873 -0.873437 0
M  V30 3147 C 284.851 -2.61541 2.48251 0
M  V30 3148 O 283.955 -3.61453 1.98559 0
M  V30 3149 H 283.296 -0.424942 0.510216 0
M  V30 3150 H 285.826 -0.767374 1.89664 0
M  V30 3151 H 285.836 -3.09057 2.66361 0
M  V30 3152 H 284.511 -2.27736 3.48007 0
M  V30 3153 H 283.088 -3.20731 1.90227 0
M  V30 3154 N 285.273 -1.31445 -0.869486 0
M  V30 3155 C 286.498 -1.24256 -1.66058 0
M  V30 3156 C 286.923 0.188928 -1.87149 0
M  V30 3157 O 286.281 1.13522 -1.4136 0
M  V30 3158 C 286.329 -1.9924 -3.00559 0
M  V30 3159 O 285.433 -1.33007 -3.90362 0
M  V30 3160 H 284.774 -0.428973 -0.506831 0
M  V30 3161 H 287.304 -1.73521 -1.08404 0
M  V30 3162 H 287.314 -2.08854 -3.50491 0
M  V30 3163 H 285.989 -3.03342 -2.84528 0
M  V30 3164 H 284.566 -1.31848 -3.48813 0
M  V30 3165 N 286.751 1.08385 -1.14413 0
M  V30 3166 C 288.167 1.32844 -0.884563 0
M  V30 3167 C 288.367 1.95841 0.474181 0
M  V30 3168 O 287.423 2.21158 1.21842 0
M  V30 3169 C 288.736 2.22978 -2.01745 0
M  V30 3170 C 290.284 2.36458 -2.05077 0
M  V30 3171 C 290.759 3.29934 -3.1766 0
M  V30 3172 N 292.25 3.37511 -3.17239 0
M  V30 3173 C 292.985 4.09871 -4.0099 0
M  V30 3174 N 292.481 4.84936 -4.94781 0
M  V30 3175 N 294.274 4.05704 -3.89051 0
M  V30 3176 H 286.425 0.658756 -2.01926 0
M  V30 3177 H 288.688 0.352821 -0.879899 0
M  V30 3178 H 288.394 1.83934 -2.99769 0
M  V30 3179 H 288.268 3.23441 -1.94077 0
M  V30 3180 H 290.655 2.7476 -1.0766 0
M  V30 3181 H 290.736 1.35736 -2.16816 0
M  V30 3182 H 290.38 2.92352 -4.15322 0
M  V30 3183 H 290.31 4.30584 -3.03158 0
M  V30 3184 H 292.801 2.83996 -2.49308 0
M  V30 3185 H 293.114 5.37612 -5.55151 0
M  V30 3186 H 291.459 4.83988 -4.98779 0
M  V30 3187 H 294.65 3.46167 -3.15097 0
M  V30 3188 H 294.823 4.61834 -4.54547 0
M  V30 3189 N 288.23 0.939286 1.26551 0
M  V30 3190 C 289.177 0.446088 2.26448 0
M  V30 3191 C 290.147 -0.493234 1.58608 0
M  V30 3192 O 291.332 -0.409857 1.86346 0
M  V30 3193 C 288.472 -0.284375 3.43926 0
M  V30 3194 C 287.585 0.690399 4.26448 0
M  V30 3195 C 286.72 -0.0610712 5.31165 0
M  V30 3196 C 285.759 0.905649 6.05363 0
M  V30 3197 N 284.896 0.186055 7.01853 0
M  V30 3198 H 289.736 1.30291 2.68008 0
M  V30 3199 H 287.273 0.65371 1.31776 0
M  V30 3200 H 289.231 -0.724313 4.10864 0
M  V30 3201 H 287.861 -1.10535 3.03285 0
M  V30 3202 H 286.913 1.24885 3.59316 0
M  V30 3203 H 288.225 1.42873 4.779 0
M  V30 3204 H 287.379 -0.56038 6.04106 0
M  V30 3205 H 286.118 -0.832297 4.80546 0
M  V30 3206 H 285.123 1.4161 5.3125 0
M  V30 3207 H 286.348 1.67685 6.58072 0
M  V30 3208 H 284.294 -0.566714 6.53548 0
M  V30 3209 H 284.211 0.863752 7.51049 0
M  V30 3210 H 285.479 -0.292221 7.78952 0
M  V30 3211 N 289.708 -1.40897 0.706093 0
M  V30 3212 C 290.956 -2.00657 0.241054 0
M  V30 3213 C 291.277 -1.56241 -1.16678 0
M  V30 3214 O 290.547 -0.79765 -1.78926 0
M  V30 3215 H 289.127 -0.742018 0.0861308 0
M  V30 3216 H 291.789 -1.72372 0.909604 0
M  V30 3217 H 290.885 -3.10958 0.266705 0
M  V30 3218 N 291.186 -0.45159 -1.50991 0
M  V30 3219 C 292.149 0.341117 -2.26647 0
M  V30 3220 C 293.149 0.937422 -1.30649 0
M  V30 3221 O 294.339 0.809644 -1.54241 0
M  V30 3222 C 291.471 1.48398 -3.06905 0
M  V30 3223 H 292.664 -0.322117 -2.98165 0
M  V30 3224 H 290.217 -0.205122 -1.54948 0
M  V30 3225 H 290.952 2.18284 -2.39838 0
M  V30 3226 H 290.737 1.06241 -3.77432 0
M  V30 3227 H 292.227 2.04367 -3.64176 0
M  V30 3228 N 292.664 1.56529 -0.183458 0
M  V30 3229 C 293.912 1.96855 0.457452 0
M  V30 3230 C 294.233 1.07104 1.62953 0
M  V30 3231 O 293.503 0.139887 1.954 0
M  V30 3232 H 292.083 0.72693 0.171992 0
M  V30 3233 H 294.745 1.93056 -0.267476 0
M  V30 3234 H 293.841 3.01423 0.809368 0
M  V30 3235 N 294.142 -0.090211 1.57342 0
M  V30 3236 C 295.372 -0.805055 1.90269 0
M  V30 3237 C 295.78 -1.72561 0.775842 0
M  V30 3238 O 295.123 -1.81839 -0.260843 0
M  V30 3239 C 295.185 -1.66734 3.18497 0
M  V30 3240 C 294.849 -0.918092 4.47683 0
M  V30 3241 C 295.846 -0.245674 5.19319 0
M  V30 3242 C 293.531 -0.890724 4.94339 0
M  V30 3243 C 295.525 0.444088 6.35851 0
M  V30 3244 C 293.212 -0.197179 6.10782 0
M  V30 3245 C 294.21 0.469044 6.81388 0
M  V30 3246 O 293.898 1.15146 7.95611 0
M  V30 3247 H 293.63 -0.235143 0.633785 0
M  V30 3248 H 296.184 -0.0703805 2.05279 0
M  V30 3249 H 294.414 -2.44437 2.99646 0
M  V30 3250 H 296.103 -2.25919 3.37217 0
M  V30 3251 H 296.869 -0.258246 4.84312 0
M  V30 3252 H 292.748 -1.39873 4.39268 0
M  V30 3253 H 296.292 0.964667 6.90898 0
M  V30 3254 H 292.189 -0.18247 6.45242 0
M  V30 3255 H 292.957 1.05885 8.11622 0
M  V30 3256 N 295.62 -1.53406 -0.361157 0
M  V30 3257 C 296.845 -1.74024 -1.12829 0
M  V30 3258 C 297.27 -0.470069 -1.82132 0
M  V30 3259 O 296.628 0.57619 -1.719 0
M  V30 3260 C 296.676 -2.90903 -2.13091 0
M  V30 3261 O 295.78 -2.59821 -3.20261 0
M  V30 3262 H 295.121 -0.577804 -0.327168 0
M  V30 3263 H 297.651 -2.00307 -0.41693 0
M  V30 3264 H 297.661 -3.17194 -2.56616 0
M  V30 3265 H 296.336 -3.83034 -1.62042 0
M  V30 3266 H 294.913 -2.44362 -2.81677 0
M  V30 3267 N 297.098 0.621204 -1.44841 0
M  V30 3268 C 298.345 1.38055 -1.48145 0
M  V30 3269 C 298.673 1.94143 -0.117867 0
M  V30 3270 O 297.928 1.74713 0.881694 0
M  V30 3271 C 298.227 2.55675 -2.4973 0
M  V30 3272 C 297.893 2.17817 -3.94799 0
M  V30 3273 C 296.555 2.07205 -4.34303 0
M  V30 3274 C 298.907 1.88065 -4.86087 0
M  V30 3275 C 296.235 1.65045 -5.63007 0
M  V30 3276 C 298.587 1.47394 -6.15189 0
M  V30 3277 C 297.251 1.35331 -6.53637 0
M  V30 3278 H 296.521 0.505181 -0.542101 0
M  V30 3279 H 299.168 0.703477 -1.78111 0
M  V30 3280 H 297.473 3.2866 -2.13284 0
M  V30 3281 H 299.17 3.13904 -2.4953 0
M  V30 3282 H 295.76 2.26998 -3.63552 0
M  V30 3283 H 299.944 1.95168 -4.56315 0
M  V30 3284 H 295.2 1.54317 -5.91605 0
M  V30 3285 H 299.374 1.23415 -6.85377 0
M  V30 3286 H 297.001 1.02435 -7.53267 0
M  V30 3287 N 298.576 1.31904 0.862503 0
M  V30 3288 C 299.539 1.20131 1.95195 0
M  V30 3289 C 300.539 0.126409 1.60302 0
M  V30 3290 O 301.729 0.376234 1.70089 0
M  V30 3291 C 298.861 0.845691 3.30244 0
M  V30 3292 H 300.054 2.16943 2.07064 0
M  V30 3293 H 297.607 1.15622 1.05172 0
M  V30 3294 H 298.342 -0.120957 3.24074 0
M  V30 3295 H 298.127 1.62276 3.56944 0
M  V30 3296 H 299.617 0.787418 4.10109 0
M  V30 3297 N 300.054 -1.07777 1.14986 0
M  V30 3298 C 301.3 -1.80557 0.923422 0
M  V30 3299 C 301.633 -1.86298 -0.548337 0
M  V30 3300 O 300.908 -1.34354 -1.40639 0
M  V30 3301 C 301.191 -3.25839 1.53299 0
M  V30 3302 C 301.044 -3.28269 3.07505 0
M  V30 3303 C 302.363 -4.22991 1.21518 0
M  V30 3304 H 299.482 -0.655493 0.336894 0
M  V30 3305 H 302.124 -1.26144 1.42083 0
M  V30 3306 H 300.274 -3.72306 1.10999 0
M  V30 3307 H 301.946 -2.90079 3.58681 0
M  V30 3308 H 300.189 -2.67355 3.4162 0
M  V30 3309 H 300.86 -4.30691 3.45266 0
M  V30 3310 H 303.336 -3.84894 1.581 0
M  V30 3311 H 302.212 -5.22945 1.66793 0
M  V30 3312 H 302.473 -4.41904 0.131505 0
M  V30 3313 N 301.532 -0.945985 -1.26051 0
M  V30 3314 C 302.809 -0.513816 -1.88731 0
M  V30 3315 C 303.189 1.00872 -1.8544 0
M  V30 3316 O 302.537 1.8708 -1.312 0
M  V30 3317 C 302.747 -1.08062 -3.31849 0
M  V30 3318 C 304.095 -1.1522 -4.08668 0
M  V30 3319 O 305.119 -1.03155 -3.40936 0
M  V30 3320 O 303.978 -1.34044 -5.29806 0
M  V30 3321 H 301.072 -0.168193 -0.809716 0
M  V30 3322 H 303.618 -1.03886 -1.34186 0
M  V30 3323 H 302.39 -2.1241 -3.2863 0
M  V30 3324 H 302.013 -0.538307 -3.93939 0
M  V30 3325 N 303.011 1.40521 -0.713556 0
M  V30 3326 C 304.257 2.01714 -0.261382 0
M  V30 3327 C 304.612 1.55562 1.13217 0
M  V30 3328 O 303.905 0.764893 1.7567 0
M  V30 3329 C 304.099 3.56317 -0.278 0
M  V30 3330 C 303.928 4.17476 -1.67163 0
M  V30 3331 C 302.698 4.50998 -2.2788 0
M  V30 3332 C 304.896 4.42472 -2.6215 0
M  V30 3333 N 302.878 4.9754 -3.5962 0
M  V30 3334 C 304.249 4.90985 -3.78594 0
M  V30 3335 C 306.304 4.24508 -2.60188 0
M  V30 3336 C 305.007 5.2342 -4.9338 0
M  V30 3337 C 307.033 4.58043 -3.741 0
M  V30 3338 C 306.395 5.06743 -4.89276 0
M  V30 3339 H 302.494 0.769104 -0.141434 0
M  V30 3340 H 305.078 1.70785 -0.934915 0
M  V30 3341 H 303.249 3.8668 0.36509 0
M  V30 3342 H 304.981 4.0425 0.190695 0
M  V30 3343 H 301.736 4.38062 -1.79997 0
M  V30 3344 H 302.16 5.25196 -4.27198 0
M  V30 3345 H 306.802 3.86078 -1.72348 0
M  V30 3346 H 304.52 5.60765 -5.81866 0
M  V30 3347 H 308.106 4.45785 -3.73854 0
M  V30 3348 H 306.986 5.32204 -5.75959 0
M  V30 3349 N 304.489 0.459591 1.5075 0
M  V30 3350 C 305.735 -0.091664 2.03193 0
M  V30 3351 C 306.09 -1.38432 1.3362 0
M  V30 3352 O 305.383 -1.86257 0.449322 0
M  V30 3353 C 305.577 -0.342866 3.55752 0
M  V30 3354 C 305.406 0.923888 4.40107 0
M  V30 3355 C 304.176 1.46388 4.83631 0
M  V30 3356 C 306.374 1.81617 4.81165 0
M  V30 3357 N 304.356 2.68086 5.52271 0
M  V30 3358 C 305.727 2.87907 5.49099 0
M  V30 3359 C 307.782 1.82793 4.63132 0
M  V30 3360 C 306.485 3.95347 6.0091 0
M  V30 3361 C 308.511 2.89182 5.15876 0
M  V30 3362 C 307.873 3.94191 5.83774 0
M  V30 3363 H 303.972 0.00619247 0.781975 0
M  V30 3364 H 306.556 0.625233 1.84388 0
M  V30 3365 H 304.727 -1.0288 3.74527 0
M  V30 3366 H 306.459 -0.887445 3.9485 0
M  V30 3367 H 303.214 1.01466 4.62603 0
M  V30 3368 H 303.638 3.29857 5.91205 0
M  V30 3369 H 308.28 1.0293 4.1008 0
M  V30 3370 H 305.998 4.76035 6.53006 0
M  V30 3371 H 309.584 2.91061 5.0376 0
M  V30 3372 H 308.464 4.75161 6.23853 0
M  V30 3373 N 305.967 -1.56429 0.191757 0
M  V30 3374 C 307.192 -2.02309 -0.456706 0
M  V30 3375 C 307.617 -1.07103 -1.5463 0
M  V30 3376 O 306.975 -0.0539677 -1.8122 0
M  V30 3377 C 307.023 -3.46654 -0.993159 0
M  V30 3378 O 306.127 -3.54559 -2.10622 0
M  V30 3379 H 305.468 -0.655303 -0.107114 0
M  V30 3380 H 307.998 -2.02364 0.301653 0
M  V30 3381 H 308.008 -3.86377 -1.31061 0
M  V30 3382 H 306.683 -4.1544 -0.195504 0
M  V30 3383 H 305.26 -3.26708 -1.79767 0
M  V30 3384 N 307.445 0.0818655 -1.57387 0
M  V30 3385 C 308.375 1.09885 -2.06028 0
M  V30 3386 C 309.356 1.4098 -0.951774 0
M  V30 3387 O 310.541 1.50781 -1.22387 0
M  V30 3388 C 307.671 2.4151 -2.4958 0
M  V30 3389 C 306.625 2.24792 -3.64215 0
M  V30 3390 C 305.951 3.61712 -3.93787 0
M  V30 3391 C 307.251 1.67749 -4.94629 0
M  V30 3392 H 308.945 0.694128 -2.91243 0
M  V30 3393 H 306.491 0.332448 -1.4011 0
M  V30 3394 H 308.444 3.12939 -2.82219 0
M  V30 3395 H 307.168 2.83943 -1.61381 0
M  V30 3396 H 305.827 1.55807 -3.31843 0
M  V30 3397 H 305.475 4.01697 -3.02735 0
M  V30 3398 H 305.175 3.51368 -4.70971 0
M  V30 3399 H 306.699 4.34587 -4.28913 0
M  V30 3400 H 308.113 2.29032 -5.25564 0
M  V30 3401 H 306.51 1.68128 -5.76067 0
M  V30 3402 H 307.58 0.638059 -4.80684 0
M  V30 3403 N 308.923 1.53595 0.353017 0
M  V30 3404 C 310.171 1.70049 1.09215 0
M  V30 3405 C 310.492 0.461406 1.89463 0
M  V30 3406 O 309.762 -0.524633 1.88744 0
M  V30 3407 H 308.342 0.626912 0.40619 0
M  V30 3408 H 311.004 1.90822 0.396585 0
M  V30 3409 H 310.1 2.56718 1.77488 0
M  V30 3410 N 310.401 -0.613514 1.45168 0
M  V30 3411 C 311.647 -1.37471 1.49096 0
M  V30 3412 C 311.98 -1.93765 0.129901 0
M  V30 3413 O 311.255 -1.74707 -0.854858 0
M  V30 3414 C 311.538 -2.52701 2.56542 0
M  V30 3415 C 311.391 -2.01643 4.0207 0
M  V30 3416 C 312.71 -3.54849 2.60327 0
M  V30 3417 H 309.829 -0.498502 0.54283 0
M  V30 3418 H 312.471 -0.692125 1.76945 0
M  V30 3419 H 310.621 -3.10931 2.32926 0
M  V30 3420 H 312.293 -1.48108 4.36877 0
M  V30 3421 H 310.536 -1.32688 4.13009 0
M  V30 3422 H 311.207 -2.84681 4.72928 0
M  V30 3423 H 313.683 -3.0645 2.81474 0
M  V30 3424 H 312.559 -4.32973 3.37381 0
M  V30 3425 H 312.82 -4.10079 1.6519 0
M  V30 3426 N 311.879 -1.3236 -0.855495 0
M  V30 3427 C 313.107 -1.2587 -1.64208 0
M  V30 3428 C 313.522 0.173457 -1.88002 0
M  V30 3429 O 312.879 1.11027 -1.44842 0
M  V30 3430 C 312.93 -2.01424 -3.00184 0
M  V30 3431 O 312.651 -3.39051 -2.77445 0
M  V30 3432 C 314.152 -2.01948 -3.94629 0
M  V30 3433 H 311.372 -0.434318 -0.511477 0
M  V30 3434 H 313.916 -1.74469 -1.0668 0
M  V30 3435 H 312.071 -1.56549 -3.5436 0
M  V30 3436 H 312.485 -3.77711 -3.63916 0
M  V30 3437 H 313.959 -2.59297 -4.87308 0
M  V30 3438 H 314.436 -1.00554 -4.27534 0
M  V30 3439 H 315.042 -2.46767 -3.4639 0
M  V30 3440 N 313.357 1.07166 -1.15556 0
M  V30 3441 C 314.32 2.12589 -0.856644 0
M  V30 3442 C 315.32 1.6015 0.14444 0
M  V30 3443 O 316.51 1.7399 -0.0854163 0
M  V30 3444 C 313.642 3.39753 -0.279405 0
M  V30 3445 H 314.835 2.40539 -1.79112 0
M  V30 3446 H 312.388 1.23086 -0.963298 0
M  V30 3447 H 313.123 3.17447 0.663174 0
M  V30 3448 H 312.908 3.79117 -1.00063 0
M  V30 3449 H 314.398 4.17507 -0.0879113 0
M  V30 3450 N 314.835 0.952656 1.25548 0
M  V30 3451 C 316.065 0.622592 1.96996 0
M  V30 3452 C 316.473 -0.809112 1.71026 0
M  V30 3453 O 315.816 -1.55258 0.981861 0
M  V30 3454 C 315.878 0.798946 3.5051 0
M  V30 3455 C 315.542 2.20744 4.00151 0
M  V30 3456 C 316.539 3.18394 4.11001 0
M  V30 3457 C 314.224 2.5311 4.33867 0
M  V30 3458 C 316.218 4.46504 4.54877 0
M  V30 3459 C 313.905 3.8145 4.7743 0
M  V30 3460 C 314.903 4.77959 4.87897 0
M  V30 3461 O 314.591 6.04012 5.30494 0
M  V30 3462 H 314.323 0.232503 0.634758 0
M  V30 3463 H 316.877 1.2789 1.60728 0
M  V30 3464 H 315.107 0.0854903 3.86605 0
M  V30 3465 H 316.796 0.47023 4.03167 0
M  V30 3466 H 317.562 2.94715 3.85186 0
M  V30 3467 H 313.441 1.78719 4.24948 0
M  V30 3468 H 316.985 5.21835 4.62962 0
M  V30 3469 H 312.882 4.04936 5.0269 0
M  V30 3470 H 313.65 6.0736 5.48685 0
M  V30 3471 N 316.313 -1.40141 0.720998 0
M  V30 3472 C 317.223 -2.34486 0.0731031 0
M  V30 3473 C 318.239 -1.57587 -0.737723 0
M  V30 3474 O 319.415 -1.89949 -0.669429 0
M  V30 3475 C 316.48 -3.36528 -0.833656 0
M  V30 3476 C 315.541 -4.29298 -0.0121673 0
M  V30 3477 C 314.774 -5.26466 -0.875742 0
M  V30 3478 O 314.997 -5.29745 -2.11485 0
M  V30 3479 O 313.931 -6.01092 -0.31185 0
M  V30 3480 H 317.757 -2.9152 0.851444 0
M  V30 3481 H 315.342 -1.41427 0.481527 0
M  V30 3482 H 317.224 -3.99093 -1.35289 0
M  V30 3483 H 315.899 -2.81899 -1.59105 0
M  V30 3484 H 314.806 -3.70001 0.552262 0
M  V30 3485 H 316.139 -4.87094 0.707129 0
M  V30 3486 N 317.792 -0.46758 -1.50504 0
M  V30 3487 C 318.722 0.318381 -2.31319 0
M  V30 3488 C 319.703 0.993564 -1.38066 0
M  V30 3489 O 320.888 0.991411 -1.66987 0
M  V30 3490 C 318.018 1.40275 -3.17711 0
M  V30 3491 C 316.972 0.849373 -4.19487 0
M  V30 3492 C 316.298 2.03177 -4.94594 0
M  V30 3493 C 317.598 -0.136942 -5.2212 0
M  V30 3494 H 319.292 -0.356106 -2.97275 0
M  V30 3495 H 316.838 -0.172703 -1.42961 0
M  V30 3496 H 318.791 1.96004 -3.73042 0
M  V30 3497 H 317.515 2.10596 -2.49634 0
M  V30 3498 H 316.174 0.314076 -3.65252 0
M  V30 3499 H 315.822 2.72187 -4.22993 0
M  V30 3500 H 315.522 1.66774 -5.63436 0
M  V30 3501 H 317.046 2.59403 -5.52759 0
M  V30 3502 H 318.46 0.331056 -5.72343 0
M  V30 3503 H 316.857 -0.41507 -5.98663 0
M  V30 3504 H 317.927 -1.06398 -4.73083 0
M  V30 3505 N 319.27 1.56325 -0.20005 0
M  V30 3506 C 320.2 2.22318 0.713916 0
M  V30 3507 C 321.181 1.18788 1.21752 0
M  V30 3508 O 322.366 1.47309 1.26545 0
M  V30 3509 C 319.496 2.88639 1.93144 0
M  V30 3510 C 318.45 3.98457 1.56255 0
M  V30 3511 C 317.776 4.51967 2.85709 0
M  V30 3512 C 319.076 5.16612 0.768747 0
M  V30 3513 H 320.77 2.98952 0.163755 0
M  V30 3514 H 318.316 1.43792 0.0773219 0
M  V30 3515 H 320.269 3.33491 2.57608 0
M  V30 3516 H 318.993 2.09419 2.50621 0
M  V30 3517 H 317.652 3.54305 0.941471 0
M  V30 3518 H 317.3 3.69503 3.41287 0
M  V30 3519 H 317 5.26071 2.6177 0
M  V30 3520 H 318.524 4.99523 3.51154 0
M  V30 3521 H 319.938 5.57977 1.3166 0
M  V30 3522 H 318.335 5.96812 0.627286 0
M  V30 3523 H 319.405 4.84358 -0.229168 0
M  V30 3524 N 320.748 -0.0735177 1.57428 0
M  V30 3525 C 322.164 -0.428264 1.53747 0
M  V30 3526 C 322.364 -1.79272 0.91998 0
M  V30 3527 O 321.42 -2.47051 0.521745 0
M  V30 3528 C 322.733 -0.370914 2.98404 0
M  V30 3529 C 324.281 -0.451224 3.0973 0
M  V30 3530 C 324.756 -0.4238 4.56035 0
M  V30 3531 N 326.247 -0.483925 4.60665 0
M  V30 3532 C 326.982 -0.484891 5.71346 0
M  V30 3533 N 326.478 -0.440775 6.91396 0
M  V30 3534 N 328.271 -0.531319 5.59583 0
M  V30 3535 H 320.422 0.819949 1.95935 0
M  V30 3536 H 322.685 0.307493 0.896745 0
M  V30 3537 H 322.391 0.564956 3.47133 0
M  V30 3538 H 322.265 -1.18176 3.5821 0
M  V30 3539 H 324.652 -1.37752 2.60976 0
M  V30 3540 H 324.733 0.388167 2.52838 0
M  V30 3541 H 324.377 0.498638 5.05446 0
M  V30 3542 H 324.307 -1.2807 5.10789 0
M  V30 3543 H 326.798 -0.522338 3.74273 0
M  V30 3544 H 327.111 -0.44539 7.71515 0
M  V30 3545 H 325.456 -0.40749 6.93804 0
M  V30 3546 H 328.647 -0.563464 4.64696 0
M  V30 3547 H 328.82 -0.528603 6.4584 0
M  V30 3548 N 322.226 -1.5378 -0.344866 0
M  V30 3549 C 323.474 -1.70625 -1.08311 0
M  V30 3550 C 323.795 -0.471447 -1.89215 0
M  V30 3551 O 323.065 0.514616 -1.8902 0
M  V30 3552 H 321.645 -0.629058 -0.402859 0
M  V30 3553 H 324.307 -1.9103 -0.386459 0
M  V30 3554 H 323.403 -2.57656 -1.76124 0
M  V30 3555 N 323.704 0.605807 -1.45491 0
M  V30 3556 C 325.12 0.926751 -1.29936 0
M  V30 3557 C 325.32 1.99896 -0.253706 0
M  V30 3558 O 324.376 2.50038 0.351737 0
M  V30 3559 C 325.689 1.36599 -2.67883 0
M  V30 3560 C 327.237 1.4801 -2.75793 0
M  V30 3561 C 327.712 1.95309 -4.14268 0
M  V30 3562 N 329.203 2.0254 -4.16571 0
M  V30 3563 C 329.938 2.40363 -5.20589 0
M  V30 3564 N 329.434 2.77143 -6.34952 0
M  V30 3565 N 331.227 2.40718 -5.07948 0
M  V30 3566 H 323.378 -0.102862 -2.12151 0
M  V30 3567 H 325.641 0.016639 -0.947854 0
M  V30 3568 H 325.347 0.652306 -3.45598 0
M  V30 3569 H 325.221 2.33215 -2.96463 0
M  V30 3570 H 327.608 2.1847 -1.98381 0
M  V30 3571 H 327.689 0.497041 -2.50925 0
M  V30 3572 H 327.333 1.25436 -4.92167 0
M  V30 3573 H 327.263 2.94532 -4.3653 0
M  V30 3574 H 329.754 1.76699 -3.34045 0
M  V30 3575 H 330.067 3.0489 -7.10114 0
M  V30 3576 H 328.412 2.74834 -6.3835 0
M  V30 3577 H 331.603 2.11392 -4.1765 0
M  V30 3578 H 331.776 2.69869 -5.89131 0
M  V30 3579 N 325.182 1.32811 0.848464 0
M  V30 3580 C 326.598 1.11937 1.13764 0
M  V30 3581 C 326.798 -0.0960789 2.01271 0
M  V30 3582 O 325.854 -0.779165 2.40178 0
M  V30 3583 C 327.167 2.402 1.809 0
M  V30 3584 C 328.715 2.46016 1.93508 0
M  V30 3585 C 329.19 3.74215 2.64059 0
M  V30 3586 N 330.681 3.75232 2.71579 0
M  V30 3587 C 331.416 4.71134 3.26833 0
M  V30 3588 N 330.912 5.77406 3.8285 0
M  V30 3589 N 332.705 4.58623 3.24995 0
M  V30 3590 H 324.856 2.1073 0.265855 0
M  V30 3591 H 327.119 0.930671 0.180431 0
M  V30 3592 H 326.825 3.29093 1.24058 0
M  V30 3593 H 326.699 2.51628 2.81004 0
M  V30 3594 H 329.086 1.57577 2.49506 0
M  V30 3595 H 329.167 2.38536 0.923811 0
M  V30 3596 H 328.811 4.63031 2.08722 0
M  V30 3597 H 328.741 3.78968 3.65637 0
M  V30 3598 H 331.232 2.98423 2.31845 0
M  V30 3599 H 331.545 6.46632 4.23187 0
M  V30 3600 H 329.89 5.81152 3.81165 0
M  V30 3601 H 333.081 3.74762 2.80484 0
M  V30 3602 H 333.254 5.33535 3.67756 0
M  V30 3603 N 326.66 -1.06551 1.16123 0
M  V30 3604 C 328.071 -1.60768 0.949232 0
M  V30 3605 C 328.422 -1.89523 -0.507508 0
M  V30 3606 O 327.547 -1.66671 -1.38021 0
M  V30 3607 C 328.142 -2.92086 1.71671 0
M  V30 3608 C 326.701 -3.43015 1.54977 0
M  V30 3609 C 325.848 -2.16947 1.72711 0
M  V30 3610 H 328.799 -0.895354 1.31031 0
M  V30 3611 H 328.82 -3.6138 1.19099 0
M  V30 3612 H 328.332 -2.71127 2.7769 0
M  V30 3613 H 326.433 -3.69039 0.513873 0
M  V30 3614 H 326.546 -4.18516 2.33198 0
M  V30 3615 H 324.91 -2.27041 1.15431 0
M  V30 3616 H 325.693 -1.98473 2.80113 0
M  V30 3617 N 328.138 -0.959301 -1.25041 0
M  V30 3618 C 329.368 -0.63303 -1.96663 0
M  V30 3619 C 329.776 0.800031 -1.71453 0
M  V30 3620 O 329.119 1.54736 -0.99008 0
M  V30 3621 C 329.181 -0.817523 -3.50081 0
M  V30 3622 C 328.845 -2.22863 -3.98975 0
M  V30 3623 C 329.842 -3.20569 -4.09306 0
M  V30 3624 C 327.527 -2.55407 -4.32519 0
M  V30 3625 C 329.521 -4.4891 -4.52503 0
M  V30 3626 C 327.208 -3.83976 -4.754 0
M  V30 3627 C 328.206 -4.8054 -4.85356 0
M  V30 3628 O 327.894 -6.06817 -5.27284 0
M  V30 3629 H 327.626 -0.235866 -0.633516 0
M  V30 3630 H 330.18 -1.2874 -1.60047 0
M  V30 3631 H 328.41 -0.105992 -3.86555 0
M  V30 3632 H 330.099 -0.491604 -4.02912 0
M  V30 3633 H 330.865 -2.96753 -3.83618 0
M  V30 3634 H 326.744 -1.8097 -4.23994 0
M  V30 3635 H 330.288 -5.24283 -4.60188 0
M  V30 3636 H 326.185 -4.07596 -5.00535 0
M  V30 3637 H 326.953 -6.10262 -5.45457 0
M  V30 3638 N 329.616 1.39756 -0.72842 0
M  V30 3639 C 330.566 2.2792 -0.0603424 0
M  V30 3640 C 331.55 1.43922 0.719399 0
M  V30 3641 O 332.742 1.66895 0.589489 0
M  V30 3642 C 329.871 3.32582 0.851104 0
M  V30 3643 C 328.957 4.24049 0.0658641 0
M  V30 3644 N 329.348 4.96653 -0.957578 0
M  V30 3645 C 327.646 4.45013 0.296509 0
M  V30 3646 C 328.347 5.63836 -1.43052 0
M  V30 3647 N 327.323 5.38397 -0.750315 0
M  V30 3648 H 331.125 2.81504 -0.84455 0
M  V30 3649 H 328.639 1.5236 -0.562155 0
M  V30 3650 H 330.636 3.94603 1.34514 0
M  V30 3651 H 329.296 2.80558 1.63454 0
M  V30 3652 H 330.307 5.00297 -1.33877 0
M  V30 3653 H 326.984 4.03943 1.05527 0
M  V30 3654 H 328.374 6.31974 -2.28163 0
M  V30 3655 N 331.094 0.475555 1.50254 0
M  V30 3656 C 332.343 -0.0795996 2.01543 0
M  V30 3657 C 332.656 -1.4038 1.36209 0
M  V30 3658 O 333.862 -2.04415 1.7868 0
M  V30 3659 C 332.318 -0.192363 3.59386 0
M  V30 3660 C 331.926 1.12367 4.33679 0
M  V30 3661 C 333.67 -0.699238 4.18701 0
M  V30 3662 C 331.577 0.974453 5.83317 0
M  V30 3663 H 330.507 -0.0335228 0.753254 0
M  V30 3664 H 333.158 0.611128 1.73025 0
M  V30 3665 H 331.54 -0.946974 3.84511 0
M  V30 3666 H 332.714 1.88958 4.20276 0
M  V30 3667 H 331.029 1.562 3.85993 0
M  V30 3668 H 333.626 -0.827978 5.28251 0
M  V30 3669 H 333.969 -1.69171 3.80377 0
M  V30 3670 H 334.502 -0.00188807 3.978 0
M  V30 3671 H 331.241 1.94042 6.26121 0
M  V30 3672 H 330.761 0.248998 5.99283 0
M  V30 3673 H 332.44 0.642867 6.43798 0
M  V30 3674 N 332.573 -1.56217 0.208337 0
M  V30 3675 C 333.989 -1.58919 -0.14729 0
M  V30 3676 C 334.189 -1.22486 -1.59998 0
M  V30 3677 O 333.245 -0.953849 -2.3379 0
M  V30 3678 C 334.558 -3.00236 0.167048 0
M  V30 3679 C 336.106 -3.12813 0.108219 0
M  V30 3680 C 336.581 -4.56284 0.396049 0
M  V30 3681 N 338.072 -4.61912 0.345142 0
M  V30 3682 C 338.807 -5.70837 0.541523 0
M  V30 3683 N 338.303 -6.88178 0.798968 0
M  V30 3684 N 340.096 -5.60091 0.474867 0
M  V30 3685 H 332.247 -1.78177 1.15614 0
M  V30 3686 H 334.51 -0.827555 0.462446 0
M  V30 3687 H 334.216 -3.31499 1.1748 0
M  V30 3688 H 334.09 -3.7354 -0.524184 0
M  V30 3689 H 336.477 -2.81354 -0.890157 0
M  V30 3690 H 336.558 -2.41866 0.832729 0
M  V30 3691 H 336.202 -4.88458 1.3918 0
M  V30 3692 H 336.132 -5.25439 -0.349502 0
M  V30 3693 H 338.623 -3.77589 0.153316 0
M  V30 3694 H 338.936 -7.67095 0.93727 0
M  V30 3695 H 337.281 -6.89953 0.836013 0
M  V30 3696 H 340.472 -4.67297 0.274064 0
M  V30 3697 H 340.645 -6.44917 0.631326 0
M  V30 3698 N 334.051 0.0651679 -1.57465 0
M  V30 3699 C 335.276 0.779605 -1.9219 0
M  V30 3700 C 335.701 1.69988 -0.805333 0
M  V30 3701 O 335.059 1.79685 0.241435 0
M  V30 3702 C 335.107 1.54364 -3.2589 0
M  V30 3703 O 334.211 2.65474 -3.1559 0
M  V30 3704 H 333.552 0.212249 -0.629163 0
M  V30 3705 H 336.082 0.0314294 -2.04576 0
M  V30 3706 H 336.092 1.92146 -3.59922 0
M  V30 3707 H 334.767 0.868457 -4.06732 0
M  V30 3708 H 333.344 2.30501 -2.93128 0
M  V30 3709 N 335.529 1.53961 0.336706 0
M  V30 3710 C 336.754 1.75797 1.10046 0
M  V30 3711 C 337.179 0.498985 1.81361 0
M  V30 3712 O 336.537 -0.548769 1.72795 0
M  V30 3713 C 336.585 2.94257 2.08436 0
M  V30 3714 O 335.689 2.64883 3.16087 0
M  V30 3715 H 335.03 0.582936 0.317934 0
M  V30 3716 H 337.56 2.00945 0.38501 0
M  V30 3717 H 337.57 3.21237 2.51537 0
M  V30 3718 H 336.245 3.85564 1.55927 0
M  V30 3719 H 334.822 2.48812 2.77753 0
M  V30 3720 N 337.007 -0.598083 1.45811 0
M  V30 3721 C 338.235 -1.38322 1.53866 0
M  V30 3722 C 338.65 -1.87992 0.174479 0
M  V30 3723 O 338.007 -1.62756 -0.825627 0
M  V30 3724 C 338.058 -2.58125 2.53089 0
M  V30 3725 O 337.779 -2.10516 3.84206 0
M  V30 3726 C 339.28 -3.50869 2.70935 0
M  V30 3727 H 336.5 -0.423093 0.520801 0
M  V30 3728 H 339.044 -0.728527 1.91083 0
M  V30 3729 H 337.199 -3.19615 2.18917 0
M  V30 3730 H 337.613 -2.88425 4.38077 0
M  V30 3731 H 339.087 -4.31451 3.44317 0
M  V30 3732 H 339.564 -4.01822 1.77301 0
M  V30 3733 H 340.17 -2.95225 3.06141 0
M  V30 3734 N 338.485 -1.33259 -0.841409 0
M  V30 3735 C 339.71 -1.2775 -1.63385 0
M  V30 3736 C 340.135 0.149188 -1.87507 0
M  V30 3737 O 339.493 1.10498 -1.43736 0
M  V30 3738 C 339.541 -2.05571 -2.96265 0
M  V30 3739 O 338.645 -1.41257 -3.87453 0
M  V30 3740 H 337.986 -0.439627 -0.497618 0
M  V30 3741 H 340.516 -1.75782 -1.04699 0
M  V30 3742 H 340.526 -2.16241 -3.45982 0
M  V30 3743 H 339.201 -3.09309 -2.7803 0
M  V30 3744 H 337.778 -1.39217 -3.45938 0
M  V30 3745 N 339.963 1.05934 -1.16686 0
M  V30 3746 C 341.188 1.83029 -0.975455 0
M  V30 3747 C 341.613 1.82096 0.471452 0
M  V30 3748 O 340.971 1.22443 1.33706 0
M  V30 3749 C 341.019 3.27372 -1.51195 0
M  V30 3750 O 340.123 4.06054 -0.720701 0
M  V30 3751 H 339.464 0.566194 -0.346872 0
M  V30 3752 H 341.994 1.33541 -1.55009 0
M  V30 3753 H 342.004 3.78186 -1.53099 0
M  V30 3754 H 340.679 3.27366 -2.56523 0
M  V30 3755 H 339.256 3.64812 -0.772458 0
M  V30 3756 N 341.441 0.965919 1.2453 0
M  V30 3757 C 342.388 0.49402 2.25451 0
M  V30 3758 C 343.358 -0.45948 1.59618 0
M  V30 3759 O 344.543 -0.370238 1.87173 0
M  V30 3760 C 341.683 -0.211359 3.44452 0
M  V30 3761 C 340.796 0.7807 4.24887 0
M  V30 3762 C 339.931 0.0516105 5.31175 0
M  V30 3763 C 338.97 1.03385 6.03306 0
M  V30 3764 N 338.107 0.334887 7.01301 0
M  V30 3765 H 342.947 1.35946 2.65184 0
M  V30 3766 H 340.484 0.681515 1.3036 0
M  V30 3767 H 342.442 -0.637 4.12308 0
M  V30 3768 H 341.072 -1.04077 3.05562 0
M  V30 3769 H 340.124 1.32479 3.56586 0
M  V30 3770 H 341.436 1.52978 4.74762 0
M  V30 3771 H 340.59 -0.432114 6.05159 0
M  V30 3772 H 339.329 -0.730179 4.82203 0
M  V30 3773 H 338.334 1.52847 5.28127 0
M  V30 3774 H 339.559 1.81606 6.54367 0
M  V30 3775 H 337.505 -0.427959 6.54603 0
M  V30 3776 H 337.422 1.02287 7.49048 0
M  V30 3777 H 338.69 -0.126928 7.79397 0
M  V30 3778 N 342.919 -1.39368 0.735821 0
M  V30 3779 C 343.829 -2.34395 0.0979693 0
M  V30 3780 C 344.845 -1.58361 -0.720968 0
M  V30 3781 O 346.021 -1.90648 -0.649245 0
M  V30 3782 C 343.086 -3.37393 -0.797916 0
M  V30 3783 C 342.147 -4.29287 0.0333662 0
M  V30 3784 C 341.38 -5.27365 -0.819854 0
M  V30 3785 O 341.603 -5.31959 -2.05855 0
M  V30 3786 O 340.537 -6.01389 -0.248079 0
M  V30 3787 H 344.363 -2.90601 0.882315 0
M  V30 3788 H 341.948 -1.40909 0.4965 0
M  V30 3789 H 343.83 -4.00505 -1.31048 0
M  V30 3790 H 342.505 -2.83571 -1.56106 0
M  V30 3791 H 341.412 -3.69395 0.591475 0
M  V30 3792 H 342.745 -4.86317 0.758752 0
M  V30 3793 N 344.397 -0.483516 -1.5 0
M  V30 3794 C 345.646 0.0689102 -2.01582 0
M  V30 3795 C 345.959 1.39655 -1.36952 0
M  V30 3796 O 347.165 2.03465 -1.79762 0
M  V30 3797 C 345.621 0.173302 -3.59483 0
M  V30 3798 C 345.229 -1.14665 -4.33077 0
M  V30 3799 C 346.973 0.677024 -4.19066 0
M  V30 3800 C 344.88 -1.00537 -5.82792 0
M  V30 3801 H 343.81 0.0295277 -0.753422 0
M  V30 3802 H 346.461 -0.620295 -1.72698 0
M  V30 3803 H 344.843 0.926569 -3.85007 0
M  V30 3804 H 346.017 -1.91184 -4.19268 0
M  V30 3805 H 344.332 -1.58244 -3.85159 0
M  V30 3806 H 346.929 0.799952 -5.28682 0
M  V30 3807 H 347.272 1.67151 -3.81269 0
M  V30 3808 H 347.805 -0.0192083 -3.97795 0
M  V30 3809 H 344.544 -1.9736 -6.25083 0
M  V30 3810 H 344.064 -0.280776 -5.99142 0
M  V30 3811 H 345.743 -0.677 -6.43448 0
M  V30 3812 N 345.875 1.56104 -0.216619 0
M  V30 3813 C 347.121 1.98466 0.417033 0
M  V30 3814 C 347.454 1.10403 1.59765 0
M  V30 3815 O 346.729 0.160632 1.93836 0
M  V30 3816 C 347.012 3.49769 0.85637 0
M  V30 3817 C 346.865 4.48606 -0.327546 0
M  V30 3818 C 348.184 4.05339 1.7143 0
M  V30 3819 H 345.303 0.721551 0.150112 0
M  V30 3820 H 347.945 1.87423 -0.311864 0
M  V30 3821 H 346.095 3.5931 1.47745 0
M  V30 3822 H 347.767 4.5108 -0.965618 0
M  V30 3823 H 346.01 4.22682 -0.975805 0
M  V30 3824 H 346.681 5.51995 0.0227149 0
M  V30 3825 H 349.157 3.98712 1.19031 0
M  V30 3826 H 348.033 5.11533 1.99061 0
M  V30 3827 H 348.294 3.51918 2.67593 0
M  V30 3828 N 347.353 -0.0568162 1.57498 0
M  V30 3829 C 348.303 -1.07315 2.01166 0
M  V30 3830 C 349.287 -1.33632 0.896171 0
M  V30 3831 O 350.479 -1.33682 1.16009 0
M  V30 3832 C 347.608 -2.38257 2.47161 0
M  V30 3833 C 346.694 -2.1515 3.65474 0
M  V30 3834 N 347.085 -1.62014 4.7915 0
M  V30 3835 C 345.383 -2.45559 3.72313 0
M  V30 3836 C 346.084 -1.54069 5.60926 0
M  V30 3837 N 345.06 -2.00652 5.05213 0
M  V30 3838 H 348.862 -0.655878 2.86488 0
M  V30 3839 H 346.376 -0.263635 1.60246 0
M  V30 3840 H 348.373 -3.11845 2.76691 0
M  V30 3841 H 347.033 -2.80687 1.63232 0
M  V30 3842 H 348.044 -1.30667 5.01145 0
M  V30 3843 H 344.721 -2.91253 2.99129 0
M  V30 3844 H 346.111 -1.13712 6.62208 0
M  V30 3845 N 348.832 -1.54138 -0.328536 0
M  V30 3846 C 350.06 -1.76062 -1.08673 0
M  V30 3847 C 350.475 -0.506852 -1.81869 0
M  V30 3848 O 349.832 0.522223 -1.74869 0
M  V30 3849 C 349.883 -2.95054 -2.08866 0
M  V30 3850 O 349.604 -4.15583 -1.38644 0
M  V30 3851 C 351.105 -3.2915 -2.96943 0
M  V30 3852 H 348.325 -0.587889 -0.323461 0
M  V30 3853 H 350.869 -2.0101 -0.376175 0
M  V30 3854 H 349.024 -2.72394 -2.75464 0
M  V30 3855 H 349.438 -4.82481 -2.05699 0
M  V30 3856 H 350.912 -4.15723 -3.63151 0
M  V30 3857 H 351.389 -2.461 -3.63774 0
M  V30 3858 H 351.995 -3.53871 -2.35914 0
M  V30 3859 N 350.31 0.590341 -1.46126 0
M  V30 3860 C 351.557 1.34882 -1.5104 0
M  V30 3861 C 351.885 1.93849 -0.159021 0
M  V30 3862 O 351.14 1.76544 0.844436 0
M  V30 3863 C 351.439 2.5032 -2.55097 0
M  V30 3864 C 351.105 2.09394 -3.99331 0
M  V30 3865 C 349.767 1.97947 -4.38601 0
M  V30 3866 C 352.119 1.77712 -4.89967 0
M  V30 3867 C 349.447 1.53065 -5.66381 0
M  V30 3868 C 351.799 1.34312 -6.18177 0
M  V30 3869 C 350.463 1.21436 -6.56361 0
M  V30 3870 H 349.733 0.493568 -0.552695 0
M  V30 3871 H 352.38 0.665539 -1.79563 0
M  V30 3872 H 350.685 3.24062 -2.20207 0
M  V30 3873 H 352.382 3.08541 -2.56132 0
M  V30 3874 H 348.972 2.19235 -3.68285 0
M  V30 3875 H 353.156 1.85445 -4.60352 0
M  V30 3876 H 348.412 1.41733 -5.94745 0
M  V30 3877 H 352.586 1.08849 -6.87841 0
M  V30 3878 H 350.213 0.864345 -7.5527 0
M  V30 3879 N 351.788 1.33704 0.83433 0
M  V30 3880 C 352.698 1.26382 1.97648 0
M  V30 3881 C 353.714 0.173548 1.73132 0
M  V30 3882 O 354.89 0.397962 1.97429 0
M  V30 3883 C 351.955 1.00769 3.31733 0
M  V30 3884 C 351.016 2.1884 3.69334 0
M  V30 3885 C 350.249 1.9444 4.9702 0
M  V30 3886 O 350.472 0.896961 5.63303 0
M  V30 3887 O 349.406 2.81093 5.32231 0
M  V30 3888 H 353.232 2.22444 2.06767 0
M  V30 3889 H 350.817 1.13795 0.968037 0
M  V30 3890 H 352.699 0.882186 4.12062 0
M  V30 3891 H 351.374 0.0773783 3.23608 0
M  V30 3892 H 350.281 2.36946 2.89495 0
M  V30 3893 H 351.614 3.10221 3.82131 0
M  V30 3894 N 353.266 -1.05314 1.17247 0
M  V30 3895 C 354.494 -1.81971 0.984593 0
M  V30 3896 C 354.909 -1.82929 -0.467166 0
M  V30 3897 O 354.266 -1.25564 -1.32438 0
M  V30 3898 C 354.317 -3.28143 1.51672 0
M  V30 3899 O 354.038 -3.27347 2.91163 0
M  V30 3900 C 355.539 -4.21493 1.37326 0
M  V30 3901 H 352.759 -0.573455 0.348411 0
M  V30 3902 H 355.303 -1.32808 1.55506 0
M  V30 3903 H 353.458 -3.74582 0.988302 0
M  V30 3904 H 353.872 -4.18824 3.15732 0
M  V30 3905 H 355.346 -5.22043 1.79375 0
M  V30 3906 H 355.823 -4.38031 0.320169 0
M  V30 3907 H 356.429 -3.80909 1.89178 0
M  V30 3908 N 354.744 -0.972509 -1.24016 0
M  V30 3909 C 355.972 -0.654803 -1.96265 0
M  V30 3910 C 356.387 0.776708 -1.72083 0
M  V30 3911 O 355.744 1.52171 -1.00748 0
M  V30 3912 C 355.795 -0.92592 -3.49441 0
M  V30 3913 O 355.516 -2.30116 -3.72798 0
M  V30 3914 C 357.017 -0.623068 -4.38899 0
M  V30 3915 H 354.237 -0.243907 -0.6251 0
M  V30 3916 H 356.781 -1.30175 -1.57717 0
M  V30 3917 H 354.936 -0.325108 -3.86033 0
M  V30 3918 H 355.35 -2.38483 -4.67147 0
M  V30 3919 H 356.824 -0.863189 -5.45209 0
M  V30 3920 H 357.301 0.442754 -4.36963 0
M  V30 3921 H 357.907 -1.204 -4.07902 0
M  V30 3922 N 356.222 1.38976 -0.743202 0
M  V30 3923 C 357.468 2.0064 -0.295189 0
M  V30 3924 C 357.801 1.5885 1.11716 0
M  V30 3925 O 357.076 0.821181 1.76315 0
M  V30 3926 C 357.359 3.578 -0.406318 0
M  V30 3927 C 357.212 4.09586 -1.85903 0
M  V30 3928 C 358.531 4.39616 0.206439 0
M  V30 3929 H 355.65 0.728935 -0.108733 0
M  V30 3930 H 358.292 1.65067 -0.940897 0
M  V30 3931 H 356.442 3.88235 0.143419 0
M  V30 3932 H 358.114 3.89837 -2.46627 0
M  V30 3933 H 356.357 3.6284 -2.3776 0
M  V30 3934 H 357.028 5.18708 -1.888 0
M  V30 3935 H 359.504 4.15273 -0.262283 0
M  V30 3936 H 358.38 5.48812 0.0983819 0
M  V30 3937 H 358.641 4.22754 1.2935 0
M  V30 3938 N 357.7 0.491464 1.49741 0
M  V30 3939 C 358.946 -0.0565092 2.02721 0
M  V30 3940 C 359.279 -1.37522 1.37118 0
M  V30 3941 O 358.554 -1.87866 0.503645 0
M  V30 3942 C 358.837 -0.219051 3.59433 0
M  V30 3943 C 358.69 1.12211 4.35579 0
M  V30 3944 C 360.009 -0.964157 4.29409 0
M  V30 3945 H 357.128 -0.0190627 0.736753 0
M  V30 3946 H 359.77 0.641021 1.7886 0
M  V30 3947 H 357.92 -0.813165 3.79895 0
M  V30 3948 H 359.592 1.75437 4.26637 0
M  V30 3949 H 357.835 1.71377 3.98513 0
M  V30 3950 H 358.506 0.961794 5.43556 0
M  V30 3951 H 360.982 -0.460378 4.13545 0
M  V30 3952 H 359.858 -1.04671 5.38828 0
M  V30 3953 H 360.119 -2.00563 3.93988 0
M  V30 3954 N 359.178 -1.55987 0.224894 0
M  V30 3955 C 360.406 -2.02784 -0.410665 0
M  V30 3956 C 360.821 -1.10464 -1.53112 0
M  V30 3957 O 360.178 -0.114871 -1.82138 0
M  V30 3958 C 360.229 -3.49087 -0.939165 0
M  V30 3959 O 359.95 -4.37887 0.136614 0
M  V30 3960 C 361.451 -4.11543 -1.64763 0
M  V30 3961 H 358.671 -0.663484 -0.100148 0
M  V30 3962 H 361.215 -2.01614 0.342326 0
M  V30 3963 H 359.37 -3.50861 -1.64242 0
M  V30 3964 H 359.784 -5.23849 -0.261155 0
M  V30 3965 H 361.258 -5.15673 -1.96939 0
M  V30 3966 H 361.735 -3.56736 -2.56195 0
M  V30 3967 H 362.341 -4.13629 -0.989503 0
M  V30 3968 N 360.656 0.0484629 -1.57525 0
M  V30 3969 C 361.886 0.754326 -1.92337 0
M  V30 3970 C 362.294 1.70443 -0.82132 0
M  V30 3971 O 361.637 1.82466 0.21254 0
M  V30 3972 C 361.699 1.58231 -3.22805 0
M  V30 3973 C 361.363 0.799074 -4.4996 0
M  V30 3974 C 362.36 0.1079 -5.19788 0
M  V30 3975 C 360.045 0.759345 -4.96527 0
M  V30 3976 C 362.039 -0.612516 -6.3445 0
M  V30 3977 C 359.726 0.0351713 -6.1109 0
M  V30 3978 C 360.724 -0.649537 -6.79904 0
M  V30 3979 O 360.412 -1.36199 -7.92278 0
M  V30 3980 H 360.144 0.218257 -0.639797 0
M  V30 3981 H 362.698 0.0159295 -2.05394 0
M  V30 3982 H 360.928 2.36406 -3.06021 0
M  V30 3983 H 362.617 2.16898 -3.43089 0
M  V30 3984 H 363.383 0.129748 -4.84826 0
M  V30 3985 H 359.262 1.28177 -4.42822 0
M  V30 3986 H 362.806 -1.14751 -6.88097 0
M  V30 3987 H 358.703 0.0113314 -6.45499 0
M  V30 3988 H 359.471 -1.27366 -8.0853 0
M  V30 3989 N 362.134 1.5431 0.320358 0
M  V30 3990 C 363.545 1.63872 0.894594 0
M  V30 3991 C 363.896 0.534847 1.88769 0
M  V30 3992 O 363.021 -0.331732 2.13842 0
M  V30 3993 C 363.616 2.97049 1.62934 0
M  V30 3994 C 362.175 3.08796 2.15226 0
M  V30 3995 C 361.322 2.59456 0.978671 0
M  V30 3996 H 364.273 1.58398 0.0978544 0
M  V30 3997 H 364.294 2.87388 2.49376 0
M  V30 3998 H 363.806 3.7737 0.906302 0
M  V30 3999 H 361.907 2.33156 2.90636 0
M  V30 4000 H 362.02 4.14649 2.40006 0
M  V30 4001 H 360.384 2.1543 1.35875 0
M  V30 4002 H 361.167 3.42237 0.269895 0
M  V30 4003 N 363.613 -0.582584 1.46437 0
M  V30 4004 C 364.838 -1.37168 1.55563 0
M  V30 4005 C 365.263 -1.87061 0.19743 0
M  V30 4006 O 364.621 -1.61572 -0.822451 0
M  V30 4007 C 364.669 -2.53511 2.56446 0
M  V30 4008 O 363.773 -3.54953 2.09958 0
M  V30 4009 H 363.114 -0.408494 0.523477 0
M  V30 4010 H 365.644 -0.706646 1.9201 0
M  V30 4011 H 365.654 -3.00426 2.76058 0
M  V30 4012 H 364.329 -2.16549 3.55076 0
M  V30 4013 H 362.906 -3.14516 2.00334 0
M  V30 4014 N 365.091 -1.34144 -0.827227 0
M  V30 4015 C 366.054 -1.25264 -1.91942 0
M  V30 4016 C 367.054 -0.168866 -1.59911 0
M  V30 4017 O 368.244 -0.421198 -1.69031 0
M  V30 4018 C 365.376 -0.932952 -3.27885 0
M  V30 4019 H 366.569 -2.22357 -2.0124 0
M  V30 4020 H 364.122 -1.1837 -1.0207 0
M  V30 4021 H 364.857 0.0349917 -3.24281 0
M  V30 4022 H 364.642 -1.71682 -3.52516 0
M  V30 4023 H 366.132 -0.895874 -4.07877 0
M  V30 4024 N 366.569 1.04691 -1.17803 0
M  V30 4025 C 367.815 1.78181 -0.980977 0
M  V30 4026 C 368.17 1.86191 0.484825 0
M  V30 4027 O 367.463 1.35436 1.35527 0
M  V30 4028 C 367.657 3.21467 -1.56186 0
M  V30 4029 C 367.486 3.27422 -3.08261 0
M  V30 4030 C 366.256 3.36415 -3.77032 0
M  V30 4031 C 368.454 3.15947 -4.0581 0
M  V30 4032 N 366.436 3.31554 -5.16667 0
M  V30 4033 C 367.807 3.18514 -5.31929 0
M  V30 4034 C 369.862 2.99945 -3.97413 0
M  V30 4035 C 368.565 3.06723 -6.50625 0
M  V30 4036 C 370.591 2.89497 -5.15699 0
M  V30 4037 C 369.953 2.92702 -6.40706 0
M  V30 4038 H 366.052 0.6641 -0.412911 0
M  V30 4039 H 368.636 1.24762 -1.49474 0
M  V30 4040 H 366.807 3.73245 -1.07436 0
M  V30 4041 H 368.539 3.8322 -1.30093 0
M  V30 4042 H 365.294 3.41887 -3.27735 0
M  V30 4043 H 365.718 3.3258 -5.89678 0
M  V30 4044 H 370.36 2.96302 -3.01604 0
M  V30 4045 H 368.078 3.0912 -7.46639 0
M  V30 4046 H 371.664 2.78179 -5.10987 0
M  V30 4047 H 370.544 2.84697 -7.30696 0
M  V30 4048 N 368.047 0.979072 1.23499 0
M  V30 4049 C 369.272 0.664845 1.96455 0
M  V30 4050 C 369.697 -0.761287 1.72006 0
M  V30 4051 O 369.055 -1.51837 0.990713 0
M  V30 4052 C 369.103 0.959479 3.47601 0
M  V30 4053 O 368.207 0.0508168 4.12369 0
M  V30 4054 H 367.548 0.250185 0.615064 0
M  V30 4055 H 370.078 1.31231 1.5697 0
M  V30 4056 H 370.088 0.895642 3.98048 0
M  V30 4057 H 368.763 1.99876 3.64723 0
M  V30 4058 H 367.34 0.16895 3.72517 0
M  V30 4059 N 369.525 -1.3858 0.750561 0
M  V30 4060 C 370.457 -2.29057 0.0810714 0
M  V30 4061 C 371.47 -1.47596 -0.686973 0
M  V30 4062 O 372.659 -1.70495 -0.528563 0
M  V30 4063 C 369.759 -3.26475 -0.909247 0
M  V30 4064 C 368.932 -4.36945 -0.199478 0
M  V30 4065 C 367.991 -5.14572 -1.10011 0
M  V30 4066 O 367.017 -5.66321 -0.57177 0
M  V30 4067 N 368.219 -5.27262 -2.42849 0
M  V30 4068 H 370.984 -2.87153 0.858087 0
M  V30 4069 H 368.545 -1.50328 0.60109 0
M  V30 4070 H 370.537 -3.75285 -1.51471 0
M  V30 4071 H 369.107 -2.69298 -1.58736 0
M  V30 4072 H 368.327 -3.8981 0.586664 0
M  V30 4073 H 369.615 -5.07963 0.291783 0
M  V30 4074 H 369.013 -4.86763 -2.88233 0
M  V30 4075 H 367.57 -5.79456 -2.98453 0
M  V30 4076 N 371.003 -0.499398 -1.49478 0
M  V30 4077 C 371.913 0.284489 -2.32869 0
M  V30 4078 C 372.929 0.968885 -1.44529 0
M  V30 4079 O 374.105 0.95062 -1.77553 0
M  V30 4080 C 371.17 1.33594 -3.19928 0
M  V30 4081 C 370.231 0.665149 -4.24116 0
M  V30 4082 C 369.464 1.6665 -5.07014 0
M  V30 4083 O 369.687 2.89618 -4.91404 0
M  V30 4084 O 368.621 1.22271 -5.8935 0
M  V30 4085 H 372.447 -0.39802 -3.01081 0
M  V30 4086 H 370.032 -0.260758 -1.47107 0
M  V30 4087 H 371.914 1.94431 -3.73864 0
M  V30 4088 H 370.589 2.0014 -2.54412 0
M  V30 4089 H 369.496 0.0170769 -3.74096 0
M  V30 4090 H 370.829 0.0421555 -4.92182 0
M  V30 4091 N 372.481 1.55866 -0.233164 0
M  V30 4092 C 373.414 2.16794 0.712442 0
M  V30 4093 C 374.392 1.1158 1.18273 0
M  V30 4094 O 375.576 1.39897 1.26337 0
M  V30 4095 C 372.703 2.75757 1.96661 0
M  V30 4096 C 371.749 3.93902 1.63533 0
M  V30 4097 S 372.582 5.30223 0.74995 0
M  V30 4098 C 373.738 5.92631 2.01343 0
M  V30 4099 H 373.971 2.96662 0.194617 0
M  V30 4100 H 371.504 1.5439 -0.0177425 0
M  V30 4101 H 373.462 3.10367 2.68668 0
M  V30 4102 H 372.123 1.9586 2.45556 0
M  V30 4103 H 371.316 4.33702 2.56747 0
M  V30 4104 H 370.918 3.60499 0.995804 0
M  V30 4105 H 373.21 6.09312 2.96219 0
M  V30 4106 H 374.153 6.88388 1.65915 0
M  V30 4107 H 374.561 5.21571 2.15925 0
M  V30 4108 N 373.959 -0.0401083 1.57549 0
M  V30 4109 C 375.205 -0.734211 1.89043 0
M  V30 4110 C 375.538 -1.75591 0.829535 0
M  V30 4111 O 374.813 -1.93868 -0.156706 0
M  V30 4112 C 375.096 -1.41374 3.31188 0
M  V30 4113 C 374.949 -0.406299 4.47961 0
M  V30 4114 C 376.268 -2.35061 3.72068 0
M  V30 4115 H 373.387 -0.265447 0.687537 0
M  V30 4116 H 376.029 0.00294087 1.9 0
M  V30 4117 H 374.179 -2.04206 3.30503 0
M  V30 4118 H 375.851 0.219255 4.60779 0
M  V30 4119 H 374.094 0.275485 4.32924 0
M  V30 4120 H 374.765 -0.920022 5.44279 0
M  V30 4121 H 377.241 -1.82282 3.74049 0
M  V30 4122 H 376.117 -2.79593 4.72355 0
M  V30 4123 H 376.378 -3.21258 3.0372 0
M  V30 4124 N 375.437 -1.54477 -0.31217 0
M  V30 4125 C 376.662 -1.77526 -1.07235 0
M  V30 4126 C 377.087 -0.527775 -1.80544 0
M  V30 4127 O 376.445 0.52121 -1.73646 0
M  V30 4128 C 376.493 -2.97535 -2.03728 0
M  V30 4129 O 375.597 -2.69878 -3.11833 0
M  V30 4130 H 374.938 -0.58792 -0.30862 0
M  V30 4131 H 377.468 -2.01532 -0.352993 0
M  V30 4132 H 377.478 -3.25198 -2.46395 0
M  V30 4133 H 376.153 -3.87996 -1.49774 0
M  V30 4134 H 374.73 -2.53199 -2.7376 0
M  V30 4135 N 376.915 0.57481 -1.46744 0
M  V30 4136 C 377.845 1.69337 -1.60771 0
M  V30 4137 C 378.826 1.63825 -0.457736 0
M  V30 4138 O 380.011 1.8172 -0.684947 0
M  V30 4139 C 377.141 3.0798 -1.60517 0
M  V30 4140 C 376.095 3.28327 -2.74564 0
M  V30 4141 C 375.421 4.67578 -2.59373 0
M  V30 4142 C 376.721 3.15398 -4.16319 0
M  V30 4143 H 378.415 1.57853 -2.54407 0
M  V30 4144 H 375.961 0.75799 -1.22436 0
M  V30 4145 H 377.914 3.86061 -1.68923 0
M  V30 4146 H 376.638 3.20381 -0.634305 0
M  V30 4147 H 375.297 2.52649 -2.65639 0
M  V30 4148 H 374.945 4.76755 -1.60353 0
M  V30 4149 H 374.645 4.82144 -3.35873 0
M  V30 4150 H 376.169 5.47817 -2.69682 0
M  V30 4151 H 377.583 3.83315 -4.26313 0
M  V30 4152 H 375.98 3.41482 -4.93468 0
M  V30 4153 H 377.05 2.12372 -4.3592 0
M  V30 4154 N 378.394 1.34581 0.820102 0
M  V30 4155 C 379.324 1.29038 1.94606 0
M  V30 4156 C 380.305 0.1673 1.69275 0
M  V30 4157 O 381.49 0.360112 1.90832 0
M  V30 4158 C 378.62 1.04793 3.31113 0
M  V30 4159 C 377.574 2.13597 3.70891 0
M  V30 4160 C 376.9 1.74537 5.05412 0
M  V30 4161 C 378.2 3.55451 3.8269 0
M  V30 4162 H 379.894 2.23248 1.99501 0
M  V30 4163 H 377.44 1.0747 0.958449 0
M  V30 4164 H 379.393 0.995592 4.0947 0
M  V30 4165 H 378.117 0.0702565 3.26524 0
M  V30 4166 H 376.776 2.17905 2.9481 0
M  V30 4167 H 376.424 0.754226 4.97313 0
M  V30 4168 H 376.124 2.47361 5.32997 0
M  V30 4169 H 377.648 1.70803 5.86224 0
M  V30 4170 H 379.062 3.5354 4.51312 0
M  V30 4171 H 377.459 4.26922 4.21732 0
M  V30 4172 H 378.529 3.92587 2.84611 0
M  V30 4173 N 379.872 -1.04064 1.18357 0
M  V30 4174 C 380.819 -2.12077 0.910603 0
M  V30 4175 C 381.789 -1.65421 -0.15 0
M  V30 4176 O 382.974 -1.90797 -0.0103614 0
M  V30 4177 C 380.114 -3.42252 0.442472 0
M  V30 4178 C 379.227 -4.0252 1.5685 0
M  V30 4179 C 378.362 -5.20657 1.05309 0
M  V30 4180 C 377.401 -5.72955 2.1538 0
M  V30 4181 N 376.538 -6.8238 1.65233 0
M  V30 4182 H 381.378 -2.34764 1.83548 0
M  V30 4183 H 378.915 -1.15157 0.915279 0
M  V30 4184 H 380.873 -4.16921 0.152534 0
M  V30 4185 H 379.503 -3.19712 -0.445428 0
M  V30 4186 H 378.555 -3.25178 1.97391 0
M  V30 4187 H 379.867 -4.37362 2.39824 0
M  V30 4188 H 379.021 -6.0244 0.717677 0
M  V30 4189 H 377.76 -4.87318 0.19293 0
M  V30 4190 H 376.765 -4.89793 2.49766 0
M  V30 4191 H 377.99 -6.08337 3.01832 0
M  V30 4192 H 375.936 -6.50917 0.815064 0
M  V30 4193 H 375.853 -7.16286 2.41805 0
M  V30 4194 H 377.121 -7.67788 1.34619 0
M  V30 4195 N 381.35 -0.985608 -1.22978 0
M  V30 4196 C 382.297 -0.529825 -2.24636 0
M  V30 4197 C 383.267 0.434028 -1.60329 0
M  V30 4198 O 384.452 0.340414 -1.87739 0
M  V30 4199 C 381.592 0.156533 -3.44745 0
M  V30 4200 C 380.705 -0.848197 -4.23591 0
M  V30 4201 C 379.84 -0.136109 -5.31026 0
M  V30 4202 C 378.879 -1.1297 -6.01585 0
M  V30 4203 N 378.016 -0.446415 -7.00679 0
M  V30 4204 H 382.856 -1.40148 -2.62988 0
M  V30 4205 H 380.393 -0.702168 -1.29259 0
M  V30 4206 H 382.351 0.571324 -4.1327 0
M  V30 4207 H 380.981 0.992025 -3.07179 0
M  V30 4208 H 380.033 -1.38135 -3.54433 0
M  V30 4209 H 381.345 -1.60512 -4.72268 0
M  V30 4210 H 380.499 0.335784 -6.0577 0
M  V30 4211 H 379.238 0.653373 -4.83304 0
M  V30 4212 H 378.243 -1.6123 -5.25628 0
M  V30 4213 H 379.468 -1.91993 -6.51395 0
M  V30 4214 H 377.414 0.323763 -6.55201 0
M  V30 4215 H 377.331 -1.1419 -7.47326 0
M  V30 4216 H 378.599 0.00291697 -7.795 0
M  V30 4217 N 382.828 1.3818 -0.7579 0
M  V30 4218 C 383.758 2.33027 -0.148597 0
M  V30 4219 C 384.739 1.55085 0.69875 0
M  V30 4220 O 385.924 1.83384 0.639053 0
M  V30 4221 C 383.054 3.3928 0.742034 0
M  V30 4222 C 382.008 4.28 -0.00291946 0
M  V30 4223 C 381.334 5.25146 1.00625 0
M  V30 4224 C 382.634 5.08938 -1.17385 0
M  V30 4225 H 384.328 2.84231 -0.940909 0
M  V30 4226 H 381.874 1.36659 -0.453908 0
M  V30 4227 H 383.827 4.046 1.17799 0
M  V30 4228 H 382.551 2.86569 1.56671 0
M  V30 4229 H 381.21 3.64192 -0.419504 0
M  V30 4230 H 380.858 4.68721 1.8251 0
M  V30 4231 H 380.558 5.85361 0.512428 0
M  V30 4232 H 382.082 5.93342 1.44143 0
M  V30 4233 H 383.496 5.67474 -0.815224 0
M  V30 4234 H 381.893 5.7841 -1.59882 0
M  V30 4235 H 382.963 4.42424 -1.98468 0
M  V30 4236 N 384.306 0.507319 1.49211 0
M  V30 4237 C 385.236 -0.256939 2.32082 0
M  V30 4238 C 386.217 -0.956609 1.40652 0
M  V30 4239 O 387.402 -0.946788 1.69557 0
M  V30 4240 C 384.532 -1.31802 3.21318 0
M  V30 4241 C 383.486 -0.737855 4.21592 0
M  V30 4242 C 382.812 -1.89992 4.99807 0
M  V30 4243 C 384.112 0.275325 5.21574 0
M  V30 4244 H 385.806 0.434798 2.96226 0
M  V30 4245 H 383.352 0.210546 1.42452 0
M  V30 4246 H 385.305 -1.86045 3.78107 0
M  V30 4247 H 384.029 -2.03903 2.5513 0
M  V30 4248 H 382.688 -0.217126 3.65956 0
M  V30 4249 H 382.336 -2.60877 4.30061 0
M  V30 4250 H 382.036 -1.51777 5.6766 0
M  V30 4251 H 383.56 -2.44657 5.59442 0
M  V30 4252 H 384.974 -0.179193 5.7302 0
M  V30 4253 H 383.371 0.573649 5.97352 0
M  V30 4254 H 384.441 1.18903 4.70096 0
M  V30 4255 N 385.784 -1.5574 0.241426 0
M  V30 4256 C 386.694 -2.2479 -0.671305 0
M  V30 4257 C 387.71 -1.26217 -1.19772 0
M  V30 4258 O 388.886 -1.59079 -1.23514 0
M  V30 4259 C 385.951 -2.92966 -1.85396 0
M  V30 4260 C 385.012 -4.06935 -1.36756 0
M  V30 4261 C 384.245 -4.71851 -2.49384 0
M  V30 4262 O 384.468 -4.35823 -3.67987 0
M  V30 4263 O 383.402 -5.60467 -2.19454 0
M  V30 4264 H 387.228 -3.0349 -0.112966 0
M  V30 4265 H 384.813 -1.49397 0.0101513 0
M  V30 4266 H 386.695 -3.35927 -2.54423 0
M  V30 4267 H 385.37 -2.17211 -2.40002 0
M  V30 4268 H 384.277 -3.68503 -0.644726 0
M  V30 4269 H 385.61 -4.84492 -0.867647 0
M  V30 4270 N 387.262 0.0317525 -1.57568 0
M  V30 4271 C 388.673 0.578692 -1.77505 0
M  V30 4272 C 389.024 1.75749 -0.872164 0
M  V30 4273 O 388.149 2.16298 -0.0663106 0
M  V30 4274 C 388.744 1.05658 -3.21904 0
M  V30 4275 C 387.303 1.54906 -3.43047 0
M  V30 4276 C 386.45 0.485939 -2.73009 0
M  V30 4277 H 389.401 -0.194475 -1.57504 0
M  V30 4278 H 389.422 1.92404 -3.28269 0
M  V30 4279 H 388.934 0.198422 -3.87592 0
M  V30 4280 H 387.035 2.42915 -2.82529 0
M  V30 4281 H 387.148 1.59841 -4.5165 0
M  V30 4282 H 385.512 0.940354 -2.36705 0
M  V30 4283 H 386.295 -0.362709 -3.41379 0
M  V30 4284 N 388.74 1.54641 0.303973 0
M  V30 4285 C 389.688 1.86137 1.39484 0
M  V30 4286 C 390.682 0.734854 1.52631 0
M  V30 4287 O 391.888 0.918803 1.54784 0
M  V30 4288 H 388.263 0.590324 0.465856 0
M  V30 4289 H 390.234 2.77324 1.10154 0
M  V30 4290 C 388.983 2.12274 2.75382 0
M  V30 4291 H 388.306 2.98429 2.66046 0
M  V30 4292 H 389.746 2.38254 3.5073 0
M  V30 4293 C 388.205 0.920365 3.24085 0
M  V30 4294 O 388.735 0.139377 4.01458 0
M  V30 4295 N 386.941 0.726566 2.81371 0
M  V30 4296 H 386.488 1.36332 2.18567 0
M  V30 4297 H 386.446 -0.0763799 3.14307 0
M  V30 4298 N 390.218 -0.567019 1.47046 0
M  V30 4299 C 391.629 -1.14916 1.47143 0
M  V30 4300 C 391.98 -1.94954 0.220767 0
M  V30 4301 O 391.105 -2.05602 -0.67505 0
M  V30 4302 C 391.7 -2.09069 2.666 0
M  V30 4303 C 390.259 -2.62575 2.69687 0
M  V30 4304 C 389.406 -1.38755 2.40088 0
M  V30 4305 H 392.357 -0.354126 1.54699 0
M  V30 4306 H 392.378 -2.92789 2.43011 0
M  V30 4307 H 391.89 -1.50789 3.57609 0
M  V30 4308 H 389.991 -3.24681 1.82792 0
M  V30 4309 H 390.104 -3.04239 3.70102 0
M  V30 4310 H 388.468 -1.69098 1.90468 0
M  V30 4311 H 389.251 -0.822822 3.33293 0
M  V30 4312 N 391.696 -1.35014 -0.812953 0
M  V30 4313 C 392.973 -1.18502 -1.55617 0
M  V30 4314 C 393.353 0.238421 -2.09749 0
M  V30 4315 O 392.701 1.2411 -1.91857 0
M  V30 4316 C 392.911 -2.24783 -2.66971 0
M  V30 4317 C 394.259 -2.60268 -3.35478 0
M  V30 4318 O 395.283 -2.23648 -2.77236 0
M  V30 4319 O 394.142 -3.2321 -4.40678 0
M  V30 4320 H 391.236 -0.459984 -0.687272 0
M  V30 4321 H 393.782 -1.46677 -0.853464 0
M  V30 4322 H 392.554 -3.20284 -2.24798 0
M  V30 4323 H 392.177 -1.97841 -3.44884 0
M  V30 4324 N 393.175 1.03435 -1.18907 0
M  V30 4325 C 394.107 2.1165 -0.879595 0
M  V30 4326 C 395.12 1.62316 0.125439 0
M  V30 4327 O 396.309 1.78201 -0.103245 0
M  V30 4328 C 393.409 3.37622 -0.294042 0
M  V30 4329 C 392.582 4.16166 -1.34629 0
M  V30 4330 C 391.641 5.20457 -0.775274 0
M  V30 4331 O 390.667 5.50379 -1.4516 0
M  V30 4332 N 391.869 5.78949 0.424126 0
M  V30 4333 H 394.634 2.38791 -1.81105 0
M  V30 4334 H 392.195 1.19681 -1.09032 0
M  V30 4335 H 394.187 4.04572 0.101679 0
M  V30 4336 H 392.757 3.07873 0.541575 0
M  V30 4337 H 391.977 3.44444 -1.91707 0
M  V30 4338 H 393.265 4.65432 -2.05549 0
M  V30 4339 H 392.663 5.56948 0.991209 0
M  V30 4340 H 391.22 6.47334 0.761691 0
M  V30 4341 N 394.653 0.992116 1.22453 0
M  V30 4342 C 396.069 0.702713 1.43297 0
M  V30 4343 C 396.269 -0.726909 1.87932 0
M  V30 4344 O 395.325 -1.49792 2.0327 0
M  V30 4345 C 396.638 1.70762 2.47509 0
M  V30 4346 C 398.186 1.72298 2.61309 0
M  V30 4347 C 398.661 2.71649 3.68742 0
M  V30 4348 N 400.152 2.70239 3.76199 0
M  V30 4349 C 400.887 3.43778 4.58917 0
M  V30 4350 N 400.383 4.26914 5.45633 0
M  V30 4351 N 402.176 3.32487 4.5322 0
M  V30 4352 H 394.327 1.91543 0.917871 0
M  V30 4353 H 396.59 0.826031 0.465162 0
M  V30 4354 H 396.296 2.73059 2.21657 0
M  V30 4355 H 396.17 1.49985 3.46099 0
M  V30 4356 H 398.557 0.706989 2.86506 0
M  V30 4357 H 398.638 1.97143 1.62997 0
M  V30 4358 H 398.282 3.73397 3.44292 0
M  V30 4359 H 398.212 2.44074 4.66622 0
M  V30 4360 H 400.703 2.09912 3.14237 0
M  V30 4361 H 401.016 4.79855 6.05771 0
M  V30 4362 H 399.361 4.31002 5.45218 0
M  V30 4363 H 402.552 2.6698 3.84499 0
M  V30 4364 H 402.725 3.90058 5.17454 0
M  V30 4365 N 396.131 -1.37776 0.765217 0
M  V30 4366 C 397.378 -1.99849 0.326588 0
M  V30 4367 C 397.706 -1.60746 -1.09504 0
M  V30 4368 O 396.961 -0.84202 -1.76659 0
M  V30 4369 C 397.26 -3.5504 0.410053 0
M  V30 4370 C 396.926 -4.13891 1.78899 0
M  V30 4371 C 395.588 -4.29678 2.16635 0
M  V30 4372 C 397.94 -4.46236 2.69301 0
M  V30 4373 C 395.268 -4.7511 3.44221 0
M  V30 4374 C 397.62 -4.93089 3.9629 0
M  V30 4375 C 396.284 -5.07082 4.34078 0
M  V30 4376 H 395.554 -0.7313 0.119507 0
M  V30 4377 H 398.201 -1.64645 0.977968 0
M  V30 4378 H 396.506 -3.90451 -0.324878 0
M  V30 4379 H 398.203 -4.00966 0.0520699 0
M  V30 4380 H 394.793 -4.02026 1.48569 0
M  V30 4381 H 398.977 -4.3363 2.41409 0
M  V30 4382 H 394.233 -4.84129 3.73402 0
M  V30 4383 H 398.407 -5.17084 4.66472 0
M  V30 4384 H 396.034 -5.42046 5.33001 0
M  V30 4385 N 397.609 -0.515225 -1.4894 0
M  V30 4386 C 398.834 0.022727 -2.07388 0
M  V30 4387 C 399.259 1.2876 -1.37122 0
M  V30 4388 O 398.617 1.76067 -0.432431 0
M  V30 4389 C 398.665 0.244869 -3.59768 0
M  V30 4390 O 397.769 1.31667 -3.90817 0
M  V30 4391 H 397.11 -0.0325506 -0.663202 0
M  V30 4392 H 399.64 -0.718918 -1.91553 0
M  V30 4393 H 399.65 0.47205 -4.0526 0
M  V30 4394 H 398.325 -0.679194 -4.10317 0
M  V30 4395 H 396.902 1.07331 -3.5712 0
M  V30 4396 N 399.087 1.5561 -0.249682 0
M  V30 4397 C 400.019 2.18834 0.681496 0
M  V30 4398 C 401.032 1.16546 1.1367 0
M  V30 4399 O 402.221 1.43397 1.06299 0
M  V30 4400 C 399.321 2.77992 1.9384 0
M  V30 4401 C 398.494 4.05725 1.63419 0
M  V30 4402 C 397.553 4.49174 2.74096 0
M  V30 4403 O 396.579 5.15492 2.41364 0
M  V30 4404 N 397.781 4.17191 4.03649 0
M  V30 4405 H 400.546 2.9937 0.140514 0
M  V30 4406 H 398.107 1.6175 -0.0697541 0
M  V30 4407 H 400.099 3.04015 2.67127 0
M  V30 4408 H 398.669 2.01596 2.38909 0
M  V30 4409 H 397.889 3.87261 0.736358 0
M  V30 4410 H 399.177 4.88999 1.40562 0
M  V30 4411 H 398.575 3.63955 4.33074 0
M  V30 4412 H 397.132 4.48043 4.73393 0
M  V30 4413 N 400.565 -0.0233959 1.57583 0
M  V30 4414 C 401.495 -1.02162 2.09965 0
M  V30 4415 C 402.476 -1.3735 1.00344 0
M  V30 4416 O 403.661 -1.46135 1.27899 0
M  V30 4417 C 400.791 -2.32081 2.58371 0
M  V30 4418 C 399.745 -2.1112 3.72307 0
M  V30 4419 C 399.071 -3.46848 4.06941 0
M  V30 4420 C 400.371 -1.49276 5.00514 0
M  V30 4421 H 402.065 -0.585557 2.93618 0
M  V30 4422 H 399.611 -0.280218 1.41247 0
M  V30 4423 H 401.564 -3.02249 2.93639 0
M  V30 4424 H 400.288 -2.77758 1.71808 0
M  V30 4425 H 398.947 -1.43384 3.37397 0
M  V30 4426 H 398.595 -3.90184 3.17436 0
M  V30 4427 H 398.295 -3.33646 4.83688 0
M  V30 4428 H 399.819 -4.18369 4.44747 0
M  V30 4429 H 401.233 -2.09368 5.33702 0
M  V30 4430 H 399.63 -1.46632 5.8191 0
M  V30 4431 H 400.7 -0.459217 4.82721 0
M  V30 4432 N 402.043 -1.548 -0.295768 0
M  V30 4433 C 403.268 -1.78653 -1.05346 0
M  V30 4434 C 403.693 -0.546894 -1.79974 0
M  V30 4435 O 403.051 0.502763 -1.7419 0
M  V30 4436 C 403.099 -2.99679 -2.00561 0
M  V30 4437 O 402.203 -2.7317 -3.08953 0
M  V30 4438 H 401.544 -0.59116 -0.302367 0
M  V30 4439 H 404.074 -2.01895 -0.331598 0
M  V30 4440 H 404.084 -3.27793 -2.42932 0
M  V30 4441 H 402.759 -3.89562 -1.4565 0
M  V30 4442 H 401.336 -2.56089 -2.71059 0
M  V30 4443 N 403.521 0.559213 -1.47345 0
M  V30 4444 C 404.798 1.31997 -1.44348 0
M  V30 4445 C 405.178 2.1064 -0.139358 0
M  V30 4446 O 404.526 2.1091 0.879153 0
M  V30 4447 C 404.736 2.22618 -2.68779 0
M  V30 4448 C 406.084 2.83701 -3.1591 0
M  V30 4449 O 407.108 2.32921 -2.69493 0
M  V30 4450 O 405.967 3.75993 -3.966 0
M  V30 4451 H 403.061 0.594251 -0.575147 0
M  V30 4452 H 405.607 0.578282 -1.59543 0
M  V30 4453 H 404.379 1.64093 -3.55231 0
M  V30 4454 H 404.002 3.04085 -2.5616 0
M  V30 4455 N 404.999 1.35443 0.805782 0
M  V30 4456 C 406.245 1.28952 1.56522 0
M  V30 4457 C 406.578 -0.135597 1.93726 0
M  V30 4458 O 405.853 -1.08516 1.61414 0
M  V30 4459 C 406.136 2.19678 2.85331 0
M  V30 4460 C 405.989 3.7081 2.54598 0
M  V30 4461 C 407.308 2.09495 3.8704 0
M  V30 4462 H 404.427 0.469764 0.567883 0
M  V30 4463 H 407.069 1.65851 0.927001 0
M  V30 4464 H 405.219 1.8834 3.39795 0
M  V30 4465 H 406.891 4.12593 2.06312 0
M  V30 4466 H 405.134 3.91051 1.8778 0
M  V30 4467 H 405.805 4.29679 3.46525 0
M  V30 4468 H 408.281 2.37045 3.41978 0
M  V30 4469 H 407.157 2.75173 4.74943 0
M  V30 4470 H 407.418 1.07714 4.28777 0
M  V30 4471 N 406.477 -1.02803 1.19454 0
M  V30 4472 C 407.409 -2.11181 0.890807 0
M  V30 4473 C 408.422 -1.6238 -0.116829 0
M  V30 4474 O 409.611 -1.78144 0.112694 0
M  V30 4475 C 406.711 -3.37461 0.311942 0
M  V30 4476 C 405.884 -4.15446 1.36834 0
M  V30 4477 C 404.943 -5.20039 0.802864 0
M  V30 4478 O 403.969 -5.49602 1.48077 0
M  V30 4479 N 405.171 -5.79165 -0.393417 0
M  V30 4480 H 407.936 -2.37827 1.82369 0
M  V30 4481 H 405.497 -1.19101 1.09666 0
M  V30 4482 H 407.489 -4.0462 -0.0802225 0
M  V30 4483 H 406.059 -3.08156 -0.52524 0
M  V30 4484 H 405.279 -3.43423 1.93531 0
M  V30 4485 H 406.567 -4.64335 2.08015 0
M  V30 4486 H 405.965 -5.57466 -0.961658 0
M  V30 4487 H 404.522 -6.47729 -0.727351 0
M  V30 4488 N 407.956 -0.998596 -1.21925 0
M  V30 4489 C 408.904 -0.546641 -2.26085 0
M  V30 4490 C 409.898 0.405576 -1.64473 0
M  V30 4491 O 411.104 0.277471 -1.77849 0
M  V30 4492 H 407.479 -0.158403 -0.735127 0
M  V30 4493 H 409.45 -1.43645 -2.61551 0
M  V30 4494 C 408.199 0.117388 -3.47502 0
M  V30 4495 H 407.522 -0.606277 -3.95176 0
M  V30 4496 H 408.962 0.396993 -4.22137 0
M  V30 4497 C 407.421 1.35455 -3.0847 0
M  V30 4498 O 407.951 2.44944 -3.18379 0
M  V30 4499 N 406.157 1.23191 -2.63196 0
M  V30 4500 H 405.704 0.341006 -2.55333 0
M  V30 4501 H 405.662 2.06071 -2.37449 0
M  V30 4502 N 409.434 1.37368 -0.772513 0
M  V30 4503 C 410.681 1.99673 -0.337182 0
M  V30 4504 C 411.009 1.61324 1.0865 0
M  V30 4505 O 410.264 0.851377 1.7621 0
M  V30 4506 C 410.563 3.54817 -0.428876 0
M  V30 4507 C 410.229 4.12936 -1.81092 0
M  V30 4508 C 408.891 4.28523 -2.1891 0
M  V30 4509 C 411.243 4.44801 -2.71664 0
M  V30 4510 C 408.571 4.73277 -3.46735 0
M  V30 4511 C 410.923 4.90981 -3.98899 0
M  V30 4512 C 409.587 5.04773 -4.36761 0
M  V30 4513 H 408.857 0.730656 -0.123384 0
M  V30 4514 H 411.504 1.64124 -0.986686 0
M  V30 4515 H 409.809 3.90618 0.304167 0
M  V30 4516 H 411.506 4.00933 -0.0733334 0
M  V30 4517 H 408.096 4.01233 -1.50699 0
M  V30 4518 H 412.28 4.32344 -2.43706 0
M  V30 4519 H 407.536 4.82142 -3.75964 0
M  V30 4520 H 411.71 5.14603 -4.69208 0
M  V30 4521 H 409.337 5.39211 -5.35868 0
M  V30 4522 N 410.912 0.523116 1.48665 0
M  V30 4523 C 412.323 0.0808997 1.86525 0
M  V30 4524 C 412.674 -1.33975 1.43336 0
M  V30 4525 O 411.799 -2.00221 0.821009 0
M  V30 4526 C 412.394 0.140037 3.3851 0
M  V30 4527 C 410.953 -0.246948 3.75589 0
M  V30 4528 C 410.1 0.502845 2.72703 0
M  V30 4529 H 413.051 0.734736 1.40667 0
M  V30 4530 H 413.072 -0.649945 3.74908 0
M  V30 4531 H 412.584 1.17412 3.69914 0
M  V30 4532 H 410.685 -1.28343 3.49798 0
M  V30 4533 H 410.798 0.0878859 4.79019 0
M  V30 4534 H 409.162 -0.0500581 2.54651 0
M  V30 4535 H 409.945 1.53743 3.0695 0
M  V30 4536 N 412.39 -1.55475 0.257931 0
M  V30 4537 C 413.62 -2.03314 -0.367026 0
M  V30 4538 C 414.028 -1.13625 -1.51281 0
M  V30 4539 O 413.371 -0.145334 -1.83124 0
M  V30 4540 C 413.433 -3.47362 -0.926284 0
M  V30 4541 C 413.097 -4.56914 0.0886584 0
M  V30 4542 C 414.094 -5.12013 0.902123 0
M  V30 4543 C 411.779 -5.01827 0.217936 0
M  V30 4544 C 413.773 -6.10529 1.83122 0
M  V30 4545 C 411.46 -6.00172 1.15052 0
M  V30 4546 C 412.458 -6.54402 1.95568 0
M  V30 4547 O 412.146 -7.50827 2.87253 0
M  V30 4548 H 411.878 -0.669976 -0.0900443 0
M  V30 4549 H 414.432 -2.01804 0.382673 0
M  V30 4550 H 412.662 -3.46056 -1.72575 0
M  V30 4551 H 414.351 -3.78637 -1.46249 0
M  V30 4552 H 415.117 -4.78139 0.812891 0
M  V30 4553 H 410.996 -4.59272 -0.398721 0
M  V30 4554 H 414.54 -6.52783 2.46008 0
M  V30 4555 H 410.437 -6.33465 1.24064 0
M  V30 4556 H 411.205 -7.68483 2.81739 0
M  V30 4557 N 413.868 0.0150385 -1.57593 0
M  V30 4558 C 414.801 1.04475 -2.0288 0
M  V30 4559 C 415.779 1.3436 -0.915764 0
M  V30 4560 O 416.963 1.46779 -1.18271 0
M  V30 4561 C 414.09 2.37608 -2.41371 0
M  V30 4562 C 413.136 2.23487 -3.63257 0
M  V30 4563 S 413.969 1.57505 -5.11813 0
M  V30 4564 C 415.125 2.921 -5.5356 0
M  V30 4565 H 415.358 0.65907 -2.89903 0
M  V30 4566 H 412.891 0.225452 -1.52745 0
M  V30 4567 H 414.849 3.14165 -2.64217 0
M  V30 4568 H 413.51 2.7332 -1.54775 0
M  V30 4569 H 412.703 3.21802 -3.87891 0
M  V30 4570 H 412.305 1.55074 -3.40335 0
M  V30 4571 H 414.597 3.88419 -5.55101 0
M  V30 4572 H 415.54 2.72184 -6.53698 0
M  V30 4573 H 415.948 2.95318 -4.8109 0
M  V30 4574 N 415.346 1.54954 0.287554 0
M  V30 4575 C 416.294 1.87606 1.37502 0
M  V30 4576 C 417.288 0.751001 1.51843 0
M  V30 4577 O 418.494 0.935169 1.53801 0
M  V30 4578 H 414.869 0.595231 0.459569 0
M  V30 4579 H 416.84 2.78477 1.07206 0
M  V30 4580 C 415.589 2.15183 2.73115 0
M  V30 4581 H 414.912 3.01234 2.62866 0
M  V30 4582 H 416.352 2.4196 3.48183 0
M  V30 4583 C 414.811 0.954686 3.2309 0
M  V30 4584 O 415.341 0.181949 4.01288 0
M  V30 4585 N 413.547 0.756368 2.80584 0
M  V30 4586 H 413.094 1.38643 2.17108 0
M  V30 4587 H 413.052 -0.0430391 3.14371 0
M  V30 4588 N 416.824 -0.551391 1.4764 0
M  V30 4589 C 418.101 -1.31229 1.45046 0
M  V30 4590 C 418.481 -2.10563 0.150527 0
M  V30 4591 O 417.829 -2.11374 -0.867956 0
M  V30 4592 C 418.039 -2.21189 2.69956 0
M  V30 4593 C 419.387 -2.82021 3.1741 0
M  V30 4594 O 420.411 -2.31488 2.70724 0
M  V30 4595 O 419.27 -3.73885 3.98588 0
M  V30 4596 H 416.364 -0.591193 0.578291 0
M  V30 4597 H 418.91 -0.569813 1.59847 0
M  V30 4598 H 417.682 -1.62207 3.56096 0
M  V30 4599 H 417.305 -3.02722 2.57769 0
M  V30 4600 N 418.302 -1.35869 -0.798587 0
M  V30 4601 C 419.551 -1.28921 -1.5512 0
M  V30 4602 C 419.864 0.13208 -1.95154 0
M  V30 4603 O 421.07 0.323879 -2.69561 0
M  V30 4604 C 419.526 -2.26141 -2.79979 0
M  V30 4605 C 419.134 -3.73658 -2.47151 0
M  V30 4606 C 420.878 -2.28152 -3.57976 0
M  V30 4607 C 418.785 -4.62679 -3.6835 0
M  V30 4608 H 417.715 -0.479031 -0.582276 0
M  V30 4609 H 420.366 -1.61179 -0.877125 0
M  V30 4610 H 418.748 -1.86865 -3.49138 0
M  V30 4611 H 419.922 -4.21616 -1.85947 0
M  V30 4612 H 418.237 -3.74333 -1.82383 0
M  V30 4613 H 420.834 -2.91875 -4.4801 0
M  V30 4614 H 421.177 -1.28748 -3.95891 0
M  V30 4615 H 421.71 -2.65998 -2.95787 0
M  V30 4616 H 418.449 -5.63111 -3.35538 0
M  V30 4617 H 417.969 -4.19442 -4.28752 0
M  V30 4618 H 419.648 -4.78498 -4.35487 0
M  V30 4619 N 419.78 1.02168 -1.19998 0
M  V30 4620 C 420.728 2.12717 -0.940967 0
M  V30 4621 C 421.722 1.69069 0.105841 0
M  V30 4622 O 422.928 1.79946 -0.0440583 0
M  V30 4623 H 419.303 0.695108 -0.28693 0
M  V30 4624 H 421.274 2.3175 -1.87975 0
M  V30 4625 C 420.023 3.44027 -0.504049 0
M  V30 4626 H 419.346 3.78036 -1.30112 0
M  V30 4627 H 420.786 4.22452 -0.361991 0
M  V30 4628 C 419.245 3.27678 0.782878 0
M  V30 4629 O 419.775 3.56949 1.84256 0
M  V30 4630 N 417.981 2.80943 0.742921 0
M  V30 4631 H 417.528 2.57322 -0.119687 0
M  V30 4632 H 417.486 2.70385 1.60435 0
M  V30 4633 N 421.258 1.00505 1.21394 0
M  V30 4634 C 422.504 0.698477 1.91031 0
M  V30 4635 C 422.859 -0.762448 1.76648 0
M  V30 4636 O 422.152 -1.54554 1.13241 0
M  V30 4637 C 422.346 1.0546 3.41486 0
M  V30 4638 C 422.175 2.5486 3.70508 0
M  V30 4639 C 420.945 3.21461 3.8986 0
M  V30 4640 C 423.143 3.53019 3.74008 0
M  V30 4641 N 421.125 4.60211 4.06299 0
M  V30 4642 C 422.496 4.77279 3.95733 0
M  V30 4643 C 424.551 3.47154 3.56915 0
M  V30 4644 C 423.254 5.96388 4.02137 0
M  V30 4645 C 425.28 4.65652 3.64585 0
M  V30 4646 C 424.642 5.88717 3.86771 0
M  V30 4647 H 420.741 0.30707 0.719189 0
M  V30 4648 H 423.325 1.28753 1.46051 0
M  V30 4649 H 421.496 0.494007 3.85246 0
M  V30 4650 H 423.228 0.702765 3.98552 0
M  V30 4651 H 419.983 2.71906 3.87768 0
M  V30 4652 H 420.407 5.32216 4.1842 0
M  V30 4653 H 425.049 2.53015 3.38738 0
M  V30 4654 H 422.767 6.90919 4.19114 0
M  V30 4655 H 426.353 4.62717 3.52681 0
M  V30 4656 H 425.233 6.78877 3.92549 0
M  V30 4657 N 422.737 -1.36956 0.779787 0
M  V30 4658 C 424.014 -1.93697 0.272156 0
M  V30 4659 C 424.394 -1.71267 -1.23413 0
M  V30 4660 O 423.742 -1.06607 -2.02107 0
M  V30 4661 C 423.952 -3.42812 0.654291 0
M  V30 4662 C 425.3 -4.19921 0.628602 0
M  V30 4663 O 426.324 -3.51209 0.594172 0
M  V30 4664 O 425.183 -5.42465 0.662864 0
M  V30 4665 H 422.277 -0.824447 0.0649286 0
M  V30 4666 H 424.823 -1.46196 0.861682 0
M  V30 4667 H 423.595 -3.52754 1.69353 0
M  V30 4668 H 423.218 -3.97582 0.0381369 0
M  V30 4669 N 424.215 -0.530993 -1.48385 0
M  V30 4670 C 425.178 0.220497 -2.28137 0
M  V30 4671 C 426.178 0.866851 -1.35434 0
M  V30 4672 O 427.368 0.726746 -1.58316 0
M  V30 4673 C 424.5 1.31921 -3.1434 0
M  V30 4674 H 425.693 -0.479714 -2.96038 0
M  V30 4675 H 423.246 -0.286968 -1.53643 0
M  V30 4676 H 423.981 2.05264 -2.51072 0
M  V30 4677 H 423.766 0.86085 -3.82533 0
M  V30 4678 H 425.256 1.84776 -3.74497 0
M  V30 4679 N 425.693 1.55336 -0.266172 0
M  V30 4680 C 426.939 1.99692 0.353681 0
M  V30 4681 C 427.272 1.1543 1.56172 0
M  V30 4682 O 426.547 0.222218 1.93226 0
M  V30 4683 C 426.83 3.52316 0.74466 0
M  V30 4684 C 426.683 4.47337 -0.470101 0
M  V30 4685 C 428.002 4.10588 1.58447 0
M  V30 4686 H 425.121 0.725961 0.12708 0
M  V30 4687 H 427.763 1.86336 -0.371333 0
M  V30 4688 H 425.913 3.63829 1.36239 0
M  V30 4689 H 427.585 4.4778 -1.10864 0
M  V30 4690 H 425.828 4.19364 -1.10978 0
M  V30 4691 H 426.499 5.51788 -0.15291 0
M  V30 4692 H 428.975 4.02297 1.06286 0
M  V30 4693 H 427.851 5.17607 1.82686 0
M  V30 4694 H 428.112 3.60253 2.56262 0
M  V30 4695 N 427.171 -0.0066808 1.57599 0
M  V30 4696 C 428.418 -0.69292 1.90276 0
M  V30 4697 C 428.746 -1.74148 0.866192 0
M  V30 4698 O 428.001 -1.95268 -0.129933 0
M  V30 4699 C 428.3 -1.37939 3.29708 0
M  V30 4700 C 427.966 -0.464679 4.48499 0
M  V30 4701 C 426.628 -0.212809 4.80729 0
M  V30 4702 C 428.98 0.16551 5.20937 0
M  V30 4703 C 426.308 0.677653 5.82773 0
M  V30 4704 C 428.66 1.04381 6.23929 0
M  V30 4705 C 427.324 1.30492 6.54621 0
M  V30 4706 H 426.594 -0.253558 0.696268 0
M  V30 4707 H 429.241 0.0474123 1.91441 0
M  V30 4708 H 427.546 -2.1936 3.24636 0
M  V30 4709 H 429.243 -1.9163 3.52249 0
M  V30 4710 H 425.833 -0.671153 4.23313 0
M  V30 4711 H 430.017 -0.0160756 4.96297 0
M  V30 4712 H 425.273 0.88803 6.04917 0
M  V30 4713 H 429.447 1.53851 6.79193 0
M  V30 4714 H 427.074 1.99662 7.33512 0
M  V30 4715 N 428.649 -1.55105 -0.279332 0
M  V30 4716 C 429.581 -1.83952 -1.36727 0
M  V30 4717 C 430.594 -0.723642 -1.45833 0
M  V30 4718 O 431.783 -1.00141 -1.47763 0
M  V30 4719 C 428.883 -1.98183 -2.74912 0
M  V30 4720 C 428.056 -3.28787 -2.88475 0
M  V30 4721 C 427.115 -3.33162 -4.07295 0
M  V30 4722 O 426.141 -4.06576 -3.98353 0
M  V30 4723 N 427.343 -2.60109 -5.18964 0
M  V30 4724 H 430.108 -2.77853 -1.12328 0
M  V30 4725 H 427.669 -1.54945 -0.469442 0
M  V30 4726 H 429.661 -1.98488 -3.52682 0
M  V30 4727 H 428.231 -1.11177 -2.92162 0
M  V30 4728 H 427.451 -3.41075 -1.97641 0
M  V30 4729 H 428.739 -4.14933 -2.94463 0
M  V30 4730 H 428.137 -2.00136 -5.29115 0
M  V30 4731 H 426.694 -2.66143 -5.94988 0
M  V30 4732 N 430.127 0.543554 -1.4793 0
M  V30 4733 C 431.074 1.64942 -1.6144 0
M  V30 4734 C 432.044 1.59692 -0.456903 0
M  V30 4735 O 433.229 1.78321 -0.678688 0
M  V30 4736 C 430.369 3.03238 -1.64744 0
M  V30 4737 C 429.482 3.18823 -2.91506 0
M  V30 4738 C 428.617 4.47599 -2.86057 0
M  V30 4739 C 427.656 4.56664 -4.07584 0
M  V30 4740 N 426.793 5.76811 -4.00292 0
M  V30 4741 H 431.633 1.52733 -2.55884 0
M  V30 4742 H 429.17 0.7438 -1.2691 0
M  V30 4743 H 431.128 3.83339 -1.64641 0
M  V30 4744 H 429.758 3.1425 -0.738017 0
M  V30 4745 H 428.81 2.32064 -3.01414 0
M  V30 4746 H 430.122 3.21384 -3.81463 0
M  V30 4747 H 429.276 5.35975 -2.84281 0
M  V30 4748 H 428.015 4.47538 -1.93807 0
M  V30 4749 H 427.02 3.66697 -4.09651 0
M  V30 4750 H 428.245 4.58474 -5.00978 0
M  V30 4751 H 426.191 5.77673 -3.10853 0
M  V30 4752 H 426.108 5.80808 -4.8394 0
M  V30 4753 H 427.376 6.67512 -4.02553 0
M  V30 4754 N 431.605 1.3629 0.791371 0
M  V30 4755 C 433.021 1.16661 1.08914 0
M  V30 4756 C 433.221 -0.0106266 2.01497 0
M  V30 4757 O 432.277 -0.676596 2.43266 0
M  V30 4758 C 433.59 2.47656 1.70549 0
M  V30 4759 C 435.138 2.54002 1.82899 0
M  V30 4760 C 435.613 3.85078 2.47949 0
M  V30 4761 N 437.104 3.86413 2.5542 0
M  V30 4762 C 437.839 4.84572 3.06557 0
M  V30 4763 N 437.335 5.93124 3.58016 0
M  V30 4764 N 439.128 4.71994 3.05251 0
M  V30 4765 H 431.279 2.11668 0.176238 0
M  V30 4766 H 433.542 0.937486 0.140796 0
M  V30 4767 H 433.248 3.34059 1.09989 0
M  V30 4768 H 433.122 2.63319 2.70079 0
M  V30 4769 H 435.509 1.68018 2.42598 0
M  V30 4770 H 435.59 2.42239 0.821808 0
M  V30 4771 H 435.234 4.71467 1.88895 0
M  V30 4772 H 435.164 3.94135 3.49235 0
M  V30 4773 H 437.655 3.07988 2.18979 0
M  V30 4774 H 437.968 6.63999 3.95381 0
M  V30 4775 H 436.313 5.96796 3.56173 0
M  V30 4776 H 439.504 3.86321 2.64336 0
M  V30 4777 H 439.677 5.48653 3.44796 0
M  V30 4778 N 433.083 -1.0153 1.20538 0
M  V30 4779 C 434.013 -2.11972 0.979295 0
M  V30 4780 C 434.994 -1.6985 -0.0921787 0
M  V30 4781 O 436.179 -1.94089 0.0655932 0
M  V30 4782 C 433.309 -3.43201 0.531984 0
M  V30 4783 C 432.263 -3.9907 1.54685 0
M  V30 4784 C 431.589 -5.26082 0.956127 0
M  V30 4785 C 432.889 -4.32313 2.93092 0
M  V30 4786 H 434.583 -2.31143 1.90298 0
M  V30 4787 H 432.129 -1.11079 0.916372 0
M  V30 4788 H 434.082 -4.1985 0.361044 0
M  V30 4789 H 432.806 -3.23792 -0.427327 0
M  V30 4790 H 431.465 -3.2453 1.70517 0
M  V30 4791 H 431.113 -5.02999 -0.0111538 0
M  V30 4792 H 430.813 -5.64426 1.63393 0
M  V30 4793 H 432.337 -6.05386 0.796284 0
M  V30 4794 H 433.751 -4.99845 2.80763 0
M  V30 4795 H 432.148 -4.81774 3.57791 0
M  V30 4796 H 433.218 -3.41025 3.44717 0
M  V30 4797 N 434.561 -1.01147 -1.20859 0
M  V30 4798 C 435.81 -0.693214 -1.89413 0
M  V30 4799 C 436.123 0.779969 -1.79376 0
M  V30 4800 O 437.329 1.21057 -2.43017 0
M  V30 4801 C 435.785 -1.18949 -3.39675 0
M  V30 4802 C 435.393 -2.68921 -3.58309 0
M  V30 4803 C 437.137 -0.94642 -4.13815 0
M  V30 4804 C 435.044 -3.12056 -5.0237 0
M  V30 4805 H 433.974 -0.255595 -0.709357 0
M  V30 4806 H 436.625 -1.22349 -1.36759 0
M  V30 4807 H 435.007 -0.587228 -3.91622 0
M  V30 4808 H 436.181 -3.34652 -3.16772 0
M  V30 4809 H 434.496 -2.91314 -2.97532 0
M  V30 4810 H 437.093 -1.24417 -5.20023 0
M  V30 4811 H 437.436 0.117219 -4.16135 0
M  V30 4812 H 437.969 -1.5118 -3.67953 0
M  V30 4813 H 434.708 -4.17674 -5.05202 0
M  V30 4814 H 434.228 -2.51041 -5.44737 0
M  V30 4815 H 435.907 -3.04403 -5.70918 0
M  V30 4816 N 436.039 1.36541 -0.78704 0
M  V30 4817 C 437.45 1.81873 -0.421807 0
M  V30 4818 C 437.801 1.65487 1.05397 0
M  V30 4819 O 436.926 1.17448 1.81755 0
M  V30 4820 C 437.521 3.30192 -0.758841 0
M  V30 4821 C 436.08 3.73743 -0.446468 0
M  V30 4822 C 435.227 2.58844 -0.994728 0
M  V30 4823 H 438.178 1.24796 -0.98039 0
M  V30 4824 H 438.199 3.80468 -0.0490648 0
M  V30 4825 H 437.711 3.42087 -1.83299 0
M  V30 4826 H 435.812 3.6741 0.619739 0
M  V30 4827 H 435.925 4.69272 -0.965415 0
M  V30 4828 H 434.289 2.51245 -0.418087 0
M  V30 4829 H 435.072 2.73525 -2.07458 0
M  V30 4830 N 437.518 0.538854 1.48102 0
M  V30 4831 C 438.766 0.00798599 2.02098 0
M  V30 4832 C 439.087 -1.33922 1.41739 0
M  V30 4833 O 438.357 -1.86932 0.585934 0
M  V30 4834 H 436.937 -3.62179e-05 0.747 0
M  V30 4835 H 439.599 0.7047 1.81714 0
M  V30 4836 H 438.695 -0.0937672 3.11959 0
M  V30 4837 N 438.996 -1.55193 0.274407 0
M  V30 4838 C 440.243 -1.99581 -0.342579 0
M  V30 4839 C 440.571 -1.1628 -1.55914 0
M  V30 4840 O 439.826 -0.22029 -1.94456 0
M  V30 4841 C 440.125 -3.49019 -0.769458 0
M  V30 4842 C 439.791 -4.49598 0.342389 0
M  V30 4843 C 438.453 -4.76821 0.647686 0
M  V30 4844 C 440.805 -5.0964 1.09163 0
M  V30 4845 C 438.133 -5.61354 1.70581 0
M  V30 4846 C 440.485 -5.95323 2.13948 0
M  V30 4847 C 439.149 -6.20867 2.45113 0
M  V30 4848 H 438.419 -0.730319 -0.125358 0
M  V30 4849 H 441.066 -1.87529 0.387971 0
M  V30 4850 H 439.371 -3.58544 -1.57967 0
M  V30 4851 H 441.068 -3.8077 -1.25757 0
M  V30 4852 H 437.658 -4.28496 0.094318 0
M  V30 4853 H 441.842 -4.88632 0.869024 0
M  V30 4854 H 437.098 -5.79392 1.9523 0
M  V30 4855 H 441.272 -6.40881 2.72478 0
M  V30 4856 H 438.899 -6.86162 3.27239 0
M  V30 4857 N 440.474 -0.00167713 -1.576 0
M  V30 4858 C 441.723 0.682021 -1.89819 0
M  V30 4859 C 442.036 1.74844 -0.876871 0
M  V30 4860 O 443.242 2.48688 -1.08934 0
M  V30 4861 C 441.698 1.26425 -3.36964 0
M  V30 4862 C 441.306 0.232568 -4.47396 0
M  V30 4863 C 443.05 1.92604 -3.78291 0
M  V30 4864 C 440.957 0.824882 -5.85619 0
M  V30 4865 H 439.887 0.258499 -0.708304 0
M  V30 4866 H 442.538 -0.0624957 -1.83394 0
M  V30 4867 H 440.92 2.05949 -3.38232 0
M  V30 4868 H 442.094 -0.5382 -4.57646 0
M  V30 4869 H 440.409 -0.32888 -4.15099 0
M  V30 4870 H 443.006 2.37827 -4.78897 0
M  V30 4871 H 443.349 2.75732 -3.11894 0
M  V30 4872 H 443.882 1.19812 -3.79328 0
M  V30 4873 H 440.621 0.0323542 -6.55492 0
M  V30 4874 H 440.141 1.56477 -5.79029 0
M  V30 4875 H 441.82 1.32301 -6.33329 0
M  V30 4876 N 441.952 1.55251 0.271103 0
M  V30 4877 C 443.363 1.66635 0.842007 0
M  V30 4878 C 443.714 0.594631 1.86972 0
M  V30 4879 O 442.839 -0.263532 2.14789 0
M  V30 4880 C 443.434 3.02082 1.53401 0
M  V30 4881 C 441.993 3.15487 2.05293 0
M  V30 4882 C 441.14 2.62438 0.895631 0
M  V30 4883 H 444.091 1.58629 0.0474117 0
M  V30 4884 H 444.112 2.95176 2.40107 0
M  V30 4885 H 443.624 3.80062 0.785786 0
M  V30 4886 H 441.725 2.42284 2.83071 0
M  V30 4887 H 441.838 4.22075 2.26693 0
M  V30 4888 H 440.202 2.19644 1.28953 0
M  V30 4889 H 440.985 3.42923 0.160878 0
M  V30 4890 N 443.43 -0.535701 1.48216 0
M  V30 4891 C 444.378 -1.66179 1.62749 0
M  V30 4892 C 445.372 -1.62034 0.49409 0
M  V30 4893 O 446.578 -1.6696 0.672624 0
M  V30 4894 H 442.953 -0.550244 0.512578 0
M  V30 4895 H 444.924 -1.51063 2.57337 0
M  V30 4896 C 443.673 -3.04471 1.67907 0
M  V30 4897 H 442.996 -3.08351 2.54479 0
M  V30 4898 H 444.436 -3.82894 1.82121 0
M  V30 4899 C 442.895 -3.34314 0.416596 0
M  V30 4900 O 443.425 -3.98905 -0.473014 0
M  V30 4901 N 441.631 -2.89149 0.290038 0
M  V30 4902 H 441.178 -2.36764 1.01493 0
M  V30 4903 H 441.136 -3.09486 -0.55367 0
M  V30 4904 N 444.908 -1.36708 -0.784132 0
M  V30 4905 C 445.855 -1.31466 -1.89698 0
M  V30 4906 C 446.825 -0.18239 -1.65096 0
M  V30 4907 O 448.01 -0.369762 -1.87183 0
M  V30 4908 C 445.15 -1.1151 -3.26588 0
M  V30 4909 C 444.263 -2.33859 -3.63227 0
M  V30 4910 C 443.398 -2.06873 -4.89262 0
M  V30 4911 C 442.437 -3.25154 -5.18595 0
M  V30 4912 N 441.574 -2.978 -6.35814 0
M  V30 4913 H 446.414 -2.26619 -1.93515 0
M  V30 4914 H 443.951 -1.12625 -0.946256 0
M  V30 4915 H 445.909 -0.979653 -4.05535 0
M  V30 4916 H 444.539 -0.200103 -3.22179 0
M  V30 4917 H 443.591 -2.58188 -2.79362 0
M  V30 4918 H 444.903 -3.22109 -3.8085 0
M  V30 4919 H 444.057 -1.90289 -5.76086 0
M  V30 4920 H 442.796 -1.15942 -4.73718 0
M  V30 4921 H 441.801 -3.42292 -4.30251 0
M  V30 4922 H 443.026 -4.1692 -5.36055 0
M  V30 4923 H 440.972 -2.09485 -6.21653 0
M  V30 4924 H 440.889 -3.7959 -6.53794 0
M  V30 4925 H 442.157 -2.84805 -7.25607 0
M  V30 4926 N 446.386 1.0089 -1.21074 0
M  V30 4927 C 447.634 1.74262 -1.02358 0
M  V30 4928 C 447.955 1.89869 0.444393 0
M  V30 4929 O 447.225 1.44677 1.32081 0
M  V30 4930 H 445.805 0.645615 -0.375754 0
M  V30 4931 H 448.467 1.21596 -1.52317 0
M  V30 4932 H 447.563 2.74328 -1.4883 0
M  V30 4933 N 447.864 1.01787 1.20321 0
M  V30 4934 C 449.28 0.732951 1.41774 0
M  V30 4935 C 449.48 -0.686883 1.89431 0
M  V30 4936 O 448.536 -1.45446 2.06402 0
M  V30 4937 C 449.849 1.75973 2.43832 0
M  V30 4938 C 451.397 1.77802 2.57596 0
M  V30 4939 C 451.872 2.7941 3.62897 0
M  V30 4940 N 453.363 2.78157 3.70382 0
M  V30 4941 C 454.098 3.53434 4.51521 0
M  V30 4942 N 453.594 4.38392 5.36455 0
M  V30 4943 N 455.387 3.42026 4.46066 0
M  V30 4944 H 447.538 1.93447 0.877035 0
M  V30 4945 H 449.801 0.835712 0.447536 0
M  V30 4946 H 449.507 2.77699 2.15815 0
M  V30 4947 H 449.381 1.57292 3.4284 0
M  V30 4948 H 451.768 0.767602 2.84942 0
M  V30 4949 H 451.849 2.00557 1.58779 0
M  V30 4950 H 451.493 3.80616 3.36295 0
M  V30 4951 H 451.423 2.53916 4.61339 0
M  V30 4952 H 453.914 2.16531 3.09714 0
M  V30 4953 H 454.227 4.92596 5.95457 0
M  V30 4954 H 452.572 4.4247 5.35953 0
M  V30 4955 H 455.763 2.75075 3.78749 0
M  V30 4956 H 455.936 4.00946 5.09064 0
M  V30 4957 N 449.342 -1.36122 0.79427 0
M  V30 4958 C 450.272 -2.32551 0.210328 0
M  V30 4959 C 451.253 -1.56884 -0.657386 0
M  V30 4960 O 452.438 -1.85014 -0.590207 0
M  V30 4961 C 449.568 -3.41128 -0.651819 0
M  V30 4962 C 448.522 -4.27842 0.116395 0
M  V30 4963 C 447.848 -5.2763 -0.86666 0
M  V30 4964 C 449.148 -5.05647 1.30837 0
M  V30 4965 H 450.842 -2.81636 1.01594 0
M  V30 4966 H 448.388 -1.35407 0.489981 0
M  V30 4967 H 450.341 -4.07581 -1.07031 0
M  V30 4968 H 449.065 -2.90622 -1.49019 0
M  V30 4969 H 447.724 -3.62952 0.515915 0
M  V30 4970 H 447.372 -4.73395 -1.70019 0
M  V30 4971 H 447.072 -5.86514 -0.35705 0
M  V30 4972 H 448.596 -5.96955 -1.28361 0
M  V30 4973 H 450.01 -5.65113 0.965393 0
M  V30 4974 H 448.407 -5.73967 1.75161 0
M  V30 4975 H 449.477 -4.37006 2.10128 0
M  V30 4976 N 450.82 -0.546701 -1.47814 0
M  V30 4977 C 451.768 0.220048 -2.31557 0
M  V30 4978 C 452.762 0.919472 -1.42275 0
M  V30 4979 O 453.968 0.841953 -1.59095 0
M  V30 4980 H 450.343 0.0898334 -0.746615 0
M  V30 4981 H 452.314 -0.505589 -2.94086 0
M  V30 4982 C 451.063 1.24353 -3.24702 0
M  V30 4983 H 450.386 0.714758 -3.93359 0
M  V30 4984 H 451.826 1.75112 -3.8615 0
M  V30 4985 C 450.285 2.28593 -2.47481 0
M  V30 4986 O 450.815 3.35334 -2.21165 0
M  V30 4987 N 449.021 2.02244 -2.08676 0
M  V30 4988 H 448.568 1.15455 -2.30278 0
M  V30 4989 H 448.526 2.72207 -1.57323 0
M  V30 4990 N 452.299 1.55045 -0.282633 0
M  V30 4991 C 453.539 2.01668 0.333088 0
M  V30 4992 C 453.903 1.1667 1.52486 0
M  V30 4993 O 455.104 1.52907 2.21072 0
M  V30 4994 C 453.375 3.50509 0.698442 0
M  V30 4995 S 454.934 4.19112 1.29963 0
M  V30 4996 H 451.752 0.703468 0.103219 0
M  V30 4997 H 454.354 1.91233 -0.406222 0
M  V30 4998 H 453.058 4.10015 -0.177693 0
M  V30 4999 H 452.589 3.64943 1.46902 0
M  V30 5000 H 454.604 4.23362 2.58803 0
M  V30 5001 N 453.777 0.010035 1.57597 0
M  V30 5002 C 455.054 -0.710296 1.82248 0
M  V30 5003 C 455.434 -1.91426 0.889911 0
M  V30 5004 O 454.782 -2.28424 -0.0590292 0
M  V30 5005 C 454.992 -1.10655 3.30993 0
M  V30 5006 C 456.34 -1.50621 3.96987 0
M  V30 5007 O 457.364 -1.20007 3.35375 0
M  V30 5008 O 456.223 -2.07587 5.05539 0
M  V30 5009 H 453.317 -0.34673 0.750804 0
M  V30 5010 H 455.863 0.0362578 1.69661 0
M  V30 5011 H 454.635 -0.248826 3.90508 0
M  V30 5012 H 454.258 -1.91189 3.48615 0
M  V30 5013 N 455.255 -1.55392 -0.262866 0
M  V30 5014 C 456.666 -1.67079 -0.833158 0
M  V30 5015 C 457.017 -0.604539 -1.86654 0
M  V30 5016 O 456.142 0.252138 -2.14926 0
M  V30 5017 C 456.737 -3.02891 -1.51797 0
M  V30 5018 C 455.296 -3.16571 -2.03617 0
M  V30 5019 C 454.443 -2.62909 -0.881701 0
M  V30 5020 H 457.394 -1.58652 -0.0389986 0
M  V30 5021 H 457.415 -2.96445 -2.38538 0
M  V30 5022 H 456.927 -3.80473 -0.765619 0
M  V30 5023 H 455.028 -2.43782 -2.81782 0
M  V30 5024 H 455.141 -4.23271 -2.24452 0
M  V30 5025 H 453.505 -2.20324 -1.27786 0
M  V30 5026 H 454.288 -3.43003 -0.14269 0
M  V30 5027 N 456.733 0.527833 -1.48498 0
M  V30 5028 C 457.961 1.30823 -1.6029 0
M  V30 5029 C 458.376 1.86945 -0.263974 0
M  V30 5030 O 457.733 1.6651 0.747034 0
M  V30 5031 C 457.784 2.45756 -2.65116 0
M  V30 5032 O 457.505 1.91946 -3.93813 0
M  V30 5033 C 459.006 3.37543 -2.87367 0
M  V30 5034 H 456.226 0.397763 -0.540394 0
M  V30 5035 H 458.77 0.636529 -1.94341 0
M  V30 5036 H 456.925 3.08806 -2.33917 0
M  V30 5037 H 457.339 2.67195 -4.51339 0
M  V30 5038 H 458.813 4.14532 -3.6451 0
M  V30 5039 H 459.29 3.92905 -1.9627 0
M  V30 5040 H 459.896 2.80283 -3.19878 0
M  V30 5041 N 458.211 1.37122 0.776871 0
M  V30 5042 C 459.458 1.32047 1.53524 0
M  V30 5043 C 459.786 -0.0965631 1.9426 0
M  V30 5044 O 459.041 -1.06866 1.63945 0
M  V30 5045 C 459.34 2.20068 2.81611 0
M  V30 5046 C 459.006 3.68423 2.59953 0
M  V30 5047 C 457.668 4.08854 2.53755 0
M  V30 5048 C 460.02 4.62431 2.40431 0
M  V30 5049 C 457.348 5.41417 2.26018 0
M  V30 5050 C 459.7 5.95225 2.14219 0
M  V30 5051 C 458.364 6.34767 2.06462 0
M  V30 5052 H 457.634 0.483196 0.561785 0
M  V30 5053 H 460.281 1.69284 0.895268 0
M  V30 5054 H 458.586 1.75809 3.50141 0
M  V30 5055 H 460.283 2.13458 3.39465 0
M  V30 5056 H 456.873 3.36354 2.65638 0
M  V30 5057 H 461.057 4.32057 2.44213 0
M  V30 5058 H 456.313 5.71022 2.18504 0
M  V30 5059 H 460.487 6.67626 1.98112 0
M  V30 5060 H 458.114 7.37413 1.84733 0
M  V30 5061 N 459.689 -1.00246 1.21608 0
M  V30 5062 C 460.599 -2.12515 0.993709 0
M  V30 5063 C 461.615 -1.73913 -0.0549939 0
M  V30 5064 O 462.791 -2.00943 0.135619 0
M  V30 5065 C 459.856 -3.42083 0.563953 0
M  V30 5066 C 458.917 -3.94843 1.68516 0
M  V30 5067 C 458.15 -5.18226 1.27582 0
M  V30 5068 O 458.373 -5.70201 0.150506 0
M  V30 5069 O 457.307 -5.64497 2.0887 0
M  V30 5070 H 461.133 -2.34152 1.93407 0
M  V30 5071 H 458.718 -1.10891 1.00118 0
M  V30 5072 H 460.6 -4.20073 0.334194 0
M  V30 5073 H 459.275 -3.21828 -0.347665 0
M  V30 5074 H 458.182 -3.18068 1.96935 0
M  V30 5075 H 459.515 -4.19512 2.5743 0
M  V30 5076 N 461.167 -1.02423 -1.1978 0
M  V30 5077 C 462.097 -0.62157 -2.25075 0
M  V30 5078 C 463.078 0.367148 -1.6609 0
M  V30 5079 O 464.263 0.250892 -1.92573 0
M  V30 5080 C 461.393 0.0331826 -3.47284 0
M  V30 5081 C 460.347 -0.877323 -4.18912 0
M  V30 5082 C 459.673 -0.0879296 -5.34628 0
M  V30 5083 C 460.973 -2.18892 -4.74219 0
M  V30 5084 H 462.667 -1.50179 -2.59011 0
M  V30 5085 H 460.213 -0.723547 -1.24502 0
M  V30 5086 H 462.166 0.326488 -4.20133 0
M  V30 5087 H 460.89 0.948164 -3.12534 0
M  V30 5088 H 459.549 -1.15475 -3.47938 0
M  V30 5089 H 459.197 0.828941 -4.96123 0
M  V30 5090 H 458.897 -0.694359 -5.83483 0
M  V30 5091 H 460.421 0.198743 -6.10276 0
M  V30 5092 H 461.835 -1.95746 -5.38847 0
M  V30 5093 H 460.232 -2.74686 -5.33542 0
M  V30 5094 H 461.302 -2.84674 -3.92541 0
M  V30 5095 N 462.645 1.35699 -0.801477 0
M  V30 5096 C 463.555 2.33661 -0.209691 0
M  V30 5097 C 464.571 1.6162 0.644591 0
M  V30 5098 O 465.747 1.93529 0.557545 0
M  V30 5099 C 462.812 3.40816 0.636033 0
M  V30 5100 C 461.873 4.28639 -0.238147 0
M  V30 5101 C 461.106 5.30676 0.567307 0
M  V30 5102 O 461.329 5.41174 1.8024 0
M  V30 5103 O 460.263 6.01887 -0.0391336 0
M  V30 5104 H 464.089 2.8606 -1.01996 0
M  V30 5105 H 461.674 1.38379 -0.563164 0
M  V30 5106 H 463.556 4.06301 1.11791 0
M  V30 5107 H 462.231 2.90696 1.42399 0
M  V30 5108 H 461.138 3.66152 -0.767044 0
M  V30 5109 H 462.471 4.82143 -0.989915 0
M  V30 5110 N 464.123 0.554532 1.47522 0
M  V30 5111 C 465.033 -0.197865 2.33764 0
M  V30 5112 C 466.049 -0.914576 1.48025 0
M  V30 5113 O 467.225 -0.884067 1.80959 0
M  V30 5114 C 464.29 -1.21628 3.24665 0
M  V30 5115 C 463.351 -0.507283 4.26292 0
M  V30 5116 C 462.584 -1.47718 5.1285 0
M  V30 5117 O 462.807 -2.7118 5.01814 0
M  V30 5118 O 461.741 -1.00313 5.93482 0
M  V30 5119 H 465.567 0.50949 2.99396 0
M  V30 5120 H 463.152 0.315176 1.46038 0
M  V30 5121 H 465.034 -1.80421 3.80823 0
M  V30 5122 H 463.709 -1.9056 2.61665 0
M  V30 5123 H 462.616 0.121778 3.73902 0
M  V30 5124 H 463.949 0.140544 4.91999 0
M  V30 5125 N 465.601 -1.54893 0.290851 0
M  V30 5126 C 466.534 -2.19289 -0.631489 0
M  V30 5127 C 467.512 -1.15893 -1.14051 0
M  V30 5128 O 468.696 -1.4449 -1.21058 0
M  V30 5129 C 465.823 -2.82866 -1.86291 0
M  V30 5130 C 464.869 -3.997 -1.48801 0
M  V30 5131 S 465.702 -5.32641 -0.552644 0
M  V30 5132 C 466.858 -5.99696 -1.79209 0
M  V30 5133 H 467.091 -2.9718 -0.0843791 0
M  V30 5134 H 464.624 -1.54218 0.075031 0
M  V30 5135 H 466.582 -3.20124 -2.56964 0
M  V30 5136 H 465.243 -2.04839 -2.38117 0
M  V30 5137 H 464.436 -4.42932 -2.40473 0
M  V30 5138 H 464.038 -3.63947 -0.861321 0
M  V30 5139 H 466.33 -6.19886 -2.734 0
M  V30 5140 H 467.273 -6.94071 -1.40251 0
M  V30 5141 H 467.681 -5.29226 -1.96419 0
M  V30 5142 N 467.08 -0.0183926 -1.57589 0
M  V30 5143 C 468.329 0.66185 -1.90532 0
M  V30 5144 C 468.642 1.73904 -0.895366 0
M  V30 5145 O 469.848 2.47518 -1.11566 0
M  V30 5146 C 468.304 1.22844 -3.38286 0
M  V30 5147 C 467.912 0.185103 -4.47617 0
M  V30 5148 C 469.656 1.88581 -3.80312 0
M  V30 5149 C 467.563 0.762723 -5.86461 0
M  V30 5150 H 466.493 0.250972 -0.711006 0
M  V30 5151 H 469.144 -0.0819435 -1.83317 0
M  V30 5152 H 467.526 2.0235 -3.40398 0
M  V30 5153 H 468.7 -0.58671 -4.5705 0
M  V30 5154 H 467.015 -0.372889 -4.14727 0
M  V30 5155 H 469.612 2.32735 -4.81392 0
M  V30 5156 H 469.955 2.72408 -3.14801 0
M  V30 5157 H 470.488 1.15782 -3.80578 0
M  V30 5158 H 467.227 -0.0371713 -6.55489 0
M  V30 5159 H 466.747 1.50327 -5.80656 0
M  V30 5160 H 468.426 1.25576 -6.34697 0
M  V30 5161 N 468.558 1.5553 0.254621 0
M  V30 5162 C 469.488 1.9268 1.31897 0
M  V30 5163 C 470.469 0.790797 1.506 0
M  V30 5164 O 471.654 1.05045 1.63337 0
M  V30 5165 C 468.784 2.21477 2.67517 0
M  V30 5166 C 467.738 3.37256 2.63519 0
M  V30 5167 C 467.064 3.51576 4.02862 0
M  V30 5168 C 468.364 4.73157 2.21179 0
M  V30 5169 H 470.058 2.81832 1.01051 0
M  V30 5170 H 467.604 1.35599 0.484662 0
M  V30 5171 H 469.557 2.46055 3.42104 0
M  V30 5172 H 468.281 1.29144 2.99982 0
M  V30 5173 H 466.94 3.12675 1.9139 0
M  V30 5174 H 466.588 2.56676 4.32581 0
M  V30 5175 H 466.288 4.2943 4.01078 0
M  V30 5176 H 467.812 3.78467 4.79161 0
M  V30 5177 H 469.226 4.97158 2.85494 0
M  V30 5178 H 467.623 5.54058 2.30521 0
M  V30 5179 H 468.693 4.70739 1.16332 0
M  V30 5180 N 470.036 -0.519951 1.48776 0
M  V30 5181 C 470.946 -1.65025 1.66745 0
M  V30 5182 C 471.962 -1.6508 0.549954 0
M  V30 5183 O 473.138 -1.83848 0.822295 0
M  V30 5184 C 470.203 -3.0146 1.71238 0
M  V30 5185 C 469.264 -3.12182 2.94688 0
M  V30 5186 C 468.497 -4.42109 2.98958 0
M  V30 5187 O 468.72 -5.29799 2.1135 0
M  V30 5188 O 467.654 -4.57406 3.91233 0
M  V30 5189 H 471.48 -1.52801 2.62461 0
M  V30 5190 H 469.065 -0.694157 1.32294 0
M  V30 5191 H 470.947 -3.82584 1.76657 0
M  V30 5192 H 469.622 -3.13988 0.786975 0
M  V30 5193 H 468.529 -2.30316 2.94797 0
M  V30 5194 H 469.862 -3.04574 3.86646 0
M  V30 5195 N 471.514 -1.37532 -0.769588 0
M  V30 5196 C 472.739 -1.36231 -1.56384 0
M  V30 5197 C 473.164 0.0495849 -1.88035 0
M  V30 5198 O 472.522 1.02723 -1.49391 0
M  V30 5199 C 472.57 -2.20986 -2.84952 0
M  V30 5200 O 471.674 -1.61597 -3.79421 0
M  V30 5201 H 471.015 -0.465387 -0.473615 0
M  V30 5202 H 473.545 -1.81085 -0.952342 0
M  V30 5203 H 473.555 -2.34277 -3.34034 0
M  V30 5204 H 472.23 -3.23612 -2.61243 0
M  V30 5205 H 470.807 -1.57359 -3.38072 0
M  V30 5206 N 472.992 0.995999 -1.22138 0
M  V30 5207 C 473.939 2.08551 -0.988687 0
M  V30 5208 C 474.909 1.65864 0.0885021 0
M  V30 5209 O 476.094 1.90704 -0.0604589 0
M  V30 5210 C 473.234 3.40374 -0.569191 0
M  V30 5211 C 472.347 3.96421 -1.71681 0
M  V30 5212 C 471.482 5.1639 -1.2456 0
M  V30 5213 C 470.521 5.64567 -2.36497 0
M  V30 5214 N 469.658 6.75777 -1.90445 0
M  V30 5215 H 474.498 2.2779 -1.92135 0
M  V30 5216 H 472.035 1.1168 -0.957388 0
M  V30 5217 H 473.993 4.16068 -0.307166 0
M  V30 5218 H 472.623 3.21145 0.326462 0
M  V30 5219 H 471.675 3.17628 -2.09324 0
M  V30 5220 H 472.987 4.2816 -2.55891 0
M  V30 5221 H 472.141 5.99362 -0.940774 0
M  V30 5222 H 470.88 4.86266 -0.373662 0
M  V30 5223 H 469.885 4.80185 -2.67772 0
M  V30 5224 H 471.11 5.96716 -3.24202 0
M  V30 5225 H 469.056 6.47443 -1.05609 0
M  V30 5226 H 468.973 7.06818 -2.68223 0
M  V30 5227 H 470.241 7.62262 -1.63022 0
M  V30 5228 N 474.47 1.03057 1.19235 0
M  V30 5229 C 475.881 0.757449 1.70645 0
M  V30 5230 C 476.232 -0.722735 1.82403 0
M  V30 5231 O 475.357 -1.56325 1.49638 0
M  V30 5232 C 475.952 1.36833 3.09939 0
M  V30 5233 C 474.511 1.14375 3.58602 0
M  V30 5234 C 473.658 1.46533 2.35422 0
M  V30 5235 H 476.609 1.19828 1.04052 0
M  V30 5236 H 476.63 0.766184 3.72706 0
M  V30 5237 H 476.142 2.44562 3.01349 0
M  V30 5238 H 474.243 0.0847542 3.72504 0
M  V30 5239 H 474.356 1.83366 4.42622 0
M  V30 5240 H 472.72 0.884712 2.38841 0
M  V30 5241 H 473.503 2.55349 2.2946 0
M  V30 5242 N 475.948 -1.35272 0.808662 0
M  V30 5243 C 476.878 -2.32315 0.234981 0
M  V30 5244 C 477.859 -1.57572 -0.64071 0
M  V30 5245 O 479.044 -1.8563 -0.570551 0
M  V30 5246 C 476.174 -3.41801 -0.615601 0
M  V30 5247 C 475.128 -4.27694 0.161767 0
M  V30 5248 C 474.454 -5.28519 -0.810649 0
M  V30 5249 C 475.754 -5.04231 1.36193 0
M  V30 5250 H 477.448 -2.80543 1.04575 0
M  V30 5251 H 474.994 -1.3488 0.504315 0
M  V30 5252 H 476.947 -4.08693 -1.02702 0
M  V30 5253 H 475.671 -2.92186 -1.45928 0
M  V30 5254 H 474.33 -3.62384 0.554382 0
M  V30 5255 H 473.978 -4.75171 -1.64988 0
M  V30 5256 H 473.678 -5.8686 -0.294822 0
M  V30 5257 H 475.202 -5.98283 -1.22023 0
M  V30 5258 H 476.616 -5.64058 1.02528 0
M  V30 5259 H 475.013 -5.72077 1.81239 0
M  V30 5260 H 476.083 -4.34753 2.14751 0
M  V30 5261 N 477.426 -0.562348 -1.47226 0
M  V30 5262 C 478.376 0.202967 -2.27095 0
M  V30 5263 C 479.36 0.880611 -1.34663 0
M  V30 5264 O 480.552 0.778069 -1.58981 0
M  V30 5265 C 477.681 1.22906 -3.20545 0
M  V30 5266 C 476.767 0.554566 -4.20459 0
M  V30 5267 N 477.158 -0.378295 -5.04383 0
M  V30 5268 C 475.456 0.807854 -4.38623 0
M  V30 5269 C 476.157 -0.770583 -5.76573 0
M  V30 5270 N 475.133 -0.124263 -5.43458 0
M  V30 5271 H 478.935 -0.514196 -2.89367 0
M  V30 5272 H 476.449 -0.382655 -1.57827 0
M  V30 5273 H 478.446 1.79134 -3.76453 0
M  V30 5274 H 477.106 1.94726 -2.59831 0
M  V30 5275 H 478.117 -0.75274 -5.124 0
M  V30 5276 H 474.794 1.51418 -3.89075 0
M  V30 5277 H 476.184 -1.53742 -6.54074 0
M  V30 5278 N 478.904 1.54736 -0.299062 0
M  V30 5279 C 479.851 2.23448 0.577899 0
M  V30 5280 C 480.821 1.21637 1.13109 0
M  V30 5281 O 482.006 1.50252 1.17597 0
M  V30 5282 C 479.146 2.9774 1.74484 0
M  V30 5283 C 478.259 4.1432 1.22323 0
M  V30 5284 C 477.394 4.76199 2.35388 0
M  V30 5285 C 476.433 5.84927 1.80351 0
M  V30 5286 N 475.57 6.4077 2.86982 0
M  V30 5287 H 480.41 2.97996 -0.0146545 0
M  V30 5288 H 477.947 1.47088 -0.0190013 0
M  V30 5289 H 479.905 3.39045 2.43114 0
M  V30 5290 H 478.535 2.25572 2.30905 0
M  V30 5291 H 477.587 3.7797 0.429249 0
M  V30 5292 H 478.899 4.92659 0.780309 0
M  V30 5293 H 478.053 5.20346 3.11969 0
M  V30 5294 H 476.792 3.97188 2.83006 0
M  V30 5295 H 475.797 5.40207 1.02259 0
M  V30 5296 H 477.022 6.65821 1.3364 0
M  V30 5297 H 474.968 5.64643 3.33938 0
M  V30 5298 H 474.885 7.1445 2.4718 0
M  V30 5299 H 476.153 6.89574 3.63466 0
M  V30 5300 N 480.382 0.0267497 1.57577 0
M  V30 5301 C 481.329 -0.955894 2.10075 0
M  V30 5302 C 482.299 -1.32453 1.00226 0
M  V30 5303 O 483.484 -1.41826 1.27632 0
M  V30 5304 C 480.624 -2.2338 2.6305 0
M  V30 5305 C 479.737 -1.92183 3.86898 0
M  V30 5306 C 478.872 -3.14251 4.28275 0
M  V30 5307 C 477.911 -2.78862 5.44888 0
M  V30 5308 N 477.048 -3.93548 5.81433 0
M  V30 5309 H 481.888 -0.501303 2.93753 0
M  V30 5310 H 479.425 -0.235847 1.45197 0
M  V30 5311 H 481.383 -2.98124 2.91853 0
M  V30 5312 H 480.013 -2.6646 1.82205 0
M  V30 5313 H 479.065 -1.07692 3.64838 0
M  V30 5314 H 480.377 -1.62117 4.7172 0
M  V30 5315 H 479.531 -3.97317 4.58502 0
M  V30 5316 H 478.27 -3.47476 3.42215 0
M  V30 5317 H 477.275 -1.94208 5.14357 0
M  V30 5318 H 478.5 -2.46855 6.32645 0
M  V30 5319 H 476.446 -4.2662 4.98328 0
M  V30 5320 H 476.363 -3.67098 6.6089 0
M  V30 5321 H 477.631 -4.77325 6.16264 0
M  V30 5322 N 481.861 -1.55662 -0.24637 0
M  V30 5323 C 482.808 -1.90361 -1.30504 0
M  V30 5324 C 483.778 -0.757905 -1.47801 0
M  V30 5325 O 484.963 -1.01161 -1.61775 0
M  V30 5326 C 482.103 -2.2042 -2.65535 0
M  V30 5327 C 481.216 -3.47799 -2.56242 0
M  V30 5328 C 480.351 -3.67426 -3.8363 0
M  V30 5329 C 479.39 -4.88403 -3.68956 0
M  V30 5330 N 478.527 -5.04548 -4.88237 0
M  V30 5331 H 483.367 -2.80645 -1.00213 0
M  V30 5332 H 480.904 -1.38924 -0.483577 0
M  V30 5333 H 482.862 -2.35853 -3.44135 0
M  V30 5334 H 481.492 -1.3334 -2.93973 0
M  V30 5335 H 480.544 -3.40694 -1.69208 0
M  V30 5336 H 481.856 -4.36544 -2.4131 0
M  V30 5337 H 481.01 -3.82821 -4.70673 0
M  V30 5338 H 479.749 -2.76914 -4.01459 0
M  V30 5339 H 478.754 -4.72984 -2.80296 0
M  V30 5340 H 479.979 -5.80375 -3.52621 0
M  V30 5341 H 477.925 -4.16974 -5.06427 0
M  V30 5342 H 477.842 -5.87384 -4.75937 0
M  V30 5343 H 479.11 -5.24355 -5.76777 0
M  V30 5344 N 483.339 0.512053 -1.4905 0
M  V30 5345 C 484.286 1.6148 -1.64902 0
M  V30 5346 C 485.256 1.58687 -0.490673 0
M  V30 5347 O 486.441 1.76842 -0.71636 0
M  V30 5348 C 483.581 2.99676 -1.71139 0
M  V30 5349 C 482.694 3.12568 -2.98203 0
M  V30 5350 C 481.829 4.4143 -2.95487 0
M  V30 5351 C 480.868 4.47916 -4.17179 0
M  V30 5352 N 480.005 5.68191 -4.12437 0
M  V30 5353 H 484.845 1.47271 -2.59066 0
M  V30 5354 H 482.382 0.716713 -1.28459 0
M  V30 5355 H 484.34 3.79761 -1.72736 0
M  V30 5356 H 482.97 3.12614 -0.804508 0
M  V30 5357 H 482.022 2.25618 -3.06269 0
M  V30 5358 H 483.334 3.1322 -3.88194 0
M  V30 5359 H 482.488 5.29825 -2.95585 0
M  V30 5360 H 481.227 4.43326 -2.03256 0
M  V30 5361 H 480.232 3.57925 -4.17337 0
M  V30 5362 H 481.457 4.47744 -5.1059 0
M  V30 5363 H 479.403 5.7095 -3.23036 0
M  V30 5364 H 479.32 5.70413 -4.96151 0
M  V30 5365 H 480.588 6.58823 -4.16621 0
M  V30 5366 N 484.817 1.37938 0.762283 0
M  V30 5367 C 486.233 1.18945 1.06415 0
M  V30 5368 C 486.433 0.0321163 2.01474 0
M  V30 5369 O 485.489 -0.624844 2.44647 0
M  V30 5370 C 486.802 2.51218 1.65258 0
M  V30 5371 C 488.35 2.57824 1.7747 0
M  V30 5372 C 488.825 3.90251 2.39725 0
M  V30 5373 N 490.316 3.91744 2.47166 0
M  V30 5374 C 491.051 4.90966 2.96209 0
M  V30 5375 N 490.547 6.00585 3.45354 0
M  V30 5376 N 492.34 4.78363 2.9517 0
M  V30 5377 H 484.491 2.11994 0.131301 0
M  V30 5378 H 486.754 0.940262 0.120879 0
M  V30 5379 H 486.46 3.36317 1.02878 0
M  V30 5380 H 486.334 2.68989 2.64433 0
M  V30 5381 H 488.721 1.73126 2.3898 0
M  V30 5382 H 488.802 2.43928 0.770241 0
M  V30 5383 H 488.446 4.75368 1.78852 0
M  V30 5384 H 488.376 4.01454 3.40796 0
M  V30 5385 H 490.867 3.12563 2.12397 0
M  V30 5386 H 491.18 6.72236 3.81207 0
M  V30 5387 H 489.525 6.04217 3.43434 0
M  V30 5388 H 492.716 3.91841 2.56082 0
M  V30 5389 H 492.889 5.55843 3.33081 0
M  V30 5390 N 486.295 -0.989507 1.22664 0
M  V30 5391 C 487.225 -2.09847 1.02404 0
M  V30 5392 C 488.206 -1.70007 -0.0561303 0
M  V30 5393 O 489.391 -1.93906 0.106748 0
M  V30 5394 C 486.521 -3.41996 0.604663 0
M  V30 5395 C 485.475 -3.95699 1.63115 0
M  V30 5396 C 484.801 -5.23936 1.0675 0
M  V30 5397 C 486.101 -4.25999 3.02196 0
M  V30 5398 H 487.795 -2.27054 1.95158 0
M  V30 5399 H 485.341 -1.09111 0.939727 0
M  V30 5400 H 487.294 -4.1899 0.45002 0
M  V30 5401 H 486.018 -3.24626 -0.35855 0
M  V30 5402 H 484.677 -3.2084 1.77362 0
M  V30 5403 H 484.325 -5.02909 0.0955422 0
M  V30 5404 H 484.025 -5.60833 1.75328 0
M  V30 5405 H 485.549 -6.0356 0.924516 0
M  V30 5406 H 486.963 -4.93777 2.91303 0
M  V30 5407 H 485.36 -4.74076 3.67929 0
M  V30 5408 H 486.43 -3.33636 3.51873 0
M  V30 5409 N 487.773 -1.03688 -1.18687 0
M  V30 5410 C 488.736 -0.629115 -2.20397 0
M  V30 5411 C 489.736 0.311495 -1.57754 0
M  V30 5412 O 490.926 0.0974107 -1.73927 0
M  V30 5413 C 488.058 0.0782231 -3.4081 0
M  V30 5414 H 489.251 -1.52915 -2.57987 0
M  V30 5415 H 486.804 -0.828988 -1.32505 0
M  V30 5416 H 487.539 0.992233 -3.08748 0
M  V30 5417 H 487.324 -0.597776 -3.87517 0
M  V30 5418 H 488.814 0.350156 -4.16129 0
M  V30 5419 N 489.251 1.34841 -0.815825 0
M  V30 5420 C 490.198 2.29644 -0.230664 0
M  V30 5421 C 491.168 1.53253 0.640533 0
M  V30 5422 O 492.353 1.81653 0.583672 0
M  V30 5423 C 489.493 3.39715 0.607275 0
M  V30 5424 C 488.606 4.31056 -0.28538 0
M  V30 5425 C 487.741 5.28225 0.561446 0
M  V30 5426 C 486.78 6.11204 -0.331035 0
M  V30 5427 N 485.917 7.00483 0.476302 0
M  V30 5428 H 490.757 2.79095 -1.0445 0
M  V30 5429 H 488.294 1.37351 -0.526595 0
M  V30 5430 H 490.252 4.02208 1.10835 0
M  V30 5431 H 488.882 2.91517 1.38629 0
M  V30 5432 H 487.934 3.69487 -0.904621 0
M  V30 5433 H 489.246 4.89239 -0.97193 0
M  V30 5434 H 488.4 5.96135 1.12728 0
M  V30 5435 H 487.139 4.70562 1.28153 0
M  V30 5436 H 486.144 5.42232 -0.909069 0
M  V30 5437 H 487.369 6.70947 -1.04912 0
M  V30 5438 H 485.315 6.45296 1.18019 0
M  V30 5439 H 485.232 7.55847 -0.152008 0
M  V30 5440 H 486.5 7.7273 1.02512 0
M  V30 5441 N 490.729 0.570148 1.46925 0
M  V30 5442 C 491.676 -0.170257 2.30171 0
M  V30 5443 C 492.646 -0.896099 1.39855 0
M  V30 5444 O 493.831 -0.889248 1.68811 0
M  V30 5445 C 490.971 -1.18605 3.24079 0
M  V30 5446 C 490.084 -0.464947 4.29491 0
M  V30 5447 C 489.219 -1.46716 5.10537 0
M  V30 5448 C 488.258 -0.731758 6.0771 0
M  V30 5449 N 487.395 -1.68142 6.81669 0
M  V30 5450 H 492.235 0.545713 2.92961 0
M  V30 5451 H 489.772 0.280938 1.44392 0
M  V30 5452 H 491.73 -1.78771 3.76957 0
M  V30 5453 H 490.36 -1.86989 2.63125 0
M  V30 5454 H 489.412 0.251506 3.79568 0
M  V30 5455 H 490.724 0.110548 4.98677 0
M  V30 5456 H 489.878 -2.14199 5.6763 0
M  V30 5457 H 488.617 -2.07658 4.41282 0
M  V30 5458 H 487.622 -0.0430787 5.49783 0
M  V30 5459 H 488.847 -0.127904 6.7898 0
M  V30 5460 H 486.793 -2.27918 6.15134 0
M  V30 5461 H 486.71 -1.15841 7.47072 0
M  V30 5462 H 487.978 -2.347 7.43328 0
M  V30 5463 N 492.207 -1.54576 0.307264 0
M  V30 5464 C 493.117 -2.27435 -0.57536 0
M  V30 5465 C 494.133 -1.31183 -1.14311 0
M  V30 5466 O 495.309 -1.64175 -1.16656 0
M  V30 5467 C 492.374 -3.00566 -1.72803 0
M  V30 5468 C 491.435 -4.12369 -1.19373 0
M  V30 5469 C 490.668 -4.82003 -2.29147 0
M  V30 5470 O 490.891 -4.51038 -3.49171 0
M  V30 5471 O 489.825 -5.69271 -1.95485 0
M  V30 5472 H 493.651 -3.03696 0.0158558 0
M  V30 5473 H 491.236 -1.49219 0.0735064 0
M  V30 5474 H 493.118 -3.46416 -2.39946 0
M  V30 5475 H 491.793 -2.27195 -2.30574 0
M  V30 5476 H 490.7 -3.70905 -0.487851 0
M  V30 5477 H 492.033 -4.87736 -0.661376 0
M  V30 5478 N 493.685 -0.035106 -1.57561 0
M  V30 5479 C 494.632 0.94474 -2.10578 0
M  V30 5480 C 495.602 1.3192 -1.00927 0
M  V30 5481 O 496.787 1.41147 -1.28382 0
M  V30 5482 C 493.927 2.21982 -2.64231 0
M  V30 5483 C 493.04 1.90128 -3.87911 0
M  V30 5484 C 492.175 3.11975 -4.29936 0
M  V30 5485 C 491.214 2.75968 -5.46359 0
M  V30 5486 N 490.351 3.90459 -5.83512 0
M  V30 5487 H 495.191 0.485717 -2.94015 0
M  V30 5488 H 492.728 0.228143 -1.4532 0
M  V30 5489 H 494.686 2.96572 -2.9343 0
M  V30 5490 H 493.316 2.6549 -1.83616 0
M  V30 5491 H 492.368 1.05755 -3.65404 0
M  V30 5492 H 493.68 1.59613 -4.72573 0
M  V30 5493 H 492.834 3.9488 -4.60603 0
M  V30 5494 H 491.573 3.45657 -3.44053 0
M  V30 5495 H 490.578 1.91478 -5.1538 0
M  V30 5496 H 491.803 2.43497 -6.33945 0
M  V30 5497 H 489.749 4.23971 -5.00584 0
M  V30 5498 H 489.666 3.63588 -6.62827 0
M  V30 5499 H 490.934 4.7405 -6.18787 0
M  V30 5500 N 495.163 1.55791 0.238111 0
M  V30 5501 C 496.44 1.68798 0.98826 0
M  V30 5502 C 496.82 0.577562 2.03045 0
M  V30 5503 O 496.168 -0.41778 2.24648 0
M  V30 5504 C 496.378 3.09454 1.61367 0
M  V30 5505 C 497.726 3.68335 2.11221 0
M  V30 5506 O 498.75 3.1231 1.71292 0
M  V30 5507 O 497.609 4.6657 2.84561 0
M  V30 5508 H 494.703 0.686881 0.460568 0
M  V30 5509 H 497.249 1.68118 0.231202 0
M  V30 5510 H 496.021 3.81726 0.860295 0
M  V30 5511 H 495.644 3.14182 2.4367 0
M  V30 5512 N 496.642 -0.504142 1.49319 0
M  V30 5513 C 497.575 -1.62361 1.60356 0
M  V30 5514 C 498.553 -1.56169 0.45277 0
M  V30 5515 O 499.737 -1.76271 0.667892 0
M  V30 5516 C 496.864 -3.00864 1.55559 0
M  V30 5517 C 495.91 -3.25328 2.75797 0
M  V30 5518 S 496.743 -3.08791 4.37503 0
M  V30 5519 C 497.899 -4.49695 4.35345 0
M  V30 5520 H 498.132 -1.52753 2.55056 0
M  V30 5521 H 495.665 -0.689065 1.38171 0
M  V30 5522 H 497.623 -3.8073 1.53477 0
M  V30 5523 H 496.284 -3.0789 0.621515 0
M  V30 5524 H 495.477 -4.2643 2.68651 0
M  V30 5525 H 495.079 -2.53179 2.75275 0
M  V30 5526 H 497.371 -5.41721 4.06871 0
M  V30 5527 H 498.314 -4.61891 5.36714 0
M  V30 5528 H 498.722 -4.30227 3.65465 0
M  V30 5529 N 498.12 -1.38341 -0.754957 0
M  V30 5530 C 499.536 -1.19508 -1.05783 0
M  V30 5531 C 499.736 -0.0428005 -2.01455 0
M  V30 5532 O 498.792 0.611861 -2.44975 0
M  V30 5533 C 500.105 -2.52091 -1.63923 0
M  V30 5534 C 501.653 -2.58762 -1.76101 0
M  V30 5535 C 502.128 -3.91517 -2.37652 0
M  V30 5536 N 503.619 -3.93049 -2.45085 0
M  V30 5537 C 504.354 -4.9253 -2.93602 0
M  V30 5538 N 503.85 -6.02408 -3.42165 0
M  V30 5539 N 505.643 -4.79921 -2.92629 0
M  V30 5540 H 497.794 -2.1206 -0.120056 0
M  V30 5541 H 500.057 -0.94089 -0.11589 0
M  V30 5542 H 499.763 -3.36858 -1.01093 0
M  V30 5543 H 499.637 -2.70388 -2.63003 0
M  V30 5544 H 502.024 -1.74391 -2.38058 0
M  V30 5545 H 502.105 -2.44333 -0.757294 0
M  V30 5546 H 501.749 -4.76309 -1.76329 0
M  V30 5547 H 501.679 -4.03256 -3.38662 0
M  V30 5548 H 504.17 -3.13685 -2.10736 0
M  V30 5549 H 504.483 -6.74248 -3.77637 0
M  V30 5550 H 502.828 -6.0603 -3.40225 0
M  V30 5551 H 506.019 -3.93194 -2.54001 0
M  V30 5552 H 506.192 -5.57601 -3.30128 0
M  V30 5553 N 499.598 0.982988 -1.23187 0
M  V30 5554 C 500.545 2.07491 -1.01075 0
M  V30 5555 C 501.515 1.65949 0.070905 0
M  V30 5556 O 502.7 1.90629 -0.0806822 0
M  V30 5557 C 499.84 3.39751 -0.605261 0
M  V30 5558 C 498.953 3.94578 -1.75876 0
M  V30 5559 C 498.088 5.15039 -1.3003 0
M  V30 5560 C 497.127 5.62027 -2.42472 0
M  V30 5561 N 496.264 6.73719 -1.97602 0
M  V30 5562 H 501.104 2.25739 -1.9454 0
M  V30 5563 H 498.641 1.10659 -0.969179 0
M  V30 5564 H 500.599 4.15719 -0.351279 0
M  V30 5565 H 499.229 3.21473 0.292382 0
M  V30 5566 H 498.281 3.1539 -2.12681 0
M  V30 5567 H 499.593 4.25422 -2.60418 0
M  V30 5568 H 498.747 5.9833 -1.00429 0
M  V30 5569 H 497.486 4.85843 -0.425216 0
M  V30 5570 H 496.491 4.77318 -2.7285 0
M  V30 5571 H 497.716 5.93244 -3.30512 0
M  V30 5572 H 495.662 6.46287 -1.1247 0
M  V30 5573 H 495.579 7.03934 -2.75705 0
M  V30 5574 H 496.847 7.6049 -1.71098 0
M  V30 5575 N 501.076 1.04316 1.18135 0
M  V30 5576 C 502.316 0.756937 1.89868 0
M  V30 5577 C 502.68 -0.702609 1.78682 0
M  V30 5578 O 503.881 -1.10255 2.45148 0
M  V30 5579 C 502.152 1.21327 3.36176 0
M  V30 5580 S 503.711 1.05307 4.25976 0
M  V30 5581 H 500.529 0.275143 0.655604 0
M  V30 5582 H 503.131 1.33597 1.42731 0
M  V30 5583 H 501.835 2.27086 3.41848 0
M  V30 5584 H 501.366 0.628137 3.88353 0
M  V30 5585 H 503.381 -0.0280093 4.96192 0
M  V30 5586 N 502.554 -1.34406 0.822964 0
M  V30 5587 C 503.831 -1.92733 0.333641 0
M  V30 5588 C 504.211 -1.75107 -1.17901 0
M  V30 5589 O 503.559 -1.12983 -1.98613 0
M  V30 5590 C 503.769 -3.40557 0.763023 0
M  V30 5591 C 505.117 -4.17709 0.761879 0
M  V30 5592 O 506.141 -3.49141 0.705606 0
M  V30 5593 O 505 -5.40082 0.835109 0
M  V30 5594 H 502.094 -0.821964 0.0911249 0
M  V30 5595 H 504.64 -1.4338 0.907757 0
M  V30 5596 H 503.412 -3.47187 1.8049 0
M  V30 5597 H 503.035 -3.97259 0.164605 0
M  V30 5598 N 504.032 -0.577932 -1.46621 0
M  V30 5599 C 505.257 -0.0652536 -2.07297 0
M  V30 5600 C 505.682 1.22828 -1.4246 0
M  V30 5601 O 505.04 1.74075 -0.506718 0
M  V30 5602 C 505.088 0.0920589 -3.60482 0
M  V30 5603 O 504.192 1.14972 -3.96049 0
M  V30 5604 H 503.533 -0.06065 -0.661224 0
M  V30 5605 H 506.063 -0.799515 -1.88332 0
M  V30 5606 H 506.073 0.299741 -4.06897 0
M  V30 5607 H 504.748 -0.852612 -4.07067 0
M  V30 5608 H 503.325 0.920879 -3.61351 0
M  V30 5609 N 505.51 1.54411 -0.315457 0
M  V30 5610 C 506.735 2.05299 0.294496 0
M  V30 5611 C 507.16 1.19052 1.4563 0
M  V30 5612 O 506.518 0.197804 1.80218 0
M  V30 5613 C 506.566 3.5345 0.714549 0
M  V30 5614 O 505.67 3.70175 1.81781 0
M  V30 5615 H 505.011 0.661743 0.0547019 0
M  V30 5616 H 507.541 1.99327 -0.461508 0
M  V30 5617 H 507.551 3.9557 0.999426 0
M  V30 5618 H 506.226 4.1568 -0.135244 0
M  V30 5619 H 504.803 3.3996 1.53236 0
M  V30 5620 N 506.988 0.0434614 1.5754 0
M  V30 5621 C 507.92 -0.962586 2.08007 0
M  V30 5622 C 508.933 -1.27972 1.00634 0
M  V30 5623 O 510.122 -1.24186 1.28219 0
M  V30 5624 C 507.222 -2.28621 2.50171 0
M  V30 5625 C 506.395 -2.15214 3.80791 0
M  V30 5626 C 505.454 -3.30633 4.09351 0
M  V30 5627 O 504.48 -3.0688 4.79388 0
M  V30 5628 N 505.682 -4.54873 3.60654 0
M  V30 5629 H 508.447 -0.531891 2.94942 0
M  V30 5630 H 506.008 -0.142965 1.61268 0
M  V30 5631 H 508 -3.04689 2.66359 0
M  V30 5632 H 506.57 -2.63283 1.68525 0
M  V30 5633 H 505.79 -1.23785 3.74261 0
M  V30 5634 H 507.078 -2.03475 4.66343 0
M  V30 5635 H 506.476 -4.77063 3.04019 0
M  V30 5636 H 505.033 -5.2806 3.82094 0
M  V30 5637 N 508.466 -1.55915 -0.229846 0
M  V30 5638 C 509.694 -1.82617 -0.972562 0
M  V30 5639 C 510.109 -0.621488 -1.78278 0
M  V30 5640 O 509.466 0.409956 -1.77836 0
M  V30 5641 C 509.517 -3.0774 -1.89679 0
M  V30 5642 O 509.238 -4.23559 -1.11934 0
M  V30 5643 C 510.739 -3.47368 -2.75409 0
M  V30 5644 H 507.959 -0.60727 -0.285419 0
M  V30 5645 H 510.503 -2.02996 -0.247579 0
M  V30 5646 H 508.658 -2.89361 -2.57583 0
M  V30 5647 H 509.072 -4.94586 -1.74599 0
M  V30 5648 H 510.546 -4.37977 -3.35977 0
M  V30 5649 H 511.023 -2.68737 -3.47386 0
M  V30 5650 H 511.629 -3.68158 -2.12931 0
M  V30 5651 N 509.944 0.496216 -1.49584 0
M  V30 5652 C 511.184 1.26015 -1.60933 0
M  V30 5653 C 511.548 1.89772 -0.291646 0
M  V30 5654 O 512.749 2.67334 -0.280357 0
M  V30 5655 C 511.02 2.29506 -2.73974 0
M  V30 5656 S 512.579 3.15175 -3.05303 0
M  V30 5657 H 509.397 0.428194 -0.567601 0
M  V30 5658 H 511.999 0.561484 -1.87263 0
M  V30 5659 H 510.703 1.81205 -3.68229 0
M  V30 5660 H 510.234 3.04036 -2.49651 0
M  V30 5661 H 512.249 4.30244 -2.47193 0
M  V30 5662 N 511.423 1.38739 0.74761 0
M  V30 5663 C 512.353 1.39173 1.87492 0
M  V30 5664 C 513.334 0.256794 1.6815 0
M  V30 5665 O 514.519 0.460762 1.88655 0
M  V30 5666 C 511.649 1.22197 3.25093 0
M  V30 5667 C 510.603 2.32957 3.59047 0
M  V30 5668 C 509.929 2.01082 4.95449 0
M  V30 5669 C 511.229 3.75237 3.6331 0
M  V30 5670 H 512.923 2.3351 1.87386 0
M  V30 5671 H 510.469 1.12399 0.900134 0
M  V30 5672 H 512.422 1.21124 4.03617 0
M  V30 5673 H 511.146 0.243241 3.25693 0
M  V30 5674 H 509.805 2.33226 2.82845 0
M  V30 5675 H 509.453 1.01678 4.92616 0
M  V30 5676 H 509.153 2.75267 5.19136 0
M  V30 5677 H 510.677 2.01638 5.76346 0
M  V30 5678 H 512.091 3.76966 4.31937 0
M  V30 5679 H 510.488 4.48677 3.98509 0
M  V30 5680 H 511.558 4.07122 2.634 0
M  V30 5681 N 512.901 -0.976442 1.23707 0
M  V30 5682 C 513.831 -2.08749 1.04624 0
M  V30 5683 C 514.812 -1.70057 -0.0380956 0
M  V30 5684 O 515.997 -1.93782 0.127308 0
M  V30 5685 C 513.127 -3.41335 0.640902 0
M  V30 5686 C 512.081 -3.93947 1.67302 0
M  V30 5687 C 511.407 -5.22774 1.12301 0
M  V30 5688 C 512.707 -4.22769 3.06697 0
M  V30 5689 H 514.401 -2.24972 1.97555 0
M  V30 5690 H 511.947 -1.08108 0.951247 0
M  V30 5691 H 513.9 -4.18489 0.494434 0
M  V30 5692 H 512.624 -3.24988 -0.324099 0
M  V30 5693 H 511.283 -3.18941 1.80755 0
M  V30 5694 H 510.931 -5.0278 0.148877 0
M  V30 5695 H 510.631 -5.58942 1.81267 0
M  V30 5696 H 512.155 -6.02546 0.988479 0
M  V30 5697 H 513.569 -4.90659 2.96524 0
M  V30 5698 H 511.966 -4.70147 3.72937 0
M  V30 5699 H 513.036 -3.29885 3.55392 0
M  V30 5700 N 514.379 -1.04941 -1.1758 0
M  V30 5701 C 515.311 -0.606174 -2.21039 0
M  V30 5702 C 516.324 0.328763 -1.59446 0
M  V30 5703 O 517.513 0.121895 -1.78083 0
M  V30 5704 C 514.613 0.133294 -3.38638 0
M  V30 5705 C 513.786 -0.811711 -4.29802 0
M  V30 5706 C 512.845 -0.113958 -5.26077 0
M  V30 5707 O 511.871 -0.747237 -5.64274 0
M  V30 5708 N 513.073 1.14953 -5.69004 0
M  V30 5709 H 515.838 -1.49606 -2.59689 0
M  V30 5710 H 513.399 -0.930997 -1.32454 0
M  V30 5711 H 515.391 0.610144 -4.00074 0
M  V30 5712 H 513.961 0.924816 -2.98607 0
M  V30 5713 H 513.181 -1.46824 -3.65837 0
M  V30 5714 H 514.469 -1.45326 -4.87604 0
M  V30 5715 H 513.867 1.68441 -5.40041 0
M  V30 5716 H 512.424 1.57049 -6.32597 0
M  V30 5717 N 515.857 1.33968 -0.830081 0
M  V30 5718 C 516.767 2.33164 -0.259207 0
M  V30 5719 C 517.783 1.62951 0.610164 0
M  V30 5720 O 518.959 1.94668 0.516369 0
M  V30 5721 C 516.024 3.42088 0.563598 0
M  V30 5722 C 515.085 4.28037 -0.329014 0
M  V30 5723 C 514.318 5.3176 0.454616 0
M  V30 5724 O 514.541 5.44876 1.6872 0
M  V30 5725 O 513.475 6.01669 -0.166794 0
M  V30 5726 H 517.301 2.83832 -1.08041 0
M  V30 5727 H 514.886 1.37154 -0.59239 0
M  V30 5728 H 516.768 4.08581 1.03147 0
M  V30 5729 H 515.443 2.93651 1.36201 0
M  V30 5730 H 514.35 3.64443 -0.844538 0
M  V30 5731 H 515.683 4.79934 -1.09196 0
M  V30 5732 N 517.335 0.585699 1.46312 0
M  V30 5733 C 518.285 -0.166813 2.27389 0
M  V30 5734 C 519.269 -0.859076 1.36047 0
M  V30 5735 O 520.461 -0.752678 1.60199 0
M  V30 5736 C 517.59 -1.17791 3.2246 0
M  V30 5737 C 516.676 -0.487605 4.21288 0
M  V30 5738 N 517.067 0.45849 5.03718 0
M  V30 5739 C 515.365 -0.737971 4.39852 0
M  V30 5740 C 516.066 0.862213 5.75275 0
M  V30 5741 N 515.042 0.210707 5.43191 0
M  V30 5742 H 518.844 0.560167 2.88512 0
M  V30 5743 H 516.358 0.407715 1.57199 0
M  V30 5744 H 518.355 -1.73122 3.79255 0
M  V30 5745 H 517.015 -1.90568 2.62896 0
M  V30 5746 H 518.026 0.834163 5.11138 0
M  V30 5747 H 514.703 -1.45209 3.91434 0
M  V30 5748 H 516.093 1.64128 6.51546 0
M  V30 5749 N 518.813 -1.54241 0.323641 0
M  V30 5750 C 519.743 -2.27289 -0.534993 0
M  V30 5751 C 520.724 -1.28087 -1.11927 0
M  V30 5752 O 521.909 -1.56899 -1.14439 0
M  V30 5753 C 519.039 -3.03075 -1.69596 0
M  V30 5754 C 517.993 -4.09614 -1.24098 0
M  V30 5755 C 517.319 -4.73242 -2.4889 0
M  V30 5756 C 518.619 -5.21087 -0.355789 0
M  V30 5757 H 520.313 -2.99308 0.0743257 0
M  V30 5758 H 517.859 -1.43952 0.0371874 0
M  V30 5759 H 519.812 -3.52907 -2.30293 0
M  V30 5760 H 518.536 -2.28673 -2.33187 0
M  V30 5761 H 517.195 -3.60666 -0.656945 0
M  V30 5762 H 516.843 -3.95455 -3.10845 0
M  V30 5763 H 516.543 -5.45209 -2.19138 0
M  V30 5764 H 518.067 -5.25848 -3.10348 0
M  V30 5765 H 519.481 -5.66675 -0.869042 0
M  V30 5766 H 517.878 -5.9991 -0.151045 0
M  V30 5767 H 518.948 -4.81005 0.613339 0
M  V30 5768 N 520.291 -0.0518155 -1.57515 0
M  V30 5769 C 521.568 0.661727 -1.84067 0
M  V30 5770 C 521.948 1.88999 -0.940351 0
M  V30 5771 O 521.296 2.285 -0.00155404 0
M  V30 5772 C 521.506 1.01841 -3.3381 0
M  V30 5773 C 522.854 1.40043 -4.00841 0
M  V30 5774 O 523.878 1.11073 -3.38439 0
M  V30 5775 O 522.737 1.94111 -5.10865 0
M  V30 5776 H 519.831 0.326702 -0.759733 0
M  V30 5777 H 522.377 -0.0812277 -1.69505 0
M  V30 5778 H 521.149 0.145202 -3.91031 0
M  V30 5779 H 520.772 1.81879 -3.53562 0
M  V30 5780 N 521.769 1.56035 0.221574 0
M  V30 5781 C 522.994 1.83476 0.967026 0
M  V30 5782 C 523.419 0.632139 1.7716 0
M  V30 5783 O 522.777 -0.419082 1.7639 0
M  V30 5784 C 522.825 3.08907 1.86034 0
M  V30 5785 O 521.929 2.876 2.95567 0
M  V30 5786 H 521.27 0.604913 0.273817 0
M  V30 5787 H 523.8 2.03247 0.234893 0
M  V30 5788 H 523.81 3.3901 2.27016 0
M  V30 5789 H 522.485 3.96068 1.26898 0
M  V30 5790 H 521.062 2.6873 2.58532 0
M  V30 5791 N 523.247 -0.488276 1.49845 0
M  V30 5792 C 524.493 -1.24341 1.6021 0
M  V30 5793 C 524.826 -1.91967 0.293651 0
M  V30 5794 O 524.101 -1.81323 -0.703718 0
M  V30 5795 C 524.384 -2.3005 2.77036 0
M  V30 5796 C 524.237 -1.66842 4.17713 0
M  V30 5797 C 525.556 -3.31509 2.89464 0
M  V30 5798 H 522.675 -0.450704 0.583125 0
M  V30 5799 H 525.317 -0.539673 1.82174 0
M  V30 5800 H 523.467 -2.90071 2.58439 0
M  V30 5801 H 525.139 -1.1055 4.47858 0
M  V30 5802 H 523.382 -0.972079 4.22768 0
M  V30 5803 H 524.053 -2.43576 4.95353 0
M  V30 5804 H 526.529 -2.81493 3.06433 0
M  V30 5805 H 525.405 -4.02822 3.72861 0
M  V30 5806 H 525.666 -3.94603 1.99351 0
M  V30 5807 N 524.725 -1.39134 -0.740242 0
M  V30 5808 C 525.657 -1.33332 -1.86428 0
M  V30 5809 C 526.67 -0.243042 -1.60976 0
M  V30 5810 O 527.859 -0.501608 -1.71307 0
M  V30 5811 C 524.959 -1.04626 -3.22346 0
M  V30 5812 C 524.132 -2.24826 -3.75196 0
M  V30 5813 C 523.191 -1.92659 -4.89662 0
M  V30 5814 O 522.217 -2.6529 -5.03597 0
M  V30 5815 N 523.419 -0.889575 -5.73643 0
M  V30 5816 H 526.184 -2.30196 -1.91911 0
M  V30 5817 H 523.745 -1.33168 -0.920756 0
M  V30 5818 H 525.737 -0.811347 -3.96484 0
M  V30 5819 H 524.307 -0.165129 -3.12164 0
M  V30 5820 H 523.527 -2.64301 -2.9247 0
M  V30 5821 H 524.815 -3.05015 -4.07239 0
M  V30 5822 H 524.213 -0.287529 -5.64969 0
M  V30 5823 H 522.77 -0.714557 -6.47871 0
M  V30 5824 N 526.204 0.969867 -1.24223 0
M  V30 5825 C 527.151 2.06407 -1.0327 0
M  V30 5826 C 528.121 1.66014 0.0533 0
M  V30 5827 O 529.306 1.90533 -0.100896 0
M  V30 5828 C 526.446 3.3909 -0.641262 0
M  V30 5829 C 525.559 3.9269 -1.80051 0
M  V30 5830 C 524.694 5.13631 -1.35486 0
M  V30 5831 C 523.733 5.59423 -2.48419 0
M  V30 5832 N 522.87 6.71586 -2.04737 0
M  V30 5833 H 527.71 2.23663 -1.96923 0
M  V30 5834 H 525.247 1.09624 -0.980862 0
M  V30 5835 H 527.205 4.15323 -0.395351 0
M  V30 5836 H 525.835 3.21765 0.258269 0
M  V30 5837 H 524.887 3.13116 -2.16014 0
M  V30 5838 H 526.199 4.22636 -2.64916 0
M  V30 5839 H 525.353 5.97231 -1.0677 0
M  V30 5840 H 524.092 4.85364 -0.476722 0
M  V30 5841 H 523.097 4.74398 -2.77897 0
M  V30 5842 H 524.322 5.89705 -3.36786 0
M  V30 5843 H 522.268 6.45058 -1.19318 0
M  V30 5844 H 522.185 7.0097 -2.83156 0
M  V30 5845 H 523.453 7.58633 -1.79154 0
M  V30 5846 N 527.682 1.05563 1.17022 0
M  V30 5847 C 528.592 0.670758 2.24807 0
M  V30 5848 C 529.608 -0.309865 1.71219 0
M  V30 5849 O 530.784 -0.161025 2.00755 0
M  V30 5850 C 527.849 0.055337 3.46656 0
M  V30 5851 C 526.91 1.08688 4.15314 0
M  V30 5852 C 526.143 0.500736 5.31346 0
M  V30 5853 O 526.366 -0.688718 5.66227 0
M  V30 5854 O 525.3 1.23683 5.89055 0
M  V30 5855 H 529.126 1.56914 2.60023 0
M  V30 5856 H 526.711 0.827428 1.24395 0
M  V30 5857 H 528.593 -0.286492 4.20425 0
M  V30 5858 H 527.268 -0.816638 3.13229 0
M  V30 5859 H 526.175 1.48077 3.43546 0
M  V30 5860 H 527.508 1.93014 4.52777 0
M  V30 5861 N 529.16 -1.33526 0.837174 0
M  V30 5862 C 530.407 -1.97837 0.432064 0
M  V30 5863 C 530.735 -1.66324 -1.00829 0
M  V30 5864 O 529.99 -0.93448 -1.71948 0
M  V30 5865 C 530.289 -3.52367 0.597675 0
M  V30 5866 C 529.955 -4.03826 2.00587 0
M  V30 5867 C 528.617 -4.1759 2.39106 0
M  V30 5868 C 530.969 -4.31333 2.92576 0
M  V30 5869 C 528.297 -4.56195 3.68921 0
M  V30 5870 C 530.649 -4.7139 4.2187 0
M  V30 5871 C 529.313 -4.8336 4.60347 0
M  V30 5872 H 528.583 -0.723937 0.158104 0
M  V30 5873 H 531.23 -1.5923 1.06387 0
M  V30 5874 H 529.535 -3.91624 -0.117452 0
M  V30 5875 H 531.232 -4.00126 0.26454 0
M  V30 5876 H 527.822 -3.93586 1.69671 0
M  V30 5877 H 532.006 -4.20224 2.64056 0
M  V30 5878 H 527.262 -4.63655 3.9854 0
M  V30 5879 H 531.436 -4.91631 4.93226 0
M  V30 5880 H 529.063 -5.1303 5.60985 0
M  V30 5881 N 530.638 -0.59345 -1.46 0
M  V30 5882 C 531.887 -0.0808084 -2.01538 0
M  V30 5883 C 532.2 1.29112 -1.46934 0
M  V30 5884 O 533.406 1.8957 -1.94359 0
M  V30 5885 C 531.862 -0.0938311 -3.59778 0
M  V30 5886 C 531.47 -1.46474 -4.23379 0
M  V30 5887 C 533.214 0.364306 -4.22934 0
M  V30 5888 C 531.121 -1.4349 -5.73729 0
M  V30 5889 H 530.051 -0.0264407 -0.753536 0
M  V30 5890 H 532.702 -0.746689 -1.67621 0
M  V30 5891 H 531.084 0.638427 -3.9082 0
M  V30 5892 H 532.258 -2.21758 -4.03931 0
M  V30 5893 H 530.573 -1.86379 -3.7236 0
M  V30 5894 H 533.17 0.405584 -5.3316 0
M  V30 5895 H 533.513 1.38409 -3.92618 0
M  V30 5896 H 534.046 -0.31423 -3.96557 0
M  V30 5897 H 530.785 -2.43184 -6.08722 0
M  V30 5898 H 530.305 -0.724431 -5.95409 0
M  V30 5899 H 531.984 -1.15243 -6.36654 0
M  V30 5900 N 532.116 1.54067 -0.331816 0
M  V30 5901 C 533.365 1.99895 0.269209 0
M  V30 5902 C 533.678 1.22371 1.52593 0
M  V30 5903 O 534.884 1.58618 2.20347 0
M  V30 5904 C 533.34 3.55972 0.530244 0
M  V30 5905 C 532.948 4.4234 -0.709901 0
M  V30 5906 C 534.692 4.10247 1.09077 0
M  V30 5907 C 532.599 5.89905 -0.420312 0
M  V30 5908 H 531.529 0.746741 0.104371 0
M  V30 5909 H 534.18 1.78014 -0.445324 0
M  V30 5910 H 532.562 3.73873 1.30518 0
M  V30 5911 H 533.736 4.36215 -1.48504 0
M  V30 5912 H 532.051 3.98997 -1.19123 0
M  V30 5913 H 534.648 5.18095 1.32219 0
M  V30 5914 H 534.991 3.62739 2.0427 0
M  V30 5915 H 535.524 3.96011 0.376824 0
M  V30 5916 H 532.263 6.41623 -1.34164 0
M  V30 5917 H 531.783 5.98962 0.316962 0
M  V30 5918 H 533.462 6.46991 -0.0331956 0
M  V30 5919 N 533.594 0.0601682 1.57485 0
M  V30 5920 C 534.841 -0.611594 1.93043 0
M  V30 5921 C 535.169 -1.70317 0.939274 0
M  V30 5922 O 534.424 -1.95644 -0.046996 0
M  V30 5923 C 534.723 -1.23831 3.35262 0
M  V30 5924 C 534.389 -0.274037 4.50066 0
M  V30 5925 C 533.051 -0.00872394 4.81199 0
M  V30 5926 C 535.403 0.386308 5.19766 0
M  V30 5927 C 532.731 0.924218 5.79375 0
M  V30 5928 C 535.083 1.3075 6.1894 0
M  V30 5929 C 533.747 1.58139 6.48497 0
M  V30 5930 H 533.017 -0.223798 0.706396 0
M  V30 5931 H 535.664 0.128566 1.91068 0
M  V30 5932 H 533.969 -2.05394 3.33647 0
M  V30 5933 H 535.666 -1.76517 3.60059 0
M  V30 5934 H 532.256 -0.491008 4.25778 0
M  V30 5935 H 536.44 0.194436 4.95919 0
M  V30 5936 H 531.696 1.1438 6.00606 0
M  V30 5937 H 535.87 1.82519 6.72056 0
M  V30 5938 H 533.497 2.30593 7.24383 0
M  V30 5939 N 535.072 -1.5615 -0.213296 0
M  V30 5940 C 536.02 -1.93953 -1.28394 0
M  V30 5941 C 537.014 -0.822592 -1.48087 0
M  V30 5942 O 538.22 -1.00748 -1.49164 0
M  V30 5943 H 534.595 -0.61648 -0.430646 0
M  V30 5944 H 536.566 -2.83275 -0.937977 0
M  V30 5945 C 535.315 -2.27969 -2.62537 0
M  V30 5946 H 534.638 -3.13432 -2.48194 0
M  V30 5947 H 536.078 -2.58297 -3.36242 0
M  V30 5948 C 534.537 -1.10775 -3.18167 0
M  V30 5949 O 535.067 -0.373201 -3.99963 0
M  V30 5950 N 533.273 -0.889377 -2.76656 0
M  V30 5951 H 532.82 -1.48843 -2.10246 0
M  V30 5952 H 532.778 -0.107 -3.14218 0
M  V30 5953 N 536.55 0.480323 -1.50102 0
M  V30 5954 C 537.966 0.813295 -1.37323 0
M  V30 5955 C 538.166 1.97027 -0.422206 0
M  V30 5956 O 537.222 2.5212 0.138563 0
M  V30 5957 C 538.535 1.13404 -2.78496 0
M  V30 5958 C 540.083 1.24104 -2.87345 0
M  V30 5959 C 540.558 1.59497 -4.29331 0
M  V30 5960 N 542.049 1.66507 -4.32238 0
M  V30 5961 C 542.784 1.95378 -5.39087 0
M  V30 5962 N 542.28 2.22333 -6.56155 0
M  V30 5963 N 544.073 1.96803 -5.26522 0
M  V30 5964 H 536.224 -0.282291 -2.10516 0
M  V30 5965 H 538.487 -0.063752 -0.945854 0
M  V30 5966 H 538.193 0.357064 -3.49883 0
M  V30 5967 H 538.067 2.07251 -3.15162 0
M  V30 5968 H 540.454 2.00871 -2.16183 0
M  V30 5969 H 540.535 0.282593 -2.54234 0
M  V30 5970 H 540.179 0.832736 -5.01027 0
M  V30 5971 H 540.109 2.56477 -4.59921 0
M  V30 5972 H 542.6 1.47753 -3.47818 0
M  V30 5973 H 542.913 2.43611 -7.33399 0
M  V30 5974 H 541.258 2.19745 -6.59346 0
M  V30 5975 H 544.449 1.75235 -4.34062 0
M  V30 5976 H 544.622 2.18969 -6.09883 0
M  V30 5977 N 538.028 1.39524 0.732853 0
M  V30 5978 C 538.938 1.40695 1.87729 0
M  V30 5979 C 539.954 0.301496 1.71368 0
M  V30 5980 O 541.13 0.543313 1.93933 0
M  V30 5981 C 538.195 1.25098 3.23344 0
M  V30 5982 C 537.256 2.45634 3.52083 0
M  V30 5983 C 536.489 2.30772 4.81228 0
M  V30 5984 O 536.712 1.31233 5.55098 0
M  V30 5985 O 535.646 3.19799 5.09914 0
M  V30 5986 H 539.472 2.37168 1.89697 0
M  V30 5987 H 537.057 1.20663 0.880959 0
M  V30 5988 H 538.939 1.18541 4.04383 0
M  V30 5989 H 537.614 0.317209 3.22142 0
M  V30 5990 H 536.521 2.57767 2.71122 0
M  V30 5991 H 537.854 3.37712 3.58066 0
M  V30 5992 N 539.506 -0.963266 1.24736 0
M  V30 5993 C 540.453 -2.05857 1.04363 0
M  V30 5994 C 541.423 -1.6604 -0.0444951 0
M  V30 5995 O 542.608 -1.90477 0.110999 0
M  V30 5996 C 539.748 -3.38745 0.659235 0
M  V30 5997 C 538.861 -3.9173 1.82131 0
M  V30 5998 C 537.996 -5.12906 1.38208 0
M  V30 5999 C 537.035 -5.58098 2.51382 0
M  V30 6000 N 536.172 -6.7049 2.08295 0
M  V30 6001 H 541.012 -2.22616 1.98107 0
M  V30 6002 H 538.549 -1.09103 0.986661 0
M  V30 6003 H 540.507 -4.15107 0.417371 0
M  V30 6004 H 539.137 -3.21898 -0.241201 0
M  V30 6005 H 538.189 -3.11966 2.17672 0
M  V30 6006 H 539.501 -4.21225 2.67153 0
M  V30 6007 H 538.655 -5.96657 1.09935 0
M  V30 6008 H 537.394 -4.85105 0.502456 0
M  V30 6009 H 536.399 -4.72917 2.80409 0
M  V30 6010 H 537.624 -5.87911 3.39909 0
M  V30 6011 H 535.57 -6.44416 1.22737 0
M  V30 6012 H 535.487 -6.99458 2.86869 0
M  V30 6013 H 536.755 -7.57672 1.83175 0
M  V30 6014 N 540.985 -1.06182 -1.16461 0
M  V30 6015 C 542.231 -0.779015 -1.87241 0
M  V30 6016 C 542.564 0.692715 -1.81425 0
M  V30 6017 O 541.839 1.5074 -1.22913 0
M  V30 6018 C 542.122 -1.2728 -3.36856 0
M  V30 6019 C 541.975 -2.80821 -3.51368 0
M  V30 6020 C 543.294 -0.879799 -4.31216 0
M  V30 6021 H 540.413 -0.284464 -0.679889 0
M  V30 6022 H 543.055 -1.31755 -1.36896 0
M  V30 6023 H 541.205 -0.814673 -3.79862 0
M  V30 6024 H 542.877 -3.34833 -3.17308 0
M  V30 6025 H 541.12 -3.19606 -2.93316 0
M  V30 6026 H 541.791 -3.10435 -4.56436 0
M  V30 6027 H 544.267 -1.27436 -3.96105 0
M  V30 6028 H 543.143 -1.25278 -5.34412 0
M  V30 6029 H 543.404 0.215372 -4.41575 0
M  V30 6030 N 542.463 1.3308 -0.844243 0
M  V30 6031 C 543.411 2.31028 -0.269954 0
M  V30 6032 C 544.405 1.58381 0.600997 0
M  V30 6033 O 545.611 1.73203 0.48996 0
M  V30 6034 H 541.986 0.748866 -0.0685782 0
M  V30 6035 H 543.957 2.76967 -1.11049 0
M  V30 6036 C 542.706 3.43549 0.535676 0
M  V30 6037 H 542.029 3.99604 -0.125202 0
M  V30 6038 H 543.469 4.14267 0.903262 0
M  V30 6039 C 541.928 2.8988 1.71672 0
M  V30 6040 O 542.458 2.86511 2.81557 0
M  V30 6041 N 540.664 2.46416 1.54037 0
M  V30 6042 H 540.211 2.49356 0.64649 0
M  V30 6043 H 540.169 2.1086 2.33207 0
M  V30 6044 N 543.941 0.601185 1.45683 0
M  V30 6045 C 545.357 0.264315 1.57396 0
M  V30 6046 C 545.557 -1.23324 1.59353 0
M  V30 6047 O 544.613 -2.01594 1.52039 0
M  V30 6048 C 545.926 0.929839 2.85962 0
M  V30 6049 C 547.474 0.905156 2.99626 0
M  V30 6050 C 547.949 1.55057 4.30954 0
M  V30 6051 N 549.44 1.51576 4.37697 0
M  V30 6052 C 550.175 1.98436 5.37969 0
M  V30 6053 N 549.671 2.53352 6.44813 0
M  V30 6054 N 551.464 1.89242 5.29286 0
M  V30 6055 H 543.615 1.57363 1.42656 0
M  V30 6056 H 545.878 0.658831 0.681649 0
M  V30 6057 H 545.584 1.98404 2.90394 0
M  V30 6058 H 545.458 0.449224 3.74515 0
M  V30 6059 H 547.845 -0.14048 2.94765 0
M  V30 6060 H 547.926 1.42397 2.12501 0
M  V30 6061 H 547.57 2.5955 4.36573 0
M  V30 6062 H 547.5 1.00682 5.16886 0
M  V30 6063 H 549.991 1.11452 3.61091 0
M  V30 6064 H 550.304 2.86918 7.17564 0
M  V30 6065 H 548.649 2.57388 6.45582 0
M  V30 6066 H 551.84 1.46083 4.44722 0
M  V30 6067 H 552.013 2.26075 6.07284 0
M  V30 6068 N 545.419 -1.53889 0.339982 0
M  V30 6069 C 546.696 -1.93084 -0.312719 0
M  V30 6070 C 547.076 -1.2712 -1.68534 0
M  V30 6071 O 546.424 -0.420835 -2.24591 0
M  V30 6072 C 546.634 -3.4683 -0.388558 0
M  V30 6073 C 547.982 -4.19732 -0.641088 0
M  V30 6074 O 549.006 -3.53075 -0.470818 0
M  V30 6075 O 547.865 -5.3781 -0.970685 0
M  V30 6076 H 544.959 -0.806784 -0.18174 0
M  V30 6077 H 547.505 -1.65137 0.390898 0
M  V30 6078 H 546.277 -3.87055 0.574821 0
M  V30 6079 H 545.9 -3.80933 -1.1391 0
M  V30 6080 N 546.897 -0.0685191 -1.57451 0
M  V30 6081 C 548.144 0.601348 -1.93365 0
M  V30 6082 C 548.472 1.69816 -0.948294 0
M  V30 6083 O 547.727 1.95666 0.0366199 0
M  V30 6084 C 548.026 1.22051 -3.35914 0
M  V30 6085 C 547.692 0.250165 -4.50205 0
M  V30 6086 C 546.354 -0.0167954 -4.81197 0
M  V30 6087 C 548.706 -0.413867 -5.19554 0
M  V30 6088 C 546.034 -0.95493 -5.78876 0
M  V30 6089 C 548.386 -1.3403 -6.18238 0
M  V30 6090 C 547.05 -1.61576 -6.47649 0
M  V30 6091 H 546.32 0.220049 -0.707573 0
M  V30 6092 H 548.967 -0.138697 -1.90997 0
M  V30 6093 H 547.272 2.03622 -3.34732 0
M  V30 6094 H 548.969 1.74605 -3.6099 0
M  V30 6095 H 545.559 0.468421 -4.26033 0
M  V30 6096 H 549.743 -0.220733 -4.95809 0
M  V30 6097 H 544.999 -1.17563 -5.99991 0
M  V30 6098 H 549.173 -1.86081 -6.71079 0
M  V30 6099 H 546.8 -2.34431 -7.2315 0
M  V30 6100 N 548.375 1.56261 0.205012 0
M  V30 6101 C 549.323 1.94631 1.27364 0
M  V30 6102 C 550.317 0.830434 1.47649 0
M  V30 6103 O 551.523 1.01538 1.48627 0
M  V30 6104 H 547.898 0.618755 0.427371 0
M  V30 6105 H 549.869 2.83768 0.922941 0
M  V30 6106 C 548.618 2.29358 2.61324 0
M  V30 6107 H 547.941 3.14744 2.46528 0
M  V30 6108 H 549.381 2.60076 3.34868 0
M  V30 6109 C 547.84 1.12461 3.17575 0
M  V30 6110 O 548.37 0.394407 3.99759 0
M  V30 6111 N 546.576 0.904036 2.7618 0
M  V30 6112 H 546.123 1.49956 2.09454 0
M  V30 6113 H 546.081 0.123662 3.14157 0
M  V30 6114 N 549.853 -0.472356 1.50355 0
M  V30 6115 C 550.8 -1.57051 1.69126 0
M  V30 6116 C 551.77 -1.5733 0.532574 0
M  V30 6117 O 552.955 -1.7488 0.762994 0
M  V30 6118 C 550.095 -2.95033 1.79024 0
M  V30 6119 C 549.208 -3.04552 3.06386 0
M  V30 6120 C 548.343 -4.33441 3.07087 0
M  V30 6121 C 547.382 -4.36697 4.28908 0
M  V30 6122 N 546.519 -5.57056 4.27356 0
M  V30 6123 H 551.359 -1.40351 2.62879 0
M  V30 6124 H 548.896 -0.682403 1.30314 0
M  V30 6125 H 550.854 -3.75048 1.82744 0
M  V30 6126 H 549.484 -3.10371 0.887109 0
M  V30 6127 H 548.536 -2.17419 3.12143 0
M  V30 6128 H 549.848 -3.02818 3.96362 0
M  V30 6129 H 549.002 -5.21801 3.09529 0
M  V30 6130 H 547.741 -4.37782 2.14939 0
M  V30 6131 H 546.746 -3.46734 4.2668 0
M  V30 6132 H 547.971 -4.34049 5.22282 0
M  V30 6133 H 545.917 -5.62184 3.3806 0
M  V30 6134 H 545.834 -5.57058 5.111 0
M  V30 6135 H 547.102 -6.47545 4.33942 0
M  V30 6136 N 551.331 -1.39911 -0.725443 0
M  V30 6137 C 552.747 -1.21725 -1.03224 0
M  V30 6138 C 552.947 -0.0855224 -2.01318 0
M  V30 6139 O 552.003 0.55976 -2.46217 0
M  V30 6140 C 553.316 -2.55511 -1.58539 0
M  V30 6141 C 554.864 -2.62439 -1.70572 0
M  V30 6142 C 555.339 -3.9647 -2.29294 0
M  V30 6143 N 556.83 -3.98159 -2.36692 0
M  V30 6144 C 557.565 -4.98647 -2.83088 0
M  V30 6145 N 557.061 -6.0953 -3.2931 0
M  V30 6146 N 558.854 -4.8602 -2.82384 0
M  V30 6147 H 551.005 -2.12267 -0.075048 0
M  V30 6148 H 553.268 -0.943136 -0.0959066 0
M  V30 6149 H 552.974 -3.38926 -0.939249 0
M  V30 6150 H 552.848 -2.75905 -2.57208 0
M  V30 6151 H 555.235 -1.79401 -2.34306 0
M  V30 6152 H 555.316 -2.45885 -0.705297 0
M  V30 6153 H 554.96 -4.79942 -1.66186 0
M  V30 6154 H 554.89 -4.10349 -3.30032 0
M  V30 6155 H 557.381 -3.18085 -2.04035 0
M  V30 6156 H 557.694 -6.82106 -3.6325 0
M  V30 6157 H 556.039 -6.1311 -3.27294 0
M  V30 6158 H 559.23 -3.98493 -2.45603 0
M  V30 6159 H 559.403 -5.64478 -3.18226 0
M  V30 6160 N 552.809 0.956637 -1.25245 0
M  V30 6161 C 553.741 2.05628 -1.01242 0
M  V30 6162 C 554.754 1.62785 0.0219579 0
M  V30 6163 O 555.943 1.77184 -0.216365 0
M  V30 6164 C 553.043 3.35069 -0.508161 0
M  V30 6165 C 552.216 4.06761 -1.60823 0
M  V30 6166 C 551.275 5.14473 -1.1047 0
M  V30 6167 O 550.301 5.40033 -1.79868 0
M  V30 6168 N 551.503 5.80474 0.0550773 0
M  V30 6169 H 554.268 2.2679 -1.95925 0
M  V30 6170 H 551.829 1.12505 -1.16423 0
M  V30 6171 H 553.821 4.044 -0.155819 0
M  V30 6172 H 552.391 3.10694 0.344683 0
M  V30 6173 H 551.611 3.31555 -2.13224 0
M  V30 6174 H 552.899 4.51418 -2.34733 0
M  V30 6175 H 552.297 5.62125 0.635004 0
M  V30 6176 H 550.854 6.50868 0.348469 0
M  V30 6177 N 554.287 1.06798 1.15896 0
M  V30 6178 C 555.698 0.811355 1.68149 0
M  V30 6179 C 556.049 -0.664339 1.8461 0
M  V30 6180 O 555.174 -1.51485 1.54535 0
M  V30 6181 C 555.769 1.46624 3.05429 0
M  V30 6182 C 554.328 1.25726 3.54781 0
M  V30 6183 C 553.475 1.53949 2.3064 0
M  V30 6184 H 556.426 1.23078 1.00187 0
M  V30 6185 H 556.447 0.88437 3.7008 0
M  V30 6186 H 555.959 2.54025 2.93416 0
M  V30 6187 H 554.06 0.20322 3.72045 0
M  V30 6188 H 554.173 1.97354 4.36564 0
M  V30 6189 H 552.537 0.96025 2.35905 0
M  V30 6190 H 553.32 2.6252 2.2122 0
M  V30 6191 N 555.766 -1.3263 0.851289 0
M  V30 6192 C 556.714 -2.30882 0.282202 0
M  V30 6193 C 557.708 -1.58697 -0.592589 0
M  V30 6194 O 558.914 -1.73461 -0.480768 0
M  V30 6195 H 555.289 -0.748492 0.0725487 0
M  V30 6196 H 557.26 -2.76374 1.12516 0
M  V30 6197 C 556.009 -3.43828 -0.517449 0
M  V30 6198 H 555.332 -3.99532 0.146392 0
M  V30 6199 H 556.772 -4.1474 -0.88128 0
M  V30 6200 C 555.231 -2.90786 -1.70133 0
M  V30 6201 O 555.761 -2.88 -2.80034 0
M  V30 6202 N 553.967 -2.4723 -1.52728 0
M  V30 6203 H 553.514 -2.49695 -0.633257 0
M  V30 6204 H 553.472 -2.12094 -2.32085 0
M  V30 6205 N 557.244 -0.608902 -1.45362 0
M  V30 6206 C 558.174 0.0964526 -2.33301 0
M  V30 6207 C 559.155 0.857444 -1.46908 0
M  V30 6208 O 560.34 0.827735 -1.75676 0
M  V30 6209 C 557.47 1.09354 -3.29635 0
M  V30 6210 C 556.424 0.445676 -4.25673 0
M  V30 6211 C 555.75 1.5511 -5.11708 0
M  V30 6212 C 557.05 -0.633972 -5.18438 0
M  V30 6213 H 558.744 -0.637829 -2.92527 0
M  V30 6214 H 556.29 -0.308178 -1.40664 0
M  V30 6215 H 558.243 1.59556 -3.90025 0
M  V30 6216 H 556.967 1.85843 -2.6857 0
M  V30 6217 H 555.626 -0.0354897 -3.66583 0
M  V30 6218 H 555.274 2.30631 -4.4701 0
M  V30 6219 H 554.974 1.12311 -5.76767 0
M  V30 6220 H 556.498 2.05537 -5.74967 0
M  V30 6221 H 557.912 -0.215974 -5.72893 0
M  V30 6222 H 556.309 -0.983789 -5.91981 0
M  V30 6223 H 557.379 -1.51005 -4.60788 0
M  V30 6224 N 558.722 1.53707 -0.348139 0
M  V30 6225 C 559.685 2.23812 0.494058 0
M  V30 6226 C 560.685 1.23989 1.02388 0
M  V30 6227 O 561.875 1.48395 0.912396 0
M  V30 6228 C 559.007 2.96133 1.68872 0
M  V30 6229 H 560.2 2.99663 -0.119141 0
M  V30 6230 H 557.753 1.55983 -0.0995539 0
M  V30 6231 H 558.488 2.24481 2.34049 0
M  V30 6232 H 558.273 3.69357 1.31596 0
M  V30 6233 H 559.763 3.49475 2.28597 0
M  V30 6234 N 560.2 0.0768682 1.57412 0
M  V30 6235 C 561.13 -0.886026 2.16037 0
M  V30 6236 C 562.111 -1.30691 1.08876 0
M  V30 6237 O 563.296 -1.37705 1.36934 0
M  V30 6238 C 560.426 -2.1518 2.72608 0
M  V30 6239 C 559.38 -1.87015 3.8498 0
M  V30 6240 C 558.706 -3.20266 4.28175 0
M  V30 6241 C 560.006 -1.17143 5.08994 0
M  V30 6242 H 561.7 -0.397642 2.96748 0
M  V30 6243 H 559.246 -0.189823 1.42743 0
M  V30 6244 H 561.199 -2.82962 3.12266 0
M  V30 6245 H 559.923 -2.66269 1.89125 0
M  V30 6246 H 558.582 -1.21636 3.45833 0
M  V30 6247 H 558.23 -3.69207 3.41607 0
M  V30 6248 H 557.93 -3.0221 5.03927 0
M  V30 6249 H 559.454 -3.89237 4.70454 0
M  V30 6250 H 560.868 -1.75003 5.45937 0
M  V30 6251 H 559.265 -1.09328 5.90057 0
M  V30 6252 H 560.335 -0.151295 4.84664 0
M  V30 6253 N 561.678 -1.56367 -0.196722 0
M  V30 6254 C 562.588 -1.97617 -1.2643 0
M  V30 6255 C 563.604 -0.883598 -1.49895 0
M  V30 6256 O 564.78 -1.18921 -1.62541 0
M  V30 6257 C 561.845 -2.30595 -2.58895 0
M  V30 6258 C 560.906 -3.53551 -2.43516 0
M  V30 6259 C 560.139 -3.84946 -3.69665 0
M  V30 6260 O 560.362 -3.17655 -4.73763 0
M  V30 6261 O 559.296 -4.78379 -3.65291 0
M  V30 6262 H 563.122 -2.88648 -0.944233 0
M  V30 6263 H 560.707 -1.43901 -0.401592 0
M  V30 6264 H 562.589 -2.52889 -3.37083 0
M  V30 6265 H 561.264 -1.42732 -2.90533 0
M  V30 6266 H 560.171 -3.36507 -1.63445 0
M  V30 6267 H 561.504 -4.41875 -2.16812 0
M  V30 6268 N 563.156 0.464375 -1.50603 0
M  V30 6269 C 564.088 1.57916 -1.66118 0
M  V30 6270 C 565.101 1.53497 -0.54246 0
M  V30 6271 O 566.29 1.58763 -0.815877 0
M  V30 6272 C 563.39 2.96809 -1.63577 0
M  V30 6273 C 562.563 3.26026 -2.91592 0
M  V30 6274 C 561.622 4.44506 -2.81604 0
M  V30 6275 O 560.648 4.44484 -3.55559 0
M  V30 6276 N 561.85 5.46549 -1.95614 0
M  V30 6277 H 564.615 1.45022 -2.62276 0
M  V30 6278 H 562.176 0.652903 -1.48151 0
M  V30 6279 H 564.168 3.74048 -1.54499 0
M  V30 6280 H 562.738 3.03438 -0.751262 0
M  V30 6281 H 561.958 2.37337 -3.14746 0
M  V30 6282 H 563.246 3.42361 -3.76386 0
M  V30 6283 H 562.644 5.49391 -1.34854 0
M  V30 6284 H 561.201 6.22746 -1.92435 0
M  V30 6285 N 564.634 1.40294 0.718013 0
M  V30 6286 C 565.862 1.4175 1.50714 0
M  V30 6287 C 566.277 0.0165366 1.88793 0
M  V30 6288 O 565.634 -0.958942 1.55276 0
M  V30 6289 C 565.685 2.30598 2.784 0
M  V30 6290 O 565.406 3.6524 2.41932 0
M  V30 6291 C 566.907 2.4062 3.72313 0
M  V30 6292 H 564.127 0.483565 0.465194 0
M  V30 6293 H 566.671 1.84316 0.885889 0
M  V30 6294 H 564.826 1.91401 3.36815 0
M  V30 6295 H 565.24 4.12402 3.24076 0
M  V30 6296 H 566.714 3.07001 4.58753 0
M  V30 6297 H 567.191 1.4305 4.15251 0
M  V30 6298 H 567.797 2.80359 3.19811 0
M  V30 6299 N 566.112 -0.949982 1.2575 0
M  V30 6300 C 567.059 -2.04738 1.06541 0
M  V30 6301 C 568.029 -1.66078 -0.0268818 0
M  V30 6302 O 569.214 -1.90348 0.131196 0
M  V30 6303 C 566.354 -3.38027 0.695127 0
M  V30 6304 C 565.467 -3.89776 1.86276 0
M  V30 6305 C 564.602 -5.11411 1.4364 0
M  V30 6306 C 563.641 -5.554 2.57287 0
M  V30 6307 N 562.778 -6.68244 2.15395 0
M  V30 6308 H 567.618 -2.20502 2.00457 0
M  V30 6309 H 565.155 -1.0805 0.998178 0
M  V30 6310 H 567.113 -4.14641 0.461375 0
M  V30 6311 H 565.743 -3.22135 -0.207046 0
M  V30 6312 H 564.795 -3.0964 2.20969 0
M  V30 6313 H 566.107 -4.18368 2.71606 0
M  V30 6314 H 565.261 -5.95457 1.16257 0
M  V30 6315 H 564 -4.84545 0.553879 0
M  V30 6316 H 563.005 -4.69916 2.85409 0
M  V30 6317 H 564.23 -5.84272 3.46125 0
M  V30 6318 H 562.176 -6.43078 1.29565 0
M  V30 6319 H 562.093 -6.96377 2.94272 0
M  V30 6320 H 563.361 -7.55687 1.91201 0
M  V30 6321 N 567.59 -1.07411 -1.15328 0
M  V30 6322 C 568.867 -0.710732 -1.82231 0
M  V30 6323 C 569.247 0.806732 -1.95077 0
M  V30 6324 O 568.595 1.72139 -1.50268 0
M  V30 6325 C 568.805 -1.42586 -3.18544 0
M  V30 6326 C 570.153 -1.57836 -3.94174 0
M  V30 6327 O 571.177 -1.38669 -3.281 0
M  V30 6328 O 570.036 -1.8938 -5.12638 0
M  V30 6329 H 567.13 -0.25297 -0.78736 0
M  V30 6330 H 569.676 -1.17508 -1.22434 0
M  V30 6331 H 568.448 -2.46008 -3.04296 0
M  V30 6332 H 568.071 -0.952332 -3.86026 0
M  V30 6333 N 569.068 1.32177 -0.85831 0
M  V30 6334 C 570.479 1.79381 -0.517621 0
M  V30 6335 C 570.83 1.70841 0.964769 0
M  V30 6336 O 569.955 1.26917 1.75274 0
M  V30 6337 C 570.55 3.25706 -0.932801 0
M  V30 6338 C 569.109 3.70851 -0.643953 0
M  V30 6339 C 568.256 2.53208 -1.13054 0
M  V30 6340 H 571.207 1.19424 -1.04516 0
M  V30 6341 H 571.228 3.79673 -0.250674 0
M  V30 6342 H 570.74 3.31889 -2.01174 0
M  V30 6343 H 568.841 3.70178 0.424112 0
M  V30 6344 H 568.954 4.63495 -1.21281 0
M  V30 6345 H 567.318 2.48676 -0.550679 0
M  V30 6346 H 568.101 2.62143 -2.21666 0
M  V30 6347 N 570.547 0.616602 1.45037 0
M  V30 6348 C 571.479 -0.135186 2.28801 0
M  V30 6349 C 572.492 -0.82303 1.40464 0
M  V30 6350 O 573.681 -0.686909 1.64754 0
M  V30 6351 C 570.781 -1.21292 3.16451 0
M  V30 6352 C 569.954 -0.61043 4.3312 0
M  V30 6353 C 569.013 -1.58022 5.01912 0
M  V30 6354 O 568.039 -1.10301 5.58411 0
M  V30 6355 N 569.241 -2.91464 5.02025 0
M  V30 6356 H 572.006 0.583612 2.93963 0
M  V30 6357 H 569.567 0.456723 1.55324 0
M  V30 6358 H 571.559 -1.86169 3.59337 0
M  V30 6359 H 570.129 -1.83412 2.53138 0
M  V30 6360 H 569.349 0.216638 3.93604 0
M  V30 6361 H 570.637 -0.188293 5.08451 0
M  V30 6362 H 570.035 -3.32829 4.57429 0
M  V30 6363 H 568.592 -3.51741 5.48745 0
M  V30 6364 N 572.025 -1.5352 0.356285 0
M  V30 6365 C 573.273 -2.00719 -0.235837 0
M  V30 6366 C 573.594 -1.24551 -1.5004 0
M  V30 6367 O 572.864 -0.356185 -1.92635 0
M  V30 6368 H 571.444 -0.741542 -0.0901366 0
M  V30 6369 H 574.106 -1.88887 0.480378 0
M  V30 6370 H 573.202 -3.08551 -0.469357 0
M  V30 6371 N 573.503 -0.0852151 -1.57369 0
M  V30 6372 C 574.413 0.891712 -2.16992 0
M  V30 6373 C 575.429 1.3174 -1.13669 0
M  V30 6374 O 576.605 1.38735 -1.45995 0
M  V30 6375 C 573.67 2.13635 -2.73059 0
M  V30 6376 C 572.731 1.7658 -3.91303 0
M  V30 6377 C 571.964 2.95111 -4.44686 0
M  V30 6378 O 572.187 4.09539 -3.97032 0
M  V30 6379 O 571.121 2.74149 -5.35841 0
M  V30 6380 H 574.947 0.414477 -3.00858 0
M  V30 6381 H 572.532 0.138598 -1.48756 0
M  V30 6382 H 574.414 2.86595 -3.08935 0
M  V30 6383 H 573.089 2.6043 -1.92244 0
M  V30 6384 H 571.996 1.00831 -3.60255 0
M  V30 6385 H 573.329 1.34557 -4.7345 0
M  V30 6386 N 574.981 1.5647 0.188427 0
M  V30 6387 C 576.258 1.71857 0.934058 0
M  V30 6388 C 576.638 0.641867 2.01105 0
M  V30 6389 O 575.986 -0.346098 2.25864 0
M  V30 6390 C 576.196 3.14431 1.5144 0
M  V30 6391 C 577.544 3.74869 1.99396 0
M  V30 6392 O 578.568 3.17601 1.61269 0
M  V30 6393 O 577.427 4.75387 2.69573 0
M  V30 6394 H 574.521 0.701186 0.438483 0
M  V30 6395 H 577.067 1.68768 0.177599 0
M  V30 6396 H 575.839 3.8427 0.738416 0
M  V30 6397 H 575.462 3.21775 2.33552 0
M  V30 6398 N 576.459 -0.456382 1.50847 0
M  V30 6399 C 577.707 -1.20497 1.62249 0
M  V30 6400 C 578.028 -1.92156 0.331839 0
M  V30 6401 O 577.298 -1.84751 -0.651443 0
M  V30 6402 H 575.878 -0.447775 0.597918 0
M  V30 6403 H 578.54 -0.525099 1.87693 0
M  V30 6404 H 577.636 -1.94492 2.44089 0
M  V30 6405 N 577.937 -1.40673 -0.710563 0
M  V30 6406 C 578.869 -1.37256 -1.83558 0
M  V30 6407 C 579.882 -0.277133 -1.60424 0
M  V30 6408 O 581.071 -0.537831 -1.70205 0
M  V30 6409 C 578.171 -1.1144 -3.20054 0
M  V30 6410 C 577.344 -2.32734 -3.70342 0
M  V30 6411 C 576.403 -2.03002 -4.85465 0
M  V30 6412 O 575.429 -2.75912 -4.97857 0
M  V30 6413 N 576.631 -1.01105 -5.71627 0
M  V30 6414 H 579.396 -2.34215 -1.86985 0
M  V30 6415 H 576.957 -1.35091 -0.892301 0
M  V30 6416 H 578.949 -0.895265 -3.94673 0
M  V30 6417 H 577.519 -0.231307 -3.11743 0
M  V30 6418 H 576.739 -2.70446 -2.86798 0
M  V30 6419 H 578.027 -3.13584 -4.00678 0
M  V30 6420 H 577.425 -0.407303 -5.64232 0
M  V30 6421 H 575.982 -0.85182 -6.4621 0
M  V30 6422 N 579.415 0.9433 -1.26252 0
M  V30 6423 C 580.363 2.06302 -1.07434 0
M  V30 6424 C 581.357 1.694 -0.00189471 0
M  V30 6425 O 582.563 1.79302 -0.158408 0
M  V30 6426 H 578.938 0.675453 -0.330556 0
M  V30 6427 H 580.909 2.19326 -2.02333 0
M  V30 6428 C 579.658 3.40125 -0.721817 0
M  V30 6429 H 578.981 3.68996 -1.5389 0
M  V30 6430 H 580.421 4.19295 -0.629922 0
M  V30 6431 C 578.88 3.31993 0.572902 0
M  V30 6432 O 579.41 3.67945 1.61182 0
M  V30 6433 N 577.616 2.85099 0.562748 0
M  V30 6434 H 577.163 2.5604 -0.283092 0
M  V30 6435 H 577.121 2.80041 1.42915 0
M  V30 6436 N 580.893 1.08022 1.14757 0
M  V30 6437 C 581.841 0.701088 2.21783 0
M  V30 6438 C 582.835 -0.291311 1.66876 0
M  V30 6439 O 584.041 -0.154296 1.79337 0
M  V30 6440 H 580.416 0.208668 0.722469 0
M  V30 6441 H 582.387 1.61321 2.51034 0
M  V30 6442 C 581.136 0.122278 3.47485 0
M  V30 6443 H 580.459 0.877065 3.90061 0
M  V30 6444 H 581.899 -0.105248 4.23869 0
M  V30 6445 C 580.358 -1.13883 3.17068 0
M  V30 6446 O 580.888 -2.22429 3.34497 0
M  V30 6447 N 579.094 -1.04767 2.71058 0
M  V30 6448 H 578.641 -0.164302 2.57075 0
M  V30 6449 H 578.599 -1.89224 2.51081 0
M  V30 6450 N 582.371 -1.3172 0.865308 0
M  V30 6451 C 583.319 -2.30569 0.306674 0
M  V30 6452 C 584.313 -1.59317 -0.575724 0
M  V30 6453 O 585.519 -1.73961 -0.462343 0
M  V30 6454 H 581.894 -0.747681 0.0804834 0
M  V30 6455 H 583.865 -2.75165 1.15441 0
M  V30 6456 C 582.614 -3.44358 -0.480952 0
M  V30 6457 H 581.937 -3.99354 0.18876 0
M  V30 6458 H 583.377 -4.15652 -0.837241 0
M  V30 6459 C 581.836 -2.92574 -1.67039 0
M  V30 6460 O 582.366 -2.90954 -2.76964 0
M  V30 6461 N 580.572 -2.48835 -1.50097 0
M  V30 6462 H 580.119 -2.50353 -0.606738 0
M  V30 6463 H 580.077 -2.14543 -2.29823 0
M  V30 6464 N 583.85 -0.624285 -1.44708 0
M  V30 6465 C 584.779 0.0717025 -2.3339 0
M  V30 6466 C 585.76 0.841814 -1.47809 0
M  V30 6467 O 586.946 0.809056 -1.76544 0
M  V30 6468 C 584.076 1.05852 -3.30776 0
M  V30 6469 C 583.029 0.400503 -4.26122 0
M  V30 6470 C 582.356 1.49674 -5.13324 0
M  V30 6471 C 583.656 -0.688924 -5.17737 0
M  V30 6472 H 585.35 -0.668819 -2.91834 0
M  V30 6473 H 582.896 -0.32308 -1.40329 0
M  V30 6474 H 584.849 1.5541 -3.91696 0
M  V30 6475 H 583.572 1.82984 -2.70526 0
M  V30 6476 H 582.231 -0.0743687 -3.66525 0
M  V30 6477 H 581.88 2.25877 -4.49431 0
M  V30 6478 H 581.58 1.06188 -5.77926 0
M  V30 6479 H 583.104 1.99427 -5.77115 0
M  V30 6480 H 584.518 -0.276724 -5.72632 0
M  V30 6481 H 582.915 -1.04652 -5.90904 0
M  V30 6482 H 583.985 -1.55884 -4.5916 0
M  V30 6483 O 585.367 1.53348 -0.50662 0
M  V30 6484 H 586.058 1.93698 0.00952266 0
M  V30 END ATOM
M  V30 BEGIN BOND
M  V30 END BOND
M  V30 END CTAB
M  END
$$$$
