drugbank_target|Q8WWQ8 Stabilin-2 (DB08818)
 OpenBabel12092121013D

  0  0  0     0  0            999 V3000
M  V30 BEGIN CTAB
M  V30 COUNTS 37950 38341 0 0 0
M  V30 BEGIN ATOM
M  V30 1 H -0.908 1.98254 -0.117106 0
M  V30 2 N 0 1.576 0 0
M  V30 3 C 0.933 2.03868 1.02534 0
M  V30 4 C 1.911 0.928543 1.3348 0
M  V30 5 O 3.095 1.19667 1.45644 0
M  V30 6 C 0.222 2.43627 2.35294 0
M  V30 7 C -0.732 3.65373 2.2001 0
M  V30 8 S 0.101 5.13292 1.52614 0
M  V30 9 C 1.257 5.56322 2.86805 0
M  V30 10 H 1.49 2.90518 0.631377 0
M  V30 11 H -0.977 1.52953 0.210867 0
M  V30 12 H 0.981 2.67203 3.11629 0
M  V30 13 H -0.358 1.57376 2.7183 0
M  V30 14 H -1.165 3.90944 3.18086 0
M  V30 15 H -1.563 3.418 1.51819 0
M  V30 16 H 0.729 5.58782 3.83104 0
M  V30 17 H 1.672 6.56266 2.65933 0
M  V30 18 H 2.08 4.83886 2.90714 0
M  V30 19 N 1.4781 -0.272755 1.55222 0
M  V30 20 C 2.4111 -1.3627 1.83046 0
M  V30 21 C 3.3891 -1.47536 0.683521 0
M  V30 22 O 4.5731 -1.64157 0.926545 0
M  V30 23 C 1.7001 -2.73908 1.99229 0
M  V30 24 C 0.7461 -2.79925 3.21783 0
M  V30 25 S 1.5791 -2.39146 4.79134 0
M  V30 26 C 2.7351 -3.78758 4.9829 0
M  V30 27 H 2.9681 -1.12464 2.75207 0
M  V30 28 H 0.5011 -0.472398 1.46996 0
M  V30 29 H 2.4591 -3.53171 2.09238 0
M  V30 30 H 1.1201 -2.94965 1.07956 0
M  V30 31 H 0.3131 -3.80946 3.29994 0
M  V30 32 H -0.0849 -2.08683 3.10367 0
M  V30 33 H 2.2071 -4.7403 4.84047 0
M  V30 34 H 3.1501 -3.75499 6.00338 0
M  V30 35 H 3.5581 -3.70072 4.26271 0
M  V30 36 N 2.9562 -1.48159 -0.537278 0
M  V30 37 C 3.8862 -1.65029 -1.6519 0
M  V30 38 C 4.8672 -0.499281 -1.62607 0
M  V30 39 O 6.0522 -0.730972 -1.79918 0
M  V30 40 C 3.1822 -1.68303 -3.03795 0
M  V30 41 C 2.1362 -2.8283 -3.21234 0
M  V30 42 C 1.4622 -2.71189 -4.60826 0
M  V30 43 C 2.7622 -4.24211 -3.04701 0
M  V30 44 H 4.4562 -2.58341 -1.51328 0
M  V30 45 H 2.0022 -1.24325 -0.726585 0
M  V30 46 H 3.9552 -1.78693 -3.81637 0
M  V30 47 H 2.6792 -0.715635 -3.18663 0
M  V30 48 H 1.3382 -2.71983 -2.45807 0
M  V30 49 H 0.9862 -1.72435 -4.7252 0
M  V30 50 H 0.6862 -3.48035 -4.7344 0
M  V30 51 H 2.2102 -2.83537 -5.40777 0
M  V30 52 H 3.6242 -4.3593 -3.72341 0
M  V30 53 H 2.0212 -5.01998 -3.28813 0
M  V30 54 H 3.0912 -4.41184 -2.01209 0
M  V30 55 N 4.4343 0.785586 -1.36625 0
M  V30 56 C 5.3663 1.90711 -1.2713 0
M  V30 57 C 6.3793 1.61688 -0.189986 0
M  V30 58 O 7.5683 1.72864 -0.445014 0
M  V30 59 C 4.6683 3.25611 -0.939713 0
M  V30 60 C 3.8413 3.82385 -2.12369 0
M  V30 61 C 2.9003 4.95732 -1.76456 0
M  V30 62 O 1.9263 5.12047 -2.48589 0
M  V30 63 N 3.1283 5.76258 -0.700492 0
M  V30 64 H 5.8933 1.99376 -2.23762 0
M  V30 65 H 3.4543 0.964041 -1.30069 0
M  V30 66 H 5.4463 3.98937 -0.680554 0
M  V30 67 H 4.0163 3.12538 -0.0624074 0
M  V30 68 H 3.2363 3.01001 -2.54543 0
M  V30 69 H 4.5243 4.17047 -2.9146 0
M  V30 70 H 3.9223 5.65609 -0.101624 0
M  V30 71 H 2.4793 6.4987 -0.501165 0
M  V30 72 N 5.9124 1.20967 1.01018 0
M  V30 73 C 6.8624 0.93182 2.08089 0
M  V30 74 C 7.8464 -0.110898 1.60517 0
M  V30 75 O 9.0384 0.0973392 1.76732 0
M  V30 76 C 6.1674 0.492719 3.39746 0
M  V30 77 C 5.2534 1.56922 3.94 0
M  V30 78 N 5.6444 2.79312 4.21686 0
M  V30 79 C 3.9424 1.43688 4.2222 0
M  V30 80 C 4.6434 3.48797 4.65527 0
M  V30 81 N 3.6194 2.76224 4.68189 0
M  V30 82 H 7.4214 1.86175 2.27412 0
M  V30 83 H 4.9354 1.10463 1.19045 0
M  V30 84 H 6.9324 0.275044 4.15992 0
M  V30 85 H 5.5924 -0.430509 3.21833 0
M  V30 86 H 6.6034 3.15903 4.10397 0
M  V30 87 H 3.2804 0.578548 4.13472 0
M  V30 88 H 4.6704 4.53561 4.95714 0
M  V30 89 N 7.3905 -1.2043 1.01659 0
M  V30 90 C 8.3205 -2.25466 0.607226 0
M  V30 91 C 9.3015 -1.65853 -0.377716 0
M  V30 92 O 10.4865 -1.92409 -0.263149 0
M  V30 93 C 7.6165 -3.47256 -0.0552949 0
M  V30 94 C 6.5705 -4.19462 0.850632 0
M  V30 95 C 5.8965 -5.34673 0.0538859 0
M  V30 96 C 7.1965 -4.75603 2.15868 0
M  V30 97 H 8.8905 -2.59962 1.48526 0
M  V30 98 H 6.4365 -1.2496 0.715605 0
M  V30 99 H 8.3895 -4.19917 -0.353233 0
M  V30 100 H 7.1135 -3.11924 -0.968045 0
M  V30 101 H 5.7725 -3.48667 1.13257 0
M  V30 102 H 5.4205 -4.95585 -0.860514 0
M  V30 103 H 5.1205 -5.83913 0.657192 0
M  V30 104 H 6.6445 -6.10138 -0.237598 0
M  V30 105 H 8.0585 -5.40083 1.92311 0
M  V30 106 H 6.4555 -5.3528 2.71284 0
M  V30 107 H 7.5255 -3.94346 2.82169 0
M  V30 108 N 8.8686 -0.792821 -1.36206 0
M  V30 109 C 10.1146 -0.36733 -1.99446 0
M  V30 110 C 10.4476 1.05917 -1.62774 0
M  V30 111 O 9.7226 1.7324 -0.88421 0
M  V30 112 C 10.0056 -0.535044 -3.56103 0
M  V30 113 C 9.8586 -2.00548 -4.02617 0
M  V30 114 C 11.1776 0.0478191 -4.40074 0
M  V30 115 H 8.2966 -0.134941 -0.724541 0
M  V30 116 H 10.9386 -0.999794 -1.61568 0
M  V30 117 H 9.0886 0.00336329 -3.885 0
M  V30 118 H 10.7606 -2.60521 -3.80692 0
M  V30 119 H 9.0036 -2.50686 -3.54032 0
M  V30 120 H 9.6746 -2.07377 -5.11565 0
M  V30 121 H 12.1506 -0.411822 -4.14057 0
M  V30 122 H 11.0266 -0.0995336 -5.4881 0
M  V30 123 H 11.2876 1.14025 -4.27142 0
M  V30 124 N 10.3467 1.47872 -0.545128 0
M  V30 125 C 11.5957 2.01695 -0.0145033 0
M  V30 126 C 11.9087 1.42609 1.33873 0
M  V30 127 O 13.1147 1.88021 1.95858 0
M  V30 128 C 11.5707 3.59892 0.0245068 0
M  V30 129 C 11.1787 4.27966 -1.32475 0
M  V30 130 C 12.9227 4.21507 0.50316 0
M  V30 131 C 10.8297 5.78136 -1.2455 0
M  V30 132 H 9.7597 0.753998 -0.00165172 0
M  V30 133 H 12.4107 1.69985 -0.691175 0
M  V30 134 H 10.7927 3.88509 0.766575 0
M  V30 135 H 11.9667 4.11003 -2.08357 0
M  V30 136 H 10.2817 3.78286 -1.74036 0
M  V30 137 H 12.8787 5.31538 0.580656 0
M  V30 138 H 13.2217 3.87855 1.51243 0
M  V30 139 H 13.7547 3.97376 -0.183681 0
M  V30 140 H 10.4937 6.16388 -2.23039 0
M  V30 141 H 10.0137 5.97469 -0.528282 0
M  V30 142 H 11.6927 6.40099 -0.942488 0
M  V30 143 N 11.8248 0.280983 1.55075 0
M  V30 144 C 13.0718 -0.334115 1.99725 0
M  V30 145 C 13.3998 -1.5542 1.1694 0
M  V30 146 O 12.6548 -1.94361 0.228531 0
M  V30 147 C 12.9538 -0.754656 3.49342 0
M  V30 148 C 12.6198 0.361445 4.49449 0
M  V30 149 C 11.2818 0.667893 4.76542 0
M  V30 150 C 13.6338 1.11322 5.09173 0
M  V30 151 C 10.9618 1.7296 5.60626 0
M  V30 152 C 13.3138 2.1647 5.9441 0
M  V30 153 C 11.9778 2.47742 6.19822 0
M  V30 154 H 11.2478 -0.122261 0.730844 0
M  V30 155 H 13.8948 0.395917 1.87363 0
M  V30 156 H 12.1998 -1.56446 3.5921 0
M  V30 157 H 13.8968 -1.24142 3.813 0
M  V30 158 H 10.4868 0.112481 4.28452 0
M  V30 159 H 14.6708 0.88973 4.8826 0
M  V30 160 H 9.9268 1.97684 5.78559 0
M  V30 161 H 14.1008 2.75193 6.3972 0
M  V30 162 H 11.7278 3.30145 6.84769 0
M  V30 163 N 13.3029 -1.57598 0.00835791 0
M  V30 164 C 14.5429 -1.92788 -0.679136 0
M  V30 165 C 14.9069 -0.883378 -1.70471 0
M  V30 166 O 16.1079 -1.12079 -2.44319 0
M  V30 167 C 14.3789 -3.32994 -1.29807 0
M  V30 168 S 15.9379 -3.90082 -2.00952 0
M  V30 169 H 12.7559 -0.67475 -0.224127 0
M  V30 170 H 15.3579 -1.95385 0.0670497 0
M  V30 171 H 14.0619 -4.06846 -0.538922 0
M  V30 172 H 13.5929 -3.33791 -2.082 0
M  V30 173 H 15.6079 -3.71834 -3.28563 0
M  V30 174 N 14.781 0.264519 -1.55364 0
M  V30 175 C 15.711 1.33121 -1.91836 0
M  V30 176 C 16.692 1.51101 -0.781192 0
M  V30 177 O 17.877 1.64003 -1.04003 0
M  V30 178 C 15.007 2.68921 -2.19769 0
M  V30 179 C 13.961 2.65661 -3.35571 0
M  V30 180 C 13.287 4.05093 -3.49004 0
M  V30 181 C 14.587 2.24187 -4.71739 0
M  V30 182 H 16.281 1.02844 -2.81182 0
M  V30 183 H 13.827 0.493286 -1.35287 0
M  V30 184 H 15.78 3.43663 -2.43872 0
M  V30 185 H 14.504 3.00799 -1.27231 0
M  V30 186 H 13.163 1.93377 -3.1145 0
M  V30 187 H 12.811 4.34206 -2.53917 0
M  V30 188 H 12.511 4.03804 -4.26868 0
M  V30 189 H 14.035 4.81561 -3.75408 0
M  V30 190 H 15.449 2.88654 -4.9533 0
M  V30 191 H 13.846 2.34044 -5.52579 0
M  V30 192 H 14.916 1.19327 -4.69988 0
M  V30 193 N 16.2591 1.48442 0.529413 0
M  V30 194 C 17.5071 1.56179 1.28267 0
M  V30 195 C 17.8281 0.237721 1.93546 0
M  V30 196 O 17.0981 -0.740779 1.81354 0
M  V30 197 H 15.6781 0.575367 0.476405 0
M  V30 198 H 18.3401 1.84909 0.61602 0
M  V30 199 H 17.4361 2.34312 2.06165 0
M  V30 200 N 17.7372 -0.778329 1.37039 0
M  V30 201 C 18.6672 -1.90546 1.34962 0
M  V30 202 C 19.6482 -1.68681 0.219274 0
M  V30 203 O 20.8332 -1.89634 0.418624 0
M  V30 204 C 17.9632 -3.27734 1.14925 0
M  V30 205 C 16.9172 -3.64147 2.24902 0
M  V30 206 C 16.2432 -4.99806 1.89996 0
M  V30 207 C 17.5432 -3.71579 3.67051 0
M  V30 208 H 19.2372 -1.92541 2.29277 0
M  V30 209 H 16.7832 -0.924948 1.10366 0
M  V30 210 H 18.7362 -4.06215 1.12104 0
M  V30 211 H 17.4602 -3.26154 0.170631 0
M  V30 212 H 16.1192 -2.8797 2.26868 0
M  V30 213 H 15.7672 -4.94759 0.906796 0
M  V30 214 H 15.4672 -5.25139 2.63634 0
M  V30 215 H 16.9912 -5.80694 1.88749 0
M  V30 216 H 18.4052 -4.40227 3.67251 0
M  V30 217 H 16.8022 -4.08405 4.39688 0
M  V30 218 H 17.8722 -2.72404 4.01154 0
M  V30 219 N 19.2153 -1.21501 -1.00376 0
M  V30 220 C 20.4613 -1.03452 -1.74429 0
M  V30 221 C 20.7943 0.430764 -1.89362 0
M  V30 222 O 20.0693 1.31962 -1.42886 0
M  V30 223 C 20.3523 -1.73375 -3.15615 0
M  V30 224 C 20.2053 -3.27431 -3.08397 0
M  V30 225 C 21.5243 -1.47732 -4.14564 0
M  V30 226 H 18.6433 -0.377226 -0.633143 0
M  V30 227 H 21.2853 -1.49693 -1.17013 0
M  V30 228 H 19.4353 -1.34064 -3.64636 0
M  V30 229 H 21.1073 -3.76119 -2.67081 0
M  V30 230 H 19.3503 -3.5767 -2.45468 0
M  V30 231 H 20.0213 -3.71524 -4.08258 0
M  V30 232 H 22.4973 -1.8186 -3.74254 0
M  V30 233 H 21.3733 -1.99169 -5.11491 0
M  V30 234 H 21.6343 -0.407589 -4.40217 0
M  V30 235 N 20.6934 1.19889 -1.02296 0
M  V30 236 C 21.9394 1.89701 -0.717033 0
M  V30 237 C 22.2724 1.7905 0.751989 0
M  V30 238 O 21.5474 1.17891 1.547 0
M  V30 239 C 21.8304 3.40858 -1.16136 0
M  V30 240 C 21.6834 3.60411 -2.69117 0
M  V30 241 C 23.0024 4.33876 -0.737549 0
M  V30 242 H 20.1214 0.688874 -0.261957 0
M  V30 243 H 22.7634 1.41154 -1.27183 0
M  V30 244 H 20.9134 3.82335 -0.689342 0
M  V30 245 H 22.5854 3.28145 -3.2422 0
M  V30 246 H 20.8284 3.03665 -3.0979 0
M  V30 247 H 21.4994 4.66396 -2.95261 0
M  V30 248 H 23.9754 4.00081 -1.14344 0
M  V30 249 H 22.8514 5.38242 -1.0764 0
M  V30 250 H 23.1124 4.40628 0.360436 0
M  V30 251 N 22.1715 0.800033 1.35784 0
M  V30 252 C 23.1035 0.163596 2.28615 0
M  V30 253 C 24.1165 -0.633317 1.49976 0
M  V30 254 O 25.3055 -0.466754 1.72289 0
M  V30 255 C 22.4055 -0.790958 3.29541 0
M  V30 256 C 21.5785 -0.0418255 4.3738 0
M  V30 257 C 20.6375 -0.91389 5.18203 0
M  V30 258 O 19.6635 -0.367234 5.68014 0
M  V30 259 N 20.8655 -2.23682 5.35674 0
M  V30 260 H 23.6305 0.96105 2.83873 0
M  V30 261 H 21.1915 0.654894 1.48063 0
M  V30 262 H 23.1835 -1.37844 3.80501 0
M  V30 263 H 21.7535 -1.48925 2.74846 0
M  V30 264 H 20.9735 0.726813 3.87442 0
M  V30 265 H 22.2615 0.474719 5.06581 0
M  V30 266 H 21.6595 -2.70497 4.96838 0
M  V30 267 H 20.2165 -2.77369 5.89839 0
M  V30 268 N 23.6496 -1.47581 0.552962 0
M  V30 269 C 24.5976 -2.31648 -0.21023 0
M  V30 270 C 25.5916 -1.42663 -0.913432 0
M  V30 271 O 26.7976 -1.5945 -0.835201 0
M  V30 272 H 23.1726 -0.746989 -0.0866676 0
M  V30 273 H 25.1436 -2.93869 0.518051 0
M  V30 274 C 23.8926 -3.25226 -1.22976 0
M  V30 275 H 23.2156 -3.93658 -0.698077 0
M  V30 276 H 24.6556 -3.86889 -1.73473 0
M  V30 277 C 23.1146 -2.48448 -2.27542 0
M  V30 278 O 23.6446 -2.22585 -3.34393 0
M  V30 279 N 21.8506 -2.09532 -2.01357 0
M  V30 280 H 21.3976 -2.30765 -1.14478 0
M  V30 281 H 21.3556 -1.58476 -2.71538 0
M  V30 282 N 25.1277 -0.289203 -1.54924 0
M  V30 283 C 26.3747 0.323519 -1.99899 0
M  V30 284 C 26.7027 1.54797 -1.17762 0
M  V30 285 O 25.9577 1.94237 -0.238835 0
M  V30 286 C 26.2567 0.736119 -3.49737 0
M  V30 287 C 25.9227 -0.385276 -4.49251 0
M  V30 288 C 24.5847 -0.693156 -4.76181 0
M  V30 289 C 26.9367 -1.14021 -5.08575 0
M  V30 290 C 24.2647 -1.7593 -5.59701 0
M  V30 291 C 26.6167 -2.19619 -5.93254 0
M  V30 292 C 25.2807 -2.51026 -6.185 0
M  V30 293 H 24.5507 0.118384 -0.731482 0
M  V30 294 H 27.1977 -0.405847 -1.8715 0
M  V30 295 H 25.5027 1.54539 -3.60035 0
M  V30 296 H 27.1997 1.22118 -3.81953 0
M  V30 297 H 23.7897 -0.135202 -4.28387 0
M  V30 298 H 27.9737 -0.915611 -4.87781 0
M  V30 299 H 23.2297 -2.0075 -5.77503 0
M  V30 300 H 27.4037 -2.78581 -6.38252 0
M  V30 301 H 25.0307 -3.33772 -6.83008 0
M  V30 302 N 26.6058 1.57591 -0.0167156 0
M  V30 303 C 27.8458 1.93145 0.668902 0
M  V30 304 C 28.2098 0.892406 1.7 0
M  V30 305 O 29.4108 1.13373 2.43721 0
M  V30 306 C 27.6818 3.33678 1.28039 0
M  V30 307 S 29.2408 3.91142 1.9888 0
M  V30 308 H 26.0588 0.67593 0.220545 0
M  V30 309 H 28.6608 1.95347 -0.0774105 0
M  V30 310 H 27.3648 4.07126 0.517339 0
M  V30 311 H 26.8958 3.3489 2.06427 0
M  V30 312 H 28.9108 3.73571 3.26587 0
M  V30 313 N 28.0839 -0.256276 1.55502 0
M  V30 314 C 29.3089 -1.00766 1.81276 0
M  V30 315 C 29.7339 -1.78524 0.59252 0
M  V30 316 O 29.0919 -1.75413 -0.45827 0
M  V30 317 C 29.1399 -1.92869 3.04687 0
M  V30 318 O 28.2439 -3.019 2.80945 0
M  V30 319 H 27.5849 -0.287224 0.598664 0
M  V30 320 H 30.1149 -0.280109 2.02674 0
M  V30 321 H 30.1249 -2.34511 3.33869 0
M  V30 322 H 28.7999 -1.35689 3.93143 0
M  V30 323 H 27.3769 -2.64454 2.62904 0
M  V30 324 N 29.562 -1.4872 -0.521534 0
M  V30 325 C 30.973 -1.50607 -1.10337 0
M  V30 326 C 31.324 -0.280612 -1.94183 0
M  V30 327 O 30.449 0.611507 -2.0758 0
M  V30 328 C 31.044 -2.72903 -2.00772 0
M  V30 329 C 29.603 -2.77634 -2.54158 0
M  V30 330 C 28.75 -2.44241 -1.31307 0
M  V30 331 H 31.701 -1.55714 -0.306388 0
M  V30 332 H 31.722 -2.519 -2.85178 0
M  V30 333 H 31.234 -3.62077 -1.39721 0
M  V30 334 H 29.335 -1.92689 -3.18907 0
M  V30 335 H 29.448 -3.79283 -2.92714 0
M  V30 336 H 27.812 -1.95577 -1.63161 0
M  V30 337 H 28.595 -3.35666 -0.719943 0
M  V30 338 N 31.0401 0.771051 -1.3745 0
M  V30 339 C 32.0031 1.86598 -1.33093 0
M  V30 340 C 33.0031 1.59076 -0.234845 0
M  V30 341 O 34.1931 1.67145 -0.490732 0
M  V30 342 C 31.3251 3.23747 -1.06773 0
M  V30 343 H 32.5181 1.91873 -2.30488 0
M  V30 344 H 30.0711 0.970876 -1.2249 0
M  V30 345 H 30.8061 3.24148 -0.099129 0
M  V30 346 H 30.5911 3.45115 -1.86112 0
M  V30 347 H 32.0811 4.03824 -1.06377 0
M  V30 348 N 32.5182 1.22032 0.997298 0
M  V30 349 C 33.4282 1.00271 2.12092 0
M  V30 350 C 34.4442 -0.047621 1.73935 0
M  V30 351 O 35.6202 0.144136 2.00884 0
M  V30 352 C 32.6852 0.578449 3.4184 0
M  V30 353 C 31.7462 1.70189 3.94125 0
M  V30 354 C 30.9792 1.29778 5.17681 0
M  V30 355 O 31.2022 0.174676 5.70132 0
M  V30 356 O 30.1362 2.11261 5.63607 0
M  V30 357 H 33.9622 1.94398 2.3333 0
M  V30 358 H 31.5472 1.00587 1.10465 0
M  V30 359 H 33.4292 0.351998 4.19927 0
M  V30 360 H 32.1042 -0.334019 3.21972 0
M  V30 361 H 31.0112 1.98282 3.1723 0
M  V30 362 H 32.3442 2.59206 4.18417 0
M  V30 363 N 33.9963 -1.19345 1.0293 0
M  V30 364 C 35.2243 -1.92997 0.745644 0
M  V30 365 C 35.6393 -1.75519 -0.695589 0
M  V30 366 O 34.9963 -1.07737 -1.47306 0
M  V30 367 C 35.0473 -3.44741 1.08792 0
M  V30 368 O 34.7683 -3.61658 2.47256 0
M  V30 369 C 36.2693 -4.35515 0.827129 0
M  V30 370 H 33.4893 -0.613042 0.272801 0
M  V30 371 H 36.0333 -1.51473 1.3739 0
M  V30 372 H 34.1883 -3.84097 0.504832 0
M  V30 373 H 34.6023 -4.55514 2.60015 0
M  V30 374 H 36.0763 -5.40589 1.11658 0
M  V30 375 H 36.5533 -4.38552 -0.238436 0
M  V30 376 H 37.1593 -4.01841 1.39297 0
M  V30 377 N 35.4744 -0.807222 -1.35358 0
M  V30 378 C 36.7024 -0.400377 -2.02989 0
M  V30 379 C 37.1174 0.988859 -1.60832 0
M  V30 380 O 36.4744 1.63729 -0.806175 0
M  V30 381 C 36.5254 -0.474867 -3.58368 0
M  V30 382 O 36.2464 -1.80933 -3.98992 0
M  V30 383 C 37.7474 -0.0609112 -4.43258 0
M  V30 384 H 34.9674 -0.162587 -0.651004 0
M  V30 385 H 37.5114 -1.09102 -1.72965 0
M  V30 386 H 35.6664 0.167534 -3.87038 0
M  V30 387 H 36.0804 -1.77256 -4.9364 0
M  V30 388 H 37.5544 -0.164145 -5.51756 0
M  V30 389 H 38.0314 0.993831 -4.27808 0
M  V30 390 H 38.6374 -0.676492 -4.19885 0
M  V30 391 N 36.9525 1.47285 -0.560781 0
M  V30 392 C 38.2005 2.02064 -0.0379868 0
M  V30 393 C 38.5215 1.43711 1.31803 0
M  V30 394 O 37.7915 0.61362 1.86042 0
M  V30 395 H 36.3715 0.746918 -0.0110531 0
M  V30 396 H 39.0335 1.80648 -0.731598 0
M  V30 397 H 38.1295 3.12064 0.0474463 0
M  V30 398 N 38.4306 0.297415 1.54768 0
M  V30 399 C 39.3626 -0.613881 2.20826 0
M  V30 400 C 40.3756 -1.10032 1.19987 0
M  V30 401 O 41.5646 -1.01839 1.46598 0
M  V30 402 C 38.6646 -1.852 2.83821 0
M  V30 403 C 37.8376 -1.50865 4.10559 0
M  V30 404 C 36.8966 -2.60154 4.57391 0
M  V30 405 O 35.9226 -2.25398 5.2267 0
M  V30 406 N 37.1246 -3.90629 4.29406 0
M  V30 407 H 39.8896 -0.048389 2.99661 0
M  V30 408 H 37.4506 0.11946 1.61459 0
M  V30 409 H 39.4426 -2.57652 3.12086 0
M  V30 410 H 38.0126 -2.32597 2.08847 0
M  V30 411 H 37.2326 -0.616925 3.89343 0
M  V30 412 H 38.5206 -1.25458 4.9309 0
M  V30 413 H 37.9186 -4.21677 3.77101 0
M  V30 414 H 36.4756 -4.59391 4.62388 0
M  V30 415 N 39.9087 -1.5758 0.0250728 0
M  V30 416 C 40.8717 -2.08896 -0.943139 0
M  V30 417 C 41.8717 -1.00321 -1.25668 0
M  V30 418 O 43.0617 -1.26495 -1.19769 0
M  V30 419 C 40.1937 -2.55143 -2.26086 0
M  V30 420 H 41.3867 -2.95723 -0.498775 0
M  V30 421 H 38.9397 -1.54703 -0.222888 0
M  V30 422 H 39.6747 -1.71633 -2.75159 0
M  V30 423 H 39.4597 -3.34461 -2.04641 0
M  V30 424 H 40.9497 -2.95083 -2.95492 0
M  V30 425 N 41.3868 0.248026 -1.55636 0
M  V30 426 C 42.8028 0.596483 -1.48035 0
M  V30 427 C 43.0028 1.88386 -0.715039 0
M  V30 428 O 42.0588 2.51319 -0.243944 0
M  V30 429 C 43.3718 0.700258 -2.92433 0
M  V30 430 C 44.9198 0.792659 -3.02797 0
M  V30 431 C 45.3948 0.928005 -4.485 0
M  V30 432 N 46.8858 0.992903 -4.52433 0
M  V30 433 C 47.6208 1.11687 -5.62418 0
M  V30 434 N 47.1168 1.20645 -6.82214 0
M  V30 435 N 48.9098 1.14994 -5.50212 0
M  V30 436 H 41.0608 -0.597109 -2.03834 0
M  V30 437 H 43.3238 -0.205925 -0.925364 0
M  V30 438 H 43.0298 -0.175658 -3.51261 0
M  V30 439 H 42.9038 1.57255 -3.42857 0
M  V30 440 H 45.2908 1.65903 -2.4405 0
M  V30 441 H 45.3718 -0.104762 -2.55585 0
M  V30 442 H 45.0158 0.0661971 -5.07857 0
M  V30 443 H 44.9458 1.84045 -4.93391 0
M  V30 444 H 47.4368 0.935064 -3.66149 0
M  V30 445 H 47.7498 1.30008 -7.61786 0
M  V30 446 H 46.0948 1.17605 -6.84977 0
M  V30 447 H 49.2858 1.07643 -4.55555 0
M  V30 448 H 49.4588 1.24311 -6.35965 0
M  V30 449 N 42.8649 1.48995 0.513639 0
M  V30 450 C 44.2809 1.35478 0.843682 0
M  V30 451 C 44.4809 0.378213 1.97919 0
M  V30 452 O 43.5369 -0.194689 2.51748 0
M  V30 453 C 44.8499 2.75901 1.1958 0
M  V30 454 C 46.3979 2.84509 1.30474 0
M  V30 455 C 46.8729 4.25671 1.69021 0
M  V30 456 N 48.3639 4.28422 1.76094 0
M  V30 457 C 49.0989 5.34601 2.07338 0
M  V30 458 N 48.5949 6.5104 2.36894 0
M  V30 459 N 50.3879 5.22007 2.08483 0
M  V30 460 H 42.5389 2.11092 -0.235328 0
M  V30 461 H 44.8019 0.947039 -0.0426669 0
M  V30 462 H 44.5079 3.49001 0.434913 0
M  V30 463 H 44.3819 3.10467 2.1422 0
M  V30 464 H 46.7689 2.11655 2.05637 0
M  V30 465 H 46.8499 2.53542 0.339155 0
M  V30 466 H 46.4939 4.99048 0.944135 0
M  V30 467 H 46.4239 4.54094 2.66658 0
M  V30 468 H 48.9149 3.44441 1.55464 0
M  V30 469 H 49.2279 7.2779 2.59887 0
M  V30 470 H 47.5729 6.54287 2.34378 0
M  V30 471 H 50.7639 4.30051 1.84861 0
M  V30 472 H 50.9369 6.04854 2.325 0
M  V30 473 N 44.343 -0.763751 1.37857 0
M  V30 474 C 45.583 -1.53551 1.34913 0
M  V30 475 C 45.947 -1.91895 -0.0635882 0
M  V30 476 O 47.148 -2.67916 -0.217825 0
M  V30 477 C 45.419 -2.76126 2.26912 0
M  V30 478 S 46.978 -3.66105 2.41893 0
M  V30 479 H 43.796 -0.52559 0.478828 0
M  V30 480 H 46.398 -0.897435 1.73685 0
M  V30 481 H 45.102 -2.4605 3.28463 0
M  V30 482 H 44.633 -3.44887 1.89253 0
M  V30 483 H 46.648 -4.68473 1.63545 0
M  V30 484 N 45.8211 -1.22559 -0.990812 0
M  V30 485 C 47.0981 -0.959875 -1.70428 0
M  V30 486 C 47.4781 0.524455 -2.04481 0
M  V30 487 O 46.8261 1.49302 -1.72977 0
M  V30 488 C 47.0361 -1.85955 -2.95333 0
M  V30 489 C 48.3841 -2.11687 -3.68068 0
M  V30 490 O 49.4081 -1.8342 -3.05345 0
M  V30 491 O 48.2671 -2.59572 -4.80921 0
M  V30 492 H 45.3611 -0.361154 -0.743974 0
M  V30 493 H 47.9071 -1.33554 -1.04697 0
M  V30 494 H 46.6791 -2.86346 -2.66687 0
M  V30 495 H 46.3021 -1.4856 -3.68803 0
M  V30 496 N 47.2992 1.18797 -1.03562 0
M  V30 497 C 48.7152 1.40671 -0.753917 0
M  V30 498 C 48.9152 1.9043 0.658686 0
M  V30 499 O 47.9712 2.08538 1.42366 0
M  V30 500 C 49.2842 2.41192 -1.79574 0
M  V30 501 C 50.8322 2.54928 -1.81606 0
M  V30 502 C 51.3072 3.58709 -2.84766 0
M  V30 503 N 52.7982 3.66212 -2.83625 0
M  V30 504 C 53.5332 4.46225 -3.60098 0
M  V30 505 N 53.0292 5.29888 -4.46308 0
M  V30 506 N 54.8222 4.40939 -3.4861 0
M  V30 507 H 46.9732 0.848221 -1.94728 0
M  V30 508 H 49.2362 0.435081 -0.842264 0
M  V30 509 H 48.9422 2.11669 -2.80872 0
M  V30 510 H 48.8162 3.40467 -1.62365 0
M  V30 511 H 51.2032 2.83771 -0.809817 0
M  V30 512 H 51.2842 1.55784 -2.02891 0
M  V30 513 H 50.9282 3.30607 -3.85566 0
M  V30 514 H 50.8582 4.57519 -2.60737 0
M  V30 515 H 53.3492 3.06466 -2.21105 0
M  V30 516 H 53.6622 5.88078 -5.01382 0
M  V30 517 H 52.0072 5.29326 -4.50377 0
M  V30 518 H 55.1982 3.74624 -2.80668 0
M  V30 519 H 55.3712 5.03056 -4.08459 0
M  V30 520 N 48.7773 0.814389 1.34928 0
M  V30 521 C 49.7243 0.22822 2.29669 0
M  V30 522 C 50.6943 -0.642164 1.53184 0
M  V30 523 O 51.8793 -0.585605 1.81591 0
M  V30 524 C 49.0193 -0.61089 3.3965 0
M  V30 525 C 48.1323 0.280792 4.31086 0
M  V30 526 C 47.2673 -0.567067 5.28165 0
M  V30 527 C 46.3063 0.324531 6.11239 0
M  V30 528 N 45.4433 -0.483756 7.00431 0
M  V30 529 H 50.2833 1.04153 2.79206 0
M  V30 530 H 47.8203 0.525133 1.37407 0
M  V30 531 H 49.7783 -1.11263 4.0209 0
M  V30 532 H 48.4083 -1.38939 2.91369 0
M  V30 533 H 47.4603 0.900688 3.69583 0
M  V30 534 H 48.7723 0.966723 4.89342 0
M  V30 535 H 47.9263 -1.13363 5.96015 0
M  V30 536 H 46.6653 -1.28654 4.70425 0
M  V30 537 H 45.6703 0.903298 5.42329 0
M  V30 538 H 46.8953 1.04198 6.71059 0
M  V30 539 H 44.8413 -1.18706 6.45171 0
M  V30 540 H 44.7583 0.143965 7.55863 0
M  V30 541 H 46.0263 -1.03334 7.7262 0
M  V30 542 N 50.2554 -1.46986 0.568584 0
M  V30 543 C 51.4804 -2.07335 0.0520528 0
M  V30 544 C 51.9054 -1.41675 -1.23733 0
M  V30 545 O 51.2634 -0.495623 -1.74394 0
M  V30 546 C 51.3114 -3.60417 -0.11501 0
M  V30 547 O 50.4154 -3.95309 -1.17492 0
M  V30 548 H 49.7564 -0.661597 0.0564385 0
M  V30 549 H 52.2864 -1.88837 0.787507 0
M  V30 550 H 52.2964 -4.06698 -0.325644 0
M  V30 551 H 50.9714 -4.07601 0.826675 0
M  V30 552 H 49.5484 -3.60757 -0.943869 0
M  V30 553 N 51.7335 -0.305618 -1.54608 0
M  V30 554 C 52.6635 0.561482 -2.26649 0
M  V30 555 C 53.6445 1.13415 -1.26772 0
M  V30 556 O 54.8295 1.16262 -1.55553 0
M  V30 557 C 51.9595 1.73122 -3.01075 0
M  V30 558 C 50.9135 1.2887 -4.08138 0
M  V30 559 C 50.2395 2.54396 -4.70305 0
M  V30 560 C 51.5395 0.416578 -5.20636 0
M  V30 561 H 53.2335 -0.0393902 -2.99374 0
M  V30 562 H 50.7795 -0.020385 -1.43986 0
M  V30 563 H 52.7325 2.34396 -3.50195 0
M  V30 564 H 51.4565 2.3584 -2.25936 0
M  V30 565 H 50.1155 0.698991 -3.59875 0
M  V30 566 H 49.7635 3.15439 -3.918 0
M  V30 567 H 49.4635 2.25486 -5.42614 0
M  V30 568 H 50.9875 3.16464 -5.2219 0
M  V30 569 H 52.4015 0.935116 -5.65622 0
M  V30 570 H 50.7985 0.221046 -5.99693 0
M  V30 571 H 51.8685 -0.557162 -4.81688 0
M  V30 572 N 53.2116 1.57565 -0.0334293 0
M  V30 573 C 54.1416 2.13511 0.945265 0
M  V30 574 C 55.1226 1.05231 1.33643 0
M  V30 575 O 56.3076 1.33084 1.41429 0
M  V30 576 C 53.4376 2.6657 2.22616 0
M  V30 577 C 52.3916 3.79676 1.97561 0
M  V30 578 C 51.7176 4.1918 3.31952 0
M  V30 579 C 53.0176 5.0557 1.31135 0
M  V30 580 H 54.7116 2.95538 0.479325 0
M  V30 581 H 52.2576 1.42166 0.229115 0
M  V30 582 H 54.2106 3.04344 2.91466 0
M  V30 583 H 52.9346 1.8171 2.71384 0
M  V30 584 H 51.5936 3.42347 1.31127 0
M  V30 585 H 51.2416 3.31296 3.78487 0
M  V30 586 H 50.9416 4.95402 3.15992 0
M  V30 587 H 52.4656 4.59541 4.02063 0
M  V30 588 H 53.8796 5.40903 1.89992 0
M  V30 589 H 52.2766 5.86818 1.25559 0
M  V30 590 H 53.3466 4.84062 0.284894 0
M  V30 591 N 54.6897 -0.239769 1.55765 0
M  V30 592 C 55.9177 -0.98417 1.81994 0
M  V30 593 C 56.3327 -1.7867 0.610124 0
M  V30 594 O 55.6897 -1.77571 -0.421271 0
M  V30 595 C 55.7407 -1.91635 3.06526 0
M  V30 596 O 55.4617 -1.14629 4.22838 0
M  V30 597 C 56.9627 -2.77616 3.45607 0
M  V30 598 H 54.1827 -0.28928 0.605441 0
M  V30 599 H 56.7267 -0.260499 2.02834 0
M  V30 600 H 54.8817 -2.5942 2.87715 0
M  V30 601 H 55.2957 -1.77745 4.93464 0
M  V30 602 H 56.7697 -3.38759 4.35828 0
M  V30 603 H 57.2467 -3.4909 2.6652 0
M  V30 604 H 57.8527 -2.15271 3.66795 0
M  V30 605 N 56.1678 -1.49265 -0.50573 0
M  V30 606 C 57.4168 -1.57761 -1.25675 0
M  V30 607 C 57.7298 -0.267371 -1.93764 0
M  V30 608 O 58.9358 -0.230827 -2.70517 0
M  V30 609 C 57.3918 -2.78332 -2.28165 0
M  V30 610 C 56.9998 -4.16096 -1.66037 0
M  V30 611 C 58.7438 -2.96155 -3.04125 0
M  V30 612 C 56.6508 -5.27895 -2.6661 0
M  V30 613 H 55.5808 -0.587391 -0.472745 0
M  V30 614 H 58.2318 -1.75644 -0.53118 0
M  V30 615 H 56.6138 -2.53934 -3.03865 0
M  V30 616 H 57.7878 -4.50612 -0.963622 0
M  V30 617 H 56.1028 -4.03591 -1.02484 0
M  V30 618 H 58.6998 -3.76849 -3.79327 0
M  V30 619 H 59.0428 -2.06534 -3.61455 0
M  V30 620 H 59.5758 -3.2057 -2.35541 0
M  V30 621 H 56.3148 -6.1956 -2.14068 0
M  V30 622 H 55.8348 -4.97839 -3.34539 0
M  V30 623 H 57.5138 -5.57031 -3.29129 0
M  V30 624 N 57.6459 0.756429 -1.3826 0
M  V30 625 C 59.0619 1.0591 -1.19395 0
M  V30 626 C 59.2619 2.01459 -0.0406567 0
M  V30 627 O 58.3179 2.44909 0.614467 0
M  V30 628 C 59.6309 1.64191 -2.51916 0
M  V30 629 C 61.1789 1.76376 -2.58574 0
M  V30 630 C 61.6539 2.38069 -3.91264 0
M  V30 631 N 63.1449 2.45503 -3.92788 0
M  V30 632 C 63.8799 2.94126 -4.92217 0
M  V30 633 N 63.3759 3.42805 -6.02043 0
M  V30 634 N 65.1689 2.9314 -4.7961 0
M  V30 635 H 57.3199 0.122313 -2.12048 0
M  V30 636 H 59.5829 0.116892 -0.940766 0
M  V30 637 H 59.2889 1.01451 -3.3675 0
M  V30 638 H 59.1629 2.6329 -2.70108 0
M  V30 639 H 61.5499 2.38244 -1.74137 0
M  V30 640 H 61.6309 0.759894 -2.44252 0
M  V30 641 H 61.2749 1.76835 -4.76121 0
M  V30 642 H 61.2049 3.39091 -4.02895 0
M  V30 643 H 63.6959 2.1107 -3.13461 0
M  V30 644 H 64.0089 3.78354 -6.73846 0
M  V30 645 H 62.3539 3.4087 -6.05667 0
M  V30 646 H 65.5449 2.54419 -3.92923 0
M  V30 647 H 65.7179 3.30721 -5.5725 0
M  V30 648 N 59.124 1.23083 0.984299 0
M  V30 649 C 60.352 1.08714 1.76037 0
M  V30 650 C 60.767 -0.361691 1.85303 0
M  V30 651 O 60.124 -1.25034 1.32939 0
M  V30 652 C 60.175 1.70206 3.18923 0
M  V30 653 O 59.896 3.09423 3.10144 0
M  V30 654 C 61.397 1.61227 4.12941 0
M  V30 655 H 58.617 0.380664 0.552572 0
M  V30 656 H 61.161 1.62853 1.23689 0
M  V30 657 H 59.316 1.20109 3.6831 0
M  V30 658 H 59.73 3.39188 4.00065 0
M  V30 659 H 61.204 2.08962 5.10919 0
M  V30 660 H 61.681 0.570375 4.35481 0
M  V30 661 H 62.287 2.10671 3.69456 0
M  V30 662 N 60.6021 -1.18246 1.0419 0
M  V30 663 C 61.5121 -2.25574 0.644476 0
M  V30 664 C 62.5281 -1.70845 -0.329826 0
M  V30 665 O 63.7041 -2.00554 -0.184443 0
M  V30 666 C 60.7691 -3.46697 0.014877 0
M  V30 667 C 59.8301 -4.16554 1.03834 0
M  V30 668 C 59.0631 -5.31894 0.438692 0
M  V30 669 O 59.2861 -5.65385 -0.754752 0
M  V30 670 O 58.2201 -5.90459 1.168 0
M  V30 671 H 62.0461 -2.61836 1.53869 0
M  V30 672 H 59.6311 -1.25352 0.812854 0
M  V30 673 H 61.5131 -4.20062 -0.335538 0
M  V30 674 H 60.1881 -3.12255 -0.853138 0
M  V30 675 H 59.0951 -3.45251 1.44057 0
M  V30 676 H 60.4281 -4.54998 1.87716 0
M  V30 677 N 62.0802 -0.821533 -1.34494 0
M  V30 678 C 63.3202 -0.414785 -2.00147 0
M  V30 679 C 63.6842 1.00299 -1.6372 0
M  V30 680 O 64.8852 1.51255 -2.22206 0
M  V30 681 C 63.1562 -0.609403 -3.52166 0
M  V30 682 S 64.7152 -0.295297 -4.37805 0
M  V30 683 H 61.5332 -0.15679 -0.693497 0
M  V30 684 H 64.1352 -1.06705 -1.63812 0
M  V30 685 H 62.8392 -1.64096 -3.76166 0
M  V30 686 H 62.3702 0.0576414 -3.93358 0
M  V30 687 H 64.3852 0.891531 -4.88125 0
M  V30 688 N 63.5583 1.46682 -0.576371 0
M  V30 689 C 64.9743 1.57822 -0.237562 0
M  V30 690 C 65.1743 1.57237 1.26011 0
M  V30 691 O 64.2303 1.48596 2.04146 0
M  V30 692 C 65.5433 2.87499 -0.881168 0
M  V30 693 C 67.0913 3.01119 -0.85417 0
M  V30 694 C 67.5663 4.33524 -1.4772 0
M  V30 695 N 69.0573 4.40207 -1.44125 0
M  V30 696 C 69.7923 5.4126 -1.89276 0
M  V30 697 N 69.2883 6.49021 -2.42371 0
M  V30 698 N 71.0813 5.32422 -1.80231 0
M  V30 699 H 63.2323 1.45306 -1.54919 0
M  V30 700 H 65.4953 0.692733 -0.647167 0
M  V30 701 H 65.2013 2.9372 -1.93447 0
M  V30 702 H 65.0753 3.75224 -0.385592 0
M  V30 703 H 67.4623 2.94485 0.190491 0
M  V30 704 H 67.5433 2.14887 -1.3877 0
M  V30 705 H 67.1873 4.40916 -2.52103 0
M  V30 706 H 67.1173 5.1852 -0.918947 0
M  V30 707 H 69.6083 3.62931 -1.05307 0
M  V30 708 H 69.9213 7.2233 -2.74698 0
M  V30 709 H 68.2663 6.49858 -2.46393 0
M  V30 710 H 71.4573 4.47137 -1.38514 0
M  V30 711 H 71.6303 6.11034 -2.15735 0
M  V30 712 N 65.0364 0.313813 1.54444 0
M  V30 713 C 66.2614 -0.296681 2.05267 0
M  V30 714 C 66.6864 -1.45757 1.18897 0
M  V30 715 O 66.0444 -1.80239 0.195886 0
M  V30 716 C 66.0924 -0.71831 3.53373 0
M  V30 717 O 65.1964 -1.82175 3.69981 0
M  V30 718 H 64.5374 -0.0554061 0.661684 0
M  V30 719 H 67.0674 0.459387 1.99376 0
M  V30 720 H 67.0774 -1.00364 3.95463 0
M  V30 721 H 65.7524 0.130821 4.15694 0
M  V30 722 H 64.3294 -1.53598 3.39797 0
M  V30 723 N 66.5145 -1.57545 0.0417849 0
M  V30 724 C 67.7545 -1.94185 -0.63809 0
M  V30 725 C 68.1185 -0.919339 -1.68559 0
M  V30 726 O 69.3195 -1.17236 -2.41886 0
M  V30 727 C 67.5905 -3.35672 -1.22714 0
M  V30 728 S 69.1495 -3.94256 -1.92633 0
M  V30 729 H 65.9675 -0.679353 -0.209764 0
M  V30 730 H 68.5695 -1.95199 0.108479 0
M  V30 731 H 67.2735 -4.07898 -0.452503 0
M  V30 732 H 66.8045 -3.38132 -2.01073 0
M  V30 733 H 68.8195 -3.7872 -3.20602 0
M  V30 734 N 67.9926 0.231505 -1.5589 0
M  V30 735 C 68.9556 1.27028 -1.90779 0
M  V30 736 C 69.9556 1.40308 -0.785507 0
M  V30 737 O 71.1456 1.38744 -1.05336 0
M  V30 738 C 68.2776 2.64566 -2.14983 0
M  V30 739 H 69.4706 0.973017 -2.83677 0
M  V30 740 H 67.0236 0.471486 -1.49019 0
M  V30 741 H 67.7586 2.99406 -1.24604 0
M  V30 742 H 67.5436 2.56305 -2.96732 0
M  V30 743 H 69.0336 3.39543 -2.43105 0
M  V30 744 N 69.4707 1.49531 0.497807 0
M  V30 745 C 70.4007 1.6935 1.60757 0
M  V30 746 C 71.3817 0.542218 1.61227 0
M  V30 747 O 72.5667 0.778417 1.77917 0
M  V30 748 C 69.6967 1.76298 2.99226 0
M  V30 749 C 68.6507 2.91248 3.13622 0
M  V30 750 C 67.9767 2.83312 4.53474 0
M  V30 751 C 69.2767 4.3214 2.93346 0
M  V30 752 H 70.9707 2.62263 1.44425 0
M  V30 753 H 68.5167 1.26208 0.693367 0
M  V30 754 H 70.4697 1.88749 3.76765 0
M  V30 755 H 69.1937 0.799871 3.16654 0
M  V30 756 H 67.8527 2.78404 2.38509 0
M  V30 757 H 67.5007 1.84902 4.67782 0
M  V30 758 H 67.2007 3.60465 4.64046 0
M  V30 759 H 68.7247 2.97775 5.33069 0
M  V30 760 H 70.1387 4.45649 3.60652 0
M  V30 761 H 68.5357 5.1054 3.15387 0
M  V30 762 H 69.6057 4.46363 1.89441 0
M  V30 763 N 70.9488 -0.749086 1.3866 0
M  V30 764 C 71.8968 -1.88428 1.36373 0
M  V30 765 C 72.8908 -1.67561 0.248929 0
M  V30 766 O 74.0968 -1.75074 0.41821 0
M  V30 767 H 70.4718 -0.620023 0.42553 0
M  V30 768 H 72.4428 -1.87473 2.32156 0
M  V30 769 C 71.1918 -3.25961 1.21014 0
M  V30 770 H 70.5148 -3.42607 2.06059 0
M  V30 771 H 71.9548 -4.05625 1.23469 0
M  V30 772 C 70.4138 -3.36799 -0.0825941 0
M  V30 773 O 70.9438 -3.87517 -1.05797 0
M  V30 774 N 69.1498 -2.90258 -0.140939 0
M  V30 775 H 68.6968 -2.49174 0.653477 0
M  V30 776 H 68.6548 -2.97889 -1.00545 0
M  V30 777 N 72.4269 -1.23603 -0.977757 0
M  V30 778 C 73.3569 -1.04401 -2.0886 0
M  V30 779 C 74.3379 0.0399052 -1.70053 0
M  V30 780 O 75.5229 -0.125246 -1.93796 0
M  V30 781 C 72.6529 -0.637269 -3.41403 0
M  V30 782 C 71.6069 -1.66883 -3.94124 0
M  V30 783 C 70.9329 -1.11745 -5.22893 0
M  V30 784 C 72.2329 -3.06247 -4.23096 0
M  V30 785 H 73.9269 -1.97316 -2.25182 0
M  V30 786 H 71.4729 -0.950096 -1.08209 0
M  V30 787 H 73.4259 -0.48998 -4.18542 0
M  V30 788 H 72.1499 0.327557 -3.24953 0
M  V30 789 H 70.8089 -1.80416 -3.19133 0
M  V30 790 H 70.4569 -0.143527 -5.02795 0
M  V30 791 H 70.1569 -1.80672 -5.59134 0
M  V30 792 H 71.6809 -0.982067 -6.02651 0
M  V30 793 H 73.0949 -2.96001 -4.90975 0
M  V30 794 H 71.4919 -3.72436 -4.70544 0
M  V30 795 H 72.5619 -3.55041 -3.30263 0
M  V30 796 N 73.905 1.17692 -1.04816 0
M  V30 797 C 75.153 1.87488 -0.754497 0
M  V30 798 C 75.474 1.81205 0.720407 0
M  V30 799 O 74.744 1.23544 1.52032 0
M  V30 800 H 73.324 0.694101 -0.276102 0
M  V30 801 H 75.986 1.42793 -1.32651 0
M  V30 802 H 75.082 2.93328 -1.06606 0
M  V30 803 N 75.3831 0.828654 1.34056 0
M  V30 804 C 76.6291 0.42008 1.98402 0
M  V30 805 C 76.9621 -1.01564 1.65525 0
M  V30 806 O 76.2371 -1.70834 0.929831 0
M  V30 807 C 76.5201 0.62927 3.54559 0
M  V30 808 C 76.3731 2.11152 3.97159 0
M  V30 809 C 77.6921 0.0688756 4.40046 0
M  V30 810 H 74.8111 0.154104 0.720709 0
M  V30 811 H 77.4531 1.04228 1.5886 0
M  V30 812 H 75.6031 0.0996418 3.88372 0
M  V30 813 H 77.2751 2.70522 3.73651 0
M  V30 814 H 75.5181 2.59985 3.47261 0
M  V30 815 H 76.1891 2.20868 5.05887 0
M  V30 816 H 78.6651 0.521458 4.1282 0
M  V30 817 H 77.5411 0.245006 5.48353 0
M  V30 818 H 77.8021 -1.0266 4.30015 0
M  V30 819 N 76.8612 -1.46375 0.584142 0
M  V30 820 C 77.8082 -2.30323 -0.148286 0
M  V30 821 C 78.7782 -1.40703 -0.882713 0
M  V30 822 O 79.9632 -1.69651 -0.873099 0
M  V30 823 C 77.1032 -3.25196 -1.15507 0
M  V30 824 C 76.2162 -4.29915 -0.423943 0
M  V30 825 C 75.3512 -5.11914 -1.41838 0
M  V30 826 C 74.3902 -6.08381 -0.673736 0
M  V30 827 N 73.5272 -6.83242 -1.6163 0
M  V30 828 H 78.3672 -2.92427 0.573644 0
M  V30 829 H 75.9042 -1.44118 0.294703 0
M  V30 830 H 77.8622 -3.78646 -1.75166 0
M  V30 831 H 76.4922 -2.64898 -1.8447 0
M  V30 832 H 75.5442 -3.7931 0.287714 0
M  V30 833 H 76.8562 -4.98549 0.158128 0
M  V30 834 H 76.0102 -5.69648 -2.08773 0
M  V30 835 H 74.7492 -4.43243 -2.03438 0
M  V30 836 H 73.7542 -5.49799 0.00938483 0
M  V30 837 H 74.9792 -6.79071 -0.0631082 0
M  V30 838 H 72.9252 -6.1728 -2.22038 0
M  V30 839 H 72.8422 -7.48144 -1.08707 0
M  V30 840 H 74.1102 -7.45534 -2.27596 0
M  V30 841 N 78.3393 -0.321999 -1.54275 0
M  V30 842 C 79.5793 0.281657 -2.0245 0
M  V30 843 C 79.9433 1.49468 -1.20513 0
M  V30 844 O 81.1443 2.17109 -1.58484 0
M  V30 845 C 79.4153 0.609014 -3.52173 0
M  V30 846 S 80.9743 1.19255 -4.22284 0
M  V30 847 H 77.7923 0.0852825 -0.705867 0
M  V30 848 H 80.3943 -0.454758 -1.90137 0
M  V30 849 H 79.0983 -0.281982 -4.0943 0
M  V30 850 H 78.6293 1.37567 -3.68563 0
M  V30 851 H 80.6443 2.47944 -4.29812 0
M  V30 852 N 79.8174 1.5752 -0.0501392 0
M  V30 853 C 81.2284 1.80271 0.485705 0
M  V30 854 C 81.5794 0.96228 1.70981 0
M  V30 855 O 80.7044 0.178578 2.15662 0
M  V30 856 C 81.2994 3.26957 0.887938 0
M  V30 857 C 79.8584 3.5063 1.36877 0
M  V30 858 C 79.0054 2.75165 0.343468 0
M  V30 859 H 81.9564 1.56281 -0.276028 0
M  V30 860 H 81.9774 3.37821 1.75093 0
M  V30 861 H 81.4894 3.881 -0.0031809 0
M  V30 862 H 79.5904 2.94766 2.27911 0
M  V30 863 H 79.7034 4.59343 1.36164 0
M  V30 864 H 78.0674 2.4127 0.816128 0
M  V30 865 H 78.8504 3.39034 -0.539548 0
M  V30 866 N 81.2955 -0.223234 1.56011 0
M  V30 867 C 82.5725 -0.972108 1.69733 0
M  V30 868 C 82.9525 -2.02485 0.59691 0
M  V30 869 O 82.3005 -2.25037 -0.396324 0
M  V30 870 C 82.5105 -1.58407 3.10979 0
M  V30 871 C 83.8585 -2.07696 3.70334 0
M  V30 872 O 84.8825 -1.68304 3.1393 0
M  V30 873 O 83.7415 -2.80096 4.69264 0
M  V30 874 H 80.8355 -0.453993 0.691245 0
M  V30 875 H 83.3815 -0.215149 1.68331 0
M  V30 876 H 82.1535 -0.823831 3.82529 0
M  V30 877 H 81.7765 -2.40661 3.16493 0
M  V30 878 N 82.7736 -1.49793 -0.48987 0
M  V30 879 C 84.0216 -1.59525 -1.24081 0
M  V30 880 C 84.3426 -0.288953 -1.92847 0
M  V30 881 O 83.6126 0.692436 -1.83254 0
M  V30 882 H 82.1926 -0.587796 -0.460983 0
M  V30 883 H 84.8546 -1.86477 -0.566778 0
M  V30 884 H 83.9506 -2.39696 -1.99881 0
M  V30 885 N 84.2517 0.741722 -1.39055 0
M  V30 886 C 85.4817 1.52876 -1.3897 0
M  V30 887 C 85.8897 1.8919 0.0193266 0
M  V30 888 O 85.2327 1.54138 0.999356 0
M  V30 889 C 85.2947 2.84929 -2.19216 0
M  V30 890 C 84.9587 2.71086 -3.67915 0
M  V30 891 C 85.9557 2.40084 -4.61146 0
M  V30 892 C 83.6407 2.88168 -4.11418 0
M  V30 893 C 85.6347 2.26335 -5.95862 0
M  V30 894 C 83.3217 2.74037 -5.46211 0
M  V30 895 C 84.3197 2.43166 -6.38247 0
M  V30 896 O 84.0077 2.29115 -7.70559 0
M  V30 897 H 83.7397 0.479252 -0.476753 0
M  V30 898 H 86.2937 0.924751 -1.83405 0
M  V30 899 H 84.5237 3.47564 -1.69518 0
M  V30 900 H 86.2127 3.46509 -2.11392 0
M  V30 901 H 86.9787 2.26545 -4.28838 0
M  V30 902 H 82.8577 3.11191 -3.40119 0
M  V30 903 H 86.4017 2.0216 -6.67665 0
M  V30 904 H 82.2987 2.87153 -5.78112 0
M  V30 905 H 83.0667 2.44237 -7.81211 0
M  V30 906 N 85.7298 1.2412 0.971189 0
M  V30 907 C 86.9578 1.10575 1.74874 0
M  V30 908 C 87.3728 -0.342017 1.85676 0
M  V30 909 O 86.7298 -1.23617 1.34258 0
M  V30 910 C 86.7808 1.73579 3.171 0
M  V30 911 O 86.5018 3.12695 3.06844 0
M  V30 912 C 88.0028 1.65598 4.11208 0
M  V30 913 H 85.2228 0.386504 0.548503 0
M  V30 914 H 87.7668 1.64156 1.21955 0
M  V30 915 H 85.9218 1.24009 3.67016 0
M  V30 916 H 86.3358 3.43412 3.96445 0
M  V30 917 H 87.8098 2.1437 5.08674 0
M  V30 918 H 88.2868 0.616532 4.34851 0
M  V30 919 H 88.8928 2.14578 3.67201 0
M  V30 920 N 87.2079 -1.17134 1.05439 0
M  V30 921 C 88.1409 -2.2012 0.601855 0
M  V30 922 C 89.1189 -1.58314 -0.370854 0
M  V30 923 O 90.3029 -1.8638 -0.281882 0
M  V30 924 C 87.4299 -3.38491 -0.118868 0
M  V30 925 C 86.4759 -4.18752 0.809242 0
M  V30 926 S 87.3089 -4.83602 2.29977 0
M  V30 927 C 88.4649 -6.0536 1.59029 0
M  V30 928 H 88.6979 -2.58165 1.47438 0
M  V30 929 H 86.2309 -1.27788 0.866573 0
M  V30 930 H 88.1889 -4.07084 -0.528495 0
M  V30 931 H 86.8499 -2.98829 -0.967465 0
M  V30 932 H 86.0429 -5.03373 0.251379 0
M  V30 933 H 85.6449 -3.5561 1.15835 0
M  V30 934 H 87.9369 -6.71615 0.891017 0
M  V30 935 H 88.8799 -6.65679 2.41407 0
M  V30 936 H 89.2879 -5.54138 1.07663 0
M  V30 937 N 88.686 -0.835752 -1.33615 0
M  V30 938 C 89.935 -0.426289 -1.97144 0
M  V30 939 C 90.248 1.01912 -1.66953 0
M  V30 940 O 91.454 1.53311 -2.24072 0
M  V30 941 C 89.91 -0.711321 -3.52801 0
M  V30 942 C 89.518 -2.1712 -3.91871 0
M  V30 943 C 91.262 -0.368654 -4.22896 0
M  V30 944 C 89.169 -2.40044 -5.40493 0
M  V30 945 H 88.099 -0.15567 -0.737755 0
M  V30 946 H 90.75 -1.0239 -1.52278 0
M  V30 947 H 89.132 -0.0433766 -3.95976 0
M  V30 948 H 90.306 -2.87936 -3.59763 0
M  V30 949 H 88.621 -2.47654 -3.34749 0
M  V30 950 H 91.218 -0.517601 -5.32189 0
M  V30 951 H 91.561 0.688078 -4.10574 0
M  V30 952 H 92.094 -0.991702 -3.8524 0
M  V30 953 H 88.833 -3.44271 -5.57815 0
M  V30 954 H 88.353 -1.73785 -5.74072 0
M  V30 955 H 90.032 -2.23042 -6.0734 0
M  V30 956 N 90.1641 1.46063 -0.591896 0
M  V30 957 C 91.3921 2.06717 -0.0868936 0
M  V30 958 C 91.8071 1.43916 1.22203 0
M  V30 959 O 91.1641 0.547698 1.74088 0
M  V30 960 C 91.2151 3.6142 0.0758725 0
M  V30 961 O 90.9361 4.21874 -1.18126 0
M  V30 962 C 92.4371 4.39025 0.61416 0
M  V30 963 H 89.6571 0.668162 -0.0616518 0
M  V30 964 H 92.2011 1.8755 -0.815175 0
M  V30 965 H 90.3561 3.79983 0.754413 0
M  V30 966 H 90.7701 5.14861 -1.00092 0
M  V30 967 H 92.2441 5.4783 0.677193 0
M  V30 968 H 92.7211 4.07708 1.63312 0
M  V30 969 H 93.3271 4.2529 -0.0298142 0
M  V30 970 N 91.6422 0.330177 1.54103 0
M  V30 971 C 92.8672 -0.274893 2.0557 0
M  V30 972 C 93.2922 -1.44487 1.20437 0
M  V30 973 O 92.6502 -1.80021 0.214991 0
M  V30 974 C 92.6982 -0.68079 3.54115 0
M  V30 975 O 91.8022 -1.7824 3.71893 0
M  V30 976 H 91.1432 -0.0483849 0.662235 0
M  V30 977 H 93.6732 0.480508 1.98878 0
M  V30 978 H 93.6832 -0.961635 3.96505 0
M  V30 979 H 92.3582 0.174903 4.15532 0
M  V30 980 H 90.9352 -1.49985 3.41407 0
M  V30 981 N 93.1203 -1.57491 0.0584922 0
M  V30 982 C 94.3683 -1.92597 -0.612436 0
M  V30 983 C 94.6893 -0.938162 -1.70949 0
M  V30 984 O 93.9593 0.0158301 -1.95894 0
M  V30 985 H 92.5393 -0.710964 -0.229214 0
M  V30 986 H 95.2013 -1.94571 0.113218 0
M  V30 987 H 94.2973 -2.94038 -1.04633 0
M  V30 988 N 94.5984 0.214957 -1.56127 0
M  V30 989 C 95.8234 0.95924 -1.83884 0
M  V30 990 C 96.2484 1.7689 -0.639644 0
M  V30 991 O 95.6064 1.76566 0.411601 0
M  V30 992 C 95.6544 1.84723 -3.09693 0
M  V30 993 O 94.7584 2.94346 -2.8885 0
M  V30 994 H 94.0994 0.27125 -0.606069 0
M  V30 995 H 96.6294 0.226276 -2.03345 0
M  V30 996 H 96.6394 2.25576 -3.39969 0
M  V30 997 H 95.3144 1.25218 -3.96602 0
M  V30 998 H 93.8914 2.57391 -2.69823 0
M  V30 999 N 96.0765 1.50051 0.48192 0
M  V30 1000 C 97.3225 1.60736 1.2366 0
M  V30 1001 C 97.6555 0.301786 1.91841 0
M  V30 1002 O 96.9305 -0.696025 1.8162 0
M  V30 1003 C 97.2135 2.78009 2.28874 0
M  V30 1004 C 97.0665 4.18416 1.65069 0
M  V30 1005 C 98.3855 2.90867 3.30279 0
M  V30 1006 H 95.5045 0.585031 0.448228 0
M  V30 1007 H 98.1465 1.82402 0.531946 0
M  V30 1008 H 96.2965 2.59667 2.88973 0
M  V30 1009 H 97.9685 4.48322 1.0865 0
M  V30 1010 H 96.2115 4.23177 0.954148 0
M  V30 1011 H 96.8825 4.96381 2.41474 0
M  V30 1012 H 99.3585 3.07623 2.80191 0
M  V30 1013 H 98.2345 3.74566 4.01238 0
M  V30 1014 H 98.4955 2.01021 3.93755 0
M  V30 1015 N 97.5546 -0.734337 1.39446 0
M  V30 1016 C 98.8026 -1.49096 1.36436 0
M  V30 1017 C 99.1236 -1.94961 -0.0388255 0
M  V30 1018 O 98.3936 -1.69033 -0.990191 0
M  V30 1019 H 96.9736 -0.5531 0.502085 0
M  V30 1020 H 99.6356 -0.871725 1.74319 0
M  V30 1021 H 98.7316 -2.37276 2.02747 0
M  V30 1022 N 99.0327 -1.24633 -0.964593 0
M  V30 1023 C 100.279 -1.08949 -1.71049 0
M  V30 1024 C 100.612 0.370302 -1.90637 0
M  V30 1025 O 99.8867 1.27349 -1.47011 0
M  V30 1026 C 100.17 -1.83329 -3.0994 0
M  V30 1027 C 100.023 -3.37077 -2.97824 0
M  V30 1028 C 101.342 -1.60846 -4.09654 0
M  V30 1029 H 98.4607 -0.397178 -0.620821 0
M  V30 1030 H 101.103 -1.5334 -1.12191 0
M  V30 1031 H 99.2527 -1.45597 -3.60186 0
M  V30 1032 H 100.925 -3.84425 -2.5498 0
M  V30 1033 H 99.1677 -3.65298 -2.33965 0
M  V30 1034 H 99.8387 -3.84324 -3.96231 0
M  V30 1035 H 102.315 -1.93674 -3.68279 0
M  V30 1036 H 101.191 -2.1534 -5.04896 0
M  V30 1037 H 101.452 -0.547434 -4.38698 0
M  V30 1038 N 100.511 1.16574 -1.06058 0
M  V30 1039 C 101.927 1.3904 -0.783585 0
M  V30 1040 C 102.127 1.91784 0.618145 0
M  V30 1041 O 101.183 2.11511 1.37911 0
M  V30 1042 C 102.496 2.37329 -1.84649 0
M  V30 1043 C 104.044 2.51018 -1.86973 0
M  V30 1044 C 104.519 3.52588 -2.92311 0
M  V30 1045 N 106.01 3.60113 -2.91329 0
M  V30 1046 C 106.745 4.38486 -3.69482 0
M  V30 1047 N 106.241 5.20302 -4.57447 0
M  V30 1048 N 108.034 4.33446 -3.57885 0
M  V30 1049 H 100.185 0.806725 -1.96483 0
M  V30 1050 H 102.448 0.417117 -0.851303 0
M  V30 1051 H 102.154 2.05663 -2.85299 0
M  V30 1052 H 102.028 3.36946 -1.6955 0
M  V30 1053 H 104.415 2.81989 -0.869827 0
M  V30 1054 H 104.496 1.51445 -2.0615 0
M  V30 1055 H 104.14 3.22354 -3.92492 0
M  V30 1056 H 104.07 4.51886 -2.70383 0
M  V30 1057 H 106.561 3.01707 -2.27555 0
M  V30 1058 H 106.874 5.77311 -5.13743 0
M  V30 1059 H 105.219 5.19653 -4.61503 0
M  V30 1060 H 108.41 3.68586 -2.88551 0
M  V30 1061 H 108.583 4.94279 -4.19037 0
M  V30 1062 N 101.989 0.842826 1.3317 0
M  V30 1063 C 103.266 0.362216 1.92217 0
M  V30 1064 C 103.646 -1.15289 1.76838 0
M  V30 1065 O 102.994 -1.96914 1.15919 0
M  V30 1066 C 103.204 0.813495 3.39387 0
M  V30 1067 C 104.552 0.823804 4.16532 0
M  V30 1068 O 105.576 0.757358 3.48055 0
M  V30 1069 O 104.435 0.915193 5.38782 0
M  V30 1070 H 101.529 0.103317 0.820521 0
M  V30 1071 H 104.075 0.928942 1.42017 0
M  V30 1072 H 102.847 1.85624 3.4447 0
M  V30 1073 H 102.47 0.223561 3.96971 0
M  V30 1074 N 103.467 -1.45747 0.599634 0
M  V30 1075 C 104.707 -2.04181 0.0946309 0
M  V30 1076 C 105.071 -1.45895 -1.24815 0
M  V30 1077 O 106.272 -1.95633 -1.8434 0
M  V30 1078 C 104.543 -3.57368 0.047581 0
M  V30 1079 S 106.102 -4.36997 -0.397387 0
M  V30 1080 H 102.92 -0.70953 0.0456954 0
M  V30 1081 H 105.522 -1.78564 0.795946 0
M  V30 1082 H 104.226 -3.97303 1.02852 0
M  V30 1083 H 103.757 -3.87549 -0.675977 0
M  V30 1084 H 105.772 -4.68012 -1.64862 0
M  V30 1085 N 104.945 -0.338344 -1.53925 0
M  V30 1086 C 106.361 0.0137736 -1.59594 0
M  V30 1087 C 106.561 1.49186 -1.35447 0
M  V30 1088 O 105.617 2.24987 -1.14616 0
M  V30 1089 C 106.93 -0.41773 -2.97784 0
M  V30 1090 C 108.478 -0.369633 -3.1081 0
M  V30 1091 C 108.953 -0.776524 -4.51369 0
M  V30 1092 N 110.444 -0.730506 -4.57403 0
M  V30 1093 C 111.179 -1.01736 -5.64303 0
M  V30 1094 N 110.675 -1.3721 -6.79077 0
M  V30 1095 N 112.468 -0.941942 -5.54151 0
M  V30 1096 H 104.619 -1.3012 -1.67876 0
M  V30 1097 H 106.882 -0.530082 -0.78595 0
M  V30 1098 H 106.588 -1.44811 -3.20504 0
M  V30 1099 H 106.462 0.209729 -3.76616 0
M  V30 1100 H 108.849 0.651568 -2.87817 0
M  V30 1101 H 108.93 -1.03223 -2.34049 0
M  V30 1102 H 108.574 -1.79571 -4.75096 0
M  V30 1103 H 108.504 -0.0914649 -5.26521 0
M  V30 1104 H 110.995 -0.468783 -3.74981 0
M  V30 1105 H 111.308 -1.57597 -7.5656 0
M  V30 1106 H 109.653 -1.4105 -6.80536 0
M  V30 1107 H 112.844 -0.664184 -4.63364 0
M  V30 1108 H 113.017 -1.16884 -6.37371 0
M  V30 1109 N 106.423 1.57458 -0.0668435 0
M  V30 1110 C 107.653 1.97337 0.611677 0
M  V30 1111 C 108.061 0.943744 1.63982 0
M  V30 1112 O 107.404 -0.0785584 1.83532 0
M  V30 1113 C 107.466 3.33511 1.34205 0
M  V30 1114 C 107.13 4.54598 0.467941 0
M  V30 1115 C 108.127 5.19186 -0.272439 0
M  V30 1116 C 105.812 5.0075 0.39427 0
M  V30 1117 C 107.806 6.28274 -1.07476 0
M  V30 1118 C 105.493 6.09711 -0.411729 0
M  V30 1119 C 106.491 6.73335 -1.14492 0
M  V30 1120 O 106.179 7.80199 -1.93763 0
M  V30 1121 H 105.911 0.654042 0.170893 0
M  V30 1122 H 108.465 2.04961 -0.134289 0
M  V30 1123 H 106.695 3.22487 2.13398 0
M  V30 1124 H 108.384 3.58029 1.91233 0
M  V30 1125 H 109.15 4.84477 -0.225086 0
M  V30 1126 H 105.029 4.51009 0.954569 0
M  V30 1127 H 108.573 6.77866 -1.64755 0
M  V30 1128 H 104.47 6.43854 -0.460664 0
M  V30 1129 H 105.238 7.97053 -1.86142 0
M  V30 1130 N 107.901 -0.206675 1.56239 0
M  V30 1131 C 109.129 -0.945345 1.8404 0
M  V30 1132 C 109.544 -1.77336 0.647885 0
M  V30 1133 O 108.901 -1.78425 -0.383511 0
M  V30 1134 C 108.952 -1.8509 3.10522 0
M  V30 1135 O 108.673 -1.05634 4.25174 0
M  V30 1136 C 110.174 -2.70222 3.51418 0
M  V30 1137 H 107.394 -0.276372 0.61144 0
M  V30 1138 H 109.938 -0.217417 2.03341 0
M  V30 1139 H 108.093 -2.53259 2.93153 0
M  V30 1140 H 108.507 -1.67238 4.97124 0
M  V30 1141 H 109.981 -3.29438 4.42916 0
M  V30 1142 H 110.458 -3.43358 2.73864 0
M  V30 1143 H 111.064 -2.07443 3.71278 0
M  V30 1144 N 109.379 -1.50304 -0.473955 0
M  V30 1145 C 110.626 -1.6115 -1.22625 0
M  V30 1146 C 110.954 -0.310517 -1.92005 0
M  V30 1147 O 110.209 0.703419 -1.82621 0
M  V30 1148 C 110.508 -2.73938 -2.29549 0
M  V30 1149 C 110.174 -4.14519 -1.7744 0
M  V30 1150 C 108.836 -4.5277 -1.62949 0
M  V30 1151 C 111.188 -5.02392 -1.3875 0
M  V30 1152 C 108.516 -5.76639 -1.08187 0
M  V30 1153 C 110.868 -6.26805 -0.854309 0
M  V30 1154 C 109.532 -6.63861 -0.696011 0
M  V30 1155 H 108.802 -0.589691 -0.448715 0
M  V30 1156 H 111.449 -1.84228 -0.522705 0
M  V30 1157 H 109.754 -2.44937 -3.05799 0
M  V30 1158 H 111.451 -2.79534 -2.87509 0
M  V30 1159 H 108.041 -3.8434 -1.89685 0
M  V30 1160 H 112.225 -4.73474 -1.4878 0
M  V30 1161 H 107.481 -6.04027 -0.946666 0
M  V30 1162 H 111.655 -6.94258 -0.545843 0
M  V30 1163 H 109.282 -7.59722 -0.26952 0
M  V30 1164 N 110.857 0.726932 -1.39834 0
M  V30 1165 C 111.767 1.87131 -1.41489 0
M  V30 1166 C 112.783 1.71239 -0.308757 0
M  V30 1167 O 113.959 1.93701 -0.551529 0
M  V30 1168 C 111.024 3.22811 -1.26468 0
M  V30 1169 C 110.085 3.51039 -2.47124 0
M  V30 1170 C 109.318 4.80245 -2.3281 0
M  V30 1171 O 109.541 5.54537 -1.33585 0
M  V30 1172 O 108.475 5.08554 -3.21957 0
M  V30 1173 H 112.301 1.8869 -2.3797 0
M  V30 1174 H 109.886 0.875837 -1.21035 0
M  V30 1175 H 111.768 4.03877 -1.20255 0
M  V30 1176 H 110.443 3.22005 -0.330862 0
M  V30 1177 H 109.35 2.70027 -2.58914 0
M  V30 1178 H 110.683 3.56632 -3.39227 0
M  V30 1179 N 112.336 1.25143 0.95797 0
M  V30 1180 C 113.582 1.09855 1.70469 0
M  V30 1181 C 113.915 -0.360187 1.90831 0
M  V30 1182 O 113.19 -1.26568 1.47685 0
M  V30 1183 C 113.473 1.8497 3.08963 0
M  V30 1184 C 113.326 3.38652 2.96032 0
M  V30 1185 C 114.645 1.63016 4.08795 0
M  V30 1186 H 111.764 0.400465 0.618706 0
M  V30 1187 H 114.406 1.53933 1.11376 0
M  V30 1188 H 112.556 1.47505 3.59409 0
M  V30 1189 H 114.228 3.85772 2.52938 0
M  V30 1190 H 112.471 3.66534 2.32025 0
M  V30 1191 H 113.142 3.8642 3.94187 0
M  V30 1192 H 115.618 1.95625 3.67247 0
M  V30 1193 H 114.494 2.18015 5.03747 0
M  V30 1194 H 114.755 0.570692 4.38401 0
M  V30 1195 N 113.814 -1.1601 1.06675 0
M  V30 1196 C 115.23 -1.38622 0.790948 0
M  V30 1197 C 115.43 -1.92109 -0.607965 0
M  V30 1198 O 114.486 -2.12239 -1.36787 0
M  V30 1199 C 115.799 -2.36347 1.85905 0
M  V30 1200 C 117.347 -2.50023 1.88301 0
M  V30 1201 C 117.822 -3.51033 2.94176 0
M  V30 1202 N 119.313 -3.58563 2.93235 0
M  V30 1203 C 120.048 -4.36521 3.71803 0
M  V30 1204 N 119.544 -5.17869 4.602 0
M  V30 1205 N 121.337 -4.31541 3.60178 0
M  V30 1206 H 113.488 -0.796294 1.96908 0
M  V30 1207 H 115.751 -0.412597 0.853503 0
M  V30 1208 H 115.457 -2.04147 2.86386 0
M  V30 1209 H 115.331 -3.36042 1.71334 0
M  V30 1210 H 117.718 -2.81524 0.884769 0
M  V30 1211 H 117.799 -1.5035 2.06951 0
M  V30 1212 H 117.443 -3.20268 3.94196 0
M  V30 1213 H 117.373 -4.50445 2.72776 0
M  V30 1214 H 119.864 -3.00496 2.29152 0
M  V30 1215 H 120.177 -5.74578 5.16797 0
M  V30 1216 H 118.522 -5.17199 4.64253 0
M  V30 1217 H 121.713 -3.67051 2.90502 0
M  V30 1218 H 121.886 -4.9205 4.21653 0
M  V30 1219 N 115.292 -0.849877 -1.32721 0
M  V30 1220 C 116.52 -0.464754 -2.01613 0
M  V30 1221 C 116.935 0.937191 -1.63897 0
M  V30 1222 O 116.292 1.61081 -0.857856 0
M  V30 1223 C 116.343 -0.588638 -3.56675 0
M  V30 1224 O 116.064 -1.93535 -3.93034 0
M  V30 1225 C 117.565 -0.2019 -4.4284 0
M  V30 1226 H 114.785 -0.183215 -0.645502 0
M  V30 1227 H 117.329 -1.1455 -1.69407 0
M  V30 1228 H 115.484 0.0443159 -3.87375 0
M  V30 1229 H 115.898 -1.92871 -4.87751 0
M  V30 1230 H 117.372 -0.339599 -5.50954 0
M  V30 1231 H 117.849 0.857224 -4.30753 0
M  V30 1232 H 118.455 -0.809733 -4.17521 0
M  V30 1233 N 116.77 1.45427 -0.607355 0
M  V30 1234 C 118 2.06314 -0.108656 0
M  V30 1235 C 118.408 1.45269 1.21217 0
M  V30 1236 O 117.751 0.561115 1.74921 0
M  V30 1237 C 117.813 3.59345 0.105618 0
M  V30 1238 C 117.477 4.42723 -1.13337 0
M  V30 1239 C 118.474 4.77715 -2.05145 0
M  V30 1240 C 116.159 4.83478 -1.36213 0
M  V30 1241 C 118.153 5.52317 -3.18158 0
M  V30 1242 C 115.84 5.57835 -2.49527 0
M  V30 1243 C 116.838 5.92171 -3.40327 0
M  V30 1244 O 116.526 6.65019 -4.51669 0
M  V30 1245 H 116.258 0.672782 -0.0658842 0
M  V30 1246 H 118.812 1.87664 -0.834945 0
M  V30 1247 H 117.042 3.76394 0.886796 0
M  V30 1248 H 118.731 4.02076 0.555886 0
M  V30 1249 H 119.497 4.46787 -1.88697 0
M  V30 1250 H 115.376 4.56188 -0.664362 0
M  V30 1251 H 118.92 5.79036 -3.89054 0
M  V30 1252 H 114.817 5.88177 -2.65928 0
M  V30 1253 H 115.585 6.83469 -4.50348 0
M  V30 1254 N 118.248 0.346503 1.53744 0
M  V30 1255 C 119.473 -0.253074 2.0585 0
M  V30 1256 C 119.898 -1.43202 1.21962 0
M  V30 1257 O 119.256 -1.79783 0.234073 0
M  V30 1258 C 119.304 -0.643193 3.54817 0
M  V30 1259 O 118.408 -1.74286 3.73762 0
M  V30 1260 H 117.749 -0.0413583 0.662711 0
M  V30 1261 H 120.279 0.501574 1.98357 0
M  V30 1262 H 120.289 -0.919526 3.97503 0
M  V30 1263 H 118.964 0.218966 4.15323 0
M  V30 1264 H 117.541 -1.46356 3.42979 0
M  V30 1265 N 119.726 -1.57421 0.075193 0
M  V30 1266 C 120.656 -2.15942 -0.888324 0
M  V30 1267 C 121.637 -1.08737 -1.30806 0
M  V30 1268 O 122.822 -1.36787 -1.37851 0
M  V30 1269 C 119.952 -2.72379 -2.1547 0
M  V30 1270 C 118.906 -3.8478 -1.87425 0
M  V30 1271 C 118.232 -4.27834 -3.20721 0
M  V30 1272 C 119.532 -5.08869 -1.17684 0
M  V30 1273 H 121.226 -2.96705 -0.400799 0
M  V30 1274 H 118.772 -1.42723 -0.191342 0
M  V30 1275 H 120.725 -3.11965 -2.83295 0
M  V30 1276 H 119.449 -1.88841 -2.6647 0
M  V30 1277 H 118.108 -3.45703 -1.22004 0
M  V30 1278 H 117.756 -3.41214 -3.6957 0
M  V30 1279 H 117.456 -5.03605 -3.02746 0
M  V30 1280 H 118.98 -4.70039 -3.89738 0
M  V30 1281 H 120.394 -5.4575 -1.75584 0
M  V30 1282 H 118.791 -5.8994 -1.09956 0
M  V30 1283 H 119.861 -4.84648 -0.156453 0
M  V30 1284 N 121.204 0.198386 -1.56346 0
M  V30 1285 C 122.429 0.939682 -1.84891 0
M  V30 1286 C 122.854 1.76202 -0.658369 0
M  V30 1287 O 122.212 1.76993 0.392851 0
M  V30 1288 C 122.26 1.81428 -3.11635 0
M  V30 1289 O 121.364 2.91265 -2.91956 0
M  V30 1290 H 120.705 0.264807 -0.608912 0
M  V30 1291 H 123.235 0.204695 -2.03573 0
M  V30 1292 H 123.245 2.21958 -3.42343 0
M  V30 1293 H 121.92 1.21004 -3.97908 0
M  V30 1294 H 120.497 2.54514 -2.72538 0
M  V30 1295 N 122.682 1.50554 0.465978 0
M  V30 1296 C 123.612 1.72722 1.57128 0
M  V30 1297 C 124.593 0.576294 1.6004 0
M  V30 1298 O 125.778 0.81598 1.76225 0
M  V30 1299 C 122.908 1.82605 2.95419 0
M  V30 1300 C 121.862 2.97835 3.07373 0
M  V30 1301 C 121.188 2.92867 4.47363 0
M  V30 1302 C 122.488 4.38265 2.84114 0
M  V30 1303 H 124.182 2.65267 1.38829 0
M  V30 1304 H 121.728 1.2765 0.666441 0
M  V30 1305 H 123.681 1.96698 3.72677 0
M  V30 1306 H 122.405 0.866858 3.14886 0
M  V30 1307 H 121.064 2.83401 2.3255 0
M  V30 1308 H 120.712 1.94783 4.63755 0
M  V30 1309 H 120.412 3.70227 4.56296 0
M  V30 1310 H 121.936 3.09015 5.26633 0
M  V30 1311 H 123.35 4.53198 3.51118 0
M  V30 1312 H 121.747 5.17115 3.04487 0
M  V30 1313 H 122.817 4.50281 1.7993 0
M  V30 1314 N 124.16 -0.719506 1.40217 0
M  V30 1315 C 125.571 -1.29848 1.34151 0
M  V30 1316 C 125.922 -1.96196 0.0131349 0
M  V30 1317 O 125.047 -1.973 -0.88892 0
M  V30 1318 C 125.642 -2.36118 2.42968 0
M  V30 1319 C 124.201 -2.8965 2.40374 0
M  V30 1320 C 123.348 -1.63393 2.24049 0
M  V30 1321 H 126.299 -0.51591 1.5008 0
M  V30 1322 H 126.32 -3.16871 2.10649 0
M  V30 1323 H 125.832 -1.878 3.39636 0
M  V30 1324 H 123.933 -3.42208 1.47392 0
M  V30 1325 H 124.046 -3.4171 3.35814 0
M  V30 1326 H 122.41 -1.88312 1.71495 0
M  V30 1327 H 123.193 -1.17104 3.2271 0
M  V30 1328 N 125.638 -1.25649 -0.95132 0
M  V30 1329 C 126.886 -1.10375 -1.69298 0
M  V30 1330 C 127.207 0.355339 -1.91735 0
M  V30 1331 O 126.477 1.25188 -1.50681 0
M  V30 1332 H 125.057 -0.405461 -0.627384 0
M  V30 1333 H 127.719 -1.57823 -1.14358 0
M  V30 1334 H 126.815 -1.61465 -2.67087 0
M  V30 1335 N 127.117 1.15442 -1.07289 0
M  V30 1336 C 128.357 1.8788 -0.805012 0
M  V30 1337 C 128.721 1.80413 0.656907 0
M  V30 1338 O 129.922 2.47874 1.0398 0
M  V30 1339 C 128.193 3.3298 -1.29843 0
M  V30 1340 S 129.752 4.23158 -1.16114 0
M  V30 1341 H 126.57 0.64839 -0.291739 0
M  V30 1342 H 129.172 1.39285 -1.37186 0
M  V30 1343 H 127.876 3.35958 -2.35712 0
M  V30 1344 H 127.407 3.86629 -0.726767 0
M  V30 1345 H 129.422 4.96103 -0.0982778 0
M  V30 1346 N 128.595 0.856903 1.32268 0
M  V30 1347 C 130.011 0.547061 1.49931 0
M  V30 1348 C 130.211 -0.921781 1.7918 0
M  V30 1349 O 129.267 -1.70469 1.8627 0
M  V30 1350 C 130.58 1.43599 2.64196 0
M  V30 1351 C 132.128 1.43665 2.78081 0
M  V30 1352 C 132.603 2.31085 3.95428 0
M  V30 1353 N 134.094 2.28893 4.02694 0
M  V30 1354 C 134.829 2.93262 4.92732 0
M  V30 1355 N 134.325 3.66751 5.87763 0
M  V30 1356 N 136.118 2.82638 4.85873 0
M  V30 1357 H 128.269 1.8075 1.11549 0
M  V30 1358 H 130.532 0.772144 0.549997 0
M  V30 1359 H 130.238 2.48058 2.49319 0
M  V30 1360 H 130.112 1.12502 3.60032 0
M  V30 1361 H 132.499 0.399701 2.92381 0
M  V30 1362 H 132.58 1.7878 1.82952 0
M  V30 1363 H 132.224 3.34849 3.81888 0
M  V30 1364 H 132.154 1.93302 4.89839 0
M  V30 1365 H 134.645 1.75466 3.34694 0
M  V30 1366 H 134.958 4.13027 6.53168 0
M  V30 1367 H 133.303 3.70859 5.87783 0
M  V30 1368 H 136.494 2.24774 4.10602 0
M  V30 1369 H 136.667 3.33084 5.55841 0
M  V30 1370 N 130.073 -1.45103 0.615059 0
M  V30 1371 C 131.023 -2.27679 -0.120966 0
M  V30 1372 C 132.007 -1.3775 -0.831491 0
M  V30 1373 O 133.199 -1.61683 -0.720249 0
M  V30 1374 C 130.328 -3.24767 -1.1127 0
M  V30 1375 C 129.414 -4.22184 -0.402627 0
M  V30 1376 N 129.805 -5.02692 0.559884 0
M  V30 1377 C 128.103 -4.4125 -0.649202 0
M  V30 1378 C 128.804 -5.73421 0.977942 0
M  V30 1379 N 127.78 -5.42657 0.320104 0
M  V30 1380 H 131.582 -2.87325 0.618181 0
M  V30 1381 H 129.096 -1.56345 0.439304 0
M  V30 1382 H 131.093 -3.82666 -1.65446 0
M  V30 1383 H 129.753 -2.66682 -1.85232 0
M  V30 1384 H 130.764 -5.09354 0.936976 0
M  V30 1385 H 127.441 -3.9428 -1.37293 0
M  V30 1386 H 128.831 -6.48107 1.77222 0
M  V30 1387 N 131.551 -0.354651 -1.53558 0
M  V30 1388 C 132.8 0.239504 -2.00273 0
M  V30 1389 C 133.113 1.50759 -1.24623 0
M  V30 1390 O 134.319 2.17968 -1.61871 0
M  V30 1391 C 132.775 0.477341 -3.5672 0
M  V30 1392 C 132.383 -0.775488 -4.41237 0
M  V30 1393 C 134.127 1.02975 -4.11821 0
M  V30 1394 C 132.034 -0.507838 -5.89216 0
M  V30 1395 H 130.964 0.0932743 -0.748208 0
M  V30 1396 H 133.615 -0.471701 -1.77334 0
M  V30 1397 H 131.997 1.24953 -3.7577 0
M  V30 1398 H 133.171 -1.54963 -4.33962 0
M  V30 1399 H 131.486 -1.25033 -3.97185 0
M  V30 1400 H 134.083 1.24513 -5.2 0
M  V30 1401 H 134.426 1.98862 -3.65731 0
M  V30 1402 H 134.959 0.317994 -3.96527 0
M  V30 1403 H 131.698 -1.43674 -6.39561 0
M  V30 1404 H 131.218 0.228011 -5.99366 0
M  V30 1405 H 132.897 -0.129238 -6.46871 0
M  V30 1406 N 133.029 1.57378 -0.0835403 0
M  V30 1407 C 134.269 1.95808 0.586381 0
M  V30 1408 C 134.633 0.963706 1.66062 0
M  V30 1409 O 135.834 1.23608 2.38693 0
M  V30 1410 C 134.105 3.38808 1.13771 0
M  V30 1411 S 135.664 3.99225 1.82112 0
M  V30 1412 H 132.482 0.684675 0.191679 0
M  V30 1413 H 135.084 1.94843 -0.160194 0
M  V30 1414 H 133.788 4.08954 0.344197 0
M  V30 1415 H 133.319 3.43344 1.92038 0
M  V30 1416 H 135.334 3.87087 3.10449 0
M  V30 1417 N 134.507 -0.190092 1.56449 0
M  V30 1418 C 135.923 -0.54113 1.50146 0
M  V30 1419 C 136.123 -1.85603 0.784465 0
M  V30 1420 O 135.179 -2.5024 0.337051 0
M  V30 1421 C 136.492 -0.591241 2.9483 0
M  V30 1422 C 138.04 -0.679732 3.0553 0
M  V30 1423 C 138.515 -0.760908 4.51635 0
M  V30 1424 N 140.006 -0.824302 4.55806 0
M  V30 1425 C 140.741 -0.907365 5.66175 0
M  V30 1426 N 140.237 -0.952422 6.86222 0
M  V30 1427 N 142.03 -0.94494 5.541 0
M  V30 1428 H 134.181 0.67235 2.01478 0
M  V30 1429 H 136.444 0.240127 0.917084 0
M  V30 1430 H 136.15 0.305905 3.50367 0
M  V30 1431 H 136.024 -1.44422 3.48457 0
M  V30 1432 H 138.411 -1.56731 2.50039 0
M  V30 1433 H 138.492 0.199549 2.5502 0
M  V30 1434 H 138.136 0.122336 5.07753 0
M  V30 1435 H 138.066 -1.65606 4.99882 0
M  V30 1436 H 140.557 -0.798526 3.69367 0
M  V30 1437 H 140.87 -1.01645 7.66086 0
M  V30 1438 H 139.215 -0.921014 6.8887 0
M  V30 1439 H 142.406 -0.906612 4.59236 0
M  V30 1440 H 142.579 -1.00622 6.4014 0
M  V30 1441 N 135.985 -1.50799 -0.457987 0
M  V30 1442 C 136.932 -1.70617 -1.5543 0
M  V30 1443 C 137.902 -0.547562 -1.56815 0
M  V30 1444 O 139.087 -0.779647 -1.74144 0
M  V30 1445 C 136.227 -1.81831 -2.93311 0
M  V30 1446 C 135.34 -3.09278 -3.01615 0
M  V30 1447 C 134.475 -3.11209 -4.30491 0
M  V30 1448 C 133.514 -4.33055 -4.32585 0
M  V30 1449 N 132.651 -4.32652 -5.52952 0
M  V30 1450 H 137.491 -2.64207 -1.37836 0
M  V30 1451 H 135.028 -1.30959 -0.669937 0
M  V30 1452 H 136.986 -1.86314 -3.73287 0
M  V30 1453 H 135.616 -0.916685 -3.0951 0
M  V30 1454 H 134.668 -3.14203 -2.1443 0
M  V30 1455 H 135.98 -3.99233 -2.99022 0
M  V30 1456 H 135.134 -3.14494 -5.18824 0
M  V30 1457 H 133.873 -2.19106 -4.35711 0
M  V30 1458 H 132.878 -4.29969 -3.42647 0
M  V30 1459 H 134.103 -5.264 -4.29046 0
M  V30 1460 H 132.049 -3.43409 -5.58933 0
M  V30 1461 H 131.966 -5.16392 -5.52155 0
M  V30 1462 H 133.234 -4.40101 -6.43375 0
M  V30 1463 N 137.463 0.71206 -1.40597 0
M  V30 1464 C 138.74 1.46536 -1.29563 0
M  V30 1465 C 139.12 2.10931 0.0844217 0
M  V30 1466 O 138.468 2.00418 1.0975 0
M  V30 1467 C 138.678 2.49821 -2.43701 0
M  V30 1468 C 140.026 3.15551 -2.841 0
M  V30 1469 O 141.05 2.60142 -2.4332 0
M  V30 1470 O 139.909 4.15867 -3.54566 0
M  V30 1471 H 137.003 0.651801 -0.509004 0
M  V30 1472 H 139.549 0.743935 -1.52524 0
M  V30 1473 H 138.321 2.00778 -3.35863 0
M  V30 1474 H 137.944 3.29495 -2.22528 0
M  V30 1475 N 138.941 1.26152 0.944643 0
M  V30 1476 C 140.171 1.14094 1.72239 0
M  V30 1477 C 140.579 -0.306931 1.86694 0
M  V30 1478 O 139.922 -1.22222 1.3714 0
M  V30 1479 C 139.984 1.73316 3.14963 0
M  V30 1480 C 139.648 3.2239 3.23904 0
M  V30 1481 C 140.645 4.19252 3.07447 0
M  V30 1482 C 138.33 3.62788 3.47405 0
M  V30 1483 C 140.324 5.54491 3.14353 0
M  V30 1484 C 138.011 4.98162 3.53947 0
M  V30 1485 C 139.009 5.93823 3.37436 0
M  V30 1486 O 138.697 7.26732 3.43679 0
M  V30 1487 H 138.429 0.398292 0.546205 0
M  V30 1488 H 140.983 1.67201 1.19301 0
M  V30 1489 H 139.213 1.14667 3.69308 0
M  V30 1490 H 140.902 1.56214 3.74636 0
M  V30 1491 H 141.668 3.8938 2.8915 0
M  V30 1492 H 137.547 2.88816 3.59313 0
M  V30 1493 H 141.091 6.29137 3.01384 0
M  V30 1494 H 136.988 5.27695 3.71763 0
M  V30 1495 H 137.756 7.3496 3.60245 0
M  V30 1496 N 140.419 -1.14872 1.07899 0
M  V30 1497 C 141.349 -2.2193 0.725887 0
M  V30 1498 C 142.33 -1.67622 -0.28927 0
M  V30 1499 O 143.515 -1.93533 -0.160787 0
M  V30 1500 C 140.645 -3.47061 0.128856 0
M  V30 1501 C 139.599 -4.14363 1.07178 0
M  V30 1502 C 138.925 -5.33636 0.337229 0
M  V30 1503 C 140.225 -4.63492 2.40775 0
M  V30 1504 H 141.919 -2.51724 1.62097 0
M  V30 1505 H 139.465 -1.20991 0.780838 0
M  V30 1506 H 141.418 -4.21199 -0.130147 0
M  V30 1507 H 140.142 -3.16617 -0.80134 0
M  V30 1508 H 138.801 -3.42173 1.3158 0
M  V30 1509 H 138.449 -4.99449 -0.596606 0
M  V30 1510 H 138.149 -5.79609 0.965788 0
M  V30 1511 H 139.673 -6.10539 0.0861567 0
M  V30 1512 H 141.087 -5.2913 2.20669 0
M  V30 1513 H 139.484 -5.20148 2.99276 0
M  V30 1514 H 140.554 -3.78834 3.02676 0
M  V30 1515 N 141.898 -0.863906 -1.31812 0
M  V30 1516 C 142.83 -0.272485 -2.27575 0
M  V30 1517 C 143.843 0.56104 -1.52827 0
M  V30 1518 O 145.032 0.384021 -1.7432 0
M  V30 1519 C 142.132 0.63283 -3.32939 0
M  V30 1520 C 141.305 -0.166902 -4.37081 0
M  V30 1521 C 140.364 0.665608 -5.21973 0
M  V30 1522 O 139.39 0.0958091 -5.69119 0
M  V30 1523 N 140.592 1.9787 -5.45736 0
M  V30 1524 H 143.357 -1.0954 -2.78964 0
M  V30 1525 H 140.918 -0.724791 -1.4477 0
M  V30 1526 H 142.91 1.19532 -3.86645 0
M  V30 1527 H 141.48 1.35642 -2.81638 0
M  V30 1528 H 140.7 -0.910838 -3.83533 0
M  V30 1529 H 141.988 -0.715874 -5.03739 0
M  V30 1530 H 141.386 2.46484 -5.09178 0
M  V30 1531 H 139.943 2.48911 -6.024 0
M  V30 1532 N 143.376 1.44774 -0.622745 0
M  V30 1533 C 144.787 1.85546 -0.207226 0
M  V30 1534 C 145.138 1.52093 1.23944 0
M  V30 1535 O 144.263 0.95492 1.94191 0
M  V30 1536 C 144.858 3.36781 -0.369313 0
M  V30 1537 C 143.417 3.76399 -0.00836847 0
M  V30 1538 C 142.564 2.68664 -0.686651 0
M  V30 1539 H 145.515 1.3536 -0.828454 0
M  V30 1540 H 145.536 3.78453 0.394162 0
M  V30 1541 H 145.048 3.61098 -1.42231 0
M  V30 1542 H 143.149 3.57698 1.04322 0
M  V30 1543 H 143.262 4.7732 -0.412584 0
M  V30 1544 H 141.626 2.54404 -0.122777 0
M  V30 1545 H 142.409 2.95815 -1.74208 0
M  V30 1546 N 144.854 0.36279 1.53368 0
M  V30 1547 C 146.27 0.0116182 1.59596 0
M  V30 1548 C 146.47 -1.47012 1.37803 0
M  V30 1549 O 145.526 -2.23136 1.18181 0
M  V30 1550 C 146.839 0.465052 2.97082 0
M  V30 1551 C 148.387 0.419033 3.10182 0
M  V30 1552 C 148.862 0.848235 4.50077 0
M  V30 1553 N 150.353 0.803183 4.56183 0
M  V30 1554 C 151.088 1.107 5.62613 0
M  V30 1555 N 150.584 1.47996 6.76808 0
M  V30 1556 N 152.377 1.02998 5.52583 0
M  V30 1557 H 144.528 1.32775 1.65785 0
M  V30 1558 H 146.791 0.542518 0.777417 0
M  V30 1559 H 146.497 1.49892 3.18159 0
M  V30 1560 H 146.371 -0.149786 3.76902 0
M  V30 1561 H 148.758 -0.605696 2.88817 0
M  V30 1562 H 148.839 1.06933 2.32377 0
M  V30 1563 H 148.483 1.87107 4.7218 0
M  V30 1564 H 148.413 0.175218 5.26308 0
M  V30 1565 H 150.904 0.52838 3.74188 0
M  V30 1566 H 151.217 1.69613 7.53957 0
M  V30 1567 H 149.562 1.51859 6.78206 0
M  V30 1568 H 152.753 0.737817 4.62249 0
M  V30 1569 H 152.926 1.2701 6.35431 0
M  V30 1570 N 146.332 -1.57332 0.0918853 0
M  V30 1571 C 147.572 -1.96117 -0.575988 0
M  V30 1572 C 147.936 -0.972499 -1.65549 0
M  V30 1573 O 149.137 -1.24872 -2.38034 0
M  V30 1574 C 147.408 -3.39407 -1.11973 0
M  V30 1575 S 148.967 -4.00185 -1.79992 0
M  V30 1576 H 145.785 -0.685682 -0.188045 0
M  V30 1577 H 148.387 -1.94755 0.170525 0
M  V30 1578 H 147.091 -4.09131 -0.322504 0
M  V30 1579 H 146.622 -3.44358 -1.90214 0
M  V30 1580 H 148.637 -3.88728 -3.08391 0
M  V30 1581 N 147.81 0.181792 -1.56548 0
M  V30 1582 C 149.05 0.906711 -1.83189 0
M  V30 1583 C 149.414 1.79882 -0.671312 0
M  V30 1584 O 150.615 2.56054 -0.81792 0
M  V30 1585 C 148.886 1.69023 -3.14906 0
M  V30 1586 S 150.445 2.46535 -3.62996 0
M  V30 1587 H 147.263 0.303877 -0.642791 0
M  V30 1588 H 149.865 0.169107 -1.94767 0
M  V30 1589 H 148.569 1.02571 -3.97376 0
M  V30 1590 H 148.1 2.46941 -3.06241 0
M  V30 1591 H 150.115 3.71014 -3.29489 0
M  V30 1592 N 149.288 1.51039 0.449983 0
M  V30 1593 C 150.699 1.557 1.03026 0
M  V30 1594 C 151.05 0.372939 1.92623 0
M  V30 1595 O 150.175 -0.511771 2.10261 0
M  V30 1596 C 150.77 2.82171 1.87523 0
M  V30 1597 C 149.329 2.89444 2.40622 0
M  V30 1598 C 148.476 2.50228 1.19504 0
M  V30 1599 H 151.427 1.56999 0.231745 0
M  V30 1600 H 151.448 2.65219 2.72835 0
M  V30 1601 H 150.96 3.68331 1.22286 0
M  V30 1602 H 149.061 2.07685 3.0935 0
M  V30 1603 H 149.174 3.92816 2.74285 0
M  V30 1604 H 147.538 2.03139 1.53644 0
M  V30 1605 H 148.321 3.38719 0.558972 0
M  V30 1606 N 150.766 -0.704594 1.40972 0
M  V30 1607 C 152.014 -1.46169 1.39568 0
M  V30 1608 C 152.335 -1.95 0.00253745 0
M  V30 1609 O 151.605 -1.71095 -0.954114 0
M  V30 1610 H 150.185 -0.542326 0.513704 0
M  V30 1611 H 152.847 -0.834553 1.76128 0
M  V30 1612 H 151.943 -2.32922 2.07735 0
M  V30 1613 N 152.244 -1.26651 -0.937939 0
M  V30 1614 C 153.66 -1.03834 -1.21205 0
M  V30 1615 C 153.86 0.234502 -2.00131 0
M  V30 1616 O 152.916 0.942767 -2.3424 0
M  V30 1617 C 154.229 -2.27167 -1.97017 0
M  V30 1618 C 155.777 -2.32101 -2.09996 0
M  V30 1619 C 156.252 -3.55136 -2.8921 0
M  V30 1620 N 157.743 -3.55632 -2.96783 0
M  V30 1621 C 158.478 -4.475 -3.58512 0
M  V30 1622 N 157.974 -5.4966 -4.21717 0
M  V30 1623 N 159.767 -4.35145 -3.55816 0
M  V30 1624 H 151.918 -2.08398 -0.410391 0
M  V30 1625 H 154.181 -0.916031 -0.244114 0
M  V30 1626 H 153.887 -3.19765 -1.46434 0
M  V30 1627 H 153.761 -2.31672 -2.97671 0
M  V30 1628 H 156.148 -1.40015 -2.59769 0
M  V30 1629 H 156.229 -2.31605 -1.08594 0
M  V30 1630 H 155.873 -4.47553 -2.40123 0
M  V30 1631 H 155.803 -3.5288 -3.90875 0
M  V30 1632 H 158.294 -2.81743 -2.51852 0
M  V30 1633 H 158.607 -6.15943 -4.66727 0
M  V30 1634 H 156.952 -5.53514 -4.20294 0
M  V30 1635 H 160.143 -3.5455 -3.05634 0
M  V30 1636 H 160.316 -5.06934 -4.03636 0
M  V30 1637 N 153.722 1.14298 -1.08507 0
M  V30 1638 C 154.968 1.85854 -0.826438 0
M  V30 1639 C 155.323 1.81413 0.640878 0
M  V30 1640 O 154.616 1.23463 1.46518 0
M  V30 1641 C 154.81 3.33547 -1.28379 0
M  V30 1642 C 154.639 3.52369 -2.79403 0
M  V30 1643 C 153.409 3.67159 -3.47164 0
M  V30 1644 C 155.607 3.49203 -3.77573 0
M  V30 1645 N 153.589 3.74149 -4.86709 0
M  V30 1646 C 154.96 3.6245 -5.03021 0
M  V30 1647 C 157.015 3.32547 -3.70563 0
M  V30 1648 C 155.718 3.60761 -6.2229 0
M  V30 1649 C 157.744 3.32162 -4.89308 0
M  V30 1650 C 157.106 3.45949 -6.13595 0
M  V30 1651 H 153.205 0.696705 -0.355143 0
M  V30 1652 H 155.789 1.36981 -1.38362 0
M  V30 1653 H 153.96 3.81008 -0.754166 0
M  V30 1654 H 155.692 3.92867 -0.971469 0
M  V30 1655 H 152.447 3.68433 -2.9758 0
M  V30 1656 H 152.871 3.81359 -5.5937 0
M  V30 1657 H 157.513 3.20797 -2.75407 0
M  V30 1658 H 155.231 3.71286 -7.17755 0
M  V30 1659 H 158.817 3.20485 -4.85573 0
M  V30 1660 H 157.697 3.456 -7.03939 0
M  V30 1661 N 155.201 0.870884 1.31352 0
M  V30 1662 C 156.449 0.48132 1.96285 0
M  V30 1663 C 156.77 -0.969813 1.69173 0
M  V30 1664 O 156.04 -1.67998 1.00764 0
M  V30 1665 H 154.62 0.175002 0.726212 0
M  V30 1666 H 157.282 1.11087 1.60143 0
M  V30 1667 H 156.378 0.639825 3.05471 0
M  V30 1668 N 156.679 -1.44442 0.630414 0
M  V30 1669 C 158.09 -1.85434 0.217063 0
M  V30 1670 C 158.441 -1.52748 -1.23136 0
M  V30 1671 O 157.566 -0.965205 -1.93682 0
M  V30 1672 C 158.161 -3.36581 0.387168 0
M  V30 1673 C 156.72 -3.76389 0.0283297 0
M  V30 1674 C 155.867 -2.68296 0.700889 0
M  V30 1675 H 158.818 -1.34919 0.83562 0
M  V30 1676 H 158.839 -3.78657 -0.374086 0
M  V30 1677 H 158.351 -3.60339 1.44144 0
M  V30 1678 H 156.452 -3.58246 -1.02423 0
M  V30 1679 H 156.565 -4.77095 0.437892 0
M  V30 1680 H 154.929 -2.54335 0.136267 0
M  V30 1681 H 155.712 -2.94887 1.75774 0
M  V30 1682 N 158.157 -0.370918 -1.53173 0
M  V30 1683 C 159.434 0.273754 -1.93675 0
M  V30 1684 C 159.814 1.65938 -1.3049 0
M  V30 1685 O 159.162 2.23698 -0.465999 0
M  V30 1686 C 159.372 0.318602 -3.47543 0
M  V30 1687 C 160.72 0.556392 -4.20939 0
M  V30 1688 O 161.744 0.399587 -3.53952 0
M  V30 1689 O 160.603 0.862133 -5.39657 0
M  V30 1690 H 157.697 0.165448 -0.810281 0
M  V30 1691 H 160.243 -0.42409 -1.64315 0
M  V30 1692 H 159.015 -0.652687 -3.85818 0
M  V30 1693 H 158.638 1.06212 -3.83151 0
M  V30 1694 N 159.635 1.57281 -0.100228 0
M  V30 1695 C 160.875 1.96419 0.56558 0
M  V30 1696 C 161.239 0.981265 1.65031 0
M  V30 1697 O 162.44 1.26133 2.37369 0
M  V30 1698 C 160.711 3.39996 1.10171 0
M  V30 1699 S 162.27 4.01134 1.77867 0
M  V30 1700 H 159.088 0.68667 0.184406 0
M  V30 1701 H 161.69 1.94662 -0.180851 0
M  V30 1702 H 160.394 4.09296 0.300803 0
M  V30 1703 H 159.925 3.45361 1.88385 0
M  V30 1704 H 161.94 3.90358 3.06326 0
M  V30 1705 N 161.113 -0.173488 1.56642 0
M  V30 1706 C 162.362 -0.888758 1.81063 0
M  V30 1707 C 162.675 -1.83506 0.67712 0
M  V30 1708 O 163.881 -2.59254 0.806206 0
M  V30 1709 C 162.337 -1.63091 3.20826 0
M  V30 1710 C 161.945 -0.728357 4.4204 0
M  V30 1711 C 163.689 -2.33454 3.54541 0
M  V30 1712 C 161.596 -1.47062 5.72823 0
M  V30 1713 H 160.526 -0.335618 0.675186 0
M  V30 1714 H 163.177 -0.141712 1.82952 0
M  V30 1715 H 161.559 -2.42263 3.13248 0
M  V30 1716 H 162.733 0.0262449 4.60793 0
M  V30 1717 H 161.048 -0.134492 4.16183 0
M  V30 1718 H 163.645 -2.89578 4.49498 0
M  V30 1719 H 163.988 -3.08687 2.79317 0
M  V30 1720 H 164.521 -1.61227 3.63663 0
M  V30 1721 H 161.26 -0.760658 6.51072 0
M  V30 1722 H 160.78 -2.1986 5.58052 0
M  V30 1723 H 162.459 -2.01868 6.14702 0
M  V30 1724 N 162.591 -1.51276 -0.441967 0
M  V30 1725 C 163.501 -1.75092 -1.56141 0
M  V30 1726 C 164.517 -0.634963 -1.62001 0
M  V30 1727 O 165.693 -0.916686 -1.79329 0
M  V30 1728 C 162.758 -1.86666 -2.92158 0
M  V30 1729 C 161.819 -3.10506 -2.96453 0
M  V30 1730 C 161.052 -3.21519 -4.25982 0
M  V30 1731 O 161.275 -2.38586 -5.18105 0
M  V30 1732 O 160.209 -4.14465 -4.36466 0
M  V30 1733 H 164.035 -2.70044 -1.38961 0
M  V30 1734 H 161.62 -1.35722 -0.624499 0
M  V30 1735 H 163.502 -1.96292 -3.72891 0
M  V30 1736 H 162.177 -0.949014 -3.09476 0
M  V30 1737 H 161.084 -3.06363 -2.14692 0
M  V30 1738 H 162.417 -4.01945 -2.84079 0
M  V30 1739 N 164.069 0.697108 -1.41344 0
M  V30 1740 C 165.309 1.46939 -1.42085 0
M  V30 1741 C 165.673 1.9198 -0.0280397 0
M  V30 1742 O 166.874 2.6865 0.0897504 0
M  V30 1743 C 165.145 2.64985 -2.39828 0
M  V30 1744 S 166.704 3.54147 -2.59085 0
M  V30 1745 H 163.522 0.502146 -0.503359 0
M  V30 1746 H 166.124 0.813546 -1.77769 0
M  V30 1747 H 164.828 2.30098 -3.39828 0
M  V30 1748 H 164.359 3.35464 -2.05493 0
M  V30 1749 H 166.374 4.60137 -1.85711 0
M  V30 1750 N 165.547 1.27147 0.931209 0
M  V30 1751 C 166.958 1.12044 1.49342 0
M  V30 1752 C 167.309 -0.295795 1.93957 0
M  V30 1753 O 166.434 -1.18835 1.80852 0
M  V30 1754 C 167.029 2.02781 2.71414 0
M  V30 1755 C 165.588 1.91794 3.2387 0
M  V30 1756 C 164.735 1.95543 1.96617 0
M  V30 1757 H 167.686 1.40091 0.745672 0
M  V30 1758 H 167.707 1.58156 3.46074 0
M  V30 1759 H 167.219 3.05848 2.38911 0
M  V30 1760 H 165.32 0.916992 3.6114 0
M  V30 1761 H 165.433 2.77852 3.90302 0
M  V30 1762 H 163.797 1.39722 2.12955 0
M  V30 1763 H 164.58 3.00259 1.66432 0
M  V30 1764 N 167.025 -1.13721 1.09112 0
M  V30 1765 C 168.273 -1.84559 0.823562 0
M  V30 1766 C 168.594 -1.83754 -0.652658 0
M  V30 1767 O 167.864 -1.29102 -1.47342 0
M  V30 1768 H 166.444 -0.683376 0.301673 0
M  V30 1769 H 169.106 -1.37771 1.37859 0
M  V30 1770 H 168.202 -2.8917 1.17419 0
M  V30 1771 N 168.503 -0.877838 -1.30888 0
M  V30 1772 C 169.751 -0.491723 -1.96027 0
M  V30 1773 C 170.072 0.960827 -1.69685 0
M  V30 1774 O 169.342 1.67462 -1.01654 0
M  V30 1775 H 167.922 -0.17885 -0.725273 0
M  V30 1776 H 170.584 -1.11935 -1.59551 0
M  V30 1777 H 169.68 -0.656016 -3.05128 0
M  V30 1778 N 169.982 1.44106 -0.638065 0
M  V30 1779 C 170.945 2.29138 0.0531013 0
M  V30 1780 C 171.945 1.41409 0.765506 0
M  V30 1781 O 173.135 1.63206 0.609046 0
M  V30 1782 C 170.267 3.23144 1.08584 0
M  V30 1783 H 171.46 2.91739 -0.694883 0
M  V30 1784 H 169.013 1.51134 -0.398538 0
M  V30 1785 H 169.748 2.65408 1.86357 0
M  V30 1786 H 169.533 3.87804 0.578852 0
M  V30 1787 H 171.023 3.87004 1.56899 0
M  V30 1788 N 171.46 0.379036 1.52974 0
M  V30 1789 C 172.708 -0.206014 2.01047 0
M  V30 1790 C 173.029 -1.48175 1.26765 0
M  V30 1791 O 172.299 -1.92085 0.384743 0
M  V30 1792 H 170.879 -0.0791184 0.742798 0
M  V30 1793 H 173.541 0.508366 1.88153 0
M  V30 1794 H 172.637 -0.423501 3.09213 0
M  V30 1795 N 172.938 -1.57226 0.108567 0
M  V30 1796 C 174.163 -1.99604 -0.563303 0
M  V30 1797 C 174.588 -0.987563 -1.6009 0
M  V30 1798 O 173.946 0.0421687 -1.81251 0
M  V30 1799 C 173.994 -3.40902 -1.17552 0
M  V30 1800 O 173.098 -3.42896 -2.2912 0
M  V30 1801 H 172.439 -0.648704 -0.1417 0
M  V30 1802 H 174.969 -2.03679 0.193961 0
M  V30 1803 H 174.979 -3.78886 -1.51357 0
M  V30 1804 H 173.654 -4.1382 -0.415445 0
M  V30 1805 H 172.231 -3.1672 -1.96832 0
M  V30 1806 N 174.416 0.165178 -1.56732 0
M  V30 1807 C 175.827 0.727046 -1.71962 0
M  V30 1808 C 176.178 1.82508 -0.720078 0
M  V30 1809 O 175.303 2.16082 0.117242 0
M  V30 1810 C 175.898 1.32559 -3.11791 0
M  V30 1811 C 174.457 1.83422 -3.28684 0
M  V30 1812 C 173.604 0.715567 -2.67908 0
M  V30 1813 H 176.555 -0.0602896 -1.58585 0
M  V30 1814 H 176.576 2.19533 -3.10782 0
M  V30 1815 H 176.088 0.526195 -3.84516 0
M  V30 1816 H 174.189 2.65986 -2.60926 0
M  V30 1817 H 174.302 1.97543 -4.36478 0
M  V30 1818 H 172.666 1.13758 -2.27884 0
M  V30 1819 H 173.449 -0.0720836 -3.43224 0
M  V30 1820 N 175.894 1.51508 0.433938 0
M  V30 1821 C 177.134 1.66006 1.19253 0
M  V30 1822 C 177.498 0.369868 1.88404 0
M  V30 1823 O 178.699 0.39066 2.65946 0
M  V30 1824 C 176.97 2.83229 2.17981 0
M  V30 1825 S 178.529 3.18075 3.02281 0
M  V30 1826 H 175.347 0.584821 0.404358 0
M  V30 1827 H 177.949 1.89425 0.48357 0
M  V30 1828 H 176.653 3.75407 1.65824 0
M  V30 1829 H 176.184 2.6201 2.93453 0
M  V30 1830 H 178.199 2.64772 4.19655 0
M  V30 1831 N 177.372 -0.689602 1.41712 0
M  V30 1832 C 178.32 -1.82475 1.44242 0
M  V30 1833 C 179.314 -1.66354 0.319774 0
M  V30 1834 O 180.52 -1.73143 0.492089 0
M  V30 1835 H 176.895 -0.601416 0.451445 0
M  V30 1836 H 178.866 -1.77458 2.39899 0
M  V30 1837 C 177.615 -3.20535 1.3473 0
M  V30 1838 H 176.938 -3.33559 2.20405 0
M  V30 1839 H 178.378 -4.00023 1.40562 0
M  V30 1840 C 176.837 -3.36846 0.0603281 0
M  V30 1841 O 177.367 -3.91656 -0.892663 0
M  V30 1842 N 175.573 -2.90595 -0.0177039 0
M  V30 1843 H 175.12 -2.46178 0.758572 0
M  V30 1844 H 175.078 -3.01886 -0.878201 0
M  V30 1845 N 178.85 -1.27639 -0.924453 0
M  V30 1846 C 180.098 -1.13941 -1.66918 0
M  V30 1847 C 180.419 0.314589 -1.92446 0
M  V30 1848 O 179.689 1.21964 -1.53303 0
M  V30 1849 H 178.269 -0.418678 -0.618642 0
M  V30 1850 H 180.931 -1.60213 -1.10985 0
M  V30 1851 H 180.027 -1.67094 -2.63602 0
M  V30 1852 N 180.328 1.1314 -1.09713 0
M  V30 1853 C 181.744 1.36477 -0.827423 0
M  V30 1854 C 181.944 1.93654 0.556817 0
M  V30 1855 O 181 2.15791 1.31112 0
M  V30 1856 C 182.313 2.31334 -1.92106 0
M  V30 1857 C 183.861 2.44943 -1.94864 0
M  V30 1858 C 184.336 3.4311 -3.0338 0
M  V30 1859 N 185.827 3.50662 -3.02639 0
M  V30 1860 C 186.562 4.2651 -3.83246 0
M  V30 1861 N 186.058 5.05485 -4.73768 0
M  V30 1862 N 187.851 4.2184 -3.71493 0
M  V30 1863 H 180.002 0.743807 -1.9895 0
M  V30 1864 H 182.265 0.389823 -0.864143 0
M  V30 1865 H 181.971 1.96483 -2.91698 0
M  V30 1866 H 181.845 3.31381 -1.80184 0
M  V30 1867 H 184.232 2.79079 -0.959099 0
M  V30 1868 H 184.313 1.4481 -2.10864 0
M  V30 1869 H 183.957 3.09704 -4.02549 0
M  V30 1870 H 183.887 4.43055 -2.84622 0
M  V30 1871 H 186.378 2.94315 -2.37039 0
M  V30 1872 H 186.691 5.60675 -5.3185 0
M  V30 1873 H 185.036 5.04708 -4.77802 0
M  V30 1874 H 188.227 3.5922 -3.00131 0
M  V30 1875 H 188.4 4.80697 -4.3455 0
M  V30 1876 N 181.806 0.884767 1.30421 0
M  V30 1877 C 183.054 0.502112 1.95763 0
M  V30 1878 C 183.375 -0.951815 1.70192 0
M  V30 1879 O 182.645 -1.6692 1.0254 0
M  V30 1880 H 181.225 0.182694 0.724315 0
M  V30 1881 H 183.887 1.1278 1.58955 0
M  V30 1882 H 182.983 0.672188 3.04775 0
M  V30 1883 N 183.284 -1.43765 0.645699 0
M  V30 1884 C 184.509 -2.06767 0.161883 0
M  V30 1885 C 184.934 -1.48034 -1.16049 0
M  V30 1886 O 184.292 -0.587369 -1.71522 0
M  V30 1887 C 184.34 -3.60519 0.0762003 0
M  V30 1888 O 183.444 -4.00982 -0.963721 0
M  V30 1889 H 182.785 -0.657675 0.091429 0
M  V30 1890 H 185.315 -1.84397 0.886499 0
M  V30 1891 H 185.325 -4.07853 -0.109604 0
M  V30 1892 H 184 -4.02646 1.04157 0
M  V30 1893 H 182.577 -3.65253 -0.751312 0
M  V30 1894 N 184.763 -0.387143 -1.52771 0
M  V30 1895 C 186.003 0.195537 -2.03463 0
M  V30 1896 C 186.367 1.44222 -1.26744 0
M  V30 1897 O 187.568 2.10192 -1.67549 0
M  V30 1898 C 185.839 0.459097 -3.54439 0
M  V30 1899 S 187.398 1.01237 -4.26962 0
M  V30 1900 H 184.216 0.0552675 -0.708849 0
M  V30 1901 H 186.818 -0.534992 -1.88037 0
M  V30 1902 H 185.522 -0.455382 -4.07866 0
M  V30 1903 H 185.053 1.21811 -3.74066 0
M  V30 1904 H 187.068 2.29492 -4.39941 0
M  V30 1905 N 186.241 1.57166 -0.116904 0
M  V30 1906 C 187.204 2.14039 0.819742 0
M  V30 1907 C 188.204 1.07477 1.19605 0
M  V30 1908 O 189.394 1.33263 1.1219 0
M  V30 1909 C 186.526 2.67891 2.10826 0
M  V30 1910 H 187.719 2.98128 0.325511 0
M  V30 1911 H 185.272 1.55739 0.132312 0
M  V30 1912 H 186.007 1.87384 2.64685 0
M  V30 1913 H 185.792 3.45823 1.84793 0
M  V30 1914 H 187.282 3.11809 2.77785 0
M  V30 1915 N 187.719 -0.156864 1.56817 0
M  V30 1916 C 188.629 -1.2136 2.00771 0
M  V30 1917 C 189.645 -1.47598 0.921459 0
M  V30 1918 O 190.821 -1.59462 1.2302 0
M  V30 1919 C 187.886 -2.52943 2.37109 0
M  V30 1920 C 186.947 -2.34439 3.59634 0
M  V30 1921 C 186.18 -3.59748 3.94229 0
M  V30 1922 O 186.403 -4.65526 3.29609 0
M  V30 1923 O 185.337 -3.52998 4.8752 0
M  V30 1924 H 189.163 -0.870468 2.90958 0
M  V30 1925 H 186.748 -0.36484 1.44877 0
M  V30 1926 H 188.63 -3.30538 2.61386 0
M  V30 1927 H 187.305 -2.86806 1.5008 0
M  V30 1928 H 186.212 -1.54828 3.40557 0
M  V30 1929 H 187.545 -2.05496 4.4725 0
M  V30 1930 N 189.197 -1.51736 -0.425897 0
M  V30 1931 C 190.445 -1.64644 -1.17204 0
M  V30 1932 C 190.766 -0.370486 -1.91448 0
M  V30 1933 O 190.036 0.614088 -1.86026 0
M  V30 1934 H 188.616 -0.606819 -0.435638 0
M  V30 1935 H 191.278 -1.88713 -0.487177 0
M  V30 1936 H 190.374 -2.47958 -1.89534 0
M  V30 1937 N 190.675 0.682077 -1.42076 0
M  V30 1938 C 191.608 1.80666 -1.3941 0
M  V30 1939 C 192.586 1.60518 -0.25939 0
M  V30 1940 O 193.77 1.83088 -0.448456 0
M  V30 1941 C 190.897 3.17556 -1.17796 0
M  V30 1942 C 189.943 3.56468 -2.34164 0
M  V30 1943 S 190.776 3.59729 -3.96681 0
M  V30 1944 C 191.932 4.99323 -3.77395 0
M  V30 1945 H 192.165 1.82652 -2.34575 0
M  V30 1946 H 189.698 0.852062 -1.2876 0
M  V30 1947 H 191.656 3.96575 -1.06012 0
M  V30 1948 H 190.317 3.13164 -0.242279 0
M  V30 1949 H 189.51 4.5595 -2.1477 0
M  V30 1950 H 189.112 2.84792 -2.42425 0
M  V30 1951 H 191.404 5.87202 -3.37935 0
M  V30 1952 H 192.347 5.23763 -4.76527 0
M  V30 1953 H 192.755 4.71498 -3.10403 0
M  V30 1954 N 192.153 1.28127 0.917671 0
M  V30 1955 C 193.063 1.13556 2.05286 0
M  V30 1956 C 194.079 0.0630914 1.73886 0
M  V30 1957 O 195.255 0.271598 1.9956 0
M  V30 1958 C 192.32 0.794676 3.3747 0
M  V30 1959 C 191.381 1.94909 3.82504 0
M  V30 1960 C 190.614 1.62437 5.0838 0
M  V30 1961 O 190.837 0.536905 5.67867 0
M  V30 1962 O 189.771 2.46677 5.4903 0
M  V30 1963 H 193.597 2.08844 2.20495 0
M  V30 1964 H 191.182 1.07409 1.03845 0
M  V30 1965 H 193.064 0.618344 4.16839 0
M  V30 1966 H 191.739 -0.128581 3.23445 0
M  V30 1967 H 190.646 2.18055 3.03978 0
M  V30 1968 H 191.979 2.85291 4.01086 0
M  V30 1969 N 193.631 -1.12557 1.10312 0
M  V30 1970 C 194.879 -1.83675 0.843091 0
M  V30 1971 C 195.2 -1.84435 -0.633131 0
M  V30 1972 O 194.47 -1.30657 -1.45964 0
M  V30 1973 H 193.05 -0.680138 0.308904 0
M  V30 1974 H 195.712 -1.36301 1.39313 0
M  V30 1975 H 194.808 -2.87908 1.2048 0
M  V30 1976 N 195.109 -0.891671 -1.2995 0
M  V30 1977 C 196.057 -0.353066 -2.29905 0
M  V30 1978 C 197.051 0.543509 -1.60444 0
M  V30 1979 O 198.257 0.4272 -1.74857 0
M  V30 1980 H 194.632 -0.095531 -0.745907 0
M  V30 1981 H 196.603 -1.20961 -2.72784 0
M  V30 1982 C 195.352 0.411475 -3.45257 0
M  V30 1983 H 194.675 -0.269182 -3.98893 0
M  V30 1984 H 196.115 0.753328 -4.17254 0
M  V30 1985 C 194.574 1.6111 -2.9588 0
M  V30 1986 O 195.104 2.71045 -2.96475 0
M  V30 1987 N 193.31 1.45054 -2.51809 0
M  V30 1988 H 192.857 0.556175 -2.51524 0
M  V30 1989 H 192.815 2.25453 -2.1913 0
M  V30 1990 N 196.587 1.43421 -0.653314 0
M  V30 1991 C 197.835 2.01414 -0.166415 0
M  V30 1992 C 198.156 1.51803 1.22397 0
M  V30 1993 O 197.426 0.730693 1.81763 0
M  V30 1994 H 196.006 0.744703 -0.0585319 0
M  V30 1995 H 198.668 1.75629 -0.845003 0
M  V30 1996 H 197.764 3.11734 -0.151111 0
M  V30 1997 N 198.065 0.39524 1.52563 0
M  V30 1998 C 199.293 -0.184943 2.06072 0
M  V30 1999 C 199.708 -1.40021 1.26647 0
M  V30 2000 O 199.065 -1.79767 0.314672 0
M  V30 2001 C 199.116 -0.549179 3.57304 0
M  V30 2002 O 198.837 0.617813 4.33722 0
M  V30 2003 C 200.338 -1.18459 4.2718 0
M  V30 2004 H 197.558 -0.0265025 0.670476 0
M  V30 2005 H 200.102 0.562184 1.96621 0
M  V30 2006 H 198.257 -1.2462 3.66809 0
M  V30 2007 H 198.671 0.317091 5.23541 0
M  V30 2008 H 200.145 -1.38976 5.34219 0
M  V30 2009 H 200.622 -2.15368 3.82771 0
M  V30 2010 H 201.228 -0.528163 4.22008 0
M  V30 2011 N 199.544 -1.57102 0.125237 0
M  V30 2012 C 200.784 -1.97294 -0.534259 0
M  V30 2013 C 201.148 -1.0074 -1.63449 0
M  V30 2014 O 202.349 -1.29893 -2.35332 0
M  V30 2015 C 200.62 -3.41705 -1.04748 0
M  V30 2016 S 202.179 -4.03913 -1.71463 0
M  V30 2017 H 198.997 -0.689517 -0.173458 0
M  V30 2018 H 201.599 -1.94349 0.211797 0
M  V30 2019 H 200.303 -4.09723 -0.235649 0
M  V30 2020 H 199.834 -3.48315 -1.82867 0
M  V30 2021 H 201.849 -3.95182 -3.00077 0
M  V30 2022 N 201.022 0.148545 -1.56898 0
M  V30 2023 C 202.247 0.880385 -1.87787 0
M  V30 2024 C 202.672 1.74018 -0.714093 0
M  V30 2025 O 202.03 1.78153 0.336343 0
M  V30 2026 C 202.078 1.71422 -3.17249 0
M  V30 2027 O 201.182 2.8183 -3.01074 0
M  V30 2028 H 200.523 0.245301 -0.617028 0
M  V30 2029 H 203.053 0.139826 -2.04122 0
M  V30 2030 H 203.063 2.10954 -3.49231 0
M  V30 2031 H 201.738 1.08284 -4.01556 0
M  V30 2032 H 200.315 2.45715 -2.80497 0
M  V30 2033 N 202.5 1.5196 0.417844 0
M  V30 2034 C 203.74 1.67262 1.17486 0
M  V30 2035 C 204.104 0.38983 1.88001 0
M  V30 2036 O 205.305 0.418845 2.65517 0
M  V30 2037 C 203.576 2.85526 2.14965 0
M  V30 2038 S 205.135 3.21263 2.98891 0
M  V30 2039 H 201.953 0.589077 0.398132 0
M  V30 2040 H 204.555 1.89927 0.463452 0
M  V30 2041 H 203.259 3.77145 1.61833 0
M  V30 2042 H 202.79 2.65107 2.90657 0
M  V30 2043 H 204.805 2.69208 4.16823 0
M  V30 2044 N 203.978 -0.674533 1.42435 0
M  V30 2045 C 204.91 -1.80005 1.41883 0
M  V30 2046 C 205.923 -1.59667 0.31787 0
M  V30 2047 O 207.112 -1.68781 0.580973 0
M  V30 2048 C 204.212 -3.17114 1.19549 0
M  V30 2049 C 203.385 -3.64299 2.42084 0
M  V30 2050 C 202.444 -4.80142 2.15291 0
M  V30 2051 O 201.47 -4.90673 2.88493 0
M  V30 2052 N 202.672 -5.68869 1.1562 0
M  V30 2053 H 205.437 -1.80964 2.38898 0
M  V30 2054 H 202.998 -0.857633 1.37318 0
M  V30 2055 H 204.99 -3.92267 0.995417 0
M  V30 2056 H 203.56 -3.11053 0.310569 0
M  V30 2057 H 202.78 -2.79822 2.77657 0
M  V30 2058 H 204.068 -3.92567 3.23679 0
M  V30 2059 H 203.466 -5.63012 0.550765 0
M  V30 2060 H 202.023 -6.43833 1.016 0
M  V30 2061 N 205.456 -1.28612 -0.910864 0
M  V30 2062 C 206.366 -1.14643 -2.0468 0
M  V30 2063 C 207.382 -0.0723121 -1.7385 0
M  V30 2064 O 208.558 -0.282178 -1.99413 0
M  V30 2065 C 205.623 -0.812561 -3.37044 0
M  V30 2066 C 204.684 -1.96935 -3.81465 0
M  V30 2067 C 203.917 -1.65131 -5.07511 0
M  V30 2068 O 204.14 -0.567013 -5.67575 0
M  V30 2069 O 203.074 -2.49585 -5.47714 0
M  V30 2070 H 206.9 -2.1001 -2.19384 0
M  V30 2071 H 204.485 -1.07958 -1.03274 0
M  V30 2072 H 206.367 -0.640441 -4.16505 0
M  V30 2073 H 205.042 0.111426 -3.23508 0
M  V30 2074 H 203.949 -2.19664 -3.02818 0
M  V30 2075 H 205.282 -2.87414 -3.99567 0
M  V30 2076 N 206.934 1.1197 -1.10907 0
M  V30 2077 C 208.182 1.83225 -0.852819 0
M  V30 2078 C 208.503 1.84769 0.623341 0
M  V30 2079 O 207.773 1.3143 1.45269 0
M  V30 2080 H 206.353 0.67849 -0.312507 0
M  V30 2081 H 209.015 1.3556 -1.40033 0
M  V30 2082 H 208.111 2.87265 -1.22005 0
M  V30 2083 N 208.412 0.89855 1.29475 0
M  V30 2084 C 209.659 0.523882 1.95606 0
M  V30 2085 C 209.987 -0.929608 1.70847 0
M  V30 2086 O 209.242 -1.67401 1.01367 0
M  V30 2087 C 209.541 0.761398 3.49195 0
M  V30 2088 C 209.207 2.19207 3.94029 0
M  V30 2089 C 207.869 2.58326 4.05982 0
M  V30 2090 C 210.221 3.12379 4.17216 0
M  V30 2091 C 207.549 3.898 4.38489 0
M  V30 2092 C 209.901 4.43401 4.51197 0
M  V30 2093 C 208.565 4.82394 4.61359 0
M  V30 2094 H 207.835 0.191702 0.715773 0
M  V30 2095 H 210.482 1.13699 1.54094 0
M  V30 2096 H 208.787 0.0653622 3.91745 0
M  V30 2097 H 210.484 0.450904 3.98457 0
M  V30 2098 H 207.074 1.87846 3.85242 0
M  V30 2099 H 211.258 2.83371 4.07449 0
M  V30 2100 H 206.514 4.19734 4.44559 0
M  V30 2101 H 210.688 5.15623 4.68087 0
M  V30 2102 H 208.315 5.84306 4.86303 0
M  V30 2103 N 209.89 -1.43072 0.660911 0
M  V30 2104 C 211.138 -2.01323 0.177094 0
M  V30 2105 C 211.459 -1.5245 -1.2159 0
M  V30 2106 O 210.729 -0.740322 -1.81373 0
M  V30 2107 H 209.309 -0.744382 0.0624804 0
M  V30 2108 H 211.971 -1.75179 0.854305 0
M  V30 2109 H 211.067 -3.11649 0.167641 0
M  V30 2110 N 211.368 -0.403325 -1.52352 0
M  V30 2111 C 212.616 0.174003 -2.0135 0
M  V30 2112 C 212.937 1.46139 -1.29106 0
M  V30 2113 O 212.207 1.91448 -0.415253 0
M  V30 2114 H 210.787 0.0672911 -0.743963 0
M  V30 2115 H 213.449 -0.538235 -1.87321 0
M  V30 2116 H 212.545 0.374254 -3.09848 0
M  V30 2117 N 212.846 1.57033 -0.133567 0
M  V30 2118 C 214.074 2.00044 0.528195 0
M  V30 2119 C 214.489 1.01349 1.59291 0
M  V30 2120 O 213.846 0.00848369 1.82498 0
M  V30 2121 C 213.897 3.43018 1.1411 0
M  V30 2122 O 213.618 4.37939 0.11892 0
M  V30 2123 C 215.119 4.01237 1.88477 0
M  V30 2124 H 212.339 0.656517 0.138661 0
M  V30 2125 H 214.883 2.03267 -0.224196 0
M  V30 2126 H 213.038 3.40688 1.84418 0
M  V30 2127 H 213.452 5.21436 0.56613 0
M  V30 2128 H 214.926 5.03314 2.26669 0
M  V30 2129 H 215.403 3.41193 2.76558 0
M  V30 2130 H 216.009 4.07156 1.22898 0
M  V30 2131 N 214.325 -0.140222 1.56975 0
M  V30 2132 C 215.288 -1.15689 1.97861 0
M  V30 2133 C 216.288 -1.3549 0.865974 0
M  V30 2134 O 217.478 -1.32367 1.13246 0
M  V30 2135 C 214.61 -2.51582 2.30042 0
M  V30 2136 H 215.803 -0.805971 2.88867 0
M  V30 2137 H 213.356 -0.383801 1.51515 0
M  V30 2138 H 214.091 -2.91632 1.41849 0
M  V30 2139 H 213.876 -2.38569 3.11171 0
M  V30 2140 H 215.366 -3.24792 2.62488 0
M  V30 2141 N 215.803 -1.52179 -0.40978 0
M  V30 2142 C 217.043 -1.67882 -1.16597 0
M  V30 2143 C 217.407 -0.399795 -1.87791 0
M  V30 2144 O 218.608 -0.43292 -2.65291 0
M  V30 2145 C 216.879 -2.86662 -2.13448 0
M  V30 2146 S 218.438 -3.22843 -2.97183 0
M  V30 2147 H 215.256 -0.59118 -0.395002 0
M  V30 2148 H 217.858 -1.9017 -0.453373 0
M  V30 2149 H 216.562 -3.77998 -1.59831 0
M  V30 2150 H 216.093 -2.66645 -2.89247 0
M  V30 2151 H 218.108 -2.71415 -4.15389 0
M  V30 2152 N 217.281 0.66697 -1.42791 0
M  V30 2153 C 218.191 1.80962 -1.49299 0
M  V30 2154 C 219.207 1.69775 -0.381108 0
M  V30 2155 O 220.383 1.91188 -0.633188 0
M  V30 2156 C 217.448 3.17156 -1.40045 0
M  V30 2157 C 216.509 3.40242 -2.6179 0
M  V30 2158 C 215.742 4.69939 -2.52969 0
M  V30 2159 O 215.965 5.48372 -1.56985 0
M  V30 2160 O 214.899 4.94441 -3.43237 0
M  V30 2161 H 218.725 1.78427 -2.45759 0
M  V30 2162 H 216.31 0.823713 -1.24641 0
M  V30 2163 H 218.192 3.98413 -1.37276 0
M  V30 2164 H 216.867 3.20312 -0.467138 0
M  V30 2165 H 215.774 2.58802 -2.70134 0
M  V30 2166 H 217.107 3.41923 -3.54047 0
M  V30 2167 N 218.759 1.29093 0.90403 0
M  V30 2168 C 219.987 1.19689 1.68766 0
M  V30 2169 C 220.402 -0.243113 1.87228 0
M  V30 2170 O 219.759 -1.16326 1.40621 0
M  V30 2171 C 219.81 1.90144 3.07453 0
M  V30 2172 O 219.531 3.2852 2.89838 0
M  V30 2173 C 221.032 1.87162 4.01852 0
M  V30 2174 H 218.252 0.415035 0.527244 0
M  V30 2175 H 220.796 1.7039 1.13082 0
M  V30 2176 H 218.951 1.43289 3.59926 0
M  V30 2177 H 219.365 3.63944 3.77684 0
M  V30 2178 H 220.839 2.41032 4.96596 0
M  V30 2179 H 221.316 0.84617 4.30972 0
M  V30 2180 H 221.922 2.33741 3.5531 0
M  V30 2181 N 220.237 -1.11381 1.11499 0
M  V30 2182 C 221.477 -1.84763 0.874188 0
M  V30 2183 C 221.841 -1.82726 -0.589496 0
M  V30 2184 O 223.042 -2.51562 -0.947089 0
M  V30 2185 C 221.313 -3.27931 1.42112 0
M  V30 2186 S 222.872 -4.18557 1.31739 0
M  V30 2187 H 219.69 -0.637115 0.315603 0
M  V30 2188 H 222.292 -1.34097 1.42261 0
M  V30 2189 H 220.996 -3.26978 2.48019 0
M  V30 2190 H 220.527 -3.83665 0.869761 0
M  V30 2191 H 222.542 -4.95396 0.282335 0
M  V30 2192 N 221.715 -0.905404 -1.28997 0
M  V30 2193 C 222.678 -0.392253 -2.25819 0
M  V30 2194 C 223.678 0.476753 -1.5357 0
M  V30 2195 O 224.868 0.280994 -1.71919 0
M  V30 2196 C 222 0.438588 -3.38067 0
M  V30 2197 H 223.193 -1.24743 -2.72725 0
M  V30 2198 H 220.746 -0.684051 -1.40536 0
M  V30 2199 H 221.481 1.31352 -2.96508 0
M  V30 2200 H 221.266 -0.184167 -3.91667 0
M  V30 2201 H 222.756 0.78873 -4.10084 0
M  V30 2202 N 223.193 1.4272 -0.668489 0
M  V30 2203 C 224.47 1.95248 -0.117373 0
M  V30 2204 C 224.85 1.60919 1.36632 0
M  V30 2205 O 224.198 0.902095 2.09939 0
M  V30 2206 C 224.408 3.46927 -0.379806 0
M  V30 2207 C 225.756 4.23588 -0.292923 0
M  V30 2208 O 226.78 3.5482 -0.313204 0
M  V30 2209 O 225.639 5.46017 -0.229697 0
M  V30 2210 H 222.733 0.827 0.00079152 0
M  V30 2211 H 225.279 1.52581 -0.742783 0
M  V30 2212 H 224.051 3.65096 -1.40786 0
M  V30 2213 H 223.674 3.96627 0.277923 0
M  V30 2214 N 224.671 0.411399 1.52136 0
M  V30 2215 C 225.948 -0.222308 1.94333 0
M  V30 2216 C 226.328 -1.6242 1.34844 0
M  V30 2217 O 225.676 -2.22384 0.525145 0
M  V30 2218 C 225.886 -0.226345 3.48265 0
M  V30 2219 C 227.234 -0.444592 4.22266 0
M  V30 2220 O 228.258 -0.305602 3.54887 0
M  V30 2221 O 227.117 -0.718749 5.41753 0
M  V30 2222 H 224.211 -0.143907 0.814383 0
M  V30 2223 H 226.757 0.467506 1.63133 0
M  V30 2224 H 225.529 0.75475 3.83952 0
M  V30 2225 H 225.152 -0.960163 3.85832 0
M  V30 2226 N 226.149 -1.5696 0.141893 0
M  V30 2227 C 227.097 -2.17784 -0.816874 0
M  V30 2228 C 228.091 -1.1334 -1.25899 0
M  V30 2229 O 229.297 -1.316 -1.22806 0
M  V30 2230 H 225.672 -0.697278 -0.281615 0
M  V30 2231 H 227.643 -2.97087 -0.279621 0
M  V30 2232 C 226.392 -2.80983 -2.04802 0
M  V30 2233 H 225.715 -3.61062 -1.7168 0
M  V30 2234 H 227.155 -3.2705 -2.69841 0
M  V30 2235 C 225.614 -1.79228 -2.8527 0
M  V30 2236 O 226.144 -1.25962 -3.8144 0
M  V30 2237 N 224.35 -1.48647 -2.49704 0
M  V30 2238 H 223.897 -1.92155 -1.71564 0
M  V30 2239 H 223.855 -0.808115 -3.03837 0
M  V30 2240 N 227.627 0.131896 -1.57047 0
M  V30 2241 C 228.557 1.16384 -2.02428 0
M  V30 2242 C 229.538 1.43936 -0.90644 0
M  V30 2243 O 230.723 1.54599 -1.17528 0
M  V30 2244 C 227.853 2.49328 -2.4177 0
M  V30 2245 C 226.807 2.36266 -3.56879 0
M  V30 2246 C 226.133 3.74057 -3.8208 0
M  V30 2247 C 227.433 1.834 -4.89042 0
M  V30 2248 H 229.127 0.786433 -2.88887 0
M  V30 2249 H 226.673 0.376855 -1.38981 0
M  V30 2250 H 228.626 3.21759 -2.7212 0
M  V30 2251 H 227.35 2.88934 -1.52266 0
M  V30 2252 H 226.009 1.66286 -3.26718 0
M  V30 2253 H 225.657 4.11125 -2.89803 0
M  V30 2254 H 225.357 3.66174 -4.59554 0
M  V30 2255 H 226.881 4.48012 -4.1487 0
M  V30 2256 H 228.295 2.45636 -5.18011 0
M  V30 2257 H 226.692 1.8637 -5.70426 0
M  V30 2258 H 227.762 0.790662 -4.7841 0
M  V30 2259 N 229.106 1.52395 0.401703 0
M  V30 2260 C 230.353 1.66817 1.14796 0
M  V30 2261 C 230.681 0.401772 1.90305 0
M  V30 2262 O 229.936 -0.615487 1.85769 0
M  V30 2263 C 230.235 2.84578 2.16217 0
M  V30 2264 C 229.901 4.22513 1.5746 0
M  V30 2265 C 228.563 4.60029 1.41161 0
M  V30 2266 C 230.915 5.0844 1.14622 0
M  V30 2267 C 228.243 5.81144 0.80552 0
M  V30 2268 C 230.595 6.30167 0.55428 0
M  V30 2269 C 229.259 6.66426 0.378482 0
M  V30 2270 H 228.529 0.610428 0.420069 0
M  V30 2271 H 231.176 1.86512 0.434212 0
M  V30 2272 H 229.481 2.59248 2.93764 0
M  V30 2273 H 231.178 2.92933 2.73845 0
M  V30 2274 H 227.768 3.92953 1.71132 0
M  V30 2275 H 231.952 4.80034 1.26021 0
M  V30 2276 H 227.208 6.07855 0.657399 0
M  V30 2277 H 231.382 6.96071 0.213983 0
M  V30 2278 H 229.009 7.60143 -0.0932606 0
M  V30 2279 N 230.584 -0.659388 1.43143 0
M  V30 2280 C 231.832 -1.41654 1.44147 0
M  V30 2281 C 232.153 -1.94893 0.0645739 0
M  V30 2282 O 231.423 -1.74044 -0.899198 0
M  V30 2283 H 230.003 -0.525708 0.530697 0
M  V30 2284 H 232.665 -0.778097 1.78694 0
M  V30 2285 H 231.761 -2.26195 2.1504 0
M  V30 2286 N 232.062 -1.29571 -0.897171 0
M  V30 2287 C 233.473 -1.15964 -1.46319 0
M  V30 2288 C 233.824 0.244267 -1.94674 0
M  V30 2289 O 232.949 1.13998 -1.83939 0
M  V30 2290 C 233.544 -2.09906 -2.65942 0
M  V30 2291 C 232.103 -2.00314 -3.18671 0
M  V30 2292 C 231.25 -2.00687 -1.91363 0
M  V30 2293 H 234.201 -1.42019 -0.708268 0
M  V30 2294 H 234.222 -1.67276 -3.41759 0
M  V30 2295 H 233.734 -3.12075 -2.30718 0
M  V30 2296 H 231.835 -1.01242 -3.58582 0
M  V30 2297 H 231.948 -2.88102 -3.82798 0
M  V30 2298 H 230.312 -1.45319 -2.09175 0
M  V30 2299 H 231.095 -3.04566 -1.58413 0
M  V30 2300 N 233.54 1.10788 -1.12088 0
M  V30 2301 C 234.765 1.87002 -0.896949 0
M  V30 2302 C 235.19 1.79933 0.548261 0
M  V30 2303 O 234.548 1.16662 1.38779 0
M  V30 2304 C 234.596 3.3349 -1.37174 0
M  V30 2305 O 233.7 4.08745 -0.547831 0
M  V30 2306 H 233.041 0.580397 -0.322545 0
M  V30 2307 H 235.571 1.39996 -1.49206 0
M  V30 2308 H 235.581 3.84339 -1.36922 0
M  V30 2309 H 234.256 3.37951 -2.42408 0
M  V30 2310 H 232.833 3.6776 -0.617034 0
M  V30 2311 N 235.018 0.912232 1.28515 0
M  V30 2312 C 236.258 0.551677 1.96814 0
M  V30 2313 C 236.622 -0.887825 1.7024 0
M  V30 2314 O 237.823 -1.35588 2.32098 0
M  V30 2315 C 236.094 0.850555 3.47132 0
M  V30 2316 S 237.653 0.59619 4.34731 0
M  V30 2317 H 234.471 0.204191 0.681049 0
M  V30 2318 H 237.073 1.17736 1.56072 0
M  V30 2319 H 235.777 1.8962 3.63968 0
M  V30 2320 H 235.308 0.213471 3.9282 0
M  V30 2321 H 237.323 -0.553154 4.93107 0
M  V30 2322 N 236.496 -1.42363 0.676048 0
M  V30 2323 C 237.721 -2.06377 0.205705 0
M  V30 2324 C 238.146 -1.50463 -1.12883 0
M  V30 2325 O 237.504 -0.623619 -1.70237 0
M  V30 2326 C 237.552 -3.60277 0.152655 0
M  V30 2327 O 236.656 -4.02935 -0.87845 0
M  V30 2328 H 235.997 -0.655588 0.105359 0
M  V30 2329 H 238.527 -1.82475 0.925412 0
M  V30 2330 H 238.537 -4.07993 -0.0230675 0
M  V30 2331 H 237.212 -4.00346 1.12675 0
M  V30 2332 H 235.789 -3.66764 -0.673668 0
M  V30 2333 N 237.974 -0.419461 -1.51915 0
M  V30 2334 C 239.199 0.154572 -2.06823 0
M  V30 2335 C 239.624 1.3722 -1.28656 0
M  V30 2336 O 238.982 1.78461 -0.319583 0
M  V30 2337 C 239.03 0.473172 -3.57482 0
M  V30 2338 O 238.134 1.56255 -3.81652 0
M  V30 2339 H 237.475 0.0096924 -0.663929 0
M  V30 2340 H 240.005 -0.595642 -1.95738 0
M  V30 2341 H 240.015 0.728825 -4.01438 0
M  V30 2342 H 238.69 -0.416873 -4.13805 0
M  V30 2343 H 237.267 1.29825 -3.49571 0
M  V30 2344 N 239.452 1.56882 -0.150215 0
M  V30 2345 C 240.698 1.96518 0.500834 0
M  V30 2346 C 241.031 1.03527 1.64304 0
M  V30 2347 O 240.306 0.0782751 1.94342 0
M  V30 2348 C 240.589 3.45822 1.00395 0
M  V30 2349 C 240.442 4.49591 -0.136983 0
M  V30 2350 C 241.761 3.97704 1.88467 0
M  V30 2351 H 238.88 0.714535 0.18058 0
M  V30 2352 H 241.522 1.88577 -0.232091 0
M  V30 2353 H 239.672 3.5272 1.62851 0
M  V30 2354 H 241.344 4.5477 -0.77343 0
M  V30 2355 H 239.587 4.26441 -0.795652 0
M  V30 2356 H 240.258 5.51402 0.256815 0
M  V30 2357 H 242.734 3.93304 1.35834 0
M  V30 2358 H 241.61 5.0263 2.20578 0
M  V30 2359 H 241.871 3.40252 2.82279 0
M  V30 2360 N 240.93 -0.123565 1.57115 0
M  V30 2361 C 242.17 -0.838097 1.86428 0
M  V30 2362 C 242.534 -1.77266 0.737611 0
M  V30 2363 O 243.735 -2.52842 0.912389 0
M  V30 2364 C 242.006 -1.57219 3.20962 0
M  V30 2365 S 243.565 -2.32893 3.71896 0
M  V30 2366 H 240.383 -0.279811 0.653626 0
M  V30 2367 H 242.985 -0.0967034 1.95261 0
M  V30 2368 H 241.689 -0.877522 4.00909 0
M  V30 2369 H 241.22 -2.35405 3.15195 0
M  V30 2370 H 243.235 -3.5853 3.43032 0
M  V30 2371 N 242.408 -1.52605 -0.393616 0
M  V30 2372 C 243.356 -1.77688 -1.50099 0
M  V30 2373 C 244.35 -0.644615 -1.56656 0
M  V30 2374 O 245.556 -0.826997 -1.59877 0
M  V30 2375 H 241.931 -0.562159 -0.499481 0
M  V30 2376 H 243.902 -2.7043 -1.26135 0
M  V30 2377 C 242.651 -1.95858 -2.87289 0
M  V30 2378 H 241.974 -2.8241 -2.82992 0
M  V30 2379 H 243.414 -2.174 -3.64024 0
M  V30 2380 C 241.873 -0.729848 -3.28899 0
M  V30 2381 O 242.403 0.0949217 -4.01588 0
M  V30 2382 N 240.609 -0.561283 -2.85128 0
M  V30 2383 H 240.156 -1.23357 -2.26143 0
M  V30 2384 H 240.114 0.2595 -3.13327 0
M  V30 2385 N 243.887 0.651787 -1.4349 0
M  V30 2386 C 245.127 1.42345 -1.46688 0
M  V30 2387 C 245.491 1.91793 -0.0891023 0
M  V30 2388 O 246.692 2.688 0.00423594 0
M  V30 2389 C 244.963 2.57221 -2.48137 0
M  V30 2390 S 246.522 3.45725 -2.70221 0
M  V30 2391 H 243.34 0.485878 -0.51908 0
M  V30 2392 H 245.942 0.756578 -1.80267 0
M  V30 2393 H 244.646 2.1917 -3.46976 0
M  V30 2394 H 244.177 3.28757 -2.16061 0
M  V30 2395 H 246.192 4.53996 -2.00255 0
M  V30 2396 N 245.365 1.30045 0.890287 0
M  V30 2397 C 246.611 1.18737 1.64406 0
M  V30 2398 C 246.944 -0.258525 1.92472 0
M  V30 2399 O 246.219 -1.18562 1.54186 0
M  V30 2400 C 246.502 2.01087 2.98724 0
M  V30 2401 C 246.355 3.53867 2.77665 0
M  V30 2402 C 247.674 1.84457 3.9958 0
M  V30 2403 H 244.793 0.432698 0.596608 0
M  V30 2404 H 247.435 1.5962 1.0306 0
M  V30 2405 H 245.585 1.66349 3.51084 0
M  V30 2406 H 247.257 3.98637 2.32133 0
M  V30 2407 H 245.5 3.78318 2.12269 0
M  V30 2408 H 246.171 4.06772 3.7315 0
M  V30 2409 H 248.647 2.14817 3.56361 0
M  V30 2410 H 247.523 2.44411 4.91482 0
M  V30 2411 H 247.784 0.802276 4.3476 0
M  V30 2412 N 246.843 -1.10192 1.12674 0
M  V30 2413 C 247.793 -2.14754 0.765801 0
M  V30 2414 C 248.777 -1.59154 -0.236409 0
M  V30 2415 O 249.969 -1.76951 -0.0415261 0
M  V30 2416 C 247.098 -3.42563 0.224827 0
M  V30 2417 C 246.184 -4.05091 1.25548 0
M  V30 2418 N 246.575 -4.42287 2.4539 0
M  V30 2419 C 244.873 -4.32186 1.10142 0
M  V30 2420 C 245.574 -4.91441 3.11224 0
M  V30 2421 N 244.55 -4.88405 2.38666 0
M  V30 2422 H 248.352 -2.41309 1.67772 0
M  V30 2423 H 245.866 -1.27339 1.00789 0
M  V30 2424 H 247.863 -4.16868 -0.0519578 0
M  V30 2425 H 246.523 -3.17467 -0.681515 0
M  V30 2426 H 247.534 -4.33902 2.82754 0
M  V30 2427 H 244.211 -4.16735 0.252587 0
M  V30 2428 H 245.601 -5.29749 4.13298 0
M  V30 2429 N 248.321 -0.919034 -1.28029 0
M  V30 2430 C 249.569 -0.553838 -1.94363 0
M  V30 2431 C 249.89 0.906357 -1.72656 0
M  V30 2432 O 249.16 1.64143 -1.0693 0
M  V30 2433 H 247.74 -0.201834 -0.719216 0
M  V30 2434 H 250.402 -1.16954 -1.55909 0
M  V30 2435 H 249.498 -0.752758 -3.02886 0
M  V30 2436 N 249.799 1.42003 -0.683588 0
M  V30 2437 C 251.045 2.01712 -0.209825 0
M  V30 2438 C 251.378 1.53968 1.18353 0
M  V30 2439 O 250.653 0.745661 1.79639 0
M  V30 2440 C 250.936 3.59202 -0.254197 0
M  V30 2441 C 250.789 4.17102 -1.68363 0
M  V30 2442 C 252.108 4.38344 0.392709 0
M  V30 2443 H 249.227 0.732891 -0.0777189 0
M  V30 2444 H 251.869 1.68909 -0.87004 0
M  V30 2445 H 250.019 3.87278 0.307954 0
M  V30 2446 H 251.691 3.99946 -2.29871 0
M  V30 2447 H 249.934 3.72597 -2.22157 0
M  V30 2448 H 250.605 5.26249 -1.6663 0
M  V30 2449 H 253.081 4.16011 -0.0859162 0
M  V30 2450 H 251.957 5.47901 0.331063 0
M  V30 2451 H 252.218 4.16887 1.47164 0
M  V30 2452 N 251.277 0.427512 1.51691 0
M  V30 2453 C 252.517 -0.141524 2.03909 0
M  V30 2454 C 252.881 -1.40811 1.30523 0
M  V30 2455 O 254.082 -2.05676 1.73063 0
M  V30 2456 C 252.353 -0.364962 3.55532 0
M  V30 2457 S 253.912 -0.898812 4.29496 0
M  V30 2458 H 250.73 -0.0364542 0.710065 0
M  V30 2459 H 253.332 0.584659 1.86553 0
M  V30 2460 H 252.036 0.56336 4.06515 0
M  V30 2461 H 251.567 -1.1185 3.77164 0
M  V30 2462 H 253.582 -2.17747 4.45871 0
M  V30 2463 N 252.755 -1.56801 0.158532 0
M  V30 2464 C 253.703 -2.18638 -0.793729 0
M  V30 2465 C 254.697 -1.14669 -1.24689 0
M  V30 2466 O 255.903 -1.32895 -1.21403 0
M  V30 2467 H 252.278 -0.700226 -0.274204 0
M  V30 2468 H 254.249 -2.97367 -0.248095 0
M  V30 2469 C 252.998 -2.83139 -2.0181 0
M  V30 2470 H 252.321 -3.62863 -1.67841 0
M  V30 2471 H 253.761 -3.29894 -2.66357 0
M  V30 2472 C 252.22 -1.82244 -2.83353 0
M  V30 2473 O 252.75 -1.3 -3.80083 0
M  V30 2474 N 250.956 -1.51288 -2.48114 0
M  V30 2475 H 250.503 -1.93964 -1.69516 0
M  V30 2476 H 250.461 -0.840296 -3.02963 0
M  V30 2477 N 254.233 0.115231 -1.57178 0
M  V30 2478 C 255.458 0.840354 -1.89612 0
M  V30 2479 C 255.883 1.72464 -0.750845 0
M  V30 2480 O 255.241 1.78826 0.298478 0
M  V30 2481 C 255.289 1.64654 -3.20814 0
M  V30 2482 O 254.393 2.7538 -3.06985 0
M  V30 2483 H 253.734 0.232158 -0.622092 0
M  V30 2484 H 256.264 0.0964977 -2.04372 0
M  V30 2485 H 256.274 2.03499 -3.53627 0
M  V30 2486 H 254.949 0.997416 -4.03763 0
M  V30 2487 H 253.526 2.3971 -2.85646 0
M  V30 2488 N 255.711 1.52812 0.385517 0
M  V30 2489 C 256.959 1.67694 1.12797 0
M  V30 2490 C 257.28 0.421115 1.90399 0
M  V30 2491 O 256.55 -0.564551 1.87589 0
M  V30 2492 H 255.13 0.618155 0.419396 0
M  V30 2493 H 257.792 1.89938 0.436972 0
M  V30 2494 H 256.888 2.52896 1.82894 0
M  V30 2495 N 257.189 -0.644168 1.43834 0
M  V30 2496 C 258.119 -1.76814 1.52509 0
M  V30 2497 C 259.1 -1.65823 0.379052 0
M  V30 2498 O 260.285 -1.84781 0.597466 0
M  V30 2499 C 257.415 -3.15288 1.4564 0
M  V30 2500 C 256.369 -3.41053 2.58586 0
M  V30 2501 C 255.695 -4.79421 2.36769 0
M  V30 2502 C 256.995 -3.34902 4.00797 0
M  V30 2503 H 258.689 -1.69812 2.46586 0
M  V30 2504 H 256.235 -0.815542 1.1868 0
M  V30 2505 H 258.188 -3.93681 1.50311 0
M  V30 2506 H 256.912 -3.23043 0.480725 0
M  V30 2507 H 255.571 -2.65035 2.53282 0
M  V30 2508 H 255.219 -4.83863 1.37424 0
M  V30 2509 H 254.919 -4.9762 3.12487 0
M  V30 2510 H 256.443 -5.6006 2.43238 0
M  V30 2511 H 257.857 -4.03218 4.07539 0
M  V30 2512 H 256.254 -3.64637 4.76613 0
M  V30 2513 H 257.324 -2.32928 4.25291 0
M  V30 2514 N 258.668 -1.30515 -0.883378 0
M  V30 2515 C 259.945 -1.10086 -1.6168 0
M  V30 2516 C 260.325 0.349269 -2.08191 0
M  V30 2517 O 259.673 1.34105 -1.85008 0
M  V30 2518 C 259.883 -2.10315 -2.78511 0
M  V30 2519 C 261.231 -2.42119 -3.48803 0
M  V30 2520 O 262.255 -2.08638 -2.88702 0
M  V30 2521 O 261.114 -2.99396 -4.57192 0
M  V30 2522 H 258.208 -0.422907 -0.710689 0
M  V30 2523 H 260.754 -1.41947 -0.930015 0
M  V30 2524 H 259.526 -3.07917 -2.41459 0
M  V30 2525 H 259.149 -1.79282 -3.54886 0
M  V30 2526 N 260.146 1.09593 -1.13257 0
M  V30 2527 C 261.394 1.81375 -0.891492 0
M  V30 2528 C 261.715 1.86049 0.584009 0
M  V30 2529 O 260.985 1.34481 1.42449 0
M  V30 2530 H 259.565 0.671708 -0.326828 0
M  V30 2531 H 262.227 1.3256 -1.42877 0
M  V30 2532 H 261.323 2.84612 -1.28071 0
M  V30 2533 N 261.624 0.925811 1.2754 0
M  V30 2534 C 262.901 0.483726 1.89524 0
M  V30 2535 C 263.281 -1.03809 1.83812 0
M  V30 2536 O 262.629 -1.89143 1.28207 0
M  V30 2537 C 262.839 1.02769 3.33526 0
M  V30 2538 C 264.187 1.08703 4.10449 0
M  V30 2539 O 265.211 0.977175 3.42534 0
M  V30 2540 O 264.07 1.25599 5.31871 0
M  V30 2541 H 261.164 0.15529 0.812289 0
M  V30 2542 H 263.71 1.01738 1.35822 0
M  V30 2543 H 262.482 2.07155 3.31967 0
M  V30 2544 H 262.105 0.475567 3.94746 0
M  V30 2545 N 263.102 -1.41638 0.69111 0
M  V30 2546 C 264.35 -2.00902 0.219758 0
M  V30 2547 C 264.671 -1.54994 -1.18329 0
M  V30 2548 O 263.941 -0.778628 -1.79762 0
M  V30 2549 H 262.521 -0.74289 0.0782558 0
M  V30 2550 H 265.183 -1.73327 0.891271 0
M  V30 2551 H 264.279 -3.11224 0.233708 0
M  V30 2552 N 264.58 -0.43555 -1.51462 0
M  V30 2553 C 265.808 0.130242 -2.0649 0
M  V30 2554 C 266.223 1.36614 -1.30315 0
M  V30 2555 O 265.58 1.78869 -0.362223 0
M  V30 2556 C 265.631 0.454253 -3.58635 0
M  V30 2557 O 265.352 -0.73259 -4.31931 0
M  V30 2558 C 266.853 1.07091 -4.3017 0
M  V30 2559 H 264.073 0.00871669 -0.670943 0
M  V30 2560 H 266.617 -0.614117 -1.95061 0
M  V30 2561 H 264.772 1.14851 -3.69984 0
M  V30 2562 H 265.186 -0.455787 -5.22516 0
M  V30 2563 H 266.66 1.24764 -5.37716 0
M  V30 2564 H 267.137 2.05144 -3.88346 0
M  V30 2565 H 267.743 0.416089 -4.2326 0
M  V30 2566 N 266.058 1.56714 -0.166846 0
M  V30 2567 C 267.298 1.98641 0.481763 0
M  V30 2568 C 267.662 1.05038 1.6072 0
M  V30 2569 O 268.863 1.36087 2.31805 0
M  V30 2570 C 267.134 3.44362 0.956517 0
M  V30 2571 S 268.693 4.08317 1.60694 0
M  V30 2572 H 265.511 0.693873 0.155116 0
M  V30 2573 H 268.113 1.93719 -0.263251 0
M  V30 2574 H 266.817 4.10204 0.126936 0
M  V30 2575 H 266.348 3.53041 1.73568 0
M  V30 2576 H 268.363 4.02999 2.89494 0
M  V30 2577 N 267.536 -0.106894 1.57237 0
M  V30 2578 C 268.446 -1.14911 2.0453 0
M  V30 2579 C 269.462 -1.44592 0.96795 0
M  V30 2580 O 270.638 -1.55468 1.2803 0
M  V30 2581 C 267.703 -2.45272 2.45036 0
M  V30 2582 C 266.764 -2.22879 3.66911 0
M  V30 2583 C 265.997 -3.47024 4.05475 0
M  V30 2584 O 266.22 -4.54804 3.44252 0
M  V30 2585 O 265.154 -3.3731 4.98504 0
M  V30 2586 H 268.98 -0.777461 2.9358 0
M  V30 2587 H 266.565 -0.318563 1.45964 0
M  V30 2588 H 268.447 -3.22055 2.71769 0
M  V30 2589 H 267.122 -2.81886 1.59129 0
M  V30 2590 H 266.029 -1.43915 3.45311 0
M  V30 2591 H 267.362 -1.91163 4.53561 0
M  V30 2592 N 269.014 -1.53014 -0.377408 0
M  V30 2593 C 270.254 -1.70318 -1.1301 0
M  V30 2594 C 270.618 -0.439538 -1.86901 0
M  V30 2595 O 271.819 -0.489095 -2.64313 0
M  V30 2596 C 270.09 -2.91125 -2.07319 0
M  V30 2597 S 271.649 -3.29075 -2.90268 0
M  V30 2598 H 268.467 -0.599426 -0.382374 0
M  V30 2599 H 271.069 -1.91089 -0.412933 0
M  V30 2600 H 269.773 -3.81303 -1.51777 0
M  V30 2601 H 269.304 -2.7272 -2.83526 0
M  V30 2602 H 271.319 -2.80165 -4.09539 0
M  V30 2603 N 270.492 0.636531 -1.44174 0
M  V30 2604 C 271.722 1.42146 -1.49927 0
M  V30 2605 C 272.13 1.88812 -0.121063 0
M  V30 2606 O 271.473 1.61126 0.882267 0
M  V30 2607 C 271.535 2.67883 -2.39748 0
M  V30 2608 C 271.199 2.43048 -3.8701 0
M  V30 2609 C 272.196 2.05216 -4.77684 0
M  V30 2610 C 269.881 2.56856 -4.3166 0
M  V30 2611 C 271.875 1.81512 -6.11009 0
M  V30 2612 C 269.562 2.32766 -5.65034 0
M  V30 2613 C 270.56 1.95152 -6.54526 0
M  V30 2614 O 270.248 1.71326 -7.85431 0
M  V30 2615 H 269.98 0.442567 -0.51099 0
M  V30 2616 H 272.534 0.786158 -1.8976 0
M  V30 2617 H 270.764 3.34032 -1.94832 0
M  V30 2618 H 272.453 3.29874 -2.36513 0
M  V30 2619 H 273.219 1.94111 -4.44462 0
M  V30 2620 H 269.098 2.85104 -3.62266 0
M  V30 2621 H 272.642 1.52077 -6.80822 0
M  V30 2622 H 268.539 2.43479 -5.97819 0
M  V30 2623 H 269.307 1.85616 -7.97176 0
M  V30 2624 N 271.97 1.30982 0.876444 0
M  V30 2625 C 273.195 1.23373 1.66715 0
M  V30 2626 C 273.62 -0.19885 1.87046 0
M  V30 2627 O 272.978 -1.1427 1.40756 0
M  V30 2628 C 273.026 1.97644 3.01611 0
M  V30 2629 O 272.13 1.30935 3.91062 0
M  V30 2630 H 271.471 0.426279 0.509099 0
M  V30 2631 H 274.001 1.72944 1.09323 0
M  V30 2632 H 274.011 2.06992 3.51594 0
M  V30 2633 H 272.686 3.01829 2.86133 0
M  V30 2634 H 271.263 1.29996 3.49507 0
M  V30 2635 N 273.449 -1.08991 1.13837 0
M  V30 2636 C 274.412 -2.13925 0.822715 0
M  V30 2637 C 275.412 -1.599 -0.1699 0
M  V30 2638 O 276.602 -1.74104 0.0577251 0
M  V30 2639 C 273.734 -3.40155 0.225318 0
M  V30 2640 H 274.927 -2.43358 1.75262 0
M  V30 2641 H 272.48 -1.24603 0.943594 0
M  V30 2642 H 273.215 -3.16352 -0.713594 0
M  V30 2643 H 273 -3.80661 0.940193 0
M  V30 2644 H 274.49 -4.17594 0.0214784 0
M  V30 2645 N 274.927 -0.932562 -1.27047 0
M  V30 2646 C 276.157 -0.591173 -1.97961 0
M  V30 2647 C 276.565 0.836219 -1.69717 0
M  V30 2648 O 275.908 1.56801 -0.957036 0
M  V30 2649 C 275.97 -0.743082 -3.51736 0
M  V30 2650 C 275.634 -2.1435 -4.03613 0
M  V30 2651 C 276.631 -3.11815 -4.16014 0
M  V30 2652 C 274.316 -2.46175 -4.37839 0
M  V30 2653 C 276.31 -4.39211 -4.61923 0
M  V30 2654 C 273.997 -3.73806 -4.83438 0
M  V30 2655 C 274.995 -4.70137 -4.95439 0
M  V30 2656 O 274.683 -5.95496 -5.40037 0
M  V30 2657 H 274.415 -0.222375 -0.638377 0
M  V30 2658 H 276.969 -1.25317 -1.62742 0
M  V30 2659 H 275.199 -0.0239739 -3.86693 0
M  V30 2660 H 276.888 -0.40603 -4.03864 0
M  V30 2661 H 277.654 -2.88549 -3.89826 0
M  V30 2662 H 273.533 -1.71936 -4.27737 0
M  V30 2663 H 277.077 -5.14404 -4.71205 0
M  V30 2664 H 272.974 -3.96888 -5.09068 0
M  V30 2665 H 273.742 -5.98554 -5.58279 0
M  V30 2666 N 276.405 1.4127 -0.698611 0
M  V30 2667 C 277.633 2.05503 -0.239992 0
M  V30 2668 C 278.048 1.52584 1.11191 0
M  V30 2669 O 277.405 0.675323 1.69545 0
M  V30 2670 C 277.456 3.60987 -0.192429 0
M  V30 2671 O 277.177 4.1195 -1.49094 0
M  V30 2672 C 278.678 4.42371 0.28681 0
M  V30 2673 H 275.898 0.661748 -0.111045 0
M  V30 2674 H 278.442 1.80987 -0.95205 0
M  V30 2675 H 276.597 3.84533 0.470472 0
M  V30 2676 H 277.011 5.06018 -1.38007 0
M  V30 2677 H 278.485 5.51344 0.26896 0
M  V30 2678 H 278.962 4.18699 1.32619 0
M  V30 2679 H 279.568 4.23897 -0.345201 0
M  V30 2680 N 277.883 0.443576 1.51229 0
M  V30 2681 C 279.131 -0.120557 2.0174 0
M  V30 2682 C 279.452 -1.42665 1.32935 0
M  V30 2683 O 278.722 -1.9028 0.465866 0
M  V30 2684 H 277.302 -0.0475426 0.745486 0
M  V30 2685 H 279.964 0.587711 1.85828 0
M  V30 2686 H 279.06 -0.291972 3.10731 0
M  V30 2687 N 279.361 -1.56624 0.175154 0
M  V30 2688 C 280.772 -1.83561 -0.340916 0
M  V30 2689 C 281.123 -1.09511 -1.62794 0
M  V30 2690 O 280.248 -0.349389 -2.13561 0
M  V30 2691 C 280.843 -3.32979 -0.625313 0
M  V30 2692 C 279.402 -3.60399 -1.08581 0
M  V30 2693 C 278.549 -2.77024 -0.123722 0
M  V30 2694 H 281.5 -1.53593 0.399344 0
M  V30 2695 H 281.521 -3.50666 -1.47694 0
M  V30 2696 H 281.033 -3.86847 0.311575 0
M  V30 2697 H 279.134 -3.11945 -2.03767 0
M  V30 2698 H 279.247 -4.68711 -0.992317 0
M  V30 2699 H 277.611 -2.46993 -0.621821 0
M  V30 2700 H 278.394 -3.33674 0.807256 0
M  V30 2701 N 280.839 0.0985539 -1.57292 0
M  V30 2702 C 281.786 1.11981 -2.01814 0
M  V30 2703 C 282.756 1.39999 -0.89384 0
M  V30 2704 O 283.941 1.5152 -1.15958 0
M  V30 2705 C 281.081 2.43577 -2.44467 0
M  V30 2706 C 280.194 2.2232 -3.70402 0
M  V30 2707 C 279.329 3.4729 -4.01949 0
M  V30 2708 C 278.368 3.2128 -5.21005 0
M  V30 2709 N 277.505 4.38507 -5.48321 0
M  V30 2710 H 282.345 0.733149 -2.88841 0
M  V30 2711 H 279.882 0.350482 -1.42864 0
M  V30 2712 H 281.84 3.20373 -2.6724 0
M  V30 2713 H 280.47 2.80097 -1.60455 0
M  V30 2714 H 279.522 1.36343 -3.55126 0
M  V30 2715 H 280.834 1.99089 -4.57345 0
M  V30 2716 H 279.988 4.32495 -4.25479 0
M  V30 2717 H 278.727 3.73572 -3.13521 0
M  V30 2718 H 277.732 2.34468 -4.97298 0
M  V30 2719 H 278.957 2.96348 -6.11028 0
M  V30 2720 H 276.903 4.64871 -4.62851 0
M  V30 2721 H 276.82 4.18455 -6.29628 0
M  V30 2722 H 278.088 5.24787 -5.76385 0
M  V30 2723 N 282.317 1.53212 0.369288 0
M  V30 2724 C 283.557 1.70915 1.12105 0
M  V30 2725 C 283.921 0.449444 1.86665 0
M  V30 2726 O 285.122 0.503105 2.6405 0
M  V30 2727 C 283.393 2.9222 2.05772 0
M  V30 2728 S 284.952 3.30609 2.88519 0
M  V30 2729 H 281.77 0.601445 0.379189 0
M  V30 2730 H 284.372 1.91306 0.402794 0
M  V30 2731 H 283.076 3.82103 1.49752 0
M  V30 2732 H 282.607 2.7422 2.82076 0
M  V30 2733 H 284.622 2.82333 4.08047 0
M  V30 2734 N 283.795 -0.628877 1.44509 0
M  V30 2735 C 285.072 -1.38733 1.37886 0
M  V30 2736 C 285.452 -2.11065 0.0387008 0
M  V30 2737 O 284.8 -2.06476 -0.97878 0
M  V30 2738 C 285.01 -2.35188 2.57852 0
M  V30 2739 C 286.358 -2.9845 3.02014 0
M  V30 2740 O 287.382 -2.45513 2.58073 0
M  V30 2741 O 286.241 -3.94487 3.78209 0
M  V30 2742 H 283.335 -0.621015 0.54614 0
M  V30 2743 H 285.881 -0.653744 1.56602 0
M  V30 2744 H 284.653 -1.80855 3.46998 0
M  V30 2745 H 284.276 -3.1596 2.4136 0
M  V30 2746 N 285.273 -1.31445 -0.869486 0
M  V30 2747 C 286.22 -1.19135 -1.97675 0
M  V30 2748 C 287.19 -0.0770266 -1.65921 0
M  V30 2749 O 288.375 -0.249972 -1.89155 0
M  V30 2750 C 285.515 -0.905149 -3.33018 0
M  V30 2751 C 284.628 -2.10285 -3.77365 0
M  V30 2752 C 283.763 -1.75339 -5.01427 0
M  V30 2753 C 282.802 -2.91515 -5.38224 0
M  V30 2754 N 281.939 -2.56762 -6.53466 0
M  V30 2755 H 286.779 -2.13853 -2.07535 0
M  V30 2756 H 284.316 -1.06379 -1.01597 0
M  V30 2757 H 286.274 -0.719765 -4.10944 0
M  V30 2758 H 284.904 0.00519624 -3.228 0
M  V30 2759 H 283.956 -2.39899 -2.95216 0
M  V30 2760 H 285.268 -2.97237 -4.00564 0
M  V30 2761 H 284.422 -1.53266 -5.87022 0
M  V30 2762 H 283.161 -0.855801 -4.80133 0
M  V30 2763 H 282.166 -3.14237 -4.51149 0
M  V30 2764 H 283.391 -3.81985 -5.61484 0
M  V30 2765 H 281.337 -1.69526 -6.33717 0
M  V30 2766 H 281.254 -3.37243 -6.76612 0
M  V30 2767 H 282.522 -2.38083 -7.42251 0
M  V30 2768 N 286.751 1.08385 -1.14413 0
M  V30 2769 C 288.162 1.62258 -0.923535 0
M  V30 2770 C 288.513 1.88691 0.537595 0
M  V30 2771 O 287.638 1.64454 1.40655 0
M  V30 2772 C 288.233 2.94781 -1.67002 0
M  V30 2773 C 286.792 3.45437 -1.495 0
M  V30 2774 C 285.939 2.19668 -1.69238 0
M  V30 2775 H 288.89 0.916086 -1.2959 0
M  V30 2776 H 288.911 3.63229 -1.13334 0
M  V30 2777 H 288.423 2.7551 -2.73342 0
M  V30 2778 H 286.524 3.6981 -0.455097 0
M  V30 2779 H 286.637 4.22173 -2.2651 0
M  V30 2780 H 285.001 2.28849 -1.11804 0
M  V30 2781 H 285.784 2.02905 -2.7692 0
M  V30 2782 N 288.23 0.939286 1.26551 0
M  V30 2783 C 289.479 0.581601 1.93133 0
M  V30 2784 C 289.792 -0.883224 1.74524 0
M  V30 2785 O 290.998 -1.3502 2.35546 0
M  V30 2786 C 289.454 0.989425 3.46032 0
M  V30 2787 C 289.062 2.47573 3.73379 0
M  V30 2788 C 290.806 0.703544 4.18629 0
M  V30 2789 C 288.713 2.82235 5.19709 0
M  V30 2790 H 287.643 0.213803 0.723052 0
M  V30 2791 H 290.294 1.14167 1.4366 0
M  V30 2792 H 288.676 0.357902 3.94379 0
M  V30 2793 H 289.85 3.15614 3.35744 0
M  V30 2794 H 288.165 2.73471 3.1401 0
M  V30 2795 H 290.762 0.938869 5.26393 0
M  V30 2796 H 291.105 -0.359639 4.14744 0
M  V30 2797 H 291.638 1.2947 3.76141 0
M  V30 2798 H 288.377 3.87509 5.28694 0
M  V30 2799 H 287.897 2.18854 5.58447 0
M  V30 2800 H 289.576 2.70599 5.87695 0
M  V30 2801 N 289.708 -1.40897 0.706093 0
M  V30 2802 C 291.119 -1.84023 0.315052 0
M  V30 2803 C 291.47 -1.5906 -1.14866 0
M  V30 2804 O 290.595 -1.06651 -1.88293 0
M  V30 2805 C 291.19 -3.34055 0.565038 0
M  V30 2806 C 289.749 -3.7571 0.227806 0
M  V30 2807 C 288.896 -2.64204 0.842122 0
M  V30 2808 H 291.847 -1.303 0.905963 0
M  V30 2809 H 291.868 -3.80107 -0.172843 0
M  V30 2810 H 291.38 -3.52192 1.63042 0
M  V30 2811 H 289.481 -3.63172 -0.832895 0
M  V30 2812 H 289.594 -4.74103 0.690174 0
M  V30 2813 H 287.958 -2.53255 0.270893 0
M  V30 2814 H 288.741 -2.85155 1.91158 0
M  V30 2815 N 291.186 -0.45159 -1.50991 0
M  V30 2816 C 292.096 0.358431 -2.31846 0
M  V30 2817 C 293.112 1.01438 -1.41373 0
M  V30 2818 O 294.288 1.00663 -1.74439 0
M  V30 2819 C 291.353 1.43704 -3.15515 0
M  V30 2820 C 290.414 0.799742 -4.21785 0
M  V30 2821 C 289.647 1.82696 -5.01456 0
M  V30 2822 O 289.87 3.05105 -4.81941 0
M  V30 2823 O 288.804 1.40958 -5.85162 0
M  V30 2824 H 292.63 -0.302032 -3.02194 0
M  V30 2825 H 290.215 -0.213825 -1.47862 0
M  V30 2826 H 292.097 2.06227 -3.67489 0
M  V30 2827 H 290.772 2.08133 -2.47916 0
M  V30 2828 H 289.679 0.136084 -3.73852 0
M  V30 2829 H 291.012 0.198718 -4.91799 0
M  V30 2830 N 292.664 1.56529 -0.183458 0
M  V30 2831 C 293.904 1.99141 0.460667 0
M  V30 2832 C 294.268 1.06736 1.59597 0
M  V30 2833 O 295.469 1.38538 2.30349 0
M  V30 2834 C 293.74 3.45358 0.919939 0
M  V30 2835 S 295.299 4.09999 1.56354 0
M  V30 2836 H 292.117 0.695479 0.147748 0
M  V30 2837 H 294.719 1.93429 -0.283782 0
M  V30 2838 H 293.423 4.10315 0.0834208 0
M  V30 2839 H 292.954 3.54862 1.69814 0
M  V30 2840 H 294.969 4.06046 2.85203 0
M  V30 2841 N 294.142 -0.090211 1.57342 0
M  V30 2842 C 295.105 -1.09335 2.01441 0
M  V30 2843 C 296.105 -1.32666 0.908641 0
M  V30 2844 O 297.295 -1.28697 1.174 0
M  V30 2845 C 294.427 -2.44136 2.3793 0
M  V30 2846 H 295.62 -0.713662 2.91285 0
M  V30 2847 H 293.173 -0.335404 1.52659 0
M  V30 2848 H 293.908 -2.86972 1.51055 0
M  V30 2849 H 293.693 -2.28548 3.18603 0
M  V30 2850 H 295.183 -3.16277 2.72688 0
M  V30 2851 N 295.62 -1.53406 -0.361157 0
M  V30 2852 C 296.583 -1.79479 -1.42548 0
M  V30 2853 C 297.583 -0.665327 -1.4639 0
M  V30 2854 O 298.773 -0.933549 -1.47073 0
M  V30 2855 C 295.905 -1.92087 -2.8163 0
M  V30 2856 H 297.098 -2.74538 -1.20701 0
M  V30 2857 H 294.651 -1.4455 -0.594546 0
M  V30 2858 H 295.386 -0.991099 -3.08784 0
M  V30 2859 H 295.171 -2.74241 -2.80239 0
M  V30 2860 H 296.661 -2.13836 -3.58697 0
M  V30 2861 N 297.098 0.621204 -1.44841 0
M  V30 2862 C 298.028 1.74366 -1.55303 0
M  V30 2863 C 299.009 1.65199 -0.405385 0
M  V30 2864 O 300.194 1.83807 -0.626787 0
M  V30 2865 C 297.324 3.12931 -1.50637 0
M  V30 2866 C 296.278 3.36896 -2.63979 0
M  V30 2867 C 295.604 4.75594 -2.44366 0
M  V30 2868 C 296.904 3.28483 -4.06074 0
M  V30 2869 H 298.598 1.65867 -2.49256 0
M  V30 2870 H 296.144 0.796558 -1.19962 0
M  V30 2871 H 298.097 3.9124 -1.56555 0
M  V30 2872 H 296.821 3.22237 -0.532057 0
M  V30 2873 H 295.48 2.60972 -2.57467 0
M  V30 2874 H 295.128 4.81616 -1.45105 0
M  V30 2875 H 294.828 4.92586 -3.20364 0
M  V30 2876 H 296.352 5.5612 -2.52117 0
M  V30 2877 H 297.766 3.96684 -4.13902 0
M  V30 2878 H 296.163 3.57008 -4.82354 0
M  V30 2879 H 297.233 2.26133 -4.28943 0
M  V30 2880 N 298.576 1.31904 0.862503 0
M  V30 2881 C 299.506 1.22782 1.98612 0
M  V30 2882 C 300.487 0.113362 1.69722 0
M  V30 2883 O 301.672 0.299218 1.91881 0
M  V30 2884 C 298.802 0.942058 3.34279 0
M  V30 2885 C 297.756 2.0169 3.77499 0
M  V30 2886 C 297.082 1.58369 5.10709 0
M  V30 2887 C 298.382 3.43096 3.93805 0
M  V30 2888 H 300.076 2.16788 2.06502 0
M  V30 2889 H 297.622 1.04366 0.992154 0
M  V30 2890 H 299.575 0.864818 4.1243 0
M  V30 2891 H 298.299 -0.0336603 3.26583 0
M  V30 2892 H 296.958 2.08416 3.01593 0
M  V30 2893 H 296.606 0.595628 4.99461 0
M  V30 2894 H 296.306 2.30279 5.40597 0
M  V30 2895 H 297.83 1.52067 5.91361 0
M  V30 2896 H 299.244 3.39003 4.62331 0
M  V30 2897 H 297.641 4.13288 4.35101 0
M  V30 2898 H 298.711 3.83334 2.96957 0
M  V30 2899 N 300.054 -1.07777 1.14986 0
M  V30 2900 C 301.294 -1.81888 0.932527 0
M  V30 2901 C 301.658 -1.84509 -0.531064 0
M  V30 2902 O 302.859 -2.54448 -0.866577 0
M  V30 2903 C 301.13 -3.23244 1.52473 0
M  V30 2904 S 302.689 -4.14154 1.44989 0
M  V30 2905 H 299.507 -0.626752 0.335712 0
M  V30 2906 H 302.109 -1.29503 1.46455 0
M  V30 2907 H 300.813 -3.18922 2.58296 0
M  V30 2908 H 300.344 -3.80704 0.991381 0
M  V30 2909 H 302.359 -4.94247 0.439799 0
M  V30 2910 N 301.532 -0.945985 -1.26051 0
M  V30 2911 C 302.943 -0.638096 -1.75457 0
M  V30 2912 C 303.294 0.846672 -1.76991 0
M  V30 2913 O 302.419 1.66262 -1.38513 0
M  V30 2914 C 303.014 -1.15157 -3.18629 0
M  V30 2915 C 301.573 -0.894004 -3.65629 0
M  V30 2916 C 300.72 -1.29967 -2.44957 0
M  V30 2917 H 303.671 -1.12376 -1.1206 0
M  V30 2918 H 303.692 -0.507615 -3.77099 0
M  V30 2919 H 303.204 -2.23222 -3.1748 0
M  V30 2920 H 301.305 0.172057 -3.72203 0
M  V30 2921 H 301.418 -1.52439 -4.54202 0
M  V30 2922 H 299.782 -0.718078 -2.44368 0
M  V30 2923 H 300.565 -2.38935 -2.46505 0
M  V30 2924 N 303.011 1.40521 -0.713556 0
M  V30 2925 C 303.921 2.34522 -0.0606667 0
M  V30 2926 C 304.937 1.57193 0.74607 0
M  V30 2927 O 306.113 1.89591 0.679493 0
M  V30 2928 C 303.178 3.36081 0.851491 0
M  V30 2929 C 302.239 4.29286 0.0349339 0
M  V30 2930 C 301.472 5.25994 0.903649 0
M  V30 2931 O 301.695 5.28616 2.14292 0
M  V30 2932 O 300.629 6.00918 0.343723 0
M  V30 2933 H 304.455 2.91968 -0.835972 0
M  V30 2934 H 302.04 1.41681 -0.47402 0
M  V30 2935 H 303.922 3.98369 1.37404 0
M  V30 2936 H 302.597 2.81052 1.60598 0
M  V30 2937 H 301.504 3.70289 -0.532633 0
M  V30 2938 H 302.837 4.87462 -0.681287 0
M  V30 2939 N 304.489 0.459591 1.5075 0
M  V30 2940 C 305.437 -0.354678 2.2988 0
M  V30 2941 C 306.431 -1.00086 1.36672 0
M  V30 2942 O 307.637 -0.933277 1.53915 0
M  V30 2943 H 304.012 -0.13321 0.740107 0
M  V30 2944 H 305.983 0.333269 2.96533 0
M  V30 2945 C 304.732 -1.43073 3.169 0
M  V30 2946 H 304.055 -0.942882 3.88523 0
M  V30 2947 H 305.495 -1.97328 3.75284 0
M  V30 2948 C 303.954 -2.42633 2.33732 0
M  V30 2949 O 304.484 -3.47658 2.01238 0
M  V30 2950 N 302.69 -2.14066 1.9653 0
M  V30 2951 H 302.237 -1.28685 2.23155 0
M  V30 2952 H 302.195 -2.80917 1.41185 0
M  V30 2953 N 305.967 -1.56429 0.191757 0
M  V30 2954 C 307.192 -2.02309 -0.456706 0
M  V30 2955 C 307.617 -1.07103 -1.5463 0
M  V30 2956 O 306.975 -0.0539677 -1.8122 0
M  V30 2957 C 307.023 -3.46654 -0.993159 0
M  V30 2958 O 306.127 -3.54559 -2.10622 0
M  V30 2959 H 305.468 -0.655303 -0.107114 0
M  V30 2960 H 307.998 -2.02364 0.301653 0
M  V30 2961 H 308.008 -3.86377 -1.31061 0
M  V30 2962 H 306.683 -4.1544 -0.195504 0
M  V30 2963 H 305.26 -3.26708 -1.79767 0
M  V30 2964 N 307.445 0.0818655 -1.57387 0
M  V30 2965 C 308.861 0.436412 -1.53517 0
M  V30 2966 C 309.061 1.79758 -0.910459 0
M  V30 2967 O 308.117 2.47324 -0.508636 0
M  V30 2968 C 309.43 0.386734 -2.98203 0
M  V30 2969 C 310.978 0.467644 -3.09487 0
M  V30 2970 C 311.453 0.447978 -4.55804 0
M  V30 2971 N 312.944 0.508348 -4.60402 0
M  V30 2972 C 313.679 0.515184 -5.71081 0
M  V30 2973 N 313.175 0.477435 -6.91153 0
M  V30 2974 N 314.968 0.560988 -5.59294 0
M  V30 2975 H 307.119 -0.809546 -1.96367 0
M  V30 2976 H 309.382 -0.302733 -0.898363 0
M  V30 2977 H 309.088 -0.546539 -3.47427 0
M  V30 2978 H 308.962 1.20075 -3.57578 0
M  V30 2979 H 311.349 1.39134 -2.60242 0
M  V30 2980 H 311.43 -0.374753 -2.5304 0
M  V30 2981 H 311.074 -0.471826 -5.05704 0
M  V30 2982 H 311.004 1.30777 -5.10103 0
M  V30 2983 H 313.495 0.54218 -3.7399 0
M  V30 2984 H 313.808 0.486299 -7.71268 0
M  V30 2985 H 312.153 0.444278 -6.93579 0
M  V30 2986 H 315.344 0.5881 -4.64391 0
M  V30 2987 H 315.517 0.562846 -6.45551 0
M  V30 2988 N 308.923 1.53595 0.353017 0
M  V30 2989 C 310.163 1.72094 1.10286 0
M  V30 2990 C 310.527 0.469217 1.86178 0
M  V30 2991 O 311.728 0.531083 2.63501 0
M  V30 2992 C 309.999 2.94386 2.02661 0
M  V30 2993 S 311.558 3.33651 2.84996 0
M  V30 2994 H 308.376 0.605433 0.372789 0
M  V30 2995 H 310.978 1.91722 0.38248 0
M  V30 2996 H 309.682 3.83669 1.45691 0
M  V30 2997 H 309.213 2.77197 2.79152 0
M  V30 2998 H 311.228 2.86645 4.0503 0
M  V30 2999 N 310.401 -0.613514 1.45168 0
M  V30 3000 C 311.626 -1.40437 1.52618 0
M  V30 3001 C 312.051 -1.87438 0.157707 0
M  V30 3002 O 311.409 -1.59791 -0.856537 0
M  V30 3003 C 311.457 -2.58894 2.51011 0
M  V30 3004 O 310.561 -3.59326 2.02382 0
M  V30 3005 H 309.902 -0.419506 0.514695 0
M  V30 3006 H 312.432 -0.747215 1.90467 0
M  V30 3007 H 312.442 -3.06214 2.69624 0
M  V30 3008 H 311.117 -2.24032 3.50403 0
M  V30 3009 H 309.694 -3.18695 1.93618 0
M  V30 3010 N 311.879 -1.3236 -0.855495 0
M  V30 3011 C 313.29 -1.2056 -1.42556 0
M  V30 3012 C 313.641 0.182209 -1.95352 0
M  V30 3013 O 312.766 1.08088 -1.87472 0
M  V30 3014 C 313.361 -2.1826 -2.59129 0
M  V30 3015 C 311.92 -2.10351 -3.12137 0
M  V30 3016 C 311.067 -2.06674 -1.84882 0
M  V30 3017 H 314.018 -1.442 -0.662727 0
M  V30 3018 H 314.039 -1.78064 -3.36264 0
M  V30 3019 H 313.551 -3.19257 -2.20673 0
M  V30 3020 H 311.652 -1.12599 -3.55179 0
M  V30 3021 H 311.765 -3.00135 -3.73438 0
M  V30 3022 H 310.129 -1.51901 -2.04446 0
M  V30 3023 H 310.912 -3.09451 -1.48643 0
M  V30 3024 N 313.357 1.07166 -1.15556 0
M  V30 3025 C 314.582 1.84053 -0.955988 0
M  V30 3026 C 315.007 1.81586 0.490739 0
M  V30 3027 O 314.365 1.21018 1.34997 0
M  V30 3028 C 314.413 3.28957 -1.47714 0
M  V30 3029 O 313.517 4.06795 -0.677593 0
M  V30 3030 H 312.858 0.569842 -0.340847 0
M  V30 3031 H 315.388 1.35178 -1.53584 0
M  V30 3032 H 315.398 3.79788 -1.4908 0
M  V30 3033 H 314.073 3.30068 -2.53037 0
M  V30 3034 H 312.65 3.6561 -0.733721 0
M  V30 3035 N 314.835 0.952656 1.25548 0
M  V30 3036 C 316.063 0.623496 1.97282 0
M  V30 3037 C 316.478 -0.803987 1.70826 0
M  V30 3038 O 315.835 -1.53755 0.983147 0
M  V30 3039 C 315.886 0.870209 3.5087 0
M  V30 3040 O 315.607 2.24156 3.76412 0
M  V30 3041 C 317.108 0.553164 4.39835 0
M  V30 3042 H 314.328 0.233931 0.628902 0
M  V30 3043 H 316.872 1.27649 1.59768 0
M  V30 3044 H 315.027 0.263652 3.86502 0
M  V30 3045 H 315.441 2.31021 4.70882 0
M  V30 3046 H 316.915 0.776342 5.46513 0
M  V30 3047 H 317.392 -0.512215 4.36203 0
M  V30 3048 H 317.998 1.13896 4.09766 0
M  V30 3049 N 316.313 -1.40141 0.720998 0
M  V30 3050 C 317.223 -2.34486 0.0731031 0
M  V30 3051 C 318.239 -1.57587 -0.737723 0
M  V30 3052 O 319.415 -1.89949 -0.669429 0
M  V30 3053 C 316.48 -3.36528 -0.833656 0
M  V30 3054 C 315.541 -4.29298 -0.0121673 0
M  V30 3055 C 314.774 -5.26466 -0.875742 0
M  V30 3056 O 314.997 -5.29745 -2.11485 0
M  V30 3057 O 313.931 -6.01092 -0.31185 0
M  V30 3058 H 317.757 -2.9152 0.851444 0
M  V30 3059 H 315.342 -1.41427 0.481527 0
M  V30 3060 H 317.224 -3.99093 -1.35289 0
M  V30 3061 H 315.899 -2.81899 -1.59105 0
M  V30 3062 H 314.806 -3.70001 0.552262 0
M  V30 3063 H 316.139 -4.87094 0.707129 0
M  V30 3064 N 317.792 -0.46758 -1.50504 0
M  V30 3065 C 319.069 0.15003 -1.95024 0
M  V30 3066 C 319.449 1.57304 -1.40779 0
M  V30 3067 O 318.797 2.20281 -0.607319 0
M  V30 3068 C 319.007 0.0969324 -3.48865 0
M  V30 3069 C 320.355 0.287565 -4.23625 0
M  V30 3070 O 321.379 0.173678 -3.55776 0
M  V30 3071 O 320.238 0.517186 -5.44047 0
M  V30 3072 H 317.332 0.113582 -0.819163 0
M  V30 3073 H 319.878 -0.52773 -1.61286 0
M  V30 3074 H 318.65 -0.896732 -3.80886 0
M  V30 3075 H 318.273 0.816303 -3.8913 0
M  V30 3076 N 319.27 1.56325 -0.20005 0
M  V30 3077 C 320.18 2.22931 0.730668 0
M  V30 3078 C 321.196 1.22997 1.23076 0
M  V30 3079 O 322.372 1.55748 1.27689 0
M  V30 3080 C 319.437 2.87948 1.93098 0
M  V30 3081 C 318.498 4.03166 1.47497 0
M  V30 3082 C 317.731 4.65073 2.61807 0
M  V30 3083 O 317.954 4.25913 3.79413 0
M  V30 3084 O 316.888 5.54452 2.34237 0
M  V30 3085 H 320.714 3.03084 0.193391 0
M  V30 3086 H 318.299 1.49371 0.0294621 0
M  V30 3087 H 320.181 3.29063 2.6324 0
M  V30 3088 H 318.856 2.10771 2.45677 0
M  V30 3089 H 317.763 3.66664 0.742201 0
M  V30 3090 H 319.096 4.82022 0.995796 0
M  V30 3091 N 320.748 -0.0735177 1.57428 0
M  V30 3092 C 321.696 -1.10628 2.04607 0
M  V30 3093 C 322.69 -1.40181 0.951088 0
M  V30 3094 O 323.896 -1.39608 1.1362 0
M  V30 3095 H 320.271 -0.374088 0.652351 0
M  V30 3096 H 322.242 -0.682218 2.90497 0
M  V30 3097 C 320.991 -2.41212 2.50423 0
M  V30 3098 H 320.314 -2.19322 3.34272 0
M  V30 3099 H 321.754 -3.11927 2.87189 0
M  V30 3100 C 320.213 -3.0705 1.38644 0
M  V30 3101 O 320.743 -3.95056 0.727582 0
M  V30 3102 N 318.949 -2.67645 1.132 0
M  V30 3103 H 318.496 -1.96169 1.66959 0
M  V30 3104 H 318.454 -3.1202 0.386147 0
M  V30 3105 N 322.226 -1.5378 -0.344866 0
M  V30 3106 C 323.173 -1.81676 -1.42346 0
M  V30 3107 C 324.143 -0.662376 -1.52321 0
M  V30 3108 O 325.328 -0.906675 -1.67881 0
M  V30 3109 C 322.468 -2.03087 -2.79015 0
M  V30 3110 C 321.581 -3.30799 -2.77842 0
M  V30 3111 C 320.716 -3.42285 -4.0622 0
M  V30 3112 C 319.755 -4.6395 -3.9927 0
M  V30 3113 N 318.892 -4.72477 -5.19336 0
M  V30 3114 H 323.732 -2.73703 -1.17858 0
M  V30 3115 H 321.269 -1.35568 -0.570949 0
M  V30 3116 H 323.227 -2.1349 -3.58438 0
M  V30 3117 H 321.857 -1.14375 -3.01858 0
M  V30 3118 H 320.909 -3.29244 -1.90533 0
M  V30 3119 H 322.221 -4.20314 -2.68584 0
M  V30 3120 H 321.375 -3.52113 -4.94066 0
M  V30 3121 H 320.114 -2.50823 -4.18258 0
M  V30 3122 H 319.119 -4.54201 -3.09809 0
M  V30 3123 H 320.344 -5.56775 -3.88817 0
M  V30 3124 H 318.29 -3.83924 -5.3192 0
M  V30 3125 H 318.207 -5.55927 -5.12329 0
M  V30 3126 H 319.475 -4.86613 -6.08957 0
M  V30 3127 N 323.704 0.605807 -1.45491 0
M  V30 3128 C 324.634 1.72709 -1.57143 0
M  V30 3129 C 325.615 1.6476 -0.422884 0
M  V30 3130 O 326.8 1.83132 -0.646247 0
M  V30 3131 C 323.93 3.11316 -1.53948 0
M  V30 3132 C 322.884 3.34077 -2.67537 0
M  V30 3133 C 322.21 4.72975 -2.49397 0
M  V30 3134 C 323.51 3.24158 -4.09535 0
M  V30 3135 H 325.204 1.63214 -2.51001 0
M  V30 3136 H 322.75 0.78379 -1.208 0
M  V30 3137 H 324.703 3.89557 -1.60696 0
M  V30 3138 H 323.427 3.21655 -0.566205 0
M  V30 3139 H 322.086 2.58227 -2.6022 0
M  V30 3140 H 321.734 4.8005 -1.50205 0
M  V30 3141 H 321.434 4.8916 -3.25571 0
M  V30 3142 H 322.958 5.53414 -2.58002 0
M  V30 3143 H 324.372 3.92271 -4.18086 0
M  V30 3144 H 322.769 3.51872 -4.86113 0
M  V30 3145 H 323.839 2.2157 -4.31317 0
M  V30 3146 N 325.182 1.32811 0.848464 0
M  V30 3147 C 326.092 1.24278 1.98978 0
M  V30 3148 C 327.108 0.155176 1.73307 0
M  V30 3149 O 328.284 0.376999 1.9784 0
M  V30 3150 C 325.349 0.972444 3.32783 0
M  V30 3151 C 324.41 2.14911 3.71634 0
M  V30 3152 C 323.643 1.89157 4.99054 0
M  V30 3153 O 323.866 0.837165 5.64223 0
M  V30 3154 O 322.8 2.75433 5.35183 0
M  V30 3155 H 326.626 2.20238 2.09115 0
M  V30 3156 H 324.211 1.12762 0.980052 0
M  V30 3157 H 326.093 0.838432 4.12975 0
M  V30 3158 H 324.768 0.043051 3.23671 0
M  V30 3159 H 323.675 2.33862 2.91992 0
M  V30 3160 H 325.008 3.06151 3.85399 0
M  V30 3161 N 326.66 -1.06551 1.16123 0
M  V30 3162 C 327.9 -1.80889 0.951766 0
M  V30 3163 C 328.264 -1.85062 -0.511465 0
M  V30 3164 O 329.465 -2.55353 -0.83954 0
M  V30 3165 C 327.736 -3.21609 1.55893 0
M  V30 3166 S 329.295 -4.12593 1.49373 0
M  V30 3167 H 326.113 -0.623156 0.342341 0
M  V30 3168 H 328.715 -1.27943 1.47821 0
M  V30 3169 H 327.419 -3.16165 2.61664 0
M  V30 3170 H 326.95 -3.79631 1.0317 0
M  V30 3171 H 328.965 -4.93753 0.492196 0
M  V30 3172 N 328.138 -0.959301 -1.25041 0
M  V30 3173 C 329.085 -0.482057 -2.2571 0
M  V30 3174 C 330.055 0.467939 -1.59372 0
M  V30 3175 O 331.24 0.380159 -1.86974 0
M  V30 3176 C 328.38 0.229623 -3.44335 0
M  V30 3177 C 327.493 -0.758156 -4.25295 0
M  V30 3178 C 326.628 -0.0234403 -5.31195 0
M  V30 3179 C 325.667 -1.00184 -6.03846 0
M  V30 3180 N 324.804 -0.29769 -7.01469 0
M  V30 3181 H 329.644 -1.34538 -2.65901 0
M  V30 3182 H 327.181 -0.674592 -1.3072 0
M  V30 3183 H 329.139 0.658856 -4.11965 0
M  V30 3184 H 327.769 1.05696 -3.05005 0
M  V30 3185 H 326.821 -1.30586 -3.57284 0
M  V30 3186 H 328.133 -1.50458 -4.75567 0
M  V30 3187 H 327.287 0.464201 -6.04922 0
M  V30 3188 H 326.026 0.755741 -4.81809 0
M  V30 3189 H 325.031 -1.50044 -5.2893 0
M  V30 3190 H 326.256 -1.78133 -6.55321 0
M  V30 3191 H 324.202 0.462668 -6.54366 0
M  V30 3192 H 324.119 -0.983128 -7.4958 0
M  V30 3193 H 325.387 0.16826 -7.79318 0
M  V30 3194 N 329.616 1.39756 -0.72842 0
M  V30 3195 C 330.856 2.025 -0.278078 0
M  V30 3196 C 331.22 1.5654 1.11173 0
M  V30 3197 O 332.421 2.11435 1.65978 0
M  V30 3198 C 330.692 3.55489 -0.369139 0
M  V30 3199 S 332.251 4.388 0.00232983 0
M  V30 3200 H 329.069 0.702534 -0.109391 0
M  V30 3201 H 331.671 1.70672 -0.95348 0
M  V30 3202 H 330.375 3.86429 -1.38204 0
M  V30 3203 H 329.906 3.92061 0.324308 0
M  V30 3204 H 331.921 4.80954 1.22055 0
M  V30 3205 N 331.094 0.475555 1.50254 0
M  V30 3206 C 332.024 -0.30611 2.31485 0
M  V30 3207 C 333.005 -0.986228 1.38591 0
M  V30 3208 O 334.19 -0.982541 1.67511 0
M  V30 3209 C 331.32 -1.38588 3.1845 0
M  V30 3210 C 330.274 -0.827115 4.19932 0
M  V30 3211 C 329.6 -2.00551 4.95665 0
M  V30 3212 C 330.9 0.16463 5.2204 0
M  V30 3213 H 332.594 0.371866 2.97082 0
M  V30 3214 H 330.14 0.180282 1.42867 0
M  V30 3215 H 332.093 -1.94023 3.74076 0
M  V30 3216 H 330.817 -2.09269 2.50747 0
M  V30 3217 H 329.476 -0.294702 3.65414 0
M  V30 3218 H 329.124 -2.6994 4.2443 0
M  V30 3219 H 328.824 -1.63784 5.64313 0
M  V30 3220 H 330.348 -2.56468 5.54127 0
M  V30 3221 H 331.762 -0.300699 5.72511 0
M  V30 3222 H 330.159 0.446813 5.98434 0
M  V30 3223 H 331.229 1.08905 4.72512 0
M  V30 3224 N 332.573 -1.56217 0.208337 0
M  V30 3225 C 333.984 -1.84243 -0.301904 0
M  V30 3226 C 334.335 -1.12939 -1.60434 0
M  V30 3227 O 333.46 -0.39461 -2.12772 0
M  V30 3228 C 334.055 -3.34231 -0.554543 0
M  V30 3229 C 332.614 -3.62621 -1.00912 0
M  V30 3230 C 331.761 -2.77224 -0.064933 0
M  V30 3231 H 334.712 -1.52712 0.431833 0
M  V30 3232 H 334.733 -3.5372 -1.40223 0
M  V30 3233 H 334.245 -3.86099 0.393561 0
M  V30 3234 H 332.346 -3.16197 -1.97104 0
M  V30 3235 H 332.459 -4.7071 -0.892674 0
M  V30 3236 H 330.823 -2.48256 -0.56929 0
M  V30 3237 H 331.606 -3.31887 0.877851 0
M  V30 3238 N 334.051 0.0651679 -1.57465 0
M  V30 3239 C 334.999 1.09542 -2.05191 0
M  V30 3240 C 335.993 1.39675 -0.958509 0
M  V30 3241 O 337.199 1.39003 -1.14359 0
M  V30 3242 H 333.574 0.370623 -0.654326 0
M  V30 3243 H 335.545 0.666802 -2.90854 0
M  V30 3244 C 334.294 2.39881 -2.51699 0
M  V30 3245 H 333.617 2.17547 -3.3543 0
M  V30 3246 H 335.057 3.104 -2.88839 0
M  V30 3247 C 333.516 3.0631 -1.40271 0
M  V30 3248 O 334.046 3.94664 -0.748523 0
M  V30 3249 N 332.252 2.67041 -1.14618 0
M  V30 3250 H 331.799 1.95281 -1.67997 0
M  V30 3251 H 331.757 3.1181 -0.402688 0
M  V30 3252 N 335.529 1.53961 0.336706 0
M  V30 3253 C 336.759 1.75229 1.09446 0
M  V30 3254 C 337.167 0.494602 1.82621 0
M  V30 3255 O 336.51 -0.543764 1.75468 0
M  V30 3256 C 336.572 2.88288 2.1478 0
M  V30 3257 C 336.236 4.27656 1.6112 0
M  V30 3258 C 337.233 5.08981 1.0599 0
M  V30 3259 C 334.918 4.74161 1.6576 0
M  V30 3260 C 336.912 6.34916 0.562129 0
M  V30 3261 C 334.599 6.00067 1.15595 0
M  V30 3262 C 335.597 6.80278 0.609147 0
M  V30 3263 O 335.285 8.03818 0.114999 0
M  V30 3264 H 335.017 0.588881 0.331956 0
M  V30 3265 H 337.571 2.01614 0.392566 0
M  V30 3266 H 335.801 2.57443 2.88548 0
M  V30 3267 H 337.49 2.97461 2.76174 0
M  V30 3268 H 338.256 4.74213 1.01722 0
M  V30 3269 H 334.135 4.11781 2.07261 0
M  V30 3270 H 337.679 6.9747 0.134668 0
M  V30 3271 H 333.576 6.3433 1.19566 0
M  V30 3272 H 334.344 8.18172 0.231651 0
M  V30 3273 N 337.007 -0.598083 1.45811 0
M  V30 3274 C 338.423 -0.919847 1.30426 0
M  V30 3275 C 338.623 -1.99759 0.264303 0
M  V30 3276 O 337.679 -2.50221 -0.338472 0
M  V30 3277 C 338.992 -1.35176 2.68603 0
M  V30 3278 C 340.54 -1.46546 2.76574 0
M  V30 3279 C 341.015 -1.9311 4.15298 0
M  V30 3280 N 342.506 -2.00328 4.1764 0
M  V30 3281 C 343.241 -2.37599 5.21856 0
M  V30 3282 N 342.737 -2.73771 6.36413 0
M  V30 3283 N 344.53 -2.38021 5.09218 0
M  V30 3284 H 336.681 0.114111 2.12093 0
M  V30 3285 H 338.944 -0.0116121 0.947929 0
M  V30 3286 H 338.65 -0.633969 3.45939 0
M  V30 3287 H 338.524 -2.3164 2.97696 0
M  V30 3288 H 340.911 -2.17415 1.99537 0
M  V30 3289 H 340.992 -0.483727 2.51185 0
M  V30 3290 H 340.636 -1.22824 4.92825 0
M  V30 3291 H 340.566 -2.92213 4.38086 0
M  V30 3292 H 343.057 -1.74925 3.34977 0
M  V30 3293 H 343.37 -3.0112 7.11721 0
M  V30 3294 H 341.715 -2.71445 6.39799 0
M  V30 3295 H 344.906 -2.09174 4.18765 0
M  V30 3296 H 345.079 -2.66741 5.90554 0
M  V30 3297 N 338.485 -1.33259 -0.841409 0
M  V30 3298 C 339.733 -1.24326 -1.59334 0
M  V30 3299 C 340.054 0.191564 -1.94057 0
M  V30 3300 O 339.324 1.11967 -1.60749 0
M  V30 3301 H 337.904 -0.457174 -0.590763 0
M  V30 3302 H 340.566 -1.66947 -1.00571 0
M  V30 3303 H 339.662 -1.8352 -2.52442 0
M  V30 3304 N 339.963 1.05934 -1.16686 0
M  V30 3305 C 341.24 1.75643 -0.860747 0
M  V30 3306 C 341.62 2.01144 0.640641 0
M  V30 3307 O 340.968 1.64147 1.58959 0
M  V30 3308 C 341.178 3.05493 -1.68745 0
M  V30 3309 C 342.526 3.79581 -1.90271 0
M  V30 3310 O 343.55 3.15344 -1.65641 0
M  V30 3311 O 342.409 4.9499 -2.31618 0
M  V30 3312 H 339.503 0.763426 -0.317977 0
M  V30 3313 H 342.049 1.1217 -1.27342 0
M  V30 3314 H 340.821 2.8264 -2.70611 0
M  V30 3315 H 340.444 3.76702 -1.27206 0
M  V30 3316 N 341.441 0.965919 1.2453 0
M  V30 3317 C 342.689 0.625593 1.92174 0
M  V30 3318 C 343.01 -0.841652 1.75901 0
M  V30 3319 O 342.28 -1.60061 1.12948 0
M  V30 3320 H 340.86 0.228388 0.71123 0
M  V30 3321 H 343.522 1.2266 1.51461 0
M  V30 3322 H 342.618 0.864653 2.99884 0
M  V30 3323 N 342.919 -1.39368 0.735821 0
M  V30 3324 C 343.866 -2.30599 0.0963825 0
M  V30 3325 C 344.836 -1.49257 -0.728794 0
M  V30 3326 O 346.021 -1.77941 -0.688588 0
M  V30 3327 C 343.161 -3.35596 -0.804305 0
M  V30 3328 C 342.274 -4.31987 0.0335761 0
M  V30 3329 C 341.409 -5.24053 -0.868461 0
M  V30 3330 C 340.448 -6.12095 -0.0258776 0
M  V30 3331 N 339.585 -6.96514 -0.883893 0
M  V30 3332 H 344.425 -2.8471 0.880002 0
M  V30 3333 H 341.962 -1.40188 0.445619 0
M  V30 3334 H 343.92 -3.95062 -1.34096 0
M  V30 3335 H 342.55 -2.82938 -1.55389 0
M  V30 3336 H 341.602 -3.74133 0.68766 0
M  V30 3337 H 342.914 -4.94074 0.685036 0
M  V30 3338 H 342.068 -5.88549 -1.47293 0
M  V30 3339 H 340.807 -4.62289 -1.5537 0
M  V30 3340 H 339.812 -5.4661 0.591386 0
M  V30 3341 H 341.037 -6.75923 0.656156 0
M  V30 3342 H 338.983 -6.37318 -1.55441 0
M  V30 3343 H 338.9 -7.55448 -0.288931 0
M  V30 3344 H 340.168 -7.65439 -1.4739 0
M  V30 3345 N 344.397 -0.483516 -1.5 0
M  V30 3346 C 345.627 0.0643896 -2.065 0
M  V30 3347 C 346.035 1.32949 -1.34615 0
M  V30 3348 O 345.378 1.79003 -0.412756 0
M  V30 3349 C 345.44 0.405983 -3.572 0
M  V30 3350 C 345.104 -0.758875 -4.50655 0
M  V30 3351 C 346.101 -1.64445 -4.93208 0
M  V30 3352 C 343.786 -0.952725 -4.93182 0
M  V30 3353 C 345.78 -2.70818 -5.77006 0
M  V30 3354 C 343.467 -2.01966 -5.76761 0
M  V30 3355 C 344.465 -2.89574 -6.18576 0
M  V30 3356 O 344.153 -3.94429 -7.00486 0
M  V30 3357 H 343.885 -0.00934786 -0.675935 0
M  V30 3358 H 346.439 -0.674959 -1.93993 0
M  V30 3359 H 344.669 1.19869 -3.67652 0
M  V30 3360 H 346.358 0.890433 -3.96013 0
M  V30 3361 H 347.124 -1.50643 -4.61012 0
M  V30 3362 H 343.003 -0.280247 -4.60147 0
M  V30 3363 H 346.547 -3.3923 -6.09565 0
M  V30 3364 H 342.444 -2.1577 -6.0837 0
M  V30 3365 H 343.212 -3.91568 -7.1876 0
M  V30 3366 N 345.875 1.56104 -0.216619 0
M  V30 3367 C 347.115 2.00074 0.418322 0
M  V30 3368 C 347.479 1.10098 1.57297 0
M  V30 3369 O 348.68 1.43393 2.27359 0
M  V30 3370 C 346.951 3.47231 0.846477 0
M  V30 3371 S 348.51 4.13223 1.47622 0
M  V30 3372 H 345.328 0.698457 0.132962 0
M  V30 3373 H 347.93 1.92784 -0.324748 0
M  V30 3374 H 346.634 4.104 -0.0036319 0
M  V30 3375 H 346.165 3.58384 1.62248 0
M  V30 3376 H 348.18 4.12005 2.76526 0
M  V30 3377 N 347.353 -0.0568162 1.57498 0
M  V30 3378 C 348.63 -0.786954 1.79071 0
M  V30 3379 C 349.01 -1.95028 0.80792 0
M  V30 3380 O 348.358 -2.27968 -0.155858 0
M  V30 3381 C 348.568 -1.24594 3.26002 0
M  V30 3382 C 349.916 -1.67323 3.90241 0
M  V30 3383 O 350.94 -1.34124 3.29984 0
M  V30 3384 O 349.799 -2.28842 4.9628 0
M  V30 3385 H 346.893 -0.378262 0.735423 0
M  V30 3386 H 349.439 -0.035734 1.69662 0
M  V30 3387 H 348.211 -0.41423 3.89101 0
M  V30 3388 H 347.834 -2.05803 3.40192 0
M  V30 3389 N 348.832 -1.54138 -0.328536 0
M  V30 3390 C 350.243 -1.63395 -0.903272 0
M  V30 3391 C 350.594 -0.524828 -1.8905 0
M  V30 3392 O 349.719 0.343068 -2.13663 0
M  V30 3393 C 350.314 -2.9618 -1.64507 0
M  V30 3394 C 348.873 -3.0765 -2.1686 0
M  V30 3395 C 348.02 -2.58933 -0.992416 0
M  V30 3396 H 350.971 -1.58344 -0.106253 0
M  V30 3397 H 350.992 -2.86061 -2.50897 0
M  V30 3398 H 350.504 -3.76884 -0.926302 0
M  V30 3399 H 348.605 -2.31611 -2.91868 0
M  V30 3400 H 348.718 -4.1337 -2.42202 0
M  V30 3401 H 347.082 -2.14706 -1.37016 0
M  V30 3402 H 347.865 -3.42089 -0.288041 0
M  V30 3403 N 350.31 0.590341 -1.46126 0
M  V30 3404 C 351.559 1.34499 -1.50309 0
M  V30 3405 C 351.872 1.94977 -0.156021 0
M  V30 3406 O 353.078 2.71395 -0.0756037 0
M  V30 3407 C 351.534 2.43723 -2.64815 0
M  V30 3408 C 351.142 1.89582 -4.0591 0
M  V30 3409 C 352.886 3.20579 -2.78262 0
M  V30 3410 C 350.793 2.9639 -5.11769 0
M  V30 3411 H 349.723 0.505593 -0.559368 0
M  V30 3412 H 352.374 0.630848 -1.72315 0
M  V30 3413 H 350.756 3.17902 -2.36124 0
M  V30 3414 H 351.93 1.21997 -4.44357 0
M  V30 3415 H 350.245 1.25418 -3.97063 0
M  V30 3416 H 352.842 4.00276 -3.54519 0
M  V30 3417 H 353.185 3.72684 -1.85505 0
M  V30 3418 H 353.718 2.53505 -3.06562 0
M  V30 3419 H 350.457 2.49181 -6.06291 0
M  V30 3420 H 349.977 3.62487 -4.77873 0
M  V30 3421 H 351.656 3.60474 -5.37278 0
M  V30 3422 N 351.788 1.33704 0.83433 0
M  V30 3423 C 352.736 1.24323 1.96587 0
M  V30 3424 C 353.73 0.143659 1.6879 0
M  V30 3425 O 354.936 0.30791 1.77347 0
M  V30 3426 H 351.311 0.385925 0.645419 0
M  V30 3427 H 353.282 2.19978 2.01624 0
M  V30 3428 C 352.031 1.00394 3.32891 0
M  V30 3429 H 351.354 1.84231 3.54822 0
M  V30 3430 H 352.794 0.97862 4.12552 0
M  V30 3431 C 351.253 -0.293047 3.35623 0
M  V30 3432 O 351.783 -1.29823 3.80143 0
M  V30 3433 N 349.989 -0.322174 2.88809 0
M  V30 3434 H 349.536 0.496379 2.52772 0
M  V30 3435 H 349.494 -1.18977 2.91019 0
M  V30 3436 N 353.266 -1.05314 1.17247 0
M  V30 3437 C 354.677 -1.59753 0.96623 0
M  V30 3438 C 355.028 -1.9005 -0.487378 0
M  V30 3439 O 354.153 -1.68126 -1.36245 0
M  V30 3440 C 354.748 -2.90249 1.74759 0
M  V30 3441 C 353.307 -3.41352 1.58606 0
M  V30 3442 C 352.454 -2.15103 1.75002 0
M  V30 3443 H 355.405 -0.881406 1.31973 0
M  V30 3444 H 355.426 -3.60097 1.22925 0
M  V30 3445 H 354.938 -2.68166 2.8055 0
M  V30 3446 H 353.039 -3.68474 0.552985 0
M  V30 3447 H 353.152 -4.16019 2.37624 0
M  V30 3448 H 351.516 -2.25804 1.17833 0
M  V30 3449 H 352.299 -1.95491 2.82202 0
M  V30 3450 N 354.744 -0.972509 -1.24016 0
M  V30 3451 C 355.984 -0.644951 -1.93958 0
M  V30 3452 C 356.348 0.80559 -1.74282 0
M  V30 3453 O 357.549 1.2436 -2.38302 0
M  V30 3454 C 355.82 -1.01521 -3.42678 0
M  V30 3455 S 357.379 -0.802927 -4.31391 0
M  V30 3456 H 354.197 -0.236452 -0.670531 0
M  V30 3457 H 356.799 -1.25048 -1.50277 0
M  V30 3458 H 355.503 -2.06769 -3.54506 0
M  V30 3459 H 355.034 -0.400648 -3.91355 0
M  V30 3460 H 357.049 0.317256 -4.95185 0
M  V30 3461 N 356.222 1.38976 -0.743202 0
M  V30 3462 C 357.152 2.33171 -0.123873 0
M  V30 3463 C 358.133 1.54336 0.71516 0
M  V30 3464 O 359.318 1.82696 0.658467 0
M  V30 3465 C 356.448 3.38474 0.777978 0
M  V30 3466 C 355.402 4.27979 0.0424758 0
M  V30 3467 C 354.728 5.2405 1.06189 0
M  V30 3468 C 356.028 5.10155 -1.1198 0
M  V30 3469 H 357.722 2.85213 -0.910709 0
M  V30 3470 H 355.268 1.37133 -0.439388 0
M  V30 3471 H 357.221 4.03328 1.22084 0
M  V30 3472 H 355.945 2.84891 1.59702 0
M  V30 3473 H 354.604 3.64616 -0.380853 0
M  V30 3474 H 354.252 4.66758 1.87472 0
M  V30 3475 H 353.952 5.84785 0.574485 0
M  V30 3476 H 355.476 5.9178 1.50428 0
M  V30 3477 H 356.89 5.68307 -0.75499 0
M  V30 3478 H 355.287 5.80073 -1.53738 0
M  V30 3479 H 356.357 4.44504 -1.93764 0
M  V30 3480 N 357.7 0.491464 1.49741 0
M  V30 3481 C 359.116 0.146835 1.58923 0
M  V30 3482 C 359.316 -1.34804 1.49767 0
M  V30 3483 O 358.372 -2.12317 1.36667 0
M  V30 3484 C 359.685 0.715157 2.92072 0
M  V30 3485 C 361.233 0.680407 3.05515 0
M  V30 3486 C 361.708 1.22663 4.41269 0
M  V30 3487 N 363.199 1.18691 4.47735 0
M  V30 3488 C 363.934 1.57984 5.51207 0
M  V30 3489 N 363.43 2.04824 6.6183 0
M  V30 3490 N 365.223 1.49459 5.41866 0
M  V30 3491 H 357.374 1.46347 1.53936 0
M  V30 3492 H 359.637 0.606453 0.728642 0
M  V30 3493 H 359.343 1.76317 3.04311 0
M  V30 3494 H 359.217 0.17018 3.76816 0
M  V30 3495 H 361.604 -0.358743 2.92911 0
M  V30 3496 H 361.685 1.26242 2.22478 0
M  V30 3497 H 361.329 2.26451 4.54623 0
M  V30 3498 H 361.259 0.620637 5.2293 0
M  V30 3499 H 363.75 0.843605 3.68364 0
M  V30 3500 H 364.063 2.32901 7.3687 0
M  V30 3501 H 362.408 2.08791 6.62896 0
M  V30 3502 H 365.599 1.12692 4.54333 0
M  V30 3503 H 365.772 1.80406 6.22381 0
M  V30 3504 N 359.178 -1.55987 0.224894 0
M  V30 3505 C 360.125 -2.20436 -0.68385 0
M  V30 3506 C 361.095 -1.16102 -1.18783 0
M  V30 3507 O 362.28 -1.4447 -1.24632 0
M  V30 3508 C 359.42 -2.89076 -1.88491 0
M  V30 3509 C 358.533 -4.08012 -1.41951 0
M  V30 3510 C 357.668 -4.64426 -2.5784 0
M  V30 3511 C 356.707 -5.75656 -2.08053 0
M  V30 3512 N 355.844 -6.26347 -3.17227 0
M  V30 3513 H 360.684 -2.97727 -0.12754 0
M  V30 3514 H 358.221 -1.47011 -0.0511978 0
M  V30 3515 H 360.179 -3.27059 -2.59014 0
M  V30 3516 H 358.809 -2.14298 -2.41405 0
M  V30 3517 H 357.861 -3.75492 -0.609095 0
M  V30 3518 H 359.173 -4.88375 -1.01447 0
M  V30 3519 H 358.327 -5.04869 -3.3644 0
M  V30 3520 H 357.066 -3.83233 -3.01635 0
M  V30 3521 H 356.071 -5.34712 -1.27916 0
M  V30 3522 H 357.296 -6.58686 -1.65255 0
M  V30 3523 H 355.242 -5.48067 -3.60497 0
M  V30 3524 H 355.159 -7.01843 -2.80986 0
M  V30 3525 H 356.427 -6.71447 -3.95953 0
M  V30 3526 N 360.656 0.0484629 -1.57525 0
M  V30 3527 C 361.905 0.742065 -1.87553 0
M  V30 3528 C 362.218 1.77545 -0.820802 0
M  V30 3529 O 363.424 2.52027 -1.00967 0
M  V30 3530 C 361.88 1.37081 -3.32771 0
M  V30 3531 C 361.488 0.374786 -4.4643 0
M  V30 3532 C 363.232 2.04542 -3.71972 0
M  V30 3533 C 361.139 1.01077 -5.82698 0
M  V30 3534 H 360.069 0.280903 -0.699721 0
M  V30 3535 H 362.72 -0.00411877 -1.835 0
M  V30 3536 H 361.102 2.16605 -3.31509 0
M  V30 3537 H 362.276 -0.392331 -4.59127 0
M  V30 3538 H 360.591 -0.196653 -4.15935 0
M  V30 3539 H 363.188 2.52943 -4.71088 0
M  V30 3540 H 363.531 2.85515 -3.02964 0
M  V30 3541 H 364.064 1.31819 -3.75325 0
M  V30 3542 H 360.803 0.240878 -6.55057 0
M  V30 3543 H 360.323 1.74819 -5.73758 0
M  V30 3544 H 362.002 1.52383 -6.28799 0
M  V30 3545 N 362.134 1.5431 0.320358 0
M  V30 3546 C 363.374 1.74395 1.0661 0
M  V30 3547 C 363.738 0.508602 1.85141 0
M  V30 3548 O 364.939 0.586856 2.62316 0
M  V30 3549 C 363.21 2.98619 1.96371 0
M  V30 3550 S 364.769 3.39621 2.77854 0
M  V30 3551 H 361.587 0.613204 0.359863 0
M  V30 3552 H 364.189 1.9249 0.341727 0
M  V30 3553 H 362.893 3.86673 1.3752 0
M  V30 3554 H 362.424 2.83055 2.73209 0
M  V30 3555 H 364.439 2.95172 3.98858 0
M  V30 3556 N 363.613 -0.582584 1.46437 0
M  V30 3557 C 364.563 -1.68654 1.53426 0
M  V30 3558 C 365.547 -1.55971 0.395194 0
M  V30 3559 O 366.739 -1.64884 0.643612 0
M  V30 3560 C 363.868 -3.07439 1.52762 0
M  V30 3561 C 362.954 -3.25418 2.71963 0
M  V30 3562 N 363.345 -3.13556 3.96883 0
M  V30 3563 C 361.643 -3.56357 2.68189 0
M  V30 3564 C 362.344 -3.33543 4.76575 0
M  V30 3565 N 361.32 -3.58704 4.08451 0
M  V30 3566 H 365.122 -1.58014 2.47808 0
M  V30 3567 H 362.636 -0.786617 1.42078 0
M  V30 3568 H 364.633 -3.86671 1.55857 0
M  V30 3569 H 363.293 -3.1921 0.594573 0
M  V30 3570 H 364.304 -2.9142 4.28129 0
M  V30 3571 H 360.981 -3.74812 1.83908 0
M  V30 3572 H 362.371 -3.29555 5.85528 0
M  V30 3573 N 365.091 -1.34144 -0.827227 0
M  V30 3574 C 366.502 -1.23557 -1.39966 0
M  V30 3575 C 366.853 0.140731 -1.95695 0
M  V30 3576 O 365.978 1.04087 -1.89723 0
M  V30 3577 C 366.573 -2.23708 -2.54441 0
M  V30 3578 C 365.132 -2.16924 -3.07605 0
M  V30 3579 C 364.279 -2.10549 -1.80456 0
M  V30 3580 H 367.23 -1.45573 -0.631991 0
M  V30 3581 H 367.251 -1.85157 -3.32411 0
M  V30 3582 H 366.763 -3.23866 -2.13851 0
M  V30 3583 H 364.864 -1.20107 -3.52711 0
M  V30 3584 H 364.977 -3.07988 -3.66988 0
M  V30 3585 H 363.341 -1.56203 -2.01178 0
M  V30 3586 H 364.124 -3.12535 -1.42046 0
M  V30 3587 N 366.569 1.04691 -1.17803 0
M  V30 3588 C 367.519 2.10856 -0.867391 0
M  V30 3589 C 368.503 1.601 0.160206 0
M  V30 3590 O 369.695 1.76948 -0.042947 0
M  V30 3591 C 366.824 3.411 -0.388012 0
M  V30 3592 C 365.91 3.9864 -1.44732 0
M  V30 3593 N 366.301 4.30075 -2.66212 0
M  V30 3594 C 364.599 4.26439 -1.30637 0
M  V30 3595 C 365.3 4.76033 -3.34317 0
M  V30 3596 N 364.276 4.76462 -2.61696 0
M  V30 3597 H 368.078 2.33029 -1.79094 0
M  V30 3598 H 365.592 1.22386 -1.0675 0
M  V30 3599 H 367.589 4.16641 -0.146994 0
M  V30 3600 H 366.249 3.20357 0.529271 0
M  V30 3601 H 367.26 4.19917 -3.03134 0
M  V30 3602 H 363.937 4.15056 -0.451129 0
M  V30 3603 H 365.327 5.09427 -4.38103 0
M  V30 3604 N 368.047 0.979072 1.23499 0
M  V30 3605 C 369.01 0.523244 2.23147 0
M  V30 3606 C 370.01 -0.386406 1.56088 0
M  V30 3607 O 371.2 -0.180283 1.73265 0
M  V30 3608 C 368.332 -0.240739 3.40049 0
M  V30 3609 H 369.525 1.40432 2.64989 0
M  V30 3610 H 367.078 0.764824 1.36309 0
M  V30 3611 H 367.813 -1.13841 3.03662 0
M  V30 3612 H 367.598 0.412207 3.89927 0
M  V30 3613 H 369.088 -0.548297 4.13985 0
M  V30 3614 N 369.525 -1.3858 0.750561 0
M  V30 3615 C 370.475 -2.27795 0.0965949 0
M  V30 3616 C 371.459 -1.45048 -0.696411 0
M  V30 3617 O 372.651 -1.67812 -0.562863 0
M  V30 3618 C 369.78 -3.33894 -0.798085 0
M  V30 3619 C 368.866 -4.241 0.0016067 0
M  V30 3620 N 369.257 -4.95067 1.03647 0
M  V30 3621 C 367.555 -4.45429 -0.225674 0
M  V30 3622 C 368.256 -5.61489 1.52004 0
M  V30 3623 N 367.232 -5.37135 0.835874 0
M  V30 3624 H 371.034 -2.80125 0.889228 0
M  V30 3625 H 368.548 -1.51446 0.586323 0
M  V30 3626 H 370.545 -3.96693 -1.28219 0
M  V30 3627 H 369.205 -2.83123 -1.5897 0
M  V30 3628 H 370.216 -4.98104 1.41819 0
M  V30 3629 H 366.893 -4.05571 -0.990872 0
M  V30 3630 H 368.283 -6.28264 2.38188 0
M  V30 3631 N 371.003 -0.499398 -1.49478 0
M  V30 3632 C 372.243 0.0440751 -2.04352 0
M  V30 3633 C 372.607 1.34423 -1.37093 0
M  V30 3634 O 373.808 1.97184 -1.82679 0
M  V30 3635 C 372.079 0.194918 -3.56868 0
M  V30 3636 S 373.638 0.69287 -4.33295 0
M  V30 3637 H 370.456 0.00253458 -0.710995 0
M  V30 3638 H 373.058 -0.673 -1.83551 0
M  V30 3639 H 371.762 -0.756672 -4.03364 0
M  V30 3640 H 371.293 0.93728 -3.82071 0
M  V30 3641 H 373.308 1.96226 -4.55752 0
M  V30 3642 N 372.481 1.55866 -0.233164 0
M  V30 3643 C 373.709 2.02998 0.399905 0
M  V30 3644 C 374.124 1.11274 1.52524 0
M  V30 3645 O 373.481 0.124528 1.82075 0
M  V30 3646 C 373.532 3.4958 0.920639 0
M  V30 3647 O 373.253 4.37808 -0.159834 0
M  V30 3648 C 374.754 4.12411 1.62578 0
M  V30 3649 H 371.974 0.664006 0.0966281 0
M  V30 3650 H 374.518 2.0143 -0.353013 0
M  V30 3651 H 372.673 3.51727 1.62379 0
M  V30 3652 H 373.087 5.23981 0.23337 0
M  V30 3653 H 374.561 5.16711 1.94201 0
M  V30 3654 H 375.038 3.5809 2.54299 0
M  V30 3655 H 375.644 4.14148 0.967553 0
M  V30 3656 N 373.959 -0.0401083 1.57549 0
M  V30 3657 C 375.189 -0.744115 1.92734 0
M  V30 3658 C 375.597 -1.70005 0.830348 0
M  V30 3659 O 374.94 -1.82576 -0.20286 0
M  V30 3660 C 375.002 -1.56516 3.2364 0
M  V30 3661 C 374.666 -0.7752 4.50377 0
M  V30 3662 C 375.663 -0.0803326 5.19838 0
M  V30 3663 C 373.348 -0.733002 4.96923 0
M  V30 3664 C 375.342 0.646154 6.34116 0
M  V30 3665 C 373.029 -0.00276321 6.111 0
M  V30 3666 C 374.027 0.685585 6.7955 0
M  V30 3667 O 373.715 1.40399 7.91545 0
M  V30 3668 H 373.447 -0.214861 0.640945 0
M  V30 3669 H 376.001 -0.00503675 2.05399 0
M  V30 3670 H 374.231 -2.3478 3.07271 0
M  V30 3671 H 375.92 -2.15076 3.44234 0
M  V30 3672 H 376.686 -0.104035 4.84888 0
M  V30 3673 H 372.565 -1.25827 4.43496 0
M  V30 3674 H 376.109 1.18398 6.87479 0
M  V30 3675 H 372.006 0.0229012 6.45496 0
M  V30 3676 H 372.774 1.31653 8.07843 0
M  V30 3677 N 375.437 -1.54477 -0.31217 0
M  V30 3678 C 376.367 -1.87652 -1.38957 0
M  V30 3679 C 377.348 -0.734358 -1.53431 0
M  V30 3680 O 378.533 -0.98911 -1.67123 0
M  V30 3681 C 375.663 -2.11396 -2.75552 0
M  V30 3682 C 374.617 -3.27243 -2.75855 0
M  V30 3683 C 373.943 -3.36382 -4.15633 0
M  V30 3684 C 375.243 -4.64622 -2.38587 0
M  V30 3685 H 376.937 -2.77887 -1.11442 0
M  V30 3686 H 374.483 -1.33707 -0.534655 0
M  V30 3687 H 376.436 -2.33189 -3.51 0
M  V30 3688 H 375.16 -1.17921 -3.04569 0
M  V30 3689 H 373.819 -3.05356 -2.02863 0
M  V30 3690 H 373.467 -2.40445 -4.41809 0
M  V30 3691 H 373.167 -4.14249 -4.1674 0
M  V30 3692 H 374.691 -3.60422 -4.92877 0
M  V30 3693 H 376.105 -4.86219 -3.03749 0
M  V30 3694 H 374.502 -5.45121 -2.50925 0
M  V30 3695 H 375.572 -4.66097 -1.33723 0
M  V30 3696 N 376.915 0.57481 -1.46744 0
M  V30 3697 C 378.163 1.33009 -1.52161 0
M  V30 3698 C 378.484 1.94185 -0.178092 0
M  V30 3699 O 377.754 1.7899 0.796196 0
M  V30 3700 H 376.334 0.493873 -0.560445 0
M  V30 3701 H 378.996 0.672589 -1.82927 0
M  V30 3702 H 378.092 2.13273 -2.27862 0
M  V30 3703 N 378.394 1.34581 0.820102 0
M  V30 3704 C 379.805 1.24298 1.39309 0
M  V30 3705 C 380.156 -0.130351 1.95767 0
M  V30 3706 O 379.281 -1.0308 1.90272 0
M  V30 3707 C 379.876 2.25054 2.53251 0
M  V30 3708 C 378.435 2.18552 3.0645 0
M  V30 3709 C 377.582 2.11503 1.79337 0
M  V30 3710 H 380.533 1.45906 0.624262 0
M  V30 3711 H 380.554 1.86917 3.31425 0
M  V30 3712 H 380.066 3.24996 2.1213 0
M  V30 3713 H 378.167 1.21976 3.52069 0
M  V30 3714 H 378.28 3.0993 3.65349 0
M  V30 3715 H 376.644 1.57268 2.00347 0
M  V30 3716 H 377.427 3.13284 1.40386 0
M  V30 3717 N 379.872 -1.04064 1.18357 0
M  V30 3718 C 380.82 -2.14187 0.907007 0
M  V30 3719 C 381.814 -1.68879 -0.132725 0
M  V30 3720 O 383.02 -1.79993 0.0154248 0
M  V30 3721 H 379.395 -0.699585 0.275835 0
M  V30 3722 H 381.366 -2.34711 1.84264 0
M  V30 3723 C 380.115 -3.44785 0.449254 0
M  V30 3724 H 379.438 -3.80058 1.24081 0
M  V30 3725 H 380.878 -4.22974 0.294737 0
M  V30 3726 C 379.337 -3.26391 -0.834909 0
M  V30 3727 O 379.867 -3.53973 -1.89911 0
M  V30 3728 N 378.073 -2.79726 -0.787523 0
M  V30 3729 H 377.62 -2.5748 0.0787347 0
M  V30 3730 H 377.578 -2.67798 -1.64716 0
M  V30 3731 N 381.35 -0.985608 -1.22978 0
M  V30 3732 C 382.766 -0.695104 -1.43668 0
M  V30 3733 C 382.966 0.736866 -1.87543 0
M  V30 3734 O 382.022 1.50868 -2.02473 0
M  V30 3735 C 383.335 -1.69447 -2.48412 0
M  V30 3736 C 384.883 -1.70909 -2.62219 0
M  V30 3737 C 385.358 -2.6969 -3.70178 0
M  V30 3738 N 386.849 -2.6824 -3.77626 0
M  V30 3739 C 387.584 -3.41339 -4.60733 0
M  V30 3740 N 387.08 -4.24015 -5.4789 0
M  V30 3741 N 388.873 -3.30079 -4.54977 0
M  V30 3742 H 381.024 -1.91054 -0.928016 0
M  V30 3743 H 383.287 -0.823553 -0.469536 0
M  V30 3744 H 382.993 -2.7188 -2.23102 0
M  V30 3745 H 382.867 -1.48147 -3.46889 0
M  V30 3746 H 385.254 -0.691785 -2.86877 0
M  V30 3747 H 385.335 -1.96276 -1.6404 0
M  V30 3748 H 384.979 -3.71566 -3.46268 0
M  V30 3749 H 384.909 -2.41595 -4.67909 0
M  V30 3750 H 387.4 -2.08243 -3.15346 0
M  V30 3751 H 387.713 -4.76636 -6.08308 0
M  V30 3752 H 386.058 -4.28104 -5.47496 0
M  V30 3753 H 389.249 -2.64937 -3.85909 0
M  V30 3754 H 389.422 -3.87308 -5.19516 0
M  V30 3755 N 382.828 1.3818 -0.7579 0
M  V30 3756 C 383.778 2.27741 -0.108674 0
M  V30 3757 C 384.762 1.45415 0.688709 0
M  V30 3758 O 385.954 1.68108 0.553956 0
M  V30 3759 C 383.083 3.34313 0.780367 0
M  V30 3760 C 382.169 4.24093 -0.0240977 0
M  V30 3761 N 382.56 4.9451 -1.06271 0
M  V30 3762 C 380.858 4.45542 0.202049 0
M  V30 3763 C 381.559 5.60675 -1.54979 0
M  V30 3764 N 380.535 5.36684 -0.864348 0
M  V30 3765 H 384.337 2.79649 -0.904071 0
M  V30 3766 H 381.851 1.51133 -0.594346 0
M  V30 3767 H 383.848 3.97368 1.26114 0
M  V30 3768 H 382.508 2.83962 1.57467 0
M  V30 3769 H 383.519 4.97345 -1.44459 0
M  V30 3770 H 380.196 4.06091 0.96935 0
M  V30 3771 H 381.586 6.26992 -2.41517 0
M  V30 3772 N 384.306 0.507319 1.49211 0
M  V30 3773 C 385.531 -0.033725 2.07373 0
M  V30 3774 C 385.956 -1.29485 1.36437 0
M  V30 3775 O 385.314 -1.76294 0.423087 0
M  V30 3776 C 385.362 -0.263945 3.59633 0
M  V30 3777 O 384.466 -1.33737 3.90113 0
M  V30 3778 H 383.807 0.0290331 0.663365 0
M  V30 3779 H 386.337 0.708749 1.91932 0
M  V30 3780 H 386.347 -0.493536 4.05004 0
M  V30 3781 H 385.022 0.657424 4.10671 0
M  V30 3782 H 383.599 -1.09224 3.56545 0
M  V30 3783 N 385.784 -1.5574 0.241426 0
M  V30 3784 C 387.024 -2.00714 -0.38644 0
M  V30 3785 C 387.388 -1.12586 -1.55526 0
M  V30 3786 O 388.589 -1.46992 -2.25048 0
M  V30 3787 C 386.86 -3.48534 -0.791128 0
M  V30 3788 S 388.419 -4.15519 -1.41029 0
M  V30 3789 H 385.237 -0.700484 -0.121834 0
M  V30 3790 H 387.839 -1.92243 0.355377 0
M  V30 3791 H 386.543 -4.10342 0.0689225 0
M  V30 3792 H 386.074 -3.6092 -1.56526 0
M  V30 3793 H 388.089 -4.16352 -2.69936 0
M  V30 3794 N 387.262 0.0317525 -1.57568 0
M  V30 3795 C 388.49 0.734949 -1.93407 0
M  V30 3796 C 388.905 1.69036 -0.84096 0
M  V30 3797 O 388.262 1.81582 0.182836 0
M  V30 3798 C 388.313 1.49432 -3.29169 0
M  V30 3799 O 388.034 0.577261 -4.3428 0
M  V30 3800 C 389.535 2.29492 -3.79273 0
M  V30 3801 H 386.755 0.206706 -0.638368 0
M  V30 3802 H 389.299 -0.00992046 -2.04498 0
M  V30 3803 H 387.454 2.1911 -3.19483 0
M  V30 3804 H 387.868 1.10952 -5.1263 0
M  V30 3805 H 389.342 2.78172 -4.76785 0
M  V30 3806 H 389.819 3.10794 -3.10328 0
M  V30 3807 H 390.425 1.64894 -3.92033 0
M  V30 3808 N 388.74 1.54641 0.303973 0
M  V30 3809 C 389.98 1.75516 1.04755 0
M  V30 3810 C 390.344 0.528211 1.84591 0
M  V30 3811 O 391.545 0.614645 2.61678 0
M  V30 3812 C 389.816 3.00685 1.93193 0
M  V30 3813 S 391.375 3.42549 2.74237 0
M  V30 3814 H 388.193 0.616987 0.353339 0
M  V30 3815 H 390.795 1.92842 0.321292 0
M  V30 3816 H 389.499 3.8811 1.33411 0
M  V30 3817 H 389.03 2.85937 2.70191 0
M  V30 3818 H 391.045 2.99386 3.95705 0
M  V30 3819 N 390.218 -0.567019 1.47046 0
M  V30 3820 C 391.15 -1.68985 1.54844 0
M  V30 3821 C 392.163 -1.56869 0.435431 0
M  V30 3822 O 393.352 -1.64006 0.70457 0
M  V30 3823 C 390.452 -3.07373 1.42742 0
M  V30 3824 C 389.625 -3.45339 2.6844 0
M  V30 3825 C 388.684 -4.62849 2.50314 0
M  V30 3826 O 387.71 -4.67922 3.24095 0
M  V30 3827 N 388.912 -5.58726 1.57499 0
M  V30 3828 H 391.677 -1.62745 2.51663 0
M  V30 3829 H 389.238 -0.753411 1.43302 0
M  V30 3830 H 391.23 -3.83803 1.28365 0
M  V30 3831 H 389.8 -3.07893 0.540445 0
M  V30 3832 H 389.02 -2.58455 2.97648 0
M  V30 3833 H 390.308 -3.67476 3.51907 0
M  V30 3834 H 389.706 -5.57376 0.966876 0
M  V30 3835 H 388.263 -6.34523 1.49078 0
M  V30 3836 N 391.696 -1.35014 -0.812953 0
M  V30 3837 C 392.606 -1.2951 -1.95613 0
M  V30 3838 C 393.622 -0.20107 -1.72834 0
M  V30 3839 O 394.798 -0.42932 -1.96771 0
M  V30 3840 C 391.863 -1.06033 -3.30088 0
M  V30 3841 C 390.924 -2.24688 -3.65805 0
M  V30 3842 C 390.157 -2.02322 -4.93864 0
M  V30 3843 O 390.38 -0.986464 -5.61805 0
M  V30 3844 O 389.314 -2.89525 -5.27692 0
M  V30 3845 H 393.14 -2.25705 -2.03202 0
M  V30 3846 H 390.725 -1.15321 -0.949811 0
M  V30 3847 H 392.607 -0.94763 -4.10607 0
M  V30 3848 H 391.282 -0.128852 -3.23443 0
M  V30 3849 H 390.189 -2.41521 -2.85689 0
M  V30 3850 H 391.522 -3.16261 -3.77147 0
M  V30 3851 N 393.175 1.03435 -1.18907 0
M  V30 3852 C 394.423 1.76394 -0.986382 0
M  V30 3853 C 394.744 1.88883 0.484567 0
M  V30 3854 O 394.014 1.41843 1.3512 0
M  V30 3855 H 392.594 0.65344 -0.361975 0
M  V30 3856 H 395.256 1.248 -1.49703 0
M  V30 3857 H 394.352 2.77424 -1.42978 0
M  V30 3858 N 394.653 0.992116 1.22453 0
M  V30 3859 C 395.883 0.684949 1.94915 0
M  V30 3860 C 396.291 -0.754292 1.73514 0
M  V30 3861 O 395.634 -1.52056 1.03076 0
M  V30 3862 C 395.696 0.910054 3.47791 0
M  V30 3863 C 395.36 2.33363 3.92926 0
M  V30 3864 C 396.357 3.31308 4.00663 0
M  V30 3865 C 394.042 2.66785 4.25595 0
M  V30 3866 C 396.036 4.6075 4.40441 0
M  V30 3867 C 393.723 3.96446 4.65053 0
M  V30 3868 C 394.721 4.9324 4.72444 0
M  V30 3869 O 394.409 6.20584 5.1101 0
M  V30 3870 H 394.141 0.25258 0.62704 0
M  V30 3871 H 396.695 1.32939 1.56577 0
M  V30 3872 H 394.925 0.208443 3.86138 0
M  V30 3873 H 396.614 0.598257 4.01467 0
M  V30 3874 H 397.38 3.0682 3.75615 0
M  V30 3875 H 393.259 1.92148 4.19047 0
M  V30 3876 H 396.803 5.363 4.46126 0
M  V30 3877 H 392.7 4.20724 4.89552 0
M  V30 3878 H 393.468 6.24509 5.29085 0
M  V30 3879 N 396.131 -1.37776 0.765217 0
M  V30 3880 C 397.547 -1.53297 0.444108 0
M  V30 3881 C 397.747 -1.72515 -1.04119 0
M  V30 3882 O 396.803 -1.74278 -1.82711 0
M  V30 3883 C 398.116 -2.73328 1.25349 0
M  V30 3884 C 399.664 -2.87185 1.24473 0
M  V30 3885 C 400.139 -4.10191 2.03733 0
M  V30 3886 N 401.63 -4.17291 2.01053 0
M  V30 3887 C 402.365 -5.11488 2.59166 0
M  V30 3888 N 401.861 -6.11285 3.26041 0
M  V30 3889 N 403.654 -5.03924 2.49032 0
M  V30 3890 H 395.805 -1.23552 1.72768 0
M  V30 3891 H 398.068 -0.601103 0.733062 0
M  V30 3892 H 397.774 -2.6557 2.30577 0
M  V30 3893 H 397.648 -3.66834 0.87823 0
M  V30 3894 H 400.035 -2.94418 0.20047 0
M  V30 3895 H 400.116 -1.94657 1.65959 0
M  V30 3896 H 399.76 -4.0372 3.08176 0
M  V30 3897 H 399.69 -5.01821 1.59633 0
M  V30 3898 H 402.181 -3.45825 1.5236 0
M  V30 3899 H 402.494 -6.79678 3.67774 0
M  V30 3900 H 400.839 -6.11583 3.30138 0
M  V30 3901 H 404.03 -4.24902 1.96407 0
M  V30 3902 H 404.203 -5.77152 2.94617 0
M  V30 3903 N 397.609 -0.515225 -1.4894 0
M  V30 3904 C 398.857 0.0241671 -2.02086 0
M  V30 3905 C 399.178 1.3616 -1.3959 0
M  V30 3906 O 398.448 1.87841 -0.556121 0
M  V30 3907 H 397.028 0.0119203 -0.746905 0
M  V30 3908 H 399.69 -0.675702 -1.82812 0
M  V30 3909 H 398.786 0.143385 -3.1177 0
M  V30 3910 N 399.087 1.5561 -0.249682 0
M  V30 3911 C 400.364 1.90932 0.424761 0
M  V30 3912 C 400.744 1.17078 1.75658 0
M  V30 3913 O 400.092 0.289176 2.26663 0
M  V30 3914 C 400.302 3.43975 0.590109 0
M  V30 3915 C 401.65 4.15281 0.884714 0
M  V30 3916 O 402.674 3.49729 0.67587 0
M  V30 3917 O 401.533 5.31236 1.28259 0
M  V30 3918 H 398.627 0.794815 0.228468 0
M  V30 3919 H 401.173 1.67135 -0.293954 0
M  V30 3920 H 399.945 3.89748 -0.34818 0
M  V30 3921 H 399.568 3.73644 1.35926 0
M  V30 3922 N 400.565 -0.0233959 1.57583 0
M  V30 3923 C 401.813 -0.711654 1.89156 0
M  V30 3924 C 402.134 -1.75591 0.848096 0
M  V30 3925 O 401.404 -1.95547 -0.117566 0
M  V30 3926 H 399.984 -0.265835 0.698098 0
M  V30 3927 H 402.646 0.0119948 1.94896 0
M  V30 3928 H 401.742 -1.19766 2.88206 0
M  V30 3929 N 402.043 -1.548 -0.295768 0
M  V30 3930 C 402.975 -1.82492 -1.3867 0
M  V30 3931 C 403.988 -0.708134 -1.46592 0
M  V30 3932 O 405.177 -0.985686 -1.48817 0
M  V30 3933 C 402.277 -1.95256 -2.76999 0
M  V30 3934 C 401.45 -3.25709 -2.91946 0
M  V30 3935 C 400.509 -3.28824 -4.10806 0
M  V30 3936 O 399.535 -4.02328 -4.02643 0
M  V30 3937 N 400.737 -2.5459 -5.21694 0
M  V30 3938 H 403.502 -2.76646 -1.15269 0
M  V30 3939 H 401.063 -1.54438 -0.485849 0
M  V30 3940 H 403.055 -1.94736 -3.54768 0
M  V30 3941 H 401.625 -1.08072 -2.93324 0
M  V30 3942 H 400.845 -3.38959 -2.01247 0
M  V30 3943 H 402.133 -4.11786 -2.98847 0
M  V30 3944 H 401.531 -1.94512 -5.31208 0
M  V30 3945 H 400.088 -2.59818 -5.97778 0
M  V30 3946 N 403.521 0.559213 -1.47345 0
M  V30 3947 C 404.767 1.31843 -1.54095 0
M  V30 3948 C 405.1 1.93149 -0.201726 0
M  V30 3949 O 404.375 1.77759 0.789428 0
M  V30 3950 C 404.658 2.43006 -2.65744 0
M  V30 3951 C 404.511 1.86581 -4.09277 0
M  V30 3952 C 405.83 3.44943 -2.73318 0
M  V30 3953 H 402.949 0.478012 -0.560957 0
M  V30 3954 H 405.591 0.625977 -1.79392 0
M  V30 3955 H 403.741 3.02072 -2.44305 0
M  V30 3956 H 405.413 1.31792 -4.42073 0
M  V30 3957 H 403.656 1.17268 -4.17649 0
M  V30 3958 H 404.327 2.66933 -4.83168 0
M  V30 3959 H 406.803 2.95793 -2.92653 0
M  V30 3960 H 405.679 4.20153 -3.53218 0
M  V30 3961 H 405.94 4.03665 -1.80296 0
M  V30 3962 N 404.999 1.35443 0.805782 0
M  V30 3963 C 406.239 1.30127 1.57627 0
M  V30 3964 C 406.603 -0.122567 1.91608 0
M  V30 3965 O 407.804 -0.300107 2.67119 0
M  V30 3966 C 406.075 2.18314 2.82973 0
M  V30 3967 S 407.634 2.30521 3.7337 0
M  V30 3968 H 404.452 0.462439 0.540066 0
M  V30 3969 H 407.054 1.70843 0.95042 0
M  V30 3970 H 405.758 3.20741 2.56034 0
M  V30 3971 H 405.289 1.78558 3.50543 0
M  V30 3972 H 407.304 1.49062 4.73281 0
M  V30 3973 N 406.477 -1.02803 1.19454 0
M  V30 3974 C 407.407 -2.12999 0.956758 0
M  V30 3975 C 408.388 -1.69743 -0.110188 0
M  V30 3976 O 409.573 -1.94148 0.0450038 0
M  V30 3977 C 406.703 -3.43746 0.495553 0
M  V30 3978 C 405.657 -4.00688 1.50443 0
M  V30 3979 C 404.983 -5.27067 0.900275 0
M  V30 3980 C 406.283 -4.35397 2.8849 0
M  V30 3981 H 407.977 -2.33148 1.87836 0
M  V30 3982 H 405.523 -1.12045 0.904539 0
M  V30 3983 H 407.476 -4.2021 0.316493 0
M  V30 3984 H 406.2 -3.23321 -0.461646 0
M  V30 3985 H 404.859 -3.2632 1.67065 0
M  V30 3986 H 404.507 -5.02959 -0.064503 0
M  V30 3987 H 404.207 -5.66127 1.57397 0
M  V30 3988 H 405.731 -6.06196 0.73203 0
M  V30 3989 H 407.145 -5.02795 2.75446 0
M  V30 3990 H 405.542 -4.85541 3.52661 0
M  V30 3991 H 406.612 -3.44662 3.41081 0
M  V30 3992 N 407.956 -0.998596 -1.21925 0
M  V30 3993 C 409.367 -0.711939 -1.72593 0
M  V30 3994 C 409.718 0.770842 -1.80423 0
M  V30 3995 O 408.843 1.60237 -1.4544 0
M  V30 3996 C 409.438 -1.28567 -3.13458 0
M  V30 3997 C 407.997 -1.04828 -3.61508 0
M  V30 3998 C 407.144 -1.4024 -2.39224 0
M  V30 3999 H 410.095 -1.17027 -1.07193 0
M  V30 4000 H 410.116 -0.667098 -3.74607 0
M  V30 4001 H 409.628 -2.36486 -3.07727 0
M  V30 4002 H 407.729 0.0140383 -3.72597 0
M  V30 4003 H 407.842 -1.71566 -4.47328 0
M  V30 4004 H 406.206 -0.821077 -2.41103 0
M  V30 4005 H 406.989 -2.49176 -2.36149 0
M  V30 4006 N 409.434 1.37368 -0.772513 0
M  V30 4007 C 410.68 1.99969 -0.337681 0
M  V30 4008 C 411.013 1.61184 1.08321 0
M  V30 4009 O 410.288 0.858395 1.74533 0
M  V30 4010 C 410.571 3.56858 -0.482121 0
M  V30 4011 C 410.424 4.0555 -1.94549 0
M  V30 4012 C 411.743 4.39955 0.113143 0
M  V30 4013 H 408.862 0.726464 -0.124171 0
M  V30 4014 H 411.504 1.63034 -0.975699 0
M  V30 4015 H 409.654 3.88452 0.0610361 0
M  V30 4016 H 411.326 3.84518 -2.54841 0
M  V30 4017 H 409.569 3.57715 -2.45403 0
M  V30 4018 H 410.24 5.14587 -1.9976 0
M  V30 4019 H 412.716 4.14623 -0.35031 0
M  V30 4020 H 411.592 5.48897 -0.0180514 0
M  V30 4021 H 411.853 4.25403 1.20354 0
M  V30 4022 N 410.912 0.523116 1.48665 0
M  V30 4023 C 412.189 -0.0775449 1.95446 0
M  V30 4024 C 412.569 -1.5197 1.4652 0
M  V30 4025 O 411.917 -2.17876 0.688657 0
M  V30 4026 C 412.127 0.0326135 3.48985 0
M  V30 4027 C 413.475 -0.130141 4.24401 0
M  V30 4028 O 414.499 -0.0415142 3.56176 0
M  V30 4029 O 413.358 -0.31491 5.45592 0
M  V30 4030 H 410.452 -0.0831012 0.822814 0
M  V30 4031 H 412.998 0.587227 1.59216 0
M  V30 4032 H 411.77 1.03748 3.77296 0
M  V30 4033 H 411.393 -0.671317 3.91892 0
M  V30 4034 N 412.39 -1.55475 0.257931 0
M  V30 4035 C 413.801 -1.8511 -0.243135 0
M  V30 4036 C 414.152 -1.17986 -1.5676 0
M  V30 4037 O 413.277 -0.462102 -2.11409 0
M  V30 4038 C 413.872 -3.35826 -0.447929 0
M  V30 4039 C 412.431 -3.65647 -0.893245 0
M  V30 4040 C 411.578 -2.7729 0.0232965 0
M  V30 4041 H 414.529 -1.51261 0.480199 0
M  V30 4042 H 414.55 -3.58002 -1.28898 0
M  V30 4043 H 414.062 -3.84652 0.516196 0
M  V30 4044 H 412.163 -3.22308 -1.86945 0
M  V30 4045 H 412.276 -4.73312 -0.742469 0
M  V30 4046 H 410.64 -2.49942 -0.490021 0
M  V30 4047 H 411.423 -3.28926 0.982994 0
M  V30 4048 N 413.868 0.0150385 -1.57593 0
M  V30 4049 C 415.108 0.70768 -1.91758 0
M  V30 4050 C 415.472 1.71764 -0.857974 0
M  V30 4051 O 416.673 2.45956 -1.0844 0
M  V30 4052 C 414.944 1.34736 -3.3103 0
M  V30 4053 S 416.503 2.06721 -3.87056 0
M  V30 4054 H 413.321 0.234119 -0.671349 0
M  V30 4055 H 415.923 -0.0380373 -1.95463 0
M  V30 4056 H 414.627 0.59926 -4.06001 0
M  V30 4057 H 414.158 2.13133 -3.30663 0
M  V30 4058 H 416.173 3.34047 -3.66915 0
M  V30 4059 N 415.346 1.54954 0.287554 0
M  V30 4060 C 416.278 1.83224 1.37701 0
M  V30 4061 C 417.291 0.715898 1.46215 0
M  V30 4062 O 418.48 0.993565 1.48292 0
M  V30 4063 C 415.58 1.96723 2.75959 0
M  V30 4064 C 414.753 3.27253 2.90215 0
M  V30 4065 C 413.812 3.30998 4.09056 0
M  V30 4066 O 412.838 4.04457 4.00503 0
M  V30 4067 N 414.04 2.57353 5.20336 0
M  V30 4068 H 416.805 2.77254 1.138 0
M  V30 4069 H 414.366 1.54694 0.477652 0
M  V30 4070 H 416.358 1.96615 3.5373 0
M  V30 4071 H 414.928 1.09626 2.92747 0
M  V30 4072 H 414.148 3.40022 1.99447 0
M  V30 4073 H 415.436 4.13365 2.96659 0
M  V30 4074 H 414.834 1.97327 5.30169 0
M  V30 4075 H 413.391 2.62984 5.96391 0
M  V30 4076 N 416.824 -0.551391 1.4764 0
M  V30 4077 C 418.073 -1.30467 1.53822 0
M  V30 4078 C 418.386 -1.94495 0.207661 0
M  V30 4079 O 419.592 -2.71099 0.147533 0
M  V30 4080 C 418.048 -2.36616 2.71184 0
M  V30 4081 C 417.656 -1.78754 4.10793 0
M  V30 4082 C 419.4 -3.13088 2.86663 0
M  V30 4083 C 417.307 -2.82717 5.19447 0
M  V30 4084 H 416.237 -0.490584 0.572576 0
M  V30 4085 H 418.888 -0.58494 1.73927 0
M  V30 4086 H 417.27 -3.11529 2.4447 0
M  V30 4087 H 418.444 -1.10173 4.47435 0
M  V30 4088 H 416.759 -1.14846 4.00249 0
M  V30 4089 H 419.356 -3.90736 3.65007 0
M  V30 4090 H 419.699 -3.67635 1.95321 0
M  V30 4091 H 420.232 -2.45288 3.13175 0
M  V30 4092 H 416.971 -2.33018 6.12685 0
M  V30 4093 H 416.491 -3.4969 4.87316 0
M  V30 4094 H 418.17 -3.46102 5.46646 0
M  V30 4095 N 418.302 -1.35869 -0.798587 0
M  V30 4096 C 419.25 -1.29491 -1.93222 0
M  V30 4097 C 420.244 -0.18836 -1.6835 0
M  V30 4098 O 421.45 -0.354822 -1.76468 0
M  V30 4099 H 417.825 -0.402901 -0.63496 0
M  V30 4100 H 419.796 -2.25247 -1.9572 0
M  V30 4101 C 418.545 -1.09184 -3.30112 0
M  V30 4102 H 417.868 -1.93574 -3.49813 0
M  V30 4103 H 419.308 -1.08766 -4.09812 0
M  V30 4104 C 417.767 0.203959 -3.36282 0
M  V30 4105 O 418.297 1.19699 -3.83451 0
M  V30 4106 N 416.503 0.245488 -2.89561 0
M  V30 4107 H 416.05 -0.563223 -2.51367 0
M  V30 4108 H 416.008 1.11219 -2.94071 0
M  V30 4109 N 419.78 1.02168 -1.19998 0
M  V30 4110 C 421.027 1.75685 -1.00702 0
M  V30 4111 C 421.355 1.88947 0.461426 0
M  V30 4112 O 420.61 1.40832 1.35885 0
M  V30 4113 C 420.909 3.18081 -1.62969 0
M  V30 4114 C 420.575 3.24809 -3.12746 0
M  V30 4115 C 419.237 3.26352 -3.53621 0
M  V30 4116 C 421.589 3.23379 -4.08749 0
M  V30 4117 C 418.917 3.2413 -4.89036 0
M  V30 4118 C 421.269 3.22698 -5.44104 0
M  V30 4119 C 419.933 3.22542 -5.84399 0
M  V30 4120 H 419.203 0.642877 -0.368496 0
M  V30 4121 H 421.85 1.19865 -1.49348 0
M  V30 4122 H 420.155 3.77027 -1.06573 0
M  V30 4123 H 421.852 3.73648 -1.45561 0
M  V30 4124 H 418.442 3.2434 -2.80181 0
M  V30 4125 H 422.626 3.21361 -3.78207 0
M  V30 4126 H 417.882 3.22338 -5.19527 0
M  V30 4127 H 422.056 3.20543 -6.18244 0
M  V30 4128 H 419.683 3.20575 -6.89301 0
M  V30 4129 N 421.258 1.00505 1.21394 0
M  V30 4130 C 422.506 0.686415 1.90086 0
M  V30 4131 C 422.827 -0.785264 1.7849 0
M  V30 4132 O 422.097 -1.56387 1.17983 0
M  V30 4133 H 420.677 0.2509 0.703604 0
M  V30 4134 H 423.339 1.27417 1.47482 0
M  V30 4135 H 422.435 0.959621 2.96981 0
M  V30 4136 N 422.737 -1.36956 0.779787 0
M  V30 4137 C 423.685 -2.32053 0.15942 0
M  V30 4138 C 424.679 -1.55333 -0.675878 0
M  V30 4139 O 425.885 -1.70668 -0.57204 0
M  V30 4140 H 422.26 -0.751286 0.0327707 0
M  V30 4141 H 424.231 -2.8195 0.977078 0
M  V30 4142 C 422.98 -3.40602 -0.698977 0
M  V30 4143 H 422.303 -3.99746 -0.0655966 0
M  V30 4144 H 423.743 -4.09486 -1.09989 0
M  V30 4145 C 422.202 -2.81359 -1.85307 0
M  V30 4146 O 422.732 -2.72751 -2.94906 0
M  V30 4147 N 420.938 -2.38786 -1.65619 0
M  V30 4148 H 420.485 -2.45987 -0.764725 0
M  V30 4149 H 420.443 -1.99493 -2.43002 0
M  V30 4150 N 424.215 -0.530993 -1.48385 0
M  V30 4151 C 425.455 0.000718982 -2.044 0
M  V30 4152 C 425.819 1.31485 -1.39913 0
M  V30 4153 O 427.02 1.93265 -1.86821 0
M  V30 4154 C 425.291 0.119177 -3.57201 0
M  V30 4155 S 426.85 0.600806 -4.34667 0
M  V30 4156 H 423.668 -0.0125473 -0.710889 0
M  V30 4157 H 426.27 -0.711783 -1.82082 0
M  V30 4158 H 424.974 -0.842061 -4.01668 0
M  V30 4159 H 424.505 0.856026 -3.83974 0
M  V30 4160 H 426.52 1.86514 -4.59812 0
M  V30 4161 N 425.693 1.55336 -0.266172 0
M  V30 4162 C 427.104 1.85236 0.233315 0
M  V30 4163 C 427.455 1.18816 1.56132 0
M  V30 4164 O 426.58 0.473307 2.11161 0
M  V30 4165 C 427.175 3.36059 0.430113 0
M  V30 4166 C 425.734 3.66116 0.873842 0
M  V30 4167 C 424.881 2.77274 -0.0380016 0
M  V30 4168 H 427.832 1.51004 -0.488214 0
M  V30 4169 H 427.853 3.58681 1.26998 0
M  V30 4170 H 427.365 3.84373 -0.536588 0
M  V30 4171 H 425.466 3.23295 1.85233 0
M  V30 4172 H 425.579 4.73699 0.717358 0
M  V30 4173 H 423.943 2.50198 0.476759 0
M  V30 4174 H 424.726 3.284 -1.00042 0
M  V30 4175 N 427.171 -0.0066808 1.57599 0
M  V30 4176 C 428.399 -0.704087 1.94551 0
M  V30 4177 C 428.814 -1.67677 0.867746 0
M  V30 4178 O 428.171 -1.8185 -0.153925 0
M  V30 4179 C 428.222 -1.44177 3.31505 0
M  V30 4180 O 427.943 -0.508097 4.35144 0
M  V30 4181 C 429.444 -2.23429 3.82876 0
M  V30 4182 H 426.664 -0.196523 0.641576 0
M  V30 4183 H 429.208 0.042453 2.04456 0
M  V30 4184 H 427.363 -2.13999 3.22929 0
M  V30 4185 H 427.777 -1.02782 5.14331 0
M  V30 4186 H 429.251 -2.70552 4.8115 0
M  V30 4187 H 429.728 -3.05818 3.15233 0
M  V30 4188 H 430.334 -1.58636 3.94607 0
M  V30 4189 N 428.649 -1.55105 -0.279332 0
M  V30 4190 C 429.596 -1.8755 -1.34513 0
M  V30 4191 C 430.566 -0.726384 -1.49375 0
M  V30 4192 O 431.751 -0.977063 -1.63884 0
M  V30 4193 C 428.891 -2.14738 -2.70151 0
M  V30 4194 C 428.004 -3.42285 -2.63562 0
M  V30 4195 C 427.139 -3.59206 -3.91337 0
M  V30 4196 C 426.178 -4.80467 -3.79233 0
M  V30 4197 N 425.315 -4.94079 -4.98829 0
M  V30 4198 H 430.155 -2.78456 -1.06143 0
M  V30 4199 H 427.692 -1.37867 -0.512936 0
M  V30 4200 H 429.65 -2.28501 -3.49061 0
M  V30 4201 H 428.28 -1.27075 -2.96735 0
M  V30 4202 H 427.332 -3.37029 -1.76397 0
M  V30 4203 H 428.644 -4.31328 -2.50515 0
M  V30 4204 H 427.798 -3.72751 -4.78687 0
M  V30 4205 H 426.537 -2.68337 -4.07243 0
M  V30 4206 H 425.542 -4.66932 -2.90266 0
M  V30 4207 H 426.767 -5.72765 -3.64852 0
M  V30 4208 H 424.713 -4.06139 -5.15158 0
M  V30 4209 H 424.63 -5.77156 -4.8829 0
M  V30 4210 H 425.898 -5.12003 -5.8777 0
M  V30 4211 N 430.127 0.543554 -1.4793 0
M  V30 4212 C 431.352 1.32995 -1.59145 0
M  V30 4213 C 431.777 1.86472 -0.246956 0
M  V30 4214 O 431.135 1.63696 0.779324 0
M  V30 4215 C 431.183 2.46623 -2.63077 0
M  V30 4216 O 430.287 3.49261 -2.19295 0
M  V30 4217 H 429.628 0.394472 -0.534124 0
M  V30 4218 H 432.158 0.655489 -1.93816 0
M  V30 4219 H 432.168 2.93001 -2.83926 0
M  V30 4220 H 430.843 2.07059 -3.60693 0
M  V30 4221 H 429.42 3.09094 -2.08603 0
M  V30 4222 N 431.605 1.3629 0.791371 0
M  V30 4223 C 432.833 1.33562 1.58016 0
M  V30 4224 C 433.248 -0.0835616 1.88615 0
M  V30 4225 O 432.605 -1.0399 1.49974 0
M  V30 4226 C 432.656 2.15517 2.90232 0
M  V30 4227 O 432.377 3.51902 2.60953 0
M  V30 4228 C 433.878 2.20546 3.84544 0
M  V30 4229 H 431.098 0.458226 0.490173 0
M  V30 4230 H 433.642 1.79361 0.982345 0
M  V30 4231 H 431.797 1.73278 3.46487 0
M  V30 4232 H 432.211 3.94644 3.4548 0
M  V30 4233 H 433.685 2.82252 4.74382 0
M  V30 4234 H 434.162 1.20838 4.2225 0
M  V30 4235 H 434.768 2.63013 3.34222 0
M  V30 4236 N 433.083 -1.0153 1.20538 0
M  V30 4237 C 434.329 -1.75408 1.01783 0
M  V30 4238 C 434.662 -1.88943 -0.448814 0
M  V30 4239 O 433.937 -1.4162 -1.33319 0
M  V30 4240 C 434.22 -3.17255 1.70356 0
M  V30 4241 C 434.073 -3.11508 3.24473 0
M  V30 4242 C 435.392 -4.15955 1.43769 0
M  V30 4243 H 432.511 -0.636713 0.371167 0
M  V30 4244 H 435.153 -1.18436 1.4857 0
M  V30 4245 H 433.303 -3.65898 1.30578 0
M  V30 4246 H 434.975 -2.70658 3.73553 0
M  V30 4247 H 433.218 -2.4887 3.55311 0
M  V30 4248 H 433.889 -4.11784 3.67611 0
M  V30 4249 H 436.365 -3.75973 1.7828 0
M  V30 4250 H 435.241 -5.13368 1.94279 0
M  V30 4251 H 435.502 -4.40586 0.365564 0
M  V30 4252 N 434.561 -1.01147 -1.20859 0
M  V30 4253 C 435.801 -0.706331 -1.91808 0
M  V30 4254 C 436.165 0.749736 -1.76757 0
M  V30 4255 O 437.366 1.16716 -2.42138 0
M  V30 4256 C 435.637 -1.12371 -3.39275 0
M  V30 4257 S 437.196 -0.939764 -4.28619 0
M  V30 4258 H 434.014 -0.257665 -0.662669 0
M  V30 4259 H 436.616 -1.29766 -1.46223 0
M  V30 4260 H 435.32 -2.17943 -3.47749 0
M  V30 4261 H 434.851 -0.524952 -3.89882 0
M  V30 4262 H 436.866 0.159556 -4.95943 0
M  V30 4263 N 436.039 1.36541 -0.78704 0
M  V30 4264 C 436.986 2.30082 -0.181901 0
M  V30 4265 C 437.956 1.5186 0.672896 0
M  V30 4266 O 439.141 1.80374 0.622072 0
M  V30 4267 C 436.281 3.3835 0.679197 0
M  V30 4268 C 435.394 4.31565 -0.193882 0
M  V30 4269 C 434.529 5.26915 0.673364 0
M  V30 4270 C 433.568 6.11769 -0.201315 0
M  V30 4271 N 432.705 6.99315 0.624777 0
M  V30 4272 H 437.545 2.81248 -0.985064 0
M  V30 4273 H 435.082 1.38437 -0.497342 0
M  V30 4274 H 437.04 3.99767 1.19341 0
M  V30 4275 H 435.67 2.8851 1.44781 0
M  V30 4276 H 434.722 3.71323 -0.826044 0
M  V30 4277 H 436.034 4.91191 -0.867937 0
M  V30 4278 H 435.188 5.9361 1.25348 0
M  V30 4279 H 433.927 4.67737 1.38105 0
M  V30 4280 H 432.932 5.44039 -0.793849 0
M  V30 4281 H 434.157 6.73022 -0.906568 0
M  V30 4282 H 432.103 6.42648 1.3168 0
M  V30 4283 H 432.02 7.56 0.00835237 0
M  V30 4284 H 433.288 7.70382 1.18879 0
M  V30 4285 N 437.518 0.538854 1.48102 0
M  V30 4286 C 438.748 0.0122958 2.06596 0
M  V30 4287 C 439.156 -1.27861 1.39457 0
M  V30 4288 O 438.499 -1.77348 0.478907 0
M  V30 4289 C 438.561 -0.273131 3.58461 0
M  V30 4290 C 438.225 0.92561 4.47528 0
M  V30 4291 C 439.222 1.82637 4.86765 0
M  V30 4292 C 436.907 1.13511 4.89306 0
M  V30 4293 C 438.901 2.92047 5.66558 0
M  V30 4294 C 436.588 2.23233 5.68868 0
M  V30 4295 C 437.586 3.12333 6.07402 0
M  V30 4296 O 437.274 4.20155 6.85365 0
M  V30 4297 H 437.006 0.0344283 0.675123 0
M  V30 4298 H 439.56 0.746494 1.91355 0
M  V30 4299 H 437.79 -1.06141 3.71848 0
M  V30 4300 H 439.479 -0.742842 3.99045 0
M  V30 4301 H 440.245 1.67649 4.55103 0
M  V30 4302 H 436.124 0.450835 4.5879 0
M  V30 4303 H 439.668 3.6162 5.96554 0
M  V30 4304 H 435.565 2.38201 5.99942 0
M  V30 4305 H 436.333 4.17975 7.03732 0
M  V30 4306 N 438.996 -1.55193 0.274407 0
M  V30 4307 C 440.273 -1.91584 -0.394331 0
M  V30 4308 C 440.653 -1.19858 -1.73774 0
M  V30 4309 O 440.001 -0.3252 -2.26174 0
M  V30 4310 C 440.211 -3.4487 -0.535311 0
M  V30 4311 C 441.559 -4.16636 -0.818534 0
M  V30 4312 O 442.583 -3.5076 -0.620146 0
M  V30 4313 O 441.442 -5.33209 -1.19792 0
M  V30 4314 H 438.536 -0.798349 -0.215794 0
M  V30 4315 H 441.082 -1.66646 0.320507 0
M  V30 4316 H 439.854 -3.89145 0.410141 0
M  V30 4317 H 439.477 -3.75759 -1.29964 0
M  V30 4318 N 440.474 -0.00167713 -1.576 0
M  V30 4319 C 441.722 0.681471 -1.90264 0
M  V30 4320 C 442.043 1.7422 -0.875924 0
M  V30 4321 O 441.313 1.95709 0.0864412 0
M  V30 4322 H 439.893 0.254696 -0.702239 0
M  V30 4323 H 442.555 -0.0429996 -1.94853 0
M  V30 4324 H 441.651 1.15166 -2.90075 0
M  V30 4325 N 441.952 1.55251 0.271103 0
M  V30 4326 C 443.363 1.66635 0.842007 0
M  V30 4327 C 443.714 0.594631 1.86972 0
M  V30 4328 O 442.839 -0.263532 2.14789 0
M  V30 4329 C 443.434 3.02082 1.53401 0
M  V30 4330 C 441.993 3.15487 2.05293 0
M  V30 4331 C 441.14 2.62438 0.895631 0
M  V30 4332 H 444.091 1.58629 0.0474117 0
M  V30 4333 H 444.112 2.95176 2.40107 0
M  V30 4334 H 443.624 3.80062 0.785786 0
M  V30 4335 H 441.725 2.42284 2.83071 0
M  V30 4336 H 441.838 4.22075 2.26693 0
M  V30 4337 H 440.202 2.19644 1.28953 0
M  V30 4338 H 440.985 3.42923 0.160878 0
M  V30 4339 N 443.43 -0.535701 1.48216 0
M  V30 4340 C 444.678 -1.28928 1.55634 0
M  V30 4341 C 444.999 -1.93645 0.229514 0
M  V30 4342 O 444.269 -1.81038 -0.74846 0
M  V30 4343 H 442.849 -0.47884 0.573342 0
M  V30 4344 H 445.511 -0.623853 1.84646 0
M  V30 4345 H 444.607 -2.07157 2.33436 0
M  V30 4346 N 444.908 -1.36708 -0.784132 0
M  V30 4347 C 445.84 -1.27333 -1.90575 0
M  V30 4348 C 446.853 -0.191706 -1.61667 0
M  V30 4349 O 448.042 -0.446854 -1.72816 0
M  V30 4350 C 445.142 -0.943177 -3.25511 0
M  V30 4351 C 444.315 -2.12776 -3.82158 0
M  V30 4352 C 443.374 -1.76983 -4.95544 0
M  V30 4353 O 442.4 -2.49134 -5.11782 0
M  V30 4354 N 443.602 -0.706624 -5.76183 0
M  V30 4355 H 446.367 -2.23974 -1.99138 0
M  V30 4356 H 443.928 -1.30171 -0.962656 0
M  V30 4357 H 445.92 -0.684799 -3.98864 0
M  V30 4358 H 444.49 -0.0657333 -3.12531 0
M  V30 4359 H 443.71 -2.54863 -3.0073 0
M  V30 4360 H 444.998 -2.91904 -4.16737 0
M  V30 4361 H 444.396 -0.107643 -5.65598 0
M  V30 4362 H 442.953 -0.50808 -6.49817 0
M  V30 4363 N 446.386 1.0089 -1.21074 0
M  V30 4364 C 447.611 1.78727 -1.05221 0
M  V30 4365 C 448.036 1.83932 0.393795 0
M  V30 4366 O 447.394 1.28004 1.28393 0
M  V30 4367 C 447.442 3.20665 -1.64944 0
M  V30 4368 O 446.546 4.02632 -0.892273 0
M  V30 4369 H 445.887 0.550973 -0.370574 0
M  V30 4370 H 448.417 1.26847 -1.60534 0
M  V30 4371 H 448.427 3.71352 -1.69002 0
M  V30 4372 H 447.102 3.16191 -2.70177 0
M  V30 4373 H 445.679 3.61207 -0.926492 0
M  V30 4374 N 447.864 1.01787 1.20321 0
M  V30 4375 C 448.814 0.559976 2.21016 0
M  V30 4376 C 449.798 -0.385366 1.56217 0
M  V30 4377 O 450.99 -0.208126 1.75772 0
M  V30 4378 C 448.119 -0.0990553 3.43157 0
M  V30 4379 C 447.205 0.86807 4.15121 0
M  V30 4380 N 447.596 2.0261 4.63447 0
M  V30 4381 C 445.894 0.689162 4.40643 0
M  V30 4382 C 446.595 2.63518 5.18588 0
M  V30 4383 N 445.571 1.91569 5.08726 0
M  V30 4384 H 449.373 1.44281 2.56048 0
M  V30 4385 H 446.887 0.883381 1.36272 0
M  V30 4386 H 448.884 -0.444643 4.14522 0
M  V30 4387 H 447.544 -0.977709 3.0963 0
M  V30 4388 H 448.555 2.40598 4.58621 0
M  V30 4389 H 445.232 -0.14133 4.17261 0
M  V30 4390 H 446.622 3.61527 5.66346 0
M  V30 4391 N 449.342 -1.36122 0.79427 0
M  V30 4392 C 450.582 -2.00942 0.374376 0
M  V30 4393 C 450.946 -1.61666 -1.03577 0
M  V30 4394 O 452.147 -2.19113 -1.55701 0
M  V30 4395 C 450.418 -3.53323 0.538327 0
M  V30 4396 S 451.977 -4.38311 0.20703 0
M  V30 4397 H 448.795 -0.696515 0.142785 0
M  V30 4398 H 451.397 -1.65929 1.03382 0
M  V30 4399 H 450.101 -3.79395 1.56484 0
M  V30 4400 H 449.632 -3.93162 -0.136882 0
M  V30 4401 H 451.647 -4.8623 -0.989695 0
M  V30 4402 N 450.82 -0.546701 -1.47814 0
M  V30 4403 C 451.73 0.21026 -2.33656 0
M  V30 4404 C 452.746 0.922413 -1.47538 0
M  V30 4405 O 453.922 0.893652 -1.80488 0
M  V30 4406 C 450.987 1.23348 -3.24016 0
M  V30 4407 C 450.048 0.529883 -4.26017 0
M  V30 4408 C 449.281 1.50435 -5.12059 0
M  V30 4409 O 449.504 2.73837 -5.00369 0
M  V30 4410 O 448.438 1.03459 -5.92942 0
M  V30 4411 H 452.264 -0.493605 -2.99662 0
M  V30 4412 H 449.849 -0.307427 -1.46203 0
M  V30 4413 H 451.731 1.82438 -3.79861 0
M  V30 4414 H 450.406 1.91945 -2.60651 0
M  V30 4415 H 449.313 -0.101948 -3.73961 0
M  V30 4416 H 450.646 -0.11445 -4.92067 0
M  V30 4417 N 452.299 1.55045 -0.282633 0
M  V30 4418 C 453.539 2.01668 0.333088 0
M  V30 4419 C 453.903 1.1667 1.52486 0
M  V30 4420 O 455.104 1.52907 2.21072 0
M  V30 4421 C 453.375 3.50509 0.698442 0
M  V30 4422 S 454.934 4.19112 1.29963 0
M  V30 4423 H 451.752 0.703468 0.103219 0
M  V30 4424 H 454.354 1.91233 -0.406222 0
M  V30 4425 H 453.058 4.10015 -0.177693 0
M  V30 4426 H 452.589 3.64943 1.46902 0
M  V30 4427 H 454.604 4.23362 2.58803 0
M  V30 4428 N 453.777 0.010035 1.57597 0
M  V30 4429 C 454.724 -0.978122 2.09049 0
M  V30 4430 C 455.694 -1.33509 0.988159 0
M  V30 4431 O 456.879 -1.43172 1.26121 0
M  V30 4432 C 454.019 -2.26158 2.60666 0
M  V30 4433 C 453.132 -1.96275 3.84838 0
M  V30 4434 C 452.267 -3.18776 4.24918 0
M  V30 4435 C 451.306 -2.84625 5.41899 0
M  V30 4436 N 450.443 -3.99693 5.77226 0
M  V30 4437 H 455.283 -0.532431 2.93205 0
M  V30 4438 H 452.82 -0.251234 1.44939 0
M  V30 4439 H 454.778 -3.01202 2.88675 0
M  V30 4440 H 453.408 -2.68378 1.79369 0
M  V30 4441 H 452.46 -1.11555 3.63675 0
M  V30 4442 H 453.772 -1.67111 4.69974 0
M  V30 4443 H 452.926 -4.02157 4.54262 0
M  V30 4444 H 451.665 -3.51087 3.38511 0
M  V30 4445 H 450.67 -1.99653 5.12268 0
M  V30 4446 H 451.895 -2.53551 6.29991 0
M  V30 4447 H 449.841 -4.31882 4.93776 0
M  V30 4448 H 449.758 -3.74087 6.56959 0
M  V30 4449 H 451.026 -4.83834 6.11167 0
M  V30 4450 N 455.255 -1.55392 -0.262866 0
M  V30 4451 C 456.165 -1.92077 -1.34698 0
M  V30 4452 C 457.181 -0.819227 -1.53508 0
M  V30 4453 O 458.357 -1.11921 -1.67439 0
M  V30 4454 C 455.422 -2.19407 -2.68443 0
M  V30 4455 C 454.483 -3.42905 -2.58292 0
M  V30 4456 C 453.716 -3.68921 -3.85659 0
M  V30 4457 O 453.939 -2.97275 -4.8681 0
M  V30 4458 O 452.873 -4.62455 -3.85252 0
M  V30 4459 H 456.699 -2.84384 -1.06581 0
M  V30 4460 H 454.284 -1.42069 -0.462264 0
M  V30 4461 H 456.166 -2.38365 -3.47506 0
M  V30 4462 H 454.841 -1.30282 -2.96325 0
M  V30 4463 H 453.748 -3.29272 -1.7757 0
M  V30 4464 H 455.081 -4.32282 -2.35358 0
M  V30 4465 N 456.733 0.527833 -1.48498 0
M  V30 4466 C 457.683 1.62844 -1.5958 0
M  V30 4467 C 458.667 1.54397 -0.452809 0
M  V30 4468 O 459.859 1.62381 -0.704364 0
M  V30 4469 C 456.988 3.01557 -1.64067 0
M  V30 4470 C 456.074 3.151 -2.83853 0
M  V30 4471 N 456.465 2.9861 -4.08247 0
M  V30 4472 C 454.763 3.46158 -2.8123 0
M  V30 4473 C 455.464 3.15626 -4.88626 0
M  V30 4474 N 454.44 3.43298 -4.21483 0
M  V30 4475 H 458.242 1.48708 -2.53502 0
M  V30 4476 H 455.756 0.733343 -1.44899 0
M  V30 4477 H 457.753 3.8062 -1.70101 0
M  V30 4478 H 456.413 3.16783 -0.712636 0
M  V30 4479 H 457.424 2.75329 -4.3865 0
M  V30 4480 H 454.101 3.67728 -1.97692 0
M  V30 4481 H 455.491 3.07596 -5.97356 0
M  V30 4482 N 458.211 1.37122 0.776871 0
M  V30 4483 C 459.441 1.35034 1.56363 0
M  V30 4484 C 459.849 -0.0674681 1.8908 0
M  V30 4485 O 459.192 -1.03826 1.51545 0
M  V30 4486 C 459.254 2.11894 2.90415 0
M  V30 4487 C 458.918 3.60897 2.80362 0
M  V30 4488 C 459.915 4.54887 2.51742 0
M  V30 4489 C 457.6 4.03951 2.98545 0
M  V30 4490 C 459.594 5.89909 2.41426 0
M  V30 4491 C 457.281 5.3906 2.87849 0
M  V30 4492 C 458.279 6.31852 2.5933 0
M  V30 4493 O 457.967 7.64479 2.48651 0
M  V30 4494 H 457.699 0.464402 0.49123 0
M  V30 4495 H 460.253 1.80992 0.971127 0
M  V30 4496 H 458.483 1.60618 3.51765 0
M  V30 4497 H 460.172 2.02505 3.51776 0
M  V30 4498 H 460.938 4.22934 2.37385 0
M  V30 4499 H 456.817 3.3209 3.19746 0
M  V30 4500 H 460.361 6.62304 2.19086 0
M  V30 4501 H 456.258 5.70617 3.01773 0
M  V30 4502 H 457.026 7.74742 2.64039 0
M  V30 4503 N 459.689 -1.00246 1.21608 0
M  V30 4504 C 460.621 -2.09244 0.935401 0
M  V30 4505 C 461.634 -1.62592 -0.0823594 0
M  V30 4506 O 462.823 -1.77865 0.150456 0
M  V30 4507 C 459.923 -3.36724 0.383453 0
M  V30 4508 C 459.096 -4.1245 1.45615 0
M  V30 4509 C 458.155 -5.18219 0.912991 0
M  V30 4510 O 457.181 -5.46337 1.59701 0
M  V30 4511 N 458.383 -5.7987 -0.270478 0
M  V30 4512 H 461.148 -2.33905 1.87373 0
M  V30 4513 H 458.709 -1.16748 1.12167 0
M  V30 4514 H 460.701 -4.047 0.00562157 0
M  V30 4515 H 459.271 -3.09201 -0.459758 0
M  V30 4516 H 458.491 -3.39241 2.00772 0
M  V30 4517 H 459.779 -4.59819 2.17817 0
M  V30 4518 H 459.177 -5.59381 -0.843195 0
M  V30 4519 H 457.734 -6.49126 -0.589794 0
M  V30 4520 N 461.167 -1.02423 -1.1978 0
M  V30 4521 C 462.115 -0.594474 -2.24875 0
M  V30 4522 C 463.109 0.370598 -1.65296 0
M  V30 4523 O 464.315 0.239684 -1.78397 0
M  V30 4524 H 460.69 -0.173961 -0.731602 0
M  V30 4525 H 462.661 -1.4916 -2.58445 0
M  V30 4526 C 461.41 0.0436512 -3.47673 0
M  V30 4527 H 460.733 -0.689963 -3.93801 0
M  V30 4528 H 462.173 0.307362 -4.22884 0
M  V30 4529 C 460.632 1.28881 -3.11274 0
M  V30 4530 O 461.162 2.38135 -3.23503 0
M  V30 4531 N 459.368 1.1758 -2.6575 0
M  V30 4532 H 458.915 0.286769 -2.55999 0
M  V30 4533 H 458.873 2.00988 -2.41767 0
M  V30 4534 N 462.645 1.35699 -0.801477 0
M  V30 4535 C 463.892 1.98913 -0.379459 0
M  V30 4536 C 464.22 1.63592 1.05204 0
M  V30 4537 O 463.475 0.888563 1.74365 0
M  V30 4538 C 463.774 3.53828 -0.504041 0
M  V30 4539 C 463.44 4.09002 -1.8981 0
M  V30 4540 C 462.102 4.23783 -2.27951 0
M  V30 4541 C 464.454 4.38939 -2.81038 0
M  V30 4542 C 461.782 4.65816 -3.56696 0
M  V30 4543 C 464.134 4.82409 -4.09224 0
M  V30 4544 C 462.798 4.95395 -4.4737 0
M  V30 4545 H 462.068 0.727874 -0.138854 0
M  V30 4546 H 464.715 1.61994 -1.02128 0
M  V30 4547 H 463.02 3.91175 0.221242 0
M  V30 4548 H 464.717 4.00687 -0.158361 0
M  V30 4549 H 461.307 3.97946 -1.59176 0
M  V30 4550 H 465.491 4.27077 -2.52821 0
M  V30 4551 H 460.747 4.74059 -3.86106 0
M  V30 4552 H 464.921 5.04535 -4.80018 0
M  V30 4553 H 462.548 5.27724 -5.47185 0
M  V30 4554 N 464.123 0.554532 1.47522 0
M  V30 4555 C 465.369 0.0295227 2.02779 0
M  V30 4556 C 465.702 -1.31582 1.42828 0
M  V30 4557 O 464.977 -1.85561 0.582872 0
M  V30 4558 C 465.26 -0.0664057 3.60039 0
M  V30 4559 C 465.113 1.30585 4.30427 0
M  V30 4560 C 466.432 -0.781162 4.33112 0
M  V30 4561 H 463.551 0.0122027 0.736899 0
M  V30 4562 H 466.193 0.716305 1.7598 0
M  V30 4563 H 464.343 -0.651307 3.83002 0
M  V30 4564 H 466.015 1.93374 4.18813 0
M  V30 4565 H 464.258 1.88125 3.90886 0
M  V30 4566 H 464.929 1.19147 5.38988 0
M  V30 4567 H 467.405 -0.284565 4.15126 0
M  V30 4568 H 466.281 -0.817237 5.42782 0
M  V30 4569 H 466.542 -1.83672 4.0214 0
M  V30 4570 N 465.601 -1.54893 0.290851 0
M  V30 4571 C 467.012 -1.85584 -0.203816 0
M  V30 4572 C 467.363 -1.21285 -1.54222 0
M  V30 4573 O 466.488 -0.506841 -2.10381 0
M  V30 4574 C 467.083 -3.367 -0.376595 0
M  V30 4575 C 465.642 -3.6746 -0.815485 0
M  V30 4576 C 464.789 -2.77178 0.0821087 0
M  V30 4577 H 467.74 -1.50208 0.512175 0
M  V30 4578 H 467.761 -3.60656 -1.21275 0
M  V30 4579 H 467.273 -3.8347 0.59767 0
M  V30 4580 H 465.374 -3.26201 -1.80066 0
M  V30 4581 H 465.487 -4.7478 -0.641905 0
M  V30 4582 H 463.851 -2.50925 -0.436895 0
M  V30 4583 H 464.634 -3.26767 1.05254 0
M  V30 4584 N 467.08 -0.0183926 -1.57589 0
M  V30 4585 C 468.328 0.661253 -1.90976 0
M  V30 4586 C 468.649 1.73281 -0.894353 0
M  V30 4587 O 467.919 1.9579 0.0656788 0
M  V30 4588 H 466.499 0.247233 -0.704901 0
M  V30 4589 H 469.161 -0.0636639 -1.94796 0
M  V30 4590 H 468.257 1.12083 -2.9128 0
M  V30 4591 N 468.558 1.5553 0.254621 0
M  V30 4592 C 469.804 1.77262 0.985193 0
M  V30 4593 C 470.137 0.582286 1.85265 0
M  V30 4594 O 469.412 -0.419666 1.89919 0
M  V30 4595 C 469.695 3.0881 1.85225 0
M  V30 4596 C 469.548 4.38233 1.0135 0
M  V30 4597 C 470.867 3.3653 2.83612 0
M  V30 4598 H 467.986 0.644906 0.356742 0
M  V30 4599 H 470.628 1.88264 0.256236 0
M  V30 4600 H 468.778 2.99562 2.47376 0
M  V30 4601 H 470.45 4.59463 0.411269 0
M  V30 4602 H 468.693 4.32636 0.317574 0
M  V30 4603 H 469.364 5.26644 1.65379 0
M  V30 4604 H 471.84 3.45691 2.31596 0
M  V30 4605 H 470.716 4.29805 3.41407 0
M  V30 4606 H 470.977 2.57064 3.59681 0
M  V30 4607 N 470.036 -0.519951 1.48776 0
M  V30 4608 C 471.284 -1.2727 1.56993 0
M  V30 4609 C 471.605 -1.9339 0.25004 0
M  V30 4610 O 470.875 -1.81822 -0.729216 0
M  V30 4611 H 469.455 -0.472732 0.578389 0
M  V30 4612 H 472.117 -0.604234 1.85297 0
M  V30 4613 H 471.213 -2.04669 2.3562 0
M  V30 4614 N 471.514 -1.37532 -0.769588 0
M  V30 4615 C 472.754 -1.34261 -1.54122 0
M  V30 4616 C 473.118 0.0717222 -1.91866 0
M  V30 4617 O 474.319 0.22918 -2.67821 0
M  V30 4618 C 472.59 -2.2574 -2.77086 0
M  V30 4619 S 474.149 -2.40339 -3.67127 0
M  V30 4620 H 470.967 -0.476595 -0.527615 0
M  V30 4621 H 473.569 -1.73303 -0.90479 0
M  V30 4622 H 472.273 -3.27417 -2.4744 0
M  V30 4623 H 471.804 -1.87789 -3.45686 0
M  V30 4624 H 473.819 -1.61558 -4.69163 0
M  V30 4625 N 472.992 0.995999 -1.22138 0
M  V30 4626 C 474.217 1.77601 -1.0711 0
M  V30 4627 C 474.642 1.84339 0.374264 0
M  V30 4628 O 474 1.29359 1.27028 0
M  V30 4629 C 474.048 3.18897 -1.68336 0
M  V30 4630 O 473.152 4.01663 -0.934928 0
M  V30 4631 H 472.493 0.547011 -0.376397 0
M  V30 4632 H 475.023 1.25137 -1.6187 0
M  V30 4633 H 475.033 3.69539 -1.72931 0
M  V30 4634 H 473.708 3.13308 -2.73516 0
M  V30 4635 H 472.285 3.60204 -0.964751 0
M  V30 4636 N 474.47 1.03057 1.19235 0
M  V30 4637 C 475.403 0.557384 2.21288 0
M  V30 4638 C 476.381 -0.402675 1.57535 0
M  V30 4639 O 477.565 -0.319376 1.85775 0
M  V30 4640 C 474.692 -0.187041 3.38183 0
M  V30 4641 C 473.738 0.72471 4.20298 0
M  V30 4642 S 474.571 2.20187 4.88137 0
M  V30 4643 C 475.727 1.46801 6.08441 0
M  V30 4644 H 475.96 1.42207 2.61083 0
M  V30 4645 H 473.493 0.840651 1.29508 0
M  V30 4646 H 475.451 -0.610405 4.05936 0
M  V30 4647 H 474.112 -1.02748 2.96819 0
M  V30 4648 H 473.305 0.149911 5.03777 0
M  V30 4649 H 472.907 1.08647 3.57871 0
M  V30 4650 H 475.199 0.755522 6.73274 0
M  V30 4651 H 476.142 2.27946 6.70407 0
M  V30 4652 H 476.55 0.964762 5.56195 0
M  V30 4653 N 475.948 -1.35272 0.808662 0
M  V30 4654 C 477.176 -2.02946 0.402537 0
M  V30 4655 C 477.591 -1.60937 -0.987147 0
M  V30 4656 O 476.948 -0.807917 -1.63643 0
M  V30 4657 C 476.999 -3.58317 0.47868 0
M  V30 4658 O 476.72 -3.98799 1.81358 0
M  V30 4659 C 478.221 -4.43251 0.0656281 0
M  V30 4660 H 475.441 -0.650831 0.163279 0
M  V30 4661 H 477.985 -1.72849 1.09286 0
M  V30 4662 H 476.14 -3.87055 -0.163415 0
M  V30 4663 H 476.554 -4.93451 1.77781 0
M  V30 4664 H 478.028 -5.51738 0.170017 0
M  V30 4665 H 478.505 -4.27913 -0.989278 0
M  V30 4666 H 479.111 -4.19813 0.68096 0
M  V30 4667 N 477.426 -0.562348 -1.47226 0
M  V30 4668 C 478.703 0.0256985 -1.95583 0
M  V30 4669 C 479.083 1.48032 -1.50498 0
M  V30 4670 O 478.431 2.15973 -0.746181 0
M  V30 4671 C 478.641 -0.125129 -3.48776 0
M  V30 4672 C 479.989 0.0175728 -4.24596 0
M  V30 4673 O 481.013 -0.0529341 -3.56161 0
M  V30 4674 O 479.872 0.170145 -5.46235 0
M  V30 4675 H 476.966 0.0612565 -0.824728 0
M  V30 4676 H 479.512 -0.629233 -1.57603 0
M  V30 4677 H 478.284 -1.13715 -3.74412 0
M  V30 4678 H 477.907 0.567178 -3.93534 0
M  V30 4679 N 478.904 1.54736 -0.299062 0
M  V30 4680 C 480.153 1.99279 0.311549 0
M  V30 4681 C 480.466 1.19107 1.55154 0
M  V30 4682 O 481.672 1.53908 2.23662 0
M  V30 4683 C 480.128 3.54768 0.605632 0
M  V30 4684 C 479.736 4.43746 -0.615914 0
M  V30 4685 C 481.48 4.07841 1.17754 0
M  V30 4686 C 479.387 5.90663 -0.29509 0
M  V30 4687 H 478.317 0.744359 0.120187 0
M  V30 4688 H 480.968 1.78919 -0.407464 0
M  V30 4689 H 479.35 3.71021 1.38419 0
M  V30 4690 H 480.524 4.39267 -1.39218 0
M  V30 4691 H 478.839 4.01434 -1.10633 0
M  V30 4692 H 481.436 5.15174 1.43179 0
M  V30 4693 H 481.779 3.58324 2.11918 0
M  V30 4694 H 482.312 3.95123 0.460739 0
M  V30 4695 H 479.051 6.44325 -1.20524 0
M  V30 4696 H 478.571 5.98155 0.44394 0
M  V30 4697 H 480.25 6.46916 0.104048 0
M  V30 4698 N 480.382 0.0267497 1.57577 0
M  V30 4699 C 481.622 -0.65659 1.93567 0
M  V30 4700 C 481.986 -1.69429 0.903213 0
M  V30 4701 O 483.187 -2.42994 1.14923 0
M  V30 4702 C 481.458 -1.25912 3.34486 0
M  V30 4703 S 483.017 -1.96386 3.924 0
M  V30 4704 H 479.835 -0.216237 0.67732 0
M  V30 4705 H 482.437 0.0898475 1.95293 0
M  V30 4706 H 481.141 -0.491405 4.07447 0
M  V30 4707 H 480.672 -2.04291 3.36198 0
M  V30 4708 H 482.687 -3.24202 3.75643 0
M  V30 4709 N 481.861 -1.55662 -0.24637 0
M  V30 4710 C 482.808 -1.90361 -1.30504 0
M  V30 4711 C 483.778 -0.757905 -1.47801 0
M  V30 4712 O 484.963 -1.01161 -1.61775 0
M  V30 4713 C 482.103 -2.2042 -2.65535 0
M  V30 4714 C 481.216 -3.47799 -2.56242 0
M  V30 4715 C 480.351 -3.67426 -3.8363 0
M  V30 4716 C 479.39 -4.88403 -3.68956 0
M  V30 4717 N 478.527 -5.04548 -4.88237 0
M  V30 4718 H 483.367 -2.80645 -1.00213 0
M  V30 4719 H 480.904 -1.38924 -0.483577 0
M  V30 4720 H 482.862 -2.35853 -3.44135 0
M  V30 4721 H 481.492 -1.3334 -2.93973 0
M  V30 4722 H 480.544 -3.40694 -1.69208 0
M  V30 4723 H 481.856 -4.36544 -2.4131 0
M  V30 4724 H 481.01 -3.82821 -4.70673 0
M  V30 4725 H 479.749 -2.76914 -4.01459 0
M  V30 4726 H 478.754 -4.72984 -2.80296 0
M  V30 4727 H 479.979 -5.80375 -3.52621 0
M  V30 4728 H 477.925 -4.16974 -5.06427 0
M  V30 4729 H 477.842 -5.87384 -4.75937 0
M  V30 4730 H 479.11 -5.24355 -5.76777 0
M  V30 4731 N 483.339 0.512053 -1.4905 0
M  V30 4732 C 484.564 1.2959 -1.6193 0
M  V30 4733 C 484.989 1.85906 -0.286454 0
M  V30 4734 O 484.347 1.65312 0.744426 0
M  V30 4735 C 484.395 2.40987 -2.68249 0
M  V30 4736 O 483.499 3.44531 -2.26654 0
M  V30 4737 H 482.84 0.383053 -0.542371 0
M  V30 4738 H 485.37 0.614231 -1.95162 0
M  V30 4739 H 485.38 2.86913 -2.90078 0
M  V30 4740 H 484.055 1.99361 -3.65004 0
M  V30 4741 H 482.632 3.046 -2.15112 0
M  V30 4742 N 484.817 1.37938 0.762283 0
M  V30 4743 C 486.094 1.24196 1.51112 0
M  V30 4744 C 486.474 -0.160409 2.1049 0
M  V30 4745 O 485.822 -1.16904 1.96331 0
M  V30 4746 C 486.032 2.34537 2.58445 0
M  V30 4747 C 487.38 2.7254 3.25588 0
M  V30 4748 O 488.404 2.33783 2.68745 0
M  V30 4749 O 487.263 3.39343 4.28379 0
M  V30 4750 H 484.357 0.485175 0.669727 0
M  V30 4751 H 486.903 1.49743 0.798438 0
M  V30 4752 H 485.675 3.28406 2.12756 0
M  V30 4753 H 485.298 2.10505 3.37303 0
M  V30 4754 N 486.295 -0.989507 1.22664 0
M  V30 4755 C 487.243 -2.10148 0.997035 0
M  V30 4756 C 488.237 -1.6929 -0.0609783 0
M  V30 4757 O 489.443 -1.79766 0.0917523 0
M  V30 4758 H 485.818 -0.687256 0.305259 0
M  V30 4759 H 487.789 -2.26685 1.94053 0
M  V30 4760 C 486.538 -3.4257 0.595085 0
M  V30 4761 H 485.861 -3.74453 1.40089 0
M  V30 4762 H 487.301 -4.21344 0.473869 0
M  V30 4763 C 485.76 -3.29638 -0.695725 0
M  V30 4764 O 486.29 -3.61709 -1.74727 0
M  V30 4765 N 484.496 -2.82814 -0.668173 0
M  V30 4766 H 484.043 -2.56914 0.18787 0
M  V30 4767 H 484.001 -2.74544 -1.5321 0
M  V30 4768 N 487.773 -1.03688 -1.18687 0
M  V30 4769 C 489.184 -0.766488 -1.70241 0
M  V30 4770 C 489.535 0.713052 -1.82784 0
M  V30 4771 O 488.66 1.55529 -1.50465 0
M  V30 4772 C 489.255 -1.38475 -3.09209 0
M  V30 4773 C 487.814 -1.16276 -3.5799 0
M  V30 4774 C 486.961 -1.4778 -2.34641 0
M  V30 4775 H 489.912 -1.20378 -1.03415 0
M  V30 4776 H 489.933 -0.785939 -3.72295 0
M  V30 4777 H 489.445 -2.46157 -3.00048 0
M  V30 4778 H 487.546 -0.104508 -3.72453 0
M  V30 4779 H 487.659 -1.8571 -4.41643 0
M  V30 4780 H 486.023 -0.897366 -2.38368 0
M  V30 4781 H 486.806 -2.56562 -2.28102 0
M  V30 4782 N 489.251 1.34841 -0.815825 0
M  V30 4783 C 490.491 2.00321 -0.406297 0
M  V30 4784 C 490.855 1.63293 1.00992 0
M  V30 4785 O 492.056 2.21563 1.52195 0
M  V30 4786 C 490.327 3.52421 -0.594469 0
M  V30 4787 S 491.886 4.37926 -0.276735 0
M  V30 4788 H 488.704 0.694155 -0.153848 0
M  V30 4789 H 491.306 1.64263 -1.06009 0
M  V30 4790 H 490.01 3.76858 -1.625 0
M  V30 4791 H 489.541 3.9333 0.0743157 0
M  V30 4792 H 491.556 4.87743 0.912215 0
M  V30 4793 N 490.729 0.570148 1.46925 0
M  V30 4794 C 491.679 -0.190921 2.27199 0
M  V30 4795 C 492.663 -0.873457 1.35128 0
M  V30 4796 O 493.855 -0.769627 1.59392 0
M  V30 4797 C 490.984 -1.21204 3.21192 0
M  V30 4798 C 490.07 -0.532261 4.20747 0
M  V30 4799 N 490.461 0.405038 5.04176 0
M  V30 4800 C 488.759 -0.784582 4.39045 0
M  V30 4801 C 489.46 0.801149 5.76157 0
M  V30 4802 N 488.436 0.153082 5.43384 0
M  V30 4803 H 492.238 0.529535 2.8909 0
M  V30 4804 H 489.752 0.391019 1.57622 0
M  V30 4805 H 491.749 -1.77135 3.77398 0
M  V30 4806 H 490.409 -1.93345 2.6086 0
M  V30 4807 H 491.42 0.779903 5.11994 0
M  V30 4808 H 488.097 -1.49352 3.89872 0
M  V30 4809 H 489.487 1.57208 6.5325 0
M  V30 4810 N 492.207 -1.54576 0.307264 0
M  V30 4811 C 493.623 -1.59534 -0.0459251 0
M  V30 4812 C 493.823 -1.32414 -1.51884 0
M  V30 4813 O 492.879 -1.1006 -2.27251 0
M  V30 4814 C 494.192 -2.98566 0.357649 0
M  V30 4815 C 495.74 -3.11491 0.306937 0
M  V30 4816 C 496.215 -4.52842 0.685427 0
M  V30 4817 N 497.706 -4.58782 0.638203 0
M  V30 4818 C 498.441 -5.66238 0.903458 0
M  V30 4819 N 497.937 -6.81703 1.23501 0
M  V30 4820 N 499.73 -5.55937 0.830102 0
M  V30 4821 H 491.881 -1.70464 1.26712 0
M  V30 4822 H 494.144 -0.79647 0.514139 0
M  V30 4823 H 493.85 -3.23356 1.38325 0
M  V30 4824 H 493.724 -3.76117 -0.285565 0
M  V30 4825 H 496.111 -2.86446 -0.709424 0
M  V30 4826 H 496.192 -2.36081 0.984861 0
M  V30 4827 H 495.836 -4.78618 1.69963 0
M  V30 4828 H 495.766 -5.26598 -0.0146346 0
M  V30 4829 H 498.257 -3.75849 0.393138 0
M  V30 4830 H 498.57 -7.59582 1.42322 0
M  V30 4831 H 496.915 -6.8324 1.27311 0
M  V30 4832 H 500.106 -4.64608 0.570693 0
M  V30 4833 H 500.279 -6.39597 1.04019 0
M  V30 4834 N 493.685 -0.035106 -1.57561 0
M  V30 4835 C 494.633 0.962707 -2.11742 0
M  V30 4836 C 495.627 1.33296 -1.0454 0
M  V30 4837 O 496.833 1.31449 -1.22968 0
M  V30 4838 H 493.208 0.32826 -0.676572 0
M  V30 4839 H 495.179 0.48048 -2.94506 0
M  V30 4840 C 493.928 2.23388 -2.66445 0
M  V30 4841 H 493.251 1.95774 -3.48587 0
M  V30 4842 H 494.691 2.91402 -3.07995 0
M  V30 4843 C 493.15 2.96769 -1.59467 0
M  V30 4844 O 493.68 3.89105 -0.998 0
M  V30 4845 N 491.886 2.59212 -1.31369 0
M  V30 4846 H 491.433 1.84202 -1.80076 0
M  V30 4847 H 491.391 3.08618 -0.600173 0
M  V30 4848 N 495.163 1.55791 0.238111 0
M  V30 4849 C 496.126 1.90239 1.27835 0
M  V30 4850 C 497.126 0.779552 1.4064 0
M  V30 4851 O 498.316 1.04747 1.3919 0
M  V30 4852 C 495.448 2.13859 2.65475 0
M  V30 4853 H 496.641 2.83262 0.985034 0
M  V30 4854 H 494.194 1.48818 0.477799 0
M  V30 4855 H 494.929 1.23334 2.99932 0
M  V30 4856 H 494.714 2.95643 2.57561 0
M  V30 4857 H 496.204 2.41664 3.40571 0
M  V30 4858 N 496.642 -0.504142 1.49319 0
M  V30 4859 C 497.59 -1.62689 1.66238 0
M  V30 4860 C 498.584 -1.6095 0.528349 0
M  V30 4861 O 499.79 -1.65496 0.707887 0
M  V30 4862 H 496.165 -0.539247 0.524134 0
M  V30 4863 H 498.136 -1.45571 2.60484 0
M  V30 4864 C 496.885 -3.00841 1.74328 0
M  V30 4865 H 496.208 -3.02884 2.60963 0
M  V30 4866 H 497.648 -3.78945 1.90202 0
M  V30 4867 C 496.107 -3.33355 0.487416 0
M  V30 4868 O 496.637 -3.99819 -0.388294 0
M  V30 4869 N 494.843 -2.88469 0.351306 0
M  V30 4870 H 494.39 -2.34557 1.06492 0
M  V30 4871 H 494.348 -3.10591 -0.487899 0
M  V30 4872 N 498.12 -1.38341 -0.754957 0
M  V30 4873 C 499.36 -1.35888 -1.52689 0
M  V30 4874 C 499.724 0.0513682 -1.91931 0
M  V30 4875 O 500.925 0.200761 -2.68049 0
M  V30 4876 C 499.196 -2.28666 -2.74676 0
M  V30 4877 S 500.755 -2.4422 -3.64558 0
M  V30 4878 H 497.573 -0.482165 -0.522531 0
M  V30 4879 H 500.175 -1.74253 -0.886358 0
M  V30 4880 H 498.879 -3.30023 -2.43953 0
M  V30 4881 H 498.41 -1.91445 -3.43675 0
M  V30 4882 H 500.425 -1.66525 -4.67423 0
M  V30 4883 N 499.598 0.982988 -1.23187 0
M  V30 4884 C 500.826 1.75921 -1.08901 0
M  V30 4885 C 501.241 1.85341 0.359719 0
M  V30 4886 O 500.598 1.33072 1.24892 0
M  V30 4887 C 500.649 3.18742 -1.70545 0
M  V30 4888 O 500.37 3.09814 -3.09753 0
M  V30 4889 C 501.871 4.1277 -1.61667 0
M  V30 4890 H 499.091 0.552166 -0.381252 0
M  V30 4891 H 501.635 1.23516 -1.62985 0
M  V30 4892 H 499.79 3.68182 -1.20501 0
M  V30 4893 H 500.204 3.99703 -3.39614 0
M  V30 4894 H 501.678 5.10697 -2.09506 0
M  V30 4895 H 502.155 4.3542 -0.575009 0
M  V30 4896 H 502.761 3.69232 -2.11064 0
M  V30 4897 N 501.076 1.04316 1.18135 0
M  V30 4898 C 502.304 0.768117 1.92113 0
M  V30 4899 C 502.719 -0.675057 1.76319 0
M  V30 4900 O 502.076 -1.46038 1.09449 0
M  V30 4901 C 502.127 1.12808 3.43448 0
M  V30 4902 O 501.848 2.5146 3.58747 0
M  V30 4903 C 503.349 0.8779 4.3452 0
M  V30 4904 H 500.569 0.279937 0.609817 0
M  V30 4905 H 503.113 1.39149 1.49859 0
M  V30 4906 H 501.268 0.549623 3.83481 0
M  V30 4907 H 501.682 2.65313 4.52448 0
M  V30 4908 H 503.156 1.17959 5.39249 0
M  V30 4909 H 503.633 -0.187239 4.38801 0
M  V30 4910 H 504.239 1.43977 4.00188 0
M  V30 4911 N 502.554 -1.34406 0.822964 0
M  V30 4912 C 503.8 -1.98578 0.411666 0
M  V30 4913 C 504.133 -1.65093 -1.02264 0
M  V30 4914 O 503.408 -0.92258 -1.71227 0
M  V30 4915 C 503.691 -3.54823 0.614235 0
M  V30 4916 C 503.544 -3.9805 2.09466 0
M  V30 4917 C 504.863 -4.40071 0.050221 0
M  V30 4918 H 501.982 -0.721355 0.151047 0
M  V30 4919 H 504.624 -1.59301 1.03554 0
M  V30 4920 H 502.774 -3.88411 0.0831774 0
M  V30 4921 H 504.446 -3.74795 2.68936 0
M  V30 4922 H 502.689 -3.4836 2.5851 0
M  V30 4923 H 503.36 -5.06819 2.18721 0
M  V30 4924 H 505.836 -4.13037 0.503953 0
M  V30 4925 H 504.712 -5.48452 0.221759 0
M  V30 4926 H 504.973 -4.29576 -1.04482 0
M  V30 4927 N 504.032 -0.577932 -1.46621 0
M  V30 4928 C 504.995 0.147805 -2.28723 0
M  V30 4929 C 505.995 0.823325 -1.38123 0
M  V30 4930 O 507.185 0.676011 -1.60548 0
M  V30 4931 C 504.317 1.21853 -3.18378 0
M  V30 4932 H 505.51 -0.573654 -2.94362 0
M  V30 4933 H 503.063 -0.335703 -1.52652 0
M  V30 4934 H 503.798 1.97173 -2.57475 0
M  V30 4935 H 503.583 0.738714 -3.85078 0
M  V30 4936 H 505.073 1.72768 -3.80186 0
M  V30 4937 N 505.51 1.54411 -0.315457 0
M  V30 4938 C 506.921 1.85885 0.174265 0
M  V30 4939 C 507.272 1.23723 1.52273 0
M  V30 4940 O 506.397 0.540246 2.09548 0
M  V30 4941 C 506.992 3.37257 0.322981 0
M  V30 4942 C 505.551 3.68711 0.756922 0
M  V30 4943 C 504.698 2.77013 -0.126195 0
M  V30 4944 H 507.649 1.49374 -0.536007 0
M  V30 4945 H 507.67 3.62539 1.15522 0
M  V30 4946 H 507.182 3.82471 -0.658602 0
M  V30 4947 H 505.283 3.29024 1.74854 0
M  V30 4948 H 505.396 4.75741 0.566291 0
M  V30 4949 H 503.76 2.51588 0.39692 0
M  V30 4950 H 504.543 3.25051 -1.1044 0
M  V30 4951 N 506.988 0.0434614 1.5754 0
M  V30 4952 C 508.236 -0.630786 1.92004 0
M  V30 4953 C 508.557 -1.71836 0.921807 0
M  V30 4954 O 507.827 -1.9587 -0.034522 0
M  V30 4955 H 506.407 -0.235988 0.708745 0
M  V30 4956 H 509.069 0.0946462 1.9467 0
M  V30 4957 H 508.165 -1.07434 2.93026 0
M  V30 4958 N 508.466 -1.55915 -0.229846 0
M  V30 4959 C 509.882 -1.48721 -0.579166 0
M  V30 4960 C 510.082 -0.736976 -1.87539 0
M  V30 4961 O 509.138 -0.273258 -2.51017 0
M  V30 4962 C 510.451 -2.9323 -0.666082 0
M  V30 4963 C 511.999 -3.03701 -0.757267 0
M  V30 4964 C 512.474 -4.49552 -0.8756 0
M  V30 4965 N 513.965 -4.53561 -0.940035 0
M  V30 4966 C 514.7 -5.63683 -1.05116 0
M  V30 4967 N 514.196 -6.83576 -1.12675 0
M  V30 4968 N 515.989 -5.51516 -1.08565 0
M  V30 4969 H 508.14 -2.03123 0.620857 0
M  V30 4970 H 510.403 -0.922898 0.21671 0
M  V30 4971 H 510.109 -3.51032 0.21664 0
M  V30 4972 H 509.983 -3.44668 -1.53243 0
M  V30 4973 H 512.37 -2.45969 -1.63043 0
M  V30 4974 H 512.451 -2.55446 0.134583 0
M  V30 4975 H 512.095 -5.079 -0.00692351 0
M  V30 4976 H 512.025 -4.95506 -1.78274 0
M  V30 4977 H 514.516 -3.67215 -0.892269 0
M  V30 4978 H 514.829 -7.63251 -1.21109 0
M  V30 4979 H 513.174 -6.86303 -1.09603 0
M  V30 4980 H 516.365 -4.5678 -1.02319 0
M  V30 4981 H 516.538 -6.37372 -1.1688 0
M  V30 4982 N 509.944 0.496216 -1.49584 0
M  V30 4983 C 511.172 1.27394 -1.63029 0
M  V30 4984 C 511.587 1.86344 -0.303569 0
M  V30 4985 O 510.944 1.68057 0.711547 0
M  V30 4986 C 510.995 2.40077 -2.70269 0
M  V30 4987 O 510.716 1.83549 -3.97796 0
M  V30 4988 C 512.217 3.31372 -2.94462 0
M  V30 4989 H 509.437 0.386211 -0.54871 0
M  V30 4990 H 511.981 0.595163 -1.95648 0
M  V30 4991 H 510.136 3.03775 -2.40415 0
M  V30 4992 H 510.55 2.57561 -4.56905 0
M  V30 4993 H 512.024 4.06707 -3.73221 0
M  V30 4994 H 512.501 3.88654 -2.0456 0
M  V30 4995 H 513.107 2.73435 -3.25751 0
M  V30 4996 N 511.423 1.38739 0.74761 0
M  V30 4997 C 512.333 1.38696 1.89211 0
M  V30 4998 C 513.349 0.283303 1.71678 0
M  V30 4999 O 514.525 0.522713 1.94498 0
M  V30 5000 C 511.59 1.21662 3.24653 0
M  V30 5001 C 510.651 2.41886 3.54669 0
M  V30 5002 C 509.884 2.25655 4.83648 0
M  V30 5003 O 510.107 1.25339 5.56459 0
M  V30 5004 O 509.041 3.14372 5.13277 0
M  V30 5005 H 512.867 2.35143 1.92202 0
M  V30 5006 H 510.452 1.19721 0.893708 0
M  V30 5007 H 512.334 1.14246 4.05618 0
M  V30 5008 H 511.009 0.283024 3.2246 0
M  V30 5009 H 509.916 2.54877 2.73841 0
M  V30 5010 H 511.249 3.33895 3.61628 0
M  V30 5011 N 512.901 -0.976442 1.23707 0
M  V30 5012 C 514.141 -1.73331 1.08332 0
M  V30 5013 C 514.505 -1.88346 -0.372781 0
M  V30 5014 O 515.706 -2.60877 -0.647813 0
M  V30 5015 C 513.977 -3.09159 1.7932 0
M  V30 5016 S 515.536 -4.00376 1.79567 0
M  V30 5017 H 512.354 -0.596045 0.387622 0
M  V30 5018 H 514.956 -1.16625 1.56904 0
M  V30 5019 H 513.66 -2.95884 2.84395 0
M  V30 5020 H 513.191 -3.70932 1.31046 0
M  V30 5021 H 515.206 -4.88742 0.857094 0
M  V30 5022 N 514.379 -1.04941 -1.1758 0
M  V30 5023 C 515.628 -0.753124 -1.87112 0
M  V30 5024 C 515.941 0.722507 -1.81767 0
M  V30 5025 O 517.147 1.13265 -2.46746 0
M  V30 5026 C 515.603 -1.29695 -3.35719 0
M  V30 5027 C 515.211 -2.80184 -3.49572 0
M  V30 5028 C 516.955 -1.07759 -4.10595 0
M  V30 5029 C 514.862 -3.2788 -4.92187 0
M  V30 5030 H 513.792 -0.278034 -0.700866 0
M  V30 5031 H 516.443 -1.26637 -1.32798 0
M  V30 5032 H 514.825 -0.711522 -3.89555 0
M  V30 5033 H 515.999 -3.44561 -3.05965 0
M  V30 5034 H 514.314 -3.00632 -2.88113 0
M  V30 5035 H 516.911 -1.40899 -5.15802 0
M  V30 5036 H 517.254 -0.0152302 -4.16297 0
M  V30 5037 H 517.787 -1.62809 -3.62957 0
M  V30 5038 H 514.526 -4.33535 -4.91658 0
M  V30 5039 H 514.046 -2.68245 -5.36475 0
M  V30 5040 H 515.725 -3.22412 -5.60945 0
M  V30 5041 N 515.857 1.33968 -0.830081 0
M  V30 5042 C 517.097 1.99879 -0.427521 0
M  V30 5043 C 517.461 1.64355 0.992546 0
M  V30 5044 O 518.662 2.23164 1.49837 0
M  V30 5045 C 516.933 3.51771 -0.631815 0
M  V30 5046 S 518.492 4.37608 -0.323168 0
M  V30 5047 H 515.31 0.692485 -0.161202 0
M  V30 5048 H 517.912 1.63129 -1.07745 0
M  V30 5049 H 516.616 3.75113 -1.66488 0
M  V30 5050 H 516.147 3.93386 0.0325936 0
M  V30 5051 H 518.162 4.88683 0.860432 0
M  V30 5052 N 517.335 0.585699 1.46312 0
M  V30 5053 C 518.267 -0.183687 2.28463 0
M  V30 5054 C 519.28 -0.85264 1.38686 0
M  V30 5055 O 520.469 -0.721701 1.6326 0
M  V30 5056 C 517.569 -1.27977 3.13808 0
M  V30 5057 C 516.742 -0.702164 4.31727 0
M  V30 5058 C 515.801 -1.68633 4.98447 0
M  V30 5059 O 514.827 -1.22121 5.55945 0
M  V30 5060 N 516.029 -3.02047 4.95729 0
M  V30 5061 H 518.794 0.521127 2.95134 0
M  V30 5062 H 516.355 0.423673 1.56258 0
M  V30 5063 H 518.347 -1.9375 3.55307 0
M  V30 5064 H 516.917 -1.8874 2.4919 0
M  V30 5065 H 516.137 0.1331 3.93975 0
M  V30 5066 H 517.425 -0.296101 5.07938 0
M  V30 5067 H 516.823 -3.42457 4.50266 0
M  V30 5068 H 515.38 -3.63301 5.41161 0
M  V30 5069 N 518.813 -1.54241 0.323641 0
M  V30 5070 C 519.76 -2.24339 -0.542277 0
M  V30 5071 C 520.73 -1.23421 -1.11159 0
M  V30 5072 O 521.915 -1.52104 -1.15192 0
M  V30 5073 C 519.055 -3.00479 -1.69725 0
M  V30 5074 C 518.168 -4.16214 -1.15716 0
M  V30 5075 C 517.303 -4.79884 -2.27783 0
M  V30 5076 C 516.342 -5.87722 -1.71023 0
M  V30 5077 N 515.479 -6.45254 -2.76752 0
M  V30 5078 H 520.319 -2.97935 0.0620613 0
M  V30 5079 H 517.856 -1.47039 0.0423993 0
M  V30 5080 H 519.814 -3.42869 -2.3769 0
M  V30 5081 H 518.444 -2.29217 -2.27288 0
M  V30 5082 H 517.496 -3.78605 -0.369063 0
M  V30 5083 H 518.808 -4.93838 -0.701832 0
M  V30 5084 H 517.962 -5.25243 -3.03651 0
M  V30 5085 H 516.701 -4.01641 -2.76652 0
M  V30 5086 H 515.706 -5.41765 -0.936518 0
M  V30 5087 H 516.931 -6.67863 -1.2303 0
M  V30 5088 H 514.877 -5.69884 -3.24912 0
M  V30 5089 H 514.794 -7.18292 -2.35782 0
M  V30 5090 H 516.062 -6.95269 -3.5245 0
M  V30 5091 N 520.291 -0.0518155 -1.57515 0
M  V30 5092 C 521.539 0.620595 -1.92336 0
M  V30 5093 C 521.86 1.71345 -0.930907 0
M  V30 5094 O 521.13 1.95885 0.0241341 0
M  V30 5095 H 519.71 0.232226 -0.709986 0
M  V30 5096 H 522.372 -0.104969 -1.94617 0
M  V30 5097 H 521.468 1.05879 -2.93592 0
M  V30 5098 N 521.769 1.56035 0.221574 0
M  V30 5099 C 522.999 1.82864 0.961468 0
M  V30 5100 C 523.407 0.628703 1.78449 0
M  V30 5101 O 522.75 -0.412109 1.79018 0
M  V30 5102 C 522.812 3.03425 1.92804 0
M  V30 5103 C 522.476 4.38429 1.28954 0
M  V30 5104 C 523.473 5.15441 0.679431 0
M  V30 5105 C 521.158 4.85151 1.30131 0
M  V30 5106 C 523.152 6.37337 0.0896148 0
M  V30 5107 C 520.839 6.06989 0.707651 0
M  V30 5108 C 521.837 6.82923 0.102855 0
M  V30 5109 O 521.525 8.02456 -0.48157 0
M  V30 5110 H 521.257 0.611883 0.28736 0
M  V30 5111 H 523.811 2.0397 0.241932 0
M  V30 5112 H 522.041 2.78138 2.68656 0
M  V30 5113 H 523.73 3.17127 2.53348 0
M  V30 5114 H 524.496 4.80452 0.662661 0
M  V30 5115 H 520.375 4.26021 1.76145 0
M  V30 5116 H 523.919 6.96547 -0.383069 0
M  V30 5117 H 519.816 6.41451 0.721834 0
M  V30 5118 H 520.584 8.17636 -0.375887 0
M  V30 5119 N 523.247 -0.488276 1.49845 0
M  V30 5120 C 524.493 -1.24341 1.6021 0
M  V30 5121 C 524.826 -1.91967 0.293651 0
M  V30 5122 O 524.101 -1.81323 -0.703718 0
M  V30 5123 C 524.384 -2.3005 2.77036 0
M  V30 5124 C 524.237 -1.66842 4.17713 0
M  V30 5125 C 525.556 -3.31509 2.89464 0
M  V30 5126 H 522.675 -0.450704 0.583125 0
M  V30 5127 H 525.317 -0.539673 1.82174 0
M  V30 5128 H 523.467 -2.90071 2.58439 0
M  V30 5129 H 525.139 -1.1055 4.47858 0
M  V30 5130 H 523.382 -0.972079 4.22768 0
M  V30 5131 H 524.053 -2.43576 4.95353 0
M  V30 5132 H 526.529 -2.81493 3.06433 0
M  V30 5133 H 525.405 -4.02822 3.72861 0
M  V30 5134 H 525.666 -3.94603 1.99351 0
M  V30 5135 N 524.725 -1.39134 -0.740242 0
M  V30 5136 C 525.973 -1.35803 -1.49673 0
M  V30 5137 C 526.294 0.0470897 -1.94943 0
M  V30 5138 O 525.564 0.997347 -1.68611 0
M  V30 5139 H 524.144 -0.499736 -0.555224 0
M  V30 5140 H 526.806 -1.73947 -0.879107 0
M  V30 5141 H 525.902 -2.0174 -2.38133 0
M  V30 5142 N 526.204 0.969867 -1.24223 0
M  V30 5143 C 527.481 1.68774 -0.988664 0
M  V30 5144 C 527.861 2.05342 0.489673 0
M  V30 5145 O 527.209 1.75486 1.46345 0
M  V30 5146 C 527.419 2.92135 -1.90941 0
M  V30 5147 C 528.767 3.64422 -2.17903 0
M  V30 5148 O 529.791 3.02188 -1.88576 0
M  V30 5149 O 528.65 4.76446 -2.67697 0
M  V30 5150 H 525.744 0.737736 -0.37373 0
M  V30 5151 H 528.29 1.02415 -1.35312 0
M  V30 5152 H 527.062 2.61788 -2.90831 0
M  V30 5153 H 526.685 3.66228 -1.54798 0
M  V30 5154 N 527.682 1.05563 1.17022 0
M  V30 5155 C 528.93 0.76642 1.87004 0
M  V30 5156 C 529.251 -0.708854 1.8166 0
M  V30 5157 O 528.521 -1.51242 1.2451 0
M  V30 5158 H 527.101 0.280516 0.692329 0
M  V30 5159 H 529.763 1.33557 1.41945 0
M  V30 5160 H 528.859 1.08472 2.92644 0
M  V30 5161 N 529.16 -1.33526 0.837174 0
M  V30 5162 C 530.09 -2.31764 0.284206 0
M  V30 5163 C 531.071 -1.58896 -0.607142 0
M  V30 5164 O 532.256 -1.86798 -0.531047 0
M  V30 5165 C 529.386 -3.43029 -0.542962 0
M  V30 5166 C 528.34 -4.27255 0.252451 0
M  V30 5167 C 527.666 -5.3012 -0.69836 0
M  V30 5168 C 528.966 -5.01229 1.46858 0
M  V30 5169 H 530.66 -2.78262 1.10502 0
M  V30 5170 H 528.206 -1.3378 0.532812 0
M  V30 5171 H 530.159 -4.1078 -0.940096 0
M  V30 5172 H 528.883 -2.95216 -1.39697 0
M  V30 5173 H 527.542 -3.61127 0.631124 0
M  V30 5174 H 527.19 -4.78564 -1.54872 0
M  V30 5175 H 526.89 -5.87353 -0.170274 0
M  V30 5176 H 528.414 -6.00737 -1.09305 0
M  V30 5177 H 529.828 -5.61756 1.14469 0
M  V30 5178 H 528.225 -5.68104 1.93333 0
M  V30 5179 H 529.295 -4.301 2.23924 0
M  V30 5180 N 530.638 -0.59345 -1.46 0
M  V30 5181 C 531.866 -0.0890934 -2.06708 0
M  V30 5182 C 532.281 1.2205 -1.44046 0
M  V30 5183 O 531.638 1.74029 -0.549551 0
M  V30 5184 C 531.689 0.0720263 -3.61428 0
M  V30 5185 O 531.41 -1.18574 -4.21748 0
M  V30 5186 C 532.911 0.609487 -4.3909 0
M  V30 5187 H 530.131 -0.0623628 -0.668096 0
M  V30 5188 H 532.675 -0.817171 -1.87464 0
M  V30 5189 H 530.83 0.750369 -3.80063 0
M  V30 5190 H 531.244 -1.0064 -5.14754 0
M  V30 5191 H 532.718 0.671363 -5.47902 0
M  V30 5192 H 533.195 1.62878 -4.07882 0
M  V30 5193 H 533.801 -0.03434 -4.25286 0
M  V30 5194 N 532.116 1.54067 -0.331816 0
M  V30 5195 C 533.356 2.02625 0.26876 0
M  V30 5196 C 533.72 1.21462 1.48697 0
M  V30 5197 O 534.921 1.59863 2.16096 0
M  V30 5198 C 533.192 3.52554 0.586577 0
M  V30 5199 S 534.751 4.23035 1.16563 0
M  V30 5200 H 531.569 0.706395 0.0807862 0
M  V30 5201 H 534.171 1.89844 -0.466856 0
M  V30 5202 H 532.875 4.09242 -0.308046 0
M  V30 5203 H 532.406 3.69432 1.35217 0
M  V30 5204 H 534.421 4.31382 2.45203 0
M  V30 5205 N 533.594 0.0601682 1.57485 0
M  V30 5206 C 534.824 -0.620037 1.97076 0
M  V30 5207 C 535.232 -1.64381 0.936784 0
M  V30 5208 O 534.575 -1.83497 -0.0863377 0
M  V30 5209 C 534.637 -1.35617 3.32939 0
M  V30 5210 C 534.301 -0.487208 4.54396 0
M  V30 5211 C 535.298 0.250428 5.19297 0
M  V30 5212 C 532.983 -0.415494 5.00579 0
M  V30 5213 C 534.977 1.04812 6.28723 0
M  V30 5214 C 532.664 0.385879 6.0988 0
M  V30 5215 C 533.662 1.11637 6.73815 0
M  V30 5216 O 533.35 1.90454 7.81014 0
M  V30 5217 H 533.082 -0.173664 0.653312 0
M  V30 5218 H 535.636 0.1256 2.05016 0
M  V30 5219 H 533.866 -2.14763 3.2158 0
M  V30 5220 H 535.555 -1.92749 3.57215 0
M  V30 5221 H 536.321 0.204546 4.84568 0
M  V30 5222 H 532.2 -0.973679 4.506 0
M  V30 5223 H 535.744 1.6188 6.78558 0
M  V30 5224 H 531.641 0.433366 6.44044 0
M  V30 5225 H 532.409 1.82762 7.97835 0
M  V30 5226 N 535.072 -1.5615 -0.213296 0
M  V30 5227 C 536.32 -1.79191 -0.934612 0
M  V30 5228 C 536.641 -0.630112 -1.84539 0
M  V30 5229 O 535.911 0.35257 -1.92701 0
M  V30 5230 H 534.491 -0.660937 -0.348097 0
M  V30 5231 H 537.153 -1.93618 -0.22317 0
M  V30 5232 H 536.249 -2.71656 -1.53654 0
M  V30 5233 N 536.55 0.480323 -1.50102 0
M  V30 5234 C 537.498 1.60024 -1.68805 0
M  V30 5235 C 538.492 1.60089 -0.553888 0
M  V30 5236 O 539.698 1.64349 -0.734127 0
M  V30 5237 H 536.073 0.530841 -0.532646 0
M  V30 5238 H 538.044 1.41408 -2.62767 0
M  V30 5239 C 536.793 2.98029 -1.79092 0
M  V30 5240 H 536.116 2.98694 -2.65748 0
M  V30 5241 H 537.556 3.75871 -1.96206 0
M  V30 5242 C 536.015 3.32538 -0.540388 0
M  V30 5243 O 536.545 4.00386 0.324637 0
M  V30 5244 N 534.751 2.87873 -0.397154 0
M  V30 5245 H 534.298 2.32834 -1.1021 0
M  V30 5246 H 534.256 3.11328 0.438425 0
M  V30 5247 N 538.028 1.39524 0.732853 0
M  V30 5248 C 539.277 1.36175 1.48792 0
M  V30 5249 C 539.59 -0.0388195 1.95561 0
M  V30 5250 O 540.796 -0.194899 2.708 0
M  V30 5251 C 539.252 2.39242 2.68871 0
M  V30 5252 C 538.86 3.85024 2.29042 0
M  V30 5253 C 540.604 2.44972 3.46683 0
M  V30 5254 C 538.511 4.79727 3.45856 0
M  V30 5255 H 537.441 0.506267 0.558757 0
M  V30 5256 H 540.092 1.65181 0.799226 0
M  V30 5257 H 538.474 2.0331 3.39825 0
M  V30 5258 H 539.648 4.30008 1.6562 0
M  V30 5259 H 537.963 3.82609 1.64316 0
M  V30 5260 H 540.56 3.12918 4.33574 0
M  V30 5261 H 540.903 1.4749 3.89297 0
M  V30 5262 H 541.436 2.79808 2.82759 0
M  V30 5263 H 538.175 5.78479 3.08289 0
M  V30 5264 H 537.695 4.39421 4.08251 0
M  V30 5265 H 539.374 4.98731 4.12161 0
M  V30 5266 N 539.506 -0.963266 1.24736 0
M  V30 5267 C 540.439 -2.05758 0.986852 0
M  V30 5268 C 541.417 -1.62398 -0.0809272 0
M  V30 5269 O 542.601 -1.88414 0.0569347 0
M  V30 5270 C 539.728 -3.35135 0.490095 0
M  V30 5271 C 538.774 -3.97451 1.54709 0
M  V30 5272 S 539.607 -4.34519 3.12976 0
M  V30 5273 C 540.763 -5.67026 2.65014 0
M  V30 5274 H 540.996 -2.27539 1.91346 0
M  V30 5275 H 538.529 -1.10176 1.08169 0
M  V30 5276 H 540.487 -4.09962 0.21012 0
M  V30 5277 H 539.148 -3.11335 -0.415873 0
M  V30 5278 H 538.341 -4.90704 1.15003 0
M  V30 5279 H 537.943 -3.29071 1.77731 0
M  V30 5280 H 540.235 -6.44748 2.08102 0
M  V30 5281 H 541.178 -6.11594 3.56873 0
M  V30 5282 H 541.586 -5.25847 2.05294 0
M  V30 5283 N 540.985 -1.06182 -1.16461 0
M  V30 5284 C 541.895 -0.682671 -2.24448 0
M  V30 5285 C 542.911 0.30078 -1.71381 0
M  V30 5286 O 544.087 0.150376 -2.00838 0
M  V30 5287 C 541.152 -0.0737202 -3.46622 0
M  V30 5288 C 540.213 -1.10889 -4.14731 0
M  V30 5289 C 539.446 -0.528908 -5.31073 0
M  V30 5290 O 539.669 0.65868 -5.66584 0
M  V30 5291 O 538.603 -1.26805 -5.88391 0
M  V30 5292 H 542.429 -1.58291 -2.59187 0
M  V30 5293 H 540.014 -0.834013 -1.23954 0
M  V30 5294 H 541.896 0.264192 -4.20571 0
M  V30 5295 H 540.571 0.800015 -3.13658 0
M  V30 5296 H 539.478 -1.49896 -3.42756 0
M  V30 5297 H 540.811 -1.95412 -4.51747 0
M  V30 5298 N 542.463 1.3308 -0.844243 0
M  V30 5299 C 543.879 1.50447 -0.532729 0
M  V30 5300 C 544.079 1.78292 0.938837 0
M  V30 5301 O 543.135 1.84635 1.72239 0
M  V30 5302 C 544.448 2.65555 -1.41072 0
M  V30 5303 C 545.996 2.7944 -1.41005 0
M  V30 5304 C 546.471 3.97616 -2.27301 0
M  V30 5305 N 547.962 4.0486 -2.2504 0
M  V30 5306 C 548.697 4.95508 -2.88547 0
M  V30 5307 N 548.193 5.91236 -3.61126 0
M  V30 5308 N 549.986 4.88548 -2.77989 0
M  V30 5309 H 542.137 1.13269 -1.79677 0
M  V30 5310 H 544.4 0.55734 -0.766861 0
M  V30 5311 H 544.106 2.51675 -2.45668 0
M  V30 5312 H 543.98 3.61089 -1.09061 0
M  V30 5313 H 546.367 2.92749 -0.371784 0
M  V30 5314 H 546.448 1.8465 -1.77026 0
M  V30 5315 H 546.092 3.85066 -3.3119 0
M  V30 5316 H 546.022 4.91661 -1.88619 0
M  V30 5317 H 548.513 3.36353 -1.72264 0
M  V30 5318 H 548.826 6.57079 -4.06776 0
M  V30 5319 H 547.171 5.91295 -3.65234 0
M  V30 5320 H 550.362 4.12729 -2.20846 0
M  V30 5321 H 550.535 5.58994 -3.27765 0
M  V30 5322 N 543.941 0.601185 1.45683 0
M  V30 5323 C 544.871 -0.108824 2.33246 0
M  V30 5324 C 545.852 -0.865223 1.46451 0
M  V30 5325 O 547.037 -0.83704 1.75235 0
M  V30 5326 C 544.167 -1.11101 3.2905 0
M  V30 5327 C 543.121 -0.468244 4.25431 0
M  V30 5328 C 542.447 -1.57822 5.10878 0
M  V30 5329 C 543.747 0.606469 5.18767 0
M  V30 5330 H 545.441 0.622306 2.92861 0
M  V30 5331 H 542.987 0.300714 1.40825 0
M  V30 5332 H 544.94 -1.61622 3.89174 0
M  V30 5333 H 543.664 -1.87265 2.67581 0
M  V30 5334 H 542.323 0.0160484 3.66596 0
M  V30 5335 H 541.971 -2.32998 4.45781 0
M  V30 5336 H 541.671 -1.15369 5.76163 0
M  V30 5337 H 543.195 -2.08583 5.73869 0
M  V30 5338 H 544.609 0.185589 5.73 0
M  V30 5339 H 543.006 0.952381 5.92494 0
M  V30 5340 H 544.076 1.48559 4.61582 0
M  V30 5341 N 545.419 -1.53889 0.339982 0
M  V30 5342 C 546.835 -1.59595 -0.0120752 0
M  V30 5343 C 547.035 -1.35605 -1.49042 0
M  V30 5344 O 546.091 -1.14856 -2.24865 0
M  V30 5345 C 547.404 -2.9774 0.420898 0
M  V30 5346 C 548.952 -3.1077 0.37294 0
M  V30 5347 C 549.427 -4.51286 0.781327 0
M  V30 5348 N 550.918 -4.57325 0.735374 0
M  V30 5349 C 551.653 -5.64194 1.02336 0
M  V30 5350 N 551.149 -6.7893 1.37933 0
M  V30 5351 N 552.942 -5.54051 0.947838 0
M  V30 5352 H 545.093 -1.67738 1.30299 0
M  V30 5353 H 547.356 -0.785385 0.530918 0
M  V30 5354 H 547.062 -3.20349 1.45152 0
M  V30 5355 H 546.936 -3.76639 -0.205721 0
M  V30 5356 H 549.323 -2.87886 -0.648505 0
M  V30 5357 H 549.404 -2.33939 1.03472 0
M  V30 5358 H 549.048 -4.74905 1.80077 0
M  V30 5359 H 548.978 -5.26511 0.0970679 0
M  V30 5360 H 551.469 -3.74931 0.472773 0
M  V30 5361 H 551.782 -7.56392 1.58402 0
M  V30 5362 H 550.127 -6.80386 1.41774 0
M  V30 5363 H 553.318 -4.63293 0.669115 0
M  V30 5364 H 553.491 -6.37246 1.17563 0
M  V30 5365 N 546.897 -0.0685191 -1.57451 0
M  V30 5366 C 547.807 0.914677 -2.16034 0
M  V30 5367 C 548.823 1.32938 -1.12265 0
M  V30 5368 O 549.999 1.40275 -1.44516 0
M  V30 5369 C 547.064 2.16519 -2.70777 0
M  V30 5370 C 546.125 1.80721 -3.89408 0
M  V30 5371 C 545.358 2.9981 -4.41531 0
M  V30 5372 O 545.581 4.13727 -3.92666 0
M  V30 5373 O 544.515 2.79817 -5.32903 0
M  V30 5374 H 548.341 0.446364 -3.00402 0
M  V30 5375 H 545.926 0.154367 -1.486 0
M  V30 5376 H 547.808 2.89856 -3.05878 0
M  V30 5377 H 546.483 2.62454 -1.89471 0
M  V30 5378 H 545.39 1.04646 -3.59166 0
M  V30 5379 H 546.723 1.39571 -4.71997 0
M  V30 5380 N 548.375 1.56261 0.205012 0
M  V30 5381 C 549.305 1.96779 1.257 0
M  V30 5382 C 550.286 0.838309 1.48008 0
M  V30 5383 O 551.471 1.10189 1.59913 0
M  V30 5384 C 548.601 2.29876 2.60335 0
M  V30 5385 C 547.555 3.45469 2.52656 0
M  V30 5386 C 546.881 3.64215 3.91473 0
M  V30 5387 C 548.181 4.79954 2.06014 0
M  V30 5388 H 549.875 2.84904 0.920338 0
M  V30 5389 H 547.421 1.37072 0.441277 0
M  V30 5390 H 549.374 2.56814 3.34102 0
M  V30 5391 H 548.098 1.38622 2.95722 0
M  V30 5392 H 546.757 3.18605 1.81345 0
M  V30 5393 H 546.405 2.70309 4.24196 0
M  V30 5394 H 546.105 4.41973 3.87213 0
M  V30 5395 H 547.629 3.93519 4.66878 0
M  V30 5396 H 549.043 5.05989 2.69533 0
M  V30 5397 H 547.44 5.61111 2.12777 0
M  V30 5398 H 548.51 4.74201 1.01297 0
M  V30 5399 N 549.853 -0.472356 1.50355 0
M  V30 5400 C 550.801 -1.59126 1.69651 0
M  V30 5401 C 551.795 -1.59793 0.56237 0
M  V30 5402 O 553.001 -1.63957 0.742832 0
M  V30 5403 H 549.376 -0.528008 0.535454 0
M  V30 5404 H 551.347 -1.40013 2.63513 0
M  V30 5405 C 550.096 -2.97075 1.8067 0
M  V30 5406 H 549.419 -2.9728 2.67329 0
M  V30 5407 H 550.859 -3.74825 1.98197 0
M  V30 5408 C 549.318 -3.32247 0.558016 0
M  V30 5409 O 549.848 -4.00553 -0.303399 0
M  V30 5410 N 548.054 -2.87659 0.412415 0
M  V30 5411 H 547.601 -2.32246 1.11443 0
M  V30 5412 H 547.559 -3.11556 -0.421908 0
M  V30 5413 N 551.331 -1.39911 -0.725443 0
M  V30 5414 C 552.559 -1.40949 -1.51463 0
M  V30 5415 C 552.974 -0.0065242 -1.88799 0
M  V30 5416 O 552.331 0.967163 -1.54765 0
M  V30 5417 C 552.382 -2.29119 -2.79619 0
M  V30 5418 O 552.103 -3.63952 -2.43866 0
M  V30 5419 C 553.604 -2.38642 -3.73584 0
M  V30 5420 H 550.824 -0.481091 -0.467752 0
M  V30 5421 H 553.368 -1.83843 -0.895651 0
M  V30 5422 H 551.523 -1.89612 -3.37826 0
M  V30 5423 H 551.937 -4.10677 -3.26258 0
M  V30 5424 H 553.411 -3.04563 -4.60375 0
M  V30 5425 H 553.888 -1.40846 -4.16004 0
M  V30 5426 H 554.494 -2.78659 -3.21293 0
M  V30 5427 N 552.809 0.956637 -1.25245 0
M  V30 5428 C 553.719 2.0868 -1.0719 0
M  V30 5429 C 554.735 1.73997 -0.00959074 0
M  V30 5430 O 555.911 2.00301 -0.210104 0
M  V30 5431 C 552.976 3.39754 -0.690526 0
M  V30 5432 C 552.037 3.88316 -1.83055 0
M  V30 5433 C 551.27 5.13134 -1.46728 0
M  V30 5434 O 551.493 5.6925 -0.362029 0
M  V30 5435 O 550.427 5.56356 -2.29677 0
M  V30 5436 H 554.253 2.26813 -2.01965 0
M  V30 5437 H 551.838 1.07098 -1.04165 0
M  V30 5438 H 553.72 4.18543 -0.489871 0
M  V30 5439 H 552.395 3.22896 0.227981 0
M  V30 5440 H 551.302 3.1054 -2.08604 0
M  V30 5441 H 552.635 4.09669 -2.72822 0
M  V30 5442 N 554.287 1.06798 1.15896 0
M  V30 5443 C 555.698 0.811355 1.68149 0
M  V30 5444 C 556.049 -0.664339 1.8461 0
M  V30 5445 O 555.174 -1.51485 1.54535 0
M  V30 5446 C 555.769 1.46624 3.05429 0
M  V30 5447 C 554.328 1.25726 3.54781 0
M  V30 5448 C 553.475 1.53949 2.3064 0
M  V30 5449 H 556.426 1.23078 1.00187 0
M  V30 5450 H 556.447 0.88437 3.7008 0
M  V30 5451 H 555.959 2.54025 2.93416 0
M  V30 5452 H 554.06 0.20322 3.72045 0
M  V30 5453 H 554.173 1.97354 4.36564 0
M  V30 5454 H 552.537 0.96025 2.35905 0
M  V30 5455 H 553.32 2.6252 2.2122 0
M  V30 5456 N 555.766 -1.3263 0.851289 0
M  V30 5457 C 557.182 -1.50162 0.5407 0
M  V30 5458 C 557.382 -1.78788 -0.929369 0
M  V30 5459 O 556.438 -1.85545 -1.71258 0
M  V30 5460 C 557.751 -2.64803 1.42478 0
M  V30 5461 C 559.299 -2.78688 1.42485 0
M  V30 5462 C 559.774 -3.96405 2.29407 0
M  V30 5463 N 561.265 -4.0366 2.27184 0
M  V30 5464 C 562 -4.93971 2.9117 0
M  V30 5465 N 561.496 -5.89313 3.64256 0
M  V30 5466 N 563.289 -4.87066 2.80576 0
M  V30 5467 H 555.44 -1.12315 1.80275 0
M  V30 5468 H 557.703 -0.553266 0.769806 0
M  V30 5469 H 557.409 -2.50368 2.46999 0
M  V30 5470 H 557.283 -3.60506 1.10974 0
M  V30 5471 H 559.67 -2.92547 0.387304 0
M  V30 5472 H 559.751 -1.83708 1.78002 0
M  V30 5473 H 559.395 -3.83304 3.33228 0
M  V30 5474 H 559.325 -4.90654 1.91224 0
M  V30 5475 H 561.816 -3.35435 1.74045 0
M  V30 5476 H 562.129 -6.54913 4.10255 0
M  V30 5477 H 560.474 -5.8935 3.68364 0
M  V30 5478 H 563.665 -4.11552 2.23031 0
M  V30 5479 H 563.838 -5.57248 3.30725 0
M  V30 5480 N 557.244 -0.608902 -1.45362 0
M  V30 5481 C 558.492 -0.104401 -2.0183 0
M  V30 5482 C 558.813 1.27007 -1.47967 0
M  V30 5483 O 558.083 1.83924 -0.674455 0
M  V30 5484 H 556.663 -0.0356042 -0.746151 0
M  V30 5485 H 559.325 -0.790596 -1.78145 0
M  V30 5486 H 558.421 -0.0551793 -3.12051 0
M  V30 5487 N 558.722 1.53707 -0.348139 0
M  V30 5488 C 559.669 2.25173 0.506518 0
M  V30 5489 C 560.639 1.25174 1.09182 0
M  V30 5490 O 561.824 1.53917 1.12757 0
M  V30 5491 C 558.964 3.03141 1.64923 0
M  V30 5492 C 558.077 4.18002 1.0908 0
M  V30 5493 C 557.212 4.83447 2.20119 0
M  V30 5494 C 556.251 5.90369 1.61651 0
M  V30 5495 N 555.388 6.49575 2.66451 0
M  V30 5496 H 560.228 2.97799 -0.109452 0
M  V30 5497 H 557.765 1.46953 -0.0657866 0
M  V30 5498 H 559.723 3.46607 2.32205 0
M  V30 5499 H 558.353 2.32803 2.23612 0
M  V30 5500 H 557.405 3.79145 0.308783 0
M  V30 5501 H 558.717 4.94892 0.623178 0
M  V30 5502 H 557.871 5.30008 2.95257 0
M  V30 5503 H 556.61 4.05991 2.70227 0
M  V30 5504 H 555.615 5.43186 0.850209 0
M  V30 5505 H 556.84 6.69735 1.1239 0
M  V30 5506 H 554.786 5.74981 3.15805 0
M  V30 5507 H 554.703 7.21952 2.24325 0
M  V30 5508 H 555.971 7.00789 3.41344 0
M  V30 5509 N 560.2 0.0768682 1.57412 0
M  V30 5510 C 561.446 -0.585926 1.94778 0
M  V30 5511 C 561.801 -1.66912 0.956982 0
M  V30 5512 O 561.094 -1.9159 -0.0199454 0
M  V30 5513 C 561.288 -1.20268 3.36557 0
M  V30 5514 C 561.117 -0.18076 4.49337 0
M  V30 5515 C 559.887 0.236362 5.04747 0
M  V30 5516 C 562.085 0.583978 5.10974 0
M  V30 5517 N 560.067 1.24846 6.01071 0
M  V30 5518 C 561.438 1.44841 6.02844 0
M  V30 5519 C 563.493 0.639492 4.93776 0
M  V30 5520 C 562.196 2.36343 6.79363 0
M  V30 5521 C 564.222 1.54204 5.70942 0
M  V30 5522 C 563.584 2.39414 6.62465 0
M  V30 5523 H 559.683 -0.185281 0.759734 0
M  V30 5524 H 562.267 0.155193 1.9408 0
M  V30 5525 H 560.438 -1.9137 3.37982 0
M  V30 5526 H 562.17 -1.82636 3.61146 0
M  V30 5527 H 558.925 -0.14777 4.73369 0
M  V30 5528 H 559.349 1.75217 6.53933 0
M  V30 5529 H 563.991 -0.00510074 4.228 0
M  V30 5530 H 561.709 3.01836 7.49614 0
M  V30 5531 H 565.295 1.5899 5.59655 0
M  V30 5532 H 564.175 3.0812 7.21132 0
M  V30 5533 N 561.678 -1.56367 -0.196722 0
M  V30 5534 C 562.61 -1.90941 -1.26784 0
M  V30 5535 C 563.623 -0.799928 -1.41792 0
M  V30 5536 O 564.812 -1.07833 -1.42247 0
M  V30 5537 C 561.912 -2.12477 -2.6402 0
M  V30 5538 C 561.085 -3.43616 -2.70641 0
M  V30 5539 C 560.144 -3.54284 -3.89062 0
M  V30 5540 O 559.17 -4.2712 -3.76241 0
M  V30 5541 N 560.372 -2.87252 -5.04447 0
M  V30 5542 H 563.137 -2.83417 -0.974417 0
M  V30 5543 H 560.698 -1.57215 -0.386649 0
M  V30 5544 H 562.69 -2.16904 -3.41665 0
M  V30 5545 H 561.26 -1.26508 -2.85857 0
M  V30 5546 H 560.48 -3.51072 -1.79283 0
M  V30 5547 H 561.768 -4.29958 -2.72054 0
M  V30 5548 H 561.166 -2.27901 -5.17762 0
M  V30 5549 H 559.723 -2.97308 -5.80044 0
M  V30 5550 N 563.156 0.464375 -1.50603 0
M  V30 5551 C 564.404 1.21356 -1.61608 0
M  V30 5552 C 564.725 1.92329 -0.321643 0
M  V30 5553 O 563.995 1.84403 0.661232 0
M  V30 5554 H 562.575 0.45094 -0.595535 0
M  V30 5555 H 565.237 0.535046 -1.87412 0
M  V30 5556 H 564.333 1.95783 -2.43054 0
M  V30 5557 N 564.634 1.40294 0.718013 0
M  V30 5558 C 566.05 1.2227 1.02577 0
M  V30 5559 C 566.25 0.0961976 2.0127 0
M  V30 5560 O 565.306 -0.546695 2.46511 0
M  V30 5561 C 566.619 2.56348 1.57182 0
M  V30 5562 C 568.167 2.6334 1.69178 0
M  V30 5563 C 568.642 3.9768 2.27188 0
M  V30 5564 N 570.133 3.99409 2.34578 0
M  V30 5565 C 570.868 5.00141 2.8044 0
M  V30 5566 N 570.364 6.11268 3.26073 0
M  V30 5567 N 572.157 4.87511 2.79802 0
M  V30 5568 H 564.308 2.12304 0.0637899 0
M  V30 5569 H 566.571 0.943632 0.0909036 0
M  V30 5570 H 566.277 3.3942 0.921262 0
M  V30 5571 H 566.151 2.77266 2.55741 0
M  V30 5572 H 568.538 1.80641 2.33351 0
M  V30 5573 H 568.619 2.46255 0.692247 0
M  V30 5574 H 568.263 4.80817 1.63638 0
M  V30 5575 H 568.193 4.12093 3.27852 0
M  V30 5576 H 570.684 3.19162 2.02346 0
M  V30 5577 H 570.997 6.84023 3.59628 0
M  V30 5578 H 569.342 6.14837 3.24038 0
M  V30 5579 H 572.533 3.9979 2.43487 0
M  V30 5580 H 572.706 5.66158 3.15228 0
M  V30 5581 N 566.112 -0.949982 1.2575 0
M  V30 5582 C 567.042 -2.06483 1.09028 0
M  V30 5583 C 568.023 -1.701 -0.00201532 0
M  V30 5584 O 569.208 -1.93469 0.168383 0
M  V30 5585 C 566.338 -3.39899 0.71316 0
M  V30 5586 C 565.292 -3.90309 1.75621 0
M  V30 5587 C 564.618 -5.20274 1.23365 0
M  V30 5588 C 565.918 -4.16169 3.15596 0
M  V30 5589 H 567.612 -2.20731 2.02283 0
M  V30 5590 H 565.158 -1.06066 0.973964 0
M  V30 5591 H 567.111 -4.17346 0.58309 0
M  V30 5592 H 565.835 -3.25602 -0.255091 0
M  V30 5593 H 564.494 -3.15035 1.8748 0
M  V30 5594 H 564.142 -5.02351 0.255491 0
M  V30 5595 H 563.842 -5.54971 1.93082 0
M  V30 5596 H 565.366 -6.00314 1.11607 0
M  V30 5597 H 566.78 -4.84259 3.06864 0
M  V30 5598 H 565.177 -4.62131 3.82825 0
M  V30 5599 H 566.247 -3.22273 3.6231 0
M  V30 5600 N 567.59 -1.07411 -1.15328 0
M  V30 5601 C 568.818 -0.818782 -1.90009 0
M  V30 5602 C 569.233 0.628072 -1.78047 0
M  V30 5603 O 568.59 1.43085 -1.13282 0
M  V30 5604 C 568.641 -1.21874 -3.40337 0
M  V30 5605 O 568.362 -2.60883 -3.51954 0
M  V30 5606 C 569.863 -0.992796 -4.3204 0
M  V30 5607 H 567.083 -0.296007 -0.60218 0
M  V30 5608 H 569.627 -1.43073 -1.46117 0
M  V30 5609 H 567.782 -0.651103 -3.81889 0
M  V30 5610 H 568.196 -2.77216 -4.45255 0
M  V30 5611 H 569.67 -1.32215 -5.35932 0
M  V30 5612 H 570.147 0.0708331 -4.39143 0
M  V30 5613 H 570.753 -1.54537 -3.9623 0
M  V30 5614 N 569.068 1.32177 -0.85831 0
M  V30 5615 C 570.293 2.01847 -0.476718 0
M  V30 5616 C 570.718 1.64065 0.920021 0
M  V30 5617 O 570.076 0.843189 1.60499 0
M  V30 5618 C 570.124 3.55097 -0.627578 0
M  V30 5619 O 569.228 4.11012 0.338086 0
M  V30 5620 H 568.569 0.635907 -0.191099 0
M  V30 5621 H 571.099 1.68641 -1.15851 0
M  V30 5622 H 571.109 4.04718 -0.516476 0
M  V30 5623 H 569.784 3.81938 -1.64609 0
M  V30 5624 H 568.361 3.72451 0.182917 0
M  V30 5625 N 570.547 0.616602 1.45037 0
M  V30 5626 C 571.794 0.115331 2.02171 0
M  V30 5627 C 572.122 -1.25748 1.48383 0
M  V30 5628 O 571.377 -1.84511 0.652229 0
M  V30 5629 C 571.676 0.0356829 3.57382 0
M  V30 5630 C 571.342 1.34535 4.30362 0
M  V30 5631 C 570.004 1.70408 4.50016 0
M  V30 5632 C 572.356 2.21049 4.72003 0
M  V30 5633 C 569.684 2.92529 5.0857 0
M  V30 5634 C 572.036 3.42427 5.31908 0
M  V30 5635 C 570.7 3.78541 5.49784 0
M  V30 5636 H 569.97 0.0422024 0.739797 0
M  V30 5637 H 572.617 0.80002 1.73988 0
M  V30 5638 H 570.922 -0.732314 3.84895 0
M  V30 5639 H 572.619 -0.368463 3.99304 0
M  V30 5640 H 569.209 1.05615 4.15383 0
M  V30 5641 H 573.393 1.94632 4.56544 0
M  V30 5642 H 568.649 3.20605 5.20598 0
M  V30 5643 H 572.823 4.09709 5.63127 0
M  V30 5644 H 570.45 4.73255 5.94923 0
M  V30 5645 N 572.025 -1.5352 0.356285 0
M  V30 5646 C 573.274 -2.00298 -0.237373 0
M  V30 5647 C 573.587 -1.24784 -1.50627 0
M  V30 5648 O 574.793 -1.62103 -2.17795 0
M  V30 5649 C 573.249 -3.56771 -0.473545 0
M  V30 5650 C 572.857 -4.41154 0.780183 0
M  V30 5651 C 574.601 -4.1193 -1.02537 0
M  V30 5652 C 572.508 -5.89161 0.514108 0
M  V30 5653 H 571.438 -0.748307 -0.092478 0
M  V30 5654 H 574.089 -1.77283 0.473588 0
M  V30 5655 H 572.471 -3.75902 -1.24553 0
M  V30 5656 H 573.645 -4.33797 1.55425 0
M  V30 5657 H 571.96 -3.97052 1.25455 0
M  V30 5658 H 574.557 -5.20133 -1.2396 0
M  V30 5659 H 574.9 -3.65943 -1.98473 0
M  V30 5660 H 575.433 -3.96561 -0.313775 0
M  V30 5661 H 572.172 -6.39408 1.44355 0
M  V30 5662 H 571.692 -5.9939 -0.221632 0
M  V30 5663 H 573.371 -6.46857 0.136122 0
M  V30 5664 N 573.503 -0.0852151 -1.57369 0
M  V30 5665 C 574.728 0.592872 -1.98746 0
M  V30 5666 C 575.153 1.61538 -0.963689 0
M  V30 5667 O 574.511 1.81168 0.069071 0
M  V30 5668 C 574.559 1.22599 -3.39119 0
M  V30 5669 O 573.663 2.34185 -3.39457 0
M  V30 5670 H 573.004 0.151314 -0.646529 0
M  V30 5671 H 575.534 -0.163703 -2.03944 0
M  V30 5672 H 575.544 1.56965 -3.76598 0
M  V30 5673 H 574.219 0.476831 -4.13158 0
M  V30 5674 H 572.796 2.01512 -3.13763 0
M  V30 5675 N 574.981 1.5647 0.188427 0
M  V30 5676 C 575.911 1.98101 1.23606 0
M  V30 5677 C 576.892 0.853961 1.47111 0
M  V30 5678 O 578.077 1.11879 1.58735 0
M  V30 5679 C 575.207 2.32624 2.57882 0
M  V30 5680 C 574.161 3.48129 2.48978 0
M  V30 5681 C 573.487 3.68347 3.87588 0
M  V30 5682 C 574.787 4.82112 2.00911 0
M  V30 5683 H 576.481 2.85864 0.890068 0
M  V30 5684 H 574.027 1.37532 0.426714 0
M  V30 5685 H 575.98 2.60343 3.3136 0
M  V30 5686 H 574.704 1.41751 2.94235 0
M  V30 5687 H 573.363 3.20511 1.77956 0
M  V30 5688 H 573.011 2.74793 4.21305 0
M  V30 5689 H 572.711 4.46055 3.82503 0
M  V30 5690 H 574.235 3.98449 4.62678 0
M  V30 5691 H 575.649 5.08819 2.64151 0
M  V30 5692 H 574.046 5.63337 2.06814 0
M  V30 5693 H 575.116 4.75249 0.96262 0
M  V30 5694 N 576.459 -0.456382 1.50847 0
M  V30 5695 C 577.389 -1.56025 1.73719 0
M  V30 5696 C 578.37 -1.5967 0.586473 0
M  V30 5697 O 579.555 -1.75702 0.827185 0
M  V30 5698 C 576.685 -2.94251 1.84483 0
M  V30 5699 C 575.639 -3.05471 2.99786 0
M  V30 5700 C 574.965 -4.45489 2.95709 0
M  V30 5701 C 576.265 -2.81318 4.40065 0
M  V30 5702 H 577.959 -1.37138 2.66146 0
M  V30 5703 H 575.505 -0.658299 1.28072 0
M  V30 5704 H 577.458 -3.71417 1.99067 0
M  V30 5705 H 576.182 -3.14328 0.886891 0
M  V30 5706 H 574.841 -2.30741 2.84876 0
M  V30 5707 H 574.489 -4.62505 1.97732 0
M  V30 5708 H 574.189 -4.53929 3.73125 0
M  V30 5709 H 575.713 -5.24655 3.12362 0
M  V30 5710 H 577.127 -3.48226 4.55425 0
M  V30 5711 H 575.524 -3.01188 5.19043 0
M  V30 5712 H 576.594 -1.7706 4.51418 0
M  V30 5713 N 577.937 -1.40673 -0.710563 0
M  V30 5714 C 579.214 -1.29718 -1.46398 0
M  V30 5715 C 579.594 0.082177 -2.1094 0
M  V30 5716 O 578.942 1.09536 -2.00534 0
M  V30 5717 C 579.152 -2.43967 -2.49562 0
M  V30 5718 C 580.5 -2.84436 -3.15248 0
M  V30 5719 O 581.524 -2.43597 -2.59883 0
M  V30 5720 O 580.383 -3.55008 -4.1549 0
M  V30 5721 H 577.477 -0.509697 -0.651258 0
M  V30 5722 H 580.023 -1.52603 -0.742312 0
M  V30 5723 H 578.795 -3.36076 -2.0042 0
M  V30 5724 H 578.418 -2.22879 -3.29258 0
M  V30 5725 N 579.415 0.9433 -1.26252 0
M  V30 5726 C 580.362 2.0417 -1.07625 0
M  V30 5727 C 581.332 1.6609 0.0180738 0
M  V30 5728 O 582.517 1.90276 -0.141289 0
M  V30 5729 C 579.657 3.37653 -0.713043 0
M  V30 5730 C 578.77 3.88783 -1.8834 0
M  V30 5731 C 577.905 5.10642 -1.4635 0
M  V30 5732 C 576.944 5.54028 -2.60229 0
M  V30 5733 N 576.081 6.67092 -2.18936 0
M  V30 5734 H 580.921 2.19436 -2.01623 0
M  V30 5735 H 578.458 1.07519 -1.00389 0
M  V30 5736 H 580.416 4.14391 -0.483358 0
M  V30 5737 H 579.046 3.22241 0.18996 0
M  V30 5738 H 578.098 3.08464 -2.22608 0
M  V30 5739 H 579.41 4.16922 -2.73821 0
M  V30 5740 H 578.564 5.94832 -1.19414 0
M  V30 5741 H 577.303 4.84244 -0.579568 0
M  V30 5742 H 576.308 4.68396 -2.87898 0
M  V30 5743 H 577.533 5.82429 -3.49219 0
M  V30 5744 H 575.479 6.42381 -1.32974 0
M  V30 5745 H 575.396 6.94806 -2.97961 0
M  V30 5746 H 576.664 7.54662 -1.95206 0
M  V30 5747 N 580.893 1.08022 1.14757 0
M  V30 5748 C 581.856 0.71048 2.1791 0
M  V30 5749 C 582.856 -0.252731 1.58801 0
M  V30 5750 O 584.046 -0.0327915 1.74169 0
M  V30 5751 C 581.178 0.0483203 3.40866 0
M  V30 5752 H 582.371 1.62384 2.52134 0
M  V30 5753 H 579.924 0.877595 1.29337 0
M  V30 5754 H 580.659 -0.876959 3.12218 0
M  V30 5755 H 580.444 0.741189 3.85031 0
M  V30 5756 H 581.934 -0.195471 4.17142 0
M  V30 5757 N 582.371 -1.3172 0.865308 0
M  V30 5758 C 583.601 -2.00765 0.487543 0
M  V30 5759 C 584.009 -1.65145 -0.92325 0
M  V30 5760 O 583.352 -0.874294 -1.61561 0
M  V30 5761 C 583.414 -3.55122 0.559369 0
M  V30 5762 C 583.078 -4.14202 1.93095 0
M  V30 5763 C 584.075 -4.3165 2.89784 0
M  V30 5764 C 581.76 -4.50036 2.23099 0
M  V30 5765 C 583.754 -4.84114 4.14623 0
M  V30 5766 C 581.441 -5.02203 3.48189 0
M  V30 5767 C 582.439 -5.19192 4.43767 0
M  V30 5768 O 582.127 -5.70241 5.6664 0
M  V30 5769 H 581.859 -0.649066 0.188915 0
M  V30 5770 H 584.413 -1.69032 1.16694 0
M  V30 5771 H 582.643 -3.86295 -0.176926 0
M  V30 5772 H 584.332 -4.05428 0.195694 0
M  V30 5773 H 585.098 -4.04288 2.6791 0
M  V30 5774 H 580.977 -4.36091 1.49485 0
M  V30 5775 H 584.521 -4.9729 4.89233 0
M  V30 5776 H 580.418 -5.28997 3.69908 0
M  V30 5777 H 581.186 -5.88617 5.68746 0
M  V30 5778 N 583.85 -0.624285 -1.44708 0
M  V30 5779 C 584.812 0.0749638 -2.29077 0
M  V30 5780 C 585.812 0.778965 -1.40673 0
M  V30 5781 O 587.003 0.624591 -1.62618 0
M  V30 5782 C 584.135 1.11663 -3.22094 0
M  V30 5783 H 585.327 -0.667013 -2.92388 0
M  V30 5784 H 582.88 -0.384098 -1.51507 0
M  V30 5785 H 583.615 1.88881 -2.63618 0
M  V30 5786 H 583.401 0.61583 -3.87234 0
M  V30 5787 H 584.891 1.60585 -3.8549 0
M  V30 5788 N 585.328 1.53329 -0.364422 0
M  V30 5789 C 586.574 2.02222 0.21855 0
M  V30 5790 C 586.929 1.24702 1.46517 0
M  V30 5791 O 586.222 0.331969 1.88702 0
M  V30 5792 C 586.416 3.52911 0.564661 0
M  V30 5793 C 586.245 4.45023 -0.646862 0
M  V30 5794 C 585.015 4.91838 -1.15858 0
M  V30 5795 C 587.213 4.91581 -1.51172 0
M  V30 5796 N 585.195 5.67955 -2.33025 0
M  V30 5797 C 586.566 5.66028 -2.53006 0
M  V30 5798 C 588.621 4.73656 -1.53473 0
M  V30 5799 C 587.324 6.24457 -3.56996 0
M  V30 5800 C 589.35 5.3295 -2.56356 0
M  V30 5801 C 588.712 6.07282 -3.56914 0
M  V30 5802 H 584.811 0.780832 0.0427199 0
M  V30 5803 H 587.395 1.87937 -0.508704 0
M  V30 5804 H 585.566 3.6736 1.26099 0
M  V30 5805 H 587.298 3.88528 1.13262 0
M  V30 5806 H 584.053 4.68043 -0.723393 0
M  V30 5807 H 584.477 6.10675 -2.92241 0
M  V30 5808 H 589.119 4.15714 -0.770842 0
M  V30 5809 H 586.837 6.81496 -4.34268 0
M  V30 5810 H 590.423 5.20976 -2.58989 0
M  V30 5811 H 589.303 6.52345 -4.35218 0
M  V30 5812 N 586.806 0.0935595 1.57322 0
M  V30 5813 C 588.217 -0.435807 1.81542 0
M  V30 5814 C 588.568 -1.68263 1.00907 0
M  V30 5815 O 587.693 -2.15087 0.237983 0
M  V30 5816 C 588.288 -0.797436 3.29282 0
M  V30 5817 C 586.847 -1.27155 3.54272 0
M  V30 5818 C 585.994 -0.267455 2.76007 0
M  V30 5819 H 588.945 0.31902 1.5546 0
M  V30 5820 H 588.966 -1.6571 3.42521 0
M  V30 5821 H 588.478 0.110206 3.87943 0
M  V30 5822 H 586.579 -2.19696 3.00939 0
M  V30 5823 H 586.692 -1.23445 4.62923 0
M  V30 5824 H 585.056 -0.749282 2.43429 0
M  V30 5825 H 585.839 0.632839 3.37417 0
M  V30 5826 N 588.284 -1.56567 -0.180126 0
M  V30 5827 C 589.214 -1.98753 -1.22553 0
M  V30 5828 C 590.195 -0.86175 -1.46656 0
M  V30 5829 O 591.38 -1.12719 -1.58139 0
M  V30 5830 C 588.51 -2.33988 -2.56645 0
M  V30 5831 C 587.464 -3.49445 -2.47128 0
M  V30 5832 C 586.79 -3.70397 -3.8563 0
M  V30 5833 C 588.09 -4.83171 -1.98352 0
M  V30 5834 H 589.784 -2.86332 -0.874896 0
M  V30 5835 H 587.33 -1.37757 -0.419414 0
M  V30 5836 H 589.283 -2.62097 -3.29974 0
M  V30 5837 H 588.007 -1.43309 -2.93479 0
M  V30 5838 H 586.666 -3.2145 -1.76254 0
M  V30 5839 H 586.314 -2.77023 -4.19842 0
M  V30 5840 H 586.014 -4.48077 -3.80132 0
M  V30 5841 H 587.538 -4.00897 -4.60558 0
M  V30 5842 H 588.952 -5.10213 -2.61449 0
M  V30 5843 H 587.349 -5.64425 -2.03823 0
M  V30 5844 H 588.419 -4.75753 -0.937402 0
M  V30 5845 N 589.762 0.448376 -1.51087 0
M  V30 5846 C 590.987 1.22605 -1.6728 0
M  V30 5847 C 591.412 1.84524 -0.365045 0
M  V30 5848 O 590.77 1.6832 0.673642 0
M  V30 5849 C 590.818 2.29393 -2.78229 0
M  V30 5850 O 589.922 3.34608 -2.41063 0
M  V30 5851 H 589.263 0.359705 -0.558129 0
M  V30 5852 H 591.793 0.530903 -1.97592 0
M  V30 5853 H 591.803 2.74352 -3.01986 0
M  V30 5854 H 590.478 1.83701 -3.73131 0
M  V30 5855 H 589.055 2.95202 -2.27838 0
M  V30 5856 N 591.24 1.41047 0.703093 0
M  V30 5857 C 592.187 1.42302 1.81711 0
M  V30 5858 C 593.157 0.278336 1.63751 0
M  V30 5859 O 594.342 0.478266 1.84709 0
M  V30 5860 C 591.482 1.30362 3.19531 0
M  V30 5861 C 590.595 2.54638 3.48975 0
M  V30 5862 C 589.73 2.35047 4.76368 0
M  V30 5863 C 588.769 3.54837 4.98756 0
M  V30 5864 N 587.906 3.34363 6.1737 0
M  V30 5865 H 592.746 2.37516 1.79973 0
M  V30 5866 H 590.283 1.1795 0.878983 0
M  V30 5867 H 592.241 1.21443 3.99134 0
M  V30 5868 H 590.871 0.387602 3.20464 0
M  V30 5869 H 589.923 2.74037 2.63833 0
M  V30 5870 H 591.235 3.43766 3.61423 0
M  V30 5871 H 590.389 2.23552 5.64012 0
M  V30 5872 H 589.128 1.43363 4.66153 0
M  V30 5873 H 588.133 3.66795 4.09563 0
M  V30 5874 H 589.358 4.47464 5.10835 0
M  V30 5875 H 587.304 2.45373 6.08382 0
M  V30 5876 H 587.221 4.17063 6.30551 0
M  V30 5877 H 588.489 3.26626 7.07768 0
M  V30 5878 N 592.718 -0.936591 1.26751 0
M  V30 5879 C 593.648 -2.05315 1.11212 0
M  V30 5880 C 594.629 -1.70092 0.0160262 0
M  V30 5881 O 595.814 -1.93279 0.188894 0
M  V30 5882 C 592.944 -3.39123 0.749171 0
M  V30 5883 C 591.898 -3.88425 1.79751 0
M  V30 5884 C 591.224 -5.18936 1.28876 0
M  V30 5885 C 592.524 -4.12798 3.19992 0
M  V30 5886 H 594.218 -2.18573 2.04613 0
M  V30 5887 H 591.764 -1.05027 0.985159 0
M  V30 5888 H 593.717 -4.16704 0.627323 0
M  V30 5889 H 592.441 -3.25855 -0.220543 0
M  V30 5890 H 591.1 -3.13028 1.90811 0
M  V30 5891 H 590.748 -5.02051 0.308757 0
M  V30 5892 H 590.448 -5.52892 1.98958 0
M  V30 5893 H 591.972 -5.99096 1.17967 0
M  V30 5894 H 593.386 -4.80977 3.11983 0
M  V30 5895 H 591.783 -4.58044 3.87705 0
M  V30 5896 H 592.853 -3.18412 3.65707 0
M  V30 5897 N 594.196 -1.08629 -1.14182 0
M  V30 5898 C 595.444 -0.815731 -1.84906 0
M  V30 5899 C 595.765 0.660441 -1.83475 0
M  V30 5900 O 595.035 1.47888 -1.28476 0
M  V30 5901 H 593.615 -0.298773 -0.684648 0
M  V30 5902 H 596.277 -1.37274 -1.38354 0
M  V30 5903 H 595.373 -1.16193 -2.89665 0
M  V30 5904 N 595.674 1.31259 -0.872281 0
M  V30 5905 C 597.085 1.78822 -0.536617 0
M  V30 5906 C 597.436 1.71855 0.946594 0
M  V30 5907 O 596.561 1.28769 1.73918 0
M  V30 5908 C 597.156 3.24698 -0.967294 0
M  V30 5909 C 595.715 3.70147 -0.683251 0
M  V30 5910 C 594.862 2.51994 -1.15733 0
M  V30 5911 H 597.813 1.18308 -1.05777 0
M  V30 5912 H 597.834 3.79386 -0.290929 0
M  V30 5913 H 597.346 3.29737 -2.04683 0
M  V30 5914 H 595.447 3.70607 0.384825 0
M  V30 5915 H 595.56 4.62183 -1.2619 0
M  V30 5916 H 593.924 2.48078 -0.577024 0
M  V30 5917 H 594.707 2.59778 -2.24434 0
M  V30 5918 N 597.152 0.631951 1.44375 0
M  V30 5919 C 598.399 0.136767 2.02038 0
M  V30 5920 C 598.727 -1.24168 1.49709 0
M  V30 5921 O 597.982 -1.83809 0.671763 0
M  V30 5922 C 598.281 0.0735861 3.57324 0
M  V30 5923 C 597.947 1.39092 4.28911 0
M  V30 5924 C 596.609 1.75171 4.48184 0
M  V30 5925 C 598.961 2.26042 4.69632 0
M  V30 5926 C 596.289 2.97907 5.05439 0
M  V30 5927 C 598.641 3.4805 5.28246 0
M  V30 5928 C 597.305 3.84351 5.45738 0
M  V30 5929 H 596.575 0.0500466 0.739308 0
M  V30 5930 H 599.222 0.818429 1.7313 0
M  V30 5931 H 597.527 -0.691449 3.8565 0
M  V30 5932 H 599.224 -0.326091 3.99672 0
M  V30 5933 H 595.814 1.10015 4.1424 0
M  V30 5934 H 599.998 1.99463 4.54454 0
M  V30 5935 H 595.254 3.26108 5.17169 0
M  V30 5936 H 599.428 4.15658 5.5875 0
M  V30 5937 H 597.055 4.79538 5.8987 0
M  V30 5938 N 598.631 -1.53133 0.372548 0
M  V30 5939 C 599.859 -2.05774 -0.215515 0
M  V30 5940 C 600.274 -1.24555 -1.41886 0
M  V30 5941 O 599.631 -0.287951 -1.80214 0
M  V30 5942 C 599.682 -3.5645 -0.602161 0
M  V30 5943 O 599.403 -4.34591 0.553359 0
M  V30 5944 C 600.904 -4.25374 -1.24787 0
M  V30 5945 H 598.124 -0.670009 -0.0364529 0
M  V30 5946 H 600.668 -1.97434 0.532934 0
M  V30 5947 H 598.823 -3.64918 -1.30052 0
M  V30 5948 H 599.237 -5.23954 0.239336 0
M  V30 5949 H 600.711 -5.32097 -1.46891 0
M  V30 5950 H 601.188 -3.79531 -2.21026 0
M  V30 5951 H 601.794 -4.21177 -0.590752 0
M  V30 5952 N 600.109 -0.101901 -1.5727 0
M  V30 5953 C 601.355 0.561027 -1.94885 0
M  V30 5954 C 601.688 1.6741 -0.984258 0
M  V30 5955 O 600.963 1.94491 -0.0184767 0
M  V30 5956 C 601.246 1.10982 -3.42571 0
M  V30 5957 C 601.099 0.00133418 -4.498 0
M  V30 5958 C 602.418 2.00608 -3.9172 0
M  V30 5959 H 599.537 0.202467 -0.708644 0
M  V30 5960 H 602.179 -0.173992 -1.89202 0
M  V30 5961 H 600.329 1.73621 -3.47546 0
M  V30 5962 H 602.001 -0.63322 -4.56933 0
M  V30 5963 H 600.244 -0.664143 -4.28686 0
M  V30 5964 H 600.915 0.426253 -5.50352 0
M  V30 5965 H 603.391 1.47864 -3.88941 0
M  V30 5966 H 602.267 2.3593 -4.95609 0
M  V30 5967 H 602.528 2.92608 -3.3141 0
M  V30 5968 N 601.587 1.56661 0.17182 0
M  V30 5969 C 602.517 1.99401 1.21498 0
M  V30 5970 C 603.498 0.869516 1.46197 0
M  V30 5971 O 604.683 1.13556 1.57539 0
M  V30 5972 C 601.813 2.35346 2.55401 0
M  V30 5973 C 600.767 3.5075 2.45272 0
M  V30 5974 C 600.093 3.72437 3.8366 0
M  V30 5975 C 601.393 4.84216 1.95787 0
M  V30 5976 H 603.087 2.86792 0.859699 0
M  V30 5977 H 600.633 1.37977 0.412103 0
M  V30 5978 H 602.586 2.63843 3.2858 0
M  V30 5979 H 601.31 1.44864 2.92715 0
M  V30 5980 H 599.969 3.2238 1.74547 0
M  V30 5981 H 599.617 2.79246 4.18367 0
M  V30 5982 H 599.317 4.50087 3.77751 0
M  V30 5983 H 600.841 4.03334 4.58426 0
M  V30 5984 H 602.255 5.11592 2.5874 0
M  V30 5985 H 600.652 5.65498 2.00827 0
M  V30 5986 H 601.722 4.76243 0.912159 0
M  V30 5987 N 603.065 -0.440357 1.51323 0
M  V30 5988 C 603.995 -1.54174 1.75364 0
M  V30 5989 C 604.976 -1.59039 0.603375 0
M  V30 5990 O 606.161 -1.74815 0.845774 0
M  V30 5991 C 603.291 -2.92277 1.87593 0
M  V30 5992 C 602.245 -3.02274 3.03009 0
M  V30 5993 C 601.571 -4.42327 3.00418 0
M  V30 5994 C 602.871 -2.76634 4.43024 0
M  V30 5995 H 604.565 -1.34307 2.67585 0
M  V30 5996 H 602.111 -0.644678 1.28763 0
M  V30 5997 H 604.064 -3.69284 2.02995 0
M  V30 5998 H 602.788 -3.13369 0.920179 0
M  V30 5999 H 601.447 -2.27706 2.87307 0
M  V30 6000 H 601.095 -4.60382 2.02626 0
M  V30 6001 H 600.795 -4.49946 3.77918 0
M  V30 6002 H 602.319 -5.21312 3.17909 0
M  V30 6003 H 603.733 -3.43376 4.59093 0
M  V30 6004 H 602.13 -2.95666 5.22208 0
M  V30 6005 H 603.2 -1.72262 4.5327 0
M  V30 6006 N 604.543 -1.41418 -0.695603 0
M  V30 6007 C 605.954 -1.36335 -1.27552 0
M  V30 6008 C 606.305 -0.0464336 -1.96145 0
M  V30 6009 O 605.43 0.855304 -1.9878 0
M  V30 6010 C 606.025 -2.46941 -2.3196 0
M  V30 6011 C 604.584 -2.45256 -2.85529 0
M  V30 6012 C 603.731 -2.2679 -1.59566 0
M  V30 6013 H 606.682 -1.50934 -0.490362 0
M  V30 6014 H 606.703 -2.15997 -3.1325 0
M  V30 6015 H 606.215 -3.42775 -1.82008 0
M  V30 6016 H 604.316 -1.53179 -3.39657 0
M  V30 6017 H 604.429 -3.41565 -3.35961 0
M  V30 6018 H 602.793 -1.74667 -1.85374 0
M  V30 6019 H 603.576 -3.24651 -1.1161 0
M  V30 6020 N 606.021 0.929856 -1.27246 0
M  V30 6021 C 607.249 1.71144 -1.16265 0
M  V30 6022 C 607.664 1.867 0.280786 0
M  V30 6023 O 607.021 1.38249 1.19136 0
M  V30 6024 C 607.072 3.11222 -1.83911 0
M  V30 6025 O 606.793 2.96398 -3.22614 0
M  V30 6026 C 608.294 4.05541 -1.79028 0
M  V30 6027 H 605.514 0.535499 -0.404328 0
M  V30 6028 H 608.058 1.16492 -1.68077 0
M  V30 6029 H 606.213 3.6274 -1.36009 0
M  V30 6030 H 606.627 3.8494 -3.56261 0
M  V30 6031 H 608.101 5.01351 -2.30978 0
M  V30 6032 H 608.578 4.32589 -0.759168 0
M  V30 6033 H 609.184 3.59947 -2.26535 0
M  V30 6034 N 607.499 1.09233 1.13605 0
M  V30 6035 C 608.776 0.739633 1.81077 0
M  V30 6036 C 609.156 -0.775595 1.96336 0
M  V30 6037 O 608.504 -1.69726 1.52988 0
M  V30 6038 C 608.714 1.47636 3.16235 0
M  V30 6039 C 610.062 1.64087 3.91613 0
M  V30 6040 O 611.086 1.43871 3.25852 0
M  V30 6041 O 609.945 1.97511 5.0956 0
M  V30 6042 H 607.039 0.265464 0.783236 0
M  V30 6043 H 609.585 1.19441 1.20549 0
M  V30 6044 H 608.357 2.50818 3.00344 0
M  V30 6045 H 607.98 1.01362 3.84462 0
M  V30 6046 N 608.977 -1.30795 0.87923 0
M  V30 6047 C 609.924 -2.28282 0.339968 0
M  V30 6048 C 610.894 -1.56134 -0.566685 0
M  V30 6049 O 612.079 -1.84231 -0.496338 0
M  V30 6050 C 609.219 -3.42225 -0.444501 0
M  V30 6051 C 608.332 -4.29204 0.490717 0
M  V30 6052 C 607.467 -5.30302 -0.308784 0
M  V30 6053 C 606.506 -6.08929 0.622272 0
M  V30 6054 N 605.643 -7.01957 -0.14155 0
M  V30 6055 H 610.483 -2.73794 1.17647 0
M  V30 6056 H 608.02 -1.34682 0.591527 0
M  V30 6057 H 609.978 -4.07038 -0.915186 0
M  V30 6058 H 608.608 -2.97799 -1.24562 0
M  V30 6059 H 607.66 -3.6475 1.07988 0
M  V30 6060 H 608.972 -4.84045 1.20425 0
M  V30 6061 H 608.126 -6.00835 -0.841575 0
M  V30 6062 H 606.865 -4.7614 -1.05556 0
M  V30 6063 H 605.87 -5.37278 1.16674 0
M  V30 6064 H 607.095 -6.65178 1.36804 0
M  V30 6065 H 605.041 -6.50192 -0.870966 0
M  V30 6066 H 604.958 -7.54261 0.51246 0
M  V30 6067 H 606.226 -7.76741 -0.655271 0
M  V30 6068 N 610.455 -0.639598 -1.44038 0
M  V30 6069 C 611.703 -0.147188 -2.01563 0
M  V30 6070 C 612.024 1.2384 -1.50628 0
M  V30 6071 O 611.294 1.82452 -0.713316 0
M  V30 6072 H 609.874 -0.0514231 -0.745228 0
M  V30 6073 H 612.536 -0.828205 -1.76428 0
M  V30 6074 H 611.632 -0.121358 -3.11864 0
M  V30 6075 N 611.933 1.52934 -0.380664 0
M  V30 6076 C 612.863 2.29118 0.450268 0
M  V30 6077 C 613.844 1.32153 1.07096 0
M  V30 6078 O 615.029 1.61038 1.08537 0
M  V30 6079 C 612.159 3.09161 1.58231 0
M  V30 6080 C 611.113 4.13938 1.0881 0
M  V30 6081 C 610.439 4.82153 2.31155 0
M  V30 6082 C 611.739 5.22048 0.162146 0
M  V30 6083 H 613.433 2.98826 -0.185361 0
M  V30 6084 H 610.979 1.43715 -0.0905886 0
M  V30 6085 H 612.932 3.61211 2.17036 0
M  V30 6086 H 611.656 2.3717 2.2454 0
M  V30 6087 H 610.315 3.62855 0.522633 0
M  V30 6088 H 609.963 4.06719 2.95953 0
M  V30 6089 H 609.663 5.52966 1.98752 0
M  V30 6090 H 611.187 5.37004 2.90618 0
M  V30 6091 H 612.601 5.6951 0.658126 0
M  V30 6092 H 610.998 6.00057 -0.0717122 0
M  V30 6093 H 612.068 4.78398 -0.791438 0
M  V30 6094 N 613.412 0.11024 1.57214 0
M  V30 6095 C 614.359 -0.843195 2.14846 0
M  V30 6096 C 615.329 -1.26954 1.07107 0
M  V30 6097 O 616.514 -1.34861 1.34971 0
M  V30 6098 C 613.654 -2.09123 2.74521 0
M  V30 6099 C 612.767 -1.71404 3.96541 0
M  V30 6100 C 611.902 -2.91107 4.44331 0
M  V30 6101 C 610.941 -2.49586 5.58903 0
M  V30 6102 N 610.078 -3.62175 6.01477 0
M  V30 6103 H 614.918 -0.344886 2.95998 0
M  V30 6104 H 612.455 -0.15855 1.46243 0
M  V30 6105 H 614.413 -2.82234 3.07246 0
M  V30 6106 H 613.043 -2.56427 1.96074 0
M  V30 6107 H 612.095 -0.88201 3.70033 0
M  V30 6108 H 613.407 -1.36884 4.7965 0
M  V30 6109 H 612.561 -3.72454 4.78919 0
M  V30 6110 H 611.3 -3.28848 3.60153 0
M  V30 6111 H 610.305 -1.6667 5.23929 0
M  V30 6112 H 611.53 -2.12973 6.4484 0
M  V30 6113 H 609.476 -3.99605 5.20242 0
M  V30 6114 H 609.393 -3.3155 6.79419 0
M  V30 6115 H 610.661 -4.43987 6.407 0
M  V30 6116 N 614.89 -1.56749 -0.16351 0
M  V30 6117 C 616.138 -1.82074 -0.87713 0
M  V30 6118 C 616.459 -0.688503 -1.82441 0
M  V30 6119 O 615.729 0.291085 -1.93725 0
M  V30 6120 H 614.309 -0.671677 -0.326893 0
M  V30 6121 H 616.971 -1.9423 -0.161459 0
M  V30 6122 H 616.067 -2.76407 -1.44934 0
M  V30 6123 N 616.368 0.432326 -1.51554 0
M  V30 6124 C 617.615 1.18134 -1.64471 0
M  V30 6125 C 617.943 1.91076 -0.363349 0
M  V30 6126 O 617.198 1.84492 0.65279 0
M  V30 6127 C 617.497 2.21907 -2.80164 0
M  V30 6128 C 617.163 1.65941 -4.19255 0
M  V30 6129 C 615.825 1.50401 -4.57092 0
M  V30 6130 C 618.177 1.24843 -5.06027 0
M  V30 6131 C 615.505 0.922443 -5.79403 0
M  V30 6132 C 617.857 0.68113 -6.28922 0
M  V30 6133 C 616.521 0.512673 -6.65528 0
M  V30 6134 H 615.791 0.432283 -0.601841 0
M  V30 6135 H 618.438 0.471701 -1.856 0
M  V30 6136 H 616.743 2.98928 -2.53277 0
M  V30 6137 H 618.44 2.79691 -2.87357 0
M  V30 6138 H 615.03 1.79014 -3.89425 0
M  V30 6139 H 619.214 1.35667 -4.77397 0
M  V30 6140 H 614.47 0.779733 -6.06408 0
M  V30 6141 H 618.644 0.35418 -6.95499 0
M  V30 6142 H 616.271 0.0599084 -7.60176 0
M  V30 6143 N 617.846 1.41785 0.688094 0
M  V30 6144 C 618.794 1.44436 1.82321 0
M  V30 6145 C 619.788 0.321544 1.6632 0
M  V30 6146 O 620.994 0.493931 1.73091 0
M  V30 6147 H 617.369 0.452084 0.600936 0
M  V30 6148 H 619.34 2.40087 1.77202 0
M  V30 6149 C 618.089 1.35071 3.20392 0
M  V30 6150 H 617.412 2.2076 3.33324 0
M  V30 6151 H 618.852 1.40988 3.99873 0
M  V30 6152 C 617.311 0.0639127 3.36839 0
M  V30 6153 O 617.841 -0.888495 3.91751 0
M  V30 6154 N 616.047 -0.0146114 2.90596 0
M  V30 6155 H 615.594 0.761191 2.46097 0
M  V30 6156 H 615.552 -0.874988 3.01979 0
M  V30 6157 N 619.324 -0.923095 1.27737 0
M  V30 6158 C 620.57 -1.67375 1.14514 0
M  V30 6159 C 620.903 -1.91751 -0.307424 0
M  V30 6160 O 620.178 -1.51119 -1.22447 0
M  V30 6161 C 620.461 -3.03745 1.9342 0
M  V30 6162 C 620.314 -2.86581 3.46686 0
M  V30 6163 C 621.633 -4.04144 1.74228 0
M  V30 6164 H 618.752 -0.607427 0.417374 0
M  V30 6165 H 621.394 -1.07089 1.56946 0
M  V30 6166 H 619.544 -3.55204 1.5736 0
M  V30 6167 H 621.216 -2.42203 3.92601 0
M  V30 6168 H 619.459 -2.21829 3.72793 0
M  V30 6169 H 620.13 -3.83381 3.97143 0
M  V30 6170 H 622.606 -3.61712 2.05678 0
M  V30 6171 H 621.482 -4.97543 2.31824 0
M  V30 6172 H 621.743 -4.36661 0.691373 0
M  V30 6173 N 620.802 -1.09834 -1.13024 0
M  V30 6174 C 621.75 -0.736283 -2.20639 0
M  V30 6175 C 622.744 0.264725 -1.67319 0
M  V30 6176 O 623.95 0.125745 -1.7956 0
M  V30 6177 H 620.325 -0.220136 -0.719058 0
M  V30 6178 H 622.296 -1.65295 -2.48436 0
M  V30 6179 C 621.045 -0.177544 -3.47246 0
M  V30 6180 H 620.368 -0.939009 -3.88616 0
M  V30 6181 H 621.808 0.0378007 -4.23983 0
M  V30 6182 C 620.267 1.08824 -3.1884 0
M  V30 6183 O 620.797 2.1708 -3.37993 0
M  V30 6184 N 619.003 1.00442 -2.7269 0
M  V30 6185 H 618.55 0.123383 -2.57304 0
M  V30 6186 H 618.508 1.85206 -2.5406 0
M  V30 6187 N 622.28 1.30327 -0.886154 0
M  V30 6188 C 623.19 2.31854 -0.357866 0
M  V30 6189 C 624.206 1.65392 0.540502 0
M  V30 6190 O 625.382 1.96683 0.433339 0
M  V30 6191 C 622.447 3.44171 0.417999 0
M  V30 6192 C 621.508 4.26257 -0.510263 0
M  V30 6193 C 620.741 5.3321 0.228669 0
M  V30 6194 O 620.964 5.51542 1.45458 0
M  V30 6195 O 619.898 6.0042 -0.421832 0
M  V30 6196 H 623.724 2.78995 -1.19982 0
M  V30 6197 H 621.309 1.34518 -0.650028 0
M  V30 6198 H 623.191 4.12588 0.857251 0
M  V30 6199 H 621.866 2.99164 1.23623 0
M  V30 6200 H 620.773 3.60533 -0.99835 0
M  V30 6201 H 622.106 4.74871 -1.29454 0
M  V30 6202 N 623.758 0.647228 1.43697 0
M  V30 6203 C 624.688 -0.0345631 2.33474 0
M  V30 6204 C 625.669 -0.818193 1.4913 0
M  V30 6205 O 626.854 -0.780867 1.77809 0
M  V30 6206 C 623.984 -1.00576 3.32418 0
M  V30 6207 C 622.938 -0.33266 4.26705 0
M  V30 6208 C 622.264 -1.41489 5.1564 0
M  V30 6209 C 623.564 0.771204 5.16575 0
M  V30 6210 H 625.258 0.715163 2.90733 0
M  V30 6211 H 622.804 0.345364 1.39797 0
M  V30 6212 H 624.757 -1.49159 3.94119 0
M  V30 6213 H 623.481 -1.78657 2.73403 0
M  V30 6214 H 622.14 0.13267 3.6636 0
M  V30 6215 H 621.788 -2.18698 4.52968 0
M  V30 6216 H 621.488 -0.969799 5.79542 0
M  V30 6217 H 623.012 -1.9022 5.80214 0
M  V30 6218 H 624.426 0.36779 5.72119 0
M  V30 6219 H 622.823 1.1404 5.89165 0
M  V30 6220 H 623.893 1.63169 4.56622 0
M  V30 6221 N 625.236 -1.5273 0.388769 0
M  V30 6222 C 626.166 -2.29353 -0.438111 0
M  V30 6223 C 627.147 -1.32719 -1.06394 0
M  V30 6224 O 628.332 -1.61612 -1.07681 0
M  V30 6225 C 625.462 -3.09995 -1.56589 0
M  V30 6226 C 624.416 -4.14509 -1.06613 0
M  V30 6227 C 623.742 -4.83372 -2.28594 0
M  V30 6228 C 625.042 -5.22127 -0.134459 0
M  V30 6229 H 626.736 -2.98723 0.201206 0
M  V30 6230 H 624.282 -1.43665 0.0982089 0
M  V30 6231 H 626.235 -3.62357 -2.15118 0
M  V30 6232 H 624.959 -2.38357 -2.23279 0
M  V30 6233 H 623.618 -3.63128 -0.503383 0
M  V30 6234 H 623.266 -4.08283 -2.93792 0
M  V30 6235 H 622.966 -5.54012 -1.95817 0
M  V30 6236 H 624.49 -5.38538 -2.87766 0
M  V30 6237 H 625.904 -5.69851 -0.627914 0
M  V30 6238 H 624.301 -6.00011 0.103534 0
M  V30 6239 H 625.371 -4.77971 0.816798 0
M  V30 6240 N 626.714 -0.118576 -1.57153 0
M  V30 6241 C 627.96 0.540326 -1.95469 0
M  V30 6242 C 628.293 1.66356 -1.00196 0
M  V30 6243 O 627.568 1.94461 -0.039104 0
M  V30 6244 C 627.851 1.07342 -3.43729 0
M  V30 6245 C 627.704 -0.0463732 -4.49776 0
M  V30 6246 C 629.023 1.96442 -3.93826 0
M  V30 6247 H 626.142 0.19494 -0.710751 0
M  V30 6248 H 628.784 -0.19405 -1.89006 0
M  V30 6249 H 626.934 1.69925 -3.49368 0
M  V30 6250 H 628.606 -0.681648 -4.56236 0
M  V30 6251 H 626.849 -0.709574 -4.27957 0
M  V30 6252 H 627.52 0.367856 -5.50773 0
M  V30 6253 H 629.996 1.43731 -3.90488 0
M  V30 6254 H 628.872 2.3066 -4.98084 0
M  V30 6255 H 629.133 2.89077 -3.34495 0
M  V30 6256 N 628.193 1.56834 0.155195 0
M  V30 6257 C 629.47 1.73799 0.897395 0
M  V30 6258 C 629.85 0.684379 1.99698 0
M  V30 6259 O 629.198 -0.298111 2.26547 0
M  V30 6260 C 629.408 3.17572 1.44737 0
M  V30 6261 C 630.756 3.79014 1.91399 0
M  V30 6262 O 631.78 3.20951 1.54496 0
M  V30 6263 O 630.639 4.80998 2.59429 0
M  V30 6264 H 627.733 0.710329 0.423511 0
M  V30 6265 H 630.279 1.69107 0.141761 0
M  V30 6266 H 629.051 3.85749 0.656741 0
M  V30 6267 H 628.674 3.26657 2.26674 0
M  V30 6268 N 629.671 -0.424282 1.51781 0
M  V30 6269 C 630.619 -1.53649 1.74628 0
M  V30 6270 C 631.613 -1.57923 0.612922 0
M  V30 6271 O 632.819 -1.61511 0.794618 0
M  V30 6272 H 629.194 -0.510706 0.551981 0
M  V30 6273 H 631.165 -1.31558 2.67834 0
M  V30 6274 C 629.914 -2.91177 1.9003 0
M  V30 6275 H 629.237 -2.88625 2.76651 0
M  V30 6276 H 630.677 -3.6833 2.10021 0
M  V30 6277 C 629.136 -3.30303 0.663435 0
M  V30 6278 O 629.666 -4.01315 -0.175812 0
M  V30 6279 N 627.872 -2.86201 0.503723 0
M  V30 6280 H 627.419 -2.28583 1.18776 0
M  V30 6281 H 627.377 -3.12741 -0.322575 0
M  V30 6282 N 631.149 -1.42148 -0.680565 0
M  V30 6283 C 632.096 -1.45175 -1.79424 0
M  V30 6284 C 633.066 -0.304352 -1.63288 0
M  V30 6285 O 634.251 -0.507591 -1.83924 0
M  V30 6286 C 631.391 -1.35429 -3.17416 0
M  V30 6287 C 630.504 -2.60158 -3.4488 0
M  V30 6288 C 629.639 -2.42596 -4.72568 0
M  V30 6289 C 628.678 -3.62727 -4.93047 0
M  V30 6290 N 627.815 -3.44143 -6.11973 0
M  V30 6291 H 632.655 -2.40349 -1.76172 0
M  V30 6292 H 630.192 -1.19334 -0.860107 0
M  V30 6293 H 632.15 -1.27777 -3.97151 0
M  V30 6294 H 630.78 -0.438536 -3.19807 0
M  V30 6295 H 629.832 -2.78199 -2.5944 0
M  V30 6296 H 631.144 -3.49473 -3.55908 0
M  V30 6297 H 630.298 -2.32497 -5.60384 0
M  V30 6298 H 629.037 -1.50761 -4.63813 0
M  V30 6299 H 628.042 -3.73264 -4.03676 0
M  V30 6300 H 629.267 -4.55534 -5.03652 0
M  V30 6301 H 627.213 -2.5502 -6.04401 0
M  V30 6302 H 627.13 -4.27041 -6.23836 0
M  V30 6303 H 628.398 -3.37845 -7.02482 0
M  V30 6304 N 632.627 0.916307 -1.28225 0
M  V30 6305 C 633.59 1.99996 -1.11957 0
M  V30 6306 C 634.59 1.60688 -0.0600152 0
M  V30 6307 O 635.78 1.71499 -0.30558 0
M  V30 6308 C 632.912 3.33458 -0.708411 0
M  V30 6309 H 634.105 2.15858 -2.08196 0
M  V30 6310 H 631.658 1.09863 -1.11175 0
M  V30 6311 H 632.393 3.23297 0.254859 0
M  V30 6312 H 632.178 3.63349 -1.47377 0
M  V30 6313 H 633.668 4.13014 -0.617164 0
M  V30 6314 N 634.105 1.10431 1.1244 0
M  V30 6315 C 635.068 0.756542 2.16354 0
M  V30 6316 C 636.068 -0.21899 1.59302 0
M  V30 6317 O 637.258 0.00415969 1.742 0
M  V30 6318 C 634.39 0.120612 3.40687 0
M  V30 6319 H 635.583 1.67696 2.48632 0
M  V30 6320 H 633.136 0.904832 1.27446 0
M  V30 6321 H 633.871 -0.810536 3.14008 0
M  V30 6322 H 633.656 0.822693 3.83372 0
M  V30 6323 H 635.146 -0.106945 4.17463 0
M  V30 6324 N 635.583 -1.29855 0.893053 0
M  V30 6325 C 636.515 -2.26911 0.32311 0
M  V30 6326 C 637.528 -1.54039 -0.526858 0
M  V30 6327 O 638.717 -1.75132 -0.345095 0
M  V30 6328 C 635.817 -3.34266 -0.558509 0
M  V30 6329 C 634.99 -4.36601 0.264222 0
M  V30 6330 C 634.049 -5.23326 -0.549171 0
M  V30 6331 O 633.075 -5.69192 0.0309883 0
M  V30 6332 N 634.277 -5.50008 -1.85664 0
M  V30 6333 H 637.042 -2.76455 1.15726 0
M  V30 6334 H 634.603 -1.4312 0.756859 0
M  V30 6335 H 636.595 -3.89211 -1.1089 0
M  V30 6336 H 635.165 -2.8459 -1.29334 0
M  V30 6337 H 634.385 -3.81409 0.996046 0
M  V30 6338 H 635.673 -5.02019 0.827906 0
M  V30 6339 H 635.071 -5.14542 -2.35081 0
M  V30 6340 H 633.628 -6.07796 -2.35431 0
M  V30 6341 N 637.061 -0.65484 -1.43351 0
M  V30 6342 C 638.291 -0.176429 -2.05845 0
M  V30 6343 C 638.699 1.16375 -1.49176 0
M  V30 6344 O 638.042 1.72981 -0.618322 0
M  V30 6345 C 638.104 -0.0125844 -3.59498 0
M  V30 6346 C 637.768 -1.27831 -4.38758 0
M  V30 6347 C 638.765 -2.2074 -4.70712 0
M  V30 6348 C 636.45 -1.52035 -4.78739 0
M  V30 6349 C 638.444 -3.36145 -5.41558 0
M  V30 6350 C 636.131 -2.67732 -5.49329 0
M  V30 6351 C 637.129 -3.59612 -5.80662 0
M  V30 6352 O 636.817 -4.73289 -6.4981 0
M  V30 6353 H 636.549 -0.0879682 -0.670252 0
M  V30 6354 H 639.103 -0.896193 -1.84818 0
M  V30 6355 H 637.333 0.762567 -3.79107 0
M  V30 6356 H 639.022 0.423392 -4.03686 0
M  V30 6357 H 639.788 -2.03284 -4.40341 0
M  V30 6358 H 635.667 -0.813987 -4.53757 0
M  V30 6359 H 639.211 -4.07881 -5.65932 0
M  V30 6360 H 635.108 -2.85122 -5.79116 0
M  V30 6361 H 635.876 -4.72575 -6.68293 0
M  V30 6362 N 638.539 1.52521 -0.396863 0
M  V30 6363 C 639.786 2.01672 0.182898 0
M  V30 6364 C 640.114 1.28302 1.46181 0
M  V30 6365 O 639.369 0.374118 1.92091 0
M  V30 6366 C 639.668 3.5403 0.489677 0
M  V30 6367 C 639.334 4.45456 -0.698581 0
M  V30 6368 C 637.996 4.70166 -1.02454 0
M  V30 6369 C 640.348 4.99354 -1.49316 0
M  V30 6370 C 637.676 5.46024 -2.1465 0
M  V30 6371 C 640.028 5.76439 -2.60579 0
M  V30 6372 C 638.692 5.99426 -2.93675 0
M  V30 6373 H 637.962 0.737971 0.066927 0
M  V30 6374 H 640.609 1.83853 -0.535764 0
M  V30 6375 H 638.914 3.69963 1.28976 0
M  V30 6376 H 640.611 3.8956 0.951018 0
M  V30 6377 H 637.201 4.26392 -0.434525 0
M  V30 6378 H 641.385 4.80182 -1.25457 0
M  V30 6379 H 636.641 5.62046 -2.40654 0
M  V30 6380 H 640.815 6.17202 -3.22544 0
M  V30 6381 H 638.442 6.57988 -3.80731 0
M  V30 6382 N 640.017 0.126909 1.57088 0
M  V30 6383 C 641.263 -0.529952 1.95753 0
M  V30 6384 C 641.596 -1.65823 1.01077 0
M  V30 6385 O 640.871 -1.94437 0.0494162 0
M  V30 6386 C 641.154 -1.05517 3.44294 0
M  V30 6387 C 641.007 0.0702253 4.49745 0
M  V30 6388 C 642.326 -1.9435 3.94862 0
M  V30 6389 H 639.445 -0.191168 0.711775 0
M  V30 6390 H 642.087 0.204071 1.88901 0
M  V30 6391 H 640.237 -1.68069 3.50264 0
M  V30 6392 H 641.909 0.705834 4.55868 0
M  V30 6393 H 640.152 0.732259 4.27575 0
M  V30 6394 H 640.823 -0.338642 5.5096 0
M  V30 6395 H 643.299 -1.41658 3.91244 0
M  V30 6396 H 642.175 -2.28015 4.993 0
M  V30 6397 H 642.436 -2.87299 3.36024 0
M  V30 6398 N 641.495 -1.56914 -0.146875 0
M  V30 6399 C 642.442 -1.98275 -1.18134 0
M  V30 6400 C 643.412 -0.850367 -1.42681 0
M  V30 6401 O 644.597 -1.11244 -1.55014 0
M  V30 6402 C 641.737 -2.36861 -2.5098 0
M  V30 6403 C 640.85 -3.63391 -2.33605 0
M  V30 6404 C 639.985 -3.91079 -3.59486 0
M  V30 6405 C 639.024 -5.10879 -3.37149 0
M  V30 6406 N 638.161 -5.34577 -4.55161 0
M  V30 6407 H 643.001 -2.8645 -0.821622 0
M  V30 6408 H 640.538 -1.41718 -0.394248 0
M  V30 6409 H 642.496 -2.57262 -3.28439 0
M  V30 6410 H 641.126 -1.51766 -2.84898 0
M  V30 6411 H 640.178 -3.50766 -1.47199 0
M  V30 6412 H 641.49 -4.51007 -2.13059 0
M  V30 6413 H 640.644 -4.11979 -4.45374 0
M  V30 6414 H 639.383 -3.01885 -3.83036 0
M  V30 6415 H 638.388 -4.89853 -2.49649 0
M  V30 6416 H 639.613 -6.01626 -3.14997 0
M  V30 6417 H 637.559 -4.48337 -4.78884 0
M  V30 6418 H 637.476 -6.16463 -4.37618 0
M  V30 6419 H 638.744 -5.59975 -5.42263 0
M  V30 6420 N 642.974 0.416227 -1.52004 0
M  V30 6421 C 643.904 1.51365 -1.77795 0
M  V30 6422 C 644.885 1.58059 -0.628601 0
M  V30 6423 O 646.07 1.73447 -0.873478 0
M  V30 6424 C 643.2 2.89256 -1.92219 0
M  V30 6425 C 642.154 2.97415 -3.0778 0
M  V30 6426 C 641.48 4.37492 -3.07417 0
M  V30 6427 C 642.78 2.69551 -4.47369 0
M  V30 6428 H 644.474 1.30033 -2.69688 0
M  V30 6429 H 642.02 0.624112 -1.29772 0
M  V30 6430 H 643.973 3.66008 -2.08845 0
M  V30 6431 H 642.697 3.11866 -0.969917 0
M  V30 6432 H 641.356 2.23107 -2.90893 0
M  V30 6433 H 641.004 4.571 -2.09925 0
M  V30 6434 H 640.704 4.43877 -3.85029 0
M  V30 6435 H 642.228 5.16188 -3.26162 0
M  V30 6436 H 643.642 3.36028 -4.64497 0
M  V30 6437 H 642.039 2.87321 -5.26846 0
M  V30 6438 H 643.109 1.65029 -4.55953 0
M  V30 6439 N 644.452 1.42507 0.673017 0
M  V30 6440 C 645.402 1.4258 1.77919 0
M  V30 6441 C 646.386 0.296885 1.58137 0
M  V30 6442 O 647.578 0.539243 1.68586 0
M  V30 6443 C 644.707 1.33238 3.1639 0
M  V30 6444 C 643.793 2.51081 3.41788 0
M  V30 6445 N 644.184 3.76498 3.37761 0
M  V30 6446 C 642.482 2.4538 3.72431 0
M  V30 6447 C 643.183 4.54784 3.62693 0
M  V30 6448 N 642.159 3.8522 3.83544 0
M  V30 6449 H 645.961 2.37442 1.73201 0
M  V30 6450 H 643.475 1.36881 0.873924 0
M  V30 6451 H 645.472 1.31372 3.9566 0
M  V30 6452 H 644.132 0.393794 3.22303 0
M  V30 6453 H 645.143 4.09068 3.17622 0
M  V30 6454 H 641.82 1.60109 3.85579 0
M  V30 6455 H 643.21 5.63774 3.65525 0
M  V30 6456 N 645.93 -0.909495 1.28709 0
M  V30 6457 C 647.179 -1.65365 1.15487 0
M  V30 6458 C 647.492 -1.93364 -0.294941 0
M  V30 6459 O 648.698 -2.65905 -0.548338 0
M  V30 6460 C 647.154 -2.97923 2.01916 0
M  V30 6461 C 646.762 -2.77556 3.51663 0
M  V30 6462 C 648.506 -3.75814 1.97393 0
M  V30 6463 C 646.413 -4.0578 4.30229 0
M  V30 6464 H 645.343 -0.620323 0.42862 0
M  V30 6465 H 647.994 -1.00894 1.53273 0
M  V30 6466 H 646.376 -3.63552 1.5699 0
M  V30 6467 H 647.55 -2.2058 4.04575 0
M  V30 6468 H 645.865 -2.13072 3.57756 0
M  V30 6469 H 648.462 -4.70866 2.53357 0
M  V30 6470 H 648.805 -4.05277 0.951643 0
M  V30 6471 H 649.338 -3.1701 2.40311 0
M  V30 6472 H 646.077 -3.81488 5.33055 0
M  V30 6473 H 645.597 -4.62351 3.82089 0
M  V30 6474 H 647.276 -4.74004 4.40374 0
M  V30 6475 N 647.408 -1.11026 -1.11852 0
M  V30 6476 C 648.657 -0.851249 -1.82857 0
M  V30 6477 C 648.97 0.62514 -1.85341 0
M  V30 6478 O 650.176 1.00026 -2.52403 0
M  V30 6479 C 648.632 -1.47309 -3.28372 0
M  V30 6480 C 648.24 -2.9832 -3.34229 0
M  V30 6481 C 649.984 -1.29373 -4.04306 0
M  V30 6482 C 647.891 -3.53509 -4.74115 0
M  V30 6483 H 646.821 -0.314794 -0.685143 0
M  V30 6484 H 649.472 -1.33499 -1.25898 0
M  V30 6485 H 647.854 -0.917017 -3.85236 0
M  V30 6486 H 649.028 -3.60295 -2.87271 0
M  V30 6487 H 647.343 -3.15482 -2.71772 0
M  V30 6488 H 649.94 -1.68042 -5.07608 0
M  V30 6489 H 650.283 -0.235879 -4.15631 0
M  V30 6490 H 650.816 -1.8182 -3.53817 0
M  V30 6491 H 647.555 -4.58987 -4.67986 0
M  V30 6492 H 647.075 -2.96305 -5.21501 0
M  V30 6493 H 648.754 -3.51693 -5.43066 0
M  V30 6494 N 648.886 1.2938 -0.899927 0
M  V30 6495 C 649.849 2.25983 -0.382677 0
M  V30 6496 C 650.849 1.53366 0.483259 0
M  V30 6497 O 652.039 1.71798 0.28828 0
M  V30 6498 C 649.171 3.37878 0.452915 0
M  V30 6499 H 650.364 2.73252 -1.23586 0
M  V30 6500 H 647.917 1.40825 -0.678088 0
M  V30 6501 H 648.652 2.95949 1.32608 0
M  V30 6502 H 648.437 3.91742 -0.167562 0
M  V30 6503 H 649.927 4.09746 0.806107 0
M  V30 6504 N 650.364 0.662433 1.43002 0
M  V30 6505 C 651.612 0.179237 2.01304 0
M  V30 6506 C 651.933 -1.21428 1.52579 0
M  V30 6507 O 651.203 -1.81294 0.742252 0
M  V30 6508 H 649.783 0.0632725 0.744316 0
M  V30 6509 H 652.445 0.856169 1.75088 0
M  V30 6510 H 651.541 0.170957 3.11631 0
M  V30 6511 N 651.842 -1.52309 0.404946 0
M  V30 6512 C 652.774 -2.24579 -0.45791 0
M  V30 6513 C 653.787 -1.2739 -1.01369 0
M  V30 6514 O 654.976 -1.53363 -0.91335 0
M  V30 6515 C 652.076 -2.9608 -1.64893 0
M  V30 6516 C 651.249 -4.20106 -1.21777 0
M  V30 6517 C 650.308 -4.74468 -2.27523 0
M  V30 6518 O 649.334 -5.37157 -1.88285 0
M  V30 6519 N 650.536 -4.55678 -3.59635 0
M  V30 6520 H 653.301 -2.99265 0.161341 0
M  V30 6521 H 650.862 -1.60228 0.232107 0
M  V30 6522 H 652.854 -3.29344 -2.35191 0
M  V30 6523 H 651.424 -2.24606 -2.17419 0
M  V30 6524 H 650.644 -3.92704 -0.343071 0
M  V30 6525 H 651.932 -5.00658 -0.906596 0
M  V30 6526 H 651.33 -4.05673 -3.94266 0
M  V30 6527 H 649.887 -4.9339 -4.25922 0
M  V30 6528 N 653.32 -0.135238 -1.57019 0
M  V30 6529 C 654.253 0.846618 -2.11914 0
M  V30 6530 C 655.231 1.25019 -1.03966 0
M  V30 6531 O 656.415 1.34838 -1.31723 0
M  V30 6532 C 653.542 2.1352 -2.6292 0
M  V30 6533 C 652.588 1.87846 -3.82905 0
M  V30 6534 S 653.421 1.08005 -5.24495 0
M  V30 6535 C 654.577 2.38008 -5.78881 0
M  V30 6536 H 654.81 0.379752 -2.94865 0
M  V30 6537 H 652.343 0.0788387 -1.54199 0
M  V30 6538 H 654.301 2.87551 -2.92958 0
M  V30 6539 H 652.962 2.57323 -1.80121 0
M  V30 6540 H 652.155 2.83365 -4.16797 0
M  V30 6541 H 651.757 1.21929 -3.53567 0
M  V30 6542 H 654.049 3.33742 -5.89595 0
M  V30 6543 H 654.992 2.08638 -6.76665 0
M  V30 6544 H 655.4 2.48119 -5.07048 0
M  V30 6545 N 654.798 1.5699 0.138552 0
M  V30 6546 C 655.746 1.99858 1.18994 0
M  V30 6547 C 656.74 0.89231 1.43994 0
M  V30 6548 O 657.946 1.0775 1.44187 0
M  V30 6549 H 654.321 0.636325 0.400743 0
M  V30 6550 H 656.292 2.87427 0.801755 0
M  V30 6551 C 655.041 2.40235 2.51361 0
M  V30 6552 H 654.364 3.24917 2.32957 0
M  V30 6553 H 655.804 2.74045 3.23535 0
M  V30 6554 C 654.263 1.25829 3.1252 0
M  V30 6555 O 654.793 0.563604 3.97727 0
M  V30 6556 N 652.999 1.02036 2.72097 0
M  V30 6557 H 652.546 1.58705 2.02905 0
M  V30 6558 H 652.504 0.256796 3.1335 0
M  V30 6559 N 656.276 -0.40816 1.52223 0
M  V30 6560 C 657.525 -1.15212 1.65557 0
M  V30 6561 C 657.838 -1.9163 0.392096 0
M  V30 6562 O 659.044 -2.68458 0.405256 0
M  V30 6563 C 657.5 -2.09691 2.92502 0
M  V30 6564 C 657.108 -1.38785 4.25961 0
M  V30 6565 C 658.852 -2.8434 3.152 0
M  V30 6566 C 656.759 -2.31919 5.44029 0
M  V30 6567 H 655.689 -0.433776 0.616729 0
M  V30 6568 H 658.34 -0.4165 1.78711 0
M  V30 6569 H 656.722 -2.8681 2.7305 0
M  V30 6570 H 657.896 -0.670248 4.55899 0
M  V30 6571 H 656.211 -0.761741 4.09373 0
M  V30 6572 H 658.808 -3.54166 4.00587 0
M  V30 6573 H 659.151 -3.47344 2.29473 0
M  V30 6574 H 659.684 -2.14321 3.35129 0
M  V30 6575 H 656.423 -1.7356 6.32105 0
M  V30 6576 H 655.943 -3.0165 5.18428 0
M  V30 6577 H 657.622 -2.92424 5.77146 0
M  V30 6578 N 657.755 -1.42862 -0.66545 0
M  V30 6579 C 658.665 -1.49491 -1.80803 0
M  V30 6580 C 659.681 -0.382914 -1.69734 0
M  V30 6581 O 660.857 -0.635223 -1.9112 0
M  V30 6582 C 657.922 -1.40383 -3.17007 0
M  V30 6583 C 656.983 -2.62152 -3.39963 0
M  V30 6584 C 656.216 -2.53469 -4.69669 0
M  V30 6585 O 656.439 -1.57568 -5.48205 0
M  V30 6586 O 655.373 -3.43763 -4.94075 0
M  V30 6587 H 659.199 -2.45949 -1.78165 0
M  V30 6588 H 656.784 -1.24728 -0.822387 0
M  V30 6589 H 658.666 -1.377 -3.98267 0
M  V30 6590 H 657.341 -0.470546 -3.20262 0
M  V30 6591 H 656.248 -2.70409 -2.58515 0
M  V30 6592 H 657.581 -3.54411 -3.41546 0
M  V30 6593 N 659.233 0.902656 -1.29189 0
M  V30 6594 C 660.463 1.68394 -1.19695 0
M  V30 6595 C 660.871 1.87602 0.245384 0
M  V30 6596 O 660.214 1.41084 1.17648 0
M  V30 6597 C 660.276 3.09094 -1.83578 0
M  V30 6598 C 659.94 3.1313 -3.32864 0
M  V30 6599 C 660.937 2.93497 -4.29134 0
M  V30 6600 C 658.622 3.3529 -3.74013 0
M  V30 6601 C 660.616 2.95953 -5.64527 0
M  V30 6602 C 658.303 3.37377 -5.09529 0
M  V30 6603 C 659.301 3.1773 -6.04596 0
M  V30 6604 O 658.989 3.196 -7.37639 0
M  V30 6605 H 658.721 0.532815 -0.416034 0
M  V30 6606 H 661.275 1.1374 -1.71033 0
M  V30 6607 H 659.505 3.65338 -1.26747 0
M  V30 6608 H 661.194 3.69297 -1.68447 0
M  V30 6609 H 661.96 2.76192 -3.98677 0
M  V30 6610 H 657.839 3.49623 -3.00474 0
M  V30 6611 H 661.383 2.80536 -6.38706 0
M  V30 6612 H 657.28 3.54213 -5.39633 0
M  V30 6613 H 658.048 3.35887 -7.46406 0
M  V30 6614 N 660.711 1.11618 1.11262 0
M  V30 6615 C 661.644 0.719995 2.16544 0
M  V30 6616 C 662.622 -0.28471 1.60088 0
M  V30 6617 O 663.806 -0.180693 1.87632 0
M  V30 6618 C 660.933 0.0643302 3.38639 0
M  V30 6619 C 659.979 1.03448 4.13764 0
M  V30 6620 S 660.812 2.55789 4.70459 0
M  V30 6621 C 661.968 1.91529 5.95875 0
M  V30 6622 H 662.201 1.61181 2.49816 0
M  V30 6623 H 659.734 0.934401 1.22916 0
M  V30 6624 H 661.692 -0.307609 4.09346 0
M  V30 6625 H 660.353 -0.804471 3.03623 0
M  V30 6626 H 659.546 0.523188 5.01277 0
M  V30 6627 H 659.148 1.34893 3.48826 0
M  V30 6628 H 661.44 1.25286 6.65815 0
M  V30 6629 H 662.383 2.77047 6.51652 0
M  V30 6630 H 662.791 1.37468 5.47506 0
M  V30 6631 N 662.189 -1.289 0.906776 0
M  V30 6632 C 663.137 -2.29477 0.379873 0
M  V30 6633 C 664.131 -1.61068 -0.524747 0
M  V30 6634 O 665.337 -1.75344 -0.406765 0
M  V30 6635 H 661.712 -0.744742 0.10423 0
M  V30 6636 H 663.683 -2.71353 1.24137 0
M  V30 6637 C 662.432 -3.45713 -0.371154 0
M  V30 6638 H 661.755 -3.98551 0.315716 0
M  V30 6639 H 663.195 -4.18105 -0.704581 0
M  V30 6640 C 661.654 -2.9774 -1.57646 0
M  V30 6641 O 662.184 -2.99618 -2.67567 0
M  V30 6642 N 660.39 -2.53485 -1.42105 0
M  V30 6643 H 659.937 -2.52156 -0.526783 0
M  V30 6644 H 659.895 -2.21747 -2.22881 0
M  V30 6645 N 663.667 -0.670007 -1.42649 0
M  V30 6646 C 664.615 0.0230106 -2.32589 0
M  V30 6647 C 665.609 0.795585 -1.49555 0
M  V30 6648 O 666.815 0.70409 -1.65658 0
M  V30 6649 H 663.19 0.0262342 -0.751542 0
M  V30 6650 H 665.161 -0.753009 -2.88743 0
M  V30 6651 C 663.91 0.963872 -3.34073 0
M  V30 6652 H 663.233 0.378813 -3.98001 0
M  V30 6653 H 664.673 1.41755 -3.99602 0
M  V30 6654 C 663.132 2.06797 -2.65964 0
M  V30 6655 O 663.662 3.15383 -2.48789 0
M  V30 6656 N 661.868 1.83831 -2.25066 0
M  V30 6657 H 661.415 0.955235 -2.39234 0
M  V30 6658 H 661.373 2.57895 -1.79827 0
M  V30 6659 N 665.145 1.52092 -0.413018 0
M  V30 6660 C 666.373 2.06274 0.160881 0
M  V30 6661 C 666.788 1.28273 1.38533 0
M  V30 6662 O 666.145 0.33563 1.79387 0
M  V30 6663 C 666.196 3.57921 0.507443 0
M  V30 6664 O 665.917 4.32971 -0.668388 0
M  V30 6665 C 667.418 4.28533 1.13465 0
M  V30 6666 H 664.638 0.67074 0.0186759 0
M  V30 6667 H 667.182 1.95951 -0.585092 0
M  V30 6668 H 665.337 3.68238 1.20331 0
M  V30 6669 H 665.751 5.23135 -0.378169 0
M  V30 6670 H 667.225 5.35804 1.32732 0
M  V30 6671 H 667.702 3.85258 2.10886 0
M  V30 6672 H 668.308 4.22595 0.478876 0
M  V30 6673 N 666.623 0.143563 1.56945 0
M  V30 6674 C 667.9 -0.553285 1.87612 0
M  V30 6675 C 668.28 -1.83195 1.04894 0
M  V30 6676 O 667.628 -2.28102 0.134773 0
M  V30 6677 C 667.838 -0.822055 3.3918 0
M  V30 6678 C 669.186 -1.16435 4.08324 0
M  V30 6679 O 670.21 -0.911522 3.4434 0
M  V30 6680 O 669.069 -1.63996 5.21313 0
M  V30 6681 H 666.163 -0.281851 0.777489 0
M  V30 6682 H 668.709 0.179916 1.68744 0
M  V30 6683 H 667.481 0.0830265 3.91212 0
M  V30 6684 H 667.104 -1.60956 3.63564 0
M  V30 6685 N 668.101 -1.57061 -0.130224 0
M  V30 6686 C 669.034 -1.94698 -1.19029 0
M  V30 6687 C 670.012 -0.815074 -1.40696 0
M  V30 6688 O 671.196 -1.07223 -1.55034 0
M  V30 6689 C 668.323 -2.23352 -2.5462 0
M  V30 6690 C 667.369 -3.45945 -2.49448 0
M  V30 6691 S 668.202 -4.98927 -1.94505 0
M  V30 6692 C 669.358 -5.30721 -3.31792 0
M  V30 6693 H 669.591 -2.84308 -0.869272 0
M  V30 6694 H 667.124 -1.50688 -0.336531 0
M  V30 6695 H 669.082 -2.40539 -3.32643 0
M  V30 6696 H 667.743 -1.34376 -2.83905 0
M  V30 6697 H 666.936 -3.63324 -3.49302 0
M  V30 6698 H 666.538 -3.28086 -1.79543 0
M  V30 6699 H 668.83 -5.25215 -4.27966 0
M  V30 6700 H 669.773 -6.32048 -3.19251 0
M  V30 6701 H 670.181 -4.5821 -3.29703 0
M  V30 6702 N 669.579 0.400081 -1.52437 0
M  V30 6703 C 670.826 1.14619 -1.6694 0
M  V30 6704 C 671.154 1.90262 -0.403797 0
M  V30 6705 O 670.409 1.85835 0.61351 0
M  V30 6706 C 670.708 2.15914 -2.84808 0
M  V30 6707 C 670.374 1.57011 -4.2268 0
M  V30 6708 C 669.036 1.40672 -4.60179 0
M  V30 6709 C 671.388 1.14081 -5.08562 0
M  V30 6710 C 668.716 0.799335 -5.81229 0
M  V30 6711 C 671.068 0.547573 -6.30226 0
M  V30 6712 C 669.732 0.371389 -6.66466 0
M  V30 6713 H 669.002 0.419419 -0.610875 0
M  V30 6714 H 671.649 0.432227 -1.86558 0
M  V30 6715 H 669.954 2.93488 -2.59561 0
M  V30 6716 H 671.651 2.73533 -2.93225 0
M  V30 6717 H 668.241 1.70713 -3.93135 0
M  V30 6718 H 672.425 1.2551 -4.80168 0
M  V30 6719 H 667.681 0.65093 -6.07925 0
M  V30 6720 H 671.855 0.206575 -6.96094 0
M  V30 6721 H 669.482 -0.10135 -7.60132 0
M  V30 6722 N 671.057 1.43213 0.657864 0
M  V30 6723 C 672.287 1.478 1.44356 0
M  V30 6724 C 672.695 0.0930206 1.88971 0
M  V30 6725 O 672.038 -0.906089 1.59799 0
M  V30 6726 C 672.1 2.35745 2.71412 0
M  V30 6727 C 671.764 3.83359 2.48767 0
M  V30 6728 C 672.761 4.74585 2.12285 0
M  V30 6729 C 670.446 4.27799 2.63235 0
M  V30 6730 C 672.44 6.08247 1.90562 0
M  V30 6731 C 670.127 5.61516 2.41128 0
M  V30 6732 C 671.125 6.51557 2.04847 0
M  V30 6733 O 670.813 7.82802 1.82967 0
M  V30 6734 H 670.545 0.504363 0.450104 0
M  V30 6735 H 673.099 1.88572 0.814241 0
M  V30 6736 H 671.329 1.89852 3.36887 0
M  V30 6737 H 673.018 2.31589 3.33348 0
M  V30 6738 H 673.784 4.41531 2.00687 0
M  V30 6739 H 669.663 3.57993 2.90451 0
M  V30 6740 H 673.207 6.78489 1.62168 0
M  V30 6741 H 669.104 5.94139 2.52327 0
M  V30 6742 H 669.872 7.94332 1.97429 0
M  V30 6743 N 672.536 -0.895792 1.29666 0
M  V30 6744 C 673.764 -1.68001 1.20761 0
M  V30 6745 C 674.179 -1.87379 -0.231187 0
M  V30 6746 O 673.536 -1.41359 -1.15429 0
M  V30 6747 C 673.587 -3.06236 1.92098 0
M  V30 6748 O 673.308 -2.8774 3.30359 0
M  V30 6749 C 674.809 -4.00652 1.89717 0
M  V30 6750 H 672.029 -0.524591 0.418384 0
M  V30 6751 H 674.573 -1.11995 1.71106 0
M  V30 6752 H 672.728 -3.59007 1.45578 0
M  V30 6753 H 673.142 -3.75359 3.66342 0
M  V30 6754 H 674.616 -4.95051 2.44189 0
M  V30 6755 H 675.093 -4.30424 0.873595 0
M  V30 6756 H 675.699 -3.53815 2.35998 0
M  V30 6757 N 674.014 -1.12206 -1.10668 0
M  V30 6758 C 674.944 -0.810086 -2.18997 0
M  V30 6759 C 675.925 0.225065 -1.68604 0
M  V30 6760 O 677.11 0.086783 -1.94006 0
M  V30 6761 C 674.24 -0.261262 -3.46316 0
M  V30 6762 C 673.194 -1.2292 -4.09969 0
M  V30 6763 C 672.52 -0.540713 -5.31959 0
M  V30 6764 C 673.82 -2.58295 -4.53962 0
M  V30 6765 H 675.514 -1.7159 -2.45352 0
M  V30 6766 H 673.06 -0.82646 -1.17922 0
M  V30 6767 H 675.013 -0.0307522 -4.21389 0
M  V30 6768 H 673.737 0.679879 -3.19445 0
M  V30 6769 H 672.396 -1.44548 -3.369 0
M  V30 6770 H 672.044 0.405492 -5.01363 0
M  V30 6771 H 671.744 -1.18637 -5.75499 0
M  V30 6772 H 673.268 -0.319184 -6.09765 0
M  V30 6773 H 674.682 -2.40709 -5.20319 0
M  V30 6774 H 673.079 -3.18916 -5.08343 0
M  V30 6775 H 674.149 -3.16918 -3.67002 0
M  V30 6776 N 675.492 1.28418 -0.913599 0
M  V30 6777 C 676.72 1.99106 -0.562536 0
M  V30 6778 C 677.135 1.68273 0.856137 0
M  V30 6779 O 676.492 0.935401 1.56705 0
M  V30 6780 C 676.543 3.5338 -0.761903 0
M  V30 6781 O 676.264 3.83127 -2.12475 0
M  V30 6782 C 677.765 4.41328 -0.417651 0
M  V30 6783 H 674.985 0.635798 -0.214481 0
M  V30 6784 H 677.529 1.63618 -1.22676 0
M  V30 6785 H 675.684 3.8713 -0.144676 0
M  V30 6786 H 676.098 4.77763 -2.16431 0
M  V30 6787 H 677.572 5.48642 -0.607919 0
M  V30 6788 H 678.049 4.34422 0.646108 0
M  V30 6789 H 678.655 4.13074 -1.01241 0
M  V30 6790 N 676.97 0.677563 1.42291 0
M  V30 6791 C 678.218 0.200578 2.01102 0
M  V30 6792 C 678.539 -1.19803 1.53858 0
M  V30 6793 O 677.809 -1.80496 0.761439 0
M  V30 6794 H 676.389 0.0711634 0.743603 0
M  V30 6795 H 679.051 0.874691 1.7417 0
M  V30 6796 H 678.147 0.204 3.11433 0
M  V30 6797 N 678.448 -1.51871 0.421078 0
M  V30 6798 C 679.395 -2.27334 -0.398508 0
M  V30 6799 C 680.365 -1.30241 -1.03085 0
M  V30 6800 O 681.55 -1.59121 -1.05285 0
M  V30 6801 C 678.69 -3.10664 -1.50272 0
M  V30 6802 C 677.803 -4.2273 -0.890122 0
M  V30 6803 C 676.938 -4.93399 -1.96803 0
M  V30 6804 C 675.977 -5.97409 -1.333 0
M  V30 6805 N 675.114 -6.61548 -2.35156 0
M  V30 6806 H 679.954 -2.96938 0.251411 0
M  V30 6807 H 677.491 -1.46472 0.135825 0
M  V30 6808 H 679.449 -3.57292 -2.15403 0
M  V30 6809 H 678.079 -2.43207 -2.1225 0
M  V30 6810 H 677.131 -3.80186 -0.127537 0
M  V30 6811 H 678.443 -4.97302 -0.386349 0
M  V30 6812 H 677.597 -5.43491 -2.69633 0
M  V30 6813 H 676.336 -4.18421 -2.50549 0
M  V30 6814 H 675.341 -5.46624 -0.59008 0
M  V30 6815 H 676.566 -6.74335 -0.803076 0
M  V30 6816 H 674.512 -5.89394 -2.88012 0
M  V30 6817 H 674.429 -7.31832 -1.89624 0
M  V30 6818 H 675.697 -7.16276 -3.0752 0
M  V30 6819 N 679.926 -0.151884 -1.56866 0
M  V30 6820 C 681.151 0.508044 -2.01081 0
M  V30 6821 C 681.576 1.57306 -1.03134 0
M  V30 6822 O 680.934 1.81298 -0.0078309 0
M  V30 6823 C 680.982 1.08106 -3.44014 0
M  V30 6824 O 680.086 2.19577 -3.49084 0
M  V30 6825 H 679.427 0.123757 -0.652365 0
M  V30 6826 H 681.957 -0.250055 -2.03066 0
M  V30 6827 H 681.967 1.40851 -3.82916 0
M  V30 6828 H 680.642 0.301168 -4.14808 0
M  V30 6829 H 679.219 1.88023 -3.22027 0
M  V30 6830 N 681.404 1.57128 0.121893 0
M  V30 6831 C 682.652 1.84335 0.828548 0
M  V30 6832 C 682.973 0.736632 1.80551 0
M  V30 6833 O 682.243 -0.23962 1.94429 0
M  V30 6834 H 680.823 0.680108 0.30897 0
M  V30 6835 H 683.485 1.9459 0.109906 0
M  V30 6836 H 682.581 2.80152 1.37554 0
M  V30 6837 N 682.882 -0.391992 1.52647 0
M  V30 6838 C 683.792 -1.503 1.80131 0
M  V30 6839 C 684.808 -1.59825 0.687882 0
M  V30 6840 O 685.984 -1.76218 0.975149 0
M  V30 6841 C 683.049 -2.85863 1.96171 0
M  V30 6842 C 682.11 -2.86084 3.20085 0
M  V30 6843 C 681.343 -4.15181 3.35351 0
M  V30 6844 O 681.566 -5.09981 2.55491 0
M  V30 6845 O 680.5 -4.22603 4.28591 0
M  V30 6846 H 684.326 -1.30007 2.74466 0
M  V30 6847 H 681.911 -0.579539 1.37701 0
M  V30 6848 H 683.793 -3.66236 2.08445 0
M  V30 6849 H 682.468 -3.06189 1.05025 0
M  V30 6850 H 681.375 -2.04504 3.13256 0
M  V30 6851 H 682.708 -2.7071 4.11068 0
M  V30 6852 N 684.36 -1.4356 -0.65026 0
M  V30 6853 C 685.609 -1.44619 -1.406 0
M  V30 6854 C 685.922 -0.0752645 -1.95455 0
M  V30 6855 O 687.128 0.0366832 -2.71475 0
M  V30 6856 C 685.584 -2.54511 -2.54465 0
M  V30 6857 C 685.192 -3.97723 -2.06204 0
M  V30 6858 C 686.936 -2.64768 -3.31811 0
M  V30 6859 C 684.843 -4.99075 -3.17298 0
M  V30 6860 H 683.773 -0.537983 -0.52829 0
M  V30 6861 H 686.424 -1.69559 -0.701561 0
M  V30 6862 H 684.806 -2.22777 -3.27393 0
M  V30 6863 H 685.98 -4.38932 -1.40267 0
M  V30 6864 H 684.295 -3.91538 -1.41729 0
M  V30 6865 H 686.892 -3.37664 -4.14593 0
M  V30 6866 H 687.235 -1.69936 -3.80036 0
M  V30 6867 H 687.768 -2.95817 -2.65964 0
M  V30 6868 H 684.507 -5.95469 -2.74038 0
M  V30 6869 H 684.027 -4.62476 -3.81937 0
M  V30 6870 H 685.706 -5.21913 -3.82382 0
M  V30 6871 N 685.838 0.888903 -1.30139 0
M  V30 6872 C 687.085 1.64037 -1.18736 0
M  V30 6873 C 687.413 1.92771 0.258801 0
M  V30 6874 O 686.668 1.54427 1.20212 0
M  V30 6875 C 686.967 2.99041 -1.95728 0
M  V30 6876 C 686.633 2.89874 -3.45375 0
M  V30 6877 C 685.295 2.87082 -3.86183 0
M  V30 6878 C 687.647 2.78289 -4.40687 0
M  V30 6879 C 684.975 2.70536 -5.20603 0
M  V30 6880 C 687.327 2.63282 -5.75209 0
M  V30 6881 C 685.991 2.58861 -6.15262 0
M  V30 6882 H 685.261 0.600253 -0.434485 0
M  V30 6883 H 687.908 1.0338 -1.61198 0
M  V30 6884 H 686.213 3.63626 -1.45888 0
M  V30 6885 H 687.91 3.56139 -1.843 0
M  V30 6886 H 684.5 2.92856 -3.12943 0
M  V30 6887 H 688.684 2.79516 -4.10103 0
M  V30 6888 H 683.94 2.65526 -5.50732 0
M  V30 6889 H 688.114 2.5329 -6.48704 0
M  V30 6890 H 685.741 2.45799 -7.19366 0
M  V30 6891 N 687.317 1.12792 1.10072 0
M  V30 6892 C 688.265 0.794523 2.18609 0
M  V30 6893 C 689.259 -0.220271 1.67962 0
M  V30 6894 O 690.465 -0.0780938 1.79831 0
M  V30 6895 H 686.84 0.239123 0.712969 0
M  V30 6896 H 688.811 1.71823 2.43966 0
M  V30 6897 C 687.56 0.269548 3.46654 0
M  V30 6898 H 686.883 1.04171 3.8599 0
M  V30 6899 H 688.323 0.0746242 4.23934 0
M  V30 6900 C 686.782 -1.00333 3.21613 0
M  V30 6901 O 687.312 -2.08042 3.4363 0
M  V30 6902 N 685.518 -0.931763 2.75257 0
M  V30 6903 H 685.065 -0.0551197 2.57541 0
M  V30 6904 H 685.023 -1.78405 2.58881 0
M  V30 6905 N 688.795 -1.27931 0.920396 0
M  V30 6906 C 690.02 -1.99343 0.572478 0
M  V30 6907 C 690.445 -1.68267 -0.840696 0
M  V30 6908 O 689.803 -0.918805 -1.56294 0
M  V30 6909 C 689.851 -3.51698 0.796284 0
M  V30 6910 O 688.955 -4.12157 -0.141602 0
M  V30 6911 H 688.296 -0.626065 0.221221 0
M  V30 6912 H 690.826 -1.62921 1.23765 0
M  V30 6913 H 690.836 -4.01793 0.708984 0
M  V30 6914 H 689.511 -3.73649 1.82644 0
M  V30 6915 H 688.088 -3.729 -0.005007 0
M  V30 6916 N 690.273 -0.685099 -1.4193 0
M  V30 6917 C 691.55 -0.140152 -1.95097 0
M  V30 6918 C 691.93 1.34745 -1.62502 0
M  V30 6919 O 691.278 2.08872 -0.926534 0
M  V30 6920 C 691.488 -0.420268 -3.4646 0
M  V30 6921 C 692.836 -0.342338 -4.23218 0
M  V30 6922 O 693.86 -0.354592 -3.54431 0
M  V30 6923 O 692.719 -0.293404 -5.45712 0
M  V30 6924 H 689.813 -0.00885998 -0.826953 0
M  V30 6925 H 692.359 -0.760539 -1.51703 0
M  V30 6926 H 691.131 -1.45037 -3.63428 0
M  V30 6927 H 690.754 0.231616 -3.96925 0
M  V30 6928 N 691.751 1.51645 -0.429126 0
M  V30 6929 C 692.698 2.27542 0.386446 0
M  V30 6930 C 693.668 1.30786 1.02393 0
M  V30 6931 O 694.853 1.59678 1.0444 0
M  V30 6932 C 691.993 3.11457 1.48623 0
M  V30 6933 C 691.106 4.23196 0.867691 0
M  V30 6934 C 690.241 4.94435 1.94183 0
M  V30 6935 C 689.28 5.98108 1.30129 0
M  V30 6936 N 688.417 6.62786 2.31644 0
M  V30 6937 H 693.257 2.968 -0.267155 0
M  V30 6938 H 690.794 1.46397 -0.143591 0
M  V30 6939 H 692.752 3.58429 2.13506 0
M  V30 6940 H 691.382 2.44329 2.10957 0
M  V30 6941 H 690.434 3.80248 0.107373 0
M  V30 6942 H 691.746 4.97499 0.35997 0
M  V30 6943 H 690.9 5.44914 2.66747 0
M  V30 6944 H 689.639 4.19744 2.48326 0
M  V30 6945 H 688.644 5.4693 0.561082 0
M  V30 6946 H 689.869 6.74751 0.767303 0
M  V30 6947 H 687.815 5.90913 2.84883 0
M  V30 6948 H 687.732 7.32828 1.85741 0
M  V30 6949 H 689 7.17897 3.03717 0
M  V30 6950 N 693.229 0.160201 1.56784 0
M  V30 6951 C 694.506 -0.533355 1.88188 0
M  V30 6952 C 694.886 -1.82072 1.06831 0
M  V30 6953 O 694.234 -2.27946 0.158959 0
M  V30 6954 C 694.444 -0.786034 3.40033 0
M  V30 6955 C 695.792 -1.12097 4.09536 0
M  V30 6956 O 696.816 -0.874949 3.45287 0
M  V30 6957 O 695.675 -1.58457 5.23023 0
M  V30 6958 H 692.769 -0.273589 0.780434 0
M  V30 6959 H 695.315 0.197803 1.68543 0
M  V30 6960 H 694.087 0.124515 3.91102 0
M  V30 6961 H 693.71 -1.57091 3.65251 0
M  V30 6962 N 694.707 -1.5719 -0.113559 0
M  V30 6963 C 695.655 -2.01725 -1.158 0
M  V30 6964 C 696.649 -0.915105 -1.42556 0
M  V30 6965 O 697.855 -1.10031 -1.42454 0
M  V30 6966 H 694.23 -0.64262 -0.390569 0
M  V30 6967 H 696.201 -2.88666 -0.755926 0
M  V30 6968 C 694.95 -2.44203 -2.47507 0
M  V30 6969 H 694.273 -3.28582 -2.27758 0
M  V30 6970 H 695.713 -2.79158 -3.19135 0
M  V30 6971 C 694.172 -1.30785 -3.10478 0
M  V30 6972 O 694.702 -0.626807 -3.9678 0
M  V30 6973 N 692.908 -1.06352 -2.7044 0
M  V30 6974 H 692.455 -1.61913 -2.00355 0
M  V30 6975 H 692.413 -0.306614 -3.12901 0
M  V30 6976 N 696.185 0.383891 -1.52853 0
M  V30 6977 C 697.117 1.48889 -1.74255 0
M  V30 6978 C 698.13 1.50405 -0.623063 0
M  V30 6979 O 699.319 1.54215 -0.898887 0
M  V30 6980 C 696.419 2.87721 -1.79081 0
M  V30 6981 C 695.592 3.10111 -3.08464 0
M  V30 6982 C 694.651 4.28954 -3.0477 0
M  V30 6983 O 693.677 4.25012 -3.78621 0
M  V30 6984 N 694.879 5.35411 -2.24311 0
M  V30 6985 H 697.644 1.30915 -2.69595 0
M  V30 6986 H 695.205 0.573454 -1.51404 0
M  V30 6987 H 697.197 3.65333 -1.7411 0
M  V30 6988 H 695.767 2.99029 -0.911052 0
M  V30 6989 H 694.987 2.20319 -3.26884 0
M  V30 6990 H 696.275 3.21928 -3.94005 0
M  V30 6991 H 695.673 5.41471 -1.63787 0
M  V30 6992 H 694.23 6.1167 -2.25175 0
M  V30 6993 N 697.663 1.43903 0.642637 0
M  V30 6994 C 698.912 1.45362 1.39831 0
M  V30 6995 C 699.225 0.0856289 1.95412 0
M  V30 6996 O 700.431 -0.0222856 2.71491 0
M  V30 6997 C 698.887 2.55857 2.53111 0
M  V30 6998 C 698.495 3.98811 2.04092 0
M  V30 6999 C 700.239 2.66524 3.30402 0
M  V30 7000 C 698.146 5.00751 3.14647 0
M  V30 7001 H 697.076 0.540777 0.52543 0
M  V30 7002 H 699.727 1.69929 0.692559 0
M  V30 7003 H 698.109 2.2451 3.26207 0
M  V30 7004 H 699.283 4.3967 1.37938 0
M  V30 7005 H 697.598 3.92284 1.39651 0
M  V30 7006 H 700.195 3.39858 4.12796 0
M  V30 7007 H 700.538 1.71949 3.79129 0
M  V30 7008 H 701.071 2.97224 2.64392 0
M  V30 7009 H 697.81 5.96914 2.70876 0
M  V30 7010 H 697.33 4.64495 3.79479 0
M  V30 7011 H 699.009 5.23933 3.79609 0
M  V30 7012 N 699.141 -0.881989 1.30609 0
M  V30 7013 C 700.088 -1.98803 1.17244 0
M  V30 7014 C 701.058 -1.65987 0.0611905 0
M  V30 7015 O 702.243 -1.89385 0.231911 0
M  V30 7016 C 699.383 -3.33867 0.87333 0
M  V30 7017 C 698.496 -3.79354 2.06675 0
M  V30 7018 C 697.631 -5.03078 1.70547 0
M  V30 7019 C 696.67 -5.40981 2.86366 0
M  V30 7020 N 695.807 -6.55886 2.50514 0
M  V30 7021 H 700.647 -2.09566 2.11863 0
M  V30 7022 H 698.184 -1.02607 1.05405 0
M  V30 7023 H 700.142 -4.11612 0.680519 0
M  V30 7024 H 698.772 -3.2278 -0.0359983 0
M  V30 7025 H 697.824 -2.97492 2.37071 0
M  V30 7026 H 699.136 -4.03382 2.93401 0
M  V30 7027 H 698.29 -5.88457 1.47658 0
M  V30 7028 H 697.029 -4.80927 0.809947 0
M  V30 7029 H 696.034 -4.54127 3.09917 0
M  V30 7030 H 697.259 -5.65104 3.76609 0
M  V30 7031 H 695.205 -6.35306 1.63471 0
M  V30 7032 H 695.122 -6.79799 3.30771 0
M  V30 7033 H 696.39 -7.44489 2.30989 0
M  V30 7034 N 700.619 -1.13374 -1.09472 0
M  V30 7035 C 701.549 -0.833268 -2.18126 0
M  V30 7036 C 702.53 0.207169 -1.68834 0
M  V30 7037 O 703.715 0.0662012 -1.94087 0
M  V30 7038 C 700.845 -0.297979 -3.46019 0
M  V30 7039 C 699.799 -1.27261 -4.08642 0
M  V30 7040 C 699.125 -0.597104 -5.31356 0
M  V30 7041 C 700.425 -2.63095 -4.51197 0
M  V30 7042 H 702.119 -1.74182 -2.43518 0
M  V30 7043 H 699.665 -0.838921 -1.17039 0
M  V30 7044 H 701.618 -0.0754444 -4.21332 0
M  V30 7045 H 700.342 0.645959 -3.20148 0
M  V30 7046 H 699.001 -1.48113 -3.35348 0
M  V30 7047 H 698.649 0.352293 -5.01765 0
M  V30 7048 H 698.349 -1.24734 -5.74208 0
M  V30 7049 H 699.873 -0.38384 -6.09392 0
M  V30 7050 H 701.287 -2.46214 -5.17737 0
M  V30 7051 H 699.684 -3.2429 -5.04932 0
M  V30 7052 H 700.754 -3.20793 -3.6362 0
M  V30 7053 N 702.098 1.27442 -0.927168 0
M  V30 7054 C 703.045 2.26863 -0.424459 0
M  V30 7055 C 704.015 1.5813 0.508346 0
M  V30 7056 O 705.2 1.85946 0.42762 0
M  V30 7057 C 702.34 3.43639 0.31718 0
M  V30 7058 C 701.453 4.27087 -0.649675 0
M  V30 7059 C 700.588 5.31082 0.111753 0
M  V30 7060 C 699.627 6.062 -0.847843 0
M  V30 7061 N 698.764 7.01999 -0.119074 0
M  V30 7062 H 703.604 2.69239 -1.27728 0
M  V30 7063 H 701.141 1.32394 -0.641106 0
M  V30 7064 H 703.099 4.10155 0.763486 0
M  V30 7065 H 701.729 3.02217 1.13424 0
M  V30 7066 H 700.781 3.60491 -1.21451 0
M  V30 7067 H 702.093 4.79242 -1.38307 0
M  V30 7068 H 701.247 6.03544 0.618 0
M  V30 7069 H 699.986 4.7973 0.878114 0
M  V30 7070 H 698.991 5.32577 -1.36534 0
M  V30 7071 H 700.216 6.59642 -1.61398 0
M  V30 7072 H 698.162 6.52977 0.629051 0
M  V30 7073 H 698.079 7.5184 -0.792046 0
M  V30 7074 H 699.347 7.78638 0.366537 0
M  V30 7075 N 703.576 0.692616 1.41565 0
M  V30 7076 C 704.506 0.0397325 2.33466 0
M  V30 7077 C 705.487 -0.770334 1.51657 0
M  V30 7078 O 706.672 -0.723903 1.80203 0
M  V30 7079 C 703.802 -0.899495 3.3545 0
M  V30 7080 C 702.756 -0.196738 4.27548 0
M  V30 7081 C 702.082 -1.25012 5.19881 0
M  V30 7082 C 703.382 0.935158 5.1386 0
M  V30 7083 H 705.076 0.807296 2.88311 0
M  V30 7084 H 702.622 0.389665 1.38628 0
M  V30 7085 H 704.575 -1.36545 3.98665 0
M  V30 7086 H 703.299 -1.69869 2.78948 0
M  V30 7087 H 701.958 0.249158 3.65752 0
M  V30 7088 H 701.606 -2.04177 4.59696 0
M  V30 7089 H 701.306 -0.784931 5.82334 0
M  V30 7090 H 702.83 -1.71665 5.85972 0
M  V30 7091 H 704.244 0.549619 5.70659 0
M  V30 7092 H 702.641 1.32726 5.85238 0
M  V30 7093 H 703.711 1.77613 4.512 0
M  V30 7094 N 705.054 -1.51416 0.437162 0
M  V30 7095 C 706.004 -2.24599 -0.392311 0
M  V30 7096 C 706.988 -1.2682 -0.990221 0
M  V30 7097 O 708.18 -1.51912 -0.908391 0
M  V30 7098 C 705.309 -3.09134 -1.49301 0
M  V30 7099 C 704.395 -4.14342 -0.904503 0
M  V30 7100 N 704.786 -5.0578 -0.0451511 0
M  V30 7101 C 703.084 -4.30323 -1.1721 0
M  V30 7102 C 703.785 -5.81 0.285344 0
M  V30 7103 N 702.761 -5.42591 -0.330993 0
M  V30 7104 H 706.563 -2.92655 0.270221 0
M  V30 7105 H 704.077 -1.60476 0.249226 0
M  V30 7106 H 706.074 -3.6014 -2.10011 0
M  V30 7107 H 704.734 -2.42622 -2.15788 0
M  V30 7108 H 705.745 -5.16903 0.321271 0
M  V30 7109 H 702.422 -3.75037 -1.83448 0
M  V30 7110 H 703.812 -6.64646 0.984626 0
M  V30 7111 N 706.532 -0.168513 -1.56696 0
M  V30 7112 C 707.78 0.476216 -1.96409 0
M  V30 7113 C 708.101 1.63968 -1.05544 0
M  V30 7114 O 707.371 1.95525 -0.121235 0
M  V30 7115 H 705.951 0.178921 -0.725256 0
M  V30 7116 H 708.613 -0.249042 -1.93302 0
M  V30 7117 H 707.709 0.838094 -3.00637 0
M  V30 7118 N 708.01 1.57248 0.105221 0
M  V30 7119 C 709.258 1.85204 0.808951 0
M  V30 7120 C 709.579 0.75574 1.7976 0
M  V30 7121 O 708.849 -0.218984 1.94672 0
M  V30 7122 H 707.429 0.683346 0.301739 0
M  V30 7123 H 710.091 1.94695 0.0892605 0
M  V30 7124 H 709.187 2.81595 1.34575 0
M  V30 7125 N 709.488 -0.375779 1.53054 0
M  V30 7126 C 710.435 -1.45978 1.78771 0
M  V30 7127 C 711.405 -1.53625 0.631552 0
M  V30 7128 O 712.59 -1.69674 0.872667 0
M  V30 7129 C 709.73 -2.8305 1.97425 0
M  V30 7130 C 708.843 -2.84451 3.25134 0
M  V30 7131 C 707.978 -4.13034 3.34031 0
M  V30 7132 C 707.017 -4.08536 4.55812 0
M  V30 7133 N 706.154 -5.2875 4.61918 0
M  V30 7134 H 710.994 -1.23349 2.71273 0
M  V30 7135 H 708.531 -0.598147 1.3439 0
M  V30 7136 H 710.489 -3.62666 2.06225 0
M  V30 7137 H 709.119 -3.04101 1.0827 0
M  V30 7138 H 708.171 -1.97127 3.25338 0
M  V30 7139 H 709.483 -2.76998 4.14818 0
M  V30 7140 H 708.637 -5.0106 3.42087 0
M  V30 7141 H 707.376 -4.23226 2.42345 0
M  V30 7142 H 706.381 -3.18897 4.47867 0
M  V30 7143 H 707.606 -3.99955 5.48828 0
M  V30 7144 H 705.552 -5.39547 3.73129 0
M  V30 7145 H 705.469 -5.23426 5.45492 0
M  V30 7146 H 706.737 -6.18637 4.74245 0
M  V30 7147 N 710.966 -1.44241 -0.634997 0
M  V30 7148 C 711.913 -1.5081 -1.74714 0
M  V30 7149 C 712.883 -0.356147 -1.62237 0
M  V30 7150 O 714.068 -0.565848 -1.82216 0
M  V30 7151 C 711.208 -1.45458 -3.12947 0
M  V30 7152 C 710.321 -2.70998 -3.36428 0
M  V30 7153 C 709.456 -2.57507 -4.64611 0
M  V30 7154 C 708.495 -3.78229 -4.81258 0
M  V30 7155 N 707.632 -3.63438 -6.00714 0
M  V30 7156 H 712.472 -2.45832 -1.68436 0
M  V30 7157 H 710.009 -1.2201 -0.821706 0
M  V30 7158 H 711.967 -1.40347 -3.92885 0
M  V30 7159 H 710.597 -0.540058 -3.1825 0
M  V30 7160 H 709.649 -2.86312 -2.50458 0
M  V30 7161 H 710.961 -3.60619 -3.44609 0
M  V30 7162 H 710.115 -2.50207 -5.52703 0
M  V30 7163 H 708.854 -1.65441 -4.58782 0
M  V30 7164 H 707.859 -3.85918 -3.91596 0
M  V30 7165 H 709.084 -4.71327 -4.88904 0
M  V30 7166 H 707.03 -2.7412 -5.95982 0
M  V30 7167 H 706.947 -4.46672 -6.09934 0
M  V30 7168 H 708.215 -3.60022 -6.91378 0
M  V30 7169 N 712.444 0.87505 -1.31075 0
M  V30 7170 C 713.391 1.98178 -1.18296 0
M  V30 7171 C 714.361 1.65952 -0.0699923 0
M  V30 7172 O 715.546 1.8926 -0.241951 0
M  V30 7173 C 712.686 3.33399 -0.891024 0
M  V30 7174 C 711.799 3.78253 -2.08684 0
M  V30 7175 C 710.934 5.02166 -1.73212 0
M  V30 7176 C 709.973 5.39455 -2.89231 0
M  V30 7177 N 709.11 6.54549 -2.53989 0
M  V30 7178 H 713.95 2.0844 -2.12971 0
M  V30 7179 H 711.487 1.02047 -1.05948 0
M  V30 7180 H 713.445 4.11246 -0.702338 0
M  V30 7181 H 712.075 3.22794 0.0188799 0
M  V30 7182 H 711.127 2.9623 -2.38646 0
M  V30 7183 H 712.439 4.01821 -2.95536 0
M  V30 7184 H 711.593 5.87666 -1.50777 0
M  V30 7185 H 710.332 4.80491 -0.83544 0
M  V30 7186 H 709.337 4.52477 -3.12321 0
M  V30 7187 H 710.562 5.63098 -3.79601 0
M  V30 7188 H 708.508 6.3443 -1.66838 0
M  V30 7189 H 708.425 6.78035 -3.34372 0
M  V30 7190 H 709.693 7.43254 -2.34934 0
M  V30 7191 N 713.922 1.13953 1.08869 0
M  V30 7192 C 715.168 0.906151 1.8143 0
M  V30 7193 C 715.501 -0.566089 1.85766 0
M  V30 7194 O 714.776 -1.41915 1.33006 0
M  V30 7195 C 715.059 1.50183 3.27287 0
M  V30 7196 C 714.912 3.04359 3.31189 0
M  V30 7197 C 716.231 1.17477 4.24131 0
M  V30 7198 H 713.35 0.330624 0.658678 0
M  V30 7199 H 715.992 1.40873 1.27495 0
M  V30 7200 H 714.142 1.07442 3.73348 0
M  V30 7201 H 715.814 3.55896 2.93488 0
M  V30 7202 H 714.057 3.39053 2.70602 0
M  V30 7203 H 714.728 3.41141 4.33966 0
M  V30 7204 H 717.204 1.5442 3.86385 0
M  V30 7205 H 716.08 1.61795 5.24513 0
M  V30 7206 H 716.341 0.0893312 4.4201 0
M  V30 7207 N 715.4 -1.26948 0.933913 0
M  V30 7208 C 716.347 -2.26635 0.436484 0
M  V30 7209 C 717.317 -1.58397 -0.499953 0
M  V30 7210 O 718.502 -1.86171 -0.417753 0
M  V30 7211 C 715.642 -3.43803 -0.298951 0
M  V30 7212 C 714.755 -4.26736 0.672316 0
M  V30 7213 C 713.89 -5.31134 -0.0835872 0
M  V30 7214 C 712.929 -6.05742 0.879979 0
M  V30 7215 N 712.066 -7.01926 0.156301 0
M  V30 7216 H 716.906 -2.68558 1.29154 0
M  V30 7217 H 714.443 -1.32052 0.648118 0
M  V30 7218 H 716.401 -4.10554 -0.741723 0
M  V30 7219 H 715.031 -3.02814 -1.1182 0
M  V30 7220 H 714.083 -3.59842 1.23361 0
M  V30 7221 H 715.395 -4.78502 1.40846 0
M  V30 7222 H 714.549 -6.03863 -0.585984 0
M  V30 7223 H 713.288 -4.80188 -0.852661 0
M  V30 7224 H 712.293 -5.31846 1.39357 0
M  V30 7225 H 713.518 -6.58777 1.64894 0
M  V30 7226 H 711.464 -6.53301 -0.594413 0
M  V30 7227 H 711.381 -7.51409 0.831906 0
M  V30 7228 H 712.649 -7.78821 -0.325239 0
M  V30 7229 N 716.879 -0.700114 -1.41195 0
M  V30 7230 C 718.128 -0.230082 -2.00383 0
M  V30 7231 C 718.441 1.17857 -1.56106 0
M  V30 7232 O 719.647 1.74631 -2.07885 0
M  V30 7233 C 718.103 -0.360447 -3.5809 0
M  V30 7234 C 717.711 -1.77475 -4.11347 0
M  V30 7235 C 719.455 0.0495799 -4.24471 0
M  V30 7236 C 717.362 -1.85653 -5.61504 0
M  V30 7237 H 716.292 -0.0822633 -0.749499 0
M  V30 7238 H 718.943 -0.868969 -1.6162 0
M  V30 7239 H 717.325 0.346768 -3.94479 0
M  V30 7240 H 718.499 -2.51109 -3.86369 0
M  V30 7241 H 716.814 -2.13486 -3.57509 0
M  V30 7242 H 719.411 0.00898219 -5.34699 0
M  V30 7243 H 719.754 1.08904 -4.01803 0
M  V30 7244 H 720.287 -0.607521 -3.93134 0
M  V30 7245 H 717.026 -2.87667 -5.89006 0
M  V30 7246 H 716.546 -1.1641 -5.88395 0
M  V30 7247 H 718.225 -1.62151 -6.26351 0
M  V30 7248 N 718.357 1.51182 -0.445186 0
M  V30 7249 C 719.606 2.01342 0.120189 0
M  V30 7250 C 719.919 1.33353 1.43095 0
M  V30 7251 O 721.125 1.74525 2.07974 0
M  V30 7252 C 719.581 3.58925 0.264732 0
M  V30 7253 C 719.189 4.35855 -1.03606 0
M  V30 7254 C 720.933 4.17208 0.783455 0
M  V30 7255 C 718.84 5.85162 -0.856731 0
M  V30 7256 H 717.77 0.752426 0.0486922 0
M  V30 7257 H 720.421 1.74221 -0.576143 0
M  V30 7258 H 718.803 3.82525 1.02425 0
M  V30 7259 H 719.977 4.23997 -1.80452 0
M  V30 7260 H 718.292 3.89062 -1.48391 0
M  V30 7261 H 720.889 5.26475 0.934239 0
M  V30 7262 H 721.232 3.76892 1.768 0
M  V30 7263 H 721.765 3.97715 0.0820346 0
M  V30 7264 H 718.504 6.29904 -1.81388 0
M  V30 7265 H 718.024 5.99663 -0.128206 0
M  V30 7266 H 719.703 6.44963 -0.513027 0
M  V30 7267 N 719.835 0.176821 1.56605 0
M  V30 7268 C 720.767 -0.782836 2.15417 0
M  V30 7269 C 721.78 -1.18982 1.11117 0
M  V30 7270 O 722.969 -1.12872 1.38283 0
M  V30 7271 C 720.069 -2.06596 2.68647 0
M  V30 7272 C 719.242 -1.82167 3.9766 0
M  V30 7273 C 718.301 -2.94751 4.35899 0
M  V30 7274 O 717.327 -2.65148 5.03672 0
M  V30 7275 N 718.529 -4.2267 3.97907 0
M  V30 7276 H 721.294 -0.280012 2.98389 0
M  V30 7277 H 718.855 -0.00577529 1.61899 0
M  V30 7278 H 720.847 -2.81018 2.91223 0
M  V30 7279 H 719.417 -2.48054 1.90232 0
M  V30 7280 H 718.637 -0.916208 3.83405 0
M  V30 7281 H 719.925 -1.6322 4.81909 0
M  V30 7282 H 719.323 -4.4958 3.43357 0
M  V30 7283 H 717.88 -4.93778 4.25472 0
M  V30 7284 N 721.313 -1.57302 -0.09688 0
M  V30 7285 C 722.561 -1.8563 -0.799117 0
M  V30 7286 C 722.882 -0.765263 -1.79356 0
M  V30 7287 O 722.152 0.208657 -1.94786 0
M  V30 7288 H 720.732 -0.684937 -0.298111 0
M  V30 7289 H 723.394 -1.9474 -0.0789341 0
M  V30 7290 H 722.49 -2.82305 -1.3308 0
M  V30 7291 N 722.791 0.367657 -1.53252 0
M  V30 7292 C 724.068 1.12606 -1.59935 0
M  V30 7293 C 724.448 2.07167 -0.405606 0
M  V30 7294 O 723.796 2.20364 0.604323 0
M  V30 7295 C 724.006 1.86699 -2.94863 0
M  V30 7296 C 725.354 2.41306 -3.49366 0
M  V30 7297 O 726.378 1.96828 -2.96879 0
M  V30 7298 O 725.237 3.2261 -4.41118 0
M  V30 7299 H 722.331 0.516438 -0.645926 0
M  V30 7300 H 724.877 0.371088 -1.65593 0
M  V30 7301 H 723.649 1.17674 -3.73187 0
M  V30 7302 H 723.272 2.6911 -2.92687 0
M  V30 7303 N 724.269 1.44576 0.627338 0
M  V30 7304 C 725.518 1.46837 1.38281 0
M  V30 7305 C 725.831 0.10635 1.95311 0
M  V30 7306 O 727.037 0.00651084 2.71499 0
M  V30 7307 C 725.493 2.58527 2.50384 0
M  V30 7308 C 725.101 4.00953 1.99851 0
M  V30 7309 C 726.845 2.70013 3.27557 0
M  V30 7310 C 724.752 5.0406 3.09318 0
M  V30 7311 H 723.682 0.546319 0.519664 0
M  V30 7312 H 726.333 1.70654 0.674497 0
M  V30 7313 H 724.715 2.27957 3.23808 0
M  V30 7314 H 725.889 4.41108 1.33267 0
M  V30 7315 H 724.204 3.93743 1.35482 0
M  V30 7316 H 726.801 3.44217 4.09168 0
M  V30 7317 H 727.144 1.75961 3.77284 0
M  V30 7318 H 727.677 3.00011 2.61224 0
M  V30 7319 H 724.416 5.99753 2.6453 0
M  V30 7320 H 723.936 4.68493 3.74532 0
M  V30 7321 H 725.615 5.2793 3.74031 0
M  V30 7322 N 725.747 -0.868086 1.31537 0
M  V30 7323 C 726.996 -1.61607 1.20689 0
M  V30 7324 C 727.309 -1.94204 -0.233275 0
M  V30 7325 O 728.515 -2.67515 -0.463465 0
M  V30 7326 C 726.971 -2.91348 2.11292 0
M  V30 7327 C 726.579 -2.66227 3.60315 0
M  V30 7328 C 728.323 -3.69344 2.09249 0
M  V30 7329 C 726.23 -3.91887 4.42921 0
M  V30 7330 H 725.16 -0.606373 0.448138 0
M  V30 7331 H 727.811 -0.959666 1.56405 0
M  V30 7332 H 726.193 -3.58374 1.68477 0
M  V30 7333 H 727.367 -2.07597 4.11388 0
M  V30 7334 H 725.682 -2.01582 3.64354 0
M  V30 7335 H 728.279 -4.62567 2.68209 0
M  V30 7336 H 728.622 -4.02044 1.0801 0
M  V30 7337 H 729.155 -3.09205 2.50274 0
M  V30 7338 H 725.894 -3.64336 5.44922 0
M  V30 7339 H 725.414 -4.49961 3.96605 0
M  V30 7340 H 727.093 -4.59754 4.55231 0
M  V30 7341 N 727.225 -1.14528 -1.08264 0
M  V30 7342 C 728.188 -0.83632 -2.13397 0
M  V30 7343 C 729.188 0.159715 -1.60005 0
M  V30 7344 O 730.378 -0.0688098 -1.74064 0
M  V30 7345 C 727.51 -0.246973 -3.40004 0
M  V30 7346 H 728.703 -1.76808 -2.42237 0
M  V30 7347 H 726.256 -0.951509 -1.24 0
M  V30 7348 H 726.991 0.693436 -3.168 0
M  V30 7349 H 726.776 -0.964412 -3.80055 0
M  V30 7350 H 728.266 -0.0480679 -4.17572 0
M  V30 7351 N 728.703 1.26451 -0.940633 0
M  V30 7352 C 729.928 1.98407 -0.60412 0
M  V30 7353 C 730.353 1.69584 0.81382 0
M  V30 7354 O 729.711 0.943553 1.54812 0
M  V30 7355 C 729.759 3.50387 -0.852136 0
M  V30 7356 O 728.863 4.1233 0.076013 0
M  V30 7357 H 728.204 0.622466 -0.231153 0
M  V30 7358 H 730.734 1.60932 -1.26342 0
M  V30 7359 H 730.744 4.00614 -0.772816 0
M  V30 7360 H 729.419 3.70696 -1.88566 0
M  V30 7361 H 727.996 3.7286 -0.0543187 0
M  V30 7362 N 730.181 0.707592 1.40822 0
M  V30 7363 C 731.129 0.0386643 2.32568 0
M  V30 7364 C 732.123 -0.755653 1.51612 0
M  V30 7365 O 733.329 -0.659921 1.67467 0
M  V30 7366 H 729.704 -0.00629912 0.751974 0
M  V30 7367 H 731.675 0.8293 2.86645 0
M  V30 7368 C 730.424 -0.87496 3.36511 0
M  V30 7369 H 729.747 -0.273157 3.98866 0
M  V30 7370 H 731.187 -1.31111 4.03219 0
M  V30 7371 C 729.646 -1.99672 2.71353 0
M  V30 7372 O 730.176 -3.08676 2.57064 0
M  V30 7373 N 728.382 -1.77799 2.29861 0
M  V30 7374 H 727.929 -0.89147 2.41683 0
M  V30 7375 H 727.887 -2.53036 1.86601 0
M  V30 7376 N 731.66 -1.50943 0.453197 0
M  V30 7377 C 732.908 -2.01813 -0.107709 0
M  V30 7378 C 733.229 -1.33841 -1.41816 0
M  V30 7379 O 732.499 -0.477973 -1.8998 0
M  V30 7380 H 731.079 -0.745773 -0.0427948 0
M  V30 7381 H 733.741 -1.8545 0.599531 0
M  V30 7382 H 732.837 -3.10911 -0.27218 0
M  V30 7383 N 733.138 -0.185124 -1.56509 0
M  V30 7384 C 734.068 0.735098 -2.21627 0
M  V30 7385 C 735.049 1.2288 -1.1762 0
M  V30 7386 O 736.234 1.27945 -1.46095 0
M  V30 7387 C 733.364 1.95889 -2.86783 0
M  V30 7388 C 732.318 1.6005 -3.96948 0
M  V30 7389 C 731.644 2.90009 -4.4922 0
M  V30 7390 C 732.944 0.818008 -5.15855 0
M  V30 7391 H 734.638 0.192274 -2.98782 0
M  V30 7392 H 732.184 0.0910393 -1.43712 0
M  V30 7393 H 734.137 2.60779 -3.31017 0
M  V30 7394 H 732.861 2.52608 -2.07018 0
M  V30 7395 H 731.52 0.975237 -3.5339 0
M  V30 7396 H 731.168 3.44797 -3.6623 0
M  V30 7397 H 730.868 2.66778 -5.23549 0
M  V30 7398 H 732.392 3.55904 -4.9615 0
M  V30 7399 H 733.806 1.36979 -5.56695 0
M  V30 7400 H 732.203 0.684207 -5.96187 0
M  V30 7401 H 733.273 -0.182939 -4.84555 0
M  V30 7402 N 734.616 1.57351 0.0885366 0
M  V30 7403 C 735.546 2.05561 1.10757 0
M  V30 7404 C 736.527 0.945789 1.41382 0
M  V30 7405 O 737.712 1.21747 1.51299 0
M  V30 7406 C 734.842 2.48554 2.42566 0
M  V30 7407 C 733.796 3.63259 2.26334 0
M  V30 7408 C 733.122 3.9225 3.63378 0
M  V30 7409 C 734.422 4.93913 1.69844 0
M  V30 7410 H 736.116 2.90946 0.706468 0
M  V30 7411 H 733.662 1.39968 0.338385 0
M  V30 7412 H 735.615 2.8089 3.14132 0
M  V30 7413 H 734.339 1.60176 2.84625 0
M  V30 7414 H 732.998 3.31179 1.57213 0
M  V30 7415 H 732.646 3.0103 4.02976 0
M  V30 7416 H 732.346 4.69478 3.53362 0
M  V30 7417 H 733.87 4.27067 4.36401 0
M  V30 7418 H 735.284 5.24588 2.31258 0
M  V30 7419 H 733.681 5.75349 1.70569 0
M  V30 7420 H 734.751 4.80409 0.65843 0
M  V30 7421 N 736.094 -0.359525 1.53444 0
M  V30 7422 C 737.044 -1.441 1.7669 0
M  V30 7423 C 738.028 -1.48408 0.621599 0
M  V30 7424 O 739.22 -1.53547 0.880468 0
M  V30 7425 C 736.349 -2.81455 1.96566 0
M  V30 7426 C 735.435 -2.81601 3.17115 0
M  V30 7427 N 735.826 -2.51388 4.38905 0
M  V30 7428 C 734.124 -3.12758 3.1796 0
M  V30 7429 C 734.825 -2.59365 5.20677 0
M  V30 7430 N 733.801 -2.94328 4.57025 0
M  V30 7431 H 737.603 -1.19613 2.68458 0
M  V30 7432 H 735.117 -0.567761 1.52152 0
M  V30 7433 H 737.114 -3.59357 2.11348 0
M  V30 7434 H 735.774 -3.06901 1.06029 0
M  V30 7435 H 736.785 -2.24873 4.66533 0
M  V30 7436 H 733.462 -3.43479 2.37336 0
M  V30 7437 H 734.852 -2.39301 6.27841 0
M  V30 7438 N 737.572 -1.44907 -0.619662 0
M  V30 7439 C 738.821 -1.47569 -1.37501 0
M  V30 7440 C 739.134 -0.116707 -1.95252 0
M  V30 7441 O 740.34 -0.020909 -2.71492 0
M  V30 7442 C 738.796 -2.59851 -2.49009 0
M  V30 7443 C 738.404 -4.02008 -1.97722 0
M  V30 7444 C 740.148 -2.71746 -3.2612 0
M  V30 7445 C 738.055 -5.05693 -3.0664 0
M  V30 7446 H 736.985 -0.549068 -0.51676 0
M  V30 7447 H 739.636 -1.71009 -0.665437 0
M  V30 7448 H 738.018 -2.29671 -3.22594 0
M  V30 7449 H 739.192 -4.41809 -1.30925 0
M  V30 7450 H 737.507 -3.94456 -1.33392 0
M  V30 7451 H 740.104 -3.46382 -4.07337 0
M  V30 7452 H 740.447 -1.77959 -3.76346 0
M  V30 7453 H 740.98 -3.01392 -2.5963 0
M  V30 7454 H 737.719 -6.01148 -2.61345 0
M  V30 7455 H 737.239 -4.70473 -3.72042 0
M  V30 7456 H 738.918 -5.29906 -3.71226 0
M  V30 7457 N 739.05 0.861098 -1.31996 0
M  V30 7458 C 739.98 1.98482 -1.22993 0
M  V30 7459 C 740.961 1.6971 -0.115168 0
M  V30 7460 O 742.146 1.91849 -0.30126 0
M  V30 7461 C 739.276 3.34179 -0.945615 0
M  V30 7462 C 738.23 3.77284 -2.02091 0
M  V30 7463 C 737.556 5.1054 -1.58912 0
M  V30 7464 C 738.856 3.93439 -3.43515 0
M  V30 7465 H 740.55 2.06271 -2.17008 0
M  V30 7466 H 738.096 0.991043 -1.04472 0
M  V30 7467 H 740.049 4.12338 -0.869206 0
M  V30 7468 H 738.773 3.26586 0.0301849 0
M  V30 7469 H 737.432 3.01371 -2.08737 0
M  V30 7470 H 737.08 4.99397 -0.600942 0
M  V30 7471 H 736.78 5.40352 -2.30854 0
M  V30 7472 H 738.304 5.91199 -1.52696 0
M  V30 7473 H 739.718 4.6197 -3.39495 0
M  V30 7474 H 738.115 4.34661 -4.13751 0
M  V30 7475 H 739.185 2.96548 -3.8365 0
M  V30 7476 N 740.528 1.15101 1.07655 0
M  V30 7477 C 741.805 0.834578 1.76902 0
M  V30 7478 C 742.185 -0.670431 2.00171 0
M  V30 7479 O 741.533 -1.61378 1.6177 0
M  V30 7480 C 741.743 1.64191 3.07965 0
M  V30 7481 C 743.091 1.84615 3.82364 0
M  V30 7482 O 744.115 1.60941 3.17768 0
M  V30 7483 O 742.974 2.24244 4.98374 0
M  V30 7484 H 740.068 0.306608 0.768063 0
M  V30 7485 H 742.614 1.25663 1.14048 0
M  V30 7486 H 741.386 2.66386 2.86626 0
M  V30 7487 H 741.009 1.216 3.78549 0
M  V30 7488 N 742.006 -1.2595 0.947325 0
M  V30 7489 C 743.422 -1.45737 0.650597 0
M  V30 7490 C 743.622 -1.85189 -0.794188 0
M  V30 7491 O 742.678 -1.97738 -1.57022 0
M  V30 7492 C 743.991 -2.53505 1.61728 0
M  V30 7493 C 745.539 -2.67351 1.62765 0
M  V30 7494 C 746.014 -3.78296 2.58179 0
M  V30 7495 N 747.505 -3.85696 2.56501 0
M  V30 7496 C 748.24 -4.71012 3.2701 0
M  V30 7497 N 747.736 -5.60669 4.06966 0
M  V30 7498 N 749.529 -4.64912 3.15932 0
M  V30 7499 H 741.68 -0.986327 1.8811 0
M  V30 7500 H 743.943 -0.494639 0.808725 0
M  V30 7501 H 743.649 -2.31357 2.6489 0
M  V30 7502 H 743.523 -3.51281 1.3741 0
M  V30 7503 H 745.91 -2.88869 0.603241 0
M  V30 7504 H 745.991 -1.69998 1.91139 0
M  V30 7505 H 745.635 -3.5753 3.60742 0
M  V30 7506 H 745.565 -4.75117 2.27093 0
M  V30 7507 H 748.056 -3.21601 1.98447 0
M  V30 7508 H 748.369 -6.22677 4.57704 0
M  V30 7509 H 746.714 -5.60402 4.11066 0
M  V30 7510 H 749.905 -3.93874 2.52945 0
M  V30 7511 H 750.078 -5.3118 3.71149 0
M  V30 7512 N 743.484 -0.715051 -1.40445 0
M  V30 7513 C 744.447 -0.0708726 -2.2909 0
M  V30 7514 C 745.447 0.687926 -1.45342 0
M  V30 7515 O 746.637 0.519908 -1.66261 0
M  V30 7516 C 743.769 0.909528 -3.28543 0
M  V30 7517 H 744.962 -0.851611 -2.87555 0
M  V30 7518 H 742.515 -0.479674 -1.48758 0
M  V30 7519 H 743.25 1.71734 -2.75096 0
M  V30 7520 H 743.035 0.368318 -3.90366 0
M  V30 7521 H 744.525 1.35744 -3.94922 0
M  V30 7522 N 744.962 1.50701 -0.461195 0
M  V30 7523 C 745.895 2.24948 0.383863 0
M  V30 7524 C 746.873 1.27851 1.00464 0
M  V30 7525 O 748.057 1.57049 1.04249 0
M  V30 7526 C 745.184 3.01818 1.537 0
M  V30 7527 C 744.23 4.13762 1.03457 0
M  V30 7528 S 745.063 5.35483 -0.0427485 0
M  V30 7529 C 746.219 6.15898 1.11449 0
M  V30 7530 H 746.452 2.96277 -0.246425 0
M  V30 7531 H 743.985 1.52428 -0.245961 0
M  V30 7532 H 745.943 3.467 2.19794 0
M  V30 7533 H 744.604 2.30034 2.13877 0
M  V30 7534 H 743.797 4.66914 1.89757 0
M  V30 7535 H 743.399 3.71265 0.4515 0
M  V30 7536 H 745.691 6.46431 2.02813 0
M  V30 7537 H 746.634 7.05359 0.622444 0
M  V30 7538 H 747.042 5.47777 1.36385 0
M  V30 7539 N 746.441 0.193421 1.56409 0
M  V30 7540 C 747.718 -0.493318 1.89277 0
M  V30 7541 C 748.098 -1.79765 1.10669 0
M  V30 7542 O 747.446 -2.27558 0.207274 0
M  V30 7543 C 747.656 -0.713732 3.41624 0
M  V30 7544 C 749.004 -1.03385 4.11821 0
M  V30 7545 O 750.028 -0.801511 3.47065 0
M  V30 7546 O 748.887 -1.47327 5.26267 0
M  V30 7547 H 745.981 -0.256973 0.786062 0
M  V30 7548 H 748.527 0.23351 1.68086 0
M  V30 7549 H 747.299 0.207446 3.9075 0
M  V30 7550 H 746.922 -1.49308 3.68501 0
M  V30 7551 N 747.919 -1.57396 -0.0801906 0
M  V30 7552 C 748.866 -2.03107 -1.09618 0
M  V30 7553 C 749.836 -0.910118 -1.38946 0
M  V30 7554 O 751.021 -1.17719 -1.50156 0
M  V30 7555 C 748.161 -2.47293 -2.40708 0
M  V30 7556 C 747.274 -3.72972 -2.17982 0
M  V30 7557 C 746.409 -4.05975 -3.42576 0
M  V30 7558 C 745.448 -5.24719 -3.15177 0
M  V30 7559 N 744.585 -5.53401 -4.32078 0
M  V30 7560 H 749.425 -2.89677 -0.69939 0
M  V30 7561 H 746.962 -1.43263 -0.333785 0
M  V30 7562 H 748.92 -2.7096 -3.17232 0
M  V30 7563 H 747.55 -1.63713 -2.78205 0
M  V30 7564 H 746.602 -3.56693 -1.32189 0
M  V30 7565 H 747.914 -4.59638 -1.93738 0
M  V30 7566 H 747.068 -4.30498 -4.275 0
M  V30 7567 H 745.807 -3.17859 -3.69887 0
M  V30 7568 H 744.812 -5 -2.28648 0
M  V30 7569 H 746.037 -6.14445 -2.89197 0
M  V30 7570 H 743.983 -4.68245 -4.59437 0
M  V30 7571 H 743.9 -6.34469 -4.11078 0
M  V30 7572 H 745.168 -5.8247 -5.18024 0
M  V30 7573 N 749.397 0.351382 -1.53633 0
M  V30 7574 C 750.327 1.43688 -1.84055 0
M  V30 7575 C 751.308 1.55251 -0.695073 0
M  V30 7576 O 752.493 1.69587 -0.946257 0
M  V30 7577 C 749.623 2.80843 -2.04315 0
M  V30 7578 C 748.577 2.84094 -3.20117 0
M  V30 7579 C 747.903 4.2406 -3.25696 0
M  V30 7580 C 749.203 2.50334 -4.58399 0
M  V30 7581 H 750.897 1.18478 -2.74961 0
M  V30 7582 H 748.443 0.568509 -1.32303 0
M  V30 7583 H 750.396 3.56821 -2.2418 0
M  V30 7584 H 749.12 3.07471 -1.10132 0
M  V30 7585 H 747.779 2.10568 -3.00094 0
M  V30 7586 H 747.427 4.47785 -2.29123 0
M  V30 7587 H 747.127 4.27147 -4.03509 0
M  V30 7588 H 748.651 5.0189 -3.47762 0
M  V30 7589 H 750.065 3.16025 -4.78332 0
M  V30 7590 H 748.462 2.64717 -5.38558 0
M  V30 7591 H 749.532 1.45542 -4.62543 0
M  V30 7592 N 750.875 1.45233 0.611969 0
M  V30 7593 C 751.785 1.56098 1.7513 0
M  V30 7594 C 752.801 0.445646 1.68196 0
M  V30 7595 O 753.977 0.705718 1.88631 0
M  V30 7596 C 751.042 1.52052 3.11579 0
M  V30 7597 C 750.103 2.74589 3.29999 0
M  V30 7598 C 749.336 2.70726 4.59938 0
M  V30 7599 O 749.559 1.77806 5.41979 0
M  V30 7600 O 748.493 3.61864 4.80976 0
M  V30 7601 H 752.319 2.52392 1.68914 0
M  V30 7602 H 749.904 1.27695 0.775528 0
M  V30 7603 H 751.786 1.52387 3.92882 0
M  V30 7604 H 750.461 0.589085 3.18295 0
M  V30 7605 H 749.368 2.79817 2.48301 0
M  V30 7606 H 750.701 3.66843 3.28157 0
M  V30 7607 N 752.353 -0.854086 1.3245 0
M  V30 7608 C 753.764 -1.42427 1.20712 0
M  V30 7609 C 754.115 -1.95371 -0.18013 0
M  V30 7610 O 753.24 -1.87587 -1.07889 0
M  V30 7611 C 753.835 -2.58897 2.18536 0
M  V30 7612 C 752.394 -3.11913 2.10683 0
M  V30 7613 C 751.541 -1.84661 2.06871 0
M  V30 7614 H 754.492 -0.661192 1.4427 0
M  V30 7615 H 754.513 -3.36074 1.78422 0
M  V30 7616 H 754.025 -2.20333 3.19492 0
M  V30 7617 H 752.126 -3.55059 1.12977 0
M  V30 7618 H 752.239 -3.73119 3.00532 0
M  V30 7619 H 750.603 -2.04285 1.52118 0
M  V30 7620 H 751.386 -1.48314 3.09609 0
M  V30 7621 N 753.831 -1.1567 -1.07043 0
M  V30 7622 C 755.059 -0.957471 -1.83412 0
M  V30 7623 C 755.474 0.494271 -1.82215 0
M  V30 7624 O 754.831 1.34288 -1.23584 0
M  V30 7625 C 754.882 -1.46784 -3.30359 0
M  V30 7626 O 754.603 -2.86271 -3.31633 0
M  V30 7627 C 756.104 -1.31054 -4.23485 0
M  V30 7628 H 753.324 -0.33986 -0.578564 0
M  V30 7629 H 755.868 -1.53518 -1.35102 0
M  V30 7630 H 754.023 -0.932586 -3.76007 0
M  V30 7631 H 754.437 -3.0948 -4.23465 0
M  V30 7632 H 755.911 -1.71605 -5.24648 0
M  V30 7633 H 756.388 -0.255107 -4.38458 0
M  V30 7634 H 756.994 -1.83503 -3.83676 0
M  V30 7635 N 755.309 1.25446 -0.953992 0
M  V30 7636 C 756.556 1.93143 -0.608429 0
M  V30 7637 C 756.884 1.74727 0.854451 0
M  V30 7638 O 756.139 1.0855 1.62836 0
M  V30 7639 C 756.438 3.45555 -0.912496 0
M  V30 7640 C 756.104 3.84126 -2.36131 0
M  V30 7641 C 754.766 3.94367 -2.75732 0
M  V30 7642 C 757.118 4.0324 -3.30223 0
M  V30 7643 C 754.446 4.21127 -4.08496 0
M  V30 7644 C 756.798 4.31493 -4.62598 0
M  V30 7645 C 755.462 4.3995 -5.01996 0
M  V30 7646 H 754.732 0.706762 -0.22264 0
M  V30 7647 H 757.379 1.49005 -1.20291 0
M  V30 7648 H 755.684 3.91091 -0.235618 0
M  V30 7649 H 757.381 3.9612 -0.623714 0
M  V30 7650 H 753.971 3.76711 -2.04418 0
M  V30 7651 H 758.155 3.94744 -3.00817 0
M  V30 7652 H 753.411 4.2589 -4.38665 0
M  V30 7653 H 757.585 4.45227 -5.35486 0
M  V30 7654 H 755.212 4.60439 -6.04896 0
M  V30 7655 N 756.787 0.722489 1.40064 0
M  V30 7656 C 757.697 0.0755984 2.34478 0
M  V30 7657 C 758.713 -0.736046 1.57665 0
M  V30 7658 O 759.889 -0.667407 1.9002 0
M  V30 7659 C 756.954 -0.830075 3.36616 0
M  V30 7660 C 756.015 -0.00759884 4.29299 0
M  V30 7661 C 755.248 -0.870139 5.26559 0
M  V30 7662 O 755.471 -2.10921 5.2997 0
M  V30 7663 O 754.405 -0.305454 6.01124 0
M  V30 7664 H 758.231 0.854545 2.9143 0
M  V30 7665 H 755.816 0.483032 1.41376 0
M  V30 7666 H 757.698 -1.34864 3.99236 0
M  V30 7667 H 756.373 -1.58805 2.82069 0
M  V30 7668 H 755.28 0.556199 3.69942 0
M  V30 7669 H 756.613 0.712312 4.87018 0
M  V30 7670 N 758.265 -1.50454 0.469181 0
M  V30 7671 C 759.49 -2.0722 -0.0864892 0
M  V30 7672 C 759.915 -1.33098 -1.32916 0
M  V30 7673 O 759.273 -0.378084 -1.77314 0
M  V30 7674 C 759.321 -3.58845 -0.355384 0
M  V30 7675 O 758.425 -3.86583 -1.43622 0
M  V30 7676 H 757.766 -0.663889 0.0121414 0
M  V30 7677 H 760.296 -1.93674 0.659674 0
M  V30 7678 H 760.306 -4.03617 -0.596447 0
M  V30 7679 H 758.981 -4.12211 0.552698 0
M  V30 7680 H 757.558 -3.5365 -1.18262 0
M  V30 7681 N 759.743 -0.201713 -1.56304 0
M  V30 7682 C 760.691 0.733133 -2.20744 0
M  V30 7683 C 761.685 1.2148 -1.18064 0
M  V30 7684 O 762.891 1.17692 -1.36193 0
M  V30 7685 H 759.266 0.254789 -0.707521 0
M  V30 7686 H 761.237 0.165996 -2.97938 0
M  V30 7687 C 759.986 1.93925 -2.88597 0
M  V30 7688 H 759.309 1.5777 -3.67353 0
M  V30 7689 H 760.749 2.57158 -3.37114 0
M  V30 7690 C 759.208 2.78219 -1.89989 0
M  V30 7691 O 759.738 3.76353 -1.40432 0
M  V30 7692 N 757.944 2.43847 -1.58072 0
M  V30 7693 H 757.491 1.64103 -1.98565 0
M  V30 7694 H 757.449 3.0053 -0.923524 0
M  V30 7695 N 761.222 1.57436 0.0718424 0
M  V30 7696 C 762.17 2.04725 1.10411 0
M  V30 7697 C 763.164 0.952579 1.4008 0
M  V30 7698 O 764.37 1.13769 1.39487 0
M  V30 7699 H 760.745 0.652749 0.373393 0
M  V30 7700 H 762.716 2.90569 0.679126 0
M  V30 7701 C 761.465 2.5068 2.40946 0
M  V30 7702 H 760.788 3.34505 2.18967 0
M  V30 7703 H 762.228 2.87521 3.11621 0
M  V30 7704 C 760.687 1.38971 3.06902 0
M  V30 7705 O 761.217 0.731786 3.94978 0
M  V30 7706 N 759.423 1.13485 2.67525 0
M  V30 7707 H 758.97 1.67168 1.95991 0
M  V30 7708 H 758.928 0.389467 3.11978 0
M  V30 7709 N 762.7 -0.34323 1.53817 0
M  V30 7710 C 763.61 -1.44493 1.84821 0
M  V30 7711 C 764.626 -1.57556 0.738381 0
M  V30 7712 O 765.802 -1.73026 1.03072 0
M  V30 7713 C 762.867 -2.79478 2.05166 0
M  V30 7714 C 761.928 -2.75756 3.29025 0
M  V30 7715 C 761.161 -4.04302 3.4839 0
M  V30 7716 O 761.384 -5.01595 2.71586 0
M  V30 7717 O 760.318 -4.08754 4.41819 0
M  V30 7718 H 764.144 -1.21209 2.78464 0
M  V30 7719 H 761.729 -0.535437 1.39476 0
M  V30 7720 H 763.611 -3.59419 2.19991 0
M  V30 7721 H 762.286 -3.02692 1.14713 0
M  V30 7722 H 761.193 -1.94434 3.19603 0
M  V30 7723 H 762.526 -2.57495 4.19472 0
M  V30 7724 N 764.178 -1.45556 -0.604258 0
M  V30 7725 C 765.11 -1.50494 -1.72871 0
M  V30 7726 C 766.123 -0.395368 -1.57926 0
M  V30 7727 O 767.312 -0.662603 -1.65746 0
M  V30 7728 C 764.412 -1.34874 -3.10906 0
M  V30 7729 C 763.585 -2.59564 -3.52058 0
M  V30 7730 C 762.644 -2.38453 -4.6907 0
M  V30 7731 O 761.67 -3.12082 -4.76018 0
M  V30 7732 N 762.872 -1.43229 -5.62553 0
M  V30 7733 H 765.637 -2.4744 -1.69097 0
M  V30 7734 H 763.198 -1.41338 -0.789636 0
M  V30 7735 H 765.19 -1.18556 -3.86945 0
M  V30 7736 H 763.76 -0.461913 -3.09168 0
M  V30 7737 H 762.98 -2.90974 -2.65946 0
M  V30 7738 H 764.268 -3.42441 -3.76313 0
M  V30 7739 H 763.666 -0.824714 -5.59656 0
M  V30 7740 H 762.223 -1.32882 -6.38111 0
M  V30 7741 N 765.656 0.84705 -1.32902 0
M  V30 7742 C 766.884 1.63403 -1.26913 0
M  V30 7743 C 767.299 1.88108 0.161483 0
M  V30 7744 O 766.656 1.45546 1.10103 0
M  V30 7745 C 766.707 2.98896 -2.03331 0
M  V30 7746 O 766.428 2.75281 -3.40811 0
M  V30 7747 C 767.929 3.93335 -2.04457 0
M  V30 7748 H 765.149 0.508701 -0.437566 0
M  V30 7749 H 767.693 1.05567 -1.75145 0
M  V30 7750 H 765.848 3.53356 -1.58802 0
M  V30 7751 H 766.262 3.61504 -3.8002 0
M  V30 7752 H 767.736 4.85647 -2.62394 0
M  V30 7753 H 768.213 4.26885 -1.03274 0
M  V30 7754 H 768.819 3.44812 -2.48967 0
M  V30 7755 N 767.134 1.16236 1.06428 0
M  V30 7756 C 768.383 0.937523 1.78587 0
M  V30 7757 C 768.696 -0.536 1.88113 0
M  V30 7758 O 769.902 -0.878697 2.56887 0
M  V30 7759 C 768.358 1.62808 3.2097 0
M  V30 7760 C 767.966 3.13927 3.19615 0
M  V30 7761 C 769.71 1.48515 3.97673 0
M  V30 7762 C 767.617 3.75727 4.56709 0
M  V30 7763 H 766.547 0.347125 0.669343 0
M  V30 7764 H 769.198 1.39353 1.19385 0
M  V30 7765 H 767.58 1.09977 3.80422 0
M  V30 7766 H 768.754 3.7359 2.69753 0
M  V30 7767 H 767.069 3.28089 2.56411 0
M  V30 7768 H 769.666 1.92069 4.99013 0
M  V30 7769 H 770.009 0.433913 4.14032 0
M  V30 7770 H 770.542 1.98494 3.44739 0
M  V30 7771 H 767.281 4.80793 4.45554 0
M  V30 7772 H 766.801 3.20849 5.0677 0
M  V30 7773 H 768.48 3.77203 5.25668 0
M  V30 7774 N 768.612 -1.24939 0.960631 0
M  V30 7775 C 769.545 -2.24116 0.429804 0
M  V30 7776 C 770.523 -1.54972 -0.492188 0
M  V30 7777 O 771.707 -1.83642 -0.42519 0
M  V30 7778 C 768.834 -3.36558 -0.380312 0
M  V30 7779 C 767.88 -4.23757 0.482941 0
M  V30 7780 S 768.713 -4.9994 1.91885 0
M  V30 7781 C 769.869 -6.15846 1.11732 0
M  V30 7782 H 770.102 -2.68795 1.27029 0
M  V30 7783 H 767.635 -1.34108 0.765141 0
M  V30 7784 H 769.593 -4.01777 -0.841764 0
M  V30 7785 H 768.254 -2.90451 -1.19569 0
M  V30 7786 H 767.447 -5.03809 -0.138699 0
M  V30 7787 H 767.049 -3.63504 0.879839 0
M  V30 7788 H 769.341 -6.76495 0.368898 0
M  V30 7789 H 770.284 -6.82356 1.89198 0
M  V30 7790 H 770.692 -5.60805 0.644812 0
M  V30 7791 N 770.09 -0.729906 -1.39679 0
M  V30 7792 C 771.318 -0.285709 -2.04918 0
M  V30 7793 C 771.733 1.07765 -1.55023 0
M  V30 7794 O 771.09 1.67999 -0.712923 0
M  V30 7795 C 771.141 -0.272793 -3.60469 0
M  V30 7796 O 770.862 -1.58233 -4.08527 0
M  V30 7797 C 772.363 0.188199 -4.429 0
M  V30 7798 H 769.583 -0.125758 -0.65911 0
M  V30 7799 H 772.127 -0.992129 -1.78821 0
M  V30 7800 H 770.282 0.384699 -3.85485 0
M  V30 7801 H 770.696 -1.49245 -5.02818 0
M  V30 7802 H 772.17 0.14608 -5.51807 0
M  V30 7803 H 772.647 1.2326 -4.21549 0
M  V30 7804 H 773.253 -0.439541 -4.23023 0
M  V30 7805 N 771.568 1.50203 -0.477153 0
M  V30 7806 C 772.501 2.25343 0.359983 0
M  V30 7807 C 773.479 1.28909 0.991022 0
M  V30 7808 O 774.663 1.58146 1.02578 0
M  V30 7809 C 771.79 3.03431 1.5049 0
M  V30 7810 C 770.836 4.14836 0.99063 0
M  V30 7811 S 771.669 5.35407 -0.0995413 0
M  V30 7812 C 772.825 6.17045 1.04911 0
M  V30 7813 H 773.058 2.95999 -0.277836 0
M  V30 7814 H 770.591 1.52159 -0.262115 0
M  V30 7815 H 772.549 3.49012 2.16105 0
M  V30 7816 H 771.21 2.32289 2.11425 0
M  V30 7817 H 770.403 4.689 1.84794 0
M  V30 7818 H 770.005 3.71723 0.412097 0
M  V30 7819 H 772.297 6.48546 1.95946 0
M  V30 7820 H 773.24 7.05979 0.547596 0
M  V30 7821 H 773.648 5.49193 1.30567 0
M  V30 7822 N 773.046 0.209999 1.56195 0
M  V30 7823 C 773.976 -0.699746 2.22769 0
M  V30 7824 C 774.957 -1.20993 1.1956 0
M  V30 7825 O 776.142 -1.25605 1.48112 0
M  V30 7826 C 773.272 -1.91302 2.89863 0
M  V30 7827 C 772.226 -1.53715 3.99444 0
M  V30 7828 C 771.552 -2.82826 4.53777 0
M  V30 7829 C 772.852 -0.735836 5.17091 0
M  V30 7830 H 774.546 -0.144716 2.9905 0
M  V30 7831 H 772.092 -0.0681645 1.43839 0
M  V30 7832 H 774.045 -2.5548 3.35124 0
M  V30 7833 H 772.769 -2.49283 2.11011 0
M  V30 7834 H 771.428 -0.918892 3.54897 0
M  V30 7835 H 771.076 -3.38927 3.71669 0
M  V30 7836 H 770.776 -2.58415 5.27727 0
M  V30 7837 H 772.3 -3.47966 5.01749 0
M  V30 7838 H 773.714 -1.28105 5.58804 0
M  V30 7839 H 772.111 -0.589272 5.972 0
M  V30 7840 H 773.181 0.260004 4.84202 0
M  V30 7841 N 774.524 -1.57472 -0.0634922 0
M  V30 7842 C 775.456 -2.00999 -1.10145 0
M  V30 7843 C 776.469 -0.917219 -1.34503 0
M  V30 7844 O 777.658 -1.19501 -1.32596 0
M  V30 7845 C 774.758 -2.34089 -2.45063 0
M  V30 7846 C 773.931 -3.65317 -2.40546 0
M  V30 7847 C 772.99 -3.85982 -3.57637 0
M  V30 7848 O 772.016 -4.5747 -3.38689 0
M  V30 7849 N 773.218 -3.28971 -4.78287 0
M  V30 7850 H 775.983 -2.90656 -0.730714 0
M  V30 7851 H 773.544 -1.59926 -0.252017 0
M  V30 7852 H 775.536 -2.4508 -3.22053 0
M  V30 7853 H 774.106 -1.50279 -2.74107 0
M  V30 7854 H 773.326 -3.65003 -1.48885 0
M  V30 7855 H 774.614 -4.51468 -2.34636 0
M  V30 7856 H 774.012 -2.70962 -4.96584 0
M  V30 7857 H 772.569 -3.45398 -5.5276 0
M  V30 7858 N 776.003 0.335068 -1.53997 0
M  V30 7859 C 777.414 0.910191 -1.6301 0
M  V30 7860 C 777.765 1.89271 -0.516809 0
M  V30 7861 O 776.89 2.13516 0.352123 0
M  V30 7862 C 777.485 1.65761 -2.9548 0
M  V30 7863 C 776.044 2.18163 -3.06728 0
M  V30 7864 C 775.191 1.00338 -2.5851 0
M  V30 7865 H 778.142 0.112965 -1.58297 0
M  V30 7866 H 778.163 2.52107 -2.84995 0
M  V30 7867 H 777.675 0.94227 -3.76488 0
M  V30 7868 H 775.776 2.92847 -2.30372 0
M  V30 7869 H 775.889 2.43952 -4.1234 0
M  V30 7870 H 774.253 1.37925 -2.14124 0
M  V30 7871 H 775.036 0.30254 -3.41964 0
M  V30 7872 N 777.481 1.45874 0.596531 0
M  V30 7873 C 778.897 1.30524 0.918459 0
M  V30 7874 C 779.097 0.266429 1.99731 0
M  V30 7875 O 778.153 -0.335809 2.50257 0
M  V30 7876 C 779.466 2.68747 1.3489 0
M  V30 7877 C 781.014 2.7673 1.46251 0
M  V30 7878 C 781.489 4.15504 1.92667 0
M  V30 7879 N 782.98 4.17853 1.99883 0
M  V30 7880 C 783.715 5.22109 2.37044 0
M  V30 7881 N 783.211 6.36704 2.73094 0
M  V30 7882 N 785.004 5.09471 2.37479 0
M  V30 7883 H 777.155 2.12081 -0.116368 0
M  V30 7884 H 779.418 0.947941 0.0106033 0
M  V30 7885 H 779.124 3.46006 0.630288 0
M  V30 7886 H 778.998 2.97942 2.31323 0
M  V30 7887 H 781.385 1.99768 2.17202 0
M  V30 7888 H 781.466 2.51236 0.481054 0
M  V30 7889 H 781.11 4.92956 1.223 0
M  V30 7890 H 781.04 4.38396 2.91747 0
M  V30 7891 H 783.531 3.35163 1.74568 0
M  V30 7892 H 783.844 7.12041 3.00362 0
M  V30 7893 H 782.189 6.40087 2.70764 0
M  V30 7894 H 785.38 4.18987 2.08728 0
M  V30 7895 H 785.553 5.90837 2.66112 0
M  V30 7896 N 778.959 -0.83999 1.33349 0
M  V30 7897 C 780.189 -1.62492 1.27593 0
M  V30 7898 C 780.597 -1.88559 -0.155597 0
M  V30 7899 O 779.94 -1.46537 -1.10782 0
M  V30 7900 C 780.002 -2.99984 1.98116 0
M  V30 7901 C 779.666 -2.96892 3.47425 0
M  V30 7902 C 780.663 -2.72688 4.42648 0
M  V30 7903 C 778.348 -3.17063 3.89585 0
M  V30 7904 C 780.342 -2.68681 5.78004 0
M  V30 7905 C 778.029 -3.12682 5.25046 0
M  V30 7906 C 779.027 -2.88522 6.19067 0
M  V30 7907 O 778.715 -2.84042 7.52047 0
M  V30 7908 H 778.447 -0.512358 0.440982 0
M  V30 7909 H 781.001 -1.0545 1.76265 0
M  V30 7910 H 779.231 -3.58875 1.44034 0
M  V30 7911 H 780.92 -3.6084 1.85875 0
M  V30 7912 H 781.686 -2.56856 4.114 0
M  V30 7913 H 777.565 -3.34889 3.16813 0
M  V30 7914 H 781.109 -2.49743 6.51363 0
M  V30 7915 H 777.006 -3.28063 5.55918 0
M  V30 7916 H 777.774 -2.99892 7.61582 0
M  V30 7917 N 780.437 -1.16799 -1.0581 0
M  V30 7918 C 781.662 -0.977402 -1.82925 0
M  V30 7919 C 782.087 0.469514 -1.82146 0
M  V30 7920 O 781.445 1.33576 -1.22585 0
M  V30 7921 C 781.493 -1.51543 -3.27211 0
M  V30 7922 O 780.597 -0.725021 -4.05977 0
M  V30 7923 H 779.938 -0.347474 -0.565825 0
M  V30 7924 H 782.468 -1.55151 -1.33376 0
M  V30 7925 H 782.478 -1.53502 -3.78023 0
M  V30 7926 H 781.153 -2.56872 -3.27093 0
M  V30 7927 H 779.73 -0.77634 -3.64729 0
M  V30 7928 N 781.915 1.24427 -0.967243 0
M  V30 7929 C 782.862 2.25398 -0.496419 0
M  V30 7930 C 783.832 1.59667 0.457781 0
M  V30 7931 O 785.017 1.87213 0.368246 0
M  V30 7932 C 782.157 3.44474 0.207693 0
M  V30 7933 C 781.27 4.24804 -0.785221 0
M  V30 7934 C 780.405 5.31169 -0.0572631 0
M  V30 7935 C 779.444 6.03195 -1.04027 0
M  V30 7936 N 778.581 7.01265 -0.34235 0
M  V30 7937 H 783.421 2.65039 -1.36229 0
M  V30 7938 H 780.958 1.30288 -0.682902 0
M  V30 7939 H 782.916 4.12376 0.632612 0
M  V30 7940 H 781.546 3.05672 1.03752 0
M  V30 7941 H 780.598 3.56445 -1.32858 0
M  V30 7942 H 781.91 4.74599 -1.53483 0
M  V30 7943 H 781.064 6.05205 0.425674 0
M  V30 7944 H 779.803 4.8228 0.725047 0
M  V30 7945 H 778.808 5.27964 -1.53409 0
M  V30 7946 H 780.033 6.54173 -1.82302 0
M  V30 7947 H 777.979 6.54648 0.420993 0
M  V30 7948 H 777.896 7.48939 -1.03084 0
M  V30 7949 H 779.164 7.7941 0.118634 0
M  V30 7950 N 783.393 0.737304 1.3929 0
M  V30 7951 C 784.64 0.286257 2.00467 0
M  V30 7952 C 784.968 -1.1272 1.58507 0
M  V30 7953 O 784.223 -1.7832 0.806257 0
M  V30 7954 C 784.522 0.338438 3.55794 0
M  V30 7955 C 784.188 1.70524 4.17411 0
M  V30 7956 C 782.85 2.07934 4.33955 0
M  V30 7957 C 785.202 2.60256 4.51571 0
M  V30 7958 C 782.53 3.34578 4.81948 0
M  V30 7959 C 784.882 3.86275 5.00974 0
M  V30 7960 C 783.546 4.23774 5.15725 0
M  V30 7961 H 782.816 0.104749 0.733559 0
M  V30 7962 H 785.463 0.944598 1.66582 0
M  V30 7963 H 783.768 -0.403478 3.89717 0
M  V30 7964 H 785.465 -0.0287255 4.0099 0
M  V30 7965 H 782.055 1.40439 4.04938 0
M  V30 7966 H 786.239 2.32624 4.38406 0
M  V30 7967 H 781.495 3.63572 4.91554 0
M  V30 7968 H 785.669 4.5596 5.26378 0
M  V30 7969 H 783.296 5.21972 5.52674 0
M  V30 7970 N 784.871 -1.49948 0.485112 0
M  V30 7971 C 786.287 -1.58984 0.140096 0
M  V30 7972 C 786.487 -1.49194 -1.35438 0
M  V30 7973 O 785.543 -1.35765 -2.12894 0
M  V30 7974 C 786.856 -2.92372 0.702769 0
M  V30 7975 C 788.404 -3.05801 0.66745 0
M  V30 7976 C 788.879 -4.41785 1.20791 0
M  V30 7977 N 790.37 -4.48234 1.16792 0
M  V30 7978 C 791.105 -5.51871 1.55646 0
M  V30 7979 N 790.601 -6.62692 2.02016 0
M  V30 7980 N 792.394 -5.42494 1.47161 0
M  V30 7981 H 784.545 -1.54555 1.45693 0
M  V30 7982 H 786.808 -0.731206 0.603359 0
M  V30 7983 H 786.514 -3.05056 1.75025 0
M  V30 7984 H 786.388 -3.76885 0.154205 0
M  V30 7985 H 788.775 -2.92757 -0.371157 0
M  V30 7986 H 788.856 -2.23011 1.25298 0
M  V30 7987 H 788.5 -4.55579 2.24522 0
M  V30 7988 H 788.43 -5.23188 0.598464 0
M  V30 7989 H 790.921 -3.68718 0.827982 0
M  V30 7990 H 791.234 -7.3785 2.29775 0
M  V30 7991 H 789.579 -6.63775 2.05979 0
M  V30 7992 H 792.77 -4.54806 1.10765 0
M  V30 7993 H 792.943 -6.2314 1.77766 0
M  V30 7994 N 786.349 -0.21828 -1.56081 0
M  V30 7995 C 787.574 0.422302 -2.03055 0
M  V30 7996 C 787.999 1.5279 -1.09713 0
M  V30 7997 O 787.357 1.81102 -0.0847187 0
M  V30 7998 C 787.405 0.934177 -3.48289 0
M  V30 7999 O 786.509 2.04574 -3.58083 0
M  V30 8000 H 785.85 0.0959764 -0.657027 0
M  V30 8001 H 788.38 -0.335958 -2.01823 0
M  V30 8002 H 788.39 1.24484 -3.88546 0
M  V30 8003 H 787.065 0.124963 -4.15712 0
M  V30 8004 H 785.642 1.74196 -3.29712 0
M  V30 8005 N 787.827 1.57504 0.0551401 0
M  V30 8006 C 788.757 2.07864 1.06372 0
M  V30 8007 C 789.738 0.975565 1.39344 0
M  V30 8008 O 790.923 1.24929 1.48682 0
M  V30 8009 C 788.053 2.53643 2.3724 0
M  V30 8010 C 787.007 3.67978 2.18578 0
M  V30 8011 C 786.333 3.9987 3.54976 0
M  V30 8012 C 787.633 4.97405 1.59329 0
M  V30 8013 H 789.327 2.92379 0.644595 0
M  V30 8014 H 786.873 1.40654 0.308619 0
M  V30 8015 H 788.826 2.8749 3.08103 0
M  V30 8016 H 787.55 1.66177 2.81163 0
M  V30 8017 H 786.209 3.3444 1.50152 0
M  V30 8018 H 785.857 3.0951 3.965 0
M  V30 8019 H 785.557 4.76867 3.43324 0
M  V30 8020 H 787.081 4.36228 4.27244 0
M  V30 8021 H 788.495 5.29375 2.20078 0
M  V30 8022 H 786.892 5.78837 1.58327 0
M  V30 8023 H 787.962 4.81697 0.55638 0
M  V30 8024 N 789.305 -0.326896 1.54172 0
M  V30 8025 C 790.235 -1.40741 1.86317 0
M  V30 8026 C 791.216 -1.54125 0.719684 0
M  V30 8027 O 792.401 -1.6806 0.973117 0
M  V30 8028 C 789.531 -2.77557 2.08757 0
M  V30 8029 C 788.485 -2.78965 3.24596 0
M  V30 8030 C 787.811 -4.18824 3.32401 0
M  V30 8031 C 789.111 -2.4301 4.62324 0
M  V30 8032 H 790.805 -1.14088 2.76811 0
M  V30 8033 H 788.351 -0.547389 1.3319 0
M  V30 8034 H 790.304 -3.53209 2.29829 0
M  V30 8035 H 789.028 -3.0568 1.15009 0
M  V30 8036 H 787.687 -2.05767 3.03406 0
M  V30 8037 H 787.335 -4.44083 2.36218 0
M  V30 8038 H 787.035 -4.20673 4.10253 0
M  V30 8039 H 788.559 -4.96294 3.55703 0
M  V30 8040 H 789.973 -3.08375 4.83299 0
M  V30 8041 H 788.37 -2.56116 5.42701 0
M  V30 8042 H 789.44 -1.38165 4.64799 0
M  V30 8043 N 790.784 -1.46188 -0.588786 0
M  V30 8044 C 791.694 -1.58865 -1.72624 0
M  V30 8045 C 792.71 -0.472348 -1.67466 0
M  V30 8046 O 793.886 -0.735638 -1.87484 0
M  V30 8047 C 790.951 -1.56989 -3.0912 0
M  V30 8048 C 790.012 -2.79804 -3.25589 0
M  V30 8049 C 789.245 -2.78009 -4.55573 0
M  V30 8050 O 789.468 -1.86406 -5.39082 0
M  V30 8051 O 788.402 -3.6947 -4.75159 0
M  V30 8052 H 792.228 -2.55047 -1.64878 0
M  V30 8053 H 789.813 -1.28912 -0.755115 0
M  V30 8054 H 791.695 -1.58618 -3.90408 0
M  V30 8055 H 790.37 -0.639648 -3.17317 0
M  V30 8056 H 789.277 -2.83732 -2.43818 0
M  V30 8057 H 790.61 -3.72017 -3.22279 0
M  V30 8058 N 792.262 0.832906 -1.33792 0
M  V30 8059 C 793.172 1.97514 -1.26592 0
M  V30 8060 C 794.188 1.73114 -0.175391 0
M  V30 8061 O 795.364 1.97387 -0.400062 0
M  V30 8062 C 792.429 3.31625 -1.01121 0
M  V30 8063 C 791.49 3.69101 -2.19233 0
M  V30 8064 C 790.723 4.96813 -1.94968 0
M  V30 8065 O 790.946 5.63208 -0.902955 0
M  V30 8066 O 789.88 5.31932 -2.8166 0
M  V30 8067 H 793.706 2.0653 -2.22664 0
M  V30 8068 H 791.291 0.966826 -1.13898 0
M  V30 8069 H 793.173 4.11968 -0.886571 0
M  V30 8070 H 791.848 3.23599 -0.080822 0
M  V30 8071 H 790.755 2.89243 -2.37253 0
M  V30 8072 H 792.088 3.818 -3.10628 0
M  V30 8073 N 793.74 1.17359 1.05189 0
M  V30 8074 C 794.968 0.986529 1.81866 0
M  V30 8075 C 795.383 -0.46522 1.82979 0
M  V30 8076 O 794.74 -1.32305 1.25705 0
M  V30 8077 C 794.791 1.52021 3.27982 0
M  V30 8078 O 794.512 2.91511 3.27037 0
M  V30 8079 C 796.013 1.37774 4.21347 0
M  V30 8080 H 793.233 0.349021 0.573084 0
M  V30 8081 H 795.777 1.55648 1.32643 0
M  V30 8082 H 793.932 0.992287 3.74476 0
M  V30 8083 H 794.346 3.16178 4.18488 0
M  V30 8084 H 795.82 1.7993 5.21852 0
M  V30 8085 H 796.297 0.32483 4.37997 0
M  V30 8086 H 796.903 1.89583 3.80708 0
M  V30 8087 N 795.218 -1.23913 0.973828 0
M  V30 8088 C 796.166 -2.27141 0.50098 0
M  V30 8089 C 797.16 -1.63623 -0.438631 0
M  V30 8090 O 798.366 -1.77253 -0.313247 0
M  V30 8091 H 794.741 -0.73817 0.14356 0
M  V30 8092 H 796.712 -2.64392 1.38346 0
M  V30 8093 C 795.461 -3.47195 -0.187377 0
M  V30 8094 H 794.784 -3.96318 0.526535 0
M  V30 8095 H 796.224 -4.21252 -0.481962 0
M  V30 8096 C 794.683 -3.05678 -1.41642 0
M  V30 8097 O 795.213 -3.1338 -2.51309 0
M  V30 8098 N 793.419 -2.60661 -1.28469 0
M  V30 8099 H 792.966 -2.54594 -0.39238 0
M  V30 8100 H 792.924 -2.33249 -2.10813 0
M  V30 8101 N 796.696 -0.74468 -1.38897 0
M  V30 8102 C 797.626 -0.126355 -2.33158 0
M  V30 8103 C 798.607 0.713517 -1.54412 0
M  V30 8104 O 799.792 0.656523 -1.82766 0
M  V30 8105 C 796.922 0.774375 -3.38557 0
M  V30 8106 C 795.876 0.0379214 -4.27983 0
M  V30 8107 C 795.202 1.05631 -5.24162 0
M  V30 8108 C 796.502 -1.12523 -5.10035 0
M  V30 8109 H 798.196 -0.913744 -2.85116 0
M  V30 8110 H 795.742 -0.440847 -1.37086 0
M  V30 8111 H 797.695 1.21655 -4.03458 0
M  V30 8112 H 796.419 1.59399 -2.85061 0
M  V30 8113 H 795.078 -0.384733 -3.64576 0
M  V30 8114 H 794.726 1.86975 -4.66958 0
M  V30 8115 H 794.426 0.568261 -5.84846 0
M  V30 8116 H 795.95 1.49799 -5.9194 0
M  V30 8117 H 797.364 -0.761037 -5.68226 0
M  V30 8118 H 795.761 -1.54355 -5.79909 0
M  V30 8119 H 796.831 -1.94237 -4.44297 0
M  V30 8120 N 798.174 1.49689 -0.493057 0
M  V30 8121 C 799.422 2.02027 0.0541642 0
M  V30 8122 C 799.743 1.37554 1.38217 0
M  V30 8123 O 799.013 0.528174 1.88646 0
M  V30 8124 H 797.593 0.746646 0.0230069 0
M  V30 8125 H 800.255 1.83795 -0.648489 0
M  V30 8126 H 799.351 3.11523 0.189652 0
M  V30 8127 N 799.652 0.226554 1.55963 0
M  V30 8128 C 800.602 -0.694986 2.1715 0
M  V30 8129 C 801.586 -1.15394 1.12129 0
M  V30 8130 O 802.778 -1.1071 1.38102 0
M  V30 8131 C 799.907 -1.9007 2.85882 0
M  V30 8132 C 798.993 -1.46119 3.98133 0
M  V30 8133 N 799.384 -0.734584 5.00437 0
M  V30 8134 C 797.682 -1.74809 4.10314 0
M  V30 8135 C 798.383 -0.509773 5.79462 0
M  V30 8136 N 797.359 -1.06796 5.33006 0
M  V30 8137 H 801.161 -0.131469 2.93606 0
M  V30 8138 H 798.675 0.0280165 1.62376 0
M  V30 8139 H 800.672 -2.57169 3.28131 0
M  V30 8140 H 799.332 -2.46864 2.10923 0
M  V30 8141 H 800.343 -0.386757 5.16454 0
M  V30 8142 H 797.02 -2.32887 3.46511 0
M  V30 8143 H 798.41 0.0688847 6.71865 0
M  V30 8144 N 801.13 -1.57531 -0.0467866 0
M  V30 8145 C 802.093 -2.04379 -1.03738 0
M  V30 8146 C 803.093 -0.944881 -1.3011 0
M  V30 8147 O 804.283 -1.20904 -1.25411 0
M  V30 8148 C 801.415 -2.44572 -2.37482 0
M  V30 8149 H 802.608 -2.93142 -0.633063 0
M  V30 8150 H 800.161 -1.53526 -0.293177 0
M  V30 8151 H 800.896 -1.58911 -2.82697 0
M  V30 8152 H 800.681 -3.24785 -2.19675 0
M  V30 8153 H 802.171 -2.81307 -3.08636 0
M  V30 8154 N 802.608 0.318715 -1.54344 0
M  V30 8155 C 803.538 1.39751 -1.87061 0
M  V30 8156 C 804.519 1.53741 -0.727848 0
M  V30 8157 O 805.704 1.67541 -0.982016 0
M  V30 8158 C 802.834 2.76446 -2.10226 0
M  V30 8159 C 801.788 2.77239 -3.26071 0
M  V30 8160 C 801.114 4.17056 -3.34617 0
M  V30 8161 C 802.414 2.40555 -4.63606 0
M  V30 8162 H 804.108 1.12619 -2.77412 0
M  V30 8163 H 801.654 0.540318 -1.33479 0
M  V30 8164 H 803.607 3.51985 -2.31699 0
M  V30 8165 H 802.331 3.05066 -1.16629 0
M  V30 8166 H 800.99 2.04155 -3.04493 0
M  V30 8167 H 800.638 4.42824 -2.3857 0
M  V30 8168 H 800.338 4.18492 -4.12478 0
M  V30 8169 H 801.862 4.94401 -3.5833 0
M  V30 8170 H 803.276 3.05808 -4.84927 0
M  V30 8171 H 801.673 2.53234 -5.44052 0
M  V30 8172 H 802.743 1.35698 -4.65526 0
M  V30 8173 N 804.086 1.46499 0.581025 0
M  V30 8174 C 805.363 1.42372 1.34125 0
M  V30 8175 C 805.743 0.108073 2.10823 0
M  V30 8176 O 805.091 -0.910366 2.09582 0
M  V30 8177 C 805.301 2.65445 2.26583 0
M  V30 8178 C 806.649 3.11664 2.88359 0
M  V30 8179 O 807.673 2.66006 2.36896 0
M  V30 8180 O 806.532 3.90974 3.81839 0
M  V30 8181 H 803.626 0.566262 0.602724 0
M  V30 8182 H 806.172 1.58667 0.601903 0
M  V30 8183 H 804.944 3.52756 1.69348 0
M  V30 8184 H 804.567 2.51618 3.07854 0
M  V30 8185 N 805.565 -0.825799 1.34232 0
M  V30 8186 C 806.475 -1.9684 1.27638 0
M  V30 8187 C 807.491 -1.73018 0.184569 0
M  V30 8188 O 808.667 -1.97172 0.410525 0
M  V30 8189 C 805.732 -3.31084 1.02879 0
M  V30 8190 C 804.793 -3.67933 2.21188 0
M  V30 8191 C 804.026 -4.95772 1.976 0
M  V30 8192 O 804.249 -5.62721 0.93281 0
M  V30 8193 O 803.183 -5.30431 2.84477 0
M  V30 8194 H 807.009 -2.05346 2.23756 0
M  V30 8195 H 804.594 -0.960772 1.1441 0
M  V30 8196 H 806.476 -4.11492 0.908406 0
M  V30 8197 H 805.151 -3.23552 0.0979821 0
M  V30 8198 H 804.058 -2.87981 2.38784 0
M  V30 8199 H 805.391 -3.80147 3.12648 0
M  V30 8200 N 807.043 -1.17915 -1.04565 0
M  V30 8201 C 808.32 -0.881187 -1.74627 0
M  V30 8202 C 808.7 0.617123 -2.01878 0
M  V30 8203 O 808.048 1.57032 -1.65991 0
M  V30 8204 C 808.258 -1.72299 -3.03503 0
M  V30 8205 C 809.606 -1.94688 -3.77335 0
M  V30 8206 O 810.63 -1.6931 -3.13389 0
M  V30 8207 O 809.489 -2.37379 -4.92253 0
M  V30 8208 H 806.583 -0.326864 -0.759664 0
M  V30 8209 H 809.129 -1.28642 -1.10676 0
M  V30 8210 H 807.901 -2.73891 -2.79462 0
M  V30 8211 H 807.524 -1.31593 -3.75192 0
M  V30 8212 N 808.521 1.23394 -0.980386 0
M  V30 8213 C 809.769 1.91431 -0.647978 0
M  V30 8214 C 810.09 1.76871 0.821066 0
M  V30 8215 O 809.36 1.14808 1.58732 0
M  V30 8216 H 807.94 0.708516 -0.236673 0
M  V30 8217 H 810.602 1.50019 -1.2442 0
M  V30 8218 H 809.698 2.98854 -0.899592 0
M  V30 8219 N 809.999 0.752036 1.385 0
M  V30 8220 C 811.245 0.307958 2.00448 0
M  V30 8221 C 811.578 -1.10702 1.59558 0
M  V30 8222 O 810.853 -1.75788 0.832391 0
M  V30 8223 C 811.136 0.429092 3.57534 0
M  V30 8224 C 810.989 1.88507 4.08393 0
M  V30 8225 C 812.308 -0.178442 4.39738 0
M  V30 8226 H 809.427 0.113373 0.728228 0
M  V30 8227 H 812.069 0.951389 1.64465 0
M  V30 8228 H 810.219 -0.118695 3.88319 0
M  V30 8229 H 811.891 2.49104 3.88259 0
M  V30 8230 H 810.134 2.40066 3.61318 0
M  V30 8231 H 810.805 1.92099 5.17496 0
M  V30 8232 H 813.281 0.28872 4.15097 0
M  V30 8233 H 812.157 -0.0634349 5.48863 0
M  V30 8234 H 812.418 -1.26655 4.23569 0
M  V30 8235 N 811.477 -1.49425 0.500989 0
M  V30 8236 C 812.725 -2.02053 -0.0434495 0
M  V30 8237 C 813.046 -1.38285 -1.37486 0
M  V30 8238 O 812.316 -0.538171 -1.88363 0
M  V30 8239 H 810.896 -0.746757 -0.0190469 0
M  V30 8240 H 813.558 -1.83449 0.658227 0
M  V30 8241 H 812.654 -3.11619 -0.173129 0
M  V30 8242 N 812.955 -0.234822 -1.55841 0
M  V30 8243 C 814.203 0.392483 -1.98252 0
M  V30 8244 C 814.524 1.59344 -1.12404 0
M  V30 8245 O 813.794 1.94834 -0.204055 0
M  V30 8246 H 812.374 0.147999 -0.732192 0
M  V30 8247 H 815.036 -0.330804 -1.92072 0
M  V30 8248 H 814.132 0.709829 -3.03921 0
M  V30 8249 N 814.433 1.57553 0.0384317 0
M  V30 8250 C 815.844 1.77258 0.586211 0
M  V30 8251 C 816.195 0.864706 1.76117 0
M  V30 8252 O 815.32 0.057141 2.16325 0
M  V30 8253 C 815.915 3.21453 1.07021 0
M  V30 8254 C 814.474 3.42387 1.56358 0
M  V30 8255 C 813.621 2.72801 0.497508 0
M  V30 8256 H 816.572 1.57585 -0.187796 0
M  V30 8257 H 816.593 3.27451 1.93794 0
M  V30 8258 H 816.105 3.87505 0.214851 0
M  V30 8259 H 814.206 2.81497 2.44111 0
M  V30 8260 H 814.319 4.50968 1.61754 0
M  V30 8261 H 812.683 2.36305 0.95038 0
M  V30 8262 H 813.466 3.41529 -0.348234 0
M  V30 8263 N 815.911 -0.310526 1.54511 0
M  V30 8264 C 817.141 -1.06456 1.77061 0
M  V30 8265 C 817.549 -1.81755 0.525528 0
M  V30 8266 O 816.892 -1.76365 -0.513904 0
M  V30 8267 C 816.954 -2.09856 2.91892 0
M  V30 8268 C 816.618 -1.53838 4.30329 0
M  V30 8269 C 817.615 -0.973358 5.10707 0
M  V30 8270 C 815.3 -1.57688 4.76906 0
M  V30 8271 C 817.294 -0.454283 6.35779 0
M  V30 8272 C 814.981 -1.05393 6.01943 0
M  V30 8273 C 815.979 -0.493595 6.81214 0
M  V30 8274 O 815.667 0.0214506 8.03897 0
M  V30 8275 H 815.399 -0.321913 0.594431 0
M  V30 8276 H 817.953 -0.358289 2.02251 0
M  V30 8277 H 816.183 -2.84137 2.62304 0
M  V30 8278 H 817.872 -2.71085 3.02106 0
M  V30 8279 H 818.638 -0.936588 4.75871 0
M  V30 8280 H 814.517 -2.00242 4.1524 0
M  V30 8281 H 818.061 -0.0162657 6.97598 0
M  V30 8282 H 813.958 -1.08782 6.36268 0
M  V30 8283 H 814.726 -0.0927478 8.18447 0
M  V30 8284 N 817.389 -1.46805 -0.573248 0
M  V30 8285 C 818.617 -1.56191 -1.3569 0
M  V30 8286 C 819.032 -0.206362 -1.87669 0
M  V30 8287 O 818.389 0.797883 -1.64134 0
M  V30 8288 C 818.44 -2.57433 -2.53792 0
M  V30 8289 O 818.161 -3.87724 -2.03965 0
M  V30 8290 C 819.662 -2.76851 -3.4622 0
M  V30 8291 H 816.882 -0.527907 -0.414192 0
M  V30 8292 H 819.426 -1.92292 -0.695989 0
M  V30 8293 H 817.581 -2.24311 -3.15854 0
M  V30 8294 H 817.995 -4.42909 -2.80948 0
M  V30 8295 H 819.469 -3.5159 -4.25545 0
M  V30 8296 H 819.946 -1.84095 -3.98755 0
M  V30 8297 H 820.552 -3.11107 -2.89987 0
M  V30 8298 N 818.867 0.818669 -1.34668 0
M  V30 8299 C 820.116 1.57017 -1.26604 0
M  V30 8300 C 820.429 1.94936 0.161036 0
M  V30 8301 O 821.635 2.69051 0.36386 0
M  V30 8302 C 820.091 2.83305 -2.2196 0
M  V30 8303 C 819.699 2.52671 -3.69948 0
M  V30 8304 C 821.443 3.61324 -2.22813 0
M  V30 8305 C 819.35 3.75178 -4.5716 0
M  V30 8306 H 818.28 0.589323 -0.470335 0
M  V30 8307 H 820.931 0.900956 -1.59859 0
M  V30 8308 H 819.313 3.51874 -1.81661 0
M  V30 8309 H 820.487 1.92186 -4.18809 0
M  V30 8310 H 818.802 1.8792 -3.71584 0
M  V30 8311 H 821.399 4.52294 -2.85192 0
M  V30 8312 H 821.742 3.97759 -1.22857 0
M  V30 8313 H 822.275 2.99703 -2.61578 0
M  V30 8314 H 819.014 3.43861 -5.58068 0
M  V30 8315 H 818.534 4.34931 -4.13031 0
M  V30 8316 H 820.213 4.42542 -4.71981 0
M  V30 8317 N 820.346 1.18468 1.03938 0
M  V30 8318 C 821.593 0.980833 1.77161 0
M  V30 8319 C 821.921 -0.489425 1.88242 0
M  V30 8320 O 821.176 -1.37961 1.388 0
M  V30 8321 C 821.475 1.58229 3.20466 0
M  V30 8322 C 821.141 3.07889 3.29416 0
M  V30 8323 C 819.803 3.48737 3.31566 0
M  V30 8324 C 822.155 4.03903 3.29411 0
M  V30 8325 C 819.483 4.84171 3.31355 0
M  V30 8326 C 821.835 5.39253 3.3074 0
M  V30 8327 C 820.499 5.79547 3.31182 0
M  V30 8328 H 819.769 0.358912 0.648277 0
M  V30 8329 H 822.416 1.47552 1.22069 0
M  V30 8330 H 820.721 1.00964 3.78568 0
M  V30 8331 H 822.418 1.39998 3.75768 0
M  V30 8332 H 819.008 2.75335 3.28464 0
M  V30 8333 H 823.192 3.73395 3.2694 0
M  V30 8334 H 818.448 5.14685 3.30015 0
M  V30 8335 H 822.622 6.13417 3.29686 0
M  V30 8336 H 820.249 6.84466 3.30772 0
M  V30 8337 N 821.824 -1.22873 0.986916 0
M  V30 8338 C 823.07 -1.91746 0.660401 0
M  V30 8339 C 823.403 -1.76738 -0.804812 0
M  V30 8340 O 822.678 -1.13246 -1.58131 0
M  V30 8341 C 822.961 -3.44156 1.05966 0
M  V30 8342 C 822.814 -3.68242 2.58298 0
M  V30 8343 C 824.133 -4.35874 0.60842 0
M  V30 8344 H 821.252 -0.696347 0.241391 0
M  V30 8345 H 823.894 -1.44867 1.22937 0
M  V30 8346 H 822.044 -3.84213 0.575534 0
M  V30 8347 H 823.716 -3.37626 3.14335 0
M  V30 8348 H 821.959 -3.12728 3.00638 0
M  V30 8349 H 822.63 -4.74956 2.81285 0
M  V30 8350 H 825.106 -4.03299 1.02417 0
M  V30 8351 H 823.982 -5.41201 0.916142 0
M  V30 8352 H 824.243 -4.39364 -0.491086 0
M  V30 8353 N 823.302 -0.75937 -1.38099 0
M  V30 8354 C 824.713 -0.385078 -1.82686 0
M  V30 8355 C 825.064 1.0871 -1.6333 0
M  V30 8356 O 824.189 1.84084 -1.13762 0
M  V30 8357 C 824.784 -0.692161 -3.31654 0
M  V30 8358 C 823.343 -0.371077 -3.74566 0
M  V30 8359 C 822.49 -0.942375 -2.60796 0
M  V30 8360 H 825.441 -0.955048 -1.26746 0
M  V30 8361 H 825.462 0.0276001 -3.8049 0
M  V30 8362 H 824.974 -1.76369 -3.4571 0
M  V30 8363 H 823.075 0.693637 -3.66087 0
M  V30 8364 H 823.188 -0.870672 -4.71122 0
M  V30 8365 H 821.552 -0.367383 -2.52036 0
M  V30 8366 H 822.335 -2.01905 -2.77649 0
M  V30 8367 N 824.78 1.49157 -0.508906 0
M  V30 8368 C 825.728 2.30922 0.278906 0
M  V30 8369 C 826.722 1.39889 0.955382 0
M  V30 8370 O 827.928 1.56901 0.882169 0
M  V30 8371 H 824.303 0.744087 0.108805 0
M  V30 8372 H 826.274 2.95277 -0.430583 0
M  V30 8373 C 825.023 3.21432 1.32576 0
M  V30 8374 H 824.346 3.91413 0.814634 0
M  V30 8375 H 825.786 3.81568 1.84882 0
M  V30 8376 C 824.245 2.41583 2.34817 0
M  V30 8377 O 824.775 2.1256 3.40854 0
M  V30 8378 N 822.981 2.03462 2.07489 0
M  V30 8379 H 822.528 2.27265 1.21278 0
M  V30 8380 H 822.486 1.50345 2.76123 0
M  V30 8381 N 826.258 0.243083 1.55714 0
M  V30 8382 C 827.206 -0.674349 2.2261 0
M  V30 8383 C 828.2 -1.18307 1.21243 0
M  V30 8384 O 829.406 -1.1404 1.39265 0
M  V30 8385 H 825.781 -0.235941 0.714028 0
M  V30 8386 H 827.752 -0.0869446 2.98273 0
M  V30 8387 C 826.501 -1.86206 2.93637 0
M  V30 8388 H 825.824 -1.47975 3.71407 0
M  V30 8389 H 827.264 -2.4813 3.43813 0
M  V30 8390 C 825.723 -2.73084 1.97298 0
M  V30 8391 O 826.253 -3.72497 1.50361 0
M  V30 8392 N 824.459 -2.39571 1.64482 0
M  V30 8393 H 824.006 -1.5878 2.02846 0
M  V30 8394 H 823.964 -2.97976 1.00288 0
M  V30 8395 N 827.736 -1.57571 -0.0300757 0
M  V30 8396 C 828.646 -2.09892 -1.04798 0
M  V30 8397 C 829.662 -1.03732 -1.39698 0
M  V30 8398 O 830.838 -1.35461 -1.49038 0
M  V30 8399 C 827.903 -2.56707 -2.33028 0
M  V30 8400 C 826.964 -3.77345 -2.04718 0
M  V30 8401 C 826.197 -4.21918 -3.26834 0
M  V30 8402 O 826.42 -3.66025 -4.37472 0
M  V30 8403 O 825.354 -5.14362 -3.12594 0
M  V30 8404 H 829.18 -2.97023 -0.633344 0
M  V30 8405 H 826.765 -1.47344 -0.246991 0
M  V30 8406 H 828.647 -2.87154 -3.08417 0
M  V30 8407 H 827.322 -1.72688 -2.73789 0
M  V30 8408 H 826.229 -3.51919 -1.26901 0
M  V30 8409 H 827.562 -4.62345 -1.68813 0
M  V30 8410 N 829.214 0.302327 -1.54673 0
M  V30 8411 C 830.177 1.35592 -1.8479 0
M  V30 8412 C 831.177 1.43743 -0.72073 0
M  V30 8413 O 832.367 1.43402 -0.989017 0
M  V30 8414 C 829.499 2.74091 -2.02699 0
M  V30 8415 H 830.692 1.10132 -2.78946 0
M  V30 8416 H 828.245 0.538926 -1.46715 0
M  V30 8417 H 828.98 3.04775 -1.10826 0
M  V30 8418 H 828.765 2.69565 -2.8474 0
M  V30 8419 H 830.255 3.50272 -2.27374 0
M  V30 8420 N 830.692 1.47107 0.565454 0
M  V30 8421 C 831.622 1.61846 1.68309 0
M  V30 8422 C 832.603 0.468159 1.63531 0
M  V30 8423 O 833.788 0.696504 1.8128 0
M  V30 8424 C 830.918 1.62474 3.06952 0
M  V30 8425 C 829.872 2.76649 3.26572 0
M  V30 8426 C 829.198 2.62345 4.65917 0
M  V30 8427 C 830.498 4.18319 3.12741 0
M  V30 8428 H 832.192 2.55407 1.5623 0
M  V30 8429 H 829.738 1.22916 0.750179 0
M  V30 8430 H 831.691 1.71378 3.84977 0
M  V30 8431 H 830.415 0.654692 3.19971 0
M  V30 8432 H 829.074 2.67242 2.50952 0
M  V30 8433 H 828.722 1.63386 4.75725 0
M  V30 8434 H 828.422 3.38936 4.79996 0
M  V30 8435 H 829.946 2.73165 5.46089 0
M  V30 8436 H 831.36 4.28745 3.80593 0
M  V30 8437 H 829.757 4.95632 3.38333 0
M  V30 8438 H 830.827 4.37263 2.09592 0
M  V30 8439 N 832.17 -0.811516 1.35101 0
M  V30 8440 C 833.118 -1.94449 1.27642 0
M  V30 8441 C 834.112 -1.68522 0.172287 0
M  V30 8442 O 835.318 -1.76799 0.337967 0
M  V30 8443 H 831.693 -0.638776 0.396824 0
M  V30 8444 H 833.664 -1.97861 2.23369 0
M  V30 8445 C 832.413 -3.31139 1.06029 0
M  V30 8446 H 831.736 -3.51644 1.90227 0
M  V30 8447 H 833.176 -4.10831 1.0485 0
M  V30 8448 C 831.635 -3.36072 -0.236039 0
M  V30 8449 O 832.165 -3.82292 -1.23353 0
M  V30 8450 N 830.371 -2.89314 -0.273107 0
M  V30 8451 H 829.918 -2.51893 0.539211 0
M  V30 8452 H 829.876 -2.92996 -1.1402 0
M  V30 8453 N 833.648 -1.19017 -1.03309 0
M  V30 8454 C 834.596 -0.920627 -2.13605 0
M  V30 8455 C 835.59 0.121969 -1.6896 0
M  V30 8456 O 836.796 -0.0268854 -1.7998 0
M  V30 8457 H 833.171 -0.280284 -0.697814 0
M  V30 8458 H 835.142 -1.85755 -2.33533 0
M  V30 8459 C 833.891 -0.471198 -3.44492 0
M  V30 8460 H 833.214 -1.26499 -3.7926 0
M  V30 8461 H 834.654 -0.321663 -4.22778 0
M  V30 8462 C 833.113 0.81411 -3.26916 0
M  V30 8463 O 833.643 1.87654 -3.55175 0
M  V30 8464 N 831.849 0.769695 -2.80221 0
M  V30 8465 H 831.396 -0.0951278 -2.57424 0
M  V30 8466 H 831.354 1.63008 -2.68842 0
M  V30 8467 N 835.127 1.22348 -0.993418 0
M  V30 8468 C 836.06 2.22898 -0.489073 0
M  V30 8469 C 837.038 1.56222 0.450927 0
M  V30 8470 O 838.222 1.84705 0.376351 0
M  V30 8471 C 835.349 3.37448 0.290946 0
M  V30 8472 C 834.395 4.22328 -0.595123 0
M  V30 8473 S 835.228 4.94677 -2.05072 0
M  V30 8474 C 836.384 6.12667 -1.28021 0
M  V30 8475 H 836.617 2.65333 -1.34111 0
M  V30 8476 H 834.15 1.32032 -0.800429 0
M  V30 8477 H 836.108 4.03867 0.734944 0
M  V30 8478 H 834.769 2.93519 1.11826 0
M  V30 8479 H 833.962 5.04 0.00507413 0
M  V30 8480 H 833.564 3.61043 -0.975906 0
M  V30 8481 H 835.856 6.75279 -0.548129 0
M  V30 8482 H 836.799 6.771 -2.07223 0
M  V30 8483 H 837.207 5.58898 -0.793272 0
M  V30 8484 N 836.605 0.766683 1.37694 0
M  V30 8485 C 837.552 0.147725 2.30327 0
M  V30 8486 C 838.522 -0.695366 1.50844 0
M  V30 8487 O 839.707 -0.64878 1.79431 0
M  V30 8488 C 836.847 -0.72935 3.37305 0
M  V30 8489 C 835.96 0.129795 4.31805 0
M  V30 8490 C 835.095 -0.751511 5.25857 0
M  V30 8491 C 834.134 0.110475 6.12 0
M  V30 8492 N 833.271 -0.728522 6.9831 0
M  V30 8493 H 838.111 0.943204 2.82679 0
M  V30 8494 H 835.648 0.476736 1.3916 0
M  V30 8495 H 837.606 -1.25263 3.97951 0
M  V30 8496 H 836.236 -1.49048 2.86329 0
M  V30 8497 H 835.288 0.770829 3.72508 0
M  V30 8498 H 836.6 0.794923 4.92425 0
M  V30 8499 H 835.754 -1.34146 5.91684 0
M  V30 8500 H 834.493 -1.45034 4.65636 0
M  V30 8501 H 833.498 0.712999 5.45157 0
M  V30 8502 H 834.723 0.806557 6.74293 0
M  V30 8503 H 832.669 -1.41206 6.40622 0
M  V30 8504 H 832.586 -0.12058 7.55904 0
M  V30 8505 H 833.854 -1.30303 7.68532 0
M  V30 8506 N 838.083 -1.48885 0.516809 0
M  V30 8507 C 839.36 -1.95412 -0.0858293 0
M  V30 8508 C 839.74 -1.45875 -1.5259 0
M  V30 8509 O 839.088 -0.679415 -2.18166 0
M  V30 8510 C 839.298 -3.48995 0.0178194 0
M  V30 8511 C 840.646 -4.24342 -0.14813 0
M  V30 8512 O 841.67 -3.56155 -0.0566125 0
M  V30 8513 O 840.529 -5.45454 -0.338035 0
M  V30 8514 H 837.623 -0.822455 -0.0865884 0
M  V30 8515 H 840.169 -1.59464 0.580472 0
M  V30 8516 H 838.941 -3.77732 1.02147 0
M  V30 8517 H 838.564 -3.91604 -0.687924 0
M  V30 8518 N 839.561 -0.251338 -1.55583 0
M  V30 8519 C 840.809 0.371434 -1.98657 0
M  V30 8520 C 841.13 1.58143 -1.14087 0
M  V30 8521 O 840.4 1.94607 -0.224708 0
M  V30 8522 H 838.98 0.140225 -0.733721 0
M  V30 8523 H 841.642 -0.351157 -1.9171 0
M  V30 8524 H 840.738 0.677554 -3.04657 0
M  V30 8525 N 841.039 1.57585 0.0217189 0
M  V30 8526 C 842.267 1.93871 0.722619 0
M  V30 8527 C 842.682 0.851706 1.68498 0
M  V30 8528 O 842.039 -0.17127 1.81695 0
M  V30 8529 C 842.09 3.30114 1.47333 0
M  V30 8530 O 841.811 4.34639 0.549597 0
M  V30 8531 C 843.312 3.80727 2.27072 0
M  V30 8532 H 840.532 0.639671 0.202637 0
M  V30 8533 H 843.076 2.04487 -0.0229414 0
M  V30 8534 H 841.231 3.20872 2.17071 0
M  V30 8535 H 841.645 5.13326 1.07686 0
M  V30 8536 H 843.119 4.78547 2.75131 0
M  V30 8537 H 843.596 3.12301 3.08812 0
M  V30 8538 H 844.202 3.93075 1.62395 0
M  V30 8539 N 842.517 -0.29412 1.54831 0
M  V30 8540 C 843.447 -1.36757 1.89261 0
M  V30 8541 C 844.428 -1.52564 0.752214 0
M  V30 8542 O 845.613 -1.65958 1.00855 0
M  V30 8543 C 842.743 -2.73066 2.14597 0
M  V30 8544 C 841.697 -2.72017 3.3044 0
M  V30 8545 C 841.023 -4.11679 3.4121 0
M  V30 8546 C 842.323 -2.33149 4.67375 0
M  V30 8547 H 844.017 -1.08191 2.79169 0
M  V30 8548 H 841.563 -0.519014 1.34321 0
M  V30 8549 H 843.516 -3.48255 2.37269 0
M  V30 8550 H 842.24 -3.03172 1.21467 0
M  V30 8551 H 840.899 -1.99285 3.07703 0
M  V30 8552 H 840.547 -4.38973 2.45584 0
M  V30 8553 H 840.247 -4.11877 4.19084 0
M  V30 8554 H 841.771 -4.88637 3.6615 0
M  V30 8555 H 843.185 -2.98054 4.89731 0
M  V30 8556 H 841.582 -2.44546 5.48012 0
M  V30 8557 H 842.652 -1.28275 4.67626 0
M  V30 8558 N 843.995 -1.47404 -0.557645 0
M  V30 8559 C 845.272 -1.44488 -1.31843 0
M  V30 8560 C 845.652 -0.1416 -2.10625 0
M  V30 8561 O 845 0.876908 -2.11004 0
M  V30 8562 C 845.21 -2.69016 -2.22331 0
M  V30 8563 C 846.558 -3.16212 -2.83364 0
M  V30 8564 O 847.582 -2.69741 -2.32634 0
M  V30 8565 O 846.441 -3.96999 -3.75571 0
M  V30 8566 H 843.535 -0.57578 -0.593639 0
M  V30 8567 H 846.081 -1.59605 -0.576584 0
M  V30 8568 H 844.853 -3.55406 -1.63715 0
M  V30 8569 H 844.476 -2.56484 -3.03812 0
M  V30 8570 N 845.473 0.80434 -1.35529 0
M  V30 8571 C 846.703 1.59052 -1.31856 0
M  V30 8572 C 847.111 1.88905 0.105549 0
M  V30 8573 O 846.454 1.49422 1.06858 0
M  V30 8574 C 846.516 2.94626 -2.06 0
M  V30 8575 C 846.18 2.87576 -3.55175 0
M  V30 8576 C 847.177 2.60856 -4.49722 0
M  V30 8577 C 844.862 3.06623 -3.97854 0
M  V30 8578 C 846.856 2.53262 -5.84925 0
M  V30 8579 C 844.543 2.98652 -5.33151 0
M  V30 8580 C 845.541 2.72007 -6.26499 0
M  V30 8581 O 845.229 2.64003 -7.59314 0
M  V30 8582 H 844.961 0.500486 -0.454411 0
M  V30 8583 H 847.515 1.0074 -1.78999 0
M  V30 8584 H 845.745 3.5493 -1.53498 0
M  V30 8585 H 847.434 3.55785 -1.95376 0
M  V30 8586 H 848.2 2.45858 -4.18066 0
M  V30 8587 H 844.079 3.26372 -3.2558 0
M  V30 8588 H 847.623 2.32386 -6.57756 0
M  V30 8589 H 843.52 3.13208 -5.64421 0
M  V30 8590 H 844.288 2.79595 -7.69265 0
M  V30 8591 N 846.951 1.19563 1.02676 0
M  V30 8592 C 847.881 0.959024 2.12897 0
M  V30 8593 C 848.862 -0.108382 1.69754 0
M  V30 8594 O 850.047 0.0470698 1.94143 0
M  V30 8595 C 847.177 0.499211 3.43693 0
M  V30 8596 C 846.131 1.5087 4.00528 0
M  V30 8597 C 845.457 0.905884 5.2697 0
M  V30 8598 C 846.757 2.88954 4.3509 0
M  V30 8599 H 848.451 1.88084 2.32948 0
M  V30 8600 H 845.997 0.905731 1.11949 0
M  V30 8601 H 847.95 0.320965 4.20176 0
M  V30 8602 H 846.674 -0.458205 3.2337 0
M  V30 8603 H 845.333 1.67413 3.26142 0
M  V30 8604 H 844.981 -0.0591506 5.02965 0
M  V30 8605 H 844.681 1.58 5.65959 0
M  V30 8606 H 846.205 0.73848 6.06118 0
M  V30 8607 H 847.619 2.75981 5.02501 0
M  V30 8608 H 846.016 3.53177 4.85166 0
M  V30 8609 H 847.086 3.41447 3.44299 0
M  V30 8610 N 848.429 -1.21819 0.999893 0
M  V30 8611 C 849.359 -2.26282 0.576096 0
M  V30 8612 C 850.34 -1.65317 -0.400537 0
M  V30 8613 O 851.525 -1.92028 -0.28964 0
M  V30 8614 C 848.655 -3.47147 -0.103145 0
M  V30 8615 C 847.609 -4.20594 0.792745 0
M  V30 8616 C 846.935 -5.34696 -0.0198026 0
M  V30 8617 C 848.235 -4.78533 2.09293 0
M  V30 8618 H 849.929 -2.61984 1.4493 0
M  V30 8619 H 847.475 -1.25935 0.698316 0
M  V30 8620 H 849.428 -4.1939 -0.411068 0
M  V30 8621 H 848.152 -3.1056 -1.01094 0
M  V30 8622 H 846.811 -3.50194 1.08442 0
M  V30 8623 H 846.459 -4.94352 -0.928729 0
M  V30 8624 H 846.159 -5.84764 0.576661 0
M  V30 8625 H 847.683 -6.09752 -0.321659 0
M  V30 8626 H 849.097 -5.42682 1.8485 0
M  V30 8627 H 847.494 -5.38968 2.63881 0
M  V30 8628 H 848.564 -3.98197 2.76708 0
M  V30 8629 N 849.908 -0.773975 -1.37286 0
M  V30 8630 C 851.133 -0.349561 -2.04433 0
M  V30 8631 C 851.558 1.02082 -1.5799 0
M  V30 8632 O 850.916 1.65458 -0.741172 0
M  V30 8633 C 850.964 -0.404292 -3.58326 0
M  V30 8634 O 850.068 0.594447 -4.08093 0
M  V30 8635 H 849.409 -0.150959 -0.646612 0
M  V30 8636 H 851.939 -1.05079 -1.75555 0
M  V30 8637 H 851.949 -0.262378 -4.07155 0
M  V30 8638 H 850.624 -1.40403 -3.91484 0
M  V30 8639 H 849.201 0.415468 -3.70578 0
M  V30 8640 N 851.386 1.48609 -0.524698 0
M  V30 8641 C 852.797 1.86516 -0.0828846 0
M  V30 8642 C 853.148 1.43478 1.33822 0
M  V30 8643 O 852.273 0.823139 2.00133 0
M  V30 8644 C 852.868 3.38495 -0.143639 0
M  V30 8645 C 851.427 3.75615 0.242951 0
M  V30 8646 C 850.574 2.72649 -0.505747 0
M  V30 8647 H 853.525 1.40589 -0.736233 0
M  V30 8648 H 853.546 3.74977 0.645955 0
M  V30 8649 H 853.058 3.69789 -1.17805 0
M  V30 8650 H 851.159 3.49935 1.27971 0
M  V30 8651 H 851.272 4.7901 -0.0929834 0
M  V30 8652 H 849.636 2.54656 0.0473482 0
M  V30 8653 H 850.419 3.06786 -1.54069 0
M  V30 8654 N 852.864 0.259585 1.55447 0
M  V30 8655 C 853.774 -0.645026 2.25558 0
M  V30 8656 C 854.79 -1.18291 1.27606 0
M  V30 8657 O 855.966 -1.21649 1.6051 0
M  V30 8658 C 853.031 -1.81964 2.9511 0
M  V30 8659 C 852.092 -1.31997 4.08504 0
M  V30 8660 C 851.325 -2.43861 4.74729 0
M  V30 8661 O 851.548 -3.62876 4.40088 0
M  V30 8662 O 850.482 -2.12898 5.6299 0
M  V30 8663 H 854.308 -0.0775399 3.03601 0
M  V30 8664 H 851.893 0.0275859 1.49375 0
M  V30 8665 H 853.775 -2.50485 3.38873 0
M  V30 8666 H 852.45 -2.37451 2.19997 0
M  V30 8667 H 851.357 -0.601676 3.6923 0
M  V30 8668 H 852.69 -0.811045 4.85472 0
M  V30 8669 N 854.342 -1.57594 -0.0133615 0
M  V30 8670 C 855.59 -1.89605 -0.699596 0
M  V30 8671 C 855.911 -0.85926 -1.75048 0
M  V30 8672 O 855.181 0.105112 -1.95618 0
M  V30 8673 H 853.761 -0.699776 -0.261385 0
M  V30 8674 H 856.423 -1.94885 0.0244044 0
M  V30 8675 H 855.519 -2.88962 -1.17928 0
M  V30 8676 N 855.82 0.285905 -1.54985 0
M  V30 8677 C 857.045 1.04207 -1.7932 0
M  V30 8678 C 857.47 1.79622 -0.558343 0
M  V30 8679 O 856.828 1.74506 0.491661 0
M  V30 8680 C 856.876 1.98648 -3.0095 0
M  V30 8681 O 855.98 3.07207 -2.75132 0
M  V30 8682 H 855.321 0.298596 -0.593074 0
M  V30 8683 H 857.851 0.318736 -2.02102 0
M  V30 8684 H 857.861 2.4084 -3.29333 0
M  V30 8685 H 856.536 1.43167 -3.90482 0
M  V30 8686 H 855.113 2.69423 -2.57809 0
M  V30 8687 N 857.298 1.47698 0.54982 0
M  V30 8688 C 858.714 1.3338 0.876468 0
M  V30 8689 C 858.914 0.329837 1.98782 0
M  V30 8690 O 857.97 -0.256022 2.51199 0
M  V30 8691 C 859.283 2.72903 1.26272 0
M  V30 8692 C 860.831 2.81243 1.37373 0
M  V30 8693 C 861.306 4.21423 1.79351 0
M  V30 8694 N 862.797 4.24 1.86489 0
M  V30 8695 C 863.532 5.29386 2.20313 0
M  V30 8696 N 863.028 6.4507 2.527 0
M  V30 8697 N 864.821 5.16768 2.2115 0
M  V30 8698 H 856.972 2.11603 -0.183781 0
M  V30 8699 H 859.235 0.947798 -0.0195601 0
M  V30 8700 H 858.941 3.47836 0.519889 0
M  V30 8701 H 858.815 3.05151 2.21727 0
M  V30 8702 H 861.202 2.06577 2.10737 0
M  V30 8703 H 861.283 2.52639 0.400882 0
M  V30 8704 H 860.927 4.96597 1.06555 0
M  V30 8705 H 860.857 4.47456 2.77652 0
M  V30 8706 H 863.348 3.40547 1.63817 0
M  V30 8707 H 863.661 7.21236 2.77557 0
M  V30 8708 H 862.006 6.48377 2.50263 0
M  V30 8709 H 865.197 4.25416 1.95293 0
M  V30 8710 H 865.37 5.99004 2.4718 0
M  V30 8711 N 858.776 -0.797141 1.35954 0
M  V30 8712 C 859.723 -1.90944 1.2965 0
M  V30 8713 C 860.693 -1.65262 0.166628 0
M  V30 8714 O 861.878 -1.87527 0.351883 0
M  V30 8715 C 859.018 -3.27637 1.08389 0
M  V30 8716 C 858.131 -3.65442 2.30382 0
M  V30 8717 C 857.266 -4.91213 2.02195 0
M  V30 8718 C 856.305 -5.21674 3.20191 0
M  V30 8719 N 855.442 -6.38627 2.91719 0
M  V30 8720 H 860.282 -1.95668 2.24762 0
M  V30 8721 H 857.819 -0.95696 1.11717 0
M  V30 8722 H 859.777 -4.06451 0.940912 0
M  V30 8723 H 858.407 -3.22355 0.169351 0
M  V30 8724 H 857.459 -2.81813 2.55511 0
M  V30 8725 H 858.771 -3.83907 3.18461 0
M  V30 8726 H 857.925 -5.77876 1.84783 0
M  V30 8727 H 856.664 -4.74803 1.11416 0
M  V30 8728 H 855.669 -4.33498 3.38171 0
M  V30 8729 H 856.894 -5.40009 4.11786 0
M  V30 8730 H 854.84 -6.23623 2.03543 0
M  V30 8731 H 854.757 -6.57387 3.73334 0
M  V30 8732 H 856.025 -7.28292 2.77868 0
M  V30 8733 N 860.254 -1.20106 -1.0204 0
M  V30 8734 C 861.184 -0.970301 -2.12385 0
M  V30 8735 C 862.165 0.099378 -1.69809 0
M  V30 8736 O 863.35 -0.057365 -1.94115 0
M  V30 8737 C 860.48 -0.517431 -3.43424 0
M  V30 8738 C 859.434 -1.52992 -3.99722 0
M  V30 8739 C 858.76 -0.933817 -5.26483 0
M  V30 8740 C 860.06 -2.91257 -4.33551 0
M  V30 8741 H 861.754 -1.89316 -2.31948 0
M  V30 8742 H 859.3 -0.911655 -1.11467 0
M  V30 8743 H 861.253 -0.343243 -4.2 0
M  V30 8744 H 859.977 0.441049 -3.23608 0
M  V30 8745 H 858.636 -1.6914 -3.2525 0
M  V30 8746 H 858.284 0.0324763 -5.0299 0
M  V30 8747 H 857.984 -1.60999 -5.65113 0
M  V30 8748 H 859.508 -0.770614 -6.05718 0
M  V30 8749 H 860.922 -2.78642 -5.0103 0
M  V30 8750 H 859.319 -3.55745 -4.83286 0
M  V30 8751 H 860.389 -3.43269 -3.42483 0
M  V30 8752 N 861.732 1.21287 -1.00634 0
M  V30 8753 C 862.662 2.25973 -0.588089 0
M  V30 8754 C 863.643 1.65527 0.391764 0
M  V30 8755 O 864.828 1.92179 0.279452 0
M  V30 8756 C 861.958 3.47197 0.0847336 0
M  V30 8757 C 860.912 4.20168 -0.815039 0
M  V30 8758 C 860.238 5.34699 -0.00855393 0
M  V30 8759 C 861.538 4.77416 -2.11828 0
M  V30 8760 H 863.232 2.61212 -1.46317 0
M  V30 8761 H 860.778 1.25563 -0.704985 0
M  V30 8762 H 862.731 4.19602 0.388821 0
M  V30 8763 H 861.455 3.11092 0.994456 0
M  V30 8764 H 860.114 3.49614 -1.10297 0
M  V30 8765 H 859.762 4.94837 0.902499 0
M  V30 8766 H 859.462 5.84449 -0.607664 0
M  V30 8767 H 860.986 6.09914 0.289317 0
M  V30 8768 H 862.4 5.41694 -1.87725 0
M  V30 8769 H 860.797 5.37561 -2.66736 0
M  V30 8770 H 861.867 3.96724 -2.78816 0
M  V30 8771 N 863.21 0.781244 1.36873 0
M  V30 8772 C 864.12 0.174981 2.33947 0
M  V30 8773 C 865.136 -0.668512 1.60645 0
M  V30 8774 O 866.312 -0.586213 1.9268 0
M  V30 8775 C 863.377 -0.686557 3.39834 0
M  V30 8776 C 862.438 0.174489 4.28945 0
M  V30 8777 C 861.671 -0.646024 5.29776 0
M  V30 8778 O 861.894 -1.88254 5.38439 0
M  V30 8779 O 860.828 -0.0502214 6.01879 0
M  V30 8780 H 864.654 0.977382 2.87543 0
M  V30 8781 H 862.239 0.542559 1.392 0
M  V30 8782 H 864.121 -1.1781 4.04597 0
M  V30 8783 H 862.796 -1.46699 2.8855 0
M  V30 8784 H 861.703 0.712604 3.6725 0
M  V30 8785 H 863.036 0.918232 4.83559 0
M  V30 8786 N 864.689 -1.48329 0.532571 0
M  V30 8787 C 865.619 -2.32485 -0.217511 0
M  V30 8788 C 866.6 -1.42255 -0.932598 0
M  V30 8789 O 867.785 -1.7114 -0.917873 0
M  V30 8790 C 864.915 -3.23509 -1.26329 0
M  V30 8791 C 863.869 -4.22784 -0.666191 0
M  V30 8792 C 863.195 -5.0296 -1.81482 0
M  V30 8793 C 864.495 -5.21031 0.363813 0
M  V30 8794 H 866.189 -2.95445 0.485014 0
M  V30 8795 H 863.735 -1.42075 0.234694 0
M  V30 8796 H 865.688 -3.81211 -1.79601 0
M  V30 8797 H 864.412 -2.58554 -1.99543 0
M  V30 8798 H 863.071 -3.66272 -0.15498 0
M  V30 8799 H 862.719 -4.34427 -2.5354 0
M  V30 8800 H 862.419 -5.70154 -1.4212 0
M  V30 8801 H 863.943 -5.63514 -2.35126 0
M  V30 8802 H 865.357 -5.73241 -0.0819079 0
M  V30 8803 H 863.754 -5.96292 0.674956 0
M  V30 8804 H 864.824 -4.6801 1.26865 0
M  V30 8805 N 866.167 -0.267825 -1.55308 0
M  V30 8806 C 867.413 0.351556 -1.9973 0
M  V30 8807 C 867.746 1.56049 -1.15596 0
M  V30 8808 O 867.021 1.93203 -0.224274 0
M  V30 8809 C 867.304 0.74091 -3.52395 0
M  V30 8810 C 867.157 -0.474861 -4.47286 0
M  V30 8811 C 868.476 1.5801 -4.10756 0
M  V30 8812 H 865.595 0.126308 -0.726096 0
M  V30 8813 H 868.237 -0.373316 -1.86296 0
M  V30 8814 H 866.387 1.35851 -3.63973 0
M  V30 8815 H 868.059 -1.1134 -4.47662 0
M  V30 8816 H 866.302 -1.11425 -4.19246 0
M  V30 8817 H 866.973 -0.158782 -5.51772 0
M  V30 8818 H 869.449 1.05857 -4.0241 0
M  V30 8819 H 868.325 1.82135 -5.17801 0
M  V30 8820 H 868.586 2.55878 -3.60526 0
M  V30 8821 N 867.645 1.57599 0.00500368 0
M  V30 8822 C 869.061 1.55463 0.361015 0
M  V30 8823 C 869.261 0.997051 1.75103 0
M  V30 8824 O 868.317 0.628661 2.44549 0
M  V30 8825 C 869.63 2.99734 0.240828 0
M  V30 8826 C 871.178 3.11399 0.316138 0
M  V30 8827 C 871.653 4.57446 0.22513 0
M  V30 8828 N 873.144 4.62334 0.283186 0
M  V30 8829 C 873.879 5.72914 0.23603 0
M  V30 8830 N 873.375 6.92659 0.139762 0
M  V30 8831 N 875.168 5.61364 0.287529 0
M  V30 8832 H 867.319 1.92185 -0.904359 0
M  V30 8833 H 869.582 0.882529 -0.34619 0
M  V30 8834 H 869.288 3.44348 -0.715343 0
M  V30 8835 H 869.162 3.63009 1.02491 0
M  V30 8836 H 871.549 2.66718 1.26275 0
M  V30 8837 H 871.63 2.50911 -0.497725 0
M  V30 8838 H 871.274 5.02801 -0.717917 0
M  V30 8839 H 871.204 5.15874 1.05742 0
M  V30 8840 H 873.695 3.7619 0.359123 0
M  V30 8841 H 874.008 7.72722 0.10954 0
M  V30 8842 H 872.353 6.9492 0.105462 0
M  V30 8843 H 875.544 4.66707 0.360897 0
M  V30 8844 H 875.717 6.47528 0.247313 0
M  V30 8845 N 869.123 -0.277682 1.55134 0
M  V30 8846 C 870.353 -1.02677 1.79279 0
M  V30 8847 C 870.761 -1.80599 0.563962 0
M  V30 8848 O 870.104 -1.77416 -0.476378 0
M  V30 8849 C 870.166 -2.03617 2.96277 0
M  V30 8850 C 869.83 -1.44676 4.33495 0
M  V30 8851 C 870.827 -0.864811 5.12657 0
M  V30 8852 C 868.512 -1.47537 4.80144 0
M  V30 8853 C 870.506 -0.319322 6.366 0
M  V30 8854 C 868.193 -0.926016 6.04043 0
M  V30 8855 C 869.191 -0.348988 6.82108 0
M  V30 8856 O 868.879 0.191964 8.03671 0
M  V30 8857 H 868.611 -0.309232 0.601125 0
M  V30 8858 H 871.165 -0.315308 2.02965 0
M  V30 8859 H 869.395 -2.78509 2.68272 0
M  V30 8860 H 871.084 -2.64616 3.07788 0
M  V30 8861 H 871.85 -0.835438 4.7775 0
M  V30 8862 H 867.729 -1.91389 4.19394 0
M  V30 8863 H 871.273 0.131709 6.97476 0
M  V30 8864 H 867.17 -0.952613 6.38432 0
M  V30 8865 H 867.938 0.0808779 8.1846 0
M  V30 8866 N 870.601 -1.47988 -0.541979 0
M  V30 8867 C 871.551 -1.58019 -1.64359 0
M  V30 8868 C 872.535 -0.438056 -1.54822 0
M  V30 8869 O 873.727 -0.688837 -1.63046 0
M  V30 8870 C 870.856 -1.61182 -3.03109 0
M  V30 8871 C 869.942 -2.80834 -3.17794 0
M  V30 8872 N 870.333 -4.05379 -3.02492 0
M  V30 8873 C 868.631 -2.77914 -3.48826 0
M  V30 8874 C 869.332 -4.85592 -3.20274 0
M  V30 8875 N 868.308 -4.18188 -3.47304 0
M  V30 8876 H 872.11 -2.52071 -1.5112 0
M  V30 8877 H 869.624 -1.44193 -0.747137 0
M  V30 8878 H 871.621 -1.66461 -3.82226 0
M  V30 8879 H 870.281 -0.682375 -3.17449 0
M  V30 8880 H 871.292 -4.36003 -2.79503 0
M  V30 8881 H 867.969 -1.94174 -3.69598 0
M  V30 8882 H 869.359 -5.94394 -3.13282 0
M  V30 8883 N 872.079 0.78992 -1.36375 0
M  V30 8884 C 873.328 1.54296 -1.29906 0
M  V30 8885 C 873.641 1.95234 0.119651 0
M  V30 8886 O 874.847 2.69762 0.306708 0
M  V30 8887 C 873.303 2.78533 -2.27919 0
M  V30 8888 C 872.911 2.44767 -3.75224 0
M  V30 8889 C 874.655 3.56516 -2.30427 0
M  V30 8890 C 872.562 3.65397 -4.65015 0
M  V30 8891 H 871.492 0.579214 -0.482729 0
M  V30 8892 H 874.143 0.866845 -1.61735 0
M  V30 8893 H 872.525 3.47941 -1.89084 0
M  V30 8894 H 873.699 1.83259 -4.22792 0
M  V30 8895 H 872.014 1.79996 -3.75487 0
M  V30 8896 H 874.611 4.46143 -2.94722 0
M  V30 8897 H 874.954 3.95063 -1.31266 0
M  V30 8898 H 875.487 2.94087 -2.67876 0
M  V30 8899 H 872.226 3.31946 -5.65236 0
M  V30 8900 H 871.746 4.26072 -4.22164 0
M  V30 8901 H 873.425 4.32431 -4.81261 0
M  V30 8902 N 873.557 1.20646 1.01402 0
M  V30 8903 C 874.803 1.0197 1.753 0
M  V30 8904 C 875.136 -0.446803 1.8899 0
M  V30 8905 O 874.411 -1.33169 1.41762 0
M  V30 8906 C 874.694 1.70693 3.17074 0
M  V30 8907 C 874.547 3.24805 3.11162 0
M  V30 8908 C 875.866 1.44212 4.15802 0
M  V30 8909 H 872.985 0.371844 0.636318 0
M  V30 8910 H 875.627 1.48696 1.18277 0
M  V30 8911 H 873.777 1.30968 3.65759 0
M  V30 8912 H 875.449 3.73841 2.70261 0
M  V30 8913 H 873.692 3.55576 2.48492 0
M  V30 8914 H 874.363 3.68049 4.11393 0
M  V30 8915 H 876.839 1.7868 3.75783 0
M  V30 8916 H 875.715 1.94825 5.13161 0
M  V30 8917 H 875.976 0.370252 4.40547 0
M  V30 8918 N 875.035 -1.20752 1.01276 0
M  V30 8919 C 876.446 -1.7175 0.732033 0
M  V30 8920 C 876.797 -1.8131 -0.749733 0
M  V30 8921 O 875.922 -1.47301 -1.58529 0
M  V30 8922 C 876.517 -3.11936 1.32217 0
M  V30 8923 C 875.076 -3.6026 1.09039 0
M  V30 8924 C 874.223 -2.37571 1.43022 0
M  V30 8925 H 877.174 -1.0582 1.1827 0
M  V30 8926 H 877.195 -3.73802 0.710771 0
M  V30 8927 H 876.707 -3.04946 2.40061 0
M  V30 8928 H 874.808 -3.72588 0.0294464 0
M  V30 8929 H 874.921 -4.45295 1.76775 0
M  V30 8930 H 873.285 -2.40128 0.849159 0
M  V30 8931 H 874.068 -2.33225 2.51915 0
M  V30 8932 N 876.513 -0.788492 -1.36457 0
M  V30 8933 C 877.76 -0.360461 -1.99266 0
M  V30 8934 C 878.088 1.0676 -1.62581 0
M  V30 8935 O 877.343 1.75205 -0.871884 0
M  V30 8936 C 877.642 -0.470255 -3.54293 0
M  V30 8937 C 877.308 -1.85899 -4.10795 0
M  V30 8938 C 875.97 -2.23896 -4.25939 0
M  V30 8939 C 878.322 -2.76836 -4.41601 0
M  V30 8940 C 875.65 -3.52235 -4.69199 0
M  V30 8941 C 878.002 -4.04602 -4.86292 0
M  V30 8942 C 876.666 -4.42623 -4.99641 0
M  V30 8943 H 875.936 -0.131902 -0.729166 0
M  V30 8944 H 878.583 -1.00577 -1.62962 0
M  V30 8945 H 876.888 0.258559 -3.90946 0
M  V30 8946 H 878.585 -0.120119 -4.0082 0
M  V30 8947 H 875.175 -1.55372 -3.99447 0
M  V30 8948 H 879.359 -2.48735 -4.2947 0
M  V30 8949 H 874.615 -3.81565 -4.77722 0
M  V30 8950 H 878.789 -4.75182 -5.09092 0
M  V30 8951 H 876.416 -5.42125 -5.32921 0
M  V30 8952 N 877.991 1.48044 -0.54043 0
M  V30 8953 C 879.219 2.06895 -0.0145153 0
M  V30 8954 C 879.634 1.39552 1.27164 0
M  V30 8955 O 878.991 0.486454 1.75897 0
M  V30 8956 C 879.042 3.60934 0.202278 0
M  V30 8957 O 878.763 4.25749 -1.03293 0
M  V30 8958 C 880.264 4.36607 0.767387 0
M  V30 8959 H 877.484 0.66991 -0.0382368 0
M  V30 8960 H 880.028 1.90288 -0.749057 0
M  V30 8961 H 878.183 3.77111 0.886897 0
M  V30 8962 H 878.597 5.18048 -0.820167 0
M  V30 8963 H 880.071 5.45126 0.86845 0
M  V30 8964 H 880.548 4.01745 1.77477 0
M  V30 8965 H 881.154 4.25133 0.119002 0
M  V30 8966 N 879.47 0.276058 1.55163 0
M  V30 8967 C 880.402 -0.644254 2.19959 0
M  V30 8968 C 881.415 -1.11675 1.18459 0
M  V30 8969 O 882.604 -1.0385 1.45181 0
M  V30 8970 C 879.704 -1.89093 2.81242 0
M  V30 8971 C 878.877 -1.56509 4.08441 0
M  V30 8972 C 877.936 -2.66433 4.53762 0
M  V30 8973 O 876.962 -2.32579 5.19515 0
M  V30 8974 N 878.164 -3.96509 4.23982 0
M  V30 8975 H 880.929 -0.0896808 2.99566 0
M  V30 8976 H 878.49 0.0971981 1.61608 0
M  V30 8977 H 880.482 -2.61929 3.08505 0
M  V30 8978 H 879.052 -2.35453 2.05622 0
M  V30 8979 H 878.272 -0.670522 3.88455 0
M  V30 8980 H 879.56 -1.32242 4.91314 0
M  V30 8981 H 878.958 -4.26834 3.71254 0
M  V30 8982 H 877.515 -4.6572 4.56014 0
M  V30 8983 N 880.948 -1.576 0.00335426 0
M  V30 8984 C 881.878 -2.11668 -0.985839 0
M  V30 8985 C 882.859 -1.02661 -1.35627 0
M  V30 8986 O 884.044 -1.30361 -1.43943 0
M  V30 8987 C 881.174 -2.62273 -2.27662 0
M  V30 8988 C 880.128 -3.75837 -2.0477 0
M  V30 8989 C 879.454 -4.12769 -3.39891 0
M  V30 8990 C 880.754 -5.02975 -1.40759 0
M  V30 8991 H 882.448 -2.9457 -0.535637 0
M  V30 8992 H 879.994 -1.41702 -0.256204 0
M  V30 8993 H 881.947 -2.98727 -2.97221 0
M  V30 8994 H 880.671 -1.76498 -2.74802 0
M  V30 8995 H 879.33 -3.39782 -1.37636 0
M  V30 8996 H 878.978 -3.24013 -3.8474 0
M  V30 8997 H 878.678 -4.89281 -3.25389 0
M  V30 8998 H 880.202 -4.51784 -4.1076 0
M  V30 8999 H 881.616 -5.37179 -2.00279 0
M  V30 9000 H 880.013 -5.84315 -1.36734 0
M  V30 9001 H 881.083 -4.83431 -0.377218 0
M  V30 9002 N 882.426 0.269451 -1.5528 0
M  V30 9003 C 883.336 1.35511 -1.91505 0
M  V30 9004 C 884.352 1.53854 -0.812712 0
M  V30 9005 O 885.528 1.67912 -1.1121 0
M  V30 9006 C 882.593 2.6937 -2.18267 0
M  V30 9007 C 881.654 2.59743 -3.41807 0
M  V30 9008 C 880.887 3.87219 -3.67283 0
M  V30 9009 O 881.11 4.88066 -2.95208 0
M  V30 9010 O 880.044 3.87209 -4.60818 0
M  V30 9011 H 883.87 1.07785 -2.8393 0
M  V30 9012 H 881.455 0.468282 -1.41871 0
M  V30 9013 H 883.337 3.48513 -2.36889 0
M  V30 9014 H 882.012 2.96874 -1.29024 0
M  V30 9015 H 880.919 1.78964 -3.28516 0
M  V30 9016 H 882.252 2.37188 -4.3128 0
M  V30 9017 N 883.904 1.48273 0.534124 0
M  V30 9018 C 885.15 1.56311 1.29208 0
M  V30 9019 C 885.483 0.234481 1.92779 0
M  V30 9020 O 884.758 -0.759143 1.79073 0
M  V30 9021 C 885.041 2.69831 2.3846 0
M  V30 9022 C 884.894 4.12385 1.79608 0
M  V30 9023 C 886.213 2.79133 3.40254 0
M  V30 9024 H 883.332 0.56899 0.468422 0
M  V30 9025 H 885.974 1.80429 0.595438 0
M  V30 9026 H 884.124 2.49397 2.97881 0
M  V30 9027 H 885.796 4.44246 1.24269 0
M  V30 9028 H 884.039 4.19579 1.10162 0
M  V30 9029 H 884.71 4.87629 2.58693 0
M  V30 9030 H 887.186 2.97632 2.90783 0
M  V30 9031 H 886.062 3.60298 4.14097 0
M  V30 9032 H 886.323 1.87122 4.00547 0
M  V30 9033 N 885.382 -0.782676 1.36792 0
M  V30 9034 C 886.345 -1.8772 1.31507 0
M  V30 9035 C 887.345 -1.59269 0.221349 0
M  V30 9036 O 888.535 -1.67555 0.476544 0
M  V30 9037 C 885.667 -3.24641 1.04025 0
M  V30 9038 H 886.86 -1.9382 2.28853 0
M  V30 9039 H 884.413 -0.981226 1.21662 0
M  V30 9040 H 885.148 -3.24221 0.0716439 0
M  V30 9041 H 884.933 -3.46681 1.8318 0
M  V30 9042 H 886.423 -4.04711 1.02949 0
M  V30 9043 N 886.86 -1.21182 -1.00761 0
M  V30 9044 C 888.088 -1.05335 -1.78079 0
M  V30 9045 C 888.503 0.396988 -1.84579 0
M  V30 9046 O 887.86 1.27548 -1.30529 0
M  V30 9047 C 887.911 -1.64089 -3.22113 0
M  V30 9048 O 887.632 -3.03448 -3.15992 0
M  V30 9049 C 889.133 -1.53318 -4.15943 0
M  V30 9050 H 886.353 -0.37005 -0.559736 0
M  V30 9051 H 888.897 -1.60463 -1.26775 0
M  V30 9052 H 887.052 -1.13059 -3.70535 0
M  V30 9053 H 887.466 -3.31492 -4.06465 0
M  V30 9054 H 888.94 -1.99174 -5.14814 0
M  V30 9055 H 889.417 -0.487166 -4.3649 0
M  V30 9056 H 890.023 -2.03582 -3.73409 0
M  V30 9057 N 888.338 1.20213 -1.01915 0
M  V30 9058 C 889.268 2.25336 -0.612023 0
M  V30 9059 C 890.249 1.65933 0.374186 0
M  V30 9060 O 891.434 1.92464 0.259053 0
M  V30 9061 C 888.564 3.47267 0.047904 0
M  V30 9062 C 887.518 4.1928 -0.859557 0
M  V30 9063 C 886.844 5.3466 -0.0652655 0
M  V30 9064 C 888.144 4.75143 -2.1688 0
M  V30 9065 H 889.838 2.59645 -1.49079 0
M  V30 9066 H 887.384 1.24808 -0.718263 0
M  V30 9067 H 889.337 4.19991 0.344294 0
M  V30 9068 H 888.061 3.12129 0.961404 0
M  V30 9069 H 886.72 3.48425 -1.13999 0
M  V30 9070 H 886.368 4.95767 0.849964 0
M  V30 9071 H 886.068 5.83772 -0.669618 0
M  V30 9072 H 887.592 6.10187 0.224612 0
M  V30 9073 H 889.006 5.39672 -1.9346 0
M  V30 9074 H 887.403 5.34702 -2.72422 0
M  V30 9075 H 888.473 3.93744 -2.83008 0
M  V30 9076 N 889.816 0.795718 1.36037 0
M  V30 9077 C 891.065 0.367575 1.98322 0
M  V30 9078 C 891.378 -1.06823 1.63854 0
M  V30 9079 O 892.584 -1.59895 2.19421 0
M  V30 9080 C 891.04 0.606272 3.54757 0
M  V30 9081 C 890.648 2.0539 3.98144 0
M  V30 9082 C 892.392 0.242947 4.23804 0
M  V30 9083 C 890.299 2.23893 5.47381 0
M  V30 9084 H 889.229 0.133699 0.742052 0
M  V30 9085 H 891.88 0.978242 1.5525 0
M  V30 9086 H 890.262 -0.0741957 3.9593 0
M  V30 9087 H 891.436 2.77129 3.68152 0
M  V30 9088 H 889.751 2.37607 3.41953 0
M  V30 9089 H 892.348 0.359382 5.33491 0
M  V30 9090 H 892.691 -0.809661 4.08351 0
M  V30 9091 H 893.224 0.876899 3.88015 0
M  V30 9092 H 889.963 3.27559 5.6779 0
M  V30 9093 H 889.483 1.56666 5.78978 0
M  V30 9094 H 891.162 2.04914 6.13693 0
M  V30 9095 N 891.294 -1.47756 0.548274 0
M  V30 9096 C 892.519 -2.07387 0.023475 0
M  V30 9097 C 892.944 -1.39956 -1.25674 0
M  V30 9098 O 892.302 -0.471543 -1.7506 0
M  V30 9099 C 892.35 -3.60224 -0.164669 0
M  V30 9100 O 891.454 -3.93653 -1.22928 0
M  V30 9101 H 890.795 -0.662312 0.0473156 0
M  V30 9102 H 893.325 -1.89905 0.761409 0
M  V30 9103 H 893.335 -4.06211 -0.38166 0
M  V30 9104 H 892.01 -4.08702 0.770425 0
M  V30 9105 H 890.587 -3.59422 -0.993495 0
M  V30 9106 N 892.772 -0.284283 -1.55015 0
M  V30 9107 C 894 0.332948 -2.04203 0
M  V30 9108 C 894.415 1.48783 -1.16229 0
M  V30 9109 O 893.772 1.81567 -0.184323 0
M  V30 9110 C 893.823 0.805207 -3.52418 0
M  V30 9111 O 893.544 -0.303689 -4.37046 0
M  V30 9112 C 895.045 1.48931 -4.17534 0
M  V30 9113 H 892.265 0.0747447 -0.666824 0
M  V30 9114 H 894.809 -0.419048 -2.00161 0
M  V30 9115 H 892.964 1.50727 -3.56876 0
M  V30 9116 H 893.378 0.0609703 -5.24465 0
M  V30 9117 H 894.852 1.77108 -5.22816 0
M  V30 9118 H 895.329 2.42389 -3.66257 0
M  V30 9119 H 895.935 0.830867 -4.17105 0
M  V30 9120 N 894.251 1.57596 -0.0117121 0
M  V30 9121 C 895.662 1.79033 0.529521 0
M  V30 9122 C 896.013 0.920299 1.73277 0
M  V30 9123 O 895.138 0.125934 2.16033 0
M  V30 9124 C 895.733 3.24695 0.967405 0
M  V30 9125 C 894.292 3.47188 1.45387 0
M  V30 9126 C 893.439 2.74245 0.410466 0
M  V30 9127 H 896.39 1.56908 -0.237836 0
M  V30 9128 H 896.411 3.33451 1.83278 0
M  V30 9129 H 895.923 3.87992 0.0914605 0
M  V30 9130 H 894.024 2.89121 2.35032 0
M  V30 9131 H 894.137 4.55886 1.47325 0
M  V30 9132 H 892.501 2.39209 0.874721 0
M  V30 9133 H 893.284 3.40248 -0.456713 0
M  V30 9134 N 895.729 -0.261212 1.5542 0
M  V30 9135 C 896.679 -1.32571 1.85496 0
M  V30 9136 C 897.663 -1.44155 0.714722 0
M  V30 9137 O 898.855 -1.47637 0.976336 0
M  V30 9138 C 895.984 -2.68384 2.14067 0
M  V30 9139 C 895.07 -2.60864 3.34381 0
M  V30 9140 N 895.461 -2.22967 4.54004 0
M  V30 9141 C 893.759 -2.91904 3.37206 0
M  V30 9142 C 894.46 -2.25727 5.36118 0
M  V30 9143 N 893.436 -2.64667 4.74818 0
M  V30 9144 H 897.238 -1.02298 2.75522 0
M  V30 9145 H 894.752 -0.469849 1.55455 0
M  V30 9146 H 896.749 -3.45189 2.33774 0
M  V30 9147 H 895.409 -2.99536 1.25332 0
M  V30 9148 H 896.42 -1.94748 4.79889 0
M  V30 9149 H 893.097 -3.2769 2.587 0
M  V30 9150 H 894.487 -1.98889 6.41789 0
M  V30 9151 N 897.207 -1.48554 -0.526253 0
M  V30 9152 C 898.456 -1.56014 -1.27837 0
M  V30 9153 C 898.769 -0.240643 -1.94114 0
M  V30 9154 O 899.975 -0.193525 -2.70809 0
M  V30 9155 C 898.431 -2.75161 -2.31979 0
M  V30 9156 C 898.039 -4.13768 -1.71755 0
M  V30 9157 C 899.783 -2.91936 -3.08178 0
M  V30 9158 C 897.69 -5.24171 -2.7386 0
M  V30 9159 H 896.62 -0.58082 -0.480795 0
M  V30 9160 H 899.271 -1.74895 -0.555335 0
M  V30 9161 H 897.653 -2.49722 -3.07335 0
M  V30 9162 H 898.827 -4.49241 -1.02563 0
M  V30 9163 H 897.142 -4.02141 -1.08036 0
M  V30 9164 H 899.739 -3.71586 -3.84484 0
M  V30 9165 H 900.082 -2.01533 -3.64267 0
M  V30 9166 H 900.615 -3.17294 -2.39937 0
M  V30 9167 H 897.354 -6.16552 -2.22586 0
M  V30 9168 H 896.874 -4.93181 -3.41368 0
M  V30 9169 H 898.553 -5.52442 -3.36774 0
M  V30 9170 N 898.685 0.775411 -1.37205 0
M  V30 9171 C 900.101 1.07546 -1.17924 0
M  V30 9172 C 900.301 2.01496 -0.0128897 0
M  V30 9173 O 899.357 2.44039 0.64816 0
M  V30 9174 C 900.67 1.67647 -2.49629 0
M  V30 9175 C 902.218 1.79923 -2.56119 0
M  V30 9176 C 902.693 2.43438 -3.87946 0
M  V30 9177 N 904.184 2.50893 -3.89368 0
M  V30 9178 C 904.919 3.00881 -4.88117 0
M  V30 9179 N 904.415 3.5107 -5.97262 0
M  V30 9180 N 906.208 2.99722 -4.75524 0
M  V30 9181 H 898.359 0.151524 -2.11859 0
M  V30 9182 H 900.622 0.129845 -0.939066 0
M  V30 9183 H 900.328 1.06082 -3.3532 0
M  V30 9184 H 900.202 2.66988 -2.66453 0
M  V30 9185 H 902.589 2.40621 -1.70838 0
M  V30 9186 H 902.67 0.793482 -2.43182 0
M  V30 9187 H 902.314 1.8338 -4.73639 0
M  V30 9188 H 902.244 3.44611 -3.98184 0
M  V30 9189 H 904.735 2.1537 -3.10522 0
M  V30 9190 H 905.048 3.87604 -6.68568 0
M  V30 9191 H 903.393 3.49184 -6.00912 0
M  V30 9192 H 906.584 2.5981 -3.8938 0
M  V30 9193 H 906.757 3.38369 -5.52639 0
M  V30 9194 N 900.163 1.21714 1.00117 0
M  V30 9195 C 901.388 1.06357 1.78054 0
M  V30 9196 C 901.813 -0.382075 1.84179 0
M  V30 9197 O 901.171 -1.27575 1.28819 0
M  V30 9198 C 901.219 1.66982 3.19608 0
M  V30 9199 O 900.323 0.917892 4.02055 0
M  V30 9200 H 899.664 0.374074 0.548602 0
M  V30 9201 H 902.194 1.61338 1.25822 0
M  V30 9202 H 902.204 1.71363 3.70268 0
M  V30 9203 H 900.879 2.72185 3.14465 0
M  V30 9204 H 899.456 0.949473 3.6061 0
M  V30 9205 N 901.641 -1.19671 1.02551 0
M  V30 9206 C 902.574 -2.21522 0.547998 0
M  V30 9207 C 903.552 -1.57363 -0.409349 0
M  V30 9208 O 904.736 -1.85638 -0.327248 0
M  V30 9209 C 901.863 -3.38101 -0.201375 0
M  V30 9210 C 900.909 -4.20601 0.706886 0
M  V30 9211 S 901.742 -4.89066 2.18116 0
M  V30 9212 C 902.898 -6.09058 1.4422 0
M  V30 9213 H 903.131 -2.61684 1.41099 0
M  V30 9214 H 900.664 -1.29864 0.835153 0
M  V30 9215 H 902.622 -4.05674 -0.627607 0
M  V30 9216 H 901.283 -2.96381 -1.04005 0
M  V30 9217 H 900.476 -5.03836 0.128554 0
M  V30 9218 H 900.078 -3.58329 1.07129 0
M  V30 9219 H 902.37 -6.73588 0.726975 0
M  V30 9220 H 903.313 -6.71368 2.25102 0
M  V30 9221 H 903.721 -5.56599 0.941176 0
M  V30 9222 N 903.119 -0.802921 -1.35613 0
M  V30 9223 C 904.082 -0.216422 -2.28176 0
M  V30 9224 C 905.082 0.594101 -1.49422 0
M  V30 9225 O 906.272 0.41312 -1.6923 0
M  V30 9226 C 903.404 0.698746 -3.33662 0
M  V30 9227 H 904.597 -1.03276 -2.81557 0
M  V30 9228 H 902.15 -0.573307 -1.45406 0
M  V30 9229 H 902.885 1.53891 -2.85461 0
M  V30 9230 H 902.67 0.119314 -3.91918 0
M  V30 9231 H 904.16 1.10354 -4.02755 0
M  V30 9232 N 904.597 1.47463 -0.556102 0
M  V30 9233 C 905.545 2.31692 0.205299 0
M  V30 9234 C 906.539 1.42857 0.910394 0
M  V30 9235 O 907.745 1.59628 0.831806 0
M  V30 9236 H 904.12 0.747172 0.0850775 0
M  V30 9237 H 906.091 2.93758 -0.524305 0
M  V30 9238 C 904.84 3.25487 1.22283 0
M  V30 9239 H 904.163 3.93806 0.689697 0
M  V30 9240 H 905.603 3.87257 1.7265 0
M  V30 9241 C 904.062 2.48931 2.27013 0
M  V30 9242 O 904.592 2.23296 3.33919 0
M  V30 9243 N 902.798 2.0996 2.00911 0
M  V30 9244 H 902.345 2.31008 1.13986 0
M  V30 9245 H 902.303 1.59053 2.712 0
M  V30 9246 N 906.075 0.2925 1.54862 0
M  V30 9247 C 907.007 -0.620889 2.2063 0
M  V30 9248 C 908.02 -1.10412 1.19637 0
M  V30 9249 O 909.209 -1.02304 1.46274 0
M  V30 9250 C 906.309 -1.861 2.83232 0
M  V30 9251 C 905.482 -1.52168 4.10078 0
M  V30 9252 C 904.541 -2.61605 4.56562 0
M  V30 9253 O 903.567 -2.27056 5.21952 0
M  V30 9254 N 904.769 -3.9199 4.28163 0
M  V30 9255 H 907.534 -0.0579028 2.99644 0
M  V30 9256 H 905.095 0.114333 1.61496 0
M  V30 9257 H 907.087 -2.58642 3.11266 0
M  V30 9258 H 905.657 -2.33259 2.08108 0
M  V30 9259 H 904.877 -0.629283 3.89145 0
M  V30 9260 H 906.165 -1.27023 4.92689 0
M  V30 9261 H 905.563 -4.22872 3.7576 0
M  V30 9262 H 904.12 -4.60857 4.60928 0
M  V30 9263 N 907.553 -1.57587 0.0200696 0
M  V30 9264 C 908.483 -2.12702 -0.963333 0
M  V30 9265 C 909.464 -1.04094 -1.34531 0
M  V30 9266 O 910.649 -1.31881 -1.42552 0
M  V30 9267 C 907.779 -2.64673 -2.24868 0
M  V30 9268 C 906.733 -3.77987 -2.00772 0
M  V30 9269 C 906.059 -4.16351 -3.35494 0
M  V30 9270 C 907.359 -5.0444 -1.35416 0
M  V30 9271 H 909.053 -2.95121 -0.504363 0
M  V30 9272 H 906.599 -1.41966 -0.24116 0
M  V30 9273 H 908.552 -3.01862 -2.94036 0
M  V30 9274 H 907.276 -1.79403 -2.72914 0
M  V30 9275 H 905.935 -3.41223 -1.34025 0
M  V30 9276 H 905.583 -3.28075 -3.81282 0
M  V30 9277 H 905.283 -4.92705 -3.20181 0
M  V30 9278 H 906.807 -4.56115 -4.05945 0
M  V30 9279 H 908.221 -5.39273 -1.94571 0
M  V30 9280 H 906.618 -5.85732 -1.30529 0
M  V30 9281 H 907.688 -4.83803 -0.325923 0
M  V30 9282 N 909.032 0.252966 -1.55557 0
M  V30 9283 C 910.281 0.979736 -1.76307 0
M  V30 9284 C 910.594 1.86714 -0.582871 0
M  V30 9285 O 911.8 2.6302 -0.673247 0
M  V30 9286 C 910.256 1.79205 -3.12112 0
M  V30 9287 C 909.864 0.952333 -4.37761 0
M  V30 9288 C 911.608 2.51191 -3.42203 0
M  V30 9289 C 909.515 1.76018 -5.64599 0
M  V30 9290 H 908.445 0.369538 -0.657235 0
M  V30 9291 H 911.096 0.234619 -1.81994 0
M  V30 9292 H 909.478 2.57888 -3.00515 0
M  V30 9293 H 910.652 0.208251 -4.60329 0
M  V30 9294 H 908.967 0.346082 -4.14959 0
M  V30 9295 H 911.564 3.12074 -4.34182 0
M  V30 9296 H 911.907 3.22499 -2.63249 0
M  V30 9297 H 912.44 1.79523 -3.54988 0
M  V30 9298 H 909.179 1.09095 -6.46358 0
M  V30 9299 H 908.699 2.4797 -5.46142 0
M  V30 9300 H 910.378 2.32884 -6.03634 0
M  V30 9301 N 910.51 1.48831 0.518367 0
M  V30 9302 C 911.442 1.60317 1.63802 0
M  V30 9303 C 912.455 0.486771 1.55352 0
M  V30 9304 O 913.644 0.758111 1.61601 0
M  V30 9305 C 910.744 1.52771 3.02513 0
M  V30 9306 C 909.917 2.79649 3.36326 0
M  V30 9307 C 908.976 2.65396 4.54369 0
M  V30 9308 O 908.002 3.39304 4.57013 0
M  V30 9309 N 909.204 1.75784 5.53245 0
M  V30 9310 H 911.969 2.56878 1.54383 0
M  V30 9311 H 909.53 1.45701 0.705889 0
M  V30 9312 H 911.522 1.40914 3.79375 0
M  V30 9313 H 910.092 0.641381 3.05949 0
M  V30 9314 H 909.312 3.05985 2.48529 0
M  V30 9315 H 910.6 3.63799 3.55707 0
M  V30 9316 H 909.998 1.14961 5.53896 0
M  V30 9317 H 908.555 1.69859 6.29278 0
M  V30 9318 N 911.988 -0.768124 1.37614 0
M  V30 9319 C 913.235 -1.5268 1.33022 0
M  V30 9320 C 913.563 -1.94318 -0.0841918 0
M  V30 9321 O 912.818 -1.64623 -1.0582 0
M  V30 9322 C 913.117 -2.80204 2.21856 0
M  V30 9323 C 912.783 -2.57602 3.7007 0
M  V30 9324 C 911.445 -2.51146 4.10462 0
M  V30 9325 C 913.797 -2.37482 4.63952 0
M  V30 9326 C 911.125 -2.22566 5.42846 0
M  V30 9327 C 913.477 -2.10425 5.96577 0
M  V30 9328 C 912.141 -2.02416 6.36069 0
M  V30 9329 H 911.411 -0.558697 0.486763 0
M  V30 9330 H 914.058 -0.88447 1.69851 0
M  V30 9331 H 912.363 -3.49014 1.78034 0
M  V30 9332 H 914.06 -3.38099 2.15615 0
M  V30 9333 H 910.65 -2.63491 3.38039 0
M  V30 9334 H 914.834 -2.41457 4.33604 0
M  V30 9335 H 910.09 -2.14863 5.72402 0
M  V30 9336 H 914.264 -1.93857 6.68874 0
M  V30 9337 H 911.891 -1.80034 7.38574 0
M  V30 9338 N 913.466 -1.22244 -0.994698 0
M  V30 9339 C 914.414 -0.988118 -2.10568 0
M  V30 9340 C 915.408 0.0681541 -1.69263 0
M  V30 9341 O 916.614 -0.0841311 -1.79803 0
M  V30 9342 H 912.989 -0.302343 -0.688544 0
M  V30 9343 H 914.96 -1.93091 -2.27505 0
M  V30 9344 C 913.709 -0.580557 -3.42819 0
M  V30 9345 H 913.032 -1.385 -3.75044 0
M  V30 9346 H 914.472 -0.456004 -4.21541 0
M  V30 9347 C 912.931 0.709692 -3.2934 0
M  V30 9348 O 913.461 1.76259 -3.60965 0
M  V30 9349 N 911.667 0.680155 -2.82528 0
M  V30 9350 H 911.214 -0.176977 -2.56991 0
M  V30 9351 H 911.172 1.54372 -2.73892 0
M  V30 9352 N 914.944 1.19125 -1.03184 0
M  V30 9353 C 916.172 1.92838 -0.74975 0
M  V30 9354 C 916.587 1.75667 0.691851 0
M  V30 9355 O 915.944 1.0805 1.47076 0
M  V30 9356 C 915.995 3.44509 -1.09525 0
M  V30 9357 O 915.716 3.6113 -2.48025 0
M  V30 9358 C 917.217 4.35338 -0.836397 0
M  V30 9359 H 914.437 0.61246 -0.274105 0
M  V30 9360 H 916.981 1.5118 -1.37712 0
M  V30 9361 H 915.136 3.83988 -0.513006 0
M  V30 9362 H 915.55 4.54959 -2.60984 0
M  V30 9363 H 917.024 5.4035 -1.12808 0
M  V30 9364 H 917.501 4.38602 0.229102 0
M  V30 9365 H 918.107 4.01544 -1.40152 0
M  V30 9366 N 916.422 0.810101 1.35185 0
M  V30 9367 C 917.65 0.404696 2.02903 0
M  V30 9368 C 918.065 -0.985434 1.61042 0
M  V30 9369 O 917.422 -1.63557 0.809658 0
M  V30 9370 C 917.473 0.482493 3.58266 0
M  V30 9371 O 917.194 1.81782 3.98606 0
M  V30 9372 C 918.695 0.070345 4.43244 0
M  V30 9373 H 915.915 0.163972 0.650657 0
M  V30 9374 H 918.459 1.0947 1.72733 0
M  V30 9375 H 916.614 -0.159296 3.87072 0
M  V30 9376 H 917.028 1.78306 4.93262 0
M  V30 9377 H 918.502 0.175888 5.5172 0
M  V30 9378 H 918.979 -0.984724 4.28018 0
M  V30 9379 H 919.585 0.685427 4.1974 0
M  V30 9380 N 917.9 -1.47166 0.563914 0
M  V30 9381 C 919.177 -1.95586 -0.0236172 0
M  V30 9382 C 919.557 -1.50655 -1.47872 0
M  V30 9383 O 918.905 -0.748479 -2.15894 0
M  V30 9384 C 919.115 -3.48762 0.128841 0
M  V30 9385 C 920.463 -4.24598 -0.0130544 0
M  V30 9386 O 921.487 -3.56155 0.0567242 0
M  V30 9387 O 920.346 -5.46253 -0.164332 0
M  V30 9388 H 917.44 -0.824793 -0.0603789 0
M  V30 9389 H 919.986 -1.57536 0.63091 0
M  V30 9390 H 918.758 -3.74291 1.14113 0
M  V30 9391 H 918.381 -3.93594 -0.56299 0
M  V30 9392 N 919.378 -0.300708 -1.54705 0
M  V30 9393 C 920.326 0.591264 -2.2496 0
M  V30 9394 C 921.32 1.13725 -1.2555 0
M  V30 9395 O 922.526 1.08793 -1.43402 0
M  V30 9396 H 918.901 0.209278 -0.722293 0
M  V30 9397 H 920.872 -0.0238175 -2.9839 0
M  V30 9398 C 919.621 1.75179 -3.00346 0
M  V30 9399 H 918.944 1.34089 -3.76643 0
M  V30 9400 H 920.384 2.35198 -3.52786 0
M  V30 9401 C 918.843 2.65574 -2.07298 0
M  V30 9402 O 919.373 3.6666 -1.64083 0
M  V30 9403 N 917.579 2.33301 -1.7326 0
M  V30 9404 H 917.126 1.51142 -2.08599 0
M  V30 9405 H 917.084 2.94049 -1.11278 0
M  V30 9406 N 920.856 1.57574 -0.0284266 0
M  V30 9407 C 922.104 1.91393 0.649079 0
M  V30 9408 C 922.425 0.905368 1.72708 0
M  V30 9409 O 921.695 -0.0532107 1.95828 0
M  V30 9410 H 920.275 0.70646 0.24274 0
M  V30 9411 H 922.937 1.94752 -0.076066 0
M  V30 9412 H 922.033 2.91988 1.10226 0
M  V30 9413 N 922.334 -0.244713 1.55689 0
M  V30 9414 C 923.266 -1.32595 1.86952 0
M  V30 9415 C 924.279 -1.44185 0.755948 0
M  V30 9416 O 925.468 -1.45496 1.03408 0
M  V30 9417 C 922.568 -2.70429 2.04258 0
M  V30 9418 C 921.741 -2.8108 3.35131 0
M  V30 9419 C 920.8 -3.99773 3.42152 0
M  V30 9420 O 919.826 -3.89197 4.15348 0
M  V30 9421 N 921.028 -5.13041 2.71604 0
M  V30 9422 H 923.793 -1.06111 2.80287 0
M  V30 9423 H 921.354 -0.434811 1.55952 0
M  V30 9424 H 923.346 -3.48173 2.06295 0
M  V30 9425 H 921.916 -2.89612 1.17658 0
M  V30 9426 H 921.136 -1.89994 3.45392 0
M  V30 9427 H 922.424 -2.85147 4.21389 0
M  V30 9428 H 921.822 -5.24525 2.11872 0
M  V30 9429 H 920.379 -5.88912 2.79331 0
M  V30 9430 N 923.813 -1.49104 -0.510467 0
M  V30 9431 C 925.062 -1.57362 -1.26175 0
M  V30 9432 C 925.375 -0.261218 -1.93848 0
M  V30 9433 O 926.581 -0.222238 -2.70589 0
M  V30 9434 C 925.037 -2.77606 -2.29048 0
M  V30 9435 C 924.645 -4.15567 -1.67357 0
M  V30 9436 C 926.389 -2.95188 -3.05064 0
M  V30 9437 C 924.296 -5.27046 -2.68285 0
M  V30 9438 H 923.226 -0.585887 -0.474608 0
M  V30 9439 H 925.877 -1.75474 -0.536753 0
M  V30 9440 H 924.259 -2.52968 -3.04669 0
M  V30 9441 H 925.433 -4.50304 -0.977924 0
M  V30 9442 H 923.748 -4.03264 -1.03765 0
M  V30 9443 H 926.345 -3.75643 -3.80521 0
M  V30 9444 H 926.688 -2.05385 -3.62108 0
M  V30 9445 H 927.221 -3.19821 -2.36558 0
M  V30 9446 H 923.96 -6.18878 -2.16034 0
M  V30 9447 H 923.48 -4.96774 -3.36118 0
M  V30 9448 H 925.159 -5.55983 -3.30896 0
M  V30 9449 N 925.291 0.760815 -1.38019 0
M  V30 9450 C 926.221 1.88811 -1.37377 0
M  V30 9451 C 927.202 1.68388 -0.240737 0
M  V30 9452 O 928.387 1.89086 -0.442739 0
M  V30 9453 C 925.517 3.26244 -1.1909 0
M  V30 9454 C 924.471 3.61254 -2.29521 0
M  V30 9455 C 923.797 4.97346 -1.96345 0
M  V30 9456 C 925.097 3.66874 -3.71753 0
M  V30 9457 H 926.791 1.89606 -2.31711 0
M  V30 9458 H 924.337 0.910818 -1.11535 0
M  V30 9459 H 926.29 4.04755 -1.17267 0
M  V30 9460 H 925.014 3.2591 -0.212152 0
M  V30 9461 H 923.673 2.85057 -2.30517 0
M  V30 9462 H 923.321 4.93564 -0.969728 0
M  V30 9463 H 923.021 5.21739 -2.703 0
M  V30 9464 H 924.545 5.78244 -1.96129 0
M  V30 9465 H 925.959 4.35514 -3.72828 0
M  V30 9466 H 924.356 4.02772 -4.44853 0
M  V30 9467 H 925.426 2.67273 -4.0459 0
M  V30 9468 N 926.769 1.22769 0.988202 0
M  V30 9469 C 927.732 1.00325 2.06076 0
M  V30 9470 C 928.732 -0.0320618 1.60768 0
M  V30 9471 O 929.922 0.206912 1.72967 0
M  V30 9472 C 927.054 0.516376 3.36966 0
M  V30 9473 H 928.247 1.95499 2.27421 0
M  V30 9474 H 925.8 1.04704 1.16047 0
M  V30 9475 H 926.535 -0.439498 3.21308 0
M  V30 9476 H 926.32 1.26337 3.71189 0
M  V30 9477 H 927.81 0.37974 4.1587 0
M  V30 9478 N 928.247 -1.18576 1.03814 0
M  V30 9479 C 929.195 -2.24166 0.620678 0
M  V30 9480 C 930.189 -1.65718 -0.351282 0
M  V30 9481 O 931.395 -1.78665 -0.218848 0
M  V30 9482 H 927.77 -0.729522 0.182487 0
M  V30 9483 H 929.741 -2.56686 1.52166 0
M  V30 9484 C 928.49 -3.477 -0.00307331 0
M  V30 9485 H 927.813 -3.92969 0.735874 0
M  V30 9486 H 929.253 -4.23214 -0.257988 0
M  V30 9487 C 927.712 -3.12757 -1.2524 0
M  V30 9488 O 928.242 -3.26261 -2.34344 0
M  V30 9489 N 926.448 -2.67104 -1.14471 0
M  V30 9490 H 925.995 -2.56316 -0.256873 0
M  V30 9491 H 925.953 -2.44096 -1.98153 0
M  V30 9492 N 929.725 -0.817259 -1.34754 0
M  V30 9493 C 931.002 -0.325468 -1.92873 0
M  V30 9494 C 931.382 1.18643 -1.74606 0
M  V30 9495 O 930.73 1.9909 -1.1214 0
M  V30 9496 C 930.94 -0.74858 -3.40877 0
M  V30 9497 C 932.288 -0.744165 -4.18028 0
M  V30 9498 O 933.312 -0.690799 -3.49437 0
M  V30 9499 O 932.171 -0.812207 -5.40431 0
M  V30 9500 H 929.265 -0.0876397 -0.822343 0
M  V30 9501 H 931.811 -0.901671 -1.43764 0
M  V30 9502 H 930.583 -1.79017 -3.47949 0
M  V30 9503 H 930.206 -0.147764 -3.97325 0
M  V30 9504 N 931.203 1.46865 -0.571711 0
M  V30 9505 C 932.449 2.0273 -0.0531858 0
M  V30 9506 C 932.782 1.44353 1.29907 0
M  V30 9507 O 932.057 0.604488 1.84868 0
M  V30 9508 C 932.34 3.60092 0.0243831 0
M  V30 9509 C 932.193 4.28874 -1.35599 0
M  V30 9510 C 933.512 4.33994 0.730563 0
M  V30 9511 H 930.631 0.736706 -0.0208018 0
M  V30 9512 H 933.273 1.75132 -0.736794 0
M  V30 9513 H 931.423 3.83736 0.606565 0
M  V30 9514 H 933.095 4.16527 -1.98249 0
M  V30 9515 H 931.338 3.88664 -1.92674 0
M  V30 9516 H 932.009 5.37561 -1.25429 0
M  V30 9517 H 934.485 4.1543 0.236098 0
M  V30 9518 H 933.361 5.43699 0.753836 0
M  V30 9519 H 933.622 4.04257 1.78967 0
M  V30 9520 N 932.681 0.308908 1.54543 0
M  V30 9521 C 933.644 -0.550857 2.22482 0
M  V30 9522 C 934.644 -1.0551 1.21344 0
M  V30 9523 O 935.834 -0.949866 1.46025 0
M  V30 9524 C 932.966 -1.76354 2.9174 0
M  V30 9525 H 934.159 0.0428395 2.99869 0
M  V30 9526 H 931.712 0.059825 1.56185 0
M  V30 9527 H 932.447 -2.39686 2.18451 0
M  V30 9528 H 932.232 -1.40954 3.65889 0
M  V30 9529 H 933.722 -2.37417 3.43545 0
M  V30 9530 N 934.159 -1.57557 0.0367827 0
M  V30 9531 C 935.092 -2.06205 -0.977479 0
M  V30 9532 C 936.07 -0.959444 -1.31276 0
M  V30 9533 O 937.254 -1.23033 -1.42811 0
M  V30 9534 C 934.381 -2.49053 -2.29544 0
M  V30 9535 C 933.427 -3.70409 -2.11423 0
M  V30 9536 S 934.26 -5.16715 -1.40593 0
M  V30 9537 C 935.416 -5.62864 -2.73742 0
M  V30 9538 H 935.649 -2.91913 -0.5634 0
M  V30 9539 H 933.182 -1.53404 -0.175111 0
M  V30 9540 H 935.14 -2.74403 -3.05308 0
M  V30 9541 H 933.801 -1.63677 -2.68083 0
M  V30 9542 H 932.994 -3.98262 -3.08875 0
M  V30 9543 H 932.596 -3.4525 -1.438 0
M  V30 9544 H 934.888 -5.67571 -3.69958 0
M  V30 9545 H 935.831 -6.62294 -2.50544 0
M  V30 9546 H 936.239 -4.90539 -2.79341 0
M  V30 9547 N 935.637 0.236453 -1.55816 0
M  V30 9548 C 936.547 1.31418 -1.94336 0
M  V30 9549 C 937.563 1.52095 -0.845164 0
M  V30 9550 O 938.739 1.65515 -1.14746 0
M  V30 9551 C 935.804 2.6468 -2.23932 0
M  V30 9552 C 934.865 2.52435 -3.47239 0
M  V30 9553 C 934.098 3.79342 -3.75414 0
M  V30 9554 O 934.321 4.81694 -3.05495 0
M  V30 9555 O 933.255 3.77347 -4.68927 0
M  V30 9556 H 937.081 1.01739 -2.86152 0
M  V30 9557 H 934.666 0.438084 -1.42833 0
M  V30 9558 H 936.548 3.4341 -2.44228 0
M  V30 9559 H 935.223 2.94071 -1.35292 0
M  V30 9560 H 934.13 1.71955 -3.32238 0
M  V30 9561 H 935.463 2.27987 -4.36214 0
M  V30 9562 N 937.115 1.49373 0.502552 0
M  V30 9563 C 938.025 1.68659 1.63068 0
M  V30 9564 C 939.041 0.569182 1.64427 0
M  V30 9565 O 940.217 0.843695 1.82876 0
M  V30 9566 C 937.282 1.74745 2.99441 0
M  V30 9567 C 936.343 2.98311 3.08721 0
M  V30 9568 C 935.576 3.04097 4.38589 0
M  V30 9569 O 935.799 2.17519 5.27297 0
M  V30 9570 O 934.733 3.96544 4.52809 0
M  V30 9571 H 938.559 2.64226 1.49727 0
M  V30 9572 H 936.144 1.33096 0.67867 0
M  V30 9573 H 938.026 1.8111 3.80496 0
M  V30 9574 H 936.701 0.823565 3.13048 0
M  V30 9575 H 935.608 2.97465 2.2686 0
M  V30 9576 H 936.941 3.90174 3.00041 0
M  V30 9577 N 938.594 -0.753485 1.38421 0
M  V30 9578 C 939.843 -1.50797 1.33952 0
M  V30 9579 C 940.156 -1.95482 -0.0678464 0
M  V30 9580 O 941.362 -2.7048 -0.235078 0
M  V30 9581 C 939.818 -2.72393 2.35224 0
M  V30 9582 C 939.426 -2.34733 3.81582 0
M  V30 9583 C 941.17 -3.50281 2.39798 0
M  V30 9584 C 939.077 -3.52939 4.7454 0
M  V30 9585 H 938.007 -0.566211 0.497916 0
M  V30 9586 H 940.658 -0.823659 1.63976 0
M  V30 9587 H 939.04 -3.42806 1.98243 0
M  V30 9588 H 940.214 -1.71985 4.27502 0
M  V30 9589 H 938.529 -1.69978 3.80127 0
M  V30 9590 H 941.126 -4.38172 3.06447 0
M  V30 9591 H 941.469 -3.91444 1.41695 0
M  V30 9592 H 942.002 -2.86881 2.75579 0
M  V30 9593 H 938.741 -3.16843 5.73839 0
M  V30 9594 H 938.261 -4.1473 4.33312 0
M  V30 9595 H 939.94 -4.19519 4.92557 0
M  V30 9596 N 940.072 -1.23292 -0.981677 0
M  V30 9597 C 940.982 -1.02964 -2.10798 0
M  V30 9598 C 941.998 0.0254674 -1.73981 0
M  V30 9599 O 943.174 -0.169706 -2.00684 0
M  V30 9600 C 940.239 -0.621934 -3.41076 0
M  V30 9601 C 939.3 -1.75194 -3.91926 0
M  V30 9602 C 938.533 -1.36359 -5.15986 0
M  V30 9603 O 938.756 -0.247265 -5.69864 0
M  V30 9604 O 937.69 -2.18421 -5.60871 0
M  V30 9605 H 941.516 -1.97354 -2.30836 0
M  V30 9606 H 939.101 -1.01986 -1.09175 0
M  V30 9607 H 940.983 -0.405446 -4.19445 0
M  V30 9608 H 939.658 0.29299 -3.22371 0
M  V30 9609 H 938.565 -2.02305 -3.1468 0
M  V30 9610 H 939.898 -2.64513 -4.15083 0
M  V30 9611 N 941.55 1.18024 -1.04442 0
M  V30 9612 C 942.799 1.8743 -0.745185 0
M  V30 9613 C 943.112 1.81459 0.730206 0
M  V30 9614 O 944.318 2.46263 1.1431 0
M  V30 9615 C 942.774 3.36266 -1.28271 0
M  V30 9616 C 942.382 3.50757 -2.787 0
M  V30 9617 C 944.126 4.11048 -1.06018 0
M  V30 9618 C 942.033 4.93573 -3.25791 0
M  V30 9619 H 940.963 0.702038 -0.27506 0
M  V30 9620 H 943.614 1.33333 -1.26073 0
M  V30 9621 H 941.996 3.89853 -0.695002 0
M  V30 9622 H 943.17 3.07423 -3.43261 0
M  V30 9623 H 941.485 2.89385 -2.99408 0
M  V30 9624 H 944.082 5.16395 -1.38711 0
M  V30 9625 H 944.425 4.163 0.00241716 0
M  V30 9626 H 944.958 3.63644 -1.61269 0
M  V30 9627 H 941.697 4.93491 -4.31447 0
M  V30 9628 H 941.217 5.37607 -2.65968 0
M  V30 9629 H 942.896 5.62307 -3.20031 0
M  V30 9630 N 943.028 0.824394 1.34319 0
M  V30 9631 C 944.256 0.426194 2.02463 0
M  V30 9632 C 944.671 -0.968298 1.62078 0
M  V30 9633 O 944.028 -1.62689 0.82696 0
M  V30 9634 C 944.079 0.520465 3.57734 0
M  V30 9635 O 943.8 1.86 3.96656 0
M  V30 9636 C 945.301 0.117353 4.43145 0
M  V30 9637 H 942.521 0.170864 0.648881 0
M  V30 9638 H 945.065 1.11296 1.71562 0
M  V30 9639 H 943.22 -0.118233 3.8722 0
M  V30 9640 H 943.634 1.83528 4.91343 0
M  V30 9641 H 945.108 0.234395 5.51502 0
M  V30 9642 H 945.585 -0.939271 4.29039 0
M  V30 9643 H 946.191 0.729908 4.1899 0
M  V30 9644 N 944.506 -1.46559 0.579492 0
M  V30 9645 C 945.469 -2.28739 -0.145371 0
M  V30 9646 C 946.469 -1.38211 -0.821854 0
M  V30 9647 O 947.659 -1.6062 -0.674302 0
M  V30 9648 C 944.791 -3.18507 -1.21515 0
M  V30 9649 H 945.984 -2.94301 0.576786 0
M  V30 9650 H 943.537 -1.52616 0.337327 0
M  V30 9651 H 944.272 -2.57685 -1.96899 0
M  V30 9652 H 944.057 -3.85157 -0.734616 0
M  V30 9653 H 945.547 -3.80369 -1.72363 0
M  V30 9654 N 945.984 -0.3171 -1.54377 0
M  V30 9655 C 946.931 0.551782 -2.24107 0
M  V30 9656 C 947.901 1.11681 -1.22949 0
M  V30 9657 O 949.086 1.15836 -1.51614 0
M  V30 9658 C 946.226 1.70997 -2.99756 0
M  V30 9659 C 945.339 1.17479 -4.15719 0
M  V30 9660 C 944.474 2.29815 -4.78914 0
M  V30 9661 C 943.513 1.73513 -5.86992 0
M  V30 9662 N 942.65 2.79485 -6.44075 0
M  V30 9663 H 947.49 -0.049431 -2.97959 0
M  V30 9664 H 945.027 -0.0361658 -1.47056 0
M  V30 9665 H 946.985 2.39141 -3.41859 0
M  V30 9666 H 945.615 2.28257 -2.28251 0
M  V30 9667 H 944.667 0.385109 -3.78446 0
M  V30 9668 H 945.979 0.72276 -4.93536 0
M  V30 9669 H 945.133 3.05875 -5.23952 0
M  V30 9670 H 943.872 2.78352 -4.00464 0
M  V30 9671 H 942.877 0.959475 -5.41363 0
M  V30 9672 H 944.102 1.2586 -6.67335 0
M  V30 9673 H 942.048 3.27325 -5.68502 0
M  V30 9674 H 941.965 2.38825 -7.17286 0
M  V30 9675 H 943.233 3.55394 -6.93769 0
M  V30 9676 N 947.462 1.57535 -0.0451378 0
M  V30 9677 C 948.41 2.12351 0.949205 0
M  V30 9678 C 949.404 1.05386 1.32628 0
M  V30 9679 O 950.61 1.23802 1.30664 0
M  V30 9680 H 946.985 0.678648 0.323945 0
M  V30 9681 H 948.956 2.94806 0.461718 0
M  V30 9682 C 947.705 2.67862 2.21687 0
M  V30 9683 H 947.028 3.49826 1.93551 0
M  V30 9684 H 948.468 3.09844 2.89435 0
M  V30 9685 C 946.927 1.61353 2.95748 0
M  V30 9686 O 947.457 1.02276 3.88462 0
M  V30 9687 N 945.663 1.33017 2.5837 0
M  V30 9688 H 945.21 1.81246 1.83051 0
M  V30 9689 H 945.168 0.619812 3.0823 0
M  V30 9690 N 948.94 -0.228186 1.55939 0
M  V30 9691 C 950.188 -0.951668 1.78291 0
M  V30 9692 C 950.509 -1.85132 0.612474 0
M  V30 9693 O 949.779 -1.92356 -0.370942 0
M  V30 9694 H 948.359 -0.354388 0.657585 0
M  V30 9695 H 951.021 -0.241635 1.93396 0
M  V30 9696 H 950.117 -1.56239 2.70177 0
M  V30 9697 N 950.418 -1.49637 -0.494624 0
M  V30 9698 C 951.834 -1.36541 -0.826361 0
M  V30 9699 C 952.034 -0.403386 -1.97421 0
M  V30 9700 O 951.09 0.162614 -2.51976 0
M  V30 9701 C 952.403 -2.77401 -1.16057 0
M  V30 9702 C 953.951 -2.86148 -1.26841 0
M  V30 9703 C 954.426 -4.27789 -1.63587 0
M  V30 9704 N 955.917 -4.3063 -1.70624 0
M  V30 9705 C 956.652 -5.37198 -2.00514 0
M  V30 9706 N 956.148 -6.54004 -2.28584 0
M  V30 9707 N 957.941 -5.2462 -2.01818 0
M  V30 9708 H 950.092 -2.10776 0.26219 0
M  V30 9709 H 952.355 -0.946419 0.0547235 0
M  V30 9710 H 952.061 -3.49526 -0.390434 0
M  V30 9711 H 951.935 -3.1317 -2.10249 0
M  V30 9712 H 954.322 -2.14256 -2.02925 0
M  V30 9713 H 954.403 -2.53953 -0.30684 0
M  V30 9714 H 954.047 -5.00209 -0.880507 0
M  V30 9715 H 953.977 -4.57453 -2.60854 0
M  V30 9716 H 956.468 -3.46393 -1.51065 0
M  V30 9717 H 956.781 -7.31041 -2.50598 0
M  V30 9718 H 955.126 -6.57219 -2.26027 0
M  V30 9719 H 958.317 -4.32371 -1.79369 0
M  V30 9720 H 958.49 -6.07765 -2.24778 0
M  V30 9721 N 951.896 0.746133 -1.38819 0
M  V30 9722 C 953.145 1.50085 -1.34749 0
M  V30 9723 C 953.458 1.95516 0.0574786 0
M  V30 9724 O 954.664 2.70601 0.22073 0
M  V30 9725 C 953.12 2.71141 -2.36665 0
M  V30 9726 C 952.728 2.32706 -3.82821 0
M  V30 9727 C 954.472 3.49005 -2.41652 0
M  V30 9728 C 952.379 3.50418 -4.76405 0
M  V30 9729 H 951.309 0.563563 -0.500912 0
M  V30 9730 H 953.96 0.814951 -1.6441 0
M  V30 9731 H 952.342 3.4175 -2.00058 0
M  V30 9732 H 953.516 1.69715 -4.28408 0
M  V30 9733 H 951.831 1.67959 -3.81023 0
M  V30 9734 H 954.428 4.36541 -3.08766 0
M  V30 9735 H 954.771 3.90687 -1.43769 0
M  V30 9736 H 955.304 2.85416 -2.77097 0
M  V30 9737 H 952.043 3.13795 -5.75511 0
M  V30 9738 H 951.563 4.12426 -4.35505 0
M  V30 9739 H 953.242 4.16901 -4.94775 0
M  V30 9740 N 953.375 1.23811 0.975125 0
M  V30 9741 C 954.605 1.0986 1.7497 0
M  V30 9742 C 955.013 -0.352366 1.8589 0
M  V30 9743 O 954.356 -1.2553 1.34119 0
M  V30 9744 C 954.418 1.65584 3.19096 0
M  V30 9745 C 954.082 3.14395 3.3167 0
M  V30 9746 C 955.079 4.1163 3.17579 0
M  V30 9747 C 952.764 3.54208 3.56149 0
M  V30 9748 C 954.758 5.46661 3.27781 0
M  V30 9749 C 952.445 4.89382 3.65989 0
M  V30 9750 C 953.443 5.85418 3.51817 0
M  V30 9751 O 953.131 7.18135 3.61299 0
M  V30 9752 H 952.863 0.384854 0.555755 0
M  V30 9753 H 955.417 1.64242 1.23343 0
M  V30 9754 H 953.647 1.05627 3.71994 0
M  V30 9755 H 955.336 1.47032 3.78334 0
M  V30 9756 H 956.102 3.82214 2.98559 0
M  V30 9757 H 951.981 2.79968 3.66249 0
M  V30 9758 H 955.525 6.21601 3.16636 0
M  V30 9759 H 951.422 5.18473 3.84521 0
M  V30 9760 H 952.19 7.25956 3.78061 0
M  V30 9761 N 954.853 -1.17469 1.05066 0
M  V30 9762 C 956.081 -1.9162 0.780334 0
M  V30 9763 C 956.496 -1.76745 -0.663817 0
M  V30 9764 O 955.853 -1.10377 -1.45338 0
M  V30 9765 C 955.904 -3.42723 1.14992 0
M  V30 9766 O 955.625 -3.57139 2.53739 0
M  V30 9767 C 957.126 -4.33952 0.905549 0
M  V30 9768 H 954.346 -0.608022 0.283814 0
M  V30 9769 H 956.89 -1.4897 1.401 0
M  V30 9770 H 955.045 -3.83124 0.57403 0
M  V30 9771 H 955.459 -4.5075 2.68189 0
M  V30 9772 H 956.933 -5.38487 1.21391 0
M  V30 9773 H 957.41 -4.38911 -0.159295 0
M  V30 9774 H 958.016 -3.99263 1.46522 0
M  V30 9775 N 956.331 -0.831506 -1.3388 0
M  V30 9776 C 957.261 -0.274378 -2.31882 0
M  V30 9777 C 958.242 0.613872 -1.58637 0
M  V30 9778 O 959.427 0.538961 -1.86571 0
M  V30 9779 C 956.557 0.557498 -3.42796 0
M  V30 9780 C 955.511 -0.234337 -4.27358 0
M  V30 9781 C 954.837 0.720825 -5.29819 0
M  V30 9782 C 956.137 -1.44732 -5.01847 0
M  V30 9783 H 957.831 -1.09322 -2.78728 0
M  V30 9784 H 955.377 -0.527136 -1.34005 0
M  V30 9785 H 957.33 0.957501 -4.10378 0
M  V30 9786 H 956.054 1.40947 -2.94621 0
M  V30 9787 H 954.713 -0.61581 -3.61391 0
M  V30 9788 H 954.361 1.569 -4.77903 0
M  V30 9789 H 954.061 0.195171 -5.87276 0
M  V30 9790 H 955.585 1.1185 -6.00268 0
M  V30 9791 H 956.999 -1.12087 -5.62236 0
M  V30 9792 H 955.396 -1.90923 -5.68919 0
M  V30 9793 H 956.466 -2.22099 -4.31045 0
M  V30 9794 N 957.809 1.4625 -0.587256 0
M  V30 9795 C 959.037 2.06744 -0.08033 0
M  V30 9796 C 959.452 1.43527 1.2266 0
M  V30 9797 O 958.809 0.542168 1.74261 0
M  V30 9798 C 958.86 3.61394 0.0873469 0
M  V30 9799 O 958.581 4.22247 -1.16785 0
M  V30 9800 C 960.082 4.38828 0.628095 0
M  V30 9801 H 957.302 0.668354 -0.0595301 0
M  V30 9802 H 959.846 1.87808 -0.809217 0
M  V30 9803 H 958.001 3.79742 0.766473 0
M  V30 9804 H 958.415 5.15176 -0.984565 0
M  V30 9805 H 959.889 5.47613 0.694583 0
M  V30 9806 H 960.366 4.07188 1.64606 0
M  V30 9807 H 960.972 4.25297 -0.0163115 0
M  V30 9808 N 959.287 0.325282 1.54207 0
M  V30 9809 C 960.535 -0.276229 2.00203 0
M  V30 9810 C 960.856 -1.52519 1.21503 0
M  V30 9811 O 960.126 -1.93313 0.317302 0
M  V30 9812 H 958.706 -0.105059 0.739575 0
M  V30 9813 H 961.368 0.442225 1.89817 0
M  V30 9814 H 960.464 -0.531427 3.07542 0
M  V30 9815 N 960.765 -1.57509 0.0534917 0
M  V30 9816 C 962.011 -1.93068 -0.62069 0
M  V30 9817 C 962.344 -0.932313 -1.70357 0
M  V30 9818 O 961.619 0.0413393 -1.94456 0
M  V30 9819 C 961.902 -3.38997 -1.21463 0
M  V30 9820 C 961.755 -4.49583 -0.13965 0
M  V30 9821 C 963.074 -3.85366 -2.12558 0
M  V30 9822 H 960.193 -0.702083 -0.224163 0
M  V30 9823 H 962.835 -1.89647 0.115729 0
M  V30 9824 H 960.985 -3.42043 -1.84226 0
M  V30 9825 H 962.657 -4.58664 0.492411 0
M  V30 9826 H 960.9 -4.30525 0.532006 0
M  V30 9827 H 961.571 -5.48781 -0.595287 0
M  V30 9828 H 964.047 -3.8421 -1.59755 0
M  V30 9829 H 962.923 -4.8812 -2.51058 0
M  V30 9830 H 963.184 -3.22256 -3.02661 0
M  V30 9831 N 962.243 0.219913 -1.56058 0
M  V30 9832 C 963.173 1.27572 -1.9557 0
M  V30 9833 C 964.154 1.48801 -0.824148 0
M  V30 9834 O 965.339 1.60957 -1.08658 0
M  V30 9835 C 962.469 2.62517 -2.27381 0
M  V30 9836 C 961.423 2.55941 -3.43042 0
M  V30 9837 C 960.749 3.94931 -3.60463 0
M  V30 9838 C 962.049 2.10584 -4.77966 0
M  V30 9839 H 963.743 0.947482 -2.84013 0
M  V30 9840 H 961.289 0.454337 -1.36645 0
M  V30 9841 H 963.242 3.36538 -2.53615 0
M  V30 9842 H 961.966 2.97031 -1.35794 0
M  V30 9843 H 960.625 1.84377 -3.1686 0
M  V30 9844 H 960.273 4.26756 -2.66249 0
M  V30 9845 H 959.973 3.91413 -4.38258 0
M  V30 9846 H 961.497 4.70611 -3.89046 0
M  V30 9847 H 962.911 2.74349 -5.03394 0
M  V30 9848 H 961.308 2.18122 -5.59055 0
M  V30 9849 H 962.378 1.05818 -4.73213 0
M  V30 9850 N 963.721 1.49897 0.486681 0
M  V30 9851 C 964.97 1.59349 1.23656 0
M  V30 9852 C 965.283 0.292024 1.93408 0
M  V30 9853 O 966.489 0.265258 2.70201 0
M  V30 9854 C 964.945 2.81215 2.24602 0
M  V30 9855 C 964.553 4.18177 1.60725 0
M  V30 9856 C 966.297 3.00004 3.00329 0
M  V30 9857 C 964.204 5.31247 2.59866 0
M  V30 9858 H 963.134 0.593363 0.465227 0
M  V30 9859 H 965.785 1.76306 0.508769 0
M  V30 9860 H 964.167 2.57783 3.00606 0
M  V30 9861 H 965.341 4.51802 0.90616 0
M  V30 9862 H 963.656 4.04864 0.973362 0
M  V30 9863 H 966.253 3.81649 3.74497 0
M  V30 9864 H 966.596 2.1112 3.58795 0
M  V30 9865 H 967.129 3.23544 2.3144 0
M  V30 9866 H 963.868 6.22236 2.06161 0
M  V30 9867 H 963.388 5.02059 3.28172 0
M  V30 9868 H 965.067 5.61177 3.22009 0
M  V30 9869 N 965.199 -0.738761 1.39212 0
M  V30 9870 C 966.61 -1.31684 1.32348 0
M  V30 9871 C 966.961 -1.96195 -0.0139041 0
M  V30 9872 O 966.086 -1.96056 -0.916025 0
M  V30 9873 C 966.681 -2.39444 2.39691 0
M  V30 9874 C 965.24 -2.92935 2.36359 0
M  V30 9875 C 964.387 -1.66465 2.21776 0
M  V30 9876 H 967.338 -0.536543 1.49355 0
M  V30 9877 H 967.359 -3.19744 2.06262 0
M  V30 9878 H 966.871 -1.92463 3.37016 0
M  V30 9879 H 964.972 -3.44207 1.42662 0
M  V30 9880 H 965.085 -3.46306 3.31073 0
M  V30 9881 H 963.449 -1.90657 1.68884 0
M  V30 9882 H 964.232 -1.21541 3.21065 0
M  V30 9883 N 966.677 -1.24326 -0.968545 0
M  V30 9884 C 968.088 -1.07561 -1.52603 0
M  V30 9885 C 968.439 0.353245 -1.92994 0
M  V30 9886 O 967.564 1.24151 -1.77244 0
M  V30 9887 C 968.159 -1.94634 -2.77314 0
M  V30 9888 C 966.718 -1.82095 -3.29421 0
M  V30 9889 C 965.865 -1.8962 -2.02335 0
M  V30 9890 H 968.816 -1.37815 -0.786932 0
M  V30 9891 H 968.837 -1.47812 -3.50616 0
M  V30 9892 H 968.349 -2.98621 -2.47885 0
M  V30 9893 H 966.45 -0.809376 -3.63703 0
M  V30 9894 H 966.563 -2.66142 -3.98378 0
M  V30 9895 H 964.927 -1.33339 -2.17009 0
M  V30 9896 H 965.71 -2.95185 -1.75273 0
M  V30 9897 N 968.156 1.1691 -1.05688 0
M  V30 9898 C 969.381 1.91745 -0.790478 0
M  V30 9899 C 969.806 1.76568 0.648478 0
M  V30 9900 O 969.164 1.08682 1.45114 0
M  V30 9901 C 969.212 3.4067 -1.18222 0
M  V30 9902 O 968.316 4.11177 -0.317341 0
M  V30 9903 H 967.657 0.5976 -0.28943 0
M  V30 9904 H 970.187 1.48157 -1.41105 0
M  V30 9905 H 970.197 3.91424 -1.15114 0
M  V30 9906 H 968.872 3.51036 -2.2304 0
M  V30 9907 H 967.449 3.70645 -0.409459 0
M  V30 9908 N 969.634 0.838594 1.33437 0
M  V30 9909 C 970.883 0.430484 1.97053 0
M  V30 9910 C 971.196 -1.01556 1.6717 0
M  V30 9911 O 972.402 -1.52834 2.24397 0
M  V30 9912 C 970.858 0.718828 3.52648 0
M  V30 9913 C 970.466 2.17953 3.91408 0
M  V30 9914 C 972.21 0.377654 4.22817 0
M  V30 9915 C 970.117 2.41194 5.39981 0
M  V30 9916 H 969.047 0.157239 0.737422 0
M  V30 9917 H 971.698 1.02714 1.5206 0
M  V30 9918 H 970.08 0.0518042 3.95966 0
M  V30 9919 H 971.254 2.88701 3.59149 0
M  V30 9920 H 969.569 2.48366 3.34221 0
M  V30 9921 H 972.166 0.528926 5.32077 0
M  V30 9922 H 972.509 -0.679338 4.1072 0
M  V30 9923 H 973.042 0.999899 3.85028 0
M  V30 9924 H 969.781 3.45457 5.57081 0
M  V30 9925 H 969.301 1.75007 5.73701 0
M  V30 9926 H 970.98 2.24334 6.06863 0
M  V30 9927 N 971.112 -1.45937 0.595003 0
M  V30 9928 C 972.358 -2.0262 0.0854317 0
M  V30 9929 C 972.691 -1.46402 -1.27594 0
M  V30 9930 O 971.966 -0.633823 -1.83883 0
M  V30 9931 C 972.249 -3.60085 0.0329075 0
M  V30 9932 C 972.102 -4.26663 1.42405 0
M  V30 9933 C 973.421 -4.35101 -0.661426 0
M  V30 9934 H 970.54 -0.736282 0.0325196 0
M  V30 9935 H 973.182 -1.73938 0.764563 0
M  V30 9936 H 971.332 -3.84652 -0.545439 0
M  V30 9937 H 973.004 -4.13321 2.04851 0
M  V30 9938 H 971.247 -3.85549 1.98833 0
M  V30 9939 H 971.918 -5.35497 1.33965 0
M  V30 9940 H 974.394 -4.15753 -0.169977 0
M  V30 9941 H 973.27 -5.44829 -0.667243 0
M  V30 9942 H 973.531 -4.07053 -1.72513 0
M  V30 9943 N 972.59 -0.333456 -1.54032 0
M  V30 9944 C 974.001 0.15256 -1.86076 0
M  V30 9945 C 974.352 1.50819 -1.25492 0
M  V30 9946 O 973.477 2.08903 -0.564665 0
M  V30 9947 C 974.072 0.283599 -3.37611 0
M  V30 9948 C 972.631 0.713841 -3.69569 0
M  V30 9949 C 971.778 -0.158515 -2.76847 0
M  V30 9950 H 974.729 -0.553404 -1.48738 0
M  V30 9951 H 974.75 1.11284 -3.63863 0
M  V30 9952 H 974.262 -0.703193 -3.81676 0
M  V30 9953 H 972.363 1.71002 -3.31042 0
M  V30 9954 H 972.476 0.510731 -4.7637 0
M  V30 9955 H 970.84 0.367531 -2.52034 0
M  V30 9956 H 971.623 -1.14226 -3.2374 0
M  V30 9957 N 974.068 1.57479 -0.061844 0
M  V30 9958 C 975.317 1.92285 0.609055 0
M  V30 9959 C 975.63 0.942983 1.71369 0
M  V30 9960 O 976.836 1.18349 2.44348 0
M  V30 9961 C 975.292 3.41545 1.13468 0
M  V30 9962 C 974.9 4.47958 0.0615926 0
M  V30 9963 C 976.644 3.85368 1.78022 0
M  V30 9964 C 974.551 5.88341 0.600705 0
M  V30 9965 H 973.481 0.717656 0.23127 0
M  V30 9966 H 976.132 1.83021 -0.132466 0
M  V30 9967 H 974.514 3.45848 1.92886 0
M  V30 9968 H 975.688 4.55258 -0.712527 0
M  V30 9969 H 974.003 4.13541 -0.487116 0
M  V30 9970 H 976.6 4.87627 2.19371 0
M  V30 9971 H 976.943 3.22193 2.63623 0
M  V30 9972 H 977.476 3.83626 1.05242 0
M  V30 9973 H 974.215 6.55138 -0.217922 0
M  V30 9974 H 973.735 5.84581 1.34257 0
M  V30 9975 H 975.414 6.37918 1.08025 0
M  V30 9976 N 975.546 -0.211634 1.56173 0
M  V30 9977 C 976.476 -1.26533 1.96244 0
M  V30 9978 C 977.457 -1.48362 0.832028 0
M  V30 9979 O 978.642 -1.60378 1.0951 0
M  V30 9980 C 975.772 -2.61307 2.2877 0
M  V30 9981 C 974.726 -2.54119 3.44395 0
M  V30 9982 C 974.052 -3.93014 3.62552 0
M  V30 9983 C 975.352 -2.08046 4.79076 0
M  V30 9984 H 977.046 -0.932407 2.84511 0
M  V30 9985 H 974.592 -0.447084 1.36884 0
M  V30 9986 H 976.545 -3.35188 2.55396 0
M  V30 9987 H 975.269 -2.96307 1.37367 0
M  V30 9988 H 973.928 -1.82694 3.17834 0
M  V30 9989 H 973.576 -4.25338 2.68508 0
M  V30 9990 H 973.276 -3.89083 4.40327 0
M  V30 9991 H 974.8 -4.68542 3.91537 0
M  V30 9992 H 976.214 -2.71676 5.04842 0
M  V30 9993 H 974.611 -2.15154 5.60204 0
M  V30 9994 H 975.681 -1.03306 4.73768 0
M  V30 9995 N 977.024 -1.50153 -0.478725 0
M  V30 9996 C 978.435 -1.53706 -1.05978 0
M  V30 9997 C 978.786 -0.336112 -1.933 0
M  V30 9998 O 977.911 0.551803 -2.09246 0
M  V30 9999 C 978.506 -2.78541 -1.92874 0
M  V30 10000 C 977.065 -2.848 -2.46102 0
M  V30 10001 C 976.212 -2.47902 -1.24257 0
M  V30 10002 H 979.163 -1.56528 -0.261664 0
M  V30 10003 H 979.184 -2.59964 -2.77847 0
M  V30 10004 H 978.696 -3.6593 -1.29293 0
M  V30 10005 H 976.797 -2.01744 -3.13257 0
M  V30 10006 H 976.91 -3.87511 -2.81731 0
M  V30 10007 H 975.274 -2.0017 -1.57493 0
M  V30 10008 H 976.057 -3.3759 -0.62351 0
M  V30 10009 N 978.502 0.731368 -1.39602 0
M  V30 10010 C 979.452 1.83662 -1.35101 0
M  V30 10011 C 980.436 1.5923 -0.231241 0
M  V30 10012 O 981.628 1.70671 -0.469072 0
M  V30 10013 C 978.757 3.21629 -1.20041 0
M  V30 10014 C 977.843 3.51878 -2.36733 0
M  V30 10015 N 978.234 3.53041 -3.6221 0
M  V30 10016 C 976.532 3.82259 -2.2977 0
M  V30 10017 C 977.233 3.81188 -4.39398 0
M  V30 10018 N 976.209 3.99145 -3.69031 0
M  V30 10019 H 980.011 1.82871 -2.30077 0
M  V30 10020 H 977.525 0.929777 -1.3315 0
M  V30 10021 H 979.522 4.00754 -1.14899 0
M  V30 10022 H 978.182 3.23656 -0.260184 0
M  V30 10023 H 979.193 3.34266 -3.95584 0
M  V30 10024 H 975.87 3.9187 -1.44029 0
M  V30 10025 H 977.26 3.88525 -5.48177 0
M  V30 10026 N 979.98 1.24838 0.961938 0
M  V30 10027 C 981.396 1.01502 1.23165 0
M  V30 10028 C 981.596 -0.272651 1.99647 0
M  V30 10029 O 980.652 -0.987297 2.32398 0
M  V30 10030 C 981.965 2.23366 2.01316 0
M  V30 10031 C 983.513 2.28051 2.14387 0
M  V30 10032 C 983.988 3.49552 2.95935 0
M  V30 10033 N 985.479 3.49904 3.03515 0
M  V30 10034 C 986.214 4.40577 3.66987 0
M  V30 10035 N 985.71 5.41512 4.3213 0
M  V30 10036 N 987.503 4.28275 3.64056 0
M  V30 10037 H 979.654 2.07576 0.450086 0
M  V30 10038 H 981.917 0.911205 0.261551 0
M  V30 10039 H 981.623 3.16913 1.5251 0
M  V30 10040 H 981.497 2.25949 3.02038 0
M  V30 10041 H 983.884 1.35032 2.62393 0
M  V30 10042 H 983.965 2.29491 1.12994 0
M  V30 10043 H 983.609 4.42889 2.4862 0
M  V30 10044 H 983.539 3.45357 3.97538 0
M  V30 10045 H 986.03 2.76885 2.57183 0
M  V30 10046 H 986.343 6.06924 4.78396 0
M  V30 10047 H 984.688 5.45393 4.3078 0
M  V30 10048 H 987.879 3.48653 3.12344 0
M  V30 10049 H 988.052 4.99138 4.13237 0
M  V30 10050 N 981.458 -1.16348 1.06306 0
M  V30 10051 C 982.698 -1.88556 0.789055 0
M  V30 10052 C 983.062 -1.79849 -0.672179 0
M  V30 10053 O 984.263 -2.46984 -1.06078 0
M  V30 10054 C 982.534 -3.34069 1.27016 0
M  V30 10055 S 984.093 -4.24128 1.12522 0
M  V30 10056 H 980.911 -0.65084 0.286232 0
M  V30 10057 H 983.513 -1.40443 1.36 0
M  V30 10058 H 982.217 -3.37944 2.32856 0
M  V30 10059 H 981.748 -3.87231 0.693963 0
M  V30 10060 H 983.763 -4.96168 0.0562142 0
M  V30 10061 N 982.937 -0.845659 -1.3299 0
M  V30 10062 C 984.214 -0.366306 -1.92139 0
M  V30 10063 C 984.594 1.14912 -1.77083 0
M  V30 10064 O 983.942 1.96667 -1.16338 0
M  V30 10065 C 984.152 -0.820716 -3.39213 0
M  V30 10066 C 985.5 -0.832667 -4.16355 0
M  V30 10067 O 986.524 -0.764764 -3.47893 0
M  V30 10068 O 985.383 -0.926658 -5.38586 0
M  V30 10069 H 982.477 -0.105063 -0.820299 0
M  V30 10070 H 985.023 -0.931962 -1.41819 0
M  V30 10071 H 983.795 -1.86357 -3.44074 0
M  V30 10072 H 983.418 -0.232009 -3.96923 0
M  V30 10073 N 984.415 1.45619 -0.602734 0
M  V30 10074 C 985.325 2.34288 0.120902 0
M  V30 10075 C 986.341 1.50952 0.865414 0
M  V30 10076 O 987.517 1.83768 0.824094 0
M  V30 10077 C 984.582 3.28489 1.10888 0
M  V30 10078 C 983.643 4.2773 0.366853 0
M  V30 10079 C 982.876 5.17429 1.30776 0
M  V30 10080 O 983.099 5.10459 2.54535 0
M  V30 10081 O 982.033 5.96459 0.807464 0
M  V30 10082 H 985.859 2.97559 -0.60765 0
M  V30 10083 H 983.444 1.44922 -0.363019 0
M  V30 10084 H 985.326 3.86549 1.67803 0
M  V30 10085 H 984.001 2.67789 1.81854 0
M  V30 10086 H 982.908 3.73299 -0.244643 0
M  V30 10087 H 984.241 4.91271 -0.302226 0
M  V30 10088 N 985.893 0.34162 1.53853 0
M  V30 10089 C 987.121 -0.256929 2.05299 0
M  V30 10090 C 987.536 -1.44366 1.21671 0
M  V30 10091 O 986.893 -1.80758 0.251584 0
M  V30 10092 C 986.944 -0.673854 3.55164 0
M  V30 10093 O 986.665 0.465687 4.35618 0
M  V30 10094 C 988.166 -1.33332 4.22773 0
M  V30 10095 H 985.386 -0.0499445 0.669139 0
M  V30 10096 H 987.93 0.493048 1.98467 0
M  V30 10097 H 986.085 -1.37378 3.62224 0
M  V30 10098 H 986.499 0.133723 5.2433 0
M  V30 10099 H 987.973 -1.57582 5.29029 0
M  V30 10100 H 988.45 -2.28628 3.75001 0
M  V30 10101 H 989.056 -0.675489 4.19901 0
M  V30 10102 N 987.371 -1.57444 0.0701946 0
M  V30 10103 C 988.318 -2.12631 -0.897599 0
M  V30 10104 C 989.288 -1.03841 -1.29639 0
M  V30 10105 O 990.473 -1.31495 -1.38253 0
M  V30 10106 C 987.613 -2.6911 -2.16041 0
M  V30 10107 C 986.726 -3.9205 -1.8144 0
M  V30 10108 C 985.861 -4.36778 -3.02321 0
M  V30 10109 C 984.9 -5.52371 -2.63729 0
M  V30 10110 N 984.037 -5.92065 -3.77364 0
M  V30 10111 H 988.877 -2.95024 -0.420104 0
M  V30 10112 H 986.414 -1.45792 -0.195716 0
M  V30 10113 H 988.372 -2.99963 -2.89962 0
M  V30 10114 H 987.002 -1.89484 -2.61334 0
M  V30 10115 H 986.054 -3.67669 -0.975896 0
M  V30 10116 H 987.366 -4.76011 -1.49046 0
M  V30 10117 H 986.52 -4.69285 -3.84521 0
M  V30 10118 H 985.259 -3.51668 -3.37907 0
M  V30 10119 H 984.264 -5.19517 -1.7995 0
M  V30 10120 H 985.489 -6.39212 -2.29315 0
M  V30 10121 H 983.435 -5.09904 -4.12715 0
M  V30 10122 H 983.352 -6.70762 -3.48733 0
M  V30 10123 H 984.62 -6.29193 -4.60148 0
M  V30 10124 N 988.849 0.203349 -1.56283 0
M  V30 10125 C 990.265 0.55384 -1.49682 0
M  V30 10126 C 990.465 1.86261 -0.768701 0
M  V30 10127 O 989.521 2.50517 -0.315824 0
M  V30 10128 C 990.834 0.616216 -2.94318 0
M  V30 10129 C 992.382 0.705611 -3.04943 0
M  V30 10130 C 992.857 0.79917 -4.50974 0
M  V30 10131 N 994.348 0.862916 -4.55091 0
M  V30 10132 C 995.083 0.955334 -5.65386 0
M  V30 10133 N 994.579 1.01057 -6.8539 0
M  V30 10134 N 996.372 0.991884 -5.53279 0
M  V30 10135 H 988.523 -0.655244 -2.0204 0
M  V30 10136 H 990.786 -0.232344 -0.919087 0
M  V30 10137 H 990.492 -0.27619 -3.50614 0
M  V30 10138 H 990.366 1.47371 -3.4722 0
M  V30 10139 H 992.753 1.58845 -2.48701 0
M  V30 10140 H 992.834 -0.177921 -2.5518 0
M  V30 10141 H 992.478 -0.0792841 -5.07838 0
M  V30 10142 H 992.408 1.69838 -4.9846 0
M  V30 10143 H 994.899 0.829812 -3.68677 0
M  V30 10144 H 995.212 1.08137 -7.65197 0
M  V30 10145 H 993.557 0.979384 -6.88065 0
M  V30 10146 H 996.748 0.945514 -4.58451 0
M  V30 10147 H 996.921 1.06045 -6.39264 0
M  V30 10148 N 990.327 1.50405 0.470755 0
M  V30 10149 C 991.237 1.7208 1.59454 0
M  V30 10150 C 992.253 0.603932 1.63183 0
M  V30 10151 O 993.429 0.882296 1.81046 0
M  V30 10152 C 990.494 1.81057 2.95667 0
M  V30 10153 C 989.555 3.04792 3.02324 0
M  V30 10154 C 988.788 3.13332 4.3204 0
M  V30 10155 O 989.011 2.28655 5.22564 0
M  V30 10156 O 987.945 4.0606 4.44296 0
M  V30 10157 H 991.771 2.67343 1.44089 0
M  V30 10158 H 989.356 1.34505 0.650286 0
M  V30 10159 H 991.238 1.8914 3.76569 0
M  V30 10160 H 989.913 0.889782 3.11231 0
M  V30 10161 H 988.82 3.0221 2.205 0
M  V30 10162 H 990.153 3.96451 2.91698 0
M  V30 10163 N 991.805 -0.723954 1.39988 0
M  V30 10164 C 992.738 -1.84725 1.33985 0
M  V30 10165 C 993.716 -1.61217 0.211623 0
M  V30 10166 O 994.9 -1.84338 0.393905 0
M  V30 10167 C 992.027 -3.20913 1.08317 0
M  V30 10168 C 991.073 -3.63262 2.23478 0
M  V30 10169 S 991.906 -3.71346 3.85827 0
M  V30 10170 C 993.062 -5.10307 3.62405 0
M  V30 10171 H 993.295 -1.89535 2.2905 0
M  V30 10172 H 990.828 -0.889911 1.26174 0
M  V30 10173 H 992.786 -3.99547 0.941921 0
M  V30 10174 H 991.447 -3.13745 0.149203 0
M  V30 10175 H 990.64 -4.62124 2.01139 0
M  V30 10176 H 990.242 -2.91863 2.33863 0
M  V30 10177 H 992.534 -5.96975 3.20354 0
M  V30 10178 H 993.477 -5.37679 4.60768 0
M  V30 10179 H 993.885 -4.80505 2.96269 0
M  V30 10180 N 993.283 -1.25346 -0.955304 0
M  V30 10181 C 994.23 -1.05672 -2.05188 0
M  V30 10182 C 995.2 0.0339217 -1.66065 0
M  V30 10183 O 996.385 -0.123126 -1.90402 0
M  V30 10184 C 993.525 -0.680791 -3.38318 0
M  V30 10185 C 992.638 -1.84622 -3.90562 0
M  V30 10186 C 991.773 -1.41471 -5.12015 0
M  V30 10187 C 990.812 -2.54931 -5.56486 0
M  V30 10188 N 989.949 -2.1256 -6.69151 0
M  V30 10189 H 994.789 -1.9952 -2.2135 0
M  V30 10190 H 992.326 -0.993588 -1.08472 0
M  V30 10191 H 994.284 -0.443794 -4.14833 0
M  V30 10192 H 992.914 0.2207 -3.22045 0
M  V30 10193 H 991.966 -2.19654 -3.10574 0
M  V30 10194 H 993.278 -2.6983 -4.19515 0
M  V30 10195 H 992.432 -1.13732 -5.95945 0
M  V30 10196 H 991.171 -0.533334 -4.84775 0
M  V30 10197 H 990.176 -2.83415 -4.71122 0
M  V30 10198 H 991.401 -3.43645 -5.85734 0
M  V30 10199 H 989.347 -1.26838 -6.43621 0
M  V30 10200 H 989.264 -2.91317 -6.97618 0
M  V30 10201 H 990.532 -1.87996 -7.5649 0
M  V30 10202 N 994.761 1.15782 -1.06922 0
M  V30 10203 C 995.691 2.22538 -0.707045 0
M  V30 10204 C 996.672 1.67371 0.303471 0
M  V30 10205 O 997.857 1.9339 0.177189 0
M  V30 10206 C 994.987 3.47158 -0.0994269 0
M  V30 10207 C 993.941 4.15257 -1.03661 0
M  V30 10208 C 993.267 5.33902 -0.291974 0
M  V30 10209 C 994.567 4.65516 -2.36837 0
M  V30 10210 H 996.261 2.53089 -1.59958 0
M  V30 10211 H 993.807 1.21649 -0.770552 0
M  V30 10212 H 995.76 4.21073 0.165852 0
M  V30 10213 H 994.484 3.15926 0.828155 0
M  V30 10214 H 993.143 3.43276 -1.28674 0
M  V30 10215 H 992.791 4.98926 0.638928 0
M  V30 10216 H 992.491 5.80407 -0.916613 0
M  V30 10217 H 994.015 6.1059 -0.0343915 0
M  V30 10218 H 995.429 5.30981 -2.16175 0
M  V30 10219 H 993.826 5.22666 -2.94856 0
M  V30 10220 H 994.896 3.81387 -2.99453 0
M  V30 10221 N 996.239 0.8527 1.3254 0
M  V30 10222 C 997.487 0.454224 1.96929 0
M  V30 10223 C 997.808 -0.993034 1.67821 0
M  V30 10224 O 997.078 -1.69371 0.984393 0
M  V30 10225 H 995.658 0.164977 0.728554 0
M  V30 10226 H 998.32 1.0887 1.61658 0
M  V30 10227 H 997.416 0.597667 3.06324 0
M  V30 10228 N 997.718 -1.45297 0.610449 0
M  V30 10229 C 998.946 -2.0659 0.113211 0
M  V30 10230 C 999.361 -1.4546 -1.20361 0
M  V30 10231 O 998.718 -0.569823 -1.73376 0
M  V30 10232 C 998.769 -3.61488 -0.0298411 0
M  V30 10233 O 998.49 -4.20336 1.23488 0
M  V30 10234 C 999.991 -4.39772 -0.558202 0
M  V30 10235 H 997.211 -0.667322 0.0701555 0
M  V30 10236 H 999.755 -1.86497 0.838993 0
M  V30 10237 H 997.91 -3.80913 -0.705963 0
M  V30 10238 H 998.324 -5.13545 1.0664 0
M  V30 10239 H 999.798 -5.48648 -0.607375 0
M  V30 10240 H 1000.27 -4.09755 -1.58107 0
M  V30 10241 H 1000.88 -4.25217 0.0839704 0
M  V30 10242 N 999.196 -0.349774 -1.5367 0
M  V30 10243 C 1000.44 0.245095 -2.02925 0
M  V30 10244 C 1000.8 1.4727 -1.23189 0
M  V30 10245 O 1002 2.14215 -1.62374 0
M  V30 10246 C 1000.27 0.545392 -3.53214 0
M  V30 10247 S 1001.83 1.11619 -4.24366 0
M  V30 10248 H 998.649 0.0725368 -0.70729 0
M  V30 10249 H 1001.25 -0.488979 -1.89286 0
M  V30 10250 H 999.955 -0.355786 -4.08855 0
M  V30 10251 H 999.486 1.30897 -3.70985 0
M  V30 10252 H 1001.5 2.40151 -4.34214 0
M  V30 10253 N 1000.67 1.57404 -0.0785433 0
M  V30 10254 C 1001.92 1.94031 0.589896 0
M  V30 10255 C 1002.25 0.959297 1.68852 0
M  V30 10256 O 1001.53 -0.0103978 1.94497 0
M  V30 10257 C 1001.81 3.40886 1.16055 0
M  V30 10258 C 1001.66 4.49748 0.0681072 0
M  V30 10259 C 1002.98 3.88699 2.06401 0
M  V30 10260 H 1000.1 0.70556 0.212965 0
M  V30 10261 H 1002.74 1.89439 -0.145886 0
M  V30 10262 H 1000.89 3.4493 1.78761 0
M  V30 10263 H 1002.57 4.57823 -0.565318 0
M  V30 10264 H 1000.81 4.29625 -0.600431 0
M  V30 10265 H 1001.48 5.49658 0.507906 0
M  V30 10266 H 1003.96 3.86703 1.53622 0
M  V30 10267 H 1002.83 4.92052 2.43261 0
M  V30 10268 H 1003.09 3.2703 2.97496 0
M  V30 10269 N 1002.15 -0.195058 1.56388 0
M  V30 10270 C 1003.38 -0.935745 1.85091 0
M  V30 10271 C 1003.8 -1.76061 0.662118 0
M  V30 10272 O 1003.16 -1.77076 -0.389083 0
M  V30 10273 C 1003.21 -1.80764 3.1202 0
M  V30 10274 O 1002.31 -2.90643 2.92575 0
M  V30 10275 H 1001.65 -0.26351 0.609474 0
M  V30 10276 H 1004.18 -0.200362 2.03617 0
M  V30 10277 H 1004.19 -2.21229 3.42815 0
M  V30 10278 H 1002.87 -1.20157 3.98165 0
M  V30 10279 H 1001.44 -2.53934 2.73079 0
M  V30 10280 N 1003.63 -1.50653 -0.462772 0
M  V30 10281 C 1004.87 -1.637 -1.22399 0
M  V30 10282 C 1005.23 -0.333847 -1.89075 0
M  V30 10283 O 1006.43 -0.339837 -2.66643 0
M  V30 10284 C 1004.71 -2.79018 -2.23347 0
M  V30 10285 S 1006.26 -3.12248 -3.08296 0
M  V30 10286 H 1003.08 -0.576998 -0.415444 0
M  V30 10287 H 1005.68 -1.88468 -0.519631 0
M  V30 10288 H 1004.39 -3.72174 -1.72958 0
M  V30 10289 H 1003.92 -2.56362 -2.98399 0
M  V30 10290 H 1005.93 -2.56716 -4.24631 0
M  V30 10291 N 1005.11 0.71652 -1.4037 0
M  V30 10292 C 1006.33 1.51069 -1.42102 0
M  V30 10293 C 1006.76 1.88087 -0.0222387 0
M  V30 10294 O 1006.12 1.53204 0.969448 0
M  V30 10295 C 1006.16 2.76307 -2.31704 0
M  V30 10296 O 1005.27 3.72975 -1.75964 0
M  V30 10297 H 1004.61 0.455502 -0.483129 0
M  V30 10298 H 1007.14 0.882514 -1.84588 0
M  V30 10299 H 1007.15 3.24846 -2.46859 0
M  V30 10300 H 1005.82 2.48698 -3.3335 0
M  V30 10301 H 1004.4 3.31818 -1.70151 0
M  V30 10302 N 1006.59 1.25851 0.948643 0
M  V30 10303 C 1007.52 1.09248 2.06367 0
M  V30 10304 C 1008.5 -0.000205168 1.701 0
M  V30 10305 O 1009.68 0.170442 1.93451 0
M  V30 10306 C 1006.81 0.716777 3.39823 0
M  V30 10307 C 1005.77 1.76036 3.90122 0
M  V30 10308 C 1005.09 1.23918 5.20143 0
M  V30 10309 C 1006.39 3.16039 4.15833 0
M  V30 10310 H 1008.09 2.02518 2.20515 0
M  V30 10311 H 1005.63 0.975093 1.05962 0
M  V30 10312 H 1007.59 0.587531 4.17284 0
M  V30 10313 H 1006.31 -0.251626 3.25629 0
M  V30 10314 H 1004.97 1.87815 3.14835 0
M  V30 10315 H 1004.62 0.260836 5.02323 0
M  V30 10316 H 1004.32 1.93673 5.54765 0
M  V30 10317 H 1005.84 1.12245 6.00194 0
M  V30 10318 H 1007.25 3.0738 4.83933 0
M  V30 10319 H 1005.65 3.83317 4.61723 0
M  V30 10320 H 1006.72 3.62652 3.21887 0
M  V30 10321 N 1008.06 -1.15214 1.07534 0
M  V30 10322 C 1009.31 -1.86319 0.800814 0
M  V30 10323 C 1009.64 -1.82221 -0.671494 0
M  V30 10324 O 1008.92 -1.24664 -1.49295 0
M  V30 10325 C 1009.2 -3.35347 1.31203 0
M  V30 10326 C 1009.05 -3.48067 2.84902 0
M  V30 10327 C 1010.37 -4.3016 0.930064 0
M  V30 10328 H 1007.49 -0.676523 0.292379 0
M  V30 10329 H 1010.13 -1.35349 1.33344 0
M  V30 10330 H 1008.28 -3.78886 0.858949 0
M  V30 10331 H 1009.96 -3.13379 3.38514 0
M  V30 10332 H 1008.2 -2.89566 3.23008 0
M  V30 10333 H 1008.87 -4.52782 3.15741 0
M  V30 10334 H 1011.35 -3.94591 1.3205 0
M  V30 10335 H 1010.22 -5.32914 1.31507 0
M  V30 10336 H 1010.48 -4.41796 -0.163824 0
M  V30 10337 N 1009.54 -0.859717 -1.32086 0
M  V30 10338 C 1010.77 -0.479028 -2.0097 0
M  V30 10339 C 1011.18 0.930242 -1.64752 0
M  V30 10340 O 1010.52 1.6193 -0.867437 0
M  V30 10341 C 1010.59 -0.54431 -3.55355 0
M  V30 10342 C 1010.25 -1.91337 -4.15017 0
M  V30 10343 C 1011.25 -2.87951 -4.32874 0
M  V30 10344 C 1008.93 -2.21189 -4.50977 0
M  V30 10345 C 1010.93 -4.12567 -4.85867 0
M  V30 10346 C 1008.61 -3.46057 -5.03674 0
M  V30 10347 C 1009.61 -4.41562 -5.21068 0
M  V30 10348 O 1009.3 -5.64218 -5.72637 0
M  V30 10349 H 1009.03 -0.186161 -0.649861 0
M  V30 10350 H 1011.58 -1.15976 -1.69525 0
M  V30 10351 H 1009.81 0.1933 -3.86217 0
M  V30 10352 H 1011.5 -0.178506 -4.05507 0
M  V30 10353 H 1012.27 -2.66194 -4.05421 0
M  V30 10354 H 1008.15 -1.47635 -4.36721 0
M  V30 10355 H 1011.69 -4.8712 -4.99359 0
M  V30 10356 H 1007.59 -3.67662 -5.30561 0
M  V30 10357 H 1008.36 -5.66246 -5.91023 0
M  V30 10358 N 1011.02 1.44971 -0.618145 0
M  V30 10359 C 1012.27 2.03009 -0.126125 0
M  V30 10360 C 1012.62 1.47656 1.23351 0
M  V30 10361 O 1011.91 0.645901 1.80385 0
M  V30 10362 C 1012.11 3.57378 -0.0394861 0
M  V30 10363 C 1011.94 4.27706 -1.38918 0
M  V30 10364 C 1010.71 4.65206 -1.97261 0
M  V30 10365 C 1012.91 4.58987 -2.32024 0
M  V30 10366 N 1010.89 5.2044 -3.256 0
M  V30 10367 C 1012.26 5.15167 -3.44969 0
M  V30 10368 C 1014.31 4.40932 -2.31265 0
M  V30 10369 C 1013.02 5.55193 -4.57333 0
M  V30 10370 C 1015.04 4.81997 -3.42684 0
M  V30 10371 C 1014.4 5.38279 -4.54352 0
M  V30 10372 H 1010.5 0.77683 -0.0897695 0
M  V30 10373 H 1013.09 1.76646 -0.818805 0
M  V30 10374 H 1011.26 3.8338 0.622441 0
M  V30 10375 H 1012.99 4.02075 0.460165 0
M  V30 10376 H 1009.75 4.49102 -1.50348 0
M  V30 10377 H 1010.17 5.52546 -3.9118 0
M  V30 10378 H 1014.81 3.96723 -1.46187 0
M  V30 10379 H 1012.53 5.98362 -5.43128 0
M  V30 10380 H 1016.12 4.69751 -3.43257 0
M  V30 10381 H 1015 5.6947 -5.39142 0
M  V30 10382 N 1012.5 0.357919 1.53482 0
M  V30 10383 C 1013.72 -0.237769 2.06033 0
M  V30 10384 C 1014.15 -1.42292 1.23023 0
M  V30 10385 O 1013.51 -1.79604 0.247427 0
M  V30 10386 C 1013.55 -0.616806 3.55286 0
M  V30 10387 O 1012.66 -1.71503 3.75047 0
M  V30 10388 H 1012 -0.0364322 0.663 0
M  V30 10389 H 1014.53 0.516301 1.97979 0
M  V30 10390 H 1014.54 -0.88996 3.98175 0
M  V30 10391 H 1013.21 0.249825 4.15149 0
M  V30 10392 H 1011.79 -1.43803 3.44057 0
M  V30 10393 N 1013.98 -1.5736 0.0868897 0
M  V30 10394 C 1015.39 -1.57304 -0.269762 0
M  V30 10395 C 1015.59 -1.09745 -1.68992 0
M  V30 10396 O 1014.65 -0.77017 -2.40468 0
M  V30 10397 C 1015.96 -3.00628 -0.0656646 0
M  V30 10398 C 1017.51 -3.12713 -0.134045 0
M  V30 10399 C 1017.98 -4.57981 0.0419569 0
M  V30 10400 N 1019.48 -4.63198 -0.0131501 0
M  V30 10401 C 1020.21 -5.73316 0.0983964 0
M  V30 10402 N 1019.71 -6.92296 0.264315 0
M  V30 10403 N 1021.5 -5.62086 0.0402517 0
M  V30 10404 H 1013.65 -1.86585 1.01487 0
M  V30 10405 H 1015.91 -0.860843 0.397055 0
M  V30 10406 H 1015.62 -3.39592 0.914891 0
M  V30 10407 H 1015.49 -3.68367 -0.811522 0
M  V30 10408 H 1017.88 -2.73627 -1.1051 0
M  V30 10409 H 1017.96 -2.47582 0.643167 0
M  V30 10410 H 1017.61 -4.9776 1.00984 0
M  V30 10411 H 1017.54 -5.21162 -0.754847 0
M  V30 10412 H 1020.03 -3.77644 -0.139183 0
M  V30 10413 H 1020.34 -7.72047 0.341165 0
M  V30 10414 H 1018.68 -6.94353 0.299876 0
M  V30 10415 H 1021.88 -4.68017 -0.0881801 0
M  V30 10416 H 1022.05 -6.47868 0.130635 0
M  V30 10417 N 1015.45 0.186762 -1.56489 0
M  V30 10418 C 1016.69 0.912523 -1.829 0
M  V30 10419 C 1017.06 1.80094 -0.665598 0
M  V30 10420 O 1018.26 2.56312 -0.809787 0
M  V30 10421 C 1016.53 1.70022 -3.14368 0
M  V30 10422 S 1018.09 2.47686 -3.62211 0
M  V30 10423 H 1014.91 0.305916 -0.641823 0
M  V30 10424 H 1017.51 0.175289 -1.94713 0
M  V30 10425 H 1016.21 1.03832 -3.97048 0
M  V30 10426 H 1015.74 2.47912 -3.05456 0
M  V30 10427 H 1017.76 3.72058 -3.28309 0
M  V30 10428 N 1016.93 1.50896 0.454776 0
M  V30 10429 C 1018.34 1.55372 1.0352 0
M  V30 10430 C 1018.69 0.366822 1.9274 0
M  V30 10431 O 1017.82 -0.518444 2.10098 0
M  V30 10432 C 1018.41 2.81574 1.88418 0
M  V30 10433 C 1016.97 2.88679 2.4154 0
M  V30 10434 C 1016.12 2.49847 1.20298 0
M  V30 10435 H 1019.07 1.56924 0.236729 0
M  V30 10436 H 1019.09 2.64352 2.73676 0
M  V30 10437 H 1018.6 3.67941 1.23455 0
M  V30 10438 H 1016.71 2.06702 3.10008 0
M  V30 10439 H 1016.82 3.91944 2.7553 0
M  V30 10440 H 1015.18 2.02651 1.54288 0
M  V30 10441 H 1015.97 3.3854 0.569723 0
M  V30 10442 N 1018.41 -0.709066 1.40748 0
M  V30 10443 C 1019.37 -1.80485 1.41272 0
M  V30 10444 C 1020.37 -1.57872 0.305463 0
M  V30 10445 O 1021.56 -1.64793 0.564691 0
M  V30 10446 C 1018.7 -3.1867 1.21087 0
M  V30 10447 H 1019.89 -1.81417 2.38805 0
M  V30 10448 H 1017.44 -0.915356 1.26692 0
M  V30 10449 H 1018.18 -3.23385 0.243406 0
M  V30 10450 H 1017.96 -3.36484 2.01299 0
M  V30 10451 H 1019.45 -3.98685 1.24257 0
M  V30 10452 N 1019.89 -1.26353 -0.941956 0
M  V30 10453 C 1020.84 -1.07654 -2.06188 0
M  V30 10454 C 1021.83 -0.00369741 -1.694 0
M  V30 10455 O 1023.04 -0.160316 -1.79285 0
M  V30 10456 H 1019.41 -0.331274 -0.675101 0
M  V30 10457 H 1021.38 -2.02566 -2.19111 0
M  V30 10458 C 1020.13 -0.725436 -3.40048 0
M  V30 10459 H 1019.46 -1.54283 -3.68832 0
M  V30 10460 H 1020.9 -0.634383 -4.19227 0
M  V30 10461 C 1019.35 0.569369 -3.32054 0
M  V30 10462 O 1019.88 1.60791 -3.68116 0
M  V30 10463 N 1018.09 0.559714 -2.85159 0
M  V30 10464 H 1017.64 -0.285817 -2.56009 0
M  V30 10465 H 1017.6 1.42617 -2.80193 0
M  V30 10466 N 1021.37 1.14642 -1.08144 0
M  V30 10467 C 1022.59 1.90025 -0.830972 0
M  V30 10468 C 1023.02 1.77904 0.610879 0
M  V30 10469 O 1022.38 1.11735 1.42776 0
M  V30 10470 C 1022.42 3.38085 -1.25422 0
M  V30 10471 O 1021.53 4.10412 -0.404486 0
M  V30 10472 H 1020.87 0.591327 -0.302041 0
M  V30 10473 H 1023.4 1.4513 -1.44216 0
M  V30 10474 H 1023.41 3.88894 -1.23391 0
M  V30 10475 H 1022.08 3.46226 -2.30435 0
M  V30 10476 H 1020.66 3.69693 -0.487987 0
M  V30 10477 N 1022.85 0.866709 1.31628 0
M  V30 10478 C 1023.76 0.323408 2.3236 0
M  V30 10479 C 1024.77 -0.564995 1.64572 0
M  V30 10480 O 1025.95 -0.462489 1.96018 0
M  V30 10481 C 1023.01 -0.469045 3.43513 0
M  V30 10482 C 1022.07 0.446928 4.26967 0
M  V30 10483 C 1021.31 -0.307799 5.32812 0
M  V30 10484 O 1021.53 -1.5363 5.49321 0
M  V30 10485 O 1020.46 0.332653 6.0098 0
M  V30 10486 H 1024.29 1.15827 2.80745 0
M  V30 10487 H 1021.87 0.629987 1.35468 0
M  V30 10488 H 1023.76 -0.918405 4.1127 0
M  V30 10489 H 1022.43 -1.28051 2.97296 0
M  V30 10490 H 1021.34 0.944719 3.61975 0
M  V30 10491 H 1022.67 1.2239 4.76741 0
M  V30 10492 N 1024.32 -1.44642 0.625825 0
M  V30 10493 C 1025.73 -1.85502 0.211175 0
M  V30 10494 C 1026.09 -1.52356 -1.2362 0
M  V30 10495 O 1025.21 -0.959051 -1.93988 0
M  V30 10496 C 1025.81 -3.36702 0.37648 0
M  V30 10497 C 1024.36 -3.76396 0.0163795 0
M  V30 10498 C 1023.51 -2.68517 0.692368 0
M  V30 10499 H 1026.46 -1.35183 0.831333 0
M  V30 10500 H 1026.48 -3.78536 -0.386106 0
M  V30 10501 H 1026 -3.60795 1.42999 0
M  V30 10502 H 1024.1 -3.57919 -1.0356 0
M  V30 10503 H 1024.21 -4.77231 0.422742 0
M  V30 10504 H 1022.57 -2.54377 0.128191 0
M  V30 10505 H 1023.36 -2.95444 1.74837 0
M  V30 10506 N 1025.8 -0.366053 -1.5329 0
M  V30 10507 C 1027.03 0.224236 -2.05681 0
M  V30 10508 C 1027.44 1.42412 -1.23952 0
M  V30 10509 O 1026.8 1.80334 -0.280309 0
M  V30 10510 C 1026.85 0.617266 -3.56191 0
M  V30 10511 O 1026.57 -0.534931 -4.34822 0
M  V30 10512 C 1028.07 1.26589 -4.24841 0
M  V30 10513 H 1025.29 0.0392928 -0.669849 0
M  V30 10514 H 1027.84 -0.52456 -1.97658 0
M  V30 10515 H 1025.99 1.31598 -3.64364 0
M  V30 10516 H 1026.41 -0.217123 -5.2405 0
M  V30 10517 H 1027.88 1.49146 -5.31469 0
M  V30 10518 H 1028.36 2.22633 -3.78591 0
M  V30 10519 H 1028.96 0.6086 -4.20923 0
M  V30 10520 N 1027.28 1.57312 -0.0952337 0
M  V30 10521 C 1028.24 2.12889 0.849161 0
M  V30 10522 C 1029.24 1.05819 1.21075 0
M  V30 10523 O 1030.43 1.31704 1.14016 0
M  V30 10524 C 1027.56 2.6496 2.14498 0
M  V30 10525 H 1028.76 2.97651 0.366566 0
M  V30 10526 H 1026.31 1.55542 0.153762 0
M  V30 10527 H 1027.05 1.83718 2.67242 0
M  V30 10528 H 1026.83 3.43244 1.89542 0
M  V30 10529 H 1028.32 3.07952 2.82056 0
M  V30 10530 N 1028.76 -0.17846 1.56586 0
M  V30 10531 C 1029.69 -1.22342 1.98884 0
M  V30 10532 C 1030.67 -1.46564 0.86331 0
M  V30 10533 O 1031.85 -1.58019 1.12887 0
M  V30 10534 C 1028.98 -2.56396 2.34261 0
M  V30 10535 C 1027.94 -2.46756 3.49708 0
M  V30 10536 C 1027.26 -3.85235 3.70807 0
M  V30 10537 C 1028.56 -1.97838 4.83381 0
M  V30 10538 H 1030.26 -0.871848 2.86425 0
M  V30 10539 H 1027.8 -0.417948 1.37801 0
M  V30 10540 H 1029.76 -3.29695 2.62448 0
M  V30 10541 H 1028.48 -2.93327 1.43621 0
M  V30 10542 H 1027.14 -1.75912 3.21637 0
M  V30 10543 H 1026.79 -4.19547 2.7747 0
M  V30 10544 H 1026.49 -3.79655 4.48481 0
M  V30 10545 H 1028.01 -4.60131 4.01387 0
M  V30 10546 H 1029.43 -2.60906 5.10491 0
M  V30 10547 H 1027.82 -2.03223 5.64642 0
M  V30 10548 H 1028.89 -0.932339 4.75852 0
M  V30 10549 N 1030.24 -1.51135 -0.446768 0
M  V30 10550 C 1031.48 -1.63336 -1.19698 0
M  V30 10551 C 1031.81 -0.345099 -1.91414 0
M  V30 10552 O 1031.07 0.670365 -1.8386 0
M  V30 10553 C 1031.36 -2.78034 -2.2457 0
M  V30 10554 C 1031.03 -4.17652 -1.69934 0
M  V30 10555 C 1029.69 -4.55636 -1.54756 0
M  V30 10556 C 1032.04 -5.04813 -1.29665 0
M  V30 10557 C 1029.37 -5.78496 -0.977689 0
M  V30 10558 C 1031.72 -6.28244 -0.741112 0
M  V30 10559 C 1030.39 -6.65009 -0.576156 0
M  V30 10560 H 1029.66 -0.597689 -0.438006 0
M  V30 10561 H 1032.31 -1.85141 -0.48939 0
M  V30 10562 H 1030.61 -2.50413 -3.01331 0
M  V30 10563 H 1032.31 -2.84675 -2.8242 0
M  V30 10564 H 1028.9 -3.87699 -1.82722 0
M  V30 10565 H 1033.08 -4.76081 -1.40216 0
M  V30 10566 H 1028.34 -6.05636 -0.837563 0
M  V30 10567 H 1032.51 -6.95129 -0.42053 0
M  V30 10568 H 1030.14 -7.60085 -0.132443 0
M  V30 10569 N 1031.71 0.701592 -1.41122 0
M  V30 10570 C 1032.94 1.49049 -1.43499 0
M  V30 10571 C 1033.36 1.88761 -0.0385684 0
M  V30 10572 O 1032.71 1.56384 0.940755 0
M  V30 10573 C 1032.76 2.7569 -2.33832 0
M  V30 10574 O 1032.49 2.37653 -3.68039 0
M  V30 10575 C 1033.99 3.69479 -2.44949 0
M  V30 10576 H 1031.21 0.459519 -0.488961 0
M  V30 10577 H 1033.75 0.864318 -1.85337 0
M  V30 10578 H 1031.91 3.34559 -1.95318 0
M  V30 10579 H 1032.32 3.19241 -4.16156 0
M  V30 10580 H 1033.79 4.55139 -3.12334 0
M  V30 10581 H 1034.27 4.13553 -1.47887 0
M  V30 10582 H 1034.88 3.16517 -2.84072 0
M  V30 10583 N 1033.19 1.2685 0.935242 0
M  V30 10584 C 1034.14 1.05586 2.02078 0
M  V30 10585 C 1035.13 -0.013699 1.60894 0
M  V30 10586 O 1036.32 0.203956 1.75821 0
M  V30 10587 C 1033.45 0.697118 3.36148 0
M  V30 10588 C 1032.53 1.80444 3.83798 0
M  V30 10589 N 1032.92 3.04283 4.04037 0
M  V30 10590 C 1031.22 1.68939 4.12766 0
M  V30 10591 C 1031.92 3.7629 4.436 0
M  V30 10592 N 1030.9 3.04011 4.50642 0
M  V30 10593 H 1034.7 1.99577 2.15746 0
M  V30 10594 H 1032.21 1.17455 1.12153 0
M  V30 10595 H 1034.21 0.525915 4.1357 0
M  V30 10596 H 1032.87 -0.235247 3.23847 0
M  V30 10597 H 1033.88 3.40125 3.90558 0
M  V30 10598 H 1030.56 0.827341 4.0922 0
M  V30 10599 H 1031.95 4.82687 4.67401 0
M  V30 10600 N 1034.67 -1.14067 1.0875 0
M  V30 10601 C 1036.09 -1.37173 0.815823 0
M  V30 10602 C 1036.29 -1.93175 -0.573215 0
M  V30 10603 O 1035.34 -2.14672 -1.32937 0
M  V30 10604 C 1036.66 -2.32955 1.90138 0
M  V30 10605 C 1038.2 -2.46586 1.9278 0
M  V30 10606 C 1038.68 -3.4567 3.0046 0
M  V30 10607 N 1040.17 -3.53216 2.99655 0
M  V30 10608 C 1040.9 -4.29743 3.79616 0
M  V30 10609 N 1040.4 -5.09484 4.69466 0
M  V30 10610 N 1042.19 -4.24975 3.67903 0
M  V30 10611 H 1034.34 -0.760648 1.98313 0
M  V30 10612 H 1036.61 -0.397135 0.860807 0
M  V30 10613 H 1036.31 -1.98949 2.90021 0
M  V30 10614 H 1036.19 -3.32897 1.77368 0
M  V30 10615 H 1038.57 -2.79882 0.935404 0
M  V30 10616 H 1038.66 -1.46593 2.09629 0
M  V30 10617 H 1038.3 -3.13106 3.99909 0
M  V30 10618 H 1038.23 -4.45452 2.80856 0
M  V30 10619 H 1040.72 -2.96314 2.34535 0
M  V30 10620 H 1041.03 -5.65163 5.27077 0
M  V30 10621 H 1039.38 -5.08741 4.73506 0
M  V30 10622 H 1042.57 -3.61751 2.97075 0
M  V30 10623 H 1042.74 -4.84364 4.30459 0
M  V30 10624 N 1036.15 -0.873678 -1.31166 0
M  V30 10625 C 1037.39 -0.493006 -1.98365 0
M  V30 10626 C 1037.75 0.937973 -1.67529 0
M  V30 10627 O 1038.95 1.42419 -2.2797 0
M  V30 10628 C 1037.22 -0.747128 -3.49504 0
M  V30 10629 S 1038.78 -0.466869 -4.36309 0
M  V30 10630 H 1035.6 -0.183882 -0.68681 0
M  V30 10631 H 1038.2 -1.13051 -1.59499 0
M  V30 10632 H 1036.91 -1.78731 -3.69437 0
M  V30 10633 H 1036.44 -0.096761 -3.93281 0
M  V30 10634 H 1038.45 0.699298 -4.91248 0
M  V30 10635 N 1037.63 1.44308 -0.633487 0
M  V30 10636 C 1038.87 2.02322 -0.139123 0
M  V30 10637 C 1039.21 1.49733 1.23667 0
M  V30 10638 O 1038.48 0.682353 1.82138 0
M  V30 10639 C 1038.76 3.59871 -0.128366 0
M  V30 10640 C 1038.62 4.22737 -1.53667 0
M  V30 10641 C 1039.94 4.36702 0.545834 0
M  V30 10642 H 1037.05 0.735161 -0.0520293 0
M  V30 10643 H 1039.7 1.7185 -0.810411 0
M  V30 10644 H 1037.85 3.85963 0.443263 0
M  V30 10645 H 1039.52 4.07744 -2.15737 0
M  V30 10646 H 1037.76 3.80142 -2.08985 0
M  V30 10647 H 1038.43 5.31757 -1.48116 0
M  V30 10648 H 1040.91 4.16057 0.0596879 0
M  V30 10649 H 1039.78 5.46407 0.522557 0
M  V30 10650 H 1040.05 4.11483 1.6166 0
M  V30 10651 N 1039.1 0.374177 1.53094 0
M  V30 10652 C 1040.33 -0.213015 2.05499 0
M  V30 10653 C 1040.74 -1.42303 1.24686 0
M  V30 10654 O 1040.09 -1.81512 0.282702 0
M  V30 10655 C 1040.15 -0.662308 3.53346 0
M  V30 10656 C 1039.81 0.432183 4.54952 0
M  V30 10657 C 1040.81 1.2848 5.03775 0
M  V30 10658 C 1038.49 0.594887 4.98765 0
M  V30 10659 C 1040.49 2.28538 5.9502 0
M  V30 10660 C 1038.17 1.59882 5.89814 0
M  V30 10661 C 1039.17 2.4425 6.37833 0
M  V30 10662 O 1038.86 3.4293 7.27086 0
M  V30 10663 H 1038.59 -0.0393809 0.674852 0
M  V30 10664 H 1041.15 0.533423 1.98353 0
M  V30 10665 H 1039.38 -1.46049 3.5806 0
M  V30 10666 H 1041.07 -1.17347 3.88567 0
M  V30 10667 H 1041.83 1.17033 4.70668 0
M  V30 10668 H 1037.71 -0.0520401 4.60971 0
M  V30 10669 H 1041.25 2.94426 6.32423 0
M  V30 10670 H 1037.15 1.71373 6.22335 0
M  V30 10671 H 1037.92 3.3876 7.45107 0
M  V30 10672 N 1040.58 -1.57259 0.103575 0
M  V30 10673 C 1041.81 -1.99424 -0.569638 0
M  V30 10674 C 1042.23 -0.982475 -1.60403 0
M  V30 10675 O 1041.59 0.0479231 -1.81237 0
M  V30 10676 C 1041.64 -3.40527 -1.18633 0
M  V30 10677 O 1040.74 -3.42167 -2.30208 0
M  V30 10678 H 1040.08 -0.648251 -0.143759 0
M  V30 10679 H 1042.61 -2.03739 0.187493 0
M  V30 10680 H 1042.62 -3.78404 -1.5256 0
M  V30 10681 H 1041.3 -4.13686 -0.428582 0
M  V30 10682 H 1039.88 -3.16093 -1.97837 0
M  V30 10683 N 1042.06 0.170153 -1.56679 0
M  V30 10684 C 1043.31 0.884841 -1.817 0
M  V30 10685 C 1043.63 1.82731 -0.680763 0
M  V30 10686 O 1042.9 1.936 0.299294 0
M  V30 10687 H 1041.48 0.329738 -0.670285 0
M  V30 10688 H 1044.14 0.169691 -1.9416 0
M  V30 10689 H 1043.24 1.46104 -2.7579 0
M  V30 10690 N 1043.54 1.5137 0.438746 0
M  V30 10691 C 1044.95 1.39514 0.775116 0
M  V30 10692 C 1045.15 0.47638 1.95788 0
M  V30 10693 O 1044.21 -0.0689832 2.52406 0
M  V30 10694 C 1045.52 2.81517 1.05681 0
M  V30 10695 C 1047.07 2.90658 1.16133 0
M  V30 10696 C 1047.55 4.33566 1.47597 0
M  V30 10697 N 1049.04 4.36665 1.54524 0
M  V30 10698 C 1049.77 5.4427 1.80438 0
M  V30 10699 N 1049.27 6.62037 2.04154 0
M  V30 10700 N 1051.06 5.31749 1.82208 0
M  V30 10701 H 1043.21 2.09657 -0.340237 0
M  V30 10702 H 1045.48 0.943736 -0.0898115 0
M  V30 10703 H 1045.18 3.50734 0.260441 0
M  V30 10704 H 1045.06 3.20757 1.98481 0
M  V30 10705 H 1047.44 2.2164 1.94833 0
M  V30 10706 H 1047.52 2.54917 0.212376 0
M  V30 10707 H 1047.17 5.03133 0.694251 0
M  V30 10708 H 1047.1 4.66819 2.43696 0
M  V30 10709 H 1049.59 3.51761 1.38105 0
M  V30 10710 H 1049.9 7.39838 2.23293 0
M  V30 10711 H 1048.25 6.65155 2.01479 0
M  V30 10712 H 1051.44 4.3873 1.63198 0
M  V30 10713 H 1051.61 6.15689 2.02067 0
M  V30 10714 N 1045.02 -0.694098 1.41492 0
M  V30 10715 C 1046.26 -1.45415 1.40929 0
M  V30 10716 C 1046.59 -1.94491 0.0189301 0
M  V30 10717 O 1045.85 -1.7 -0.96945 0
M  V30 10718 C 1046.15 -2.6805 2.36398 0
M  V30 10719 C 1045.81 -2.37623 3.83205 0
M  V30 10720 C 1044.47 -2.29035 4.23198 0
M  V30 10721 C 1046.83 -2.12555 4.75888 0
M  V30 10722 C 1044.15 -1.93478 5.5388 0
M  V30 10723 C 1046.51 -1.78506 6.06892 0
M  V30 10724 C 1045.17 -1.68415 6.45905 0
M  V30 10725 H 1044.44 -0.53211 0.515694 0
M  V30 10726 H 1047.09 -0.793193 1.74301 0
M  V30 10727 H 1045.39 -3.39086 1.96285 0
M  V30 10728 H 1047.09 -3.26194 2.33234 0
M  V30 10729 H 1043.68 -2.45202 3.51531 0
M  V30 10730 H 1047.86 -2.18133 4.45793 0
M  V30 10731 H 1043.12 -1.84219 5.82986 0
M  V30 10732 H 1047.29 -1.58128 6.7821 0
M  V30 10733 H 1044.92 -1.40631 7.47079 0
M  V30 10734 N 1046.49 -1.27344 -0.928501 0
M  V30 10735 C 1047.74 -1.13411 -1.67279 0
M  V30 10736 C 1048.06 0.320698 -1.92345 0
M  V30 10737 O 1047.33 1.2245 -1.52915 0
M  V30 10738 H 1045.91 -0.416712 -0.619968 0
M  V30 10739 H 1048.58 -1.5986 -1.11493 0
M  V30 10740 H 1047.67 -1.66256 -2.64131 0
M  V30 10741 N 1047.97 1.13488 -1.09353 0
M  V30 10742 C 1049.2 1.89133 -0.85108 0
M  V30 10743 C 1049.62 1.78542 0.591976 0
M  V30 10744 O 1048.98 1.13243 1.41583 0
M  V30 10745 C 1049.03 3.36736 -1.29001 0
M  V30 10746 O 1048.13 4.09959 -0.447993 0
M  V30 10747 H 1047.47 0.58809 -0.308296 0
M  V30 10748 H 1050 1.43593 -1.45747 0
M  V30 10749 H 1050.01 3.87564 -1.27508 0
M  V30 10750 H 1048.69 3.43762 -2.34095 0
M  V30 10751 H 1047.27 3.69155 -0.52717 0
M  V30 10752 N 1049.45 0.880621 1.30701 0
M  V30 10753 C 1050.38 0.360251 2.30704 0
M  V30 10754 C 1051.36 -0.554572 1.60806 0
M  V30 10755 O 1052.55 -0.469345 1.88443 0
M  V30 10756 C 1049.68 -0.429888 3.44629 0
M  V30 10757 C 1048.63 0.392786 4.26194 0
M  V30 10758 C 1047.96 -0.52369 5.32129 0
M  V30 10759 C 1049.26 1.63258 4.96129 0
M  V30 10760 H 1050.95 1.19591 2.74478 0
M  V30 10761 H 1048.5 0.576508 1.31956 0
M  V30 10762 H 1050.45 -0.804532 4.13649 0
M  V30 10763 H 1049.17 -1.29916 2.99649 0
M  V30 10764 H 1047.83 0.749514 3.58856 0
M  V30 10765 H 1047.48 -1.39054 4.83397 0
M  V30 10766 H 1047.18 0.0229272 5.87596 0
M  V30 10767 H 1048.71 -0.894946 6.04006 0
M  V30 10768 H 1050.12 1.32877 5.57689 0
M  V30 10769 H 1048.52 2.11906 5.61441 0
M  V30 10770 H 1049.59 2.37944 4.22505 0
M  V30 10771 N 1050.93 -1.4397 0.641131 0
M  V30 10772 C 1051.88 -2.30728 -0.0577905 0
M  V30 10773 C 1052.85 -1.44059 -0.826819 0
M  V30 10774 O 1054.03 -1.72947 -0.805853 0
M  V30 10775 C 1051.17 -3.29478 -1.02657 0
M  V30 10776 C 1050.28 -4.31247 -0.254913 0
M  V30 10777 C 1049.42 -5.17085 -1.2164 0
M  V30 10778 C 1048.46 -6.10556 -0.434481 0
M  V30 10779 N 1047.6 -6.89059 -1.34694 0
M  V30 10780 H 1052.44 -2.8995 0.687953 0
M  V30 10781 H 1049.97 -1.4285 0.351029 0
M  V30 10782 H 1051.93 -3.85228 -1.60173 0
M  V30 10783 H 1050.56 -2.71932 -1.73933 0
M  V30 10784 H 1049.61 -3.77889 0.436338 0
M  V30 10785 H 1050.92 -4.97545 0.353642 0
M  V30 10786 H 1050.08 -5.77402 -1.86258 0
M  V30 10787 H 1048.82 -4.50885 -1.85888 0
M  V30 10788 H 1047.82 -5.49339 0.225125 0
M  V30 10789 H 1049.05 -6.78795 0.203415 0
M  V30 10790 H 1046.99 -6.25518 -1.97644 0
M  V30 10791 H 1046.91 -7.51833 -0.792657 0
M  V30 10792 H 1048.18 -7.5389 -1.98165 0
M  V30 10793 N 1052.41 -0.382291 -1.52893 0
M  V30 10794 C 1053.63 0.204961 -2.06385 0
M  V30 10795 C 1054.06 1.40316 -1.25271 0
M  V30 10796 O 1053.42 1.79187 -0.275969 0
M  V30 10797 C 1053.46 0.560205 -3.56222 0
M  V30 10798 O 1052.57 1.65515 -3.77728 0
M  V30 10799 H 1051.91 0.0258798 -0.663495 0
M  V30 10800 H 1054.44 -0.547733 -1.97132 0
M  V30 10801 H 1054.45 0.826501 -3.99541 0
M  V30 10802 H 1053.12 -0.31584 -4.14699 0
M  V30 10803 H 1051.7 1.38311 -3.46301 0
M  V30 10804 N 1053.89 1.57202 -0.111913 0
M  V30 10805 C 1055.13 1.94565 0.546713 0
M  V30 10806 C 1055.45 0.995644 1.67666 0
M  V30 10807 O 1054.72 0.0506681 1.95834 0
M  V30 10808 H 1053.3 0.718334 0.204951 0
M  V30 10809 H 1055.97 1.94074 -0.179193 0
M  V30 10810 H 1055.06 2.9742 0.945931 0
M  V30 10811 N 1055.36 -0.161842 1.56767 0
M  V30 10812 C 1056.6 -0.88331 1.84329 0
M  V30 10813 C 1056.97 -1.79012 0.694165 0
M  V30 10814 O 1058.17 -2.54991 0.850461 0
M  V30 10815 C 1056.44 -1.65 3.17033 0
M  V30 10816 S 1058 -2.41893 3.66106 0
M  V30 10817 H 1054.82 -0.295667 0.646608 0
M  V30 10818 H 1057.42 -0.14429 1.94967 0
M  V30 10819 H 1056.12 -0.975025 3.9865 0
M  V30 10820 H 1055.65 -2.43021 3.09361 0
M  V30 10821 H 1057.67 -3.66788 3.34187 0
M  V30 10822 N 1056.84 -1.516 -0.430713 0
M  V30 10823 C 1057.8 -1.72794 -1.50582 0
M  V30 10824 C 1058.8 -0.597903 -1.49271 0
M  V30 10825 O 1059.99 -0.865535 -1.51176 0
M  V30 10826 C 1057.13 -1.79049 -2.90093 0
M  V30 10827 H 1058.32 -2.68751 -1.33091 0
M  V30 10828 H 1055.87 -1.4169 -0.659822 0
M  V30 10829 H 1056.61 -0.849309 -3.12981 0
M  V30 10830 H 1056.39 -2.61181 -2.92449 0
M  V30 10831 H 1057.88 -1.97262 -3.68072 0
M  V30 10832 N 1058.32 0.686584 -1.41858 0
M  V30 10833 C 1059.74 0.998283 -1.24525 0
M  V30 10834 C 1059.94 2.01006 -0.141007 0
M  V30 10835 O 1058.99 2.47667 0.491648 0
M  V30 10836 C 1060.3 1.51432 -2.59786 0
M  V30 10837 C 1061.85 1.6327 -2.67043 0
M  V30 10838 C 1062.33 2.18274 -4.02642 0
M  V30 10839 N 1063.82 2.25622 -4.04535 0
M  V30 10840 C 1064.55 2.69229 -5.06264 0
M  V30 10841 N 1064.05 3.12375 -6.1838 0
M  V30 10842 N 1065.84 2.68873 -4.93623 0
M  V30 10843 H 1057.99 0.0164825 -2.12394 0
M  V30 10844 H 1060.26 0.0698613 -0.945422 0
M  V30 10845 H 1059.96 0.845426 -3.41388 0
M  V30 10846 H 1059.84 2.49502 -2.82894 0
M  V30 10847 H 1062.22 2.29269 -1.85794 0
M  V30 10848 H 1062.3 0.637221 -2.47736 0
M  V30 10849 H 1061.95 1.52887 -4.84343 0
M  V30 10850 H 1061.88 3.18591 -4.19294 0
M  V30 10851 H 1064.37 1.95186 -3.23591 0
M  V30 10852 H 1064.68 3.44301 -6.91864 0
M  V30 10853 H 1063.03 3.10262 -6.21902 0
M  V30 10854 H 1066.22 2.34521 -4.05114 0
M  V30 10855 H 1066.39 3.02539 -5.7304 0
M  V30 10856 N 1059.8 1.27835 0.921735 0
M  V30 10857 C 1061.03 1.17182 1.70153 0
M  V30 10858 C 1061.44 -0.273207 1.87217 0
M  V30 10859 O 1060.78 -1.19729 1.39322 0
M  V30 10860 C 1060.84 1.78969 3.11786 0
M  V30 10861 C 1060.5 3.28179 3.18037 0
M  V30 10862 C 1061.5 4.24729 2.99835 0
M  V30 10863 C 1059.19 3.68995 3.40805 0
M  V30 10864 C 1061.18 5.60071 3.04301 0
M  V30 10865 C 1058.87 5.04465 3.44904 0
M  V30 10866 C 1059.87 5.99813 3.2667 0
M  V30 10867 O 1059.55 7.32813 3.30515 0
M  V30 10868 H 1059.29 0.408079 0.538932 0
M  V30 10869 H 1061.84 1.69326 1.16266 0
M  V30 10870 H 1060.07 1.2131 3.6718 0
M  V30 10871 H 1061.76 1.62946 3.71757 0
M  V30 10872 H 1062.52 3.94533 2.8208 0
M  V30 10873 H 1058.4 2.9525 3.54045 0
M  V30 10874 H 1061.95 6.34471 2.89987 0
M  V30 10875 H 1057.84 5.34315 3.62185 0
M  V30 10876 H 1058.61 7.41338 3.4693 0
M  V30 10877 N 1061.28 -1.12907 1.09954 0
M  V30 10878 C 1062.52 -1.8595 0.848643 0
M  V30 10879 C 1062.88 -1.81897 -0.614621 0
M  V30 10880 O 1064.08 -2.50233 -0.981667 0
M  V30 10881 C 1062.35 -3.29859 1.3758 0
M  V30 10882 S 1063.91 -4.20333 1.25959 0
M  V30 10883 H 1060.73 -0.641404 0.306793 0
M  V30 10884 H 1063.33 -1.36045 1.40399 0
M  V30 10885 H 1062.03 -3.30365 2.43489 0
M  V30 10886 H 1061.57 -3.84827 0.816806 0
M  V30 10887 H 1063.58 -4.95738 0.214038 0
M  V30 10888 N 1062.75 -0.88754 -1.30232 0
M  V30 10889 C 1063.7 -0.345765 -2.30016 0
M  V30 10890 C 1064.7 0.5486 -1.60271 0
M  V30 10891 O 1065.9 0.43275 -1.74721 0
M  V30 10892 H 1062.28 -0.0931623 -0.746207 0
M  V30 10893 H 1064.25 -1.20095 -2.73166 0
M  V30 10894 C 1063 0.422435 -3.45124 0
M  V30 10895 H 1062.32 -0.256516 -3.98976 0
M  V30 10896 H 1063.76 0.766572 -4.17013 0
M  V30 10897 C 1062.22 1.62049 -2.95367 0
M  V30 10898 O 1062.75 2.71985 -2.95613 0
M  V30 10899 N 1060.95 1.45852 -2.51347 0
M  V30 10900 H 1060.5 0.564158 -2.51346 0
M  V30 10901 H 1060.46 2.26148 -2.18413 0
M  V30 10902 N 1064.23 1.43628 -0.648757 0
M  V30 10903 C 1065.2 2.29172 0.0360713 0
M  V30 10904 C 1066.2 1.41974 0.754976 0
M  V30 10905 O 1067.39 1.63654 0.5969 0
M  V30 10906 C 1064.52 3.23942 1.0618 0
M  V30 10907 H 1065.71 2.91214 -0.716544 0
M  V30 10908 H 1063.26 1.50833 -0.409759 0
M  V30 10909 H 1064 2.66786 1.8438 0
M  V30 10910 H 1063.78 3.88223 0.550016 0
M  V30 10911 H 1065.27 3.8816 1.54019 0
M  V30 10912 N 1065.71 0.390394 1.52688 0
M  V30 10913 C 1066.94 -0.191485 2.06012 0
M  V30 10914 C 1067.35 -1.40422 1.26202 0
M  V30 10915 O 1066.71 -1.79866 0.308963 0
M  V30 10916 C 1066.76 -0.560521 3.57128 0
M  V30 10917 O 1066.48 0.60404 4.33916 0
M  V30 10918 C 1067.98 -1.19814 4.26801 0
M  V30 10919 H 1065.2 -0.0286311 0.670389 0
M  V30 10920 H 1067.75 0.555939 1.96798 0
M  V30 10921 H 1065.9 -1.25784 3.66411 0
M  V30 10922 H 1066.32 0.300467 5.23639 0
M  V30 10923 H 1067.79 -1.40672 5.33775 0
M  V30 10924 H 1068.27 -2.16582 3.82085 0
M  V30 10925 H 1068.87 -0.541558 4.21838 0
M  V30 10926 N 1067.19 -1.57141 0.120249 0
M  V30 10927 C 1068.43 -1.95527 -0.538245 0
M  V30 10928 C 1068.77 -1.00373 -1.6625 0
M  V30 10929 O 1068.04 -0.0411734 -1.94456 0
M  V30 10930 C 1068.33 -3.43843 -1.06976 0
M  V30 10931 C 1068.18 -4.49771 0.0511596 0
M  V30 10932 C 1069.5 -3.94035 -1.96022 0
M  V30 10933 H 1066.62 -0.710958 -0.194183 0
M  V30 10934 H 1069.26 -1.88986 0.196061 0
M  V30 10935 H 1067.41 -3.49548 -1.69553 0
M  V30 10936 H 1069.08 -4.56163 0.686503 0
M  V30 10937 H 1067.32 -4.27882 0.714127 0
M  V30 10938 H 1067.99 -5.50812 -0.361995 0
M  V30 10939 H 1070.47 -3.9064 -1.43315 0
M  V30 10940 H 1069.35 -4.98329 -2.3013 0
M  V30 10941 H 1069.61 -3.34803 -2.8872 0
M  V30 10942 N 1068.67 0.153526 -1.5685 0
M  V30 10943 C 1069.61 1.18973 -1.97773 0
M  V30 10944 C 1070.58 1.43041 -0.844311 0
M  V30 10945 O 1071.77 1.55484 -1.10586 0
M  V30 10946 C 1068.91 2.51981 -2.35795 0
M  V30 10947 C 1068.02 2.35143 -3.62397 0
M  V30 10948 C 1067.16 3.61141 -3.89552 0
M  V30 10949 C 1066.2 3.39311 -5.09445 0
M  V30 10950 N 1065.33 4.57423 -5.32643 0
M  V30 10951 H 1070.17 0.833758 -2.86099 0
M  V30 10952 H 1067.71 0.400252 -1.4155 0
M  V30 10953 H 1069.67 3.29527 -2.55867 0
M  V30 10954 H 1068.3 2.85539 -1.50557 0
M  V30 10955 H 1067.35 1.48684 -3.50139 0
M  V30 10956 H 1068.66 2.14969 -4.501 0
M  V30 10957 H 1067.82 4.47117 -4.10087 0
M  V30 10958 H 1066.55 3.84312 -3.00259 0
M  V30 10959 H 1065.56 2.51723 -4.8879 0
M  V30 10960 H 1066.78 3.17545 -6.00285 0
M  V30 10961 H 1064.73 4.8078 -4.46303 0
M  V30 10962 H 1064.65 4.40228 -6.14602 0
M  V30 10963 H 1065.92 5.44632 -5.57671 0
M  V30 10964 N 1070.14 1.51827 0.422667 0
M  V30 10965 C 1071.39 1.6445 1.16786 0
M  V30 10966 C 1071.71 0.373792 1.91995 0
M  V30 10967 O 1072.91 0.379621 2.68833 0
M  V30 10968 C 1071.37 2.90488 2.12473 0
M  V30 10969 C 1070.98 4.24617 1.42844 0
M  V30 10970 C 1072.72 3.12472 2.87335 0
M  V30 10971 C 1070.63 5.41791 2.371 0
M  V30 10972 H 1069.56 0.612561 0.439641 0
M  V30 10973 H 1072.21 1.78305 0.433534 0
M  V30 10974 H 1070.59 2.703 2.89402 0
M  V30 10975 H 1071.76 4.55239 0.71372 0
M  V30 10976 H 1070.08 4.08628 0.800769 0
M  V30 10977 H 1072.68 3.9719 3.57973 0
M  V30 10978 H 1073.02 2.26148 3.49518 0
M  V30 10979 H 1073.55 3.33069 2.17509 0
M  V30 10980 H 1070.29 6.3042 1.79584 0
M  V30 10981 H 1069.81 5.15526 3.06583 0
M  V30 10982 H 1071.49 5.74329 2.97918 0
M  V30 10983 N 1071.62 -0.679052 1.4222 0
M  V30 10984 C 1073.03 -1.25953 1.37815 0
M  V30 10985 C 1073.38 -1.96077 0.0693215 0
M  V30 10986 O 1072.51 -1.99765 -0.832047 0
M  V30 10987 C 1073.1 -2.29063 2.49631 0
M  V30 10988 C 1071.66 -2.82647 2.48571 0
M  V30 10989 C 1070.81 -1.56909 2.28637 0
M  V30 10990 H 1073.76 -0.472714 1.51496 0
M  V30 10991 H 1073.78 -3.10708 2.19638 0
M  V30 10992 H 1073.29 -1.77996 3.44876 0
M  V30 10993 H 1071.4 -3.37846 1.57132 0
M  V30 10994 H 1071.51 -3.31952 3.45463 0
M  V30 10995 H 1069.87 -1.83323 1.76819 0
M  V30 10996 H 1070.66 -1.07814 3.25931 0
M  V30 10997 N 1073.1 -1.28322 -0.914942 0
M  V30 10998 C 1074.05 -1.12146 -2.01722 0
M  V30 10999 C 1075.02 -0.0189279 -1.66089 0
M  V30 11000 O 1076.2 -0.183638 -1.89914 0
M  V30 11001 C 1073.34 -0.78808 -3.35981 0
M  V30 11002 C 1072.46 -1.96954 -3.84491 0
M  V30 11003 C 1071.59 -1.57688 -5.07255 0
M  V30 11004 C 1070.63 -2.72506 -5.48094 0
M  V30 11005 N 1069.77 -2.33741 -6.62049 0
M  V30 11006 H 1074.61 -2.06461 -2.1489 0
M  V30 11007 H 1072.14 -1.0276 -1.05256 0
M  V30 11008 H 1074.1 -0.575546 -4.13211 0
M  V30 11009 H 1072.73 0.118132 -3.22584 0
M  V30 11010 H 1071.78 -2.29423 -3.03429 0
M  V30 11011 H 1073.1 -2.8304 -4.10719 0
M  V30 11012 H 1072.25 -1.32634 -5.92025 0
M  V30 11013 H 1070.99 -0.687291 -4.82833 0
M  V30 11014 H 1069.99 -2.9826 -4.61867 0
M  V30 11015 H 1071.22 -3.62106 -5.74505 0
M  V30 11016 H 1069.16 -1.4725 -6.3926 0
M  V30 11017 H 1069.08 -3.13364 -6.87997 0
M  V30 11018 H 1070.35 -2.11968 -7.50127 0
M  V30 11019 N 1074.58 1.12322 -1.10551 0
M  V30 11020 C 1075.82 1.85497 -0.858492 0
M  V30 11021 C 1076.18 1.8222 0.604966 0
M  V30 11022 O 1077.38 2.5075 0.968382 0
M  V30 11023 C 1075.65 3.29124 -1.39327 0
M  V30 11024 S 1077.21 4.19659 -1.28186 0
M  V30 11025 H 1074.03 0.639768 -0.31019 0
M  V30 11026 H 1076.63 1.35298 -1.41119 0
M  V30 11027 H 1075.34 3.29069 -2.45238 0
M  V30 11028 H 1074.87 3.84388 -0.837203 0
M  V30 11029 H 1076.88 4.95618 -0.240325 0
M  V30 11030 N 1076.06 0.894434 1.2976 0
M  V30 11031 C 1077.3 0.524501 1.97556 0
M  V30 11032 C 1077.66 -0.911202 1.69 0
M  V30 11033 O 1078.86 -1.38774 2.30207 0
M  V30 11034 C 1077.13 0.802636 3.48271 0
M  V30 11035 S 1078.69 0.536223 4.35511 0
M  V30 11036 H 1075.51 0.194786 0.683798 0
M  V30 11037 H 1078.11 1.15574 1.5768 0
M  V30 11038 H 1076.82 1.84586 3.66546 0
M  V30 11039 H 1076.35 0.159316 3.93077 0
M  V30 11040 H 1078.36 -0.621056 4.92298 0
M  V30 11041 N 1077.53 -1.43282 0.656365 0
M  V30 11042 C 1078.48 -2.30776 -0.0333155 0
M  V30 11043 C 1079.45 -1.44928 -0.811493 0
M  V30 11044 O 1080.64 -1.73792 -0.787465 0
M  V30 11045 C 1077.78 -3.30548 -0.991566 0
M  V30 11046 C 1076.89 -4.31493 -0.209159 0
M  V30 11047 C 1076.02 -5.18346 -1.16149 0
M  V30 11048 C 1075.06 -6.10983 -0.369699 0
M  V30 11049 N 1074.2 -6.90449 -1.27378 0
M  V30 11050 H 1079.04 -2.89204 0.718668 0
M  V30 11051 H 1076.58 -1.4247 0.366161 0
M  V30 11052 H 1078.54 -3.86905 -1.56078 0
M  V30 11053 H 1077.17 -2.73762 -1.71039 0
M  V30 11054 H 1076.22 -3.77405 0.476394 0
M  V30 11055 H 1077.53 -4.97142 0.406394 0
M  V30 11056 H 1076.68 -5.79345 -1.80124 0
M  V30 11057 H 1075.42 -4.52831 -1.81095 0
M  V30 11058 H 1074.43 -5.49069 0.283377 0
M  V30 11059 H 1075.65 -6.78541 0.275399 0
M  V30 11060 H 1073.6 -6.27579 -1.90999 0
M  V30 11061 H 1073.52 -7.52631 -0.71287 0
M  V30 11062 H 1074.78 -7.5595 -1.90158 0
M  V30 11063 N 1079.01 -0.398486 -1.52479 0
M  V30 11064 C 1080.26 0.180394 -2.01293 0
M  V30 11065 C 1080.58 1.46548 -1.28641 0
M  V30 11066 O 1079.85 1.91579 -0.409173 0
M  V30 11067 H 1078.43 0.0696528 -0.743746 0
M  V30 11068 H 1081.09 -0.532285 -1.87491 0
M  V30 11069 H 1080.19 0.38409 -3.09728 0
M  V30 11070 N 1080.49 1.57075 -0.12858 0
M  V30 11071 C 1081.74 1.9552 0.527087 0
M  V30 11072 C 1082.07 1.01243 1.66072 0
M  V30 11073 O 1081.32 0.0381076 1.95663 0
M  V30 11074 C 1081.62 3.40329 1.09138 0
M  V30 11075 C 1081.29 4.50832 0.0781039 0
M  V30 11076 C 1079.95 4.80782 -0.200493 0
M  V30 11077 C 1082.3 5.17595 -0.61192 0
M  V30 11078 C 1079.63 5.74809 -1.17524 0
M  V30 11079 C 1081.98 6.12671 -1.57536 0
M  V30 11080 C 1080.64 6.41008 -1.86184 0
M  V30 11081 H 1079.91 0.715458 0.192875 0
M  V30 11082 H 1082.56 1.90328 -0.211515 0
M  V30 11083 H 1080.87 3.42262 1.90694 0
M  V30 11084 H 1082.56 3.67393 1.60696 0
M  V30 11085 H 1079.15 4.2751 0.30543 0
M  V30 11086 H 1083.34 4.94605 -0.40986 0
M  V30 11087 H 1078.59 5.95065 -1.40384 0
M  V30 11088 H 1082.77 6.63486 -2.11565 0
M  V30 11089 H 1080.39 7.13673 -2.61868 0
M  V30 11090 N 1081.97 -0.145205 1.5693 0
M  V30 11091 C 1083.2 -0.871133 1.87336 0
M  V30 11092 C 1083.61 -1.7517 0.714992 0
M  V30 11093 O 1082.95 -1.80815 -0.324304 0
M  V30 11094 C 1083.01 -1.77775 3.12468 0
M  V30 11095 C 1082.68 -1.07416 4.44197 0
M  V30 11096 C 1083.67 -0.42722 5.18142 0
M  V30 11097 C 1081.36 -1.06313 4.9092 0
M  V30 11098 C 1083.35 0.221348 6.37016 0
M  V30 11099 C 1081.04 -0.410755 6.09718 0
M  V30 11100 C 1082.04 0.230357 6.82611 0
M  V30 11101 O 1081.73 0.872389 7.99152 0
M  V30 11102 H 1081.46 -0.257174 0.62517 0
M  V30 11103 H 1084.01 -0.142159 2.04907 0
M  V30 11104 H 1082.24 -2.54771 2.9091 0
M  V30 11105 H 1083.93 -2.37579 3.29107 0
M  V30 11106 H 1084.7 -0.427536 4.83112 0
M  V30 11107 H 1080.58 -1.55156 4.34105 0
M  V30 11108 H 1084.12 0.722349 6.9385 0
M  V30 11109 H 1080.02 -0.408112 6.44209 0
M  V30 11110 H 1080.78 0.774236 8.1483 0
M  V30 11111 N 1083.45 -1.52049 -0.414609 0
M  V30 11112 C 1084.7 -1.65511 -1.15977 0
M  V30 11113 C 1085.02 -0.384703 -1.91168 0
M  V30 11114 O 1084.29 0.600247 -1.86477 0
M  V30 11115 H 1082.87 -0.610039 -0.431116 0
M  V30 11116 H 1085.53 -1.8907 -0.473139 0
M  V30 11117 H 1084.62 -2.4936 -1.87686 0
M  V30 11118 N 1084.93 0.6715 -1.42579 0
M  V30 11119 C 1086.34 1.2522 -1.38481 0
M  V30 11120 C 1086.69 1.96038 -0.079719 0
M  V30 11121 O 1085.81 2.00203 0.821441 0
M  V30 11122 C 1086.41 2.27736 -2.50842 0
M  V30 11123 C 1084.97 2.81325 -2.50067 0
M  V30 11124 C 1084.11 1.55694 -2.29466 0
M  V30 11125 H 1087.06 0.464673 -1.51745 0
M  V30 11126 H 1087.09 3.09539 -2.21283 0
M  V30 11127 H 1086.6 1.76164 -3.45815 0
M  V30 11128 H 1084.7 3.37008 -1.58922 0
M  V30 11129 H 1084.81 3.30116 -3.47218 0
M  V30 11130 H 1083.18 1.82383 -1.77788 0
M  V30 11131 H 1083.96 1.06084 -3.26498 0
M  V30 11132 N 1086.4 1.28806 0.908124 0
M  V30 11133 C 1087.68 1.06981 1.63751 0
M  V30 11134 C 1088.06 -0.388936 2.07486 0
M  V30 11135 O 1087.41 -1.37611 1.82415 0
M  V30 11136 C 1087.62 2.04962 2.82474 0
M  V30 11137 C 1088.97 2.35418 3.5336 0
M  V30 11138 O 1089.99 2.03091 2.92631 0
M  V30 11139 O 1088.85 2.90617 4.62822 0
M  V30 11140 H 1085.94 0.409267 0.71863 0
M  V30 11141 H 1088.49 1.40146 0.956934 0
M  V30 11142 H 1087.26 3.03254 2.47291 0
M  V30 11143 H 1086.88 1.72476 3.58242 0
M  V30 11144 N 1087.88 -1.11734 1.11145 0
M  V30 11145 C 1089.12 -1.85039 0.868318 0
M  V30 11146 C 1089.49 -1.82538 -0.595294 0
M  V30 11147 O 1090.69 -2.5126 -0.955071 0
M  V30 11148 C 1088.96 -3.28381 1.4107 0
M  V30 11149 S 1090.52 -4.18973 1.3041 0
M  V30 11150 H 1087.33 -0.638114 0.313578 0
M  V30 11151 H 1089.94 -1.34548 1.41835 0
M  V30 11152 H 1088.64 -3.27764 2.46979 0
M  V30 11153 H 1088.17 -3.83939 0.857576 0
M  V30 11154 H 1090.19 -4.95483 0.266605 0
M  V30 11155 N 1089.36 -0.901303 -1.29284 0
M  V30 11156 C 1090.31 -0.370142 -2.29636 0
M  V30 11157 C 1091.3 0.53157 -1.60844 0
M  V30 11158 O 1092.51 0.414194 -1.7517 0
M  V30 11159 H 1088.88 -0.101072 -0.745177 0
M  V30 11160 H 1090.85 -1.22985 -2.71877 0
M  V30 11161 C 1089.6 0.385806 -3.45553 0
M  V30 11162 H 1088.93 -0.298818 -3.98682 0
M  V30 11163 H 1090.37 0.722299 -4.17802 0
M  V30 11164 C 1088.82 1.58907 -2.97069 0
M  V30 11165 O 1089.35 2.68835 -2.98481 0
M  V30 11166 N 1087.56 1.43178 -2.5288 0
M  V30 11167 H 1087.11 0.537467 -2.51931 0
M  V30 11168 H 1087.07 2.23819 -2.208 0
M  V30 11169 N 1090.84 1.42931 -0.663954 0
M  V30 11170 C 1091.77 2.29122 0.0598878 0
M  V30 11171 C 1092.78 1.43094 0.776404 0
M  V30 11172 O 1093.97 1.66923 0.63237 0
M  V30 11173 C 1091.07 3.20268 1.10822 0
M  V30 11174 C 1090.24 4.34892 0.4677 0
M  V30 11175 C 1089.3 5.06836 1.41435 0
M  V30 11176 O 1088.33 5.61735 0.918818 0
M  V30 11177 N 1089.53 5.11336 2.74801 0
M  V30 11178 H 1092.3 2.91885 -0.679945 0
M  V30 11179 H 1089.86 1.53739 -0.507543 0
M  V30 11180 H 1091.85 3.65264 1.74255 0
M  V30 11181 H 1090.42 2.59031 1.7499 0
M  V30 11182 H 1089.64 3.92679 -0.34593 0
M  V30 11183 H 1090.93 5.08796 0.0210237 0
M  V30 11184 H 1090.33 4.68124 3.1761 0
M  V30 11185 H 1088.88 5.60013 3.33509 0
M  V30 11186 N 1092.32 0.406567 1.52266 0
M  V30 11187 C 1093.56 -0.169611 2.03695 0
M  V30 11188 C 1093.92 -1.42596 1.2857 0
M  V30 11189 O 1095.12 -2.08041 1.70212 0
M  V30 11190 C 1093.39 -0.413924 3.54995 0
M  V30 11191 S 1094.95 -0.957916 4.28217 0
M  V30 11192 H 1091.77 -0.0462362 0.709495 0
M  V30 11193 H 1094.37 0.558895 1.87341 0
M  V30 11194 H 1093.07 0.507285 4.07253 0
M  V30 11195 H 1092.61 -1.17038 3.75587 0
M  V30 11196 H 1094.62 -2.2387 4.42828 0
M  V30 11197 N 1093.79 -1.57004 0.136909 0
M  V30 11198 C 1095.21 -1.82675 -0.385577 0
M  V30 11199 C 1095.56 -1.05508 -1.65416 0
M  V30 11200 O 1094.68 -0.297207 -2.14349 0
M  V30 11201 C 1095.28 -3.31356 -0.706326 0
M  V30 11202 C 1093.84 -3.57644 -1.17337 0
M  V30 11203 C 1092.98 -2.7664 -0.191239 0
M  V30 11204 H 1095.93 -1.54522 0.36177 0
M  V30 11205 H 1095.95 -3.4696 -1.56201 0
M  V30 11206 H 1095.47 -3.87492 0.217147 0
M  V30 11207 H 1093.57 -3.06883 -2.11313 0
M  V30 11208 H 1093.68 -4.66152 -1.10632 0
M  V30 11209 H 1092.04 -2.45403 -0.681867 0
M  V30 11210 H 1092.83 -3.35543 0.725647 0
M  V30 11211 N 1095.27 0.136881 -1.57004 0
M  V30 11212 C 1096.52 0.8461 -1.83536 0
M  V30 11213 C 1096.84 1.81246 -0.71937 0
M  V30 11214 O 1096.11 1.94191 0.258161 0
M  V30 11215 H 1094.69 0.315446 -0.677128 0
M  V30 11216 H 1097.35 0.128469 -1.94476 0
M  V30 11217 H 1096.45 1.40221 -2.78827 0
M  V30 11218 N 1096.75 1.52266 0.40654 0
M  V30 11219 C 1098 1.66123 1.15097 0
M  V30 11220 C 1098.32 0.394836 1.90961 0
M  V30 11221 O 1097.59 -0.590349 1.86793 0
M  V30 11222 H 1096.17 0.612317 0.427875 0
M  V30 11223 H 1098.83 1.89318 0.463106 0
M  V30 11224 H 1097.93 2.50351 1.86361 0
M  V30 11225 N 1098.23 -0.663929 1.42933 0
M  V30 11226 C 1099.48 -1.42393 1.43981 0
M  V30 11227 C 1099.8 -1.94407 0.0601802 0
M  V30 11228 O 1099.06 -1.72019 -0.933172 0
M  V30 11229 C 1099.36 -2.62976 2.4203 0
M  V30 11230 C 1099.02 -2.29441 3.88159 0
M  V30 11231 C 1097.69 -2.20007 4.27961 0
M  V30 11232 C 1100.04 -2.02413 4.8029 0
M  V30 11233 C 1097.37 -1.81686 5.57859 0
M  V30 11234 C 1099.72 -1.65592 6.10542 0
M  V30 11235 C 1098.38 -1.54676 6.49332 0
M  V30 11236 H 1097.65 -0.521051 0.526865 0
M  V30 11237 H 1100.3 -0.756042 1.75944 0
M  V30 11238 H 1098.6 -3.34847 2.03433 0
M  V30 11239 H 1100.3 -3.21174 2.40101 0
M  V30 11240 H 1096.89 -2.3769 3.56653 0
M  V30 11241 H 1101.07 -2.08628 4.5032 0
M  V30 11242 H 1096.33 -1.71812 5.86763 0
M  V30 11243 H 1100.5 -1.43707 6.81411 0
M  V30 11244 H 1098.13 -1.24752 7.49894 0
M  V30 11245 N 1099.71 -1.29285 -0.901281 0
M  V30 11246 C 1100.93 -1.20169 -1.69039 0
M  V30 11247 C 1101.36 0.234509 -1.86632 0
M  V30 11248 O 1100.71 1.16935 -1.38549 0
M  V30 11249 C 1100.76 -1.91852 -3.05328 0
M  V30 11250 O 1099.87 -1.23448 -3.9349 0
M  V30 11251 H 1099.21 -0.416486 -0.517141 0
M  V30 11252 H 1101.74 -1.70826 -1.12603 0
M  V30 11253 H 1101.75 -2.00244 -3.5548 0
M  V30 11254 H 1100.42 -2.96313 -2.91841 0
M  V30 11255 H 1099 -1.23303 -3.51924 0
M  V30 11256 N 1101.18 1.11143 -1.11736 0
M  V30 11257 C 1102.13 2.19358 -0.773626 0
M  V30 11258 C 1103.13 1.67744 0.236288 0
M  V30 11259 O 1104.33 1.79748 0.09525 0
M  V30 11260 H 1100.71 0.715218 -0.232309 0
M  V30 11261 H 1102.68 2.45594 -1.69487 0
M  V30 11262 C 1101.43 3.46895 -0.236457 0
M  V30 11263 H 1100.75 3.86967 -1.00483 0
M  V30 11264 H 1102.19 4.23986 -0.034168 0
M  V30 11265 C 1100.65 3.20641 1.03397 0
M  V30 11266 O 1101.18 3.41629 2.11312 0
M  V30 11267 N 1099.39 2.74356 0.957986 0
M  V30 11268 H 1098.93 2.57477 0.0796924 0
M  V30 11269 H 1098.89 2.57166 1.80867 0
M  V30 11270 N 1102.66 0.908147 1.28804 0
M  V30 11271 C 1104.07 0.585727 1.77274 0
M  V30 11272 C 1104.42 -0.898842 1.744 0
M  V30 11273 O 1103.55 -1.70301 1.33516 0
M  V30 11274 C 1104.14 1.05647 3.21907 0
M  V30 11275 C 1102.7 0.785066 3.68122 0
M  V30 11276 C 1101.85 1.22638 2.48707 0
M  V30 11277 H 1104.8 1.09 1.15346 0
M  V30 11278 H 1104.82 0.395442 3.7844 0
M  V30 11279 H 1104.33 2.13698 3.23967 0
M  V30 11280 H 1102.44 -0.282477 3.71528 0
M  V30 11281 H 1102.55 1.38888 4.58527 0
M  V30 11282 H 1100.91 0.645217 2.46392 0
M  V30 11283 H 1101.7 2.31512 2.5349 0
M  V30 11284 N 1104.14 -1.42577 0.671525 0
M  V30 11285 C 1105.38 -2.03455 0.196271 0
M  V30 11286 C 1105.74 -1.51934 -1.17389 0
M  V30 11287 O 1106.95 -2.04577 -1.74361 0
M  V30 11288 C 1105.22 -3.56687 0.225624 0
M  V30 11289 S 1106.78 -4.38434 -0.179107 0
M  V30 11290 H 1103.59 -0.706371 0.0809995 0
M  V30 11291 H 1106.2 -1.74375 0.883948 0
M  V30 11292 H 1104.9 -3.91684 1.22524 0
M  V30 11293 H 1104.43 -3.90436 -0.481994 0
M  V30 11294 H 1106.45 -4.75646 -1.41332 0
M  V30 11295 N 1105.62 -0.414636 -1.52048 0
M  V30 11296 C 1106.84 0.161137 -2.06773 0
M  V30 11297 C 1107.27 1.37628 -1.2822 0
M  V30 11298 O 1106.63 1.78562 -0.313915 0
M  V30 11299 C 1106.67 0.48452 -3.5733 0
M  V30 11300 O 1105.78 1.57466 -3.81154 0
M  V30 11301 H 1105.12 0.0118003 -0.663895 0
M  V30 11302 H 1107.65 -0.589424 -1.95926 0
M  V30 11303 H 1107.66 0.741567 -4.01204 0
M  V30 11304 H 1106.33 -0.403733 -4.13936 0
M  V30 11305 H 1104.91 1.30935 -3.49157 0
M  V30 11306 N 1107.1 1.56929 -0.145233 0
M  V30 11307 C 1108.34 1.95681 0.50532 0
M  V30 11308 C 1108.67 1.03098 1.65516 0
M  V30 11309 O 1107.94 0.0921961 1.95683 0
M  V30 11310 H 1106.52 0.72252 0.189668 0
M  V30 11311 H 1109.18 1.93651 -0.220318 0
M  V30 11312 H 1108.27 2.99359 0.882631 0
M  V30 11313 N 1108.58 -0.128553 1.57075 0
M  V30 11314 C 1109.52 -1.17719 2.00611 0
M  V30 11315 C 1110.52 -1.43423 0.90146 0
M  V30 11316 O 1111.72 -1.43498 1.08666 0
M  V30 11317 H 1108.1 -0.396683 0.638864 0
M  V30 11318 H 1110.07 -0.783437 2.87932 0
M  V30 11319 C 1108.82 -2.49826 2.41831 0
M  V30 11320 H 1108.14 -2.30883 3.26394 0
M  V30 11321 H 1109.58 -3.21784 2.761 0
M  V30 11322 C 1108.04 -3.11712 1.27816 0
M  V30 11323 O 1108.57 -3.9736 0.588917 0
M  V30 11324 N 1106.78 -2.71442 1.03767 0
M  V30 11325 H 1106.32 -2.01891 1.59994 0
M  V30 11326 H 1106.28 -3.1318 0.276743 0
M  V30 11327 N 1110.05 -1.5248 -0.398459 0
M  V30 11328 C 1111.3 -1.66731 -1.14215 0
M  V30 11329 C 1111.62 -0.404957 -1.90749 0
M  V30 11330 O 1110.89 0.580434 -1.87104 0
M  V30 11331 H 1109.47 -0.614577 -0.424622 0
M  V30 11332 H 1112.13 -1.89561 -0.453059 0
M  V30 11333 H 1111.23 -2.51336 -1.85031 0
M  V30 11334 N 1111.53 0.65634 -1.43283 0
M  V30 11335 C 1112.46 1.78184 -1.44164 0
M  V30 11336 C 1113.48 1.59249 -0.338177 0
M  V30 11337 O 1114.67 1.68027 -0.60242 0
M  V30 11338 C 1111.77 3.15566 -1.23577 0
M  V30 11339 C 1110.94 3.61187 -2.46704 0
M  V30 11340 C 1110 4.77361 -2.21388 0
M  V30 11341 O 1109.02 4.8696 -2.94718 0
M  V30 11342 N 1110.23 5.67351 -1.22855 0
M  V30 11343 H 1112.99 1.77907 -2.41183 0
M  V30 11344 H 1110.55 0.840076 -1.38399 0
M  V30 11345 H 1112.54 3.90968 -1.04529 0
M  V30 11346 H 1111.11 3.10633 -0.350155 0
M  V30 11347 H 1110.33 2.76263 -2.81198 0
M  V30 11348 H 1111.62 3.88413 -3.28652 0
M  V30 11349 H 1111.02 5.62265 -0.622417 0
M  V30 11350 H 1109.58 6.42487 -1.09791 0
M  V30 11351 N 1113.01 1.29761 0.894412 0
M  V30 11352 C 1114.25 1.19313 1.65963 0
M  V30 11353 C 1114.61 -0.25022 1.90363 0
M  V30 11354 O 1115.81 -0.477779 2.6452 0
M  V30 11355 C 1114.09 1.98934 2.96917 0
M  V30 11356 S 1115.64 2.05079 3.87928 0
M  V30 11357 H 1112.46 0.42535 0.569735 0
M  V30 11358 H 1115.06 1.64116 1.06236 0
M  V30 11359 H 1113.77 3.02932 2.76876 0
M  V30 11360 H 1113.3 1.54756 3.61682 0
M  V30 11361 H 1115.31 1.17131 4.82177 0
M  V30 11362 N 1114.49 -1.10549 1.12324 0
M  V30 11363 C 1115.45 -2.15039 0.793156 0
M  V30 11364 C 1116.45 -1.59651 -0.19192 0
M  V30 11365 O 1117.64 -1.74167 0.0337262 0
M  V30 11366 C 1114.77 -3.40433 0.17842 0
M  V30 11367 H 1115.97 -2.4575 1.71892 0
M  V30 11368 H 1113.52 -1.25892 0.926333 0
M  V30 11369 H 1114.25 -3.15338 -0.757122 0
M  V30 11370 H 1114.04 -3.81921 0.887645 0
M  V30 11371 H 1115.53 -4.17584 -0.0360724 0
M  V30 11372 N 1115.97 -0.914965 -1.28321 0
M  V30 11373 C 1117.24 -0.46764 -1.89928 0
M  V30 11374 C 1117.62 1.05364 -1.82925 0
M  V30 11375 O 1116.97 1.90223 -1.26599 0
M  V30 11376 C 1117.18 -0.999372 -3.34385 0
M  V30 11377 C 1118.53 -1.0522 -4.11356 0
M  V30 11378 O 1119.55 -0.9481 -3.4335 0
M  V30 11379 O 1118.41 -1.21085 -5.32917 0
M  V30 11380 H 1115.51 -0.148398 -0.813577 0
M  V30 11381 H 1118.05 -1.00583 -1.36679 0
M  V30 11382 H 1116.82 -2.04333 -3.33712 0
M  V30 11383 H 1116.45 -0.442083 -3.95135 0
M  V30 11384 N 1117.44 1.42219 -0.679077 0
M  V30 11385 C 1118.67 2.06333 -0.210097 0
M  V30 11386 C 1119.09 1.50703 1.12562 0
M  V30 11387 O 1118.45 0.627241 1.70104 0
M  V30 11388 C 1118.5 3.60243 -0.160322 0
M  V30 11389 O 1117.6 4.03122 0.869872 0
M  V30 11390 H 1116.94 0.655362 -0.106754 0
M  V30 11391 H 1119.47 1.82278 -0.929294 0
M  V30 11392 H 1119.48 4.07997 0.014384 0
M  V30 11393 H 1118.16 4.00106 -1.13526 0
M  V30 11394 H 1116.74 3.66907 0.66586 0
M  V30 11395 N 1118.92 0.422693 1.51826 0
M  V30 11396 C 1119.85 -0.386913 2.30272 0
M  V30 11397 C 1120.83 -1.03411 1.35056 0
M  V30 11398 O 1122.02 -1.04055 1.6397 0
M  V30 11399 C 1119.15 -1.49645 3.13407 0
M  V30 11400 C 1118.1 -0.973532 4.16781 0
M  V30 11401 C 1117.43 -2.1777 4.88344 0
M  V30 11402 C 1118.73 -0.0181194 5.22297 0
M  V30 11403 H 1120.42 0.267697 2.98201 0
M  V30 11404 H 1117.97 0.130186 1.4341 0
M  V30 11405 H 1119.92 -2.06993 3.67059 0
M  V30 11406 H 1118.64 -2.17914 2.43272 0
M  V30 11407 H 1117.3 -0.42237 3.64159 0
M  V30 11408 H 1116.95 -2.84625 4.14726 0
M  V30 11409 H 1116.65 -1.83427 5.58237 0
M  V30 11410 H 1118.18 -2.75699 5.44814 0
M  V30 11411 H 1119.59 -0.500822 5.71108 0
M  V30 11412 H 1117.99 0.237163 5.99631 0
M  V30 11413 H 1119.06 0.923065 4.76033 0
M  V30 11414 N 1120.4 -1.5685 0.153553 0
M  V30 11415 C 1121.65 -1.95946 -0.494936 0
M  V30 11416 C 1121.97 -1.03975 -1.64967 0
M  V30 11417 O 1121.24 -0.102572 -1.95631 0
M  V30 11418 H 1119.82 -0.723516 -0.185833 0
M  V30 11419 H 1122.48 -1.93531 0.230585 0
M  V30 11420 H 1121.58 -2.99823 -0.866743 0
M  V30 11421 N 1121.88 0.120221 -1.57141 0
M  V30 11422 C 1123.13 0.826586 -1.84423 0
M  V30 11423 C 1123.45 1.80473 -0.738553 0
M  V30 11424 O 1122.72 1.94454 0.23755 0
M  V30 11425 H 1121.3 0.308246 -0.680436 0
M  V30 11426 H 1123.96 0.107835 -1.94601 0
M  V30 11427 H 1123.05 1.37256 -2.80298 0
M  V30 11428 N 1123.36 1.52689 0.390367 0
M  V30 11429 C 1124.3 1.78007 1.4972 0
M  V30 11430 C 1125.3 0.647948 1.56518 0
M  V30 11431 O 1126.5 0.830398 1.59701 0
M  V30 11432 H 1122.88 0.56322 0.498284 0
M  V30 11433 H 1124.85 2.70698 1.25559 0
M  V30 11434 C 1123.6 1.96469 2.86872 0
M  V30 11435 H 1122.92 2.83012 2.82391 0
M  V30 11436 H 1124.36 2.18174 3.6356 0
M  V30 11437 C 1122.82 0.736847 3.28743 0
M  V30 11438 O 1123.35 -0.0863743 4.01607 0
M  V30 11439 N 1121.56 0.56735 2.85008 0
M  V30 11440 H 1121.1 1.23838 2.2588 0
M  V30 11441 H 1121.06 -0.252831 3.13382 0
M  V30 11442 N 1124.83 -0.648732 1.43629 0
M  V30 11443 C 1126.08 -1.40579 1.45196 0
M  V30 11444 C 1126.4 -1.9484 0.0790556 0
M  V30 11445 O 1125.67 -1.74707 -0.886239 0
M  V30 11446 H 1124.25 -0.52175 0.53459 0
M  V30 11447 H 1126.92 -0.764796 1.79268 0
M  V30 11448 H 1126.01 -2.24591 2.16715 0
M  V30 11449 N 1126.31 -1.30234 -0.887518 0
M  V30 11450 C 1127.54 -1.21829 -1.67229 0
M  V30 11451 C 1127.96 0.219251 -1.87523 0
M  V30 11452 O 1127.31 1.14526 -1.42091 0
M  V30 11453 C 1127.36 -1.94044 -3.05007 0
M  V30 11454 O 1127.08 -3.32185 -2.85631 0
M  V30 11455 C 1128.59 -1.92265 -3.99436 0
M  V30 11456 H 1125.81 -0.421716 -0.521916 0
M  V30 11457 H 1128.35 -1.71816 -1.10903 0
M  V30 11458 H 1126.5 -1.47861 -3.58072 0
M  V30 11459 H 1126.92 -3.68724 -3.73018 0
M  V30 11460 H 1128.39 -2.47336 -4.93486 0
M  V30 11461 H 1128.87 -0.900984 -4.29859 0
M  V30 11462 H 1129.48 -2.38247 -3.52305 0
M  V30 11463 N 1127.79 1.09952 -1.12909 0
M  V30 11464 C 1129.03 1.83635 -0.897646 0
M  V30 11465 C 1129.39 1.83462 0.566179 0
M  V30 11466 O 1130.6 2.52748 0.914977 0
M  V30 11467 C 1128.87 3.26095 -1.46277 0
M  V30 11468 S 1130.43 4.16846 -1.37059 0
M  V30 11469 H 1127.24 0.633045 -0.32369 0
M  V30 11470 H 1129.85 1.32275 -1.43957 0
M  V30 11471 H 1128.55 3.23793 -2.52163 0
M  V30 11472 H 1128.08 3.82526 -0.918549 0
M  V30 11473 H 1130.1 4.94996 -0.345399 0
M  V30 11474 N 1129.27 0.921757 1.27833 0
M  V30 11475 C 1130.52 0.55493 1.93916 0
M  V30 11476 C 1130.83 -0.907191 1.7329 0
M  V30 11477 O 1132.04 -1.38253 2.33663 0
M  V30 11478 C 1130.49 0.941644 3.47363 0
M  V30 11479 C 1130.1 2.42404 3.76755 0
M  V30 11480 C 1131.84 0.645785 4.19559 0
M  V30 11481 C 1129.75 2.75046 5.23549 0
M  V30 11482 H 1128.68 0.203818 0.72593 0
M  V30 11483 H 1131.33 1.12176 1.4522 0
M  V30 11484 H 1129.71 0.303519 3.94835 0
M  V30 11485 H 1130.89 3.10957 3.40062 0
M  V30 11486 H 1129.2 2.69118 3.17749 0
M  V30 11487 H 1131.8 0.866237 5.27637 0
M  V30 11488 H 1132.14 -0.41676 4.14209 0
M  V30 11489 H 1132.68 1.24274 3.7789 0
M  V30 11490 H 1129.42 3.80186 5.33984 0
M  V30 11491 H 1128.94 2.11138 5.6141 0
M  V30 11492 H 1130.61 2.62474 5.91368 0
M  V30 11493 N 1130.75 -1.41857 0.686609 0
M  V30 11494 C 1131.99 -2.03236 0.217839 0
M  V30 11495 C 1132.35 -1.5317 -1.15771 0
M  V30 11496 O 1133.55 -2.06415 -1.72181 0
M  V30 11497 C 1131.82 -3.56428 0.263443 0
M  V30 11498 S 1133.38 -4.386 -0.132595 0
M  V30 11499 H 1130.2 -0.705472 0.088487 0
M  V30 11500 H 1132.8 -1.73428 0.902393 0
M  V30 11501 H 1131.51 -3.90362 1.26672 0
M  V30 11502 H 1131.04 -3.90925 -0.440556 0
M  V30 11503 H 1133.05 -4.77119 -1.3628 0
M  V30 11504 N 1132.22 -0.430739 -1.51599 0
M  V30 11505 C 1133.13 0.390347 -2.3133 0
M  V30 11506 C 1134.15 1.03376 -1.39962 0
M  V30 11507 O 1135.33 1.03057 -1.73035 0
M  V30 11508 C 1132.39 1.48039 -3.13505 0
M  V30 11509 C 1131.45 0.857792 -4.20643 0
M  V30 11510 C 1130.69 1.89589 -4.9889 0
M  V30 11511 O 1130.91 3.11717 -4.77691 0
M  V30 11512 O 1129.84 1.49009 -5.83164 0
M  V30 11513 H 1133.67 -0.260358 -3.02582 0
M  V30 11514 H 1131.25 -0.193428 -1.48143 0
M  V30 11515 H 1133.14 2.11272 -3.64612 0
M  V30 11516 H 1131.81 2.1153 -2.45024 0
M  V30 11517 H 1130.72 0.187592 -3.73629 0
M  V30 11518 H 1132.05 0.266474 -4.91478 0
M  V30 11519 N 1133.7 1.56767 -0.161869 0
M  V30 11520 C 1134.61 2.21083 0.784814 0
M  V30 11521 C 1135.63 1.19959 1.26039 0
M  V30 11522 O 1136.8 1.52588 1.31449 0
M  V30 11523 C 1133.87 2.83153 2.00063 0
M  V30 11524 C 1132.93 3.9945 1.57285 0
M  V30 11525 C 1132.16 4.5855 2.7307 0
M  V30 11526 O 1132.39 4.16534 3.89686 0
M  V30 11527 O 1131.32 5.48575 2.47688 0
M  V30 11528 H 1135.15 3.02522 0.267243 0
M  V30 11529 H 1132.73 1.49255 0.0658783 0
M  V30 11530 H 1134.61 3.22546 2.71186 0
M  V30 11531 H 1133.29 2.04718 2.50744 0
M  V30 11532 H 1132.2 3.64745 0.831393 0
M  V30 11533 H 1133.53 4.7945 1.11304 0
M  V30 11534 N 1135.18 -0.111886 1.57202 0
M  V30 11535 C 1136.43 -0.816794 1.84859 0
M  V30 11536 C 1136.75 -1.80079 0.748113 0
M  V30 11537 O 1136.02 -1.94578 -0.227235 0
M  V30 11538 H 1134.6 -0.304633 0.682061 0
M  V30 11539 H 1137.26 -0.097513 1.94656 0
M  V30 11540 H 1136.36 -1.35768 2.81022 0
M  V30 11541 N 1136.66 -1.52894 -0.382264 0
M  V30 11542 C 1137.91 -1.68266 -1.12663 0
M  V30 11543 C 1138.23 -0.425974 -1.89778 0
M  V30 11544 O 1137.49 0.59178 -1.86538 0
M  V30 11545 C 1137.79 -2.87309 -2.12576 0
M  V30 11546 C 1137.45 -4.24484 -1.52067 0
M  V30 11547 C 1136.12 -4.6179 -1.35292 0
M  V30 11548 C 1138.47 -5.09858 -1.08138 0
M  V30 11549 C 1135.8 -5.82123 -0.731449 0
M  V30 11550 C 1138.15 -6.30822 -0.473986 0
M  V30 11551 C 1136.81 -6.66854 -0.293585 0
M  V30 11552 H 1136.08 -0.615728 -0.412262 0
M  V30 11553 H 1138.73 -1.8705 -0.410425 0
M  V30 11554 H 1137.03 -2.62968 -2.90439 0
M  V30 11555 H 1138.73 -2.96397 -2.70092 0
M  V30 11556 H 1135.32 -3.951 -1.66114 0
M  V30 11557 H 1139.5 -4.816 -1.19898 0
M  V30 11558 H 1134.76 -6.08643 -0.579938 0
M  V30 11559 H 1138.93 -6.96287 -0.125324 0
M  V30 11560 H 1136.56 -7.59962 0.190054 0
M  V30 11561 N 1138.14 0.641106 -1.43971 0
M  V30 11562 C 1139.07 1.76645 -1.46046 0
M  V30 11563 C 1140.08 1.58881 -0.355049 0
M  V30 11564 O 1141.27 1.67379 -0.620207 0
M  V30 11565 C 1138.37 3.14237 -1.26918 0
M  V30 11566 C 1137.54 3.5855 -2.50521 0
M  V30 11567 C 1136.6 4.74986 -2.26438 0
M  V30 11568 O 1135.63 4.83807 -2.99866 0
M  V30 11569 N 1136.83 5.66016 -1.28866 0
M  V30 11570 H 1139.6 1.75339 -2.43056 0
M  V30 11571 H 1137.16 0.82535 -1.39282 0
M  V30 11572 H 1139.15 3.89837 -1.0867 0
M  V30 11573 H 1137.72 3.10244 -0.383082 0
M  V30 11574 H 1136.94 2.73265 -2.84112 0
M  V30 11575 H 1138.23 3.84906 -3.32754 0
M  V30 11576 H 1137.63 5.61574 -0.682018 0
M  V30 11577 H 1136.18 6.41286 -1.16599 0
M  V30 11578 N 1139.62 1.30703 0.880598 0
M  V30 11579 C 1140.86 1.19541 1.62955 0
M  V30 11580 C 1141.18 -0.249089 1.93403 0
M  V30 11581 O 1140.45 -1.1669 1.57354 0
M  V30 11582 H 1139.03 0.439434 0.604075 0
M  V30 11583 H 1141.7 1.63888 1.05483 0
M  V30 11584 H 1140.79 1.75945 2.57779 0
M  V30 11585 N 1141.09 -1.09351 1.1349 0
M  V30 11586 C 1142.32 -1.85844 0.92069 0
M  V30 11587 C 1142.74 -1.80616 -0.525303 0
M  V30 11588 O 1142.1 -1.1842 -1.37282 0
M  V30 11589 C 1142.15 -3.31716 1.4141 0
M  V30 11590 O 1141.25 -4.08014 0.599838 0
M  V30 11591 H 1140.59 -0.576242 0.32991 0
M  V30 11592 H 1143.12 -1.38084 1.50976 0
M  V30 11593 H 1143.13 -3.82564 1.41805 0
M  V30 11594 H 1141.81 -3.34837 2.46692 0
M  V30 11595 H 1140.39 -3.66944 0.663816 0
M  V30 11596 N 1142.57 -0.928524 -1.27343 0
M  V30 11597 C 1143.5 -0.385563 -2.25934 0
M  V30 11598 C 1144.52 0.484178 -1.55433 0
M  V30 11599 O 1145.71 0.296668 -1.76017 0
M  V30 11600 C 1142.81 0.466116 -3.35679 0
M  V30 11601 C 1141.98 -0.384523 -4.35707 0
M  V30 11602 C 1141.04 0.404644 -5.24642 0
M  V30 11603 O 1140.06 -0.187943 -5.6889 0
M  V30 11604 N 1141.27 1.70426 -5.54919 0
M  V30 11605 H 1144.03 -1.23306 -2.73159 0
M  V30 11606 H 1141.59 -0.796039 -1.40978 0
M  V30 11607 H 1143.58 1.00115 -3.92121 0
M  V30 11608 H 1142.15 1.21437 -2.88048 0
M  V30 11609 H 1141.37 -1.10085 -3.78517 0
M  V30 11610 H 1142.66 -0.966033 -4.99545 0
M  V30 11611 H 1142.06 2.20802 -5.20829 0
M  V30 11612 H 1140.62 2.1858 -6.14057 0
M  V30 11613 N 1144.05 1.41491 -0.694123 0
M  V30 11614 C 1145.29 2.03117 -0.228614 0
M  V30 11615 C 1145.65 1.53782 1.14957 0
M  V30 11616 O 1146.85 2.07325 1.71084 0
M  V30 11617 C 1145.13 3.56283 -0.282341 0
M  V30 11618 S 1146.68 4.38664 0.109333 0
M  V30 11619 H 1143.5 0.704993 -0.092227 0
M  V30 11620 H 1146.1 1.72947 -0.911578 0
M  V30 11621 H 1144.81 3.89685 -1.2874 0
M  V30 11622 H 1144.34 3.91154 0.419818 0
M  V30 11623 H 1146.35 4.77835 1.33747 0
M  V30 11624 N 1145.53 0.438773 1.51369 0
M  V30 11625 C 1146.46 -0.407771 2.25543 0
M  V30 11626 C 1147.47 -0.985065 1.29616 0
M  V30 11627 O 1148.66 -0.878961 1.55359 0
M  V30 11628 C 1145.76 -1.58257 2.9968 0
M  V30 11629 C 1144.93 -1.12389 4.22714 0
M  V30 11630 C 1143.99 -2.16897 4.79418 0
M  V30 11631 O 1143.02 -1.76273 5.41218 0
M  V30 11632 N 1144.22 -3.49396 4.63576 0
M  V30 11633 H 1146.99 0.227963 2.98832 0
M  V30 11634 H 1144.55 0.267741 1.59671 0
M  V30 11635 H 1146.54 -2.27796 3.34501 0
M  V30 11636 H 1145.11 -2.12362 2.29393 0
M  V30 11637 H 1144.33 -0.255509 3.93371 0
M  V30 11638 H 1145.62 -0.794848 5.02553 0
M  V30 11639 H 1145.02 -3.85132 4.14355 0
M  V30 11640 H 1143.57 -4.14826 5.02755 0
M  V30 11641 N 1147.01 -1.56678 0.170181 0
M  V30 11642 C 1148.25 -1.96849 -0.475064 0
M  V30 11643 C 1148.58 -1.05611 -1.6333 0
M  V30 11644 O 1147.84 -0.0899708 -1.95493 0
M  V30 11645 C 1148.13 -3.43103 -1.00076 0
M  V30 11646 C 1147.8 -4.50881 0.0414538 0
M  V30 11647 C 1146.46 -4.80082 0.327894 0
M  V30 11648 C 1148.81 -5.15791 0.748936 0
M  V30 11649 C 1146.14 -5.71491 1.32722 0
M  V30 11650 C 1148.49 -6.08278 1.73724 0
M  V30 11651 C 1147.16 -6.35847 2.03114 0
M  V30 11652 H 1146.43 -0.72032 -0.173838 0
M  V30 11653 H 1149.08 -1.89701 0.261903 0
M  V30 11654 H 1147.38 -3.47197 -1.81553 0
M  V30 11655 H 1149.08 -3.71525 -1.50899 0
M  V30 11656 H 1145.67 -4.2817 -0.191976 0
M  V30 11657 H 1149.85 -4.93344 0.540852 0
M  V30 11658 H 1145.11 -5.91134 1.56112 0
M  V30 11659 H 1149.28 -6.57643 2.29082 0
M  V30 11660 H 1146.91 -7.06479 2.80698 0
M  V30 11661 N 1148.48 0.103547 -1.57259 0
M  V30 11662 C 1149.72 0.814289 -1.8748 0
M  V30 11663 C 1150.09 1.76312 -0.760126 0
M  V30 11664 O 1151.29 2.51659 -0.944514 0
M  V30 11665 C 1149.56 1.53119 -3.22938 0
M  V30 11666 S 1151.12 2.28138 -3.74831 0
M  V30 11667 H 1147.94 0.271464 -0.657136 0
M  V30 11668 H 1150.54 0.07183 -1.95368 0
M  V30 11669 H 1149.24 0.826397 -4.01994 0
M  V30 11670 H 1148.77 2.31372 -3.18167 0
M  V30 11671 H 1150.79 3.54132 -3.4757 0
M  V30 11672 N 1149.96 1.53094 0.37415 0
M  V30 11673 C 1151.19 1.73061 1.143 0
M  V30 11674 C 1151.61 0.454611 1.82524 0
M  V30 11675 O 1150.97 -0.590743 1.71406 0
M  V30 11676 C 1151.02 2.89086 2.15549 0
M  V30 11677 O 1150.12 2.57096 3.22452 0
M  V30 11678 H 1149.46 0.575009 0.332055 0
M  V30 11679 H 1151.99 1.99946 0.433897 0
M  V30 11680 H 1152 3.15007 2.59296 0
M  V30 11681 H 1150.68 3.81647 1.65283 0
M  V30 11682 H 1149.25 2.41965 2.83738 0
M  V30 11683 N 1151.44 -0.633461 1.44309 0
M  V30 11684 C 1152.72 -1.3917 1.37444 0
M  V30 11685 C 1153.1 -2.11076 0.0319994 0
M  V30 11686 O 1152.44 -2.06164 -0.98533 0
M  V30 11687 C 1152.65 -2.36005 2.57104 0
M  V30 11688 C 1154 -2.99407 3.01065 0
M  V30 11689 O 1155.03 -2.46331 2.57292 0
M  V30 11690 O 1153.89 -3.95686 3.76954 0
M  V30 11691 H 1150.98 -0.622746 0.544166 0
M  V30 11692 H 1153.53 -0.658712 1.56394 0
M  V30 11693 H 1152.3 -1.81955 3.46422 0
M  V30 11694 H 1151.92 -3.16725 2.40356 0
M  V30 11695 N 1152.92 -1.31168 -0.873655 0
M  V30 11696 C 1154.33 -1.18584 -1.44203 0
M  V30 11697 C 1154.68 0.209114 -1.95082 0
M  V30 11698 O 1153.81 1.10662 -1.85965 0
M  V30 11699 C 1154.4 -2.14668 -2.62112 0
M  V30 11700 C 1152.96 -2.06029 -3.15006 0
M  V30 11701 C 1152.11 -2.04106 -1.87712 0
M  V30 11702 H 1155.06 -1.43273 -0.682536 0
M  V30 11703 H 1155.08 -1.73413 -3.38686 0
M  V30 11704 H 1154.59 -3.16186 -2.25051 0
M  V30 11705 H 1152.69 -1.07693 -3.56697 0
M  V30 11706 H 1152.8 -2.9496 -3.77539 0
M  V30 11707 H 1151.17 -1.49069 -2.0652 0
M  V30 11708 H 1151.95 -3.07373 -1.52894 0
M  V30 11709 N 1154.4 1.08748 -1.14068 0
M  V30 11710 C 1155.34 2.17667 -0.819981 0
M  V30 11711 C 1156.34 1.68207 0.200654 0
M  V30 11712 O 1157.54 1.79909 0.0571014 0
M  V30 11713 H 1153.92 0.710129 -0.247427 0
M  V30 11714 H 1155.89 2.41944 -1.74659 0
M  V30 11715 C 1154.64 3.46315 -0.309985 0
M  V30 11716 H 1153.96 3.84748 -1.08669 0
M  V30 11717 H 1155.4 4.23818 -0.124094 0
M  V30 11718 C 1153.86 3.22762 0.965724 0
M  V30 11719 O 1154.39 3.46034 2.04018 0
M  V30 11720 N 1152.6 2.76326 0.899576 0
M  V30 11721 H 1152.14 2.57588 0.0250598 0
M  V30 11722 H 1152.1 2.60945 1.75371 0
M  V30 11723 N 1155.87 0.935264 1.26849 0
M  V30 11724 C 1156.82 0.438896 2.26588 0
M  V30 11725 C 1157.79 -0.498267 1.5845 0
M  V30 11726 O 1158.98 -0.415771 1.86215 0
M  V30 11727 C 1156.12 -0.295293 3.43834 0
M  V30 11728 C 1155.23 0.676857 4.26665 0
M  V30 11729 C 1154.36 -0.0779349 5.31143 0
M  V30 11730 C 1153.4 0.886425 6.05648 0
M  V30 11731 N 1152.54 0.163771 7.01909 0
M  V30 11732 H 1157.38 1.29439 2.6842 0
M  V30 11733 H 1154.92 0.649523 1.31983 0
M  V30 11734 H 1156.88 -0.737354 4.10632 0
M  V30 11735 H 1155.51 -1.11497 3.02933 0
M  V30 11736 H 1154.56 1.23744 3.5971 0
M  V30 11737 H 1155.87 1.41355 4.78351 0
M  V30 11738 H 1155.02 -0.579557 6.03926 0
M  V30 11739 H 1153.76 -0.84755 4.80279 0
M  V30 11740 H 1152.77 1.39923 5.31697 0
M  V30 11741 H 1153.99 1.65595 6.58601 0
M  V30 11742 H 1151.94 -0.58746 6.53364 0
M  V30 11743 H 1151.86 0.839902 7.5132 0
M  V30 11744 H 1153.12 -0.316951 7.78855 0
M  V30 11745 N 1157.35 -1.41121 0.701616 0
M  V30 11746 C 1158.58 -2.05154 0.244011 0
M  V30 11747 C 1158.99 -1.52922 -1.11407 0
M  V30 11748 O 1158.33 -0.67486 -1.70855 0
M  V30 11749 C 1158.4 -3.59262 0.130773 0
M  V30 11750 C 1158.06 -4.34318 1.42187 0
M  V30 11751 C 1159.06 -4.632 2.36097 0
M  V30 11752 C 1156.74 -4.73481 1.67693 0
M  V30 11753 C 1158.74 -5.30214 3.53768 0
M  V30 11754 C 1156.42 -5.4023 2.85648 0
M  V30 11755 C 1157.42 -5.68524 3.78509 0
M  V30 11756 O 1157.11 -6.33898 4.94397 0
M  V30 11757 H 1156.84 -0.666997 0.109957 0
M  V30 11758 H 1159.39 -1.81771 0.956473 0
M  V30 11759 H 1157.62 -3.81409 -0.637512 0
M  V30 11760 H 1159.31 -4.0486 -0.29044 0
M  V30 11761 H 1160.08 -4.3342 2.17652 0
M  V30 11762 H 1155.96 -4.50835 0.962733 0
M  V30 11763 H 1159.5 -5.52215 4.26267 0
M  V30 11764 H 1155.4 -5.69429 3.04008 0
M  V30 11765 H 1156.17 -6.52394 4.94292 0
M  V30 11766 N 1158.83 -0.446794 -1.51134 0
M  V30 11767 C 1160.08 0.116263 -2.01765 0
M  V30 11768 C 1160.4 1.42382 -1.33238 0
M  V30 11769 O 1159.67 1.9018 -0.469915 0
M  V30 11770 H 1158.25 0.0459558 -0.745585 0
M  V30 11771 H 1160.91 -0.591664 -1.85702 0
M  V30 11772 H 1160.01 0.285358 -3.10793 0
M  V30 11773 N 1160.31 1.56586 -0.178487 0
M  V30 11774 C 1161.72 1.83633 0.337009 0
M  V30 11775 C 1162.07 1.09857 1.6256 0
M  V30 11776 O 1161.2 0.353933 2.13486 0
M  V30 11777 C 1161.79 3.33112 0.618225 0
M  V30 11778 C 1160.35 3.60629 1.07814 0
M  V30 11779 C 1159.5 2.7705 0.117825 0
M  V30 11780 H 1162.45 1.53508 -0.402612 0
M  V30 11781 H 1162.47 3.5098 1.46947 0
M  V30 11782 H 1161.98 3.8678 -0.319808 0
M  V30 11783 H 1160.08 3.12378 2.03103 0
M  V30 11784 H 1160.19 4.68921 0.982339 0
M  V30 11785 H 1158.56 2.47125 0.616563 0
M  V30 11786 H 1159.34 3.33501 -0.814356 0
M  V30 11787 N 1161.79 -0.095206 1.57312 0
M  V30 11788 C 1163.2 -0.449411 1.53142 0
M  V30 11789 C 1163.4 -1.80523 0.895187 0
M  V30 11790 O 1162.46 -2.47746 0.487649 0
M  V30 11791 C 1163.77 -0.412002 2.97864 0
M  V30 11792 C 1165.32 -0.493866 3.09079 0
M  V30 11793 C 1165.79 -0.486606 4.55408 0
M  V30 11794 N 1167.29 -0.547363 4.59955 0
M  V30 11795 C 1168.02 -0.563582 5.70624 0
M  V30 11796 N 1167.52 -0.536015 6.90723 0
M  V30 11797 N 1169.31 -0.608385 5.58798 0
M  V30 11798 H 1161.46 0.792869 1.97047 0
M  V30 11799 H 1163.72 0.295106 0.900898 0
M  V30 11800 H 1163.43 0.517064 3.47878 0
M  V30 11801 H 1163.3 -1.23102 3.56547 0
M  V30 11802 H 1165.69 -1.41335 2.59053 0
M  V30 11803 H 1165.77 0.353286 2.53349 0
M  V30 11804 H 1165.42 0.428935 5.06086 0
M  V30 11805 H 1165.35 -1.35097 5.08976 0
M  V30 11806 H 1167.84 -0.573867 3.73517 0
M  V30 11807 H 1168.15 -0.551671 7.70828 0
M  V30 11808 H 1166.49 -0.503064 6.93177 0
M  V30 11809 H 1169.69 -0.627451 4.63876 0
M  V30 11810 H 1169.86 -0.617556 6.45051 0
M  V30 11811 N 1163.26 -1.53291 -0.366026 0
M  V30 11812 C 1164.5 -1.71153 -1.11741 0
M  V30 11813 C 1164.87 -0.453416 -1.86569 0
M  V30 11814 O 1166.07 -0.508724 -2.63942 0
M  V30 11815 C 1164.34 -2.92657 -2.0515 0
M  V30 11816 S 1165.9 -3.31223 -2.87814 0
M  V30 11817 H 1162.72 -0.602251 -0.377909 0
M  V30 11818 H 1165.32 -1.91391 -0.398721 0
M  V30 11819 H 1164.02 -3.8242 -1.48939 0
M  V30 11820 H 1163.55 -2.7482 -2.81492 0
M  V30 11821 H 1165.57 -2.83201 -4.07445 0
M  V30 11822 N 1164.74 0.6258 -1.44643 0
M  V30 11823 C 1165.69 1.75869 -1.52226 0
M  V30 11824 C 1166.68 1.64765 -0.39355 0
M  V30 11825 O 1167.89 1.70779 -0.568718 0
M  V30 11826 H 1164.27 0.580712 -0.477784 0
M  V30 11827 H 1166.24 1.66596 -2.47565 0
M  V30 11828 C 1164.99 3.14217 -1.48873 0
M  V30 11829 H 1164.31 3.23411 -2.35043 0
M  V30 11830 H 1165.75 3.93365 -1.58239 0
M  V30 11831 C 1164.21 3.36243 -0.210299 0
M  V30 11832 O 1164.74 3.95243 0.717335 0
M  V30 11833 N 1162.94 2.90385 -0.111744 0
M  V30 11834 H 1162.49 2.42555 -0.867466 0
M  V30 11835 H 1162.45 3.05498 0.742871 0
M  V30 11836 N 1166.22 1.31629 0.866686 0
M  V30 11837 C 1167.17 1.19556 1.97421 0
M  V30 11838 C 1168.14 0.0805578 1.65905 0
M  V30 11839 O 1169.32 0.253997 1.89102 0
M  V30 11840 C 1166.46 0.912234 3.32825 0
M  V30 11841 C 1165.58 2.11088 3.76916 0
M  V30 11842 C 1164.71 1.76406 5.01053 0
M  V30 11843 C 1163.75 2.9266 5.37602 0
M  V30 11844 N 1162.89 2.58152 6.52918 0
M  V30 11845 H 1167.73 2.14294 2.0708 0
M  V30 11846 H 1165.26 1.06595 1.0137 0
M  V30 11847 H 1167.22 0.72851 4.1079 0
M  V30 11848 H 1165.85 0.00167404 3.228 0
M  V30 11849 H 1164.9 2.40527 2.94705 0
M  V30 11850 H 1166.22 2.98089 3.99931 0
M  V30 11851 H 1165.37 1.54515 5.86694 0
M  V30 11852 H 1164.11 0.866018 4.79949 0
M  V30 11853 H 1163.11 3.15196 4.50479 0
M  V30 11854 H 1164.34 3.83179 5.6067 0
M  V30 11855 H 1162.28 1.70874 6.33355 0
M  V30 11856 H 1162.2 3.38682 6.75892 0
M  V30 11857 H 1163.47 2.39662 7.41743 0
M  V30 11858 N 1167.7 -1.08142 1.14644 0
M  V30 11859 C 1168.65 -2.15133 0.835845 0
M  V30 11860 C 1169.62 -1.64795 -0.207785 0
M  V30 11861 O 1170.8 -1.90644 -0.07711 0
M  V30 11862 C 1167.94 -3.4359 0.322456 0
M  V30 11863 C 1167.05 -4.07761 1.42671 0
M  V30 11864 C 1166.19 -5.24022 0.870281 0
M  V30 11865 C 1165.23 -5.8014 1.95202 0
M  V30 11866 N 1164.37 -6.87743 1.41257 0
M  V30 11867 H 1169.21 -2.41042 1.75222 0
M  V30 11868 H 1166.74 -1.18288 0.874428 0
M  V30 11869 H 1168.7 -4.17199 0.00657059 0
M  V30 11870 H 1167.33 -3.17958 -0.557014 0
M  V30 11871 H 1166.38 -3.31885 1.85893 0
M  V30 11872 H 1167.69 -4.45485 2.24375 0
M  V30 11873 H 1166.85 -6.04582 0.506459 0
M  V30 11874 H 1165.59 -4.87695 0.0223118 0
M  V30 11875 H 1164.59 -4.98232 2.32476 0
M  V30 11876 H 1165.82 -6.18525 2.80363 0
M  V30 11877 H 1163.76 -6.5337 0.586826 0
M  V30 11878 H 1163.68 -7.24308 2.16596 0
M  V30 11879 H 1164.95 -7.72028 1.07674 0
M  V30 11880 N 1169.18 -0.941978 -1.26351 0
M  V30 11881 C 1170.42 -0.597462 -1.95473 0
M  V30 11882 C 1170.78 0.847851 -1.72266 0
M  V30 11883 O 1171.98 1.30134 -2.35199 0
M  V30 11884 C 1170.25 -0.931342 -3.45052 0
M  V30 11885 S 1171.81 -0.697491 -4.33221 0
M  V30 11886 H 1168.63 -0.22003 -0.676097 0
M  V30 11887 H 1171.23 -1.21346 -1.53282 0
M  V30 11888 H 1169.94 -1.98063 -3.59443 0
M  V30 11889 H 1169.47 -0.305095 -3.92215 0
M  V30 11890 H 1171.48 0.437915 -4.94264 0
M  V30 11891 N 1170.66 1.40747 -0.709091 0
M  V30 11892 C 1171.59 2.33404 -0.0669763 0
M  V30 11893 C 1172.57 1.52546 0.752582 0
M  V30 11894 O 1173.75 1.81036 0.702823 0
M  V30 11895 C 1170.88 3.36476 0.860285 0
M  V30 11896 C 1169.84 4.27748 0.146828 0
M  V30 11897 C 1169.16 5.21304 1.18937 0
M  V30 11898 C 1170.46 5.12734 -0.995064 0
M  V30 11899 H 1172.16 2.87349 -0.840888 0
M  V30 11900 H 1169.7 1.38163 -0.405817 0
M  V30 11901 H 1171.65 4.00231 1.31883 0
M  V30 11902 H 1170.38 2.80912 1.66602 0
M  V30 11903 H 1169.04 3.65437 -0.291826 0
M  V30 11904 H 1168.69 4.62048 1.98798 0
M  V30 11905 H 1168.39 5.8321 0.716917 0
M  V30 11906 H 1169.91 5.87936 1.64815 0
M  V30 11907 H 1171.32 5.69979 -0.61618 0
M  V30 11908 H 1169.72 5.83649 -1.39547 0
M  V30 11909 H 1170.79 4.49097 -1.82867 0
M  V30 11910 N 1172.13 0.454803 1.50895 0
M  V30 11911 C 1173.37 -0.104722 2.04132 0
M  V30 11912 C 1173.74 -1.38434 1.33042 0
M  V30 11913 O 1174.94 -2.02521 1.76745 0
M  V30 11914 C 1173.21 -0.300775 3.56132 0
M  V30 11915 S 1174.77 -0.821197 4.31047 0
M  V30 11916 H 1171.59 -0.0236407 0.710607 0
M  V30 11917 H 1174.19 0.618213 1.85468 0
M  V30 11918 H 1172.89 0.636592 4.05433 0
M  V30 11919 H 1172.42 -1.05029 3.79121 0
M  V30 11920 H 1174.44 -2.09669 4.49726 0
M  V30 11921 N 1173.61 -1.56489 0.186789 0
M  V30 11922 C 1174.86 -1.97634 -0.454831 0
M  V30 11923 C 1175.19 -1.07334 -1.61843 0
M  V30 11924 O 1174.47 -0.123612 -1.94107 0
M  V30 11925 C 1174.75 -3.48071 -0.922962 0
M  V30 11926 C 1174.6 -4.49149 0.241877 0
M  V30 11927 C 1175.92 -4.01994 -1.79134 0
M  V30 11928 H 1173.04 -0.718555 -0.163854 0
M  V30 11929 H 1175.68 -1.87984 0.27604 0
M  V30 11930 H 1173.83 -3.56425 -1.54575 0
M  V30 11931 H 1175.5 -4.52841 0.87936 0
M  V30 11932 H 1173.75 -4.24468 0.894964 0
M  V30 11933 H 1174.42 -5.51851 -0.128051 0
M  V30 11934 H 1176.89 -3.96367 -1.26618 0
M  V30 11935 H 1175.77 -5.07641 -2.08787 0
M  V30 11936 H 1176.03 -3.46747 -2.74261 0
M  V30 11937 N 1175.09 0.086862 -1.5736 0
M  V30 11938 C 1176.04 1.11134 -1.99081 0
M  V30 11939 C 1177.02 1.35318 -0.870506 0
M  V30 11940 O 1178.22 1.35871 -1.13437 0
M  V30 11941 C 1175.34 2.42931 -2.42569 0
M  V30 11942 C 1174.43 2.22085 -3.61302 0
M  V30 11943 N 1174.82 1.71128 -4.75971 0
M  V30 11944 C 1173.12 2.52619 -3.67559 0
M  V30 11945 C 1173.82 1.64745 -5.57883 0
M  V30 11946 N 1172.8 2.10257 -5.01291 0
M  V30 11947 H 1176.6 0.710431 -2.85184 0
M  V30 11948 H 1174.11 0.294168 -1.59714 0
M  V30 11949 H 1176.11 3.17069 -2.7069 0
M  V30 11950 H 1174.77 2.83751 -1.57846 0
M  V30 11951 H 1175.78 1.40207 -4.9856 0
M  V30 11952 H 1172.46 2.96908 -2.93516 0
M  V30 11953 H 1173.85 1.26329 -6.59917 0
M  V30 11954 N 1176.57 1.53483 0.357892 0
M  V30 11955 C 1177.82 1.69701 1.09754 0
M  V30 11956 C 1178.14 0.455389 1.89608 0
M  V30 11957 O 1177.41 -0.530623 1.88577 0
M  V30 11958 H 1175.99 0.62562 0.408178 0
M  V30 11959 H 1178.65 1.90696 0.402641 0
M  V30 11960 H 1177.74 2.56154 1.78302 0
M  V30 11961 N 1178.05 -0.61812 1.44973 0
M  V30 11962 C 1179.27 -1.40429 1.51945 0
M  V30 11963 C 1179.69 -1.88215 0.148556 0
M  V30 11964 O 1179.05 -1.61603 -0.847978 0
M  V30 11965 C 1179.1 -2.61588 2.49507 0
M  V30 11966 O 1178.82 -2.15791 3.81269 0
M  V30 11967 C 1180.32 -3.5457 2.66074 0
M  V30 11968 H 1177.54 -0.43023 0.514921 0
M  V30 11969 H 1180.08 -0.754791 1.90061 0
M  V30 11970 H 1178.24 -3.22602 2.14492 0
M  V30 11971 H 1178.65 -2.94434 4.34061 0
M  V30 11972 H 1180.13 -4.36155 3.38338 0
M  V30 11973 H 1180.6 -4.04227 1.71746 0
M  V30 11974 H 1181.21 -2.99416 3.02043 0
M  V30 11975 N 1179.52 -1.32087 -0.859693 0
M  V30 11976 C 1180.76 -1.23671 -1.62742 0
M  V30 11977 C 1181.13 0.19966 -1.90959 0
M  V30 11978 O 1182.33 0.407478 -2.65694 0
M  V30 11979 C 1180.6 -2.06736 -2.91539 0
M  V30 11980 S 1182.16 -2.15292 -3.82354 0
M  V30 11981 H 1178.98 -0.440306 -0.558258 0
M  V30 11982 H 1181.58 -1.66875 -1.01848 0
M  V30 11983 H 1180.28 -3.10166 -2.68747 0
M  V30 11984 H 1179.81 -1.64291 -3.57452 0
M  V30 11985 H 1181.83 -1.29874 -4.78902 0
M  V30 11986 N 1181 1.07532 -1.15215 0
M  V30 11987 C 1181.95 2.16785 -0.843022 0
M  V30 11988 C 1182.94 1.68411 0.182802 0
M  V30 11989 O 1184.15 1.7996 0.0380164 0
M  V30 11990 H 1180.52 0.707465 -0.254945 0
M  V30 11991 H 1182.5 2.40078 -1.77215 0
M  V30 11992 C 1181.24 3.45967 -0.346699 0
M  V30 11993 H 1180.57 3.83574 -1.12744 0
M  V30 11994 H 1182.01 4.23663 -0.169039 0
M  V30 11995 C 1180.47 3.23768 0.931437 0
M  V30 11996 O 1181 3.48179 2.00336 0
M  V30 11997 N 1179.2 2.77264 0.870217 0
M  V30 11998 H 1178.75 2.576 -0.00226223 0
M  V30 11999 H 1178.71 2.6279 1.72594 0
M  V30 12000 N 1182.48 0.948665 1.2585 0
M  V30 12001 C 1183.43 0.455115 2.28104 0
M  V30 12002 C 1184.42 -0.471508 1.62706 0
M  V30 12003 O 1185.63 -0.348895 1.76586 0
M  V30 12004 H 1182 0.128659 0.740912 0
M  V30 12005 H 1183.97 1.32991 2.67125 0
M  V30 12006 C 1182.72 -0.25729 3.46747 0
M  V30 12007 H 1182.05 0.44658 3.97298 0
M  V30 12008 H 1183.49 -0.566736 4.20195 0
M  V30 12009 C 1181.95 -1.47772 3.02762 0
M  V30 12010 O 1182.48 -2.57571 3.08253 0
M  V30 12011 N 1180.68 -1.33694 2.5802 0
M  V30 12012 H 1180.23 -0.443595 2.53752 0
M  V30 12013 H 1180.19 -2.1547 2.28954 0
M  V30 12014 N 1183.96 -1.40369 0.716545 0
M  V30 12015 C 1185.37 -1.54757 0.390202 0
M  V30 12016 C 1185.57 -1.68767 -1.10091 0
M  V30 12017 O 1184.63 -1.67779 -1.88697 0
M  V30 12018 C 1185.94 -2.77546 1.15709 0
M  V30 12019 C 1187.49 -2.91364 1.14349 0
M  V30 12020 C 1187.97 -4.17068 1.89256 0
M  V30 12021 N 1189.46 -4.2407 1.8633 0
M  V30 12022 C 1190.19 -5.20243 2.41112 0
M  V30 12023 N 1189.69 -6.22318 3.04454 0
M  V30 12024 N 1191.48 -5.12328 2.31249 0
M  V30 12025 H 1183.63 -1.29521 1.68339 0
M  V30 12026 H 1185.9 -0.626382 0.711582 0
M  V30 12027 H 1185.6 -2.73474 2.21144 0
M  V30 12028 H 1185.48 -3.69682 0.749347 0
M  V30 12029 H 1187.86 -2.94939 0.0973383 0
M  V30 12030 H 1187.94 -2.00344 1.59047 0
M  V30 12031 H 1187.59 -4.14255 2.93863 0
M  V30 12032 H 1187.52 -5.07099 1.41978 0
M  V30 12033 H 1190.01 -3.50944 1.40168 0
M  V30 12034 H 1190.32 -6.92129 3.43769 0
M  V30 12035 H 1188.67 -6.22759 3.08538 0
M  V30 12036 H 1191.86 -4.31514 1.8142 0
M  V30 12037 H 1192.03 -5.87107 2.74243 0
M  V30 12038 N 1185.44 -0.462799 -1.50652 0
M  V30 12039 C 1186.69 0.0966838 -2.01468 0
M  V30 12040 C 1187 1.41529 -1.35014 0
M  V30 12041 O 1188.2 2.05923 -1.76941 0
M  V30 12042 C 1186.66 0.222826 -3.5921 0
M  V30 12043 C 1186.27 -1.08686 -4.34616 0
M  V30 12044 C 1188.01 0.734711 -4.18094 0
M  V30 12045 C 1185.92 -0.924964 -5.84122 0
M  V30 12046 H 1184.85 0.0399078 -0.752943 0
M  V30 12047 H 1187.5 -0.596437 -1.73536 0
M  V30 12048 H 1185.88 0.979539 -3.83694 0
M  V30 12049 H 1187.06 -1.85388 -4.21862 0
M  V30 12050 H 1185.37 -1.52922 -3.87303 0
M  V30 12051 H 1187.97 0.872734 -5.2753 0
M  V30 12052 H 1188.31 1.72389 -3.7893 0
M  V30 12053 H 1188.84 0.0356139 -3.97784 0
M  V30 12054 H 1185.58 -1.88727 -6.27744 0
M  V30 12055 H 1185.1 -0.198181 -5.99473 0
M  V30 12056 H 1186.78 -0.588262 -6.4432 0
M  V30 12057 N 1186.91 1.56388 -0.195085 0
M  V30 12058 C 1188.19 1.89329 0.491303 0
M  V30 12059 C 1188.57 1.10861 1.79647 0
M  V30 12060 O 1187.92 0.209696 2.27536 0
M  V30 12061 C 1188.13 3.417 0.710096 0
M  V30 12062 C 1189.48 4.11931 1.02947 0
M  V30 12063 O 1190.5 3.4715 0.797817 0
M  V30 12064 O 1189.36 5.26423 1.46767 0
M  V30 12065 H 1186.45 0.786335 0.256137 0
M  V30 12066 H 1189 1.68061 -0.235298 0
M  V30 12067 H 1187.77 3.90727 -0.211604 0
M  V30 12068 H 1187.4 3.6866 1.48916 0
M  V30 12069 N 1188.39 -0.0785156 1.57404 0
M  V30 12070 C 1189.62 -0.795871 1.91522 0
M  V30 12071 C 1190.04 -1.70665 0.790892 0
M  V30 12072 O 1189.4 -1.79474 -0.25666 0
M  V30 12073 C 1189.45 -1.57121 3.24569 0
M  V30 12074 O 1188.55 -2.6814 3.13328 0
M  V30 12075 H 1187.89 -0.217575 0.627341 0
M  V30 12076 H 1190.42 -0.0487724 2.04542 0
M  V30 12077 H 1190.43 -1.9519 3.5828 0
M  V30 12078 H 1189.11 -0.902909 4.05981 0
M  V30 12079 H 1187.69 -2.32978 2.91163 0
M  V30 12080 N 1189.87 -1.5367 -0.349747 0
M  V30 12081 C 1191.15 -1.61238 -1.10732 0
M  V30 12082 C 1191.53 -0.429756 -2.06679 0
M  V30 12083 O 1190.88 0.578564 -2.21054 0
M  V30 12084 C 1191.09 -2.97022 -1.83245 0
M  V30 12085 C 1192.43 -3.52158 -2.37212 0
M  V30 12086 O 1193.46 -2.99156 -1.9335 0
M  V30 12087 O 1192.32 -4.44853 -3.1744 0
M  V30 12088 H 1189.41 -0.65191 -0.508864 0
M  V30 12089 H 1191.96 -1.66015 -0.351738 0
M  V30 12090 H 1190.73 -3.74535 -1.13311 0
M  V30 12091 H 1190.35 -2.95808 -2.65675 0
M  V30 12092 N 1191.35 0.610423 -1.45298 0
M  V30 12093 C 1192.6 1.3668 -1.48872 0
M  V30 12094 C 1192.92 1.94562 -0.130686 0
M  V30 12095 O 1192.19 1.76996 0.839607 0
M  V30 12096 H 1190.77 0.507393 -0.548235 0
M  V30 12097 H 1193.43 0.716997 -1.81232 0
M  V30 12098 H 1192.53 2.18766 -2.22593 0
M  V30 12099 N 1192.83 1.32541 0.852676 0
M  V30 12100 C 1193.79 1.21578 1.94297 0
M  V30 12101 C 1194.79 0.138318 1.60204 0
M  V30 12102 O 1195.98 0.388864 1.69804 0
M  V30 12103 C 1193.11 0.870209 3.29606 0
M  V30 12104 H 1194.3 2.18476 2.05446 0
M  V30 12105 H 1191.86 1.16401 1.0431 0
M  V30 12106 H 1192.59 -0.0968698 3.24155 0
M  V30 12107 H 1192.38 1.64924 3.55728 0
M  V30 12108 H 1193.87 0.817874 4.09513 0
M  V30 12109 N 1194.3 -1.0692 1.15784 0
M  V30 12110 C 1195.54 -1.8119 0.946018 0
M  V30 12111 C 1195.91 -1.84899 -0.517338 0
M  V30 12112 O 1197.11 -2.55085 -0.847643 0
M  V30 12113 C 1195.38 -3.22102 1.54871 0
M  V30 12114 S 1196.94 -4.13065 1.48063 0
M  V30 12115 H 1193.76 -0.62424 0.340361 0
M  V30 12116 H 1196.36 -1.28411 1.47414 0
M  V30 12117 H 1195.06 -3.16994 2.60659 0
M  V30 12118 H 1194.59 -3.79956 1.01965 0
M  V30 12119 H 1196.61 -4.93907 0.476517 0
M  V30 12120 N 1195.78 -0.955326 -1.25345 0
M  V30 12121 C 1196.71 -0.494145 -2.28211 0
M  V30 12122 C 1197.69 0.459875 -1.63766 0
M  V30 12123 O 1198.88 0.358679 -1.90859 0
M  V30 12124 C 1196.01 0.228228 -3.46549 0
M  V30 12125 C 1194.96 -0.640601 -4.23179 0
M  V30 12126 C 1194.29 0.212553 -5.34277 0
M  V30 12127 C 1195.59 -1.91906 -4.85767 0
M  V30 12128 H 1197.28 -1.35391 -2.67039 0
M  V30 12129 H 1194.83 -0.652462 -1.2837 0
M  V30 12130 H 1196.78 0.561995 -4.17636 0
M  V30 12131 H 1195.51 1.12224 -3.06714 0
M  V30 12132 H 1194.16 -0.957462 -3.53876 0
M  V30 12133 H 1193.81 1.10634 -4.90682 0
M  V30 12134 H 1193.51 -0.365473 -5.86462 0
M  V30 12135 H 1195.04 0.541271 -6.08196 0
M  V30 12136 H 1196.45 -1.65165 -5.48993 0
M  V30 12137 H 1194.85 -2.44279 -5.48131 0
M  V30 12138 H 1195.92 -2.62173 -4.07914 0
M  V30 12139 N 1197.26 1.39987 -0.723979 0
M  V30 12140 C 1198.49 2.05037 -0.27702 0
M  V30 12141 C 1198.9 1.54565 1.08421 0
M  V30 12142 O 1198.26 0.705795 1.683 0
M  V30 12143 C 1198.31 3.60582 -0.25751 0
M  V30 12144 O 1198.03 4.09194 -1.565 0
M  V30 12145 C 1199.53 4.42817 0.206972 0
M  V30 12146 H 1196.75 0.659637 -0.122963 0
M  V30 12147 H 1199.3 1.7924 -0.98454 0
M  V30 12148 H 1197.45 3.85319 0.401037 0
M  V30 12149 H 1197.87 5.03447 -1.47112 0
M  V30 12150 H 1199.34 5.5174 0.16947 0
M  V30 12151 H 1199.82 4.21023 1.25045 0
M  V30 12152 H 1200.42 4.23205 -0.421604 0
M  V30 12153 N 1198.74 0.470782 1.50404 0
M  V30 12154 C 1199.99 -0.0841494 2.01925 0
M  V30 12155 C 1200.31 -1.40244 1.35487 0
M  V30 12156 O 1199.58 -1.89409 0.500111 0
M  V30 12157 H 1198.16 -0.0340884 0.746222 0
M  V30 12158 H 1200.82 0.621133 1.84738 0
M  V30 12159 H 1199.92 -0.235877 3.11207 0
M  V30 12160 N 1200.22 -1.56282 0.203376 0
M  V30 12161 C 1201.45 -2.02198 -0.438572 0
M  V30 12162 C 1201.86 -1.08343 -1.54619 0
M  V30 12163 O 1201.22 -0.0897594 -1.82279 0
M  V30 12164 C 1201.27 -3.4776 -0.987184 0
M  V30 12165 O 1200.99 -4.38034 0.0762552 0
M  V30 12166 C 1202.49 -4.09234 -1.70419 0
M  V30 12167 H 1199.71 -0.662041 -0.109282 0
M  V30 12168 H 1202.25 -2.02067 0.314509 0
M  V30 12169 H 1200.41 -3.48564 -1.69061 0
M  V30 12170 H 1200.82 -5.2344 -0.333322 0
M  V30 12171 H 1202.3 -5.1291 -2.04027 0
M  V30 12172 H 1202.77 -3.53172 -2.61087 0
M  V30 12173 H 1203.38 -4.12226 -1.04641 0
M  V30 12174 N 1201.7 0.070167 -1.57444 0
M  V30 12175 C 1202.94 0.774338 -1.89165 0
M  V30 12176 C 1203.3 1.7466 -0.797353 0
M  V30 12177 O 1204.5 2.49599 -0.997682 0
M  V30 12178 C 1202.77 1.46235 -3.26114 0
M  V30 12179 S 1204.33 2.20136 -3.79586 0
M  V30 12180 H 1201.15 0.257464 -0.662747 0
M  V30 12181 H 1203.75 0.0303734 -1.95476 0
M  V30 12182 H 1202.45 0.740942 -4.03656 0
M  V30 12183 H 1201.99 2.24571 -3.23004 0
M  V30 12184 H 1204 3.4668 -3.55003 0
M  V30 12185 N 1203.17 1.53854 0.341593 0
M  V30 12186 C 1204.59 1.44161 0.684821 0
M  V30 12187 C 1204.79 0.599929 1.92362 0
M  V30 12188 O 1203.85 0.0916771 2.52334 0
M  V30 12189 C 1205.16 2.87668 0.875637 0
M  V30 12190 C 1206.71 2.97455 0.974131 0
M  V30 12191 C 1207.18 4.42075 1.19725 0
M  V30 12192 N 1208.67 4.45609 1.2644 0
M  V30 12193 C 1209.41 5.54643 1.45459 0
M  V30 12194 N 1208.9 6.7368 1.61637 0
M  V30 12195 N 1210.7 5.4226 1.48022 0
M  V30 12196 H 1202.85 2.07069 -0.472883 0
M  V30 12197 H 1205.11 0.936114 -0.149648 0
M  V30 12198 H 1204.82 3.51681 0.0368595 0
M  V30 12199 H 1204.69 3.32731 1.7768 0
M  V30 12200 H 1207.08 2.33582 1.80343 0
M  V30 12201 H 1207.16 2.55751 0.0498282 0
M  V30 12202 H 1206.8 5.06529 0.372872 0
M  V30 12203 H 1206.73 4.81372 2.13515 0
M  V30 12204 H 1209.22 3.59831 1.15455 0
M  V30 12205 H 1209.54 7.52541 1.7579 0
M  V30 12206 H 1207.88 6.76622 1.5877 0
M  V30 12207 H 1211.07 4.48221 1.34966 0
M  V30 12208 H 1211.25 6.27293 1.62502 0
M  V30 12209 N 1204.65 -0.602709 1.4562 0
M  V30 12210 C 1205.93 -1.36224 1.40366 0
M  V30 12211 C 1206.31 -2.1096 0.0767645 0
M  V30 12212 O 1205.66 -2.08207 -0.941378 0
M  V30 12213 C 1205.87 -2.30499 2.62052 0
M  V30 12214 C 1207.21 -2.92954 3.07348 0
M  V30 12215 O 1208.24 -2.40818 2.62459 0
M  V30 12216 O 1207.1 -3.87601 3.85263 0
M  V30 12217 H 1204.19 -0.611064 0.557253 0
M  V30 12218 H 1206.74 -0.625391 1.57756 0
M  V30 12219 H 1205.51 -1.74566 3.50203 0
M  V30 12220 H 1205.13 -3.11556 2.4702 0
M  V30 12221 N 1206.13 -1.32992 -0.845635 0
M  V30 12222 C 1207.38 -1.2382 -1.59728 0
M  V30 12223 C 1207.7 0.197724 -1.93995 0
M  V30 12224 O 1206.97 1.12477 -1.60392 0
M  V30 12225 H 1205.55 -0.455296 -0.592212 0
M  V30 12226 H 1208.21 -1.66627 -1.01101 0
M  V30 12227 H 1207.31 -1.82717 -2.53023 0
M  V30 12228 N 1207.61 1.06304 -1.1635 0
M  V30 12229 C 1208.83 1.83338 -0.969639 0
M  V30 12230 C 1209.26 1.81945 0.477231 0
M  V30 12231 O 1208.62 1.22018 1.34094 0
M  V30 12232 C 1208.66 3.2785 -1.50155 0
M  V30 12233 O 1207.77 4.06281 -0.707805 0
M  V30 12234 H 1207.11 0.567293 -0.345072 0
M  V30 12235 H 1209.64 1.34033 -1.54584 0
M  V30 12236 H 1209.65 3.7867 -1.51898 0
M  V30 12237 H 1208.32 3.28179 -2.55483 0
M  V30 12238 H 1206.9 3.65055 -0.760872 0
M  V30 12239 N 1209.09 0.96196 1.24836 0
M  V30 12240 C 1210.05 0.492443 2.23847 0
M  V30 12241 C 1211.05 -0.40788 1.55541 0
M  V30 12242 O 1212.24 -0.204143 1.73 0
M  V30 12243 C 1209.37 -0.287578 3.39685 0
M  V30 12244 H 1210.56 1.36767 2.66899 0
M  V30 12245 H 1208.12 0.745967 1.3735 0
M  V30 12246 H 1208.85 -1.18015 3.02064 0
M  V30 12247 H 1208.64 0.358431 3.90458 0
M  V30 12248 H 1210.13 -0.605297 4.1319 0
M  V30 12249 N 1210.56 -1.39601 0.731392 0
M  V30 12250 C 1211.81 -2.0019 0.277208 0
M  V30 12251 C 1212.13 -1.5832 -1.13841 0
M  V30 12252 O 1211.4 -0.829793 -1.77458 0
M  V30 12253 H 1209.98 -0.740344 0.0995006 0
M  V30 12254 H 1212.64 -1.70704 0.940547 0
M  V30 12255 H 1211.74 -3.10427 0.322749 0
M  V30 12256 N 1212.04 -0.478751 -1.50152 0
M  V30 12257 C 1213.46 -0.133356 -1.59042 0
M  V30 12258 C 1213.66 1.36069 -1.48618 0
M  V30 12259 O 1212.71 2.13468 -1.34862 0
M  V30 12260 C 1214.03 -0.690369 -2.92668 0
M  V30 12261 C 1215.58 -0.654481 -3.06081 0
M  V30 12262 C 1216.05 -1.18917 -4.42293 0
M  V30 12263 N 1217.54 -1.14891 -4.48725 0
M  V30 12264 C 1218.28 -1.53305 -5.52526 0
M  V30 12265 N 1217.77 -1.99205 -6.63543 0
M  V30 12266 N 1219.57 -1.4486 -5.43113 0
M  V30 12267 H 1211.72 -1.45037 -1.55171 0
M  V30 12268 H 1213.98 -0.600254 -0.733757 0
M  V30 12269 H 1213.69 -1.7373 -3.05795 0
M  V30 12270 H 1213.56 -0.138227 -3.76947 0
M  V30 12271 H 1215.95 0.383564 -2.92597 0
M  V30 12272 H 1216.03 -1.24352 -2.2354 0
M  V30 12273 H 1215.67 -2.22588 -4.56527 0
M  V30 12274 H 1215.6 -0.57628 -5.23437 0
M  V30 12275 H 1218.09 -0.812344 -3.69066 0
M  V30 12276 H 1218.41 -2.26645 -7.38818 0
M  V30 12277 H 1216.75 -2.03164 -6.64642 0
M  V30 12278 H 1219.94 -1.08836 -4.55272 0
M  V30 12279 H 1220.11 -1.75123 -6.23888 0
M  V30 12280 N 1213.52 1.56172 -0.211661 0
M  V30 12281 C 1214.45 2.22843 0.697375 0
M  V30 12282 C 1215.43 1.19689 1.20866 0
M  V30 12283 O 1216.62 1.48245 1.25447 0
M  V30 12284 C 1213.75 2.90067 1.90993 0
M  V30 12285 C 1212.7 3.99608 1.5329 0
M  V30 12286 C 1212.03 4.54078 2.82343 0
M  V30 12287 C 1213.33 5.17169 0.730333 0
M  V30 12288 H 1215.02 2.99065 0.141533 0
M  V30 12289 H 1212.57 1.43846 0.0666337 0
M  V30 12290 H 1214.52 3.35396 2.55123 0
M  V30 12291 H 1213.24 2.11276 2.49058 0
M  V30 12292 H 1211.9 3.54995 0.915115 0
M  V30 12293 H 1211.55 3.72029 3.38531 0
M  V30 12294 H 1211.25 5.28001 2.57853 0
M  V30 12295 H 1212.77 5.02119 3.47432 0
M  V30 12296 H 1214.19 5.5894 1.2751 0
M  V30 12297 H 1212.59 5.97262 0.582916 0
M  V30 12298 H 1213.66 4.84174 -0.265157 0
M  V30 12299 N 1215 -0.0618163 1.57479 0
M  V30 12300 C 1216.24 -0.764296 1.89573 0
M  V30 12301 C 1216.6 -1.74235 0.806605 0
M  V30 12302 O 1217.8 -2.49067 1.0109 0
M  V30 12303 C 1216.07 -1.44503 3.26885 0
M  V30 12304 S 1217.63 -2.1812 3.80748 0
M  V30 12305 H 1214.45 -0.253946 0.664103 0
M  V30 12306 H 1217.05 -0.0200064 1.9549 0
M  V30 12307 H 1215.76 -0.719525 4.04043 0
M  V30 12308 H 1215.29 -2.22855 3.2419 0
M  V30 12309 H 1217.3 -3.44793 3.56837 0
M  V30 12310 N 1216.48 -1.54033 -0.333429 0
M  V30 12311 C 1217.75 -1.62404 -1.09015 0
M  V30 12312 C 1218.13 -0.451653 -2.06212 0
M  V30 12313 O 1217.48 0.555086 -2.21655 0
M  V30 12314 C 1217.69 -2.98949 -1.80085 0
M  V30 12315 C 1219.04 -3.54655 -2.33464 0
M  V30 12316 O 1220.06 -3.0119 -1.90166 0
M  V30 12317 O 1218.92 -4.48195 -3.12703 0
M  V30 12318 H 1216.02 -0.65727 -0.501921 0
M  V30 12319 H 1218.56 -1.66378 -0.33411 0
M  V30 12320 H 1217.33 -3.75716 -1.09332 0
M  V30 12321 H 1216.96 -2.98609 -2.62523 0
M  V30 12322 N 1217.95 0.594978 -1.45938 0
M  V30 12323 C 1218.9 1.70489 -1.5557 0
M  V30 12324 C 1219.87 1.61193 -0.400751 0
M  V30 12325 O 1221.06 1.80587 -0.615882 0
M  V30 12326 C 1218.2 3.08817 -1.54033 0
M  V30 12327 C 1217.31 3.28827 -2.80173 0
M  V30 12328 C 1216.44 4.57333 -2.70222 0
M  V30 12329 C 1215.48 4.70644 -3.91357 0
M  V30 12330 N 1214.62 5.90463 -3.79865 0
M  V30 12331 H 1219.46 1.61593 -2.50383 0
M  V30 12332 H 1217 0.787747 -1.24229 0
M  V30 12333 H 1218.96 3.88865 -1.51129 0
M  V30 12334 H 1217.59 3.1664 -0.627617 0
M  V30 12335 H 1216.64 2.42467 -2.9311 0
M  V30 12336 H 1217.95 3.34534 -3.69985 0
M  V30 12337 H 1217.1 5.45593 -2.65354 0
M  V30 12338 H 1215.84 4.54045 -1.7803 0
M  V30 12339 H 1214.85 3.80805 -3.9657 0
M  V30 12340 H 1216.07 4.75721 -4.8463 0
M  V30 12341 H 1214.02 5.88196 -2.90451 0
M  V30 12342 H 1213.94 5.97385 -4.63322 0
M  V30 12343 H 1215.2 6.81187 -3.78952 0
M  V30 12344 N 1219.43 1.33438 0.838571 0
M  V30 12345 C 1220.36 1.19552 1.9555 0
M  V30 12346 C 1221.38 0.12642 1.62308 0
M  V30 12347 O 1222.57 0.376868 1.74476 0
M  V30 12348 C 1219.67 0.811273 3.29046 0
M  V30 12349 C 1218.84 1.97207 3.9042 0
M  V30 12350 C 1217.9 1.56875 5.02271 0
M  V30 12351 O 1216.92 2.28314 5.21403 0
M  V30 12352 N 1218.13 0.473924 5.78562 0
M  V30 12353 H 1220.89 2.15769 2.07999 0
M  V30 12354 H 1218.45 1.26187 1.01432 0
M  V30 12355 H 1220.44 0.523553 4.01299 0
M  V30 12356 H 1219.01 -0.0602291 3.12542 0
M  V30 12357 H 1218.23 2.4254 3.10754 0
M  V30 12358 H 1219.52 2.74878 4.28158 0
M  V30 12359 H 1218.92 -0.120306 5.65572 0
M  V30 12360 H 1217.48 0.245877 6.51336 0
M  V30 12361 N 1220.91 -1.05686 1.16912 0
M  V30 12362 C 1222.14 -1.82282 0.978811 0
M  V30 12363 C 1222.55 -1.8278 -0.472972 0
M  V30 12364 O 1221.91 -1.25143 -1.32836 0
M  V30 12365 C 1221.96 -3.28623 1.50629 0
M  V30 12366 O 1221.68 -3.28269 2.90122 0
M  V30 12367 C 1223.18 -4.21927 1.35987 0
M  V30 12368 H 1220.4 -0.574558 0.346588 0
M  V30 12369 H 1222.95 -1.33301 1.55084 0
M  V30 12370 H 1221.1 -3.74893 0.976404 0
M  V30 12371 H 1221.52 -4.19824 3.14401 0
M  V30 12372 H 1222.99 -5.2261 1.77716 0
M  V30 12373 H 1223.47 -4.38131 0.30626 0
M  V30 12374 H 1224.07 -3.81508 1.87968 0
M  V30 12375 N 1222.39 -0.968567 -1.24324 0
M  V30 12376 C 1223.61 -0.648166 -1.97012 0
M  V30 12377 C 1224.04 0.775842 -1.71354 0
M  V30 12378 O 1223.4 1.52672 -0.977804 0
M  V30 12379 C 1223.44 -0.929974 -3.48402 0
M  V30 12380 O 1222.55 -0.015854 -4.12397 0
M  V30 12381 H 1221.89 -0.244961 -0.617163 0
M  V30 12382 H 1224.42 -1.29895 -1.58077 0
M  V30 12383 H 1224.43 -0.861863 -3.98793 0
M  V30 12384 H 1223.1 -1.96776 -3.66404 0
M  V30 12385 H 1221.68 -0.137361 -3.72647 0
M  V30 12386 N 1223.87 1.39211 -0.738786 0
M  V30 12387 C 1224.83 2.28937 -0.109746 0
M  V30 12388 C 1225.83 1.46488 0.663157 0
M  V30 12389 O 1227.02 1.67119 0.491614 0
M  V30 12390 C 1224.15 3.30039 0.853633 0
M  V30 12391 H 1225.34 2.86068 -0.900295 0
M  V30 12392 H 1222.9 1.47922 -0.504853 0
M  V30 12393 H 1223.63 2.77971 1.6704 0
M  V30 12394 H 1223.42 3.90935 0.302007 0
M  V30 12395 H 1224.91 3.97169 1.29022 0
M  V30 12396 N 1225.34 0.486708 1.49896 0
M  V30 12397 C 1226.58 -0.0613987 2.04308 0
M  V30 12398 C 1226.95 -1.3558 1.35948 0
M  V30 12399 O 1228.15 -1.98726 1.81001 0
M  V30 12400 C 1226.42 -0.225167 3.5669 0
M  V30 12401 S 1227.98 -0.729581 4.32692 0
M  V30 12402 H 1224.8 -0.00856238 0.710948 0
M  V30 12403 H 1227.4 0.657414 1.84115 0
M  V30 12404 H 1226.1 0.722447 4.03991 0
M  V30 12405 H 1225.63 -0.969639 3.81263 0
M  V30 12406 H 1227.65 -2.00082 4.54072 0
M  V30 12407 N 1226.82 -1.56058 0.219941 0
M  V30 12408 C 1228.07 -1.97869 -0.411383 0
M  V30 12409 C 1228.39 -1.10878 -1.60409 0
M  V30 12410 O 1227.66 -0.185454 -1.9502 0
M  V30 12411 H 1226.24 -0.730747 -0.154979 0
M  V30 12412 H 1228.9 -1.92379 0.312461 0
M  V30 12413 H 1228 -3.0323 -0.738798 0
M  V30 12414 N 1228.3 0.053464 -1.57509 0
M  V30 12415 C 1229.71 0.603099 -1.76691 0
M  V30 12416 C 1230.06 1.76934 -0.847861 0
M  V30 12417 O 1229.19 2.16369 -0.0364962 0
M  V30 12418 C 1229.78 1.10084 -3.20417 0
M  V30 12419 C 1228.34 1.59618 -3.4088 0
M  V30 12420 C 1227.49 0.523516 -2.72313 0
M  V30 12421 H 1230.44 -0.172751 -1.57757 0
M  V30 12422 H 1230.46 1.9691 -3.25587 0
M  V30 12423 H 1229.97 0.251818 -3.87282 0
M  V30 12424 H 1228.07 2.46786 -2.79155 0
M  V30 12425 H 1228.19 1.6605 -4.49404 0
M  V30 12426 H 1226.55 0.972886 -2.35387 0
M  V30 12427 H 1227.33 -0.315629 -3.41846 0
M  V30 12428 N 1229.78 1.54207 0.325255 0
M  V30 12429 C 1231.01 1.76037 1.08141 0
M  V30 12430 C 1231.42 0.50816 1.82248 0
M  V30 12431 O 1230.76 -0.530709 1.75867 0
M  V30 12432 C 1230.82 2.89876 2.12632 0
M  V30 12433 C 1230.49 4.28841 1.57937 0
M  V30 12434 C 1231.48 5.09755 1.02205 0
M  V30 12435 C 1229.17 4.7538 1.62232 0
M  V30 12436 C 1231.16 6.35317 0.514929 0
M  V30 12437 C 1228.85 6.0091 1.11132 0
M  V30 12438 C 1229.85 6.80712 0.558575 0
M  V30 12439 O 1229.54 8.03881 0.05526 0
M  V30 12440 H 1229.27 0.591332 0.327571 0
M  V30 12441 H 1231.82 2.019 0.377572 0
M  V30 12442 H 1230.05 2.59581 2.86627 0
M  V30 12443 H 1231.74 2.99505 2.73955 0
M  V30 12444 H 1232.51 4.74955 0.981954 0
M  V30 12445 H 1228.39 4.1331 2.04195 0
M  V30 12446 H 1231.93 6.97551 0.0828314 0
M  V30 12447 H 1227.83 6.35201 1.14848 0
M  V30 12448 H 1228.59 8.18322 0.170842 0
M  V30 12449 N 1231.26 -0.58723 1.46251 0
M  V30 12450 C 1232.5 -1.3476 1.51551 0
M  V30 12451 C 1232.84 -1.93499 0.16483 0
M  V30 12452 O 1232.11 -1.7622 -0.823207 0
M  V30 12453 C 1232.39 -2.48033 2.61059 0
M  V30 12454 C 1232.25 -1.94358 4.05642 0
M  V30 12455 C 1233.57 -3.50096 2.66685 0
M  V30 12456 H 1230.69 -0.48863 0.551733 0
M  V30 12457 H 1233.33 -0.660097 1.78165 0
M  V30 12458 H 1231.48 -3.06679 2.38496 0
M  V30 12459 H 1233.15 -1.40204 4.39478 0
M  V30 12460 H 1231.39 -1.25217 4.15335 0
M  V30 12461 H 1232.06 -2.76105 4.77986 0
M  V30 12462 H 1234.54 -3.01324 2.86955 0
M  V30 12463 H 1233.42 -4.26817 3.45135 0
M  V30 12464 H 1233.68 -4.07032 1.7256 0
M  V30 12465 N 1232.74 -1.33881 -0.831482 0
M  V30 12466 C 1233.67 -1.20587 -1.94914 0
M  V30 12467 C 1234.68 -0.135026 -1.62239 0
M  V30 12468 O 1235.87 -0.386116 -1.74274 0
M  V30 12469 C 1232.97 -0.828712 -3.28612 0
M  V30 12470 C 1232.14 -1.99275 -3.89369 0
M  V30 12471 C 1231.2 -1.59537 -5.01432 0
M  V30 12472 O 1230.23 -2.31076 -5.20185 0
M  V30 12473 N 1231.43 -0.5046 -5.78303 0
M  V30 12474 H 1234.19 -2.16869 -2.06852 0
M  V30 12475 H 1231.76 -1.26723 -1.00761 0
M  V30 12476 H 1233.75 -0.544827 -4.01016 0
M  V30 12477 H 1232.32 0.0436534 -3.1257 0
M  V30 12478 H 1231.54 -2.44185 -3.09463 0
M  V30 12479 H 1232.83 -2.77145 -4.26694 0
M  V30 12480 H 1232.22 0.0903105 -5.65628 0
M  V30 12481 H 1230.78 -0.280415 -6.51197 0
M  V30 12482 N 1234.21 1.05064 -1.1747 0
M  V30 12483 C 1235.46 1.78089 -0.963883 0
M  V30 12484 C 1235.79 1.87766 0.507365 0
M  V30 12485 O 1235.04 1.37477 1.39279 0
M  V30 12486 C 1235.34 3.21961 -1.55164 0
M  V30 12487 C 1235.01 3.32339 -3.04732 0
M  V30 12488 C 1233.67 3.34878 -3.45557 0
M  V30 12489 C 1236.02 3.3325 -4.00741 0
M  V30 12490 C 1233.35 3.35959 -4.80987 0
M  V30 12491 C 1235.7 3.3587 -5.36073 0
M  V30 12492 C 1234.37 3.36697 -5.7636 0
M  V30 12493 H 1233.64 0.651672 -0.35271 0
M  V30 12494 H 1236.28 1.23471 -1.4638 0
M  V30 12495 H 1234.59 3.79514 -0.973471 0
M  V30 12496 H 1236.29 3.77087 -1.36406 0
M  V30 12497 H 1232.88 3.31076 -2.72188 0
M  V30 12498 H 1237.06 3.30488 -3.70258 0
M  V30 12499 H 1232.32 3.34911 -5.11512 0
M  V30 12500 H 1236.49 3.35524 -6.10243 0
M  V30 12501 H 1234.12 3.37288 -6.81279 0
M  V30 12502 N 1235.69 0.975146 1.23809 0
M  V30 12503 C 1236.93 0.649078 1.9382 0
M  V30 12504 C 1237.3 -0.801879 1.74453 0
M  V30 12505 O 1238.5 -1.23853 2.38567 0
M  V30 12506 C 1236.77 1.0225 3.42461 0
M  V30 12507 S 1238.33 0.812107 4.3122 0
M  V30 12508 H 1235.14 0.237878 0.670026 0
M  V30 12509 H 1237.75 1.25368 1.50011 0
M  V30 12510 H 1236.45 2.07523 3.54065 0
M  V30 12511 H 1235.98 0.408976 3.91268 0
M  V30 12512 H 1238 -0.306716 4.95251 0
M  V30 12513 N 1237.17 -1.38817 0.746158 0
M  V30 12514 C 1238.12 -2.27825 0.089362 0
M  V30 12515 C 1239.1 -1.44826 -0.701013 0
M  V30 12516 O 1240.3 -1.67632 -0.568188 0
M  V30 12517 C 1237.42 -3.33639 -0.808682 0
M  V30 12518 C 1236.51 -4.24098 -0.0118582 0
M  V30 12519 N 1236.9 -4.95393 1.02075 0
M  V30 12520 C 1235.2 -4.45355 -0.239815 0
M  V30 12521 C 1235.9 -5.61969 1.5022 0
M  V30 12522 N 1234.88 -5.37398 0.818816 0
M  V30 12523 H 1238.68 -2.80406 0.88033 0
M  V30 12524 H 1236.19 -1.51632 0.581512 0
M  V30 12525 H 1238.19 -3.96284 -1.29478 0
M  V30 12526 H 1236.85 -2.82617 -1.59868 0
M  V30 12527 H 1237.86 -4.98552 1.40237 0
M  V30 12528 H 1234.54 -4.05255 -1.00374 0
M  V30 12529 H 1235.93 -6.29017 2.36192 0
M  V30 12530 N 1238.65 -0.49465 -1.49636 0
M  V30 12531 C 1239.9 0.0539277 -2.01628 0
M  V30 12532 C 1240.21 1.38634 -1.37986 0
M  V30 12533 O 1241.42 2.02123 -1.81269 0
M  V30 12534 C 1239.87 0.146582 -3.59601 0
M  V30 12535 C 1239.48 -1.1788 -4.32213 0
M  V30 12536 C 1241.22 0.645862 -4.19558 0
M  V30 12537 C 1239.13 -1.04866 -5.82028 0
M  V30 12538 H 1238.06 0.0239278 -0.75362 0
M  V30 12539 H 1240.71 -0.633112 -1.72232 0
M  V30 12540 H 1239.09 0.897931 -3.85685 0
M  V30 12541 H 1240.27 -1.94295 -4.17835 0
M  V30 12542 H 1238.58 -1.61102 -3.83973 0
M  V30 12543 H 1241.18 0.76064 -5.29262 0
M  V30 12544 H 1241.52 1.64313 -3.82501 0
M  V30 12545 H 1242.06 -0.04877 -3.9777 0
M  V30 12546 H 1238.79 -2.02 -6.23599 0
M  V30 12547 H 1238.31 -0.325293 -5.98917 0
M  V30 12548 H 1239.99 -0.724799 -6.42927 0
M  V30 12549 N 1240.13 1.55939 -0.228214 0
M  V30 12550 C 1241.08 2.17223 0.692674 0
M  V30 12551 C 1242.06 1.12252 1.15275 0
M  V30 12552 O 1243.25 1.3822 1.10563 0
M  V30 12553 C 1240.38 2.86084 1.89766 0
M  V30 12554 C 1239.47 3.98288 1.45695 0
M  V30 12555 N 1239.86 5.00515 0.729258 0
M  V30 12556 C 1238.16 4.105 1.74372 0
M  V30 12557 C 1238.86 5.79516 0.503606 0
M  V30 12558 N 1237.83 5.33119 1.06229 0
M  V30 12559 H 1241.63 2.9362 0.128345 0
M  V30 12560 H 1239.15 1.62373 -0.0297445 0
M  V30 12561 H 1241.15 3.28404 2.5682 0
M  V30 12562 H 1239.81 2.11185 2.46639 0
M  V30 12563 H 1240.82 5.16495 0.381261 0
M  V30 12564 H 1237.49 3.46759 2.32518 0
M  V30 12565 H 1238.88 6.71857 -0.0760344 0
M  V30 12566 N 1241.6 -0.0451101 1.57535 0
M  V30 12567 C 1242.57 -1.03521 2.0449 0
M  V30 12568 C 1243.57 -1.30009 0.946265 0
M  V30 12569 O 1244.76 -1.25282 1.21038 0
M  V30 12570 C 1241.89 -2.37221 2.44824 0
M  V30 12571 H 1243.08 -0.629943 2.93209 0
M  V30 12572 H 1240.64 -0.291544 1.53557 0
M  V30 12573 H 1241.37 -2.82528 1.59212 0
M  V30 12574 H 1241.16 -2.19329 3.25018 0
M  V30 12575 H 1242.65 -3.08337 2.81635 0
M  V30 12576 N 1243.08 -1.54377 -0.317073 0
M  V30 12577 C 1244.31 -1.76865 -1.07362 0
M  V30 12578 C 1244.73 -0.520354 -1.81488 0
M  V30 12579 O 1244.08 0.509213 -1.75252 0
M  V30 12580 C 1244.13 -2.96598 -2.06668 0
M  V30 12581 O 1243.85 -4.16602 -1.35552 0
M  V30 12582 C 1245.36 -3.31348 -2.94489 0
M  V30 12583 H 1242.58 -0.590277 -0.319083 0
M  V30 12584 H 1245.12 -2.01284 -0.361227 0
M  V30 12585 H 1243.27 -2.74433 -2.73432 0
M  V30 12586 H 1243.69 -4.83996 -2.02108 0
M  V30 12587 H 1245.16 -4.1841 -3.60051 0
M  V30 12588 H 1245.64 -2.48797 -3.61935 0
M  V30 12589 H 1246.25 -3.55614 -2.33278 0
M  V30 12590 N 1244.56 0.579466 -1.4656 0
M  V30 12591 C 1245.8 1.34857 -1.536 0
M  V30 12592 C 1246.16 1.91111 -0.184576 0
M  V30 12593 O 1247.37 2.68487 -0.129731 0
M  V30 12594 C 1245.64 2.44535 -2.60648 0
M  V30 12595 S 1247.2 3.31829 -2.87115 0
M  V30 12596 H 1244.01 0.459405 -0.542649 0
M  V30 12597 H 1246.62 0.665798 -1.83813 0
M  V30 12598 H 1245.32 2.01605 -3.57468 0
M  V30 12599 H 1244.85 3.17581 -2.32177 0
M  V30 12600 H 1246.87 4.43452 -2.22632 0
M  V30 12601 N 1246.04 1.3432 0.824371 0
M  V30 12602 C 1246.95 1.27847 1.96704 0
M  V30 12603 C 1247.96 0.18641 1.72999 0
M  V30 12604 O 1249.14 0.412623 1.97128 0
M  V30 12605 C 1246.21 1.03231 3.30975 0
M  V30 12606 C 1245.27 2.21579 3.67697 0
M  V30 12607 C 1244.5 1.98128 4.95561 0
M  V30 12608 O 1244.72 0.938798 5.62621 0
M  V30 12609 O 1243.66 2.85041 5.30128 0
M  V30 12610 H 1247.48 2.23974 2.05108 0
M  V30 12611 H 1245.07 1.14512 0.959554 0
M  V30 12612 H 1246.95 0.912784 4.11395 0
M  V30 12613 H 1245.62 0.101425 3.23541 0
M  V30 12614 H 1244.53 2.3909 2.87727 0
M  V30 12615 H 1245.86 3.13052 3.79815 0
M  V30 12616 N 1247.52 -1.0444 1.18026 0
M  V30 12617 C 1248.75 -1.80971 0.996642 0
M  V30 12618 C 1249.15 -1.83568 -0.458192 0
M  V30 12619 O 1248.5 -1.26713 -1.33002 0
M  V30 12620 C 1248.56 -3.28051 1.47048 0
M  V30 12621 C 1248.22 -3.49122 2.94895 0
M  V30 12622 C 1249.22 -3.40621 3.92777 0
M  V30 12623 C 1246.91 -3.7584 3.33241 0
M  V30 12624 C 1248.9 -3.58535 5.27002 0
M  V30 12625 C 1246.59 -3.93402 4.6763 0
M  V30 12626 C 1247.58 -3.84749 5.6432 0
M  V30 12627 O 1247.27 -4.01813 6.96277 0
M  V30 12628 H 1247 -0.576873 0.352411 0
M  V30 12629 H 1249.56 -1.32542 1.56913 0
M  V30 12630 H 1247.79 -3.77431 0.841609 0
M  V30 12631 H 1249.48 -3.8613 1.25135 0
M  V30 12632 H 1250.24 -3.19948 3.64497 0
M  V30 12633 H 1246.12 -3.81674 2.58545 0
M  V30 12634 H 1249.67 -3.51698 6.02457 0
M  V30 12635 H 1245.56 -4.13568 4.95613 0
M  V30 12636 H 1246.33 -4.18995 7.03126 0
M  V30 12637 N 1248.99 -0.981699 -1.2329 0
M  V30 12638 C 1250.22 -0.669025 -1.96313 0
M  V30 12639 C 1250.64 0.757624 -1.72168 0
M  V30 12640 O 1250 1.51626 -0.993942 0
M  V30 12641 C 1250.05 -0.966875 -3.47396 0
M  V30 12642 O 1249.15 -0.0595933 -4.12357 0
M  V30 12643 H 1248.5 -0.251493 -0.61453 0
M  V30 12644 H 1251.03 -1.31564 -1.56691 0
M  V30 12645 H 1251.04 -0.904112 -3.97857 0
M  V30 12646 H 1249.71 -2.00651 -3.64296 0
M  V30 12647 H 1248.29 -0.176878 -3.7248 0
M  V30 12648 N 1250.47 1.3842 -0.753509 0
M  V30 12649 C 1251.42 2.32315 -0.115107 0
M  V30 12650 C 1252.41 1.54015 0.705398 0
M  V30 12651 O 1253.62 1.69546 0.604505 0
M  V30 12652 H 1250 0.751774 -0.0184276 0
M  V30 12653 H 1251.97 2.83763 -0.923094 0
M  V30 12654 C 1250.72 3.39206 0.763849 0
M  V30 12655 H 1250.04 3.99548 0.14187 0
M  V30 12656 H 1251.48 4.07312 1.17783 0
M  V30 12657 C 1249.94 2.77771 1.90643 0
M  V30 12658 O 1250.47 2.67073 3.00058 0
M  V30 12659 N 1248.67 2.35582 1.70145 0
M  V30 12660 H 1248.22 2.44483 0.811528 0
M  V30 12661 H 1248.18 1.9482 2.46764 0
M  V30 12662 N 1251.95 0.502579 1.49372 0
M  V30 12663 C 1253.2 -0.0412993 2.02058 0
M  V30 12664 C 1253.52 -1.37338 1.38431 0
M  V30 12665 O 1252.79 -1.88305 0.540175 0
M  V30 12666 H 1251.37 -0.0182522 0.746777 0
M  V30 12667 H 1254.03 0.660179 1.83378 0
M  V30 12668 H 1253.13 -0.169812 3.11638 0
M  V30 12669 N 1253.43 -1.55816 0.23648 0
M  V30 12670 C 1254.66 -2.03083 -0.395584 0
M  V30 12671 C 1255.07 -1.11599 -1.52286 0
M  V30 12672 O 1254.43 -0.128403 -1.82048 0
M  V30 12673 C 1254.48 -3.49776 -0.913197 0
M  V30 12674 O 1254.2 -4.37773 0.169151 0
M  V30 12675 C 1255.7 -4.12756 -1.617 0
M  V30 12676 H 1252.92 -0.66421 -0.0952146 0
M  V30 12677 H 1255.47 -2.01354 0.357299 0
M  V30 12678 H 1253.62 -3.52072 -1.6163 0
M  V30 12679 H 1254.03 -5.24029 -0.222217 0
M  V30 12680 H 1255.51 -5.17123 -1.93101 0
M  V30 12681 H 1255.99 -3.58631 -2.53537 0
M  V30 12682 H 1256.59 -4.14353 -0.958736 0
M  V30 12683 N 1254.91 0.036755 -1.57557 0
M  V30 12684 C 1255.87 1.02435 -2.05036 0
M  V30 12685 C 1256.87 1.29506 -0.953146 0
M  V30 12686 O 1258.06 1.24638 -1.217 0
M  V30 12687 C 1255.19 2.3592 -2.46079 0
M  V30 12688 H 1256.38 0.614384 -2.93539 0
M  V30 12689 H 1253.94 0.283396 -1.53709 0
M  V30 12690 H 1254.67 2.8168 -1.60708 0
M  V30 12691 H 1254.46 2.17603 -3.26177 0
M  V30 12692 H 1255.95 3.06839 -2.83266 0
M  V30 12693 N 1256.39 1.54543 0.308881 0
M  V30 12694 C 1257.61 1.77753 1.06857 0
M  V30 12695 C 1258.04 0.531616 1.80431 0
M  V30 12696 O 1257.39 -0.517513 1.73757 0
M  V30 12697 C 1257.44 2.97968 2.03094 0
M  V30 12698 O 1256.55 2.70541 3.11257 0
M  V30 12699 H 1255.89 0.588576 0.307368 0
M  V30 12700 H 1258.42 2.01607 0.348703 0
M  V30 12701 H 1258.43 3.25722 2.45702 0
M  V30 12702 H 1257.1 3.88314 1.48948 0
M  V30 12703 H 1255.68 2.53781 2.7322 0
M  V30 12704 N 1257.86 -0.571685 1.46866 0
M  V30 12705 C 1259.1 -1.34041 1.54313 0
M  V30 12706 C 1259.47 -1.9101 0.194708 0
M  V30 12707 O 1260.67 -2.68414 0.143968 0
M  V30 12708 C 1258.94 -2.4315 2.61941 0
M  V30 12709 S 1260.5 -3.30301 2.88871 0
M  V30 12710 H 1257.32 -0.45652 0.545078 0
M  V30 12711 H 1259.92 -0.656041 1.84164 0
M  V30 12712 H 1258.62 -1.99707 3.58532 0
M  V30 12713 H 1258.15 -3.16345 2.33858 0
M  V30 12714 H 1260.17 -4.42265 2.24981 0
M  V30 12715 N 1259.34 -1.34755 -0.817236 0
M  V30 12716 C 1260.59 -1.26771 -1.56882 0
M  V30 12717 C 1260.9 0.158962 -1.94953 0
M  V30 12718 O 1262.11 0.360996 -2.69089 0
M  V30 12719 C 1260.57 -2.22261 -2.83069 0
M  V30 12720 C 1260.17 -3.70216 -2.52277 0
M  V30 12721 C 1261.92 -2.23197 -3.61086 0
M  V30 12722 C 1259.82 -4.57559 -3.74691 0
M  V30 12723 H 1258.75 -0.470961 -0.588822 0
M  V30 12724 H 1261.41 -1.59955 -0.899254 0
M  V30 12725 H 1259.79 -1.82036 -3.5168 0
M  V30 12726 H 1260.96 -4.19014 -1.9174 0
M  V30 12727 H 1259.28 -3.71784 -1.87525 0
M  V30 12728 H 1261.87 -2.85673 -4.5199 0
M  V30 12729 H 1262.22 -1.2328 -3.97628 0
M  V30 12730 H 1262.75 -2.61897 -2.99424 0
M  V30 12731 H 1259.49 -5.58434 -3.43267 0
M  V30 12732 H 1259.01 -4.13494 -4.34491 0
M  V30 12733 H 1260.69 -4.72451 -4.42039 0
M  V30 12734 N 1260.82 1.03812 -1.18578 0
M  V30 12735 C 1262.06 1.78618 -0.993725 0
M  V30 12736 C 1262.42 1.86206 0.468133 0
M  V30 12737 O 1263.62 2.57243 0.779714 0
M  V30 12738 C 1261.9 3.17883 -1.63357 0
M  V30 12739 S 1263.45 4.08994 -1.58962 0
M  V30 12740 H 1260.27 0.614997 -0.356792 0
M  V30 12741 H 1262.87 1.24458 -1.50766 0
M  V30 12742 H 1261.58 3.09972 -2.68972 0
M  V30 12743 H 1261.11 3.77119 -1.12003 0
M  V30 12744 H 1263.12 4.9247 -0.6073 0
M  V30 12745 N 1262.3 0.988223 1.22768 0
M  V30 12746 C 1263.24 0.534605 2.24523 0
M  V30 12747 C 1264.21 -0.430615 1.60421 0
M  V30 12748 O 1265.4 -0.336417 1.87811 0
M  V30 12749 C 1262.54 -0.149195 3.44777 0
M  V30 12750 C 1261.65 0.85721 4.2341 0
M  V30 12751 C 1260.79 0.147411 5.30995 0
M  V30 12752 C 1259.83 1.1425 6.01343 0
M  V30 12753 N 1258.96 0.461327 7.00583 0
M  V30 12754 H 1263.8 1.40708 2.62689 0
M  V30 12755 H 1261.34 0.704918 1.2911 0
M  V30 12756 H 1263.3 -0.562527 4.1339 0
M  V30 12757 H 1261.93 -0.985485 3.07389 0
M  V30 12758 H 1260.98 1.38889 3.54138 0
M  V30 12759 H 1262.29 1.61517 4.71926 0
M  V30 12760 H 1261.45 -0.32289 6.0584 0
M  V30 12761 H 1260.19 -0.643085 4.83442 0
M  V30 12762 H 1259.19 1.62348 5.25284 0
M  V30 12763 H 1260.42 1.93379 6.50985 0
M  V30 12764 H 1258.36 -0.309818 6.55268 0
M  V30 12765 H 1258.28 1.15781 7.47082 0
M  V30 12766 H 1259.55 0.0136734 7.79499 0
M  V30 12767 N 1263.78 -1.38018 0.760839 0
M  V30 12768 C 1264.74 -2.28734 0.146154 0
M  V30 12769 C 1265.74 -1.47525 -0.639768 0
M  V30 12770 O 1266.93 -1.6788 -0.464964 0
M  V30 12771 C 1264.06 -3.31356 -0.801019 0
M  V30 12772 H 1265.25 -2.84599 0.945692 0
M  V30 12773 H 1262.81 -1.471 0.528323 0
M  V30 12774 H 1263.54 -2.80594 -1.62597 0
M  V30 12775 H 1263.33 -3.91366 -0.239775 0
M  V30 12776 H 1264.82 -3.99171 -1.22687 0
M  V30 12777 N 1265.25 -0.510493 -1.49103 0
M  V30 12778 C 1266.5 0.0305831 -2.02077 0
M  V30 12779 C 1266.82 1.36602 -1.39157 0
M  V30 12780 O 1266.09 1.88016 -0.550154 0
M  V30 12781 H 1264.67 0.0142916 -0.746863 0
M  V30 12782 H 1267.33 -0.669895 -1.83026 0
M  V30 12783 H 1266.43 0.153283 -3.11723 0
M  V30 12784 N 1266.73 1.55688 -0.24474 0
M  V30 12785 C 1267.96 2.02995 0.38425 0
M  V30 12786 C 1268.37 1.12339 1.52239 0
M  V30 12787 O 1267.71 0.129803 1.83241 0
M  V30 12788 C 1267.77 3.46564 0.955701 0
M  V30 12789 C 1267.44 4.56973 -0.0499176 0
M  V30 12790 C 1268.44 5.1276 -0.858682 0
M  V30 12791 C 1266.12 5.01994 -0.175383 0
M  V30 12792 C 1268.11 6.12059 -1.77939 0
M  V30 12793 C 1265.8 6.01126 -1.0996 0
M  V30 12794 C 1266.8 6.56037 -1.90013 0
M  V30 12795 O 1266.49 7.53235 -2.80877 0
M  V30 12796 H 1266.22 0.669189 0.0957212 0
M  V30 12797 H 1268.77 2.02121 -0.36555 0
M  V30 12798 H 1267 3.44581 1.75502 0
M  V30 12799 H 1268.69 3.77383 1.49454 0
M  V30 12800 H 1269.46 4.78811 -0.772325 0
M  V30 12801 H 1265.34 4.58918 0.437644 0
M  V30 12802 H 1268.88 6.54845 -2.40465 0
M  V30 12803 H 1264.78 6.34494 -1.18689 0
M  V30 12804 H 1265.55 7.70844 -2.75214 0
M  V30 12805 N 1268.21 -0.0283989 1.57574 0
M  V30 12806 C 1269.12 -1.04575 2.10003 0
M  V30 12807 C 1270.14 -1.39588 1.03881 0
M  V30 12808 O 1271.31 -1.48894 1.35619 0
M  V30 12809 C 1268.38 -2.32755 2.56955 0
M  V30 12810 C 1267.44 -2.04317 3.77562 0
M  V30 12811 C 1266.67 -3.26385 4.22266 0
M  V30 12812 O 1266.89 -4.37082 3.66491 0
M  V30 12813 O 1265.83 -3.12046 5.14695 0
M  V30 12814 H 1269.65 -0.630183 2.9709 0
M  V30 12815 H 1267.24 -0.245423 1.4737 0
M  V30 12816 H 1269.12 -3.08111 2.87482 0
M  V30 12817 H 1267.8 -2.73605 1.72979 0
M  V30 12818 H 1266.7 -1.26527 3.52054 0
M  V30 12819 H 1268.04 -1.68321 4.62524 0
M  V30 12820 N 1269.69 -1.54705 -0.300681 0
M  V30 12821 C 1270.94 -1.73658 -1.0338 0
M  V30 12822 C 1271.26 -0.525447 -1.87787 0
M  V30 12823 O 1270.53 0.460269 -1.90416 0
M  V30 12824 H 1269.11 -0.640338 -0.384677 0
M  V30 12825 H 1271.77 -1.92059 -0.331588 0
M  V30 12826 H 1270.86 -2.62595 -1.68672 0
M  V30 12827 N 1271.17 0.563888 -1.47167 0
M  V30 12828 C 1272.44 1.32454 -1.43928 0
M  V30 12829 C 1272.82 2.10683 -0.13267 0
M  V30 12830 O 1272.17 2.1063 0.885845 0
M  V30 12831 C 1272.38 2.2347 -2.68071 0
M  V30 12832 C 1273.73 2.84702 -3.15008 0
M  V30 12833 O 1274.75 2.33775 -2.68752 0
M  V30 12834 O 1273.61 3.77251 -3.95404 0
M  V30 12835 H 1270.71 0.596074 -0.573258 0
M  V30 12836 H 1273.25 0.583345 -1.59359 0
M  V30 12837 H 1272.02 1.6522 -3.54708 0
M  V30 12838 H 1271.65 3.04897 -2.55193 0
M  V30 12839 N 1272.64 1.35187 0.810078 0
M  V30 12840 C 1273.89 1.28011 1.56389 0
M  V30 12841 C 1274.21 -0.14622 1.94451 0
M  V30 12842 O 1273.48 -1.08185 1.63318 0
M  V30 12843 H 1272.06 0.470837 0.579932 0
M  V30 12844 H 1274.73 1.69249 0.966476 0
M  V30 12845 H 1273.82 1.89362 2.4809 0
M  V30 12846 N 1274.12 -1.03182 1.19127 0
M  V30 12847 C 1275.35 -1.80165 1.01726 0
M  V30 12848 C 1275.77 -1.83742 -0.434095 0
M  V30 12849 O 1275.12 -1.27932 -1.30152 0
M  V30 12850 C 1275.17 -3.25354 1.57566 0
M  V30 12851 O 1274.89 -3.22042 2.9702 0
M  V30 12852 C 1276.4 -4.18948 1.44906 0
M  V30 12853 H 1273.62 -0.567078 0.358698 0
M  V30 12854 H 1276.16 -1.29982 1.57877 0
M  V30 12855 H 1274.31 -3.72738 1.0557 0
M  V30 12856 H 1274.73 -4.13061 3.23235 0
M  V30 12857 H 1276.2 -5.18723 1.88762 0
M  V30 12858 H 1276.68 -4.37383 0.399125 0
M  V30 12859 H 1277.29 -3.77435 1.96018 0
M  V30 12860 N 1275.6 -0.99472 -1.22242 0
M  V30 12861 C 1276.53 -0.566499 -2.26524 0
M  V30 12862 C 1277.51 0.407541 -1.65146 0
M  V30 12863 O 1278.7 0.297777 -1.91903 0
M  V30 12864 C 1275.83 0.11786 -3.471 0
M  V30 12865 C 1274.78 -0.774908 -4.20927 0
M  V30 12866 C 1274.11 0.0424687 -5.34683 0
M  V30 12867 C 1275.41 -2.07263 -4.79416 0
M  V30 12868 H 1277.1 -1.43818 -2.62596 0
M  V30 12869 H 1274.65 -0.692971 -1.2623 0
M  V30 12870 H 1276.6 0.428842 -4.19212 0
M  V30 12871 H 1275.32 1.0241 -3.10129 0
M  V30 12872 H 1273.98 -1.06956 -3.50651 0
M  V30 12873 H 1273.63 0.949677 -4.93954 0
M  V30 12874 H 1273.33 -0.551867 -5.85003 0
M  V30 12875 H 1274.85 0.347504 -6.0961 0
M  V30 12876 H 1276.27 -1.82548 -5.4346 0
M  V30 12877 H 1274.67 -2.61594 -5.40082 0
M  V30 12878 H 1275.74 -2.75017 -3.99366 0
M  V30 12879 N 1277.08 1.37613 -0.768148 0
M  V30 12880 C 1278.32 2.0162 -0.335961 0
M  V30 12881 C 1278.68 1.59659 1.06644 0
M  V30 12882 O 1279.88 2.16102 1.59854 0
M  V30 12883 C 1278.15 3.54285 -0.470802 0
M  V30 12884 S 1279.71 4.38627 -0.123347 0
M  V30 12885 H 1276.53 0.699113 -0.129467 0
M  V30 12886 H 1279.13 1.67871 -1.00197 0
M  V30 12887 H 1277.84 3.82313 -1.49215 0
M  V30 12888 H 1277.37 3.92829 0.211886 0
M  V30 12889 H 1279.38 4.84253 1.0823 0
M  V30 12890 N 1278.56 0.518393 1.4883 0
M  V30 12891 C 1279.78 -0.0183131 2.07392 0
M  V30 12892 C 1280.21 -1.28468 1.37396 0
M  V30 12893 O 1279.56 -1.75975 0.436177 0
M  V30 12894 C 1279.61 -0.237211 3.59819 0
M  V30 12895 O 1278.72 -1.30835 3.91096 0
M  V30 12896 H 1278.06 0.0339621 0.663131 0
M  V30 12897 H 1280.59 0.722993 1.914 0
M  V30 12898 H 1280.6 -0.463424 4.0536 0
M  V30 12899 H 1279.27 0.687925 4.10171 0
M  V30 12900 H 1277.85 -1.06571 3.57347 0
M  V30 12901 N 1280.03 -1.55556 0.252993 0
M  V30 12902 C 1280.94 -2.25283 -0.654581 0
M  V30 12903 C 1281.96 -1.27103 -1.18831 0
M  V30 12904 O 1283.14 -1.59993 -1.22329 0
M  V30 12905 C 1280.2 -2.94336 -1.83214 0
M  V30 12906 C 1279.26 -4.0794 -1.33728 0
M  V30 12907 C 1278.5 -4.73691 -2.45871 0
M  V30 12908 O 1278.72 -4.38545 -3.64738 0
M  V30 12909 O 1277.65 -5.62083 -2.15283 0
M  V30 12910 H 1281.48 -3.03565 -0.0904091 0
M  V30 12911 H 1279.06 -1.49385 0.0212535 0
M  V30 12912 H 1280.95 -3.37808 -2.5192 0
M  V30 12913 H 1279.62 -2.18989 -2.38381 0
M  V30 12914 H 1278.53 -3.68971 -0.617323 0
M  V30 12915 H 1279.86 -4.85124 -0.831617 0
M  V30 12916 N 1281.51 0.0200419 -1.57587 0
M  V30 12917 C 1282.45 1.05118 -2.02547 0
M  V30 12918 C 1283.42 1.3465 -0.911494 0
M  V30 12919 O 1284.61 1.47154 -1.17805 0
M  V30 12920 C 1281.73 2.38373 -2.40615 0
M  V30 12921 C 1280.78 2.24639 -3.62546 0
M  V30 12922 S 1281.61 1.59129 -5.1131 0
M  V30 12923 C 1282.77 2.93856 -5.5263 0
M  V30 12924 H 1283 0.668271 -2.89692 0
M  V30 12925 H 1280.54 0.230301 -1.52673 0
M  V30 12926 H 1282.49 3.15002 -2.63218 0
M  V30 12927 H 1281.15 2.7381 -1.53906 0
M  V30 12928 H 1280.35 3.23032 -3.86867 0
M  V30 12929 H 1279.95 1.56153 -3.39841 0
M  V30 12930 H 1282.24 3.90179 -5.53865 0
M  V30 12931 H 1283.18 2.74258 -6.52831 0
M  V30 12932 H 1283.59 2.96844 -4.8015 0
M  V30 12933 N 1282.99 1.54862 0.292472 0
M  V30 12934 C 1284.27 1.65237 1.04671 0
M  V30 12935 C 1284.65 0.506168 2.04942 0
M  V30 12936 O 1284 -0.496123 2.23049 0
M  V30 12937 C 1284.21 3.03618 1.72095 0
M  V30 12938 C 1285.55 3.6072 2.23979 0
M  V30 12939 O 1286.58 3.06126 1.82114 0
M  V30 12940 O 1285.44 4.56328 3.0071 0
M  V30 12941 H 1282.53 0.670347 0.484319 0
M  V30 12942 H 1285.08 1.67206 0.28988 0
M  V30 12943 H 1283.85 3.78482 0.993324 0
M  V30 12944 H 1283.47 3.05464 2.54514 0
M  V30 12945 N 1284.47 -0.556076 1.47464 0
M  V30 12946 C 1285.88 -1.1382 1.47993 0
M  V30 12947 C 1286.23 -1.94785 0.235249 0
M  V30 12948 O 1285.36 -2.06098 -0.659752 0
M  V30 12949 C 1285.95 -2.07082 2.68146 0
M  V30 12950 C 1284.51 -2.60564 2.71631 0
M  V30 12951 C 1283.66 -1.36967 2.41113 0
M  V30 12952 H 1286.61 -0.34262 1.54957 0
M  V30 12953 H 1286.63 -2.90975 2.45181 0
M  V30 12954 H 1286.14 -1.48127 3.5872 0
M  V30 12955 H 1284.24 -3.23314 1.852 0
M  V30 12956 H 1284.35 -3.0148 3.72353 0
M  V30 12957 H 1282.72 -1.67678 1.91719 0
M  V30 12958 H 1283.5 -0.79803 3.33896 0
M  V30 12959 N 1285.95 -1.35615 -0.802897 0
M  V30 12960 C 1287.19 -1.30462 -1.5735 0
M  V30 12961 C 1287.55 0.118488 -1.91634 0
M  V30 12962 O 1288.75 0.294421 -2.67183 0
M  V30 12963 C 1287.02 -2.18916 -2.82508 0
M  V30 12964 S 1288.58 -2.31315 -3.72879 0
M  V30 12965 H 1285.4 -0.463588 -0.53908 0
M  V30 12966 H 1288 -1.71045 -0.946782 0
M  V30 12967 H 1286.71 -3.21285 -2.5535 0
M  V30 12968 H 1286.24 -1.79304 -3.50162 0
M  V30 12969 H 1288.25 -1.50069 -4.72963 0
M  V30 12970 N 1287.43 1.02549 -1.19673 0
M  V30 12971 C 1288.65 1.79623 -1.0268 0
M  V30 12972 C 1289.07 1.83969 0.424345 0
M  V30 12973 O 1288.43 1.28621 1.29472 0
M  V30 12974 C 1288.48 3.24514 -1.59289 0
M  V30 12975 O 1288.2 3.20462 -2.98723 0
M  V30 12976 C 1289.7 4.18173 -1.47126 0
M  V30 12977 H 1286.92 0.565167 -0.3617 0
M  V30 12978 H 1289.46 1.29143 -1.58564 0
M  V30 12979 H 1287.62 3.72173 -1.07546 0
M  V30 12980 H 1288.03 4.11341 -3.25421 0
M  V30 12981 H 1289.51 5.17714 -1.9151 0
M  V30 12982 H 1289.98 4.37165 -0.422315 0
M  V30 12983 H 1290.59 3.7639 -1.98017 0
M  V30 12984 N 1288.9 1.00119 1.21713 0
M  V30 12985 C 1290.15 0.680377 1.90303 0
M  V30 12986 C 1290.47 -0.790927 1.7824 0
M  V30 12987 O 1289.74 -1.5676 1.17486 0
M  V30 12988 H 1288.32 0.248665 0.704397 0
M  V30 12989 H 1290.98 1.26948 1.47886 0
M  V30 12990 H 1290.08 0.950188 2.97284 0
M  V30 12991 N 1290.38 -1.37203 0.775435 0
M  V30 12992 C 1291.31 -2.32819 0.17826 0
M  V30 12993 C 1292.29 -1.55963 -0.678944 0
M  V30 12994 O 1293.48 -1.84183 -0.615648 0
M  V30 12995 C 1290.61 -3.40198 -0.698768 0
M  V30 12996 C 1289.56 -4.27961 0.057423 0
M  V30 12997 C 1288.89 -5.26385 -0.93929 0
M  V30 12998 C 1290.19 -5.07402 1.23856 0
M  V30 12999 H 1291.88 -2.8301 0.977028 0
M  V30 13000 H 1289.43 -1.3607 0.471274 0
M  V30 13001 H 1291.38 -4.06067 -1.12637 0
M  V30 13002 H 1290.1 -2.88541 -1.53009 0
M  V30 13003 H 1288.76 -3.63628 0.465848 0
M  V30 13004 H 1288.41 -4.71007 -1.76527 0
M  V30 13005 H 1288.11 -5.85966 -0.437844 0
M  V30 13006 H 1289.64 -5.9513 -1.36576 0
M  V30 13007 H 1291.05 -5.6639 0.887423 0
M  V30 13008 H 1289.45 -5.76327 1.67234 0
M  V30 13009 H 1290.52 -4.3986 2.04085 0
M  V30 13010 N 1291.86 -0.526279 -1.48553 0
M  V30 13011 C 1293.09 0.0052277 -2.06899 0
M  V30 13012 C 1293.5 1.2849 -1.38332 0
M  V30 13013 O 1292.86 1.76354 -0.469648 0
M  V30 13014 C 1292.91 0.236709 -3.60724 0
M  V30 13015 O 1292.63 -0.992256 -4.26715 0
M  V30 13016 C 1294.13 0.809014 -4.35855 0
M  V30 13017 H 1291.35 -0.0318426 -0.670244 0
M  V30 13018 H 1293.9 -0.730865 -1.90994 0
M  V30 13019 H 1292.05 0.922842 -3.76248 0
M  V30 13020 H 1292.47 -0.770697 -5.18807 0
M  V30 13021 H 1293.94 0.920428 -5.44272 0
M  V30 13022 H 1294.42 1.81302 -4.00033 0
M  V30 13023 H 1295.02 0.159564 -4.25001 0
M  V30 13024 N 1293.34 1.5542 -0.261239 0
M  V30 13025 C 1294.75 1.85161 0.239195 0
M  V30 13026 C 1295.1 1.18319 1.56509 0
M  V30 13027 O 1294.22 0.4666 2.1131 0
M  V30 13028 C 1294.82 3.3592 0.440781 0
M  V30 13029 C 1293.38 3.65837 0.885461 0
M  V30 13030 C 1292.53 2.77285 -0.0291982 0
M  V30 13031 H 1295.48 1.51158 -0.483417 0
M  V30 13032 H 1295.5 3.58276 1.28136 0
M  V30 13033 H 1295.01 3.84541 -0.524382 0
M  V30 13034 H 1293.11 3.22705 1.86259 0
M  V30 13035 H 1293.22 4.73469 0.732394 0
M  V30 13036 H 1291.59 2.50045 0.484701 0
M  V30 13037 H 1292.37 3.28716 -0.989992 0
M  V30 13038 N 1294.82 -0.0116844 1.57596 0
M  V30 13039 C 1296.06 -0.697577 1.89679 0
M  V30 13040 C 1296.38 -1.74956 0.861122 0
M  V30 13041 O 1295.65 -1.95629 -0.103031 0
M  V30 13042 H 1294.23 -0.26064 0.700054 0
M  V30 13043 H 1296.9 0.0264782 1.94882 0
M  V30 13044 H 1295.99 -1.17621 2.89088 0
M  V30 13045 N 1296.29 -1.55015 -0.284256 0
M  V30 13046 C 1297.54 -1.74744 -1.01532 0
M  V30 13047 C 1297.86 -0.545334 -1.87219 0
M  V30 13048 O 1297.13 0.440046 -1.90894 0
M  V30 13049 H 1295.71 -0.644382 -0.377864 0
M  V30 13050 H 1298.37 -1.92399 -0.311199 0
M  V30 13051 H 1297.47 -2.64369 -1.65878 0
M  V30 13052 N 1297.77 0.548248 -1.47757 0
M  V30 13053 C 1299.01 1.31569 -1.56426 0
M  V30 13054 C 1299.38 1.90676 -0.225072 0
M  V30 13055 O 1300.58 2.68151 -0.186652 0
M  V30 13056 C 1298.85 2.38951 -2.65776 0
M  V30 13057 S 1300.41 3.25664 -2.94089 0
M  V30 13058 H 1297.22 0.447791 -0.552272 0
M  V30 13059 H 1299.83 0.626659 -1.85184 0
M  V30 13060 H 1298.53 1.93978 -3.61664 0
M  V30 13061 H 1298.06 3.12584 -2.38861 0
M  V30 13062 H 1300.08 4.38629 -2.31989 0
M  V30 13063 N 1299.25 1.36039 0.795694 0
M  V30 13064 C 1300.47 1.33222 1.58955 0
M  V30 13065 C 1300.9 -0.0854596 1.87906 0
M  V30 13066 O 1300.26 -1.05555 1.47403 0
M  V30 13067 C 1300.31 2.15508 2.89117 0
M  V30 13068 O 1299.41 1.54327 3.82436 0
M  V30 13069 H 1298.75 0.456264 0.48241 0
M  V30 13070 H 1301.28 1.79234 0.986726 0
M  V30 13071 H 1301.29 2.2786 3.38444 0
M  V30 13072 H 1299.97 3.18568 2.67371 0
M  V30 13073 H 1298.54 1.50879 3.41013 0
M  V30 13074 N 1300.73 -1.01913 1.20215 0
M  V30 13075 C 1302.14 -1.27766 0.956459 0
M  V30 13076 C 1302.34 -1.98158 -0.365486 0
M  V30 13077 O 1301.4 -2.27539 -1.09463 0
M  V30 13078 C 1302.71 -2.11516 2.13732 0
M  V30 13079 C 1304.26 -2.24792 2.17802 0
M  V30 13080 C 1304.74 -3.11919 3.35367 0
M  V30 13081 N 1306.23 -3.19507 3.35364 0
M  V30 13082 C 1306.96 -3.8714 4.22978 0
M  V30 13083 N 1306.46 -4.5692 5.20765 0
M  V30 13084 N 1308.25 -3.83638 4.10827 0
M  V30 13085 H 1300.4 -0.546426 2.05251 0
M  V30 13086 H 1302.67 -0.303772 0.898012 0
M  V30 13087 H 1302.37 -1.67127 3.09453 0
M  V30 13088 H 1302.25 -3.12249 2.11614 0
M  V30 13089 H 1304.63 -2.68407 1.22645 0
M  V30 13090 H 1304.71 -1.23576 2.2397 0
M  V30 13091 H 1304.36 -2.6901 4.30809 0
M  V30 13092 H 1304.29 -4.13215 3.26436 0
M  V30 13093 H 1306.78 -2.69819 2.64587 0
M  V30 13094 H 1307.09 -5.06188 5.83947 0
M  V30 13095 H 1305.44 -4.55753 5.24704 0
M  V30 13096 H 1308.63 -3.28268 3.33703 0
M  V30 13097 H 1308.8 -4.36071 4.79318 0
M  V30 13098 N 1302.21 -1.00763 -1.2118 0
M  V30 13099 C 1303.15 -0.563428 -2.25673 0
M  V30 13100 C 1304.15 0.393342 -1.6477 0
M  V30 13101 O 1305.35 0.264246 -1.7805 0
M  V30 13102 H 1301.73 -0.163862 -0.73393 0
M  V30 13103 H 1303.7 -1.45585 -2.60476 0
M  V30 13104 C 1302.45 0.0915599 -3.47579 0
M  V30 13105 H 1301.77 -0.635628 -3.94715 0
M  V30 13106 H 1303.21 0.36561 -4.22421 0
M  V30 13107 C 1301.67 1.33159 -3.09468 0
M  V30 13108 O 1302.2 2.42571 -3.20191 0
M  V30 13109 N 1300.41 1.21231 -2.64105 0
M  V30 13110 H 1299.95 0.322021 -2.55579 0
M  V30 13111 H 1299.91 2.04301 -2.38974 0
M  V30 13112 N 1303.68 1.3679 -0.7827 0
M  V30 13113 C 1304.65 2.28472 -0.182525 0
M  V30 13114 C 1305.65 1.48524 0.616217 0
M  V30 13115 O 1306.84 1.68599 0.438197 0
M  V30 13116 C 1303.97 3.32588 0.748202 0
M  V30 13117 H 1305.16 2.83059 -0.99085 0
M  V30 13118 H 1302.72 1.46241 -0.551658 0
M  V30 13119 H 1303.45 2.83145 1.58112 0
M  V30 13120 H 1303.24 3.91698 0.177481 0
M  V30 13121 H 1304.73 4.01073 1.16321 0
M  V30 13122 N 1305.16 0.53415 1.48272 0
M  V30 13123 C 1306.07 -0.230062 2.33469 0
M  V30 13124 C 1307.09 -0.934889 1.46751 0
M  V30 13125 O 1308.26 -0.908921 1.79724 0
M  V30 13126 C 1305.33 -1.2609 3.22958 0
M  V30 13127 C 1304.39 -0.565983 4.25553 0
M  V30 13128 C 1303.62 -1.54771 5.10766 0
M  V30 13129 O 1303.85 -2.7807 4.9803 0
M  V30 13130 O 1302.78 -1.08482 5.92043 0
M  V30 13131 H 1306.61 0.468182 3.0007 0
M  V30 13132 H 1304.19 0.29502 1.46458 0
M  V30 13133 H 1306.07 -1.85652 3.783 0
M  V30 13134 H 1304.75 -1.94148 2.59014 0
M  V30 13135 H 1303.66 0.0702391 3.74034 0
M  V30 13136 H 1304.99 0.0727277 4.92146 0
M  V30 13137 N 1306.64 -1.55279 0.269478 0
M  V30 13138 C 1307.88 -2.01378 -0.350174 0
M  V30 13139 C 1308.24 -1.15373 -1.5347 0
M  V30 13140 O 1309.45 -1.51027 -2.22361 0
M  V30 13141 C 1307.72 -3.49904 -0.728134 0
M  V30 13142 S 1309.28 -4.17995 -1.33512 0
M  V30 13143 H 1306.09 -0.702567 -0.109179 0
M  V30 13144 H 1308.7 -1.91571 0.389994 0
M  V30 13145 H 1307.4 -4.10151 0.142925 0
M  V30 13146 H 1306.93 -3.63684 -1.49991 0
M  V30 13147 H 1308.95 -4.21153 -2.62383 0
M  V30 13148 N 1308.12 0.00332656 -1.576 0
M  V30 13149 C 1309.37 0.688044 -1.89602 0
M  V30 13150 C 1309.68 1.75121 -0.871316 0
M  V30 13151 O 1310.89 2.49032 -1.08144 0
M  V30 13152 C 1309.34 1.27494 -3.36561 0
M  V30 13153 C 1308.95 0.246771 -4.4732 0
M  V30 13154 C 1310.69 1.93804 -3.77677 0
M  V30 13155 C 1308.6 0.843471 -5.85354 0
M  V30 13156 H 1307.53 0.260747 -0.707479 0
M  V30 13157 H 1310.18 -0.0566727 -1.83412 0
M  V30 13158 H 1308.56 2.07022 -3.37577 0
M  V30 13159 H 1309.74 -0.523668 -4.57815 0
M  V30 13160 H 1308.05 -0.3157 -4.15202 0
M  V30 13161 H 1310.65 2.39347 -4.78139 0
M  V30 13162 H 1310.99 2.7672 -3.11017 0
M  V30 13163 H 1311.53 1.21015 -3.78946 0
M  V30 13164 H 1308.27 0.0531655 -6.55478 0
M  V30 13165 H 1307.79 1.58315 -5.7853 0
M  V30 13166 H 1309.46 1.34311 -6.32906 0
M  V30 13167 N 1309.6 1.55164 0.276031 0
M  V30 13168 C 1310.54 1.87836 1.34113 0
M  V30 13169 C 1311.51 0.729562 1.4922 0
M  V30 13170 O 1312.7 0.980549 1.63676 0
M  V30 13171 C 1309.84 2.15313 2.69693 0
M  V30 13172 C 1308.95 3.42845 2.62833 0
M  V30 13173 C 1308.09 3.60038 3.90572 0
M  V30 13174 C 1307.13 4.81273 3.7821 0
M  V30 13175 N 1306.26 4.95139 4.97777 0
M  V30 13176 H 1311.1 2.78681 1.0555 0
M  V30 13177 H 1308.64 1.37976 0.510001 0
M  V30 13178 H 1310.6 2.29243 3.48573 0
M  V30 13179 H 1309.23 1.27706 2.96464 0
M  V30 13180 H 1308.28 3.37403 1.75679 0
M  V30 13181 H 1309.59 4.3186 2.49597 0
M  V30 13182 H 1308.75 3.73769 4.77893 0
M  V30 13183 H 1307.48 2.69203 4.06671 0
M  V30 13184 H 1306.49 4.67549 2.89271 0
M  V30 13185 H 1307.71 5.7354 3.63632 0
M  V30 13186 H 1305.66 4.07234 5.14292 0
M  V30 13187 H 1305.58 5.78194 4.8706 0
M  V30 13188 H 1306.85 5.13253 5.86679 0
M  V30 13189 N 1311.07 -0.540404 1.48045 0
M  V30 13190 C 1312.3 -1.32177 1.59175 0
M  V30 13191 C 1312.72 -1.87163 0.248115 0
M  V30 13192 O 1312.07 -1.65871 -0.761124 0
M  V30 13193 C 1312.13 -2.47995 2.63023 0
M  V30 13194 O 1311.85 -1.95278 3.92171 0
M  V30 13195 C 1313.35 -3.39967 2.84495 0
M  V30 13196 H 1310.57 -0.40233 0.537002 0
M  V30 13197 H 1313.11 -0.652983 1.93795 0
M  V30 13198 H 1311.27 -3.10779 2.31291 0
M  V30 13199 H 1311.68 -2.71012 4.49058 0
M  V30 13200 H 1313.15 -4.17607 3.60982 0
M  V30 13201 H 1313.63 -3.94555 1.92932 0
M  V30 13202 H 1314.24 -2.82985 3.1749 0
M  V30 13203 N 1312.55 -1.36459 -0.788468 0
M  V30 13204 C 1313.8 -1.30483 -1.54333 0
M  V30 13205 C 1314.12 0.115266 -1.94659 0
M  V30 13206 O 1313.39 1.05573 -1.65019 0
M  V30 13207 H 1311.97 -0.480004 -0.572368 0
M  V30 13208 H 1314.63 -1.70765 -0.939428 0
M  V30 13209 H 1313.73 -1.93284 -2.45046 0
M  V30 13210 N 1314.03 1.01274 -1.20754 0
M  V30 13211 C 1315.26 1.78524 -1.04579 0
M  V30 13212 C 1315.67 1.84409 0.404809 0
M  V30 13213 O 1315.03 1.29987 1.281 0
M  V30 13214 C 1315.08 3.22806 -1.62722 0
M  V30 13215 O 1314.8 3.17276 -3.02106 0
M  V30 13216 C 1316.3 4.16589 -1.51553 0
M  V30 13217 H 1313.52 0.561299 -0.367674 0
M  V30 13218 H 1316.07 1.27454 -1.59924 0
M  V30 13219 H 1314.22 3.71011 -1.11487 0
M  V30 13220 H 1314.64 4.07866 -3.29766 0
M  V30 13221 H 1316.11 5.15654 -1.9699 0
M  V30 13222 H 1316.59 4.36692 -0.468659 0
M  V30 13223 H 1317.19 3.74269 -2.01998 0
M  V30 13224 N 1315.51 1.01404 1.20644 0
M  V30 13225 C 1316.76 0.700523 1.89571 0
M  V30 13226 C 1317.08 -0.771978 1.79068 0
M  V30 13227 O 1316.35 -1.55506 1.19142 0
M  V30 13228 H 1314.93 0.256122 0.70172 0
M  V30 13229 H 1317.59 1.28509 1.46531 0
M  V30 13230 H 1316.69 0.981665 2.9626 0
M  V30 13231 N 1316.99 -1.36373 0.789944 0
M  V30 13232 C 1318.22 -2.03482 0.37453 0
M  V30 13233 C 1318.63 -1.59562 -1.00923 0
M  V30 13234 O 1317.99 -0.785289 -1.64741 0
M  V30 13235 C 1318.04 -3.58942 0.429255 0
M  V30 13236 O 1317.76 -4.01261 1.75845 0
M  V30 13237 C 1319.26 -4.433 0.00453729 0
M  V30 13238 H 1316.48 -0.653019 0.154295 0
M  V30 13239 H 1319.02 -1.74339 1.06894 0
M  V30 13240 H 1317.18 -3.86793 -0.21674 0
M  V30 13241 H 1317.59 -4.95854 1.70964 0
M  V30 13242 H 1319.07 -5.5192 0.0939653 0
M  V30 13243 H 1319.54 -4.26509 -1.04816 0
M  V30 13244 H 1320.15 -4.20712 0.623041 0
M  V30 13245 N 1318.47 -0.542005 -1.47987 0
M  V30 13246 C 1319.42 0.234244 -2.26794 0
M  V30 13247 C 1320.4 0.899085 -1.33436 0
M  V30 13248 O 1321.59 0.799904 -1.57894 0
M  V30 13249 C 1318.72 1.27312 -3.18821 0
M  V30 13250 C 1317.81 0.612457 -4.19654 0
M  V30 13251 N 1318.2 -0.30875 -5.04857 0
M  V30 13252 C 1316.5 0.868224 -4.37468 0
M  V30 13253 C 1317.2 -0.691052 -5.77581 0
M  V30 13254 N 1316.17 -0.0493574 -5.43578 0
M  V30 13255 H 1319.97 -0.47427 -2.90048 0
M  V30 13256 H 1317.49 -0.360868 -1.5834 0
M  V30 13257 H 1319.49 1.84305 -3.73948 0
M  V30 13258 H 1318.15 1.98288 -2.57122 0
M  V30 13259 H 1319.16 -0.682054 -5.13389 0
M  V30 13260 H 1315.83 1.56765 -3.86951 0
M  V30 13261 H 1317.22 -1.44713 -6.56131 0
M  V30 13262 N 1319.94 1.55134 -0.277709 0
M  V30 13263 C 1321.17 2.04061 0.341601 0
M  V30 13264 C 1321.59 1.15597 1.49274 0
M  V30 13265 O 1320.94 0.176625 1.81643 0
M  V30 13266 C 1320.99 3.52074 0.820139 0
M  V30 13267 O 1320.72 4.37171 -0.28516 0
M  V30 13268 C 1322.22 4.16899 1.507 0
M  V30 13269 H 1319.44 0.666501 0.0775708 0
M  V30 13270 H 1321.98 2.00336 -0.410559 0
M  V30 13271 H 1320.14 3.56233 1.52238 0
M  V30 13272 H 1320.55 5.24434 0.0832022 0
M  V30 13273 H 1322.02 5.22061 1.79323 0
M  V30 13274 H 1322.5 3.65227 2.43939 0
M  V30 13275 H 1323.11 4.16749 0.848541 0
M  V30 13276 N 1321.42 0.00503138 1.57599 0
M  V30 13277 C 1322.66 -0.683203 1.92644 0
M  V30 13278 C 1323.03 -1.70657 0.879778 0
M  V30 13279 O 1324.23 -2.44555 1.11563 0
M  V30 13280 C 1322.5 -1.30509 3.32719 0
M  V30 13281 S 1324.06 -2.01775 3.89657 0
M  V30 13282 H 1320.87 -0.225551 0.674276 0
M  V30 13283 H 1323.48 0.0629255 1.95399 0
M  V30 13284 H 1322.18 -0.547509 4.06731 0
M  V30 13285 H 1321.71 -2.08904 3.3335 0
M  V30 13286 H 1323.73 -3.29348 3.7114 0
M  V30 13287 N 1322.9 -1.55308 -0.267798 0
M  V30 13288 C 1324.15 -1.7642 -1.00019 0
M  V30 13289 C 1324.48 -0.566559 -1.85752 0
M  V30 13290 O 1323.75 0.435752 -1.89556 0
M  V30 13291 C 1324.04 -3.07229 -1.87836 0
M  V30 13292 C 1323.89 -4.37358 -1.05061 0
M  V30 13293 C 1325.21 -3.34113 -2.86455 0
M  V30 13294 H 1322.33 -0.641859 -0.362197 0
M  V30 13295 H 1324.97 -1.8804 -0.272188 0
M  V30 13296 H 1323.12 -2.97454 -2.49907 0
M  V30 13297 H 1324.79 -4.59098 -0.450208 0
M  V30 13298 H 1323.03 -4.32351 -0.354242 0
M  V30 13299 H 1323.71 -5.25223 -1.69838 0
M  V30 13300 H 1326.18 -3.43715 -2.34519 0
M  V30 13301 H 1325.06 -4.26896 -3.45038 0
M  V30 13302 H 1325.32 -2.54005 -3.61848 0
M  V30 13303 N 1324.38 0.532545 -1.4833 0
M  V30 13304 C 1325.62 1.29902 -1.57812 0
M  V30 13305 C 1325.98 1.90427 -0.245283 0
M  V30 13306 O 1327.18 2.67938 -0.215083 0
M  V30 13307 C 1325.45 2.36119 -2.68296 0
M  V30 13308 S 1327.01 3.22526 -2.97527 0
M  V30 13309 H 1323.83 0.441908 -0.55699 0
M  V30 13310 H 1326.43 0.606983 -1.85839 0
M  V30 13311 H 1325.14 1.90131 -3.63701 0
M  V30 13312 H 1324.67 3.10033 -2.42163 0
M  V30 13313 H 1326.68 4.36144 -2.36628 0
M  V30 13314 N 1325.86 1.36875 0.78122 0
M  V30 13315 C 1326.79 1.27738 1.90304 0
M  V30 13316 C 1327.8 0.195147 1.61626 0
M  V30 13317 O 1328.99 0.450531 1.72721 0
M  V30 13318 C 1326.09 0.950103 3.25309 0
M  V30 13319 C 1325.26 2.13589 3.81705 0
M  V30 13320 C 1324.32 1.78037 4.95166 0
M  V30 13321 O 1323.35 2.50223 5.11251 0
M  V30 13322 N 1324.55 0.718886 5.76031 0
M  V30 13323 H 1327.31 2.24397 1.98661 0
M  V30 13324 H 1324.88 1.30376 0.959883 0
M  V30 13325 H 1326.87 0.693286 3.98717 0
M  V30 13326 H 1325.44 0.0723849 3.12516 0
M  V30 13327 H 1324.66 2.55502 3.00187 0
M  V30 13328 H 1325.95 2.9279 4.16114 0
M  V30 13329 H 1325.34 0.119681 5.65573 0
M  V30 13330 H 1323.9 0.521909 6.49707 0
M  V30 13331 N 1327.33 -1.00632 1.21289 0
M  V30 13332 C 1328.27 -2.0954 0.928753 0
M  V30 13333 C 1329.28 -1.62565 -0.0875212 0
M  V30 13334 O 1330.47 -1.77912 0.144808 0
M  V30 13335 C 1327.57 -3.36844 0.37276 0
M  V30 13336 C 1326.74 -4.1291 1.44305 0
M  V30 13337 C 1325.8 -5.18506 0.896534 0
M  V30 13338 O 1324.83 -5.46841 1.57966 0
M  V30 13339 N 1326.03 -5.79781 -0.288888 0
M  V30 13340 H 1328.79 -2.34499 1.86629 0
M  V30 13341 H 1326.35 -1.17104 1.11796 0
M  V30 13342 H 1328.35 -4.04699 -0.00722737 0
M  V30 13343 H 1326.92 -3.09053 -0.469572 0
M  V30 13344 H 1326.14 -3.39876 1.99694 0
M  V30 13345 H 1327.42 -4.60508 2.16356 0
M  V30 13346 H 1326.82 -5.5911 -0.860951 0
M  V30 13347 H 1325.38 -6.48936 -0.6104 0
M  V30 13348 N 1328.81 -1.02043 -1.20104 0
M  V30 13349 C 1330.06 -0.710566 -1.89197 0
M  V30 13350 C 1330.38 0.762471 -1.79475 0
M  V30 13351 O 1329.65 1.54871 -1.19965 0
M  V30 13352 H 1328.23 -0.259839 -0.700352 0
M  V30 13353 H 1330.89 -1.29285 -1.45848 0
M  V30 13354 H 1329.99 -0.997363 -2.95735 0
M  V30 13355 N 1330.29 1.35952 -0.797165 0
M  V30 13356 C 1331.54 1.99765 -0.382794 0
M  V30 13357 C 1331.89 1.62119 1.0361 0
M  V30 13358 O 1331.18 0.869648 1.70727 0
M  V30 13359 C 1331.38 3.53986 -0.492805 0
M  V30 13360 C 1331.21 4.06612 -1.92085 0
M  V30 13361 C 1329.98 4.36403 -2.54716 0
M  V30 13362 C 1332.18 4.25823 -2.88409 0
M  V30 13363 N 1330.16 4.749 -3.89028 0
M  V30 13364 C 1331.53 4.67211 -4.07571 0
M  V30 13365 C 1333.58 4.0801 -2.85364 0
M  V30 13366 C 1332.29 4.9265 -5.24107 0
M  V30 13367 C 1334.31 4.346 -4.01095 0
M  V30 13368 C 1333.67 4.76252 -5.19003 0
M  V30 13369 H 1329.77 0.759152 -0.18765 0
M  V30 13370 H 1332.36 1.64823 -1.03641 0
M  V30 13371 H 1330.53 3.8818 0.130762 0
M  V30 13372 H 1332.26 4.04664 -0.0539319 0
M  V30 13373 H 1329.02 4.26384 -2.06139 0
M  V30 13374 H 1329.44 4.98422 -4.58154 0
M  V30 13375 H 1334.08 3.74958 -1.95363 0
M  V30 13376 H 1331.8 5.2458 -6.14688 0
M  V30 13377 H 1335.39 4.2238 -4.00108 0
M  V30 13378 H 1334.27 4.96427 -6.07066 0
M  V30 13379 N 1331.77 0.549846 1.47697 0
M  V30 13380 C 1333 0.0276889 2.06881 0
M  V30 13381 C 1333.41 -1.26273 1.40359 0
M  V30 13382 O 1332.77 -1.75584 0.497644 0
M  V30 13383 C 1332.82 -0.179291 3.61055 0
M  V30 13384 O 1332.54 1.06002 4.25083 0
M  V30 13385 C 1334.04 -0.739571 4.37087 0
M  V30 13386 H 1331.26 0.0425016 0.669653 0
M  V30 13387 H 1333.81 0.761158 1.89807 0
M  V30 13388 H 1331.96 -0.862867 3.77668 0
M  V30 13389 H 1332.37 0.853137 5.17515 0
M  V30 13390 H 1333.85 -0.833722 5.45668 0
M  V30 13391 H 1334.33 -1.74915 4.02867 0
M  V30 13392 H 1334.93 -0.0919294 4.25201 0
M  V30 13393 N 1333.25 -1.54984 0.285932 0
M  V30 13394 C 1334.49 -1.99436 -0.32709 0
M  V30 13395 C 1334.82 -1.17582 -1.55562 0
M  V30 13396 O 1334.09 -0.268002 -1.94058 0
M  V30 13397 H 1332.67 -0.736662 -0.123846 0
M  V30 13398 H 1335.33 -1.90881 0.393774 0
M  V30 13399 H 1334.42 -3.0609 -0.609523 0
M  V30 13400 N 1334.72 -0.0133892 -1.57594 0
M  V30 13401 C 1335.67 0.991796 -2.10395 0
M  V30 13402 C 1336.67 1.34724 -1.02693 0
M  V30 13403 O 1337.87 1.33131 -1.21145 0
M  V30 13404 H 1334.25 0.337553 -0.671984 0
M  V30 13405 H 1336.22 0.52102 -2.93816 0
M  V30 13406 C 1334.97 2.27039 -2.63341 0
M  V30 13407 H 1334.29 2.00559 -3.45855 0
M  V30 13408 H 1335.73 2.95619 -3.0395 0
M  V30 13409 C 1334.19 2.98939 -1.55362 0
M  V30 13410 O 1334.72 3.90444 -0.944282 0
M  V30 13411 N 1332.93 2.60997 -1.27784 0
M  V30 13412 H 1332.47 1.86666 -1.77521 0
M  V30 13413 H 1332.43 3.09416 -0.557585 0
M  V30 13414 N 1336.2 1.55448 0.259558 0
M  V30 13415 C 1337.45 1.76337 0.987396 0
M  V30 13416 C 1337.77 0.57505 1.86328 0
M  V30 13417 O 1337.04 -0.409621 1.9157 0
M  V30 13418 H 1335.62 0.650312 0.367565 0
M  V30 13419 H 1338.28 1.9287 0.280551 0
M  V30 13420 H 1337.38 2.66975 1.61651 0
M  V30 13421 N 1337.68 -0.524672 1.4861 0
M  V30 13422 C 1339.1 -0.853703 1.34848 0
M  V30 13423 C 1339.3 -1.98194 0.363529 0
M  V30 13424 O 1338.35 -2.51597 -0.213348 0
M  V30 13425 C 1339.67 -1.21622 2.75006 0
M  V30 13426 C 1341.21 -1.3258 2.83534 0
M  V30 13427 C 1341.69 -1.72172 4.24406 0
M  V30 13428 N 1343.18 -1.79265 4.27105 0
M  V30 13429 C 1343.91 -2.11296 5.33049 0
M  V30 13430 N 1343.41 -2.41714 6.49266 0
M  V30 13431 N 1345.2 -2.12347 5.20447 0
M  V30 13432 H 1337.35 0.219671 2.11261 0
M  V30 13433 H 1339.62 0.0356444 0.94733 0
M  V30 13434 H 1339.32 -0.460776 3.48669 0
M  V30 13435 H 1339.2 -2.16516 3.0887 0
M  V30 13436 H 1341.58 -2.072 2.10124 0
M  V30 13437 H 1341.67 -0.357943 2.53283 0
M  V30 13438 H 1341.31 -0.981108 4.98334 0
M  V30 13439 H 1341.24 -2.70017 4.52104 0
M  V30 13440 H 1343.73 -1.58013 3.43279 0
M  V30 13441 H 1344.04 -2.65276 7.25843 0
M  V30 13442 H 1342.39 -2.39222 6.52532 0
M  V30 13443 H 1345.58 -1.88044 4.28669 0
M  V30 13444 H 1345.75 -2.36978 6.03113 0
M  V30 13445 N 1339.16 -1.37287 -0.77395 0
M  V30 13446 C 1340.44 -1.2291 -1.52159 0
M  V30 13447 C 1340.82 0.178249 -2.10346 0
M  V30 13448 O 1340.16 1.18564 -1.95333 0
M  V30 13449 C 1340.37 -2.32337 -2.60424 0
M  V30 13450 C 1341.72 -2.69769 -3.27887 0
M  V30 13451 O 1342.75 -2.31497 -2.70717 0
M  V30 13452 O 1341.6 -3.35699 -4.31241 0
M  V30 13453 H 1338.7 -0.47948 -0.673816 0
M  V30 13454 H 1341.24 -1.49061 -0.811105 0
M  V30 13455 H 1340.02 -3.26591 -2.15532 0
M  V30 13456 H 1339.64 -2.07638 -3.39076 0
M  V30 13457 N 1340.64 0.999871 -1.21821 0
M  V30 13458 C 1341.88 1.75366 -1.05005 0
M  V30 13459 C 1342.24 1.87601 0.408656 0
M  V30 13460 O 1343.44 2.59593 0.697479 0
M  V30 13461 C 1341.71 3.12525 -1.73387 0
M  V30 13462 S 1343.27 4.0373 -1.71894 0
M  V30 13463 H 1340.09 0.603334 -0.376177 0
M  V30 13464 H 1342.69 1.19598 -1.5465 0
M  V30 13465 H 1341.4 3.01258 -2.78697 0
M  V30 13466 H 1340.93 3.73365 -1.23944 0
M  V30 13467 H 1342.94 4.90288 -0.763668 0
M  V30 13468 N 1342.11 1.02678 1.19562 0
M  V30 13469 C 1343.34 0.741424 1.93695 0
M  V30 13470 C 1343.76 -0.693203 1.74861 0
M  V30 13471 O 1343.12 -1.47833 1.04953 0
M  V30 13472 C 1343.17 1.09514 3.43568 0
M  V30 13473 O 1342.27 0.212596 4.11852 0
M  V30 13474 H 1341.62 0.274128 0.604773 0
M  V30 13475 H 1344.15 1.37289 1.517 0
M  V30 13476 H 1344.16 1.05115 3.94227 0
M  V30 13477 H 1342.83 2.14034 3.56598 0
M  V30 13478 H 1341.41 0.315 3.71567 0
M  V30 13479 N 1343.59 -1.35528 0.804364 0
M  V30 13480 C 1344.5 -2.33616 0.214663 0
M  V30 13481 C 1345.52 -1.61757 -0.64115 0
M  V30 13482 O 1346.69 -1.93647 -0.553424 0
M  V30 13483 C 1343.76 -3.40951 -0.628778 0
M  V30 13484 C 1342.82 -4.28587 0.247269 0
M  V30 13485 C 1342.05 -5.30796 -0.556012 0
M  V30 13486 O 1342.28 -5.41557 -1.79088 0
M  V30 13487 O 1341.21 -6.01878 0.0519437 0
M  V30 13488 H 1345.04 -2.85843 1.02605 0
M  V30 13489 H 1342.62 -1.38259 0.566108 0
M  V30 13490 H 1344.5 -4.06538 -1.10926 0
M  V30 13491 H 1343.18 -2.90999 -1.4178 0
M  V30 13492 H 1342.09 -3.65988 0.774835 0
M  V30 13493 H 1343.42 -4.81931 1.00017 0
M  V30 13494 N 1345.07 -0.557671 -1.47404 0
M  V30 13495 C 1346.32 -0.0316382 -2.01675 0
M  V30 13496 C 1346.63 1.32656 -1.43742 0
M  V30 13497 O 1347.84 1.94253 -1.89678 0
M  V30 13498 C 1346.3 -0.00606931 -3.59899 0
M  V30 13499 C 1345.9 -1.36106 -4.26825 0
M  V30 13500 C 1347.65 0.467332 -4.2192 0
M  V30 13501 C 1345.55 -1.29457 -5.77057 0
M  V30 13502 H 1344.48 -0.00805738 -0.753957 0
M  V30 13503 H 1347.14 -0.705592 -1.69392 0
M  V30 13504 H 1345.52 0.733541 -3.89147 0
M  V30 13505 H 1346.69 -2.11842 -4.09218 0
M  V30 13506 H 1345.01 -1.77243 -3.76794 0
M  V30 13507 H 1347.6 0.535478 -5.32012 0
M  V30 13508 H 1347.95 1.47942 -3.89126 0
M  V30 13509 H 1348.48 -0.217434 -3.97205 0
M  V30 13510 H 1345.22 -2.28267 -6.14471 0
M  V30 13511 H 1344.74 -0.579022 -5.96999 0
M  V30 13512 H 1346.42 -0.996834 -6.39275 0
M  V30 13513 N 1346.55 1.54831 -0.294147 0
M  V30 13514 C 1347.5 2.24707 0.600795 0
M  V30 13515 C 1348.49 1.25067 1.14257 0
M  V30 13516 O 1349.7 1.42939 1.094 0
M  V30 13517 H 1346.07 0.721399 0.212338 0
M  V30 13518 H 1348.04 2.98398 -0.0111682 0
M  V30 13519 C 1346.79 2.996 1.76451 0
M  V30 13520 H 1346.12 3.76072 1.35684 0
M  V30 13521 H 1347.56 3.51785 2.36692 0
M  V30 13522 C 1346.01 2.0617 2.6645 0
M  V30 13523 O 1346.54 1.62527 3.67353 0
M  V30 13524 N 1344.75 1.7227 2.34033 0
M  V30 13525 H 1344.3 2.07957 1.52025 0
M  V30 13526 H 1344.26 1.10031 2.94518 0
M  V30 13527 N 1348.03 0.0217466 1.57585 0
M  V30 13528 C 1348.98 -0.980624 2.10918 0
M  V30 13529 C 1349.97 -1.34178 1.03406 0
M  V30 13530 O 1351.18 -1.32487 1.21849 0
M  V30 13531 H 1347.55 -0.333984 0.673764 0
M  V30 13532 H 1349.52 -0.505431 2.94088 0
M  V30 13533 C 1348.27 -2.25639 2.64542 0
M  V30 13534 H 1347.59 -1.98722 3.46914 0
M  V30 13535 H 1349.03 -2.94003 3.05513 0
M  V30 13536 C 1347.49 -2.98111 1.56945 0
M  V30 13537 O 1348.02 -3.89937 0.964975 0
M  V30 13538 N 1346.23 -2.60316 1.29166 0
M  V30 13539 H 1345.78 -1.85722 1.78508 0
M  V30 13540 H 1345.73 -3.09116 0.573987 0
M  V30 13541 N 1349.51 -1.55583 -0.251311 0
M  V30 13542 C 1350.75 -1.7897 -0.987372 0
M  V30 13543 C 1351.11 -0.590559 -1.82692 0
M  V30 13544 O 1352.31 -0.703109 -2.59441 0
M  V30 13545 C 1350.58 -3.07069 -1.82876 0
M  V30 13546 S 1352.14 -3.51659 -2.62452 0
M  V30 13547 H 1348.96 -0.628624 -0.332194 0
M  V30 13548 H 1351.56 -1.93821 -0.255653 0
M  V30 13549 H 1350.26 -3.92415 -1.20161 0
M  V30 13550 H 1349.8 -2.94943 -2.60331 0
M  V30 13551 H 1351.81 -3.12644 -3.85316 0
M  V30 13552 N 1350.98 0.516783 -1.48886 0
M  V30 13553 C 1351.91 1.62897 -1.67292 0
M  V30 13554 C 1352.89 1.61903 -0.521671 0
M  V30 13555 O 1354.08 1.78892 -0.755728 0
M  V30 13556 C 1351.21 3.01444 -1.72478 0
M  V30 13557 C 1350.16 3.173 -2.87236 0
M  V30 13558 C 1349.49 4.5704 -2.77522 0
M  V30 13559 C 1350.79 2.98818 -4.28375 0
M  V30 13560 H 1352.48 1.47748 -2.60405 0
M  V30 13561 H 1350.03 0.709361 -1.25316 0
M  V30 13562 H 1351.98 3.79135 -1.83942 0
M  V30 13563 H 1350.71 3.17645 -0.759538 0
M  V30 13564 H 1349.37 2.4203 -2.75349 0
M  V30 13565 H 1349.01 4.70096 -1.78938 0
M  V30 13566 H 1348.71 4.68593 -3.54534 0
M  V30 13567 H 1350.24 5.36813 -2.90972 0
M  V30 13568 H 1351.65 3.66291 -4.41026 0
M  V30 13569 H 1350.05 3.21854 -5.06488 0
M  V30 13570 H 1351.12 1.95102 -4.43918 0
M  V30 13571 N 1352.46 1.37696 0.766659 0
M  V30 13572 C 1353.39 1.36576 1.89392 0
M  V30 13573 C 1354.37 0.233597 1.68488 0
M  V30 13574 O 1355.56 0.434719 1.89272 0
M  V30 13575 C 1352.69 1.17705 3.26746 0
M  V30 13576 C 1351.64 2.27987 3.62224 0
M  V30 13577 C 1350.97 1.94235 4.98174 0
M  V30 13578 C 1352.27 3.70195 3.68447 0
M  V30 13579 H 1353.96 2.30905 1.90587 0
M  V30 13580 H 1351.51 1.11148 0.915538 0
M  V30 13581 H 1353.46 1.15551 4.05248 0
M  V30 13582 H 1352.18 0.198334 3.25997 0
M  V30 13583 H 1350.84 2.29306 2.86032 0
M  V30 13584 H 1350.49 0.948796 4.93971 0
M  V30 13585 H 1350.19 2.68086 5.2288 0
M  V30 13586 H 1351.72 1.93676 5.7907 0
M  V30 13587 H 1353.13 3.70978 4.37091 0
M  V30 13588 H 1351.53 4.43142 4.04654 0
M  V30 13589 H 1352.6 4.03453 2.68986 0
M  V30 13590 N 1353.94 -0.993397 1.22349 0
M  V30 13591 C 1355.35 -1.54739 1.04465 0
M  V30 13592 C 1355.7 -1.92243 -0.392057 0
M  V30 13593 O 1354.83 -1.74707 -1.27697 0
M  V30 13594 C 1355.42 -2.81179 1.89007 0
M  V30 13595 C 1353.98 -3.33023 1.75421 0
M  V30 13596 C 1353.13 -2.06114 1.85505 0
M  V30 13597 H 1356.08 -0.814539 1.36202 0
M  V30 13598 H 1356.1 -3.53523 1.40718 0
M  V30 13599 H 1355.61 -2.53851 2.93566 0
M  V30 13600 H 1353.71 -3.6526 0.735935 0
M  V30 13601 H 1353.83 -4.03659 2.58062 0
M  V30 13602 H 1352.19 -2.19651 1.2894 0
M  V30 13603 H 1352.97 -1.81184 2.91594 0
M  V30 13604 N 1355.42 -1.03311 -1.19015 0
M  V30 13605 C 1356.64 -0.751686 -1.93299 0
M  V30 13606 C 1357.07 0.68392 -1.75226 0
M  V30 13607 O 1356.43 1.47274 -1.05736 0
M  V30 13608 C 1356.47 -1.11335 -3.42982 0
M  V30 13609 O 1355.58 -0.234434 -4.11733 0
M  V30 13610 H 1354.92 -0.277331 -0.60331 0
M  V30 13611 H 1357.45 -1.38092 -1.5097 0
M  V30 13612 H 1357.46 -1.07204 -3.93664 0
M  V30 13613 H 1356.13 -2.15922 -3.55458 0
M  V30 13614 H 1354.71 -0.3347 -3.71395 0
M  V30 13615 N 1356.9 1.35099 -0.81154 0
M  V30 13616 C 1357.86 2.28033 -0.230947 0
M  V30 13617 C 1358.86 1.49798 0.584575 0
M  V30 13618 O 1360.05 1.6949 0.402336 0
M  V30 13619 C 1357.18 3.341 0.677486 0
M  V30 13620 H 1358.37 2.80893 -1.05067 0
M  V30 13621 H 1355.93 1.45038 -0.582554 0
M  V30 13622 H 1356.66 2.86435 1.5207 0
M  V30 13623 H 1356.45 3.91986 0.0943563 0
M  V30 13624 H 1357.94 4.0345 1.07787 0
M  V30 13625 N 1358.37 0.56548 1.47106 0
M  V30 13626 C 1359.62 0.0444375 2.02051 0
M  V30 13627 C 1359.94 -1.31344 1.44131 0
M  V30 13628 O 1359.21 -1.85845 0.619556 0
M  V30 13629 H 1357.79 0.0134375 0.746879 0
M  V30 13630 H 1360.45 0.737362 1.80413 0
M  V30 13631 H 1359.55 -0.0374834 3.12077 0
M  V30 13632 N 1359.85 -1.54672 0.302354 0
M  V30 13633 C 1361.1 -1.99771 -0.305919 0
M  V30 13634 C 1361.42 -1.19225 -1.54306 0
M  V30 13635 O 1360.69 -0.288569 -1.93763 0
M  V30 13636 H 1359.27 -0.737934 -0.116026 0
M  V30 13637 H 1361.93 -1.90452 0.413997 0
M  V30 13638 H 1361.03 -3.06719 -0.577024 0
M  V30 13639 N 1361.33 -0.0301034 -1.57571 0
M  V30 13640 C 1362.57 0.652469 -1.93706 0
M  V30 13641 C 1362.93 1.69236 -0.906817 0
M  V30 13642 O 1364.14 2.42749 -1.1544 0
M  V30 13643 C 1362.41 1.25199 -3.34753 0
M  V30 13644 S 1363.97 1.9555 -3.92817 0
M  V30 13645 H 1360.78 0.214795 -0.677779 0
M  V30 13646 H 1363.39 -0.0940038 -1.95274 0
M  V30 13647 H 1362.09 0.482732 -4.07551 0
M  V30 13648 H 1361.62 2.03575 -3.36632 0
M  V30 13649 H 1363.64 3.23401 -3.76332 0
M  V30 13650 N 1362.81 1.55714 0.243056 0
M  V30 13651 C 1363.76 1.87031 1.30397 0
M  V30 13652 C 1364.74 0.731497 1.43311 0
M  V30 13653 O 1365.93 0.9935 1.46487 0
M  V30 13654 C 1363.06 2.17185 2.65868 0
M  V30 13655 C 1362.15 3.37403 2.56944 0
M  V30 13656 N 1362.54 4.56575 2.17653 0
M  V30 13657 C 1360.84 3.4059 2.87949 0
M  V30 13658 C 1361.54 5.38715 2.19455 0
M  V30 13659 N 1360.52 4.77875 2.59108 0
M  V30 13660 H 1364.32 2.76697 0.990755 0
M  V30 13661 H 1361.83 1.55992 0.451675 0
M  V30 13662 H 1363.83 2.37787 3.42437 0
M  V30 13663 H 1362.49 1.28819 2.98053 0
M  V30 13664 H 1363.5 4.82129 1.89134 0
M  V30 13665 H 1360.18 2.62506 3.24648 0
M  V30 13666 H 1361.57 6.44066 1.91385 0
M  V30 13667 N 1364.29 -0.50888 1.49158 0
M  V30 13668 C 1365.56 -1.27021 1.48745 0
M  V30 13669 C 1365.94 -2.10045 0.210772 0
M  V30 13670 O 1365.29 -2.13773 -0.807061 0
M  V30 13671 C 1365.5 -2.13367 2.76181 0
M  V30 13672 C 1366.85 -2.72815 3.25357 0
M  V30 13673 O 1367.87 -2.23639 2.77243 0
M  V30 13674 O 1366.73 -3.62316 4.09133 0
M  V30 13675 H 1363.83 -0.574387 0.594986 0
M  V30 13676 H 1366.37 -0.523798 1.61414 0
M  V30 13677 H 1365.14 -1.51941 3.60596 0
M  V30 13678 H 1364.77 -2.95215 2.66334 0
M  V30 13679 N 1365.76 -1.381 -0.759346 0
M  V30 13680 C 1366.71 -1.34972 -1.89434 0
M  V30 13681 C 1367.71 -0.236499 -1.67741 0
M  V30 13682 O 1368.91 -0.405218 -1.7538 0
M  V30 13683 H 1365.29 -0.420922 -0.62316 0
M  V30 13684 H 1367.26 -2.3076 -1.89189 0
M  V30 13685 C 1366.01 -1.18594 -3.2685 0
M  V30 13686 H 1365.33 -2.03514 -3.44125 0
M  V30 13687 H 1366.77 -1.20458 -4.06529 0
M  V30 13688 C 1365.23 0.107562 -3.36728 0
M  V30 13689 O 1365.76 1.08668 -3.86722 0
M  V30 13690 N 1363.97 0.162455 -2.90146 0
M  V30 13691 H 1363.51 -0.634985 -2.49651 0
M  V30 13692 H 1363.47 1.02751 -2.97136 0
M  V30 13693 N 1367.24 0.986894 -1.22875 0
M  V30 13694 C 1368.21 2.0597 -1.00544 0
M  V30 13695 C 1369.21 1.60771 0.0303509 0
M  V30 13696 O 1370.4 1.72945 -0.208753 0
M  V30 13697 C 1367.53 3.36911 -0.519962 0
M  V30 13698 H 1368.72 2.27213 -1.9574 0
M  V30 13699 H 1366.27 1.15935 -1.04827 0
M  V30 13700 H 1367.01 3.21355 0.436078 0
M  V30 13701 H 1366.79 3.71054 -1.26732 0
M  V30 13702 H 1368.28 4.15829 -0.384166 0
M  V30 13703 N 1368.72 1.0394 1.18466 0
M  V30 13704 C 1369.95 0.761926 1.92897 0
M  V30 13705 C 1370.37 -0.674618 1.75586 0
M  V30 13706 O 1369.73 -1.46711 1.06515 0
M  V30 13707 C 1369.78 1.13152 3.42387 0
M  V30 13708 O 1368.88 0.256266 4.11603 0
M  V30 13709 H 1368.22 0.280527 0.601831 0
M  V30 13710 H 1370.75 1.3889 1.50235 0
M  V30 13711 H 1370.76 1.0929 3.9309 0
M  V30 13712 H 1369.44 2.17804 3.54308 0
M  V30 13713 H 1368.01 0.354392 3.71212 0
M  V30 13714 N 1370.2 -1.34667 0.818693 0
M  V30 13715 C 1371.44 -2.00234 0.41056 0
M  V30 13716 C 1371.8 -1.63507 -1.00644 0
M  V30 13717 O 1373 -2.21886 -1.51723 0
M  V30 13718 C 1371.27 -3.52294 0.601968 0
M  V30 13719 S 1372.83 -4.37867 0.286055 0
M  V30 13720 H 1369.65 -0.693826 0.155325 0
M  V30 13721 H 1372.25 -1.64037 1.06359 0
M  V30 13722 H 1370.96 -3.76511 1.63302 0
M  V30 13723 H 1370.49 -3.93345 -0.0659441 0
M  V30 13724 H 1372.5 -4.87936 -0.901832 0
M  V30 13725 N 1371.68 -0.573274 -1.46804 0
M  V30 13726 C 1372.61 0.153316 -2.32996 0
M  V30 13727 C 1373.59 0.893013 -1.44773 0
M  V30 13728 O 1374.77 0.870329 -1.73606 0
M  V30 13729 C 1371.9 1.1736 -3.2687 0
M  V30 13730 C 1370.86 0.549347 -4.2446 0
M  V30 13731 C 1370.18 1.67542 -5.07773 0
M  V30 13732 C 1371.48 -0.50736 -5.1983 0
M  V30 13733 H 1373.18 -0.566305 -2.93995 0
M  V30 13734 H 1370.72 -0.273785 -1.41373 0
M  V30 13735 H 1372.68 1.6902 -3.86019 0
M  V30 13736 H 1371.4 1.92337 -2.63958 0
M  V30 13737 H 1370.06 0.0539142 -3.6656 0
M  V30 13738 H 1369.71 2.41463 -4.41253 0
M  V30 13739 H 1369.41 1.26343 -5.73856 0
M  V30 13740 H 1370.93 2.19496 -5.69784 0
M  V30 13741 H 1372.34 -0.0762061 -5.73249 0
M  V30 13742 H 1370.74 -0.839139 -5.94204 0
M  V30 13743 H 1371.81 -1.39723 -4.64333 0
M  V30 13744 N 1373.15 1.5451 -0.310553 0
M  V30 13745 C 1374.38 2.04442 0.297807 0
M  V30 13746 C 1374.79 1.18695 1.47337 0
M  V30 13747 O 1374.14 0.207405 1.82525 0
M  V30 13748 C 1374.2 3.50306 0.807851 0
M  V30 13749 C 1373.86 4.5635 -0.24369 0
M  V30 13750 C 1374.86 5.08656 -1.07539 0
M  V30 13751 C 1372.54 5.00798 -0.388138 0
M  V30 13752 C 1374.54 6.03961 -2.03738 0
M  V30 13753 C 1372.22 5.95921 -1.35357 0
M  V30 13754 C 1373.22 6.47387 -2.17667 0
M  V30 13755 O 1372.91 7.40644 -3.12571 0
M  V30 13756 H 1372.64 0.672646 0.0672525 0
M  V30 13757 H 1375.2 2.00389 -0.450948 0
M  V30 13758 H 1373.43 3.51714 1.6073 0
M  V30 13759 H 1375.12 3.83383 1.33314 0
M  V30 13760 H 1375.88 4.75105 -0.97471 0
M  V30 13761 H 1371.76 4.60361 0.242608 0
M  V30 13762 H 1375.3 6.44057 -2.68023 0
M  V30 13763 H 1371.2 6.2889 -1.45493 0
M  V30 13764 H 1371.97 7.58477 -3.0766 0
M  V30 13765 N 1374.63 0.0384594 1.57553 0
M  V30 13766 C 1375.88 -0.639085 1.92467 0
M  V30 13767 C 1376.21 -1.71239 0.916014 0
M  V30 13768 O 1375.49 -1.94408 -0.0598928 0
M  V30 13769 C 1375.77 -1.24693 3.37822 0
M  V30 13770 C 1375.62 -0.182544 4.49429 0
M  V30 13771 C 1376.94 -2.16226 3.8332 0
M  V30 13772 H 1374.06 -0.230852 0.699912 0
M  V30 13773 H 1376.7 0.0976276 1.89749 0
M  V30 13774 H 1374.85 -1.87481 3.40269 0
M  V30 13775 H 1376.53 0.448622 4.59113 0
M  V30 13776 H 1374.77 0.4909 4.31013 0
M  V30 13777 H 1375.44 -0.647626 5.48188 0
M  V30 13778 H 1377.92 -1.63413 3.82669 0
M  V30 13779 H 1376.79 -2.55705 4.85702 0
M  V30 13780 H 1377.05 -3.05722 3.19353 0
M  V30 13781 N 1376.11 -1.55841 -0.234795 0
M  V30 13782 C 1377.36 -1.77886 -0.959217 0
M  V30 13783 C 1377.68 -0.604621 -1.8539 0
M  V30 13784 O 1376.95 0.379092 -1.92197 0
M  V30 13785 H 1375.53 -0.656077 -0.357172 0
M  V30 13786 H 1378.19 -1.93292 -0.249831 0
M  V30 13787 H 1377.29 -2.69512 -1.57383 0
M  V30 13788 N 1377.59 0.500963 -1.49426 0
M  V30 13789 C 1379 1.08248 -1.52116 0
M  V30 13790 C 1379.35 1.93777 -0.30738 0
M  V30 13791 O 1378.48 2.08404 0.582805 0
M  V30 13792 C 1379.07 1.96988 -2.75647 0
M  V30 13793 C 1377.63 2.50303 -2.81115 0
M  V30 13794 C 1376.78 1.27924 -2.4603 0
M  V30 13795 H 1379.73 0.284872 -1.56122 0
M  V30 13796 H 1379.75 2.81675 -2.55811 0
M  V30 13797 H 1379.26 1.34711 -3.6397 0
M  V30 13798 H 1377.36 3.16218 -1.97072 0
M  V30 13799 H 1377.48 2.87453 -3.83286 0
M  V30 13800 H 1375.84 1.60447 -1.9781 0
M  V30 13801 H 1376.62 0.673557 -3.36628 0
M  V30 13802 N 1379.07 1.38501 0.752011 0
M  V30 13803 C 1380.32 1.34529 1.50819 0
M  V30 13804 C 1380.64 -0.0636155 1.94896 0
M  V30 13805 O 1379.91 -1.01161 1.6776 0
M  V30 13806 H 1378.49 0.49501 0.559441 0
M  V30 13807 H 1381.15 1.73196 0.893822 0
M  V30 13808 H 1380.24 1.99713 2.39835 0
M  V30 13809 N 1380.55 -0.980364 1.23396 0
M  V30 13810 C 1381.48 -2.07522 0.972991 0
M  V30 13811 C 1382.49 -1.62714 -0.0530191 0
M  V30 13812 O 1383.68 -1.77564 0.182513 0
M  V30 13813 C 1380.78 -3.35977 0.444126 0
M  V30 13814 C 1379.95 -4.09756 1.53031 0
M  V30 13815 C 1379.01 -5.16488 1.00631 0
M  V30 13816 O 1378.04 -5.43368 1.69529 0
M  V30 13817 N 1379.24 -5.80263 -0.165842 0
M  V30 13818 H 1382 -2.30487 1.91561 0
M  V30 13819 H 1379.57 -1.14706 1.14255 0
M  V30 13820 H 1381.56 -4.04624 0.078617 0
M  V30 13821 H 1380.13 -3.0998 -0.403912 0
M  V30 13822 H 1379.35 -3.35564 2.06858 0
M  V30 13823 H 1380.64 -4.55815 2.26076 0
M  V30 13824 H 1380.03 -5.60811 -0.742162 0
M  V30 13825 H 1378.59 -6.50084 -0.472614 0
M  V30 13826 N 1382.02 -1.04567 -1.17913 0
M  V30 13827 C 1382.97 -0.634939 -2.23766 0
M  V30 13828 C 1383.97 0.340723 -1.65938 0
M  V30 13829 O 1385.17 0.207467 -1.788 0
M  V30 13830 H 1381.55 -0.187129 -0.728345 0
M  V30 13831 H 1383.52 -1.53798 -2.55712 0
M  V30 13832 C 1382.27 -0.0190662 -3.47695 0
M  V30 13833 H 1381.59 -0.760881 -3.92493 0
M  V30 13834 H 1383.03 0.231035 -4.2337 0
M  V30 13835 C 1381.49 1.23246 -3.13548 0
M  V30 13836 O 1382.02 2.32262 -3.27746 0
M  V30 13837 N 1380.22 1.12768 -2.67828 0
M  V30 13838 H 1379.77 0.240547 -2.56474 0
M  V30 13839 H 1379.73 1.96594 -2.45353 0
M  V30 13840 N 1383.5 1.34231 -0.825823 0
M  V30 13841 C 1384.41 2.33245 -0.251803 0
M  V30 13842 C 1385.43 1.62756 0.615334 0
M  V30 13843 O 1386.6 1.94503 0.522547 0
M  V30 13844 C 1383.67 3.41908 0.574456 0
M  V30 13845 C 1382.73 4.2814 -0.315422 0
M  V30 13846 C 1381.96 5.31613 0.471496 0
M  V30 13847 O 1382.19 5.44337 1.70449 0
M  V30 13848 O 1381.12 6.01719 -0.147691 0
M  V30 13849 H 1384.95 2.84174 -1.07139 0
M  V30 13850 H 1382.53 1.37341 -0.588032 0
M  V30 13851 H 1384.41 4.08252 1.04444 0
M  V30 13852 H 1383.09 2.93217 1.37132 0
M  V30 13853 H 1381.99 3.64709 -0.832963 0
M  V30 13854 H 1383.33 4.80279 -1.07672 0
M  V30 13855 N 1384.98 0.581051 1.46498 0
M  V30 13856 C 1386.22 0.0686577 2.04285 0
M  V30 13857 C 1386.58 -1.2666 1.44296 0
M  V30 13858 O 1387.78 -1.86813 1.93273 0
M  V30 13859 C 1386.06 0.0021308 3.574 0
M  V30 13860 S 1387.61 -0.452928 4.36456 0
M  V30 13861 H 1384.43 0.0366686 0.710054 0
M  V30 13862 H 1387.03 0.773174 1.79561 0
M  V30 13863 H 1385.74 0.977908 3.98579 0
M  V30 13864 H 1385.27 -0.725207 3.86658 0
M  V30 13865 H 1387.28 -1.708 4.65877 0
M  V30 13866 N 1386.46 -1.54343 0.318742 0
M  V30 13867 C 1387.37 -2.27856 -0.558442 0
M  V30 13868 C 1388.38 -1.32029 -1.13333 0
M  V30 13869 O 1389.56 -1.65037 -1.15433 0
M  V30 13870 C 1386.62 -3.01842 -1.70565 0
M  V30 13871 C 1385.69 -4.13245 -1.16305 0
M  V30 13872 C 1384.92 -4.83693 -2.25559 0
M  V30 13873 O 1385.14 -4.53621 -3.4581 0
M  V30 13874 O 1384.08 -5.70708 -1.91249 0
M  V30 13875 H 1387.9 -3.03676 0.0384247 0
M  V30 13876 H 1385.49 -1.4916 0.0845936 0
M  V30 13877 H 1387.37 -3.48189 -2.37365 0
M  V30 13878 H 1386.04 -2.28902 -2.28879 0
M  V30 13879 H 1384.95 -3.71258 -0.460274 0
M  V30 13880 H 1386.28 -4.88214 -0.625111 0
M  V30 13881 N 1387.94 -0.0468143 -1.5753 0
M  V30 13882 C 1389.18 0.631887 -1.94388 0
M  V30 13883 C 1389.54 1.68265 -0.924715 0
M  V30 13884 O 1390.74 2.41511 -1.18008 0
M  V30 13885 C 1389.01 1.21642 -3.36063 0
M  V30 13886 S 1390.57 1.91373 -3.94869 0
M  V30 13887 H 1387.39 0.207594 -0.680019 0
M  V30 13888 H 1389.99 -0.11471 -1.95163 0
M  V30 13889 H 1388.69 0.439479 -4.0804 0
M  V30 13890 H 1388.23 1.99993 -3.38772 0
M  V30 13891 H 1390.24 3.19392 -3.79741 0
M  V30 13892 N 1389.41 1.55964 0.226527 0
M  V30 13893 C 1390.36 1.92007 1.28069 0
M  V30 13894 C 1391.33 0.776666 1.46823 0
M  V30 13895 O 1392.52 1.03213 1.60474 0
M  V30 13896 C 1389.66 2.23784 2.62707 0
M  V30 13897 C 1388.77 3.51034 2.51792 0
M  V30 13898 C 1387.9 3.72281 3.7892 0
M  V30 13899 C 1386.94 4.93062 3.62707 0
M  V30 13900 N 1386.08 5.10725 4.81772 0
M  V30 13901 H 1390.92 2.81898 0.96631 0
M  V30 13902 H 1388.46 1.39529 0.465847 0
M  V30 13903 H 1390.42 2.40217 3.41104 0
M  V30 13904 H 1389.05 1.37073 2.92251 0
M  V30 13905 H 1388.1 3.42822 1.64856 0
M  V30 13906 H 1389.41 4.39582 2.35731 0
M  V30 13907 H 1388.56 3.88783 4.6576 0
M  V30 13908 H 1387.3 2.82004 3.97901 0
M  V30 13909 H 1386.31 4.76515 2.7425 0
M  V30 13910 H 1387.53 5.84819 3.45201 0
M  V30 13911 H 1385.48 4.2339 5.01076 0
M  V30 13912 H 1385.4 5.93397 4.68419 0
M  V30 13913 H 1386.66 5.31658 5.70053 0
M  V30 13914 N 1390.89 -0.493031 1.4969 0
M  V30 13915 C 1391.84 -1.59367 1.66945 0
M  V30 13916 C 1392.81 -1.58049 0.510842 0
M  V30 13917 O 1393.99 -1.75915 0.738822 0
M  V30 13918 C 1391.13 -2.97472 1.74941 0
M  V30 13919 C 1390.25 -3.08745 3.02159 0
M  V30 13920 C 1389.38 -4.37632 3.01085 0
M  V30 13921 C 1388.42 -4.42567 4.22849 0
M  V30 13922 N 1387.56 -5.62892 4.19639 0
M  V30 13923 H 1392.4 -1.4396 2.6092 0
M  V30 13924 H 1389.94 -0.700297 1.29361 0
M  V30 13925 H 1391.89 -3.7753 1.77558 0
M  V30 13926 H 1390.52 -3.11564 0.844252 0
M  V30 13927 H 1389.58 -2.217 3.09117 0
M  V30 13928 H 1390.89 -3.08251 3.92151 0
M  V30 13929 H 1390.04 -5.26018 3.02309 0
M  V30 13930 H 1388.78 -4.40702 2.08885 0
M  V30 13931 H 1387.79 -3.52581 4.21861 0
M  V30 13932 H 1389.01 -4.41205 5.1625 0
M  V30 13933 H 1386.96 -5.6679 3.30281 0
M  V30 13934 H 1386.87 -5.64048 5.03374 0
M  V30 13935 H 1388.14 -6.53464 4.24977 0
M  V30 13936 N 1392.37 -1.38898 -0.744656 0
M  V30 13937 C 1393.62 -1.35327 -1.50104 0
M  V30 13938 C 1393.94 0.0532788 -1.94927 0
M  V30 13939 O 1393.21 1.0027 -1.68294 0
M  V30 13940 H 1391.79 -0.49797 -0.556808 0
M  V30 13941 H 1394.45 -1.73667 -0.884625 0
M  V30 13942 H 1393.55 -2.00983 -2.38773 0
M  V30 13943 N 1393.85 0.973806 -1.23914 0
M  V30 13944 C 1395.1 1.71598 -1.07519 0
M  V30 13945 C 1395.42 1.90613 0.386926 0
M  V30 13946 O 1394.68 1.46056 1.30254 0
M  V30 13947 C 1394.98 3.11441 -1.75326 0
M  V30 13948 C 1394.64 3.12286 -3.25251 0
M  V30 13949 C 1393.31 3.12224 -3.66155 0
M  V30 13950 C 1395.66 3.0709 -4.21124 0
M  V30 13951 C 1392.99 3.0469 -5.01379 0
M  V30 13952 C 1395.34 3.01098 -5.56348 0
M  V30 13953 C 1394 2.99362 -5.96606 0
M  V30 13954 H 1393.27 0.627922 -0.39344 0
M  V30 13955 H 1395.92 1.13912 -1.53936 0
M  V30 13956 H 1394.22 3.72555 -1.21286 0
M  V30 13957 H 1395.92 3.67649 -1.60111 0
M  V30 13958 H 1392.51 3.13096 -2.92693 0
M  V30 13959 H 1396.69 3.06272 -3.90527 0
M  V30 13960 H 1391.95 3.01703 -5.31776 0
M  V30 13961 H 1396.12 2.96036 -6.30346 0
M  V30 13962 H 1393.75 2.93279 -7.0135 0
M  V30 13963 N 1395.33 1.05191 1.17357 0
M  V30 13964 C 1396.74 0.773255 1.39617 0
M  V30 13965 C 1396.94 -0.632346 1.91321 0
M  V30 13966 O 1396 -1.39475 2.10483 0
M  V30 13967 C 1397.31 1.82885 2.38692 0
M  V30 13968 C 1398.86 1.85106 2.52398 0
M  V30 13969 C 1399.33 2.89689 3.54746 0
M  V30 13970 N 1400.83 2.88651 3.62263 0
M  V30 13971 C 1401.56 3.66221 4.41214 0
M  V30 13972 N 1401.06 4.53577 5.23679 0
M  V30 13973 N 1402.85 3.54661 4.36087 0
M  V30 13974 H 1395 1.9588 0.82127 0
M  V30 13975 H 1397.26 0.848187 0.423417 0
M  V30 13976 H 1396.97 2.83766 2.07773 0
M  V30 13977 H 1396.84 1.67047 3.38194 0
M  V30 13978 H 1399.23 0.848896 2.82627 0
M  V30 13979 H 1399.31 2.05022 1.5297 0
M  V30 13980 H 1398.96 3.90091 3.25255 0
M  V30 13981 H 1398.89 2.67025 4.53878 0
M  V30 13982 H 1401.38 2.25312 3.03386 0
M  V30 13983 H 1401.69 5.09449 5.81104 0
M  V30 13984 H 1400.03 4.57638 5.23061 0
M  V30 13985 H 1403.23 2.8581 3.70716 0
M  V30 13986 H 1403.4 4.15361 4.97372 0
M  V30 13987 N 1396.8 -1.33791 0.83293 0
M  V30 13988 C 1398.05 -1.97582 0.42494 0
M  V30 13989 C 1398.37 -1.66328 -1.01784 0
M  V30 13990 O 1397.64 -0.959141 -1.70814 0
M  V30 13991 H 1396.22 -0.730923 0.154143 0
M  V30 13992 H 1398.89 -1.63257 1.06458 0
M  V30 13993 H 1397.98 -3.07177 0.552127 0
M  V30 13994 N 1398.28 -0.588812 -1.46187 0
M  V30 13995 C 1399.23 0.153638 -2.32092 0
M  V30 13996 C 1400.22 0.878346 -1.4485 0
M  V30 13997 O 1401.43 0.796042 -1.61441 0
M  V30 13998 H 1397.81 0.0684129 -0.748882 0
M  V30 13999 H 1399.78 -0.58961 -2.92517 0
M  V30 14000 C 1398.53 1.15003 -3.28131 0
M  V30 14001 H 1397.85 0.601804 -3.95245 0
M  V30 14002 H 1399.29 1.6398 -3.91007 0
M  V30 14003 C 1397.75 2.21411 -2.53926 0
M  V30 14004 O 1398.28 3.28862 -2.30679 0
M  V30 14005 N 1396.48 1.96184 -2.14383 0
M  V30 14006 H 1396.03 1.08812 -2.3349 0
M  V30 14007 H 1395.99 2.6759 -1.65055 0
M  V30 14008 N 1399.76 1.54172 -0.326923 0
M  V30 14009 C 1401.01 2.00233 0.274098 0
M  V30 14010 C 1401.33 1.21665 1.5239 0
M  V30 14011 O 1400.6 0.319359 1.93279 0
M  V30 14012 H 1399.18 0.739687 0.104271 0
M  V30 14013 H 1401.84 1.8977 -0.444244 0
M  V30 14014 H 1400.94 3.07599 0.528154 0
M  V30 14015 N 1401.24 0.0551678 1.57503 0
M  V30 14016 C 1402.49 -0.617201 1.92025 0
M  V30 14017 C 1402.8 -1.71767 0.93571 0
M  V30 14018 O 1404.01 -2.44847 1.17312 0
M  V30 14019 C 1402.46 -1.14915 3.41061 0
M  V30 14020 C 1402.07 -0.0805814 4.47928 0
M  V30 14021 C 1403.81 -1.79654 3.8461 0
M  V30 14022 C 1401.72 -0.625639 5.88081 0
M  V30 14023 H 1400.65 -0.23431 0.716669 0
M  V30 14024 H 1403.3 0.124706 1.83076 0
M  V30 14025 H 1401.68 -1.9435 3.45028 0
M  V30 14026 H 1402.86 0.693222 4.55556 0
M  V30 14027 H 1401.17 0.469581 4.13744 0
M  V30 14028 H 1403.77 -2.21436 4.86693 0
M  V30 14029 H 1404.11 -2.64987 3.21073 0
M  V30 14030 H 1404.65 -1.06868 3.83176 0
M  V30 14031 H 1401.39 0.190148 6.55224 0
M  V30 14032 H 1400.91 -1.36734 5.84007 0
M  V30 14033 H 1402.58 -1.10728 6.37454 0
M  V30 14034 N 1402.72 -1.56081 -0.218252 0
M  V30 14035 C 1403.99 -1.70043 -0.966684 0
M  V30 14036 C 1404.37 -0.603372 -2.02293 0
M  V30 14037 O 1403.72 0.389138 -2.25162 0
M  V30 14038 C 1403.93 -3.11484 -1.57413 0
M  V30 14039 C 1405.28 -3.70995 -2.06513 0
M  V30 14040 O 1406.3 -3.14466 -1.67301 0
M  V30 14041 O 1405.16 -4.70156 -2.78596 0
M  V30 14042 H 1402.26 -0.692691 -0.451784 0
M  V30 14043 H 1404.8 -1.68398 -0.209774 0
M  V30 14044 H 1403.57 -3.8279 -0.811614 0
M  V30 14045 H 1403.2 -3.1726 -2.3965 0
M  V30 14046 N 1404.2 0.485086 -1.49949 0
M  V30 14047 C 1405.44 1.24816 -1.61865 0
M  V30 14048 C 1405.8 1.8955 -0.305741 0
M  V30 14049 O 1407 2.67118 -0.300216 0
M  V30 14050 C 1405.27 2.27464 -2.75672 0
M  V30 14051 S 1406.83 3.12898 -3.07637 0
M  V30 14052 H 1403.65 0.423964 -0.570767 0
M  V30 14053 H 1406.25 0.547552 -1.87676 0
M  V30 14054 H 1404.95 1.78464 -3.69566 0
M  V30 14055 H 1404.49 3.02172 -2.51904 0
M  V30 14056 H 1406.5 4.28395 -2.50384 0
M  V30 14057 N 1405.67 1.39291 0.737279 0
M  V30 14058 C 1406.58 1.40098 1.88175 0
M  V30 14059 C 1407.6 0.296053 1.71463 0
M  V30 14060 O 1408.78 0.537153 1.94105 0
M  V30 14061 C 1405.84 1.24071 3.2374 0
M  V30 14062 C 1404.9 2.44515 3.52861 0
M  V30 14063 C 1404.13 2.29243 4.81958 0
M  V30 14064 O 1404.36 1.2947 5.55512 0
M  V30 14065 O 1403.29 3.18178 5.10927 0
M  V30 14066 H 1407.12 2.36565 1.90449 0
M  V30 14067 H 1404.7 1.20382 0.884786 0
M  V30 14068 H 1406.58 1.17257 4.04758 0
M  V30 14069 H 1405.26 0.30698 3.22241 0
M  V30 14070 H 1404.17 2.56905 2.71939 0
M  V30 14071 H 1405.5 3.36573 3.59137 0
M  V30 14072 N 1407.15 -0.967221 1.24429 0
M  V30 14073 C 1408.56 -1.52488 1.07723 0
M  V30 14074 C 1408.91 -1.93031 -0.351191 0
M  V30 14075 O 1408.04 -1.77376 -1.23963 0
M  V30 14076 C 1408.63 -2.77107 1.94929 0
M  V30 14077 C 1407.19 -3.29227 1.82446 0
M  V30 14078 C 1406.34 -2.02133 1.89835 0
M  V30 14079 H 1409.29 -0.785465 1.37899 0
M  V30 14080 H 1409.31 -3.50459 1.48186 0
M  V30 14081 H 1408.82 -2.47567 2.98885 0
M  V30 14082 H 1406.92 -3.63617 0.813246 0
M  V30 14083 H 1407.04 -3.98095 2.66566 0
M  V30 14084 H 1405.4 -2.16867 1.3357 0
M  V30 14085 H 1406.18 -1.74958 2.95372 0
M  V30 14086 N 1408.63 -1.05812 -1.16797 0
M  V30 14087 C 1409.88 -0.767008 -1.86547 0
M  V30 14088 C 1410.19 0.708979 -1.82299 0
M  V30 14089 O 1411.4 1.11428 -2.4758 0
M  V30 14090 C 1409.85 -1.32186 -3.34746 0
M  V30 14091 C 1409.46 -2.82774 -3.4748 0
M  V30 14092 C 1411.21 -1.10808 -4.09783 0
M  V30 14093 C 1409.11 -3.31529 -4.89737 0
M  V30 14094 H 1408.04 -0.283235 -0.698781 0
M  V30 14095 H 1410.69 -1.27621 -1.31853 0
M  V30 14096 H 1409.08 -0.740453 -3.89016 0
M  V30 14097 H 1410.25 -3.46825 -3.03396 0
M  V30 14098 H 1408.56 -3.02765 -2.85871 0
M  V30 14099 H 1411.16 -1.44728 -5.14741 0
M  V30 14100 H 1411.5 -0.046167 -4.16274 0
M  V30 14101 H 1412.04 -1.65502 -3.61737 0
M  V30 14102 H 1408.78 -4.37177 -4.88422 0
M  V30 14103 H 1408.3 -2.72224 -5.34466 0
M  V30 14104 H 1409.98 -3.26572 -5.58534 0
M  V30 14105 N 1410.11 1.33347 -0.840014 0
M  V30 14106 C 1411.34 2.01952 -0.449793 0
M  V30 14107 C 1411.75 1.63197 0.949317 0
M  V30 14108 O 1411.11 0.84589 1.61713 0
M  V30 14109 C 1411.16 3.57102 -0.562178 0
M  V30 14110 O 1410.88 3.94458 -1.90616 0
M  V30 14111 C 1412.38 4.42978 -0.169062 0
M  V30 14112 H 1409.6 0.646843 -0.178425 0
M  V30 14113 H 1412.14 1.70251 -1.1329 0
M  V30 14114 H 1410.3 3.87331 0.0730345 0
M  V30 14115 H 1410.71 4.89167 -1.8925 0
M  V30 14116 H 1412.19 5.51191 -0.298742 0
M  V30 14117 H 1412.66 4.30106 0.889137 0
M  V30 14118 H 1413.27 4.18109 -0.778756 0
M  V30 14119 N 1411.59 0.596556 1.45873 0
M  V30 14120 C 1412.81 0.0916466 2.07197 0
M  V30 14121 C 1413.24 -1.21004 1.44012 0
M  V30 14122 O 1412.59 -1.73415 0.528844 0
M  V30 14123 C 1412.64 -0.0461457 3.6057 0
M  V30 14124 O 1411.75 -1.09919 3.97481 0
M  V30 14125 H 1411.09 0.0690655 0.660398 0
M  V30 14126 H 1413.62 0.823434 1.87299 0
M  V30 14127 H 1413.63 -0.2479 4.07246 0
M  V30 14128 H 1412.3 0.904381 4.05948 0
M  V30 14129 H 1410.88 -0.874788 3.62494 0
M  V30 14130 N 1413.06 -1.53996 0.335095 0
M  V30 14131 C 1414.3 -2.02682 -0.264447 0
M  V30 14132 C 1414.67 -1.21779 -1.48438 0
M  V30 14133 O 1415.87 -1.60322 -2.15755 0
M  V30 14134 C 1414.14 -3.52678 -0.579072 0
M  V30 14135 S 1415.7 -4.23282 -1.15663 0
M  V30 14136 H 1412.52 -0.706566 -0.0792826 0
M  V30 14137 H 1415.12 -1.89744 0.470895 0
M  V30 14138 H 1413.82 -4.09176 0.316756 0
M  V30 14139 H 1413.35 -3.69719 -1.34431 0
M  V30 14140 H 1415.37 -4.31903 -2.44284 0
M  V30 14141 N 1414.54 -0.0635198 -1.57472 0
M  V30 14142 C 1415.47 0.90431 -2.15278 0
M  V30 14143 C 1416.45 1.31609 -1.07764 0
M  V30 14144 O 1417.64 1.38861 -1.35762 0
M  V30 14145 C 1414.77 2.17483 -2.70774 0
M  V30 14146 C 1413.72 1.90272 -3.8338 0
M  V30 14147 C 1413.05 3.23885 -4.25444 0
M  V30 14148 C 1414.35 1.21454 -5.07983 0
M  V30 14149 H 1416.04 0.422786 -2.964 0
M  V30 14150 H 1413.59 0.201918 -1.42577 0
M  V30 14151 H 1415.54 2.856 -3.09856 0
M  V30 14152 H 1414.26 2.67863 -1.86861 0
M  V30 14153 H 1412.92 1.24564 -3.44789 0
M  V30 14154 H 1412.57 3.72089 -3.38465 0
M  V30 14155 H 1412.27 3.06472 -5.01347 0
M  V30 14156 H 1413.8 3.93212 -4.67137 0
M  V30 14157 H 1415.21 1.79625 -5.44433 0
M  V30 14158 H 1413.61 1.14327 -5.89109 0
M  V30 14159 H 1414.68 0.19238 -4.84518 0
M  V30 14160 N 1416.02 1.56195 0.209972 0
M  V30 14161 C 1416.93 1.96539 1.28101 0
M  V30 14162 C 1417.95 0.870858 1.50639 0
M  V30 14163 O 1419.12 1.17539 1.63544 0
M  V30 14164 C 1416.19 2.28392 2.60841 0
M  V30 14165 C 1415.25 3.51474 2.46505 0
M  V30 14166 C 1414.48 3.81798 3.72915 0
M  V30 14167 O 1414.7 3.13627 4.76439 0
M  V30 14168 O 1413.64 4.75264 3.69334 0
M  V30 14169 H 1417.46 2.87838 0.968671 0
M  V30 14170 H 1415.05 1.43556 0.413777 0
M  V30 14171 H 1416.93 2.50022 3.39215 0
M  V30 14172 H 1415.61 1.40264 2.91732 0
M  V30 14173 H 1414.51 3.35109 1.66292 0
M  V30 14174 H 1415.85 4.40021 2.2055 0
M  V30 14175 N 1417.5 -0.477127 1.50204 0
M  V30 14176 C 1418.43 -1.59319 1.64773 0
M  V30 14177 C 1419.44 -1.53951 0.529427 0
M  V30 14178 O 1420.63 -1.59449 0.802388 0
M  V30 14179 C 1417.73 -2.98185 1.61055 0
M  V30 14180 C 1416.9 -3.28486 2.88817 0
M  V30 14181 C 1415.96 -4.46878 2.77825 0
M  V30 14182 O 1414.99 -4.47483 3.51778 0
M  V30 14183 N 1416.19 -5.48187 1.90974 0
M  V30 14184 H 1418.96 -1.4724 2.61037 0
M  V30 14185 H 1416.52 -0.66544 1.47592 0
M  V30 14186 H 1418.51 -3.75345 1.51323 0
M  V30 14187 H 1417.08 -3.04064 0.725509 0
M  V30 14188 H 1416.3 -2.39997 3.12722 0
M  V30 14189 H 1417.59 -3.4554 3.7347 0
M  V30 14190 H 1416.99 -5.50515 1.30192 0
M  V30 14191 H 1415.54 -6.24355 1.87148 0
M  V30 14192 N 1418.98 -1.3968 -0.729882 0
M  V30 14193 C 1420.2 -1.40467 -1.5191 0
M  V30 14194 C 1420.62 -0.000529943 -1.888 0
M  V30 14195 O 1419.98 0.972072 -1.54457 0
M  V30 14196 C 1420.03 -2.2823 -2.80345 0
M  V30 14197 O 1419.75 -3.63176 -2.4502 0
M  V30 14198 C 1421.25 -2.37455 -3.74339 0
M  V30 14199 H 1418.47 -0.479604 -0.469277 0
M  V30 14200 H 1421.01 -1.83558 -0.901484 0
M  V30 14201 H 1419.17 -1.88538 -3.38426 0
M  V30 14202 H 1419.58 -4.0964 -3.2756 0
M  V30 14203 H 1421.06 -3.031 -4.6134 0
M  V30 14204 H 1421.53 -1.39525 -4.16449 0
M  V30 14205 H 1422.14 -2.77638 -3.22176 0
M  V30 14206 N 1420.45 0.960609 -1.2494 0
M  V30 14207 C 1421.7 1.70111 -1.09117 0
M  V30 14208 C 1422.02 1.91466 0.369544 0
M  V30 14209 O 1421.29 1.49749 1.26302 0
M  V30 14210 H 1419.87 0.630372 -0.400799 0
M  V30 14211 H 1422.54 1.15525 -1.56971 0
M  V30 14212 H 1421.63 2.68277 -1.5948 0
M  V30 14213 N 1421.93 1.0643 1.16234 0
M  V30 14214 C 1422.88 0.676311 2.20669 0
M  V30 14215 C 1423.85 -0.327721 1.62835 0
M  V30 14216 O 1425.03 -0.216296 1.8957 0
M  V30 14217 C 1422.17 0.0703726 3.45028 0
M  V30 14218 C 1421.29 1.12475 4.17101 0
M  V30 14219 C 1420.42 0.484806 5.28983 0
M  V30 14220 C 1419.46 1.52262 5.9286 0
M  V30 14221 N 1418.6 0.905938 6.96231 0
M  V30 14222 H 1423.44 1.57129 2.53209 0
M  V30 14223 H 1420.98 0.7856 1.24365 0
M  V30 14224 H 1422.93 -0.298488 4.16131 0
M  V30 14225 H 1421.56 -0.788002 3.13034 0
M  V30 14226 H 1420.62 1.6113 3.44589 0
M  V30 14227 H 1421.93 1.91202 4.60698 0
M  V30 14228 H 1421.08 0.0630553 6.06667 0
M  V30 14229 H 1419.82 -0.334332 4.86553 0
M  V30 14230 H 1418.83 1.95425 5.13896 0
M  V30 14231 H 1420.05 2.34388 6.37369 0
M  V30 14232 H 1418 0.107536 6.55912 0
M  V30 14233 H 1417.91 1.63058 7.38206 0
M  V30 14234 H 1419.18 0.509378 7.77834 0
M  V30 14235 N 1423.41 -1.329 0.847073 0
M  V30 14236 C 1424.65 -1.99318 0.45294 0
M  V30 14237 C 1425.01 -1.65606 -0.971536 0
M  V30 14238 O 1426.22 -2.25054 -1.46983 0
M  V30 14239 C 1424.49 -3.50938 0.67656 0
M  V30 14240 S 1426.05 -4.37161 0.378869 0
M  V30 14241 H 1422.86 -0.690376 0.170008 0
M  V30 14242 H 1425.47 -1.61744 1.09814 0
M  V30 14243 H 1424.17 -3.72963 1.71252 0
M  V30 14244 H 1423.7 -3.93396 0.0175049 0
M  V30 14245 H 1425.72 -4.89739 -0.79813 0
M  V30 14246 N 1424.89 -0.604284 -1.45555 0
M  V30 14247 C 1425.84 0.137842 -2.27583 0
M  V30 14248 C 1426.82 0.841681 -1.3713 0
M  V30 14249 O 1428.01 0.732216 -1.61145 0
M  V30 14250 C 1425.14 1.13675 -3.23934 0
M  V30 14251 C 1424.23 0.433916 -4.21874 0
M  V30 14252 N 1424.62 -0.522599 -5.03093 0
M  V30 14253 C 1422.92 0.681898 -4.40756 0
M  V30 14254 C 1423.62 -0.935401 -5.7413 0
M  V30 14255 N 1422.6 -0.279863 -5.42879 0
M  V30 14256 H 1426.4 -0.596862 -2.87776 0
M  V30 14257 H 1423.91 -0.427701 -1.56667 0
M  V30 14258 H 1425.91 1.68278 -3.81429 0
M  V30 14259 H 1424.57 1.87204 -2.65301 0
M  V30 14260 H 1425.58 -0.899187 -5.10034 0
M  V30 14261 H 1422.26 1.40212 -3.93252 0
M  V30 14262 H 1423.65 -1.72412 -6.49403 0
M  V30 14263 N 1426.37 1.53816 -0.343257 0
M  V30 14264 C 1427.78 1.86169 0.140709 0
M  V30 14265 C 1428.13 1.26449 1.50017 0
M  V30 14266 O 1427.25 0.577955 2.08539 0
M  V30 14267 C 1427.85 3.37785 0.262097 0
M  V30 14268 C 1426.41 3.70016 0.690294 0
M  V30 14269 C 1425.55 2.7674 -0.17614 0
M  V30 14270 H 1428.51 1.48383 -0.562863 0
M  V30 14271 H 1428.53 3.64564 1.08964 0
M  V30 14272 H 1428.04 3.81221 -0.727481 0
M  V30 14273 H 1426.14 3.32124 1.68891 0
M  V30 14274 H 1426.25 4.76686 0.480388 0
M  V30 14275 H 1424.62 2.52263 0.351476 0
M  V30 14276 H 1425.4 3.23006 -1.16285 0
M  V30 14277 N 1427.84 0.0718701 1.57436 0
M  V30 14278 C 1428.77 -0.89288 2.15754 0
M  V30 14279 C 1429.76 -1.31036 1.0846 0
M  V30 14280 O 1430.94 -1.38139 1.36496 0
M  V30 14281 C 1428.07 -2.16044 2.71923 0
M  V30 14282 C 1427.02 -1.88236 3.84384 0
M  V30 14283 C 1426.35 -3.21624 4.27156 0
M  V30 14284 C 1427.65 -1.18758 5.0862 0
M  V30 14285 H 1429.34 -0.407061 2.9662 0
M  V30 14286 H 1426.89 -0.194354 1.42682 0
M  V30 14287 H 1428.84 -2.83952 3.11366 0
M  V30 14288 H 1427.57 -2.66868 1.88279 0
M  V30 14289 H 1426.23 -1.22734 3.45445 0
M  V30 14290 H 1425.87 -3.70289 3.40433 0
M  V30 14291 H 1425.57 -3.03809 5.02965 0
M  V30 14292 H 1427.1 -3.90729 4.69215 0
M  V30 14293 H 1428.51 -1.76735 5.45378 0
M  V30 14294 H 1426.91 -1.11201 5.89707 0
M  V30 14295 H 1427.98 -0.166682 4.84613 0
M  V30 14296 N 1429.32 -1.56304 -0.201686 0
M  V30 14297 C 1430.29 -1.93171 -1.2336 0
M  V30 14298 C 1431.29 -0.812164 -1.38782 0
M  V30 14299 O 1432.48 -1.07967 -1.36707 0
M  V30 14300 C 1429.61 -2.19997 -2.60411 0
M  V30 14301 H 1430.8 -2.85483 -0.918654 0
M  V30 14302 H 1428.35 -1.49893 -0.442935 0
M  V30 14303 H 1429.09 -1.30301 -2.96972 0
M  V30 14304 H 1428.87 -3.01574 -2.5059 0
M  V30 14305 H 1430.36 -2.49547 -3.34838 0
M  V30 14306 N 1430.8 0.469154 -1.50455 0
M  V30 14307 C 1432.03 1.24899 -1.65575 0
M  V30 14308 C 1432.45 1.85009 -0.339581 0
M  V30 14309 O 1431.81 1.67376 0.696774 0
M  V30 14310 C 1431.86 2.33205 -2.75041 0
M  V30 14311 O 1430.96 3.37898 -2.36429 0
M  V30 14312 H 1430.3 0.367362 -0.553119 0
M  V30 14313 H 1432.83 0.558083 -1.96842 0
M  V30 14314 H 1432.84 2.78487 -2.98176 0
M  V30 14315 H 1431.52 1.88826 -3.70564 0
M  V30 14316 H 1430.09 2.98314 -2.23748 0
M  V30 14317 N 1432.28 1.40065 0.722464 0
M  V30 14318 C 1433.52 1.39414 1.49476 0
M  V30 14319 C 1433.88 -0.00655879 1.91999 0
M  V30 14320 O 1435.08 -0.138145 2.68445 0
M  V30 14321 C 1433.35 2.35014 2.69264 0
M  V30 14322 S 1434.91 2.52662 3.58758 0
M  V30 14323 H 1431.73 0.494229 0.511135 0
M  V30 14324 H 1434.33 1.76274 0.845447 0
M  V30 14325 H 1433.04 3.35627 2.36184 0
M  V30 14326 H 1432.57 1.99414 3.39113 0
M  V30 14327 H 1434.58 1.77389 4.63409 0
M  V30 14328 N 1433.76 -0.95397 1.25448 0
M  V30 14329 C 1434.69 -2.05412 1.01679 0
M  V30 14330 C 1435.7 -1.62789 -0.0184932 0
M  V30 14331 O 1436.89 -1.77137 0.220136 0
M  V30 14332 C 1433.99 -3.3496 0.515292 0
M  V30 14333 C 1433.16 -4.06418 1.61688 0
M  V30 14334 C 1432.22 -5.14237 1.11564 0
M  V30 14335 O 1431.25 -5.39649 1.81017 0
M  V30 14336 N 1432.45 -5.80484 -0.0427228 0
M  V30 14337 H 1435.22 -2.26372 1.96407 0
M  V30 14338 H 1432.78 -1.12257 1.16662 0
M  V30 14339 H 1434.77 -4.04366 0.164426 0
M  V30 14340 H 1433.34 -3.10767 -0.33807 0
M  V30 14341 H 1432.56 -3.31101 2.1393 0
M  V30 14342 H 1433.85 -4.50917 2.35693 0
M  V30 14343 H 1433.25 -5.62259 -0.623038 0
M  V30 14344 H 1431.8 -6.50941 -0.334615 0
M  V30 14345 N 1435.24 -1.07045 -1.15668 0
M  V30 14346 C 1436.46 -0.812802 -1.9081 0
M  V30 14347 C 1436.89 0.627827 -1.77313 0
M  V30 14348 O 1436.24 1.43836 -1.10368 0
M  V30 14349 C 1436.29 -1.2219 -3.39267 0
M  V30 14350 O 1435.4 -0.365305 -4.10779 0
M  V30 14351 H 1434.74 -0.296385 -0.594182 0
M  V30 14352 H 1437.27 -1.42825 -1.465 0
M  V30 14353 H 1437.28 -1.19674 -3.90054 0
M  V30 14354 H 1435.95 -2.27121 -3.48409 0
M  V30 14355 H 1434.53 -0.452687 -3.70142 0
M  V30 14356 N 1436.71 1.32449 -0.85411 0
M  V30 14357 C 1437.94 2.01463 -0.471188 0
M  V30 14358 C 1438.36 1.64195 0.931954 0
M  V30 14359 O 1437.71 0.862994 1.60806 0
M  V30 14360 C 1437.76 3.56486 -0.600022 0
M  V30 14361 O 1437.49 3.92414 -1.94789 0
M  V30 14362 C 1438.99 4.42773 -0.216036 0
M  V30 14363 H 1436.21 0.644914 -0.185275 0
M  V30 14364 H 1438.75 1.6904 -1.1509 0
M  V30 14365 H 1436.91 3.87387 0.0319488 0
M  V30 14366 H 1437.32 4.87133 -1.94427 0
M  V30 14367 H 1438.79 5.50843 -0.357186 0
M  V30 14368 H 1439.27 4.31025 0.843468 0
M  V30 14369 H 1439.88 4.1726 -0.823058 0
M  V30 14370 N 1438.19 0.611994 1.45232 0
M  V30 14371 C 1439.42 0.113618 2.07089 0
M  V30 14372 C 1439.84 -1.1947 1.45288 0
M  V30 14373 O 1439.2 -1.72845 0.547207 0
M  V30 14374 C 1439.25 -0.00789978 3.60599 0
M  V30 14375 O 1438.35 -1.05697 3.98625 0
M  V30 14376 H 1437.69 0.076066 0.659629 0
M  V30 14377 H 1440.22 0.843253 1.86415 0
M  V30 14378 H 1440.23 -0.204692 4.07486 0
M  V30 14379 H 1438.91 0.947386 4.04966 0
M  V30 14380 H 1437.48 -0.836291 3.63401 0
M  V30 14381 N 1439.67 -1.53632 0.351409 0
M  V30 14382 C 1440.89 -2.0593 -0.246501 0
M  V30 14383 C 1441.32 -1.22419 -1.42812 0
M  V30 14384 O 1440.68 -0.239811 -1.79707 0
M  V30 14385 C 1440.73 -3.55021 -0.631862 0
M  V30 14386 O 1439.83 -3.74317 -1.73092 0
M  V30 14387 H 1439.17 -0.662839 -0.0392424 0
M  V30 14388 H 1441.7 -1.98196 0.507904 0
M  V30 14389 H 1441.71 -3.97795 -0.906831 0
M  V30 14390 H 1440.39 -4.15251 0.232224 0
M  V30 14391 H 1438.96 -3.43444 -1.4526 0
M  V30 14392 N 1441.15 -0.0802183 -1.57396 0
M  V30 14393 C 1442.4 0.585802 -1.93424 0
M  V30 14394 C 1442.72 1.69638 -0.961662 0
M  V30 14395 O 1441.99 1.95897 -0.011202 0
M  V30 14396 H 1440.57 0.219382 -0.714059 0
M  V30 14397 H 1443.23 -0.140055 -1.94396 0
M  V30 14398 H 1442.32 1.00566 -2.95454 0
M  V30 14399 N 1442.63 1.56409 0.193394 0
M  V30 14400 C 1443.87 1.80991 0.914875 0
M  V30 14401 C 1444.2 0.654538 1.82837 0
M  V30 14402 O 1443.48 -0.344816 1.91419 0
M  V30 14403 C 1443.76 3.15841 1.72964 0
M  V30 14404 C 1443.62 4.41873 0.840748 0
M  V30 14405 C 1444.93 3.474 2.70188 0
M  V30 14406 H 1442.05 0.658408 0.331161 0
M  V30 14407 H 1444.7 1.89125 0.182161 0
M  V30 14408 H 1442.85 3.09038 2.35431 0
M  V30 14409 H 1444.52 4.60723 0.230654 0
M  V30 14410 H 1442.76 4.33549 0.147558 0
M  V30 14411 H 1443.43 5.32728 1.44586 0
M  V30 14412 H 1445.91 3.54513 2.17852 0
M  V30 14413 H 1444.78 4.42872 3.24278 0
M  V30 14414 H 1445.04 2.7098 3.49317 0
M  V30 14415 N 1444.1 -0.461169 1.50702 0
M  V30 14416 C 1445.35 -1.21137 1.63393 0
M  V30 14417 C 1445.7 -1.89467 0.334664 0
M  V30 14418 O 1445 -1.79575 -0.668083 0
M  V30 14419 C 1445.19 -2.27213 2.75879 0
M  V30 14420 C 1445.02 -1.69291 4.16618 0
M  V30 14421 C 1443.79 -1.48827 4.82886 0
M  V30 14422 C 1445.99 -1.18233 5.00525 0
M  V30 14423 N 1443.97 -0.862524 6.07811 0
M  V30 14424 C 1445.34 -0.680412 6.16255 0
M  V30 14425 C 1447.4 -1.07182 4.86227 0
M  V30 14426 C 1446.1 -0.0788727 7.19257 0
M  V30 14427 C 1448.13 -0.484201 5.89415 0
M  V30 14428 C 1447.49 0.00728753 7.044 0
M  V30 14429 H 1443.59 -0.431797 0.651978 0
M  V30 14430 H 1446.17 -0.511751 1.87854 0
M  V30 14431 H 1444.34 -2.94591 2.53122 0
M  V30 14432 H 1446.07 -2.94223 2.77875 0
M  V30 14433 H 1442.83 -1.74332 4.40347 0
M  V30 14434 H 1443.25 -0.567778 6.74615 0
M  V30 14435 H 1447.89 -1.43771 3.97605 0
M  V30 14436 H 1445.61 0.299208 8.07546 0
M  V30 14437 H 1449.2 -0.400923 5.80417 0
M  V30 14438 H 1448.08 0.454852 7.8288 0
M  V30 14439 N 1445.58 -1.40446 -0.715026 0
M  V30 14440 C 1446.81 -1.42263 -1.50917 0
M  V30 14441 C 1447.23 -0.0242402 -1.88084 0
M  V30 14442 O 1446.59 0.967817 -1.53307 0
M  V30 14443 C 1446.64 -2.31998 -2.7606 0
M  V30 14444 O 1445.74 -1.76361 -3.72787 0
M  V30 14445 H 1445.08 -0.483614 -0.454988 0
M  V30 14446 H 1447.61 -1.84682 -0.880549 0
M  V30 14447 H 1447.62 -2.47204 -3.24583 0
M  V30 14448 H 1446.3 -3.33614 -2.48343 0
M  V30 14449 H 1444.87 -1.70504 -3.31636 0
M  V30 14450 N 1447.06 0.947303 -1.25952 0
M  V30 14451 C 1448.3 1.70755 -1.12348 0
M  V30 14452 C 1448.66 1.89165 0.328721 0
M  V30 14453 O 1449.86 2.62318 0.586749 0
M  V30 14454 C 1448.14 3.04889 -1.86486 0
M  V30 14455 S 1449.69 3.96076 -1.88863 0
M  V30 14456 H 1446.51 0.586836 -0.401428 0
M  V30 14457 H 1449.11 1.12932 -1.59583 0
M  V30 14458 H 1447.82 2.89166 -2.91224 0
M  V30 14459 H 1447.35 3.67772 -1.39668 0
M  V30 14460 H 1449.36 4.86608 -0.970929 0
M  V30 14461 N 1448.54 1.07657 1.15099 0
M  V30 14462 C 1449.78 0.802796 1.86234 0
M  V30 14463 C 1450.12 -0.669555 1.82293 0
M  V30 14464 O 1449.39 -1.49162 1.24823 0
M  V30 14465 C 1449.68 1.3156 3.35208 0
M  V30 14466 C 1449.53 2.85272 3.47764 0
M  V30 14467 C 1450.85 0.934641 4.30061 0
M  V30 14468 H 1447.97 0.293099 0.676212 0
M  V30 14469 H 1450.61 1.33488 1.35207 0
M  V30 14470 H 1448.76 0.86298 3.78794 0
M  V30 14471 H 1450.43 3.38847 3.13018 0
M  V30 14472 H 1448.67 3.23316 2.89222 0
M  V30 14473 H 1449.34 3.16223 4.52446 0
M  V30 14474 H 1451.82 1.3247 3.9445 0
M  V30 14475 H 1450.7 1.32074 5.32774 0
M  V30 14476 H 1450.96 -0.159122 4.41814 0
M  V30 14477 N 1450.02 -1.31994 0.861122 0
M  V30 14478 C 1451.26 -1.98827 0.474055 0
M  V30 14479 C 1451.62 -1.66627 -0.953916 0
M  V30 14480 O 1452.82 -2.26601 -1.44587 0
M  V30 14481 C 1451.09 -3.50201 0.713743 0
M  V30 14482 S 1452.65 -4.36735 0.425214 0
M  V30 14483 H 1449.47 -0.688534 0.17732 0
M  V30 14484 H 1452.07 -1.6057 1.11523 0
M  V30 14485 H 1450.78 -3.71125 1.75198 0
M  V30 14486 H 1450.31 -3.93355 0.0592289 0
M  V30 14487 H 1452.32 -4.90558 -0.746142 0
M  V30 14488 N 1451.49 -0.619688 -1.44906 0
M  V30 14489 C 1452.43 0.130316 -2.28829 0
M  V30 14490 C 1453.44 0.820039 -1.40639 0
M  V30 14491 O 1454.63 0.683401 -1.649 0
M  V30 14492 C 1451.73 1.20618 -3.16709 0
M  V30 14493 C 1450.9 0.60121 -4.33248 0
M  V30 14494 C 1449.96 1.56954 -5.02247 0
M  V30 14495 O 1448.99 1.09112 -5.58644 0
M  V30 14496 N 1450.19 2.90395 -5.02644 0
M  V30 14497 H 1452.95 -0.589867 -2.93838 0
M  V30 14498 H 1450.51 -0.460028 -1.55227 0
M  V30 14499 H 1452.51 1.85404 -3.59732 0
M  V30 14500 H 1451.08 1.82873 -2.53528 0
M  V30 14501 H 1450.3 -0.225015 -3.93557 0
M  V30 14502 H 1451.58 0.177471 -5.0849 0
M  V30 14503 H 1450.98 3.31855 -4.58136 0
M  V30 14504 H 1449.54 3.50572 -5.49493 0
M  V30 14505 N 1452.97 1.53444 -0.359552 0
M  V30 14506 C 1453.88 2.29257 0.497834 0
M  V30 14507 C 1454.9 1.34987 1.09793 0
M  V30 14508 O 1456.07 1.68039 1.11017 0
M  V30 14509 C 1453.14 3.06258 1.62502 0
M  V30 14510 C 1452.2 4.16183 1.05308 0
M  V30 14511 C 1451.43 4.89503 2.12655 0
M  V30 14512 O 1451.66 4.6263 3.33661 0
M  V30 14513 O 1450.59 5.75578 1.76051 0
M  V30 14514 H 1454.42 3.03467 -0.118925 0
M  V30 14515 H 1452 1.48884 -0.124111 0
M  V30 14516 H 1453.88 3.5436 2.2805 0
M  V30 14517 H 1452.56 2.3489 2.22729 0
M  V30 14518 H 1451.47 3.72348 0.361679 0
M  V30 14519 H 1452.8 4.897 0.49545 0
M  V30 14520 N 1454.45 0.0885642 1.57351 0
M  V30 14521 C 1455.7 -0.575536 1.93732 0
M  V30 14522 C 1456.02 -1.69126 0.970644 0
M  V30 14523 O 1455.29 -1.95888 0.0215907 0
M  V30 14524 H 1453.87 -0.215592 0.715213 0
M  V30 14525 H 1456.53 0.150362 1.94319 0
M  V30 14526 H 1455.63 -0.989979 2.95983 0
M  V30 14527 N 1455.93 -1.56509 -0.185096 0
M  V30 14528 C 1457.16 -1.85058 -0.918527 0
M  V30 14529 C 1457.57 -0.670181 -1.76933 0
M  V30 14530 O 1456.91 0.370215 -1.79931 0
M  V30 14531 C 1456.97 -3.07843 -1.85669 0
M  V30 14532 C 1456.64 -4.41319 -1.18686 0
M  V30 14533 C 1457.63 -5.16887 -0.558946 0
M  V30 14534 C 1455.32 -4.88056 -1.18773 0
M  V30 14535 C 1457.31 -6.37373 0.0591595 0
M  V30 14536 C 1455 -6.08475 -0.565791 0
M  V30 14537 C 1456 -6.82977 0.0565621 0
M  V30 14538 O 1455.68 -8.01114 0.668726 0
M  V30 14539 H 1455.42 -0.618423 -0.273001 0
M  V30 14540 H 1457.97 -2.04479 -0.194261 0
M  V30 14541 H 1456.2 -2.84332 -2.62092 0
M  V30 14542 H 1457.89 -3.22954 -2.45877 0
M  V30 14543 H 1458.66 -4.81867 -0.550347 0
M  V30 14544 H 1454.53 -4.30016 -1.66154 0
M  V30 14545 H 1458.08 -6.95464 0.545534 0
M  V30 14546 H 1453.98 -6.42961 -0.571927 0
M  V30 14547 H 1454.74 -8.16536 0.566616 0
M  V30 14548 N 1457.41 0.45317 -1.50944 0
M  V30 14549 C 1458.32 1.57435 -1.73929 0
M  V30 14550 C 1459.33 1.62467 -0.622935 0
M  V30 14551 O 1460.51 1.80004 -0.903365 0
M  V30 14552 C 1457.57 2.93534 -1.84495 0
M  V30 14553 C 1456.63 2.98747 -3.083 0
M  V30 14554 C 1455.87 4.28354 -3.18352 0
M  V30 14555 O 1456.09 5.1986 -2.34738 0
M  V30 14556 O 1455.02 4.39527 -4.11217 0
M  V30 14557 H 1458.85 1.40959 -2.69006 0
M  V30 14558 H 1456.44 0.634545 -1.35255 0
M  V30 14559 H 1458.32 3.74336 -1.93522 0
M  V30 14560 H 1456.99 3.10171 -0.926044 0
M  V30 14561 H 1455.9 2.16958 -3.04762 0
M  V30 14562 H 1457.23 2.87051 -3.99828 0
M  V30 14563 N 1458.88 1.40823 0.707568 0
M  V30 14564 C 1460.13 1.39259 1.46463 0
M  V30 14565 C 1460.45 -0.00157854 1.95 0
M  V30 14566 O 1459.72 -0.957723 1.70893 0
M  V30 14567 H 1458.3 0.512558 0.543409 0
M  V30 14568 H 1460.97 1.75952 0.838269 0
M  V30 14569 H 1460.06 2.07243 2.3336 0
M  V30 14570 N 1460.36 -0.94061 1.26453 0
M  V30 14571 C 1461.64 -1.66421 1.02779 0
M  V30 14572 C 1462.02 -2.06429 -0.441614 0
M  V30 14573 O 1461.37 -1.78854 -1.42209 0
M  V30 14574 C 1461.58 -2.87599 1.97707 0
M  V30 14575 C 1462.93 -3.59237 2.26349 0
M  V30 14576 O 1463.95 -2.97704 1.95577 0
M  V30 14577 O 1462.81 -4.70068 2.78744 0
M  V30 14578 H 1459.9 -0.728813 0.390846 0
M  V30 14579 H 1462.45 -0.99229 1.37665 0
M  V30 14580 H 1461.22 -2.54929 2.96862 0
M  V30 14581 H 1460.84 -3.62516 1.63303 0
M  V30 14582 N 1461.84 -1.08266 -1.14527 0
M  V30 14583 C 1463.09 -0.809856 -1.85164 0
M  V30 14584 C 1463.41 0.666263 -1.83265 0
M  V30 14585 O 1462.68 1.48295 -1.28006 0
M  V30 14586 H 1461.26 -0.296598 -0.685594 0
M  V30 14587 H 1463.92 -1.36834 -1.38789 0
M  V30 14588 H 1463.02 -1.15272 -2.90032 0
M  V30 14589 N 1463.32 1.31536 -0.86811 0
M  V30 14590 C 1464.57 1.96775 -0.47812 0
M  V30 14591 C 1464.89 1.68632 0.9692 0
M  V30 14592 O 1464.15 0.974357 1.6972 0
M  V30 14593 C 1464.45 3.50876 -0.679752 0
M  V30 14594 C 1464.11 3.99034 -2.09958 0
M  V30 14595 C 1462.78 4.11896 -2.48787 0
M  V30 14596 C 1465.13 4.24387 -3.02564 0
M  V30 14597 C 1462.46 4.47461 -3.79468 0
M  V30 14598 C 1464.81 4.61415 -4.32757 0
M  V30 14599 C 1463.47 4.72484 -4.71503 0
M  V30 14600 H 1462.74 0.720049 -0.174957 0
M  V30 14601 H 1465.39 1.56703 -1.10074 0
M  V30 14602 H 1463.69 3.91791 0.0260174 0
M  V30 14603 H 1465.39 3.994 -0.357855 0
M  V30 14604 H 1461.98 3.89518 -1.78811 0
M  V30 14605 H 1466.17 4.13947 -2.73791 0
M  V30 14606 H 1461.42 4.54227 -4.09252 0
M  V30 14607 H 1465.6 4.79985 -5.04566 0
M  V30 14608 H 1463.22 4.99798 -5.72806 0
M  V30 14609 N 1464.8 0.627364 1.44575 0
M  V30 14610 C 1465.73 -0.066735 2.33405 0
M  V30 14611 C 1466.71 -0.838666 1.47988 0
M  V30 14612 O 1467.89 -0.805296 1.76716 0
M  V30 14613 C 1465.02 -1.05148 3.31 0
M  V30 14614 C 1463.98 -0.391433 4.26206 0
M  V30 14615 C 1463.3 -1.48581 5.13642 0
M  V30 14616 C 1464.6 0.699942 5.17589 0
M  V30 14617 H 1466.3 0.675029 2.91691 0
M  V30 14618 H 1463.84 0.326066 1.4026 0
M  V30 14619 H 1465.8 -1.54576 3.92026 0
M  V30 14620 H 1464.52 -1.82408 2.70915 0
M  V30 14621 H 1463.18 0.0821694 3.66508 0
M  V30 14622 H 1462.83 -2.2492 4.49911 0
M  V30 14623 H 1462.53 -1.04957 5.7815 0
M  V30 14624 H 1464.05 -1.98198 5.77538 0
M  V30 14625 H 1465.47 0.288911 5.72572 0
M  V30 14626 H 1463.86 1.0591 5.9068 0
M  V30 14627 H 1464.93 1.5686 4.58828 0
M  V30 14628 N 1466.28 -1.53251 0.367684 0
M  V30 14629 C 1467.52 -2.03197 -0.221396 0
M  V30 14630 C 1467.88 -1.249 -1.45822 0
M  V30 14631 O 1469.08 -1.64863 -2.12306 0
M  V30 14632 C 1467.35 -3.53827 -0.504134 0
M  V30 14633 S 1468.91 -4.2564 -1.06658 0
M  V30 14634 H 1465.73 -0.708089 -0.0642774 0
M  V30 14635 H 1468.33 -1.88703 0.511037 0
M  V30 14636 H 1467.03 -4.08412 0.403477 0
M  V30 14637 H 1466.57 -3.72487 -1.26558 0
M  V30 14638 H 1468.58 -4.36987 -2.35068 0
M  V30 14639 N 1467.75 -0.0969077 -1.57302 0
M  V30 14640 C 1468.98 0.573872 -1.9847 0
M  V30 14641 C 1469.39 1.62149 -0.974894 0
M  V30 14642 O 1468.73 1.83649 0.0434873 0
M  V30 14643 C 1468.8 1.2781 -3.36013 0
M  V30 14644 C 1468.46 0.381022 -4.55409 0
M  V30 14645 C 1469.46 -0.371559 -5.18571 0
M  V30 14646 C 1467.14 0.29855 -5.01412 0
M  V30 14647 C 1469.14 -1.19457 -6.26106 0
M  V30 14648 C 1466.82 -0.528116 -6.08814 0
M  V30 14649 C 1467.82 -1.27333 -6.71026 0
M  V30 14650 O 1467.51 -2.08631 -7.76356 0
M  V30 14651 H 1467.24 0.158369 -0.657187 0
M  V30 14652 H 1469.8 -0.173415 -2.04667 0
M  V30 14653 H 1468.03 2.07199 -3.26505 0
M  V30 14654 H 1469.71 1.84359 -3.61617 0
M  V30 14655 H 1470.48 -0.317586 -4.83959 0
M  V30 14656 H 1466.36 0.868247 -4.5275 0
M  V30 14657 H 1469.9 -1.77673 -6.74595 0
M  V30 14658 H 1465.8 -0.583563 -6.42857 0
M  V30 14659 H 1466.57 -2.01333 -7.93352 0
M  V30 14660 N 1469.23 1.56605 0.176793 0
M  V30 14661 C 1470.48 1.81324 0.892535 0
M  V30 14662 C 1470.8 0.67301 1.83018 0
M  V30 14663 O 1470.07 -0.307498 1.93472 0
M  V30 14664 H 1468.65 0.668881 0.332576 0
M  V30 14665 H 1471.31 1.94086 0.17792 0
M  V30 14666 H 1470.41 2.75168 1.47272 0
M  V30 14667 N 1470.71 -0.445159 1.51182 0
M  V30 14668 C 1471.66 -1.5604 1.72494 0
M  V30 14669 C 1472.65 -1.58753 0.591101 0
M  V30 14670 O 1473.86 -1.62591 0.772285 0
M  V30 14671 H 1470.23 -0.518265 0.544891 0
M  V30 14672 H 1472.2 -1.35237 2.65995 0
M  V30 14673 C 1470.95 -2.93768 1.85999 0
M  V30 14674 H 1470.28 -2.9241 2.72647 0
M  V30 14675 H 1471.72 -3.71189 2.04926 0
M  V30 14676 C 1470.17 -3.31186 0.617853 0
M  V30 14677 O 1470.7 -4.01035 -0.231101 0
M  V30 14678 N 1468.91 -2.86868 0.464234 0
M  V30 14679 H 1468.46 -2.30198 1.15614 0
M  V30 14680 H 1468.42 -3.12267 -0.365643 0
M  V30 14681 N 1472.19 -1.41197 -0.700089 0
M  V30 14682 C 1473.15 -1.42419 -1.79582 0
M  V30 14683 C 1474.15 -0.31551 -1.57674 0
M  V30 14684 O 1475.34 -0.575173 -1.64431 0
M  V30 14685 C 1472.47 -1.23114 -3.17893 0
M  V30 14686 H 1473.67 -2.39956 -1.79892 0
M  V30 14687 H 1471.22 -1.27273 -0.907271 0
M  V30 14688 H 1471.95 -0.263992 -3.23224 0
M  V30 14689 H 1471.74 -2.03437 -3.35195 0
M  V30 14690 H 1473.23 -1.26793 -3.97886 0
M  V30 14691 N 1473.67 0.933891 -1.2695 0
M  V30 14692 C 1474.63 2.0152 -1.0919 0
M  V30 14693 C 1475.63 1.60755 -0.037865 0
M  V30 14694 O 1476.82 1.71904 -0.281917 0
M  V30 14695 C 1473.95 3.34403 -0.66239 0
M  V30 14696 H 1475.14 2.18706 -2.05201 0
M  V30 14697 H 1472.7 1.11385 -1.0965 0
M  V30 14698 H 1473.43 3.22915 0.299388 0
M  V30 14699 H 1473.22 3.65345 -1.42356 0
M  V30 14700 H 1474.71 4.13826 -0.560187 0
M  V30 14701 N 1475.14 1.08871 1.13951 0
M  V30 14702 C 1476.39 0.822504 1.85372 0
M  V30 14703 C 1476.72 -0.650183 1.82993 0
M  V30 14704 O 1476 -1.4783 1.26398 0
M  V30 14705 C 1476.28 1.35107 3.33793 0
M  V30 14706 C 1476.13 2.88945 3.44719 0
M  V30 14707 C 1477.45 0.980203 4.29045 0
M  V30 14708 H 1474.57 0.300255 0.673065 0
M  V30 14709 H 1477.21 1.34914 1.33784 0
M  V30 14710 H 1475.36 0.903108 3.77857 0
M  V30 14711 H 1477.04 3.42148 3.09407 0
M  V30 14712 H 1475.28 3.26365 2.85777 0
M  V30 14713 H 1475.95 3.21004 4.49066 0
M  V30 14714 H 1478.43 1.36646 3.93023 0
M  V30 14715 H 1477.3 1.37717 5.31343 0
M  V30 14716 H 1477.56 -0.112253 4.41957 0
M  V30 14717 N 1476.62 -1.31073 0.875073 0
M  V30 14718 C 1477.53 -2.3215 0.338196 0
M  V30 14719 C 1478.55 -1.64928 -0.554504 0
M  V30 14720 O 1479.72 -1.96308 -0.449998 0
M  V30 14721 C 1476.79 -3.43804 -0.447163 0
M  V30 14722 C 1475.85 -4.26674 0.474106 0
M  V30 14723 C 1475.08 -5.32997 -0.273867 0
M  V30 14724 O 1475.31 -5.50288 -1.50129 0
M  V30 14725 O 1474.24 -6.00756 0.370913 0
M  V30 14726 H 1478.07 -2.80002 1.17612 0
M  V30 14727 H 1475.65 -1.35064 0.6386 0
M  V30 14728 H 1477.53 -4.11847 -0.892199 0
M  V30 14729 H 1476.21 -2.98105 -1.26155 0
M  V30 14730 H 1475.11 -3.61366 0.967748 0
M  V30 14731 H 1476.45 -4.75952 1.25423 0
M  V30 14732 N 1478.1 -0.635022 -1.4424 0
M  V30 14733 C 1479.03 0.0543561 -2.33437 0
M  V30 14734 C 1480.01 0.830807 -1.48431 0
M  V30 14735 O 1481.2 0.795913 -1.77141 0
M  V30 14736 C 1478.33 1.03391 -3.31553 0
M  V30 14737 C 1477.28 0.368824 -4.26408 0
M  V30 14738 C 1476.61 1.45855 -5.14422 0
M  V30 14739 C 1477.91 -0.727381 -5.1721 0
M  V30 14740 H 1479.6 -0.690489 -2.91329 0
M  V30 14741 H 1477.15 -0.3335 -1.40085 0
M  V30 14742 H 1479.1 1.52495 -3.9284 0
M  V30 14743 H 1477.82 1.80969 -2.71878 0
M  V30 14744 H 1476.48 -0.101605 -3.66459 0
M  V30 14745 H 1476.13 2.22531 -4.51098 0
M  V30 14746 H 1475.83 1.0189 -5.78699 0
M  V30 14747 H 1477.35 1.95132 -5.78581 0
M  V30 14748 H 1478.77 -0.319272 -5.7241 0
M  V30 14749 H 1477.17 -1.09041 -5.9011 0
M  V30 14750 H 1478.24 -1.59292 -4.57989 0
M  V30 14751 N 1479.58 1.53054 -0.375806 0
M  V30 14752 C 1480.8 2.06296 0.213708 0
M  V30 14753 C 1481.23 1.24675 1.40846 0
M  V30 14754 O 1480.59 0.268371 1.79303 0
M  V30 14755 C 1480.63 3.55981 0.575301 0
M  V30 14756 O 1479.74 3.77023 1.67115 0
M  V30 14757 H 1479.08 0.66338 0.0286922 0
M  V30 14758 H 1481.61 1.97362 -0.539371 0
M  V30 14759 H 1481.62 3.99187 0.843431 0
M  V30 14760 H 1480.29 4.14829 -0.298258 0
M  V30 14761 H 1478.87 3.45712 1.39778 0
M  V30 14762 N 1481.06 0.105248 1.57248 0
M  V30 14763 C 1482.3 -0.556054 1.94716 0
M  V30 14764 C 1482.63 -1.67557 0.987669 0
M  V30 14765 O 1481.89 -1.95698 0.00905706 0
M  V30 14766 C 1482.19 -1.14178 3.38671 0
M  V30 14767 C 1481.85 -0.145022 4.50667 0
M  V30 14768 C 1480.51 0.129099 4.81027 0
M  V30 14769 C 1482.87 0.535015 5.18447 0
M  V30 14770 C 1480.19 1.08978 5.7649 0
M  V30 14771 C 1482.55 1.48423 6.14942 0
M  V30 14772 C 1481.21 1.76648 6.43702 0
M  V30 14773 H 1480.48 -0.203475 0.712516 0
M  V30 14774 H 1483.13 0.183237 1.90621 0
M  V30 14775 H 1481.43 -1.95754 3.39393 0
M  V30 14776 H 1483.13 -1.66132 3.64967 0
M  V30 14777 H 1479.72 -0.36886 4.2701 0
M  V30 14778 H 1483.9 0.336391 4.95159 0
M  V30 14779 H 1479.16 1.31535 5.97083 0
M  V30 14780 H 1483.33 2.01693 6.66553 0
M  V30 14781 H 1480.96 2.51245 7.17482 0
M  V30 14782 N 1482.53 -1.56697 -0.168486 0
M  V30 14783 C 1483.46 -1.99659 -1.21073 0
M  V30 14784 C 1484.45 -0.872625 -1.46011 0
M  V30 14785 O 1485.63 -1.13891 -1.57297 0
M  V30 14786 C 1482.76 -2.35889 -2.54899 0
M  V30 14787 C 1481.71 -3.51272 -2.44524 0
M  V30 14788 C 1481.04 -3.73253 -3.82866 0
M  V30 14789 C 1482.34 -4.84631 -1.94756 0
M  V30 14790 H 1484.03 -2.86974 -0.853593 0
M  V30 14791 H 1481.58 -1.38065 -0.409165 0
M  V30 14792 H 1483.53 -2.64542 -3.28017 0
M  V30 14793 H 1482.26 -1.45486 -2.92406 0
M  V30 14794 H 1480.92 -3.22751 -1.7386 0
M  V30 14795 H 1480.56 -2.80136 -4.17772 0
M  V30 14796 H 1480.26 -4.5089 -3.76792 0
M  V30 14797 H 1481.79 -4.04309 -4.57566 0
M  V30 14798 H 1483.2 -5.12142 -2.5765 0
M  V30 14799 H 1481.6 -5.65925 -1.99623 0
M  V30 14800 H 1482.67 -4.76436 -0.902021 0
M  V30 14801 N 1484.01 0.437135 -1.51416 0
M  V30 14802 C 1485.24 1.21359 -1.68187 0
M  V30 14803 C 1485.66 1.84247 -0.378748 0
M  V30 14804 O 1485.02 1.68816 0.661115 0
M  V30 14805 C 1485.07 2.27319 -2.79926 0
M  V30 14806 O 1484.17 3.32807 -2.43543 0
M  V30 14807 H 1483.51 0.355547 -0.560787 0
M  V30 14808 H 1486.04 0.516204 -1.97981 0
M  V30 14809 H 1486.05 2.721 -3.04016 0
M  V30 14810 H 1484.73 1.80923 -3.74486 0
M  V30 14811 H 1483.31 2.93501 -2.30025 0
M  V30 14812 N 1485.49 1.41566 0.692592 0
M  V30 14813 C 1486.4 1.46014 1.83622 0
M  V30 14814 C 1487.42 0.350453 1.70434 0
M  V30 14815 O 1488.59 0.598634 1.92298 0
M  V30 14816 C 1485.66 1.34308 3.19628 0
M  V30 14817 C 1484.72 2.55617 3.44904 0
M  V30 14818 C 1483.95 2.4446 4.74421 0
M  V30 14819 O 1484.17 1.47078 5.51112 0
M  V30 14820 O 1483.11 3.34272 5.00546 0
M  V30 14821 H 1486.93 2.42504 1.82826 0
M  V30 14822 H 1484.52 1.23136 0.846039 0
M  V30 14823 H 1486.4 1.30075 4.00822 0
M  V30 14824 H 1485.08 0.409343 3.21101 0
M  V30 14825 H 1483.98 2.65426 2.63628 0
M  V30 14826 H 1485.32 3.47829 3.48247 0
M  V30 14827 N 1486.97 -0.927146 1.27443 0
M  V30 14828 C 1487.93 -2.00938 1.10257 0
M  V30 14829 C 1488.93 -1.60733 0.0463898 0
M  V30 14830 O 1490.12 -1.71752 0.291029 0
M  V30 14831 C 1487.25 -3.34047 0.680115 0
M  V30 14832 H 1488.45 -2.17615 2.06358 0
M  V30 14833 H 1486 -1.10802 1.10239 0
M  V30 14834 H 1486.73 -3.23069 -0.282259 0
M  V30 14835 H 1486.52 -3.64585 1.44291 0
M  V30 14836 H 1488.01 -4.13523 0.582126 0
M  V30 14837 N 1488.45 -1.09474 -1.13372 0
M  V30 14838 C 1489.41 -0.738173 -2.16988 0
M  V30 14839 C 1490.41 0.232488 -1.5911 0
M  V30 14840 O 1491.6 0.0106093 -1.74197 0
M  V30 14841 C 1488.73 -0.091724 -3.40777 0
M  V30 14842 H 1489.92 -1.65582 -2.50045 0
M  V30 14843 H 1487.48 -0.893994 -1.28209 0
M  V30 14844 H 1488.21 0.837129 -3.13309 0
M  V30 14845 H 1488 -0.790161 -3.84056 0
M  V30 14846 H 1489.49 0.142334 -4.17357 0
M  V30 14847 N 1489.92 1.30607 -0.882012 0
M  V30 14848 C 1491.17 1.95531 -0.495038 0
M  V30 14849 C 1491.49 1.70418 0.96005 0
M  V30 14850 O 1492.69 2.29301 1.45373 0
M  V30 14851 C 1491.15 3.50094 -0.834382 0
M  V30 14852 C 1490.76 3.84031 -2.30704 0
M  V30 14853 C 1492.5 4.21347 -0.516463 0
M  V30 14854 C 1490.41 5.31759 -2.58817 0
M  V30 14855 H 1489.34 0.731854 -0.181399 0
M  V30 14856 H 1491.99 1.486 -1.07658 0
M  V30 14857 H 1490.37 3.95582 -0.181961 0
M  V30 14858 H 1491.54 3.49463 -3.00353 0
M  V30 14859 H 1489.86 3.25874 -2.5922 0
M  V30 14860 H 1492.46 5.30051 -0.703576 0
M  V30 14861 H 1492.8 4.12731 0.543935 0
M  V30 14862 H 1493.33 3.81533 -1.12595 0
M  V30 14863 H 1490.07 5.45422 -3.63586 0
M  V30 14864 H 1489.59 5.67637 -1.93774 0
M  V30 14865 H 1491.27 5.9916 -2.44165 0
M  V30 14866 N 1491.4 0.642663 1.43901 0
M  V30 14867 C 1492.65 0.151778 2.0193 0
M  V30 14868 C 1492.98 -1.23052 1.50627 0
M  V30 14869 O 1492.23 -1.83305 0.685404 0
M  V30 14870 C 1492.53 0.100139 3.5726 0
M  V30 14871 C 1492.2 1.42276 4.27865 0
M  V30 14872 C 1490.86 1.78497 4.46869 0
M  V30 14873 C 1493.21 2.29526 4.67939 0
M  V30 14874 C 1490.54 3.01655 5.03211 0
M  V30 14875 C 1492.89 3.51966 5.25645 0
M  V30 14876 C 1491.56 3.88396 5.42867 0
M  V30 14877 H 1490.83 0.0555394 0.738916 0
M  V30 14878 H 1493.47 0.831273 1.72517 0
M  V30 14879 H 1491.78 -0.66277 3.86154 0
M  V30 14880 H 1493.47 -0.29638 3.99903 0
M  V30 14881 H 1490.06 1.13091 4.13411 0
M  V30 14882 H 1494.25 2.02835 4.52959 0
M  V30 14883 H 1489.5 3.29943 5.14731 0
M  V30 14884 H 1493.68 4.19799 5.55645 0
M  V30 14885 H 1491.31 4.83909 5.8629 0
M  V30 14886 N 1492.88 -1.52852 0.383918 0
M  V30 14887 C 1493.83 -2.27828 -0.468762 0
M  V30 14888 C 1494.82 -1.31516 -1.0677 0
M  V30 14889 O 1496.03 -1.49075 -1.0088 0
M  V30 14890 H 1492.4 -0.732552 -0.169917 0
M  V30 14891 H 1494.38 -2.97825 0.185124 0
M  V30 14892 C 1493.12 -3.09378 -1.58683 0
M  V30 14893 H 1492.45 -3.83343 -1.13527 0
M  V30 14894 H 1493.89 -3.64987 -2.15779 0
M  V30 14895 C 1492.35 -2.21354 -2.53976 0
M  V30 14896 O 1492.88 -1.83668 -3.57252 0
M  V30 14897 N 1491.08 -1.85621 -2.23591 0
M  V30 14898 H 1490.63 -2.16467 -1.39642 0
M  V30 14899 H 1490.59 -1.27015 -2.87602 0
M  V30 14900 N 1494.36 -0.113586 -1.5719 0
M  V30 14901 C 1495.78 0.243023 -1.57739 0
M  V30 14902 C 1495.98 1.67105 -1.12597 0
M  V30 14903 O 1495.03 2.39126 -0.810874 0
M  V30 14904 C 1496.34 0.014629 -3.00696 0
M  V30 14905 C 1497.89 0.0809485 -3.12895 0
M  V30 14906 C 1498.37 -0.119685 -4.57844 0
M  V30 14907 N 1499.86 -0.0654711 -4.63154 0
M  V30 14908 C 1500.59 -0.195692 -5.73066 0
M  V30 14909 N 1500.09 -0.381782 -6.91747 0
M  V30 14910 N 1501.88 -0.13565 -5.61936 0
M  V30 14911 H 1494.03 -1.04639 -1.84836 0
M  V30 14912 H 1496.3 -0.411609 -0.85398 0
M  V30 14913 H 1496 -0.972399 -3.3799 0
M  V30 14914 H 1495.88 0.748882 -3.69691 0
M  V30 14915 H 1498.26 1.0585 -2.75463 0
M  V30 14916 H 1498.34 -0.685097 -2.46455 0
M  V30 14917 H 1497.99 -1.09418 -4.95974 0
M  V30 14918 H 1497.92 0.666281 -5.22368 0
M  V30 14919 H 1500.41 0.0750649 -3.77825 0
M  V30 14920 H 1500.72 -0.472157 -7.71356 0
M  V30 14921 H 1499.07 -0.417686 -6.93744 0
M  V30 14922 H 1502.26 0.0087301 -4.68099 0
M  V30 14923 H 1502.43 -0.240579 -6.47553 0
M  V30 14924 N 1495.84 1.56784 0.160173 0
M  V30 14925 C 1497.08 1.83782 0.871526 0
M  V30 14926 C 1497.44 0.695726 1.79381 0
M  V30 14927 O 1496.73 -0.307168 1.89122 0
M  V30 14928 C 1496.93 3.14703 1.69402 0
M  V30 14929 C 1496.75 4.41538 0.852869 0
M  V30 14930 C 1495.52 5.0258 0.523604 0
M  V30 14931 C 1497.72 5.13952 0.189264 0
M  V30 14932 N 1495.7 6.12999 -0.332518 0
M  V30 14933 C 1497.08 6.17752 -0.527548 0
M  V30 14934 C 1499.13 4.97782 0.108577 0
M  V30 14935 C 1497.83 7.07133 -1.31741 0
M  V30 14936 C 1499.86 5.87615 -0.667985 0
M  V30 14937 C 1499.22 6.90887 -1.37312 0
M  V30 14938 H 1495.32 0.723336 0.297169 0
M  V30 14939 H 1497.9 1.94212 0.137749 0
M  V30 14940 H 1496.08 3.05445 2.39913 0
M  V30 14941 H 1497.81 3.29657 2.34752 0
M  V30 14942 H 1494.56 4.65794 0.85631 0
M  V30 14943 H 1494.99 6.72819 -0.751215 0
M  V30 14944 H 1499.63 4.17937 0.639385 0
M  V30 14945 H 1497.35 7.86414 -1.85952 0
M  V30 14946 H 1500.93 5.77174 -0.732234 0
M  V30 14947 H 1499.81 7.59198 -1.96438 0
M  V30 14948 N 1497.32 -0.429099 1.51646 0
M  V30 14949 C 1498.56 -1.17482 1.63954 0
M  V30 14950 C 1498.88 -1.92152 0.36565 0
M  V30 14951 O 1500.08 -2.68991 0.368221 0
M  V30 14952 C 1498.54 -2.13703 2.89585 0
M  V30 14953 C 1498.15 -1.44642 4.24008 0
M  V30 14954 C 1499.89 -2.88657 3.11252 0
M  V30 14955 C 1497.8 -2.39395 5.40781 0
M  V30 14956 H 1496.73 -0.442234 0.610692 0
M  V30 14957 H 1499.38 -0.441088 1.7812 0
M  V30 14958 H 1497.76 -2.90545 2.69071 0
M  V30 14959 H 1498.94 -0.733012 4.54932 0
M  V30 14960 H 1497.25 -0.818084 4.08285 0
M  V30 14961 H 1499.85 -3.59653 3.95669 0
M  V30 14962 H 1500.19 -3.50473 2.24664 0
M  V30 14963 H 1500.72 -2.18919 3.32144 0
M  V30 14964 H 1497.46 -1.82255 6.29653 0
M  V30 14965 H 1496.98 -3.08766 5.14222 0
M  V30 14966 H 1498.66 -3.0035 5.73061 0
M  V30 14967 N 1498.79 -1.41931 -0.685074 0
M  V30 14968 C 1499.74 -1.44824 -1.82013 0
M  V30 14969 C 1500.74 -0.325083 -1.66252 0
M  V30 14970 O 1501.94 -0.497614 -1.72985 0
M  V30 14971 H 1498.32 -0.453362 -0.599972 0
M  V30 14972 H 1500.29 -2.40464 -1.76691 0
M  V30 14973 C 1499.04 -1.35753 -3.20104 0
M  V30 14974 H 1498.36 -2.21469 -3.32854 0
M  V30 14975 H 1499.8 -1.41838 -3.99572 0
M  V30 14976 C 1498.26 -0.0710816 -3.36825 0
M  V30 14977 O 1498.79 0.880155 -3.91939 0
M  V30 14978 N 1496.99 0.00842652 -2.90599 0
M  V30 14979 H 1496.54 -0.766427 -2.45934 0
M  V30 14980 H 1496.5 0.868559 -3.02165 0
M  V30 14981 N 1500.27 0.920374 -1.27933 0
M  V30 14982 C 1501.22 2.04331 -1.11138 0
M  V30 14983 C 1502.21 1.69369 -0.0324493 0
M  V30 14984 O 1503.42 1.78987 -0.190723 0
M  V30 14985 H 1499.79 0.669381 -0.342685 0
M  V30 14986 H 1501.77 2.15641 -2.06256 0
M  V30 14987 C 1500.51 3.38768 -0.783049 0
M  V30 14988 H 1499.84 3.6616 -1.60521 0
M  V30 14989 H 1501.28 4.1809 -0.705448 0
M  V30 14990 C 1499.74 3.32972 0.512927 0
M  V30 14991 O 1500.27 3.70792 1.54519 0
M  V30 14992 N 1498.47 2.86068 0.511232 0
M  V30 14993 H 1498.02 2.55487 -0.329229 0
M  V30 14994 H 1497.98 2.82573 1.3784 0
M  V30 14995 N 1501.75 1.10074 1.1279 0
M  V30 14996 C 1502.71 0.74967 2.16593 0
M  V30 14997 C 1503.71 -0.224046 1.59232 0
M  V30 14998 O 1504.9 -0.00137104 1.742 0
M  V30 14999 C 1502.03 0.109795 3.40723 0
M  V30 15000 H 1503.23 1.66906 2.49164 0
M  V30 15001 H 1500.78 0.900781 1.27733 0
M  V30 15002 H 1501.52 -0.820501 3.13749 0
M  V30 15003 H 1501.3 0.810517 3.83631 0
M  V30 15004 H 1502.79 -0.120198 4.17427 0
M  V30 15005 N 1503.23 -1.30138 0.888926 0
M  V30 15006 C 1504.45 -2.00679 0.523697 0
M  V30 15007 C 1504.88 -1.66167 -0.881479 0
M  V30 15008 O 1504.24 -0.880418 -1.58488 0
M  V30 15009 C 1504.28 -3.53535 0.710284 0
M  V30 15010 O 1503.39 -4.11689 -0.242066 0
M  V30 15011 H 1502.73 -0.631273 0.205888 0
M  V30 15012 H 1505.26 -1.65891 1.19756 0
M  V30 15013 H 1505.27 -4.03402 0.610794 0
M  V30 15014 H 1503.94 -3.77992 1.73478 0
M  V30 15015 H 1502.52 -3.72777 -0.0959393 0
M  V30 15016 N 1504.71 -0.650285 -1.43559 0
M  V30 15017 C 1505.64 0.0295939 -2.33481 0
M  V30 15018 C 1506.62 0.815017 -1.49303 0
M  V30 15019 O 1507.8 0.77708 -1.77975 0
M  V30 15020 C 1504.93 0.998683 -3.32631 0
M  V30 15021 C 1503.89 0.323577 -4.26775 0
M  V30 15022 C 1503.21 1.40391 -5.1594 0
M  V30 15023 C 1504.51 -0.782197 -5.1641 0
M  V30 15024 H 1506.21 -0.721349 -2.9058 0
M  V30 15025 H 1503.75 -0.348339 -1.39723 0
M  V30 15026 H 1505.7 1.4832 -3.94435 0
M  V30 15027 H 1504.43 1.78075 -2.73782 0
M  V30 15028 H 1503.09 -0.140467 -3.66331 0
M  V30 15029 H 1502.74 2.17734 -4.53432 0
M  V30 15030 H 1502.44 0.957462 -5.79747 0
M  V30 15031 H 1503.96 1.88985 -5.80618 0
M  V30 15032 H 1505.37 -0.379966 -5.72039 0
M  V30 15033 H 1503.77 -1.15293 -5.88921 0
M  V30 15034 H 1504.84 -1.6414 -4.56274 0
M  V30 15035 N 1506.18 1.52647 -0.392018 0
M  V30 15036 C 1507.12 2.24183 0.476934 0
M  V30 15037 C 1508.13 1.26526 1.02446 0
M  V30 15038 O 1509.32 1.52583 0.92632 0
M  V30 15039 C 1506.42 2.94672 1.67397 0
M  V30 15040 C 1505.59 4.19058 1.25335 0
M  V30 15041 C 1504.65 4.72522 2.31537 0
M  V30 15042 O 1503.68 5.35541 1.92833 0
M  V30 15043 N 1504.88 4.52613 3.63486 0
M  V30 15044 H 1507.64 2.99391 -0.135963 0
M  V30 15045 H 1505.2 1.60419 -0.218514 0
M  V30 15046 H 1507.2 3.27338 2.37975 0
M  V30 15047 H 1505.77 2.22755 2.19315 0
M  V30 15048 H 1504.99 3.92399 0.376352 0
M  V30 15049 H 1506.27 4.99871 0.94901 0
M  V30 15050 H 1505.67 4.02316 3.97692 0
M  V30 15051 H 1504.23 4.89761 4.3009 0
M  V30 15052 N 1507.66 0.121921 1.57128 0
M  V30 15053 C 1509.07 -0.402991 1.82299 0
M  V30 15054 C 1509.42 -1.66415 1.03925 0
M  V30 15055 O 1508.55 -2.14623 0.27674 0
M  V30 15056 C 1509.14 -0.737913 3.30666 0
M  V30 15057 C 1507.7 -1.20745 3.56508 0
M  V30 15058 C 1506.85 -0.217628 2.76445 0
M  V30 15059 H 1509.8 0.347009 1.5486 0
M  V30 15060 H 1509.82 -1.59505 3.45454 0
M  V30 15061 H 1509.33 0.180162 3.87682 0
M  V30 15062 H 1507.44 -2.14232 3.04853 0
M  V30 15063 H 1507.55 -1.15075 4.65075 0
M  V30 15064 H 1505.91 -0.705253 2.44741 0
M  V30 15065 H 1506.7 0.693596 3.3622 0
M  V30 15066 N 1509.14 -1.56867 -0.151857 0
M  V30 15067 C 1510.37 -1.87237 -0.880343 0
M  V30 15068 C 1510.78 -0.709565 -1.74959 0
M  V30 15069 O 1510.14 0.320818 -1.79658 0
M  V30 15070 C 1510.19 -3.16811 -1.74107 0
M  V30 15071 O 1509.91 -4.28611 -0.906858 0
M  V30 15072 C 1511.41 -3.60662 -2.57755 0
M  V30 15073 H 1508.63 -0.62074 -0.254799 0
M  V30 15074 H 1511.18 -2.03977 -0.146104 0
M  V30 15075 H 1509.33 -3.01838 -2.42842 0
M  V30 15076 H 1509.75 -5.02673 -1.49733 0
M  V30 15077 H 1511.22 -4.54176 -3.13732 0
M  V30 15078 H 1511.7 -2.85716 -3.33561 0
M  V30 15079 H 1512.3 -3.78312 -1.94319 0
M  V30 15080 N 1510.62 0.421051 -1.51871 0
M  V30 15081 C 1511.55 1.51928 -1.77313 0
M  V30 15082 C 1512.53 1.58258 -0.623579 0
M  V30 15083 O 1513.71 1.73724 -0.867967 0
M  V30 15084 C 1510.84 2.89865 -1.913 0
M  V30 15085 C 1509.8 2.98391 -3.06834 0
M  V30 15086 C 1509.12 4.38466 -3.06026 0
M  V30 15087 C 1510.42 2.7097 -4.46511 0
M  V30 15088 H 1512.12 1.30889 -2.69274 0
M  V30 15089 H 1509.66 0.628229 -1.29573 0
M  V30 15090 H 1511.62 3.66669 -2.07682 0
M  V30 15091 H 1510.34 3.12172 -0.960011 0
M  V30 15092 H 1509 2.24029 -2.90184 0
M  V30 15093 H 1508.65 4.57764 -2.08472 0
M  V30 15094 H 1508.35 4.45097 -3.83618 0
M  V30 15095 H 1509.87 5.17221 -3.24522 0
M  V30 15096 H 1511.29 3.37501 -4.63428 0
M  V30 15097 H 1509.68 2.88992 -5.25931 0
M  V30 15098 H 1510.75 1.66476 -4.55427 0
M  V30 15099 N 1512.1 1.42293 0.677538 0
M  V30 15100 C 1513.32 1.46214 1.47092 0
M  V30 15101 C 1513.75 0.0740989 1.87954 0
M  V30 15102 O 1513.1 -0.926831 1.55819 0
M  V30 15103 C 1513.15 2.39236 2.69812 0
M  V30 15104 O 1512.26 1.86183 3.6798 0
M  V30 15105 H 1511.6 0.495507 0.442006 0
M  V30 15106 H 1514.13 1.86952 0.831274 0
M  V30 15107 H 1514.14 2.55723 3.17915 0
M  V30 15108 H 1512.81 3.40081 2.39411 0
M  V30 15109 H 1511.39 1.79237 3.26999 0
M  V30 15110 N 1513.57 -0.913576 1.28419 0
M  V30 15111 C 1514.54 -1.99757 1.12382 0
M  V30 15112 C 1515.54 -1.60675 0.063435 0
M  V30 15113 O 1516.73 -1.71433 0.30923 0
M  V30 15114 C 1513.86 -3.33307 0.715506 0
M  V30 15115 H 1515.05 -2.15414 2.08655 0
M  V30 15116 H 1512.61 -1.09626 1.11408 0
M  V30 15117 H 1513.34 -3.23351 -0.247977 0
M  V30 15118 H 1513.13 -3.63034 1.4815 0
M  V30 15119 H 1514.62 -4.12882 0.625953 0
M  V30 15120 N 1515.05 -1.1067 -1.12204 0
M  V30 15121 C 1516.28 -0.872867 -1.87586 0
M  V30 15122 C 1516.7 0.57682 -1.79773 0
M  V30 15123 O 1516.05 1.39782 -1.17334 0
M  V30 15124 C 1516.1 -1.31572 -3.36706 0
M  V30 15125 O 1515.82 -2.70856 -3.44338 0
M  V30 15126 C 1517.33 -1.11613 -4.29019 0
M  V30 15127 H 1514.55 -0.313132 -0.593455 0
M  V30 15128 H 1517.09 -1.47199 -1.4196 0
M  V30 15129 H 1515.24 -0.760212 -3.79868 0
M  V30 15130 H 1515.66 -2.89854 -4.37132 0
M  V30 15131 H 1517.13 -1.4751 -5.31925 0
M  V30 15132 H 1517.61 -0.0549698 -4.39166 0
M  V30 15133 H 1518.22 -1.65822 -3.91642 0
M  V30 15134 N 1516.53 1.29665 -0.895815 0
M  V30 15135 C 1517.76 2.00399 -0.534333 0
M  V30 15136 C 1518.18 1.66632 0.872654 0
M  V30 15137 O 1517.54 0.888811 1.58018 0
M  V30 15138 C 1517.59 3.53154 -0.729023 0
M  V30 15139 O 1516.69 4.11812 0.22023 0
M  V30 15140 H 1516.03 0.630173 -0.209233 0
M  V30 15141 H 1518.56 1.65253 -1.20634 0
M  V30 15142 H 1518.57 4.03073 -0.632179 0
M  V30 15143 H 1517.25 3.77067 -1.75481 0
M  V30 15144 H 1515.82 3.72822 0.0761687 0
M  V30 15145 N 1518.01 0.657889 1.43212 0
M  V30 15146 C 1518.96 -0.0427288 2.32561 0
M  V30 15147 C 1519.95 -0.808236 1.48875 0
M  V30 15148 O 1521.16 -0.718109 1.65055 0
M  V30 15149 H 1517.53 -0.0326049 0.751293 0
M  V30 15150 H 1519.5 0.728503 2.89371 0
M  V30 15151 C 1518.25 -0.99216 3.33244 0
M  V30 15152 H 1517.57 -0.412542 3.97666 0
M  V30 15153 H 1519.01 -1.45138 3.98385 0
M  V30 15154 C 1517.47 -2.09044 2.64201 0
M  V30 15155 O 1518 -3.17481 2.46107 0
M  V30 15156 N 1516.21 -1.85732 2.23499 0
M  V30 15157 H 1515.76 -0.975483 2.38416 0
M  V30 15158 H 1515.71 -2.5941 1.77634 0
M  V30 15159 N 1519.49 -1.52437 0.400108 0
M  V30 15160 C 1520.42 -2.29672 -0.421054 0
M  V30 15161 C 1521.4 -1.33506 -1.05405 0
M  V30 15162 O 1522.58 -1.62408 -1.06477 0
M  V30 15163 C 1519.71 -3.1115 -1.54281 0
M  V30 15164 C 1518.67 -4.1529 -1.0353 0
M  V30 15165 C 1517.99 -4.85058 -2.24996 0
M  V30 15166 C 1519.29 -5.22212 -0.0956529 0
M  V30 15167 H 1520.99 -2.98565 0.2234 0
M  V30 15168 H 1518.53 -1.43588 0.108883 0
M  V30 15169 H 1520.49 -3.63945 -2.12419 0
M  V30 15170 H 1519.21 -2.4001 -2.21501 0
M  V30 15171 H 1517.87 -3.63492 -0.476383 0
M  V30 15172 H 1517.52 -4.10455 -2.9075 0
M  V30 15173 H 1517.22 -5.55452 -1.91694 0
M  V30 15174 H 1518.74 -5.40661 -2.83756 0
M  V30 15175 H 1520.15 -5.70302 -0.585548 0
M  V30 15176 H 1518.55 -5.99917 0.148121 0
M  V30 15177 H 1519.62 -4.77351 0.852296 0
M  V30 15178 N 1520.96 -0.130252 -1.57061 0
M  V30 15179 C 1522.19 0.532416 -1.99932 0
M  V30 15180 C 1522.61 1.59505 -1.01013 0
M  V30 15181 O 1521.96 1.82499 -0.00463158 0
M  V30 15182 C 1522.02 1.14833 -3.42776 0
M  V30 15183 O 1521.74 0.128163 -4.37912 0
M  V30 15184 C 1523.24 1.89324 -4.00838 0
M  V30 15185 H 1520.46 0.140046 -0.656223 0
M  V30 15186 H 1523 -0.219905 -2.03314 0
M  V30 15187 H 1521.16 1.85137 -3.40298 0
M  V30 15188 H 1521.57 0.577135 -5.21315 0
M  V30 15189 H 1523.04 2.27731 -5.02835 0
M  V30 15190 H 1523.52 2.77277 -3.40608 0
M  V30 15191 H 1524.13 1.23757 -4.06896 0
M  V30 15192 N 1522.44 1.56945 0.143535 0
M  V30 15193 C 1523.69 1.8381 0.856831 0
M  V30 15194 C 1524.02 0.712375 1.80662 0
M  V30 15195 O 1523.3 -0.283743 1.92419 0
M  V30 15196 C 1523.58 3.21184 1.62828 0
M  V30 15197 C 1523.43 4.44324 0.699744 0
M  V30 15198 C 1524.75 3.5582 2.58999 0
M  V30 15199 H 1521.87 0.668611 0.310046 0
M  V30 15200 H 1524.51 1.89609 0.1219 0
M  V30 15201 H 1522.66 3.16372 2.2548 0
M  V30 15202 H 1524.34 4.61224 0.0839619 0
M  V30 15203 H 1522.58 4.33799 0.0095529 0
M  V30 15204 H 1523.25 5.37058 1.27564 0
M  V30 15205 H 1525.73 3.61264 2.06464 0
M  V30 15206 H 1524.6 4.52964 3.10024 0
M  V30 15207 H 1524.86 2.81956 3.40519 0
M  V30 15208 N 1523.92 -0.412991 1.52093 0
M  V30 15209 C 1524.85 -1.50986 1.78117 0
M  V30 15210 C 1525.83 -1.57925 0.631963 0
M  V30 15211 O 1527.02 -1.73261 0.877168 0
M  V30 15212 C 1524.15 -2.88846 1.92835 0
M  V30 15213 C 1523.1 -2.96759 3.08412 0
M  V30 15214 C 1522.43 -4.36837 3.08347 0
M  V30 15215 C 1523.73 -2.68599 4.47942 0
M  V30 15216 H 1525.42 -1.29459 2.69964 0
M  V30 15217 H 1522.97 -0.621348 1.29905 0
M  V30 15218 H 1524.92 -3.65563 2.09623 0
M  V30 15219 H 1523.64 -3.11658 0.976553 0
M  V30 15220 H 1522.3 -2.22487 2.91368 0
M  V30 15221 H 1521.95 -4.56652 2.10897 0
M  V30 15222 H 1521.65 -4.43056 3.85973 0
M  V30 15223 H 1523.18 -5.15493 3.2726 0
M  V30 15224 H 1524.59 -3.35039 4.65212 0
M  V30 15225 H 1522.99 -2.86199 5.27456 0
M  V30 15226 H 1524.06 -1.64058 4.56304 0
M  V30 15227 N 1525.4 -1.4265 -0.669982 0
M  V30 15228 C 1526.65 -1.43589 -1.43213 0
M  V30 15229 C 1526.98 -0.0537998 -1.94125 0
M  V30 15230 O 1526.25 0.922727 -1.71219 0
M  V30 15231 C 1526.54 -2.46433 -2.62569 0
M  V30 15232 C 1526.39 -3.93851 -2.17258 0
M  V30 15233 C 1527.71 -2.46208 -3.64787 0
M  V30 15234 H 1524.83 -0.522859 -0.519411 0
M  V30 15235 H 1527.47 -1.74094 -0.760997 0
M  V30 15236 H 1525.62 -2.20551 -3.19828 0
M  V30 15237 H 1527.29 -4.30732 -1.6513 0
M  V30 15238 H 1525.53 -4.07487 -1.48786 0
M  V30 15239 H 1526.21 -4.61398 -3.03012 0
M  V30 15240 H 1528.68 -2.69237 -3.17255 0
M  V30 15241 H 1527.56 -3.20138 -4.45873 0
M  V30 15242 H 1527.82 -1.48979 -4.16242 0
M  V30 15243 N 1526.88 0.906753 -1.28902 0
M  V30 15244 C 1528.29 1.47175 -1.14876 0
M  V30 15245 C 1528.64 1.94487 0.258693 0
M  V30 15246 O 1527.76 1.83088 1.15359 0
M  V30 15247 C 1528.36 2.67491 -2.07928 0
M  V30 15248 C 1526.92 3.20148 -1.97946 0
M  V30 15249 C 1526.07 1.92846 -1.99263 0
M  V30 15250 H 1529.02 0.718777 -1.4149 0
M  V30 15251 H 1529.04 3.42989 -1.64738 0
M  V30 15252 H 1528.55 2.33025 -3.10356 0
M  V30 15253 H 1526.65 3.59322 -0.985806 0
M  V30 15254 H 1526.76 3.84923 -2.85256 0
M  V30 15255 H 1525.13 2.10247 -1.43765 0
M  V30 15256 H 1525.91 1.60666 -3.03383 0
M  V30 15257 N 1528.36 1.11264 1.11616 0
M  V30 15258 C 1529.58 0.88306 1.87661 0
M  V30 15259 C 1530.01 -0.561586 1.79521 0
M  V30 15260 O 1529.36 -1.3964 1.1563 0
M  V30 15261 C 1529.41 1.34698 3.34498 0
M  V30 15262 O 1528.52 0.517512 4.0914 0
M  V30 15263 H 1527.86 0.318233 0.582772 0
M  V30 15264 H 1530.39 1.48164 1.41098 0
M  V30 15265 H 1530.4 1.34068 3.85344 0
M  V30 15266 H 1529.07 2.39896 3.39739 0
M  V30 15267 H 1527.65 0.589751 3.68207 0
M  V30 15268 N 1529.83 -1.29188 0.902679 0
M  V30 15269 C 1530.77 -2.26665 0.339964 0
M  V30 15270 C 1531.78 -1.54426 -0.515396 0
M  V30 15271 O 1532.97 -1.75384 -0.332071 0
M  V30 15272 C 1530.07 -3.34672 -0.533653 0
M  V30 15273 C 1529.24 -4.36393 0.296661 0
M  V30 15274 C 1528.3 -5.2372 -0.510264 0
M  V30 15275 O 1527.33 -5.69153 0.0732871 0
M  V30 15276 N 1528.53 -5.51373 -1.81572 0
M  V30 15277 H 1531.29 -2.75588 1.17778 0
M  V30 15278 H 1528.85 -1.42553 0.767474 0
M  V30 15279 H 1530.85 -3.90025 -1.07995 0
M  V30 15280 H 1529.42 -2.85543 -1.27216 0
M  V30 15281 H 1528.64 -3.80658 1.02436 0
M  V30 15282 H 1529.92 -5.0139 0.865191 0
M  V30 15283 H 1529.32 -5.16275 -2.31251 0
M  V30 15284 H 1527.88 -6.09528 -2.30908 0
M  V30 15285 N 1531.31 -0.665475 -1.42861 0
M  V30 15286 C 1532.24 0.0574495 -2.29128 0
M  V30 15287 C 1533.26 0.774881 -1.43176 0
M  V30 15288 O 1534.45 0.630593 -1.6699 0
M  V30 15289 C 1531.55 1.10481 -3.20386 0
M  V30 15290 C 1530.72 0.463071 -4.34942 0
M  V30 15291 C 1529.78 1.40896 -5.06986 0
M  V30 15292 O 1528.8 0.912839 -5.61833 0
M  V30 15293 N 1530.01 2.74257 -5.11628 0
M  V30 15294 H 1532.77 -0.683051 -2.91812 0
M  V30 15295 H 1530.33 -0.509179 -1.53685 0
M  V30 15296 H 1532.32 1.73866 -3.65449 0
M  V30 15297 H 1530.89 1.74715 -2.59217 0
M  V30 15298 H 1530.11 -0.350109 -3.92642 0
M  V30 15299 H 1531.4 0.0156092 -5.08798 0
M  V30 15300 H 1530.8 3.17112 -4.68462 0
M  V30 15301 H 1529.36 3.32913 -5.60368 0
M  V30 15302 N 1532.79 1.52222 -0.408187 0
M  V30 15303 C 1533.75 2.25578 0.405851 0
M  V30 15304 C 1534.75 1.27912 0.974434 0
M  V30 15305 O 1535.94 1.51861 0.853461 0
M  V30 15306 C 1533.07 3.02532 1.57122 0
M  V30 15307 H 1534.27 2.98965 -0.23664 0
M  V30 15308 H 1531.82 1.55472 -0.160687 0
M  V30 15309 H 1532.56 2.33492 2.2506 0
M  V30 15310 H 1532.34 3.74237 1.17001 0
M  V30 15311 H 1533.83 3.58177 2.14707 0
M  V30 15312 N 1534.27 0.138579 1.5699 0
M  V30 15313 C 1535.5 -0.521806 2.00212 0
M  V30 15314 C 1535.91 -1.58967 1.01857 0
M  V30 15315 O 1535.27 -1.82494 0.0143099 0
M  V30 15316 C 1535.32 -1.13014 3.4338 0
M  V30 15317 O 1535.04 -0.104938 4.37974 0
M  V30 15318 C 1536.54 -1.87195 4.01837 0
M  V30 15319 H 1533.76 -0.136564 0.656956 0
M  V30 15320 H 1536.3 0.230685 2.03195 0
M  V30 15321 H 1534.46 -1.8333 3.41275 0
M  V30 15322 H 1534.87 -0.54948 5.21614 0
M  V30 15323 H 1536.35 -2.25061 5.04035 0
M  V30 15324 H 1536.82 -2.75467 3.42074 0
M  V30 15325 H 1537.43 -1.21597 4.07547 0
M  V30 15326 N 1535.75 -1.57019 -0.13521 0
M  V30 15327 C 1536.66 -2.02427 -1.18578 0
M  V30 15328 C 1537.67 -0.941738 -1.46312 0
M  V30 15329 O 1538.85 -1.25208 -1.57749 0
M  V30 15330 C 1535.91 -2.40577 -2.49647 0
M  V30 15331 C 1534.97 -3.62835 -2.29455 0
M  V30 15332 C 1534.21 -3.99156 -3.54274 0
M  V30 15333 O 1534.43 -3.36001 -4.60933 0
M  V30 15334 O 1533.36 -4.92345 -3.46238 0
M  V30 15335 H 1537.19 -2.92131 -0.830237 0
M  V30 15336 H 1534.77 -1.45366 -0.344814 0
M  V30 15337 H 1536.66 -2.65922 -3.269 0
M  V30 15338 H 1535.33 -1.54023 -2.84708 0
M  V30 15339 H 1534.24 -3.42661 -1.50114 0
M  V30 15340 H 1535.57 -4.50043 -1.99305 0
M  V30 15341 N 1537.22 0.404919 -1.52309 0
M  V30 15342 C 1538.5 1.16473 -1.57142 0
M  V30 15343 C 1538.88 2.08094 -0.354967 0
M  V30 15344 O 1538.23 2.18825 0.65788 0
M  V30 15345 C 1538.44 1.93834 -2.90223 0
M  V30 15346 C 1539.79 2.49754 -3.43378 0
M  V30 15347 O 1540.81 2.04009 -2.91991 0
M  V30 15348 O 1539.67 3.33271 -4.3312 0
M  V30 15349 H 1536.76 0.532036 -0.633141 0
M  V30 15350 H 1539.31 0.411359 -1.64639 0
M  V30 15351 H 1538.08 1.2674 -3.70206 0
M  V30 15352 H 1537.71 2.76167 -2.86038 0
M  V30 15353 N 1538.7 1.43003 0.662408 0
M  V30 15354 C 1539.64 1.4189 1.78725 0
M  V30 15355 C 1540.61 0.281515 1.60144 0
M  V30 15356 O 1541.8 0.473677 1.82452 0
M  V30 15357 C 1538.92 1.22166 3.159 0
M  V30 15358 C 1537.97 2.39061 3.53203 0
M  V30 15359 S 1538.8 4.01607 3.54221 0
M  V30 15360 C 1539.96 3.84249 4.94068 0
M  V30 15361 H 1540.19 2.37073 1.79398 0
M  V30 15362 H 1537.73 1.29924 0.834214 0
M  V30 15363 H 1539.68 1.11474 3.95074 0
M  V30 15364 H 1538.34 0.285468 3.128 0
M  V30 15365 H 1537.54 2.21041 4.52943 0
M  V30 15366 H 1537.14 2.46331 2.81419 0
M  V30 15367 H 1539.43 3.46006 5.82483 0
M  V30 15368 H 1540.37 4.83709 5.17138 0
M  V30 15369 H 1540.78 3.16879 4.6717 0
M  V30 15370 N 1540.18 -0.899904 1.29381 0
M  V30 15371 C 1541.46 -1.63067 1.08021 0
M  V30 15372 C 1541.84 -2.0773 -0.375716 0
M  V30 15373 O 1541.19 -1.83288 -1.36447 0
M  V30 15374 C 1541.4 -2.81163 2.06757 0
M  V30 15375 C 1542.74 -3.51854 2.37664 0
M  V30 15376 O 1543.77 -2.91332 2.0495 0
M  V30 15377 O 1542.63 -4.60962 2.93558 0
M  V30 15378 H 1539.72 -0.71601 0.413835 0
M  V30 15379 H 1542.27 -0.947991 1.40752 0
M  V30 15380 H 1541.04 -2.45355 3.04822 0
M  V30 15381 H 1540.66 -3.57137 1.74754 0
M  V30 15382 N 1541.66 -1.11854 -1.11024 0
M  V30 15383 C 1542.59 -0.738635 -2.16972 0
M  V30 15384 C 1543.6 0.231814 -1.61141 0
M  V30 15385 O 1544.79 0.0140607 -1.78494 0
M  V30 15386 C 1541.89 -0.0715797 -3.38824 0
M  V30 15387 C 1541.07 -1.06995 -4.24112 0
M  V30 15388 C 1540.12 -0.431644 -5.24427 0
M  V30 15389 O 1539.15 -1.08685 -5.58727 0
M  V30 15390 N 1540.35 0.803593 -5.74911 0
M  V30 15391 H 1543.12 -1.65025 -2.50174 0
M  V30 15392 H 1540.68 -1.00933 -1.26586 0
M  V30 15393 H 1542.67 0.367274 -4.0303 0
M  V30 15394 H 1541.24 0.742686 -3.03649 0
M  V30 15395 H 1540.46 -1.68662 -3.56296 0
M  V30 15396 H 1541.75 -1.74525 -4.77931 0
M  V30 15397 H 1541.15 1.355 -5.49232 0
M  V30 15398 H 1539.7 1.18536 -6.40931 0
M  V30 15399 N 1543.14 1.28707 -0.909517 0
M  V30 15400 C 1544.41 1.90124 -0.459585 0
M  V30 15401 C 1544.79 1.82477 1.06139 0
M  V30 15402 O 1544.14 1.25792 1.90758 0
M  V30 15403 C 1544.35 3.34806 -0.985188 0
M  V30 15404 C 1545.7 4.11799 -1.03475 0
M  V30 15405 O 1546.72 3.43749 -0.933536 0
M  V30 15406 O 1545.58 5.33426 -1.18825 0
M  V30 15407 H 1542.68 0.814199 -0.144948 0
M  V30 15408 H 1545.22 1.37104 -1.00002 0
M  V30 15409 H 1543.99 3.34575 -2.02917 0
M  V30 15410 H 1543.62 3.95318 -0.425329 0
M  V30 15411 N 1544.61 0.673042 1.42506 0
M  V30 15412 C 1545.52 -0.00648572 2.34599 0
M  V30 15413 C 1546.54 -0.790758 1.54994 0
M  V30 15414 O 1547.72 -0.733482 1.87569 0
M  V30 15415 C 1544.78 -0.94734 3.33506 0
M  V30 15416 C 1543.84 -0.157795 4.2901 0
M  V30 15417 C 1543.08 -1.05384 5.23192 0
M  V30 15418 O 1543.3 -2.29334 5.22266 0
M  V30 15419 O 1542.23 -0.515584 5.99688 0
M  V30 15420 H 1546.06 0.752059 2.94241 0
M  V30 15421 H 1543.64 0.433272 1.42979 0
M  V30 15422 H 1545.53 -1.4875 3.94273 0
M  V30 15423 H 1544.2 -1.68577 2.7634 0
M  V30 15424 H 1543.11 0.426426 3.71662 0
M  V30 15425 H 1544.44 0.54148 4.89212 0
M  V30 15426 N 1546.09 -1.52004 0.416254 0
M  V30 15427 C 1547.04 -2.27206 -0.405723 0
M  V30 15428 C 1548.01 -1.29913 -1.03498 0
M  V30 15429 O 1549.19 -1.58786 -1.0579 0
M  V30 15430 C 1546.33 -3.10186 -1.51258 0
M  V30 15431 C 1545.45 -4.22445 -0.903539 0
M  V30 15432 C 1544.58 -4.92771 -1.98368 0
M  V30 15433 C 1543.62 -5.96983 -1.35196 0
M  V30 15434 N 1542.76 -6.60798 -2.37255 0
M  V30 15435 H 1547.6 -2.97016 0.241983 0
M  V30 15436 H 1545.14 -1.46514 0.131174 0
M  V30 15437 H 1547.09 -3.56606 -2.16537 0
M  V30 15438 H 1545.72 -2.42532 -2.13021 0
M  V30 15439 H 1544.78 -3.80144 -0.139607 0
M  V30 15440 H 1546.09 -4.97176 -0.402136 0
M  V30 15441 H 1545.24 -5.42633 -2.71357 0
M  V30 15442 H 1543.98 -4.17624 -2.51876 0
M  V30 15443 H 1542.99 -5.46434 -0.607431 0
M  V30 15444 H 1544.21 -6.74076 -0.824482 0
M  V30 15445 H 1542.16 -5.88476 -2.89882 0
M  V30 15446 H 1542.07 -7.31227 -1.91947 0
M  V30 15447 H 1543.34 -7.15296 -3.09792 0
M  V30 15448 N 1547.57 -0.146903 -1.56914 0
M  V30 15449 C 1548.8 0.514426 -2.00919 0
M  V30 15450 C 1549.22 1.57632 -1.02634 0
M  V30 15451 O 1548.58 1.813 -0.00207478 0
M  V30 15452 C 1548.63 1.09197 -3.43669 0
M  V30 15453 O 1547.73 2.20684 -3.48385 0
M  V30 15454 H 1547.07 0.125827 -0.651969 0
M  V30 15455 H 1549.6 -0.243607 -2.03145 0
M  V30 15456 H 1549.61 1.42066 -3.82467 0
M  V30 15457 H 1548.29 0.314336 -4.1471 0
M  V30 15458 H 1546.86 1.89045 -3.21429 0
M  V30 15459 N 1549.05 1.57088 0.126881 0
M  V30 15460 C 1550.3 1.84436 0.836048 0
M  V30 15461 C 1550.62 0.730824 1.80248 0
M  V30 15462 O 1549.88 -0.278509 1.93708 0
M  V30 15463 C 1550.18 3.18225 1.62688 0
M  V30 15464 C 1549.84 4.43648 0.80545 0
M  V30 15465 C 1548.51 4.77705 0.578901 0
M  V30 15466 C 1550.86 5.20682 0.232355 0
M  V30 15467 C 1548.19 5.86245 -0.231126 0
M  V30 15468 C 1550.54 6.30073 -0.564819 0
M  V30 15469 C 1549.2 6.62667 -0.801759 0
M  V30 15470 H 1548.47 0.674898 0.305932 0
M  V30 15471 H 1551.12 1.91245 0.0987618 0
M  V30 15472 H 1549.42 3.06956 2.43485 0
M  V30 15473 H 1551.12 3.36604 2.17942 0
M  V30 15474 H 1547.71 4.16959 0.99211 0
M  V30 15475 H 1551.89 4.94729 0.394616 0
M  V30 15476 H 1547.15 6.09928 -0.423998 0
M  V30 15477 H 1551.32 6.8895 -1.01592 0
M  V30 15478 H 1548.95 7.46605 -1.43126 0
M  V30 15479 N 1550.53 -0.396836 1.52522 0
M  V30 15480 C 1551.77 -1.14098 1.68384 0
M  V30 15481 C 1552.13 -1.87877 0.414722 0
M  V30 15482 O 1551.42 -1.82247 -0.591318 0
M  V30 15483 C 1551.61 -2.15308 2.85267 0
M  V30 15484 C 1551.44 -1.51469 4.23423 0
M  V30 15485 C 1550.21 -1.28212 4.88763 0
M  V30 15486 C 1552.41 -0.968974 5.05089 0
M  V30 15487 N 1550.39 -0.603954 6.10922 0
M  V30 15488 C 1551.76 -0.418425 6.18586 0
M  V30 15489 C 1553.82 -0.864625 4.90335 0
M  V30 15490 C 1552.52 0.22626 7.18944 0
M  V30 15491 C 1554.55 -0.233774 5.90938 0
M  V30 15492 C 1553.91 0.306041 7.03735 0
M  V30 15493 H 1550.01 -0.403756 0.669705 0
M  V30 15494 H 1552.59 -0.431615 1.89856 0
M  V30 15495 H 1550.76 -2.8359 2.65389 0
M  V30 15496 H 1552.5 -2.82173 2.90104 0
M  V30 15497 H 1549.25 -1.55499 4.47344 0
M  V30 15498 H 1549.68 -0.28114 6.76416 0
M  V30 15499 H 1554.32 -1.26778 4.03345 0
M  V30 15500 H 1552.04 0.641447 8.0555 0
M  V30 15501 H 1555.62 -0.154387 5.81595 0
M  V30 15502 H 1554.5 0.786488 7.80246 0
M  V30 15503 N 1552.01 -1.43353 -0.654814 0
M  V30 15504 C 1552.94 -1.51194 -1.7794 0
M  V30 15505 C 1553.92 -0.366747 -1.66099 0
M  V30 15506 O 1555.1 -0.58375 -1.85219 0
M  V30 15507 C 1552.23 -1.43298 -3.16359 0
M  V30 15508 C 1551.19 -2.5605 -3.42961 0
M  V30 15509 C 1550.51 -2.33208 -4.81163 0
M  V30 15510 C 1551.81 -3.98303 -3.37864 0
M  V30 15511 H 1553.51 -2.4532 -1.71635 0
M  V30 15512 H 1551.05 -1.18072 -0.824319 0
M  V30 15513 H 1553 -1.47388 -3.94784 0
M  V30 15514 H 1551.73 -0.456761 -3.2339 0
M  V30 15515 H 1550.39 -2.5131 -2.66906 0
M  V30 15516 H 1550.04 -1.33833 -4.84869 0
M  V30 15517 H 1549.74 -3.08789 -4.99923 0
M  V30 15518 H 1551.26 -2.39079 -5.61848 0
M  V30 15519 H 1552.67 -4.04538 -4.06229 0
M  V30 15520 H 1551.07 -4.73897 -3.6816 0
M  V30 15521 H 1552.14 -4.23552 -2.36075 0
M  V30 15522 N 1553.48 0.89303 -1.29857 0
M  V30 15523 C 1554.71 1.6827 -1.21243 0
M  V30 15524 C 1555.13 1.86778 0.222621 0
M  V30 15525 O 1554.49 1.39291 1.1605 0
M  V30 15526 C 1554.54 3.041 -1.93792 0
M  V30 15527 O 1553.64 3.92696 -1.25951 0
M  V30 15528 H 1552.98 0.514479 -0.419771 0
M  V30 15529 H 1555.51 1.11513 -1.7154 0
M  V30 15530 H 1555.52 3.54198 -2.02504 0
M  V30 15531 H 1554.2 2.89948 -2.98166 0
M  V30 15532 H 1552.78 3.51132 -1.25541 0
M  V30 15533 N 1554.96 1.12442 1.10429 0
M  V30 15534 C 1555.89 0.750131 2.16577 0
M  V30 15535 C 1556.91 -0.223265 1.61262 0
M  V30 15536 O 1558.1 -0.00459454 1.78499 0
M  V30 15537 C 1555.2 0.0895474 3.38782 0
M  V30 15538 C 1554.37 1.09242 4.23539 0
M  V30 15539 C 1553.43 0.45945 5.2419 0
M  V30 15540 O 1552.45 1.11646 5.58143 0
M  V30 15541 N 1553.66 -0.773093 5.75329 0
M  V30 15542 H 1556.42 1.66349 2.49295 0
M  V30 15543 H 1553.98 1.01603 1.26049 0
M  V30 15544 H 1555.97 -0.345895 4.03219 0
M  V30 15545 H 1554.54 -0.726572 3.04039 0
M  V30 15546 H 1553.76 1.70549 3.55396 0
M  V30 15547 H 1555.05 1.77057 4.76999 0
M  V30 15548 H 1554.45 -1.32585 5.49943 0
M  V30 15549 H 1553.01 -1.15135 6.41551 0
M  V30 15550 N 1556.44 -1.28223 0.91633 0
M  V30 15551 C 1557.66 -1.99523 0.566147 0
M  V30 15552 C 1558.09 -1.68 -0.846034 0
M  V30 15553 O 1557.45 -0.913838 -1.56584 0
M  V30 15554 C 1557.5 -3.51949 0.785114 0
M  V30 15555 O 1556.6 -4.1211 -0.154686 0
M  V30 15556 H 1555.94 -0.626764 0.219232 0
M  V30 15557 H 1558.47 -1.63313 1.23247 0
M  V30 15558 H 1558.48 -4.02016 0.696224 0
M  V30 15559 H 1557.16 -3.74227 1.81457 0
M  V30 15560 H 1555.73 -3.72896 -0.0168463 0
M  V30 15561 N 1557.92 -0.68059 -1.42147 0
M  V30 15562 C 1558.87 0.00572503 -2.32599 0
M  V30 15563 C 1559.86 0.784449 -1.50142 0
M  V30 15564 O 1561.07 0.69176 -1.66177 0
M  V30 15565 H 1557.44 0.0206483 -0.751716 0
M  V30 15566 H 1559.41 -0.774447 -2.88175 0
M  V30 15567 C 1558.16 0.939019 -3.3478 0
M  V30 15568 H 1557.48 0.349225 -3.98272 0
M  V30 15569 H 1558.92 1.38782 -4.00644 0
M  V30 15570 C 1557.38 2.04814 -2.67493 0
M  V30 15571 O 1557.91 3.13526 -2.51126 0
M  V30 15572 N 1556.12 1.82153 -2.26426 0
M  V30 15573 H 1555.67 0.93743 -2.39938 0
M  V30 15574 H 1555.62 2.56551 -1.81738 0
M  V30 15575 N 1559.4 1.51781 -0.424309 0
M  V30 15576 C 1560.64 2.01157 0.147925 0
M  V30 15577 C 1560.96 1.31369 1.44919 0
M  V30 15578 O 1562.16 1.71643 2.10359 0
M  V30 15579 C 1560.62 3.58526 0.31417 0
M  V30 15580 C 1560.23 4.37242 -0.975898 0
M  V30 15581 C 1561.97 4.16088 0.840876 0
M  V30 15582 C 1559.88 5.86287 -0.776009 0
M  V30 15583 H 1558.81 0.751684 0.0590568 0
M  V30 15584 H 1561.46 1.74998 -0.552079 0
M  V30 15585 H 1559.84 3.81077 1.07687 0
M  V30 15586 H 1561.02 4.26444 -1.74592 0
M  V30 15587 H 1559.33 3.9107 -1.43015 0
M  V30 15588 H 1561.93 5.25138 1.0067 0
M  V30 15589 H 1562.27 3.7442 1.81977 0
M  V30 15590 H 1562.8 3.97565 0.136836 0
M  V30 15591 H 1559.54 6.32343 -1.7269 0
M  V30 15592 H 1559.06 5.99783 -0.0455544 0
M  V30 15593 H 1560.74 6.45609 -0.424095 0
M  V30 15594 N 1560.87 0.155222 1.56834 0
M  V30 15595 C 1562.28 -0.364232 1.83113 0
M  V30 15596 C 1562.64 -1.64173 1.07432 0
M  V30 15597 O 1561.76 -2.13988 0.322202 0
M  V30 15598 C 1562.36 -0.667608 3.32157 0
M  V30 15599 C 1560.91 -1.13156 3.58989 0
M  V30 15600 C 1560.06 -0.158941 2.76844 0
M  V30 15601 H 1563.01 0.379779 1.54089 0
M  V30 15602 H 1563.03 -1.52141 3.4876 0
M  V30 15603 H 1562.55 0.262355 3.87212 0
M  V30 15604 H 1560.65 -2.07717 3.09329 0
M  V30 15605 H 1560.76 -1.05184 4.67411 0
M  V30 15606 H 1559.12 -0.653181 2.46182 0
M  V30 15607 H 1559.91 0.764757 3.34674 0
M  V30 15608 N 1562.35 -1.57153 -0.118549 0
M  V30 15609 C 1563.31 -1.99438 -1.12947 0
M  V30 15610 C 1564.31 -0.884588 -1.34282 0
M  V30 15611 O 1565.5 -1.15062 -1.30792 0
M  V30 15612 C 1562.64 -2.33492 -2.48384 0
M  V30 15613 H 1563.83 -2.89952 -0.766034 0
M  V30 15614 H 1561.38 -1.5203 -0.362858 0
M  V30 15615 H 1562.12 -1.45859 -2.89647 0
M  V30 15616 H 1561.9 -3.14433 -2.34252 0
M  V30 15617 H 1563.39 -2.66945 -3.21139 0
M  V30 15618 N 1563.83 0.388742 -1.5273 0
M  V30 15619 C 1564.76 1.48133 -1.80496 0
M  V30 15620 C 1565.74 1.56899 -0.657008 0
M  V30 15621 O 1566.93 1.71844 -0.904621 0
M  V30 15622 C 1564.06 2.85742 -1.97405 0
M  V30 15623 C 1563.01 2.91815 -3.13094 0
M  V30 15624 C 1562.34 4.31876 -3.15258 0
M  V30 15625 C 1563.64 2.61438 -4.52159 0
M  V30 15626 H 1565.33 1.25147 -2.7199 0
M  V30 15627 H 1562.88 0.600603 -1.30877 0
M  V30 15628 H 1564.83 3.62182 -2.15412 0
M  V30 15629 H 1563.55 3.10065 -1.02601 0
M  V30 15630 H 1562.21 2.17824 -2.9487 0
M  V30 15631 H 1561.86 4.53239 -2.18135 0
M  V30 15632 H 1561.56 4.3686 -3.92972 0
M  V30 15633 H 1563.08 5.10221 -3.3542 0
M  V30 15634 H 1564.5 3.27596 -4.70483 0
M  V30 15635 H 1562.89 2.77771 -5.31943 0
M  V30 15636 H 1563.96 1.56778 -4.58856 0
M  V30 15637 N 1565.31 1.43698 0.647203 0
M  V30 15638 C 1566.56 1.44918 1.40292 0
M  V30 15639 C 1566.87 0.0794243 1.95439 0
M  V30 15640 O 1568.08 -0.0309052 2.71482 0
M  V30 15641 C 1566.53 2.55052 2.53923 0
M  V30 15642 C 1566.14 3.98161 2.05357 0
M  V30 15643 C 1567.88 2.65473 3.31246 0
M  V30 15644 C 1565.79 4.99749 3.16235 0
M  V30 15645 H 1564.72 0.539106 0.527144 0
M  V30 15646 H 1567.37 1.69708 0.697951 0
M  V30 15647 H 1565.75 2.23473 3.26919 0
M  V30 15648 H 1566.93 4.3923 1.39333 0
M  V30 15649 H 1565.24 3.91839 1.40896 0
M  V30 15650 H 1567.84 3.38546 4.13873 0
M  V30 15651 H 1568.18 1.70745 3.79673 0
M  V30 15652 H 1568.72 2.96383 2.65334 0
M  V30 15653 H 1565.45 5.96051 2.7277 0
M  V30 15654 H 1564.97 4.63288 3.80952 0
M  V30 15655 H 1566.65 5.22725 3.81271 0
M  V30 15656 N 1566.79 -0.886131 1.30328 0
M  V30 15657 C 1567.73 -1.99174 1.16612 0
M  V30 15658 C 1568.7 -1.66006 0.0559202 0
M  V30 15659 O 1569.89 -1.89458 0.225897 0
M  V30 15660 C 1567.03 -3.34142 0.862726 0
M  V30 15661 C 1566.14 -3.80008 2.05469 0
M  V30 15662 C 1565.28 -5.03617 1.68949 0
M  V30 15663 C 1564.32 -5.41888 2.84647 0
M  V30 15664 N 1563.45 -6.56678 2.48431 0
M  V30 15665 H 1568.29 -2.10238 2.11197 0
M  V30 15666 H 1565.83 -1.02941 1.05079 0
M  V30 15667 H 1567.79 -4.11826 0.667447 0
M  V30 15668 H 1566.42 -3.22767 -0.0462461 0
M  V30 15669 H 1565.47 -2.98243 2.36126 0
M  V30 15670 H 1566.78 -4.04312 2.92119 0
M  V30 15671 H 1565.94 -5.88923 1.45789 0
M  V30 15672 H 1564.67 -4.81182 0.794674 0
M  V30 15673 H 1563.68 -4.55109 3.08474 0
M  V30 15674 H 1564.9 -5.66296 3.74813 0
M  V30 15675 H 1562.85 -6.35821 1.61453 0
M  V30 15676 H 1562.77 -6.80846 3.28611 0
M  V30 15677 H 1564.04 -7.45219 2.28624 0
M  V30 15678 N 1568.26 -1.13026 -1.09832 0
M  V30 15679 C 1569.49 -0.911137 -1.85423 0
M  V30 15680 C 1569.9 0.543325 -1.81231 0
M  V30 15681 O 1569.25 1.38768 -1.20371 0
M  V30 15682 C 1569.31 -1.31584 -3.34553 0
M  V30 15683 C 1568.97 -2.78288 -3.62498 0
M  V30 15684 C 1569.97 -3.7646 -3.58572 0
M  V30 15685 C 1567.65 -3.15346 -3.90976 0
M  V30 15686 C 1569.65 -5.09703 -3.82729 0
M  V30 15687 C 1567.33 -4.4877 -4.14788 0
M  V30 15688 C 1568.33 -5.45758 -4.10655 0
M  V30 15689 O 1568.02 -6.76775 -4.33856 0
M  V30 15690 H 1567.75 -0.325117 -0.592684 0
M  V30 15691 H 1570.31 -1.50559 -1.39718 0
M  V30 15692 H 1568.54 -0.664628 -3.80946 0
M  V30 15693 H 1570.23 -1.06986 -3.91547 0
M  V30 15694 H 1570.99 -3.49175 -3.36603 0
M  V30 15695 H 1566.87 -2.40459 -3.9332 0
M  V30 15696 H 1570.41 -5.85395 -3.79418 0
M  V30 15697 H 1566.31 -4.75781 -4.36237 0
M  V30 15698 H 1567.08 -6.82815 -4.51338 0
M  V30 15699 N 1569.74 1.27735 -0.923117 0
M  V30 15700 C 1570.69 2.24644 -0.389748 0
M  V30 15701 C 1571.68 1.52822 0.50341 0
M  V30 15702 O 1572.87 1.73672 0.341602 0
M  V30 15703 C 1570 3.41402 0.360535 0
M  V30 15704 C 1569.08 4.20533 -0.548877 0
M  V30 15705 N 1569.47 4.77552 -1.66667 0
M  V30 15706 C 1567.77 4.44617 -0.35102 0
M  V30 15707 C 1568.47 5.37179 -2.23191 0
M  V30 15708 N 1567.45 5.21857 -1.52204 0
M  V30 15709 H 1571.25 2.66308 -1.24328 0
M  V30 15710 H 1568.77 1.42614 -0.776856 0
M  V30 15711 H 1570.76 4.09922 0.759555 0
M  V30 15712 H 1569.42 3.0127 1.21105 0
M  V30 15713 H 1570.43 4.75638 -2.04912 0
M  V30 15714 H 1567.11 4.14967 0.459214 0
M  V30 15715 H 1568.5 5.92274 -3.17272 0
M  V30 15716 N 1571.22 0.688118 1.41784 0
M  V30 15717 C 1572.15 -0.0323076 2.28177 0
M  V30 15718 C 1573.13 -0.795419 1.41816 0
M  V30 15719 O 1574.32 -0.787785 1.71249 0
M  V30 15720 C 1571.44 -1.05308 3.21913 0
M  V30 15721 C 1570.49 -0.384003 4.24768 0
M  V30 15722 S 1571.32 0.86817 5.28416 0
M  V30 15723 C 1572.48 -0.151191 6.25717 0
M  V30 15724 H 1572.71 0.700456 2.88931 0
M  V30 15725 H 1570.24 0.478125 1.46811 0
M  V30 15726 H 1572.2 -1.63689 3.76452 0
M  V30 15727 H 1570.86 -1.75837 2.6027 0
M  V30 15728 H 1570.06 -1.15469 4.90594 0
M  V30 15729 H 1569.66 0.126545 3.73786 0
M  V30 15730 H 1571.95 -1.0068 6.69977 0
M  V30 15731 H 1572.89 0.472955 7.06519 0
M  V30 15732 H 1573.3 -0.502631 5.62258 0
M  V30 15733 N 1572.7 -1.51554 0.432352 0
M  V30 15734 C 1573.63 -2.30514 -0.372243 0
M  V30 15735 C 1574.61 -1.35712 -1.02549 0
M  V30 15736 O 1575.79 -1.6463 -1.03009 0
M  V30 15737 C 1572.92 -3.14353 -1.47646 0
M  V30 15738 C 1571.88 -4.17392 -0.946974 0
M  V30 15739 C 1571.2 -4.89721 -2.14656 0
M  V30 15740 C 1572.5 -5.22298 0.0151377 0
M  V30 15741 H 1574.2 -2.98024 0.28668 0
M  V30 15742 H 1571.74 -1.43325 0.139315 0
M  V30 15743 H 1573.7 -3.68369 -2.04651 0
M  V30 15744 H 1572.42 -2.44654 -2.1636 0
M  V30 15745 H 1571.08 -3.6442 -0.399174 0
M  V30 15746 H 1570.73 -4.1653 -2.81978 0
M  V30 15747 H 1570.43 -5.59393 -1.79869 0
M  V30 15748 H 1571.95 -5.46559 -2.72224 0
M  V30 15749 H 1573.37 -5.71416 -0.464447 0
M  V30 15750 H 1571.76 -5.99468 0.275339 0
M  V30 15751 H 1572.83 -4.75436 0.953357 0
M  V30 15752 N 1574.18 -0.163538 -1.56749 0
M  V30 15753 C 1575.11 0.765571 -2.20593 0
M  V30 15754 C 1576.09 1.24489 -1.15916 0
M  V30 15755 O 1577.27 1.29946 -1.44318 0
M  V30 15756 C 1574.4 1.99823 -2.84057 0
M  V30 15757 C 1573.36 1.65506 -3.94705 0
M  V30 15758 C 1572.68 2.96172 -4.45181 0
M  V30 15759 C 1573.98 0.88902 -5.14678 0
M  V30 15760 H 1575.68 0.233431 -2.98489 0
M  V30 15761 H 1573.22 0.110836 -1.43573 0
M  V30 15762 H 1575.18 2.65316 -3.27392 0
M  V30 15763 H 1573.9 2.55437 -2.03517 0
M  V30 15764 H 1572.56 1.02384 -3.52013 0
M  V30 15765 H 1572.21 3.49811 -3.61443 0
M  V30 15766 H 1571.91 2.73968 -5.19823 0
M  V30 15767 H 1573.43 3.62708 -4.91198 0
M  V30 15768 H 1574.84 1.44637 -5.54755 0
M  V30 15769 H 1573.24 0.766302 -5.95187 0
M  V30 15770 H 1574.31 -0.116145 -4.84761 0
M  V30 15771 N 1575.65 1.57214 0.110213 0
M  V30 15772 C 1576.9 1.84946 0.814827 0
M  V30 15773 C 1577.22 0.750029 1.79999 0
M  V30 15774 O 1576.49 -0.225164 1.94602 0
M  V30 15775 H 1575.07 0.682385 0.303907 0
M  V30 15776 H 1577.74 1.94666 0.0954415 0
M  V30 15777 H 1576.83 2.81167 1.35469 0
M  V30 15778 N 1577.13 -0.380637 1.52934 0
M  V30 15779 C 1578.36 -1.14583 1.72274 0
M  V30 15780 C 1578.78 -1.83484 0.444864 0
M  V30 15781 O 1578.13 -1.72997 -0.581245 0
M  V30 15782 C 1578.18 -2.18756 2.87799 0
M  V30 15783 O 1577.9 -1.52662 4.10641 0
M  V30 15784 C 1579.41 -3.07938 3.18887 0
M  V30 15785 H 1576.63 -0.343218 0.576578 0
M  V30 15786 H 1579.17 -0.444149 1.99619 0
M  V30 15787 H 1577.32 -2.84546 2.62892 0
M  V30 15788 H 1577.74 -2.21949 4.75225 0
M  V30 15789 H 1579.21 -3.77045 4.03164 0
M  V30 15790 H 1579.69 -3.71913 2.33618 0
M  V30 15791 H 1580.3 -2.47783 3.45664 0
M  V30 15792 N 1578.61 -1.44039 -0.639573 0
M  V30 15793 C 1579.84 -1.49626 -1.42462 0
M  V30 15794 C 1580.25 -0.117078 -1.88837 0
M  V30 15795 O 1579.59 0.885666 -1.6094 0
M  V30 15796 C 1579.65 -2.39182 -2.68388 0
M  V30 15797 C 1579.32 -3.86496 -2.43865 0
M  V30 15798 C 1580.31 -4.7725 -2.06224 0
M  V30 15799 C 1578 -4.31117 -2.57766 0
M  V30 15800 C 1579.99 -6.10625 -1.82801 0
M  V30 15801 C 1577.68 -5.64541 -2.33958 0
M  V30 15802 C 1578.68 -6.54113 -1.96533 0
M  V30 15803 O 1578.37 -7.85068 -1.72983 0
M  V30 15804 H 1578.1 -0.510054 -0.443645 0
M  V30 15805 H 1580.65 -1.89593 -0.790162 0
M  V30 15806 H 1578.88 -1.94127 -3.34442 0
M  V30 15807 H 1580.57 -2.35816 -3.30372 0
M  V30 15808 H 1581.34 -4.44051 -1.95048 0
M  V30 15809 H 1577.22 -3.61663 -2.85868 0
M  V30 15810 H 1580.76 -6.80499 -1.53514 0
M  V30 15811 H 1576.66 -5.97304 -2.44741 0
M  V30 15812 H 1577.43 -7.96782 -1.87298 0
M  V30 15813 N 1580.09 0.879207 -1.30796 0
M  V30 15814 C 1581.5 1.16344 -1.09253 0
M  V30 15815 C 1581.7 2.00992 0.142993 0
M  V30 15816 O 1580.76 2.38295 0.834966 0
M  V30 15817 C 1582.07 1.86452 -2.35915 0
M  V30 15818 C 1583.62 1.99193 -2.41436 0
M  V30 15819 C 1584.1 2.72714 -3.67955 0
M  V30 15820 N 1585.59 2.80256 -3.68796 0
M  V30 15821 C 1586.32 3.37732 -4.63384 0
M  V30 15822 N 1585.82 3.96212 -5.6832 0
M  V30 15823 N 1587.61 3.35602 -4.50918 0
M  V30 15824 H 1579.76 0.314928 -2.10052 0
M  V30 15825 H 1582.03 0.202087 -0.92621 0
M  V30 15826 H 1581.73 1.31699 -3.26111 0
M  V30 15827 H 1581.61 2.86796 -2.45006 0
M  V30 15828 H 1583.99 2.53113 -1.51716 0
M  V30 15829 H 1584.07 0.97919 -2.36317 0
M  V30 15830 H 1583.72 2.19464 -4.58037 0
M  V30 15831 H 1583.65 3.74376 -3.70338 0
M  V30 15832 H 1586.14 2.38742 -2.92935 0
M  V30 15833 H 1586.45 4.38153 -6.36586 0
M  V30 15834 H 1584.8 3.94615 -5.72105 0
M  V30 15835 H 1587.99 2.89147 -3.68119 0
M  V30 15836 H 1588.16 3.80099 -5.24813 0
M  V30 15837 N 1581.57 1.13606 1.09231 0
M  V30 15838 C 1582.81 0.900386 1.81717 0
M  V30 15839 C 1583.15 -0.571984 1.85586 0
M  V30 15840 O 1582.42 -1.42336 1.32554 0
M  V30 15841 C 1582.7 1.49143 3.27763 0
M  V30 15842 C 1582.56 3.03306 3.32153 0
M  V30 15843 C 1583.88 1.16129 4.24502 0
M  V30 15844 H 1581 0.328531 0.659724 0
M  V30 15845 H 1583.64 1.40467 1.27941 0
M  V30 15846 H 1581.79 1.06256 3.73687 0
M  V30 15847 H 1583.46 3.54963 2.94617 0
M  V30 15848 H 1581.7 3.38192 2.71677 0
M  V30 15849 H 1582.37 3.39761 4.35047 0
M  V30 15850 H 1584.85 1.53193 3.86874 0
M  V30 15851 H 1583.73 1.60129 5.25024 0
M  V30 15852 H 1583.99 0.0752973 4.42036 0
M  V30 15853 N 1583.05 -1.27244 0.929878 0
M  V30 15854 C 1584.01 -2.25028 0.435315 0
M  V30 15855 C 1585.01 -1.54453 -0.447332 0
M  V30 15856 O 1586.2 -1.72424 -0.248105 0
M  V30 15857 C 1583.33 -3.38843 -0.373933 0
M  V30 15858 H 1584.52 -2.70293 1.2993 0
M  V30 15859 H 1582.08 -1.39204 0.710771 0
M  V30 15860 H 1582.81 -2.98963 -1.25664 0
M  V30 15861 H 1582.6 -3.91244 0.258946 0
M  V30 15862 H 1584.09 -4.11516 -0.710255 0
M  V30 15863 N 1584.52 -0.695628 -1.41417 0
M  V30 15864 C 1585.8 -0.154646 -1.94988 0
M  V30 15865 C 1586.18 1.33534 -1.63499 0
M  V30 15866 O 1585.53 2.08178 -0.942031 0
M  V30 15867 C 1585.74 -0.446004 -3.46138 0
M  V30 15868 C 1587.09 -0.37378 -4.22952 0
M  V30 15869 O 1588.11 -0.380921 -3.54157 0
M  V30 15870 O 1586.97 -0.33395 -5.45479 0
M  V30 15871 H 1584.06 -0.0150053 -0.826864 0
M  V30 15872 H 1586.61 -0.771792 -1.51134 0
M  V30 15873 H 1585.38 -1.47734 -3.6234 0
M  V30 15874 H 1585 0.202111 -3.97086 0
M  V30 15875 N 1586 1.51322 -0.440383 0
M  V30 15876 C 1586.93 2.30708 0.360013 0
M  V30 15877 C 1587.91 1.36254 1.01828 0
M  V30 15878 O 1589.1 1.65174 1.02134 0
M  V30 15879 C 1586.23 3.15132 1.45977 0
M  V30 15880 C 1585.18 4.17889 0.924825 0
M  V30 15881 C 1584.51 4.90853 2.12056 0
M  V30 15882 C 1585.81 5.22282 -0.0428362 0
M  V30 15883 H 1587.5 2.97868 -0.30248 0
M  V30 15884 H 1585.05 1.43249 -0.146914 0
M  V30 15885 H 1587 3.69449 2.02695 0
M  V30 15886 H 1585.72 2.45798 2.1506 0
M  V30 15887 H 1584.38 3.64627 0.379842 0
M  V30 15888 H 1584.03 4.1802 2.79765 0
M  V30 15889 H 1583.73 5.60339 1.769 0
M  V30 15890 H 1585.26 5.47995 2.69322 0
M  V30 15891 H 1586.67 5.71654 0.434137 0
M  V30 15892 H 1585.07 5.99314 -0.307126 0
M  V30 15893 H 1586.14 4.74923 -0.978557 0
M  V30 15894 N 1587.48 0.171848 1.5666 0
M  V30 15895 C 1588.41 -0.789671 2.15167 0
M  V30 15896 C 1589.42 -1.19335 1.10739 0
M  V30 15897 O 1590.61 -1.13311 1.37924 0
M  V30 15898 C 1587.71 -2.07448 2.6799 0
M  V30 15899 C 1586.89 -1.83429 3.9708 0
M  V30 15900 C 1585.95 -2.96134 4.34961 0
M  V30 15901 O 1584.97 -2.66746 5.02827 0
M  V30 15902 N 1586.17 -4.23932 3.96563 0
M  V30 15903 H 1588.94 -0.289484 2.98299 0
M  V30 15904 H 1586.5 -0.0109154 1.61896 0
M  V30 15905 H 1588.49 -2.81941 2.90329 0
M  V30 15906 H 1587.06 -2.48656 1.89444 0
M  V30 15907 H 1586.28 -0.928376 3.83112 0
M  V30 15908 H 1587.57 -1.64749 4.81389 0
M  V30 15909 H 1586.97 -4.50668 3.41928 0
M  V30 15910 H 1585.52 -4.95126 4.23903 0
M  V30 15911 N 1588.96 -1.5727 -0.101874 0
M  V30 15912 C 1590.19 -1.89943 -0.820329 0
M  V30 15913 C 1590.6 -0.764867 -1.72613 0
M  V30 15914 O 1589.96 0.263499 -1.80588 0
M  V30 15915 C 1590.01 -3.2219 -1.63939 0
M  V30 15916 O 1589.73 -4.31279 -0.770039 0
M  V30 15917 C 1591.23 -3.6868 -2.46151 0
M  V30 15918 H 1588.45 -0.628532 -0.234922 0
M  V30 15919 H 1590.99 -2.04339 -0.0811362 0
M  V30 15920 H 1589.15 -3.09411 -2.33117 0
M  V30 15921 H 1589.56 -5.07182 -1.33665 0
M  V30 15922 H 1591.04 -4.63928 -2.99124 0
M  V30 15923 H 1591.51 -2.96183 -3.24303 0
M  V30 15924 H 1592.12 -3.84303 -1.82185 0
M  V30 15925 N 1590.44 0.372521 -1.53134 0
M  V30 15926 C 1591.37 1.4621 -1.82057 0
M  V30 15927 C 1592.35 1.56194 -0.673612 0
M  V30 15928 O 1593.53 1.70875 -0.922797 0
M  V30 15929 C 1590.66 2.83632 -2.00425 0
M  V30 15930 C 1589.62 2.88478 -3.16171 0
M  V30 15931 C 1588.94 4.28508 -3.19821 0
M  V30 15932 C 1590.24 2.56628 -4.54906 0
M  V30 15933 H 1591.94 1.22256 -2.73302 0
M  V30 15934 H 1589.48 0.586688 -1.31507 0
M  V30 15935 H 1591.43 3.59876 -2.19242 0
M  V30 15936 H 1590.16 3.0896 -1.05884 0
M  V30 15937 H 1588.82 2.14684 -2.97164 0
M  V30 15938 H 1588.47 4.509 -2.2293 0
M  V30 15939 H 1588.17 4.32667 -3.97584 0
M  V30 15940 H 1589.69 5.06635 -3.40813 0
M  V30 15941 H 1591.1 3.22587 -4.73931 0
M  V30 15942 H 1589.5 2.72114 -5.34859 0
M  V30 15943 H 1590.57 1.51902 -4.60493 0
M  V30 15944 N 1591.91 1.44376 0.631925 0
M  V30 15945 C 1593.14 1.5082 1.42366 0
M  V30 15946 C 1593.56 0.133858 1.87623 0
M  V30 15947 O 1592.92 -0.876789 1.58689 0
M  V30 15948 C 1592.97 2.47698 2.62065 0
M  V30 15949 O 1592.07 1.97796 3.61871 0
M  V30 15950 H 1591.41 0.509318 0.426018 0
M  V30 15951 H 1593.94 1.89502 0.771376 0
M  V30 15952 H 1593.95 2.65708 3.09618 0
M  V30 15953 H 1592.63 3.47526 2.2847 0
M  V30 15954 H 1591.21 1.89549 3.21131 0
M  V30 15955 N 1593.39 -0.872258 1.31261 0
M  V30 15956 C 1594.62 -1.6632 1.23905 0
M  V30 15957 C 1595.04 -1.87109 -0.192878 0
M  V30 15958 O 1594.4 -1.4112 -1.1382 0
M  V30 15959 C 1594.45 -3.00979 1.98606 0
M  V30 15960 O 1593.55 -3.90642 1.32183 0
M  V30 15961 H 1592.89 -0.507736 0.427902 0
M  V30 15962 H 1595.42 -1.0877 1.73292 0
M  V30 15963 H 1595.43 -3.50931 2.08113 0
M  V30 15964 H 1594.11 -2.85168 3.02741 0
M  V30 15965 H 1592.68 -3.4909 1.31112 0
M  V30 15966 N 1594.87 -1.14184 -1.08627 0
M  V30 15967 C 1596.09 -0.932504 -1.85254 0
M  V30 15968 C 1596.52 0.513792 -1.80947 0
M  V30 15969 O 1595.88 1.36525 -1.19292 0
M  V30 15970 C 1595.93 -1.43519 -3.30809 0
M  V30 15971 O 1595.03 -0.625806 -4.07624 0
M  V30 15972 H 1594.37 -0.333573 -0.57413 0
M  V30 15973 H 1596.9 -1.51853 -1.3712 0
M  V30 15974 H 1596.91 -1.44238 -3.81654 0
M  V30 15975 H 1595.59 -2.48819 -3.3326 0
M  V30 15976 H 1594.16 -0.687168 -3.66514 0
M  V30 15977 N 1596.35 1.26749 -0.936613 0
M  V30 15978 C 1597.63 1.89106 -0.49981 0
M  V30 15979 C 1598.01 1.84687 1.02244 0
M  V30 15980 O 1597.35 1.2981 1.88047 0
M  V30 15981 C 1597.56 3.32641 -1.05598 0
M  V30 15982 C 1598.91 4.09511 -1.12187 0
M  V30 15983 O 1599.94 3.41692 -1.00624 0
M  V30 15984 O 1598.79 5.30785 -1.30113 0
M  V30 15985 H 1595.89 0.810941 -0.162185 0
M  V30 15986 H 1598.43 1.34952 -1.02888 0
M  V30 15987 H 1597.21 3.30196 -2.09968 0
M  V30 15988 H 1596.83 3.94327 -0.509086 0
M  V30 15989 N 1597.83 0.703118 1.41046 0
M  V30 15990 C 1598.76 -0.00810455 2.28199 0
M  V30 15991 C 1599.74 -0.780333 1.42652 0
M  V30 15992 O 1600.92 -0.769578 1.72075 0
M  V30 15993 C 1598.05 -1.01887 3.23012 0
M  V30 15994 C 1597.09 -0.338929 4.25151 0
M  V30 15995 S 1597.93 0.924166 5.27465 0
M  V30 15996 C 1599.08 -0.0848164 6.25843 0
M  V30 15997 H 1599.32 0.731062 2.88171 0
M  V30 15998 H 1596.85 0.493669 1.46295 0
M  V30 15999 H 1598.81 -1.59687 3.78167 0
M  V30 16000 H 1597.47 -1.73066 2.6212 0
M  V30 16001 H 1596.66 -1.10259 4.91792 0
M  V30 16002 H 1596.26 0.166183 3.73631 0
M  V30 16003 H 1598.56 -0.935686 6.71008 0
M  V30 16004 H 1599.5 0.547865 7.05977 0
M  V30 16005 H 1599.91 -0.442967 5.62759 0
M  V30 16006 N 1599.3 -1.51086 0.448402 0
M  V30 16007 C 1600.23 -2.30896 -0.347773 0
M  V30 16008 C 1601.22 -1.36792 -1.01104 0
M  V30 16009 O 1602.4 -1.65713 -1.01257 0
M  V30 16010 C 1599.53 -3.15901 -1.44304 0
M  V30 16011 C 1598.48 -4.18373 -0.90265 0
M  V30 16012 C 1597.81 -4.9197 -2.0945 0
M  V30 16013 C 1599.11 -5.22252 0.0705335 0
M  V30 16014 H 1600.8 -2.97704 0.318273 0
M  V30 16015 H 1598.35 -1.43169 0.154509 0
M  V30 16016 H 1600.3 -3.70519 -2.00733 0
M  V30 16017 H 1599.03 -2.46935 -2.13753 0
M  V30 16018 H 1597.69 -3.64823 -0.3605 0
M  V30 16019 H 1597.33 -4.19497 -2.77545 0
M  V30 16020 H 1597.03 -5.6127 -1.73926 0
M  V30 16021 H 1598.56 -5.49415 -2.66412 0
M  V30 16022 H 1599.97 -5.71876 -0.403814 0
M  V30 16023 H 1598.37 -5.99142 0.338905 0
M  V30 16024 H 1599.44 -4.74398 1.00373 0
M  V30 16025 N 1600.78 -0.180154 -1.56567 0
M  V30 16026 C 1601.75 0.732809 -2.17169 0
M  V30 16027 C 1602.75 1.15176 -1.1221 0
M  V30 16028 O 1603.94 1.06728 -1.37677 0
M  V30 16029 C 1601.07 1.99857 -2.7617 0
M  V30 16030 H 1602.26 0.205088 -2.99198 0
M  V30 16031 H 1599.81 0.0694351 -1.56146 0
M  V30 16032 H 1600.55 2.56917 -1.97899 0
M  V30 16033 H 1600.33 1.70705 -3.5299 0
M  V30 16034 H 1601.82 2.64992 -3.22752 0
M  V30 16035 N 1602.26 1.57322 0.0935319 0
M  V30 16036 C 1603.49 1.90375 0.810245 0
M  V30 16037 C 1603.9 0.774011 1.72205 0
M  V30 16038 O 1603.26 -0.253918 1.80725 0
M  V30 16039 C 1603.31 3.23054 1.62228 0
M  V30 16040 O 1603.03 4.31682 0.747157 0
M  V30 16041 C 1604.53 3.6998 2.44192 0
M  V30 16042 H 1601.75 0.629769 0.231586 0
M  V30 16043 H 1604.3 2.04379 0.0702984 0
M  V30 16044 H 1602.45 3.10643 2.31472 0
M  V30 16045 H 1602.87 5.07884 1.30974 0
M  V30 16046 H 1604.34 4.65507 2.96659 0
M  V30 16047 H 1604.82 2.97899 3.22727 0
M  V30 16048 H 1605.42 3.85264 1.80144 0
M  V30 16049 N 1603.74 -0.364395 1.53329 0
M  V30 16050 C 1604.96 -1.13196 1.73786 0
M  V30 16051 C 1605.39 -1.82231 0.466224 0
M  V30 16052 O 1604.75 -1.71778 -0.579817 0
M  V30 16053 C 1604.79 -2.13704 2.90453 0
M  V30 16054 O 1603.9 -3.20808 2.59144 0
M  V30 16055 H 1603.24 -0.328387 0.577112 0
M  V30 16056 H 1605.77 -0.421157 2.00218 0
M  V30 16057 H 1605.78 -2.57285 3.16652 0
M  V30 16058 H 1604.45 -1.6285 3.82691 0
M  V30 16059 H 1603.03 -2.82192 2.43767 0
M  V30 16060 N 1605.22 -1.44709 -0.62426 0
M  V30 16061 C 1606.15 -1.54934 -1.74693 0
M  V30 16062 C 1607.13 -0.401897 -1.65284 0
M  V30 16063 O 1608.31 -0.622906 -1.83939 0
M  V30 16064 C 1605.44 -1.49976 -3.13248 0
M  V30 16065 C 1604.4 -2.63267 -3.37453 0
M  V30 16066 C 1603.72 -2.43362 -4.76108 0
M  V30 16067 C 1605.02 -4.0538 -3.2934 0
M  V30 16068 H 1606.72 -2.48905 -1.66393 0
M  V30 16069 H 1604.26 -1.19794 -0.799088 0
M  V30 16070 H 1606.22 -1.55729 -3.91569 0
M  V30 16071 H 1604.94 -0.525254 -3.22349 0
M  V30 16072 H 1603.6 -2.56915 -2.61515 0
M  V30 16073 H 1603.25 -1.44088 -4.81921 0
M  V30 16074 H 1602.95 -3.19324 -4.93261 0
M  V30 16075 H 1604.47 -2.50943 -5.56651 0
M  V30 16076 H 1605.88 -4.13064 -3.97556 0
M  V30 16077 H 1604.28 -4.81599 -3.58025 0
M  V30 16078 H 1605.35 -4.28465 -2.27038 0
M  V30 16079 N 1606.69 0.865285 -1.31722 0
M  V30 16080 C 1607.63 1.97919 -1.15588 0
M  V30 16081 C 1608.64 1.6253 -0.0936929 0
M  V30 16082 O 1609.83 1.752 -0.341639 0
M  V30 16083 C 1606.93 3.30614 -0.744814 0
M  V30 16084 C 1606.1 3.94314 -1.89301 0
M  V30 16085 C 1605.16 5.0533 -1.46724 0
M  V30 16086 O 1604.19 5.25898 -2.17762 0
M  V30 16087 N 1605.39 5.794 -0.357262 0
M  V30 16088 H 1608.15 2.12304 -2.11535 0
M  V30 16089 H 1605.71 1.03953 -1.24118 0
M  V30 16090 H 1607.71 4.02273 -0.442594 0
M  V30 16091 H 1606.28 3.12357 0.123186 0
M  V30 16092 H 1605.5 3.15577 -2.3623 0
M  V30 16093 H 1606.78 4.33609 -2.66196 0
M  V30 16094 H 1606.18 5.65215 0.23423 0
M  V30 16095 H 1604.74 6.51699 -0.114599 0
M  V30 16096 N 1608.17 1.14759 1.0802 0
M  V30 16097 C 1609.42 0.916435 1.80127 0
M  V30 16098 C 1609.74 -0.558281 1.86837 0
M  V30 16099 O 1609.01 -1.40579 1.36434 0
M  V30 16100 H 1607.59 0.336066 0.667135 0
M  V30 16101 H 1610.25 1.44693 1.30576 0
M  V30 16102 H 1609.35 1.31986 2.82818 0
M  V30 16103 N 1609.65 -1.26251 0.943322 0
M  V30 16104 C 1610.6 -2.28295 0.445441 0
M  V30 16105 C 1611.59 -1.62504 -0.478401 0
M  V30 16106 O 1612.8 -1.76437 -0.356378 0
M  V30 16107 H 1609.17 -0.741451 0.125517 0
M  V30 16108 H 1611.14 -2.67687 1.31858 0
M  V30 16109 C 1609.89 -3.46635 -0.271987 0
M  V30 16110 H 1609.22 -3.97484 0.429734 0
M  V30 16111 H 1610.66 -4.19951 -0.584544 0
M  V30 16112 C 1609.12 -3.02133 -1.49054 0
M  V30 16113 O 1609.65 -3.07158 -2.58876 0
M  V30 16114 N 1607.85 -2.57451 -1.34787 0
M  V30 16115 H 1607.4 -2.53562 -0.454347 0
M  V30 16116 H 1607.36 -2.28039 -2.16438 0
M  V30 16117 N 1611.13 -0.710588 -1.40671 0
M  V30 16118 C 1612.38 -0.247949 -2.00976 0
M  V30 16119 C 1612.7 1.15725 -1.56327 0
M  V30 16120 O 1611.96 1.79826 -0.77208 0
M  V30 16121 C 1612.26 -0.270478 -3.56375 0
M  V30 16122 C 1611.92 -1.62528 -4.2059 0
M  V30 16123 C 1610.59 -1.99614 -4.37844 0
M  V30 16124 C 1612.94 -2.51591 -4.56455 0
M  V30 16125 C 1610.27 -3.2532 -4.88246 0
M  V30 16126 C 1612.62 -3.76644 -5.08254 0
M  V30 16127 C 1611.28 -4.13855 -5.23718 0
M  V30 16128 H 1610.55 -0.0907308 -0.735424 0
M  V30 16129 H 1613.2 -0.912636 -1.68354 0
M  V30 16130 H 1611.5 0.477777 -3.88876 0
M  V30 16131 H 1613.2 0.105243 -4.00862 0
M  V30 16132 H 1609.79 -1.32686 -4.07544 0
M  V30 16133 H 1613.98 -2.24215 -4.42766 0
M  V30 16134 H 1609.23 -3.54125 -4.98403 0
M  V30 16135 H 1613.41 -4.45832 -5.34983 0
M  V30 16136 H 1611.03 -5.1133 -5.62535 0
M  V30 16137 N 1612.61 1.50847 -0.456408 0
M  V30 16138 C 1613.54 2.31077 0.335523 0
M  V30 16139 C 1614.52 1.37326 1.00377 0
M  V30 16140 O 1615.7 1.66247 1.00376 0
M  V30 16141 C 1612.83 3.16662 1.42627 0
M  V30 16142 C 1611.79 4.18846 0.88045 0
M  V30 16143 C 1611.11 4.93074 2.06838 0
M  V30 16144 C 1612.41 5.22208 -0.0982288 0
M  V30 16145 H 1614.11 2.97531 -0.334056 0
M  V30 16146 H 1611.65 1.43085 -0.162099 0
M  V30 16147 H 1613.61 3.71578 1.98765 0
M  V30 16148 H 1612.33 2.48066 2.12441 0
M  V30 16149 H 1610.99 3.65009 0.341147 0
M  V30 16150 H 1610.64 4.20963 2.75316 0
M  V30 16151 H 1610.34 5.62184 1.70947 0
M  V30 16152 H 1611.86 5.5082 2.63494 0
M  V30 16153 H 1613.28 5.72082 0.373481 0
M  V30 16154 H 1611.67 5.98954 -0.370674 0
M  V30 16155 H 1612.74 4.73859 -1.02887 0
M  V30 16156 N 1614.09 0.188454 1.56469 0
M  V30 16157 C 1615.04 -0.747732 2.1539 0
M  V30 16158 C 1616.02 -1.18094 1.09282 0
M  V30 16159 O 1617.21 -1.14045 1.35362 0
M  V30 16160 C 1614.34 -1.96985 2.81162 0
M  V30 16161 C 1613.43 -1.55784 3.94452 0
M  V30 16162 N 1613.82 -0.8564 4.98497 0
M  V30 16163 C 1612.12 -1.84762 4.0593 0
M  V30 16164 C 1612.82 -0.650927 5.78047 0
M  V30 16165 N 1611.79 -1.19762 5.30243 0
M  V30 16166 H 1615.59 -0.203028 2.93198 0
M  V30 16167 H 1613.11 -0.0115881 1.62396 0
M  V30 16168 H 1615.11 -2.65094 3.21762 0
M  V30 16169 H 1613.77 -2.51934 2.0484 0
M  V30 16170 H 1614.78 -0.512583 5.15357 0
M  V30 16171 H 1611.45 -2.41267 3.40729 0
M  V30 16172 H 1612.84 -0.0949739 6.71833 0
M  V30 16173 N 1615.56 -1.5737 -0.0851874 0
M  V30 16174 C 1616.49 -2.05796 -1.10319 0
M  V30 16175 C 1617.47 -0.948796 -1.4118 0
M  V30 16176 O 1618.66 -1.22069 -1.51039 0
M  V30 16177 C 1615.79 -2.49069 -2.42037 0
M  V30 16178 C 1614.74 -3.6374 -2.25561 0
M  V30 16179 C 1614.07 -3.93023 -3.62543 0
M  V30 16180 C 1615.37 -4.94274 -1.68793 0
M  V30 16181 H 1617.06 -2.91095 -0.700274 0
M  V30 16182 H 1614.61 -1.40039 -0.335405 0
M  V30 16183 H 1616.56 -2.81558 -3.13534 0
M  V30 16184 H 1615.29 -1.60781 -2.84283 0
M  V30 16185 H 1613.95 -3.31513 -1.56507 0
M  V30 16186 H 1613.59 -3.01887 -4.02335 0
M  V30 16187 H 1613.29 -4.70229 -3.52362 0
M  V30 16188 H 1614.82 -4.27995 -4.35491 0
M  V30 16189 H 1616.23 -5.25079 -2.30141 0
M  V30 16190 H 1614.63 -5.75711 -1.69344 0
M  V30 16191 H 1615.7 -4.80548 -0.648204 0
M  V30 16192 N 1617.04 0.356258 -1.53521 0
M  V30 16193 C 1618 1.41975 -1.79933 0
M  V30 16194 C 1619 1.46177 -0.669997 0
M  V30 16195 O 1620.19 1.46774 -0.938239 0
M  V30 16196 C 1617.33 2.81015 -1.92985 0
M  V30 16197 H 1618.52 1.19824 -2.74922 0
M  V30 16198 H 1616.07 0.589928 -1.4474 0
M  V30 16199 H 1616.81 3.08466 -1.00095 0
M  V30 16200 H 1616.59 2.79363 -2.75135 0
M  V30 16201 H 1618.08 3.58013 -2.1498 0
M  V30 16202 N 1618.52 1.45038 0.616577 0
M  V30 16203 C 1619.47 1.53022 1.7278 0
M  V30 16204 C 1620.44 0.376778 1.6177 0
M  V30 16205 O 1621.62 0.589006 1.81481 0
M  V30 16206 C 1618.76 1.49432 3.11069 0
M  V30 16207 C 1617.87 2.7526 3.3295 0
M  V30 16208 C 1617.01 2.63403 4.61294 0
M  V30 16209 C 1616.05 3.84327 4.76402 0
M  V30 16210 N 1615.19 3.71058 5.96037 0
M  V30 16211 H 1620.03 2.47957 1.65292 0
M  V30 16212 H 1617.56 1.23046 0.806102 0
M  V30 16213 H 1619.52 1.45339 3.91066 0
M  V30 16214 H 1618.15 0.580542 3.17537 0
M  V30 16215 H 1617.2 2.89479 2.46792 0
M  V30 16216 H 1618.51 3.64978 3.39989 0
M  V30 16217 H 1617.67 2.57226 5.49472 0
M  V30 16218 H 1616.41 1.7127 4.56638 0
M  V30 16219 H 1615.41 3.90873 3.8665 0
M  V30 16220 H 1616.64 4.77515 4.82863 0
M  V30 16221 H 1614.58 2.81687 5.92443 0
M  V30 16222 H 1614.5 4.54403 6.04197 0
M  V30 16223 H 1615.77 3.68798 6.86738 0
M  V30 16224 N 1620 -0.858287 1.32179 0
M  V30 16225 C 1621.24 -1.6146 1.22713 0
M  V30 16226 C 1621.58 -1.93045 -0.211479 0
M  V30 16227 O 1620.85 -1.57034 -1.14764 0
M  V30 16228 C 1621.13 -2.93728 2.08317 0
M  V30 16229 C 1620.99 -2.68947 3.60538 0
M  V30 16230 C 1622.31 -3.94959 1.94153 0
M  V30 16231 H 1619.43 -0.585872 0.447128 0
M  V30 16232 H 1622.07 -0.99134 1.62088 0
M  V30 16233 H 1620.22 -3.4692 1.74867 0
M  V30 16234 H 1621.89 -2.22336 4.04183 0
M  V30 16235 H 1620.13 -2.02974 3.83385 0
M  V30 16236 H 1620.8 -3.63112 4.15756 0
M  V30 16237 H 1623.28 -3.51013 2.23449 0
M  V30 16238 H 1622.16 -4.85371 2.56332 0
M  V30 16239 H 1622.42 -4.32672 0.908132 0
M  V30 16240 N 1621.48 -1.1533 -1.07409 0
M  V30 16241 C 1622.75 -0.838341 -1.76724 0
M  V30 16242 C 1623.13 0.666169 -2.00313 0
M  V30 16243 O 1622.48 1.61033 -1.62113 0
M  V30 16244 C 1622.69 -1.64846 -3.07615 0
M  V30 16245 C 1624.04 -1.85429 -3.8197 0
M  V30 16246 O 1625.06 -1.61617 -3.17424 0
M  V30 16247 O 1623.92 -2.25305 -4.97896 0
M  V30 16248 H 1621.02 -0.308242 -0.767408 0
M  V30 16249 H 1623.56 -1.25905 -1.1378 0
M  V30 16250 H 1622.33 -2.66995 -2.86058 0
M  V30 16251 H 1621.96 -1.22405 -3.78289 0
M  V30 16252 N 1622.95 1.25748 -0.950004 0
M  V30 16253 C 1624.2 1.92954 -0.601104 0
M  V30 16254 C 1624.52 1.74817 0.863953 0
M  V30 16255 O 1623.79 1.10904 1.61484 0
M  V30 16256 H 1622.37 0.714077 -0.219325 0
M  V30 16257 H 1625.03 1.53009 -1.20724 0
M  V30 16258 H 1624.13 3.00959 -0.826447 0
M  V30 16259 N 1624.43 0.718038 1.40292 0
M  V30 16260 C 1625.38 0.0559466 2.32533 0
M  V30 16261 C 1626.37 -0.744365 1.5217 0
M  V30 16262 O 1627.58 -0.647458 1.67952 0
M  V30 16263 H 1623.95 -0.000710627 0.752 0
M  V30 16264 H 1625.93 0.850579 2.8602 0
M  V30 16265 C 1624.67 -0.849927 3.37152 0
M  V30 16266 H 1624 -0.243507 3.99058 0
M  V30 16267 H 1625.44 -1.28111 4.04183 0
M  V30 16268 C 1623.9 -1.9765 2.7283 0
M  V30 16269 O 1624.43 -3.06757 2.59351 0
M  V30 16270 N 1622.63 -1.76086 2.31176 0
M  V30 16271 H 1622.18 -0.873485 2.42339 0
M  V30 16272 H 1622.14 -2.51643 1.88477 0
M  V30 16273 N 1625.91 -1.50602 0.464402 0
M  V30 16274 C 1627.16 -2.01478 -0.0945398 0
M  V30 16275 C 1627.47 -1.35165 -1.41386 0
M  V30 16276 O 1628.68 -1.7716 -2.05735 0
M  V30 16277 C 1627.13 -3.59233 -0.219003 0
M  V30 16278 C 1626.74 -4.345 1.09148 0
M  V30 16279 C 1628.49 -4.18172 -0.730262 0
M  V30 16280 C 1626.39 -5.84023 0.931179 0
M  V30 16281 H 1625.32 -0.752985 -0.0391065 0
M  V30 16282 H 1627.97 -1.73473 0.598283 0
M  V30 16283 H 1626.36 -3.83798 -0.975455 0
M  V30 16284 H 1627.53 -4.21665 1.85837 0
M  V30 16285 H 1625.85 -3.8714 1.53334 0
M  V30 16286 H 1628.44 -5.27622 -0.867119 0
M  V30 16287 H 1628.79 -3.79113 -1.71986 0
M  V30 16288 H 1629.32 -3.97788 -0.0313808 0
M  V30 16289 H 1626.06 -6.27543 1.89395 0
M  V30 16290 H 1625.58 -5.99451 0.20456 0
M  V30 16291 H 1627.26 -6.44257 0.595118 0
M  V30 16292 N 1627.39 -0.19675 -1.56367 0
M  V30 16293 C 1628.62 0.447139 -2.02011 0
M  V30 16294 C 1629.03 1.55077 -1.07687 0
M  V30 16295 O 1628.39 1.82316 -0.0820316 0
M  V30 16296 C 1628.44 1.00192 -3.47338 0
M  V30 16297 O 1628.16 -0.0576859 -4.38062 0
M  V30 16298 C 1629.66 1.72152 -4.08508 0
M  V30 16299 H 1626.88 0.112088 -0.661572 0
M  V30 16300 H 1629.43 -0.30594 -2.02199 0
M  V30 16301 H 1627.58 1.70537 -3.47844 0
M  V30 16302 H 1627.99 0.355508 -5.23294 0
M  V30 16303 H 1629.47 2.06199 -5.12041 0
M  V30 16304 H 1629.95 2.62581 -3.52062 0
M  V30 16305 H 1630.55 1.06388 -4.11779 0
M  V30 16306 N 1628.87 1.57413 0.0768405 0
M  V30 16307 C 1630.12 1.86186 0.775741 0
M  V30 16308 C 1630.43 0.788676 1.78995 0
M  V30 16309 O 1631.63 0.964095 2.53806 0
M  V30 16310 C 1630.09 3.30247 1.43055 0
M  V30 16311 C 1629.7 4.45682 0.45517 0
M  V30 16312 C 1631.44 3.68225 2.11211 0
M  V30 16313 C 1629.35 5.80782 1.11561 0
M  V30 16314 H 1628.28 0.694546 0.293466 0
M  V30 16315 H 1630.93 1.83477 0.0289478 0
M  V30 16316 H 1629.31 3.27552 2.22544 0
M  V30 16317 H 1630.49 4.59759 -0.309535 0
M  V30 16318 H 1628.8 4.16222 -0.121671 0
M  V30 16319 H 1631.4 4.66454 2.6139 0
M  V30 16320 H 1631.74 2.9777 2.90928 0
M  V30 16321 H 1632.27 3.72888 1.38561 0
M  V30 16322 H 1629.01 6.54517 0.358877 0
M  V30 16323 H 1628.53 5.70515 1.8513 0
M  V30 16324 H 1630.21 6.25951 1.63689 0
M  V30 16325 N 1630.34 -0.348112 1.53707 0
M  V30 16326 C 1631.25 -1.45079 1.84361 0
M  V30 16327 C 1632.27 -1.5779 0.733375 0
M  V30 16328 O 1633.45 -1.73353 1.02522 0
M  V30 16329 C 1630.51 -2.80127 2.04278 0
M  V30 16330 C 1629.57 -2.76799 3.28148 0
M  V30 16331 C 1628.81 -4.05406 3.47105 0
M  V30 16332 O 1629.03 -5.02454 2.69992 0
M  V30 16333 O 1627.96 -4.10155 4.40519 0
M  V30 16334 H 1631.79 -1.22093 2.78077 0
M  V30 16335 H 1629.37 -0.539863 1.39305 0
M  V30 16336 H 1631.26 -3.60115 2.18849 0
M  V30 16337 H 1629.93 -3.03055 1.13751 0
M  V30 16338 H 1628.84 -1.95448 3.18984 0
M  V30 16339 H 1630.17 -2.58826 4.18653 0
M  V30 16340 N 1631.82 -1.45363 -0.608876 0
M  V30 16341 C 1633.07 -1.49018 -1.36522 0
M  V30 16342 C 1633.39 -0.132757 -1.94548 0
M  V30 16343 O 1632.66 0.837723 -1.77085 0
M  V30 16344 H 1631.24 -0.548775 -0.506809 0
M  V30 16345 H 1633.9 -1.81309 -0.715068 0
M  V30 16346 H 1633 -2.22826 -2.18529 0
M  V30 16347 N 1633.3 0.851265 -1.32632 0
M  V30 16348 C 1634.26 1.94168 -1.21785 0
M  V30 16349 C 1635.26 1.60189 -0.140023 0
M  V30 16350 O 1636.45 1.69763 -0.390671 0
M  V30 16351 C 1633.59 3.29513 -0.873717 0
M  V30 16352 H 1634.78 2.05214 -2.18695 0
M  V30 16353 H 1632.33 1.04186 -1.16512 0
M  V30 16354 H 1633.07 3.24165 0.0934202 0
M  V30 16355 H 1632.85 3.55552 -1.65302 0
M  V30 16356 H 1634.34 4.09425 -0.822231 0
M  V30 16357 N 1634.78 1.15898 1.06796 0
M  V30 16358 C 1636 0.961859 1.83747 0
M  V30 16359 C 1636.43 -0.48494 1.81741 0
M  V30 16360 O 1635.79 -1.3461 1.21449 0
M  V30 16361 C 1635.83 1.48764 3.28484 0
M  V30 16362 O 1634.94 0.690576 4.06577 0
M  V30 16363 H 1634.28 0.342664 0.568751 0
M  V30 16364 H 1636.81 1.54015 1.34687 0
M  V30 16365 H 1636.82 1.50291 3.79311 0
M  V30 16366 H 1635.49 2.54089 3.29259 0
M  V30 16367 H 1634.07 0.74539 3.65374 0
M  V30 16368 N 1636.26 -1.25243 0.956659 0
M  V30 16369 C 1637.51 -1.92312 0.608196 0
M  V30 16370 C 1637.82 -1.75726 -0.859058 0
M  V30 16371 O 1639.02 -2.37386 -1.31757 0
M  V30 16372 C 1637.48 -3.44634 1.03708 0
M  V30 16373 C 1637.09 -3.69927 2.52702 0
M  V30 16374 C 1638.83 -4.17619 0.761242 0
M  V30 16375 C 1636.74 -5.15765 2.8938 0
M  V30 16376 H 1635.67 -0.720033 0.22376 0
M  V30 16377 H 1638.32 -1.42071 1.16138 0
M  V30 16378 H 1636.7 -3.93848 0.412287 0
M  V30 16379 H 1637.88 -3.31357 3.20217 0
M  V30 16380 H 1636.19 -3.10207 2.77778 0
M  V30 16381 H 1638.79 -5.25047 1.01141 0
M  V30 16382 H 1639.13 -4.152 -0.302375 0
M  V30 16383 H 1639.66 -3.74319 1.34648 0
M  V30 16384 H 1636.4 -5.23296 3.94767 0
M  V30 16385 H 1635.92 -5.55374 2.26539 0
M  V30 16386 H 1637.6 -5.83905 2.78683 0
M  V30 16387 N 1637.73 -0.725468 -1.3991 0
M  V30 16388 C 1638.98 -0.26965 -2.00999 0
M  V30 16389 C 1639.31 1.13727 -1.57416 0
M  V30 16390 O 1638.59 1.77345 -0.798693 0
M  V30 16391 C 1638.87 -0.360784 -3.58288 0
M  V30 16392 C 1638.72 -1.80679 -4.11916 0
M  V30 16393 C 1640.04 0.262328 -4.39317 0
M  V30 16394 H 1637.16 -0.0994547 -0.730259 0
M  V30 16395 H 1639.8 -0.91983 -1.6625 0
M  V30 16396 H 1637.95 0.192779 -3.88021 0
M  V30 16397 H 1639.63 -2.4165 -3.92942 0
M  V30 16398 H 1637.87 -2.33127 -3.65834 0
M  V30 16399 H 1638.54 -1.82189 -5.21068 0
M  V30 16400 H 1641.02 -0.209452 -4.15573 0
M  V30 16401 H 1639.89 0.168166 -5.48642 0
M  V30 16402 H 1640.15 1.34716 -4.21075 0
M  V30 16403 N 1639.21 1.50354 -0.472382 0
M  V30 16404 C 1640.49 1.95071 0.143803 0
M  V30 16405 C 1640.87 1.41281 1.56853 0
M  V30 16406 O 1640.22 0.614349 2.20086 0
M  V30 16407 C 1640.43 3.48895 0.0857944 0
M  V30 16408 C 1641.78 4.23715 0.274039 0
M  V30 16409 O 1642.8 3.5583 0.162319 0
M  V30 16410 O 1641.66 5.4421 0.499815 0
M  V30 16411 H 1638.75 0.819521 0.110966 0
M  V30 16412 H 1641.3 1.61116 -0.532876 0
M  V30 16413 H 1640.07 3.80598 -0.908887 0
M  V30 16414 H 1639.69 3.89389 0.803875 0
M  V30 16415 N 1640.69 0.205039 1.56261 0
M  V30 16416 C 1641.94 -0.430245 1.97467 0
M  V30 16417 C 1642.26 -1.6146 1.09342 0
M  V30 16418 O 1641.53 -1.95188 0.166836 0
M  V30 16419 H 1640.11 -0.161945 0.729234 0
M  V30 16420 H 1642.77 0.294089 1.92668 0
M  V30 16421 H 1641.87 -0.767699 3.02511 0
M  V30 16422 N 1642.17 -1.57451 -0.0684915 0
M  V30 16423 C 1643.45 -1.78483 -0.800209 0
M  V30 16424 C 1643.83 -0.793438 -1.95621 0
M  V30 16425 O 1643.17 0.172756 -2.27846 0
M  V30 16426 C 1643.38 -3.25069 -1.27008 0
M  V30 16427 C 1644.73 -3.8899 -1.70212 0
M  V30 16428 O 1645.76 -3.2898 -1.36566 0
M  V30 16429 O 1644.62 -4.94569 -2.32515 0
M  V30 16430 H 1641.71 -0.732598 -0.383704 0
M  V30 16431 H 1644.26 -1.69631 -0.0483117 0
M  V30 16432 H 1643.03 -3.88784 -0.443067 0
M  V30 16433 H 1642.65 -3.38657 -2.08319 0
M  V30 16434 N 1643.65 0.339955 -1.5389 0
M  V30 16435 C 1644.6 1.43787 -1.82833 0
M  V30 16436 C 1645.59 1.54303 -0.699058 0
M  V30 16437 O 1646.8 1.56884 -0.882455 0
M  V30 16438 H 1643.17 0.479497 -0.579298 0
M  V30 16439 H 1645.14 1.16592 -2.7468 0
M  V30 16440 C 1643.89 2.80257 -2.05794 0
M  V30 16441 H 1643.21 2.72933 -2.92143 0
M  V30 16442 H 1644.65 3.56191 -2.30009 0
M  V30 16443 C 1643.11 3.26143 -0.844532 0
M  V30 16444 O 1643.64 4.01674 -0.0457121 0
M  V30 16445 N 1641.85 2.82988 -0.660748 0
M  V30 16446 H 1641.4 2.21687 -1.31198 0
M  V30 16447 H 1641.35 3.14044 0.149661 0
M  V30 16448 N 1645.13 1.45684 0.601159 0
M  V30 16449 C 1646.09 1.54451 1.69344 0
M  V30 16450 C 1647.09 0.423379 1.55126 0
M  V30 16451 O 1648.28 0.687079 1.60078 0
M  V30 16452 C 1645.41 1.4472 3.08657 0
M  V30 16453 H 1646.6 2.51778 1.62935 0
M  V30 16454 H 1644.16 1.3322 0.81744 0
M  V30 16455 H 1644.89 0.486027 3.20637 0
M  V30 16456 H 1644.68 2.26045 3.20384 0
M  V30 16457 H 1646.17 1.53902 3.88206 0
M  V30 16458 N 1646.6 -0.84422 1.33082 0
M  V30 16459 C 1647.57 -1.93519 1.22813 0
M  V30 16460 C 1648.57 -1.60113 0.148516 0
M  V30 16461 O 1649.76 -1.69553 0.399668 0
M  V30 16462 C 1646.89 -3.29045 0.891179 0
M  V30 16463 H 1648.08 -2.04051 2.1978 0
M  V30 16464 H 1645.63 -1.03567 1.17063 0
M  V30 16465 H 1646.37 -3.2421 -0.0762276 0
M  V30 16466 H 1646.15 -3.54671 1.67186 0
M  V30 16467 H 1647.64 -4.08984 0.843932 0
M  V30 16468 N 1648.08 -1.16463 -1.0618 0
M  V30 16469 C 1649.31 -0.971075 -1.82696 0
M  V30 16470 C 1649.72 0.480716 -1.82578 0
M  V30 16471 O 1649.08 1.33366 -1.24579 0
M  V30 16472 C 1649.13 -1.49235 -3.29259 0
M  V30 16473 O 1648.85 -2.88728 -3.29496 0
M  V30 16474 C 1650.35 -1.34197 -4.225 0
M  V30 16475 H 1647.57 -0.34415 -0.576023 0
M  V30 16476 H 1650.12 -1.54517 -1.33958 0
M  V30 16477 H 1648.27 -0.960503 -3.75304 0
M  V30 16478 H 1648.69 -3.12618 -4.21153 0
M  V30 16479 H 1650.16 -1.75499 -5.23358 0
M  V30 16480 H 1650.64 -0.287685 -4.38257 0
M  V30 16481 H 1651.24 -1.86349 -3.82301 0
M  V30 16482 N 1649.56 1.24734 -0.963288 0
M  V30 16483 C 1650.51 2.27557 -0.481704 0
M  V30 16484 C 1651.5 1.63245 0.452488 0
M  V30 16485 O 1652.71 1.76981 0.328263 0
M  V30 16486 H 1649.08 0.73936 -0.137297 0
M  V30 16487 H 1651.05 2.65555 -1.361 0
M  V30 16488 C 1649.8 3.47023 0.216806 0
M  V30 16489 H 1649.13 3.9675 -0.492916 0
M  V30 16490 H 1650.57 4.20828 0.517659 0
M  V30 16491 C 1649.02 3.04466 1.44229 0
M  V30 16492 O 1649.55 3.11238 2.53956 0
M  V30 16493 N 1647.76 2.59563 1.30674 0
M  V30 16494 H 1647.31 2.54252 0.41395 0
M  V30 16495 H 1647.27 2.31453 2.12783 0
M  V30 16496 N 1651.04 0.732878 1.39523 0
M  V30 16497 C 1652.29 0.279338 2.0016 0
M  V30 16498 C 1652.61 -1.13673 1.58441 0
M  V30 16499 O 1651.88 -1.77369 0.831681 0
M  V30 16500 H 1650.46 0.100288 0.740237 0
M  V30 16501 H 1653.12 0.942363 1.70603 0
M  V30 16502 H 1652.21 0.326053 3.10392 0
M  V30 16503 N 1652.52 -1.50101 0.480349 0
M  V30 16504 C 1653.76 -2.02674 -0.0715373 0
M  V30 16505 C 1654.09 -1.36095 -1.38535 0
M  V30 16506 O 1653.37 -0.489703 -1.88234 0
M  V30 16507 C 1653.65 -3.59261 -0.245693 0
M  V30 16508 C 1653.51 -4.36399 1.08979 0
M  V30 16509 C 1654.82 -4.28682 -0.995966 0
M  V30 16510 H 1651.94 -0.736592 -0.0245244 0
M  V30 16511 H 1654.59 -1.7933 0.627743 0
M  V30 16512 H 1652.74 -3.79281 -0.841308 0
M  V30 16513 H 1654.41 -4.27926 1.72269 0
M  V30 16514 H 1652.65 -3.99773 1.68417 0
M  V30 16515 H 1653.32 -5.44254 0.921468 0
M  V30 16516 H 1655.8 -4.13193 -0.491025 0
M  V30 16517 H 1654.67 -5.38037 -1.08663 0
M  V30 16518 H 1654.93 -3.92491 -2.03479 0
M  V30 16519 N 1653.99 -0.213323 -1.5615 0
M  V30 16520 C 1655.24 0.420909 -1.97259 0
M  V30 16521 C 1655.56 1.61483 -1.10375 0
M  V30 16522 O 1656.76 2.31804 -1.41347 0
M  V30 16523 C 1655.22 0.800243 -3.5089 0
M  V30 16524 C 1654.83 -0.370405 -4.46466 0
M  V30 16525 C 1656.57 1.40054 -4.00731 0
M  V30 16526 C 1654.48 0.0309052 -5.91392 0
M  V30 16527 H 1653.41 0.16103 -0.736604 0
M  V30 16528 H 1656.06 -0.308232 -1.80893 0
M  V30 16529 H 1654.44 1.58657 -3.62828 0
M  V30 16530 H 1655.61 -1.14796 -4.46272 0
M  V30 16531 H 1653.93 -0.883391 -4.06922 0
M  V30 16532 H 1656.53 1.71355 -5.06499 0
M  V30 16533 H 1656.87 2.31345 -3.461 0
M  V30 16534 H 1657.4 0.677813 -3.91983 0
M  V30 16535 H 1654.14 -0.848284 -6.49988 0
M  V30 16536 H 1653.66 0.772941 -5.94799 0
M  V30 16537 H 1655.34 0.460441 -6.4536 0
M  V30 16538 N 1655.47 1.57485 0.0601405 0
M  V30 16539 C 1656.42 2.00939 1.07739 0
M  V30 16540 C 1657.41 0.893348 1.33821 0
M  V30 16541 O 1658.6 1.15727 1.33927 0
M  V30 16542 C 1655.73 2.46657 2.38778 0
M  V30 16543 C 1654.81 3.65019 2.1592 0
M  V30 16544 N 1655.2 4.78807 1.63025 0
M  V30 16545 C 1653.5 3.71794 2.46344 0
M  V30 16546 C 1654.2 5.60599 1.55253 0
M  V30 16547 N 1653.18 5.04788 2.01718 0
M  V30 16548 H 1656.98 2.86349 0.661923 0
M  V30 16549 H 1654.5 1.6019 0.267017 0
M  V30 16550 H 1656.49 2.76032 3.12429 0
M  V30 16551 H 1655.15 1.62639 2.81031 0
M  V30 16552 H 1656.16 5.00868 1.31725 0
M  V30 16553 H 1652.84 2.98513 2.91884 0
M  V30 16554 H 1654.23 6.61966 1.1511 0
M  V30 16555 N 1656.95 -0.331789 1.54068 0
M  V30 16556 C 1658.2 -1.06818 1.71093 0
M  V30 16557 C 1658.51 -1.89438 0.487111 0
M  V30 16558 O 1659.72 -2.66105 0.538544 0
M  V30 16559 C 1658.17 -1.94853 3.02589 0
M  V30 16560 C 1657.78 -1.17384 4.32348 0
M  V30 16561 C 1659.53 -2.68278 3.28979 0
M  V30 16562 C 1657.43 -2.04518 5.54911 0
M  V30 16563 H 1656.36 -0.402501 0.63758 0
M  V30 16564 H 1659.01 -0.326918 1.80564 0
M  V30 16565 H 1657.4 -2.72845 2.87004 0
M  V30 16566 H 1658.57 -0.442208 4.58673 0
M  V30 16567 H 1656.89 -0.556775 4.12661 0
M  V30 16568 H 1659.48 -3.33762 4.1774 0
M  V30 16569 H 1659.83 -3.35476 2.46498 0
M  V30 16570 H 1660.36 -1.97353 3.45394 0
M  V30 16571 H 1657.1 -1.41842 6.3997 0
M  V30 16572 H 1656.62 -2.75438 5.32817 0
M  V30 16573 H 1658.3 -2.63297 5.91002 0
M  V30 16574 N 1658.43 -1.46001 -0.593424 0
M  V30 16575 C 1659.68 -1.50025 -1.34816 0
M  V30 16576 C 1659.99 -0.151905 -1.95009 0
M  V30 16577 O 1661.2 -0.0698751 -2.7141 0
M  V30 16578 C 1659.65 -2.643 -2.44282 0
M  V30 16579 C 1659.26 -4.05509 -1.90438 0
M  V30 16580 C 1661 -2.77584 -3.21165 0
M  V30 16581 C 1658.91 -5.11142 -2.97469 0
M  V30 16582 H 1657.84 -0.558299 -0.506772 0
M  V30 16583 H 1660.49 -1.72182 -0.634484 0
M  V30 16584 H 1658.87 -2.35453 -3.18399 0
M  V30 16585 H 1660.05 -4.44099 -1.22935 0
M  V30 16586 H 1658.36 -3.96798 -1.26256 0
M  V30 16587 H 1660.96 -3.53673 -4.01023 0
M  V30 16588 H 1661.3 -1.84718 -3.73075 0
M  V30 16589 H 1661.84 -3.06026 -2.54151 0
M  V30 16590 H 1658.58 -6.05764 -2.5046 0
M  V30 16591 H 1658.1 -4.77107 -3.63495 0
M  V30 16592 H 1659.77 -5.36516 -3.61607 0
M  V30 16593 N 1659.91 0.83715 -1.33527 0
M  V30 16594 C 1660.85 1.96849 -1.23908 0
M  V30 16595 C 1661.85 1.6882 -0.140096 0
M  V30 16596 O 1663.05 1.77411 -0.304166 0
M  V30 16597 H 1659.43 0.646232 -0.384562 0
M  V30 16598 H 1661.4 2.02087 -2.19552 0
M  V30 16599 C 1660.15 3.33102 -0.996907 0
M  V30 16600 H 1659.47 3.5521 -1.83482 0
M  V30 16601 H 1660.91 4.12757 -0.96991 0
M  V30 16602 C 1659.37 3.3556 0.30013 0
M  V30 16603 O 1659.9 3.79868 1.30626 0
M  V30 16604 N 1658.11 2.8874 0.328269 0
M  V30 16605 H 1657.65 2.52877 -0.491043 0
M  V30 16606 H 1657.61 2.90767 1.19591 0
M  V30 16607 N 1661.38 1.17024 1.05561 0
M  V30 16608 C 1662.33 0.88356 2.13218 0
M  V30 16609 C 1663.3 -0.171025 1.65217 0
M  V30 16610 O 1664.49 -0.0346242 1.90769 0
M  V30 16611 C 1661.63 0.398912 3.42787 0
M  V30 16612 C 1660.74 1.51718 4.04482 0
M  V30 16613 C 1659.87 0.986793 5.21954 0
M  V30 16614 C 1658.91 2.08077 5.75648 0
M  V30 16615 N 1658.05 1.56542 6.84426 0
M  V30 16616 H 1662.89 1.80548 2.37079 0
M  V30 16617 H 1660.43 0.90056 1.16311 0
M  V30 16618 H 1662.39 0.0995018 4.17081 0
M  V30 16619 H 1661.02 -0.48605 3.1912 0
M  V30 16620 H 1660.07 1.9324 3.27662 0
M  V30 16621 H 1661.38 2.34243 4.40377 0
M  V30 16622 H 1660.53 0.641006 6.03304 0
M  V30 16623 H 1659.27 0.130942 4.87524 0
M  V30 16624 H 1658.28 2.43517 4.9293 0
M  V30 16625 H 1659.5 2.94071 6.12127 0
M  V30 16626 H 1657.45 0.732221 6.51901 0
M  V30 16627 H 1657.37 2.32677 7.19303 0
M  V30 16628 H 1658.63 1.24844 7.69438 0
M  V30 16629 N 1662.86 -1.24221 0.969889 0
M  V30 16630 C 1664.11 -1.92638 0.633913 0
M  V30 16631 C 1664.44 -1.75612 -0.829092 0
M  V30 16632 O 1663.72 -1.11057 -1.59677 0
M  V30 16633 C 1664 -3.45583 1.01213 0
M  V30 16634 C 1663.85 -3.71766 2.53199 0
M  V30 16635 C 1665.17 -4.36671 0.548294 0
M  V30 16636 H 1662.29 -0.699608 0.231772 0
M  V30 16637 H 1664.93 -1.46548 1.20929 0
M  V30 16638 H 1663.08 -3.8497 0.522531 0
M  V30 16639 H 1664.75 -3.41925 3.09653 0
M  V30 16640 H 1663 -3.16842 2.963 0
M  V30 16641 H 1663.67 -4.78787 2.74713 0
M  V30 16642 H 1666.14 -4.04672 0.968489 0
M  V30 16643 H 1665.02 -5.42412 0.841472 0
M  V30 16644 H 1665.28 -4.38646 -0.551588 0
M  V30 16645 N 1664.34 -0.740267 -1.39132 0
M  V30 16646 C 1665.27 -0.118951 -2.33197 0
M  V30 16647 C 1666.25 0.718416 -1.54184 0
M  V30 16648 O 1667.44 0.662322 -1.82557 0
M  V30 16649 C 1664.57 0.78512 -3.38309 0
M  V30 16650 C 1663.52 0.0515093 -4.27969 0
M  V30 16651 C 1662.85 1.07295 -5.23824 0
M  V30 16652 C 1664.15 -1.10903 -5.1039 0
M  V30 16653 H 1665.84 -0.904687 -2.85405 0
M  V30 16654 H 1663.39 -0.436493 -1.37225 0
M  V30 16655 H 1665.34 1.22935 -4.03069 0
M  V30 16656 H 1664.06 1.60303 -2.84553 0
M  V30 16657 H 1662.72 -0.373156 -3.64696 0
M  V30 16658 H 1662.37 1.88456 -4.66362 0
M  V30 16659 H 1662.07 0.586827 -5.84662 0
M  V30 16660 H 1663.59 1.51677 -5.91461 0
M  V30 16661 H 1665.01 -0.742993 -5.68465 0
M  V30 16662 H 1663.41 -1.52513 -5.80396 0
M  V30 16663 H 1664.48 -1.92825 -4.44912 0
M  V30 16664 N 1665.82 1.49844 -0.488302 0
M  V30 16665 C 1667.06 2.02709 0.060788 0
M  V30 16666 C 1667.4 1.36828 1.37811 0
M  V30 16667 O 1666.67 0.499679 1.87972 0
M  V30 16668 C 1666.96 3.59386 0.226637 0
M  V30 16669 C 1666.81 4.35814 -1.11292 0
M  V30 16670 C 1668.13 4.29204 0.973218 0
M  V30 16671 H 1665.25 0.736712 0.0206177 0
M  V30 16672 H 1667.89 1.78995 -0.637245 0
M  V30 16673 H 1666.04 3.79722 0.821182 0
M  V30 16674 H 1667.71 4.27007 -1.74536 0
M  V30 16675 H 1665.95 3.98874 -1.70535 0
M  V30 16676 H 1666.62 5.43758 -0.950319 0
M  V30 16677 H 1669.1 4.13447 0.469106 0
M  V30 16678 H 1667.98 5.38605 1.05809 0
M  V30 16679 H 1668.24 3.93564 2.01394 0
M  V30 16680 N 1667.3 0.221601 1.56034 0
M  V30 16681 C 1668.71 -0.28624 1.84493 0
M  V30 16682 C 1669.06 -1.59469 1.14298 0
M  V30 16683 O 1668.18 -2.12429 0.412672 0
M  V30 16684 C 1668.78 -0.526128 3.3469 0
M  V30 16685 C 1667.34 -0.978278 3.63465 0
M  V30 16686 C 1666.48 -0.0413786 2.77269 0
M  V30 16687 H 1669.44 0.444792 1.52339 0
M  V30 16688 H 1669.46 -1.37212 3.54899 0
M  V30 16689 H 1668.97 0.426348 3.85751 0
M  V30 16690 H 1667.07 -1.94411 3.1786 0
M  V30 16691 H 1667.18 -0.852651 4.71452 0
M  V30 16692 H 1665.55 -0.548179 2.48731 0
M  V30 16693 H 1666.33 0.906016 3.31129 0
M  V30 16694 N 1668.77 -1.57515 -0.0517878 0
M  V30 16695 C 1669.71 -2.01812 -1.08649 0
M  V30 16696 C 1670.72 -0.92719 -1.33817 0
M  V30 16697 O 1671.91 -1.20483 -1.31705 0
M  V30 16698 C 1669.01 -2.35903 -2.43316 0
M  V30 16699 C 1668.18 -3.67095 -2.37824 0
M  V30 16700 C 1667.24 -3.8863 -3.54758 0
M  V30 16701 O 1666.27 -4.59974 -3.3528 0
M  V30 16702 N 1667.47 -3.32516 -4.75829 0
M  V30 16703 H 1670.23 -2.91191 -0.709094 0
M  V30 16704 H 1667.79 -1.60109 -0.240125 0
M  V30 16705 H 1669.79 -2.47466 -3.20223 0
M  V30 16706 H 1668.36 -1.52312 -2.72983 0
M  V30 16707 H 1667.58 -3.66099 -1.46168 0
M  V30 16708 H 1668.86 -4.53199 -2.31275 0
M  V30 16709 H 1668.26 -2.74645 -4.94557 0
M  V30 16710 H 1666.82 -3.49496 -5.50178 0
M  V30 16711 N 1670.25 0.323614 -1.54242 0
M  V30 16712 C 1671.67 0.66795 -1.4495 0
M  V30 16713 C 1671.87 1.91649 -0.622338 0
M  V30 16714 O 1670.93 2.52209 -0.121119 0
M  V30 16715 C 1672.24 0.842006 -2.88671 0
M  V30 16716 C 1673.79 0.93935 -2.98572 0
M  V30 16717 C 1674.26 1.14557 -4.43442 0
M  V30 16718 N 1675.75 1.21231 -4.47054 0
M  V30 16719 C 1676.49 1.38976 -5.56303 0
M  V30 16720 N 1675.98 1.53764 -6.75521 0
M  V30 16721 N 1677.78 1.41684 -5.4395 0
M  V30 16722 H 1669.93 -0.497017 -2.06503 0
M  V30 16723 H 1672.19 -0.160563 -0.934304 0
M  V30 16724 H 1671.9 -0.00418568 -3.517 0
M  V30 16725 H 1671.77 1.73785 -3.34782 0
M  V30 16726 H 1674.16 1.77605 -2.35671 0
M  V30 16727 H 1674.24 0.0199775 -2.55792 0
M  V30 16728 H 1673.88 0.313732 -5.0693 0
M  V30 16729 H 1673.81 2.07882 -4.83831 0
M  V30 16730 H 1676.3 1.11247 -3.61154 0
M  V30 16731 H 1676.62 1.66996 -7.54541 0
M  V30 16732 H 1674.96 1.50862 -6.78429 0
M  V30 16733 H 1678.15 1.29726 -4.49765 0
M  V30 16734 H 1678.33 1.5517 -6.29147 0
M  V30 16735 N 1671.73 1.46313 0.585673 0
M  V30 16736 C 1673.15 1.31203 0.908733 0
M  V30 16737 C 1673.35 0.281265 1.99527 0
M  V30 16738 O 1672.4 -0.317202 2.505 0
M  V30 16739 C 1673.72 2.69742 1.3289 0
M  V30 16740 C 1675.26 2.77809 1.44191 0
M  V30 16741 C 1675.74 4.16924 1.89574 0
M  V30 16742 N 1677.23 4.19327 1.96773 0
M  V30 16743 C 1677.97 5.23856 2.33157 0
M  V30 16744 N 1677.46 6.38716 2.68355 0
M  V30 16745 N 1679.25 5.11221 2.33686 0
M  V30 16746 H 1671.41 2.11989 -0.132126 0
M  V30 16747 H 1673.67 0.947993 0.00355835 0
M  V30 16748 H 1673.37 3.46465 0.604557 0
M  V30 16749 H 1673.25 2.99653 2.29102 0
M  V30 16750 H 1675.64 2.01377 2.15712 0
M  V30 16751 H 1675.72 2.51587 0.46237 0
M  V30 16752 H 1675.36 4.93851 1.18633 0
M  V30 16753 H 1675.29 4.40552 2.88481 0
M  V30 16754 H 1677.78 3.36451 1.72073 0
M  V30 16755 H 1678.09 7.14253 2.95063 0
M  V30 16756 H 1676.44 6.42082 2.66 0
M  V30 16757 H 1679.63 4.20527 2.05609 0
M  V30 16758 H 1679.8 5.92798 2.61714 0
M  V30 16759 N 1673.21 -0.830057 1.33969 0
M  V30 16760 C 1674.14 -1.95557 1.27592 0
M  V30 16761 C 1675.12 -1.69395 0.154745 0
M  V30 16762 O 1676.31 -1.91094 0.345954 0
M  V30 16763 C 1673.44 -3.31881 1.02335 0
M  V30 16764 C 1672.39 -3.72464 2.10842 0
M  V30 16765 C 1671.72 -5.06692 1.70785 0
M  V30 16766 C 1673.02 -3.85315 3.52604 0
M  V30 16767 H 1674.71 -2.0115 2.21763 0
M  V30 16768 H 1672.26 -0.96639 1.06756 0
M  V30 16769 H 1674.21 -4.10197 0.965206 0
M  V30 16770 H 1672.93 -3.26568 0.0460462 0
M  V30 16771 H 1671.59 -2.96417 2.15714 0
M  V30 16772 H 1671.24 -4.97859 0.717334 0
M  V30 16773 H 1670.94 -5.34817 2.43403 0
M  V30 16774 H 1672.46 -5.87474 1.66452 0
M  V30 16775 H 1673.88 -4.5392 3.50185 0
M  V30 16776 H 1672.27 -4.24886 4.23783 0
M  V30 16777 H 1673.34 -2.87514 3.90466 0
M  V30 16778 N 1674.69 -1.17582 -1.04939 0
M  V30 16779 C 1675.92 -0.990398 -1.81656 0
M  V30 16780 C 1676.33 0.461324 -1.83077 0
M  V30 16781 O 1675.69 1.32037 -1.25986 0
M  V30 16782 C 1675.74 -1.52719 -3.27657 0
M  V30 16783 O 1675.46 -2.92206 -3.26415 0
M  V30 16784 C 1676.96 -1.38671 -4.21053 0
M  V30 16785 H 1674.18 -0.35024 -0.57234 0
M  V30 16786 H 1676.72 -1.5593 -1.32311 0
M  V30 16787 H 1674.88 -1.00026 -3.74264 0
M  V30 16788 H 1675.29 -3.17068 -4.17814 0
M  V30 16789 H 1676.77 -1.8104 -5.21468 0
M  V30 16790 H 1677.24 -0.334151 -4.37927 0
M  V30 16791 H 1677.85 -1.90393 -3.80303 0
M  V30 16792 N 1676.17 1.23705 -0.976463 0
M  V30 16793 C 1677.41 1.91635 -0.641897 0
M  V30 16794 C 1677.73 1.7661 0.826678 0
M  V30 16795 O 1677 1.14304 1.59096 0
M  V30 16796 H 1675.58 0.709264 -0.234422 0
M  V30 16797 H 1678.25 1.50414 -1.23943 0
M  V30 16798 H 1677.34 2.99138 -0.890099 0
M  V30 16799 N 1677.64 0.747635 1.38738 0
M  V30 16800 C 1678.87 0.310484 2.05063 0
M  V30 16801 C 1679.29 -1.05078 1.56013 0
M  V30 16802 O 1678.65 -1.66842 0.709461 0
M  V30 16803 C 1678.7 0.335837 3.59033 0
M  V30 16804 O 1677.8 -0.672218 4.06884 0
M  V30 16805 H 1677.14 0.138591 0.649375 0
M  V30 16806 H 1679.67 1.01709 1.77529 0
M  V30 16807 H 1679.68 0.184631 4.07582 0
M  V30 16808 H 1678.36 1.32906 3.94092 0
M  V30 16809 H 1676.94 -0.486112 3.69718 0
M  V30 16810 N 1679.12 -1.49583 0.496242 0
M  V30 16811 C 1680.05 -2.31885 -0.274139 0
M  V30 16812 C 1681.03 -1.39939 -0.96701 0
M  V30 16813 O 1682.22 -1.6885 -0.959333 0
M  V30 16814 C 1679.35 -3.20332 -1.34181 0
M  V30 16815 C 1678.3 -4.21033 -0.769091 0
M  V30 16816 C 1677.63 -4.98385 -1.93693 0
M  V30 16817 C 1678.93 -5.21764 0.236648 0
M  V30 16818 H 1680.62 -2.9654 0.412824 0
M  V30 16819 H 1678.17 -1.42605 0.199979 0
M  V30 16820 H 1680.12 -3.76718 -1.88843 0
M  V30 16821 H 1678.84 -2.53611 -2.05789 0
M  V30 16822 H 1677.5 -3.65785 -0.244252 0
M  V30 16823 H 1677.15 -4.28115 -2.64058 0
M  V30 16824 H 1676.85 -5.66519 -1.55981 0
M  V30 16825 H 1678.38 -5.57613 -2.48798 0
M  V30 16826 H 1679.79 -5.72871 -0.221672 0
M  V30 16827 H 1678.19 -5.97761 0.529346 0
M  V30 16828 H 1679.26 -4.70964 1.15415 0
M  V30 16829 N 1680.6 -0.229873 -1.55915 0
M  V30 16830 C 1682.01 0.276452 -1.84642 0
M  V30 16831 C 1682.36 1.58861 -1.15142 0
M  V30 16832 O 1681.49 2.12207 -0.423932 0
M  V30 16833 C 1682.08 0.508371 -3.34964 0
M  V30 16834 C 1680.64 0.958989 -3.63979 0
M  V30 16835 C 1679.79 0.0266738 -2.77287 0
M  V30 16836 H 1682.74 -0.452864 -1.52101 0
M  V30 16837 H 1682.76 1.35328 -3.55621 0
M  V30 16838 H 1682.27 -0.4468 -3.8552 0
M  V30 16839 H 1680.37 1.92722 -3.18887 0
M  V30 16840 H 1680.49 0.827637 -4.71897 0
M  V30 16841 H 1678.85 0.53498 -2.49018 0
M  V30 16842 H 1679.63 -0.923563 -3.30644 0
M  V30 16843 N 1682.08 1.5754 0.0434337 0
M  V30 16844 C 1683.03 2.06683 1.067 0
M  V30 16845 C 1684.02 0.977691 1.38339 0
M  V30 16846 O 1685.23 1.16266 1.37412 0
M  V30 16847 H 1681.6 0.659378 0.361559 0
M  V30 16848 H 1683.57 2.91747 0.626605 0
M  V30 16849 C 1682.32 2.54985 2.36385 0
M  V30 16850 H 1681.64 3.384 2.12897 0
M  V30 16851 H 1683.08 2.93095 3.06384 0
M  V30 16852 C 1681.54 1.44484 3.04345 0
M  V30 16853 O 1682.07 0.80291 3.93594 0
M  V30 16854 N 1680.28 1.18292 2.65434 0
M  V30 16855 H 1679.83 1.70676 1.92944 0
M  V30 16856 H 1679.78 0.445676 3.11225 0
M  V30 16857 N 1683.56 -0.31543 1.54411 0
M  V30 16858 C 1684.49 -1.39353 1.87358 0
M  V30 16859 C 1685.47 -1.53586 0.731118 0
M  V30 16860 O 1686.65 -1.67332 0.98558 0
M  V30 16861 C 1683.78 -2.75998 2.10814 0
M  V30 16862 C 1682.74 -2.76545 3.2666 0
M  V30 16863 C 1682.06 -4.16343 3.35504 0
M  V30 16864 C 1683.36 -2.39567 4.64117 0
M  V30 16865 H 1685.06 -1.12028 2.77651 0
M  V30 16866 H 1682.6 -0.537476 1.33593 0
M  V30 16867 H 1684.55 -3.51491 2.32447 0
M  V30 16868 H 1683.28 -3.04817 1.17278 0
M  V30 16869 H 1681.94 -2.03507 3.04927 0
M  V30 16870 H 1681.59 -4.42316 2.39512 0
M  V30 16871 H 1681.29 -4.17613 4.13368 0
M  V30 16872 H 1682.81 -4.93637 3.59381 0
M  V30 16873 H 1684.22 -3.04775 4.85577 0
M  V30 16874 H 1682.62 -2.52075 5.4459 0
M  V30 16875 H 1683.69 -1.34707 4.65813 0
M  V30 16876 N 1685.03 -1.46622 -0.577906 0
M  V30 16877 C 1685.96 -1.60413 -1.69676 0
M  V30 16878 C 1686.95 -0.454277 -1.63922 0
M  V30 16879 O 1688.13 -0.68111 -1.81864 0
M  V30 16880 C 1685.26 -1.59866 -3.08318 0
M  V30 16881 C 1684.21 -2.7387 -3.28906 0
M  V30 16882 C 1683.54 -2.58386 -4.68125 0
M  V30 16883 C 1684.84 -4.15652 -3.16276 0
M  V30 16884 H 1686.53 -2.54073 -1.5839 0
M  V30 16885 H 1684.08 -1.22275 -0.760572 0
M  V30 16886 H 1686.03 -1.68108 -3.86417 0
M  V30 16887 H 1684.76 -0.627541 -3.20514 0
M  V30 16888 H 1683.42 -2.65105 -2.53209 0
M  V30 16889 H 1683.06 -1.59347 -4.77093 0
M  V30 16890 H 1682.76 -3.34855 -4.82852 0
M  V30 16891 H 1684.29 -2.68525 -5.48385 0
M  V30 16892 H 1685.7 -4.25503 -3.84214 0
M  V30 16893 H 1684.1 -4.92746 -3.42523 0
M  V30 16894 H 1685.17 -4.35471 -2.13291 0
M  V30 16895 N 1686.51 0.822941 -1.34408 0
M  V30 16896 C 1687.45 1.93899 -1.20326 0
M  V30 16897 C 1688.42 1.62323 -0.0949083 0
M  V30 16898 O 1689.61 1.86698 -0.260056 0
M  V30 16899 C 1686.73 3.27884 -0.849118 0
M  V30 16900 C 1685.78 3.78421 -1.96723 0
M  V30 16901 S 1686.61 3.98182 -3.58066 0
M  V30 16902 C 1687.77 5.35094 -3.24693 0
M  V30 16903 H 1688 2.05547 -2.14797 0
M  V30 16904 H 1685.54 0.978513 -1.19434 0
M  V30 16905 H 1687.49 4.05296 -0.651579 0
M  V30 16906 H 1686.15 3.14005 0.0772533 0
M  V30 16907 H 1685.35 4.75416 -1.67318 0
M  V30 16908 H 1684.95 3.07955 -2.12225 0
M  V30 16909 H 1687.24 6.18507 -2.76507 0
M  V30 16910 H 1688.18 5.69482 -4.20828 0
M  V30 16911 H 1688.59 5.00604 -2.60876 0
M  V30 16912 N 1687.99 1.18137 1.04314 0
M  V30 16913 C 1689.41 0.930523 1.29667 0
M  V30 16914 C 1689.61 -0.405336 1.97381 0
M  V30 16915 O 1688.66 -1.14025 2.25288 0
M  V30 16916 C 1689.98 2.09427 2.1578 0
M  V30 16917 C 1691.52 2.13229 2.29134 0
M  V30 16918 C 1692 3.29014 3.18612 0
M  V30 16919 N 1693.49 3.28859 3.26199 0
M  V30 16920 C 1694.22 4.15092 3.95583 0
M  V30 16921 N 1693.72 5.11453 4.67319 0
M  V30 16922 N 1695.51 4.03014 3.91837 0
M  V30 16923 H 1687.66 2.04108 0.587669 0
M  V30 16924 H 1689.93 0.89171 0.321804 0
M  V30 16925 H 1689.63 3.06023 1.73328 0
M  V30 16926 H 1689.51 2.0528 3.16449 0
M  V30 16927 H 1691.89 1.17212 2.70823 0
M  V30 16928 H 1691.98 2.21435 1.28064 0
M  V30 16929 H 1691.62 4.25302 2.77635 0
M  V30 16930 H 1691.55 3.18045 4.19708 0
M  V30 16931 H 1694.04 2.59097 2.75095 0
M  V30 16932 H 1694.35 5.7363 5.1785 0
M  V30 16933 H 1692.7 5.15415 4.66232 0
M  V30 16934 H 1695.89 3.27021 3.34925 0
M  V30 16935 H 1696.06 4.70435 4.4564 0
M  V30 16936 N 1689.47 -1.23186 0.98301 0
M  V30 16937 C 1690.4 -2.27054 0.544858 0
M  V30 16938 C 1691.38 -1.64749 -0.423281 0
M  V30 16939 O 1692.56 -1.91611 -0.316075 0
M  V30 16940 C 1689.69 -3.46972 -0.150976 0
M  V30 16941 C 1688.65 -4.21647 0.734707 0
M  V30 16942 C 1687.97 -5.34618 -0.0934874 0
M  V30 16943 C 1689.27 -4.81372 2.02679 0
M  V30 16944 H 1690.97 -2.63957 1.41305 0
M  V30 16945 H 1688.51 -1.26885 0.680895 0
M  V30 16946 H 1690.47 -4.18784 -0.468825 0
M  V30 16947 H 1689.19 -3.09137 -1.05364 0
M  V30 16948 H 1687.85 -3.51655 1.03605 0
M  V30 16949 H 1687.5 -4.93025 -0.996768 0
M  V30 16950 H 1687.2 -5.85503 0.496019 0
M  V30 16951 H 1688.72 -6.09251 -0.405658 0
M  V30 16952 H 1690.14 -5.45178 1.77353 0
M  V30 16953 H 1688.53 -5.42554 2.56429 0
M  V30 16954 H 1689.6 -4.01972 2.71194 0
M  V30 16955 N 1690.95 -0.754982 -1.38339 0
M  V30 16956 C 1691.86 -0.130303 -2.34238 0
M  V30 16957 C 1692.87 0.699048 -1.5934 0
M  V30 16958 O 1694.05 0.622876 -1.91526 0
M  V30 16959 C 1691.11 0.751285 -3.38462 0
M  V30 16960 C 1690.17 -0.0925987 -4.292 0
M  V30 16961 C 1689.41 0.747007 -5.28446 0
M  V30 16962 O 1689.63 1.98495 -5.34749 0
M  V30 16963 O 1688.56 0.165072 -6.01674 0
M  V30 16964 H 1692.39 -0.92233 -2.89356 0
M  V30 16965 H 1689.98 -0.515896 -1.4021 0
M  V30 16966 H 1691.86 1.2551 -4.02275 0
M  V30 16967 H 1690.53 1.52178 -2.85698 0
M  V30 16968 H 1689.44 -0.64239 -3.68543 0
M  V30 16969 H 1690.77 -0.825784 -4.85223 0
M  V30 16970 N 1692.42 1.49318 -0.504168 0
M  V30 16971 C 1693.36 2.27103 0.309327 0
M  V30 16972 C 1694.37 1.33776 0.927781 0
M  V30 16973 O 1695.56 1.59034 0.810585 0
M  V30 16974 C 1692.66 3.06277 1.45078 0
M  V30 16975 C 1691.83 4.27201 0.939045 0
M  V30 16976 C 1690.89 4.88395 1.95849 0
M  V30 16977 O 1689.92 5.4837 1.52576 0
M  V30 16978 N 1691.12 4.78328 3.28911 0
M  V30 16979 H 1693.88 2.97558 -0.35767 0
M  V30 16980 H 1691.44 1.58356 -0.336907 0
M  V30 16981 H 1693.44 3.44088 2.13038 0
M  V30 16982 H 1692.01 2.38409 2.02188 0
M  V30 16983 H 1691.23 3.9411 0.0842433 0
M  V30 16984 H 1692.51 5.05534 0.575603 0
M  V30 16985 H 1691.91 4.30707 3.66753 0
M  V30 16986 H 1690.47 5.20315 3.92576 0
M  V30 16987 N 1693.9 0.238138 1.5579 0
M  V30 16988 C 1694.84 -0.705517 2.1702 0
M  V30 16989 C 1695.81 -1.17917 1.11957 0
M  V30 16990 O 1697 -1.2589 1.403 0
M  V30 16991 C 1694.12 -1.9578 2.76384 0
M  V30 16992 C 1693.17 -1.62275 3.94422 0
M  V30 16993 S 1694 -0.733018 5.30459 0
M  V30 16994 C 1695.16 -1.9945 5.93271 0
M  V30 16995 H 1695.39 -0.185146 2.96723 0
M  V30 16996 H 1692.93 0.0226713 1.54383 0
M  V30 16997 H 1694.88 -2.67676 3.11223 0
M  V30 16998 H 1693.54 -2.44929 1.96643 0
M  V30 16999 H 1692.74 -2.55361 4.34519 0
M  V30 17000 H 1692.34 -0.98429 3.60815 0
M  V30 17001 H 1694.63 -2.94272 6.10254 0
M  V30 17002 H 1695.57 -1.63716 6.88914 0
M  V30 17003 H 1695.98 -2.14259 5.22258 0
M  V30 17004 N 1695.38 -1.57561 -0.0350783 0
M  V30 17005 C 1696.79 -1.77383 -0.582437 0
M  V30 17006 C 1697.14 -0.868453 -1.75933 0
M  V30 17007 O 1696.27 -0.061745 -2.16312 0
M  V30 17008 C 1696.86 -3.2168 -1.06337 0
M  V30 17009 C 1695.42 -3.42719 -1.55629 0
M  V30 17010 C 1694.57 -2.72906 -0.4917 0
M  V30 17011 H 1697.52 -1.57545 0.19115 0
M  V30 17012 H 1697.54 -3.27863 -1.93097 0
M  V30 17013 H 1697.05 -3.8755 -0.206603 0
M  V30 17014 H 1695.15 -2.82016 -2.43511 0
M  V30 17015 H 1695.27 -4.51312 -1.60794 0
M  V30 17016 H 1693.63 -2.36506 -0.945349 0
M  V30 17017 H 1694.41 -3.41454 0.355502 0
M  V30 17018 N 1696.86 0.307236 -1.54576 0
M  V30 17019 C 1698.14 1.06243 -1.64231 0
M  V30 17020 C 1698.52 2.05415 -0.486589 0
M  V30 17021 O 1697.86 2.22565 0.517384 0
M  V30 17022 C 1698.07 1.74985 -3.01962 0
M  V30 17023 C 1699.42 2.2741 -3.58566 0
M  V30 17024 O 1700.45 1.85027 -3.04374 0
M  V30 17025 O 1699.3 3.05051 -4.53438 0
M  V30 17026 H 1696.4 0.490693 -0.665695 0
M  V30 17027 H 1698.94 0.305822 -1.66922 0
M  V30 17028 H 1697.72 1.02939 -3.77517 0
M  V30 17029 H 1697.34 2.57417 -3.03022 0
M  V30 17030 N 1698.34 1.46926 0.570122 0
M  V30 17031 C 1699.57 1.56253 1.35161 0
M  V30 17032 C 1699.97 0.207041 1.88064 0
M  V30 17033 O 1699.32 -0.807871 1.64982 0
M  V30 17034 C 1699.38 2.51715 2.56671 0
M  V30 17035 C 1699.04 3.97691 2.25147 0
M  V30 17036 C 1700.04 4.86546 1.83219 0
M  V30 17037 C 1697.73 4.42924 2.36904 0
M  V30 17038 C 1699.72 6.18651 1.53459 0
M  V30 17039 C 1697.41 5.75061 2.06757 0
M  V30 17040 C 1698.4 6.62745 1.65101 0
M  V30 17041 O 1698.09 7.92427 1.3533 0
M  V30 17042 H 1697.82 0.53064 0.418804 0
M  V30 17043 H 1700.38 1.93147 0.698804 0
M  V30 17044 H 1698.61 2.09862 3.24799 0
M  V30 17045 H 1700.3 2.5131 3.18745 0
M  V30 17046 H 1701.06 4.52851 1.7364 0
M  V30 17047 H 1696.94 3.7489 2.68287 0
M  V30 17048 H 1700.49 6.87049 1.20872 0
M  V30 17049 H 1696.38 6.08301 2.15964 0
M  V30 17050 H 1697.15 8.04811 1.49069 0
M  V30 17051 N 1699.82 -0.815801 1.34842 0
M  V30 17052 C 1701.04 -1.60915 1.30848 0
M  V30 17053 C 1701.47 -1.87758 -0.113345 0
M  V30 17054 O 1700.82 -1.4582 -1.07732 0
M  V30 17055 C 1700.87 -2.92284 2.11192 0
M  V30 17056 O 1699.98 -3.84685 1.48632 0
M  V30 17057 H 1699.32 -0.48913 0.449052 0
M  V30 17058 H 1701.85 -1.01322 1.7775 0
M  V30 17059 H 1701.86 -3.41789 2.2281 0
M  V30 17060 H 1700.53 -2.72071 3.14563 0
M  V30 17061 H 1699.11 -3.43215 1.458 0
M  V30 17062 N 1701.29 -1.18689 -1.03686 0
M  V30 17063 C 1702.54 -0.978948 -1.7635 0
M  V30 17064 C 1702.86 0.49195 -1.89312 0
M  V30 17065 O 1704.06 0.818501 -2.58868 0
M  V30 17066 C 1702.52 -1.70255 -3.17083 0
M  V30 17067 C 1702.13 -3.21301 -3.12201 0
M  V30 17068 C 1703.87 -1.57756 -3.94098 0
M  V30 17069 C 1701.78 -3.86284 -4.47815 0
M  V30 17070 H 1700.71 -0.362652 -0.661059 0
M  V30 17071 H 1703.36 -1.42102 -1.161 0
M  V30 17072 H 1701.74 -1.18826 -3.77752 0
M  V30 17073 H 1702.91 -3.79785 -2.6096 0
M  V30 17074 H 1701.23 -3.33984 -2.48684 0
M  V30 17075 H 1703.83 -2.03664 -4.94394 0
M  V30 17076 H 1704.17 -0.530427 -4.12907 0
M  V30 17077 H 1704.7 -2.06486 -3.40012 0
M  V30 17078 H 1701.44 -4.91061 -4.34211 0
M  V30 17079 H 1700.96 -3.32589 -4.99144 0
M  V30 17080 H 1702.64 -3.89369 -5.16721 0
M  V30 17081 N 1702.77 1.22662 -0.989529 0
M  V30 17082 C 1704.02 1.91322 -0.663497 0
M  V30 17083 C 1704.35 1.77102 0.804057 0
M  V30 17084 O 1703.6 1.13169 1.5966 0
M  V30 17085 C 1703.9 3.428 -1.01109 0
M  V30 17086 C 1703.57 3.77206 -2.47035 0
M  V30 17087 C 1702.23 3.86308 -2.86914 0
M  V30 17088 C 1704.58 3.93617 -3.41636 0
M  V30 17089 C 1701.91 4.09255 -4.20389 0
M  V30 17090 C 1704.26 4.18067 -4.74766 0
M  V30 17091 C 1702.92 4.25392 -5.14391 0
M  V30 17092 H 1702.19 0.700095 -0.242791 0
M  V30 17093 H 1704.84 1.45498 -1.24509 0
M  V30 17094 H 1703.15 3.90256 -0.347533 0
M  V30 17095 H 1704.84 3.94171 -0.736909 0
M  V30 17096 H 1701.43 3.70702 -2.15123 0
M  V30 17097 H 1705.62 3.85966 -3.12 0
M  V30 17098 H 1700.87 4.13152 -4.50683 0
M  V30 17099 H 1705.05 4.29708 -5.48018 0
M  V30 17100 H 1702.67 4.42926 -6.17835 0
M  V30 17101 N 1704.25 0.762308 1.37937 0
M  V30 17102 C 1705.67 0.440871 1.5339 0
M  V30 17103 C 1705.87 -1.04483 1.72295 0
M  V30 17104 O 1704.92 -1.83078 1.73892 0
M  V30 17105 C 1706.23 1.24772 2.73592 0
M  V30 17106 C 1707.78 1.23867 2.87447 0
M  V30 17107 C 1708.26 2.02866 4.10621 0
M  V30 17108 N 1709.75 2.00171 4.17715 0
M  V30 17109 C 1710.48 2.58086 5.12034 0
M  V30 17110 N 1709.98 3.2475 6.11972 0
M  V30 17111 N 1711.77 2.47968 5.04449 0
M  V30 17112 H 1703.92 1.72506 1.23916 0
M  V30 17113 H 1706.19 0.731791 0.602649 0
M  V30 17114 H 1705.89 2.30016 2.66056 0
M  V30 17115 H 1705.77 0.870485 3.67018 0
M  V30 17116 H 1708.15 0.194255 2.9446 0
M  V30 17117 H 1708.23 1.65548 1.95007 0
M  V30 17118 H 1707.88 3.07323 4.04369 0
M  V30 17119 H 1707.81 1.58574 5.02157 0
M  V30 17120 H 1710.3 1.5163 3.46146 0
M  V30 17121 H 1710.61 3.66339 6.80453 0
M  V30 17122 H 1708.96 3.28846 6.12279 0
M  V30 17123 H 1712.15 1.95509 4.25316 0
M  V30 17124 H 1712.32 2.93398 5.77773 0
M  V30 17125 N 1705.73 -1.49049 0.51208 0
M  V30 17126 C 1706.98 -2.0208 -0.0284326 0
M  V30 17127 C 1707.3 -1.39303 -1.36454 0
M  V30 17128 O 1706.57 -0.552155 -1.87958 0
M  V30 17129 H 1705.15 -0.746878 -0.0134968 0
M  V30 17130 H 1707.81 -1.82954 0.671842 0
M  V30 17131 H 1706.9 -3.11739 -0.149966 0
M  V30 17132 N 1707.21 -0.246397 -1.55662 0
M  V30 17133 C 1708.44 0.38209 -2.03036 0
M  V30 17134 C 1708.84 1.52119 -1.12501 0
M  V30 17135 O 1708.19 1.83227 -0.131753 0
M  V30 17136 C 1708.25 0.952012 -3.46666 0
M  V30 17137 C 1707.91 -0.0547805 -4.56967 0
M  V30 17138 C 1708.91 -0.864138 -5.12668 0
M  V30 17139 C 1706.59 -0.180725 -5.01975 0
M  V30 17140 C 1708.59 -1.7859 -6.1187 0
M  V30 17141 C 1706.28 -1.106 -6.01008 0
M  V30 17142 C 1707.27 -1.90711 -6.55834 0
M  V30 17143 O 1706.96 -2.81678 -7.52936 0
M  V30 17144 H 1706.69 0.095009 -0.66929 0
M  V30 17145 H 1709.25 -0.367701 -2.02082 0
M  V30 17146 H 1707.48 1.75136 -3.44767 0
M  V30 17147 H 1709.17 1.49052 -3.77542 0
M  V30 17148 H 1709.93 -0.77742 -4.78729 0
M  V30 17149 H 1705.81 0.432761 -4.58964 0
M  V30 17150 H 1709.36 -2.41162 -6.54589 0
M  V30 17151 H 1705.25 -1.19364 -6.34368 0
M  V30 17152 H 1706.02 -2.76034 -7.7055 0
M  V30 17153 N 1708.68 1.57577 0.026722 0
M  V30 17154 C 1709.93 1.8856 0.716115 0
M  V30 17155 C 1710.25 0.845223 1.76395 0
M  V30 17156 O 1711.45 1.04435 2.5061 0
M  V30 17157 C 1709.91 3.34631 1.32476 0
M  V30 17158 C 1709.52 4.46904 0.313149 0
M  V30 17159 C 1711.26 3.74759 1.9939 0
M  V30 17160 C 1709.17 5.84038 0.930274 0
M  V30 17161 H 1708.1 0.703531 0.271221 0
M  V30 17162 H 1710.75 1.83476 -0.0294388 0
M  V30 17163 H 1709.13 3.34466 2.1201 0
M  V30 17164 H 1710.3 4.58542 -0.455647 0
M  V30 17165 H 1708.62 4.15624 -0.254028 0
M  V30 17166 H 1711.22 4.74534 2.46418 0
M  V30 17167 H 1711.56 3.06875 2.81307 0
M  V30 17168 H 1712.09 3.77108 1.26628 0
M  V30 17169 H 1708.83 6.55327 0.150466 0
M  V30 17170 H 1708.35 5.76116 1.66886 0
M  V30 17171 H 1710.03 6.30842 1.43692 0
M  V30 17172 N 1710.16 -0.299034 1.54737 0
M  V30 17173 C 1711.41 -1.03164 1.7332 0
M  V30 17174 C 1711.72 -1.88362 0.527184 0
M  V30 17175 O 1712.93 -2.64903 0.594868 0
M  V30 17176 C 1711.39 -1.88391 3.06654 0
M  V30 17177 C 1710.99 -1.08187 4.34741 0
M  V30 17178 C 1712.74 -2.6124 3.34595 0
M  V30 17179 C 1710.64 -1.92702 5.59124 0
M  V30 17180 H 1709.57 -0.388887 0.645975 0
M  V30 17181 H 1712.23 -0.288544 1.81217 0
M  V30 17182 H 1710.61 -2.66696 2.92727 0
M  V30 17183 H 1711.78 -0.344817 4.59508 0
M  V30 17184 H 1710.1 -0.469118 4.13749 0
M  V30 17185 H 1712.69 -3.24826 4.24726 0
M  V30 17186 H 1713.04 -3.30172 2.53559 0
M  V30 17187 H 1713.57 -1.89982 3.49502 0
M  V30 17188 H 1710.31 -1.28236 6.42834 0
M  V30 17189 H 1709.83 -2.64074 5.38539 0
M  V30 17190 H 1711.51 -2.50702 5.96454 0
M  V30 17191 N 1711.64 -1.47227 -0.562322 0
M  V30 17192 C 1712.57 -1.55383 -1.6849 0
M  V30 17193 C 1713.58 -0.440437 -1.56729 0
M  V30 17194 O 1714.77 -0.709803 -1.63781 0
M  V30 17195 C 1711.87 -1.43723 -3.06915 0
M  V30 17196 C 1711.05 -2.69541 -3.4448 0
M  V30 17197 C 1710.11 -2.5179 -4.62048 0
M  V30 17198 O 1709.13 -3.25587 -4.66885 0
M  V30 17199 N 1710.33 -1.59282 -5.5822 0
M  V30 17200 H 1713.1 -2.52181 -1.61941 0
M  V30 17201 H 1710.66 -1.43541 -0.748832 0
M  V30 17202 H 1712.65 -1.2959 -3.83391 0
M  V30 17203 H 1711.22 -0.550272 -3.07719 0
M  V30 17204 H 1710.44 -2.98472 -2.57504 0
M  V30 17205 H 1711.73 -3.53079 -3.66351 0
M  V30 17206 H 1711.13 -0.984666 -5.57064 0
M  V30 17207 H 1709.68 -1.51103 -6.34043 0
M  V30 17208 N 1713.12 0.808639 -1.35273 0
M  V30 17209 C 1714.35 1.5947 -1.31351 0
M  V30 17210 C 1714.76 1.88871 0.111546 0
M  V30 17211 O 1714.1 1.49082 1.07332 0
M  V30 17212 C 1714.16 2.95278 -2.05064 0
M  V30 17213 C 1713.82 2.88702 -3.5426 0
M  V30 17214 C 1714.82 2.62283 -4.48892 0
M  V30 17215 C 1712.51 3.07884 -3.96879 0
M  V30 17216 C 1714.5 2.55118 -5.84118 0
M  V30 17217 C 1712.19 3.00343 -5.322 0
M  V30 17218 C 1713.19 2.73995 -6.25632 0
M  V30 17219 O 1712.87 2.66413 -7.58472 0
M  V30 17220 H 1712.61 0.501927 -0.45282 0
M  V30 17221 H 1715.16 1.01307 -1.78678 0
M  V30 17222 H 1713.39 3.55416 -1.5237 0
M  V30 17223 H 1715.08 3.56403 -1.94246 0
M  V30 17224 H 1715.84 2.47184 -4.17283 0
M  V30 17225 H 1711.72 3.27404 -3.24542 0
M  V30 17226 H 1715.27 2.34473 -6.57015 0
M  V30 17227 H 1711.16 3.14999 -5.63424 0
M  V30 17228 H 1711.93 2.82036 -7.68374 0
M  V30 17229 N 1714.6 1.19237 1.03055 0
M  V30 17230 C 1715.54 0.925171 2.13409 0
M  V30 17231 C 1716.54 -0.118373 1.68986 0
M  V30 17232 O 1717.74 0.0307159 1.79974 0
M  V30 17233 H 1714.12 0.281769 0.697216 0
M  V30 17234 H 1716.09 1.86252 2.33137 0
M  V30 17235 C 1714.84 0.478529 3.44391 0
M  V30 17236 H 1714.16 1.27305 3.7899 0
M  V30 17237 H 1715.6 0.330661 4.22709 0
M  V30 17238 C 1714.06 -0.80715 3.27088 0
M  V30 17239 O 1714.59 -1.86897 3.55573 0
M  V30 17240 N 1712.8 -0.76373 2.80385 0
M  V30 17241 H 1712.34 0.100606 2.57403 0
M  V30 17242 H 1712.3 -1.62435 2.69188 0
M  V30 17243 N 1716.07 -1.22136 0.99602 0
M  V30 17244 C 1717 -2.26463 0.568909 0
M  V30 17245 C 1717.99 -1.65189 -0.405783 0
M  V30 17246 O 1719.17 -1.91935 -0.295735 0
M  V30 17247 C 1716.3 -3.47112 -0.114166 0
M  V30 17248 C 1715.25 -4.20844 0.779387 0
M  V30 17249 C 1714.58 -5.34687 -0.0367787 0
M  V30 17250 C 1715.88 -4.79195 2.07773 0
M  V30 17251 H 1717.57 -2.62443 1.44097 0
M  V30 17252 H 1715.12 -1.26156 0.694314 0
M  V30 17253 H 1717.07 -4.19258 -0.424381 0
M  V30 17254 H 1715.8 -3.10238 -1.02079 0
M  V30 17255 H 1714.46 -3.50537 1.07329 0
M  V30 17256 H 1714.1 -4.94054 -0.94442 0
M  V30 17257 H 1713.8 -5.84944 0.558092 0
M  V30 17258 H 1715.33 -6.09647 -0.341016 0
M  V30 17259 H 1716.74 -5.43266 1.83126 0
M  V30 17260 H 1715.14 -5.39803 2.62169 0
M  V30 17261 H 1716.21 -3.99073 2.75442 0
M  V30 17262 N 1717.55 -0.769612 -1.37531 0
M  V30 17263 C 1718.52 -0.160716 -2.28636 0
M  V30 17264 C 1719.52 0.630362 -1.47929 0
M  V30 17265 O 1720.71 0.454265 -1.68173 0
M  V30 17266 C 1717.84 0.779904 -3.31859 0
M  V30 17267 H 1719.03 -0.963794 -2.83991 0
M  V30 17268 H 1716.58 -0.537678 -1.46761 0
M  V30 17269 H 1717.32 1.60807 -2.81623 0
M  V30 17270 H 1717.1 0.21485 -3.91511 0
M  V30 17271 H 1718.59 1.20143 -3.99944 0
M  V30 17272 N 1719.03 1.48775 -0.519977 0
M  V30 17273 C 1719.98 2.31123 0.261738 0
M  V30 17274 C 1720.97 1.40595 0.94496 0
M  V30 17275 O 1722.18 1.57552 0.870484 0
M  V30 17276 H 1718.55 0.744875 0.103272 0
M  V30 17277 H 1720.52 2.94949 -0.452514 0
M  V30 17278 C 1719.27 3.22409 1.30184 0
M  V30 17279 H 1718.6 3.92007 0.785524 0
M  V30 17280 H 1720.04 3.82932 1.82042 0
M  V30 17281 C 1718.5 2.43321 2.33016 0
M  V30 17282 O 1719.03 2.15087 3.39265 0
M  V30 17283 N 1717.23 2.04998 2.05971 0
M  V30 17284 H 1716.78 2.2816 1.19586 0
M  V30 17285 H 1716.74 1.52393 2.74998 0
M  V30 17286 N 1720.51 0.254649 1.55529 0
M  V30 17287 C 1721.47 -0.62836 2.20418 0
M  V30 17288 C 1722.47 -1.09691 1.17578 0
M  V30 17289 O 1723.66 -1.00037 1.42612 0
M  V30 17290 C 1720.79 -1.86453 2.85391 0
M  V30 17291 H 1721.99 -0.0621032 2.99836 0
M  V30 17292 H 1719.54 0.00514311 1.56299 0
M  V30 17293 H 1720.27 -2.47182 2.09932 0
M  V30 17294 H 1720.06 -1.53669 3.60733 0
M  V30 17295 H 1721.55 -2.49291 3.35028 0
M  V30 17296 N 1721.99 -1.57589 -0.0183649 0
M  V30 17297 C 1723.24 -1.88937 -0.706105 0
M  V30 17298 C 1723.55 -0.854565 -1.75945 0
M  V30 17299 O 1724.75 -1.05763 -2.50053 0
M  V30 17300 C 1723.21 -3.35329 -1.307 0
M  V30 17301 C 1722.82 -4.47064 -0.289444 0
M  V30 17302 C 1724.56 -3.75811 -1.97399 0
M  V30 17303 C 1722.47 -5.84523 -0.899288 0
M  V30 17304 H 1721.4 -0.704959 -0.267486 0
M  V30 17305 H 1724.05 -1.83458 0.0391685 0
M  V30 17306 H 1722.43 -3.35586 -2.10233 0
M  V30 17307 H 1723.61 -4.58294 0.479958 0
M  V30 17308 H 1721.92 -4.15484 0.276066 0
M  V30 17309 H 1724.52 -4.75834 -2.43898 0
M  V30 17310 H 1724.86 -3.08362 -2.79676 0
M  V30 17311 H 1725.39 -3.77774 -1.24626 0
M  V30 17312 H 1722.13 -6.55398 -0.11571 0
M  V30 17313 H 1721.65 -5.76993 -1.63828 0
M  V30 17314 H 1723.33 -6.31595 -1.40344 0
M  V30 17315 N 1723.46 0.290824 -1.54893 0
M  V30 17316 C 1724.37 1.38137 -1.89619 0
M  V30 17317 C 1725.39 1.54959 -0.791432 0
M  V30 17318 O 1726.57 1.69428 -1.08885 0
M  V30 17319 C 1723.63 2.72353 -2.14534 0
M  V30 17320 C 1722.69 2.64429 -3.38195 0
M  V30 17321 C 1721.93 3.92244 -3.61912 0
M  V30 17322 O 1722.15 4.92088 -2.88454 0
M  V30 17323 O 1721.08 3.93523 -4.55438 0
M  V30 17324 H 1724.91 1.11688 -2.82417 0
M  V30 17325 H 1722.49 0.487789 -1.41213 0
M  V30 17326 H 1724.38 3.51745 -2.32064 0
M  V30 17327 H 1723.05 2.98624 -1.24921 0
M  V30 17328 H 1721.96 1.83474 -3.26018 0
M  V30 17329 H 1723.29 2.43109 -4.2797 0
M  V30 17330 N 1724.94 1.47523 0.554506 0
M  V30 17331 C 1725.91 1.59761 1.64345 0
M  V30 17332 C 1726.91 0.472516 1.53701 0
M  V30 17333 O 1728.1 0.737659 1.57811 0
M  V30 17334 C 1725.23 1.54467 3.03896 0
M  V30 17335 H 1726.42 2.56834 1.54842 0
M  V30 17336 H 1723.97 1.35753 0.774643 0
M  V30 17337 H 1724.71 0.587789 3.18929 0
M  V30 17338 H 1724.49 2.36123 3.13031 0
M  V30 17339 H 1725.98 1.66174 3.83113 0
M  V30 17340 N 1726.42 -0.801453 1.357 0
M  V30 17341 C 1727.38 -1.89514 1.28907 0
M  V30 17342 C 1728.38 -1.59559 0.19938 0
M  V30 17343 O 1729.57 -1.68196 0.453408 0
M  V30 17344 C 1726.71 -3.26044 0.995411 0
M  V30 17345 H 1727.9 -1.96956 2.2616 0
M  V30 17346 H 1725.45 -0.997899 1.20298 0
M  V30 17347 H 1726.19 -3.24289 0.0269561 0
M  V30 17348 H 1725.97 -3.49172 1.78385 0
M  V30 17349 H 1727.46 -4.06092 0.97362 0
M  V30 17350 N 1727.9 -1.19782 -1.02421 0
M  V30 17351 C 1729.18 -0.912541 -1.73009 0
M  V30 17352 C 1729.56 0.58061 -2.02958 0
M  V30 17353 O 1728.9 1.54013 -1.68797 0
M  V30 17354 C 1729.11 -1.77745 -3.00346 0
M  V30 17355 C 1730.46 -2.01462 -3.73762 0
M  V30 17356 O 1731.49 -1.74935 -3.10284 0
M  V30 17357 O 1730.34 -2.46219 -4.87892 0
M  V30 17358 H 1727.44 -0.340513 -0.753644 0
M  V30 17359 H 1729.98 -1.30618 -1.08338 0
M  V30 17360 H 1728.76 -2.78887 -2.74477 0
M  V30 17361 H 1728.38 -1.38339 -3.72757 0
M  V30 17362 N 1729.38 1.21606 -1.00248 0
M  V30 17363 C 1730.34 2.22107 -0.565772 0
M  V30 17364 C 1731.34 1.56798 0.356521 0
M  V30 17365 O 1732.53 1.73577 0.147154 0
M  V30 17366 C 1729.66 3.40447 0.175742 0
M  V30 17367 H 1730.86 2.62258 -1.45468 0
M  V30 17368 H 1728.41 1.34823 -0.790721 0
M  V30 17369 H 1729.14 3.05781 1.0802 0
M  V30 17370 H 1728.93 3.89069 -0.486612 0
M  V30 17371 H 1730.42 4.14957 0.469122 0
M  V30 17372 N 1730.86 0.776895 1.37121 0
M  V30 17373 C 1732.09 0.354582 2.03534 0
M  V30 17374 C 1732.49 -1.02976 1.58722 0
M  V30 17375 O 1731.84 -1.66956 0.766255 0
M  V30 17376 C 1731.9 0.324836 3.58029 0
M  V30 17377 C 1731.56 1.65463 4.25994 0
M  V30 17378 C 1732.56 2.60797 4.49756 0
M  V30 17379 C 1730.24 1.93049 4.63721 0
M  V30 17380 C 1732.24 3.8192 5.1031 0
M  V30 17381 C 1729.93 3.14441 5.23995 0
M  V30 17382 C 1730.92 4.08695 5.47227 0
M  V30 17383 O 1730.61 5.27949 6.06238 0
M  V30 17384 H 1730.34 0.145861 0.660076 0
M  V30 17385 H 1732.9 1.05336 1.76334 0
M  V30 17386 H 1731.13 -0.43035 3.84298 0
M  V30 17387 H 1732.82 -0.0711053 4.05838 0
M  V30 17388 H 1733.58 2.40768 4.21017 0
M  V30 17389 H 1729.46 1.20509 4.4497 0
M  V30 17390 H 1733.01 4.55502 5.28359 0
M  V30 17391 H 1728.9 3.34352 5.52158 0
M  V30 17392 H 1729.67 5.28844 6.24713 0
M  V30 17393 N 1732.33 -1.48497 0.527859 0
M  V30 17394 C 1733.56 -2.069 -0.00302594 0
M  V30 17395 C 1733.98 -1.38469 -1.28342 0
M  V30 17396 O 1733.33 -0.471524 -1.76303 0
M  V30 17397 C 1733.38 -3.60749 -0.232871 0
M  V30 17398 O 1733.11 -4.26609 0.996797 0
M  V30 17399 C 1734.61 -4.35941 -0.804376 0
M  V30 17400 H 1731.83 -0.67021 0.0325559 0
M  V30 17401 H 1734.37 -1.90916 0.732897 0
M  V30 17402 H 1732.53 -3.76346 -0.918837 0
M  V30 17403 H 1732.94 -5.18725 0.776217 0
M  V30 17404 H 1734.41 -5.4437 -0.914635 0
M  V30 17405 H 1734.89 -4.00225 -1.80876 0
M  V30 17406 H 1735.5 -4.25017 -0.155041 0
M  V30 17407 N 1733.81 -0.262893 -1.55392 0
M  V30 17408 C 1735.06 0.357895 -1.99617 0
M  V30 17409 C 1735.39 1.56415 -1.151 0
M  V30 17410 O 1734.67 1.93273 -0.218139 0
M  V30 17411 C 1734.95 0.752095 -3.52158 0
M  V30 17412 C 1734.8 -0.460658 -4.47435 0
M  V30 17413 C 1736.12 1.59314 -4.10253 0
M  V30 17414 H 1733.24 0.128612 -0.725691 0
M  V30 17415 H 1735.88 -0.367399 -1.86414 0
M  V30 17416 H 1734.03 1.37006 -3.6354 0
M  V30 17417 H 1735.7 -1.09918 -4.48013 0
M  V30 17418 H 1733.95 -1.10093 -4.19597 0
M  V30 17419 H 1734.62 -0.141262 -5.51819 0
M  V30 17420 H 1737.09 1.07135 -4.02071 0
M  V30 17421 H 1735.97 1.83779 -5.1722 0
M  V30 17422 H 1736.23 2.57022 -3.59711 0
M  V30 17423 N 1735.29 1.57597 0.0100073 0
M  V30 17424 C 1736.54 1.90129 0.696935 0
M  V30 17425 C 1736.86 0.862514 1.7433 0
M  V30 17426 O 1736.12 -0.134054 1.9524 0
M  V30 17427 C 1736.42 3.29416 1.38635 0
M  V30 17428 C 1736.08 4.484 0.474144 0
M  V30 17429 C 1734.75 4.80683 0.222956 0
M  V30 17430 C 1737.1 5.20971 -0.154514 0
M  V30 17431 C 1734.43 5.82915 -0.665351 0
M  V30 17432 C 1736.78 6.24148 -1.03064 0
M  V30 17433 C 1735.44 6.54895 -1.2911 0
M  V30 17434 H 1734.71 0.695732 0.255027 0
M  V30 17435 H 1737.36 1.91451 -0.0433713 0
M  V30 17436 H 1735.66 3.24172 2.20045 0
M  V30 17437 H 1737.36 3.51843 1.92373 0
M  V30 17438 H 1733.95 4.2317 0.680087 0
M  V30 17439 H 1738.14 4.96293 0.0265512 0
M  V30 17440 H 1733.39 6.05103 -0.875259 0
M  V30 17441 H 1737.57 6.79516 -1.52417 0
M  V30 17442 H 1735.19 7.33931 -1.98113 0
M  V30 17443 N 1736.77 -0.282606 1.55045 0
M  V30 17444 C 1737.73 -1.33228 1.86502 0
M  V30 17445 C 1738.73 -1.42814 0.738977 0
M  V30 17446 O 1739.92 -1.42131 1.0072 0
M  V30 17447 C 1737.05 -2.71488 2.06173 0
M  V30 17448 H 1738.25 -1.06571 2.80326 0
M  V30 17449 H 1735.8 -0.520199 1.47389 0
M  V30 17450 H 1736.53 -3.03339 1.14699 0
M  V30 17451 H 1736.32 -2.65917 2.8815 0
M  V30 17452 H 1737.81 -3.47348 2.31817 0
M  V30 17453 N 1738.25 -1.47815 -0.546675 0
M  V30 17454 C 1739.66 -1.48715 -1.12875 0
M  V30 17455 C 1740.01 -0.247647 -1.94631 0
M  V30 17456 O 1739.13 0.646615 -2.06514 0
M  V30 17457 C 1739.73 -2.69459 -2.05371 0
M  V30 17458 C 1738.29 -2.73285 -2.58829 0
M  V30 17459 C 1737.43 -2.4198 -1.35429 0
M  V30 17460 H 1740.38 -1.55172 -0.332746 0
M  V30 17461 H 1740.41 -2.47028 -2.89408 0
M  V30 17462 H 1739.92 -3.59656 -1.4584 0
M  V30 17463 H 1738.02 -1.87254 -3.22128 0
M  V30 17464 H 1738.13 -3.74265 -2.99103 0
M  V30 17465 H 1736.5 -1.92783 -1.66454 0
M  V30 17466 H 1737.28 -3.34397 -0.776753 0
M  V30 17467 N 1739.72 0.794246 -1.36123 0
M  V30 17468 C 1740.67 1.92808 -1.30108 0
M  V30 17469 C 1741.67 1.68289 -0.193734 0
M  V30 17470 O 1742.87 1.76354 -0.360454 0
M  V30 17471 H 1739.25 0.633671 -0.404926 0
M  V30 17472 H 1741.22 1.95 -2.2587 0
M  V30 17473 C 1739.97 3.29762 -1.10238 0
M  V30 17474 H 1739.29 3.49193 -1.9469 0
M  V30 17475 H 1740.73 4.09463 -1.10073 0
M  V30 17476 C 1739.19 3.36345 0.193222 0
M  V30 17477 O 1739.72 3.83832 1.18474 0
M  V30 17478 N 1737.92 2.89638 0.236243 0
M  V30 17479 H 1737.47 2.51186 -0.571245 0
M  V30 17480 H 1737.43 2.94424 1.1028 0
M  V30 17481 N 1741.2 1.20323 1.01785 0
M  V30 17482 C 1742.15 0.947754 2.12416 0
M  V30 17483 C 1743.14 -0.100443 1.69102 0
M  V30 17484 O 1744.35 0.0498028 1.79931 0
M  V30 17485 H 1740.72 0.289148 0.694188 0
M  V30 17486 H 1742.7 1.88714 2.31149 0
M  V30 17487 C 1741.44 0.51503 3.43864 0
M  V30 17488 H 1740.77 1.31318 3.77618 0
M  V30 17489 H 1742.21 0.375476 4.22334 0
M  V30 17490 C 1740.67 -0.772413 3.27926 0
M  V30 17491 O 1741.2 -1.83115 3.57536 0
M  V30 17492 N 1739.4 -0.733948 2.81179 0
M  V30 17493 H 1738.95 0.127902 2.57282 0
M  V30 17494 H 1738.91 -1.59571 2.70896 0
M  V30 17495 N 1742.68 -1.21073 1.00892 0
M  V30 17496 C 1743.63 -2.25613 0.565829 0
M  V30 17497 C 1744.62 -1.64812 -0.391588 0
M  V30 17498 O 1745.83 -1.78078 -0.262352 0
M  V30 17499 H 1742.2 -0.733755 0.164643 0
M  V30 17500 H 1744.17 -2.60321 1.45862 0
M  V30 17501 C 1742.92 -3.47589 -0.087861 0
M  V30 17502 H 1742.25 -3.94647 0.639828 0
M  V30 17503 H 1743.69 -4.22459 -0.361115 0
M  V30 17504 C 1742.14 -3.09609 -1.32829 0
M  V30 17505 O 1742.67 -3.20449 -2.4223 0
M  V30 17506 N 1740.88 -2.64234 -1.2095 0
M  V30 17507 H 1740.43 -2.55613 -0.319301 0
M  V30 17508 H 1740.39 -2.39191 -2.04046 0
M  V30 17509 N 1744.16 -0.784156 -1.36707 0
M  V30 17510 C 1745.12 -0.184957 -2.28453 0
M  V30 17511 C 1746.12 0.614637 -1.4859 0
M  V30 17512 O 1747.31 0.436403 -1.68645 0
M  V30 17513 C 1744.44 0.744662 -3.32667 0
M  V30 17514 H 1745.64 -0.993861 -2.82953 0
M  V30 17515 H 1743.19 -0.553214 -1.46182 0
M  V30 17516 H 1743.92 1.57811 -2.83313 0
M  V30 17517 H 1743.71 0.173313 -3.91717 0
M  V30 17518 H 1745.2 1.15894 -4.01196 0
M  V30 17519 N 1745.64 1.48215 -0.535727 0
M  V30 17520 C 1746.89 2.017 -0.0016958 0
M  V30 17521 C 1747.2 1.41756 1.34776 0
M  V30 17522 O 1748.4 1.86774 1.97048 0
M  V30 17523 C 1746.86 3.59869 0.0473588 0
M  V30 17524 C 1746.47 4.28798 -1.29754 0
M  V30 17525 C 1748.21 4.21179 0.529915 0
M  V30 17526 C 1746.12 5.78915 -1.20876 0
M  V30 17527 H 1745.05 0.753993 0.00313606 0
M  V30 17528 H 1747.7 1.70421 -0.680368 0
M  V30 17529 H 1746.08 3.88015 0.791229 0
M  V30 17530 H 1747.26 4.12318 -2.05743 0
M  V30 17531 H 1745.57 3.79384 -1.7163 0
M  V30 17532 H 1748.17 5.31158 0.614396 0
M  V30 17533 H 1748.51 3.86887 1.53702 0
M  V30 17534 H 1749.04 3.97484 -0.158445 0
M  V30 17535 H 1745.78 6.17792 -2.1912 0
M  V30 17536 H 1745.3 5.97792 -0.490333 0
M  V30 17537 H 1746.98 6.40684 -0.901824 0
M  V30 17538 N 1747.11 0.27113 1.5525 0
M  V30 17539 C 1748.02 -0.628245 2.26031 0
M  V30 17540 C 1749.04 -1.17339 1.28481 0
M  V30 17541 O 1750.22 -1.20453 1.61409 0
M  V30 17542 C 1747.28 -1.79766 2.96454 0
M  V30 17543 C 1746.34 -1.28958 4.09473 0
M  V30 17544 C 1745.58 -2.40326 4.76528 0
M  V30 17545 O 1745.8 -3.59595 4.42772 0
M  V30 17546 O 1744.73 -2.08708 5.64557 0
M  V30 17547 H 1748.56 -0.0549756 3.0365 0
M  V30 17548 H 1746.14 0.0386859 1.4935 0
M  V30 17549 H 1748.03 -2.4796 3.40725 0
M  V30 17550 H 1746.7 -2.35809 2.21756 0
M  V30 17551 H 1745.61 -0.57422 3.69667 0
M  V30 17552 H 1746.94 -0.774945 4.86061 0
M  V30 17553 N 1748.59 -1.576 -0.00164943 0
M  V30 17554 C 1749.54 -2.09439 -1.01183 0
M  V30 17555 C 1750.53 -1.01402 -1.35698 0
M  V30 17556 O 1751.74 -1.19869 -1.34281 0
M  V30 17557 H 1748.12 -0.668732 -0.34395 0
M  V30 17558 H 1750.09 -2.93306 -0.549033 0
M  V30 17559 C 1748.84 -2.61163 -2.29542 0
M  V30 17560 H 1748.16 -3.43926 -2.0385 0
M  V30 17561 H 1749.6 -3.01115 -2.98506 0
M  V30 17562 C 1748.06 -1.52502 -3.00408 0
M  V30 17563 O 1748.59 -0.906982 -3.91327 0
M  V30 17564 N 1746.79 -1.25288 -2.62205 0
M  V30 17565 H 1746.34 -1.75731 -1.88351 0
M  V30 17566 H 1746.3 -0.528035 -3.09934 0
M  V30 17567 N 1750.07 0.274379 -1.55193 0
M  V30 17568 C 1751.3 1.02295 -1.79497 0
M  V30 17569 C 1751.71 1.80479 -0.567805 0
M  V30 17570 O 1751.05 1.77517 0.472601 0
M  V30 17571 C 1751.11 2.02986 -2.9671 0
M  V30 17572 C 1750.78 1.43753 -4.33802 0
M  V30 17573 C 1751.77 0.853898 -5.1284 0
M  V30 17574 C 1749.46 1.46514 -4.80457 0
M  V30 17575 C 1751.45 0.305773 -6.36666 0
M  V30 17576 C 1749.14 0.913158 -6.04239 0
M  V30 17577 C 1750.14 0.33447 -6.82181 0
M  V30 17578 O 1749.83 -0.209069 -8.03628 0
M  V30 17579 H 1749.56 0.307952 -0.601782 0
M  V30 17580 H 1752.11 0.310987 -2.03032 0
M  V30 17581 H 1750.34 2.77937 -2.68864 0
M  V30 17582 H 1752.03 2.6396 -3.0835 0
M  V30 17583 H 1752.8 0.825268 -4.77927 0
M  V30 17584 H 1748.68 1.90496 -4.198 0
M  V30 17585 H 1752.22 -0.146553 -6.97446 0
M  V30 17586 H 1748.12 0.939023 -6.38633 0
M  V30 17587 H 1748.89 -0.0982973 -8.18441 0
M  V30 17588 N 1751.55 1.48103 0.538828 0
M  V30 17589 C 1752.8 1.54925 1.29156 0
M  V30 17590 C 1753.11 0.224177 1.94311 0
M  V30 17591 O 1754.32 0.170559 2.70964 0
M  V30 17592 C 1752.77 2.73184 2.34304 0
M  V30 17593 C 1752.38 4.12297 1.75257 0
M  V30 17594 C 1754.12 2.89313 3.10642 0
M  V30 17595 C 1752.03 5.2183 2.78294 0
M  V30 17596 H 1750.96 0.576723 0.485702 0
M  V30 17597 H 1753.61 1.74418 0.570142 0
M  V30 17598 H 1751.99 2.47107 3.09441 0
M  V30 17599 H 1753.17 4.48355 1.06368 0
M  V30 17600 H 1751.48 4.0121 1.11442 0
M  V30 17601 H 1754.08 3.68313 3.87621 0
M  V30 17602 H 1754.42 1.98438 3.65962 0
M  V30 17603 H 1754.96 3.15248 2.42618 0
M  V30 17604 H 1751.7 6.14642 2.27805 0
M  V30 17605 H 1751.22 4.90269 3.45537 0
M  V30 17606 H 1752.89 5.49567 3.41446 0
M  V30 17607 N 1753.03 -0.787016 1.36542 0
M  V30 17608 C 1754.44 -1.08541 1.17008 0
M  V30 17609 C 1754.64 -2.015 -0.00419378 0
M  V30 17610 O 1753.7 -2.43481 -0.668826 0
M  V30 17611 C 1755.01 -1.69758 2.48199 0
M  V30 17612 C 1756.56 -1.82088 2.54584 0
M  V30 17613 C 1757.03 -2.46719 3.85868 0
M  V30 17614 N 1758.53 -2.54185 3.87227 0
M  V30 17615 C 1759.26 -3.05008 4.85549 0
M  V30 17616 N 1758.76 -3.56121 5.94264 0
M  V30 17617 N 1760.55 -3.03742 4.72966 0
M  V30 17618 H 1752.7 -0.16948 2.11723 0
M  V30 17619 H 1754.96 -0.137802 0.937931 0
M  V30 17620 H 1754.67 -1.08922 3.34408 0
M  V30 17621 H 1754.54 -2.69237 2.6418 0
M  V30 17622 H 1756.93 -2.42061 1.68792 0
M  V30 17623 H 1757.01 -0.814071 2.42501 0
M  V30 17624 H 1756.66 -1.87389 4.72068 0
M  V30 17625 H 1756.59 -3.47975 3.95248 0
M  V30 17626 H 1759.08 -2.17995 3.08685 0
M  V30 17627 H 1759.39 -3.93259 6.65257 0
M  V30 17628 H 1757.73 -3.54266 5.9793 0
M  V30 17629 H 1760.93 -2.63102 3.87163 0
M  V30 17630 H 1761.1 -3.43043 5.49751 0
M  V30 17631 N 1754.5 -1.20861 -1.01145 0
M  V30 17632 C 1755.41 -0.977926 -2.13246 0
M  V30 17633 C 1756.43 0.0678862 -1.73868 0
M  V30 17634 O 1757.61 -0.120717 -2.01038 0
M  V30 17635 C 1754.67 -0.538575 -3.42491 0
M  V30 17636 C 1753.73 -1.65584 -3.96081 0
M  V30 17637 C 1752.97 -1.23736 -5.19158 0
M  V30 17638 O 1753.19 -0.108227 -5.70297 0
M  V30 17639 O 1752.12 -2.04679 -5.6603 0
M  V30 17640 H 1755.95 -1.91666 -2.3558 0
M  V30 17641 H 1753.53 -0.992931 -1.1163 0
M  V30 17642 H 1755.42 -0.303041 -4.20309 0
M  V30 17643 H 1754.09 0.371515 -3.21561 0
M  V30 17644 H 1753 -1.94572 -3.19519 0
M  V30 17645 H 1754.33 -2.54313 -4.21409 0
M  V30 17646 N 1755.98 1.20536 -1.01532 0
M  V30 17647 C 1756.93 2.23277 -0.584486 0
M  V30 17648 C 1757.9 1.6134 0.394773 0
M  V30 17649 O 1759.08 1.88514 0.294498 0
M  V30 17650 C 1756.22 3.45024 0.0723574 0
M  V30 17651 C 1755.34 4.21395 -0.951314 0
M  V30 17652 C 1754.47 5.30535 -0.265656 0
M  V30 17653 C 1753.51 5.98649 -1.27617 0
M  V30 17654 N 1752.65 6.99381 -0.61727 0
M  V30 17655 H 1757.49 2.59489 -1.46524 0
M  V30 17656 H 1755.03 1.27507 -0.733502 0
M  V30 17657 H 1756.98 4.14541 0.470303 0
M  V30 17658 H 1755.61 3.09508 0.916768 0
M  V30 17659 H 1754.67 3.50957 -1.46743 0
M  V30 17660 H 1755.98 4.68211 -1.71989 0
M  V30 17661 H 1755.13 6.06409 0.187857 0
M  V30 17662 H 1753.87 4.84754 0.535237 0
M  V30 17663 H 1752.88 5.21537 -1.74008 0
M  V30 17664 H 1754.1 6.46516 -2.07832 0
M  V30 17665 H 1752.05 6.55796 0.163777 0
M  V30 17666 H 1751.96 7.44317 -1.32393 0
M  V30 17667 H 1753.23 7.79275 -0.187306 0
M  V30 17668 N 1757.46 0.791395 1.36289 0
M  V30 17669 C 1758.41 0.189246 2.30023 0
M  V30 17670 C 1759.38 -0.668045 1.52074 0
M  V30 17671 O 1760.56 -0.61631 1.80572 0
M  V30 17672 C 1757.7 -0.668391 3.38565 0
M  V30 17673 C 1756.82 0.207659 4.31501 0
M  V30 17674 C 1755.95 -0.656539 5.27127 0
M  V30 17675 C 1754.99 0.220845 6.11701 0
M  V30 17676 N 1754.13 -0.602449 6.99511 0
M  V30 17677 H 1758.97 0.994038 2.80932 0
M  V30 17678 H 1756.5 0.501759 1.38278 0
M  V30 17679 H 1758.46 -1.18064 4.00146 0
M  V30 17680 H 1757.09 -1.43859 2.88971 0
M  V30 17681 H 1756.14 0.837894 3.71057 0
M  V30 17682 H 1757.46 0.883613 4.90911 0
M  V30 17683 H 1756.61 -1.23452 5.94007 0
M  V30 17684 H 1755.35 -1.36611 4.68176 0
M  V30 17685 H 1754.35 0.811214 5.43782 0
M  V30 17686 H 1755.58 0.928049 6.72729 0
M  V30 17687 H 1753.52 -1.29628 6.43065 0
M  V30 17688 H 1753.44 0.015783 7.55998 0
M  V30 17689 H 1754.71 -1.16419 7.70757 0
M  V30 17690 N 1758.94 -1.47929 0.54358 0
M  V30 17691 C 1760.19 -2.02795 0.014488 0
M  V30 17692 C 1760.52 -1.41848 -1.32638 0
M  V30 17693 O 1759.79 -0.569099 -1.85988 0
M  V30 17694 C 1760.08 -3.5998 -0.093097 0
M  V30 17695 C 1759.93 -4.31384 1.2739 0
M  V30 17696 C 1761.25 -4.32521 -0.813251 0
M  V30 17697 H 1758.37 -0.736969 0.00673905 0
M  V30 17698 H 1761.01 -1.76507 0.703238 0
M  V30 17699 H 1759.16 -3.82508 -0.679685 0
M  V30 17700 H 1760.83 -4.20235 1.90264 0
M  V30 17701 H 1759.07 -3.9227 1.85221 0
M  V30 17702 H 1759.75 -5.39856 1.15148 0
M  V30 17703 H 1762.22 -4.14903 -0.315334 0
M  V30 17704 H 1761.1 -5.42161 -0.857456 0
M  V30 17705 H 1761.36 -4.00768 -1.86649 0
M  V30 17706 N 1760.42 -0.27936 -1.55104 0
M  V30 17707 C 1761.35 0.599831 -2.25664 0
M  V30 17708 C 1762.33 1.15548 -1.24831 0
M  V30 17709 O 1763.51 1.18883 -1.53559 0
M  V30 17710 C 1760.64 1.78202 -2.98096 0
M  V30 17711 C 1759.6 1.35771 -4.05894 0
M  V30 17712 C 1758.92 2.62334 -4.65924 0
M  V30 17713 C 1760.22 0.504795 -5.19855 0
M  V30 17714 H 1761.92 0.0113761 -2.99398 0
M  V30 17715 H 1759.46 0.00403149 -1.43999 0
M  V30 17716 H 1761.42 2.403 -3.4617 0
M  V30 17717 H 1760.14 2.39637 -2.21905 0
M  V30 17718 H 1758.8 0.75991 -3.58638 0
M  V30 17719 H 1758.45 3.22036 -3.86396 0
M  V30 17720 H 1758.15 2.34654 -5.38713 0
M  V30 17721 H 1759.67 3.25273 -5.16749 0
M  V30 17722 H 1761.09 1.03089 -5.63955 0
M  V30 17723 H 1759.48 0.322696 -5.99232 0
M  V30 17724 H 1760.55 -0.475409 -4.82564 0
M  V30 17725 N 1761.9 1.57599 -0.0067085 0
M  V30 17726 C 1763.12 1.95545 0.69115 0
M  V30 17727 C 1763.55 0.882014 1.66139 0
M  V30 17728 O 1762.9 -0.159242 1.80599 0
M  V30 17729 C 1762.95 3.3259 1.39342 0
M  V30 17730 O 1762.06 3.27368 2.50806 0
M  V30 17731 H 1761.4 0.638188 0.183336 0
M  V30 17732 H 1763.93 2.04506 -0.0618957 0
M  V30 17733 H 1763.94 3.6831 1.75532 0
M  V30 17734 H 1762.61 4.10269 0.682072 0
M  V30 17735 H 1761.19 3.03334 2.16894 0
M  V30 17736 N 1763.37 -0.266145 1.55336 0
M  V30 17737 C 1764.3 -1.33322 1.91697 0
M  V30 17738 C 1765.28 -1.51182 0.77961 0
M  V30 17739 O 1766.47 -1.64112 1.03832 0
M  V30 17740 C 1763.6 -2.69151 2.19488 0
M  V30 17741 C 1762.55 -2.66012 3.35293 0
M  V30 17742 C 1761.88 -4.05458 3.4858 0
M  V30 17743 C 1763.18 -2.24681 4.71504 0
M  V30 17744 H 1764.87 -1.03138 2.81075 0
M  V30 17745 H 1762.42 -0.494702 1.35236 0
M  V30 17746 H 1764.37 -3.43918 2.43512 0
M  V30 17747 H 1763.1 -3.00932 1.26916 0
M  V30 17748 H 1761.76 -1.93703 3.11247 0
M  V30 17749 H 1761.4 -4.34472 2.53462 0
M  V30 17750 H 1761.1 -4.04251 4.26445 0
M  V30 17751 H 1762.63 -4.81954 3.74904 0
M  V30 17752 H 1764.04 -2.89173 4.95027 0
M  V30 17753 H 1762.44 -2.34622 5.52334 0
M  V30 17754 H 1763.51 -1.19819 4.69863 0
M  V30 17755 N 1764.85 -1.48386 -0.530967 0
M  V30 17756 C 1765.76 -1.65516 -1.66257 0
M  V30 17757 C 1766.78 -0.5377 -1.65483 0
M  V30 17758 O 1767.95 -0.808642 -1.84453 0
M  V30 17759 C 1765.02 -1.68999 -3.02722 0
M  V30 17760 C 1764.08 -2.92365 -3.14358 0
M  V30 17761 C 1763.31 -2.95672 -4.44313 0
M  V30 17762 O 1763.54 -2.07417 -5.31352 0
M  V30 17763 O 1762.47 -3.87831 -4.60294 0
M  V30 17764 H 1766.3 -2.61321 -1.54742 0
M  V30 17765 H 1763.88 -1.31776 -0.703946 0
M  V30 17766 H 1765.76 -1.73816 -3.83883 0
M  V30 17767 H 1764.44 -0.763675 -3.14563 0
M  V30 17768 H 1763.34 -2.93081 -2.32496 0
M  V30 17769 H 1764.68 -3.84378 -3.07433 0
M  V30 17770 N 1766.33 0.779763 -1.36958 0
M  V30 17771 C 1767.24 1.92394 -1.34245 0
M  V30 17772 C 1768.26 1.72292 -0.243187 0
M  V30 17773 O 1769.43 1.95665 -0.477211 0
M  V30 17774 C 1766.5 3.27402 -1.14057 0
M  V30 17775 C 1765.56 3.60213 -2.33548 0
M  V30 17776 C 1764.79 4.88779 -2.14314 0
M  V30 17777 O 1765.01 5.59231 -1.12327 0
M  V30 17778 O 1763.95 5.20469 -3.02316 0
M  V30 17779 H 1767.77 1.97633 -2.30596 0
M  V30 17780 H 1765.36 0.921386 -1.17605 0
M  V30 17781 H 1767.24 4.08172 -1.04755 0
M  V30 17782 H 1765.92 3.23033 -0.207744 0
M  V30 17783 H 1764.82 2.7971 -2.48421 0
M  V30 17784 H 1766.16 3.69317 -3.25371 0
M  V30 17785 N 1767.81 1.21396 1.00503 0
M  V30 17786 C 1769.08 0.93995 1.71535 0
M  V30 17787 C 1769.46 -0.548247 2.03856 0
M  V30 17788 O 1768.81 -1.51308 1.71226 0
M  V30 17789 C 1769.02 1.82501 2.9748 0
M  V30 17790 C 1770.37 2.07383 3.7051 0
M  V30 17791 O 1771.39 1.79849 3.07462 0
M  V30 17792 O 1770.25 2.5395 4.83913 0
M  V30 17793 H 1767.35 0.35246 0.748132 0
M  V30 17794 H 1769.89 1.32325 1.06246 0
M  V30 17795 H 1768.67 2.83219 2.70005 0
M  V30 17796 H 1768.29 1.44252 3.70509 0
M  V30 17797 N 1769.29 -1.19996 1.0217 0
M  V30 17798 C 1770.53 -1.89776 0.715047 0
M  V30 17799 C 1770.86 -1.78971 -0.753862 0
M  V30 17800 O 1770.14 -1.17729 -1.54823 0
M  V30 17801 C 1770.42 -3.4098 1.15779 0
M  V30 17802 C 1770.28 -3.60693 2.68739 0
M  V30 17803 C 1771.59 -4.33953 0.733008 0
M  V30 17804 H 1768.71 -0.689148 0.261236 0
M  V30 17805 H 1771.36 -1.41287 1.27035 0
M  V30 17806 H 1769.51 -3.82407 0.68534 0
M  V30 17807 H 1771.18 -3.28484 3.23876 0
M  V30 17808 H 1769.42 -3.0399 3.09472 0
M  V30 17809 H 1770.09 -4.66704 2.94773 0
M  V30 17810 H 1772.57 -4.002 1.13925 0
M  V30 17811 H 1771.44 -5.38355 1.07077 0
M  V30 17812 H 1771.7 -4.4059 -0.365047 0
M  V30 17813 N 1770.76 -0.798611 -1.35867 0
M  V30 17814 C 1771.69 -0.217751 -2.32482 0
M  V30 17815 C 1772.67 0.652374 -1.57093 0
M  V30 17816 O 1773.86 0.584297 -1.85202 0
M  V30 17817 C 1770.99 0.640925 -3.41335 0
M  V30 17818 C 1769.94 -0.130053 -4.27802 0
M  V30 17819 C 1769.27 0.849811 -5.27904 0
M  V30 17820 C 1770.57 -1.32451 -5.05227 0
M  V30 17821 H 1772.26 -1.02492 -2.81311 0
M  V30 17822 H 1769.81 -0.494302 -1.3525 0
M  V30 17823 H 1771.76 1.05729 -4.07921 0
M  V30 17824 H 1770.49 1.4809 -2.91096 0
M  V30 17825 H 1769.15 -0.5275 -3.62785 0
M  V30 17826 H 1768.79 1.68507 -4.73935 0
M  V30 17827 H 1768.49 0.338323 -5.86625 0
M  V30 17828 H 1770.02 1.26455 -5.97362 0
M  V30 17829 H 1771.43 -0.983429 -5.64802 0
M  V30 17830 H 1769.83 -1.76992 -5.73405 0
M  V30 17831 H 1770.9 -2.11522 -4.36333 0
M  V30 17832 N 1772.24 1.47639 -0.551417 0
M  V30 17833 C 1773.66 1.58202 -0.210768 0
M  V30 17834 C 1773.86 1.55078 1.28659 0
M  V30 17835 O 1772.91 1.45113 2.06636 0
M  V30 17836 C 1774.23 2.88952 -0.832294 0
M  V30 17837 C 1775.77 3.02524 -0.80299 0
M  V30 17838 C 1776.25 4.35966 -1.40348 0
M  V30 17839 N 1777.74 4.42587 -1.3664 0
M  V30 17840 C 1778.48 5.44391 -1.80072 0
M  V30 17841 N 1777.97 6.53037 -2.31332 0
M  V30 17842 N 1779.76 5.35401 -1.71178 0
M  V30 17843 H 1771.92 1.47912 -1.52433 0
M  V30 17844 H 1774.18 0.703607 -0.635328 0
M  V30 17845 H 1773.88 2.96958 -1.88439 0
M  V30 17846 H 1773.76 3.75824 -0.321915 0
M  V30 17847 H 1776.15 2.94119 0.240395 0
M  V30 17848 H 1776.23 2.17209 -1.35107 0
M  V30 17849 H 1775.87 4.45127 -2.4459 0
M  V30 17850 H 1775.8 5.20004 -0.830897 0
M  V30 17851 H 1778.29 3.64664 -0.991386 0
M  V30 17852 H 1778.6 7.26884 -2.62411 0
M  V30 17853 H 1776.95 6.53942 -2.35339 0
M  V30 17854 H 1780.14 4.49421 -1.30912 0
M  V30 17855 H 1780.31 6.14604 -2.05344 0
M  V30 17856 N 1773.72 0.287581 1.54954 0
M  V30 17857 C 1774.95 -0.328124 2.03978 0
M  V30 17858 C 1775.36 -1.49083 1.16494 0
M  V30 17859 O 1774.7 -1.82813 0.180286 0
M  V30 17860 C 1774.76 -0.859765 3.49068 0
M  V30 17861 C 1774.43 0.175918 4.56661 0
M  V30 17862 C 1775.42 0.999759 5.10197 0
M  V30 17863 C 1773.11 0.313751 5.01319 0
M  V30 17864 C 1775.1 1.9475 6.06919 0
M  V30 17865 C 1772.79 1.26495 5.97865 0
M  V30 17866 C 1773.79 2.08032 6.50547 0
M  V30 17867 O 1773.48 3.01542 7.45203 0
M  V30 17868 H 1773.21 -0.0772306 0.671574 0
M  V30 17869 H 1775.76 0.42115 2.01036 0
M  V30 17870 H 1773.99 -1.65933 3.49289 0
M  V30 17871 H 1775.68 -1.3899 3.81361 0
M  V30 17872 H 1776.45 0.904073 4.76499 0
M  V30 17873 H 1772.33 -0.310922 4.5995 0
M  V30 17874 H 1775.87 2.58433 6.47965 0
M  V30 17875 H 1771.77 1.36141 6.3098 0
M  V30 17876 H 1772.54 2.96367 7.62961 0
M  V30 17877 N 1775.2 -1.57593 0.0150662 0
M  V30 17878 C 1776.15 -2.0585 -0.980291 0
M  V30 17879 C 1777.13 -0.956179 -1.29406 0
M  V30 17880 O 1778.32 -1.21985 -1.28253 0
M  V30 17881 C 1775.45 -2.57769 -2.26738 0
M  V30 17882 C 1774.54 -3.74906 -1.98259 0
M  V30 17883 N 1774.93 -4.8604 -1.39995 0
M  V30 17884 C 1773.23 -3.83124 -2.28325 0
M  V30 17885 C 1773.93 -5.67368 -1.28329 0
M  V30 17886 N 1772.91 -5.13837 -1.77404 0
M  V30 17887 H 1776.71 -2.89181 -0.524549 0
M  V30 17888 H 1774.22 -1.61281 -0.190285 0
M  V30 17889 H 1776.22 -2.90624 -2.98903 0
M  V30 17890 H 1774.88 -1.75862 -2.72952 0
M  V30 17891 H 1775.89 -5.06583 -1.07678 0
M  V30 17892 H 1772.57 -3.12099 -2.77309 0
M  V30 17893 H 1773.96 -6.66704 -0.833956 0
M  V30 17894 N 1776.68 0.257904 -1.55475 0
M  V30 17895 C 1777.92 0.988933 -1.77054 0
M  V30 17896 C 1778.26 1.85387 -0.578375 0
M  V30 17897 O 1777.53 1.8983 0.423673 0
M  V30 17898 C 1777.81 1.85876 -3.08419 0
M  V30 17899 C 1777.67 1.02274 -4.38018 0
M  V30 17900 C 1778.99 2.84322 -3.3593 0
M  V30 17901 H 1776.1 0.358103 -0.644152 0
M  V30 17902 H 1778.75 0.260209 -1.8821 0
M  V30 17903 H 1776.9 2.48008 -2.99039 0
M  V30 17904 H 1778.57 0.420967 -4.59375 0
M  V30 17905 H 1776.81 0.326705 -4.32568 0
M  V30 17906 H 1777.48 1.6649 -5.26294 0
M  V30 17907 H 1779.96 2.32325 -3.45202 0
M  V30 17908 H 1778.83 3.42313 -4.29084 0
M  V30 17909 H 1779.1 3.60223 -2.56304 0
M  V30 17910 N 1778.15 1.48666 0.52309 0
M  V30 17911 C 1779.4 1.57267 1.28043 0
M  V30 17912 C 1779.73 0.248801 1.926 0
M  V30 17913 O 1779.01 -0.745814 1.79633 0
M  V30 17914 C 1779.29 2.71595 2.36449 0
M  V30 17915 C 1779.14 4.13708 1.76538 0
M  V30 17916 C 1780.46 2.81654 3.3817 0
M  V30 17917 H 1777.58 0.572455 0.464181 0
M  V30 17918 H 1780.22 1.80866 0.582013 0
M  V30 17919 H 1778.37 2.51604 2.9602 0
M  V30 17920 H 1780.05 4.45158 1.20964 0
M  V30 17921 H 1778.29 4.20386 1.07041 0
M  V30 17922 H 1778.96 4.89538 2.55062 0
M  V30 17923 H 1781.44 2.99784 2.88563 0
M  V30 17924 H 1780.31 3.63366 4.11408 0
M  V30 17925 H 1780.57 1.90093 3.99145 0
M  V30 17926 N 1779.63 -0.772489 1.37369 0
M  V30 17927 C 1780.56 -1.89969 1.35772 0
M  V30 17928 C 1781.54 -1.68586 0.226452 0
M  V30 17929 O 1782.73 -1.89454 0.426692 0
M  V30 17930 C 1779.86 -3.27242 1.16319 0
M  V30 17931 C 1778.81 -3.63187 2.2645 0
M  V30 17932 C 1778.14 -4.98992 1.92121 0
M  V30 17933 C 1779.44 -3.70013 3.6863 0
M  V30 17934 H 1781.13 -1.91564 2.30095 0
M  V30 17935 H 1778.68 -0.920241 1.10759 0
M  V30 17936 H 1780.63 -4.05734 1.13832 0
M  V30 17937 H 1779.36 -3.26078 0.184513 0
M  V30 17938 H 1778.01 -2.87001 2.28091 0
M  V30 17939 H 1777.66 -4.94368 0.927848 0
M  V30 17940 H 1777.36 -5.24012 2.65867 0
M  V30 17941 H 1778.89 -5.79886 1.91219 0
M  V30 17942 H 1780.3 -4.38659 3.69122 0
M  V30 17943 H 1778.7 -4.06529 4.41423 0
M  V30 17944 H 1779.77 -2.70694 4.02309 0
M  V30 17945 N 1781.11 -1.21927 -0.998575 0
M  V30 17946 C 1782.02 -1.00049 -2.12197 0
M  V30 17947 C 1783.04 0.0494414 -1.7393 0
M  V30 17948 O 1784.21 -0.142033 -2.00899 0
M  V30 17949 C 1781.28 -0.574871 -3.41901 0
M  V30 17950 C 1780.34 -1.69776 -3.94303 0
M  V30 17951 C 1779.57 -1.29236 -5.17816 0
M  V30 17952 O 1779.79 -0.168709 -5.7015 0
M  V30 17953 O 1778.73 -2.10671 -5.63827 0
M  V30 17954 H 1782.55 -1.94154 -2.33534 0
M  V30 17955 H 1780.14 -1.00472 -1.10571 0
M  V30 17956 H 1782.02 -0.347603 -4.19964 0
M  V30 17957 H 1780.7 0.337389 -3.21937 0
M  V30 17958 H 1779.6 -1.9795 -3.17438 0
M  V30 17959 H 1780.94 -2.58768 -4.18688 0
M  V30 17960 N 1782.59 1.19452 -1.02805 0
M  V30 17961 C 1783.5 2.2631 -0.618147 0
M  V30 17962 C 1784.51 1.70449 0.349712 0
M  V30 17963 O 1785.69 2.00325 0.207801 0
M  V30 17964 C 1782.76 3.46691 0.0255242 0
M  V30 17965 C 1781.82 4.17735 -0.98973 0
M  V30 17966 C 1781.05 5.32369 -0.376681 0
M  V30 17967 O 1781.27 5.64467 0.820584 0
M  V30 17968 O 1780.21 5.9178 -1.09911 0
M  V30 17969 H 1784.03 2.63611 -1.50807 0
M  V30 17970 H 1781.62 1.2629 -0.798192 0
M  V30 17971 H 1783.5 4.19643 0.384464 0
M  V30 17972 H 1782.17 3.1124 0.889467 0
M  V30 17973 H 1781.08 3.46906 -1.40024 0
M  V30 17974 H 1782.41 4.57155 -1.82402 0
M  V30 17975 N 1784.07 0.805805 1.35442 0
M  V30 17976 C 1785.01 0.213632 2.29809 0
M  V30 17977 C 1785.98 -0.651878 1.52774 0
M  V30 17978 O 1787.17 -0.597124 1.81216 0
M  V30 17979 C 1784.31 -0.632444 3.39255 0
M  V30 17980 C 1783.42 0.253414 4.31256 0
M  V30 17981 C 1782.56 -0.600593 5.27794 0
M  V30 17982 C 1781.6 0.285712 6.11433 0
M  V30 17983 N 1780.73 -0.528222 7.0011 0
M  V30 17984 H 1785.57 1.02378 2.79862 0
M  V30 17985 H 1783.11 0.516397 1.37738 0
M  V30 17986 H 1785.07 -1.13814 4.01376 0
M  V30 17987 H 1783.7 -1.40786 2.90481 0
M  V30 17988 H 1782.75 0.877202 3.70148 0
M  V30 17989 H 1784.06 0.935631 4.89946 0
M  V30 17990 H 1783.22 -1.17145 5.95283 0
M  V30 17991 H 1781.95 -1.31638 4.69598 0
M  V30 17992 H 1780.96 0.868843 5.42891 0
M  V30 17993 H 1782.18 0.999349 6.71707 0
M  V30 17994 H 1780.13 -1.228 6.44404 0
M  V30 17995 H 1780.05 0.0959658 7.55939 0
M  V30 17996 H 1781.32 -1.08238 7.71949 0
M  V30 17997 N 1785.54 -1.47344 0.559239 0
M  V30 17998 C 1786.47 -2.32839 -0.175542 0
M  V30 17999 C 1787.46 -1.43914 -0.906787 0
M  V30 18000 O 1788.64 -1.72767 -0.886855 0
M  V30 18001 C 1785.77 -3.25735 -1.20474 0
M  V30 18002 C 1784.72 -4.23916 -0.589825 0
M  V30 18003 C 1784.05 -5.06151 -1.7238 0
M  V30 18004 C 1785.35 -5.2029 0.457733 0
M  V30 18005 H 1787.04 -2.94522 0.538225 0
M  V30 18006 H 1784.59 -1.41628 0.260282 0
M  V30 18007 H 1786.54 -3.84388 -1.72695 0
M  V30 18008 H 1785.27 -2.62111 -1.94847 0
M  V30 18009 H 1783.93 -3.66492 -0.0888897 0
M  V30 18010 H 1783.57 -4.38929 -2.45663 0
M  V30 18011 H 1783.27 -5.72625 -1.31813 0
M  V30 18012 H 1784.8 -5.67663 -2.24923 0
M  V30 18013 H 1786.21 -5.73296 0.0215019 0
M  V30 18014 H 1784.61 -5.94978 0.7824 0
M  V30 18015 H 1785.68 -4.65645 1.35286 0
M  V30 18016 N 1787.02 -0.295795 -1.54799 0
M  V30 18017 C 1787.95 0.575863 -2.26288 0
M  V30 18018 C 1788.93 1.14217 -1.26049 0
M  V30 18019 O 1790.12 1.17248 -1.54812 0
M  V30 18020 C 1787.25 1.7503 -2.9997 0
M  V30 18021 C 1786.2 1.31459 -4.07311 0
M  V30 18022 C 1785.53 2.57377 -4.6868 0
M  V30 18023 C 1786.83 0.449629 -5.20361 0
M  V30 18024 H 1788.52 -0.0203797 -2.99393 0
M  V30 18025 H 1786.07 -0.0112418 -1.43996 0
M  V30 18026 H 1788.02 2.36615 -3.487 0
M  V30 18027 H 1786.75 2.3727 -2.24434 0
M  V30 18028 H 1785.4 0.721829 -3.59423 0
M  V30 18029 H 1785.05 3.1792 -3.89789 0
M  V30 18030 H 1784.75 2.28927 -5.41171 0
M  V30 18031 H 1786.28 3.19774 -5.2017 0
M  V30 18032 H 1787.69 0.971014 -5.65017 0
M  V30 18033 H 1786.09 0.259121 -5.9954 0
M  V30 18034 H 1787.16 -0.526564 -4.82032 0
M  V30 18035 N 1788.5 1.57583 -0.0234236 0
M  V30 18036 C 1789.45 2.09872 0.960327 0
M  V30 18037 C 1790.42 0.999466 1.32665 0
M  V30 18038 O 1791.6 1.27332 1.42095 0
M  V30 18039 C 1788.74 2.62578 2.23935 0
M  V30 18040 C 1787.86 3.86491 1.92999 0
M  V30 18041 C 1786.99 4.27611 3.15154 0
M  V30 18042 C 1786.03 5.44298 2.80011 0
M  V30 18043 N 1785.17 5.80601 3.94775 0
M  V30 18044 H 1790.01 2.93647 0.507502 0
M  V30 18045 H 1787.54 1.45147 0.238911 0
M  V30 18046 H 1789.5 2.91223 2.98739 0
M  V30 18047 H 1788.13 1.81643 2.66844 0
M  V30 18048 H 1787.18 3.6461 1.08462 0
M  V30 18049 H 1788.5 4.71377 1.63112 0
M  V30 18050 H 1787.65 4.57663 3.98284 0
M  V30 18051 H 1786.39 3.41481 3.48198 0
M  V30 18052 H 1785.39 5.13946 1.95293 0
M  V30 18053 H 1786.62 6.32122 2.4819 0
M  V30 18054 H 1784.57 4.97427 4.27671 0
M  V30 18055 H 1784.48 6.60113 3.68492 0
M  V30 18056 H 1785.75 6.15255 4.78624 0
M  V30 18057 N 1789.98 -0.249655 1.5561 0
M  V30 18058 C 1790.93 -1.32883 1.90906 0
M  V30 18059 C 1791.92 -1.49965 0.787832 0
M  V30 18060 O 1793.13 -1.51473 0.972422 0
M  V30 18061 H 1789.5 -0.444907 0.606269 0
M  V30 18062 H 1791.47 -1.00379 2.8101 0
M  V30 18063 C 1790.22 -2.67782 2.21784 0
M  V30 18064 H 1789.55 -2.55436 3.07559 0
M  V30 18065 H 1790.99 -3.42175 2.50385 0
M  V30 18066 C 1789.44 -3.20664 1.03325 0
M  V30 18067 O 1789.97 -4.00724 0.279822 0
M  V30 18068 N 1788.18 -2.78655 0.824614 0
M  V30 18069 H 1787.73 -2.1366 1.43899 0
M  V30 18070 H 1787.69 -3.14382 0.03369 0
M  V30 18071 N 1791.46 -1.48941 -0.515198 0
M  V30 18072 C 1792.73 -1.48205 -1.27651 0
M  V30 18073 C 1793.11 -0.201866 -2.10133 0
M  V30 18074 O 1792.46 0.816115 -2.13429 0
M  V30 18075 C 1792.67 -2.75274 -2.14535 0
M  V30 18076 C 1794.02 -3.24198 -2.74192 0
M  V30 18077 O 1795.04 -2.76293 -2.24813 0
M  V30 18078 O 1793.9 -4.07593 -3.64047 0
M  V30 18079 H 1791 -0.592546 -0.576904 0
M  V30 18080 H 1793.54 -1.6119 -0.530636 0
M  V30 18081 H 1792.32 -3.59949 -1.53469 0
M  V30 18082 H 1791.94 -2.6508 -2.96342 0
M  V30 18083 N 1792.94 0.765193 -1.37777 0
M  V30 18084 C 1793.87 1.89247 -1.36777 0
M  V30 18085 C 1794.85 1.68463 -0.235389 0
M  V30 18086 O 1796.03 1.89225 -0.436733 0
M  V30 18087 C 1793.16 3.2662 -1.18053 0
M  V30 18088 C 1792.12 3.61981 -2.28372 0
M  V30 18089 C 1791.44 4.97967 -1.94765 0
M  V30 18090 C 1792.74 3.68053 -3.70587 0
M  V30 18091 H 1794.44 1.90341 -2.31108 0
M  V30 18092 H 1791.98 0.914355 -1.11245 0
M  V30 18093 H 1793.93 4.05125 -1.15982 0
M  V30 18094 H 1792.66 3.25976 -0.201803 0
M  V30 18095 H 1791.32 2.85788 -2.2961 0
M  V30 18096 H 1790.97 4.93869 -0.954052 0
M  V30 18097 H 1790.67 5.22594 -2.68642 0
M  V30 18098 H 1792.19 5.78864 -1.94292 0
M  V30 18099 H 1793.6 4.36696 -3.71443 0
M  V30 18100 H 1792 4.04183 -4.43572 0
M  V30 18101 H 1793.07 2.68556 -4.03739 0
M  V30 18102 N 1794.41 1.22455 0.992094 0
M  V30 18103 C 1795.36 0.962645 2.06681 0
M  V30 18104 C 1796.35 -0.0870288 1.60664 0
M  V30 18105 O 1797.54 0.123596 1.76568 0
M  V30 18106 C 1794.67 0.54316 3.38976 0
M  V30 18107 C 1793.75 1.62761 3.91625 0
M  V30 18108 N 1794.15 2.85548 4.17488 0
M  V30 18109 C 1792.44 1.49948 4.20038 0
M  V30 18110 C 1793.14 3.55677 4.60292 0
M  V30 18111 N 1792.12 2.83152 4.64032 0
M  V30 18112 H 1795.92 1.89534 2.24619 0
M  V30 18113 H 1793.44 1.1222 1.1739 0
M  V30 18114 H 1795.43 0.336841 4.15537 0
M  V30 18115 H 1794.09 -0.382629 3.22438 0
M  V30 18116 H 1795.1 3.21968 4.05657 0
M  V30 18117 H 1791.78 0.639937 4.12566 0
M  V30 18118 H 1793.17 4.60878 4.88918 0
M  V30 18119 N 1795.89 -1.18905 1.03437 0
M  V30 18120 C 1796.84 -2.24362 0.613557 0
M  V30 18121 C 1797.83 -1.65605 -0.356541 0
M  V30 18122 O 1799.04 -1.78594 -0.22452 0
M  V30 18123 H 1795.41 -0.730098 0.18017 0
M  V30 18124 H 1797.39 -2.57168 1.51351 0
M  V30 18125 C 1796.13 -3.47697 -0.0141125 0
M  V30 18126 H 1795.46 -3.93201 0.723394 0
M  V30 18127 H 1796.9 -4.2313 -0.271424 0
M  V30 18128 C 1795.36 -3.12357 -1.26232 0
M  V30 18129 O 1795.89 -3.25515 -2.35378 0
M  V30 18130 N 1794.09 -2.6674 -1.15318 0
M  V30 18131 H 1793.64 -2.56233 -0.26501 0
M  V30 18132 H 1793.6 -2.43466 -1.98927 0
M  V30 18133 N 1797.37 -0.812977 -1.35013 0
M  V30 18134 C 1798.62 -0.395562 -1.98191 0
M  V30 18135 C 1798.94 1.04242 -1.64799 0
M  V30 18136 O 1798.21 1.72219 -0.933678 0
M  V30 18137 H 1796.79 -0.143276 -0.733131 0
M  V30 18138 H 1799.45 -1.04023 -1.64819 0
M  V30 18139 H 1798.55 -0.506466 -3.07963 0
M  V30 18140 N 1798.85 1.47045 -0.567045 0
M  V30 18141 C 1799.78 2.27106 0.223156 0
M  V30 18142 C 1800.76 1.34662 0.911315 0
M  V30 18143 O 1801.94 1.64055 0.92834 0
M  V30 18144 C 1799.07 3.1197 1.31879 0
M  V30 18145 C 1798.12 4.20064 0.738145 0
M  V30 18146 S 1798.95 5.33828 -0.422892 0
M  V30 18147 C 1800.1 6.22257 0.674324 0
M  V30 18148 H 1800.34 2.93779 -0.456193 0
M  V30 18149 H 1797.87 1.50297 -0.353581 0
M  V30 18150 H 1799.83 3.61432 1.9462 0
M  V30 18151 H 1798.49 2.44641 1.97002 0
M  V30 18152 H 1797.68 4.7921 1.56122 0
M  V30 18153 H 1797.28 3.73534 0.186721 0
M  V30 18154 H 1799.58 6.59201 1.56398 0
M  V30 18155 H 1800.52 7.07998 0.11999 0
M  V30 18156 H 1800.93 5.56079 0.971422 0
M  V30 18157 N 1800.33 0.304 1.5464 0
M  V30 18158 C 1801.28 -0.585901 2.20343 0
M  V30 18159 C 1802.26 -1.09663 1.17741 0
M  V30 18160 O 1803.45 -1.0369 1.43448 0
M  V30 18161 C 1800.58 -1.75586 2.94999 0
M  V30 18162 C 1799.67 -1.26096 4.04921 0
M  V30 18163 N 1800.06 -0.484268 5.03476 0
M  V30 18164 C 1798.36 -1.54143 4.18517 0
M  V30 18165 C 1799.06 -0.220353 5.81282 0
M  V30 18166 N 1798.03 -0.801002 5.37666 0
M  V30 18167 H 1801.83 0.0150187 2.93896 0
M  V30 18168 H 1799.35 0.108905 1.62034 0
M  V30 18169 H 1801.35 -2.40496 3.40539 0
M  V30 18170 H 1800.01 -2.36045 2.22964 0
M  V30 18171 H 1801.02 -0.128891 5.1774 0
M  V30 18172 H 1797.69 -2.15328 3.57687 0
M  V30 18173 H 1799.08 0.403637 6.70687 0
M  V30 18174 N 1801.8 -1.57568 0.0317802 0
M  V30 18175 C 1803.22 -1.56264 -0.324633 0
M  V30 18176 C 1803.42 -1.03765 -1.72728 0
M  V30 18177 O 1802.48 -0.685566 -2.43015 0
M  V30 18178 C 1803.79 -3.00214 -0.170806 0
M  V30 18179 C 1805.34 -3.12052 -0.243373 0
M  V30 18180 C 1805.81 -4.57847 -0.118304 0
M  V30 18181 N 1807.3 -4.62869 -0.175203 0
M  V30 18182 C 1808.04 -5.73309 -0.102252 0
M  V30 18183 N 1807.53 -6.92797 0.0219373 0
M  V30 18184 N 1809.33 -5.61882 -0.156432 0
M  V30 18185 H 1801.48 -1.90022 0.948968 0
M  V30 18186 H 1803.74 -0.874208 0.366693 0
M  V30 18187 H 1803.45 -3.42585 0.795517 0
M  V30 18188 H 1803.32 -3.65302 -0.939907 0
M  V30 18189 H 1805.71 -2.69593 -1.20016 0
M  V30 18190 H 1805.79 -2.49681 0.55615 0
M  V30 18191 H 1805.43 -5.00988 0.835072 0
M  V30 18192 H 1805.36 -5.18202 -0.936726 0
M  V30 18193 H 1807.85 -3.76925 -0.271225 0
M  V30 18194 H 1808.17 -7.72768 0.0708376 0
M  V30 18195 H 1806.51 -6.94977 0.0567564 0
M  V30 18196 H 1809.7 -4.67422 -0.251873 0
M  V30 18197 H 1809.88 -6.47929 -0.0961177 0
M  V30 18198 N 1803.28 0.241399 -1.5574 0
M  V30 18199 C 1804.19 1.32034 -1.93918 0
M  V30 18200 C 1805.21 1.52363 -0.840331 0
M  V30 18201 O 1806.38 1.65879 -1.1422 0
M  V30 18202 C 1803.45 2.6539 -2.2309 0
M  V30 18203 C 1802.51 2.53536 -3.46436 0
M  V30 18204 C 1801.74 3.80532 -3.74208 0
M  V30 18205 O 1801.97 4.82662 -3.03964 0
M  V30 18206 O 1800.9 3.78834 -4.67727 0
M  V30 18207 H 1804.73 1.02647 -2.85827 0
M  V30 18208 H 1802.31 0.442616 -1.42693 0
M  V30 18209 H 1804.19 3.44184 -2.43137 0
M  V30 18210 H 1802.87 2.94499 -1.34358 0
M  V30 18211 H 1801.78 1.73009 -3.3169 0
M  V30 18212 H 1803.11 2.29371 -4.35488 0
M  V30 18213 N 1804.76 1.49212 0.507292 0
M  V30 18214 C 1805.99 1.6208 1.28599 0
M  V30 18215 C 1806.4 0.289745 1.86563 0
M  V30 18216 O 1805.76 -0.723987 1.67525 0
M  V30 18217 C 1805.81 2.68482 2.42074 0
M  V30 18218 O 1805.53 3.96424 1.86493 0
M  V30 18219 C 1807.03 2.91997 3.33546 0
M  V30 18220 H 1804.25 0.545831 0.390268 0
M  V30 18221 H 1806.8 1.95201 0.609652 0
M  V30 18222 H 1804.95 2.38156 3.05549 0
M  V30 18223 H 1805.37 4.54983 2.60942 0
M  V30 18224 H 1806.84 3.70195 4.09463 0
M  V30 18225 H 1807.32 2.01673 3.9016 0
M  V30 18226 H 1807.92 3.23715 2.75842 0
M  V30 18227 N 1806.24 -0.757876 1.38181 0
M  V30 18228 C 1807.17 -1.87937 1.29441 0
M  V30 18229 C 1808.15 -1.61685 0.172246 0
M  V30 18230 O 1809.33 -1.85244 0.348836 0
M  V30 18231 C 1806.46 -3.23459 1.00459 0
M  V30 18232 C 1805.51 -3.68604 2.14554 0
M  V30 18233 S 1806.34 -3.80645 3.76656 0
M  V30 18234 C 1807.5 -5.18993 3.49853 0
M  V30 18235 H 1807.73 -1.95064 2.2436 0
M  V30 18236 H 1805.26 -0.920415 1.23967 0
M  V30 18237 H 1807.22 -4.01725 0.844209 0
M  V30 18238 H 1805.88 -3.14016 0.0726505 0
M  V30 18239 H 1805.07 -4.66892 1.8981 0
M  V30 18240 H 1804.68 -2.97479 2.26677 0
M  V30 18241 H 1806.97 -6.0461 3.05701 0
M  V30 18242 H 1807.91 -5.48755 4.47519 0
M  V30 18243 H 1808.32 -4.87587 2.84463 0
M  V30 18244 N 1807.72 -1.22979 -0.985586 0
M  V30 18245 C 1808.65 -1.03073 -2.09519 0
M  V30 18246 C 1809.63 0.0507025 -1.70024 0
M  V30 18247 O 1810.81 -0.112938 -1.93871 0
M  V30 18248 C 1807.94 -0.615578 -3.41801 0
M  V30 18249 C 1806.9 -1.64377 -3.95176 0
M  V30 18250 C 1806.22 -1.08422 -5.23592 0
M  V30 18251 C 1807.52 -3.03555 -4.25032 0
M  V30 18252 H 1809.22 -1.95882 -2.2643 0
M  V30 18253 H 1806.76 -0.943206 -1.0881 0
M  V30 18254 H 1808.72 -0.463394 -4.18844 0
M  V30 18255 H 1807.44 0.348185 -3.24739 0
M  V30 18256 H 1806.1 -1.78386 -3.20272 0
M  V30 18257 H 1805.75 -0.111597 -5.02876 0
M  V30 18258 H 1805.45 -1.77118 -5.6027 0
M  V30 18259 H 1806.97 -0.94378 -6.03262 0
M  V30 18260 H 1808.38 -2.92878 -4.92844 0
M  V30 18261 H 1806.78 -3.69441 -4.72899 0
M  V30 18262 H 1807.85 -3.52937 -3.32511 0
M  V30 18263 N 1809.19 1.18355 -1.04066 0
M  V30 18264 C 1810.44 1.87963 -0.742576 0
M  V30 18265 C 1810.76 1.80744 0.731899 0
M  V30 18266 O 1810.03 1.22576 1.52813 0
M  V30 18267 H 1808.61 0.69584 -0.271689 0
M  V30 18268 H 1811.28 1.43632 -1.31741 0
M  V30 18269 H 1810.37 2.93999 -1.04741 0
M  V30 18270 N 1810.67 0.820125 1.3458 0
M  V30 18271 C 1811.92 0.406871 1.9837 0
M  V30 18272 C 1812.25 -1.02936 1.65028 0
M  V30 18273 O 1811.5 -1.73122 0.912538 0
M  V30 18274 C 1811.8 0.552817 3.53099 0
M  V30 18275 C 1811.47 1.95436 4.06344 0
M  V30 18276 C 1810.13 2.33776 4.20597 0
M  V30 18277 C 1812.48 2.87068 4.35019 0
M  V30 18278 C 1809.81 3.6309 4.6085 0
M  V30 18279 C 1812.16 4.15841 4.76716 0
M  V30 18280 C 1810.83 4.54163 4.89175 0
M  V30 18281 H 1810.1 0.148884 0.725889 0
M  V30 18282 H 1812.74 1.04353 1.6057 0
M  V30 18283 H 1811.05 -0.167245 3.91443 0
M  V30 18284 H 1812.74 0.213635 4.00431 0
M  V30 18285 H 1809.33 1.64652 3.95712 0
M  V30 18286 H 1813.52 2.5869 4.23548 0
M  V30 18287 H 1808.77 3.92611 4.68686 0
M  V30 18288 H 1812.95 4.86934 4.97863 0
M  V30 18289 H 1810.58 5.54415 5.20123 0
M  V30 18290 N 1812.15 -1.46743 0.574835 0
M  V30 18291 C 1813.38 -2.07311 0.0608779 0
M  V30 18292 C 1813.8 -1.422 -1.23129 0
M  V30 18293 O 1813.16 -0.503042 -1.74181 0
M  V30 18294 C 1813.21 -3.60462 -0.0996676 0
M  V30 18295 O 1812.31 -3.95806 -1.15808 0
M  V30 18296 H 1811.65 -0.661351 0.0592542 0
M  V30 18297 H 1814.18 -1.885 0.795538 0
M  V30 18298 H 1814.19 -4.06833 -0.308329 0
M  V30 18299 H 1812.87 -4.07246 0.844018 0
M  V30 18300 H 1811.44 -3.61155 -0.928504 0
M  V30 18301 N 1813.63 -0.312197 -1.54477 0
M  V30 18302 C 1814.86 0.295632 -2.04474 0
M  V30 18303 C 1815.27 1.47211 -1.18851 0
M  V30 18304 O 1814.61 1.82503 -0.209347 0
M  V30 18305 C 1814.67 0.804123 -3.50391 0
M  V30 18306 C 1814.34 -0.248547 -4.56324 0
M  V30 18307 C 1815.33 -1.0808 -5.08542 0
M  V30 18308 C 1813.02 -0.393467 -5.00757 0
M  V30 18309 C 1815.01 -2.04381 -6.03744 0
M  V30 18310 C 1812.7 -1.35991 -5.95777 0
M  V30 18311 C 1813.7 -2.18355 -6.47155 0
M  V30 18312 O 1813.38 -3.13359 -7.40311 0
M  V30 18313 H 1813.12 0.0665366 -0.672718 0
M  V30 18314 H 1815.67 -0.45308 -2.00341 0
M  V30 18315 H 1813.9 1.60355 -3.51885 0
M  V30 18316 H 1815.59 1.32905 -3.83524 0
M  V30 18317 H 1816.36 -0.979766 -4.75001 0
M  V30 18318 H 1812.23 0.237709 -4.60387 0
M  V30 18319 H 1815.78 -2.68708 -6.43771 0
M  V30 18320 H 1811.68 -1.46162 -6.28734 0
M  V30 18321 H 1812.44 -3.08467 -7.58149 0
M  V30 18322 N 1815.11 1.57549 -0.040136 0
M  V30 18323 C 1816.35 1.9225 0.636094 0
M  V30 18324 C 1816.68 0.917539 1.71498 0
M  V30 18325 O 1815.94 -0.0718721 1.95568 0
M  V30 18326 C 1816.24 3.3366 1.28084 0
M  V30 18327 C 1815.9 4.49682 0.331249 0
M  V30 18328 C 1814.56 4.81149 0.0699171 0
M  V30 18329 C 1816.92 5.20216 -0.320179 0
M  V30 18330 C 1814.24 5.80503 -0.850464 0
M  V30 18331 C 1816.6 6.20553 -1.22868 0
M  V30 18332 C 1815.26 6.50455 -1.4988 0
M  V30 18333 H 1814.53 0.703493 0.232763 0
M  V30 18334 H 1817.18 1.91216 -0.104258 0
M  V30 18335 H 1815.48 3.31008 2.0962 0
M  V30 18336 H 1817.18 3.57785 1.81082 0
M  V30 18337 H 1813.77 4.25119 0.545114 0
M  V30 18338 H 1817.95 4.96126 -0.131354 0
M  V30 18339 H 1813.21 6.02012 -1.06733 0
M  V30 18340 H 1817.38 6.74323 -1.73958 0
M  V30 18341 H 1815.01 7.27257 -2.21362 0
M  V30 18342 N 1816.58 -0.233136 1.55866 0
M  V30 18343 C 1817.51 -1.29225 1.94482 0
M  V30 18344 C 1818.5 -1.49495 0.811503 0
M  V30 18345 O 1819.68 -1.61872 1.07289 0
M  V30 18346 C 1816.81 -2.64435 2.25147 0
M  V30 18347 C 1815.76 -2.5884 3.4086 0
M  V30 18348 C 1815.09 -3.97973 3.57102 0
M  V30 18349 C 1816.39 -2.14629 4.76164 0
M  V30 18350 H 1818.08 -0.971527 2.83199 0
M  V30 18351 H 1815.63 -0.465905 1.36255 0
M  V30 18352 H 1817.58 -3.38676 2.50752 0
M  V30 18353 H 1816.31 -2.98172 1.33271 0
M  V30 18354 H 1814.97 -1.87057 3.15286 0
M  V30 18355 H 1814.61 -4.28998 2.62621 0
M  V30 18356 H 1814.31 -3.95114 4.34924 0
M  V30 18357 H 1815.84 -4.73893 3.85043 0
M  V30 18358 H 1817.25 -2.78607 5.0105 0
M  V30 18359 H 1815.65 -2.22853 5.57186 0
M  V30 18360 H 1816.72 -1.09826 4.72299 0
M  V30 18361 N 1818.06 -1.49479 -0.499372 0
M  V30 18362 C 1819.29 -1.63025 -1.28209 0
M  V30 18363 C 1819.71 -0.302238 -1.85656 0
M  V30 18364 O 1819.07 0.730355 -1.65938 0
M  V30 18365 C 1819.12 -2.70287 -2.38699 0
M  V30 18366 O 1818.22 -2.29573 -3.42593 0
M  V30 18367 H 1817.56 -0.545605 -0.378432 0
M  V30 18368 H 1820.09 -1.95677 -0.597628 0
M  V30 18369 H 1820.1 -2.92505 -2.84438 0
M  V30 18370 H 1818.78 -3.66684 -1.96253 0
M  V30 18371 H 1817.36 -2.17692 -3.02761 0
M  V30 18372 N 1819.54 0.750537 -1.38581 0
M  V30 18373 C 1820.79 1.50974 -1.34956 0
M  V30 18374 C 1821.12 1.94409 0.0594396 0
M  V30 18375 O 1820.37 1.65957 1.03715 0
M  V30 18376 C 1820.67 2.77356 -2.25407 0
M  V30 18377 C 1820.34 2.52868 -3.73321 0
M  V30 18378 C 1819 2.45899 -4.13627 0
M  V30 18379 C 1821.35 2.31554 -4.66939 0
M  V30 18380 C 1818.68 2.15635 -5.45636 0
M  V30 18381 C 1821.03 2.02811 -5.99208 0
M  V30 18382 C 1819.69 1.943 -6.38595 0
M  V30 18383 H 1818.96 0.552453 -0.493838 0
M  V30 18384 H 1821.61 0.862769 -1.70964 0
M  V30 18385 H 1819.92 3.46719 -1.82465 0
M  V30 18386 H 1821.61 3.35326 -2.19904 0
M  V30 18387 H 1818.2 2.59165 -3.41367 0
M  V30 18388 H 1822.39 2.35916 -4.36643 0
M  V30 18389 H 1817.64 2.07556 -5.75092 0
M  V30 18390 H 1821.82 1.85323 -6.71289 0
M  V30 18391 H 1819.44 1.70614 -7.40807 0
M  V30 18392 N 1821.02 1.235 0.979051 0
M  V30 18393 C 1822.27 1.06791 1.72052 0
M  V30 18394 C 1822.59 -0.395002 1.90447 0
M  V30 18395 O 1821.85 -1.30872 1.45503 0
M  V30 18396 C 1822.15 1.74004 3.12182 0
M  V30 18397 C 1821.81 3.23924 3.13662 0
M  V30 18398 C 1820.48 3.64828 3.13774 0
M  V30 18399 C 1822.83 4.19818 3.08872 0
M  V30 18400 C 1820.16 5.00083 3.06813 0
M  V30 18401 C 1822.51 5.55066 3.03454 0
M  V30 18402 C 1821.17 5.95332 3.01888 0
M  V30 18403 H 1820.44 0.390774 0.629584 0
M  V30 18404 H 1823.09 1.53452 1.14563 0
M  V30 18405 H 1821.39 1.19705 3.73066 0
M  V30 18406 H 1823.09 1.58551 3.68324 0
M  V30 18407 H 1819.68 2.91363 3.14334 0
M  V30 18408 H 1823.87 3.89225 3.07925 0
M  V30 18409 H 1819.12 5.30492 3.03954 0
M  V30 18410 H 1823.3 6.29085 2.98705 0
M  V30 18411 H 1820.92 7.001 2.96249 0
M  V30 18412 N 1822.5 -1.17802 1.04693 0
M  V30 18413 C 1823.43 -2.23847 0.664448 0
M  V30 18414 C 1824.41 -1.66761 -0.335356 0
M  V30 18415 O 1825.59 -1.93017 -0.214062 0
M  V30 18416 C 1822.72 -3.47284 0.0331587 0
M  V30 18417 C 1821.68 -4.1716 0.95718 0
M  V30 18418 C 1821 -5.34362 0.190034 0
M  V30 18419 C 1822.3 -4.69951 2.2791 0
M  V30 18420 H 1824 -2.56095 1.55099 0
M  V30 18421 H 1821.54 -1.23097 0.747196 0
M  V30 18422 H 1823.5 -4.2068 -0.246178 0
M  V30 18423 H 1822.22 -3.14288 -0.888294 0
M  V30 18424 H 1820.88 -3.45669 1.221 0
M  V30 18425 H 1820.53 -4.97615 -0.734025 0
M  V30 18426 H 1820.23 -5.8205 0.805684 0
M  V30 18427 H 1821.75 -6.10545 -0.0821372 0
M  V30 18428 H 1823.17 -5.3501 2.06003 0
M  V30 18429 H 1821.56 -5.28198 2.84828 0
M  V30 18430 H 1822.63 -3.87032 2.9212 0
M  V30 18431 N 1823.98 -0.827251 -1.34143 0
M  V30 18432 C 1824.93 -0.224453 -2.26893 0
M  V30 18433 C 1825.91 0.6138 -1.48732 0
M  V30 18434 O 1827.1 0.467671 -1.7071 0
M  V30 18435 C 1824.23 0.60919 -3.37852 0
M  V30 18436 C 1823.32 -0.23993 -4.23421 0
M  V30 18437 N 1823.71 -1.31304 -4.8846 0
M  V30 18438 C 1822.01 -0.0249939 -4.45993 0
M  V30 18439 C 1822.71 -1.83317 -5.5206 0
M  V30 18440 N 1821.68 -1.1364 -5.31589 0
M  V30 18441 H 1825.48 -1.04524 -2.74685 0
M  V30 18442 H 1823 -0.670503 -1.47912 0
M  V30 18443 H 1825 1.05724 -4.03272 0
M  V30 18444 H 1823.66 1.42809 -2.91609 0
M  V30 18445 H 1824.67 -1.69587 -4.89347 0
M  V30 18446 H 1821.34 0.761393 -4.10499 0
M  V30 18447 H 1822.73 -2.73118 -6.13886 0
M  V30 18448 N 1825.45 1.46436 -0.582609 0
M  V30 18449 C 1826.4 2.32025 0.163475 0
M  V30 18450 C 1827.4 1.44476 0.884478 0
M  V30 18451 O 1828.6 1.61102 0.802878 0
M  V30 18452 H 1824.98 0.748585 0.0715868 0
M  V30 18453 H 1826.95 2.92764 -0.577205 0
M  V30 18454 C 1825.7 3.2764 1.16392 0
M  V30 18455 H 1825.02 3.94986 0.618553 0
M  V30 18456 H 1826.46 3.90308 1.65636 0
M  V30 18457 C 1824.92 2.52986 2.22486 0
M  V30 18458 O 1825.45 2.29283 3.29837 0
M  V30 18459 N 1823.65 2.1355 1.97091 0
M  V30 18460 H 1823.2 2.33027 1.09801 0
M  V30 18461 H 1823.16 1.63919 2.68287 0
M  V30 18462 N 1826.93 0.320385 1.54309 0
M  V30 18463 C 1828.21 -0.337248 1.92671 0
M  V30 18464 C 1828.59 -1.70137 1.24967 0
M  V30 18465 O 1827.94 -2.25108 0.39224 0
M  V30 18466 C 1828.15 -0.432633 3.46308 0
M  V30 18467 C 1829.49 -0.694413 4.18883 0
M  V30 18468 O 1830.52 -0.515681 3.52447 0
M  V30 18469 O 1829.38 -1.039 5.36532 0
M  V30 18470 H 1826.47 -0.191985 0.804407 0
M  V30 18471 H 1829.02 0.369866 1.6562 0
M  V30 18472 H 1827.79 0.525553 3.87755 0
M  V30 18473 H 1827.41 -1.18745 3.79454 0
M  V30 18474 N 1828.41 -1.57525 0.0484906 0
M  V30 18475 C 1829.34 -2.08313 -0.955941 0
M  V30 18476 C 1830.35 -1.01042 -1.2765 0
M  V30 18477 O 1831.54 -1.28615 -1.23776 0
M  V30 18478 C 1828.64 -2.509 -2.27821 0
M  V30 18479 C 1827.82 -3.81476 -2.13997 0
M  V30 18480 C 1826.88 -4.10404 -3.29325 0
M  V30 18481 O 1825.9 -4.80366 -3.05348 0
M  V30 18482 N 1827.1 -3.62104 -4.53719 0
M  V30 18483 H 1829.87 -2.95111 -0.522472 0
M  V30 18484 H 1827.43 -1.61312 -0.137816 0
M  V30 18485 H 1829.42 -2.6733 -3.03837 0
M  V30 18486 H 1827.99 -1.69365 -2.62744 0
M  V30 18487 H 1827.21 -3.74654 -1.22589 0
M  V30 18488 H 1828.5 -4.6699 -2.01985 0
M  V30 18489 H 1827.9 -3.05541 -4.7609 0
M  V30 18490 H 1826.45 -3.83778 -5.26838 0
M  V30 18491 N 1829.89 0.224867 -1.55988 0
M  V30 18492 C 1830.82 1.28192 -1.95164 0
M  V30 18493 C 1831.8 1.49062 -0.81942 0
M  V30 18494 O 1832.98 1.61301 -1.08146 0
M  V30 18495 C 1830.11 2.63237 -2.26547 0
M  V30 18496 C 1829.07 2.57029 -3.42228 0
M  V30 18497 C 1828.39 3.96073 -3.59207 0
M  V30 18498 C 1829.69 2.12101 -4.77295 0
M  V30 18499 H 1831.39 0.956495 -2.8371 0
M  V30 18500 H 1828.93 0.458673 -1.365 0
M  V30 18501 H 1830.89 3.37341 -2.52545 0
M  V30 18502 H 1829.61 2.97461 -1.3485 0
M  V30 18503 H 1828.27 1.85382 -3.16273 0
M  V30 18504 H 1827.92 4.27599 -2.64892 0
M  V30 18505 H 1827.62 3.92802 -4.37013 0
M  V30 18506 H 1829.14 4.71844 -3.8755 0
M  V30 18507 H 1830.56 2.75946 -5.0252 0
M  V30 18508 H 1828.95 2.19895 -5.5836 0
M  V30 18509 H 1830.02 1.07319 -4.72875 0
M  V30 18510 N 1831.37 1.49742 0.491438 0
M  V30 18511 C 1832.6 1.63198 1.26689 0
M  V30 18512 C 1833 0.306438 1.86702 0
M  V30 18513 O 1832.35 -0.719282 1.69033 0
M  V30 18514 C 1832.41 2.64966 2.42967 0
M  V30 18515 C 1832.07 4.09066 2.0375 0
M  V30 18516 C 1833.07 4.95574 1.57171 0
M  V30 18517 C 1830.75 4.54859 2.13092 0
M  V30 18518 C 1832.75 6.25916 1.2045 0
M  V30 18519 C 1830.44 5.85212 1.75983 0
M  V30 18520 C 1831.43 6.70565 1.29738 0
M  V30 18521 O 1831.12 7.98487 0.931347 0
M  V30 18522 H 1830.85 0.552094 0.390087 0
M  V30 18523 H 1833.41 1.9658 0.595439 0
M  V30 18524 H 1831.64 2.26784 3.13218 0
M  V30 18525 H 1833.33 2.67852 3.04975 0
M  V30 18526 H 1834.09 4.61419 1.49391 0
M  V30 18527 H 1829.97 3.88585 2.48038 0
M  V30 18528 H 1833.52 6.9249 0.84283 0
M  V30 18529 H 1829.41 6.18893 1.83415 0
M  V30 18530 H 1830.18 8.11581 1.06198 0
M  V30 18531 N 1832.84 -0.743177 1.38977 0
M  V30 18532 C 1834.09 -1.50479 1.35956 0
M  V30 18533 C 1834.42 -1.94143 -0.0471116 0
M  V30 18534 O 1833.7 -1.66195 -1.01042 0
M  V30 18535 C 1833.98 -2.75016 2.32461 0
M  V30 18536 C 1833.83 -2.37423 3.82034 0
M  V30 18537 C 1835.15 -3.77084 2.26927 0
M  V30 18538 H 1832.27 -0.545869 0.495172 0
M  V30 18539 H 1834.91 -0.850403 1.69906 0
M  V30 18540 H 1833.06 -3.30852 2.03639 0
M  V30 18541 H 1834.74 -1.87282 4.21572 0
M  V30 18542 H 1832.98 -1.69752 3.99208 0
M  V30 18543 H 1833.65 -3.2657 4.45035 0
M  V30 18544 H 1836.13 -3.30812 2.52394 0
M  V30 18545 H 1835 -4.61901 2.96545 0
M  V30 18546 H 1835.26 -4.23419 1.27156 0
M  V30 18547 N 1834.32 -1.24018 -0.972487 0
M  V30 18548 C 1835.27 -1.02594 -2.08752 0
M  V30 18549 C 1836.26 0.0376128 -1.69358 0
M  V30 18550 O 1837.47 -0.116549 -1.79622 0
M  V30 18551 H 1833.85 -0.314713 -0.682979 0
M  V30 18552 H 1835.82 -1.97163 -2.23985 0
M  V30 18553 C 1834.57 -0.642298 -3.41716 0
M  V30 18554 H 1833.89 -1.45243 -3.72484 0
M  V30 18555 H 1835.33 -0.531964 -4.2065 0
M  V30 18556 C 1833.79 0.650173 -3.30567 0
M  V30 18557 O 1834.32 1.6972 -3.64085 0
M  V30 18558 N 1832.52 0.629085 -2.83709 0
M  V30 18559 H 1832.07 -0.223302 -2.5663 0
M  V30 18560 H 1832.03 1.49407 -2.76631 0
M  V30 18561 N 1835.8 1.17245 -1.05316 0
M  V30 18562 C 1836.71 2.24948 -0.666011 0
M  V30 18563 C 1837.73 1.71153 0.313478 0
M  V30 18564 O 1838.9 2.00721 0.165262 0
M  V30 18565 C 1835.97 3.46667 -0.0480198 0
M  V30 18566 C 1835.03 4.15542 -1.07812 0
M  V30 18567 C 1834.26 5.3145 -0.48952 0
M  V30 18568 O 1834.48 5.6608 0.700668 0
M  V30 18569 O 1833.42 5.89315 -1.22439 0
M  V30 18570 H 1837.24 2.60353 -1.56365 0
M  V30 18571 H 1834.83 1.24569 -0.8248 0
M  V30 18572 H 1836.71 4.20364 0.295366 0
M  V30 18573 H 1835.39 3.13056 0.823248 0
M  V30 18574 H 1834.29 3.43858 -1.47351 0
M  V30 18575 H 1835.63 4.53183 -1.92057 0
M  V30 18576 N 1837.28 0.834353 1.33702 0
M  V30 18577 C 1838.24 0.269618 2.27609 0
M  V30 18578 C 1839.24 -0.559065 1.50768 0
M  V30 18579 O 1840.43 -0.373511 1.70149 0
M  V30 18580 C 1837.56 -0.620682 3.35202 0
M  V30 18581 H 1838.76 1.09819 2.79069 0
M  V30 18582 H 1836.31 0.607087 1.44028 0
M  V30 18583 H 1837.04 -1.47187 2.88975 0
M  V30 18584 H 1836.83 -0.0278102 3.9209 0
M  V30 18585 H 1838.32 -1.00924 4.05221 0
M  V30 18586 N 1838.76 -1.46125 0.590367 0
M  V30 18587 C 1840.17 -1.85962 0.165876 0
M  V30 18588 C 1840.52 -1.49296 -1.27299 0
M  V30 18589 O 1839.64 -0.911461 -1.96269 0
M  V30 18590 C 1840.24 -3.3752 0.294262 0
M  V30 18591 C 1838.8 -3.76324 -0.0754118 0
M  V30 18592 C 1837.94 -2.70126 0.626682 0
M  V30 18593 H 1840.9 -1.3717 0.79812 0
M  V30 18594 H 1840.92 -3.77482 -0.4783 0
M  V30 18595 H 1840.43 -3.64175 1.34159 0
M  V30 18596 H 1838.53 -3.55287 -1.12258 0
M  V30 18597 H 1838.64 -4.7812 0.306241 0
M  V30 18598 H 1837.01 -2.54614 0.0661219 0
M  V30 18599 H 1837.79 -2.99619 1.6758 0
M  V30 18600 N 1840.23 -0.328564 -1.54137 0
M  V30 18601 C 1841.48 0.273427 -1.99838 0
M  V30 18602 C 1841.8 1.52851 -1.22049 0
M  V30 18603 O 1843 2.20681 -1.58152 0
M  V30 18604 C 1841.46 0.537757 -3.5586 0
M  V30 18605 C 1841.07 -0.700562 -4.42489 0
M  V30 18606 C 1842.81 1.09943 -4.10016 0
M  V30 18607 C 1840.72 -0.40786 -5.89992 0
M  V30 18608 H 1839.65 0.105947 -0.746519 0
M  V30 18609 H 1842.3 -0.441565 -1.78108 0
M  V30 18610 H 1840.68 1.31307 -3.73597 0
M  V30 18611 H 1841.85 -1.47583 -4.36527 0
M  V30 18612 H 1840.17 -1.1828 -3.99248 0
M  V30 18613 H 1842.77 1.33312 -5.17815 0
M  V30 18614 H 1843.11 2.05035 -3.62307 0
M  V30 18615 H 1843.64 0.385182 -3.95931 0
M  V30 18616 H 1840.38 -1.32809 -6.41905 0
M  V30 18617 H 1839.9 0.329604 -5.98894 0
M  V30 18618 H 1841.58 -0.0195391 -6.46997 0
M  V30 18619 N 1841.71 1.57497 -0.0568439 0
M  V30 18620 C 1842.66 2.1305 0.933398 0
M  V30 18621 C 1843.65 1.06369 1.31841 0
M  V30 18622 O 1844.86 1.2477 1.2974 0
M  V30 18623 H 1841.24 0.681037 0.318893 0
M  V30 18624 H 1843.21 2.95141 0.439796 0
M  V30 18625 C 1841.96 2.69502 2.1969 0
M  V30 18626 H 1841.28 3.51255 1.90945 0
M  V30 18627 H 1842.72 3.11986 2.87124 0
M  V30 18628 C 1841.18 1.63547 2.94541 0
M  V30 18629 O 1841.71 1.0516 3.87691 0
M  V30 18630 N 1839.91 1.34933 2.57374 0
M  V30 18631 H 1839.46 1.82601 1.81699 0
M  V30 18632 H 1839.42 0.642701 3.07761 0
M  V30 18633 N 1843.19 -0.216591 1.56105 0
M  V30 18634 C 1844.42 -0.955625 1.8317 0
M  V30 18635 C 1844.83 -1.78247 0.634397 0
M  V30 18636 O 1844.17 -1.79148 -0.406391 0
M  V30 18637 C 1844.23 -1.91834 3.04039 0
M  V30 18638 C 1843.9 -1.27553 4.38838 0
M  V30 18639 C 1844.89 -0.662972 5.15656 0
M  V30 18640 C 1842.58 -1.28582 4.85564 0
M  V30 18641 C 1844.57 -0.0692674 6.37362 0
M  V30 18642 C 1842.26 -0.688269 6.07212 0
M  V30 18643 C 1843.26 -0.0810524 6.82952 0
M  V30 18644 O 1842.95 0.507186 8.02298 0
M  V30 18645 H 1842.68 -0.285405 0.612797 0
M  V30 18646 H 1845.23 -0.235419 2.04046 0
M  V30 18647 H 1843.46 -2.67767 2.78994 0
M  V30 18648 H 1845.15 -2.52334 3.17934 0
M  V30 18649 H 1845.92 -0.647319 4.80661 0
M  V30 18650 H 1841.8 -1.74784 4.26581 0
M  V30 18651 H 1845.34 0.405305 6.96422 0
M  V30 18652 H 1841.24 -0.701352 6.41679 0
M  V30 18653 H 1842.01 0.401989 8.17512 0
M  V30 18654 N 1844.67 -1.5 -0.48349 0
M  V30 18655 C 1845.9 -1.64105 -1.26004 0
M  V30 18656 C 1846.31 -0.319389 -1.86079 0
M  V30 18657 O 1845.67 0.697243 -1.68656 0
M  V30 18658 C 1845.72 -2.72299 -2.37772 0
M  V30 18659 O 1845.44 -3.99341 -1.80163 0
M  V30 18660 C 1846.94 -2.97266 -3.28858 0
M  V30 18661 H 1844.16 -0.551971 -0.381535 0
M  V30 18662 H 1846.71 -1.96146 -0.57852 0
M  V30 18663 H 1844.86 -2.42987 -3.01722 0
M  V30 18664 H 1845.27 -4.59077 -2.5367 0
M  V30 18665 H 1846.75 -3.76662 -4.03521 0
M  V30 18666 H 1847.23 -2.07855 -3.86902 0
M  V30 18667 H 1847.83 -3.28062 -2.70657 0
M  V30 18668 N 1846.15 0.735796 -1.39369 0
M  V30 18669 C 1847.09 1.87116 -1.38168 0
M  V30 18670 C 1848.09 1.67315 -0.264936 0
M  V30 18671 O 1849.29 1.74666 -0.434928 0
M  V30 18672 H 1845.67 0.615926 -0.431438 0
M  V30 18673 H 1847.64 1.85245 -2.33938 0
M  V30 18674 C 1846.39 3.2479 -1.24125 0
M  V30 18675 H 1845.71 3.40621 -2.09325 0
M  V30 18676 H 1847.15 4.04426 -1.27341 0
M  V30 18677 C 1845.61 3.36862 0.050393 0
M  V30 18678 O 1846.14 3.88511 1.02088 0
M  V30 18679 N 1844.35 2.90379 0.113184 0
M  V30 18680 H 1843.89 2.48537 -0.677267 0
M  V30 18681 H 1843.85 2.98837 0.976928 0
M  V30 18682 N 1847.63 1.24532 0.965897 0
M  V30 18683 C 1848.87 1.0877 1.71163 0
M  V30 18684 C 1849.2 -0.372297 1.90598 0
M  V30 18685 O 1848.48 -1.27503 1.46878 0
M  V30 18686 C 1848.76 1.83004 3.10131 0
M  V30 18687 C 1848.62 3.36765 2.98177 0
M  V30 18688 C 1849.93 1.60417 4.09822 0
M  V30 18689 H 1847.05 0.396528 0.621236 0
M  V30 18690 H 1849.7 1.53223 1.12351 0
M  V30 18691 H 1847.85 1.4522 3.60338 0
M  V30 18692 H 1849.52 3.84158 2.55382 0
M  V30 18693 H 1847.76 3.65053 2.34347 0
M  V30 18694 H 1848.43 3.83909 3.96633 0
M  V30 18695 H 1850.91 1.93289 3.68482 0
M  V30 18696 H 1849.78 2.14812 5.05121 0
M  V30 18697 H 1850.04 0.542843 4.38755 0
M  V30 18698 N 1849.1 -1.16685 1.05936 0
M  V30 18699 C 1850.07 -2.19155 0.671098 0
M  V30 18700 C 1851.07 -1.5832 -0.281305 0
M  V30 18701 O 1852.26 -1.74082 -0.0641708 0
M  V30 18702 C 1849.39 -3.40897 -0.0131101 0
M  V30 18703 H 1850.58 -2.55019 1.57815 0
M  V30 18704 H 1848.13 -1.30897 0.854147 0
M  V30 18705 H 1848.87 -3.10587 -0.933077 0
M  V30 18706 H 1848.65 -3.86304 0.671687 0
M  V30 18707 H 1850.14 -4.16722 -0.270606 0
M  V30 18708 N 1850.58 -0.841432 -1.33258 0
M  V30 18709 C 1851.81 -0.451942 -2.01904 0
M  V30 18710 C 1852.22 0.94758 -1.63298 0
M  V30 18711 O 1851.58 1.61622 -0.847611 0
M  V30 18712 C 1851.63 -0.565978 -3.57042 0
M  V30 18713 O 1851.35 -1.91036 -3.94255 0
M  V30 18714 C 1852.85 -0.173776 -4.42959 0
M  V30 18715 H 1850.07 -0.179113 -0.646653 0
M  V30 18716 H 1852.62 -1.13472 -1.70131 0
M  V30 18717 H 1850.77 0.0689126 -3.87339 0
M  V30 18718 H 1851.19 -1.8977 -4.88966 0
M  V30 18719 H 1852.66 -0.304608 -5.51159 0
M  V30 18720 H 1853.14 0.884559 -4.302 0
M  V30 18721 H 1853.74 -0.783205 -4.18026 0
M  V30 18722 N 1852.06 1.4581 -0.598108 0
M  V30 18723 C 1853.34 1.95588 -0.0220376 0
M  V30 18724 C 1853.72 1.54066 1.44316 0
M  V30 18725 O 1853.06 0.798663 2.14088 0
M  V30 18726 C 1853.27 3.48366 -0.210204 0
M  V30 18727 C 1854.62 4.24513 -0.0860474 0
M  V30 18728 O 1855.65 3.55925 -0.139833 0
M  V30 18729 O 1854.51 5.46488 0.0367961 0
M  V30 18730 H 1851.6 0.825977 0.0411123 0
M  V30 18731 H 1854.15 1.56021 -0.667506 0
M  V30 18732 H 1852.92 3.71526 -1.22818 0
M  V30 18733 H 1852.54 3.94801 0.470974 0
M  V30 18734 N 1853.54 0.336733 1.53961 0
M  V30 18735 C 1854.48 -0.523198 2.24792 0
M  V30 18736 C 1855.45 -1.10107 1.24361 0
M  V30 18737 O 1856.64 -1.13895 1.53077 0
M  V30 18738 C 1853.78 -1.67166 3.0191 0
M  V30 18739 C 1852.89 -1.12176 4.17182 0
M  V30 18740 C 1852.03 -2.23697 4.81802 0
M  V30 18741 C 1851.07 -1.66023 5.89154 0
M  V30 18742 N 1850.2 -2.7126 6.47582 0
M  V30 18743 H 1855.04 0.0873707 2.97872 0
M  V30 18744 H 1852.58 0.0548897 1.46998 0
M  V30 18745 H 1854.54 -2.34768 3.44876 0
M  V30 18746 H 1853.17 -2.25332 2.31139 0
M  V30 18747 H 1852.22 -0.336885 3.78905 0
M  V30 18748 H 1853.53 -0.659852 4.94416 0
M  V30 18749 H 1852.69 -2.99178 5.27804 0
M  V30 18750 H 1851.43 -2.7323 4.03976 0
M  V30 18751 H 1850.43 -0.890457 5.42541 0
M  V30 18752 H 1851.66 -1.17352 6.68884 0
M  V30 18753 H 1849.6 -3.20059 5.72624 0
M  V30 18754 H 1849.52 -2.29671 7.20269 0
M  V30 18755 H 1850.79 -3.4653 6.98239 0
M  V30 18756 N 1855.02 -1.57465 0.0651956 0
M  V30 18757 C 1856.26 -1.92856 -0.604233 0
M  V30 18758 C 1856.58 -0.945431 -1.70548 0
M  V30 18759 O 1855.85 0.00749144 -1.95899 0
M  V30 18760 H 1854.43 -0.711933 -0.226185 0
M  V30 18761 H 1857.1 -1.94521 0.121499 0
M  V30 18762 H 1856.19 -2.94481 -1.03381 0
M  V30 18763 N 1856.49 0.20831 -1.56217 0
M  V30 18764 C 1857.74 0.932104 -1.8011 0
M  V30 18765 C 1858.07 1.83453 -0.637061 0
M  V30 18766 O 1857.35 1.91081 0.363066 0
M  V30 18767 C 1857.63 1.7597 -3.14176 0
M  V30 18768 C 1857.48 0.882874 -4.4105 0
M  V30 18769 C 1858.8 2.7349 -3.44806 0
M  V30 18770 H 1855.92 0.337428 -0.655218 0
M  V30 18771 H 1858.56 0.2002 -1.88942 0
M  V30 18772 H 1856.71 2.38369 -3.06778 0
M  V30 18773 H 1858.39 0.274607 -4.60482 0
M  V30 18774 H 1856.63 0.188921 -4.33388 0
M  V30 18775 H 1857.3 1.49662 -5.31324 0
M  V30 18776 H 1859.78 2.21225 -3.52418 0
M  V30 18777 H 1858.65 3.28489 -4.39757 0
M  V30 18778 H 1858.91 3.51887 -2.67635 0
M  V30 18779 N 1857.97 1.50255 0.475528 0
M  V30 18780 C 1859.22 1.60263 1.22468 0
M  V30 18781 C 1859.53 0.306389 1.93185 0
M  V30 18782 O 1860.74 0.285331 2.69997 0
M  V30 18783 C 1859.2 2.82876 2.22506 0
M  V30 18784 C 1858.8 4.19359 1.57612 0
M  V30 18785 C 1860.55 3.02228 2.98091 0
M  V30 18786 C 1858.45 5.33164 2.55911 0
M  V30 18787 H 1857.38 0.596804 0.460804 0
M  V30 18788 H 1860.04 1.76679 0.495653 0
M  V30 18789 H 1858.42 2.6001 2.98682 0
M  V30 18790 H 1859.59 4.52463 0.872559 0
M  V30 18791 H 1857.91 4.05576 0.943247 0
M  V30 18792 H 1860.5 3.84422 3.7165 0
M  V30 18793 H 1860.85 2.13781 3.57216 0
M  V30 18794 H 1861.38 3.25255 2.29029 0
M  V30 18795 H 1858.12 6.23751 2.01531 0
M  V30 18796 H 1857.64 5.04484 3.24432 0
M  V30 18797 H 1859.32 5.63554 3.17829 0
M  V30 18798 N 1859.45 -0.728395 1.39758 0
M  V30 18799 C 1860.4 -1.83374 1.35491 0
M  V30 18800 C 1861.38 -1.5918 0.234629 0
M  V30 18801 O 1862.58 -1.70571 0.472703 0
M  V30 18802 C 1859.7 -3.21373 1.20725 0
M  V30 18803 C 1858.79 -3.51373 2.37482 0
M  V30 18804 N 1859.18 -3.52269 3.6296 0
M  V30 18805 C 1857.48 -3.81769 2.30583 0
M  V30 18806 C 1858.18 -3.80252 4.40208 0
M  V30 18807 N 1857.16 -3.98359 3.6988 0
M  V30 18808 H 1860.96 -1.82381 2.30465 0
M  V30 18809 H 1858.47 -0.926941 1.33348 0
M  V30 18810 H 1860.47 -4.00509 1.15751 0
M  V30 18811 H 1859.13 -3.236 0.267072 0
M  V30 18812 H 1860.14 -3.33423 3.96295 0
M  V30 18813 H 1856.82 -3.91562 1.44862 0
M  V30 18814 H 1858.21 -3.87357 5.49003 0
M  V30 18815 N 1860.93 -1.25042 -0.959279 0
M  V30 18816 C 1862.18 -1.09298 -1.69995 0
M  V30 18817 C 1862.5 0.367507 -1.91506 0
M  V30 18818 O 1861.77 1.26142 -1.49883 0
M  V30 18819 H 1860.35 -0.401469 -0.629945 0
M  V30 18820 H 1863.01 -1.57094 -1.15358 0
M  V30 18821 H 1862.1 -1.59766 -2.68107 0
M  V30 18822 N 1862.41 1.16121 -1.06553 0
M  V30 18823 C 1863.34 2.22761 -0.699976 0
M  V30 18824 C 1864.32 1.67274 0.308783 0
M  V30 18825 O 1865.5 1.93333 0.183328 0
M  V30 18826 C 1862.63 3.47187 -0.0884044 0
M  V30 18827 C 1861.59 4.15584 -1.02343 0
M  V30 18828 C 1860.91 5.33992 -0.275022 0
M  V30 18829 C 1862.21 4.66266 -2.35358 0
M  V30 18830 H 1863.91 2.53595 -1.59153 0
M  V30 18831 H 1861.45 1.21893 -0.766686 0
M  V30 18832 H 1863.41 4.21019 0.17922 0
M  V30 18833 H 1862.13 3.15661 0.838181 0
M  V30 18834 H 1860.79 3.43683 -1.27584 0
M  V30 18835 H 1860.44 4.9872 0.654765 0
M  V30 18836 H 1860.14 5.80695 -0.898181 0
M  V30 18837 H 1861.66 6.10598 -0.0150056 0
M  V30 18838 H 1863.07 5.31665 -2.14488 0
M  V30 18839 H 1861.47 5.236 -2.93195 0
M  V30 18840 H 1862.54 3.82335 -2.98241 0
M  V30 18841 N 1863.88 0.848487 1.3281 0
M  V30 18842 C 1865.13 0.44797 1.97073 0
M  V30 18843 C 1865.45 -0.998358 1.67505 0
M  V30 18844 O 1864.72 -1.69683 0.97901 0
M  V30 18845 H 1863.3 0.162663 0.729075 0
M  V30 18846 H 1865.97 1.08356 1.62003 0
M  V30 18847 H 1865.06 0.587939 3.06512 0
M  V30 18848 N 1865.36 -1.4549 0.605832 0
M  V30 18849 C 1866.31 -2.30518 -0.114038 0
M  V30 18850 C 1867.28 -1.42 -0.861703 0
M  V30 18851 O 1868.46 -1.7093 -0.847788 0
M  V30 18852 C 1865.6 -3.26876 -1.10661 0
M  V30 18853 C 1864.72 -4.30497 -0.359999 0
M  V30 18854 C 1863.85 -5.13965 -1.34214 0
M  V30 18855 C 1862.89 -6.09315 -0.58324 0
M  V30 18856 N 1862.03 -6.85569 -1.51457 0
M  V30 18857 H 1866.87 -2.91542 0.617043 0
M  V30 18858 H 1864.41 -1.43664 0.31609 0
M  V30 18859 H 1866.36 -3.81207 -1.69519 0
M  V30 18860 H 1864.99 -2.6761 -1.80512 0
M  V30 18861 H 1864.05 -3.78841 0.344058 0
M  V30 18862 H 1865.36 -4.98259 0.232208 0
M  V30 18863 H 1864.51 -5.72688 -2.00283 0
M  V30 18864 H 1863.25 -4.46218 -1.96828 0
M  V30 18865 H 1862.26 -5.49725 0.0910986 0
M  V30 18866 H 1863.48 -6.79089 0.0378268 0
M  V30 18867 H 1861.43 -6.20512 -2.12839 0
M  V30 18868 H 1861.34 -7.49677 -0.97576 0
M  V30 18869 H 1862.61 -7.48834 -2.1649 0
M  V30 18870 N 1866.84 -0.344893 -1.5378 0
M  V30 18871 C 1868.09 0.25158 -2.01233 0
M  V30 18872 C 1868.42 1.50094 -1.23229 0
M  V30 18873 O 1867.69 1.91845 -0.320282 0
M  V30 18874 C 1867.98 0.564366 -3.5565 0
M  V30 18875 C 1867.83 -0.697186 -4.44364 0
M  V30 18876 C 1869.15 1.37343 -4.18121 0
M  V30 18877 H 1866.27 0.0899643 -0.731488 0
M  V30 18878 H 1868.91 -0.465697 -1.84204 0
M  V30 18879 H 1867.06 1.17543 -3.70292 0
M  V30 18880 H 1868.73 -1.33512 -4.41557 0
M  V30 18881 H 1866.98 -1.3218 -4.13172 0
M  V30 18882 H 1867.65 -0.433571 -5.50295 0
M  V30 18883 H 1870.12 0.85671 -4.07185 0
M  V30 18884 H 1869 1.56103 -5.26235 0
M  V30 18885 H 1869.26 2.37593 -3.7283 0
M  V30 18886 N 1868.32 1.57428 -0.0735454 0
M  V30 18887 C 1869.25 2.15849 0.890584 0
M  V30 18888 C 1870.23 1.086 1.3092 0
M  V30 18889 O 1871.41 1.36643 1.37994 0
M  V30 18890 C 1868.54 2.72153 2.15755 0
M  V30 18891 C 1867.5 3.84584 1.87827 0
M  V30 18892 C 1866.82 4.27498 3.21169 0
M  V30 18893 C 1868.12 5.08746 1.18217 0
M  V30 18894 H 1869.82 2.96663 0.403904 0
M  V30 18895 H 1867.36 1.42703 0.192836 0
M  V30 18896 H 1869.32 3.11668 2.83621 0
M  V30 18897 H 1868.04 1.88562 2.66668 0
M  V30 18898 H 1866.7 3.45575 1.22366 0
M  V30 18899 H 1866.35 3.40827 3.69927 0
M  V30 18900 H 1866.05 5.03288 3.03273 0
M  V30 18901 H 1867.57 4.69631 3.9023 0
M  V30 18902 H 1868.99 5.45566 1.76155 0
M  V30 18903 H 1867.38 5.89825 1.10573 0
M  V30 18904 H 1868.45 4.84631 0.161525 0
M  V30 18905 N 1869.8 -0.200022 1.56326 0
M  V30 18906 C 1870.71 -1.26847 1.9735 0
M  V30 18907 C 1871.72 -1.50081 0.880432 0
M  V30 18908 O 1872.9 -1.62792 1.18578 0
M  V30 18909 C 1869.96 -2.59382 2.30048 0
M  V30 18910 C 1869.02 -2.44262 3.53036 0
M  V30 18911 C 1868.26 -3.70476 3.84165 0
M  V30 18912 O 1868.48 -4.74433 3.16654 0
M  V30 18913 O 1867.41 -3.663 4.77606 0
M  V30 18914 H 1871.24 -0.950324 2.88449 0
M  V30 18915 H 1868.83 -0.404628 1.43816 0
M  V30 18916 H 1870.71 -3.37616 2.52177 0
M  V30 18917 H 1869.38 -2.90833 1.42119 0
M  V30 18918 H 1868.29 -1.64154 3.36161 0
M  V30 18919 H 1869.62 -2.17744 4.41416 0
M  V30 18920 N 1871.27 -1.50505 -0.467553 0
M  V30 18921 C 1872.52 -1.60911 -1.21617 0
M  V30 18922 C 1872.84 -0.31663 -1.9302 0
M  V30 18923 O 1874.04 -0.299645 -2.69841 0
M  V30 18924 C 1872.5 -2.84052 -2.21003 0
M  V30 18925 C 1872.11 -4.20189 -1.55386 0
M  V30 18926 C 1873.85 -3.03805 -2.96484 0
M  V30 18927 C 1871.76 -5.34514 -2.5308 0
M  V30 18928 H 1870.69 -0.59924 -0.457633 0
M  V30 18929 H 1873.34 -1.7694 -0.486276 0
M  V30 18930 H 1871.72 -2.6159 -2.97299 0
M  V30 18931 H 1872.89 -4.5292 -0.848552 0
M  V30 18932 H 1871.21 -4.0607 -0.921725 0
M  V30 18933 H 1873.81 -3.86387 -3.69606 0
M  V30 18934 H 1874.15 -2.15672 -3.56078 0
M  V30 18935 H 1874.68 -3.26465 -2.27301 0
M  V30 18936 H 1871.42 -6.24811 -1.9822 0
M  V30 18937 H 1870.94 -5.06197 -3.21752 0
M  V30 18938 H 1872.62 -5.65232 -3.14836 0
M  V30 18939 N 1872.75 0.720973 -1.40142 0
M  V30 18940 C 1873.68 1.8457 -1.35891 0
M  V30 18941 C 1874.7 1.60625 -0.265232 0
M  V30 18942 O 1875.89 1.70599 -0.525198 0
M  V30 18943 C 1872.99 3.20871 -1.09064 0
M  V30 18944 C 1872.16 3.72058 -2.29982 0
M  V30 18945 C 1871.22 4.86957 -1.99397 0
M  V30 18946 O 1870.24 4.99888 -2.72213 0
M  V30 18947 N 1871.45 5.72361 -0.968645 0
M  V30 18948 H 1874.21 1.88717 -2.32822 0
M  V30 18949 H 1871.77 0.902293 -1.34426 0
M  V30 18950 H 1873.76 3.95326 -0.865979 0
M  V30 18951 H 1872.33 3.11906 -0.208188 0
M  V30 18952 H 1871.55 2.88795 -2.68312 0
M  V30 18953 H 1872.84 4.02991 -3.10605 0
M  V30 18954 H 1872.24 5.64518 -0.36546 0
M  V30 18955 H 1870.8 6.46824 -0.803886 0
M  V30 18956 N 1874.23 1.25549 0.952634 0
M  V30 18957 C 1875.18 1.06108 2.04963 0
M  V30 18958 C 1876.15 -0.0303872 1.66072 0
M  V30 18959 O 1877.33 0.127178 1.90376 0
M  V30 18960 C 1874.47 0.68799 3.38173 0
M  V30 18961 C 1873.59 1.85452 3.90168 0
M  V30 18962 C 1872.72 1.4256 5.11713 0
M  V30 18963 C 1871.76 2.56115 5.55942 0
M  V30 18964 N 1870.9 2.13984 6.68697 0
M  V30 18965 H 1875.74 1.99991 2.20925 0
M  V30 18966 H 1873.27 0.995895 1.08261 0
M  V30 18967 H 1875.23 0.452622 4.14737 0
M  V30 18968 H 1873.86 -0.213845 3.22091 0
M  V30 18969 H 1872.91 2.20314 3.10106 0
M  V30 18970 H 1874.23 2.70722 4.1894 0
M  V30 18971 H 1873.38 1.15 5.95701 0
M  V30 18972 H 1872.12 0.54365 4.8466 0
M  V30 18973 H 1871.12 2.84417 4.70518 0
M  V30 18974 H 1872.35 3.44891 5.85002 0
M  V30 18975 H 1870.29 1.28208 6.4335 0
M  V30 18976 H 1870.21 2.92801 6.96996 0
M  V30 18977 H 1871.48 1.89605 7.56089 0
M  V30 18978 N 1875.71 -1.15554 1.07168 0
M  V30 18979 C 1876.66 -2.22296 0.684626 0
M  V30 18980 C 1877.65 -1.66656 -0.303675 0
M  V30 18981 O 1878.86 -1.79218 -0.167588 0
M  V30 18982 H 1875.23 -0.723996 0.203306 0
M  V30 18983 H 1877.2 -2.52223 1.59456 0
M  V30 18984 C 1875.95 -3.47566 0.0965118 0
M  V30 18985 H 1875.27 -3.90701 0.848122 0
M  V30 18986 H 1876.71 -4.2378 -0.136671 0
M  V30 18987 C 1875.17 -3.16215 -1.16231 0
M  V30 18988 O 1875.7 -3.32838 -2.24903 0
M  V30 18989 N 1873.91 -2.70273 -1.06774 0
M  V30 18990 H 1873.46 -2.56947 -0.183357 0
M  V30 18991 H 1873.41 -2.49671 -1.9108 0
M  V30 18992 N 1877.19 -0.855519 -1.32358 0
M  V30 18993 C 1878.6 -0.545491 -1.49989 0
M  V30 18994 C 1878.8 0.923656 -1.79083 0
M  V30 18995 O 1877.86 1.70664 -1.86091 0
M  V30 18996 C 1879.17 -1.43323 -2.64347 0
M  V30 18997 C 1880.72 -1.43374 -2.78232 0
M  V30 18998 C 1881.2 -2.30671 -3.9567 0
M  V30 18999 N 1882.69 -2.28471 -4.02933 0
M  V30 19000 C 1883.42 -2.92746 -4.93039 0
M  V30 19001 N 1882.92 -3.66136 -5.88147 0
M  V30 19002 N 1884.71 -2.82129 -4.86168 0
M  V30 19003 H 1876.86 -1.80633 -1.11738 0
M  V30 19004 H 1879.12 -0.771568 -0.550805 0
M  V30 19005 H 1878.83 -2.47797 -2.49578 0
M  V30 19006 H 1878.7 -1.12125 -3.6015 0
M  V30 19007 H 1881.09 -0.396641 -2.92422 0
M  V30 19008 H 1881.17 -1.78588 -1.83139 0
M  V30 19009 H 1880.82 -3.3445 -3.82238 0
M  V30 19010 H 1880.75 -1.92789 -4.90041 0
M  V30 19011 H 1883.24 -1.75115 -3.34878 0
M  V30 19012 H 1883.55 -4.12344 -6.536 0
M  V30 19013 H 1881.9 -3.70244 -5.88171 0
M  V30 19014 H 1885.09 -2.24344 -4.10837 0
M  V30 19015 H 1885.26 -3.32502 -5.56189 0
M  V30 19016 N 1878.67 1.45167 -0.61354 0
M  V30 19017 C 1879.91 2.04081 -0.114146 0
M  V30 19018 C 1880.27 1.47081 1.23414 0
M  V30 19019 O 1881.47 1.97386 1.82461 0
M  V30 19020 C 1879.74 3.57307 -0.0817425 0
M  V30 19021 S 1881.3 4.37357 0.355593 0
M  V30 19022 H 1878.12 0.709061 -0.0524763 0
M  V30 19023 H 1880.72 1.77795 -0.81298 0
M  V30 19024 H 1879.42 3.96302 -1.06645 0
M  V30 19025 H 1878.96 3.88177 0.638898 0
M  V30 19026 H 1880.97 4.69566 1.6038 0
M  V30 19027 N 1880.14 0.353044 1.53595 0
M  V30 19028 C 1881.42 -0.296304 1.93343 0
M  V30 19029 C 1881.8 -1.67448 1.28548 0
M  V30 19030 O 1881.15 -2.24226 0.4399 0
M  V30 19031 C 1881.36 -0.359079 3.47148 0
M  V30 19032 C 1882.71 -0.605406 4.20262 0
M  V30 19033 O 1883.73 -0.440805 3.53462 0
M  V30 19034 O 1882.59 -0.92496 5.38616 0
M  V30 19035 H 1879.68 -0.174879 0.808298 0
M  V30 19036 H 1882.23 0.404914 1.64798 0
M  V30 19037 H 1881 0.607684 3.86553 0
M  V30 19038 H 1880.62 -1.1067 3.81887 0
M  V30 19039 N 1881.62 -1.57387 0.0818932 0
M  V30 19040 C 1882.57 -2.14508 -0.899386 0
M  V30 19041 C 1883.56 -1.08453 -1.30132 0
M  V30 19042 O 1884.77 -1.26818 -1.27739 0
M  V30 19043 H 1881.14 -0.686024 -0.308018 0
M  V30 19044 H 1883.12 -2.95804 -0.392786 0
M  V30 19045 C 1881.86 -2.72963 -2.15375 0
M  V30 19046 H 1881.19 -3.54248 -1.85333 0
M  V30 19047 H 1882.63 -3.16515 -2.82125 0
M  V30 19048 C 1881.09 -1.68212 -2.91901 0
M  V30 19049 O 1881.62 -1.11314 -3.85969 0
M  V30 19050 N 1879.82 -1.3901 -2.55195 0
M  V30 19051 H 1879.37 -1.85468 -1.78771 0
M  V30 19052 H 1879.33 -0.691582 -3.06699 0
M  V30 19053 N 1883.1 0.191729 -1.56429 0
M  V30 19054 C 1884.05 1.25706 -1.95706 0
M  V30 19055 C 1885.04 1.46938 -0.842948 0
M  V30 19056 O 1886.25 1.47759 -1.02797 0
M  V30 19057 H 1882.62 0.422099 -0.622364 0
M  V30 19058 H 1884.59 0.8988 -2.84542 0
M  V30 19059 C 1883.34 2.59366 -2.3157 0
M  V30 19060 H 1882.67 2.43845 -3.16827 0
M  V30 19061 H 1884.11 3.32646 -2.62912 0
M  V30 19062 C 1882.56 3.16609 -1.15155 0
M  V30 19063 O 1883.09 3.9941 -0.428355 0
M  V30 19064 N 1881.3 2.75402 -0.927467 0
M  V30 19065 H 1880.85 2.08172 -1.5173 0
M  V30 19066 H 1880.81 3.1404 -0.150348 0
M  V30 19067 N 1884.58 1.50751 0.459565 0
M  V30 19068 C 1885.85 1.5284 1.22062 0
M  V30 19069 C 1886.23 0.279716 2.09239 0
M  V30 19070 O 1885.58 -0.73634 2.16311 0
M  V30 19071 C 1885.79 2.83046 2.04171 0
M  V30 19072 C 1887.14 3.34151 2.6197 0
M  V30 19073 O 1888.16 2.84446 2.14403 0
M  V30 19074 O 1887.02 4.20824 3.48668 0
M  V30 19075 H 1884.12 0.613549 0.554515 0
M  V30 19076 H 1886.66 1.63049 0.470445 0
M  V30 19077 H 1885.44 3.65397 1.40004 0
M  V30 19078 H 1885.06 2.75896 2.86299 0
M  V30 19079 N 1886.06 -0.713531 1.40522 0
M  V30 19080 C 1887.28 -1.5026 1.4223 0
M  V30 19081 C 1887.7 -1.88787 0.0225637 0
M  V30 19082 O 1887.06 -1.55581 -0.95398 0
M  V30 19083 C 1887.11 -2.77663 2.31486 0
M  V30 19084 O 1886.83 -2.40765 3.66011 0
M  V30 19085 C 1888.33 -3.71543 2.41807 0
M  V30 19086 H 1885.55 -0.463648 0.485048 0
M  V30 19087 H 1888.09 -0.88 1.84598 0
M  V30 19088 H 1886.25 -3.36203 1.92475 0
M  V30 19089 H 1886.66 -3.22757 4.13434 0
M  V30 19090 H 1888.14 -4.57771 3.08464 0
M  V30 19091 H 1888.61 -4.14792 1.44375 0
M  V30 19092 H 1889.22 -3.18914 2.81379 0
M  V30 19093 N 1887.53 -1.26053 -0.945962 0
M  V30 19094 C 1888.76 -1.14079 -1.72608 0
M  V30 19095 C 1889.18 0.304506 -1.86328 0
M  V30 19096 O 1888.53 1.20885 -1.36723 0
M  V30 19097 C 1888.58 -1.79938 -3.13535 0
M  V30 19098 O 1888.31 -3.18819 -3.00476 0
M  V30 19099 C 1889.81 -1.73856 -4.07785 0
M  V30 19100 H 1887.03 -0.397486 -0.540598 0
M  V30 19101 H 1889.57 -1.66582 -1.1862 0
M  V30 19102 H 1887.73 -1.31385 -3.6444 0
M  V30 19103 H 1888.14 -3.51337 -3.89439 0
M  V30 19104 H 1889.61 -2.24584 -5.04248 0
M  V30 19105 H 1890.09 -0.704095 -4.33519 0
M  V30 19106 H 1890.7 -2.21939 -3.62799 0
M  V30 19107 N 1889.01 1.14984 -1.07779 0
M  V30 19108 C 1890.26 1.85219 -0.798561 0
M  V30 19109 C 1890.57 1.83476 0.677935 0
M  V30 19110 O 1891.78 2.49436 1.0721 0
M  V30 19111 C 1890.24 3.32454 -1.37849 0
M  V30 19112 C 1889.84 3.42631 -2.88631 0
M  V30 19113 C 1891.59 4.07843 -1.17747 0
M  V30 19114 C 1889.49 4.8404 -3.39794 0
M  V30 19115 H 1888.42 0.693872 -0.295054 0
M  V30 19116 H 1891.08 1.29668 -1.2984 0
M  V30 19117 H 1889.46 3.87703 -0.806374 0
M  V30 19118 H 1890.63 2.97466 -3.51925 0
M  V30 19119 H 1888.95 2.80691 -3.07573 0
M  V30 19120 H 1891.54 5.1221 -1.53444 0
M  V30 19121 H 1891.89 4.16136 -0.116815 0
M  V30 19122 H 1892.42 3.58876 -1.71618 0
M  V30 19123 H 1889.16 4.80932 -4.45404 0
M  V30 19124 H 1888.68 5.29769 -2.81256 0
M  V30 19125 H 1890.36 5.5291 -3.36005 0
M  V30 19126 N 1890.49 0.862526 1.31902 0
M  V30 19127 C 1891.74 0.465956 1.96244 0
M  V30 19128 C 1892.05 -0.985243 1.68974 0
M  V30 19129 O 1893.26 -1.48761 2.27118 0
M  V30 19130 C 1891.71 0.782319 3.51294 0
M  V30 19131 C 1891.32 2.24978 3.87413 0
M  V30 19132 C 1893.07 0.453857 4.22067 0
M  V30 19133 C 1890.97 2.50894 5.35543 0
M  V30 19134 H 1889.9 0.170515 0.734466 0
M  V30 19135 H 1892.55 1.0544 1.50182 0
M  V30 19136 H 1890.94 0.123217 3.95808 0
M  V30 19137 H 1892.11 2.95132 3.53884 0
M  V30 19138 H 1890.42 2.54354 3.29687 0
M  V30 19139 H 1893.02 0.624812 5.31037 0
M  V30 19140 H 1893.36 -0.605145 4.11878 0
M  V30 19141 H 1893.9 1.06918 3.83162 0
M  V30 19142 H 1890.64 3.55449 5.5076 0
M  V30 19143 H 1890.16 1.85326 5.70451 0
M  V30 19144 H 1891.84 2.35244 6.02718 0
M  V30 19145 N 1891.97 -1.4484 0.62123 0
M  V30 19146 C 1893.38 -1.57016 0.286009 0
M  V30 19147 C 1893.58 -1.6104 -1.21113 0
M  V30 19148 O 1892.64 -1.54807 -1.99477 0
M  V30 19149 C 1893.95 -2.84652 0.969209 0
M  V30 19150 C 1895.5 -2.98349 0.946414 0
M  V30 19151 C 1895.98 -4.28773 1.60989 0
M  V30 19152 N 1897.47 -4.35564 1.57601 0
M  V30 19153 C 1898.2 -5.3518 2.0584 0
M  V30 19154 N 1897.7 -6.41256 2.62226 0
M  V30 19155 N 1899.49 -5.26625 1.96527 0
M  V30 19156 H 1891.64 -1.40471 1.59316 0
M  V30 19157 H 1893.91 -0.672493 0.668174 0
M  V30 19158 H 1893.61 -2.87629 2.02392 0
M  V30 19159 H 1893.49 -3.7386 0.500859 0
M  V30 19160 H 1895.87 -2.94931 -0.0997935 0
M  V30 19161 H 1895.95 -2.10516 1.45316 0
M  V30 19162 H 1895.6 -4.3295 2.65549 0
M  V30 19163 H 1895.53 -5.15447 1.07805 0
M  V30 19164 H 1898.02 -3.59519 1.16424 0
M  V30 19165 H 1898.33 -7.13536 2.96792 0
M  V30 19166 H 1896.68 -6.41969 2.66272 0
M  V30 19167 H 1899.87 -4.42664 1.52206 0
M  V30 19168 H 1900.04 -6.04107 2.34434 0
M  V30 19169 N 1893.45 -0.361184 -1.53405 0
M  V30 19170 C 1894.69 0.229427 -2.00794 0
M  V30 19171 C 1895.02 1.49642 -1.25029 0
M  V30 19172 O 1894.29 1.9252 -0.362333 0
M  V30 19173 H 1892.87 0.0877687 -0.741826 0
M  V30 19174 H 1895.53 -0.486406 -1.88733 0
M  V30 19175 H 1894.62 0.459504 -3.08699 0
M  V30 19176 N 1894.92 1.57341 -0.0902386 0
M  V30 19177 C 1896.34 1.57361 0.266413 0
M  V30 19178 C 1896.54 1.10104 1.68758 0
M  V30 19179 O 1895.6 0.775287 2.40303 0
M  V30 19180 C 1896.91 3.00642 0.0592661 0
M  V30 19181 C 1898.46 3.12741 0.127389 0
M  V30 19182 C 1898.93 4.57971 -0.0517042 0
M  V30 19183 N 1900.42 4.632 0.0032917 0
M  V30 19184 C 1901.16 5.73293 -0.110598 0
M  V30 19185 N 1900.65 6.92238 -0.279049 0
M  V30 19186 N 1902.45 5.62076 -0.0522147 0
M  V30 19187 H 1894.6 1.86369 -1.01884 0
M  V30 19188 H 1896.86 0.859996 -0.398886 0
M  V30 19189 H 1896.57 3.39396 -0.922117 0
M  V30 19190 H 1896.44 3.68539 0.80368 0
M  V30 19191 H 1898.83 2.73861 1.09927 0
M  V30 19192 H 1898.91 2.47445 -0.648435 0
M  V30 19193 H 1898.55 4.97544 -1.02043 0
M  V30 19194 H 1898.48 5.21321 0.743753 0
M  V30 19195 H 1900.97 3.77672 0.131145 0
M  V30 19196 H 1901.29 7.71972 -0.357596 0
M  V30 19197 H 1899.63 6.94287 -0.314653 0
M  V30 19198 H 1902.82 4.68035 0.0782189 0
M  V30 19199 H 1903 6.47839 -0.144423 0
M  V30 19200 N 1896.4 -0.183431 1.56529 0
M  V30 19201 C 1897.64 -0.908628 1.83094 0
M  V30 19202 C 1898.01 -1.79952 0.669429 0
M  V30 19203 O 1899.21 -2.56139 0.81524 0
M  V30 19204 C 1897.48 -1.69353 3.14729 0
M  V30 19205 S 1899.04 -2.46915 3.62737 0
M  V30 19206 H 1895.86 -0.304549 0.642472 0
M  V30 19207 H 1898.46 -0.171145 1.94749 0
M  V30 19208 H 1897.16 -1.02987 3.97268 0
M  V30 19209 H 1896.69 -2.47261 3.05983 0
M  V30 19210 H 1898.71 -3.71359 3.29101 0
M  V30 19211 N 1897.88 -1.50992 -0.451564 0
M  V30 19212 C 1899.3 -1.38852 -0.786916 0
M  V30 19213 C 1899.5 -0.459764 -1.96185 0
M  V30 19214 O 1898.55 0.0903799 -2.52338 0
M  V30 19215 C 1899.87 -2.80611 -1.08064 0
M  V30 19216 C 1901.41 -2.89663 -1.18593 0
M  V30 19217 C 1901.89 -4.32299 -1.51267 0
M  V30 19218 N 1903.38 -4.3534 -1.5822 0
M  V30 19219 C 1904.11 -5.42721 -1.85046 0
M  V30 19220 N 1903.61 -6.60282 -2.09759 0
M  V30 19221 N 1905.4 -5.30185 -1.8671 0
M  V30 19222 H 1897.55 -2.09938 0.32245 0
M  V30 19223 H 1899.82 -0.944464 0.0818072 0
M  V30 19224 H 1899.52 -3.50501 -0.290167 0
M  V30 19225 H 1899.4 -3.19063 -2.01193 0
M  V30 19226 H 1901.78 -2.1998 -1.96705 0
M  V30 19227 H 1901.87 -2.54728 -0.23398 0
M  V30 19228 H 1901.51 -5.02526 -0.736882 0
M  V30 19229 H 1901.44 -4.64736 -2.47645 0
M  V30 19230 H 1903.93 -3.50577 -1.41082 0
M  V30 19231 H 1904.24 -7.37918 -2.29557 0
M  V30 19232 H 1902.59 -6.63423 -2.07111 0
M  V30 19233 H 1905.78 -4.3733 -1.66912 0
M  V30 19234 H 1905.95 -6.13954 -2.07279 0
M  V30 19235 N 1899.36 0.706069 -1.40899 0
M  V30 19236 C 1900.59 1.49504 -1.43025 0
M  V30 19237 C 1901 1.88772 -0.0325752 0
M  V30 19238 O 1900.36 1.56085 0.945716 0
M  V30 19239 C 1900.41 2.76431 -2.32955 0
M  V30 19240 O 1900.13 2.38821 -3.67282 0
M  V30 19241 C 1901.63 3.70255 -2.43774 0
M  V30 19242 H 1898.85 0.461069 -0.4875 0
M  V30 19243 H 1901.4 0.870198 -1.85062 0
M  V30 19244 H 1899.55 3.35177 -1.94255 0
M  V30 19245 H 1899.96 3.2056 -4.1514 0
M  V30 19246 H 1901.44 4.56129 -3.10887 0
M  V30 19247 H 1901.92 4.14021 -1.46573 0
M  V30 19248 H 1902.52 3.17417 -2.83066 0
M  V30 19249 N 1900.84 1.26553 0.939264 0
M  V30 19250 C 1902.08 1.13433 1.70036 0
M  V30 19251 C 1902.44 -0.316669 1.89371 0
M  V30 19252 O 1903.64 -0.570035 2.62686 0
M  V30 19253 C 1901.91 1.88424 3.03696 0
M  V30 19254 S 1903.47 1.91381 3.94866 0
M  V30 19255 H 1900.29 0.405156 0.584268 0
M  V30 19256 H 1902.89 1.60299 1.11913 0
M  V30 19257 H 1901.6 2.93059 2.87306 0
M  V30 19258 H 1901.13 1.42007 3.66876 0
M  V30 19259 H 1903.14 1.00189 4.8598 0
M  V30 19260 N 1902.31 -1.14411 1.08387 0
M  V30 19261 C 1903.54 -1.89848 0.835015 0
M  V30 19262 C 1903.96 -1.78034 -0.607091 0
M  V30 19263 O 1903.32 -1.12039 -1.42538 0
M  V30 19264 C 1903.37 -3.37818 1.26141 0
M  V30 19265 O 1902.47 -4.10325 0.41322 0
M  V30 19266 H 1901.82 -0.590682 0.303299 0
M  V30 19267 H 1904.35 -1.44823 1.44525 0
M  V30 19268 H 1904.36 -3.88631 1.24218 0
M  V30 19269 H 1903.03 -3.45735 2.31172 0
M  V30 19270 H 1901.61 -3.69589 0.495854 0
M  V30 19271 N 1903.79 -0.869509 -1.31443 0
M  V30 19272 C 1905.02 -0.493849 -2.01435 0
M  V30 19273 C 1905.44 0.906049 -1.6484 0
M  V30 19274 O 1904.8 1.59777 -0.856794 0
M  V30 19275 C 1904.85 -0.657723 -3.54551 0
M  V30 19276 O 1903.95 0.303155 -4.11284 0
M  V30 19277 H 1903.29 -0.196494 -0.63426 0
M  V30 19278 H 1905.82 -1.1728 -1.6765 0
M  V30 19279 H 1905.83 -0.550841 -4.04264 0
M  V30 19280 H 1904.51 -1.67848 -3.80526 0
M  V30 19281 H 1903.09 0.151268 -3.72593 0
M  V30 19282 N 1905.27 1.44508 -0.628902 0
M  V30 19283 C 1906.18 2.34468 0.0786233 0
M  V30 19284 C 1907.2 1.52489 0.838046 0
M  V30 19285 O 1908.37 1.85224 0.790813 0
M  V30 19286 C 1905.44 3.30435 1.04945 0
M  V30 19287 C 1904.5 4.28322 0.289643 0
M  V30 19288 C 1903.73 5.19704 1.21422 0
M  V30 19289 O 1903.95 5.14967 2.45286 0
M  V30 19290 O 1902.89 5.97819 0.699748 0
M  V30 19291 H 1906.71 2.96414 -0.661222 0
M  V30 19292 H 1904.3 1.44244 -0.3891 0
M  V30 19293 H 1906.18 3.89513 1.60804 0
M  V30 19294 H 1904.86 2.71025 1.76994 0
M  V30 19295 H 1903.76 3.72797 -0.311936 0
M  V30 19296 H 1905.1 4.90646 -0.390789 0
M  V30 19297 N 1906.75 0.369315 1.53212 0
M  V30 19298 C 1907.68 -0.467242 2.28777 0
M  V30 19299 C 1908.66 -1.08073 1.31355 0
M  V30 19300 O 1909.85 -1.09728 1.60229 0
M  V30 19301 C 1906.98 -1.60519 3.07979 0
M  V30 19302 C 1905.93 -1.11876 4.1312 0
M  V30 19303 C 1905.26 -2.34723 4.80426 0
M  V30 19304 C 1906.56 -0.200846 5.21914 0
M  V30 19305 H 1908.25 0.163201 2.98955 0
M  V30 19306 H 1905.8 0.0799312 1.43778 0
M  V30 19307 H 1907.75 -2.19708 3.59592 0
M  V30 19308 H 1906.47 -2.26292 2.35499 0
M  V30 19309 H 1905.13 -0.549521 3.62458 0
M  V30 19310 H 1904.78 -2.98961 4.04514 0
M  V30 19311 H 1904.48 -2.02846 5.51477 0
M  V30 19312 H 1906 -2.94592 5.34835 0
M  V30 19313 H 1907.42 -0.700331 5.69006 0
M  V30 19314 H 1905.81 0.0272222 6.00094 0
M  V30 19315 H 1906.88 0.755948 4.78971 0
M  V30 19316 N 1908.23 -1.57291 0.0985816 0
M  V30 19317 C 1909.46 -1.98819 -0.57259 0
M  V30 19318 C 1909.87 -0.977787 -1.61508 0
M  V30 19319 O 1909.23 0.0321385 -1.82472 0
M  V30 19320 C 1909.28 -3.40393 -1.21716 0
M  V30 19321 O 1909 -4.37565 -0.216366 0
M  V30 19322 C 1910.5 -3.96943 -1.97361 0
M  V30 19323 H 1907.72 -0.653268 -0.153239 0
M  V30 19324 H 1910.26 -2.03716 0.178898 0
M  V30 19325 H 1908.42 -3.36499 -1.91956 0
M  V30 19326 H 1908.83 -5.20046 -0.68205 0
M  V30 19327 H 1910.31 -4.98144 -2.37816 0
M  V30 19328 H 1910.78 -3.34953 -2.84083 0
M  V30 19329 H 1911.39 -4.0432 -1.3193 0
M  V30 19330 N 1909.71 0.175127 -1.56624 0
M  V30 19331 C 1910.95 0.898905 -1.83573 0
M  V30 19332 C 1911.31 1.79594 -0.678963 0
M  V30 19333 O 1912.51 2.55703 -0.828812 0
M  V30 19334 C 1910.78 1.67681 -3.15623 0
M  V30 19335 S 1912.34 2.44988 -3.64042 0
M  V30 19336 H 1909.16 0.301138 -0.644078 0
M  V30 19337 H 1911.76 0.160814 -1.94837 0
M  V30 19338 H 1910.46 1.00879 -3.97809 0
M  V30 19339 H 1910 2.45635 -3.0729 0
M  V30 19340 H 1912.01 3.69608 -3.31065 0
M  V30 19341 N 1911.18 1.5123 0.44355 0
M  V30 19342 C 1912.59 1.56137 1.02362 0
M  V30 19343 C 1912.95 0.381135 1.92462 0
M  V30 19344 O 1912.07 -0.502817 2.10477 0
M  V30 19345 C 1912.67 2.82967 1.8632 0
M  V30 19346 C 1911.22 2.90466 2.39388 0
M  V30 19347 C 1910.37 2.50735 1.18438 0
M  V30 19348 H 1913.32 1.57096 0.22506 0
M  V30 19349 H 1913.34 2.66378 2.71704 0
M  V30 19350 H 1912.86 3.68848 1.20717 0
M  V30 19351 H 1910.96 2.09 3.08463 0
M  V30 19352 H 1911.07 3.9398 2.7261 0
M  V30 19353 H 1909.43 2.03792 1.52778 0
M  V30 19354 H 1910.22 3.38954 0.544549 0
M  V30 19355 N 1912.66 -0.698586 1.41271 0
M  V30 19356 C 1913.91 -1.45861 1.40466 0
M  V30 19357 C 1914.24 -1.94496 0.0127551 0
M  V30 19358 O 1913.49 -1.69692 -0.974843 0
M  V30 19359 C 1913.79 -2.688 2.35545 0
M  V30 19360 C 1913.46 -2.38839 3.82449 0
M  V30 19361 C 1912.12 -2.30378 4.22468 0
M  V30 19362 C 1914.47 -2.14065 4.75211 0
M  V30 19363 C 1911.8 -1.95236 5.53263 0
M  V30 19364 C 1914.15 -1.80432 6.06323 0
M  V30 19365 C 1912.81 -1.70465 6.45367 0
M  V30 19366 H 1912.08 -0.533744 0.514002 0
M  V30 19367 H 1914.73 -0.798723 1.74048 0
M  V30 19368 H 1913.04 -3.39708 1.95207 0
M  V30 19369 H 1914.73 -3.26933 2.32197 0
M  V30 19370 H 1911.32 -2.46317 3.50751 0
M  V30 19371 H 1915.51 -2.19548 4.45098 0
M  V30 19372 H 1910.76 -1.86069 5.82399 0
M  V30 19373 H 1914.94 -1.60281 6.77704 0
M  V30 19374 H 1912.56 -1.43002 7.46629 0
M  V30 19375 N 1914.14 -1.27049 -0.93254 0
M  V30 19376 C 1915.39 -1.12879 -1.67639 0
M  V30 19377 C 1915.71 0.326803 -1.92242 0
M  V30 19378 O 1914.98 1.22934 -1.52525 0
M  V30 19379 H 1913.56 -0.414741 -0.621288 0
M  V30 19380 H 1916.22 -1.59505 -1.12 0
M  V30 19381 H 1915.32 -1.65417 -2.64658 0
M  V30 19382 N 1915.62 1.13835 -1.08993 0
M  V30 19383 C 1916.85 1.88861 -0.844923 0
M  V30 19384 C 1917.26 1.78897 0.603444 0
M  V30 19385 O 1916.62 1.15246 1.41508 0
M  V30 19386 C 1916.67 3.38622 -1.26559 0
M  V30 19387 O 1916.39 3.48321 -2.65714 0
M  V30 19388 C 1917.89 4.30629 -1.05232 0
M  V30 19389 H 1915.11 0.598038 -0.304288 0
M  V30 19390 H 1917.65 1.44129 -1.45076 0
M  V30 19391 H 1915.81 3.80954 -0.703737 0
M  V30 19392 H 1916.22 4.41387 -2.83333 0
M  V30 19393 H 1917.7 5.34057 -1.39598 0
M  V30 19394 H 1918.17 4.39199 0.0102308 0
M  V30 19395 H 1918.78 3.9406 -1.5999 0
M  V30 19396 N 1917.1 0.876467 1.3098 0
M  V30 19397 C 1918.04 0.335149 2.28354 0
M  V30 19398 C 1919.01 -0.569979 1.56014 0
M  V30 19399 O 1920.2 -0.500226 1.84126 0
M  V30 19400 C 1917.34 -0.451723 3.42131 0
M  V30 19401 C 1916.45 0.481657 4.29306 0
M  V30 19402 C 1915.59 -0.319977 5.30235 0
M  V30 19403 C 1914.62 0.609417 6.09059 0
M  V30 19404 N 1913.76 -0.156366 7.01926 0
M  V30 19405 H 1918.6 1.17069 2.74042 0
M  V30 19406 H 1916.14 0.588683 1.34807 0
M  V30 19407 H 1918.1 -0.923775 4.06844 0
M  V30 19408 H 1916.73 -1.25191 2.97535 0
M  V30 19409 H 1915.78 1.07218 3.64977 0
M  V30 19410 H 1917.09 1.19403 4.84298 0
M  V30 19411 H 1916.24 -0.854256 6.00656 0
M  V30 19412 H 1914.98 -1.06561 4.75916 0
M  V30 19413 H 1913.99 1.1554 5.37523 0
M  V30 19414 H 1915.21 1.354 6.65465 0
M  V30 19415 H 1913.16 -0.884688 6.50007 0
M  V30 19416 H 1913.08 0.496538 7.54368 0
M  V30 19417 H 1914.34 -0.671665 7.76601 0
M  V30 19418 N 1918.57 -1.44173 0.636557 0
M  V30 19419 C 1919.8 -2.06866 0.148751 0
M  V30 19420 C 1920.22 -1.47295 -1.16987 0
M  V30 19421 O 1919.58 -0.576466 -1.71891 0
M  V30 19422 C 1919.63 -3.60561 0.0533064 0
M  V30 19423 O 1918.73 -4.00361 -0.989163 0
M  V30 19424 H 1918.07 -0.658243 0.087251 0
M  V30 19425 H 1920.6 -1.84956 0.874772 0
M  V30 19426 H 1920.61 -4.07775 -0.135499 0
M  V30 19427 H 1919.29 -4.033 1.01599 0
M  V30 19428 H 1917.87 -3.64769 -0.77449 0
M  V30 19429 N 1920.05 -0.377435 -1.53014 0
M  V30 19430 C 1920.98 0.455103 -2.29022 0
M  V30 19431 C 1921.96 1.07375 -1.31926 0
M  V30 19432 O 1923.15 1.08877 -1.60809 0
M  V30 19433 C 1920.28 1.58883 -3.08826 0
M  V30 19434 C 1919.23 1.09683 -4.13707 0
M  V30 19435 C 1918.56 2.32172 -4.81664 0
M  V30 19436 C 1919.86 0.173165 -5.22013 0
M  V30 19437 H 1921.55 -0.179053 -2.98864 0
M  V30 19438 H 1919.1 -0.0875549 -1.43734 0
M  V30 19439 H 1921.05 2.17798 -3.60752 0
M  V30 19440 H 1919.77 2.2504 -2.36695 0
M  V30 19441 H 1918.43 0.530291 -3.62744 0
M  V30 19442 H 1918.08 2.96811 -4.06094 0
M  V30 19443 H 1917.78 1.99919 -5.52545 0
M  V30 19444 H 1919.31 2.91751 -5.3639 0
M  V30 19445 H 1920.72 0.670145 -5.6937 0
M  V30 19446 H 1919.12 -0.0590463 -6.00071 0
M  V30 19447 H 1920.19 -0.781339 -4.78564 0
M  V30 19448 N 1921.53 1.57237 -0.106922 0
M  V30 19449 C 1922.78 1.9439 0.552888 0
M  V30 19450 C 1923.1 0.990316 1.67981 0
M  V30 19451 O 1922.37 0.0444502 1.9585 0
M  V30 19452 H 1920.95 0.71768 0.20723 0
M  V30 19453 H 1923.61 1.9413 -0.17303 0
M  V30 19454 H 1922.71 2.97118 0.955369 0
M  V30 19455 N 1923.01 -0.166818 1.56715 0
M  V30 19456 C 1923.96 -1.22576 1.97681 0
M  V30 19457 C 1924.95 -1.45578 0.866218 0
M  V30 19458 O 1926.16 -1.46105 1.05135 0
M  V30 19459 H 1922.53 -0.412144 0.629 0
M  V30 19460 H 1924.5 -0.853418 2.85936 0
M  V30 19461 C 1923.25 -2.55649 2.35667 0
M  V30 19462 H 1922.57 -2.38774 3.20666 0
M  V30 19463 H 1924.01 -3.28421 2.68171 0
M  V30 19464 C 1922.47 -3.14737 1.20177 0
M  V30 19465 O 1923 -3.98678 0.491844 0
M  V30 19466 N 1921.21 -2.73892 0.971164 0
M  V30 19467 H 1920.76 -2.05732 1.55023 0
M  V30 19468 H 1920.71 -3.13761 0.20029 0
M  V30 19469 N 1924.49 -1.51463 -0.435524 0
M  V30 19470 C 1925.4 -1.75755 -1.55394 0
M  V30 19471 C 1926.41 -0.641853 -1.61729 0
M  V30 19472 O 1927.59 -0.924311 -1.78937 0
M  V30 19473 C 1924.65 -1.87908 -2.91361 0
M  V30 19474 C 1923.71 -3.11766 -2.95128 0
M  V30 19475 C 1922.95 -3.2333 -4.2461 0
M  V30 19476 O 1923.17 -2.40789 -5.17085 0
M  V30 19477 O 1922.1 -4.16319 -4.34698 0
M  V30 19478 H 1925.93 -2.70633 -1.3781 0
M  V30 19479 H 1923.52 -1.35986 -0.618717 0
M  V30 19480 H 1925.4 -1.97877 -3.72052 0
M  V30 19481 H 1924.07 -0.962179 -3.09069 0
M  V30 19482 H 1922.98 -3.07274 -2.13386 0
M  V30 19483 H 1924.31 -4.03151 -2.82365 0
M  V30 19484 N 1925.96 0.691085 -1.4164 0
M  V30 19485 C 1926.91 1.80495 -1.43841 0
M  V30 19486 C 1927.88 1.63509 -0.292237 0
M  V30 19487 O 1929.07 1.84296 -0.493941 0
M  V30 19488 C 1926.21 3.18412 -1.33072 0
M  V30 19489 C 1925.32 3.46799 -2.57594 0
M  V30 19490 C 1924.45 4.74354 -2.39085 0
M  V30 19491 C 1923.49 4.95723 -3.59061 0
M  V30 19492 N 1922.63 6.14507 -3.39596 0
M  V30 19493 H 1927.47 1.77949 -2.39036 0
M  V30 19494 H 1925.01 0.86893 -1.18693 0
M  V30 19495 H 1926.97 3.98087 -1.24829 0
M  V30 19496 H 1925.6 3.20124 -0.414814 0
M  V30 19497 H 1924.65 2.61496 -2.76268 0
M  V30 19498 H 1925.96 3.58489 -3.46824 0
M  V30 19499 H 1925.11 5.62092 -2.28336 0
M  V30 19500 H 1923.85 4.64918 -1.47319 0
M  V30 19501 H 1922.86 4.06432 -3.70261 0
M  V30 19502 H 1924.08 5.07015 -4.51788 0
M  V30 19503 H 1922.03 6.06275 -2.50532 0
M  V30 19504 H 1921.95 6.26985 -4.22405 0
M  V30 19505 H 1923.21 7.04968 -3.32627 0
M  V30 19506 N 1927.44 1.27542 0.925789 0
M  V30 19507 C 1928.86 1.04988 1.20207 0
M  V30 19508 C 1929.06 -0.215359 2.00346 0
M  V30 19509 O 1928.11 -0.920331 2.3513 0
M  V30 19510 C 1929.43 2.2904 1.94836 0
M  V30 19511 C 1930.98 2.34098 2.07767 0
M  V30 19512 C 1931.45 3.57884 2.85802 0
M  V30 19513 N 1932.94 3.58453 2.93369 0
M  V30 19514 C 1933.68 4.50907 3.54218 0
M  V30 19515 N 1933.17 5.53667 4.16443 0
M  V30 19516 N 1934.97 4.38527 3.5164 0
M  V30 19517 H 1927.12 2.0878 0.390449 0
M  V30 19518 H 1929.38 0.918323 0.235346 0
M  V30 19519 H 1929.09 3.21151 1.4337 0
M  V30 19520 H 1928.96 2.34507 2.95442 0
M  V30 19521 H 1931.35 1.42492 2.58418 0
M  V30 19522 H 1931.43 2.32633 1.06375 0
M  V30 19523 H 1931.07 4.49828 2.35834 0
M  V30 19524 H 1931 3.56601 3.87484 0
M  V30 19525 H 1933.49 2.84138 2.49147 0
M  V30 19526 H 1933.81 6.20377 4.60817 0
M  V30 19527 H 1932.15 5.57507 4.14983 0
M  V30 19528 H 1935.34 3.57455 3.0223 0
M  V30 19529 H 1935.51 5.10769 3.98772 0
M  V30 19530 N 1928.92 -1.13255 1.09595 0
M  V30 19531 C 1930.34 -1.36563 0.825994 0
M  V30 19532 C 1930.54 -1.93595 -0.558844 0
M  V30 19533 O 1929.59 -2.15654 -1.31338 0
M  V30 19534 C 1930.91 -2.31535 1.91864 0
M  V30 19535 C 1932.45 -2.45147 1.94607 0
M  V30 19536 C 1932.93 -3.43427 3.03021 0
M  V30 19537 N 1934.42 -3.50979 3.02271 0
M  V30 19538 C 1935.15 -4.2691 3.82799 0
M  V30 19539 N 1934.65 -5.05981 4.73239 0
M  V30 19540 N 1936.44 -4.22229 3.71051 0
M  V30 19541 H 1928.59 -0.745889 1.98872 0
M  V30 19542 H 1930.86 -0.390727 0.863734 0
M  V30 19543 H 1930.56 -1.96788 2.91492 0
M  V30 19544 H 1930.44 -3.3157 1.79837 0
M  V30 19545 H 1932.82 -2.7918 0.956178 0
M  V30 19546 H 1932.91 -1.45031 2.10712 0
M  V30 19547 H 1932.55 -3.10126 4.02225 0
M  V30 19548 H 1932.48 -4.43352 2.84159 0
M  V30 19549 H 1934.97 -2.94562 2.36731 0
M  V30 19550 H 1935.28 -5.61231 5.31262 0
M  V30 19551 H 1933.63 -5.05208 4.77274 0
M  V30 19552 H 1936.82 -3.59534 2.99755 0
M  V30 19553 H 1936.99 -4.81152 4.34047 0
M  V30 19554 N 1930.4 -0.883401 -1.30514 0
M  V30 19555 C 1931.64 -0.507734 -1.97993 0
M  V30 19556 C 1932 0.925497 -1.68222 0
M  V30 19557 O 1933.2 1.40721 -2.29022 0
M  V30 19558 C 1931.47 -0.773081 -3.48939 0
M  V30 19559 S 1933.03 -0.499281 -4.3595 0
M  V30 19560 H 1929.85 -0.188981 -0.685425 0
M  V30 19561 H 1932.45 -1.14233 -1.58654 0
M  V30 19562 H 1931.16 -1.81472 -3.68098 0
M  V30 19563 H 1930.69 -0.125985 -3.93198 0
M  V30 19564 H 1932.7 0.662772 -4.91754 0
M  V30 19565 N 1931.88 1.43833 -0.644194 0
M  V30 19566 C 1933.13 2.01132 -0.151307 0
M  V30 19567 C 1933.44 1.51363 1.23889 0
M  V30 19568 O 1934.64 2.00876 1.8265 0
M  V30 19569 C 1933.1 3.59229 -0.219714 0
M  V30 19570 C 1932.71 4.17992 -1.61204 0
M  V30 19571 C 1934.45 4.2395 0.216034 0
M  V30 19572 C 1932.36 5.68354 -1.63486 0
M  V30 19573 H 1931.29 0.752149 -0.052802 0
M  V30 19574 H 1933.94 1.64904 -0.804907 0
M  V30 19575 H 1932.32 3.92815 0.501229 0
M  V30 19576 H 1933.5 3.95921 -2.35761 0
M  V30 19577 H 1931.81 3.65608 -1.99299 0
M  V30 19578 H 1934.41 5.34253 0.218703 0
M  V30 19579 H 1934.75 3.97222 1.24581 0
M  V30 19580 H 1935.28 3.95214 -0.452852 0
M  V30 19581 H 1932.02 5.99836 -2.64343 0
M  V30 19582 H 1931.54 5.92508 -0.93241 0
M  V30 19583 H 1933.22 6.3223 -1.37458 0
M  V30 19584 N 1933.35 0.385544 1.52811 0
M  V30 19585 C 1934.58 -0.197738 2.05652 0
M  V30 19586 C 1934.99 -1.41373 1.2574 0
M  V30 19587 O 1934.34 -1.81297 0.296184 0
M  V30 19588 C 1934.4 -0.636031 3.53829 0
M  V30 19589 C 1934.06 0.465981 4.54618 0
M  V30 19590 C 1935.06 1.3222 5.02806 0
M  V30 19591 C 1932.74 0.631936 4.98309 0
M  V30 19592 C 1934.74 2.32954 5.93305 0
M  V30 19593 C 1932.42 1.64261 5.8861 0
M  V30 19594 C 1933.42 2.48983 6.36 0
M  V30 19595 O 1933.11 3.48324 7.24518 0
M  V30 19596 H 1932.84 -0.0343646 0.675126 0
M  V30 19597 H 1935.4 0.548149 1.97951 0
M  V30 19598 H 1933.63 -1.43384 3.59135 0
M  V30 19599 H 1935.32 -1.14456 3.89429 0
M  V30 19600 H 1936.08 1.20528 4.69785 0
M  V30 19601 H 1931.96 -0.0177815 4.60997 0
M  V30 19602 H 1935.5 2.99118 6.30218 0
M  V30 19603 H 1931.4 1.75993 6.21045 0
M  V30 19604 H 1932.17 3.44288 7.42569 0
M  V30 19605 N 1934.83 -1.57178 0.115259 0
M  V30 19606 C 1936.06 -1.99415 -0.55147 0
M  V30 19607 C 1936.48 -0.994862 -1.60462 0
M  V30 19608 O 1935.83 0.0127831 -1.82496 0
M  V30 19609 C 1935.88 -3.41665 -1.18099 0
M  V30 19610 O 1935.6 -4.3777 -0.169944 0
M  V30 19611 C 1937.11 -3.99014 -1.9314 0
M  V30 19612 H 1934.33 -0.654856 -0.146302 0
M  V30 19613 H 1936.87 -2.03515 0.200495 0
M  V30 19614 H 1935.02 -3.38516 -1.88376 0
M  V30 19615 H 1935.44 -5.20741 -0.626853 0
M  V30 19616 H 1936.91 -5.00639 -2.32519 0
M  V30 19617 H 1937.39 -3.37947 -2.80515 0
M  V30 19618 H 1938 -4.05697 -1.27634 0
M  V30 19619 N 1936.31 0.158505 -1.56801 0
M  V30 19620 C 1937.54 0.892291 -1.87224 0
M  V30 19621 C 1937.96 1.74468 -0.703029 0
M  V30 19622 O 1937.32 1.77936 0.347649 0
M  V30 19623 C 1937.37 1.73433 -3.16154 0
M  V30 19624 O 1936.47 2.83736 -2.99279 0
M  V30 19625 H 1935.81 0.249214 -0.615458 0
M  V30 19626 H 1938.34 0.152785 -2.04029 0
M  V30 19627 H 1938.35 2.13168 -3.47884 0
M  V30 19628 H 1937.03 1.10831 -4.00861 0
M  V30 19629 H 1935.6 2.47491 -2.78931 0
M  V30 19630 N 1937.79 1.51692 0.427485 0
M  V30 19631 C 1939.02 1.68424 1.19653 0
M  V30 19632 C 1939.43 0.385349 1.85234 0
M  V30 19633 O 1938.77 -0.646942 1.71931 0
M  V30 19634 C 1938.83 2.75033 2.31511 0
M  V30 19635 C 1938.5 4.1734 1.86216 0
M  V30 19636 C 1939.49 5.01794 1.3601 0
M  V30 19637 C 1937.18 4.63488 1.93608 0
M  V30 19638 C 1939.17 6.30461 0.937946 0
M  V30 19639 C 1936.86 5.92149 1.51004 0
M  V30 19640 C 1937.86 6.75464 1.0118 0
M  V30 19641 O 1937.55 8.01718 0.591843 0
M  V30 19642 H 1937.28 0.568142 0.36632 0
M  V30 19643 H 1939.83 1.98929 0.511527 0
M  V30 19644 H 1938.06 2.39865 3.03318 0
M  V30 19645 H 1939.75 2.80546 2.9334 0
M  V30 19646 H 1940.52 4.6734 1.29686 0
M  V30 19647 H 1936.4 3.98755 2.31334 0
M  V30 19648 H 1939.94 6.95441 0.548362 0
M  V30 19649 H 1935.84 6.26116 1.57001 0
M  V30 19650 H 1936.6 8.15355 0.716808 0
M  V30 19651 N 1939.27 -0.683564 1.42004 0
M  V30 19652 C 1940.51 -1.44363 1.42005 0
M  V30 19653 C 1940.84 -1.94471 0.0333832 0
M  V30 19654 O 1940.1 -1.70716 -0.95679 0
M  V30 19655 C 1940.4 -2.66286 2.38383 0
M  V30 19656 C 1940.06 -2.34769 3.8496 0
M  V30 19657 C 1938.72 -2.25884 4.24888 0
M  V30 19658 C 1941.08 -2.09012 4.77455 0
M  V30 19659 C 1938.4 -1.89356 5.55303 0
M  V30 19660 C 1940.76 -1.73991 6.08202 0
M  V30 19661 C 1939.42 -1.6361 6.47138 0
M  V30 19662 H 1938.69 -0.528262 0.519634 0
M  V30 19663 H 1941.34 -0.780217 1.74885 0
M  V30 19664 H 1939.64 -3.37618 1.98799 0
M  V30 19665 H 1941.34 -3.24452 2.35652 0
M  V30 19666 H 1937.93 -2.42583 3.53343 0
M  V30 19667 H 1942.11 -2.14814 4.47402 0
M  V30 19668 H 1937.37 -1.79882 5.84339 0
M  V30 19669 H 1941.54 -1.53084 6.79366 0
M  V30 19670 H 1939.17 -1.35075 7.48103 0
M  V30 19671 N 1940.75 -1.28031 -0.919012 0
M  V30 19672 C 1941.68 -1.05827 -2.02178 0
M  V30 19673 C 1942.66 0.0240301 -1.62582 0
M  V30 19674 O 1943.84 -0.122854 -1.88099 0
M  V30 19675 C 1940.97 -0.607109 -3.33214 0
M  V30 19676 C 1940.01 -1.68527 -3.91792 0
M  V30 19677 S 1940.85 -3.27994 -4.23297 0
M  V30 19678 C 1942 -2.847 -5.57402 0
M  V30 19679 H 1942.24 -1.99194 -2.20702 0
M  V30 19680 H 1939.77 -1.1196 -1.06322 0
M  V30 19681 H 1941.73 -0.353498 -4.08975 0
M  V30 19682 H 1940.39 0.306635 -3.126 0
M  V30 19683 H 1939.58 -1.3211 -4.86377 0
M  V30 19684 H 1939.18 -1.89141 -3.22648 0
M  V30 19685 H 1941.47 -2.30544 -6.37068 0
M  V30 19686 H 1942.42 -3.78063 -5.98727 0
M  V30 19687 H 1942.83 -2.23575 -5.18338 0
M  V30 19688 N 1942.22 1.12672 -1.10194 0
M  V30 19689 C 1943.47 1.83763 -0.841168 0
M  V30 19690 C 1943.79 1.84369 0.635061 0
M  V30 19691 O 1943.06 1.30504 1.46101 0
M  V30 19692 H 1941.64 0.680461 -0.308192 0
M  V30 19693 H 1944.3 1.36447 -1.3917 0
M  V30 19694 H 1943.4 2.88034 -1.20178 0
M  V30 19695 N 1943.7 0.89031 1.30043 0
M  V30 19696 C 1945.12 0.585066 1.4849 0
M  V30 19697 C 1945.32 -0.87585 1.81469 0
M  V30 19698 O 1944.37 -1.6567 1.90551 0
M  V30 19699 C 1945.69 1.50281 2.60454 0
M  V30 19700 C 1947.23 1.50701 2.74332 0
M  V30 19701 C 1947.71 2.41081 3.89415 0
M  V30 19702 N 1949.2 2.39074 3.96734 0
M  V30 19703 C 1949.94 3.05715 4.85104 0
M  V30 19704 N 1949.43 3.81601 5.78232 0
M  V30 19705 N 1951.22 2.9492 4.78517 0
M  V30 19706 H 1943.38 1.83532 1.0691 0
M  V30 19707 H 1945.64 0.785901 0.530155 0
M  V30 19708 H 1945.34 2.54327 2.42921 0
M  V30 19709 H 1945.22 1.21634 3.5705 0
M  V30 19710 H 1947.61 0.474032 2.91268 0
M  V30 19711 H 1947.69 1.83381 1.7834 0
M  V30 19712 H 1947.33 3.44466 3.73236 0
M  V30 19713 H 1947.26 2.05714 4.84757 0
M  V30 19714 H 1949.75 1.83932 3.30117 0
M  V30 19715 H 1950.06 4.29528 6.42437 0
M  V30 19716 H 1948.41 3.85708 5.78147 0
M  V30 19717 H 1951.6 2.35158 4.04745 0
M  V30 19718 H 1951.77 3.47132 5.47178 0
M  V30 19719 N 1945.18 -1.43489 0.651812 0
M  V30 19720 C 1946.6 -1.56374 0.31925 0
M  V30 19721 C 1946.8 -1.63573 -1.1767 0
M  V30 19722 O 1945.85 -1.59003 -1.96149 0
M  V30 19723 C 1947.16 -2.82532 1.02937 0
M  V30 19724 C 1948.71 -2.96274 1.00949 0
M  V30 19725 C 1949.19 -4.25262 1.70047 0
M  V30 19726 N 1950.68 -4.32123 1.66805 0
M  V30 19727 C 1951.41 -5.30693 2.17146 0
M  V30 19728 N 1950.91 -6.3555 2.75769 0
M  V30 19729 N 1952.7 -5.22337 2.07654 0
M  V30 19730 H 1944.85 -1.3706 1.6226 0
M  V30 19731 H 1947.12 -0.658169 0.682289 0
M  V30 19732 H 1946.82 -2.83271 2.08448 0
M  V30 19733 H 1946.7 -3.72713 0.580047 0
M  V30 19734 H 1949.08 -2.95077 -0.0372118 0
M  V30 19735 H 1949.16 -2.07386 1.49749 0
M  V30 19736 H 1948.81 -4.2722 2.74673 0
M  V30 19737 H 1948.74 -5.13044 1.18714 0
M  V30 19738 H 1951.23 -3.56968 1.24024 0
M  V30 19739 H 1951.54 -7.0708 3.11861 0
M  V30 19740 H 1949.89 -6.36177 2.79829 0
M  V30 19741 H 1953.08 -4.39336 1.61561 0
M  V30 19742 H 1953.25 -5.98998 2.47195 0
M  V30 19743 N 1946.66 -0.393643 -1.52605 0
M  V30 19744 C 1947.89 0.1871 -2.06052 0
M  V30 19745 C 1948.3 1.40154 -1.26501 0
M  V30 19746 O 1947.66 1.798 -0.31279 0
M  V30 19747 C 1947.71 0.552918 -3.57246 0
M  V30 19748 O 1947.43 -0.613274 -4.33786 0
M  V30 19749 C 1948.93 1.18906 -4.27055 0
M  V30 19750 H 1946.15 0.0272042 -0.670448 0
M  V30 19751 H 1948.69 -0.560126 -1.9668 0
M  V30 19752 H 1946.85 1.25004 -3.66678 0
M  V30 19753 H 1947.26 -0.311611 -5.23574 0
M  V30 19754 H 1948.74 1.39535 -5.34073 0
M  V30 19755 H 1949.21 2.15768 -3.82545 0
M  V30 19756 H 1949.82 0.532579 -4.21952 0
M  V30 19757 N 1948.14 1.57115 -0.123593 0
M  V30 19758 C 1949.07 2.18573 0.821462 0
M  V30 19759 C 1950.05 1.1271 1.27399 0
M  V30 19760 O 1951.23 1.40964 1.33577 0
M  V30 19761 C 1948.36 2.78879 2.06987 0
M  V30 19762 C 1947.32 3.90365 1.75497 0
M  V30 19763 C 1946.64 4.37499 3.07406 0
M  V30 19764 C 1947.94 5.12249 1.01972 0
M  V30 19765 H 1949.64 2.97798 0.309319 0
M  V30 19766 H 1947.18 1.43244 0.147338 0
M  V30 19767 H 1949.13 3.20534 2.73562 0
M  V30 19768 H 1947.86 1.96951 2.60534 0
M  V30 19769 H 1946.52 3.49293 1.1131 0
M  V30 19770 H 1946.17 3.52424 3.58896 0
M  V30 19771 H 1945.87 5.12682 2.87108 0
M  V30 19772 H 1947.39 4.81808 3.75091 0
M  V30 19773 H 1948.8 5.50894 1.58709 0
M  V30 19774 H 1947.2 5.93044 0.917526 0
M  V30 19775 H 1948.27 4.84899 0.00726173 0
M  V30 19776 N 1949.61 -0.150187 1.56883 0
M  V30 19777 C 1950.86 -0.863336 1.83174 0
M  V30 19778 C 1951.19 -1.81313 0.703986 0
M  V30 19779 O 1950.44 -1.93273 -0.307235 0
M  V30 19780 C 1950.74 -1.67394 3.15775 0
M  V30 19781 C 1950.41 -0.871221 4.42403 0
M  V30 19782 C 1949.07 -0.649752 4.76793 0
M  V30 19783 C 1951.42 -0.309625 5.2028 0
M  V30 19784 C 1948.75 0.144072 5.86523 0
M  V30 19785 C 1951.1 0.471222 6.30843 0
M  V30 19786 C 1949.77 0.703297 6.63785 0
M  V30 19787 H 1949.04 -0.315917 0.670282 0
M  V30 19788 H 1951.68 -0.127141 1.91077 0
M  V30 19789 H 1949.99 -2.48015 3.03308 0
M  V30 19790 H 1951.69 -2.22915 3.33332 0
M  V30 19791 H 1948.28 -1.0539 4.15441 0
M  V30 19792 H 1952.46 -0.468015 4.94088 0
M  V30 19793 H 1947.72 0.333407 6.1049 0
M  V30 19794 H 1951.89 0.913535 6.90382 0
M  V30 19795 H 1949.52 1.32027 7.48647 0
M  V30 19796 N 1951.09 -1.51916 -0.419434 0
M  V30 19797 C 1952.34 -1.64698 -1.16436 0
M  V30 19798 C 1952.65 -0.377878 -1.91915 0
M  V30 19799 O 1953.86 -0.385341 -2.68752 0
M  V30 19800 C 1952.32 -2.90939 -2.11854 0
M  V30 19801 C 1951.92 -4.2492 -1.4194 0
M  V30 19802 C 1953.67 -3.13083 -2.86669 0
M  V30 19803 C 1951.58 -5.42294 -2.35946 0
M  V30 19804 H 1950.51 -0.613496 -0.438337 0
M  V30 19805 H 1953.16 -1.78397 -0.429738 0
M  V30 19806 H 1951.54 -2.70916 -2.88826 0
M  V30 19807 H 1952.71 -4.5539 -0.70403 0
M  V30 19808 H 1951.03 -4.08797 -0.792071 0
M  V30 19809 H 1953.62 -3.97951 -3.57127 0
M  V30 19810 H 1953.97 -2.26891 -3.49036 0
M  V30 19811 H 1954.5 -3.33531 -2.168 0
M  V30 19812 H 1951.24 -6.30801 -1.78242 0
M  V30 19813 H 1950.76 -5.16177 -3.05485 0
M  V30 19814 H 1952.44 -5.74962 -2.96695 0
M  V30 19815 N 1952.57 0.676023 -1.42365 0
M  V30 19816 C 1953.82 1.43324 -1.42487 0
M  V30 19817 C 1954.14 1.94955 -0.0418589 0
M  V30 19818 O 1953.41 1.72984 0.919418 0
M  V30 19819 H 1951.99 0.531857 -0.524535 0
M  V30 19820 H 1954.65 0.798867 -1.77775 0
M  V30 19821 H 1953.75 2.28686 -2.12389 0
M  V30 19822 N 1954.05 1.28517 0.912209 0
M  V30 19823 C 1955.29 1.17014 1.67592 0
M  V30 19824 C 1955.65 -0.27643 1.9 0
M  V30 19825 O 1956.85 -0.514187 2.63836 0
M  V30 19826 C 1955.12 1.94823 2.99631 0
M  V30 19827 S 1956.68 1.99713 3.90717 0
M  V30 19828 H 1953.5 0.417458 0.575543 0
M  V30 19829 H 1956.1 1.62637 1.08488 0
M  V30 19830 H 1954.81 2.99087 2.81025 0
M  V30 19831 H 1954.34 1.49757 3.63781 0
M  V30 19832 H 1956.35 1.10475 4.83745 0
M  V30 19833 N 1955.53 -1.12086 1.1079 0
M  V30 19834 C 1956.46 -2.17667 0.717897 0
M  V30 19835 C 1957.47 -1.60913 -0.247179 0
M  V30 19836 O 1958.66 -1.78473 -0.0310924 0
M  V30 19837 C 1955.76 -3.38877 0.0392451 0
M  V30 19838 C 1954.93 -4.25114 1.02943 0
M  V30 19839 C 1953.99 -5.24815 0.381583 0
M  V30 19840 O 1953.02 -5.59739 1.03348 0
M  V30 19841 N 1954.22 -5.74118 -0.858416 0
M  V30 19842 H 1956.99 -2.51737 1.6263 0
M  V30 19843 H 1954.55 -1.27544 0.997209 0
M  V30 19844 H 1956.54 -4.02661 -0.405715 0
M  V30 19845 H 1955.11 -3.02927 -0.771627 0
M  V30 19846 H 1954.33 -3.57889 1.65255 0
M  V30 19847 H 1955.62 -4.79575 1.69957 0
M  V30 19848 H 1955.01 -5.47915 -1.40734 0
M  V30 19849 H 1953.57 -6.39771 -1.24647 0
M  V30 19850 N 1957 -0.897194 -1.29569 0
M  V30 19851 C 1958.42 -0.570676 -1.77764 0
M  V30 19852 C 1958.77 0.913595 -1.73631 0
M  V30 19853 O 1957.89 1.71426 -1.32068 0
M  V30 19854 C 1958.49 -1.02914 -3.22791 0
M  V30 19855 C 1957.05 -0.753828 -3.68774 0
M  V30 19856 C 1956.19 -1.20525 -2.49738 0
M  V30 19857 H 1959.14 -1.08018 -1.16266 0
M  V30 19858 H 1959.16 -0.363343 -3.78761 0
M  V30 19859 H 1958.68 -2.10944 -3.25767 0
M  V30 19860 H 1956.78 0.313965 -3.71275 0
M  V30 19861 H 1956.89 -1.34995 -4.59688 0
M  V30 19862 H 1955.25 -0.624304 -2.4693 0
M  V30 19863 H 1956.04 -2.29355 -2.55443 0
M  V30 19864 N 1958.48 1.43142 -0.659413 0
M  V30 19865 C 1959.43 2.30783 0.0284037 0
M  V30 19866 C 1960.4 1.451 0.808407 0
M  V30 19867 O 1961.58 1.73959 0.783764 0
M  V30 19868 C 1958.72 3.30758 0.984529 0
M  V30 19869 C 1957.84 4.31537 0.199975 0
M  V30 19870 C 1956.97 5.18592 1.15046 0
M  V30 19871 C 1956.01 6.1106 0.356695 0
M  V30 19872 N 1955.15 6.90718 1.25909 0
M  V30 19873 H 1959.99 2.89051 -0.724821 0
M  V30 19874 H 1957.53 1.42392 -0.369192 0
M  V30 19875 H 1959.48 3.87236 1.55254 0
M  V30 19876 H 1958.11 2.74125 1.70456 0
M  V30 19877 H 1957.17 3.77303 -0.484425 0
M  V30 19878 H 1958.48 4.97054 -0.416974 0
M  V30 19879 H 1957.63 5.79727 1.7889 0
M  V30 19880 H 1956.37 4.53215 1.80131 0
M  V30 19881 H 1955.38 5.49008 -0.295063 0
M  V30 19882 H 1956.6 6.78481 -0.28984 0
M  V30 19883 H 1954.55 6.27984 1.89662 0
M  V30 19884 H 1954.46 7.52782 0.69685 0
M  V30 19885 H 1955.73 7.56353 1.88549 0
M  V30 19886 N 1959.96 0.40173 1.52394 0
M  V30 19887 C 1961.2 -0.176078 2.0364 0
M  V30 19888 C 1961.56 -1.43004 1.28117 0
M  V30 19889 O 1962.77 -2.08581 1.69551 0
M  V30 19890 C 1961.04 -0.425192 3.54862 0
M  V30 19891 S 1962.6 -0.971506 4.2791 0
M  V30 19892 H 1959.41 -0.0484885 0.709345 0
M  V30 19893 H 1962.02 0.552944 1.87517 0
M  V30 19894 H 1960.72 0.494352 4.07412 0
M  V30 19895 H 1960.25 -1.18229 3.75214 0
M  V30 19896 H 1962.27 -2.25275 4.42115 0
M  V30 19897 N 1961.44 -1.57047 0.131923 0
M  V30 19898 C 1962.68 -1.95921 -0.5237 0
M  V30 19899 C 1963.02 -1.01606 -1.65499 0
M  V30 19900 O 1962.29 -0.0556233 -1.9442 0
M  V30 19901 C 1962.58 -3.44629 -1.04418 0
M  V30 19902 C 1962.43 -4.4972 0.084583 0
M  V30 19903 C 1963.75 -3.9548 -1.93089 0
M  V30 19904 H 1960.87 -0.712382 -0.188894 0
M  V30 19905 H 1963.51 -1.88835 0.2101 0
M  V30 19906 H 1961.66 -3.50799 -1.6695 0
M  V30 19907 H 1963.33 -4.5564 0.720384 0
M  V30 19908 H 1961.57 -4.27339 0.745906 0
M  V30 19909 H 1962.24 -5.51066 -0.321051 0
M  V30 19910 H 1964.72 -3.91695 -1.40408 0
M  V30 19911 H 1963.6 -5.00025 -2.2642 0
M  V30 19912 H 1963.86 -3.36939 -2.86224 0
M  V30 19913 N 1962.92 0.141865 -1.5696 0
M  V30 19914 C 1964.33 0.494676 -1.5174 0
M  V30 19915 C 1964.53 1.83101 -0.8412 0
M  V30 19916 O 1963.59 2.49085 -0.413886 0
M  V30 19917 C 1964.9 0.500247 -2.9651 0
M  V30 19918 C 1966.45 0.585404 -3.07477 0
M  V30 19919 C 1966.92 0.621588 -4.53762 0
M  V30 19920 N 1968.42 0.683668 -4.58127 0
M  V30 19921 C 1969.15 0.732734 -5.68699 0
M  V30 19922 N 1968.65 0.740833 -6.88828 0
M  V30 19923 N 1970.44 0.774006 -5.56745 0
M  V30 19924 H 1962.59 -0.734022 -1.99314 0
M  V30 19925 H 1964.85 -0.268231 -0.909261 0
M  V30 19926 H 1964.56 -0.413562 -3.4926 0
M  V30 19927 H 1964.43 1.33632 -3.52735 0
M  V30 19928 H 1966.82 1.48963 -2.54743 0
M  V30 19929 H 1966.9 -0.277919 -2.54286 0
M  V30 19930 H 1966.55 -0.278504 -5.07136 0
M  V30 19931 H 1966.48 1.50147 -5.04741 0
M  V30 19932 H 1968.97 0.6845 -3.71649 0
M  V30 19933 H 1969.28 0.780262 -7.68851 0
M  V30 19934 H 1967.62 0.708625 -6.91378 0
M  V30 19935 H 1970.82 0.764885 -4.61809 0
M  V30 19936 H 1970.99 0.808779 -6.42933 0
M  V30 19937 N 1964.39 1.52136 0.411372 0
M  V30 19938 C 1965.62 1.6993 1.18031 0
M  V30 19939 C 1966.04 0.407806 1.84343 0
M  V30 19940 O 1965.39 -0.615981 1.7179 0
M  V30 19941 C 1965.45 2.83333 2.2451 0
M  V30 19942 O 1965.17 4.07482 1.60905 0
M  V30 19943 C 1966.67 3.12618 3.143 0
M  V30 19944 H 1963.89 0.569546 0.354765 0
M  V30 19945 H 1966.43 1.98683 0.484277 0
M  V30 19946 H 1964.59 2.57106 2.89785 0
M  V30 19947 H 1965 4.70657 2.31478 0
M  V30 19948 H 1966.47 3.95486 3.85091 0
M  V30 19949 H 1966.95 2.26078 3.76544 0
M  V30 19950 H 1967.56 3.40602 2.54697 0
M  V30 19951 N 1965.87 -0.668464 1.42721 0
M  V30 19952 C 1967.12 -1.43061 1.43741 0
M  V30 19953 C 1967.45 -1.9412 0.0558656 0
M  V30 19954 O 1966.73 -1.71317 -0.920904 0
M  V30 19955 C 1967.01 -2.62307 2.46712 0
M  V30 19956 C 1966.86 -2.16839 3.94082 0
M  V30 19957 C 1968.18 -3.64525 2.46596 0
M  V30 19958 H 1965.3 -0.518854 0.523412 0
M  V30 19959 H 1967.94 -0.759144 1.74175 0
M  V30 19960 H 1966.09 -3.19593 2.20891 0
M  V30 19961 H 1967.77 -1.64672 4.30907 0
M  V30 19962 H 1966.01 -1.48352 4.07645 0
M  V30 19963 H 1966.68 -3.02521 4.6172 0
M  V30 19964 H 1969.16 -3.16968 2.69574 0
M  V30 19965 H 1968.03 -4.45532 3.20613 0
M  V30 19966 H 1968.29 -4.16084 1.49421 0
M  V30 19967 N 1967.35 -1.28999 -0.905381 0
M  V30 19968 C 1968.6 -1.16014 -1.64996 0
M  V30 19969 C 1968.91 0.288766 -1.93457 0
M  V30 19970 O 1970.12 0.539847 -2.66079 0
M  V30 19971 C 1968.58 -2.02866 -2.97276 0
M  V30 19972 C 1968.18 -3.52547 -2.76432 0
M  V30 19973 C 1969.93 -1.98591 -3.75182 0
M  V30 19974 C 1967.83 -4.31522 -4.04404 0
M  V30 19975 H 1966.76 -0.430598 -0.618952 0
M  V30 19976 H 1969.42 -1.53594 -1.00404 0
M  V30 19977 H 1967.8 -1.5815 -3.63049 0
M  V30 19978 H 1968.97 -4.05277 -2.19287 0
M  V30 19979 H 1967.29 -3.58435 -2.11928 0
M  V30 19980 H 1969.88 -2.54859 -4.70054 0
M  V30 19981 H 1970.23 -0.964577 -4.04971 0
M  V30 19982 H 1970.76 -2.41321 -3.16242 0
M  V30 19983 H 1967.5 -5.3427 -3.79784 0
M  V30 19984 H 1967.02 -3.83563 -4.61129 0
M  V30 19985 H 1968.7 -4.41885 -4.72596 0
M  V30 19986 N 1968.83 1.11497 -1.11383 0
M  V30 19987 C 1970.06 1.87027 -0.884793 0
M  V30 19988 C 1970.47 1.80136 0.565362 0
M  V30 19989 O 1969.83 1.18222 1.39032 0
M  V30 19990 C 1969.88 3.35862 -1.33713 0
M  V30 19991 O 1969.6 3.42606 -2.73043 0
M  V30 19992 C 1971.1 4.283 -1.14342 0
M  V30 19993 H 1968.32 0.591449 -0.316905 0
M  V30 19994 H 1970.87 1.4102 -1.481 0
M  V30 19995 H 1969.02 3.79376 -0.784385 0
M  V30 19996 H 1969.44 4.35278 -2.92632 0
M  V30 19997 H 1970.91 5.30975 -1.50894 0
M  V30 19998 H 1971.39 4.39122 -0.0829321 0
M  V30 19999 H 1971.99 3.90578 -1.68312 0
M  V30 20000 N 1970.31 0.904053 1.29092 0
M  V30 20001 C 1971.72 0.600783 1.47861 0
M  V30 20002 C 1971.92 -0.856554 1.82388 0
M  V30 20003 O 1970.98 -1.6364 1.92297 0
M  V30 20004 C 1972.29 1.53035 2.58845 0
M  V30 20005 C 1973.84 1.53602 2.72719 0
M  V30 20006 C 1974.32 2.45197 3.86836 0
M  V30 20007 N 1975.81 2.43269 3.94176 0
M  V30 20008 C 1976.54 3.10843 4.81834 0
M  V30 20009 N 1976.04 3.87712 5.74153 0
M  V30 20010 N 1977.83 2.99979 4.75362 0
M  V30 20011 H 1969.98 1.84656 1.04957 0
M  V30 20012 H 1972.24 0.791479 0.52179 0
M  V30 20013 H 1971.95 2.5689 2.4021 0
M  V30 20014 H 1971.82 1.25414 3.5574 0
M  V30 20015 H 1974.21 0.504899 2.90749 0
M  V30 20016 H 1974.29 1.85262 1.76385 0
M  V30 20017 H 1973.94 3.48406 3.69562 0
M  V30 20018 H 1973.87 2.10844 4.82548 0
M  V30 20019 H 1976.36 1.87423 3.28148 0
M  V30 20020 H 1976.67 4.36317 6.37846 0
M  V30 20021 H 1975.02 3.91818 5.74024 0
M  V30 20022 H 1978.21 2.39437 4.02228 0
M  V30 20023 H 1978.38 3.52916 5.43465 0
M  V30 20024 N 1971.79 -1.4279 0.666995 0
M  V30 20025 C 1972.7 -2.34594 -0.0164305 0
M  V30 20026 C 1973.71 -1.54657 -0.797322 0
M  V30 20027 O 1974.89 -1.87256 -0.741426 0
M  V30 20028 C 1971.95 -3.33102 -0.961469 0
M  V30 20029 C 1971.01 -4.28939 -0.17598 0
M  V30 20030 C 1970.25 -5.22741 -1.076 0
M  V30 20031 O 1970.47 -5.21289 -2.31546 0
M  V30 20032 O 1969.4 -5.99464 -0.541001 0
M  V30 20033 H 1973.23 -2.94557 0.739579 0
M  V30 20034 H 1970.81 -1.43162 0.427207 0
M  V30 20035 H 1972.7 -3.93639 -1.5042 0
M  V30 20036 H 1971.37 -2.75623 -1.69746 0
M  V30 20037 H 1970.28 -3.71839 0.410667 0
M  V30 20038 H 1971.61 -4.89438 0.520737 0
M  V30 20039 N 1973.26 -0.409806 -1.52179 0
M  V30 20040 C 1974.5 0.165276 -2.03731 0
M  V30 20041 C 1974.87 1.42322 -1.28874 0
M  V30 20042 O 1976.07 2.07678 -1.70655 0
M  V30 20043 C 1974.34 0.406367 -3.55082 0
M  V30 20044 S 1975.9 0.9488 -4.28419 0
M  V30 20045 H 1972.72 0.044726 -0.709592 0
M  V30 20046 H 1975.32 -0.562881 -1.87222 0
M  V30 20047 H 1974.02 -0.515951 -4.07144 0
M  V30 20048 H 1973.55 1.16238 -3.75835 0
M  V30 20049 H 1975.57 2.22927 -4.43303 0
M  V30 20050 N 1974.74 1.56975 -0.14025 0
M  V30 20051 C 1975.98 1.97796 0.515374 0
M  V30 20052 C 1976.35 1.02298 1.62478 0
M  V30 20053 O 1977.55 1.32137 2.34079 0
M  V30 20054 C 1975.82 3.42691 1.01477 0
M  V30 20055 S 1977.38 4.05534 1.67594 0
M  V30 20056 H 1974.19 0.691143 0.166859 0
M  V30 20057 H 1976.8 1.94138 -0.230367 0
M  V30 20058 H 1975.5 4.09929 0.19647 0
M  V30 20059 H 1975.03 3.50047 1.79529 0
M  V30 20060 H 1977.05 3.98032 2.96285 0
M  V30 20061 N 1976.22 -0.133539 1.57033 0
M  V30 20062 C 1977.18 -1.14845 1.98351 0
M  V30 20063 C 1978.18 -1.3512 0.871734 0
M  V30 20064 O 1979.37 -1.31884 1.13808 0
M  V30 20065 C 1976.5 -2.506 2.31111 0
M  V30 20066 H 1977.7 -0.793667 2.89207 0
M  V30 20067 H 1975.25 -0.377348 1.51677 0
M  V30 20068 H 1975.99 -2.91026 1.43089 0
M  V30 20069 H 1975.77 -2.37242 3.12184 0
M  V30 20070 H 1977.26 -3.23672 2.63868 0
M  V30 20071 N 1977.7 -1.52352 -0.403298 0
M  V30 20072 C 1978.95 -1.66368 -1.14744 0
M  V30 20073 C 1979.27 -0.398899 -1.90876 0
M  V30 20074 O 1978.54 0.586372 -1.86918 0
M  V30 20075 H 1977.12 -0.613226 -0.426571 0
M  V30 20076 H 1979.78 -1.89416 -0.459075 0
M  V30 20077 H 1978.87 -2.50748 -1.85828 0
M  V30 20078 N 1979.18 0.660885 -1.43074 0
M  V30 20079 C 1980.42 1.42086 -1.44284 0
M  V30 20080 C 1980.75 1.94394 -0.0643177 0
M  V30 20081 O 1980.01 1.72217 0.929509 0
M  V30 20082 C 1980.3 2.6246 -2.42589 0
M  V30 20083 C 1979.97 2.28615 -3.88647 0
M  V30 20084 C 1978.63 2.19096 -4.28428 0
M  V30 20085 C 1980.98 2.0139 -4.8072 0
M  V30 20086 C 1978.31 1.80498 -5.58245 0
M  V30 20087 C 1980.66 1.64293 -6.10893 0
M  V30 20088 C 1979.33 1.53294 -6.49659 0
M  V30 20089 H 1978.6 0.519929 -0.527973 0
M  V30 20090 H 1981.25 0.752296 -1.76104 0
M  V30 20091 H 1979.55 3.34413 -2.04145 0
M  V30 20092 H 1981.25 3.20662 -2.40784 0
M  V30 20093 H 1977.84 2.36931 -3.57158 0
M  V30 20094 H 1982.02 2.0767 -4.50763 0
M  V30 20095 H 1977.28 1.70563 -5.87127 0
M  V30 20096 H 1981.45 1.42256 -6.81716 0
M  V30 20097 H 1979.08 1.23156 -7.50158 0
M  V30 20098 N 1980.65 1.29477 0.898527 0
M  V30 20099 C 1981.9 1.17516 1.64913 0
M  V30 20100 C 1982.23 -0.273086 1.92573 0
M  V30 20101 O 1981.48 -1.21353 1.53531 0
M  V30 20102 C 1981.78 1.93505 3.00484 0
M  V30 20103 C 1981.45 3.43216 2.92427 0
M  V30 20104 C 1980.11 3.84044 2.89937 0
M  V30 20105 C 1982.46 4.38611 2.81548 0
M  V30 20106 C 1979.79 5.18582 2.74389 0
M  V30 20107 C 1982.14 5.73241 2.67539 0
M  V30 20108 C 1980.81 6.13326 2.63416 0
M  V30 20109 H 1980.08 0.430023 0.603458 0
M  V30 20110 H 1982.72 1.60427 1.04572 0
M  V30 20111 H 1981.03 1.43189 3.64698 0
M  V30 20112 H 1982.73 1.81654 3.57495 0
M  V30 20113 H 1979.32 3.10763 2.95168 0
M  V30 20114 H 1983.5 4.0802 2.82548 0
M  V30 20115 H 1978.76 5.48748 2.69602 0
M  V30 20116 H 1982.93 6.46808 2.58093 0
M  V30 20117 H 1980.56 7.17523 2.51126 0
M  V30 20118 N 1982.13 -1.10905 1.11972 0
M  V30 20119 C 1983.38 -1.82401 0.870296 0
M  V30 20120 C 1983.7 -1.85356 -0.605649 0
M  V30 20121 O 1982.97 -1.32812 -1.44006 0
M  V30 20122 H 1981.55 -0.675471 0.318979 0
M  V30 20123 H 1984.21 -1.34216 1.41323 0
M  V30 20124 H 1983.31 -2.86086 1.24746 0
M  V30 20125 N 1983.61 -0.910886 -1.2861 0
M  V30 20126 C 1985.02 -0.589499 -1.77149 0
M  V30 20127 C 1985.37 0.895128 -1.74591 0
M  V30 20128 O 1984.5 1.70016 -1.33879 0
M  V30 20129 C 1985.09 -1.06332 -3.21682 0
M  V30 20130 C 1983.65 -0.792899 -3.67954 0
M  V30 20131 C 1982.8 -1.23167 -2.48445 0
M  V30 20132 H 1985.75 -1.09245 -1.15114 0
M  V30 20133 H 1985.77 -0.403495 -3.78355 0
M  V30 20134 H 1985.28 -2.14387 -3.23512 0
M  V30 20135 H 1983.38 0.274569 -3.71587 0
M  V30 20136 H 1983.5 -1.39863 -4.5823 0
M  V30 20137 H 1981.86 -0.650459 -2.46254 0
M  V30 20138 H 1982.64 -2.32051 -2.52996 0
M  V30 20139 N 1985.09 1.42434 -0.674558 0
M  V30 20140 C 1986.02 2.2916 0.0428589 0
M  V30 20141 C 1987.03 1.43667 0.765749 0
M  V30 20142 O 1988.22 1.67388 0.619947 0
M  V30 20143 C 1985.32 3.21083 1.08439 0
M  V30 20144 C 1984.5 4.35228 0.435368 0
M  V30 20145 C 1983.55 5.07873 1.37665 0
M  V30 20146 O 1982.58 5.62402 0.877047 0
M  V30 20147 N 1983.78 5.13364 2.70994 0
M  V30 20148 H 1986.55 2.91372 -0.701618 0
M  V30 20149 H 1984.11 1.53357 -0.518954 0
M  V30 20150 H 1986.1 3.66548 1.71535 0
M  V30 20151 H 1984.67 2.60324 1.7306 0
M  V30 20152 H 1983.89 3.92411 -0.375103 0
M  V30 20153 H 1985.18 5.08797 -0.0167882 0
M  V30 20154 H 1984.58 4.70472 3.14122 0
M  V30 20155 H 1983.13 5.62476 3.29338 0
M  V30 20156 N 1986.57 0.417871 1.51959 0
M  V30 20157 C 1987.81 -0.154469 2.03815 0
M  V30 20158 C 1988.17 -1.41637 1.29627 0
M  V30 20159 O 1989.37 -2.06771 1.71754 0
M  V30 20160 C 1987.64 -0.387531 3.55293 0
M  V30 20161 S 1989.2 -0.926066 4.28917 0
M  V30 20162 H 1986.02 -0.0409623 0.709819 0
M  V30 20163 H 1988.62 0.572802 1.8692 0
M  V30 20164 H 1987.33 0.537536 4.06864 0
M  V30 20165 H 1986.86 -1.14243 3.76447 0
M  V30 20166 H 1988.87 -2.20573 4.44479 0
M  V30 20167 N 1988.04 -1.56898 0.148573 0
M  V30 20168 C 1988.98 -2.13971 -0.821526 0
M  V30 20169 C 1989.99 -1.08955 -1.20965 0
M  V30 20170 O 1991.18 -1.36226 -1.15346 0
M  V30 20171 C 1988.28 -2.6488 -2.11404 0
M  V30 20172 C 1987.45 -3.94313 -1.89303 0
M  V30 20173 C 1986.51 -4.30517 -3.02558 0
M  V30 20174 O 1985.54 -4.98812 -2.74181 0
M  V30 20175 N 1986.74 -3.90226 -4.29772 0
M  V30 20176 H 1989.5 -2.97836 -0.333735 0
M  V30 20177 H 1987.06 -1.61862 -0.0349479 0
M  V30 20178 H 1989.06 -2.86112 -2.8622 0
M  V30 20179 H 1987.63 -1.85731 -2.51441 0
M  V30 20180 H 1986.85 -3.81692 -0.985147 0
M  V30 20181 H 1988.13 -4.7889 -1.71877 0
M  V30 20182 H 1987.53 -3.352 -4.55694 0
M  V30 20183 H 1986.09 -4.16506 -5.01364 0
M  V30 20184 N 1989.52 0.125209 -1.57102 0
M  V30 20185 C 1990.93 0.683017 -1.73758 0
M  V30 20186 C 1991.28 1.80615 -0.766324 0
M  V30 20187 O 1990.41 2.16311 0.0621742 0
M  V30 20188 C 1991 1.24576 -3.15066 0
M  V30 20189 C 1989.56 1.74992 -3.33249 0
M  V30 20190 C 1988.71 0.647107 -2.69644 0
M  V30 20191 H 1991.66 -0.100657 -1.5838 0
M  V30 20192 H 1991.68 2.11547 -3.16272 0
M  V30 20193 H 1991.19 0.4281 -3.85732 0
M  V30 20194 H 1989.3 2.59255 -2.67615 0
M  V30 20195 H 1989.41 1.86364 -4.41368 0
M  V30 20196 H 1987.77 1.07918 -2.30707 0
M  V30 20197 H 1988.56 -0.159469 -3.42929 0
M  V30 20198 N 1991 1.52564 0.395213 0
M  V30 20199 C 1992.24 1.68989 1.14987 0
M  V30 20200 C 1992.6 0.417729 1.87401 0
M  V30 20201 O 1993.81 0.458262 2.64865 0
M  V30 20202 C 1992.08 2.88689 2.10698 0
M  V30 20203 S 1993.64 3.2567 2.94083 0
M  V30 20204 H 1990.45 0.594929 0.389333 0
M  V30 20205 H 1993.06 1.90595 0.435173 0
M  V30 20206 H 1991.76 3.79509 1.5621 0
M  V30 20207 H 1991.29 2.69398 2.86685 0
M  V30 20208 H 1993.31 2.75374 4.12776 0
M  V30 20209 N 1992.48 -0.653289 1.43422 0
M  V30 20210 C 1993.89 -1.23446 1.40064 0
M  V30 20211 C 1994.24 -1.95921 0.104677 0
M  V30 20212 O 1993.37 -2.01233 -0.79588 0
M  V30 20213 C 1993.96 -2.24523 2.53722 0
M  V30 20214 C 1992.52 -2.78117 2.53629 0
M  V30 20215 C 1991.67 -1.52759 2.3143 0
M  V30 20216 H 1994.62 -0.445312 1.52324 0
M  V30 20217 H 1994.64 -3.06696 2.25207 0
M  V30 20218 H 1994.15 -1.71746 3.4803 0
M  V30 20219 H 1992.25 -3.34957 1.632 0
M  V30 20220 H 1992.36 -3.25667 3.51394 0
M  V30 20221 H 1990.73 -1.80104 1.80096 0
M  V30 20222 H 1991.51 -1.01917 3.27823 0
M  V30 20223 N 1993.96 -1.29952 -0.891648 0
M  V30 20224 C 1995.2 -1.18155 -1.63963 0
M  V30 20225 C 1995.53 0.265477 -1.93184 0
M  V30 20226 O 1994.8 1.1802 -1.56359 0
M  V30 20227 H 1993.38 -0.434297 -0.607779 0
M  V30 20228 H 1996.04 -1.62988 -1.06869 0
M  V30 20229 H 1995.13 -1.73753 -2.59261 0
M  V30 20230 N 1995.44 1.1031 -1.12559 0
M  V30 20231 C 1996.38 2.18777 -0.789907 0
M  V30 20232 C 1997.38 1.67915 0.223815 0
M  V30 20233 O 1998.58 1.79814 0.0818894 0
M  V30 20234 H 1994.96 0.713472 -0.237618 0
M  V30 20235 H 1996.93 2.44328 -1.71308 0
M  V30 20236 C 1995.68 3.4671 -0.26223 0
M  V30 20237 H 1995 3.86209 -1.03356 0
M  V30 20238 H 1996.44 4.23949 -0.0656758 0
M  V30 20239 C 1994.9 3.21401 1.01011 0
M  V30 20240 O 1995.43 3.4319 2.08767 0
M  V30 20241 N 1993.64 2.7506 0.937571 0
M  V30 20242 H 1993.18 2.57529 0.0605557 0
M  V30 20243 H 1993.14 2.58503 1.78951 0
M  V30 20244 N 1996.91 0.917694 1.28125 0
M  V30 20245 C 1997.88 0.413823 2.25433 0
M  V30 20246 C 1998.88 -0.46205 1.54019 0
M  V30 20247 O 2000.07 -0.264546 1.7218 0
M  V30 20248 C 1997.2 -0.406249 3.38471 0
M  V30 20249 H 1998.39 1.27345 2.7152 0
M  V30 20250 H 1995.94 0.697455 1.39876 0
M  V30 20251 H 1996.68 -1.28511 2.97751 0
M  V30 20252 H 1996.46 0.221601 3.91473 0
M  V30 20253 H 1997.95 -0.749491 4.10819 0
M  V30 20254 N 1998.39 -1.42074 0.682102 0
M  V30 20255 C 1999.32 -2.29179 -0.0307054 0
M  V30 20256 C 2000.34 -1.44071 -0.758119 0
M  V30 20257 O 2001.53 -1.67715 -0.611062 0
M  V30 20258 C 1998.63 -3.21654 -1.06734 0
M  V30 20259 C 1997.8 -4.35453 -0.41228 0
M  V30 20260 C 1996.86 -5.08596 -1.34969 0
M  V30 20261 O 1995.88 -5.6286 -0.847209 0
M  V30 20262 N 1997.09 -5.14794 -2.68267 0
M  V30 20263 H 1999.85 -2.90995 0.71706 0
M  V30 20264 H 1997.41 -1.5308 0.52708 0
M  V30 20265 H 1999.4 -3.67453 -1.69589 0
M  V30 20266 H 1997.97 -2.61239 -1.71677 0
M  V30 20267 H 1997.19 -3.92207 0.395908 0
M  V30 20268 H 1998.48 -5.08781 0.0437707 0
M  V30 20269 H 1997.88 -4.72131 -3.11623 0
M  V30 20270 H 1996.44 -5.64215 -3.26351 0
M  V30 20271 N 1999.87 -0.425924 -1.51735 0
M  V30 20272 C 2000.82 0.405756 -2.29034 0
M  V30 20273 C 2001.81 1.03103 -1.3441 0
M  V30 20274 O 2003.02 0.967304 -1.518 0
M  V30 20275 H 1999.39 0.149651 -0.736959 0
M  V30 20276 H 2001.36 -0.267185 -2.97201 0
M  V30 20277 C 2000.11 1.50091 -3.13637 0
M  V30 20278 H 1999.44 1.02912 -3.86328 0
M  V30 20279 H 2000.88 2.05632 -3.70799 0
M  V30 20280 C 1999.33 2.47775 -2.28274 0
M  V30 20281 O 1999.86 3.52051 -1.9345 0
M  V30 20282 N 1998.07 2.18387 -1.91717 0
M  V30 20283 H 1997.62 1.3362 -2.20235 0
M  V30 20284 H 1997.58 2.83989 -1.34897 0
M  V30 20285 N 2001.35 1.56817 -0.156891 0
M  V30 20286 C 2002.59 1.9673 0.492464 0
M  V30 20287 C 2002.93 1.04226 1.63862 0
M  V30 20288 O 2002.2 0.0865469 1.94307 0
M  V30 20289 C 2002.48 3.46246 0.989218 0
M  V30 20290 C 2002.34 4.49529 -0.156119 0
M  V30 20291 C 2003.66 3.98502 1.86773 0
M  V30 20292 H 2000.78 0.715297 0.177537 0
M  V30 20293 H 2003.42 1.88477 -0.240116 0
M  V30 20294 H 2001.57 3.53411 1.61348 0
M  V30 20295 H 2003.24 4.54437 -0.792781 0
M  V30 20296 H 2001.48 4.26098 -0.813797 0
M  V30 20297 H 2002.15 5.51507 0.233341 0
M  V30 20298 H 2004.63 3.93879 1.34159 0
M  V30 20299 H 2003.51 5.03564 2.18436 0
M  V30 20300 H 2003.77 3.4145 2.80828 0
M  V30 20301 N 2002.83 -0.116876 1.57166 0
M  V30 20302 C 2004.07 -0.830154 1.86783 0
M  V30 20303 C 2004.43 -1.76951 0.74515 0
M  V30 20304 O 2005.63 -2.52451 0.923144 0
M  V30 20305 C 2003.9 -1.55852 3.21629 0
M  V30 20306 S 2005.46 -2.31308 3.72884 0
M  V30 20307 H 2002.28 -0.277026 0.654811 0
M  V30 20308 H 2004.88 -0.0883909 1.953 0
M  V30 20309 H 2003.58 -0.860448 4.01279 0
M  V30 20310 H 2003.12 -2.34061 3.16194 0
M  V30 20311 H 2005.13 -3.57066 3.44555 0
M  V30 20312 N 2004.3 -1.52772 -0.387116 0
M  V30 20313 C 2005.55 -1.67907 -1.13196 0
M  V30 20314 C 2005.88 -0.419946 -1.89912 0
M  V30 20315 O 2005.13 0.5977 -1.86349 0
M  V30 20316 C 2005.43 -2.86632 -2.13487 0
M  V30 20317 C 2005.1 -4.23999 -1.53414 0
M  V30 20318 C 2003.76 -4.61358 -1.36757 0
M  V30 20319 C 2006.11 -5.09513 -1.09756 0
M  V30 20320 C 2003.44 -5.81887 -0.749927 0
M  V30 20321 C 2005.79 -6.30668 -0.494012 0
M  V30 20322 C 2004.46 -6.66757 -0.314755 0
M  V30 20323 H 2003.73 -0.614416 -0.414214 0
M  V30 20324 H 2006.37 -1.86919 -0.416362 0
M  V30 20325 H 2004.68 -2.62045 -2.91273 0
M  V30 20326 H 2006.38 -2.95538 -2.71032 0
M  V30 20327 H 2002.97 -3.94571 -1.67367 0
M  V30 20328 H 2007.15 -4.81217 -1.21426 0
M  V30 20329 H 2002.41 -6.08456 -0.599259 0
M  V30 20330 H 2006.58 -6.96244 -0.14743 0
M  V30 20331 H 2004.21 -7.60019 0.165924 0
M  V30 20332 N 2005.78 0.645673 -1.43767 0
M  V30 20333 C 2007.03 1.4027 -1.45495 0
M  V30 20334 C 2007.35 1.94822 -0.0832023 0
M  V30 20335 O 2006.62 1.74895 0.882519 0
M  V30 20336 H 2005.2 0.520611 -0.535699 0
M  V30 20337 H 2007.86 0.760978 -1.7943 0
M  V30 20338 H 2006.96 2.24129 -2.17192 0
M  V30 20339 N 2007.26 1.30423 0.884744 0
M  V30 20340 C 2008.21 1.1673 2.01188 0
M  V30 20341 C 2009.2 0.0791439 1.69215 0
M  V30 20342 O 2010.41 0.24001 1.78393 0
M  V30 20343 H 2006.78 0.361014 0.659676 0
M  V30 20344 H 2008.75 2.12124 2.09871 0
M  V30 20345 C 2007.5 0.876173 3.3648 0
M  V30 20346 H 2006.83 1.70557 3.61594 0
M  V30 20347 H 2008.27 0.820477 4.15986 0
M  V30 20348 C 2006.72 -0.420908 3.3426 0
M  V30 20349 O 2007.25 -1.44235 3.74912 0
M  V30 20350 N 2005.46 -0.432149 2.87369 0
M  V30 20351 H 2005.01 0.399559 2.54482 0
M  V30 20352 H 2004.97 -1.29995 2.86267 0
M  V30 20353 N 2008.74 -1.09711 1.13142 0
M  V30 20354 C 2009.99 -1.81468 0.889593 0
M  V30 20355 C 2010.31 -1.85988 -0.585956 0
M  V30 20356 O 2009.58 -1.34332 -1.42589 0
M  V30 20357 H 2008.16 -0.67205 0.326125 0
M  V30 20358 H 2010.82 -1.32709 1.42739 0
M  V30 20359 H 2009.91 -2.84746 1.27773 0
M  V30 20360 N 2010.22 -0.924476 -1.27637 0
M  V30 20361 C 2011.47 -0.559056 -1.93797 0
M  V30 20362 C 2011.78 0.903501 -1.73483 0
M  V30 20363 O 2012.98 1.37756 -2.33956 0
M  V30 20364 C 2011.44 -0.949035 -3.47162 0
M  V30 20365 C 2011.05 -2.43205 -3.76238 0
M  V30 20366 C 2012.79 -0.654714 -4.19421 0
M  V30 20367 C 2010.7 -2.7616 -5.22962 0
M  V30 20368 H 2009.63 -0.205363 -0.725494 0
M  V30 20369 H 2012.28 -1.12485 -1.4498 0
M  V30 20370 H 2010.66 -0.311922 -3.9477 0
M  V30 20371 H 2011.84 -3.1168 -3.39399 0
M  V30 20372 H 2010.15 -2.69794 -3.17176 0
M  V30 20373 H 2012.75 -0.877465 -5.27451 0
M  V30 20374 H 2013.09 0.407944 -4.14296 0
M  V30 20375 H 2013.62 -1.25078 -3.77625 0
M  V30 20376 H 2010.36 -3.81322 -5.33173 0
M  V30 20377 H 2009.88 -2.12332 -5.60959 0
M  V30 20378 H 2011.56 -2.63732 -5.90808 0
M  V30 20379 N 2011.69 1.41711 -0.689627 0
M  V30 20380 C 2012.93 2.03189 -0.222164 0
M  V30 20381 C 2013.3 1.53416 1.15445 0
M  V30 20382 O 2014.5 2.06781 1.71742 0
M  V30 20383 C 2012.77 3.56371 -0.271028 0
M  V30 20384 S 2014.33 4.38627 0.12326 0
M  V30 20385 H 2011.15 0.705282 -0.0899882 0
M  V30 20386 H 2013.75 1.73235 -0.906082 0
M  V30 20387 H 2012.45 3.90091 -1.27502 0
M  V30 20388 H 2011.98 3.91018 0.432235 0
M  V30 20389 H 2014 4.77408 1.35264 0
M  V30 20390 N 2013.17 0.433965 1.51507 0
M  V30 20391 C 2014.1 -0.369789 2.30553 0
M  V30 20392 C 2015.08 -1.02405 1.35821 0
M  V30 20393 O 2016.27 -1.02833 1.64739 0
M  V30 20394 C 2013.4 -1.47312 3.1451 0
M  V30 20395 C 2012.35 -0.942531 4.17493 0
M  V30 20396 C 2011.68 -2.14135 4.89949 0
M  V30 20397 C 2012.98 0.0206958 5.22296 0
M  V30 20398 H 2014.67 0.289851 2.97994 0
M  V30 20399 H 2012.22 0.14084 1.4331 0
M  V30 20400 H 2014.17 -2.04259 3.68587 0
M  V30 20401 H 2012.9 -2.161 2.44884 0
M  V30 20402 H 2011.55 -0.395296 3.64463 0
M  V30 20403 H 2011.2 -2.81535 4.1683 0
M  V30 20404 H 2010.9 -1.79273 5.59584 0
M  V30 20405 H 2012.43 -2.71642 5.46848 0
M  V30 20406 H 2013.84 -0.458366 5.71465 0
M  V30 20407 H 2012.24 0.281718 5.99438 0
M  V30 20408 H 2013.31 0.958416 4.75334 0
M  V30 20409 N 2014.65 -1.56732 0.165206 0
M  V30 20410 C 2015.93 -1.88357 -0.527344 0
M  V30 20411 C 2016.31 -1.07412 -1.8173 0
M  V30 20412 O 2015.66 -0.166236 -2.27895 0
M  V30 20413 C 2015.87 -3.40282 -0.775175 0
M  V30 20414 C 2017.21 -4.09891 -1.10789 0
M  V30 20415 O 2018.24 -3.45565 -0.863921 0
M  V30 20416 O 2017.1 -5.23527 -1.56787 0
M  V30 20417 H 2014.19 -0.781304 -0.271096 0
M  V30 20418 H 2016.74 -1.68479 0.203183 0
M  V30 20419 H 2015.51 -3.9106 0.137 0
M  V30 20420 H 2015.13 -3.65751 -1.55924 0
M  V30 20421 N 2016.13 0.10854 -1.57226 0
M  V30 20422 C 2017.38 0.812858 -1.85033 0
M  V30 20423 C 2017.7 1.79919 -0.751944 0
M  V30 20424 O 2016.97 1.94626 0.223093 0
M  V30 20425 H 2015.55 0.303181 -0.682708 0
M  V30 20426 H 2018.21 0.0933699 -1.94676 0
M  V30 20427 H 2017.31 1.35169 -2.81311 0
M  V30 20428 N 2017.61 1.52975 0.379009 0
M  V30 20429 C 2018.85 1.68755 1.12471 0
M  V30 20430 C 2019.19 0.431242 1.89351 0
M  V30 20431 O 2018.46 -0.571204 1.85923 0
M  V30 20432 C 2018.74 2.92896 2.09485 0
M  V30 20433 C 2018.6 4.28651 1.36302 0
M  V30 20434 C 2019.92 3.12604 3.09785 0
M  V30 20435 H 2017.03 0.614092 0.407504 0
M  V30 20436 H 2019.68 1.8559 0.406972 0
M  V30 20437 H 2017.83 2.78673 2.70691 0
M  V30 20438 H 2019.5 4.54661 0.779841 0
M  V30 20439 H 2017.74 4.28675 0.664851 0
M  V30 20440 H 2018.41 5.1162 2.07241 0
M  V30 20441 H 2020.89 3.25924 2.58675 0
M  V30 20442 H 2019.76 4.00924 3.74901 0
M  V30 20443 H 2020.03 2.27272 3.79209 0
M  V30 20444 N 2019.08 -0.63804 1.44107 0
M  V30 20445 C 2020.03 -1.77153 1.5073 0
M  V30 20446 C 2021.03 -1.65093 0.379567 0
M  V30 20447 O 2022.23 -1.71255 0.554218 0
M  V30 20448 H 2018.61 -0.584742 0.472843 0
M  V30 20449 H 2020.58 -1.68689 2.46143 0
M  V30 20450 C 2019.33 -3.15467 1.46204 0
M  V30 20451 H 2018.65 -3.25392 2.32293 0
M  V30 20452 H 2020.09 -3.94693 1.54899 0
M  V30 20453 C 2018.55 -3.36409 0.181784 0
M  V30 20454 O 2019.08 -3.94621 -0.750818 0
M  V30 20455 N 2017.29 -2.90469 0.0871207 0
M  V30 20456 H 2016.83 -2.43281 0.846871 0
M  V30 20457 H 2016.79 -3.04857 -0.768744 0
M  V30 20458 N 2020.56 -1.3089 -0.877815 0
M  V30 20459 C 2021.81 -1.19888 -1.627 0
M  V30 20460 C 2022.13 0.244972 -1.93455 0
M  V30 20461 O 2021.4 1.16355 -1.57602 0
M  V30 20462 H 2019.98 -0.440719 -0.603138 0
M  V30 20463 H 2022.64 -1.64112 -1.05134 0
M  V30 20464 H 2021.74 -1.76493 -2.57404 0
M  V30 20465 N 2022.04 1.0911 -1.13723 0
M  V30 20466 C 2023.27 1.85108 -0.924265 0
M  V30 20467 C 2023.68 1.81295 0.527025 0
M  V30 20468 O 2023.04 1.21144 1.36493 0
M  V30 20469 C 2023.09 3.3295 -1.40807 0
M  V30 20470 O 2022.81 3.36738 -2.80249 0
M  V30 20471 C 2024.31 4.25778 -1.23401 0
M  V30 20472 H 2021.53 0.584594 -0.329379 0
M  V30 20473 H 2024.08 1.37847 -1.51058 0
M  V30 20474 H 2022.23 3.77627 -0.864679 0
M  V30 20475 H 2022.65 4.28973 -3.01799 0
M  V30 20476 H 2024.12 5.27655 -1.62123 0
M  V30 20477 H 2024.6 4.38847 -0.176058 0
M  V30 20478 H 2025.2 3.8692 -1.76559 0
M  V30 20479 N 2023.52 0.931232 1.27145 0
M  V30 20480 C 2024.77 0.572394 1.93825 0
M  V30 20481 C 2025.09 -0.88981 1.73515 0
M  V30 20482 O 2024.36 -1.63113 1.08494 0
M  V30 20483 H 2022.94 0.2087 0.717254 0
M  V30 20484 H 2025.6 1.18439 1.54784 0
M  V30 20485 H 2024.7 0.781679 3.02153 0
M  V30 20486 N 2025 -1.41343 0.697132 0
M  V30 20487 C 2026.24 -2.01502 0.229099 0
M  V30 20488 C 2026.58 -1.55093 -1.16875 0
M  V30 20489 O 2025.85 -0.7628 -1.78918 0
M  V30 20490 C 2026.13 -3.58942 0.288524 0
M  V30 20491 C 2025.99 -4.15473 1.72343 0
M  V30 20492 C 2027.31 -4.387 -0.350786 0
M  V30 20493 H 2024.43 -0.732114 0.0847216 0
M  V30 20494 H 2027.07 -1.6807 0.886148 0
M  V30 20495 H 2025.22 -3.87554 -0.270916 0
M  V30 20496 H 2026.89 -3.97731 2.33684 0
M  V30 20497 H 2025.13 -3.70456 2.25709 0
M  V30 20498 H 2025.8 -5.24632 1.71653 0
M  V30 20499 H 2028.28 -4.1591 0.125682 0
M  V30 20500 H 2027.16 -5.48192 -0.27867 0
M  V30 20501 H 2027.42 -4.18275 -1.43172 0
M  V30 20502 N 2026.48 -0.441993 -1.51275 0
M  V30 20503 C 2027.72 0.122024 -2.04035 0
M  V30 20504 C 2028.08 1.39557 -1.31863 0
M  V30 20505 O 2029.28 2.04012 -1.75022 0
M  V30 20506 C 2027.55 0.330958 -3.55864 0
M  V30 20507 S 2029.11 0.857712 -4.30336 0
M  V30 20508 H 2025.93 0.0296645 -0.710381 0
M  V30 20509 H 2028.53 -0.602467 -1.85985 0
M  V30 20510 H 2027.23 -0.602196 -4.05958 0
M  V30 20511 H 2026.77 1.0824 -3.78217 0
M  V30 20512 H 2028.78 2.13474 -4.47932 0
M  V30 20513 N 2027.95 1.56642 -0.173515 0
M  V30 20514 C 2028.86 2.2166 0.768363 0
M  V30 20515 C 2029.88 1.20892 1.25144 0
M  V30 20516 O 2031.06 1.53561 1.30311 0
M  V30 20517 C 2028.12 2.84632 1.97953 0
M  V30 20518 C 2027.18 4.00608 1.54312 0
M  V30 20519 C 2026.41 4.60567 2.69655 0
M  V30 20520 O 2026.64 4.19419 3.8658 0
M  V30 20521 O 2025.57 5.50401 2.43604 0
M  V30 20522 H 2029.4 3.02712 0.244753 0
M  V30 20523 H 2026.98 1.493 0.0547846 0
M  V30 20524 H 2028.86 3.24553 2.68782 0
M  V30 20525 H 2027.54 2.06575 2.49215 0
M  V30 20526 H 2026.45 3.65352 0.804264 0
M  V30 20527 H 2027.78 4.80264 1.07738 0
M  V30 20528 N 2029.43 -0.1002 1.57281 0
M  V30 20529 C 2030.67 -0.810297 1.87653 0
M  V30 20530 C 2031.04 -1.7615 0.763876 0
M  V30 20531 O 2032.24 -2.51458 0.949868 0
M  V30 20532 C 2030.51 -1.52432 3.23264 0
M  V30 20533 S 2032.07 -2.2734 3.75316 0
M  V30 20534 H 2028.88 -0.270065 0.657713 0
M  V30 20535 H 2031.49 -0.0676718 1.95383 0
M  V30 20536 H 2030.19 -0.817839 4.02169 0
M  V30 20537 H 2029.72 -2.30694 3.18659 0
M  V30 20538 H 2031.74 -3.53392 3.48323 0
M  V30 20539 N 2030.91 -1.53174 -0.370891 0
M  V30 20540 C 2032.16 -1.68764 -1.11189 0
M  V30 20541 C 2032.48 -0.439297 -1.89987 0
M  V30 20542 O 2031.75 0.546592 -1.8812 0
M  V30 20543 H 2030.33 -0.622136 -0.413467 0
M  V30 20544 H 2032.99 -1.90347 -0.418794 0
M  V30 20545 H 2032.09 -2.54633 -1.80468 0
M  V30 20546 N 2032.39 0.630389 -1.44443 0
M  V30 20547 C 2033.3 1.77101 -1.53859 0
M  V30 20548 C 2034.31 1.68749 -0.424221 0
M  V30 20549 O 2035.49 1.89513 -0.681673 0
M  V30 20550 C 2032.55 3.13487 -1.48077 0
M  V30 20551 C 2031.62 3.33464 -2.7037 0
M  V30 20552 C 2030.85 4.63344 -2.64855 0
M  V30 20553 O 2031.07 5.44196 -1.70899 0
M  V30 20554 O 2030.01 4.85539 -3.55718 0
M  V30 20555 H 2033.83 1.7211 -2.50223 0
M  V30 20556 H 2031.42 0.791704 -1.26698 0
M  V30 20557 H 2033.3 3.94788 -1.47378 0
M  V30 20558 H 2031.97 3.19018 -0.54856 0
M  V30 20559 H 2030.88 2.51839 -2.76637 0
M  V30 20560 H 2032.21 3.32795 -3.6264 0
M  V30 20561 N 2033.87 1.31354 0.870861 0
M  V30 20562 C 2035.11 1.20749 1.62062 0
M  V30 20563 C 2035.43 -0.234709 1.93582 0
M  V30 20564 O 2034.7 -1.15517 1.58217 0
M  V30 20565 H 2033.28 0.443911 0.600793 0
M  V30 20566 H 2035.95 1.64667 1.04262 0
M  V30 20567 H 2035.04 1.77855 2.56464 0
M  V30 20568 N 2035.34 -1.08505 1.143 0
M  V30 20569 C 2036.59 -1.80872 0.910589 0
M  V30 20570 C 2036.92 -1.86177 -0.562883 0
M  V30 20571 O 2036.17 -1.33282 -1.43299 0
M  V30 20572 C 2036.47 -3.26425 1.45538 0
M  V30 20573 C 2036.14 -3.41239 2.94732 0
M  V30 20574 C 2034.8 -3.44989 3.35464 0
M  V30 20575 C 2037.15 -3.45 3.90672 0
M  V30 20576 C 2034.48 -3.5009 4.70801 0
M  V30 20577 C 2036.83 -3.51637 5.25865 0
M  V30 20578 C 2035.5 -3.53659 5.66111 0
M  V30 20579 H 2034.77 -0.661856 0.333208 0
M  V30 20580 H 2037.41 -1.27762 1.4265 0
M  V30 20581 H 2035.72 -3.82237 0.860376 0
M  V30 20582 H 2037.42 -3.8097 1.25151 0
M  V30 20583 H 2034.01 -3.39011 2.6224 0
M  V30 20584 H 2038.19 -3.41334 3.60284 0
M  V30 20585 H 2033.45 -3.49949 5.01344 0
M  V30 20586 H 2037.62 -3.53492 6.00013 0
M  V30 20587 H 2035.25 -3.57365 6.70965 0
M  V30 20588 N 2036.82 -0.937962 -1.26649 0
M  V30 20589 C 2038.05 -0.59993 -1.98534 0
M  V30 20590 C 2038.47 0.817397 -1.69411 0
M  V30 20591 O 2037.83 1.55011 -0.940284 0
M  V30 20592 C 2037.88 -0.844738 -3.50566 0
M  V30 20593 O 2036.98 0.0847162 -4.12313 0
M  V30 20594 H 2036.32 -0.229839 -0.622953 0
M  V30 20595 H 2038.85 -1.26002 -1.61198 0
M  V30 20596 H 2038.86 -0.764359 -4.00776 0
M  V30 20597 H 2037.54 -1.87783 -3.71094 0
M  V30 20598 H 2036.11 -0.0464484 -3.72871 0
M  V30 20599 N 2038.3 1.40971 -0.704618 0
M  V30 20600 C 2039.55 2.00682 -0.238954 0
M  V30 20601 C 2039.87 1.56119 1.16842 0
M  V30 20602 O 2039.14 0.795777 1.79009 0
M  V30 20603 H 2037.72 0.742108 -0.0853541 0
M  V30 20604 H 2040.38 1.72467 -0.9078 0
M  V30 20605 H 2039.48 3.10986 -0.26345 0
M  V30 20606 N 2039.78 0.45001 1.51039 0
M  V30 20607 C 2041.01 -0.110496 2.06605 0
M  V30 20608 C 2041.42 -1.35362 1.31615 0
M  V30 20609 O 2040.78 -1.78515 0.379306 0
M  V30 20610 C 2040.83 -0.419948 3.59052 0
M  V30 20611 O 2040.55 0.773848 4.31211 0
M  V30 20612 C 2042.05 -1.02974 4.31174 0
M  V30 20613 H 2039.27 -0.00230221 0.670996 0
M  V30 20614 H 2041.82 0.632737 1.94465 0
M  V30 20615 H 2039.97 -1.11309 3.71065 0
M  V30 20616 H 2040.38 0.505717 5.22056 0
M  V30 20617 H 2041.86 -1.19617 5.38884 0
M  V30 20618 H 2042.34 -2.01422 3.9029 0
M  V30 20619 H 2042.94 -0.375607 4.23638 0
M  V30 20620 N 2041.26 -1.56548 0.18182 0
M  V30 20621 C 2042.22 -2.17247 -0.730497 0
M  V30 20622 C 2043.22 -1.12333 -1.15056 0
M  V30 20623 O 2044.41 -1.3779 -1.06581 0
M  V30 20624 C 2041.54 -2.76383 -1.99563 0
M  V30 20625 H 2042.73 -2.9922 -0.201904 0
M  V30 20626 H 2040.29 -1.56153 -0.0677734 0
M  V30 20627 H 2041.02 -1.98173 -2.56706 0
M  V30 20628 H 2040.81 -3.53172 -1.70329 0
M  V30 20629 H 2042.3 -3.23034 -2.64649 0
M  V30 20630 N 2042.73 0.0918577 -1.57332 0
M  V30 20631 C 2043.97 0.800334 -1.8808 0
M  V30 20632 C 2044.34 1.75743 -0.773207 0
M  V30 20633 O 2045.54 2.5095 -0.96319 0
M  V30 20634 C 2043.81 1.50715 -3.24067 0
M  V30 20635 S 2045.37 2.25346 -3.76516 0
M  V30 20636 H 2042.19 0.266573 -0.659136 0
M  V30 20637 H 2044.79 0.0573092 -1.95416 0
M  V30 20638 H 2043.49 0.7965 -4.02597 0
M  V30 20639 H 2043.02 2.29001 -3.19878 0
M  V30 20640 H 2045.04 3.51539 -3.50192 0
M  V30 20641 N 2044.21 1.53368 0.362763 0
M  V30 20642 C 2045.12 1.82969 1.46832 0
M  V30 20643 C 2046.14 0.718285 1.58482 0
M  V30 20644 O 2047.31 1.00863 1.74323 0
M  V30 20645 C 2044.38 2.01596 2.82064 0
M  V30 20646 C 2043.44 3.25491 2.79918 0
M  V30 20647 C 2042.67 3.4322 4.087 0
M  V30 20648 O 2042.9 2.65185 5.05008 0
M  V30 20649 O 2041.83 4.36585 4.1434 0
M  V30 20650 H 2045.66 2.769 1.24741 0
M  V30 20651 H 2043.24 1.38783 0.553131 0
M  V30 20652 H 2045.12 2.15403 3.62187 0
M  V30 20653 H 2043.8 1.10854 3.04127 0
M  V30 20654 H 2042.71 3.17105 1.98483 0
M  V30 20655 H 2044.04 4.16164 2.62809 0
M  V30 20656 N 2045.69 -0.62272 1.44776 0
M  V30 20657 C 2046.92 -1.40911 1.51498 0
M  V30 20658 C 2047.33 -1.88261 0.142579 0
M  V30 20659 O 2046.69 -1.61333 -0.853105 0
M  V30 20660 C 2046.74 -2.62379 2.48676 0
M  V30 20661 O 2046.46 -2.17001 3.80582 0
M  V30 20662 C 2047.96 -3.55413 2.64947 0
M  V30 20663 H 2045.18 -0.431862 0.513552 0
M  V30 20664 H 2047.73 -0.760822 1.8982 0
M  V30 20665 H 2045.88 -3.23281 2.13467 0
M  V30 20666 H 2046.3 -2.95811 4.33124 0
M  V30 20667 H 2047.77 -4.37227 3.36952 0
M  V30 20668 H 2048.25 -4.04771 1.70462 0
M  V30 20669 H 2048.85 -3.00374 3.01091 0
M  V30 20670 N 2047.17 -1.31814 -0.863883 0
M  V30 20671 C 2048.41 -1.23154 -1.63133 0
M  V30 20672 C 2048.77 0.205722 -1.90895 0
M  V30 20673 O 2049.97 0.415911 -2.65563 0
M  V30 20674 C 2048.24 -2.0581 -2.92194 0
M  V30 20675 S 2049.8 -2.14077 -3.83036 0
M  V30 20676 H 2046.62 -0.438531 -0.559653 0
M  V30 20677 H 2049.22 -1.66551 -1.02377 0
M  V30 20678 H 2047.93 -3.09311 -2.69731 0
M  V30 20679 H 2047.46 -1.63155 -3.57972 0
M  V30 20680 H 2049.47 -1.28353 -4.79312 0
M  V30 20681 N 2048.65 1.07897 -1.14873 0
M  V30 20682 C 2049.87 1.84117 -0.943847 0
M  V30 20683 C 2050.29 1.81844 0.507767 0
M  V30 20684 O 2049.65 1.22585 1.352 0
M  V30 20685 C 2049.7 3.31438 -1.4433 0
M  V30 20686 O 2049.42 3.33746 -2.83805 0
M  V30 20687 C 2050.92 4.24445 -1.2791 0
M  V30 20688 H 2048.14 0.581068 -0.335561 0
M  V30 20689 H 2050.68 1.36237 -1.52512 0
M  V30 20690 H 2048.84 3.76689 -0.904683 0
M  V30 20691 H 2049.25 4.25748 -3.06332 0
M  V30 20692 H 2050.73 5.25906 -1.67711 0
M  V30 20693 H 2051.2 4.38636 -0.222593 0
M  V30 20694 H 2051.81 3.85025 -1.80653 0
M  V30 20695 N 2050.12 0.944665 1.2615 0
M  V30 20696 C 2051.03 0.463226 2.29981 0
M  V30 20697 C 2052.05 -0.464516 1.67685 0
M  V30 20698 O 2053.23 -0.343195 1.98454 0
M  V30 20699 C 2050.29 -0.260612 3.45719 0
M  V30 20700 C 2049.35 0.704117 4.23486 0
M  V30 20701 C 2048.59 0.0147279 5.33698 0
M  V30 20702 O 2048.81 -1.20155 5.57601 0
M  V30 20703 O 2047.74 0.695202 5.97872 0
M  V30 20704 H 2051.57 1.3258 2.73233 0
M  V30 20705 H 2049.15 0.710696 1.31413 0
M  V30 20706 H 2051.04 -0.668207 4.16068 0
M  V30 20707 H 2049.71 -1.09852 3.0449 0
M  V30 20708 H 2048.62 1.16172 3.55605 0
M  V30 20709 H 2049.95 1.50974 4.68474 0
M  V30 20710 N 2051.6 -1.40596 0.712085 0
M  V30 20711 C 2052.85 -2.00553 0.249593 0
M  V30 20712 C 2053.17 -1.56736 -1.16012 0
M  V30 20713 O 2052.44 -0.805259 -1.78584 0
M  V30 20714 H 2051.02 -0.741644 0.0892885 0
M  V30 20715 H 2053.68 -1.71984 0.916933 0
M  V30 20716 H 2052.78 -3.10842 0.279939 0
M  V30 20717 N 2053.08 -0.458013 -1.50798 0
M  V30 20718 C 2054.03 0.342913 -2.28238 0
M  V30 20719 C 2055 0.99876 -1.32718 0
M  V30 20720 O 2056.18 1.01371 -1.61643 0
M  V30 20721 C 2053.32 1.42646 -3.14239 0
M  V30 20722 C 2052.44 0.786698 -4.24776 0
M  V30 20723 C 2051.57 1.84704 -4.98054 0
M  V30 20724 C 2050.61 1.18681 -6.00484 0
M  V30 20725 N 2049.75 2.18942 -6.6709 0
M  V30 20726 H 2054.59 -0.323799 -2.96236 0
M  V30 20727 H 2052.12 -0.171528 -1.46097 0
M  V30 20728 H 2054.08 2.0662 -3.62442 0
M  V30 20729 H 2052.71 2.06252 -2.48314 0
M  V30 20730 H 2051.76 0.0347215 -3.80384 0
M  V30 20731 H 2053.08 0.264877 -4.98096 0
M  V30 20732 H 2052.23 2.5629 -5.49909 0
M  V30 20733 H 2050.97 2.40263 -4.24411 0
M  V30 20734 H 2049.97 0.45651 -5.47901 0
M  V30 20735 H 2051.2 0.638278 -6.76094 0
M  V30 20736 H 2049.14 2.73543 -5.96247 0
M  V30 20737 H 2049.06 1.71709 -7.36242 0
M  V30 20738 H 2050.33 2.89949 -7.23568 0
M  V30 20739 N 2054.56 1.56449 -0.190119 0
M  V30 20740 C 2055.79 2.01527 0.455038 0
M  V30 20741 C 2056.2 1.06944 1.56076 0
M  V30 20742 O 2055.54 0.0656127 1.83583 0
M  V30 20743 C 2055.6 3.43008 1.07637 0
M  V30 20744 C 2055.27 4.56868 0.109996 0
M  V30 20745 C 2056.26 5.1545 -0.678755 0
M  V30 20746 C 2053.95 5.023 0.000358787 0
M  V30 20747 C 2055.94 6.1791 -1.56416 0
M  V30 20748 C 2053.63 6.04605 -0.888608 0
M  V30 20749 C 2054.63 6.62283 -1.66944 0
M  V30 20750 O 2054.32 7.62601 -2.54351 0
M  V30 20751 H 2054.05 0.66543 0.119076 0
M  V30 20752 H 2056.6 2.03276 -0.29461 0
M  V30 20753 H 2054.83 3.38229 1.87451 0
M  V30 20754 H 2056.52 3.71923 1.62566 0
M  V30 20755 H 2057.29 4.8122 -0.604329 0
M  V30 20756 H 2053.17 4.57106 0.59794 0
M  V30 20757 H 2056.71 6.62858 -2.17407 0
M  V30 20758 H 2052.61 6.38259 -0.964167 0
M  V30 20759 H 2053.37 7.80001 -2.48075 0
M  V30 20760 N 2056.04 -0.0835127 1.57379 0
M  V30 20761 C 2057.29 -0.783318 1.86302 0
M  V30 20762 C 2057.61 -1.787 0.780472 0
M  V30 20763 O 2056.88 -1.94956 -0.192101 0
M  V30 20764 H 2055.46 -0.292281 0.687445 0
M  V30 20765 H 2058.12 -0.0623868 1.948 0
M  V30 20766 H 2057.21 -1.30677 2.83425 0
M  V30 20767 N 2057.52 -1.53558 -0.354624 0
M  V30 20768 C 2058.76 -1.69489 -1.09346 0
M  V30 20769 C 2059.08 -0.458936 -1.9014 0
M  V30 20770 O 2060.28 -0.498981 -2.66875 0
M  V30 20771 C 2058.74 -2.99663 -1.99324 0
M  V30 20772 C 2058.35 -4.30558 -1.2379 0
M  V30 20773 C 2060.09 -3.2496 -2.73132 0
M  V30 20774 C 2058 -5.51814 -2.12733 0
M  V30 20775 H 2056.93 -0.631535 -0.411922 0
M  V30 20776 H 2059.58 -1.80059 -0.353687 0
M  V30 20777 H 2057.96 -2.82922 -2.77076 0
M  V30 20778 H 2059.14 -4.57966 -0.51025 0
M  V30 20779 H 2057.45 -4.11789 -0.617973 0
M  V30 20780 H 2060.05 -4.12739 -3.39927 0
M  V30 20781 H 2060.39 -2.41491 -3.39099 0
M  V30 20782 H 2060.92 -3.42426 -2.02458 0
M  V30 20783 H 2057.66 -6.37793 -1.51327 0
M  V30 20784 H 2057.18 -5.28669 -2.83317 0
M  V30 20785 H 2058.86 -5.87028 -2.72041 0
M  V30 20786 N 2058.99 0.615033 -1.45104 0
M  V30 20787 C 2059.94 1.72028 -1.49635 0
M  V30 20788 C 2060.93 1.56812 -0.36038 0
M  V30 20789 O 2062.12 1.66275 -0.606753 0
M  V30 20790 C 2059.25 3.10763 -1.45881 0
M  V30 20791 C 2058.33 3.31391 -2.64653 0
M  V30 20792 N 2058.73 3.22312 -3.89806 0
M  V30 20793 C 2057.02 3.62238 -2.60191 0
M  V30 20794 C 2057.72 3.44068 -4.69033 0
M  V30 20795 N 2056.7 3.67706 -4.00366 0
M  V30 20796 H 2060.5 1.63491 -2.44229 0
M  V30 20797 H 2058.02 0.818045 -1.40292 0
M  V30 20798 H 2060.01 3.90044 -1.47212 0
M  V30 20799 H 2058.67 3.20454 -0.523376 0
M  V30 20800 H 2059.68 3.00877 -4.21537 0
M  V30 20801 H 2056.36 3.78813 -1.7552 0
M  V30 20802 H 2057.75 3.42506 -5.78048 0
M  V30 20803 N 2060.47 1.3227 0.85688 0
M  V30 20804 C 2061.71 1.24017 1.62478 0
M  V30 20805 C 2062.08 -0.195596 1.91001 0
M  V30 20806 O 2063.28 -0.401822 2.6578 0
M  V30 20807 C 2061.55 2.07356 2.91098 0
M  V30 20808 S 2063.11 2.16105 3.81895 0
M  V30 20809 H 2059.92 0.441493 0.557319 0
M  V30 20810 H 2062.53 1.67092 1.01492 0
M  V30 20811 H 2061.23 3.10737 2.68087 0
M  V30 20812 H 2060.76 1.65051 3.57102 0
M  V30 20813 H 2062.78 1.30893 4.78625 0
M  V30 20814 N 2061.95 -1.07287 1.15444 0
M  V30 20815 C 2063.23 -1.76634 0.840221 0
M  V30 20816 C 2063.61 -2.00384 -0.664037 0
M  V30 20817 O 2062.95 -1.62284 -1.60861 0
M  V30 20818 C 2063.16 -3.07439 1.65174 0
M  V30 20819 C 2064.51 -3.81773 1.85835 0
M  V30 20820 O 2065.54 -3.17252 1.61955 0
M  V30 20821 O 2064.4 -4.97656 2.25834 0
M  V30 20822 H 2061.49 -0.76708 0.309059 0
M  V30 20823 H 2064.04 -1.13646 1.26026 0
M  V30 20824 H 2062.81 -2.85774 2.67299 0
M  V30 20825 H 2062.43 -3.78159 1.22807 0
M  V30 20826 N 2063.43 -0.951342 -1.25647 0
M  V30 20827 C 2064.36 -0.426252 -2.25202 0
M  V30 20828 C 2065.37 0.456064 -1.56281 0
M  V30 20829 O 2066.56 0.264871 -1.76524 0
M  V30 20830 C 2063.66 0.405493 -3.36465 0
M  V30 20831 C 2062.83 -0.46305 -4.34942 0
M  V30 20832 C 2061.89 0.309948 -5.25286 0
M  V30 20833 O 2060.92 -0.290524 -5.68458 0
M  V30 20834 N 2062.12 1.60389 -5.57903 0
M  V30 20835 H 2064.89 -1.28213 -2.7089 0
M  V30 20836 H 2062.45 -0.821338 -1.39519 0
M  V30 20837 H 2064.44 0.930256 -3.93863 0
M  V30 20838 H 2063.01 1.16222 -2.90192 0
M  V30 20839 H 2062.23 -1.16894 -3.7647 0
M  V30 20840 H 2063.52 -1.05598 -4.97721 0
M  V30 20841 H 2062.92 2.11372 -5.24727 0
M  V30 20842 H 2061.47 2.07469 -6.179 0
M  V30 20843 N 2064.91 1.40216 -0.719531 0
M  V30 20844 C 2065.87 2.29067 -0.078186 0
M  V30 20845 C 2066.87 1.45561 0.683282 0
M  V30 20846 O 2068.06 1.66426 0.514598 0
M  V30 20847 C 2065.19 3.28832 0.899035 0
M  V30 20848 H 2066.38 2.87281 -0.860786 0
M  V30 20849 H 2063.94 1.48604 -0.48442 0
M  V30 20850 H 2064.67 2.75643 1.70855 0
M  V30 20851 H 2064.46 3.90482 0.355853 0
M  V30 20852 H 2065.95 3.95353 1.34483 0
M  V30 20853 N 2066.38 0.466004 1.50553 0
M  V30 20854 C 2067.62 -0.0895486 2.04204 0
M  V30 20855 C 2067.99 -1.37441 1.34067 0
M  V30 20856 O 2069.19 -2.01202 1.78245 0
M  V30 20857 C 2067.46 -0.274301 3.56346 0
M  V30 20858 S 2069.02 -0.789141 4.31646 0
M  V30 20859 H 2065.84 -0.0183592 0.710763 0
M  V30 20860 H 2068.44 0.631979 1.85003 0
M  V30 20861 H 2067.14 0.666704 4.04948 0
M  V30 20862 H 2066.67 -1.02209 3.79891 0
M  V30 20863 H 2068.69 -2.06321 4.51272 0
M  V30 20864 N 2067.86 -1.56346 0.198413 0
M  V30 20865 C 2069.09 -2.02502 -0.44809 0
M  V30 20866 C 2069.51 -1.07761 -1.54173 0
M  V30 20867 O 2068.87 -0.0616812 -1.81195 0
M  V30 20868 C 2068.92 -3.47073 -0.978394 0
M  V30 20869 O 2068.02 -3.55452 -2.09111 0
M  V30 20870 H 2067.36 -0.655753 -0.104324 0
M  V30 20871 H 2069.89 -2.02234 0.310265 0
M  V30 20872 H 2069.9 -3.86931 -1.29415 0
M  V30 20873 H 2068.58 -4.1552 -0.177819 0
M  V30 20874 H 2067.15 -3.27471 -1.78375 0
M  V30 20875 N 2069.34 0.0751653 -1.57421 0
M  V30 20876 C 2070.58 0.78034 -1.88918 0
M  V30 20877 C 2070.94 1.74913 -0.791804 0
M  V30 20878 O 2072.15 2.49915 -0.989752 0
M  V30 20879 C 2070.42 1.4727 -3.25648 0
M  V30 20880 S 2071.98 2.2134 -3.78885 0
M  V30 20881 H 2068.79 0.259567 -0.661926 0
M  V30 20882 H 2071.4 0.0365795 -1.95466 0
M  V30 20883 H 2070.1 0.753754 -4.03419 0
M  V30 20884 H 2069.63 2.25596 -3.22289 0
M  V30 20885 H 2071.65 3.47805 -3.53901 0
M  V30 20886 N 2070.82 1.53744 0.346476 0
M  V30 20887 C 2072.06 1.71103 1.08866 0
M  V30 20888 C 2072.4 0.47131 1.88394 0
M  V30 20889 O 2071.67 -0.531638 1.87093 0
M  V30 20890 C 2071.96 2.97273 2.03225 0
M  V30 20891 C 2071.81 4.31446 1.27179 0
M  V30 20892 C 2073.13 3.19105 3.03084 0
M  V30 20893 H 2070.25 0.622598 0.394387 0
M  V30 20894 H 2072.89 1.86412 0.367514 0
M  V30 20895 H 2071.04 2.84352 2.64719 0
M  V30 20896 H 2072.71 4.56212 0.683225 0
M  V30 20897 H 2070.95 4.29989 0.573773 0
M  V30 20898 H 2071.62 5.15901 1.96343 0
M  V30 20899 H 2074.1 3.31337 2.51704 0
M  V30 20900 H 2072.98 4.08786 3.66313 0
M  V30 20901 H 2073.24 2.35265 3.74303 0
M  V30 20902 N 2072.3 -0.607329 1.45428 0
M  V30 20903 C 2073.25 -1.71232 1.50545 0
M  V30 20904 C 2074.23 -1.56619 0.368691 0
M  V30 20905 O 2075.42 -1.65951 0.615562 0
M  V30 20906 C 2072.55 -3.09985 1.47527 0
M  V30 20907 C 2071.64 -3.29983 2.66406 0
M  V30 20908 N 2072.03 -3.20241 3.91509 0
M  V30 20909 C 2070.33 -3.60853 2.62108 0
M  V30 20910 C 2071.03 -3.41576 4.70851 0
M  V30 20911 N 2070 -3.65578 4.0231 0
M  V30 20912 H 2073.81 -1.62193 2.45093 0
M  V30 20913 H 2071.32 -0.810594 1.40724 0
M  V30 20914 H 2073.32 -3.89258 1.49278 0
M  V30 20915 H 2071.98 -3.20172 0.540363 0
M  V30 20916 H 2072.99 -2.98637 4.23127 0
M  V30 20917 H 2069.66 -3.77876 1.77526 0
M  V30 20918 H 2071.05 -3.39435 5.79856 0
M  V30 20919 N 2073.77 -1.32722 -0.849853 0
M  V30 20920 C 2075.02 -1.23312 -1.60121 0
M  V30 20921 C 2075.34 0.203882 -1.93931 0
M  V30 20922 O 2074.61 1.12986 -1.60035 0
M  V30 20923 H 2073.19 -0.453413 -0.593654 0
M  V30 20924 H 2075.86 -1.66305 -1.0163 0
M  V30 20925 H 2074.95 -1.81913 -2.53602 0
M  V30 20926 N 2075.25 1.06673 -1.16011 0
M  V30 20927 C 2076.67 1.31515 -0.90421 0
M  V30 20928 C 2076.87 1.96524 0.445021 0
M  V30 20929 O 2075.92 2.22945 1.18541 0
M  V30 20930 C 2077.24 2.19955 -2.05037 0
M  V30 20931 C 2078.79 2.33384 -2.08569 0
M  V30 20932 C 2079.26 3.25176 -3.22528 0
M  V30 20933 N 2080.75 3.32759 -3.2222 0
M  V30 20934 C 2081.49 4.03866 -4.07038 0
M  V30 20935 N 2080.98 4.77529 -5.01934 0
M  V30 20936 N 2082.78 3.99877 -3.95037 0
M  V30 20937 H 2074.93 0.628672 -2.02883 0
M  V30 20938 H 2077.19 0.339704 -0.885045 0
M  V30 20939 H 2076.9 1.79458 -3.02469 0
M  V30 20940 H 2076.77 3.20521 -1.98862 0
M  V30 20941 H 2079.16 2.7313 -1.11732 0
M  V30 20942 H 2079.24 1.32499 -2.1881 0
M  V30 20943 H 2078.88 2.86147 -4.19622 0
M  V30 20944 H 2078.81 4.26031 -3.09524 0
M  V30 20945 H 2081.3 2.80259 -2.53502 0
M  V30 20946 H 2081.62 5.29302 -5.6308 0
M  V30 20947 H 2079.96 4.76522 -5.05917 0
M  V30 20948 H 2083.15 3.41446 -3.20207 0
M  V30 20949 H 2083.32 4.55027 -4.61361 0
M  V30 20950 N 2076.73 0.957992 1.25141 0
M  V30 20951 C 2077.97 0.622306 1.94696 0
M  V30 20952 C 2078.33 -0.825845 1.73331 0
M  V30 20953 O 2079.54 -1.27128 2.36837 0
M  V30 20954 C 2077.81 0.975207 3.43838 0
M  V30 20955 S 2079.37 0.752603 4.32298 0
M  V30 20956 H 2076.18 0.228622 0.673241 0
M  V30 20957 H 2078.79 1.23288 1.51724 0
M  V30 20958 H 2077.49 2.02624 3.56892 0
M  V30 20959 H 2077.02 0.355017 3.91795 0
M  V30 20960 H 2079.04 -0.374938 4.94781 0
M  V30 20961 N 2078.21 -1.39832 0.726957 0
M  V30 20962 C 2079.16 -2.32492 0.0707517 0
M  V30 20963 C 2080.15 -1.5264 -0.734661 0
M  V30 20964 O 2081.36 -1.68361 -0.63675 0
M  V30 20965 H 2077.73 -0.751989 0.00407767 0
M  V30 20966 H 2079.7 -2.85473 0.868774 0
M  V30 20967 C 2078.45 -3.37686 -0.828442 0
M  V30 20968 H 2077.77 -3.99205 -0.218093 0
M  V30 20969 H 2079.21 -4.0499 -1.25534 0
M  V30 20970 C 2077.67 -2.74083 -1.95909 0
M  V30 20971 O 2078.2 -2.61299 -3.051 0
M  V30 20972 N 2076.41 -2.32292 -1.7461 0
M  V30 20973 H 2075.96 -2.4289 -0.858037 0
M  V30 20974 H 2075.91 -1.90075 -2.50437 0
M  V30 20975 N 2079.69 -0.473982 -1.50304 0
M  V30 20976 C 2080.62 0.355019 -2.26434 0
M  V30 20977 C 2081.63 0.954546 -1.3188 0
M  V30 20978 O 2082.82 0.842462 -1.57368 0
M  V30 20979 C 2079.92 1.51219 -3.03292 0
M  V30 20980 C 2079.09 1.02492 -4.25222 0
M  V30 20981 C 2078.15 2.05649 -4.8435 0
M  V30 20982 O 2077.18 1.63594 -5.45184 0
M  V30 20983 N 2078.38 3.38481 -4.71605 0
M  V30 20984 H 2081.15 -0.297646 -2.98218 0
M  V30 20985 H 2078.71 -0.304934 -1.59002 0
M  V30 20986 H 2080.7 2.19927 -3.39726 0
M  V30 20987 H 2079.27 2.0695 -2.34287 0
M  V30 20988 H 2078.49 0.16363 -3.9386 0
M  V30 20989 H 2079.78 0.677339 -5.04271 0
M  V30 20990 H 2079.17 3.75356 -4.23231 0
M  V30 20991 H 2077.73 4.02979 -5.123 0
M  V30 20992 N 2081.16 1.56239 -0.206702 0
M  V30 20993 C 2082.41 1.97513 0.428144 0
M  V30 20994 C 2082.73 1.09514 1.61343 0
M  V30 20995 O 2082 0.168913 1.9517 0
M  V30 20996 H 2080.58 0.729406 0.161169 0
M  V30 20997 H 2083.25 1.92637 -0.296139 0
M  V30 20998 H 2082.34 3.02592 0.764479 0
M  V30 20999 N 2082.64 -0.0668159 1.57458 0
M  V30 21000 C 2084.05 -0.618057 1.76173 0
M  V30 21001 C 2084.4 -1.77647 0.83283 0
M  V30 21002 O 2083.53 -2.16392 0.0181509 0
M  V30 21003 C 2084.12 -1.12796 3.19472 0
M  V30 21004 C 2082.68 -1.62503 3.39514 0
M  V30 21005 C 2081.83 -0.546584 2.7186 0
M  V30 21006 H 2084.78 0.15937 1.57898 0
M  V30 21007 H 2084.8 -1.99663 3.23906 0
M  V30 21008 H 2084.31 -0.284643 3.87055 0
M  V30 21009 H 2082.42 -2.49144 2.77053 0
M  V30 21010 H 2082.53 -1.69854 4.4798 0
M  V30 21011 H 2080.89 -0.992807 2.34554 0
M  V30 21012 H 2081.68 0.286635 3.42101 0
M  V30 21013 N 2084.12 -1.53926 -0.338317 0
M  V30 21014 C 2085.05 -1.85269 -1.42119 0
M  V30 21015 C 2086.03 -0.708238 -1.54654 0
M  V30 21016 O 2087.22 -0.960631 -1.68777 0
M  V30 21017 C 2084.35 -2.06693 -2.79097 0
M  V30 21018 C 2083.3 -3.22519 -2.81364 0
M  V30 21019 C 2082.63 -3.29286 -4.21277 0
M  V30 21020 C 2083.93 -4.6051 -2.46431 0
M  V30 21021 H 2085.62 -2.75957 -1.16137 0
M  V30 21022 H 2083.17 -1.32781 -0.557249 0
M  V30 21023 H 2085.12 -2.27204 -3.54903 0
M  V30 21024 H 2083.84 -1.1274 -3.06524 0
M  V30 21025 H 2082.5 -3.01872 -2.08011 0
M  V30 21026 H 2082.15 -2.32919 -4.45823 0
M  V30 21027 H 2081.85 -4.07123 -4.23704 0
M  V30 21028 H 2083.38 -3.52014 -4.98918 0
M  V30 21029 H 2084.79 -4.80999 -3.1195 0
M  V30 21030 H 2083.19 -5.40788 -2.60132 0
M  V30 21031 H 2084.26 -4.63762 -1.41607 0
M  V30 21032 N 2085.6 0.599608 -1.45748 0
M  V30 21033 C 2086.85 1.3557 -1.49884 0
M  V30 21034 C 2087.17 1.94459 -0.145141 0
M  V30 21035 O 2086.44 1.77615 0.82643 0
M  V30 21036 H 2085.02 0.503305 -0.551991 0
M  V30 21037 H 2087.68 0.703509 -1.8176 0
M  V30 21038 H 2086.78 2.17106 -2.24213 0
M  V30 21039 N 2087.08 1.33171 0.842803 0
M  V30 21040 C 2088.35 1.15008 1.58216 0
M  V30 21041 C 2088.73 -0.285047 2.09167 0
M  V30 21042 O 2088.08 -1.28349 1.89047 0
M  V30 21043 C 2088.29 2.18785 2.71908 0
M  V30 21044 C 2089.64 2.52736 3.41188 0
M  V30 21045 O 2090.66 2.17422 2.82146 0
M  V30 21046 O 2089.52 3.13321 4.47763 0
M  V30 21047 H 2086.62 0.444573 0.69734 0
M  V30 21048 H 2089.16 1.44741 0.8859 0
M  V30 21049 H 2087.94 3.15201 2.31871 0
M  V30 21050 H 2087.56 1.90116 3.49202 0
M  V30 21051 N 2088.56 -1.06056 1.16576 0
M  V30 21052 C 2089.8 -1.78546 0.946876 0
M  V30 21053 C 2090.12 -1.87758 -0.526489 0
M  V30 21054 O 2089.39 -1.38801 -1.38243 0
M  V30 21055 H 2087.97 -0.661335 0.347341 0
M  V30 21056 H 2090.64 -1.28101 1.46888 0
M  V30 21057 H 2089.73 -2.80537 1.36767 0
M  V30 21058 N 2090.03 -0.964615 -1.24631 0
M  V30 21059 C 2091.26 -0.641907 -1.97216 0
M  V30 21060 C 2091.68 0.781279 -1.71107 0
M  V30 21061 O 2091.04 1.52981 -0.972952 0
M  V30 21062 C 2091.09 -0.918908 -3.48695 0
M  V30 21063 O 2090.19 -0.00276058 -4.124 0
M  V30 21064 H 2089.53 -0.243001 -0.617937 0
M  V30 21065 H 2092.06 -1.29393 -1.58489 0
M  V30 21066 H 2092.07 -0.849197 -3.99065 0
M  V30 21067 H 2090.75 -1.95612 -3.67027 0
M  V30 21068 H 2089.33 -0.125529 -3.72689 0
M  V30 21069 N 2091.51 1.39445 -0.734362 0
M  V30 21070 C 2092.75 2.02379 -0.286695 0
M  V30 21071 C 2093.12 1.57011 1.10505 0
M  V30 21072 O 2094.32 2.1214 1.65076 0
M  V30 21073 C 2092.59 3.55328 -0.384267 0
M  V30 21074 S 2094.15 4.38797 -0.0163484 0
M  V30 21075 H 2090.96 0.702062 -0.112381 0
M  V30 21076 H 2093.57 1.70265 -0.960737 0
M  V30 21077 H 2092.27 3.85838 -1.39848 0
M  V30 21078 H 2091.8 3.92195 0.307617 0
M  V30 21079 H 2093.82 4.81469 1.20007 0
M  V30 21080 N 2092.99 0.481946 1.5005 0
M  V30 21081 C 2094.27 -0.131379 1.95158 0
M  V30 21082 C 2094.65 -1.55951 1.42276 0
M  V30 21083 O 2093.99 -2.19691 0.62835 0
M  V30 21084 C 2094.2 -0.0635771 3.48942 0
M  V30 21085 C 2095.55 -0.247054 4.23881 0
M  V30 21086 O 2096.58 -0.139659 3.55926 0
M  V30 21087 O 2095.44 -0.465153 5.44517 0
M  V30 21088 H 2092.53 -0.105746 0.820211 0
M  V30 21089 H 2095.08 0.543125 1.60774 0
M  V30 21090 H 2093.85 0.933103 3.80012 0
M  V30 21091 H 2093.47 -0.779065 3.89893 0
M  V30 21092 N 2094.47 -1.56127 0.214985 0
M  V30 21093 C 2095.71 -2.0003 -0.420416 0
M  V30 21094 C 2096.07 -1.09933 -1.57413 0
M  V30 21095 O 2097.27 -1.43155 -2.27508 0
M  V30 21096 C 2095.54 -3.47142 -0.85011 0
M  V30 21097 S 2097.1 -4.13068 -1.48054 0
M  V30 21098 H 2093.92 -0.698317 -0.133693 0
M  V30 21099 H 2096.52 -1.92818 0.32273 0
M  V30 21100 H 2095.23 -4.104 -0.000663309 0
M  V30 21101 H 2094.76 -3.58214 -1.62623 0
M  V30 21102 H 2096.77 -4.11715 -2.76957 0
M  V30 21103 N 2095.95 0.0584645 -1.57492 0
M  V30 21104 C 2097.22 0.788828 -1.78988 0
M  V30 21105 C 2097.6 1.95112 -0.805878 0
M  V30 21106 O 2096.95 2.27951 0.158244 0
M  V30 21107 C 2097.16 1.24936 -3.25871 0
M  V30 21108 C 2098.51 1.67732 -3.90066 0
M  V30 21109 O 2099.53 1.34469 -3.29843 0
M  V30 21110 O 2098.39 2.29361 -4.9604 0
M  V30 21111 H 2095.49 0.379032 -0.735027 0
M  V30 21112 H 2098.03 0.0375096 -1.69659 0
M  V30 21113 H 2096.8 0.418302 -3.89058 0
M  V30 21114 H 2096.43 2.06159 -3.39977 0
M  V30 21115 N 2097.42 1.54103 0.330149 0
M  V30 21116 C 2098.67 1.72248 1.07045 0
M  V30 21117 C 2099 0.491265 1.87884 0
M  V30 21118 O 2098.28 -0.511764 1.87647 0
M  V30 21119 C 2098.56 2.99412 2.00061 0
M  V30 21120 C 2098.41 4.3277 1.22596 0
M  V30 21121 C 2099.73 3.22301 2.99683 0
M  V30 21122 H 2096.85 0.626746 0.387761 0
M  V30 21123 H 2099.49 1.86791 0.347722 0
M  V30 21124 H 2097.64 2.87144 2.61688 0
M  V30 21125 H 2099.32 4.56911 0.634799 0
M  V30 21126 H 2097.56 4.30573 0.528135 0
M  V30 21127 H 2098.23 5.17954 1.9086 0
M  V30 21128 H 2100.71 3.33988 2.48176 0
M  V30 21129 H 2099.58 4.12648 3.61956 0
M  V30 21130 H 2099.84 2.39221 3.71787 0
M  V30 21131 N 2098.9 -0.59187 1.46064 0
M  V30 21132 C 2100.15 -1.34773 1.50601 0
M  V30 21133 C 2100.47 -1.94379 0.155452 0
M  V30 21134 O 2099.74 -1.7805 -0.816999 0
M  V30 21135 H 2098.32 -0.50037 0.554652 0
M  V30 21136 H 2100.98 -0.69386 1.82131 0
M  V30 21137 H 2100.08 -2.15914 2.25361 0
M  V30 21138 N 2100.38 -1.33616 -0.835729 0
M  V30 21139 C 2101.63 -1.26446 -1.59321 0
M  V30 21140 C 2101.98 0.167445 -1.9167 0
M  V30 21141 O 2101.27 1.11036 -1.56146 0
M  V30 21142 C 2101.47 -2.07621 -2.90909 0
M  V30 21143 C 2101.3 -3.5856 -2.71413 0
M  V30 21144 C 2100.07 -4.27867 -2.68809 0
M  V30 21145 C 2102.27 -4.52828 -2.43827 0
M  V30 21146 N 2100.25 -5.64735 -2.40723 0
M  V30 21147 C 2101.62 -5.77608 -2.2532 0
M  V30 21148 C 2103.67 -4.41879 -2.2945 0
M  V30 21149 C 2102.38 -6.92674 -1.93895 0
M  V30 21150 C 2104.4 -5.56764 -1.99417 0
M  V30 21151 C 2103.76 -6.80555 -1.81725 0
M  V30 21152 H 2099.86 -0.517904 -0.585917 0
M  V30 21153 H 2102.45 -1.68191 -0.980805 0
M  V30 21154 H 2100.62 -1.68192 -3.50094 0
M  V30 21155 H 2102.35 -1.92195 -3.5615 0
M  V30 21156 H 2099.11 -3.80173 -2.82428 0
M  V30 21157 H 2099.53 -6.36893 -2.29556 0
M  V30 21158 H 2104.17 -3.46805 -2.4184 0
M  V30 21159 H 2101.89 -7.87743 -1.80242 0
M  V30 21160 H 2105.48 -5.50231 -1.89044 0
M  V30 21161 H 2104.36 -7.67949 -1.58821 0
M  V30 21162 N 2101.86 1.05436 -1.17136 0
M  V30 21163 C 2103.27 1.30549 -0.918108 0
M  V30 21164 C 2103.47 1.96985 0.424152 0
M  V30 21165 O 2102.53 2.24189 1.1617 0
M  V30 21166 C 2103.84 2.17768 -2.07358 0
M  V30 21167 C 2105.39 2.31158 -2.11033 0
M  V30 21168 C 2105.87 3.21737 -3.25959 0
M  V30 21169 N 2107.36 3.29322 -3.25731 0
M  V30 21170 C 2108.09 3.99526 -4.11299 0
M  V30 21171 N 2107.59 4.72178 -5.06971 0
M  V30 21172 N 2109.38 3.95665 -3.99256 0
M  V30 21173 H 2101.53 0.607118 -2.03538 0
M  V30 21174 H 2103.8 0.330298 -0.888599 0
M  V30 21175 H 2103.5 1.7624 -3.04356 0
M  V30 21176 H 2103.38 3.18394 -2.02251 0
M  V30 21177 H 2105.76 2.71929 -1.14623 0
M  V30 21178 H 2105.84 1.30171 -2.20203 0
M  V30 21179 H 2105.49 2.8168 -4.22633 0
M  V30 21180 H 2105.42 4.22724 -3.14025 0
M  V30 21181 H 2107.91 2.77555 -2.5646 0
M  V30 21182 H 2108.22 5.233 -5.68662 0
M  V30 21183 H 2106.57 4.71129 -5.10943 0
M  V30 21184 H 2109.76 3.3803 -3.2381 0
M  V30 21185 H 2109.93 4.50108 -4.66161 0
M  V30 21186 N 2103.34 0.971211 1.24118 0
M  V30 21187 C 2104.58 0.633768 1.91906 0
M  V30 21188 C 2104.91 -0.834157 1.76258 0
M  V30 21189 O 2104.18 -1.59579 1.13628 0
M  V30 21190 H 2102.76 0.231413 0.710251 0
M  V30 21191 H 2105.42 1.23304 1.50938 0
M  V30 21192 H 2104.51 0.877411 2.99513 0
M  V30 21193 N 2104.81 -1.39054 0.741747 0
M  V30 21194 C 2106.06 -2.00671 0.293089 0
M  V30 21195 C 2106.39 -1.58733 -1.11882 0
M  V30 21196 O 2105.67 -0.819335 -1.76401 0
M  V30 21197 C 2105.95 -3.57843 0.402573 0
M  V30 21198 C 2105.8 -4.0978 1.85474 0
M  V30 21199 C 2107.12 -4.39594 -0.211039 0
M  V30 21200 H 2104.24 -0.729048 0.10797 0
M  V30 21201 H 2106.88 -1.65165 0.939169 0
M  V30 21202 H 2105.03 -3.8822 -0.147482 0
M  V30 21203 H 2106.71 -3.90095 2.46219 0
M  V30 21204 H 2104.95 -3.63088 2.3738 0
M  V30 21205 H 2105.62 -5.18906 1.88257 0
M  V30 21206 H 2108.1 -4.153 0.257937 0
M  V30 21207 H 2106.97 -5.48801 -0.104126 0
M  V30 21208 H 2107.23 -4.22618 -1.29792 0
M  V30 21209 N 2106.29 -0.489897 -1.49792 0
M  V30 21210 C 2107.24 0.31345 -2.25835 0
M  V30 21211 C 2108.23 0.945221 -1.30209 0
M  V30 21212 O 2109.42 0.854657 -1.54999 0
M  V30 21213 C 2106.55 1.38388 -3.14171 0
M  V30 21214 C 2105.63 0.758908 -4.17255 0
M  V30 21215 N 2106.02 -0.131925 -5.05628 0
M  V30 21216 C 2104.32 1.02075 -4.34162 0
M  V30 21217 C 2105.02 -0.488548 -5.79645 0
M  V30 21218 N 2104 0.140856 -5.43417 0
M  V30 21219 H 2107.8 -0.372499 -2.9153 0
M  V30 21220 H 2105.32 -0.305248 -1.59505 0
M  V30 21221 H 2107.31 1.97275 -3.67271 0
M  V30 21222 H 2105.97 2.07163 -2.50027 0
M  V30 21223 H 2106.98 -0.502015 -5.15461 0
M  V30 21224 H 2103.66 1.70207 -3.81229 0
M  V30 21225 H 2105.05 -1.21668 -6.60792 0
M  V30 21226 N 2107.77 1.56011 -0.223262 0
M  V30 21227 C 2109.01 2.0025 0.409802 0
M  V30 21228 C 2109.37 1.10766 1.56827 0
M  V30 21229 O 2110.58 1.44359 2.26746 0
M  V30 21230 C 2108.85 3.47588 0.831689 0
M  V30 21231 S 2110.41 4.13848 1.45862 0
M  V30 21232 H 2107.22 0.699017 0.129988 0
M  V30 21233 H 2109.83 1.92644 -0.332951 0
M  V30 21234 H 2108.53 4.10395 -0.0211012 0
M  V30 21235 H 2108.06 3.59071 1.60721 0
M  V30 21236 H 2110.08 4.13178 2.7477 0
M  V30 21237 N 2109.25 -0.0501116 1.5752 0
M  V30 21238 C 2110.53 -0.779325 1.79404 0
M  V30 21239 C 2110.91 -1.94682 0.816214 0
M  V30 21240 O 2110.25 -2.28032 -0.146153 0
M  V30 21241 C 2110.46 -1.23206 3.26529 0
M  V30 21242 C 2111.81 -1.65661 3.9095 0
M  V30 21243 O 2112.84 -1.32718 3.30552 0
M  V30 21244 O 2111.69 -2.26728 4.97249 0
M  V30 21245 H 2108.79 -0.375128 0.737026 0
M  V30 21246 H 2111.33 -0.0285117 1.69676 0
M  V30 21247 H 2110.11 -0.397664 3.89274 0
M  V30 21248 H 2109.73 -2.04353 3.41065 0
M  V30 21249 N 2110.73 -1.54276 -0.321972 0
M  V30 21250 C 2111.67 -1.84499 -1.41644 0
M  V30 21251 C 2112.67 -0.717018 -1.53477 0
M  V30 21252 O 2113.87 -0.900704 -1.55844 0
M  V30 21253 H 2110.25 -0.584855 -0.472704 0
M  V30 21254 H 2112.22 -2.76022 -1.13378 0
M  V30 21255 C 2110.97 -2.09051 -2.77836 0
M  V30 21256 H 2110.29 -2.95308 -2.69505 0
M  V30 21257 H 2111.73 -2.3415 -3.53482 0
M  V30 21258 C 2110.19 -0.882537 -3.25135 0
M  V30 21259 O 2110.72 -0.0925862 -4.01593 0
M  V30 21260 N 2108.93 -0.693729 -2.82198 0
M  V30 21261 H 2108.47 -1.33776 -2.2014 0
M  V30 21262 H 2108.43 0.113 -3.14197 0
M  V30 21263 N 2112.2 0.584116 -1.46376 0
M  V30 21264 C 2113.17 1.6753 -1.56417 0
M  V30 21265 C 2114.17 1.54622 -0.441454 0
M  V30 21266 O 2115.36 1.59265 -0.705714 0
M  V30 21267 C 2112.49 3.06947 -1.48313 0
M  V30 21268 H 2113.68 1.59986 -2.53662 0
M  V30 21269 H 2111.24 0.801837 -1.34165 0
M  V30 21270 H 2111.97 3.20048 -0.523413 0
M  V30 21271 H 2111.76 3.17724 -2.29768 0
M  V30 21272 H 2113.25 3.86384 -1.58422 0
M  V30 21273 N 2113.68 1.34058 0.828631 0
M  V30 21274 C 2114.91 1.29156 1.61636 0
M  V30 21275 C 2115.33 -0.135511 1.88313 0
M  V30 21276 O 2114.68 -1.08084 1.47051 0
M  V30 21277 C 2114.73 2.07436 2.96062 0
M  V30 21278 O 2114.46 3.44577 2.70552 0
M  V30 21279 C 2115.96 2.09865 3.90476 0
M  V30 21280 H 2113.18 0.444543 0.502615 0
M  V30 21281 H 2115.72 1.76585 1.0314 0
M  V30 21282 H 2113.88 1.63663 3.51131 0
M  V30 21283 H 2114.29 3.84972 3.56225 0
M  V30 21284 H 2115.76 2.69071 4.8198 0
M  V30 21285 H 2116.24 1.09155 4.2542 0
M  V30 21286 H 2116.85 2.53702 3.41344 0
M  V30 21287 N 2115.16 -1.04814 1.17694 0
M  V30 21288 C 2116.39 -1.8155 0.99233 0
M  V30 21289 C 2116.8 -1.83126 -0.459376 0
M  V30 21290 O 2116.16 -1.26127 -1.31903 0
M  V30 21291 C 2116.21 -3.27495 1.53067 0
M  V30 21292 O 2115.93 -3.26104 2.92554 0
M  V30 21293 C 2117.43 -4.20905 1.39119 0
M  V30 21294 H 2114.65 -0.571967 0.350849 0
M  V30 21295 H 2117.2 -1.32145 1.5607 0
M  V30 21296 H 2115.35 -3.74157 1.00424 0
M  V30 21297 H 2115.77 -4.17476 3.17512 0
M  V30 21298 H 2117.24 -5.21275 1.81595 0
M  V30 21299 H 2117.72 -4.37891 0.338812 0
M  V30 21300 H 2118.32 -3.801 1.90798 0
M  V30 21301 N 2116.64 -0.977779 -1.23601 0
M  V30 21302 C 2117.55 -0.524039 -2.28672 0
M  V30 21303 C 2118.57 0.419894 -1.68858 0
M  V30 21304 O 2119.74 0.290458 -1.99295 0
M  V30 21305 C 2116.81 0.16886 -3.46289 0
M  V30 21306 C 2115.87 -0.81615 -4.21471 0
M  V30 21307 C 2115.1 -0.156223 -5.33471 0
M  V30 21308 O 2115.32 1.05329 -5.60591 0
M  V30 21309 O 2114.26 -0.853473 -5.95818 0
M  V30 21310 H 2118.08 -1.39778 -2.69622 0
M  V30 21311 H 2115.67 -0.745288 -1.29483 0
M  V30 21312 H 2117.55 0.557659 -4.17694 0
M  V30 21313 H 2116.23 1.0174 -3.07296 0
M  V30 21314 H 2115.13 -1.2556 -3.524 0
M  V30 21315 H 2116.47 -1.63342 -4.64306 0
M  V30 21316 N 2118.12 1.38658 -0.749111 0
M  V30 21317 C 2119.39 1.94255 -0.228976 0
M  V30 21318 C 2119.77 1.68478 1.27194 0
M  V30 21319 O 2119.12 1.02082 2.0443 0
M  V30 21320 C 2119.33 3.44183 -0.577827 0
M  V30 21321 C 2120.68 4.21216 -0.534981 0
M  V30 21322 O 2121.7 3.52445 -0.515853 0
M  V30 21323 O 2120.56 5.43806 -0.541959 0
M  V30 21324 H 2117.66 0.825688 -0.0465621 0
M  V30 21325 H 2120.2 1.48077 -0.828929 0
M  V30 21326 H 2118.98 3.56436 -1.6146 0
M  V30 21327 H 2118.6 3.97568 0.0503656 0
M  V30 21328 N 2119.6 0.497834 1.49531 0
M  V30 21329 C 2120.54 -0.296019 2.30709 0
M  V30 21330 C 2121.54 -0.965727 1.39176 0
M  V30 21331 O 2122.74 -0.893777 1.56242 0
M  V30 21332 H 2119.12 -0.114319 0.74326 0
M  V30 21333 H 2121.09 0.408679 2.95588 0
M  V30 21334 C 2119.84 -1.34956 3.20441 0
M  V30 21335 H 2119.16 -0.843631 3.90798 0
M  V30 21336 H 2120.6 -1.87706 3.80187 0
M  V30 21337 C 2119.06 -2.36602 2.39836 0
M  V30 21338 O 2119.59 -3.4242 2.10027 0
M  V30 21339 N 2117.8 -2.08992 2.01918 0
M  V30 21340 H 2117.34 -1.2296 2.2636 0
M  V30 21341 H 2117.3 -2.7723 1.48293 0
M  V30 21342 N 2121.07 -1.5589 0.231532 0
M  V30 21343 C 2122.31 -2.00464 -0.399177 0
M  V30 21344 C 2122.68 -1.11596 -1.56238 0
M  V30 21345 O 2123.88 -1.4556 -2.25977 0
M  V30 21346 C 2122.15 -3.48025 -0.813243 0
M  V30 21347 S 2123.71 -4.14615 -1.43665 0
M  V30 21348 H 2120.53 -0.699696 -0.126279 0
M  V30 21349 H 2123.13 -1.92465 0.343163 0
M  V30 21350 H 2121.83 -4.10378 0.0428651 0
M  V30 21351 H 2121.36 -3.59919 -1.58815 0
M  V30 21352 H 2123.38 -4.14629 -2.72575 0
M  V30 21353 N 2122.55 0.0417572 -1.57545 0
M  V30 21354 C 2123.5 1.0648 -2.06796 0
M  V30 21355 C 2124.49 1.38234 -0.979162 0
M  V30 21356 O 2125.7 1.37288 -1.16413 0
M  V30 21357 H 2122.07 0.360857 -0.659762 0
M  V30 21358 H 2124.05 0.6235 -2.91813 0
M  V30 21359 C 2122.79 2.36114 -2.55236 0
M  V30 21360 H 2122.12 2.12537 -3.38627 0
M  V30 21361 H 2123.56 3.06072 -2.93421 0
M  V30 21362 C 2122.02 3.04191 -1.44808 0
M  V30 21363 O 2122.55 3.93508 -0.807098 0
M  V30 21364 N 2120.75 2.65308 -1.18574 0
M  V30 21365 H 2120.3 1.92763 -1.70881 0
M  V30 21366 H 2120.26 3.11178 -0.448987 0
M  V30 21367 N 2124.03 1.54445 0.313786 0
M  V30 21368 C 2125.28 1.72775 1.04849 0
M  V30 21369 C 2125.6 0.509507 1.88226 0
M  V30 21370 O 2124.87 -0.476396 1.90019 0
M  V30 21371 H 2123.45 0.637053 0.390092 0
M  V30 21372 H 2126.11 1.91771 0.347859 0
M  V30 21373 H 2125.21 2.61155 1.70893 0
M  V30 21374 N 2125.51 -0.576345 1.46683 0
M  V30 21375 C 2126.74 -1.3602 1.55905 0
M  V30 21376 C 2127.15 -1.87712 0.202401 0
M  V30 21377 O 2126.51 -1.63966 -0.801346 0
M  V30 21378 C 2126.56 -2.54335 2.56897 0
M  V30 21379 O 2126.28 -2.04783 3.87293 0
M  V30 21380 C 2127.78 -3.46804 2.7612 0
M  V30 21381 H 2125 -0.415305 0.527032 0
M  V30 21382 H 2127.54 -0.700047 1.92145 0
M  V30 21383 H 2125.7 -3.16326 2.23644 0
M  V30 21384 H 2126.11 -2.81882 4.42315 0
M  V30 21385 H 2127.59 -4.26286 3.50691 0
M  V30 21386 H 2128.06 -3.99143 1.83253 0
M  V30 21387 H 2128.67 -2.90643 3.10495 0
M  V30 21388 N 2126.99 -1.34495 -0.82151 0
M  V30 21389 C 2128.23 -1.28281 -1.59133 0
M  V30 21390 C 2128.59 0.144886 -1.91453 0
M  V30 21391 O 2129.79 0.331214 -2.66752 0
M  V30 21392 C 2128.06 -2.15002 -2.85498 0
M  V30 21393 S 2129.62 -2.26155 -3.76031 0
M  V30 21394 H 2126.44 -0.456114 -0.545418 0
M  V30 21395 H 2129.04 -1.69724 -0.970263 0
M  V30 21396 H 2127.74 -3.17736 -2.59754 0
M  V30 21397 H 2127.28 -1.74461 -3.526 0
M  V30 21398 H 2129.29 -1.43537 -4.74986 0
M  V30 21399 N 2128.46 1.04188 -1.18248 0
M  V30 21400 C 2129.41 2.10485 -0.876358 0
M  V30 21401 C 2130.4 1.60167 0.153389 0
M  V30 21402 O 2131.59 1.76928 -0.0504786 0
M  V30 21403 C 2128.72 3.40932 -0.402528 0
M  V30 21404 C 2127.81 3.9802 -1.46428 0
M  V30 21405 N 2128.2 4.28938 -2.68041 0
M  V30 21406 C 2126.49 4.25879 -1.32451 0
M  V30 21407 C 2127.2 4.74605 -3.3634 0
M  V30 21408 N 2126.17 4.75344 -2.63722 0
M  V30 21409 H 2129.97 2.32265 -1.80084 0
M  V30 21410 H 2127.49 1.2193 -1.0727 0
M  V30 21411 H 2129.48 4.16574 -0.164728 0
M  V30 21412 H 2128.14 3.2058 0.51563 0
M  V30 21413 H 2129.16 4.18623 -3.04918 0
M  V30 21414 H 2125.83 4.1486 -0.468792 0
M  V30 21415 H 2127.22 5.07557 -4.40267 0
M  V30 21416 N 2129.94 0.98432 1.23081 0
M  V30 21417 C 2131.17 0.673535 1.9563 0
M  V30 21418 C 2131.59 -0.760222 1.72818 0
M  V30 21419 O 2130.94 -1.51201 1.02198 0
M  V30 21420 C 2130.99 0.959283 3.4854 0
M  V30 21421 O 2130.71 2.33669 3.70581 0
M  V30 21422 C 2132.22 0.664998 4.38284 0
M  V30 21423 H 2129.44 0.249871 0.62274 0
M  V30 21424 H 2131.98 1.31677 1.56466 0
M  V30 21425 H 2130.13 0.361997 3.85705 0
M  V30 21426 H 2130.55 2.42938 4.64846 0
M  V30 21427 H 2132.02 0.915271 5.44359 0
M  V30 21428 H 2132.5 -0.400961 4.37366 0
M  V30 21429 H 2133.11 1.24294 4.06732 0
M  V30 21430 N 2131.42 -1.38259 0.756453 0
M  V30 21431 C 2132.65 -2.04861 0.323535 0
M  V30 21432 C 2133.07 -1.56679 -1.04083 0
M  V30 21433 O 2132.43 -0.72007 -1.66387 0
M  V30 21434 C 2132.48 -3.58812 0.358692 0
M  V30 21435 O 2131.58 -4.07304 -0.646296 0
M  V30 21436 H 2130.92 -0.64848 0.142723 0
M  V30 21437 H 2133.45 -1.76877 1.02838 0
M  V30 21438 H 2133.46 -4.07456 0.210579 0
M  V30 21439 H 2132.14 -3.93238 1.35413 0
M  V30 21440 H 2130.71 -3.7002 -0.462561 0
M  V30 21441 N 2132.9 -0.505757 -1.49264 0
M  V30 21442 C 2133.86 0.259147 -2.2773 0
M  V30 21443 C 2134.86 0.88969 -1.33945 0
M  V30 21444 O 2136.05 0.753485 -1.57061 0
M  V30 21445 C 2133.18 1.37232 -3.12058 0
M  V30 21446 H 2134.38 -0.42945 -2.96809 0
M  V30 21447 H 2131.93 -0.260876 -1.54108 0
M  V30 21448 H 2132.66 2.09492 -2.47555 0
M  V30 21449 H 2132.45 0.925587 -3.81019 0
M  V30 21450 H 2133.94 1.91099 -3.7131 0
M  V30 21451 N 2134.38 1.55765 -0.239796 0
M  V30 21452 C 2135.32 2.22467 0.679046 0
M  V30 21453 C 2136.32 1.20993 1.18562 0
M  V30 21454 O 2137.52 1.39024 1.14334 0
M  V30 21455 H 2133.9 0.713528 0.237447 0
M  V30 21456 H 2135.87 2.98254 0.0932403 0
M  V30 21457 C 2134.62 2.93244 1.86825 0
M  V30 21458 H 2133.94 3.71094 1.48759 0
M  V30 21459 H 2135.38 3.43289 2.48855 0
M  V30 21460 C 2133.84 1.96721 2.735 0
M  V30 21461 O 2134.37 1.49575 3.72814 0
M  V30 21462 N 2132.58 1.63976 2.39917 0
M  V30 21463 H 2132.12 2.02511 1.59208 0
M  V30 21464 H 2132.08 0.996588 2.98187 0
M  V30 21465 N 2135.85 -0.0334016 1.57565 0
M  V30 21466 C 2137.09 -0.729978 1.90921 0
M  V30 21467 C 2137.46 -1.72752 0.8379 0
M  V30 21468 O 2138.66 -2.47203 1.05566 0
M  V30 21469 C 2136.93 -1.38584 3.29438 0
M  V30 21470 S 2138.49 -2.11217 3.8462 0
M  V30 21471 H 2135.31 -0.241926 0.668575 0
M  V30 21472 H 2137.91 0.0152577 1.95494 0
M  V30 21473 H 2136.61 -0.64653 4.05275 0
M  V30 21474 H 2136.14 -2.16971 3.28157 0
M  V30 21475 H 2138.16 -3.383 3.62998 0
M  V30 21476 N 2137.33 -1.54609 -0.305591 0
M  V30 21477 C 2138.26 -1.88242 -1.38157 0
M  V30 21478 C 2139.24 -0.740883 -1.53117 0
M  V30 21479 O 2140.43 -0.996214 -1.66701 0
M  V30 21480 C 2137.56 -2.12567 -2.7465 0
M  V30 21481 C 2136.51 -3.28415 -2.74459 0
M  V30 21482 C 2135.84 -3.38148 -4.14198 0
M  V30 21483 C 2137.14 -4.65633 -2.36607 0
M  V30 21484 H 2138.83 -2.78359 -1.10258 0
M  V30 21485 H 2136.38 -1.33933 -0.528959 0
M  V30 21486 H 2138.33 -2.34681 -3.50004 0
M  V30 21487 H 2137.06 -1.19216 -3.04064 0
M  V30 21488 H 2135.71 -3.06217 -2.01561 0
M  V30 21489 H 2135.36 -2.42323 -4.40782 0
M  V30 21490 H 2135.06 -4.16019 -4.14973 0
M  V30 21491 H 2136.59 -3.62517 -4.91339 0
M  V30 21492 H 2138 -4.87508 -3.01677 0
M  V30 21493 H 2136.4 -5.46184 -2.48603 0
M  V30 21494 H 2137.47 -4.66662 -1.31738 0
M  V30 21495 N 2138.81 0.568558 -1.46987 0
M  V30 21496 C 2140.04 1.35191 -1.56624 0
M  V30 21497 C 2140.45 1.87602 -0.212353 0
M  V30 21498 O 2139.81 1.64388 0.792639 0
M  V30 21499 C 2139.86 2.52969 -2.58242 0
M  V30 21500 O 2139.58 2.02726 -3.88373 0
M  V30 21501 C 2141.08 3.45334 -2.77955 0
M  V30 21502 H 2138.3 0.412505 -0.529227 0
M  V30 21503 H 2140.85 0.689847 -1.92513 0
M  V30 21504 H 2139 3.15136 -2.25318 0
M  V30 21505 H 2139.42 2.79532 -4.43804 0
M  V30 21506 H 2140.89 4.2442 -3.52947 0
M  V30 21507 H 2141.37 3.98165 -1.85368 0
M  V30 21508 H 2141.97 2.88992 -3.12032 0
M  V30 21509 N 2140.29 1.34929 0.814366 0
M  V30 21510 C 2141.24 1.27231 1.94718 0
M  V30 21511 C 2142.23 0.16873 1.68558 0
M  V30 21512 O 2143.44 0.334235 1.7687 0
M  V30 21513 H 2139.81 0.395475 0.639612 0
M  V30 21514 H 2141.78 2.22951 1.98332 0
M  V30 21515 C 2140.53 1.0533 3.31362 0
M  V30 21516 H 2139.85 1.89485 3.52045 0
M  V30 21517 H 2141.29 1.03983 4.11052 0
M  V30 21518 C 2139.75 -0.243132 3.36022 0
M  V30 21519 O 2140.28 -1.24159 3.82031 0
M  V30 21520 N 2138.49 -0.279214 2.89256 0
M  V30 21521 H 2138.04 0.533893 2.52007 0
M  V30 21522 H 2137.99 -1.14638 2.92755 0
M  V30 21523 N 2141.77 -1.0356 1.18799 0
M  V30 21524 C 2142.99 -1.81025 1.01216 0
M  V30 21525 C 2143.42 -1.8301 -0.434636 0
M  V30 21526 O 2142.77 -1.25115 -1.3121 0
M  V30 21527 C 2142.82 -3.24257 1.57766 0
M  V30 21528 O 2141.93 -4.04518 0.802435 0
M  V30 21529 H 2141.27 -0.559085 0.358218 0
M  V30 21530 H 2143.8 -1.30389 1.57671 0
M  V30 21531 H 2143.81 -3.75022 1.60694 0
M  V30 21532 H 2142.48 -3.22127 2.63073 0
M  V30 21533 H 2141.06 -3.6318 0.845866 0
M  V30 21534 N 2143.25 -0.990834 -1.22557 0
M  V30 21535 C 2144.52 -0.581554 -1.86755 0
M  V30 21536 C 2144.9 0.941178 -1.88958 0
M  V30 21537 O 2144.25 1.82226 -1.37862 0
M  V30 21538 C 2144.46 -1.19961 -3.27735 0
M  V30 21539 C 2145.81 -1.29885 -4.04246 0
M  V30 21540 O 2146.83 -1.15385 -3.36994 0
M  V30 21541 O 2145.69 -1.53066 -5.24626 0
M  V30 21542 H 2142.79 -0.197289 -0.803123 0
M  V30 21543 H 2145.33 -1.08658 -1.30351 0
M  V30 21544 H 2144.1 -2.24125 -3.20755 0
M  V30 21545 H 2143.73 -0.680045 -3.91741 0
M  V30 21546 N 2144.72 1.37856 -0.763775 0
M  V30 21547 C 2145.97 1.99488 -0.323855 0
M  V30 21548 C 2146.29 1.60934 1.10115 0
M  V30 21549 O 2145.56 0.870985 1.75473 0
M  V30 21550 H 2144.14 0.73782 -0.116753 0
M  V30 21551 H 2146.8 1.68462 -0.980132 0
M  V30 21552 H 2145.9 3.09589 -0.395113 0
M  V30 21553 N 2146.2 0.513665 1.48994 0
M  V30 21554 C 2147.43 -0.0227686 2.06887 0
M  V30 21555 C 2147.84 -1.29658 1.37238 0
M  V30 21556 O 2147.2 -1.76745 0.454679 0
M  V30 21557 C 2147.25 -0.267284 3.60511 0
M  V30 21558 O 2146.97 0.956043 4.27541 0
M  V30 21559 C 2148.47 -0.845937 4.35154 0
M  V30 21560 H 2145.69 0.0261591 0.67049 0
M  V30 21561 H 2148.24 0.714646 1.91607 0
M  V30 21562 H 2146.39 -0.954707 3.75452 0
M  V30 21563 H 2146.81 0.726684 5.19442 0
M  V30 21564 H 2148.28 -0.966539 5.43472 0
M  V30 21565 H 2148.76 -1.84687 3.98481 0
M  V30 21566 H 2149.36 -0.19559 4.2485 0
M  V30 21567 N 2147.68 -1.55636 0.248053 0
M  V30 21568 C 2148.64 -2.2015 -0.637698 0
M  V30 21569 C 2149.64 -1.17112 -1.10188 0
M  V30 21570 O 2150.83 -1.42187 -1.00641 0
M  V30 21571 C 2147.96 -2.84598 -1.87661 0
M  V30 21572 H 2149.16 -2.99807 -0.0748129 0
M  V30 21573 H 2146.71 -1.563 -0.00148259 0
M  V30 21574 H 2147.45 -2.08882 -2.4807 0
M  V30 21575 H 2147.23 -3.60078 -1.55197 0
M  V30 21576 H 2148.72 -3.33968 -2.50709 0
M  V30 21577 N 2149.16 0.0250451 -1.5758 0
M  V30 21578 C 2150.38 0.730408 -1.94113 0
M  V30 21579 C 2150.81 1.67882 -0.848362 0
M  V30 21580 O 2150.17 1.80242 0.195596 0
M  V30 21581 C 2150.21 1.46014 -3.29715 0
M  V30 21582 O 2149.32 2.57351 -3.22249 0
M  V30 21583 H 2148.66 0.196157 -0.634365 0
M  V30 21584 H 2151.19 -0.0206802 -2.0459 0
M  V30 21585 H 2151.2 1.82917 -3.64699 0
M  V30 21586 H 2149.87 0.764593 -4.08811 0
M  V30 21587 H 2148.45 2.22961 -2.98903 0
M  V30 21588 N 2150.64 1.54769 0.297388 0
M  V30 21589 C 2151.88 1.7596 1.04007 0
M  V30 21590 C 2152.24 0.536063 1.84365 0
M  V30 21591 O 2153.44 0.625778 2.61414 0
M  V30 21592 C 2151.71 3.01504 1.91911 0
M  V30 21593 S 2153.27 3.43713 2.72776 0
M  V30 21594 H 2150.09 0.618485 0.350709 0
M  V30 21595 H 2152.69 1.92977 0.31308 0
M  V30 21596 H 2151.39 3.88675 1.31758 0
M  V30 21597 H 2150.93 2.87085 2.68972 0
M  V30 21598 H 2152.94 3.01067 3.94427 0
M  V30 21599 N 2152.11 -0.560755 1.47286 0
M  V30 21600 C 2153.06 -1.66812 1.59507 0
M  V30 21601 C 2154.03 -1.60214 0.438263 0
M  V30 21602 O 2155.22 -1.791 0.657862 0
M  V30 21603 C 2152.36 -3.05138 1.61199 0
M  V30 21604 C 2151.47 -3.22198 2.87771 0
M  V30 21605 C 2150.6 -4.50902 2.80822 0
M  V30 21606 C 2149.64 -4.61382 4.02235 0
M  V30 21607 N 2148.78 -5.81436 3.93543 0
M  V30 21608 H 2153.62 -1.55705 2.54087 0
M  V30 21609 H 2151.16 -0.758538 1.26034 0
M  V30 21610 H 2153.11 -3.85232 1.60163 0
M  V30 21611 H 2151.74 -3.15089 0.701347 0
M  V30 21612 H 2150.8 -2.3556 2.9869 0
M  V30 21613 H 2152.11 -3.25807 3.77692 0
M  V30 21614 H 2151.26 -5.39251 2.78016 0
M  V30 21615 H 2150 -4.49766 1.88578 0
M  V30 21616 H 2149.01 -3.71445 4.0535 0
M  V30 21617 H 2150.23 -4.6428 4.95601 0
M  V30 21618 H 2148.18 -5.81257 3.041 0
M  V30 21619 H 2148.09 -5.86408 4.77139 0
M  V30 21620 H 2149.36 -6.72157 3.94747 0
M  V30 21621 N 2153.59 -1.35359 -0.807199 0
M  V30 21622 C 2154.83 -1.29962 -1.57763 0
M  V30 21623 C 2155.2 0.124572 -1.91595 0
M  V30 21624 O 2156.4 0.302903 -2.67088 0
M  V30 21625 C 2154.67 -2.18018 -2.83202 0
M  V30 21626 S 2156.23 -2.3013 -3.73611 0
M  V30 21627 H 2153.04 -0.461874 -0.540549 0
M  V30 21628 H 2155.65 -1.70743 -0.952207 0
M  V30 21629 H 2154.35 -3.20473 -2.56369 0
M  V30 21630 H 2153.88 -1.78191 -3.5073 0
M  V30 21631 H 2155.9 -1.48567 -4.73437 0
M  V30 21632 N 2155.07 1.02928 -1.19346 0
M  V30 21633 C 2156.03 2.09361 -0.932765 0
M  V30 21634 C 2157.03 1.60567 0.086582 0
M  V30 21635 O 2158.22 1.73569 -0.148116 0
M  V30 21636 C 2155.35 3.38524 -0.401767 0
M  V30 21637 H 2156.55 2.33922 -1.87671 0
M  V30 21638 H 2154.1 1.19532 -1.00707 0
M  V30 21639 H 2154.84 3.19632 0.548245 0
M  V30 21640 H 2154.62 3.75261 -1.13672 0
M  V30 21641 H 2156.11 4.16919 -0.238443 0
M  V30 21642 N 2156.55 0.997319 1.2203 0
M  V30 21643 C 2157.51 0.556352 2.22345 0
M  V30 21644 C 2158.51 -0.363165 1.56645 0
M  V30 21645 O 2159.7 -0.154511 1.73513 0
M  V30 21646 C 2156.83 -0.190172 3.40369 0
M  V30 21647 H 2158.03 1.44355 2.62872 0
M  V30 21648 H 2155.58 0.784999 1.35157 0
M  V30 21649 H 2156.31 -1.09315 3.05321 0
M  V30 21650 H 2156.1 0.470115 3.89272 0
M  V30 21651 H 2157.59 -0.486708 4.14754 0
M  V30 21652 N 2158.03 -1.37449 0.771075 0
M  V30 21653 C 2159.27 -1.99314 0.33443 0
M  V30 21654 C 2159.6 -1.61515 -1.0926 0
M  V30 21655 O 2158.87 -0.880278 -1.75008 0
M  V30 21656 H 2157.45 -0.73719 0.120664 0
M  V30 21657 H 2160.11 -1.6794 0.989052 0
M  V30 21658 H 2159.2 -3.09375 0.411526 0
M  V30 21659 N 2159.5 -0.52156 -1.4872 0
M  V30 21660 C 2160.75 0.0155956 -2.02494 0
M  V30 21661 C 2161.08 1.35077 -1.39944 0
M  V30 21662 O 2160.33 1.88342 -0.531596 0
M  V30 21663 C 2160.63 0.195406 -3.56865 0
M  V30 21664 C 2160.3 -1.06435 -4.38158 0
M  V30 21665 C 2158.96 -1.40962 -4.6009 0
M  V30 21666 C 2161.31 -1.90076 -4.85305 0
M  V30 21667 C 2158.64 -2.59043 -5.26416 0
M  V30 21668 C 2160.99 -3.07328 -5.5293 0
M  V30 21669 C 2159.66 -3.42211 -5.73104 0
M  V30 21670 H 2158.93 0.00570684 -0.740978 0
M  V30 21671 H 2161.57 -0.68588 -1.78796 0
M  V30 21672 H 2159.88 0.979581 -3.79357 0
M  V30 21673 H 2161.58 0.625805 -3.96087 0
M  V30 21674 H 2158.17 -0.785439 -4.21342 0
M  V30 21675 H 2162.35 -1.64713 -4.6817 0
M  V30 21676 H 2157.61 -2.86282 -5.40234 0
M  V30 21677 H 2161.78 -3.72451 -5.88433 0
M  V30 21678 H 2159.41 -4.33809 -6.24271 0
M  V30 21679 N 2160.98 1.55502 -0.256304 0
M  V30 21680 C 2161.91 2.19122 0.672174 0
M  V30 21681 C 2162.93 1.17029 1.13172 0
M  V30 21682 O 2164.12 1.43849 1.05687 0
M  V30 21683 C 2161.22 2.78814 1.92655 0
M  V30 21684 C 2160.39 4.06417 1.6169 0
M  V30 21685 C 2159.45 4.50337 2.72182 0
M  V30 21686 O 2158.47 5.16515 2.39167 0
M  V30 21687 N 2159.68 4.18905 4.01869 0
M  V30 21688 H 2162.44 2.99428 0.127769 0
M  V30 21689 H 2160 1.61719 -0.0766386 0
M  V30 21690 H 2161.99 3.05149 2.65831 0
M  V30 21691 H 2160.56 2.02611 2.38049 0
M  V30 21692 H 2159.78 3.87571 0.719867 0
M  V30 21693 H 2161.07 4.89593 1.38479 0
M  V30 21694 H 2160.47 3.65795 4.31521 0
M  V30 21695 H 2159.03 4.50054 4.71481 0
M  V30 21696 N 2162.46 -0.0166879 1.57591 0
M  V30 21697 C 2163.71 -0.703596 1.89457 0
M  V30 21698 C 2164.03 -1.75229 0.855563 0
M  V30 21699 O 2163.3 -1.95595 -0.109241 0
M  V30 21700 H 2161.88 -0.262861 0.699223 0
M  V30 21701 H 2164.54 0.0202908 1.94889 0
M  V30 21702 H 2163.64 -1.18538 2.88713 0
M  V30 21703 N 2163.94 -1.54924 -0.289176 0
M  V30 21704 C 2164.89 -1.87462 -1.37698 0
M  V30 21705 C 2165.88 -0.749411 -1.51922 0
M  V30 21706 O 2167.09 -0.933558 -1.53898 0
M  V30 21707 H 2163.46 -0.59475 -0.460192 0
M  V30 21708 H 2165.43 -2.78365 -1.07498 0
M  V30 21709 C 2164.18 -2.14897 -2.7334 0
M  V30 21710 H 2163.5 -3.00958 -2.63181 0
M  V30 21711 H 2164.94 -2.41596 -3.48436 0
M  V30 21712 C 2163.4 -0.951304 -3.2319 0
M  V30 21713 O 2163.93 -0.177749 -4.01307 0
M  V30 21714 N 2162.14 -0.753431 -2.80663 0
M  V30 21715 H 2161.69 -1.38415 -2.17253 0
M  V30 21716 H 2161.64 0.0463293 -3.14366 0
M  V30 21717 N 2165.42 0.552936 -1.47582 0
M  V30 21718 C 2166.66 1.30733 -1.54121 0
M  V30 21719 C 2166.99 1.93899 -0.206934 0
M  V30 21720 O 2166.26 1.80154 0.769505 0
M  V30 21721 H 2164.84 0.485489 -0.567723 0
M  V30 21722 H 2167.5 0.645327 -1.83906 0
M  V30 21723 H 2166.59 2.09863 -2.31006 0
M  V30 21724 N 2166.89 1.35785 0.800009 0
M  V30 21725 C 2168.12 1.32556 1.5886 0
M  V30 21726 C 2168.54 -0.0955366 1.88558 0
M  V30 21727 O 2167.89 -1.0494 1.49311 0
M  V30 21728 C 2167.95 2.13669 2.91595 0
M  V30 21729 O 2167.67 3.50238 2.63182 0
M  V30 21730 C 2169.17 2.181 3.85937 0
M  V30 21731 H 2166.39 0.455105 0.493073 0
M  V30 21732 H 2168.93 1.78733 0.993714 0
M  V30 21733 H 2167.09 1.71074 3.47581 0
M  V30 21734 H 2167.5 3.92442 3.47979 0
M  V30 21735 H 2168.97 2.79234 4.76164 0
M  V30 21736 H 2169.45 1.18154 4.23009 0
M  V30 21737 H 2170.06 2.60885 3.35886 0
M  V30 21738 N 2168.37 -1.02294 1.19891 0
M  V30 21739 C 2169.62 -1.75196 0.999463 0
M  V30 21740 C 2169.93 -1.89874 -0.469823 0
M  V30 21741 O 2171.14 -2.59806 -0.788235 0
M  V30 21742 C 2169.6 -3.15074 1.73944 0
M  V30 21743 C 2169.2 -3.0843 3.24923 0
M  V30 21744 C 2170.95 -3.9223 1.62345 0
M  V30 21745 C 2168.86 -4.43277 3.91484 0
M  V30 21746 H 2167.79 -0.656782 0.370342 0
M  V30 21747 H 2170.44 -1.14434 1.43447 0
M  V30 21748 H 2168.82 -3.76339 1.23227 0
M  V30 21749 H 2169.99 -2.5651 3.82804 0
M  V30 21750 H 2168.31 -2.44769 3.36864 0
M  V30 21751 H 2170.9 -4.91983 2.09419 0
M  V30 21752 H 2171.25 -4.1226 0.578579 0
M  V30 21753 H 2171.78 -3.37579 2.1044 0
M  V30 21754 H 2168.52 -4.28451 4.96095 0
M  V30 21755 H 2168.04 -4.95228 3.38392 0
M  V30 21756 H 2169.72 -5.12142 3.95373 0
M  V30 21757 N 2169.85 -1.00378 -1.21499 0
M  V30 21758 C 2171.09 -0.694137 -1.92253 0
M  V30 21759 C 2171.45 0.760945 -1.76277 0
M  V30 21760 O 2172.66 1.18251 -2.41392 0
M  V30 21761 C 2170.93 -1.10215 -3.39982 0
M  V30 21762 S 2172.49 -0.912529 -4.29207 0
M  V30 21763 H 2169.3 -0.253452 -0.664292 0
M  V30 21764 H 2171.91 -1.28835 -1.47044 0
M  V30 21765 H 2170.61 -2.1573 -3.49126 0
M  V30 21766 H 2170.14 -0.500184 -3.90207 0
M  V30 21767 H 2172.16 0.191044 -4.95832 0
M  V30 21768 N 2171.33 1.37038 -0.778354 0
M  V30 21769 C 2172.56 2.03792 -0.357266 0
M  V30 21770 C 2172.97 1.587 1.02272 0
M  V30 21771 O 2172.33 0.771294 1.654 0
M  V30 21772 C 2172.38 3.59293 -0.398808 0
M  V30 21773 O 2172.1 4.02737 -1.72437 0
M  V30 21774 C 2173.6 4.43288 0.0330462 0
M  V30 21775 H 2170.82 0.654304 -0.148753 0
M  V30 21776 H 2173.37 1.75239 -1.05412 0
M  V30 21777 H 2171.52 3.86596 0.249525 0
M  V30 21778 H 2171.93 4.97286 -1.66754 0
M  V30 21779 H 2173.41 5.5198 -0.0471696 0
M  V30 21780 H 2173.89 4.25606 1.08428 0
M  V30 21781 H 2174.49 4.21225 -0.58735 0
M  V30 21782 N 2172.81 0.529439 1.48441 0
M  V30 21783 C 2173.77 -0.222884 2.28114 0
M  V30 21784 C 2174.77 -0.868268 1.35343 0
M  V30 21785 O 2175.96 -0.728402 1.5824 0
M  V30 21786 C 2173.09 -1.3225 3.14202 0
M  V30 21787 H 2174.29 0.476616 2.96088 0
M  V30 21788 H 2171.84 0.28536 1.53673 0
M  V30 21789 H 2172.57 -2.05527 2.50857 0
M  V30 21790 H 2172.36 -0.864853 3.82443 0
M  V30 21791 H 2173.85 -1.85168 3.74303 0
M  V30 21792 N 2174.29 -1.55364 0.264547 0
M  V30 21793 C 2175.53 -1.98537 -0.355827 0
M  V30 21794 C 2175.85 -1.15624 -1.57767 0
M  V30 21795 O 2177.05 -1.48892 -2.27032 0
M  V30 21796 C 2175.51 -3.53332 -0.684446 0
M  V30 21797 C 2175.12 -4.45007 0.516993 0
M  V30 21798 C 2176.86 -4.05119 -1.26803 0
M  V30 21799 C 2174.77 -5.91174 0.163548 0
M  V30 21800 H 2173.7 -0.7415 -0.136725 0
M  V30 21801 H 2176.35 -1.79782 0.367539 0
M  V30 21802 H 2174.73 -3.67848 -1.46643 0
M  V30 21803 H 2175.91 -4.42256 1.29406 0
M  V30 21804 H 2174.22 -4.03797 1.0167 0
M  V30 21805 H 2176.82 -5.11859 -1.5461 0
M  V30 21806 H 2177.16 -3.53519 -2.19841 0
M  V30 21807 H 2177.69 -3.93999 -0.548571 0
M  V30 21808 H 2174.43 -6.46848 1.06153 0
M  V30 21809 H 2173.95 -5.97019 -0.576966 0
M  V30 21810 H 2175.63 -6.46524 -0.248012 0
M  V30 21811 N 2175.76 0.00833021 -1.57598 0
M  V30 21812 C 2176.71 1.0207 -2.09008 0
M  V30 21813 C 2177.71 1.36126 -1.00826 0
M  V30 21814 O 2178.91 1.34788 -1.19298 0
M  V30 21815 H 2175.29 0.346781 -0.667268 0
M  V30 21816 H 2177.26 0.561462 -2.9307 0
M  V30 21817 C 2176.01 2.30647 -2.60187 0
M  V30 21818 H 2175.33 2.05307 -3.43059 0
M  V30 21819 H 2176.77 2.9978 -2.99847 0
M  V30 21820 C 2175.23 3.01051 -1.51227 0
M  V30 21821 O 2175.76 3.91708 -0.890385 0
M  V30 21822 N 2173.96 2.62734 -1.24175 0
M  V30 21823 H 2173.51 1.89095 -1.74931 0
M  V30 21824 H 2173.47 3.10155 -0.514892 0
M  V30 21825 N 2177.24 1.55075 0.280956 0
M  V30 21826 C 2178.2 1.86644 1.33029 0
M  V30 21827 C 2179.2 0.740496 1.42735 0
M  V30 21828 O 2180.39 1.00871 1.42023 0
M  V30 21829 C 2177.53 2.06462 2.71268 0
M  V30 21830 H 2178.72 2.80439 1.06273 0
M  V30 21831 H 2176.27 1.47445 0.51863 0
M  V30 21832 H 2177.01 1.15021 3.03217 0
M  V30 21833 H 2176.79 2.88433 2.65611 0
M  V30 21834 H 2178.28 2.32186 3.47101 0
M  V30 21835 N 2178.72 -0.545102 1.47873 0
M  V30 21836 C 2179.96 -1.31236 1.56705 0
M  V30 21837 C 2180.32 -1.90628 0.229129 0
M  V30 21838 O 2181.52 -2.68111 0.192359 0
M  V30 21839 C 2179.8 -2.38385 2.66284 0
M  V30 21840 S 2181.35 -3.25037 2.94782 0
M  V30 21841 H 2178.17 -0.446614 0.553224 0
M  V30 21842 H 2180.77 -0.622716 1.85317 0
M  V30 21843 H 2179.48 -1.93208 3.62076 0
M  V30 21844 H 2179.01 -3.12075 2.39526 0
M  V30 21845 H 2181.02 -4.38135 2.32922 0
M  V30 21846 N 2180.2 -1.36208 -0.792797 0
M  V30 21847 C 2181.11 -1.32403 -1.93666 0
M  V30 21848 C 2182.12 -0.226736 -1.72516 0
M  V30 21849 O 2183.3 -0.458518 -1.96111 0
M  V30 21850 C 2180.36 -1.10928 -3.28475 0
M  V30 21851 C 2179.43 -2.301 -3.62426 0
M  V30 21852 C 2178.66 -2.0964 -4.90802 0
M  V30 21853 O 2178.88 -1.06985 -5.60277 0
M  V30 21854 O 2177.82 -2.97336 -5.23331 0
M  V30 21855 H 2181.64 -2.287 -1.99825 0
M  V30 21856 H 2179.23 -1.1672 -0.932566 0
M  V30 21857 H 2181.11 -1.00855 -4.09153 0
M  V30 21858 H 2179.78 -0.17691 -3.23216 0
M  V30 21859 H 2178.69 -2.45741 -2.82068 0
M  V30 21860 H 2180.02 -3.21832 -3.72405 0
M  V30 21861 N 2181.68 1.01656 -1.20431 0
M  V30 21862 C 2182.92 1.74663 -1.00874 0
M  V30 21863 C 2183.24 1.9012 0.459746 0
M  V30 21864 O 2184.44 2.6022 0.774445 0
M  V30 21865 C 2182.9 3.14147 -1.75612 0
M  V30 21866 C 2182.51 3.06703 -3.26554 0
M  V30 21867 C 2184.25 3.91364 -1.64422 0
M  V30 21868 C 2182.16 4.41194 -3.93829 0
M  V30 21869 H 2181.09 0.654809 -0.37382 0
M  V30 21870 H 2183.74 1.13672 -1.44052 0
M  V30 21871 H 2182.12 3.7568 -1.25221 0
M  V30 21872 H 2183.3 2.54477 -3.84159 0
M  V30 21873 H 2181.61 2.42979 -3.38157 0
M  V30 21874 H 2184.21 4.90866 -2.12026 0
M  V30 21875 H 2184.55 4.11947 -0.600434 0
M  V30 21876 H 2185.08 3.36459 -2.12227 0
M  V30 21877 H 2181.82 4.25814 -4.9836 0
M  V30 21878 H 2181.34 4.93427 -3.41013 0
M  V30 21879 H 2183.02 5.10038 -3.98084 0
M  V30 21880 N 2183.15 1.01021 1.20965 0
M  V30 21881 C 2184.38 0.714661 1.94698 0
M  V30 21882 C 2184.8 -0.717235 1.73889 0
M  V30 21883 O 2184.16 -1.49265 1.02906 0
M  V30 21884 C 2184.21 1.04769 3.45045 0
M  V30 21885 O 2183.31 0.155818 4.12106 0
M  V30 21886 H 2182.65 0.265768 0.608493 0
M  V30 21887 H 2185.18 1.35186 1.53577 0
M  V30 21888 H 2185.19 0.996722 3.95638 0
M  V30 21889 H 2183.87 2.09099 3.59514 0
M  V30 21890 H 2182.45 0.263764 3.71966 0
M  V30 21891 N 2184.63 -1.36623 0.78561 0
M  V30 21892 C 2185.58 -2.31983 0.169296 0
M  V30 21893 C 2186.57 -1.55619 -0.66926 0
M  V30 21894 O 2187.78 -1.7091 -0.56477 0
M  V30 21895 H 2184.15 -0.751139 0.0359684 0
M  V30 21896 H 2186.13 -2.81531 0.989071 0
M  V30 21897 C 2184.87 -3.40896 -0.684473 0
M  V30 21898 H 2184.2 -3.9977 -0.0485801 0
M  V30 21899 H 2185.64 -4.0995 -1.08245 0
M  V30 21900 C 2184.1 -2.82145 -1.84108 0
M  V30 21901 O 2184.63 -2.74004 -2.93743 0
M  V30 21902 N 2182.83 -2.39489 -1.64601 0
M  V30 21903 H 2182.38 -2.46311 -0.754247 0
M  V30 21904 H 2182.34 -2.00526 -2.4215 0
M  V30 21905 N 2186.11 -0.537304 -1.48158 0
M  V30 21906 C 2187.36 -0.00587084 -2.02099 0
M  V30 21907 C 2187.68 1.3407 -1.41599 0
M  V30 21908 O 2186.95 1.86993 -0.583977 0
M  V30 21909 H 2185.53 0.000818022 -0.747 0
M  V30 21910 H 2188.19 -0.702798 -1.81788 0
M  V30 21911 H 2187.29 0.0970321 -3.11949 0
M  V30 21912 N 2187.59 1.55221 -0.272782 0
M  V30 21913 C 2188.84 1.99151 0.343986 0
M  V30 21914 C 2189.16 1.16259 1.56553 0
M  V30 21915 O 2188.43 0.25154 1.94278 0
M  V30 21916 H 2187.01 0.735586 0.130087 0
M  V30 21917 H 2189.67 1.91208 -0.377577 0
M  V30 21918 H 2188.77 3.05562 0.635452 0
M  V30 21919 N 2189.07 2.77022e-05 1.576 0
M  V30 21920 C 2190.31 -0.689316 1.92426 0
M  V30 21921 C 2190.67 -1.70936 0.874355 0
M  V30 21922 O 2191.87 -2.44908 1.10786 0
M  V30 21923 C 2190.14 -1.31565 3.32303 0
M  V30 21924 S 2191.7 -2.03011 3.89014 0
M  V30 21925 H 2188.52 -0.22769 0.673556 0
M  V30 21926 H 2191.12 0.0567214 1.95418 0
M  V30 21927 H 2189.83 -0.560419 4.06556 0
M  V30 21928 H 2189.36 -2.09962 3.32685 0
M  V30 21929 H 2191.37 -3.30524 3.70092 0
M  V30 21930 N 2190.54 -1.55222 -0.272728 0
M  V30 21931 C 2191.77 -1.80199 -1.02679 0
M  V30 21932 C 2192.19 -0.573583 -1.79141 0
M  V30 21933 O 2191.55 0.476818 -1.74918 0
M  V30 21934 C 2191.6 -3.02627 -1.96084 0
M  V30 21935 O 2190.7 -2.77732 -3.04858 0
M  V30 21936 H 2190.05 -0.595589 -0.293547 0
M  V30 21937 H 2192.58 -2.02366 -0.301554 0
M  V30 21938 H 2192.59 -3.31367 -2.38033 0
M  V30 21939 H 2191.26 -3.91684 -1.39844 0
M  V30 21940 H 2189.84 -2.60089 -2.67223 0
M  V30 21941 N 2192.02 0.537252 -1.4816 0
M  V30 21942 C 2192.99 1.62469 -1.61668 0
M  V30 21943 C 2193.99 1.53139 -0.490422 0
M  V30 21944 O 2195.18 1.56939 -0.756026 0
M  V30 21945 C 2192.31 3.02073 -1.58003 0
M  V30 21946 H 2193.5 1.51834 -2.58624 0
M  V30 21947 H 2191.05 0.758747 -1.36648 0
M  V30 21948 H 2191.79 3.18221 -0.624969 0
M  V30 21949 H 2191.57 3.10254 -2.3976 0
M  V30 21950 H 2193.06 3.81148 -1.70634 0
M  V30 21951 N 2193.5 1.36626 0.785562 0
M  V30 21952 C 2194.45 1.31267 1.89836 0
M  V30 21953 C 2195.42 0.180662 1.65115 0
M  V30 21954 O 2196.6 0.367802 1.87221 0
M  V30 21955 C 2193.74 1.11168 3.26704 0
M  V30 21956 C 2192.86 2.33478 3.63472 0
M  V30 21957 C 2191.99 2.06361 4.89478 0
M  V30 21958 C 2191.03 3.24611 5.18935 0
M  V30 21959 N 2190.17 2.97134 6.36126 0
M  V30 21960 H 2195.01 2.26416 1.93752 0
M  V30 21961 H 2192.54 1.12526 0.947434 0
M  V30 21962 H 2194.5 0.975408 4.05637 0
M  V30 21963 H 2193.13 0.196731 3.222 0
M  V30 21964 H 2192.18 2.57896 2.79632 0
M  V30 21965 H 2193.5 3.21711 3.81187 0
M  V30 21966 H 2192.65 1.89685 5.76285 0
M  V30 21967 H 2191.39 1.15446 4.73839 0
M  V30 21968 H 2190.39 3.41842 4.30609 0
M  V30 21969 H 2191.62 4.16358 5.36491 0
M  V30 21970 H 2189.56 2.08834 6.21872 0
M  V30 21971 H 2189.48 3.78906 6.54191 0
M  V30 21972 H 2190.75 2.84046 7.25905 0
M  V30 21973 N 2194.98 -1.01016 1.20969 0
M  V30 21974 C 2195.94 -2.07851 0.965954 0
M  V30 21975 C 2196.94 -1.60684 -0.0610263 0
M  V30 21976 O 2198.13 -1.73312 0.175711 0
M  V30 21977 C 2195.26 -3.37842 0.455573 0
M  V30 21978 H 2196.46 -2.30907 1.91369 0
M  V30 21979 H 2194.01 -1.17915 1.02596 0
M  V30 21980 H 2194.74 -3.20464 -0.497325 0
M  V30 21981 H 2194.53 -3.73405 1.19628 0
M  V30 21982 H 2196.02 -4.16487 0.304741 0
M  V30 21983 N 2196.46 -1.01661 -1.20428 0
M  V30 21984 C 2197.73 -0.621037 -1.85479 0
M  V30 21985 C 2198.11 0.900885 -1.90912 0
M  V30 21986 O 2197.46 1.7926 -1.41697 0
M  V30 21987 C 2197.67 -1.26885 -3.25117 0
M  V30 21988 C 2199.02 -1.3843 -4.014 0
M  V30 21989 O 2200.04 -1.22507 -3.34471 0
M  V30 21990 O 2198.9 -1.6416 -5.21262 0
M  V30 21991 H 2196 -0.21428 -0.798757 0
M  V30 21992 H 2198.54 -1.11399 -1.28017 0
M  V30 21993 H 2197.31 -2.30879 -3.15928 0
M  V30 21994 H 2196.94 -0.762986 -3.90211 0
M  V30 21995 N 2197.93 1.36205 -0.792844 0
M  V30 21996 C 2199.17 2.00981 -0.372273 0
M  V30 21997 C 2199.54 1.61557 1.03746 0
M  V30 21998 O 2200.74 2.1895 1.5593 0
M  V30 21999 C 2199.01 3.53379 -0.534629 0
M  V30 22000 S 2200.57 4.38333 -0.202442 0
M  V30 22001 H 2197.39 0.696664 -0.142056 0
M  V30 22002 H 2199.99 1.66037 -1.03209 0
M  V30 22003 H 2198.69 3.79559 -1.56087 0
M  V30 22004 H 2198.22 3.93147 0.140996 0
M  V30 22005 H 2200.24 4.86126 0.994783 0
M  V30 22006 N 2199.41 0.545154 1.47871 0
M  V30 22007 C 2200.36 -0.20926 2.29849 0
M  V30 22008 C 2201.33 -0.919683 1.38315 0
M  V30 22009 O 2202.51 -0.917743 1.67279 0
M  V30 22010 C 2199.65 -1.24083 3.22021 0
M  V30 22011 C 2198.77 -0.537702 4.28641 0
M  V30 22012 C 2197.9 -1.55351 5.07976 0
M  V30 22013 C 2196.94 -0.834694 6.06382 0
M  V30 22014 N 2196.08 -1.79676 6.7872 0
M  V30 22015 H 2200.92 0.495962 2.93844 0
M  V30 22016 H 2198.46 0.256415 1.44848 0
M  V30 22017 H 2200.41 -1.85137 3.73872 0
M  V30 22018 H 2199.04 -1.91424 2.59917 0
M  V30 22019 H 2198.1 0.187112 3.7994 0
M  V30 22020 H 2199.41 0.0259783 4.98793 0
M  V30 22021 H 2198.56 -2.23793 5.63916 0
M  V30 22022 H 2197.3 -2.1511 4.37697 0
M  V30 22023 H 2196.31 -0.136291 5.49631 0
M  V30 22024 H 2197.53 -0.24301 6.78665 0
M  V30 22025 H 2195.48 -2.38315 6.11181 0
M  V30 22026 H 2195.39 -1.28492 7.45001 0
M  V30 22027 H 2196.66 -2.47269 7.39242 0
M  V30 22028 N 2200.89 -1.55074 0.28101 0
M  V30 22029 C 2202.31 -1.59433 -0.0729684 0
M  V30 22030 C 2202.51 -1.29819 -1.54108 0
M  V30 22031 O 2201.56 -1.06191 -2.29085 0
M  V30 22032 C 2202.88 -2.99129 0.306974 0
M  V30 22033 C 2204.42 -3.11967 0.254078 0
M  V30 22034 C 2204.9 -4.53939 0.608547 0
M  V30 22035 N 2206.39 -4.59798 0.560322 0
M  V30 22036 C 2207.12 -5.67688 0.807319 0
M  V30 22037 N 2206.62 -6.83699 1.11924 0
M  V30 22038 N 2208.41 -5.57264 0.735721 0
M  V30 22039 H 2200.56 -1.72588 1.23803 0
M  V30 22040 H 2202.83 -0.805073 0.500561 0
M  V30 22041 H 2202.53 -3.25655 1.32822 0
M  V30 22042 H 2202.41 -3.75579 -0.349297 0
M  V30 22043 H 2204.79 -2.85202 -0.75789 0
M  V30 22044 H 2204.88 -2.37717 0.94469 0
M  V30 22045 H 2204.52 -4.81431 1.61823 0
M  V30 22046 H 2204.45 -5.26497 -0.10392 0
M  V30 22047 H 2206.94 -3.76462 0.329354 0
M  V30 22048 H 2207.25 -7.61886 1.29422 0
M  V30 22049 H 2205.6 -6.853 1.15708 0
M  V30 22050 H 2208.79 -4.65509 0.491834 0
M  V30 22051 H 2208.96 -6.41269 0.931595 0
M  V30 22052 N 2202.37 -0.00838561 -1.57598 0
M  V30 22053 C 2203.6 0.685456 -1.95216 0
M  V30 22054 C 2204.01 1.6684 -0.883736 0
M  V30 22055 O 2203.37 1.81989 0.136533 0
M  V30 22056 C 2203.42 1.41001 -3.32868 0
M  V30 22057 O 2203.14 0.466475 -4.35609 0
M  V30 22058 C 2204.64 2.19759 -3.84995 0
M  V30 22059 H 2201.86 0.190381 -0.643425 0
M  V30 22060 H 2204.41 -0.0619966 -2.04406 0
M  V30 22061 H 2202.56 2.10902 -3.2496 0
M  V30 22062 H 2202.98 0.978608 -5.1529 0
M  V30 22063 H 2204.45 2.6594 -4.83715 0
M  V30 22064 H 2204.93 3.0279 -3.18142 0
M  V30 22065 H 2205.53 1.54857 -3.96105 0
M  V30 22066 N 2203.85 1.55365 0.264492 0
M  V30 22067 C 2205.08 1.80407 1.01297 0
M  V30 22068 C 2205.49 0.581654 1.79617 0
M  V30 22069 O 2204.85 -0.449437 1.76879 0
M  V30 22070 C 2204.9 3.03442 1.96482 0
M  V30 22071 O 2204.62 4.20963 1.21334 0
M  V30 22072 C 2206.12 3.41152 2.83073 0
M  V30 22073 H 2203.34 0.600767 0.298865 0
M  V30 22074 H 2205.88 2.02394 0.2927 0
M  V30 22075 H 2204.04 2.83556 2.6396 0
M  V30 22076 H 2204.45 4.90577 1.85564 0
M  V30 22077 H 2205.93 4.3039 3.45642 0
M  V30 22078 H 2206.4 2.60938 3.53282 0
M  V30 22079 H 2207.01 3.63327 2.21073 0
M  V30 22080 N 2205.33 -0.529387 1.48443 0
M  V30 22081 C 2206.74 -1.11132 1.50022 0
M  V30 22082 C 2207.09 -1.94329 0.270344 0
M  V30 22083 O 2206.21 -2.07254 -0.62247 0
M  V30 22084 C 2206.81 -2.02212 2.71838 0
M  V30 22085 C 2205.37 -2.55622 2.76287 0
M  V30 22086 C 2204.51 -1.32596 2.43544 0
M  V30 22087 H 2207.46 -0.314614 1.5555 0
M  V30 22088 H 2207.49 -2.86506 2.50389 0
M  V30 22089 H 2207 -1.41633 3.61333 0
M  V30 22090 H 2205.1 -3.19921 1.91001 0
M  V30 22091 H 2205.21 -2.94715 3.7773 0
M  V30 22092 H 2203.58 -1.64193 1.94712 0
M  V30 22093 H 2204.36 -0.737675 3.35281 0
M  V30 22094 N 2206.8 -1.37041 -0.778305 0
M  V30 22095 C 2208.05 -1.31626 -1.53359 0
M  V30 22096 C 2208.37 0.100797 -1.94739 0
M  V30 22097 O 2207.64 1.04344 -1.65799 0
M  V30 22098 H 2206.22 -0.484244 -0.568785 0
M  V30 22099 H 2208.88 -1.71459 -0.926712 0
M  V30 22100 H 2207.98 -1.951 -2.43603 0
M  V30 22101 N 2208.28 1.00373 -1.21503 0
M  V30 22102 C 2209.7 1.26537 -0.972652 0
M  V30 22103 C 2209.9 1.98607 0.340222 0
M  V30 22104 O 2208.95 2.28915 1.06557 0
M  V30 22105 C 2210.27 2.08778 -2.16408 0
M  V30 22106 C 2211.81 2.22 -2.20647 0
M  V30 22107 C 2212.29 3.07623 -3.39312 0
M  V30 22108 N 2213.78 3.15211 -3.39406 0
M  V30 22109 C 2214.52 3.81722 -4.27874 0
M  V30 22110 N 2214.01 4.50251 -5.26541 0
M  V30 22111 N 2215.8 3.78375 -4.15679 0
M  V30 22112 H 2207.96 0.520244 -2.0593 0
M  V30 22113 H 2210.22 0.292312 -0.901808 0
M  V30 22114 H 2209.92 1.63173 -3.11557 0
M  V30 22115 H 2209.8 3.09529 -2.15573 0
M  V30 22116 H 2212.19 2.66823 -1.26053 0
M  V30 22117 H 2212.27 1.20714 -2.25525 0
M  V30 22118 H 2211.91 2.63502 -4.342 0
M  V30 22119 H 2211.84 4.09025 -3.31672 0
M  V30 22120 H 2214.33 2.66428 -2.68001 0
M  V30 22121 H 2214.64 4.9871 -5.90346 0
M  V30 22122 H 2212.99 4.49034 -5.30465 0
M  V30 22123 H 2216.18 3.23992 -3.37856 0
M  V30 22124 H 2216.35 4.29932 -4.84833 0
M  V30 22125 N 2209.76 1.02298 1.19887 0
M  V30 22126 C 2211.18 0.738979 1.41461 0
M  V30 22127 C 2211.38 -0.678813 1.89722 0
M  V30 22128 O 2210.43 -1.44566 2.07019 0
M  V30 22129 C 2211.74 1.7701 2.4308 0
M  V30 22130 C 2213.29 1.78896 2.56837 0
M  V30 22131 C 2213.77 2.80952 3.61704 0
M  V30 22132 N 2215.26 2.79732 3.69194 0
M  V30 22133 C 2215.99 3.55353 4.50013 0
M  V30 22134 N 2215.49 4.40672 5.34584 0
M  V30 22135 N 2217.28 3.43922 4.44606 0
M  V30 22136 H 2209.43 1.93819 0.868793 0
M  V30 22137 H 2211.7 0.83761 0.443975 0
M  V30 22138 H 2211.4 2.78615 2.14631 0
M  V30 22139 H 2211.28 1.5875 3.42167 0
M  V30 22140 H 2213.66 0.779724 2.84613 0
M  V30 22141 H 2213.74 2.01231 1.57924 0
M  V30 22142 H 2213.39 3.82044 3.34671 0
M  V30 22143 H 2213.32 2.55878 4.60254 0
M  V30 22144 H 2215.81 2.17847 3.0879 0
M  V30 22145 H 2216.12 4.95127 5.93354 0
M  V30 22146 H 2214.47 4.44747 5.34065 0
M  V30 22147 H 2217.66 2.76685 3.77575 0
M  V30 22148 H 2217.83 4.03109 5.07353 0
M  V30 22149 N 2211.24 -1.35782 0.800057 0
M  V30 22150 C 2212.48 -1.99247 0.377936 0
M  V30 22151 C 2212.82 -1.63335 -1.05049 0
M  V30 22152 O 2212.09 -0.893415 -1.72767 0
M  V30 22153 C 2212.37 -3.55813 0.553984 0
M  V30 22154 C 2212.23 -4.01545 2.02687 0
M  V30 22155 C 2213.55 -4.40093 -0.0244028 0
M  V30 22156 H 2210.67 -0.723813 0.138795 0
M  V30 22157 H 2213.31 -1.61033 1.00838 0
M  V30 22158 H 2211.46 -3.88496 0.0173081 0
M  V30 22159 H 2213.13 -3.79301 2.62543 0
M  V30 22160 H 2211.37 -3.52693 2.52567 0
M  V30 22161 H 2212.04 -5.10454 2.10096 0
M  V30 22162 H 2214.52 -4.13832 0.433848 0
M  V30 22163 H 2213.4 -5.48749 0.128733 0
M  V30 22164 H 2213.66 -4.27743 -1.11751 0
M  V30 22165 N 2212.72 -0.552988 -1.4758 0
M  V30 22166 C 2213.96 -0.0296604 -2.04378 0
M  V30 22167 C 2214.32 1.29391 -1.41852 0
M  V30 22168 O 2215.52 1.90467 -1.89673 0
M  V30 22169 C 2213.79 0.0660743 -3.57339 0
M  V30 22170 S 2215.35 0.536137 -4.35512 0
M  V30 22171 H 2212.17 -0.0231116 -0.710624 0
M  V30 22172 H 2214.77 -0.738766 -1.81004 0
M  V30 22173 H 2213.47 -0.901667 -4.00372 0
M  V30 22174 H 2213.01 0.798863 -3.85204 0
M  V30 22175 H 2215.02 1.7966 -4.62533 0
M  V30 22176 N 2214.19 1.54923 -0.28923 0
M  V30 22177 C 2215.42 2.04309 0.326427 0
M  V30 22178 C 2215.84 1.16703 1.48411 0
M  V30 22179 O 2215.19 0.190119 1.81507 0
M  V30 22180 C 2215.24 3.52674 0.793952 0
M  V30 22181 O 2214.97 4.36947 -0.317641 0
M  V30 22182 C 2216.47 4.18007 1.47598 0
M  V30 22183 H 2213.69 0.667059 0.0726155 0
M  V30 22184 H 2216.23 2.00026 -0.425436 0
M  V30 22185 H 2214.39 3.57355 1.49587 0
M  V30 22186 H 2214.8 5.24481 0.0442264 0
M  V30 22187 H 2216.27 5.23379 1.75438 0
M  V30 22188 H 2216.75 3.67029 2.41218 0
M  V30 22189 H 2217.36 4.17368 0.817547 0
M  V30 22190 N 2215.67 0.0167433 1.57591 0
M  V30 22191 C 2216.91 -0.668868 1.93146 0
M  V30 22192 C 2217.28 -1.69999 0.892436 0
M  V30 22193 O 2218.48 -2.43719 1.13378 0
M  V30 22194 C 2216.75 -1.28033 3.3368 0
M  V30 22195 S 2218.31 -1.98874 3.91145 0
M  V30 22196 H 2215.12 -0.220534 0.675933 0
M  V30 22197 H 2217.73 0.0774449 1.95347 0
M  V30 22198 H 2216.43 -0.517267 4.07127 0
M  V30 22199 H 2215.96 -2.06421 3.34894 0
M  V30 22200 H 2217.98 -3.2658 3.73577 0
M  V30 22201 N 2217.15 -1.55503 -0.256249 0
M  V30 22202 C 2218.1 -1.89528 -1.3171 0
M  V30 22203 C 2219.07 -0.748505 -1.48279 0
M  V30 22204 O 2220.25 -1.00131 -1.62414 0
M  V30 22205 C 2217.39 -2.1873 -2.66929 0
M  V30 22206 C 2216.51 -3.46165 -2.58445 0
M  V30 22207 C 2215.64 -3.64982 -3.85955 0
M  V30 22208 C 2214.68 -4.86051 -3.7205 0
M  V30 22209 N 2213.82 -5.01438 -4.91431 0
M  V30 22210 H 2218.66 -2.80003 -1.01993 0
M  V30 22211 H 2216.19 -1.38614 -0.492389 0
M  V30 22212 H 2218.15 -2.33663 -3.45626 0
M  V30 22213 H 2216.78 -1.31471 -2.94814 0
M  V30 22214 H 2215.83 -3.39613 -1.71368 0
M  V30 22215 H 2217.15 -4.35003 -2.44077 0
M  V30 22216 H 2216.3 -3.79824 -4.73095 0
M  V30 22217 H 2215.04 -2.7436 -4.0321 0
M  V30 22218 H 2214.04 -4.71195 -2.83294 0
M  V30 22219 H 2215.27 -5.78125 -3.56299 0
M  V30 22220 H 2213.21 -4.1375 -5.09065 0
M  V30 22221 H 2213.13 -5.8435 -4.79658 0
M  V30 22222 H 2214.4 -5.20682 -5.80095 0
M  V30 22223 N 2218.63 0.521507 -1.48721 0
M  V30 22224 C 2219.59 1.60745 -1.63382 0
M  V30 22225 C 2220.59 1.5261 -0.506637 0
M  V30 22226 O 2221.78 1.56128 -0.772629 0
M  V30 22227 C 2218.91 3.0038 -1.61198 0
M  V30 22228 H 2220.11 1.49083 -2.6022 0
M  V30 22229 H 2217.66 0.744211 -1.37445 0
M  V30 22230 H 2218.39 3.1754 -0.658686 0
M  V30 22231 H 2218.18 3.07693 -2.43038 0
M  V30 22232 H 2219.67 3.79317 -1.74667 0
M  V30 22233 N 2220.11 1.37452 0.771027 0
M  V30 22234 C 2221.35 1.32438 1.52659 0
M  V30 22235 C 2221.68 -0.0904681 1.9479 0
M  V30 22236 O 2220.95 -1.03463 1.6635 0
M  V30 22237 H 2219.53 0.487254 0.566209 0
M  V30 22238 H 2222.19 1.71948 0.917606 0
M  V30 22239 H 2221.28 1.96389 2.42565 0
M  V30 22240 N 2221.58 -0.997276 1.22033 0
M  V30 22241 C 2222.81 -1.76921 1.06689 0
M  V30 22242 C 2223.22 -1.85225 -0.385805 0
M  V30 22243 O 2222.57 -1.31835 -1.27927 0
M  V30 22244 C 2222.63 -3.22028 1.59807 0
M  V30 22245 C 2222.29 -3.37281 3.08367 0
M  V30 22246 C 2223.29 -3.24945 4.05841 0
M  V30 22247 C 2220.97 -3.62474 3.47733 0
M  V30 22248 C 2222.97 -3.37579 5.40666 0
M  V30 22249 C 2220.65 -3.74748 4.82708 0
M  V30 22250 C 2221.65 -3.62309 5.78983 0
M  V30 22251 O 2221.34 -3.74181 7.11508 0
M  V30 22252 H 2221.07 -0.5626 0.374777 0
M  V30 22253 H 2223.63 -1.26283 1.61993 0
M  V30 22254 H 2221.86 -3.73837 0.989069 0
M  V30 22255 H 2223.55 -3.80922 1.40191 0
M  V30 22256 H 2224.31 -3.05398 3.76772 0
M  V30 22257 H 2220.19 -3.71235 2.73323 0
M  V30 22258 H 2223.73 -3.27786 6.15794 0
M  V30 22259 H 2219.63 -3.93801 5.1146 0
M  V30 22260 H 2220.4 -3.91081 7.19026 0
M  V30 22261 N 2223.06 -1.02932 -1.19343 0
M  V30 22262 C 2224.29 -0.745678 -1.92995 0
M  V30 22263 C 2224.71 0.695558 -1.7552 0
M  V30 22264 O 2224.06 1.47304 -1.0774 0
M  V30 22265 C 2224.11 -1.08798 -3.44739 0
M  V30 22266 O 2223.83 -2.47262 -3.61653 0
M  V30 22267 C 2225.34 -0.827206 -4.35514 0
M  V30 22268 H 2222.56 -0.272812 -0.613037 0
M  V30 22269 H 2225.1 -1.37393 -1.51471 0
M  V30 22270 H 2223.25 -0.504899 -3.84096 0
M  V30 22271 H 2223.67 -2.60023 -4.55509 0
M  V30 22272 H 2225.14 -1.11668 -5.40587 0
M  V30 22273 H 2225.62 0.238359 -4.38553 0
M  V30 22274 H 2226.23 -1.39304 -4.01839 0
M  V30 22275 N 2224.54 1.35356 -0.807246 0
M  V30 22276 C 2225.79 1.98357 -0.387157 0
M  V30 22277 C 2226.11 1.64355 1.04939 0
M  V30 22278 O 2225.38 0.926369 1.72613 0
M  V30 22279 H 2223.96 0.733732 -0.140167 0
M  V30 22280 H 2226.62 1.65258 -1.03323 0
M  V30 22281 H 2225.72 3.08175 -0.493406 0
M  V30 22282 N 2226.02 0.560807 1.47284 0
M  V30 22283 C 2227.3 -0.0277455 1.9558 0
M  V30 22284 C 2227.68 -1.4819 1.50343 0
M  V30 22285 O 2227.02 -2.16051 0.74392 0
M  V30 22286 C 2227.23 0.121479 3.48789 0
M  V30 22287 C 2228.58 -0.0220166 4.24594 0
M  V30 22288 O 2229.61 0.0492065 3.56166 0
M  V30 22289 O 2228.46 -0.175862 5.46217 0
M  V30 22290 H 2225.56 -0.0621197 0.824664 0
M  V30 22291 H 2228.1 0.627584 1.57669 0
M  V30 22292 H 2226.88 1.13323 3.74531 0
M  V30 22293 H 2226.5 -0.571296 3.93474 0
M  V30 22294 N 2227.5 -1.54768 0.297442 0
M  V30 22295 C 2228.74 -1.99673 -0.31226 0
M  V30 22296 C 2229.07 -1.18735 -1.54684 0
M  V30 22297 O 2228.34 -0.282416 -1.93854 0
M  V30 22298 H 2226.92 -0.737562 -0.118368 0
M  V30 22299 H 2229.58 -1.90583 0.407949 0
M  V30 22300 H 2228.67 -3.06535 -0.586759 0
M  V30 22301 N 2228.97 -0.0251005 -1.5758 0
M  V30 22302 C 2230.22 0.653733 -1.90812 0
M  V30 22303 C 2230.54 1.73521 -0.902761 0
M  V30 22304 O 2231.74 2.47041 -1.12618 0
M  V30 22305 C 2230.2 1.21403 -3.38806 0
M  V30 22306 C 2229.81 0.166047 -4.47692 0
M  V30 22307 C 2231.55 1.86961 -3.81111 0
M  V30 22308 C 2229.46 0.737752 -5.8678 0
M  V30 22309 H 2228.39 0.247944 -0.712067 0
M  V30 22310 H 2231.04 -0.0897459 -1.8328 0
M  V30 22311 H 2229.42 2.00899 -3.41256 0
M  V30 22312 H 2230.59 -0.606159 -4.56796 0
M  V30 22313 H 2228.91 -0.390539 -4.14565 0
M  V30 22314 H 2231.51 2.30683 -4.82379 0
M  V30 22315 H 2231.85 2.71066 -3.15958 0
M  V30 22316 H 2232.38 1.14161 -3.81067 0
M  V30 22317 H 2229.12 -0.0650729 -6.55468 0
M  V30 22318 H 2228.64 1.47854 -5.81291 0
M  V30 22319 H 2230.32 1.22873 -6.35225 0
M  V30 22320 N 2230.45 1.55637 0.247999 0
M  V30 22321 C 2231.7 1.7768 0.977639 0
M  V30 22322 C 2232.03 0.590167 1.85015 0
M  V30 22323 O 2231.31 -0.411578 1.90095 0
M  V30 22324 C 2231.59 3.09596 1.83908 0
M  V30 22325 C 2231.44 4.38661 0.994833 0
M  V30 22326 C 2232.76 3.37734 2.82177 0
M  V30 22327 H 2229.88 0.646419 0.353994 0
M  V30 22328 H 2232.52 1.88372 0.248219 0
M  V30 22329 H 2230.67 3.00612 2.46099 0
M  V30 22330 H 2232.34 4.59634 0.391708 0
M  V30 22331 H 2230.59 4.32767 0.299155 0
M  V30 22332 H 2231.26 5.27343 1.63136 0
M  V30 22333 H 2233.73 3.46674 2.30123 0
M  V30 22334 H 2232.61 4.31255 3.39574 0
M  V30 22335 H 2232.87 2.58593 3.58584 0
M  V30 22336 N 2231.93 -0.513613 1.48996 0
M  V30 22337 C 2233.17 -1.27882 1.59454 0
M  V30 22338 C 2233.54 -1.90099 0.269513 0
M  V30 22339 O 2234.74 -2.67642 0.249186 0
M  V30 22340 C 2233.01 -2.32683 2.71281 0
M  V30 22341 S 2234.57 -3.18711 3.0161 0
M  V30 22342 H 2231.38 -0.434779 0.562573 0
M  V30 22343 H 2233.99 -0.583268 1.86596 0
M  V30 22344 H 2232.69 -1.85484 3.66093 0
M  V30 22345 H 2232.22 -3.06924 2.46091 0
M  V30 22346 H 2234.24 -4.33095 2.42163 0
M  V30 22347 N 2233.41 -1.37859 -0.763727 0
M  V30 22348 C 2234.34 -1.36978 -1.89101 0
M  V30 22349 C 2235.32 -0.237182 -1.68438 0
M  V30 22350 O 2236.51 -0.438747 -1.89179 0
M  V30 22351 C 2233.64 -1.18401 -3.26494 0
M  V30 22352 C 2232.59 -2.28758 -3.61737 0
M  V30 22353 C 2231.92 -1.95295 -4.97759 0
M  V30 22354 C 2233.22 -3.70978 -3.67658 0
M  V30 22355 H 2234.91 -2.3131 -1.90095 0
M  V30 22356 H 2232.46 -1.11343 -0.91317 0
M  V30 22357 H 2234.41 -1.16413 -4.05001 0
M  V30 22358 H 2233.13 -0.205272 -3.25954 0
M  V30 22359 H 2231.79 -2.29914 -2.85543 0
M  V30 22360 H 2231.44 -0.959307 -4.93767 0
M  V30 22361 H 2231.14 -2.69198 -5.22308 0
M  V30 22362 H 2232.66 -1.94908 -5.78656 0
M  V30 22363 H 2234.08 -3.71907 -4.363 0
M  V30 22364 H 2232.47 -4.44002 -4.0371 0
M  V30 22365 H 2233.54 -4.04025 -2.68127 0
M  V30 22366 N 2234.89 0.990791 -1.22561 0
M  V30 22367 C 2235.8 2.11555 -1.01398 0
M  V30 22368 C 2236.81 1.73958 0.0383656 0
M  V30 22369 O 2237.99 2.00804 -0.154822 0
M  V30 22370 C 2235.05 3.41528 -0.596629 0
M  V30 22371 C 2234.12 3.93214 -1.72283 0
M  V30 22372 C 2233.35 5.16983 -1.3253 0
M  V30 22373 O 2233.57 5.70031 -0.205009 0
M  V30 22374 O 2232.51 5.62475 -2.14257 0
M  V30 22375 H 2236.33 2.32293 -1.95637 0
M  V30 22376 H 2233.92 1.09929 -1.01174 0
M  V30 22377 H 2235.8 4.19734 -0.374337 0
M  V30 22378 H 2234.47 3.22145 0.316883 0
M  V30 22379 H 2233.38 3.16171 -1.99967 0
M  V30 22380 H 2234.71 4.17032 -2.61429 0
M  V30 22381 N 2236.37 1.03564 1.18795 0
M  V30 22382 C 2237.61 0.731269 1.87977 0
M  V30 22383 C 2237.93 -0.743639 1.80913 0
M  V30 22384 O 2239.13 -1.16132 2.45409 0
M  V30 22385 C 2237.59 1.25774 3.37207 0
M  V30 22386 C 2237.2 2.76092 3.52814 0
M  V30 22387 C 2238.94 1.02967 4.11823 0
M  V30 22388 C 2236.85 3.22123 4.95975 0
M  V30 22389 H 2235.78 0.269848 0.704058 0
M  V30 22390 H 2238.43 1.25081 1.34264 0
M  V30 22391 H 2236.81 0.66608 3.90358 0
M  V30 22392 H 2237.99 3.40972 3.09959 0
M  V30 22393 H 2236.3 2.97254 2.91597 0
M  V30 22394 H 2238.9 1.34878 5.17409 0
M  V30 22395 H 2239.24 -0.0332814 4.16287 0
M  V30 22396 H 2239.77 1.58569 3.6483 0
M  V30 22397 H 2236.51 4.27777 4.96676 0
M  V30 22398 H 2236.03 2.61975 5.39564 0
M  V30 22399 H 2237.71 3.15854 5.64664 0
M  V30 22400 N 2237.84 -1.34926 0.814413 0
M  V30 22401 C 2238.79 -2.31572 0.218465 0
M  V30 22402 C 2239.79 -1.57004 -0.6361 0
M  V30 22403 O 2240.99 -1.7207 -0.52839 0
M  V30 22404 H 2237.37 -0.750207 0.0518931 0
M  V30 22405 H 2239.34 -2.7937 1.04857 0
M  V30 22406 C 2238.09 -3.42271 -0.612009 0
M  V30 22407 H 2237.41 -3.99784 0.0362281 0
M  V30 22408 H 2238.85 -4.12154 -0.995245 0
M  V30 22409 C 2237.31 -2.85987 -1.78082 0
M  V30 22410 O 2237.84 -2.80173 -2.87865 0
M  V30 22411 N 2236.04 -2.42927 -1.59484 0
M  V30 22412 H 2235.59 -2.47855 -0.701831 0
M  V30 22413 H 2235.55 -2.05617 -2.37842 0
M  V30 22414 N 2239.32 -0.56861 -1.46985 0
M  V30 22415 C 2240.73 -0.138252 -1.86187 0
M  V30 22416 C 2241.08 1.29501 -1.4739 0
M  V30 22417 O 2240.21 1.976 -0.882224 0
M  V30 22418 C 2240.8 -0.244124 -3.37919 0
M  V30 22419 C 2239.36 0.131269 -3.76171 0
M  V30 22420 C 2238.51 -0.586513 -2.71026 0
M  V30 22421 H 2241.46 -0.777669 -1.3834 0
M  V30 22422 H 2241.48 0.534285 -3.7673 0
M  V30 22423 H 2240.99 -1.28738 -3.66126 0
M  V30 22424 H 2239.09 1.17519 -3.53582 0
M  V30 22425 H 2239.21 -0.23523 -4.78522 0
M  V30 22426 H 2237.57 -0.028317 -2.54684 0
M  V30 22427 H 2238.35 -1.63114 -3.02074 0
M  V30 22428 N 2240.8 1.54608 -0.305646 0
M  V30 22429 C 2242.04 2.02141 0.303078 0
M  V30 22430 C 2242.4 1.18924 1.50735 0
M  V30 22431 O 2243.6 1.56176 2.18775 0
M  V30 22432 C 2241.88 3.51508 0.64627 0
M  V30 22433 S 2243.43 4.20998 1.2372 0
M  V30 22434 H 2240.25 0.704924 0.0927519 0
M  V30 22435 H 2242.85 1.90608 -0.434599 0
M  V30 22436 H 2241.56 4.09706 -0.238613 0
M  V30 22437 H 2241.09 3.67086 1.41462 0
M  V30 22438 H 2243.1 4.27162 2.52482 0
M  V30 22439 N 2242.28 0.033457 1.57564 0
M  V30 22440 C 2243.21 -0.945228 2.13513 0
M  V30 22441 C 2244.19 -1.33642 1.05233 0
M  V30 22442 O 2245.37 -1.41427 1.33087 0
M  V30 22443 C 2242.5 -2.22611 2.66574 0
M  V30 22444 C 2241.46 -1.97554 3.79679 0
M  V30 22445 C 2240.78 -3.31945 4.19186 0
M  V30 22446 C 2242.08 -1.31126 5.05572 0
M  V30 22447 H 2243.78 -0.479273 2.95539 0
M  V30 22448 H 2241.32 -0.22909 1.42166 0
M  V30 22449 H 2243.28 -2.91461 3.04349 0
M  V30 22450 H 2242 -2.7138 1.81715 0
M  V30 22451 H 2240.66 -1.31121 3.42349 0
M  V30 22452 H 2240.31 -3.78481 3.31302 0
M  V30 22453 H 2240.01 -3.15983 4.95407 0
M  V30 22454 H 2241.53 -4.02055 4.59548 0
M  V30 22455 H 2242.95 -1.89982 5.40906 0
M  V30 22456 H 2241.34 -1.25548 5.8682 0
M  V30 22457 H 2242.41 -0.284809 4.84063 0
M  V30 22458 N 2243.76 -1.55766 -0.239741 0
M  V30 22459 C 2244.67 -1.94058 -1.31828 0
M  V30 22460 C 2245.68 -0.841952 -1.52273 0
M  V30 22461 O 2246.86 -1.14397 -1.65757 0
M  V30 22462 C 2243.92 -2.23372 -2.65152 0
M  V30 22463 C 2242.98 -3.46706 -2.53167 0
M  V30 22464 C 2242.22 -3.74612 -3.80133 0
M  V30 22465 O 2242.44 -3.04477 -4.82338 0
M  V30 22466 O 2241.37 -4.6813 -3.78336 0
M  V30 22467 H 2245.2 -2.85937 -1.02342 0
M  V30 22468 H 2242.78 -1.4274 -0.441098 0
M  V30 22469 H 2244.67 -2.43503 -3.43925 0
M  V30 22470 H 2243.34 -1.34671 -2.94356 0
M  V30 22471 H 2242.25 -3.31874 -1.72656 0
M  V30 22472 H 2243.58 -4.35732 -2.28907 0
M  V30 22473 N 2245.23 0.505704 -1.49266 0
M  V30 22474 C 2246.18 1.62863 -1.66067 0
M  V30 22475 C 2247.18 1.61005 -0.526664 0
M  V30 22476 O 2248.38 1.6557 -0.706155 0
M  V30 22477 H 2244.76 0.539796 -0.523569 0
M  V30 22478 H 2246.73 1.45843 -2.60331 0
M  V30 22479 C 2245.48 3.01023 -1.74013 0
M  V30 22480 H 2244.8 3.03157 -2.60645 0
M  V30 22481 H 2246.24 3.79144 -1.89805 0
M  V30 22482 C 2244.7 3.33406 -0.483927 0
M  V30 22483 O 2245.23 3.99778 0.392478 0
M  V30 22484 N 2243.43 2.88505 -0.348287 0
M  V30 22485 H 2242.98 2.34669 -1.06247 0
M  V30 22486 H 2242.94 3.1054 0.491149 0
M  V30 22487 N 2246.71 1.38262 0.756405 0
M  V30 22488 C 2247.66 1.31769 1.86067 0
M  V30 22489 C 2248.65 0.202511 1.5962 0
M  V30 22490 O 2249.84 0.438241 1.71489 0
M  V30 22491 C 2246.97 1.14226 3.2374 0
M  V30 22492 C 2246.05 2.30354 3.56087 0
M  V30 22493 N 2246.44 3.55789 3.5951 0
M  V30 22494 C 2244.74 2.22844 3.86337 0
M  V30 22495 C 2245.44 4.32458 3.89044 0
M  V30 22496 N 2244.42 3.61779 4.0573 0
M  V30 22497 H 2248.22 2.26744 1.86988 0
M  V30 22498 H 2245.74 1.31453 0.953619 0
M  V30 22499 H 2247.73 1.07659 4.0276 0
M  V30 22500 H 2246.39 0.20182 3.24072 0
M  V30 22501 H 2247.4 3.89497 3.4134 0
M  V30 22502 H 2244.08 1.36944 3.94402 0
M  V30 22503 H 2245.47 5.41087 3.9834 0
M  V30 22504 N 2248.19 -0.984277 1.23084 0
M  V30 22505 C 2249.44 -1.72163 1.05851 0
M  V30 22506 C 2249.76 -1.90726 -0.406016 0
M  V30 22507 O 2249.03 -1.47311 -1.29136 0
M  V30 22508 H 2247.61 -0.637906 0.388696 0
M  V30 22509 H 2250.27 -1.185 1.54738 0
M  V30 22510 H 2249.37 -2.71271 1.54331 0
M  V30 22511 N 2249.67 -1.04192 -1.18244 0
M  V30 22512 C 2250.92 -0.744576 -1.87884 0
M  V30 22513 C 2251.24 0.729975 -1.80821 0
M  V30 22514 O 2250.51 1.52682 -1.22739 0
M  V30 22515 H 2249.09 -0.27243 -0.695551 0
M  V30 22516 H 2251.75 -1.31894 -1.43492 0
M  V30 22517 H 2250.85 -1.05054 -2.93888 0
M  V30 22518 N 2251.15 1.34492 -0.821557 0
M  V30 22519 C 2252.39 2.00146 -0.41482 0
M  V30 22520 C 2252.75 1.63721 1.00296 0
M  V30 22521 O 2253.95 2.22209 1.51251 0
M  V30 22522 C 2252.22 3.52165 -0.609465 0
M  V30 22523 S 2253.78 4.37805 -0.295374 0
M  V30 22524 H 2250.6 0.693494 -0.156802 0
M  V30 22525 H 2253.2 1.6381 -1.06707 0
M  V30 22526 H 2251.91 3.76163 -1.64103 0
M  V30 22527 H 2251.44 3.93358 0.0575723 0
M  V30 22528 H 2253.45 4.88127 0.891445 0
M  V30 22529 N 2252.62 0.576397 1.46681 0
M  V30 22530 C 2253.9 -0.00699999 1.95599 0
M  V30 22531 C 2254.28 -1.46587 1.51906 0
M  V30 22532 O 2253.63 -2.1525 0.766793 0
M  V30 22533 C 2253.84 0.158466 3.4864 0
M  V30 22534 C 2255.19 0.0230186 4.24594 0
M  V30 22535 O 2256.21 0.0869799 3.56094 0
M  V30 22536 O 2255.07 -0.117919 5.46373 0
M  V30 22537 H 2252.16 -0.0533695 0.825276 0
M  V30 22538 H 2254.71 0.644271 1.56994 0
M  V30 22539 H 2253.48 1.17289 3.73308 0
M  V30 22540 H 2253.11 -0.529531 3.94058 0
M  V30 22541 N 2254.1 -1.54444 0.313841 0
M  V30 22542 C 2255.05 -2.2399 -0.556511 0
M  V30 22543 C 2256.02 -1.22713 -1.11941 0
M  V30 22544 O 2257.2 -1.51369 -1.16155 0
M  V30 22545 C 2254.34 -2.99395 -1.7163 0
M  V30 22546 C 2253.46 -4.1547 -1.18357 0
M  V30 22547 C 2252.59 -4.78428 -2.30825 0
M  V30 22548 C 2251.63 -5.86625 -1.74751 0
M  V30 22549 N 2250.77 -6.43484 -2.80844 0
M  V30 22550 H 2255.61 -2.97969 0.0431417 0
M  V30 22551 H 2253.15 -1.47063 0.0330618 0
M  V30 22552 H 2255.1 -3.41353 -2.39862 0
M  V30 22553 H 2253.73 -2.27769 -2.28738 0
M  V30 22554 H 2252.79 -3.78363 -0.393096 0
M  V30 22555 H 2254.1 -4.93382 -0.733176 0
M  V30 22556 H 2253.25 -5.23305 -3.0698 0
M  V30 22557 H 2251.99 -3.99876 -2.79197 0
M  V30 22558 H 2251 -5.41159 -0.9709 0
M  V30 22559 H 2252.22 -6.67068 -1.27269 0
M  V30 22560 H 2250.17 -5.67809 -3.28525 0
M  V30 22561 H 2250.08 -7.1678 -2.40339 0
M  V30 22562 H 2251.35 -6.93017 -3.56857 0
M  V30 22563 N 2255.58 -0.0418125 -1.57545 0
M  V30 22564 C 2256.53 0.953686 -2.1215 0
M  V30 22565 C 2257.52 1.3285 -1.05106 0
M  V30 22566 O 2258.73 1.30925 -1.23526 0
M  V30 22567 H 2255.1 0.325377 -0.677963 0
M  V30 22568 H 2257.07 0.467939 -2.94708 0
M  V30 22569 C 2255.82 2.22252 -2.67394 0
M  V30 22570 H 2255.15 1.94288 -3.49417 0
M  V30 22571 H 2256.59 2.90088 -3.09232 0
M  V30 22572 C 2255.05 2.96088 -1.60729 0
M  V30 22573 O 2255.58 3.88677 -1.01455 0
M  V30 22574 N 2253.78 2.5865 -1.32471 0
M  V30 22575 H 2253.33 1.83434 -1.80859 0
M  V30 22576 H 2253.29 3.0836 -0.613304 0
M  V30 22577 N 2257.06 1.55891 0.231477 0
M  V30 22578 C 2258.02 1.90781 1.27024 0
M  V30 22579 C 2259.02 0.785531 1.40307 0
M  V30 22580 O 2260.21 1.05338 1.38742 0
M  V30 22581 C 2257.34 2.14988 2.64562 0
M  V30 22582 H 2258.54 2.83678 0.972968 0
M  V30 22583 H 2256.09 1.4902 0.47146 0
M  V30 22584 H 2256.82 1.2461 2.99404 0
M  V30 22585 H 2256.61 2.96737 2.563 0
M  V30 22586 H 2258.1 2.43111 3.39539 0
M  V30 22587 N 2258.54 -0.497781 1.49532 0
M  V30 22588 C 2259.45 -1.62529 1.69179 0
M  V30 22589 C 2260.46 -1.64245 0.574429 0
M  V30 22590 O 2261.64 -1.82606 0.849529 0
M  V30 22591 C 2258.7 -2.98882 1.757 0
M  V30 22592 C 2257.76 -3.07768 2.99295 0
M  V30 22593 C 2257 -4.37616 3.05496 0
M  V30 22594 O 2257.22 -5.26599 2.19201 0
M  V30 22595 O 2256.15 -4.51541 3.97988 0
M  V30 22596 H 2259.98 -1.48883 2.64703 0
M  V30 22597 H 2257.57 -0.674418 1.33312 0
M  V30 22598 H 2259.45 -3.79916 1.82324 0
M  V30 22599 H 2258.12 -3.12784 0.833555 0
M  V30 22600 H 2257.03 -2.2591 2.98187 0
M  V30 22601 H 2258.36 -2.98794 3.9113 0
M  V30 22602 N 2260.01 -1.38661 -0.749062 0
M  V30 22603 C 2261.25 -1.36536 -1.52109 0
M  V30 22604 C 2261.62 0.0431978 -1.91951 0
M  V30 22605 O 2262.82 0.189349 -2.68132 0
M  V30 22606 C 2261.09 -2.29833 -2.737 0
M  V30 22607 S 2262.65 -2.45769 -3.63515 0
M  V30 22608 H 2259.47 -0.484385 -0.520473 0
M  V30 22609 H 2262.07 -1.74628 -0.878932 0
M  V30 22610 H 2260.77 -3.31058 -2.42546 0
M  V30 22611 H 2260.3 -1.92906 -3.42857 0
M  V30 22612 H 2262.32 -1.68513 -4.6671 0
M  V30 22613 N 2261.49 0.977736 -1.23605 0
M  V30 22614 C 2262.72 1.75456 -1.09649 0
M  V30 22615 C 2263.14 1.85493 0.351826 0
M  V30 22616 O 2262.49 1.33602 1.24325 0
M  V30 22617 C 2262.54 3.18013 -1.71901 0
M  V30 22618 O 2262.27 3.08493 -3.11069 0
M  V30 22619 C 2263.77 4.12078 -1.63422 0
M  V30 22620 H 2260.99 0.550538 -0.383599 0
M  V30 22621 H 2263.53 1.22821 -1.63509 0
M  V30 22622 H 2261.69 3.67666 -1.22067 0
M  V30 22623 H 2262.1 3.98254 -3.41312 0
M  V30 22624 H 2263.57 5.098 -2.11678 0
M  V30 22625 H 2264.05 4.35171 -0.593538 0
M  V30 22626 H 2264.66 3.6833 -2.12634 0
M  V30 22627 N 2262.97 1.04818 1.1769 0
M  V30 22628 C 2263.9 0.603861 2.21102 0
M  V30 22629 C 2264.92 -0.330432 1.59411 0
M  V30 22630 O 2266.11 -0.123758 1.7807 0
M  V30 22631 C 2263.21 -0.136838 3.38624 0
M  V30 22632 C 2262.38 0.807213 4.29887 0
M  V30 22633 C 2261.44 0.108452 5.26088 0
M  V30 22634 O 2260.46 0.741331 5.64352 0
M  V30 22635 N 2261.67 -1.15548 5.68884 0
M  V30 22636 H 2264.43 1.49334 2.59845 0
M  V30 22637 H 2261.99 0.92961 1.32551 0
M  V30 22638 H 2263.98 -0.614331 4.0001 0
M  V30 22639 H 2262.55 -0.927941 2.9851 0
M  V30 22640 H 2261.77 1.46441 3.6599 0
M  V30 22641 H 2263.06 1.44816 4.87756 0
M  V30 22642 H 2262.46 -1.69006 5.39864 0
M  V30 22643 H 2261.02 -1.57711 6.32432 0
M  V30 22644 N 2264.45 -1.34055 0.828678 0
M  V30 22645 C 2265.68 -2.02326 0.432656 0
M  V30 22646 C 2266.09 -1.62387 -0.963119 0
M  V30 22647 O 2265.45 -0.83215 -1.62424 0
M  V30 22648 C 2265.5 -3.57566 0.531883 0
M  V30 22649 O 2265.22 -3.9606 1.87265 0
M  V30 22650 C 2266.72 -4.43105 0.1315 0
M  V30 22651 H 2263.94 -0.648332 0.172934 0
M  V30 22652 H 2266.49 -1.71206 1.11843 0
M  V30 22653 H 2264.64 -3.87255 -0.10587 0
M  V30 22654 H 2265.06 -4.90754 1.85096 0
M  V30 22655 H 2266.53 -5.51424 0.252001 0
M  V30 22656 H 2267.01 -4.29337 -0.92557 0
M  V30 22657 H 2267.61 -4.18755 0.74328 0
M  V30 22658 N 2265.93 -0.584167 -1.46374 0
M  V30 22659 C 2267.18 -0.0701642 -2.01978 0
M  V30 22660 C 2267.5 1.29497 -1.45792 0
M  V30 22661 O 2266.77 1.85041 -0.643172 0
M  V30 22662 H 2265.35 -0.0229476 -0.746647 0
M  V30 22663 H 2268.01 -0.760277 -1.7946 0
M  V30 22664 H 2267.1 -0.00226126 -3.121 0
M  V30 22665 N 2267.41 1.54275 -0.322027 0
M  V30 22666 C 2268.82 1.85957 0.166351 0
M  V30 22667 C 2269.17 1.2437 1.51745 0
M  V30 22668 O 2268.29 0.549161 2.09316 0
M  V30 22669 C 2268.89 3.37391 0.308622 0
M  V30 22670 C 2267.45 3.6903 0.741221 0
M  V30 22671 C 2266.59 2.76956 -0.137985 0
M  V30 22672 H 2269.54 1.49145 -0.542361 0
M  V30 22673 H 2269.57 3.63028 1.13978 0
M  V30 22674 H 2269.08 3.82187 -0.674876 0
M  V30 22675 H 2267.18 3.29765 1.73452 0
M  V30 22676 H 2267.29 4.75978 0.546035 0
M  V30 22677 H 2265.66 2.51755 0.386207 0
M  V30 22678 H 2266.44 3.24578 -1.11822 0
M  V30 22679 N 2268.88 0.0501669 1.5752 0
M  V30 22680 C 2269.83 -0.942421 2.12653 0
M  V30 22681 C 2270.83 -1.32291 1.05809 0
M  V30 22682 O 2272.03 -1.30268 1.24219 0
M  V30 22683 H 2268.41 -0.321777 0.679679 0
M  V30 22684 H 2270.38 -0.452304 2.94952 0
M  V30 22685 C 2269.13 -2.20831 2.68568 0
M  V30 22686 H 2268.45 -1.92433 3.50442 0
M  V30 22687 H 2269.89 -2.88444 3.10767 0
M  V30 22688 C 2268.35 -2.95231 1.62297 0
M  V30 22689 O 2268.88 -3.88133 1.03515 0
M  V30 22690 N 2267.08 -2.57944 1.33841 0
M  V30 22691 H 2266.63 -1.82472 1.81829 0
M  V30 22692 H 2266.59 -3.0803 0.629649 0
M  V30 22693 N 2270.36 -1.56011 -0.223207 0
M  V30 22694 C 2271.29 -1.88764 -1.30003 0
M  V30 22695 C 2272.31 -0.775771 -1.43128 0
M  V30 22696 O 2273.5 -1.05406 -1.44055 0
M  V30 22697 C 2270.6 -2.0797 -2.67585 0
M  V30 22698 C 2269.77 -3.38978 -2.76428 0
M  V30 22699 C 2268.83 -3.47636 -3.95013 0
M  V30 22700 O 2267.85 -4.20679 -3.83429 0
M  V30 22701 N 2269.06 -2.78658 -5.09245 0
M  V30 22702 H 2271.82 -2.81724 -1.02233 0
M  V30 22703 H 2269.38 -1.56537 -0.41325 0
M  V30 22704 H 2271.37 -2.11079 -3.45294 0
M  V30 22705 H 2269.94 -1.21643 -2.87961 0
M  V30 22706 H 2269.16 -3.47981 -1.8521 0
M  V30 22707 H 2270.45 -4.25283 -2.79305 0
M  V30 22708 H 2269.85 -2.1909 -5.21552 0
M  V30 22709 H 2268.41 -2.87431 -5.85002 0
M  V30 22710 N 2271.84 0.489844 -1.49794 0
M  V30 22711 C 2272.8 1.57243 -1.66755 0
M  V30 22712 C 2273.8 1.51501 -0.538894 0
M  V30 22713 O 2274.99 1.54454 -0.805572 0
M  V30 22714 C 2272.12 2.96893 -1.67533 0
M  V30 22715 H 2273.32 1.4353 -2.63323 0
M  V30 22716 H 2270.87 0.71489 -1.38993 0
M  V30 22717 H 2271.61 3.16072 -0.725893 0
M  V30 22718 H 2271.39 3.02469 -2.49509 0
M  V30 22719 H 2272.88 3.75526 -1.82674 0
M  V30 22720 N 2273.32 1.39056 0.741698 0
M  V30 22721 C 2274.28 1.37025 1.8373 0
M  V30 22722 C 2275.28 0.268562 1.58541 0
M  V30 22723 O 2276.47 0.526105 1.66066 0
M  V30 22724 C 2273.6 1.13622 3.21408 0
M  V30 22725 H 2274.8 2.3451 1.86937 0
M  V30 22726 H 2272.35 1.24523 0.944654 0
M  V30 22727 H 2273.08 0.16792 3.23865 0
M  V30 22728 H 2272.87 1.93397 3.41087 0
M  V30 22729 H 2274.36 1.14925 4.01475 0
M  V30 22730 N 2274.8 -0.971167 1.24121 0
M  V30 22731 C 2276.04 -1.72868 1.09069 0
M  V30 22732 C 2276.4 -1.88503 -0.36476 0
M  V30 22733 O 2277.6 -2.6115 -0.636702 0
M  V30 22734 C 2275.87 -3.08393 1.80634 0
M  V30 22735 S 2277.43 -3.99608 1.8127 0
M  V30 22736 H 2274.25 -0.59439 0.390156 0
M  V30 22737 H 2276.85 -1.15956 1.57399 0
M  V30 22738 H 2275.55 -2.94671 2.85652 0
M  V30 22739 H 2275.09 -3.70371 1.32624 0
M  V30 22740 H 2277.1 -4.88372 0.87789 0
M  V30 22741 N 2276.27 -1.05441 -1.17133 0
M  V30 22742 C 2277.22 -0.65155 -2.23288 0
M  V30 22743 C 2278.22 0.328382 -1.66187 0
M  V30 22744 O 2279.42 0.194174 -1.7895 0
M  V30 22745 H 2275.8 -0.192536 -0.726935 0
M  V30 22746 H 2277.77 -1.55694 -2.54562 0
M  V30 22747 C 2276.52 -0.0449047 -3.47671 0
M  V30 22748 H 2275.84 -0.790029 -3.91917 0
M  V30 22749 H 2277.28 0.199566 -4.2353 0
M  V30 22750 C 2275.74 1.20912 -3.14455 0
M  V30 22751 O 2276.27 2.29819 -3.29463 0
M  V30 22752 N 2274.48 1.10774 -2.68659 0
M  V30 22753 H 2274.02 0.221481 -2.56646 0
M  V30 22754 H 2273.98 1.94766 -2.46807 0
M  V30 22755 N 2277.75 1.33613 -0.835776 0
M  V30 22756 C 2278.99 1.99695 -0.436025 0
M  V30 22757 C 2279.36 1.64776 0.985541 0
M  V30 22758 O 2280.56 2.238 1.48885 0
M  V30 22759 C 2278.83 3.51499 -0.646783 0
M  V30 22760 S 2280.39 4.37467 -0.341792 0
M  V30 22761 H 2277.21 0.691792 -0.164148 0
M  V30 22762 H 2279.81 1.62669 -1.08439 0
M  V30 22763 H 2278.51 3.74401 -1.68083 0
M  V30 22764 H 2278.04 3.93397 0.0158482 0
M  V30 22765 H 2280.06 4.89045 0.839622 0
M  V30 22766 N 2279.23 0.591922 1.46062 0
M  V30 22767 C 2280.16 -0.123632 2.33172 0
M  V30 22768 C 2281.14 -0.874505 1.45899 0
M  V30 22769 O 2282.33 -0.84815 1.747 0
M  V30 22770 C 2279.46 -1.13188 3.28338 0
M  V30 22771 C 2278.41 -0.495249 4.25125 0
M  V30 22772 C 2277.74 -1.61063 5.09866 0
M  V30 22773 C 2279.04 0.573516 5.19142 0
M  V30 22774 H 2280.73 0.603698 2.9325 0
M  V30 22775 H 2278.28 0.291766 1.41013 0
M  V30 22776 H 2280.23 -1.6409 3.8814 0
M  V30 22777 H 2278.95 -1.8896 2.66386 0
M  V30 22778 H 2277.61 -0.00723008 3.66599 0
M  V30 22779 H 2277.26 -2.35824 4.44293 0
M  V30 22780 H 2276.96 -1.19025 5.75419 0
M  V30 22781 H 2278.48 -2.12223 5.72533 0
M  V30 22782 H 2279.9 0.149201 5.73106 0
M  V30 22783 H 2278.3 0.91474 5.93087 0
M  V30 22784 H 2279.37 1.45625 4.62516 0
M  V30 22785 N 2280.71 -1.54102 0.330204 0
M  V30 22786 C 2282.12 -1.86043 -0.156487 0
M  V30 22787 C 2282.47 -1.25173 -1.51083 0
M  V30 22788 O 2281.6 -0.560254 -2.09022 0
M  V30 22789 C 2282.19 -3.3755 -0.290725 0
M  V30 22790 C 2280.75 -3.69418 -0.72164 0
M  V30 22791 C 2279.9 -2.76879 0.152671 0
M  V30 22792 H 2282.85 -1.48855 0.550263 0
M  V30 22793 H 2282.87 -3.63627 -1.12051 0
M  V30 22794 H 2282.38 -3.81824 0.695135 0
M  V30 22795 H 2280.48 -3.30681 -1.71701 0
M  V30 22796 H 2280.59 -4.76261 -0.520785 0
M  V30 22797 H 2278.96 -2.51956 -0.37285 0
M  V30 22798 H 2279.74 -3.2398 1.13542 0
M  V30 22799 N 2282.19 -0.0585199 -1.57491 0
M  V30 22800 C 2283.15 0.89858 -2.10851 0
M  V30 22801 C 2284.15 1.2351 -1.02966 0
M  V30 22802 O 2285.34 1.17056 -1.29009 0
M  V30 22803 C 2282.47 2.20618 -2.59885 0
M  V30 22804 H 2283.66 0.435883 -2.96715 0
M  V30 22805 H 2281.22 0.189995 -1.55141 0
M  V30 22806 H 2281.95 2.71454 -1.77436 0
M  V30 22807 H 2281.74 1.97495 -3.3873 0
M  V30 22808 H 2283.23 2.89161 -3.0129 0
M  V30 22809 N 2283.66 1.56128 0.21493 0
M  V30 22810 C 2284.89 1.83272 0.953675 0
M  V30 22811 C 2285.3 0.636294 1.7818 0
M  V30 22812 O 2284.65 -0.404485 1.79192 0
M  V30 22813 C 2284.71 3.04243 1.9151 0
M  V30 22814 C 2284.37 4.38974 1.27086 0
M  V30 22815 C 2285.37 5.15726 0.657485 0
M  V30 22816 C 2283.05 4.857 1.28065 0
M  V30 22817 C 2285.05 6.37369 0.0624847 0
M  V30 22818 C 2282.73 6.07285 0.681807 0
M  V30 22819 C 2283.73 6.8296 0.0737846 0
M  V30 22820 O 2283.42 8.02244 -0.515724 0
M  V30 22821 H 2283.15 0.6131 0.284753 0
M  V30 22822 H 2285.71 2.04071 0.233248 0
M  V30 22823 H 2283.94 2.79279 2.6747 0
M  V30 22824 H 2285.63 3.18203 2.51996 0
M  V30 22825 H 2286.39 4.80729 0.642204 0
M  V30 22826 H 2282.27 4.26767 1.7433 0
M  V30 22827 H 2285.81 6.96378 -0.412716 0
M  V30 22828 H 2281.71 6.41753 0.694523 0
M  V30 22829 H 2282.48 8.17469 -0.410688 0
M  V30 22830 N 2285.14 -0.481893 1.50052 0
M  V30 22831 C 2286.37 -1.25829 1.64239 0
M  V30 22832 C 2286.79 -1.86045 0.321369 0
M  V30 22833 O 2286.14 -1.6873 -0.695448 0
M  V30 22834 C 2286.19 -2.37482 2.72552 0
M  V30 22835 O 2285.91 -1.79738 3.99532 0
M  V30 22836 C 2287.42 -3.28541 2.97616 0
M  V30 22837 H 2284.64 -0.380947 0.552377 0
M  V30 22838 H 2287.18 -0.576433 1.96208 0
M  V30 22839 H 2285.33 -3.01463 2.43308 0
M  V30 22840 H 2285.75 -2.53182 4.59347 0
M  V30 22841 H 2287.22 -4.0312 3.77092 0
M  V30 22842 H 2287.7 -3.8668 2.08266 0
M  V30 22843 H 2288.31 -2.70308 3.2835 0
M  V30 22844 N 2286.62 -1.39448 -0.734313 0
M  V30 22845 C 2287.87 -1.36439 -1.49094 0
M  V30 22846 C 2288.19 0.0387912 -1.94961 0
M  V30 22847 O 2287.46 0.990161 -1.69034 0
M  V30 22848 H 2286.04 -0.502094 -0.553092 0
M  V30 22849 H 2288.7 -1.7432 -0.871694 0
M  V30 22850 H 2287.8 -2.02751 -2.37273 0
M  V30 22851 N 2288.1 0.964571 -1.24635 0
M  V30 22852 C 2289.38 1.68352 -0.995839 0
M  V30 22853 C 2289.76 2.05549 0.480927 0
M  V30 22854 O 2289.1 1.76108 1.45596 0
M  V30 22855 C 2289.31 2.91319 -1.92182 0
M  V30 22856 C 2290.66 3.63491 -2.19453 0
M  V30 22857 O 2291.69 3.01382 -1.89861 0
M  V30 22858 O 2290.54 4.75302 -2.69723 0
M  V30 22859 H 2287.64 0.736139 -0.376867 0
M  V30 22860 H 2290.18 1.01838 -1.35746 0
M  V30 22861 H 2288.96 2.60548 -2.91943 0
M  V30 22862 H 2288.58 3.65566 -1.56356 0
M  V30 22863 N 2289.58 1.0606 1.16572 0
M  V30 22864 C 2290.82 0.774373 1.86676 0
M  V30 22865 C 2291.15 -0.701115 1.8196 0
M  V30 22866 O 2290.42 -1.5071 1.25153 0
M  V30 22867 H 2289 0.283461 0.691129 0
M  V30 22868 H 2291.66 1.3416 1.41375 0
M  V30 22869 H 2290.75 1.09716 2.92179 0
M  V30 22870 N 2291.06 -1.33168 0.84285 0
M  V30 22871 C 2292 -2.29133 0.276925 0
M  V30 22872 C 2292.97 -1.54513 -0.609499 0
M  V30 22873 O 2294.16 -1.82793 -0.546923 0
M  V30 22874 C 2291.3 -3.4087 -0.538647 0
M  V30 22875 C 2290.41 -4.30393 0.372245 0
M  V30 22876 C 2289.55 -5.29249 -0.454815 0
M  V30 22877 C 2288.58 -6.10412 0.454218 0
M  V30 22878 N 2287.72 -7.01301 -0.334952 0
M  V30 22879 H 2292.56 -2.76932 1.10057 0
M  V30 22880 H 2290.1 -1.36262 0.554185 0
M  V30 22881 H 2292.06 -4.04362 -1.02702 0
M  V30 22882 H 2290.69 -2.94253 -1.32722 0
M  V30 22883 H 2289.74 -3.67588 0.978944 0
M  V30 22884 H 2291.05 -4.8718 1.07039 0
M  V30 22885 H 2290.2 -5.98287 -1.00684 0
M  V30 22886 H 2288.94 -4.7305 -1.18638 0
M  V30 22887 H 2287.95 -5.40289 1.01823 0
M  V30 22888 H 2289.17 -6.68695 1.18421 0
M  V30 22889 H 2287.12 -6.47545 -1.04982 0
M  V30 22890 H 2287.04 -7.55387 0.304395 0
M  V30 22891 H 2288.3 -7.7464 -0.869088 0
M  V30 22892 N 2292.53 -0.599659 -1.45746 0
M  V30 22893 C 2293.78 -0.0918999 -2.02592 0
M  V30 22894 C 2294.11 1.27126 -1.46808 0
M  V30 22895 O 2293.39 1.8368 -0.63969 0
M  V30 22896 C 2293.67 -0.044403 -3.60073 0
M  V30 22897 C 2293.52 -1.43766 -4.26206 0
M  V30 22898 C 2294.84 0.647532 -4.3531 0
M  V30 22899 H 2291.96 -0.03487 -0.736175 0
M  V30 22900 H 2294.6 -0.770112 -1.73693 0
M  V30 22901 H 2292.75 0.533156 -3.84824 0
M  V30 22902 H 2294.43 -2.06169 -4.12665 0
M  V30 22903 H 2292.67 -2.00062 -3.84912 0
M  V30 22904 H 2293.34 -1.35674 -5.35067 0
M  V30 22905 H 2295.82 0.156703 -4.15805 0
M  V30 22906 H 2294.69 0.649846 -5.4504 0
M  V30 22907 H 2294.95 1.71212 -4.07601 0
M  V30 22908 N 2294.01 1.53925 -0.338371 0
M  V30 22909 C 2295.25 2.02738 0.260133 0
M  V30 22910 C 2295.62 1.22094 1.48179 0
M  V30 22911 O 2296.82 1.60781 2.15413 0
M  V30 22912 C 2295.09 3.528 0.571565 0
M  V30 22913 S 2296.65 4.23527 1.14762 0
M  V30 22914 H 2293.46 0.706733 0.0777786 0
M  V30 22915 H 2296.07 1.89643 -0.474932 0
M  V30 22916 H 2294.77 4.09107 -0.325464 0
M  V30 22917 H 2294.3 3.70004 1.33643 0
M  V30 22918 H 2296.32 4.32421 2.43364 0
M  V30 22919 N 2295.49 0.0668712 1.57458 0
M  V30 22920 C 2296.72 -0.612531 1.97625 0
M  V30 22921 C 2297.13 -1.63445 0.945048 0
M  V30 22922 O 2296.49 -1.8237 -0.0688955 0
M  V30 22923 C 2296.54 -1.2855 3.37872 0
M  V30 22924 O 2296.26 -0.30448 4.37041 0
M  V30 22925 C 2297.76 -2.05318 3.92886 0
M  V30 22926 H 2294.98 -0.16637 0.650048 0
M  V30 22927 H 2297.53 0.137818 2.04035 0
M  V30 22928 H 2295.68 -1.98696 3.32564 0
M  V30 22929 H 2296.1 -0.786688 5.18567 0
M  V30 22930 H 2297.57 -2.47804 4.93252 0
M  V30 22931 H 2298.05 -2.90774 3.29161 0
M  V30 22932 H 2298.65 -1.40049 4.0158 0
M  V30 22933 N 2296.97 -1.56239 -0.206647 0
M  V30 22934 C 2297.9 -1.96647 -1.25906 0
M  V30 22935 C 2298.88 -0.83676 -1.48096 0
M  V30 22936 O 2300.06 -1.10021 -1.60028 0
M  V30 22937 C 2297.19 -2.29603 -2.60576 0
M  V30 22938 C 2296.15 -3.45204 -2.53018 0
M  V30 22939 C 2295.47 -3.63805 -3.91854 0
M  V30 22940 C 2296.77 -4.79738 -2.06516 0
M  V30 22941 H 2298.47 -2.84807 -0.923319 0
M  V30 22942 H 2296.01 -1.37026 -0.442711 0
M  V30 22943 H 2297.97 -2.56464 -3.34371 0
M  V30 22944 H 2296.69 -1.38312 -2.95867 0
M  V30 22945 H 2295.35 -3.18415 -1.81679 0
M  V30 22946 H 2295 -2.69865 -4.24479 0
M  V30 22947 H 2294.7 -4.41567 -3.87675 0
M  V30 22948 H 2296.22 -3.93031 -4.67289 0
M  V30 22949 H 2297.64 -5.05706 -2.70063 0
M  V30 22950 H 2296.03 -5.60888 -2.13364 0
M  V30 22951 H 2297.1 -4.74095 -1.01793 0
M  V30 22952 N 2298.45 0.473929 -1.50305 0
M  V30 22953 C 2299.69 1.22298 -1.60394 0
M  V30 22954 C 2300.01 1.93153 -0.308445 0
M  V30 22955 O 2301.21 2.69966 -0.288204 0
M  V30 22956 C 2299.67 2.22205 -2.83113 0
M  V30 22957 C 2299.28 1.57166 -4.19527 0
M  V30 22958 C 2301.02 2.9777 -3.02545 0
M  V30 22959 C 2298.93 2.55343 -5.33436 0
M  V30 22960 H 2297.86 0.460169 -0.597294 0
M  V30 22961 H 2300.51 0.493772 -1.76732 0
M  V30 22962 H 2298.89 2.98405 -2.60327 0
M  V30 22963 H 2300.07 0.867744 -4.52556 0
M  V30 22964 H 2298.38 0.938931 -4.05676 0
M  V30 22965 H 2300.98 3.71241 -3.84817 0
M  V30 22966 H 2301.32 3.56989 -2.14161 0
M  V30 22967 H 2301.85 2.28683 -3.25498 0
M  V30 22968 H 2298.59 2.00867 -6.23965 0
M  V30 22969 H 2298.11 3.23895 -5.04829 0
M  V30 22970 H 2299.79 3.1723 -5.63892 0
M  V30 22971 N 2299.92 1.39835 0.726907 0
M  V30 22972 C 2300.87 1.39357 1.86232 0
M  V30 22973 C 2301.87 0.275585 1.67143 0
M  V30 22974 O 2303.07 0.44604 1.74386 0
M  V30 22975 H 2299.45 0.435351 0.613167 0
M  V30 22976 H 2301.42 2.35113 1.83752 0
M  V30 22977 C 2300.17 1.2619 3.23993 0
M  V30 22978 H 2299.49 2.1149 3.39282 0
M  V30 22979 H 2300.93 1.29914 4.03607 0
M  V30 22980 C 2299.39 -0.0289426 3.36888 0
M  V30 22981 O 2299.92 -0.996122 3.89153 0
M  V30 22982 N 2298.12 -0.0946926 2.90446 0
M  V30 22983 H 2297.67 0.693079 2.48101 0
M  V30 22984 H 2297.63 -0.95788 2.99453 0
M  V30 22985 N 2301.4 -0.957948 1.25144 0
M  V30 22986 C 2302.65 -1.70467 1.09858 0
M  V30 22987 C 2302.98 -1.90831 -0.360153 0
M  V30 22988 O 2302.26 -1.47687 -1.26565 0
M  V30 22989 C 2302.54 -3.0896 1.84975 0
M  V30 22990 C 2302.39 -2.96026 3.38657 0
M  V30 22991 C 2303.71 -4.08793 1.63024 0
M  V30 22992 H 2300.83 -0.618699 0.400476 0
M  V30 22993 H 2303.47 -1.11373 1.53935 0
M  V30 22994 H 2301.62 -3.59406 1.47511 0
M  V30 22995 H 2303.29 -2.52931 3.85777 0
M  V30 22996 H 2301.54 -2.32018 3.66538 0
M  V30 22997 H 2302.21 -3.94181 3.86427 0
M  V30 22998 H 2304.68 -3.67243 1.95631 0
M  V30 22999 H 2303.56 -5.03743 2.18024 0
M  V30 23000 H 2303.82 -4.384 0.570769 0
M  V30 23001 N 2302.88 -1.06677 -1.16008 0
M  V30 23002 C 2304.12 -0.79507 -1.88303 0
M  V30 23003 C 2304.48 0.666434 -1.80063 0
M  V30 23004 O 2305.68 1.05289 -2.47321 0
M  V30 23005 C 2303.96 -1.28082 -3.33661 0
M  V30 23006 S 2305.51 -1.13876 -4.23766 0
M  V30 23007 H 2302.33 -0.288308 -0.649923 0
M  V30 23008 H 2304.93 -1.36448 -1.40008 0
M  V30 23009 H 2303.64 -2.33933 -3.37199 0
M  V30 23010 H 2303.17 -0.706321 -3.87007 0
M  V30 23011 H 2305.18 -0.0720541 -4.96148 0
M  V30 23012 N 2304.36 1.32719 -0.8499 0
M  V30 23013 C 2305.29 2.31482 -0.306349 0
M  V30 23014 C 2306.27 1.59469 0.591924 0
M  V30 23015 O 2307.45 1.87297 0.513166 0
M  V30 23016 C 2304.58 3.43533 0.510144 0
M  V30 23017 C 2303.54 4.26994 -0.293284 0
M  V30 23018 C 2302.86 5.30763 0.647649 0
M  V30 23019 C 2304.16 4.99802 -1.51643 0
M  V30 23020 H 2305.86 2.77193 -1.13157 0
M  V30 23021 H 2303.4 1.33265 -0.545577 0
M  V30 23022 H 2305.36 4.1166 0.900783 0
M  V30 23023 H 2304.08 2.96538 1.36869 0
M  V30 23024 H 2302.74 3.60507 -0.665619 0
M  V30 23025 H 2302.39 4.80023 1.5029 0
M  V30 23026 H 2302.09 5.87489 0.114116 0
M  V30 23027 H 2303.61 6.01754 1.03557 0
M  V30 23028 H 2305.03 5.60636 -1.19834 0
M  V30 23029 H 2303.42 5.6623 -1.98755 0
M  V30 23030 H 2304.49 4.27939 -2.28026 0
M  V30 23031 N 2305.84 0.60738 1.45426 0
M  V30 23032 C 2307.06 0.10885 2.06613 0
M  V30 23033 C 2307.48 -1.20668 1.45206 0
M  V30 23034 O 2306.84 -1.73496 0.566162 0
M  V30 23035 C 2306.89 -0.0374712 3.61481 0
M  V30 23036 O 2306.61 1.22601 4.20596 0
M  V30 23037 C 2308.11 -0.567484 4.39653 0
M  V30 23038 H 2305.33 0.0687468 0.667469 0
M  V30 23039 H 2307.87 0.835054 1.86674 0
M  V30 23040 H 2306.03 -0.714001 3.80763 0
M  V30 23041 H 2306.44 1.05556 5.13769 0
M  V30 23042 H 2307.92 -0.618954 5.48519 0
M  V30 23043 H 2308.39 -1.58971 4.0942 0
M  V30 23044 H 2309 0.0749949 4.25234 0
M  V30 23045 N 2307.31 -1.53743 0.34653 0
M  V30 23046 C 2308.26 -2.2512 -0.508874 0
M  V30 23047 C 2309.23 -1.2506 -1.09313 0
M  V30 23048 O 2310.42 -1.53799 -1.12918 0
M  V30 23049 C 2307.56 -3.02968 -1.65241 0
M  V30 23050 C 2306.67 -4.17888 -1.09517 0
M  V30 23051 C 2305.8 -4.83216 -2.20625 0
M  V30 23052 C 2304.84 -5.90199 -1.62269 0
M  V30 23053 N 2303.98 -6.49296 -2.67131 0
M  V30 23054 H 2308.82 -2.9781 0.106336 0
M  V30 23055 H 2306.36 -1.4696 0.0642485 0
M  V30 23056 H 2308.32 -3.46364 -2.32568 0
M  V30 23057 H 2306.95 -2.32569 -2.23856 0
M  V30 23058 H 2306 -3.79112 -0.312751 0
M  V30 23059 H 2307.31 -4.94826 -0.628357 0
M  V30 23060 H 2306.46 -5.29699 -2.95811 0
M  V30 23061 H 2305.2 -4.05708 -2.70652 0
M  V30 23062 H 2304.21 -5.43097 -0.855893 0
M  V30 23063 H 2305.43 -6.69617 -1.1309 0
M  V30 23064 H 2303.38 -5.7465 -3.16407 0
M  V30 23065 H 2303.3 -7.21717 -2.25081 0
M  V30 23066 H 2304.56 -7.00431 -3.42077 0
M  V30 23067 N 2308.79 -0.0752207 -1.5742 0
M  V30 23068 C 2309.74 0.908471 -2.14125 0
M  V30 23069 C 2310.73 1.3059 -1.079 0
M  V30 23070 O 2311.94 1.28275 -1.26276 0
M  V30 23071 H 2308.32 0.310923 -0.684712 0
M  V30 23072 H 2310.29 0.405322 -2.95634 0
M  V30 23073 C 2309.04 2.1653 -2.72048 0
M  V30 23074 H 2308.36 1.86833 -3.53459 0
M  V30 23075 H 2309.8 2.83464 -3.15316 0
M  V30 23076 C 2308.26 2.92612 -1.66973 0
M  V30 23077 O 2308.79 3.86437 -1.09677 0
M  V30 23078 N 2306.99 2.55782 -1.37927 0
M  V30 23079 H 2306.54 1.79556 -1.84709 0
M  V30 23080 H 2306.5 3.0699 -0.678574 0
M  V30 23081 N 2310.27 1.56347 0.198358 0
M  V30 23082 C 2311.52 1.80076 0.917439 0
M  V30 23083 C 2311.84 0.647725 1.83928 0
M  V30 23084 O 2311.11 -0.334132 1.93029 0
M  V30 23085 H 2309.69 0.664234 0.341762 0
M  V30 23086 H 2312.35 1.93823 0.20465 0
M  V30 23087 H 2311.45 2.73112 1.5105 0
M  V30 23088 N 2311.75 -0.465951 1.50554 0
M  V30 23089 C 2313 -1.21525 1.61481 0
M  V30 23090 C 2313.32 -1.92363 0.31963 0
M  V30 23091 O 2312.59 -1.84334 -0.663161 0
M  V30 23092 H 2311.17 -0.451563 0.595063 0
M  V30 23093 H 2313.83 -0.537007 1.87356 0
M  V30 23094 H 2312.93 -1.96038 2.42849 0
M  V30 23095 N 2313.23 -1.40218 -0.719481 0
M  V30 23096 C 2314.47 -1.39732 -1.49179 0
M  V30 23097 C 2314.83 0.00247239 -1.92 0
M  V30 23098 O 2316.03 0.132432 -2.68474 0
M  V30 23099 C 2314.3 -2.35587 -2.68763 0
M  V30 23100 S 2315.86 -2.53425 -3.5822 0
M  V30 23101 H 2312.68 -0.495316 -0.510082 0
M  V30 23102 H 2315.28 -1.76453 -0.841693 0
M  V30 23103 H 2313.99 -3.36128 -2.35469 0
M  V30 23104 H 2313.52 -2.00136 -3.38688 0
M  V30 23105 H 2315.53 -1.78375 -4.6303 0
M  V30 23106 N 2314.7 0.951297 -1.25651 0
M  V30 23107 C 2315.93 1.73622 -1.13446 0
M  V30 23108 C 2316.35 1.85569 0.307532 0
M  V30 23109 O 2315.71 1.33856 1.22279 0
M  V30 23110 C 2315.76 3.12618 -1.79728 0
M  V30 23111 O 2314.86 3.98029 -1.07919 0
M  V30 23112 H 2314.21 0.533079 -0.395882 0
M  V30 23113 H 2316.74 1.19217 -1.66278 0
M  V30 23114 H 2316.75 3.63061 -1.86147 0
M  V30 23115 H 2315.42 3.03239 -2.84638 0
M  V30 23116 H 2314 3.5649 -1.09404 0
M  V30 23117 N 2316.18 1.07291 1.1544 0
M  V30 23118 C 2317.09 0.704096 2.23785 0
M  V30 23119 C 2318.11 -0.284383 1.7166 0
M  V30 23120 O 2319.28 -0.13117 2.00972 0
M  V30 23121 C 2316.35 0.106853 3.46535 0
M  V30 23122 C 2315.41 1.14849 4.13652 0
M  V30 23123 C 2314.64 0.579653 5.30543 0
M  V30 23124 O 2314.87 -0.604485 5.67188 0
M  V30 23125 O 2313.8 1.32424 5.87152 0
M  V30 23126 H 2317.63 1.60761 2.57662 0
M  V30 23127 H 2315.21 0.845825 1.23151 0
M  V30 23128 H 2317.09 -0.223974 4.20804 0
M  V30 23129 H 2315.77 -0.769994 3.14409 0
M  V30 23130 H 2314.68 1.53166 3.41308 0
M  V30 23131 H 2316.01 1.99722 4.49858 0
M  V30 23132 N 2317.66 -1.32267 0.856927 0
M  V30 23133 C 2318.91 -1.97173 0.46142 0
M  V30 23134 C 2319.24 -1.67804 -0.983462 0
M  V30 23135 O 2318.49 -0.959933 -1.7054 0
M  V30 23136 C 2318.79 -3.5144 0.64998 0
M  V30 23137 C 2318.46 -4.008 2.06567 0
M  V30 23138 C 2317.12 -4.1399 2.45286 0
M  V30 23139 C 2319.47 -4.26937 2.98955 0
M  V30 23140 C 2316.8 -4.50662 3.75661 0
M  V30 23141 C 2319.15 -4.65068 4.2883 0
M  V30 23142 C 2317.81 -4.76464 4.67481 0
M  V30 23143 H 2317.08 -0.721507 0.168846 0
M  V30 23144 H 2319.73 -1.57631 1.08742 0
M  V30 23145 H 2318.04 -3.91755 -0.0592329 0
M  V30 23146 H 2319.73 -3.99689 0.32398 0
M  V30 23147 H 2316.32 -3.9102 1.75502 0
M  V30 23148 H 2320.51 -4.16253 2.70272 0
M  V30 23149 H 2315.76 -4.57681 4.05387 0
M  V30 23150 H 2319.94 -4.84246 5.00479 0
M  V30 23151 H 2317.56 -5.04636 5.68548 0
M  V30 23152 N 2319.14 -0.615084 -1.45102 0
M  V30 23153 C 2320.1 0.0895082 -2.29025 0
M  V30 23154 C 2321.1 0.787882 -1.40175 0
M  V30 23155 O 2322.29 0.634905 -1.62218 0
M  V30 23156 C 2319.42 1.13706 -3.21378 0
M  V30 23157 H 2320.62 -0.648433 -2.92806 0
M  V30 23158 H 2318.17 -0.37447 -1.51748 0
M  V30 23159 H 2318.9 1.90552 -2.62413 0
M  V30 23160 H 2318.69 0.640407 -3.86835 0
M  V30 23161 H 2320.18 1.6303 -3.84462 0
M  V30 23162 N 2320.62 1.53557 -0.354678 0
M  V30 23163 C 2321.87 2.00273 0.239469 0
M  V30 23164 C 2322.18 1.24626 1.50757 0
M  V30 23165 O 2323.39 1.61875 2.17965 0
M  V30 23166 C 2321.84 3.56721 0.477279 0
M  V30 23167 C 2321.45 4.41236 -0.775566 0
M  V30 23168 C 2323.19 4.11823 1.02968 0
M  V30 23169 C 2321.1 5.89215 -0.507942 0
M  V30 23170 H 2320.03 0.74821 0.0932611 0
M  V30 23171 H 2322.68 1.77333 -0.471732 0
M  V30 23172 H 2321.06 3.75772 1.24946 0
M  V30 23173 H 2322.24 4.33959 -1.54971 0
M  V30 23174 H 2320.55 3.97183 -1.2504 0
M  V30 23175 H 2323.15 5.20003 1.24504 0
M  V30 23176 H 2323.49 3.65735 1.98856 0
M  V30 23177 H 2324.03 3.96528 0.317925 0
M  V30 23178 H 2320.76 6.39558 -1.43685 0
M  V30 23179 H 2320.28 5.99367 0.227906 0
M  V30 23180 H 2321.96 6.46871 -0.129352 0
M  V30 23181 N 2322.1 0.083568 1.57378 0
M  V30 23182 C 2323.34 -0.586346 1.95809 0
M  V30 23183 C 2323.7 -1.66061 0.963735 0
M  V30 23184 O 2324.9 -2.38691 1.23613 0
M  V30 23185 C 2323.17 -1.13765 3.3881 0
M  V30 23186 S 2324.73 -1.82105 3.99228 0
M  V30 23187 H 2321.55 -0.191667 0.684679 0
M  V30 23188 H 2324.15 0.160228 1.94842 0
M  V30 23189 H 2322.85 -0.344125 4.08955 0
M  V30 23190 H 2322.39 -1.92032 3.43347 0
M  V30 23191 H 2324.4 -3.10442 3.87092 0
M  V30 23192 N 2323.57 -1.5645 -0.190064 0
M  V30 23193 C 2324.52 -1.9584 -1.25498 0
M  V30 23194 C 2325.52 -0.844511 -1.46848 0
M  V30 23195 O 2326.72 -1.02954 -1.4765 0
M  V30 23196 H 2323.1 -0.622813 -0.421436 0
M  V30 23197 H 2325.07 -2.84637 -0.895771 0
M  V30 23198 C 2323.82 -2.31845 -2.5912 0
M  V30 23199 H 2323.14 -3.17087 -2.43508 0
M  V30 23200 H 2324.58 -2.63266 -3.32366 0
M  V30 23201 C 2323.04 -1.15492 -3.16486 0
M  V30 23202 O 2323.57 -0.432605 -3.99364 0
M  V30 23203 N 2321.77 -0.930397 -2.75303 0
M  V30 23204 H 2321.32 -1.51952 -2.08011 0
M  V30 23205 H 2321.28 -0.153689 -3.14024 0
M  V30 23206 N 2325.05 0.45796 -1.50799 0
M  V30 23207 C 2326 1.5522 -1.67006 0
M  V30 23208 C 2326.99 1.52116 -0.524367 0
M  V30 23209 O 2328.18 1.58918 -0.779373 0
M  V30 23210 C 2325.31 2.93572 -1.77961 0
M  V30 23211 C 2324.39 3.01511 -2.98249 0
M  V30 23212 N 2324.78 2.79234 -4.21737 0
M  V30 23213 C 2323.08 3.32657 -2.97078 0
M  V30 23214 C 2323.78 2.9248 -5.02822 0
M  V30 23215 N 2322.76 3.23255 -4.37044 0
M  V30 23216 H 2326.56 1.36716 -2.60165 0
M  V30 23217 H 2324.07 0.664926 -1.48164 0
M  V30 23218 H 2326.07 3.72267 -1.87677 0
M  V30 23219 H 2324.73 3.13113 -0.859689 0
M  V30 23220 H 2325.74 2.54559 -4.51021 0
M  V30 23221 H 2322.42 3.58102 -2.14637 0
M  V30 23222 H 2323.81 2.79385 -6.11059 0
M  V30 23223 N 2326.53 1.40598 0.712035 0
M  V30 23224 C 2327.76 1.4239 1.50109 0
M  V30 23225 C 2328.17 0.0245727 1.88784 0
M  V30 23226 O 2327.53 -0.952324 1.55683 0
M  V30 23227 C 2327.58 2.31781 2.77416 0
M  V30 23228 O 2327.3 3.66267 2.40375 0
M  V30 23229 C 2328.8 2.42203 3.71285 0
M  V30 23230 H 2326.02 0.485541 0.463132 0
M  V30 23231 H 2328.57 1.84691 0.878035 0
M  V30 23232 H 2326.72 1.92833 3.35997 0
M  V30 23233 H 2327.14 4.13778 3.22317 0
M  V30 23234 H 2328.61 3.08951 4.57442 0
M  V30 23235 H 2329.09 1.44817 4.14638 0
M  V30 23236 H 2329.69 2.81718 3.18614 0
M  V30 23237 N 2328.01 -0.94462 1.26153 0
M  V30 23238 C 2329.26 -1.68708 1.11274 0
M  V30 23239 C 2329.58 -1.91921 -0.345132 0
M  V30 23240 O 2328.85 -1.51345 -1.24384 0
M  V30 23241 H 2327.43 -0.625217 0.408794 0
M  V30 23242 H 2330.09 -1.13517 1.58429 0
M  V30 23243 H 2329.18 -2.66224 1.62884 0
M  V30 23244 N 2329.49 -1.07901 -1.1487 0
M  V30 23245 C 2330.42 -0.66227 -2.19423 0
M  V30 23246 C 2331.43 0.288051 -1.60231 0
M  V30 23247 O 2332.62 0.0765027 -1.78336 0
M  V30 23248 C 2329.72 0.04701 -3.38867 0
M  V30 23249 C 2328.89 -0.920906 -4.27596 0
M  V30 23250 C 2327.95 -0.247897 -5.25616 0
M  V30 23251 O 2326.98 -0.890698 -5.62188 0
M  V30 23252 N 2328.18 1.00425 -5.71747 0
M  V30 23253 H 2330.94 -1.56171 -2.55794 0
M  V30 23254 H 2328.51 -0.964427 -1.3004 0
M  V30 23255 H 2330.5 0.508059 -4.01498 0
M  V30 23256 H 2329.07 0.84847 -3.00865 0
M  V30 23257 H 2328.29 -1.56093 -3.61979 0
M  V30 23258 H 2329.58 -1.57697 -4.83745 0
M  V30 23259 H 2328.97 1.54633 -5.44155 0
M  V30 23260 H 2327.53 1.40888 -6.36391 0
M  V30 23261 N 2330.96 1.31811 -0.863929 0
M  V30 23262 C 2332.21 1.97217 -0.47257 0
M  V30 23263 C 2332.54 1.68161 0.971364 0
M  V30 23264 O 2331.82 0.974827 1.68307 0
M  V30 23265 C 2332.1 3.52765 -0.723116 0
M  V30 23266 C 2331.95 3.91417 -2.21614 0
M  V30 23267 C 2333.27 4.39708 -0.185599 0
M  V30 23268 H 2330.39 0.716366 -0.173171 0
M  V30 23269 H 2333.03 1.56039 -1.08406 0
M  V30 23270 H 2331.18 3.87971 -0.202645 0
M  V30 23271 H 2332.86 3.66343 -2.80341 0
M  V30 23272 H 2331.1 3.40241 -2.69106 0
M  V30 23273 H 2331.77 4.99849 -2.34212 0
M  V30 23274 H 2334.25 4.11291 -0.630798 0
M  V30 23275 H 2333.12 5.4751 -0.390402 0
M  V30 23276 H 2333.38 4.32588 0.912153 0
M  V30 23277 N 2332.44 0.62277 1.44773 0
M  V30 23278 C 2333.35 -0.0885619 2.34433 0
M  V30 23279 C 2334.37 -0.844502 1.52132 0
M  V30 23280 O 2335.54 -0.798658 1.84888 0
M  V30 23281 C 2332.61 -1.06344 3.29987 0
M  V30 23282 C 2331.67 -0.307798 4.28195 0
M  V30 23283 C 2330.9 -1.23624 5.19185 0
M  V30 23284 O 2331.13 -2.47467 5.13922 0
M  V30 23285 O 2330.06 -0.725084 5.97517 0
M  V30 23286 H 2333.89 0.648651 2.96692 0
M  V30 23287 H 2331.47 0.382982 1.44408 0
M  V30 23288 H 2333.35 -1.62453 3.88828 0
M  V30 23289 H 2332.03 -1.78142 2.70272 0
M  V30 23290 H 2330.93 0.29613 3.72926 0
M  V30 23291 H 2332.27 0.369986 4.90807 0
M  V30 23292 N 2333.92 -1.53367 0.362817 0
M  V30 23293 C 2335.34 -1.59596 0.0116462 0
M  V30 23294 C 2335.54 -1.37806 -1.4701 0
M  V30 23295 O 2334.59 -1.18185 -2.23133 0
M  V30 23296 C 2335.9 -2.97081 0.465104 0
M  V30 23297 C 2337.45 -3.10182 0.419088 0
M  V30 23298 C 2337.93 -4.50075 0.848314 0
M  V30 23299 N 2339.42 -4.56182 0.803263 0
M  V30 23300 C 2340.15 -5.62611 1.1071 0
M  V30 23301 N 2339.65 -6.76805 1.48008 0
M  V30 23302 N 2341.44 -5.52581 1.03008 0
M  V30 23303 H 2333.59 -1.65783 1.32777 0
M  V30 23304 H 2335.86 -0.777408 0.542532 0
M  V30 23305 H 2335.56 -3.18157 1.49897 0
M  V30 23306 H 2335.44 -3.76903 -0.14972 0
M  V30 23307 H 2337.82 -2.88818 -0.605646 0
M  V30 23308 H 2337.9 -2.32375 1.06937 0
M  V30 23309 H 2337.55 -4.72176 1.87115 0
M  V30 23310 H 2337.48 -5.26308 0.175311 0
M  V30 23311 H 2339.97 -3.74187 0.528446 0
M  V30 23312 H 2340.28 -7.53954 1.69626 0
M  V30 23313 H 2338.63 -6.78204 1.51871 0
M  V30 23314 H 2341.82 -4.62247 0.737898 0
M  V30 23315 H 2341.99 -6.35429 1.27021 0
M  V30 23316 N 2335.4 -0.091913 -1.57332 0
M  V30 23317 C 2336.63 0.581013 -1.98575 0
M  V30 23318 C 2337.04 1.61921 -0.970931 0
M  V30 23319 O 2336.4 1.82456 0.0398733 0
M  V30 23320 C 2336.45 1.23158 -3.39874 0
M  V30 23321 O 2336.17 0.234912 -4.3747 0
M  V30 23322 C 2337.67 1.99042 -3.96103 0
M  V30 23323 H 2334.89 0.156007 -0.652612 0
M  V30 23324 H 2337.44 -0.170261 -2.0379 0
M  V30 23325 H 2335.59 1.9338 -3.35683 0
M  V30 23326 H 2336 0.704089 -5.19753 0
M  V30 23327 H 2337.48 2.39925 -4.97132 0
M  V30 23328 H 2337.96 2.85501 -3.33745 0
M  V30 23329 H 2338.56 1.33642 -4.03757 0
M  V30 23330 N 2336.88 1.56548 0.181765 0
M  V30 23331 C 2338.12 1.8319 0.906679 0
M  V30 23332 C 2338.48 0.671344 1.7988 0
M  V30 23333 O 2339.68 0.817965 2.56052 0
M  V30 23334 C 2337.95 3.14909 1.69018 0
M  V30 23335 S 2339.51 3.63 2.46529 0
M  V30 23336 H 2336.33 0.642796 0.303865 0
M  V30 23337 H 2338.93 1.94768 0.169072 0
M  V30 23338 H 2337.64 3.97377 1.02564 0
M  V30 23339 H 2337.17 3.06246 2.46936 0
M  V30 23340 H 2339.18 3.29496 3.71008 0
M  V30 23341 N 2338.35 -0.449957 1.5104 0
M  V30 23342 C 2339.58 -1.22317 1.66871 0
M  V30 23343 C 2340 -1.85321 0.360759 0
M  V30 23344 O 2339.35 -1.70167 -0.659501 0
M  V30 23345 C 2339.41 -2.31648 2.77528 0
M  V30 23346 O 2339.13 -1.71223 4.03255 0
M  V30 23347 C 2340.63 -3.22155 3.04518 0
M  V30 23348 H 2337.85 -0.369145 0.560333 0
M  V30 23349 H 2340.39 -0.534684 1.97386 0
M  V30 23350 H 2338.55 -2.96234 2.49648 0
M  V30 23351 H 2338.96 -2.43381 4.64614 0
M  V30 23352 H 2340.43 -3.95031 3.85557 0
M  V30 23353 H 2340.91 -3.82176 2.16422 0
M  V30 23354 H 2341.52 -2.63282 3.3401 0
M  V30 23355 N 2339.83 -1.40974 -0.704569 0
M  V30 23356 C 2341.07 -1.41306 -1.47688 0
M  V30 23357 C 2341.44 -0.0178919 -1.91992 0
M  V30 23358 O 2342.64 0.103949 -2.68599 0
M  V30 23359 C 2340.91 -2.38424 -2.66249 0
M  V30 23360 S 2342.47 -2.5721 -3.55512 0
M  V30 23361 H 2339.29 -0.500698 -0.5048 0
M  V30 23362 H 2341.89 -1.77336 -0.822931 0
M  V30 23363 H 2340.59 -3.38607 -2.31891 0
M  V30 23364 H 2340.12 -2.03716 -3.36546 0
M  V30 23365 H 2342.14 -1.83276 -4.61112 0
M  V30 23366 N 2341.31 0.937917 -1.26653 0
M  V30 23367 C 2342.26 2.0371 -1.08493 0
M  V30 23368 C 2343.23 1.66096 0.0110038 0
M  V30 23369 O 2344.41 1.90214 -0.149387 0
M  V30 23370 C 2341.55 3.37347 -0.72741 0
M  V30 23371 C 2340.67 3.87978 -1.89993 0
M  V30 23372 C 2339.8 5.10014 -1.48522 0
M  V30 23373 C 2338.84 5.52915 -2.62585 0
M  V30 23374 N 2337.98 6.66154 -2.21773 0
M  V30 23375 H 2342.82 2.18576 -2.02555 0
M  V30 23376 H 2340.35 1.07091 -1.00846 0
M  V30 23377 H 2342.31 4.14181 -0.500993 0
M  V30 23378 H 2340.94 3.22319 0.176241 0
M  V30 23379 H 2339.99 3.07514 -2.23919 0
M  V30 23380 H 2341.31 4.15752 -2.75593 0
M  V30 23381 H 2340.46 5.94318 -1.21945 0
M  V30 23382 H 2339.2 4.83993 -0.600175 0
M  V30 23383 H 2338.2 4.67167 -2.89889 0
M  V30 23384 H 2339.43 5.80937 -3.51695 0
M  V30 23385 H 2337.37 6.4181 -1.35707 0
M  V30 23386 H 2337.29 6.93532 -3.00915 0
M  V30 23387 H 2338.56 7.53824 -1.98416 0
M  V30 23388 N 2342.79 1.08509 1.14296 0
M  V30 23389 C 2344.2 0.836257 1.66924 0
M  V30 23390 C 2344.55 -0.636828 1.85577 0
M  V30 23391 O 2343.68 -1.49172 1.5677 0
M  V30 23392 C 2344.27 1.51147 3.03216 0
M  V30 23393 C 2342.83 1.30985 3.52874 0
M  V30 23394 C 2341.98 1.5736 2.28327 0
M  V30 23395 H 2344.93 1.24553 0.983469 0
M  V30 23396 H 2344.95 0.939276 3.68725 0
M  V30 23397 H 2344.46 2.58358 2.89608 0
M  V30 23398 H 2342.56 0.258494 3.71702 0
M  V30 23399 H 2342.67 2.03821 4.33582 0
M  V30 23400 H 2341.04 0.995206 2.34452 0
M  V30 23401 H 2341.82 2.65779 2.17294 0
M  V30 23402 N 2344.27 -1.31351 0.870907 0
M  V30 23403 C 2345.21 -2.30437 0.316486 0
M  V30 23404 C 2346.21 -1.5956 -0.568937 0
M  V30 23405 O 2347.41 -1.74156 -0.454934 0
M  V30 23406 H 2343.79 -0.747331 0.0836653 0
M  V30 23407 H 2345.76 -2.74671 1.16611 0
M  V30 23408 C 2344.51 -3.44559 -0.46629 0
M  V30 23409 H 2343.83 -3.9927 0.205757 0
M  V30 23410 H 2345.27 -4.16004 -0.819541 0
M  V30 23411 C 2343.73 -2.93283 -1.65792 0
M  V30 23412 O 2344.26 -2.9213 -2.75723 0
M  V30 23413 N 2342.47 -2.49472 -1.49037 0
M  V30 23414 H 2342.01 -2.50609 -0.596076 0
M  V30 23415 H 2341.97 -2.1552 -2.28907 0
M  V30 23416 N 2345.74 -0.630439 -1.44441 0
M  V30 23417 C 2346.97 -0.141501 -2.06115 0
M  V30 23418 C 2347.38 1.18888 -1.47181 0
M  V30 23419 O 2346.73 1.74005 -0.588903 0
M  V30 23420 C 2346.79 0.0483724 -3.59467 0
M  V30 23421 C 2346.45 -1.20373 -4.40862 0
M  V30 23422 C 2347.45 -2.12727 -4.74387 0
M  V30 23423 C 2345.13 -1.43896 -4.81248 0
M  V30 23424 C 2347.13 -3.26914 -5.4718 0
M  V30 23425 C 2344.81 -2.58379 -5.5379 0
M  V30 23426 C 2345.81 -3.49715 -5.86676 0
M  V30 23427 O 2345.5 -4.62203 -6.57741 0
M  V30 23428 H 2345.23 -0.076591 -0.671647 0
M  V30 23429 H 2347.79 -0.864728 -1.86311 0
M  V30 23430 H 2346.02 0.826737 -3.77759 0
M  V30 23431 H 2347.71 0.491778 -4.0291 0
M  V30 23432 H 2348.47 -1.95789 -4.43725 0
M  V30 23433 H 2344.35 -0.736933 -4.55072 0
M  V30 23434 H 2347.89 -3.98227 -5.72766 0
M  V30 23435 H 2343.79 -2.75262 -5.83868 0
M  V30 23436 H 2344.56 -4.61176 -6.76209 0
M  V30 23437 N 2347.22 1.53172 -0.370945 0
M  V30 23438 C 2348.47 2.00516 0.218214 0
M  V30 23439 C 2348.78 1.26218 1.49427 0
M  V30 23440 O 2349.99 1.64178 2.16236 0
M  V30 23441 C 2348.45 3.57207 0.439417 0
M  V30 23442 C 2348.05 4.40388 -0.822321 0
M  V30 23443 C 2349.8 4.12892 0.985939 0
M  V30 23444 C 2347.71 5.88643 -0.570407 0
M  V30 23445 H 2346.64 0.749157 0.0853201 0
M  V30 23446 H 2349.29 1.76823 -0.490514 0
M  V30 23447 H 2347.67 3.77076 1.20954 0
M  V30 23448 H 2348.84 4.32291 -1.59565 0
M  V30 23449 H 2347.16 3.95834 -1.29245 0
M  V30 23450 H 2349.75 5.21294 1.18982 0
M  V30 23451 H 2350.1 3.67823 1.94966 0
M  V30 23452 H 2350.63 3.96842 0.27585 0
M  V30 23453 H 2347.37 6.37998 -1.50461 0
M  V30 23454 H 2346.89 5.99575 0.164322 0
M  V30 23455 H 2348.57 6.46697 -0.197954 0
M  V30 23456 N 2348.7 0.100255 1.57281 0
M  V30 23457 C 2349.95 -0.561123 1.94154 0
M  V30 23458 C 2350.27 -1.684 0.983186 0
M  V30 23459 O 2349.54 -1.95867 0.0361476 0
M  V30 23460 H 2348.12 -0.210271 0.716795 0
M  V30 23461 H 2350.78 0.164799 1.94202 0
M  V30 23462 H 2349.88 -0.967956 2.9671 0
M  V30 23463 N 2350.18 -1.56643 -0.17346 0
M  V30 23464 C 2351.46 -1.72742 -0.917586 0
M  V30 23465 C 2351.84 -0.661062 -2.00482 0
M  V30 23466 O 2351.18 0.32449 -2.26184 0
M  V30 23467 C 2351.39 -3.15864 -1.48428 0
M  V30 23468 C 2352.74 -3.76758 -1.95803 0
M  V30 23469 O 2353.77 -3.19129 -1.58226 0
M  V30 23470 O 2352.63 -4.77942 -2.65016 0
M  V30 23471 H 2349.72 -0.705346 -0.431759 0
M  V30 23472 H 2352.27 -1.6893 -0.161457 0
M  V30 23473 H 2351.04 -3.84958 -0.701647 0
M  V30 23474 H 2350.66 -3.23993 -2.30465 0
M  V30 23475 N 2351.66 0.44194 -1.51277 0
M  V30 23476 C 2352.91 1.1894 -1.63394 0
M  V30 23477 C 2353.23 1.9183 -0.350193 0
M  V30 23478 O 2352.5 1.85366 0.633752 0
M  V30 23479 H 2351.08 0.442039 -0.602172 0
M  V30 23480 H 2353.74 0.507132 -1.88187 0
M  V30 23481 H 2352.83 1.92149 -2.45937 0
M  V30 23482 N 2353.14 1.41345 0.697083 0
M  V30 23483 C 2354.38 1.40621 1.45712 0
M  V30 23484 C 2354.71 0.0148248 1.94494 0
M  V30 23485 O 2353.97 -0.973036 1.69795 0
M  V30 23486 C 2354.26 2.35831 2.68549 0
M  V30 23487 C 2353.93 3.82703 2.38431 0
M  V30 23488 C 2352.59 4.22713 2.29928 0
M  V30 23489 C 2354.94 4.75439 2.13559 0
M  V30 23490 C 2352.27 5.5347 1.94647 0
M  V30 23491 C 2354.62 6.06514 1.79786 0
M  V30 23492 C 2353.29 6.45548 1.69778 0
M  V30 23493 H 2352.56 0.51457 0.533197 0
M  V30 23494 H 2355.21 1.74133 0.79687 0
M  V30 23495 H 2353.51 1.95569 3.395 0
M  V30 23496 H 2355.21 2.32545 3.26686 0
M  V30 23497 H 2351.8 3.51013 2.45943 0
M  V30 23498 H 2355.98 4.45332 2.19074 0
M  V30 23499 H 2351.24 5.82596 1.85449 0
M  V30 23500 H 2355.41 6.77874 1.5956 0
M  V30 23501 H 2353.04 7.46781 1.42207 0
M  V30 23502 N 2354.61 -0.931187 1.27148 0
M  V30 23503 C 2355.84 -1.71265 1.16085 0
M  V30 23504 C 2356.26 -1.86671 -0.282739 0
M  V30 23505 O 2355.61 -1.38124 -1.19281 0
M  V30 23506 C 2355.66 -3.11414 1.83585 0
M  V30 23507 O 2355.39 -2.96735 3.22304 0
M  V30 23508 C 2356.89 -4.05729 1.78604 0
M  V30 23509 H 2354.11 -0.535922 0.403768 0
M  V30 23510 H 2356.65 -1.16668 1.67955 0
M  V30 23511 H 2354.81 -3.62882 1.35629 0
M  V30 23512 H 2355.22 -3.85312 3.55858 0
M  V30 23513 H 2356.69 -5.01593 2.30453 0
M  V30 23514 H 2357.17 -4.32668 0.75464 0
M  V30 23515 H 2357.78 -3.60184 2.26158 0
M  V30 23516 N 2356.09 -1.09114 -1.13719 0
M  V30 23517 C 2357.33 -0.834833 -1.86574 0
M  V30 23518 C 2357.7 0.62809 -1.81436 0
M  V30 23519 O 2358.9 1.00019 -2.49499 0
M  V30 23520 C 2357.17 -1.3513 -3.30869 0
M  V30 23521 S 2358.73 -1.22839 -4.21255 0
M  V30 23522 H 2355.54 -0.302029 -0.643661 0
M  V30 23523 H 2358.15 -1.39387 -1.37082 0
M  V30 23524 H 2356.85 -2.41033 -3.32161 0
M  V30 23525 H 2356.38 -0.788252 -3.85422 0
M  V30 23526 H 2358.4 -0.177278 -4.95883 0
M  V30 23527 N 2357.57 1.30887 -0.877861 0
M  V30 23528 C 2358.99 1.49041 -0.57087 0
M  V30 23529 C 2359.19 1.80625 0.893127 0
M  V30 23530 O 2358.24 1.88961 1.67481 0
M  V30 23531 C 2359.55 2.61876 -1.47789 0
M  V30 23532 C 2361.1 2.75758 -1.48076 0
M  V30 23533 C 2361.58 3.91698 -2.37354 0
M  V30 23534 N 2363.07 3.98997 -2.35278 0
M  V30 23535 C 2363.8 4.87999 -3.01072 0
M  V30 23536 N 2363.3 5.81847 -3.76066 0
M  V30 23537 N 2365.09 4.8131 -2.9034 0
M  V30 23538 H 2357.24 1.08656 -1.82504 0
M  V30 23539 H 2359.51 0.53763 -0.780806 0
M  V30 23540 H 2359.21 2.45337 -2.51998 0
M  V30 23541 H 2359.09 3.58195 -1.18222 0
M  V30 23542 H 2361.47 2.91707 -0.446217 0
M  V30 23543 H 2361.55 1.80082 -1.81671 0
M  V30 23544 H 2361.2 3.76506 -3.40889 0
M  V30 23545 H 2361.13 4.86698 -2.01079 0
M  V30 23546 H 2363.62 3.31857 -1.80774 0
M  V30 23547 H 2363.93 6.46507 -4.23378 0
M  V30 23548 H 2362.28 5.81802 -3.80174 0
M  V30 23549 H 2365.47 4.0697 -2.31285 0
M  V30 23550 H 2365.64 5.50465 -3.41895 0
M  V30 23551 N 2359.05 0.638091 1.44105 0
M  V30 23552 C 2360.3 0.145079 2.01579 0
M  V30 23553 C 2360.62 -1.23997 1.50498 0
M  V30 23554 O 2359.89 -1.82526 0.711406 0
M  V30 23555 H 2358.47 0.0506431 0.745281 0
M  V30 23556 H 2361.13 0.826358 1.76514 0
M  V30 23557 H 2360.22 0.118094 3.11876 0
M  V30 23558 N 2360.53 -1.52973 0.379063 0
M  V30 23559 C 2361.75 -2.06341 -0.209317 0
M  V30 23560 C 2362.18 -1.24975 -1.4058 0
M  V30 23561 O 2361.53 -0.272186 -1.79245 0
M  V30 23562 C 2361.58 -3.56103 -0.567723 0
M  V30 23563 O 2360.69 -3.77378 -1.66312 0
M  V30 23564 H 2360.03 -0.663439 -0.0272802 0
M  V30 23565 H 2362.56 -1.97247 0.54357 0
M  V30 23566 H 2362.57 -3.99366 -0.834933 0
M  V30 23567 H 2361.24 -4.14765 0.307086 0
M  V30 23568 H 2359.82 -3.46008 -1.39042 0
M  V30 23569 N 2362 -0.108595 -1.57225 0
M  V30 23570 C 2363.25 0.551669 -1.94009 0
M  V30 23571 C 2363.57 1.68492 -0.993471 0
M  V30 23572 O 2364.77 2.40724 -1.25555 0
M  V30 23573 C 2363.23 1.03273 -3.44765 0
M  V30 23574 C 2362.84 -0.071498 -4.47943 0
M  V30 23575 C 2364.58 1.66496 -3.90486 0
M  V30 23576 C 2362.49 0.425676 -5.89866 0
M  V30 23577 H 2361.42 0.20985 -0.724209 0
M  V30 23578 H 2364.07 -0.186773 -1.82547 0
M  V30 23579 H 2362.45 1.82527 -3.51425 0
M  V30 23580 H 2363.62 -0.847445 -4.5294 0
M  V30 23581 H 2361.94 -0.609741 -4.11912 0
M  V30 23582 H 2364.54 2.04789 -4.93929 0
M  V30 23583 H 2364.88 2.53936 -3.29882 0
M  V30 23584 H 2365.41 0.938006 -3.86583 0
M  V30 23585 H 2362.15 -0.412431 -6.54201 0
M  V30 23586 H 2361.67 1.16833 -5.88311 0
M  V30 23587 H 2363.35 0.890285 -6.40845 0
M  V30 23588 N 2363.48 1.56732 0.16515 0
M  V30 23589 C 2364.71 1.86213 0.894886 0
M  V30 23590 C 2365.12 0.692658 1.76065 0
M  V30 23591 O 2364.46 -0.347272 1.80388 0
M  V30 23592 C 2364.52 3.10182 1.81734 0
M  V30 23593 C 2364.19 4.42795 1.13056 0
M  V30 23594 C 2365.19 5.17557 0.493078 0
M  V30 23595 C 2362.87 4.89529 1.12548 0
M  V30 23596 C 2364.86 6.37246 -0.140321 0
M  V30 23597 C 2362.55 6.09146 0.488259 0
M  V30 23598 C 2363.55 6.82849 -0.143531 0
M  V30 23599 O 2363.24 8.00197 -0.77069 0
M  V30 23600 H 2362.97 0.621849 0.265103 0
M  V30 23601 H 2365.52 2.0471 0.168206 0
M  V30 23602 H 2363.75 2.87647 2.5845 0
M  V30 23603 H 2365.44 3.26059 2.41745 0
M  V30 23604 H 2366.21 4.82529 0.488939 0
M  V30 23605 H 2362.09 4.32097 1.60664 0
M  V30 23606 H 2365.63 6.94713 -0.634054 0
M  V30 23607 H 2361.53 6.43637 0.490002 0
M  V30 23608 H 2362.3 8.15749 -0.670552 0
M  V30 23609 N 2364.96 -0.433911 1.51509 0
M  V30 23610 C 2365.89 -1.54534 1.69268 0
M  V30 23611 C 2366.91 -1.52372 0.573303 0
M  V30 23612 O 2368.09 -1.57086 0.847726 0
M  V30 23613 C 2365.19 -2.9345 1.69529 0
M  V30 23614 C 2364.37 -3.2008 2.98107 0
M  V30 23615 C 2363.43 -4.38737 2.9051 0
M  V30 23616 O 2362.45 -4.37224 3.6445 0
M  V30 23617 N 2363.65 -5.42493 2.06596 0
M  V30 23618 H 2366.42 -1.39703 2.65147 0
M  V30 23619 H 2363.98 -0.622896 1.49438 0
M  V30 23620 H 2365.97 -3.70857 1.62011 0
M  V30 23621 H 2364.54 -3.01862 0.812298 0
M  V30 23622 H 2363.76 -2.30942 3.19468 0
M  V30 23623 H 2365.05 -3.34701 3.83213 0
M  V30 23624 H 2364.45 -5.4656 1.45906 0
M  V30 23625 H 2363.01 -6.18738 2.04953 0
M  V30 23626 N 2366.44 -1.41713 -0.689577 0
M  V30 23627 C 2367.35 -1.46404 -1.83311 0
M  V30 23628 C 2368.36 -0.35408 -1.70359 0
M  V30 23629 O 2369.54 -0.602726 -1.9217 0
M  V30 23630 C 2366.61 -1.34988 -3.19342 0
M  V30 23631 C 2365.67 -2.5635 -3.44359 0
M  V30 23632 C 2364.9 -2.45469 -4.73899 0
M  V30 23633 O 2365.12 -1.48251 -5.50798 0
M  V30 23634 O 2364.06 -3.35336 -4.99833 0
M  V30 23635 H 2367.88 -2.42893 -1.8231 0
M  V30 23636 H 2365.47 -1.23316 -0.843417 0
M  V30 23637 H 2367.35 -1.30927 -4.00545 0
M  V30 23638 H 2366.02 -0.416176 -3.21013 0
M  V30 23639 H 2364.93 -2.65987 -2.63063 0
M  V30 23640 H 2366.26 -3.48569 -3.47506 0
M  V30 23641 N 2367.92 0.924431 -1.2764 0
M  V30 23642 C 2368.85 2.04242 -1.1317 0
M  V30 23643 C 2369.83 1.70069 -0.0322859 0
M  V30 23644 O 2371.01 1.9309 -0.207362 0
M  V30 23645 C 2368.14 3.38392 -0.781556 0
M  V30 23646 C 2367.1 3.86688 -1.83456 0
M  V30 23647 C 2366.42 5.17681 -1.33831 0
M  V30 23648 C 2367.72 4.0972 -3.23924 0
M  V30 23649 H 2369.42 2.16607 -2.06693 0
M  V30 23650 H 2366.96 1.0408 -0.995155 0
M  V30 23651 H 2368.92 4.16086 -0.66713 0
M  V30 23652 H 2367.64 3.2605 0.189381 0
M  V30 23653 H 2366.3 3.1119 -1.93794 0
M  V30 23654 H 2365.95 5.01733 -0.356738 0
M  V30 23655 H 2365.65 5.50965 -2.04234 0
M  V30 23656 H 2367.17 5.97941 -1.23689 0
M  V30 23657 H 2368.58 4.77973 -3.16567 0
M  V30 23658 H 2366.98 4.54317 -3.92067 0
M  V30 23659 H 2368.05 3.14901 -3.68735 0
M  V30 23660 N 2369.39 1.09715 1.13139 0
M  V30 23661 C 2370.81 0.853914 1.66028 0
M  V30 23662 C 2371.16 -0.617109 1.86242 0
M  V30 23663 O 2370.28 -1.47501 1.58343 0
M  V30 23664 C 2370.88 1.54355 3.01596 0
M  V30 23665 C 2369.44 1.34721 3.51465 0
M  V30 23666 C 2368.58 1.59773 2.26645 0
M  V30 23667 H 2371.53 1.2559 0.970204 0
M  V30 23668 H 2371.55 0.978331 3.67708 0
M  V30 23669 H 2371.07 2.61415 2.86851 0
M  V30 23670 H 2369.17 0.297903 3.71407 0
M  V30 23671 H 2369.28 2.08408 4.31396 0
M  V30 23672 H 2367.64 1.02002 2.33383 0
M  V30 23673 H 2368.43 2.68069 2.14462 0
M  V30 23674 N 2370.87 -1.30419 0.88479 0
M  V30 23675 C 2371.82 -2.28136 0.349682 0
M  V30 23676 C 2372.79 -1.56374 -0.560034 0
M  V30 23677 O 2373.97 -1.84441 -0.488492 0
M  V30 23678 C 2371.11 -3.42411 -0.429929 0
M  V30 23679 C 2370.23 -4.28991 0.508983 0
M  V30 23680 C 2369.36 -5.30428 -0.286208 0
M  V30 23681 C 2368.4 -6.08658 0.648186 0
M  V30 23682 N 2367.54 -7.02011 -0.111669 0
M  V30 23683 H 2372.38 -2.73291 1.18811 0
M  V30 23684 H 2369.92 -1.34429 0.597255 0
M  V30 23685 H 2371.87 -4.07424 -0.897851 0
M  V30 23686 H 2370.5 -2.98326 -1.23294 0
M  V30 23687 H 2369.56 -3.64287 1.09539 0
M  V30 23688 H 2370.87 -4.83528 1.22484 0
M  V30 23689 H 2370.02 -6.01188 -0.815992 0
M  V30 23690 H 2368.76 -4.76585 -1.03528 0
M  V30 23691 H 2367.77 -5.36776 1.1896 0
M  V30 23692 H 2368.99 -6.64589 1.39635 0
M  V30 23693 H 2366.94 -6.50557 -0.843281 0
M  V30 23694 H 2366.85 -7.54036 0.544561 0
M  V30 23695 H 2368.12 -7.77013 -0.622202 0
M  V30 23696 N 2372.35 -0.645724 -1.43764 0
M  V30 23697 C 2373.3 0.062444 -2.32516 0
M  V30 23698 C 2374.29 0.820829 -1.48185 0
M  V30 23699 O 2375.5 0.732077 -1.6444 0
M  V30 23700 H 2371.87 0.0389732 -0.750989 0
M  V30 23701 H 2373.84 -0.703943 -2.89978 0
M  V30 23702 C 2372.59 1.02038 -3.32391 0
M  V30 23703 H 2371.92 0.446242 -3.97302 0
M  V30 23704 H 2373.36 1.4851 -3.97141 0
M  V30 23705 C 2371.82 2.11276 -2.62419 0
M  V30 23706 O 2372.35 3.19556 -2.43406 0
M  V30 23707 N 2370.55 1.8762 -2.21917 0
M  V30 23708 H 2370.1 0.995661 -2.3758 0
M  V30 23709 H 2370.06 2.60907 -1.75428 0
M  V30 23710 N 2373.83 1.5277 -0.38717 0
M  V30 23711 C 2375.24 1.86496 0.0873306 0
M  V30 23712 C 2375.59 1.30694 1.46334 0
M  V30 23713 O 2374.72 0.637445 2.06798 0
M  V30 23714 C 2375.31 3.38397 0.165245 0
M  V30 23715 C 2373.87 3.71841 0.584036 0
M  V30 23716 C 2373.02 2.76122 -0.255328 0
M  V30 23717 H 2375.97 1.4671 -0.60513 0
M  V30 23718 H 2375.99 3.67535 0.984783 0
M  V30 23719 H 2375.5 3.78981 -0.836368 0
M  V30 23720 H 2373.6 3.36825 1.59309 0
M  V30 23721 H 2373.71 4.77866 0.343665 0
M  V30 23722 H 2372.08 2.53166 0.279081 0
M  V30 23723 H 2372.86 3.19543 -1.25488 0
M  V30 23724 N 2375.31 0.116931 1.57166 0
M  V30 23725 C 2376.25 -0.834042 2.15203 0
M  V30 23726 C 2377.22 -1.26497 1.07646 0
M  V30 23727 O 2378.41 -1.34286 1.35543 0
M  V30 23728 C 2375.55 -2.07952 2.75409 0
M  V30 23729 C 2374.66 -1.69714 3.97267 0
M  V30 23730 C 2373.8 -2.89213 4.45566 0
M  V30 23731 C 2372.84 -2.47205 5.59961 0
M  V30 23732 N 2371.97 -3.59611 6.03013 0
M  V30 23733 H 2376.81 -0.332283 2.96142 0
M  V30 23734 H 2374.35 -0.152323 1.46309 0
M  V30 23735 H 2376.31 -2.80923 3.08444 0
M  V30 23736 H 2374.94 -2.5559 1.97163 0
M  V30 23737 H 2373.99 -0.866251 3.70406 0
M  V30 23738 H 2375.3 -1.34841 4.80228 0
M  V30 23739 H 2374.46 -3.70412 4.805 0
M  V30 23740 H 2373.19 -3.27312 3.6155 0
M  V30 23741 H 2372.2 -1.64439 5.24633 0
M  V30 23742 H 2373.42 -2.10226 6.45741 0
M  V30 23743 H 2371.37 -3.97387 5.21938 0
M  V30 23744 H 2371.29 -3.28655 6.80825 0
M  V30 23745 H 2372.56 -4.41255 6.42584 0
M  V30 23746 N 2376.78 -1.56818 -0.156836 0
M  V30 23747 C 2378.01 -1.86956 -0.886283 0
M  V30 23748 C 2378.43 -0.704006 -1.75183 0
M  V30 23749 O 2377.78 0.326521 -1.79555 0
M  V30 23750 C 2377.84 -3.16257 -1.75112 0
M  V30 23751 O 2377.56 -4.28321 -0.920461 0
M  V30 23752 C 2379.06 -3.59842 -2.58899 0
M  V30 23753 H 2376.28 -0.619928 -0.256769 0
M  V30 23754 H 2378.82 -2.0393 -0.152579 0
M  V30 23755 H 2376.98 -3.01066 -2.43799 0
M  V30 23756 H 2377.39 -5.02195 -1.51329 0
M  V30 23757 H 2378.86 -4.53178 -3.15172 0
M  V30 23758 H 2379.34 -2.84655 -3.34467 0
M  V30 23759 H 2379.95 -3.77693 -1.95519 0
M  V30 23760 N 2378.26 0.425871 -1.51737 0
M  V30 23761 C 2379.49 1.20105 -1.69084 0
M  V30 23762 C 2379.91 1.83961 -0.39243 0
M  V30 23763 O 2379.27 1.69303 0.648551 0
M  V30 23764 C 2379.32 2.25232 -2.81608 0
M  V30 23765 O 2378.42 3.30988 -2.4601 0
M  V30 23766 H 2377.76 0.35137 -0.563414 0
M  V30 23767 H 2380.29 0.501477 -1.98359 0
M  V30 23768 H 2380.3 2.69833 -3.0603 0
M  V30 23769 H 2378.98 1.78135 -3.7582 0
M  V30 23770 H 2377.56 2.91783 -2.322 0
M  V30 23771 N 2379.74 1.42077 0.682052 0
M  V30 23772 C 2380.67 1.4093 1.80753 0
M  V30 23773 C 2381.69 0.309426 1.59832 0
M  V30 23774 O 2382.87 0.572044 1.69085 0
M  V30 23775 C 2379.97 1.17871 3.17741 0
M  V30 23776 C 2379.15 2.40155 3.65574 0
M  V30 23777 C 2378.21 2.1275 4.81273 0
M  V30 23778 O 2377.23 2.85895 4.92191 0
M  V30 23779 N 2378.43 1.12612 5.69472 0
M  V30 23780 H 2381.2 2.37938 1.82224 0
M  V30 23781 H 2378.76 1.36863 0.864879 0
M  V30 23782 H 2380.75 0.974669 3.92788 0
M  V30 23783 H 2379.32 0.294123 3.11213 0
M  V30 23784 H 2378.54 2.76174 2.81286 0
M  V30 23785 H 2379.83 3.216 3.94273 0
M  V30 23786 H 2379.23 0.520998 5.63296 0
M  V30 23787 H 2377.79 0.981955 6.44361 0
M  V30 23788 N 2381.22 -0.917649 1.28129 0
M  V30 23789 C 2382.45 -1.69778 1.17725 0
M  V30 23790 C 2382.86 -1.87303 -0.267228 0
M  V30 23791 O 2382.2 -1.39704 -1.19284 0
M  V30 23792 C 2382.26 -3.11213 1.79964 0
M  V30 23793 C 2381.93 -3.16987 3.29193 0
M  V30 23794 C 2382.92 -2.98477 4.25684 0
M  V30 23795 C 2380.61 -3.39625 3.70081 0
M  V30 23796 C 2382.6 -3.02511 5.6104 0
M  V30 23797 C 2380.29 -3.43291 5.05563 0
M  V30 23798 C 2381.29 -3.24754 6.00853 0
M  V30 23799 O 2380.98 -3.28174 7.33864 0
M  V30 23800 H 2380.71 -0.537627 0.409797 0
M  V30 23801 H 2383.26 -1.15725 1.69696 0
M  V30 23802 H 2381.49 -3.6679 1.22481 0
M  V30 23803 H 2383.18 -3.71235 1.64132 0
M  V30 23804 H 2383.95 -2.80819 3.95431 0
M  V30 23805 H 2379.83 -3.53101 2.96379 0
M  V30 23806 H 2383.37 -2.8796 6.35393 0
M  V30 23807 H 2379.27 -3.60477 5.35469 0
M  V30 23808 H 2380.03 -3.44562 7.42442 0
M  V30 23809 N 2382.7 -1.10314 -1.12555 0
M  V30 23810 C 2383.94 -0.844792 -1.84037 0
M  V30 23811 C 2384.27 0.629636 -1.84027 0
M  V30 23812 O 2383.53 1.4801 -1.28029 0
M  V30 23813 C 2383.83 -1.33675 -3.3146 0
M  V30 23814 C 2383.49 -2.82238 -3.51643 0
M  V30 23815 C 2382.15 -3.22808 -3.56859 0
M  V30 23816 C 2384.51 -3.7798 -3.5886 0
M  V30 23817 C 2381.83 -4.57874 -3.66836 0
M  V30 23818 C 2384.19 -5.12847 -3.70366 0
M  V30 23819 C 2382.85 -5.52993 -3.73838 0
M  V30 23820 H 2382.12 -0.309131 -0.673438 0
M  V30 23821 H 2384.77 -1.37952 -1.32822 0
M  V30 23822 H 2383.07 -0.722017 -3.8509 0
M  V30 23823 H 2384.77 -1.11335 -3.85234 0
M  V30 23824 H 2381.36 -2.49848 -3.48244 0
M  V30 23825 H 2385.54 -3.47744 -3.54101 0
M  V30 23826 H 2380.8 -4.88402 -3.67795 0
M  V30 23827 H 2384.97 -5.8688 -3.74893 0
M  V30 23828 H 2382.6 -6.57646 -3.81321 0
M  V30 23829 N 2384.18 1.29948 -0.891694 0
M  V30 23830 C 2385.42 1.9588 -0.513535 0
M  V30 23831 C 2385.75 1.70353 0.938626 0
M  V30 23832 O 2385.01 1.00481 1.67935 0
M  V30 23833 C 2385.3 3.49593 -0.74293 0
M  V30 23834 C 2384.97 3.95183 -2.17121 0
M  V30 23835 C 2383.63 4.07342 -2.56176 0
M  V30 23836 C 2385.98 4.18861 -3.10169 0
M  V30 23837 C 2383.31 4.40543 -3.87477 0
M  V30 23838 C 2385.66 4.53534 -4.41009 0
M  V30 23839 C 2384.33 4.63902 -4.79949 0
M  V30 23840 H 2383.6 0.716777 -0.187916 0
M  V30 23841 H 2386.25 1.54692 -1.12883 0
M  V30 23842 H 2384.55 3.91775 -0.0446549 0
M  V30 23843 H 2386.25 3.9869 -0.429837 0
M  V30 23844 H 2382.84 3.8623 -1.85808 0
M  V30 23845 H 2387.02 4.08941 -2.81213 0
M  V30 23846 H 2382.28 4.46772 -4.17379 0
M  V30 23847 H 2386.45 4.70806 -5.13142 0
M  V30 23848 H 2384.08 4.89385 -5.81727 0
M  V30 23849 N 2385.65 0.653339 1.4342 0
M  V30 23850 C 2386.59 -0.0768731 2.29071 0
M  V30 23851 C 2387.6 -0.786992 1.42514 0
M  V30 23852 O 2388.79 -0.644728 1.6645 0
M  V30 23853 C 2385.89 -1.13193 3.19438 0
M  V30 23854 C 2385.06 -0.49993 4.34534 0
M  V30 23855 C 2384.12 -1.45189 5.05773 0
M  V30 23856 O 2383.15 -0.960439 5.61039 0
M  V30 23857 N 2384.35 -2.78585 5.09285 0
M  V30 23858 H 2387.11 0.658286 2.92381 0
M  V30 23859 H 2384.67 0.496131 1.54111 0
M  V30 23860 H 2386.67 -1.76958 3.63962 0
M  V30 23861 H 2385.24 -1.76906 2.57727 0
M  V30 23862 H 2384.46 0.316807 3.92925 0
M  V30 23863 H 2385.74 -0.058745 5.08766 0
M  V30 23864 H 2385.14 -3.21072 4.65757 0
M  V30 23865 H 2383.7 -3.37652 5.57525 0
M  V30 23866 N 2387.13 -1.52563 0.395266 0
M  V30 23867 C 2388.06 -2.29538 -0.428344 0
M  V30 23868 C 2389.04 -1.33171 -1.05828 0
M  V30 23869 O 2390.23 -1.62069 -1.06992 0
M  V30 23870 C 2387.36 -3.10659 -1.55268 0
M  V30 23871 C 2386.31 -4.14959 -1.04848 0
M  V30 23872 C 2385.64 -4.84341 -2.26535 0
M  V30 23873 C 2386.94 -5.22179 -0.112232 0
M  V30 23874 H 2388.63 -2.98635 0.213919 0
M  V30 23875 H 2386.18 -1.43622 0.104323 0
M  V30 23876 H 2388.13 -3.63269 -2.13573 0
M  V30 23877 H 2386.85 -2.39306 -2.22262 0
M  V30 23878 H 2385.51 -3.63339 -0.487921 0
M  V30 23879 H 2385.16 -4.0953 -2.92052 0
M  V30 23880 H 2384.86 -5.54841 -1.93457 0
M  V30 23881 H 2386.39 -5.39758 -2.85471 0
M  V30 23882 H 2387.8 -5.70113 -0.603652 0
M  V30 23883 H 2386.2 -5.99961 0.129073 0
M  V30 23884 H 2387.27 -4.77619 0.837136 0
M  V30 23885 N 2388.61 -0.125265 -1.57101 0
M  V30 23886 C 2389.54 0.8532 -2.12728 0
M  V30 23887 C 2390.55 1.2257 -1.07147 0
M  V30 23888 O 2391.74 1.17355 -1.34499 0
M  V30 23889 C 2388.84 2.15313 -2.61713 0
M  V30 23890 C 2388.02 1.95136 -3.9146 0
M  V30 23891 C 2387.08 3.08916 -4.25978 0
M  V30 23892 O 2386.1 2.81555 -4.94687 0
M  V30 23893 N 2387.3 4.35518 -3.83803 0
M  V30 23894 H 2390.07 0.377912 -2.97308 0
M  V30 23895 H 2387.63 0.0589726 -1.61793 0
M  V30 23896 H 2389.62 2.90436 -2.81831 0
M  V30 23897 H 2388.19 2.54171 -1.81978 0
M  V30 23898 H 2387.41 1.0417 -3.80187 0
M  V30 23899 H 2388.7 1.78967 -4.76286 0
M  V30 23900 H 2388.1 4.6062 -3.28398 0
M  V30 23901 H 2386.65 5.07492 -4.09017 0
M  V30 23902 N 2390.09 1.56899 0.148518 0
M  V30 23903 C 2391 2.01414 1.2029 0
M  V30 23904 C 2392.01 0.929299 1.47105 0
M  V30 23905 O 2393.19 1.23866 1.58805 0
M  V30 23906 C 2390.25 2.38452 2.51678 0
M  V30 23907 C 2389.32 3.60876 2.32523 0
M  V30 23908 C 2388.55 3.96138 3.57646 0
M  V30 23909 O 2388.77 3.32081 4.63765 0
M  V30 23910 O 2387.71 4.89391 3.50399 0
M  V30 23911 H 2391.53 2.91417 0.854974 0
M  V30 23912 H 2389.12 1.45069 0.357126 0
M  V30 23913 H 2391 2.63141 3.29143 0
M  V30 23914 H 2389.67 1.51604 2.86003 0
M  V30 23915 H 2388.58 3.41376 1.53013 0
M  V30 23916 H 2389.91 4.48337 2.03113 0
M  V30 23917 N 2391.57 -0.417818 1.51961 0
M  V30 23918 C 2392.52 -1.50737 1.71062 0
M  V30 23919 C 2393.5 -1.50672 0.564513 0
M  V30 23920 O 2394.69 -1.56795 0.821233 0
M  V30 23921 C 2391.82 -2.88751 1.85682 0
M  V30 23922 C 2390.91 -2.93497 3.06138 0
M  V30 23923 N 2391.3 -2.67954 4.28992 0
M  V30 23924 C 2389.6 -3.24664 3.05793 0
M  V30 23925 C 2390.3 -2.79046 5.104 0
M  V30 23926 N 2389.27 -3.11554 4.45461 0
M  V30 23927 H 2393.07 -1.2977 2.63698 0
M  V30 23928 H 2390.59 -0.625409 1.49875 0
M  V30 23929 H 2392.59 -3.6716 1.97481 0
M  V30 23930 H 2391.25 -3.10723 0.942403 0
M  V30 23931 H 2392.26 -2.42512 4.57612 0
M  V30 23932 H 2388.93 -3.52286 2.24056 0
M  V30 23933 H 2390.32 -2.63086 6.18252 0
M  V30 23934 N 2393.04 -1.42436 -0.674508 0
M  V30 23935 C 2394.29 -1.42922 -1.43456 0
M  V30 23936 C 2394.62 -0.0457653 -1.94446 0
M  V30 23937 O 2393.87 0.9459 -1.71322 0
M  V30 23938 C 2394.17 -2.40074 -2.64763 0
M  V30 23939 C 2393.84 -3.86447 -2.32313 0
M  V30 23940 C 2392.5 -4.26318 -2.23174 0
M  V30 23941 C 2394.85 -4.78776 -2.05968 0
M  V30 23942 C 2392.18 -5.56497 -1.85817 0
M  V30 23943 C 2394.53 -6.09298 -1.70114 0
M  V30 23944 C 2393.2 -6.48167 -1.59486 0
M  V30 23945 H 2392.47 -0.522987 -0.524943 0
M  V30 23946 H 2395.11 -1.75379 -0.769066 0
M  V30 23947 H 2393.42 -2.00945 -3.36346 0
M  V30 23948 H 2395.12 -2.37713 -3.22945 0
M  V30 23949 H 2391.71 -3.54881 -2.40328 0
M  V30 23950 H 2395.89 -4.48761 -2.11961 0
M  V30 23951 H 2391.15 -5.85473 -1.76157 0
M  V30 23952 H 2395.32 -6.80327 -1.48755 0
M  V30 23953 H 2392.95 -7.48948 -1.30309 0
M  V30 23954 N 2394.52 0.910841 -1.28614 0
M  V30 23955 C 2395.77 1.66272 -1.16109 0
M  V30 23956 C 2396.1 1.92036 0.289079 0
M  V30 23957 O 2395.38 1.52283 1.20997 0
M  V30 23958 C 2395.66 3.01882 -1.96315 0
M  V30 23959 C 2395.51 2.83253 -3.4941 0
M  V30 23960 C 2396.83 4.0246 -1.78083 0
M  V30 23961 H 2393.95 0.603409 -0.423162 0
M  V30 23962 H 2396.59 1.05584 -1.57962 0
M  V30 23963 H 2394.74 3.53684 -1.60749 0
M  V30 23964 H 2396.41 2.38439 -3.94898 0
M  V30 23965 H 2394.66 2.18255 -3.74897 0
M  V30 23966 H 2395.33 3.79567 -4.0079 0
M  V30 23967 H 2397.8 3.5973 -2.09126 0
M  V30 23968 H 2396.68 4.95304 -2.3657 0
M  V30 23969 H 2396.94 4.3598 -0.733085 0
M  V30 23970 N 2396 1.10909 1.11969 0
M  V30 23971 C 2396.95 0.762383 2.17845 0
M  V30 23972 C 2397.92 -0.263571 1.63995 0
M  V30 23973 O 2399.1 -0.141739 1.90273 0
M  V30 23974 C 2396.24 0.205711 3.44486 0
M  V30 23975 C 2395.36 1.28756 4.12366 0
M  V30 23976 C 2394.49 0.692011 5.26673 0
M  V30 23977 C 2393.53 1.75409 5.86428 0
M  V30 23978 N 2392.67 1.17845 6.92139 0
M  V30 23979 H 2397.51 1.66944 2.46848 0
M  V30 23980 H 2395.04 0.833797 1.21187 0
M  V30 23981 H 2397 -0.134963 4.16982 0
M  V30 23982 H 2395.63 -0.664557 3.15885 0
M  V30 23983 H 2394.68 1.74528 3.38 0
M  V30 23984 H 2396 2.09133 4.52841 0
M  V30 23985 H 2395.15 0.30107 6.05953 0
M  V30 23986 H 2393.89 -0.143146 4.8749 0
M  V30 23987 H 2392.89 2.15441 5.05831 0
M  V30 23988 H 2394.12 2.59219 6.2768 0
M  V30 23989 H 2392.06 0.36484 6.54985 0
M  V30 23990 H 2391.98 1.919 7.31239 0
M  V30 23991 H 2393.25 0.814216 7.75236 0
M  V30 23992 N 2397.48 -1.29474 0.898573 0
M  V30 23993 C 2398.76 -1.90507 0.44345 0
M  V30 23994 C 2399.14 -1.81571 -1.07682 0
M  V30 23995 O 2398.48 -1.2417 -1.91818 0
M  V30 23996 C 2398.69 -3.35629 0.956767 0
M  V30 23997 C 2400.04 -4.12661 0.9998 0
M  V30 23998 O 2401.07 -3.44528 0.904359 0
M  V30 23999 O 2399.92 -5.34414 1.14298 0
M  V30 24000 H 2397.02 -0.815398 0.138039 0
M  V30 24001 H 2399.56 -1.37947 0.988364 0
M  V30 24002 H 2398.34 -3.36283 2.00073 0
M  V30 24003 H 2397.96 -3.95665 0.391798 0
M  V30 24004 N 2398.96 -0.660936 -1.43071 0
M  V30 24005 C 2399.89 0.0122419 -2.33497 0
M  V30 24006 C 2400.87 0.803899 -1.49905 0
M  V30 24007 O 2402.05 0.763833 -1.78548 0
M  V30 24008 C 2399.18 0.973936 -3.33364 0
M  V30 24009 C 2398.14 0.291852 -4.27004 0
M  V30 24010 C 2397.46 1.36553 -5.16969 0
M  V30 24011 C 2398.76 -0.820552 -5.15814 0
M  V30 24012 H 2400.46 -0.742924 -2.90036 0
M  V30 24013 H 2398 -0.358713 -1.39461 0
M  V30 24014 H 2399.96 1.45385 -3.95527 0
M  V30 24015 H 2398.68 1.76036 -2.75098 0
M  V30 24016 H 2397.34 -0.167687 -3.66216 0
M  V30 24017 H 2396.99 2.14358 -4.55038 0
M  V30 24018 H 2396.69 0.914352 -5.80442 0
M  V30 24019 H 2398.21 1.84665 -5.82006 0
M  V30 24020 H 2399.62 -0.422467 -5.71741 0
M  V30 24021 H 2398.02 -1.19667 -5.88048 0
M  V30 24022 H 2399.09 -1.67526 -4.55042 0
M  V30 24023 N 2400.43 1.52351 -0.403352 0
M  V30 24024 C 2401.68 2.02047 0.17457 0
M  V30 24025 C 2402.01 1.2887 1.4528 0
M  V30 24026 O 2401.29 0.393291 1.90482 0
M  V30 24027 C 2401.57 3.57545 0.428175 0
M  V30 24028 C 2401.42 4.41378 -0.866326 0
M  V30 24029 C 2402.74 4.23059 1.2128 0
M  V30 24030 H 2399.86 0.73439 0.0619722 0
M  V30 24031 H 2402.5 1.82292 -0.535682 0
M  V30 24032 H 2400.65 3.74509 1.03321 0
M  V30 24033 H 2402.33 4.36138 -1.50272 0
M  V30 24034 H 2400.57 4.07824 -1.47858 0
M  V30 24035 H 2401.24 5.48238 -0.643345 0
M  V30 24036 H 2403.72 4.10159 0.700631 0
M  V30 24037 H 2402.59 5.31811 1.35899 0
M  V30 24038 H 2402.85 3.81629 2.23186 0
M  V30 24039 N 2401.91 0.133594 1.57033 0
M  V30 24040 C 2403.16 -0.519814 1.95301 0
M  V30 24041 C 2403.48 -1.66276 1.01869 0
M  V30 24042 O 2402.75 -1.95746 0.0776857 0
M  V30 24043 H 2401.33 -0.195019 0.721094 0
M  V30 24044 H 2403.99 0.205955 1.93809 0
M  V30 24045 H 2403.09 -0.904801 2.98697 0
M  V30 24046 N 2403.39 -1.56975 -0.140195 0
M  V30 24047 C 2404.8 -1.73098 -0.699566 0
M  V30 24048 C 2405.15 -0.749054 -1.81338 0
M  V30 24049 O 2404.28 0.0828122 -2.16241 0
M  V30 24050 C 2404.87 -3.13862 -1.27577 0
M  V30 24051 C 2403.43 -3.31564 -1.78164 0
M  V30 24052 C 2402.58 -2.69014 -0.672807 0
M  V30 24053 H 2405.53 -1.58469 0.0855394 0
M  V30 24054 H 2405.55 -3.14239 -2.14556 0
M  V30 24055 H 2405.06 -3.85306 -0.464887 0
M  V30 24056 H 2403.16 -2.65129 -2.61796 0
M  V30 24057 H 2403.28 -4.39569 -1.90567 0
M  V30 24058 H 2401.64 -2.29667 -1.10114 0
M  V30 24059 H 2402.42 -3.43066 0.126739 0
M  V30 24060 N 2404.87 0.409753 -1.5218 0
M  V30 24061 C 2406.12 1.15448 -1.6588 0
M  V30 24062 C 2406.44 1.91044 -0.390804 0
M  V30 24063 O 2405.71 1.86668 0.59429 0
M  V30 24064 H 2404.29 0.429166 -0.611412 0
M  V30 24065 H 2406.95 0.467101 -1.8922 0
M  V30 24066 H 2406.05 1.86889 -2.49958 0
M  V30 24067 N 2406.35 1.42792 0.666944 0
M  V30 24068 C 2407.76 1.3888 1.24777 0
M  V30 24069 C 2408.11 0.0859771 1.96012 0
M  V30 24070 O 2407.23 -0.815046 2.00464 0
M  V30 24071 C 2407.83 2.51568 2.26934 0
M  V30 24072 C 2406.39 2.50963 2.80525 0
M  V30 24073 C 2405.53 2.29962 1.54961 0
M  V30 24074 H 2408.49 1.51892 0.459826 0
M  V30 24075 H 2408.51 2.2227 3.08831 0
M  V30 24076 H 2408.02 3.46375 1.75059 0
M  V30 24077 H 2406.12 1.59997 3.36499 0
M  V30 24078 H 2406.23 3.4827 3.29005 0
M  V30 24079 H 2404.6 1.7837 1.81814 0
M  V30 24080 H 2405.38 3.26835 1.05041 0
M  V30 24081 N 2407.82 -0.904008 1.29095 0
M  V30 24082 C 2409.07 -1.65409 1.16816 0
M  V30 24083 C 2409.4 -1.92456 -0.281247 0
M  V30 24084 O 2408.65 -1.53015 -1.22003 0
M  V30 24085 C 2408.95 -3.01301 1.9223 0
M  V30 24086 C 2408.62 -2.93879 3.41973 0
M  V30 24087 C 2407.28 -2.91562 3.82812 0
M  V30 24088 C 2409.63 -2.83405 4.37414 0
M  V30 24089 C 2406.96 -2.76584 5.17415 0
M  V30 24090 C 2409.31 -2.69967 5.72102 0
M  V30 24091 C 2407.98 -2.66013 6.12203 0
M  V30 24092 H 2407.25 -0.605276 0.427461 0
M  V30 24093 H 2409.89 -1.05252 1.59982 0
M  V30 24094 H 2408.2 -3.65301 1.41641 0
M  V30 24095 H 2409.9 -3.58262 1.80137 0
M  V30 24096 H 2406.49 -2.96483 3.09509 0
M  V30 24097 H 2410.67 -2.84275 4.06818 0
M  V30 24098 H 2405.93 -2.71925 5.47601 0
M  V30 24099 H 2410.1 -2.60832 6.45708 0
M  V30 24100 H 2407.73 -2.54165 7.16452 0
M  V30 24101 N 2409.3 -1.11501 -1.11379 0
M  V30 24102 C 2410.53 -0.886783 -1.86933 0
M  V30 24103 C 2410.95 0.563445 -1.80196 0
M  V30 24104 O 2410.3 1.38906 -1.1837 0
M  V30 24105 C 2410.35 -1.3407 -3.35719 0
M  V30 24106 O 2410.07 -2.73407 -3.42316 0
M  V30 24107 C 2411.58 -1.14798 -4.28178 0
M  V30 24108 H 2408.8 -0.317534 -0.591112 0
M  V30 24109 H 2411.34 -1.4825 -1.40862 0
M  V30 24110 H 2409.49 -0.788421 -3.79292 0
M  V30 24111 H 2409.91 -2.93095 -4.34966 0
M  V30 24112 H 2411.38 -1.51459 -5.30815 0
M  V30 24113 H 2411.86 -0.087605 -4.39113 0
M  V30 24114 H 2412.47 -1.68728 -3.90399 0
M  V30 24115 N 2410.78 1.28995 -0.905426 0
M  V30 24116 C 2412.03 1.95614 -0.535073 0
M  V30 24117 C 2412.36 1.71166 0.917374 0
M  V30 24118 O 2411.64 1.02788 1.65121 0
M  V30 24119 C 2411.92 3.50286 -0.83498 0
M  V30 24120 C 2411.77 3.84168 -2.33955 0
M  V30 24121 C 2413.09 4.38895 -0.325395 0
M  V30 24122 H 2410.21 0.710495 -0.195874 0
M  V30 24123 H 2412.85 1.52511 -1.13315 0
M  V30 24124 H 2411 3.8713 -0.325972 0
M  V30 24125 H 2412.67 3.57238 -2.91854 0
M  V30 24126 H 2410.92 3.31508 -2.79795 0
M  V30 24127 H 2411.59 4.92145 -2.49995 0
M  V30 24128 H 2414.06 4.09076 -0.761328 0
M  V30 24129 H 2412.94 5.45991 -0.564391 0
M  V30 24130 H 2413.2 4.35271 0.774067 0
M  V30 24131 N 2412.26 0.668514 1.42719 0
M  V30 24132 C 2413.51 0.188176 2.01624 0
M  V30 24133 C 2413.83 -1.20315 1.52822 0
M  V30 24134 O 2413.09 -1.82039 0.718355 0
M  V30 24135 C 2413.39 0.164562 3.57021 0
M  V30 24136 C 2413.05 1.4997 4.25229 0
M  V30 24137 C 2411.72 1.86528 4.43577 0
M  V30 24138 C 2414.07 2.37929 4.63723 0
M  V30 24139 C 2411.4 3.10682 4.97688 0
M  V30 24140 C 2413.75 3.6139 5.19211 0
M  V30 24141 C 2412.41 3.98125 5.35773 0
M  V30 24142 H 2411.68 0.0688583 0.737794 0
M  V30 24143 H 2414.33 0.862255 1.7099 0
M  V30 24144 H 2412.63 -0.593011 3.87286 0
M  V30 24145 H 2414.33 -0.224201 4.00373 0
M  V30 24146 H 2410.92 1.20529 4.11304 0
M  V30 24147 H 2415.11 2.10972 4.49227 0
M  V30 24148 H 2410.36 3.39173 5.08696 0
M  V30 24149 H 2414.54 4.29753 5.47983 0
M  V30 24150 H 2412.16 4.94405 5.77467 0
M  V30 24151 N 2413.74 -1.52135 0.411426 0
M  V30 24152 C 2414.7 -2.25664 -0.401049 0
M  V30 24153 C 2415.7 -1.28119 -0.97171 0
M  V30 24154 O 2416.89 -1.52042 -0.850227 0
M  V30 24155 C 2414.02 -3.02866 -1.56477 0
M  V30 24156 H 2415.22 -2.98914 0.243003 0
M  V30 24157 H 2412.77 -1.55437 0.163995 0
M  V30 24158 H 2413.5 -2.33971 -2.24562 0
M  V30 24159 H 2413.29 -3.74485 -1.16204 0
M  V30 24160 H 2414.78 -3.58633 -2.13945 0
M  V30 24161 N 2415.22 -0.14192 -1.5696 0
M  V30 24162 C 2416.63 0.379743 -1.82797 0
M  V30 24163 C 2416.98 1.65078 -1.06036 0
M  V30 24164 O 2416.1 2.14253 -0.304049 0
M  V30 24165 C 2416.7 0.695744 -3.31579 0
M  V30 24166 C 2415.26 1.16195 -3.58016 0
M  V30 24167 C 2414.4 0.182406 -2.76699 0
M  V30 24168 H 2417.35 -0.366702 -1.54405 0
M  V30 24169 H 2417.38 1.55093 -3.47457 0
M  V30 24170 H 2416.89 -0.229517 -3.87421 0
M  V30 24171 H 2414.99 2.10333 -3.07556 0
M  V30 24172 H 2415.1 1.09143 -4.66502 0
M  V30 24173 H 2413.47 0.674029 -2.4562 0
M  V30 24174 H 2414.25 -0.736356 -3.3531 0
M  V30 24175 N 2416.69 1.57047 0.131868 0
M  V30 24176 C 2417.62 2.0243 1.1638 0
M  V30 24177 C 2418.6 0.906465 1.43935 0
M  V30 24178 O 2419.79 1.17531 1.54596 0
M  V30 24179 C 2416.92 2.41774 2.49324 0
M  V30 24180 C 2415.87 3.56883 2.36259 0
M  V30 24181 C 2415.2 3.82087 3.74051 0
M  V30 24182 C 2416.5 4.89045 1.83392 0
M  V30 24183 H 2418.19 2.88888 0.786383 0
M  V30 24184 H 2415.74 1.38982 0.37683 0
M  V30 24185 H 2417.69 2.72126 3.21754 0
M  V30 24186 H 2416.42 1.52271 2.88931 0
M  V30 24187 H 2415.08 3.26721 1.6628 0
M  V30 24188 H 2414.72 2.8981 4.1112 0
M  V30 24189 H 2414.42 4.59561 3.66166 0
M  V30 24190 H 2415.95 4.14878 4.48005 0
M  V30 24191 H 2417.36 5.18016 2.45627 0
M  V30 24192 H 2415.76 5.70429 1.8636 0
M  V30 24193 H 2416.83 4.78412 0.790578 0
M  V30 24194 N 2418.17 -0.401677 1.52395 0
M  V30 24195 C 2419.4 -1.174 1.70974 0
M  V30 24196 C 2419.82 -1.83313 0.421647 0
M  V30 24197 O 2419.18 -1.70313 -0.621534 0
M  V30 24198 C 2419.23 -2.20723 2.85155 0
M  V30 24199 O 2418.33 -3.27032 2.51244 0
M  V30 24200 H 2417.67 -0.342362 0.568933 0
M  V30 24201 H 2420.2 -0.469856 1.99132 0
M  V30 24202 H 2420.21 -2.6493 3.10284 0
M  V30 24203 H 2418.89 -1.72133 3.78606 0
M  V30 24204 H 2417.46 -2.88052 2.36813 0
M  V30 24205 N 2419.65 -1.43144 -0.659362 0
M  V30 24206 C 2420.61 -1.47504 -1.75429 0
M  V30 24207 C 2421.61 -0.360539 -1.56706 0
M  V30 24208 O 2422.8 -0.622031 -1.62716 0
M  V30 24209 C 2419.93 -1.32168 -3.14236 0
M  V30 24210 H 2421.13 -2.4501 -1.72946 0
M  V30 24211 H 2418.68 -1.29819 -0.870447 0
M  V30 24212 H 2419.42 -0.356457 -3.22335 0
M  V30 24213 H 2419.2 -2.12954 -3.29231 0
M  V30 24214 H 2420.69 -1.38137 -3.94091 0
M  V30 24215 N 2421.13 0.897149 -1.29572 0
M  V30 24216 C 2422.09 1.9831 -1.14917 0
M  V30 24217 C 2423.09 1.60581 -0.0838911 0
M  V30 24218 O 2424.28 1.71026 -0.331036 0
M  V30 24219 C 2421.41 3.32368 -0.757893 0
M  V30 24220 H 2422.61 2.1274 -2.11381 0
M  V30 24221 H 2420.16 1.08199 -1.12795 0
M  V30 24222 H 2420.89 3.2364 0.20678 0
M  V30 24223 H 2420.68 3.61118 -1.52761 0
M  V30 24224 H 2422.17 4.12051 -0.67848 0
M  V30 24225 N 2422.61 1.1209 1.10786 0
M  V30 24226 C 2423.85 0.873963 1.82669 0
M  V30 24227 C 2424.18 -0.600279 1.85005 0
M  V30 24228 O 2423.44 -1.45955 1.30367 0
M  V30 24229 C 2423.73 1.38932 3.29291 0
M  V30 24230 C 2423.4 2.87797 3.47108 0
M  V30 24231 C 2422.06 3.28445 3.51678 0
M  V30 24232 C 2424.41 3.83641 3.52801 0
M  V30 24233 C 2421.74 4.63652 3.59505 0
M  V30 24234 C 2424.09 5.18674 3.6216 0
M  V30 24235 C 2422.76 5.5887 3.64993 0
M  V30 24236 H 2422.03 0.319806 0.668435 0
M  V30 24237 H 2424.68 1.40047 1.3061 0
M  V30 24238 H 2422.98 0.78319 3.83892 0
M  V30 24239 H 2424.68 1.1745 3.83414 0
M  V30 24240 H 2421.27 2.55356 3.44225 0
M  V30 24241 H 2425.45 3.53334 3.48524 0
M  V30 24242 H 2420.71 4.94192 3.59978 0
M  V30 24243 H 2424.88 5.9277 3.65509 0
M  V30 24244 H 2422.51 6.63629 3.70811 0
M  V30 24245 N 2424.08 -1.28513 0.912254 0
M  V30 24246 C 2425.36 -1.90026 0.46363 0
M  V30 24247 C 2425.74 -1.82702 -1.0575 0
M  V30 24248 O 2425.09 -1.26197 -1.9049 0
M  V30 24249 C 2425.3 -3.34596 0.992311 0
M  V30 24250 C 2426.65 -4.11577 1.04351 0
M  V30 24251 O 2427.67 -3.4355 0.94085 0
M  V30 24252 O 2426.53 -5.33172 1.1996 0
M  V30 24253 H 2423.62 -0.813888 0.14668 0
M  V30 24254 H 2426.17 -1.36891 1.00294 0
M  V30 24255 H 2424.94 -3.34142 2.03629 0
M  V30 24256 H 2424.56 -3.95227 0.433741 0
M  V30 24257 N 2425.56 -0.676073 -1.42362 0
M  V30 24258 C 2426.47 0.00149265 -2.346 0
M  V30 24259 C 2427.49 0.787458 -1.55162 0
M  V30 24260 O 2428.66 0.729488 -1.87724 0
M  V30 24261 C 2425.73 0.940239 -3.33707 0
M  V30 24262 C 2424.79 0.148664 -4.29043 0
M  V30 24263 C 2424.02 1.0427 -5.23415 0
M  V30 24264 O 2424.25 2.28222 -5.22753 0
M  V30 24265 O 2423.18 0.50282 -5.99796 0
M  V30 24266 H 2427.01 -0.758319 -2.9408 0
M  V30 24267 H 2424.59 -0.436314 -1.42887 0
M  V30 24268 H 2426.47 1.4791 -3.94589 0
M  V30 24269 H 2425.15 1.67988 -2.76698 0
M  V30 24270 H 2424.06 -0.434335 -3.7157 0
M  V30 24271 H 2425.39 -0.551891 -4.89096 0
M  V30 24272 N 2427.04 1.51915 -0.419488 0
M  V30 24273 C 2427.95 2.31034 0.407487 0
M  V30 24274 C 2428.97 1.39192 1.04411 0
M  V30 24275 O 2430.14 1.72266 1.04337 0
M  V30 24276 C 2427.21 3.12399 1.50359 0
M  V30 24277 C 2426.27 4.19995 0.888955 0
M  V30 24278 C 2425.5 4.97471 1.93283 0
M  V30 24279 O 2425.72 4.75367 3.1525 0
M  V30 24280 O 2424.66 5.82043 1.53329 0
M  V30 24281 H 2428.48 3.02767 -0.237918 0
M  V30 24282 H 2426.07 1.48282 -0.182439 0
M  V30 24283 H 2427.95 3.63036 2.13969 0
M  V30 24284 H 2426.63 2.43449 2.13341 0
M  V30 24285 H 2425.53 3.7348 0.215287 0
M  V30 24286 H 2426.87 4.91267 0.302905 0
M  V30 24287 N 2428.52 0.150242 1.56882 0
M  V30 24288 C 2429.48 -0.774119 2.15731 0
M  V30 24289 C 2430.48 -1.17296 1.09992 0
M  V30 24290 O 2431.67 -1.09336 1.35615 0
M  V30 24291 C 2428.8 -2.05091 2.72306 0
M  V30 24292 H 2430 -0.262148 2.98752 0
M  V30 24293 H 2427.55 -0.0992206 1.55985 0
M  V30 24294 H 2428.28 -2.60647 1.9296 0
M  V30 24295 H 2428.07 -1.7741 3.49668 0
M  V30 24296 H 2429.56 -2.71103 3.17636 0
M  V30 24297 N 2430 -1.57115 -0.123538 0
M  V30 24298 C 2431.41 -1.52307 -0.476934 0
M  V30 24299 C 2431.61 -0.862512 -1.82107 0
M  V30 24300 O 2430.67 -0.442927 -2.48585 0
M  V30 24301 C 2431.98 -2.97073 -0.465609 0
M  V30 24302 C 2433.53 -3.08139 -0.54948 0
M  V30 24303 C 2434 -4.54457 -0.568589 0
M  V30 24304 N 2435.5 -4.58894 -0.630156 0
M  V30 24305 C 2436.23 -5.69515 -0.666315 0
M  V30 24306 N 2435.73 -6.89645 -0.660393 0
M  V30 24307 N 2437.52 -5.57611 -0.708979 0
M  V30 24308 H 2429.67 -1.98443 0.757233 0
M  V30 24309 H 2431.93 -0.906069 0.278824 0
M  V30 24310 H 2431.64 -3.48754 0.454294 0
M  V30 24311 H 2431.51 -3.54271 -1.29507 0
M  V30 24312 H 2433.9 -2.56464 -1.4598 0
M  V30 24313 H 2433.98 -2.53944 0.307577 0
M  V30 24314 H 2433.63 -5.06776 0.33767 0
M  V30 24315 H 2433.56 -5.06459 -1.44247 0
M  V30 24316 H 2436.05 -3.72423 -0.64108 0
M  V30 24317 H 2436.36 -7.69709 -0.690481 0
M  V30 24318 H 2434.7 -6.92158 -0.62789 0
M  V30 24319 H 2437.9 -4.6267 -0.710937 0
M  V30 24320 H 2438.07 -6.43833 -0.733691 0
M  V30 24321 N 2431.47 0.393589 -1.52606 0
M  V30 24322 C 2432.72 1.14076 -1.67674 0
M  V30 24323 C 2433.05 1.89754 -0.413155 0
M  V30 24324 O 2432.33 1.8537 0.588919 0
M  V30 24325 C 2432.61 2.12271 -2.90883 0
M  V30 24326 C 2432.46 1.40386 -4.27331 0
M  V30 24327 C 2433.78 3.12754 -3.09634 0
M  V30 24328 H 2430.9 0.413346 -0.610176 0
M  V30 24329 H 2433.54 0.424663 -1.85193 0
M  V30 24330 H 2431.69 2.73338 -2.76078 0
M  V30 24331 H 2433.37 0.82319 -4.53896 0
M  V30 24332 H 2431.61 0.705726 -4.28021 0
M  V30 24333 H 2432.28 2.12114 -5.09619 0
M  V30 24334 H 2434.76 2.61774 -3.2344 0
M  V30 24335 H 2433.63 3.7871 -3.97329 0
M  V30 24336 H 2433.89 3.81361 -2.23643 0
M  V30 24337 N 2432.95 1.43492 0.651762 0
M  V30 24338 C 2433.9 1.48763 1.7646 0
M  V30 24339 C 2434.87 0.337217 1.62641 0
M  V30 24340 O 2436.05 0.544576 1.82863 0
M  V30 24341 C 2433.19 1.41802 3.14621 0
M  V30 24342 C 2432.31 2.67059 3.39563 0
M  V30 24343 C 2431.44 2.52076 4.6758 0
M  V30 24344 C 2430.48 3.72595 4.85633 0
M  V30 24345 N 2429.62 3.56413 6.04908 0
M  V30 24346 H 2434.46 2.43852 1.71289 0
M  V30 24347 H 2432 1.21044 0.835868 0
M  V30 24348 H 2433.95 1.3576 3.94494 0
M  V30 24349 H 2432.58 0.502936 3.18858 0
M  V30 24350 H 2431.64 2.83374 2.53778 0
M  V30 24351 H 2432.95 3.56578 3.48788 0
M  V30 24352 H 2432.1 2.4375 5.55582 0
M  V30 24353 H 2430.84 1.60084 4.60678 0
M  V30 24354 H 2429.85 3.81328 3.96067 0
M  V30 24355 H 2431.07 4.65598 4.94364 0
M  V30 24356 H 2429.02 2.67156 5.99136 0
M  V30 24357 H 2428.93 4.39534 6.15098 0
M  V30 24358 H 2430.2 3.51941 6.95527 0
M  V30 24359 N 2434.43 -0.890264 1.30046 0
M  V30 24360 C 2435.71 -1.6226 1.0923 0
M  V30 24361 C 2436.09 -2.08003 -0.360268 0
M  V30 24362 O 2435.44 -1.84297 -1.35081 0
M  V30 24363 C 2435.65 -2.79619 2.0884 0
M  V30 24364 C 2436.99 -3.50078 2.40272 0
M  V30 24365 O 2438.02 -2.898 2.07109 0
M  V30 24366 O 2436.88 -4.58768 2.96975 0
M  V30 24367 H 2433.97 -0.712914 0.419145 0
M  V30 24368 H 2436.52 -0.937504 1.41453 0
M  V30 24369 H 2435.29 -2.43083 3.06637 0
M  V30 24370 H 2434.91 -3.55828 1.77403 0
M  V30 24371 N 2435.91 -1.12676 -1.1019 0
M  V30 24372 C 2437.15 -0.894879 -1.82657 0
M  V30 24373 C 2437.51 0.573074 -1.83667 0
M  V30 24374 O 2436.8 1.41832 -1.28818 0
M  V30 24375 C 2437 -1.40676 -3.2855 0
M  V30 24376 C 2436.83 -2.92295 -3.41751 0
M  V30 24377 C 2435.6 -3.60558 -3.54015 0
M  V30 24378 C 2437.79 -3.9028 -3.34942 0
M  V30 24379 N 2435.78 -5.00266 -3.55819 0
M  V30 24380 C 2437.15 -5.16133 -3.43522 0
M  V30 24381 C 2439.2 -3.82656 -3.18558 0
M  V30 24382 C 2437.9 -6.35256 -3.37405 0
M  V30 24383 C 2439.93 -5.01305 -3.13764 0
M  V30 24384 C 2439.29 -6.26017 -3.22927 0
M  V30 24385 H 2435.39 -0.380768 -0.683037 0
M  V30 24386 H 2437.98 -1.43353 -1.31749 0
M  V30 24387 H 2436.15 -0.895122 -3.77945 0
M  V30 24388 H 2437.88 -1.11668 -3.88989 0
M  V30 24389 H 2434.63 -3.11056 -3.57129 0
M  V30 24390 H 2435.06 -5.73145 -3.60325 0
M  V30 24391 H 2439.7 -2.87129 -3.10349 0
M  V30 24392 H 2437.42 -7.31047 -3.44379 0
M  V30 24393 H 2441 -4.97138 -3.02233 0
M  V30 24394 H 2439.88 -7.16287 -3.19223 0
M  V30 24395 N 2437.39 1.28028 -0.919057 0
M  V30 24396 C 2438.66 1.89777 -0.473701 0
M  V30 24397 C 2439.04 1.83261 1.0478 0
M  V30 24398 O 2438.39 1.27206 1.89818 0
M  V30 24399 C 2438.6 3.34065 -1.01004 0
M  V30 24400 C 2439.95 4.11018 -1.06532 0
M  V30 24401 O 2440.97 3.43046 -0.959056 0
M  V30 24402 O 2439.83 5.32528 -1.22786 0
M  V30 24403 H 2436.93 0.813099 -0.150994 0
M  V30 24404 H 2439.47 1.36357 -1.01019 0
M  V30 24405 H 2438.24 3.33058 -2.05398 0
M  V30 24406 H 2437.87 3.94991 -0.454695 0
M  V30 24407 N 2438.86 0.683613 1.42002 0
M  V30 24408 C 2439.81 0.0107714 2.30797 0
M  V30 24409 C 2440.78 -0.783662 1.46451 0
M  V30 24410 O 2441.97 -0.754125 1.75264 0
M  V30 24411 C 2439.11 -0.928247 3.32382 0
M  V30 24412 C 2438.22 -0.1267 4.31814 0
M  V30 24413 C 2437.35 -1.06227 5.2047 0
M  V30 24414 C 2436.39 -0.252927 6.11577 0
M  V30 24415 N 2435.53 -1.14167 6.92756 0
M  V30 24416 H 2440.37 0.773778 2.87779 0
M  V30 24417 H 2437.91 0.393307 1.41744 0
M  V30 24418 H 2439.87 -1.48659 3.89816 0
M  V30 24419 H 2438.5 -1.65778 2.76979 0
M  V30 24420 H 2437.55 0.548396 3.76426 0
M  V30 24421 H 2438.86 0.501279 4.96275 0
M  V30 24422 H 2438.01 -1.69025 5.8268 0
M  V30 24423 H 2436.75 -1.72412 4.56207 0
M  V30 24424 H 2435.76 0.388204 5.48428 0
M  V30 24425 H 2436.98 0.404958 6.77892 0
M  V30 24426 H 2434.93 -1.78976 6.31113 0
M  V30 24427 H 2434.85 -0.568979 7.53856 0
M  V30 24428 H 2436.11 -1.75684 7.59444 0
M  V30 24429 N 2440.34 -1.5169 0.427538 0
M  V30 24430 C 2441.57 -2.06119 -0.14095 0
M  V30 24431 C 2441.98 -1.2959 -1.37851 0
M  V30 24432 O 2441.32 -0.346067 -1.80411 0
M  V30 24433 C 2441.39 -3.55448 -0.538213 0
M  V30 24434 C 2441.05 -4.5316 0.591174 0
M  V30 24435 C 2442.05 -4.98969 1.46036 0
M  V30 24436 C 2439.73 -4.96377 0.769115 0
M  V30 24437 C 2441.73 -5.86656 2.49227 0
M  V30 24438 C 2439.41 -5.83856 1.80431 0
M  V30 24439 C 2440.41 -6.28892 2.66428 0
M  V30 24440 O 2440.1 -7.14636 3.68171 0
M  V30 24441 H 2439.83 -0.675817 -0.0157336 0
M  V30 24442 H 2442.39 -1.96364 0.60253 0
M  V30 24443 H 2440.62 -3.62953 -1.33425 0
M  V30 24444 H 2442.3 -3.92437 -1.03673 0
M  V30 24445 H 2443.07 -4.66283 1.33437 0
M  V30 24446 H 2438.95 -4.6087 0.109354 0
M  V30 24447 H 2442.49 -6.21729 3.16383 0
M  V30 24448 H 2438.39 -6.15955 1.93053 0
M  V30 24449 H 2439.16 -7.32792 3.64635 0
M  V30 24450 N 2441.82 -0.15856 -1.568 0
M  V30 24451 C 2443.07 0.488678 -1.96103 0
M  V30 24452 C 2443.39 1.64635 -1.04501 0
M  V30 24453 O 2442.66 1.95598 -0.108817 0
M  V30 24454 H 2441.24 0.183522 -0.724105 0
M  V30 24455 H 2443.9 -0.236762 -1.93457 0
M  V30 24456 H 2443 0.857167 -3.00098 0
M  V30 24457 N 2443.3 1.57178 0.115204 0
M  V30 24458 C 2444.23 2.03653 1.14227 0
M  V30 24459 C 2445.21 0.921681 1.42965 0
M  V30 24460 O 2446.4 1.19164 1.53341 0
M  V30 24461 C 2443.53 2.44405 2.46746 0
M  V30 24462 C 2442.48 3.59369 2.32461 0
M  V30 24463 C 2441.81 3.86033 3.69977 0
M  V30 24464 C 2443.11 4.90962 1.78194 0
M  V30 24465 H 2444.8 2.89706 0.755698 0
M  V30 24466 H 2442.35 1.39374 0.362068 0
M  V30 24467 H 2444.3 2.75523 3.1885 0
M  V30 24468 H 2443.02 1.55327 2.873 0
M  V30 24469 H 2441.68 3.28466 1.62805 0
M  V30 24470 H 2441.33 2.94154 4.08023 0
M  V30 24471 H 2441.03 4.63419 3.61271 0
M  V30 24472 H 2442.55 4.19606 4.4358 0
M  V30 24473 H 2443.97 5.20592 2.40119 0
M  V30 24474 H 2442.36 5.72374 1.803 0
M  V30 24475 H 2443.43 4.79223 0.739792 0
M  V30 24476 N 2444.78 -0.38549 1.52813 0
M  V30 24477 C 2445.71 -1.49286 1.72595 0
M  V30 24478 C 2446.69 -1.52137 0.573846 0
M  V30 24479 O 2447.87 -1.7049 0.80407 0
M  V30 24480 C 2445 -2.87738 1.78674 0
M  V30 24481 C 2444.05 -3.02698 3.0046 0
M  V30 24482 S 2444.88 -2.7353 4.60371 0
M  V30 24483 C 2446.03 -4.14169 4.6927 0
M  V30 24484 H 2446.27 -1.32281 2.6625 0
M  V30 24485 H 2443.8 -0.578586 1.43149 0
M  V30 24486 H 2445.76 -3.67521 1.82862 0
M  V30 24487 H 2444.42 -3.02067 0.861054 0
M  V30 24488 H 2443.61 -4.04049 3.01265 0
M  V30 24489 H 2443.21 -2.30812 2.94282 0
M  V30 24490 H 2445.51 -5.08145 4.48101 0
M  V30 24491 H 2446.45 -4.18378 5.71284 0
M  V30 24492 H 2446.86 -4.00242 3.98079 0
M  V30 24493 N 2446.26 -1.43835 -0.644143 0
M  V30 24494 C 2447.67 -1.40847 -1.22552 0
M  V30 24495 C 2448.02 -0.11715 -1.9585 0
M  V30 24496 O 2447.14 0.78305 -2.01736 0
M  V30 24497 C 2447.74 -2.55147 -2.22903 0
M  V30 24498 C 2446.3 -2.55395 -2.76497 0
M  V30 24499 C 2445.44 -2.32398 -1.51282 0
M  V30 24500 H 2448.39 -1.52605 -0.435604 0
M  V30 24501 H 2448.42 -2.27155 -3.05255 0
M  V30 24502 H 2447.93 -3.49116 -1.69527 0
M  V30 24503 H 2446.03 -1.6533 -3.33911 0
M  V30 24504 H 2446.14 -3.5346 -3.23423 0
M  V30 24505 H 2444.51 -1.8124 -1.78953 0
M  V30 24506 H 2445.29 -3.28465 -0.998279 0
M  V30 24507 N 2447.73 0.883355 -1.30517 0
M  V30 24508 C 2448.67 1.99494 -1.12849 0
M  V30 24509 C 2449.68 1.62644 -0.0712857 0
M  V30 24510 O 2450.87 1.75654 -0.317462 0
M  V30 24511 C 2447.97 3.31609 -0.699181 0
M  V30 24512 C 2447.14 3.96886 -1.83849 0
M  V30 24513 C 2446.2 5.07304 -1.39746 0
M  V30 24514 O 2445.23 5.28849 -2.10494 0
M  V30 24515 N 2446.43 5.79837 -0.277381 0
M  V30 24516 H 2449.19 2.15199 -2.08589 0
M  V30 24517 H 2446.75 1.05654 -1.22674 0
M  V30 24518 H 2448.75 4.02844 -0.387115 0
M  V30 24519 H 2447.32 3.12158 0.166221 0
M  V30 24520 H 2446.54 3.18803 -2.31859 0
M  V30 24521 H 2447.82 4.37237 -2.60195 0
M  V30 24522 H 2447.22 5.64838 0.3121 0
M  V30 24523 H 2445.78 6.51795 -0.0247768 0
M  V30 24524 N 2449.21 1.13259 1.09591 0
M  V30 24525 C 2450.46 0.894612 1.82001 0
M  V30 24526 C 2450.79 -0.577874 1.85403 0
M  V30 24527 O 2450.07 -1.42756 1.32102 0
M  V30 24528 C 2450.35 1.48102 3.28234 0
M  V30 24529 C 2450.2 3.02249 3.33115 0
M  V30 24530 C 2451.52 1.14781 4.24869 0
M  V30 24531 H 2448.64 0.326435 0.660764 0
M  V30 24532 H 2451.28 1.4006 1.28386 0
M  V30 24533 H 2449.43 1.05069 3.74022 0
M  V30 24534 H 2451.1 3.54026 2.95742 0
M  V30 24535 H 2449.35 3.37328 2.7275 0
M  V30 24536 H 2450.02 3.38378 4.36124 0
M  V30 24537 H 2452.49 1.51964 3.87358 0
M  V30 24538 H 2451.37 1.58462 5.25529 0
M  V30 24539 H 2451.63 0.0612626 4.42058 0
M  V30 24540 N 2450.69 -1.27539 0.925834 0
M  V30 24541 C 2451.62 -2.29302 0.440788 0
M  V30 24542 C 2452.6 -1.62649 -0.497942 0
M  V30 24543 O 2453.79 -1.89971 -0.403093 0
M  V30 24544 C 2450.92 -3.45923 -0.308987 0
M  V30 24545 C 2449.87 -4.24558 0.541735 0
M  V30 24546 C 2449.2 -5.33636 -0.337097 0
M  V30 24547 C 2450.5 -4.9011 1.80524 0
M  V30 24548 H 2452.19 -2.70124 1.29126 0
M  V30 24549 H 2449.74 -1.29857 0.622346 0
M  V30 24550 H 2451.69 -4.16211 -0.659242 0
M  V30 24551 H 2450.41 -3.04013 -1.19347 0
M  V30 24552 H 2449.07 -3.56013 0.874672 0
M  V30 24553 H 2448.72 -4.87969 -1.22048 0
M  V30 24554 H 2448.42 -5.87155 0.228601 0
M  V30 24555 H 2449.94 -6.06768 -0.682965 0
M  V30 24556 H 2451.36 -5.52696 1.52317 0
M  V30 24557 H 2449.75 -5.53679 2.3143 0
M  V30 24558 H 2450.82 -4.13917 2.52588 0
M  V30 24559 N 2452.17 -0.691135 -1.41637 0
M  V30 24560 C 2453.58 -0.362252 -1.55435 0
M  V30 24561 C 2453.78 1.13114 -1.66756 0
M  V30 24562 O 2452.84 1.91689 -1.64352 0
M  V30 24563 C 2454.15 -1.10689 -2.79586 0
M  V30 24564 C 2455.7 -1.0908 -2.93378 0
M  V30 24565 C 2456.18 -1.8171 -4.20411 0
M  V30 24566 N 2457.67 -1.78658 -4.27359 0
M  V30 24567 C 2458.4 -2.31698 -5.24503 0
M  V30 24568 N 2457.9 -2.9319 -6.27703 0
M  V30 24569 N 2459.69 -2.21979 -5.16412 0
M  V30 24570 H 2451.84 -1.65978 -1.32533 0
M  V30 24571 H 2454.1 -0.700179 -0.639103 0
M  V30 24572 H 2453.81 -2.1618 -2.77415 0
M  V30 24573 H 2453.68 -0.68261 -3.70972 0
M  V30 24574 H 2456.07 -0.0441757 -2.95067 0
M  V30 24575 H 2456.15 -1.55411 -2.03178 0
M  V30 24576 H 2455.8 -2.8635 -4.19483 0
M  V30 24577 H 2455.73 -1.32817 -5.09575 0
M  V30 24578 H 2458.22 -1.33821 -3.53412 0
M  V30 24579 H 2458.53 -3.31241 -6.98211 0
M  V30 24580 H 2456.88 -2.97266 -6.28218 0
M  V30 24581 H 2460.07 -1.73615 -4.34713 0
M  V30 24582 H 2460.24 -2.63619 -5.91953 0
M  V30 24583 N 2453.65 1.51461 -0.435577 0
M  V30 24584 C 2454.88 2.0619 0.130017 0
M  V30 24585 C 2455.28 1.3032 1.37162 0
M  V30 24586 O 2454.63 0.35563 1.80225 0
M  V30 24587 C 2454.69 3.55729 0.519356 0
M  V30 24588 C 2454.35 4.5284 -0.615198 0
M  V30 24589 C 2455.35 4.98187 -1.4868 0
M  V30 24590 C 2453.03 4.95962 -0.795428 0
M  V30 24591 C 2455.03 5.85326 -2.52334 0
M  V30 24592 C 2452.72 5.82891 -1.83525 0
M  V30 24593 C 2453.71 6.2747 -2.69759 0
M  V30 24594 O 2453.4 7.12674 -3.71956 0
M  V30 24595 H 2453.13 0.675891 0.0121494 0
M  V30 24596 H 2455.69 1.96042 -0.612935 0
M  V30 24597 H 2453.92 3.63655 1.31499 0
M  V30 24598 H 2455.61 3.92981 1.0159 0
M  V30 24599 H 2456.37 4.65568 -1.35908 0
M  V30 24600 H 2452.25 4.60806 -0.133794 0
M  V30 24601 H 2455.8 6.20043 -3.19676 0
M  V30 24602 H 2451.69 6.14923 -1.96317 0
M  V30 24603 H 2452.46 7.30848 -3.68516 0
M  V30 24604 N 2455.12 0.166873 1.56714 0
M  V30 24605 C 2456.07 -0.777344 2.14339 0
M  V30 24606 C 2457.06 -1.19589 1.07644 0
M  V30 24607 O 2458.25 -1.15899 1.33777 0
M  V30 24608 C 2455.38 -2.00841 2.7842 0
M  V30 24609 C 2454.47 -1.61205 3.92267 0
M  V30 24610 N 2454.86 -0.925017 4.9727 0
M  V30 24611 C 2453.15 -1.90339 4.03345 0
M  V30 24612 C 2453.86 -0.730526 5.77095 0
M  V30 24613 N 2452.83 -1.27058 5.28542 0
M  V30 24614 H 2456.63 -0.243414 2.9289 0
M  V30 24615 H 2454.15 -0.0339668 1.62364 0
M  V30 24616 H 2456.14 -2.69503 3.18078 0
M  V30 24617 H 2454.8 -2.54733 2.01349 0
M  V30 24618 H 2455.82 -0.583556 5.14602 0
M  V30 24619 H 2452.49 -2.4594 3.37372 0
M  V30 24620 H 2453.88 -0.18755 6.71638 0
M  V30 24621 N 2456.6 -1.57237 -0.106866 0
M  V30 24622 C 2457.85 -1.8576 -0.813697 0
M  V30 24623 C 2458.18 -0.754346 -1.7895 0
M  V30 24624 O 2457.46 0.238757 -1.93029 0
M  V30 24625 C 2457.74 -3.24897 -1.55288 0
M  V30 24626 C 2457.59 -4.45836 -0.595851 0
M  V30 24627 C 2458.91 -3.61768 -2.50624 0
M  V30 24628 H 2456.03 -0.675665 -0.294357 0
M  V30 24629 H 2458.67 -1.89841 -0.0776138 0
M  V30 24630 H 2456.82 -3.21548 -2.18035 0
M  V30 24631 H 2458.49 -4.61294 0.0237073 0
M  V30 24632 H 2456.74 -4.33703 0.0916953 0
M  V30 24633 H 2457.41 -5.39889 -1.14995 0
M  V30 24634 H 2459.88 -3.65985 -1.97976 0
M  V30 24635 H 2458.76 -4.60076 -2.99368 0
M  V30 24636 H 2459.02 -2.89827 -3.33845 0
M  V30 24637 N 2458.08 0.377381 -1.53015 0
M  V30 24638 C 2459.33 1.12291 -1.68874 0
M  V30 24639 C 2459.66 1.89305 -0.433257 0
M  V30 24640 O 2458.93 1.85984 0.569225 0
M  V30 24641 C 2459.22 2.09173 -2.93119 0
M  V30 24642 C 2459.07 1.35846 -4.28796 0
M  V30 24643 C 2460.39 3.09452 -3.12934 0
M  V30 24644 H 2457.51 0.406851 -0.614525 0
M  V30 24645 H 2460.15 0.404997 -1.85633 0
M  V30 24646 H 2458.3 2.70394 -2.78961 0
M  V30 24647 H 2459.97 0.775002 -4.54743 0
M  V30 24648 H 2458.22 0.660289 -4.28745 0
M  V30 24649 H 2458.89 2.06697 -5.1184 0
M  V30 24650 H 2461.36 2.58328 -3.26199 0
M  V30 24651 H 2460.24 3.74474 -4.01323 0
M  V30 24652 H 2460.5 3.78967 -2.27676 0
M  V30 24653 N 2459.56 1.44175 0.636506 0
M  V30 24654 C 2460.52 1.50276 1.7306 0
M  V30 24655 C 2461.52 0.385424 1.56113 0
M  V30 24656 O 2462.71 0.647839 1.61706 0
M  V30 24657 C 2459.84 1.3715 3.12094 0
M  V30 24658 H 2461.04 2.4773 1.69026 0
M  V30 24659 H 2458.59 1.31187 0.849683 0
M  V30 24660 H 2459.32 0.407693 3.21727 0
M  V30 24661 H 2459.11 2.18165 3.25801 0
M  V30 24662 H 2460.6 1.44389 3.91844 0
M  V30 24663 N 2461.04 -0.876421 1.30983 0
M  V30 24664 C 2462.28 -1.64301 1.21592 0
M  V30 24665 C 2462.64 -1.9069 -0.223928 0
M  V30 24666 O 2463.84 -2.65154 -0.441233 0
M  V30 24667 C 2462.11 -2.94144 2.03012 0
M  V30 24668 S 2463.67 -3.85061 2.10412 0
M  V30 24669 H 2460.49 -0.563812 0.433171 0
M  V30 24670 H 2463.09 -1.03961 1.65566 0
M  V30 24671 H 2461.8 -2.7267 3.06723 0
M  V30 24672 H 2461.33 -3.59513 1.59732 0
M  V30 24673 H 2463.34 -4.80515 1.23773 0
M  V30 24674 N 2462.51 -1.13839 -1.08989 0
M  V30 24675 C 2463.46 -0.788573 -2.13929 0
M  V30 24676 C 2464.45 0.219488 -1.59396 0
M  V30 24677 O 2465.64 0.0227246 -1.76985 0
M  V30 24678 C 2462.77 -0.261208 -3.42305 0
M  V30 24679 C 2461.86 -1.29844 -4.03734 0
M  V30 24680 N 2462.25 -2.50075 -4.39655 0
M  V30 24681 C 2460.54 -1.14727 -4.30991 0
M  V30 24682 C 2461.25 -3.16427 -4.88107 0
M  V30 24683 N 2460.22 -2.43841 -4.85842 0
M  V30 24684 H 2464.02 -1.70326 -2.39513 0
M  V30 24685 H 2461.54 -1.02136 -1.26261 0
M  V30 24686 H 2463.53 0.00766721 -4.16899 0
M  V30 24687 H 2462.19 0.647749 -3.18173 0
M  V30 24688 H 2463.21 -2.87347 -4.30873 0
M  V30 24689 H 2459.88 -0.296846 -4.16443 0
M  V30 24690 H 2461.27 -4.18903 -5.25328 0
M  V30 24691 N 2463.99 1.27046 -0.932584 0
M  V30 24692 C 2464.92 2.25809 -0.392774 0
M  V30 24693 C 2465.94 1.55587 0.479213 0
M  V30 24694 O 2467.13 1.76111 0.291047 0
M  V30 24695 C 2464.23 3.35826 0.455397 0
M  V30 24696 C 2463.4 4.35582 -0.398431 0
M  V30 24697 C 2462.46 5.24768 0.387893 0
M  V30 24698 O 2461.48 5.68827 -0.206103 0
M  V30 24699 N 2462.69 5.5546 1.68654 0
M  V30 24700 H 2465.45 2.72764 -1.24178 0
M  V30 24701 H 2463.01 1.40723 -0.800536 0
M  V30 24702 H 2465 3.92439 0.988623 0
M  V30 24703 H 2463.57 2.88434 1.20517 0
M  V30 24704 H 2462.79 3.78163 -1.11293 0
M  V30 24705 H 2464.08 4.99234 -0.981977 0
M  V30 24706 H 2463.48 5.21531 2.19138 0
M  V30 24707 H 2462.04 6.14752 2.16619 0
M  V30 24708 N 2465.47 0.698636 1.41269 0
M  V30 24709 C 2466.4 0.04967 2.33447 0
M  V30 24710 C 2467.38 -0.763871 1.51984 0
M  V30 24711 O 2468.57 -0.716225 1.8051 0
M  V30 24712 C 2465.7 -0.885208 3.35829 0
M  V30 24713 C 2464.65 -0.178537 4.27627 0
M  V30 24714 C 2463.98 -1.22798 5.20408 0
M  V30 24715 C 2465.28 0.957023 5.13457 0
M  V30 24716 H 2466.97 0.819561 2.87965 0
M  V30 24717 H 2464.52 0.395562 1.3846 0
M  V30 24718 H 2466.47 -1.34847 3.99242 0
M  V30 24719 H 2465.19 -1.6868 2.79669 0
M  V30 24720 H 2463.85 0.264724 3.65643 0
M  V30 24721 H 2463.5 -2.02218 4.60561 0
M  V30 24722 H 2463.2 -0.760136 5.82663 0
M  V30 24723 H 2464.72 -1.69169 5.86698 0
M  V30 24724 H 2466.14 0.573905 5.7042 0
M  V30 24725 H 2464.54 1.35216 5.84668 0
M  V30 24726 H 2465.61 1.79532 4.5044 0
M  V30 24727 N 2466.95 -1.51228 0.443603 0
M  V30 24728 C 2467.88 -2.30784 -0.355102 0
M  V30 24729 C 2468.86 -1.3647 -1.01538 0
M  V30 24730 O 2470.04 -1.65391 -1.01782 0
M  V30 24731 C 2467.17 -3.15442 -1.45306 0
M  V30 24732 C 2466.13 -4.18085 -0.915929 0
M  V30 24733 C 2465.45 -4.91303 -2.11011 0
M  V30 24734 C 2466.75 -5.22272 0.053952 0
M  V30 24735 H 2468.45 -2.97803 0.308819 0
M  V30 24736 H 2465.99 -1.43217 0.149963 0
M  V30 24737 H 2467.95 -3.6988 -2.01908 0
M  V30 24738 H 2466.67 -2.46255 -2.14536 0
M  V30 24739 H 2465.33 -3.64707 -0.372081 0
M  V30 24740 H 2464.98 -4.18614 -2.78875 0
M  V30 24741 H 2464.68 -5.60715 -1.75707 0
M  V30 24742 H 2466.2 -5.48567 -2.68155 0
M  V30 24743 H 2467.62 -5.71745 -0.421969 0
M  V30 24744 H 2466.01 -5.99247 0.319881 0
M  V30 24745 H 2467.08 -4.74714 0.988663 0
M  V30 24746 N 2468.43 -0.175182 -1.56623 0
M  V30 24747 C 2469.36 0.749156 -2.21156 0
M  V30 24748 C 2470.34 1.23624 -1.16838 0
M  V30 24749 O 2471.52 1.2887 -1.4528 0
M  V30 24750 C 2468.65 1.97706 -2.85534 0
M  V30 24751 C 2467.61 1.62568 -3.95924 0
M  V30 24752 C 2466.93 2.92856 -4.4737 0
M  V30 24753 C 2468.23 0.850747 -5.15325 0
M  V30 24754 H 2469.93 0.211242 -2.98654 0
M  V30 24755 H 2467.47 0.100163 -1.43651 0
M  V30 24756 H 2469.43 2.62875 -3.29355 0
M  V30 24757 H 2468.15 2.53918 -2.0541 0
M  V30 24758 H 2466.81 0.997657 -3.52764 0
M  V30 24759 H 2466.46 3.47115 -3.64033 0
M  V30 24760 H 2466.16 2.70097 -5.21844 0
M  V30 24761 H 2467.68 3.59048 -4.9388 0
M  V30 24762 H 2469.09 1.40511 -5.55814 0
M  V30 24763 H 2467.49 0.72205 -5.9574 0
M  V30 24764 H 2468.56 -0.152167 -4.84661 0
M  V30 24765 N 2469.91 1.57292 0.0985263 0
M  V30 24766 C 2470.82 2.05139 1.13821 0
M  V30 24767 C 2471.83 0.975629 1.44075 0
M  V30 24768 O 2473.01 1.28856 1.54784 0
M  V30 24769 C 2470.07 2.46338 2.43964 0
M  V30 24770 C 2469.13 3.68091 2.20924 0
M  V30 24771 C 2468.37 4.07316 3.44862 0
M  V30 24772 O 2468.59 3.46667 4.52966 0
M  V30 24773 O 2467.52 5.00291 3.34652 0
M  V30 24774 H 2471.35 2.9399 0.761829 0
M  V30 24775 H 2468.93 1.46132 0.310792 0
M  V30 24776 H 2470.82 2.73479 3.20605 0
M  V30 24777 H 2469.49 1.60626 2.81035 0
M  V30 24778 H 2468.4 3.46071 1.42075 0
M  V30 24779 H 2469.73 4.54572 1.88747 0
M  V30 24780 N 2471.38 -0.369261 1.53213 0
M  V30 24781 C 2472.33 -1.4725 1.80056 0
M  V30 24782 C 2473.33 -1.55609 0.669484 0
M  V30 24783 O 2474.53 -1.5854 0.852355 0
M  V30 24784 H 2470.91 -0.490465 0.570042 0
M  V30 24785 H 2472.88 -1.21812 2.72405 0
M  V30 24786 C 2471.63 -2.84133 2.00408 0
M  V30 24787 H 2470.95 -2.78459 2.86881 0
M  V30 24788 H 2472.39 -3.60515 2.2317 0
M  V30 24789 C 2470.85 -3.27695 0.782139 0
M  V30 24790 O 2471.38 -4.01688 -0.0309499 0
M  V30 24791 N 2469.58 -2.84198 0.606623 0
M  V30 24792 H 2469.13 -2.2415 1.26943 0
M  V30 24793 H 2469.09 -3.13701 -0.209564 0
M  V30 24794 N 2472.86 -1.4451 -0.628851 0
M  V30 24795 C 2473.79 -1.54379 -1.75184 0
M  V30 24796 C 2474.77 -0.396647 -1.65411 0
M  V30 24797 O 2475.96 -0.617063 -1.84136 0
M  V30 24798 C 2473.09 -1.48981 -3.13723 0
M  V30 24799 C 2472.04 -2.62195 -3.38287 0
M  V30 24800 C 2471.37 -2.41849 -4.76879 0
M  V30 24801 C 2472.67 -4.04332 -3.30625 0
M  V30 24802 H 2474.36 -2.48376 -1.67182 0
M  V30 24803 H 2471.91 -1.1954 -0.802888 0
M  V30 24804 H 2473.86 -1.54485 -3.92062 0
M  V30 24805 H 2472.58 -0.515017 -3.22514 0
M  V30 24806 H 2471.24 -2.56084 -2.62329 0
M  V30 24807 H 2470.89 -1.42557 -4.82376 0
M  V30 24808 H 2470.59 -3.17756 -4.94272 0
M  V30 24809 H 2472.12 -2.49174 -5.57445 0
M  V30 24810 H 2473.53 -4.118 -3.98866 0
M  V30 24811 H 2471.93 -4.8046 -3.59553 0
M  V30 24812 H 2473 -4.27742 -2.28397 0
M  V30 24813 N 2474.34 0.869463 -1.31446 0
M  V30 24814 C 2475.29 1.97673 -1.19139 0
M  V30 24815 C 2476.26 1.65921 -0.0770558 0
M  V30 24816 O 2477.44 1.89155 -0.250005 0
M  V30 24817 C 2474.58 3.33017 -0.905207 0
M  V30 24818 C 2473.69 3.77361 -2.10292 0
M  V30 24819 C 2472.83 5.01424 -1.75348 0
M  V30 24820 C 2471.87 5.38219 -2.91525 0
M  V30 24821 N 2471.01 6.53462 -2.56773 0
M  V30 24822 H 2475.85 2.07531 -2.13857 0
M  V30 24823 H 2473.38 1.01595 -1.06381 0
M  V30 24824 H 2475.34 4.10943 -0.719837 0
M  V30 24825 H 2473.97 3.228 0.0051395 0
M  V30 24826 H 2473.02 2.95212 -2.39904 0
M  V30 24827 H 2474.33 4.00559 -2.97244 0
M  V30 24828 H 2473.49 5.87019 -1.53277 0
M  V30 24829 H 2472.23 4.80131 -0.855886 0
M  V30 24830 H 2471.23 4.51143 -3.14245 0
M  V30 24831 H 2472.46 5.61477 -3.81995 0
M  V30 24832 H 2470.4 6.33714 -1.69537 0
M  V30 24833 H 2470.32 6.76606 -3.37255 0
M  V30 24834 H 2471.59 7.42247 -2.38096 0
M  V30 24835 N 2475.82 1.14415 1.08383 0
M  V30 24836 C 2476.75 0.854082 2.17319 0
M  V30 24837 C 2477.73 -0.19102 1.69024 0
M  V30 24838 O 2478.91 -0.0476438 1.94142 0
M  V30 24839 C 2476.04 0.331044 3.45719 0
M  V30 24840 C 2475 1.31162 4.07407 0
M  V30 24841 C 2474.32 0.647873 5.3076 0
M  V30 24842 C 2475.62 2.67396 4.48661 0
M  V30 24843 H 2477.32 1.76502 2.41842 0
M  V30 24844 H 2474.86 0.850071 1.16232 0
M  V30 24845 H 2476.82 0.115719 4.21241 0
M  V30 24846 H 2475.54 -0.615324 3.20751 0
M  V30 24847 H 2474.2 1.51312 3.33917 0
M  V30 24848 H 2473.85 -0.304309 5.02079 0
M  V30 24849 H 2473.55 1.30217 5.7299 0
M  V30 24850 H 2475.07 0.442079 6.08998 0
M  V30 24851 H 2476.49 2.51153 5.15359 0
M  V30 24852 H 2474.88 3.29102 5.01809 0
M  V30 24853 H 2475.95 3.24254 3.60537 0
M  V30 24854 N 2477.3 -1.26549 0.939309 0
M  V30 24855 C 2478.54 -1.93132 0.581635 0
M  V30 24856 C 2478.86 -1.74525 -0.883193 0
M  V30 24857 O 2480.06 -2.35548 -1.35016 0
M  V30 24858 C 2478.52 -3.46031 0.989486 0
M  V30 24859 C 2478.13 -3.73374 2.4758 0
M  V30 24860 C 2479.87 -4.18628 0.703617 0
M  V30 24861 C 2477.78 -5.19704 2.82245 0
M  V30 24862 H 2476.71 -0.723048 0.213816 0
M  V30 24863 H 2479.36 -1.43658 1.14169 0
M  V30 24864 H 2477.74 -3.94379 0.357972 0
M  V30 24865 H 2478.92 -3.35739 3.1562 0
M  V30 24866 H 2477.23 -3.14005 2.73477 0
M  V30 24867 H 2479.83 -5.26391 0.938961 0
M  V30 24868 H 2480.17 -4.14744 -0.359566 0
M  V30 24869 H 2480.7 -3.76139 1.29476 0
M  V30 24870 H 2477.44 -5.28687 3.87518 0
M  V30 24871 H 2476.96 -5.58443 2.18864 0
M  V30 24872 H 2478.64 -5.8769 2.70609 0
M  V30 24873 N 2478.77 -0.706118 -1.40896 0
M  V30 24874 C 2480 -0.249471 -2.05894 0
M  V30 24875 C 2480.42 1.09663 -1.52825 0
M  V30 24876 O 2479.78 1.68875 -0.659618 0
M  V30 24877 C 2479.83 -0.229104 -3.59871 0
M  V30 24878 O 2478.93 0.792713 -4.0471 0
M  V30 24879 H 2478.27 -0.119252 -0.653204 0
M  V30 24880 H 2480.8 -0.963942 -1.8047 0
M  V30 24881 H 2480.81 -0.0635509 -4.07951 0
M  V30 24882 H 2479.49 -1.21148 -3.97864 0
M  V30 24883 H 2478.07 0.595655 -3.68112 0
M  V30 24884 N 2480.25 1.50991 -0.451617 0
M  V30 24885 C 2481.2 2.29689 0.366823 0
M  V30 24886 C 2482.19 1.36141 1.00807 0
M  V30 24887 O 2483.4 1.5342 0.9414 0
M  V30 24888 H 2479.77 0.739393 0.13712 0
M  V30 24889 H 2481.75 2.96705 -0.317591 0
M  V30 24890 C 2480.49 3.16139 1.44746 0
M  V30 24891 H 2479.82 3.88019 0.963405 0
M  V30 24892 H 2481.26 3.74235 1.99308 0
M  V30 24893 C 2479.72 2.32446 2.43865 0
M  V30 24894 O 2480.25 1.99398 3.48717 0
M  V30 24895 N 2478.45 1.95396 2.15102 0
M  V30 24896 H 2478 2.22471 1.29862 0
M  V30 24897 H 2477.96 1.39698 2.81659 0
M  V30 24898 N 2481.73 0.183486 1.56528 0
M  V30 24899 C 2482.69 -0.728185 2.17325 0
M  V30 24900 C 2483.69 -1.14937 1.12455 0
M  V30 24901 O 2484.88 -1.06434 1.37903 0
M  V30 24902 C 2482.01 -1.99269 2.76595 0
M  V30 24903 H 2483.21 -0.19872 2.99241 0
M  V30 24904 H 2480.76 -0.0661116 1.5616 0
M  V30 24905 H 2481.5 -2.56495 1.98446 0
M  V30 24906 H 2481.28 -1.69953 3.53353 0
M  V30 24907 H 2482.77 -2.64305 3.23315 0
M  V30 24908 N 2483.21 -1.57342 -0.0901833 0
M  V30 24909 C 2484.44 -1.90547 -0.806191 0
M  V30 24910 C 2484.85 -0.777674 -1.7204 0
M  V30 24911 O 2484.21 0.250071 -1.80779 0
M  V30 24912 C 2484.26 -3.23399 -1.6154 0
M  V30 24913 O 2483.98 -4.3184 -0.737967 0
M  V30 24914 C 2485.48 -3.70499 -2.43404 0
M  V30 24915 H 2482.7 -0.630261 -0.230245 0
M  V30 24916 H 2485.24 -2.04394 -0.0659484 0
M  V30 24917 H 2483.4 -3.11135 -2.30811 0
M  V30 24918 H 2483.81 -5.08162 -1.29893 0
M  V30 24919 H 2485.29 -4.66138 -2.95668 0
M  V30 24920 H 2485.76 -2.98585 -3.22093 0
M  V30 24921 H 2486.37 -3.85646 -1.79324 0
M  V30 24922 N 2484.69 0.36113 -1.53407 0
M  V30 24923 C 2485.91 1.12826 -1.74026 0
M  V30 24924 C 2486.34 1.82131 -0.470101 0
M  V30 24925 O 2485.69 1.71901 0.57616 0
M  V30 24926 C 2485.74 2.13085 -2.90907 0
M  V30 24927 O 2484.85 3.20256 -2.59826 0
M  V30 24928 H 2484.19 0.327157 -0.57781 0
M  V30 24929 H 2486.72 0.416895 -2.00308 0
M  V30 24930 H 2486.73 2.5661 -3.17199 0
M  V30 24931 H 2485.4 1.62035 -3.83037 0
M  V30 24932 H 2483.98 2.81672 -2.44367 0
M  V30 24933 N 2486.16 1.44842 0.621179 0
M  V30 24934 C 2487.09 1.55306 1.74363 0
M  V30 24935 C 2488.08 0.405414 1.65198 0
M  V30 24936 O 2489.26 0.62682 1.83806 0
M  V30 24937 C 2486.39 1.50643 3.12928 0
M  V30 24938 C 2485.34 2.63985 3.36892 0
M  V30 24939 C 2484.67 2.44375 4.75589 0
M  V30 24940 C 2485.97 4.0608 3.28476 0
M  V30 24941 H 2487.66 2.49259 1.65863 0
M  V30 24942 H 2485.21 1.19964 0.796537 0
M  V30 24943 H 2487.16 1.56562 3.91237 0
M  V30 24944 H 2485.89 0.532114 3.22236 0
M  V30 24945 H 2484.55 2.57471 2.60967 0
M  V30 24946 H 2484.19 1.45113 4.81613 0
M  V30 24947 H 2483.89 3.20373 4.9258 0
M  V30 24948 H 2485.42 2.52127 5.56115 0
M  V30 24949 H 2486.83 4.13909 3.96676 0
M  V30 24950 H 2485.23 4.8236 3.57 0
M  V30 24951 H 2486.3 4.28947 2.26125 0
M  V30 24952 N 2487.64 -0.862479 1.31905 0
M  V30 24953 C 2488.57 -1.97673 1.16009 0
M  V30 24954 C 2489.59 -1.6251 0.0971519 0
M  V30 24955 O 2490.78 -1.75127 0.345367 0
M  V30 24956 C 2487.88 -3.30455 0.751849 0
M  V30 24957 C 2487.05 -3.93911 1.9014 0
M  V30 24958 C 2486.11 -5.05017 1.47799 0
M  V30 24959 O 2485.13 -5.25433 2.18881 0
M  V30 24960 N 2486.34 -5.79322 0.369593 0
M  V30 24961 H 2489.1 -2.11854 2.11986 0
M  V30 24962 H 2486.66 -1.03689 1.24339 0
M  V30 24963 H 2488.65 -4.02177 0.451155 0
M  V30 24964 H 2487.22 -3.12383 -0.116538 0
M  V30 24965 H 2486.44 -3.15074 2.36901 0
M  V30 24966 H 2487.73 -4.33042 2.67118 0
M  V30 24967 H 2487.13 -5.65263 -0.2222 0
M  V30 24968 H 2485.69 -6.51673 0.128469 0
M  V30 24969 N 2489.12 -1.14988 -1.07775 0
M  V30 24970 C 2490.37 -0.920266 -1.79932 0
M  V30 24971 C 2490.69 0.554303 -1.86956 0
M  V30 24972 O 2489.96 1.40289 -1.36733 0
M  V30 24973 H 2488.54 -0.337485 -0.666418 0
M  V30 24974 H 2491.2 -1.4497 -1.30267 0
M  V30 24975 H 2490.3 -1.32588 -2.82537 0
M  V30 24976 N 2490.6 1.26049 -0.946007 0
M  V30 24977 C 2491.51 2.29932 -0.465673 0
M  V30 24978 C 2492.52 1.67734 0.462731 0
M  V30 24979 O 2493.7 1.98491 0.341083 0
M  V30 24980 C 2490.77 3.45747 0.256933 0
M  V30 24981 C 2489.83 4.23411 -0.708623 0
M  V30 24982 C 2489.06 5.33696 -0.0204074 0
M  V30 24983 O 2489.28 5.57729 1.19562 0
M  V30 24984 O 2488.22 5.97797 -0.701564 0
M  V30 24985 H 2492.04 2.73092 -1.32871 0
M  V30 24986 H 2489.63 1.31338 -0.712094 0
M  V30 24987 H 2491.51 4.16139 0.663779 0
M  V30 24988 H 2490.18 3.04607 1.09528 0
M  V30 24989 H 2489.09 3.55481 -1.16551 0
M  V30 24990 H 2490.42 4.68313 -1.51473 0
M  V30 24991 N 2492.08 0.71358 1.4052 0
M  V30 24992 C 2493.49 0.324839 1.83852 0
M  V30 24993 C 2493.84 -1.14018 1.59669 0
M  V30 24994 O 2492.96 -1.87723 1.07652 0
M  V30 24995 C 2493.56 0.582804 3.3375 0
M  V30 24996 C 2492.12 0.247793 3.75583 0
M  V30 24997 C 2491.26 0.856168 2.63752 0
M  V30 24998 H 2494.22 0.912883 1.29816 0
M  V30 24999 H 2494.24 -0.152615 3.80194 0
M  V30 25000 H 2493.75 1.64914 3.51319 0
M  V30 25001 H 2491.85 -0.81356 3.6361 0
M  V30 25002 H 2491.96 0.71539 4.73729 0
M  V30 25003 H 2490.33 0.284364 2.53108 0
M  V30 25004 H 2491.11 1.92673 2.84134 0
M  V30 25005 N 2493.55 -1.50749 0.459618 0
M  V30 25006 C 2494.8 -2.01447 -0.100936 0
M  V30 25007 C 2495.12 -1.34715 -1.41814 0
M  V30 25008 O 2496.32 -1.76506 -2.06296 0
M  V30 25009 C 2494.78 -3.59162 -0.230407 0
M  V30 25010 C 2494.39 -4.34845 1.07768 0
M  V30 25011 C 2496.13 -4.17938 -0.743535 0
M  V30 25012 C 2494.04 -5.84316 0.912632 0
M  V30 25013 H 2492.97 -0.752857 -0.041497 0
M  V30 25014 H 2495.62 -1.73662 0.592772 0
M  V30 25015 H 2494 -3.83486 -0.987635 0
M  V30 25016 H 2495.17 -4.22253 1.84497 0
M  V30 25017 H 2493.49 -3.87625 1.52104 0
M  V30 25018 H 2496.09 -5.27344 -0.883866 0
M  V30 25019 H 2496.43 -3.78565 -1.73189 0
M  V30 25020 H 2496.96 -3.97776 -0.04401 0
M  V30 25021 H 2493.7 -6.28141 1.87402 0
M  V30 25022 H 2493.22 -5.99513 0.185527 0
M  V30 25023 H 2494.9 -6.44443 0.57466 0
M  V30 25024 N 2495.03 -0.191784 -1.56429 0
M  V30 25025 C 2496.28 0.448519 -1.97778 0
M  V30 25026 C 2496.61 1.61499 -1.0785 0
M  V30 25027 O 2495.89 1.94066 -0.129808 0
M  V30 25028 C 2496.17 0.911845 -3.48364 0
M  V30 25029 C 2496.02 -0.256215 -4.4907 0
M  V30 25030 C 2497.34 1.77849 -4.02564 0
M  V30 25031 H 2494.46 0.16156 -0.719074 0
M  V30 25032 H 2497.1 -0.28204 -1.87895 0
M  V30 25033 H 2495.25 1.53436 -3.56917 0
M  V30 25034 H 2496.92 -0.893812 -4.52558 0
M  V30 25035 H 2495.17 -0.90851 -4.2418 0
M  V30 25036 H 2495.84 0.110433 -5.5189 0
M  V30 25037 H 2498.31 1.25352 -3.9677 0
M  V30 25038 H 2497.19 2.07165 -5.08305 0
M  V30 25039 H 2497.45 2.73152 -3.47621 0
M  V30 25040 N 2496.51 1.57387 0.0818378 0
M  V30 25041 C 2497.76 1.85939 0.781648 0
M  V30 25042 C 2498.07 0.782989 1.79245 0
M  V30 25043 O 2499.28 0.956032 2.54111 0
M  V30 25044 C 2497.73 3.29791 1.44103 0
M  V30 25045 C 2497.34 4.45535 0.469318 0
M  V30 25046 C 2499.09 3.67553 2.12379 0
M  V30 25047 C 2496.99 5.80425 1.13404 0
M  V30 25048 H 2495.92 0.693611 0.29567 0
M  V30 25049 H 2498.57 1.83467 0.0347729 0
M  V30 25050 H 2496.96 3.26844 2.23582 0
M  V30 25051 H 2498.13 4.59855 -0.294936 0
M  V30 25052 H 2496.45 4.16259 -0.108456 0
M  V30 25053 H 2499.04 4.65622 2.6287 0
M  V30 25054 H 2499.39 2.96845 2.91871 0
M  V30 25055 H 2499.92 3.72447 1.39744 0
M  V30 25056 H 2496.66 6.544 0.379656 0
M  V30 25057 H 2496.18 5.69924 1.8694 0
M  V30 25058 H 2497.86 6.25428 1.65675 0
M  V30 25059 N 2497.99 -0.35299 1.53596 0
M  V30 25060 C 2499.21 -1.11901 1.74622 0
M  V30 25061 C 2499.64 -1.81879 0.479753 0
M  V30 25062 O 2499 -1.72205 -0.567035 0
M  V30 25063 C 2499.04 -2.1154 2.92033 0
M  V30 25064 O 2498.15 -3.18874 2.61521 0
M  V30 25065 H 2497.49 -0.324089 0.579537 0
M  V30 25066 H 2500.02 -0.406266 2.00526 0
M  V30 25067 H 2500.03 -2.54925 3.18555 0
M  V30 25068 H 2498.7 -1.60001 3.83891 0
M  V30 25069 H 2497.28 -2.80373 2.45857 0
M  V30 25070 N 2499.47 -1.45169 -0.613489 0
M  V30 25071 C 2500.71 -1.49098 -1.37469 0
M  V30 25072 C 2501.05 -0.129935 -1.93765 0
M  V30 25073 O 2500.32 0.854827 -1.74708 0
M  V30 25074 C 2500.6 -2.56547 -2.52697 0
M  V30 25075 C 2500.46 -4.02074 -2.01636 0
M  V30 25076 C 2501.78 -2.60333 -3.54844 0
M  V30 25077 H 2498.9 -0.542839 -0.498493 0
M  V30 25078 H 2501.54 -1.76946 -0.692094 0
M  V30 25079 H 2499.69 -2.32931 -3.10927 0
M  V30 25080 H 2501.36 -4.3688 -1.481 0
M  V30 25081 H 2499.6 -4.13011 -1.32681 0
M  V30 25082 H 2500.27 -4.72933 -2.84673 0
M  V30 25083 H 2502.75 -2.81479 -3.06445 0
M  V30 25084 H 2501.63 -3.37388 -4.32967 0
M  V30 25085 H 2501.89 -1.65198 -4.10076 0
M  V30 25086 N 2500.95 0.855472 -1.32361 0
M  V30 25087 C 2502.17 1.64729 -1.26013 0
M  V30 25088 C 2502.6 1.87339 0.169035 0
M  V30 25089 O 2501.95 1.42558 1.12013 0
M  V30 25090 C 2502 2.98425 -2.02422 0
M  V30 25091 O 2501.11 3.88927 -1.37147 0
M  V30 25092 H 2500.45 0.502245 -0.434334 0
M  V30 25093 H 2502.98 1.06555 -1.74663 0
M  V30 25094 H 2502.99 3.48253 -2.12565 0
M  V30 25095 H 2501.66 2.8129 -3.06348 0
M  V30 25096 H 2500.24 3.47393 -1.35546 0
M  V30 25097 N 2502.42 1.15558 1.07164 0
M  V30 25098 C 2503.36 0.811853 2.1434 0
M  V30 25099 C 2504.37 -0.176986 1.61835 0
M  V30 25100 O 2505.56 0.0465309 1.78439 0
M  V30 25101 C 2502.66 0.18654 3.38386 0
M  V30 25102 C 2501.83 1.21328 4.20236 0
M  V30 25103 C 2500.89 0.609394 5.22659 0
M  V30 25104 O 2499.92 1.27586 5.54717 0
M  V30 25105 N 2501.12 -0.607997 5.77307 0
M  V30 25106 H 2503.88 1.73421 2.44428 0
M  V30 25107 H 2501.44 1.05172 1.23087 0
M  V30 25108 H 2503.44 -0.230268 4.04044 0
M  V30 25109 H 2502.01 -0.639195 3.05995 0
M  V30 25110 H 2501.23 1.80658 3.50366 0
M  V30 25111 H 2502.51 1.90646 4.71732 0
M  V30 25112 H 2501.91 -1.1678 5.53515 0
M  V30 25113 H 2500.47 -0.967137 6.44585 0
M  V30 25114 N 2503.9 -1.25546 0.952678 0
M  V30 25115 C 2505.13 -1.9782 0.623059 0
M  V30 25116 C 2505.55 -1.70354 -0.79757 0
M  V30 25117 O 2504.91 -0.95831 -1.53903 0
M  V30 25118 C 2504.96 -3.49556 0.885593 0
M  V30 25119 O 2504.06 -4.12384 -0.0365917 0
M  V30 25120 H 2503.4 -0.620228 0.237093 0
M  V30 25121 H 2505.93 -1.59716 1.27874 0
M  V30 25122 H 2505.94 -3.99857 0.811079 0
M  V30 25123 H 2504.62 -3.68877 1.92101 0
M  V30 25124 H 2503.19 -3.72791 0.089961 0
M  V30 25125 N 2505.38 -0.721022 -1.40139 0
M  V30 25126 C 2506.61 -0.272692 -2.05095 0
M  V30 25127 C 2507.02 1.08747 -1.54336 0
M  V30 25128 O 2506.38 1.68448 -0.702241 0
M  V30 25129 C 2506.43 -0.249898 -3.60635 0
M  V30 25130 O 2506.15 -1.55636 -4.09523 0
M  V30 25131 C 2507.65 0.216318 -4.42772 0
M  V30 25132 H 2504.87 -0.12157 -0.659895 0
M  V30 25133 H 2507.42 -0.980754 -1.79448 0
M  V30 25134 H 2505.57 0.409169 -3.85233 0
M  V30 25135 H 2505.99 -1.46049 -5.03756 0
M  V30 25136 H 2507.46 0.181115 -5.51703 0
M  V30 25137 H 2507.94 1.25934 -4.20758 0
M  V30 25138 H 2508.54 -0.412671 -4.23293 0
M  V30 25139 N 2506.86 1.50503 -0.467606 0
M  V30 25140 C 2508.1 2.02606 0.0887176 0
M  V30 25141 C 2508.44 1.34915 1.39683 0
M  V30 25142 O 2507.71 0.473727 1.88643 0
M  V30 25143 C 2507.99 3.5904 0.276143 0
M  V30 25144 C 2507.85 4.37307 -1.05275 0
M  V30 25145 C 2509.17 4.27823 1.03227 0
M  V30 25146 H 2506.29 0.736357 0.0307684 0
M  V30 25147 H 2508.93 1.79856 -0.612517 0
M  V30 25148 H 2507.08 3.78554 0.873433 0
M  V30 25149 H 2508.75 4.29372 -1.68635 0
M  V30 25150 H 2506.99 4.01186 -1.65022 0
M  V30 25151 H 2507.66 5.45016 -0.875293 0
M  V30 25152 H 2510.14 4.12761 0.526038 0
M  V30 25153 H 2509.02 5.37096 1.13221 0
M  V30 25154 H 2509.28 3.90751 2.06799 0
M  V30 25155 N 2508.34 0.200077 1.56325 0
M  V30 25156 C 2509.57 -0.442197 2.01812 0
M  V30 25157 C 2509.97 -1.55392 1.07935 0
M  V30 25158 O 2509.32 -1.83537 0.0773008 0
M  V30 25159 C 2509.38 -1.05451 3.43686 0
M  V30 25160 C 2509.04 -0.080903 4.56928 0
M  V30 25161 C 2510.04 0.711562 5.15008 0
M  V30 25162 C 2507.72 0.0316246 5.0229 0
M  V30 25163 C 2509.72 1.60347 6.16902 0
M  V30 25164 C 2507.41 0.927087 6.04027 0
M  V30 25165 C 2508.4 1.71157 6.61207 0
M  V30 25166 O 2508.09 2.59202 7.60966 0
M  V30 25167 H 2507.82 -0.114836 0.666175 0
M  V30 25168 H 2510.38 0.307547 2.03084 0
M  V30 25169 H 2508.61 -1.85293 3.39416 0
M  V30 25170 H 2510.3 -1.60195 3.72951 0
M  V30 25171 H 2511.06 0.634958 4.80826 0
M  V30 25172 H 2506.94 -0.568822 4.57477 0
M  V30 25173 H 2510.49 2.21623 6.6146 0
M  V30 25174 H 2506.38 1.00479 6.37632 0
M  V30 25175 H 2507.15 2.53037 7.78405 0
M  V30 25176 N 2509.81 -1.57429 -0.0734901 0
M  V30 25177 C 2511.06 -1.8635 -0.771777 0
M  V30 25178 C 2511.38 -0.792484 -1.78827 0
M  V30 25179 O 2512.58 -0.969494 -2.536 0
M  V30 25180 C 2511.04 -3.30551 -1.42352 0
M  V30 25181 C 2510.65 -4.45778 -0.445683 0
M  V30 25182 C 2512.39 -3.68674 -2.10427 0
M  V30 25183 C 2510.3 -5.81018 -1.10325 0
M  V30 25184 H 2509.23 -0.695169 -0.291987 0
M  V30 25185 H 2511.88 -1.83483 -0.0250427 0
M  V30 25186 H 2510.26 -3.28025 -2.21846 0
M  V30 25187 H 2511.43 -4.59692 0.319319 0
M  V30 25188 H 2509.75 -4.16195 0.13053 0
M  V30 25189 H 2512.35 -4.67009 -2.60397 0
M  V30 25190 H 2512.69 -2.98388 -2.90293 0
M  V30 25191 H 2513.22 -3.73182 -1.37767 0
M  V30 25192 H 2509.96 -6.54592 -0.344946 0
M  V30 25193 H 2509.48 -5.70907 -1.83915 0
M  V30 25194 H 2511.16 -6.26298 -1.62356 0
M  V30 25195 N 2511.29 0.344839 -1.53781 0
M  V30 25196 C 2512.24 1.44367 -1.82376 0
M  V30 25197 C 2513.23 1.54525 -0.694155 0
M  V30 25198 O 2514.44 1.57164 -0.87747 0
M  V30 25199 H 2510.81 0.481334 -0.577773 0
M  V30 25200 H 2512.79 1.17463 -2.74308 0
M  V30 25201 C 2511.53 2.80909 -2.04903 0
M  V30 25202 H 2510.86 2.73859 -2.91275 0
M  V30 25203 H 2512.3 3.56919 -2.28877 0
M  V30 25204 C 2510.76 3.2641 -0.834173 0
M  V30 25205 O 2511.29 4.01686 -0.0329591 0
M  V30 25206 N 2509.49 2.83197 -0.65176 0
M  V30 25207 H 2509.04 2.22102 -1.30493 0
M  V30 25208 H 2509 3.13994 0.159631 0
M  V30 25209 N 2512.77 1.45492 0.605781 0
M  V30 25210 C 2513.72 1.54639 1.73752 0
M  V30 25211 C 2514.71 0.416248 1.64206 0
M  V30 25212 O 2515.92 0.592229 1.69978 0
M  V30 25213 H 2512.29 0.485751 0.574064 0
M  V30 25214 H 2514.26 2.4984 1.63165 0
M  V30 25215 C 2513.01 1.53195 3.12132 0
M  V30 25216 H 2512.34 2.39483 3.20137 0
M  V30 25217 H 2513.78 1.63652 3.91144 0
M  V30 25218 C 2512.23 0.256675 3.35921 0
M  V30 25219 O 2512.76 -0.662728 3.96195 0
M  V30 25220 N 2510.97 0.151802 2.90203 0
M  V30 25221 H 2510.52 0.900852 2.41335 0
M  V30 25222 H 2510.48 -0.700646 3.06494 0
M  V30 25223 N 2514.25 -0.848441 1.32813 0
M  V30 25224 C 2515.2 -1.95752 1.22269 0
M  V30 25225 C 2516.17 -1.65778 0.103443 0
M  V30 25226 O 2517.35 -1.88733 0.280066 0
M  V30 25227 C 2514.49 -3.31534 0.958073 0
M  V30 25228 C 2513.6 -3.73968 2.16269 0
M  V30 25229 C 2512.74 -4.98571 1.83303 0
M  V30 25230 C 2511.78 -5.33513 3.00051 0
M  V30 25231 N 2510.91 -6.49294 2.67137 0
M  V30 25232 H 2515.75 -2.04103 2.17131 0
M  V30 25233 H 2513.29 -0.998894 1.07984 0
M  V30 25234 H 2515.25 -4.09746 0.785124 0
M  V30 25235 H 2513.88 -3.22767 0.0462158 0
M  V30 25236 H 2512.93 -2.91358 2.44571 0
M  V30 25237 H 2514.24 -3.9578 3.03579 0
M  V30 25238 H 2513.4 -5.84506 1.62596 0
M  V30 25239 H 2512.14 -4.78709 0.932162 0
M  V30 25240 H 2511.14 -4.46087 3.21382 0
M  V30 25241 H 2512.37 -5.55329 3.90879 0
M  V30 25242 H 2510.31 -6.30936 1.79598 0
M  V30 25243 H 2510.23 -6.71155 3.47976 0
M  V30 25244 H 2511.5 -7.38365 2.49874 0
M  V30 25245 N 2515.73 -1.16125 -1.06549 0
M  V30 25246 C 2516.69 -0.867944 -2.12131 0
M  V30 25247 C 2517.69 0.135916 -1.60225 0
M  V30 25248 O 2518.88 -0.0946728 -1.73943 0
M  V30 25249 C 2516.01 -0.297479 -3.396 0
M  V30 25250 H 2517.2 -1.80389 -2.39583 0
M  V30 25251 H 2514.76 -0.969834 -1.22572 0
M  V30 25252 H 2515.49 0.646274 -3.17795 0
M  V30 25253 H 2515.28 -1.02079 -3.78579 0
M  V30 25254 H 2516.77 -0.110125 -4.17455 0
M  V30 25255 N 2517.2 1.25039 -0.959323 0
M  V30 25256 C 2518.15 2.25709 -0.482097 0
M  V30 25257 C 2519.12 1.59373 0.467911 0
M  V30 25258 O 2520.31 1.86975 0.380126 0
M  V30 25259 C 2517.45 3.44336 0.229562 0
M  V30 25260 C 2516.56 4.25294 -0.758231 0
M  V30 25261 C 2515.69 5.31195 -0.0235337 0
M  V30 25262 C 2514.73 6.03844 -1.00195 0
M  V30 25263 N 2513.87 7.01468 -0.297814 0
M  V30 25264 H 2518.71 2.65899 -1.34543 0
M  V30 25265 H 2516.25 1.30719 -0.674615 0
M  V30 25266 H 2518.21 4.11966 0.658784 0
M  V30 25267 H 2516.84 3.05007 1.05691 0
M  V30 25268 H 2515.89 3.57281 -1.30592 0
M  V30 25269 H 2517.2 4.75564 -1.50467 0
M  V30 25270 H 2516.35 6.04922 0.464095 0
M  V30 25271 H 2515.09 4.8181 0.755657 0
M  V30 25272 H 2514.1 5.28927 -1.50053 0
M  V30 25273 H 2515.32 6.55318 -1.78145 0
M  V30 25274 H 2513.27 6.54367 0.462553 0
M  V30 25275 H 2513.19 7.49579 -0.98326 0
M  V30 25276 H 2514.45 7.79319 0.168123 0
M  V30 25277 N 2518.68 0.728444 1.39755 0
M  V30 25278 C 2519.93 0.270443 1.99879 0
M  V30 25279 C 2520.24 -1.14685 1.58451 0
M  V30 25280 O 2521.45 -1.70403 2.11365 0
M  V30 25281 C 2519.91 0.432583 3.57291 0
M  V30 25282 C 2519.51 1.85734 4.07685 0
M  V30 25283 C 2521.26 0.0360253 4.24485 0
M  V30 25284 C 2519.17 1.96938 5.57646 0
M  V30 25285 H 2518.1 0.0973603 0.747688 0
M  V30 25286 H 2520.75 0.901384 1.59835 0
M  V30 25287 H 2519.13 -0.26715 3.95098 0
M  V30 25288 H 2520.3 2.58849 3.81226 0
M  V30 25289 H 2518.62 2.20652 3.53131 0
M  V30 25290 H 2521.21 0.0988423 5.34609 0
M  V30 25291 H 2521.56 -1.0078 4.03917 0
M  V30 25292 H 2522.09 0.686673 3.91829 0
M  V30 25293 H 2518.83 2.99486 5.83085 0
M  V30 25294 H 2518.35 1.28251 5.85928 0
M  V30 25295 H 2520.03 1.74748 6.22954 0
M  V30 25296 N 2520.16 -1.50253 0.475581 0
M  V30 25297 C 2521.41 -2.01543 -0.0795642 0
M  V30 25298 C 2521.72 -1.36212 -1.40377 0
M  V30 25299 O 2522.93 -1.78684 -2.04412 0
M  V30 25300 C 2521.38 -3.59386 -0.1923 0
M  V30 25301 C 2520.99 -4.33677 1.12374 0
M  V30 25302 C 2522.74 -4.18703 -0.699165 0
M  V30 25303 C 2520.64 -5.83315 0.974556 0
M  V30 25304 H 2519.57 -0.753255 -0.0335096 0
M  V30 25305 H 2522.22 -1.73023 0.611158 0
M  V30 25306 H 2520.61 -3.84512 -0.946906 0
M  V30 25307 H 2521.78 -4.20272 1.88965 0
M  V30 25308 H 2520.1 -3.8599 1.56206 0
M  V30 25309 H 2522.69 -5.28252 -0.827885 0
M  V30 25310 H 2523.04 -3.8038 -1.69164 0
M  V30 25311 H 2523.57 -3.978 -0.00181815 0
M  V30 25312 H 2520.31 -6.26118 1.94053 0
M  V30 25313 H 2519.83 -5.99283 0.249103 0
M  V30 25314 H 2521.51 -6.43797 0.64298 0
M  V30 25315 N 2521.64 -0.208365 -1.56217 0
M  V30 25316 C 2522.86 0.435187 -2.02783 0
M  V30 25317 C 2523.29 1.53483 -1.0874 0
M  V30 25318 O 2522.65 1.81152 -0.0732173 0
M  V30 25319 C 2522.69 0.956274 -3.47689 0
M  V30 25320 O 2521.8 2.06843 -3.56777 0
M  V30 25321 H 2521.14 0.100146 -0.656404 0
M  V30 25322 H 2523.67 -0.323135 -2.02032 0
M  V30 25323 H 2523.68 1.26948 -3.87747 0
M  V30 25324 H 2522.35 0.151357 -4.15624 0
M  V30 25325 H 2520.93 1.76286 -3.286 0
M  V30 25326 N 2523.12 1.57465 0.0651402 0
M  V30 25327 C 2524.34 1.92191 0.779572 0
M  V30 25328 C 2524.77 0.805363 1.69987 0
M  V30 25329 O 2524.12 -0.241404 1.79686 0
M  V30 25330 C 2524.17 3.25892 1.54358 0
M  V30 25331 O 2523.28 3.15595 2.65469 0
M  V30 25332 H 2522.62 0.629167 0.212238 0
M  V30 25333 H 2525.15 2.04576 0.0313934 0
M  V30 25334 H 2525.16 3.59926 1.92139 0
M  V30 25335 H 2523.83 4.06733 0.868386 0
M  V30 25336 H 2522.41 2.93132 2.30496 0
M  V30 25337 N 2524.59 -0.336679 1.53962 0
M  V30 25338 C 2525.87 -1.09358 1.62173 0
M  V30 25339 C 2526.25 -2.06307 0.447299 0
M  V30 25340 O 2525.6 -2.21538 -0.559763 0
M  V30 25341 C 2525.81 -1.80715 2.98568 0
M  V30 25342 C 2527.16 -2.34212 3.54161 0
M  V30 25343 O 2528.18 -1.90802 3.00788 0
M  V30 25344 O 2527.04 -3.13649 4.47534 0
M  V30 25345 H 2524.13 -0.503308 0.656209 0
M  V30 25346 H 2526.68 -0.337621 1.66308 0
M  V30 25347 H 2525.45 -1.10125 3.75484 0
M  V30 25348 H 2525.08 -2.63153 2.98054 0
M  V30 25349 N 2526.07 -1.45812 -0.598057 0
M  V30 25350 C 2527.32 -1.49596 -1.35292 0
M  V30 25351 C 2527.63 -0.145713 -1.95056 0
M  V30 25352 O 2528.84 -0.0612576 -2.71431 0
M  V30 25353 C 2527.3 -2.63523 -2.45119 0
M  V30 25354 C 2526.9 -4.04902 -1.91725 0
M  V30 25355 C 2528.65 -2.76563 -3.22045 0
M  V30 25356 C 2526.56 -5.10195 -2.99091 0
M  V30 25357 H 2525.49 -0.556687 -0.508542 0
M  V30 25358 H 2528.14 -1.71979 -0.639947 0
M  V30 25359 H 2526.52 -2.3444 -3.19145 0
M  V30 25360 H 2527.69 -4.43706 -1.24344 0
M  V30 25361 H 2526.01 -3.96395 -1.27515 0
M  V30 25362 H 2528.6 -3.52398 -4.02144 0
M  V30 25363 H 2528.95 -1.83533 -3.73659 0
M  V30 25364 H 2529.48 -3.05218 -2.55121 0
M  V30 25365 H 2526.22 -6.04966 -2.52382 0
M  V30 25366 H 2525.74 -4.75951 -3.65008 0
M  V30 25367 H 2527.42 -5.35365 -3.63309 0
M  V30 25368 N 2527.55 0.841385 -1.33261 0
M  V30 25369 C 2528.8 1.59141 -1.23924 0
M  V30 25370 C 2529.11 1.94635 0.194066 0
M  V30 25371 O 2530.32 2.68395 0.409426 0
M  V30 25372 C 2528.77 2.87028 -2.17124 0
M  V30 25373 C 2528.38 2.58907 -3.6561 0
M  V30 25374 C 2530.13 3.6505 -2.16654 0
M  V30 25375 C 2528.03 3.82876 -4.50733 0
M  V30 25376 H 2526.96 0.597213 -0.460275 0
M  V30 25377 H 2529.61 0.927931 -1.58309 0
M  V30 25378 H 2528 3.54903 -1.75669 0
M  V30 25379 H 2529.17 1.99259 -4.15491 0
M  V30 25380 H 2527.49 1.94194 -3.68345 0
M  V30 25381 H 2530.08 4.57064 -2.77482 0
M  V30 25382 H 2530.43 3.99784 -1.16095 0
M  V30 25383 H 2530.96 3.04095 -2.56459 0
M  V30 25384 H 2527.7 3.53274 -5.52158 0
M  V30 25385 H 2527.22 4.41872 -4.05597 0
M  V30 25386 H 2528.9 4.50481 -4.64409 0
M  V30 25387 N 2529.03 1.16688 1.05932 0
M  V30 25388 C 2530.25 0.975487 1.83027 0
M  V30 25389 C 2530.68 -0.47142 1.82097 0
M  V30 25390 O 2530.04 -1.33704 1.22446 0
M  V30 25391 C 2530.09 1.51201 3.27369 0
M  V30 25392 O 2529.19 0.720772 4.06053 0
M  V30 25393 H 2528.53 0.346882 0.566188 0
M  V30 25394 H 2531.06 1.55011 1.33539 0
M  V30 25395 H 2531.07 1.53106 3.78183 0
M  V30 25396 H 2529.75 2.56529 3.27362 0
M  V30 25397 H 2528.32 0.772522 3.6481 0
M  V30 25398 N 2530.51 -1.24529 0.96594 0
M  V30 25399 C 2531.74 -1.96608 0.64442 0
M  V30 25400 C 2532.15 -1.7167 -0.785793 0
M  V30 25401 O 2531.51 -0.999426 -1.52701 0
M  V30 25402 C 2531.56 -3.49925 0.907436 0
M  V30 25403 O 2531.28 -3.74009 2.28142 0
M  V30 25404 C 2532.78 -4.39223 0.599861 0
M  V30 25405 H 2530 -0.626381 0.240599 0
M  V30 25406 H 2532.54 -1.58403 1.29339 0
M  V30 25407 H 2530.7 -3.862 0.304699 0
M  V30 25408 H 2531.11 -4.68401 2.3601 0
M  V30 25409 H 2532.59 -5.45658 0.834359 0
M  V30 25410 H 2533.06 -4.36722 -0.465844 0
M  V30 25411 H 2533.67 -4.08533 1.18242 0
M  V30 25412 N 2531.99 -0.735845 -1.39367 0
M  V30 25413 C 2532.93 -0.085554 -2.32443 0
M  V30 25414 C 2533.93 0.724927 -1.53105 0
M  V30 25415 O 2535.13 0.626017 -1.68763 0
M  V30 25416 H 2531.51 -0.00886579 -0.751948 0
M  V30 25417 H 2533.48 -0.886933 -2.84914 0
M  V30 25418 C 2532.23 0.806924 -3.38207 0
M  V30 25419 H 2531.55 0.192669 -3.99335 0
M  V30 25420 H 2532.99 1.22953 -4.05781 0
M  V30 25421 C 2531.45 1.9416 -2.75324 0
M  V30 25422 O 2531.98 3.0343 -2.63236 0
M  V30 25423 N 2530.19 1.73128 -2.33399 0
M  V30 25424 H 2529.73 0.842554 -2.43431 0
M  V30 25425 H 2529.69 2.49222 -1.91666 0
M  V30 25426 N 2533.46 1.49999 -0.483543 0
M  V30 25427 C 2534.71 2.01989 0.0669915 0
M  V30 25428 C 2535.03 1.36673 1.39088 0
M  V30 25429 O 2534.3 0.516185 1.88977 0
M  V30 25430 H 2532.88 0.746484 0.0277475 0
M  V30 25431 H 2535.54 1.84203 -0.636805 0
M  V30 25432 H 2534.64 3.11397 0.209429 0
M  V30 25433 N 2534.94 0.216646 1.56104 0
M  V30 25434 C 2536.19 -0.41671 1.97348 0
M  V30 25435 C 2536.5 -1.61248 1.10718 0
M  V30 25436 O 2537.71 -2.31503 1.4184 0
M  V30 25437 C 2536.17 -0.792773 3.5106 0
M  V30 25438 C 2535.77 0.379907 4.46386 0
M  V30 25439 C 2537.52 -1.39201 4.01028 0
M  V30 25440 C 2535.42 -0.0183183 5.91397 0
M  V30 25441 H 2534.35 -0.159462 0.736945 0
M  V30 25442 H 2537.01 0.312082 1.80827 0
M  V30 25443 H 2535.39 -1.57885 3.63164 0
M  V30 25444 H 2536.56 1.15745 4.46027 0
M  V30 25445 H 2534.88 0.89205 4.06733 0
M  V30 25446 H 2537.47 -1.70277 5.06863 0
M  V30 25447 H 2537.82 -2.30608 3.46591 0
M  V30 25448 H 2538.35 -0.669469 3.92126 0
M  V30 25449 H 2535.09 0.862116 6.49806 0
M  V30 25450 H 2534.61 -0.76028 5.94962 0
M  V30 25451 H 2536.29 -0.446705 6.45456 0
M  V30 25452 N 2536.42 -1.57498 -0.0567885 0
M  V30 25453 C 2537.67 -1.88255 -0.754187 0
M  V30 25454 C 2538 -0.810896 -1.7646 0
M  V30 25455 O 2537.27 0.177225 -1.93691 0
M  V30 25456 C 2537.56 -3.29672 -1.44873 0
M  V30 25457 C 2537.41 -4.47506 -0.45371 0
M  V30 25458 C 2538.73 -3.69558 -2.38987 0
M  V30 25459 H 2535.85 -0.684688 -0.272712 0
M  V30 25460 H 2538.49 -1.89992 -0.0171779 0
M  V30 25461 H 2536.64 -3.28322 -2.07694 0
M  V30 25462 H 2538.31 -4.60985 0.170452 0
M  V30 25463 H 2536.55 -4.33192 0.229628 0
M  V30 25464 H 2537.23 -5.43274 -0.977603 0
M  V30 25465 H 2539.7 -3.72098 -1.86232 0
M  V30 25466 H 2538.58 -4.69368 -2.84579 0
M  V30 25467 H 2538.84 -3.00301 -3.24456 0
M  V30 25468 N 2537.9 0.328509 -1.54138 0
M  V30 25469 C 2538.85 1.40507 -1.7956 0
M  V30 25470 C 2539.83 1.47124 -0.651399 0
M  V30 25471 O 2541.02 1.51741 -0.911252 0
M  V30 25472 C 2538.15 2.77434 -2.02201 0
M  V30 25473 C 2537.24 2.75149 -3.22729 0
M  V30 25474 N 2537.63 2.42487 -4.43885 0
M  V30 25475 C 2535.93 3.06283 -3.24202 0
M  V30 25476 C 2536.63 2.48813 -5.25801 0
M  V30 25477 N 2535.6 2.85052 -4.62867 0
M  V30 25478 H 2539.41 1.14175 -2.70816 0
M  V30 25479 H 2536.92 0.536964 -1.53266 0
M  V30 25480 H 2538.92 3.55022 -2.18552 0
M  V30 25481 H 2537.58 3.047 -1.12196 0
M  V30 25482 H 2538.59 2.15419 -4.70972 0
M  V30 25483 H 2535.27 3.38623 -2.44214 0
M  V30 25484 H 2536.66 2.26592 -6.32539 0
M  V30 25485 N 2539.38 1.46127 0.590316 0
M  V30 25486 C 2540.62 1.50311 1.34497 0
M  V30 25487 C 2540.94 0.156055 1.94976 0
M  V30 25488 O 2542.14 0.0756514 2.71395 0
M  V30 25489 C 2540.6 2.64819 2.43718 0
M  V30 25490 C 2540.21 4.05913 1.89575 0
M  V30 25491 C 2541.95 2.78267 3.20574 0
M  V30 25492 C 2539.86 5.11774 2.96381 0
M  V30 25493 H 2538.79 0.559377 0.505583 0
M  V30 25494 H 2541.44 1.72316 0.630818 0
M  V30 25495 H 2539.82 2.3613 3.17897 0
M  V30 25496 H 2541 4.44359 1.2199 0
M  V30 25497 H 2539.31 3.97066 1.25411 0
M  V30 25498 H 2541.91 3.54526 4.00269 0
M  V30 25499 H 2542.25 1.85512 3.72681 0
M  V30 25500 H 2542.78 3.06566 2.53499 0
M  V30 25501 H 2539.52 6.06296 2.4917 0
M  V30 25502 H 2539.04 4.7788 3.62479 0
M  V30 25503 H 2540.72 5.37284 3.60465 0
M  V30 25504 N 2540.85 -0.834306 1.33705 0
M  V30 25505 C 2542.1 -1.58481 1.24766 0
M  V30 25506 C 2542.42 -1.94735 -0.183741 0
M  V30 25507 O 2543.62 -2.68608 -0.395187 0
M  V30 25508 C 2542.08 -2.85872 2.18643 0
M  V30 25509 C 2541.69 -2.56965 3.66978 0
M  V30 25510 C 2543.43 -3.63895 2.18587 0
M  V30 25511 C 2541.34 -3.8048 4.52757 0
M  V30 25512 H 2540.27 -0.594764 0.463435 0
M  V30 25513 H 2542.92 -0.919523 1.58799 0
M  V30 25514 H 2541.3 -3.53967 1.77549 0
M  V30 25515 H 2542.47 -1.97053 4.16541 0
M  V30 25516 H 2540.79 -1.92238 3.69369 0
M  V30 25517 H 2543.39 -4.55586 2.79902 0
M  V30 25518 H 2543.73 -3.99163 1.18214 0
M  V30 25519 H 2544.26 -3.02731 2.58068 0
M  V30 25520 H 2541 -3.5034 5.54023 0
M  V30 25521 H 2540.52 -4.39715 4.07935 0
M  V30 25522 H 2542.2 -4.48012 4.66792 0
M  V30 25523 N 2542.33 -1.17248 -1.05312 0
M  V30 25524 C 2543.61 -0.870081 -1.75183 0
M  V30 25525 C 2543.99 0.62993 -2.01482 0
M  V30 25526 O 2543.34 1.58083 -1.64991 0
M  V30 25527 C 2543.55 -1.70368 -3.04591 0
M  V30 25528 C 2544.89 -1.92288 -3.78564 0
M  V30 25529 O 2545.92 -1.67316 -3.14458 0
M  V30 25530 O 2544.78 -2.34249 -4.93751 0
M  V30 25531 H 2541.87 -0.322034 -0.761724 0
M  V30 25532 H 2544.42 -1.27937 -1.11491 0
M  V30 25533 H 2543.19 -2.72111 -2.81196 0
M  V30 25534 H 2542.81 -1.29208 -3.7602 0
M  V30 25535 N 2543.81 1.24015 -0.972531 0
M  V30 25536 C 2544.76 2.25185 -0.506009 0
M  V30 25537 C 2545.73 1.5986 0.450981 0
M  V30 25538 O 2546.91 1.87368 0.360274 0
M  V30 25539 C 2544.05 3.4456 0.193028 0
M  V30 25540 C 2543.17 4.24466 -0.803296 0
M  V30 25541 C 2542.3 5.3114 -0.0798726 0
M  V30 25542 C 2541.34 6.02747 -1.06594 0
M  V30 25543 N 2540.48 7.01113 -0.372197 0
M  V30 25544 H 2545.32 2.64457 -1.37356 0
M  V30 25545 H 2542.85 1.29996 -0.688442 0
M  V30 25546 H 2544.81 4.12641 0.615052 0
M  V30 25547 H 2543.44 3.06111 1.0245 0
M  V30 25548 H 2542.49 3.55876 -1.34374 0
M  V30 25549 H 2543.81 4.73941 -1.55502 0
M  V30 25550 H 2542.96 6.05381 0.399908 0
M  V30 25551 H 2541.7 4.82585 0.704512 0
M  V30 25552 H 2540.7 5.27306 -1.55655 0
M  V30 25553 H 2541.93 6.53391 -1.85085 0
M  V30 25554 H 2539.87 6.54821 0.393123 0
M  V30 25555 H 2539.79 7.48494 -1.06271 0
M  V30 25556 H 2541.06 7.79453 0.0854562 0
M  V30 25557 N 2545.29 0.743226 1.38974 0
M  V30 25558 C 2546.22 0.123914 2.33171 0
M  V30 25559 C 2547.2 -0.715132 1.54337 0
M  V30 25560 O 2548.38 -0.658435 1.82697 0
M  V30 25561 C 2545.51 -0.777918 3.38476 0
M  V30 25562 C 2544.47 -0.0424006 4.27979 0
M  V30 25563 C 2543.79 -1.0618 5.24051 0
M  V30 25564 C 2545.09 1.11989 5.10153 0
M  V30 25565 H 2546.79 0.91076 2.85211 0
M  V30 25566 H 2544.33 0.439412 1.37132 0
M  V30 25567 H 2546.29 -1.22077 4.0333 0
M  V30 25568 H 2545.01 -1.59697 2.84894 0
M  V30 25569 H 2543.67 0.380917 3.64616 0
M  V30 25570 H 2543.32 -1.87463 4.66762 0
M  V30 25571 H 2543.02 -0.574382 5.84786 0
M  V30 25572 H 2544.54 -1.50418 5.91783 0
M  V30 25573 H 2545.96 0.75509 5.68306 0
M  V30 25574 H 2544.35 1.53748 5.8007 0
M  V30 25575 H 2545.42 1.93772 4.445 0
M  V30 25576 N 2546.77 -1.4974 0.491491 0
M  V30 25577 C 2547.7 -2.31797 -0.2815 0
M  V30 25578 C 2548.68 -1.39631 -0.971448 0
M  V30 25579 O 2549.86 -1.68545 -0.964689 0
M  V30 25580 C 2546.99 -3.19905 -1.35197 0
M  V30 25581 C 2545.95 -4.20787 -0.782455 0
M  V30 25582 C 2545.27 -4.97767 -1.95274 0
M  V30 25583 C 2546.57 -5.21836 0.220082 0
M  V30 25584 H 2548.27 -2.9667 0.403407 0
M  V30 25585 H 2545.81 -1.42667 0.19545 0
M  V30 25586 H 2547.77 -3.76116 -1.90038 0
M  V30 25587 H 2546.49 -2.52956 -2.06593 0
M  V30 25588 H 2545.15 -3.65706 -0.255864 0
M  V30 25589 H 2544.8 -4.27274 -2.65416 0
M  V30 25590 H 2544.5 -5.66021 -1.57779 0
M  V30 25591 H 2546.02 -5.5682 -2.50567 0
M  V30 25592 H 2547.43 -5.72798 -0.239859 0
M  V30 25593 H 2545.83 -5.97926 0.510365 0
M  V30 25594 H 2546.9 -4.71328 1.13919 0
M  V30 25595 N 2548.24 -0.224922 -1.55987 0
M  V30 25596 C 2549.47 0.413654 -2.03233 0
M  V30 25597 C 2549.89 1.52322 -1.10362 0
M  V30 25598 O 2549.25 1.81064 -0.0924268 0
M  V30 25599 C 2549.3 0.919343 -3.48684 0
M  V30 25600 O 2548.4 2.03047 -3.58951 0
M  V30 25601 H 2547.75 0.0931788 -0.65743 0
M  V30 25602 H 2550.28 -0.344545 -2.01678 0
M  V30 25603 H 2550.29 1.22829 -3.89072 0
M  V30 25604 H 2548.96 0.107266 -4.15762 0
M  V30 25605 H 2547.54 1.72791 -3.30451 0
M  V30 25606 N 2549.72 1.57526 0.0484352 0
M  V30 25607 C 2551.13 1.76882 0.597455 0
M  V30 25608 C 2551.48 0.853506 1.76663 0
M  V30 25609 O 2550.61 0.0434036 2.16356 0
M  V30 25610 C 2551.2 3.20767 1.0906 0
M  V30 25611 C 2549.76 3.41387 1.58529 0
M  V30 25612 C 2548.91 2.72479 0.51482 0
M  V30 25613 H 2551.86 1.57701 -0.177786 0
M  V30 25614 H 2551.88 3.26214 1.95869 0
M  V30 25615 H 2551.39 3.87361 0.239452 0
M  V30 25616 H 2549.5 2.79941 2.45893 0
M  V30 25617 H 2549.61 4.49932 1.64614 0
M  V30 25618 H 2547.97 2.35696 0.965366 0
M  V30 25619 H 2548.76 3.41743 -0.326541 0
M  V30 25620 N 2551.2 -0.32033 1.5431 0
M  V30 25621 C 2552.15 -1.39435 1.8392 0
M  V30 25622 C 2553.12 -1.51247 0.686551 0
M  V30 25623 O 2554.3 -1.66416 0.933298 0
M  V30 25624 C 2551.44 -2.75746 2.07505 0
M  V30 25625 C 2550.56 -2.72538 3.35182 0
M  V30 25626 C 2549.69 -4.00717 3.48711 0
M  V30 25627 C 2548.73 -3.9183 4.7025 0
M  V30 25628 N 2547.87 -5.11745 4.80688 0
M  V30 25629 H 2552.71 -1.13484 2.75546 0
M  V30 25630 H 2550.24 -0.549285 1.3646 0
M  V30 25631 H 2552.2 -3.54992 2.19172 0
M  V30 25632 H 2550.83 -2.99998 1.19168 0
M  V30 25633 H 2549.88 -1.85265 3.32237 0
M  V30 25634 H 2551.2 -2.61856 4.24539 0
M  V30 25635 H 2550.35 -4.88396 3.59937 0
M  V30 25636 H 2549.09 -4.1421 2.57452 0
M  V30 25637 H 2548.09 -3.02536 4.59078 0
M  V30 25638 H 2549.32 -3.799 5.62897 0
M  V30 25639 H 2547.26 -5.25738 3.92347 0
M  V30 25640 H 2547.18 -5.0341 5.64016 0
M  V30 25641 H 2548.45 -6.01129 4.9625 0
M  V30 25642 N 2552.68 -1.46438 -0.582558 0
M  V30 25643 C 2553.63 -1.57383 -1.7127 0
M  V30 25644 C 2554.62 -0.442319 -1.63523 0
M  V30 25645 O 2555.83 -0.619196 -1.69015 0
M  V30 25646 H 2552.2 -0.494822 -0.566264 0
M  V30 25647 H 2554.17 -2.52404 -1.59169 0
M  V30 25648 C 2552.92 -1.58141 -3.09656 0
M  V30 25649 H 2552.24 -2.44546 -3.16287 0
M  V30 25650 H 2553.68 -1.69854 -3.88491 0
M  V30 25651 C 2552.14 -0.310085 -3.3547 0
M  V30 25652 O 2552.67 0.599613 -3.972 0
M  V30 25653 N 2550.88 -0.197952 -2.89925 0
M  V30 25654 H 2550.43 -0.939133 -2.39871 0
M  V30 25655 H 2550.38 0.651796 -3.07569 0
M  V30 25656 N 2554.16 0.827204 -1.34146 0
M  V30 25657 C 2555.09 1.95285 -1.28008 0
M  V30 25658 C 2556.07 1.69361 -0.15835 0
M  V30 25659 O 2557.25 1.9102 -0.35002 0
M  V30 25660 C 2554.38 3.31662 -1.03041 0
M  V30 25661 C 2553.34 3.72015 -2.11634 0
M  V30 25662 C 2552.66 5.06327 -1.71863 0
M  V30 25663 C 2553.96 3.84563 -3.53424 0
M  V30 25664 H 2555.66 2.00678 -2.22191 0
M  V30 25665 H 2553.2 0.964116 -1.06962 0
M  V30 25666 H 2555.16 4.09991 -0.973935 0
M  V30 25667 H 2553.88 3.26557 -0.0529965 0
M  V30 25668 H 2552.54 2.95958 -2.16344 0
M  V30 25669 H 2552.19 4.97705 -0.727929 0
M  V30 25670 H 2551.89 5.34297 -2.44541 0
M  V30 25671 H 2553.41 5.87119 -1.67702 0
M  V30 25672 H 2554.82 4.53174 -3.5115 0
M  V30 25673 H 2553.22 4.23983 -4.24687 0
M  V30 25674 H 2554.29 2.86682 -3.91077 0
M  V30 25675 N 2555.63 1.17805 1.04688 0
M  V30 25676 C 2556.56 0.922788 2.14492 0
M  V30 25677 C 2557.55 -0.137149 1.69546 0
M  V30 25678 O 2558.73 0.014145 1.94195 0
M  V30 25679 C 2555.86 0.440864 3.4449 0
M  V30 25680 C 2554.81 1.44057 4.03028 0
M  V30 25681 C 2554.14 0.816403 5.28431 0
M  V30 25682 C 2555.44 2.81535 4.39927 0
M  V30 25683 H 2557.13 1.84107 2.36104 0
M  V30 25684 H 2554.68 0.886619 1.13468 0
M  V30 25685 H 2556.63 0.249676 4.2066 0
M  V30 25686 H 2555.36 -0.512968 3.22546 0
M  V30 25687 H 2554.02 1.61859 3.28934 0
M  V30 25688 H 2553.66 -0.144423 5.02793 0
M  V30 25689 H 2553.36 1.48381 5.68557 0
M  V30 25690 H 2554.89 0.635603 6.07283 0
M  V30 25691 H 2556.3 2.67421 5.07108 0
M  V30 25692 H 2554.7 3.449 4.91084 0
M  V30 25693 H 2555.77 3.35561 3.50039 0
M  V30 25694 N 2557.11 -1.23497 0.979094 0
M  V30 25695 C 2558.36 -1.91184 0.642784 0
M  V30 25696 C 2558.67 -1.77247 -0.827222 0
M  V30 25697 O 2559.88 -2.39724 -1.27454 0
M  V30 25698 C 2558.34 -3.42707 1.09907 0
M  V30 25699 C 2557.94 -3.65309 2.59333 0
M  V30 25700 C 2559.69 -4.16178 0.836444 0
M  V30 25701 C 2557.6 -5.10461 2.98636 0
M  V30 25702 H 2556.53 -0.71588 0.236711 0
M  V30 25703 H 2559.18 -1.39953 1.18682 0
M  V30 25704 H 2557.56 -3.9304 0.483259 0
M  V30 25705 H 2558.73 -3.25528 3.26142 0
M  V30 25706 H 2557.05 -3.05146 2.83328 0
M  V30 25707 H 2559.64 -5.23137 1.10595 0
M  V30 25708 H 2559.99 -4.15678 -0.227436 0
M  V30 25709 H 2560.52 -3.7183 1.41377 0
M  V30 25710 H 2557.26 -5.16091 4.04142 0
M  V30 25711 H 2556.78 -5.51197 2.3652 0
M  V30 25712 H 2558.46 -5.78783 2.89169 0
M  V30 25713 N 2558.59 -0.750586 -1.38578 0
M  V30 25714 C 2559.82 -0.316134 -2.04471 0
M  V30 25715 C 2560.23 1.05449 -1.56608 0
M  V30 25716 O 2559.59 1.66921 -0.737813 0
M  V30 25717 C 2559.64 -0.326338 -3.60024 0
M  V30 25718 O 2559.36 -1.64287 -4.0613 0
M  V30 25719 C 2560.86 0.122351 -4.43131 0
M  V30 25720 H 2558.08 -0.13554 -0.657168 0
M  V30 25721 H 2560.63 -1.0186 -1.77327 0
M  V30 25722 H 2558.78 0.327363 -3.86014 0
M  V30 25723 H 2559.2 -1.56701 -5.00545 0
M  V30 25724 H 2560.67 0.0640503 -5.51963 0
M  V30 25725 H 2561.15 1.16981 -4.23335 0
M  V30 25726 H 2561.75 -0.502364 -4.22323 0
M  V30 25727 N 2560.07 1.49477 -0.499425 0
M  V30 25728 C 2561.48 1.8663 -0.0512479 0
M  V30 25729 C 2561.83 1.41189 1.36236 0
M  V30 25730 O 2560.96 0.789087 2.015 0
M  V30 25731 C 2561.55 3.3869 -0.0862246 0
M  V30 25732 C 2560.11 3.75149 0.306604 0
M  V30 25733 C 2559.26 2.73467 -0.459445 0
M  V30 25734 H 2562.21 1.41817 -0.712289 0
M  V30 25735 H 2562.23 3.73828 0.709441 0
M  V30 25736 H 2561.74 3.71733 -1.11518 0
M  V30 25737 H 2559.84 3.47715 1.33885 0
M  V30 25738 H 2559.96 4.79099 -0.0117511 0
M  V30 25739 H 2558.32 2.54539 0.0905198 0
M  V30 25740 H 2559.1 3.09354 -1.48845 0
M  V30 25741 N 2561.55 0.233191 1.55865 0
M  V30 25742 C 2562.49 -0.672112 2.20797 0
M  V30 25743 C 2563.46 -1.18164 1.16733 0
M  V30 25744 O 2564.65 -1.23861 1.45131 0
M  V30 25745 C 2561.79 -1.8695 2.90075 0
M  V30 25746 C 2560.9 -1.39779 4.08762 0
M  V30 25747 C 2560.04 -2.55366 4.65792 0
M  V30 25748 C 2559.08 -2.04988 5.76755 0
M  V30 25749 N 2558.21 -3.1389 6.28027 0
M  V30 25750 H 2563.05 -0.111697 2.97791 0
M  V30 25751 H 2560.59 -0.0433749 1.47036 0
M  V30 25752 H 2562.55 -2.5727 3.28433 0
M  V30 25753 H 2561.18 -2.40261 2.15579 0
M  V30 25754 H 2560.23 -0.589107 3.75811 0
M  V30 25755 H 2561.54 -0.988474 4.88908 0
M  V30 25756 H 2560.7 -3.33749 5.06652 0
M  V30 25757 H 2559.44 -2.99591 3.84833 0
M  V30 25758 H 2558.44 -1.2507 5.35386 0
M  V30 25759 H 2559.67 -1.61748 6.59556 0
M  V30 25760 H 2557.61 -3.57576 5.49978 0
M  V30 25761 H 2557.53 -2.77247 7.03328 0
M  V30 25762 H 2558.8 -3.92374 6.73545 0
M  V30 25763 N 2563.03 -1.57549 -0.0400806 0
M  V30 25764 C 2564.3 -1.79897 -0.767886 0
M  V30 25765 C 2564.68 -0.828594 -1.94159 0
M  V30 25766 O 2564.03 0.131631 -2.28121 0
M  V30 25767 C 2564.24 -3.27307 -1.21124 0
M  V30 25768 C 2565.59 -3.91997 -1.63168 0
M  V30 25769 O 2566.61 -3.3139 -1.3061 0
M  V30 25770 O 2565.47 -4.98683 -2.23557 0
M  V30 25771 H 2562.57 -0.7394 -0.370428 0
M  V30 25772 H 2565.11 -1.69691 -0.0177072 0
M  V30 25773 H 2563.88 -3.89519 -0.372869 0
M  V30 25774 H 2563.51 -3.4236 -2.02177 0
M  V30 25775 N 2564.5 0.312142 -1.54478 0
M  V30 25776 C 2565.45 1.40466 -1.85397 0
M  V30 25777 C 2566.45 1.53017 -0.726776 0
M  V30 25778 O 2567.65 1.55267 -0.910609 0
M  V30 25779 H 2564.03 0.46897 -0.587853 0
M  V30 25780 H 2566 1.11618 -2.76738 0
M  V30 25781 C 2564.75 2.765 -2.10816 0
M  V30 25782 H 2564.07 2.67619 -2.97018 0
M  V30 25783 H 2565.51 3.51984 -2.36396 0
M  V30 25784 C 2563.97 3.24567 -0.903222 0
M  V30 25785 O 2564.5 4.01526 -0.118155 0
M  V30 25786 N 2562.7 2.81751 -0.711684 0
M  V30 25787 H 2562.25 2.19284 -1.35175 0
M  V30 25788 H 2562.21 3.14262 0.0929921 0
M  V30 25789 N 2565.98 1.46745 0.574784 0
M  V30 25790 C 2567.21 1.5629 1.36338 0
M  V30 25791 C 2567.63 0.20738 1.86953 0
M  V30 25792 O 2566.99 -0.813842 1.62007 0
M  V30 25793 C 2567.04 2.57791 2.52143 0
M  V30 25794 O 2566.14 2.11844 3.5383 0
M  V30 25795 H 2565.48 0.525643 0.405703 0
M  V30 25796 H 2568.01 1.92383 0.696419 0
M  V30 25797 H 2568.02 2.77653 2.98953 0
M  V30 25798 H 2566.7 3.56224 2.14657 0
M  V30 25799 H 2565.27 2.02005 3.13446 0
M  V30 25800 N 2567.46 -0.820078 1.34583 0
M  V30 25801 C 2568.71 -1.57334 1.26848 0
M  V30 25802 C 2569.03 -1.94337 -0.160633 0
M  V30 25803 O 2568.3 -1.62512 -1.09393 0
M  V30 25804 H 2566.88 -0.583407 0.466525 0
M  V30 25805 H 2569.54 -0.978998 1.68528 0
M  V30 25806 H 2568.64 -2.49487 1.87517 0
M  V30 25807 N 2568.94 -1.18359 -1.04062 0
M  V30 25808 C 2570.35 -0.933281 -1.29468 0
M  V30 25809 C 2570.55 0.401134 -1.97467 0
M  V30 25810 O 2569.61 1.13546 -2.2553 0
M  V30 25811 C 2570.92 -2.09886 -2.15333 0
M  V30 25812 C 2572.47 -2.13716 -2.2868 0
M  V30 25813 C 2572.95 -3.29692 -3.17911 0
M  V30 25814 N 2574.44 -3.29553 -3.25499 0
M  V30 25815 C 2575.17 -4.15933 -3.94699 0
M  V30 25816 N 2574.67 -5.12447 -4.6623 0
M  V30 25817 N 2576.46 -4.03847 -3.90978 0
M  V30 25818 H 2568.61 -2.04233 -0.583323 0
M  V30 25819 H 2570.87 -0.892393 -0.319905 0
M  V30 25820 H 2570.58 -3.06392 -1.72676 0
M  V30 25821 H 2570.45 -2.05953 -3.16012 0
M  V30 25822 H 2572.84 -1.17788 -2.70573 0
M  V30 25823 H 2572.92 -2.21707 -1.27592 0
M  V30 25824 H 2572.57 -4.25891 -2.76729 0
M  V30 25825 H 2572.5 -3.18937 -4.19031 0
M  V30 25826 H 2574.99 -2.59682 -2.74543 0
M  V30 25827 H 2575.3 -5.74731 -5.16628 0
M  V30 25828 H 2573.65 -5.16406 -4.65134 0
M  V30 25829 H 2576.84 -3.27733 -3.34228 0
M  V30 25830 H 2577.01 -4.71383 -4.44637 0
M  V30 25831 N 2570.42 1.22976 -0.98563 0
M  V30 25832 C 2571.66 1.9084 -0.652914 0
M  V30 25833 C 2571.98 1.77683 0.817811 0
M  V30 25834 O 2573.18 2.40397 1.26181 0
M  V30 25835 C 2571.64 3.4212 -1.11723 0
M  V30 25836 C 2571.25 3.63928 -2.61267 0
M  V30 25837 C 2572.99 4.15728 -0.858503 0
M  V30 25838 C 2570.9 5.0887 -3.01339 0
M  V30 25839 H 2569.83 0.714614 -0.240504 0
M  V30 25840 H 2572.48 1.39322 -1.19423 0
M  V30 25841 H 2570.86 3.92778 -0.504096 0
M  V30 25842 H 2572.04 3.23794 -3.27863 0
M  V30 25843 H 2570.35 3.03639 -2.84943 0
M  V30 25844 H 2572.95 5.22544 -1.13368 0
M  V30 25845 H 2573.29 4.15793 0.205388 0
M  V30 25846 H 2573.82 3.71075 -1.43347 0
M  V30 25847 H 2570.56 5.1394 -4.06873 0
M  V30 25848 H 2570.08 5.49935 -2.3944 0
M  V30 25849 H 2571.76 5.77242 -2.92235 0
M  V30 25850 N 2571.89 0.757924 1.38178 0
M  V30 25851 C 2572.82 0.148638 2.33026 0
M  V30 25852 C 2573.8 -0.698723 1.55087 0
M  V30 25853 O 2574.99 -0.63902 1.83385 0
M  V30 25854 C 2572.12 -0.741975 3.39282 0
M  V30 25855 C 2571.07 0.00299469 4.28 0
M  V30 25856 C 2570.4 -1.00615 5.25148 0
M  V30 25857 C 2571.7 1.17394 5.08936 0
M  V30 25858 H 2573.39 0.940959 2.84229 0
M  V30 25859 H 2570.94 0.453932 1.36658 0
M  V30 25860 H 2572.89 -1.17792 4.04602 0
M  V30 25861 H 2571.62 -1.56666 2.86571 0
M  V30 25862 H 2570.28 0.419568 3.64191 0
M  V30 25863 H 2569.92 -1.82502 4.68724 0
M  V30 25864 H 2569.62 -0.512325 5.85362 0
M  V30 25865 H 2571.15 -1.44133 5.93345 0
M  V30 25866 H 2572.56 0.815324 5.67473 0
M  V30 25867 H 2570.96 1.59892 5.78407 0
M  V30 25868 H 2572.03 1.98475 4.4242 0
M  V30 25869 N 2573.37 -1.4921 0.507345 0
M  V30 25870 C 2574.3 -2.27168 -0.304492 0
M  V30 25871 C 2575.32 -1.33973 -0.924932 0
M  V30 25872 O 2576.51 -1.59206 -0.807199 0
M  V30 25873 C 2573.61 -3.06585 -1.44426 0
M  V30 25874 C 2572.78 -4.274 -0.929951 0
M  V30 25875 C 2571.84 -4.88811 -1.94809 0
M  V30 25876 O 2570.86 -5.48693 -1.51409 0
M  V30 25877 N 2572.07 -4.79027 -3.27892 0
M  V30 25878 H 2574.83 -2.97481 0.364002 0
M  V30 25879 H 2572.39 -1.58284 0.340277 0
M  V30 25880 H 2574.38 -3.44541 -2.12305 0
M  V30 25881 H 2572.95 -2.38839 -2.0168 0
M  V30 25882 H 2572.17 -3.94127 -0.0758551 0
M  V30 25883 H 2573.46 -5.05655 -0.564843 0
M  V30 25884 H 2572.86 -4.31487 -3.65836 0
M  V30 25885 H 2571.42 -5.21149 -3.91467 0
M  V30 25886 N 2574.85 -0.241454 -1.55739 0
M  V30 25887 C 2575.8 0.676679 -2.22539 0
M  V30 25888 C 2576.79 1.18434 -1.21119 0
M  V30 25889 O 2578 1.14186 -1.39146 0
M  V30 25890 H 2574.37 0.236688 -0.713781 0
M  V30 25891 H 2576.34 0.0900663 -2.98264 0
M  V30 25892 C 2575.09 1.86513 -2.93442 0
M  V30 25893 H 2574.42 1.48364 -3.71252 0
M  V30 25894 H 2575.86 2.48489 -3.43553 0
M  V30 25895 C 2574.32 2.73291 -1.97012 0
M  V30 25896 O 2574.85 3.72655 -1.49971 0
M  V30 25897 N 2573.05 2.39743 -1.64231 0
M  V30 25898 H 2572.6 1.58992 -2.0268 0
M  V30 25899 H 2572.56 2.98081 -0.999761 0
M  V30 25900 N 2576.33 1.57568 0.0317248 0
M  V30 25901 C 2577.26 2.09422 1.03271 0
M  V30 25902 C 2578.24 0.996168 1.37879 0
M  V30 25903 O 2579.42 1.27125 1.46809 0
M  V30 25904 C 2576.55 2.57141 2.33443 0
M  V30 25905 C 2575.51 3.71186 2.13085 0
M  V30 25906 C 2574.83 4.05102 3.48994 0
M  V30 25907 C 2576.13 4.99718 1.51919 0
M  V30 25908 H 2577.83 2.93304 0.601069 0
M  V30 25909 H 2575.37 1.41097 0.28768 0
M  V30 25910 H 2577.33 2.92037 3.03796 0
M  V30 25911 H 2576.05 1.70338 2.78662 0
M  V30 25912 H 2574.71 3.36634 1.45165 0
M  V30 25913 H 2574.36 3.15369 3.91857 0
M  V30 25914 H 2574.06 4.81917 3.36198 0
M  V30 25915 H 2575.58 4.4253 4.20714 0
M  V30 25916 H 2577 5.32588 2.12186 0
M  V30 25917 H 2575.39 5.81127 1.49706 0
M  V30 25918 H 2576.46 4.82471 0.484726 0
M  V30 25919 N 2577.81 -0.303946 1.54641 0
M  V30 25920 C 2579.03 -1.05855 1.7777 0
M  V30 25921 C 2579.45 -1.81039 0.535754 0
M  V30 25922 O 2578.81 -1.75678 -0.494306 0
M  V30 25923 C 2578.86 -2.04141 2.98344 0
M  V30 25924 O 2578.58 -1.32008 4.17739 0
M  V30 25925 C 2580.08 -2.91663 3.33838 0
M  V30 25926 H 2577.3 -0.314057 0.592967 0
M  V30 25927 H 2579.84 -0.344113 2.01584 0
M  V30 25928 H 2578 -2.71091 2.76746 0
M  V30 25929 H 2578.41 -1.97989 4.85696 0
M  V30 25930 H 2579.89 -3.56483 4.21454 0
M  V30 25931 H 2580.36 -3.59808 2.51863 0
M  V30 25932 H 2580.97 -2.30248 3.57583 0
M  V30 25933 N 2579.28 -1.47047 -0.566994 0
M  V30 25934 C 2580.51 -1.56768 -1.35024 0
M  V30 25935 C 2580.93 -0.214349 -1.87579 0
M  V30 25936 O 2580.28 0.79089 -1.64472 0
M  V30 25937 C 2580.34 -2.58511 -2.52694 0
M  V30 25938 O 2580.06 -3.88589 -2.02313 0
M  V30 25939 C 2581.56 -2.78322 -3.45038 0
M  V30 25940 H 2578.78 -0.529665 -0.411941 0
M  V30 25941 H 2581.32 -1.92587 -0.687798 0
M  V30 25942 H 2579.48 -2.25653 -3.14896 0
M  V30 25943 H 2579.89 -4.44101 -2.7906 0
M  V30 25944 H 2581.36 -3.53398 -4.24044 0
M  V30 25945 H 2581.84 -1.85791 -3.97968 0
M  V30 25946 H 2582.45 -3.12339 -2.8866 0
M  V30 25947 N 2580.76 0.812929 -1.35016 0
M  V30 25948 C 2581.69 1.93916 -1.30072 0
M  V30 25949 C 2582.67 1.69184 -0.176304 0
M  V30 25950 O 2583.86 1.90638 -0.370261 0
M  V30 25951 C 2580.99 3.30551 -1.06553 0
M  V30 25952 C 2579.94 3.69749 -2.15568 0
M  V30 25953 C 2579.27 5.04476 -1.77223 0
M  V30 25954 C 2580.57 3.80793 -3.57483 0
M  V30 25955 H 2582.26 1.9831 -2.24307 0
M  V30 25956 H 2579.81 0.952717 -1.07978 0
M  V30 25957 H 2581.76 4.08935 -1.01736 0
M  V30 25958 H 2580.49 3.26482 -0.0876293 0
M  V30 25959 H 2579.14 2.93646 -2.19471 0
M  V30 25960 H 2578.79 4.96905 -0.780676 0
M  V30 25961 H 2578.49 5.31674 -2.50194 0
M  V30 25962 H 2580.02 5.85307 -1.7392 0
M  V30 25963 H 2581.43 4.49424 -3.55937 0
M  V30 25964 H 2579.83 4.19455 -4.2916 0
M  V30 25965 H 2580.9 2.82518 -3.94096 0
M  V30 25966 N 2582.24 1.18909 1.03433 0
M  V30 25967 C 2583.2 0.923881 2.09755 0
M  V30 25968 C 2584.2 -0.0933878 1.60529 0
M  V30 25969 O 2585.39 0.140757 1.7363 0
M  V30 25970 C 2582.53 0.387413 3.38691 0
M  V30 25971 H 2583.72 1.86678 2.34716 0
M  V30 25972 H 2581.27 1.00199 1.19958 0
M  V30 25973 H 2582.01 -0.561789 3.19397 0
M  V30 25974 H 2581.79 1.12081 3.7574 0
M  V30 25975 H 2583.28 0.220767 4.17016 0
M  V30 25976 N 2583.72 -1.22452 0.992137 0
M  V30 25977 C 2584.95 -1.95197 0.685978 0
M  V30 25978 C 2585.36 -1.73299 -0.749202 0
M  V30 25979 O 2584.72 -1.03159 -1.50547 0
M  V30 25980 C 2584.77 -3.47922 0.981457 0
M  V30 25981 O 2584.49 -3.69086 2.36024 0
M  V30 25982 C 2585.99 -4.37851 0.692892 0
M  V30 25983 H 2583.21 -0.621136 0.253832 0
M  V30 25984 H 2585.76 -1.55624 1.3267 0
M  V30 25985 H 2583.91 -3.85467 0.386549 0
M  V30 25986 H 2584.32 -4.63289 2.45892 0
M  V30 25987 H 2585.8 -5.43765 0.949913 0
M  V30 25988 H 2586.28 -4.37612 -0.373104 0
M  V30 25989 H 2586.88 -4.05932 1.26881 0
M  V30 25990 N 2585.2 -0.765242 -1.37774 0
M  V30 25991 C 2586.14 -0.134839 -2.32209 0
M  V30 25992 C 2587.14 0.692288 -1.54608 0
M  V30 25993 O 2588.34 0.590079 -1.70053 0
M  V30 25994 H 2584.72 -0.0248137 -0.75159 0
M  V30 25995 H 2586.69 -0.947168 -2.82969 0
M  V30 25996 C 2585.44 0.735004 -3.39843 0
M  V30 25997 H 2584.76 0.107921 -3.99654 0
M  V30 25998 H 2586.2 1.14318 -4.08298 0
M  V30 25999 C 2584.66 1.88276 -2.79381 0
M  V30 26000 O 2585.19 2.97778 -2.69613 0
M  V30 26001 N 2583.4 1.68138 -2.37019 0
M  V30 26002 H 2582.94 0.790729 -2.45164 0
M  V30 26003 H 2582.9 2.451 -1.96909 0
M  V30 26004 N 2586.67 1.48939 -0.515251 0
M  V30 26005 C 2587.62 2.31038 0.269074 0
M  V30 26006 C 2588.62 1.40294 0.949419 0
M  V30 26007 O 2589.82 1.57275 0.875482 0
M  V30 26008 H 2586.2 0.744543 0.105637 0
M  V30 26009 H 2588.17 2.95091 -0.443148 0
M  V30 26010 C 2586.92 3.21994 1.31207 0
M  V30 26011 H 2586.24 3.91756 0.797966 0
M  V30 26012 H 2587.68 3.82352 1.83257 0
M  V30 26013 C 2586.14 2.4258 2.33787 0
M  V30 26014 O 2586.67 2.14009 3.39946 0
M  V30 26015 N 2584.88 2.04343 2.06621 0
M  V30 26016 H 2584.42 2.27779 1.2031 0
M  V30 26017 H 2584.38 1.51519 2.7548 0
M  V30 26018 N 2588.15 0.249709 1.55609 0
M  V30 26019 C 2589.4 -0.373513 1.98618 0
M  V30 26020 C 2589.72 -1.58262 1.13922 0
M  V30 26021 O 2588.99 -1.9463 0.222671 0
M  V30 26022 H 2587.57 -0.140993 0.733573 0
M  V30 26023 H 2590.23 0.34915 1.91747 0
M  V30 26024 H 2589.33 -0.680743 3.04585 0
M  V30 26025 N 2589.63 -1.57583 -0.0233682 0
M  V30 26026 C 2590.86 -1.93514 -0.723597 0
M  V30 26027 C 2591.27 -0.848362 -1.69114 0
M  V30 26028 O 2590.61 0.183452 -1.82782 0
M  V30 26029 C 2590.67 -3.25285 -1.53069 0
M  V30 26030 C 2590.34 -4.51175 -0.727308 0
M  V30 26031 C 2591.34 -5.19894 -0.025101 0
M  V30 26032 C 2589.02 -4.97674 -0.680168 0
M  V30 26033 C 2591.01 -6.33394 0.713486 0
M  V30 26034 C 2588.7 -6.11068 0.0621597 0
M  V30 26035 C 2589.7 -6.78784 0.757741 0
M  V30 26036 O 2589.39 -7.90009 1.48801 0
M  V30 26037 H 2589.12 -0.643192 -0.208039 0
M  V30 26038 H 2591.67 -2.05393 0.016785 0
M  V30 26039 H 2589.9 -3.09748 -2.31502 0
M  V30 26040 H 2591.59 -3.465 -2.11407 0
M  V30 26041 H 2592.36 -4.84972 -0.0525151 0
M  V30 26042 H 2588.24 -4.44808 -1.21109 0
M  V30 26043 H 2591.78 -6.86183 1.25695 0
M  V30 26044 H 2587.68 -6.45435 0.0914768 0
M  V30 26045 H 2588.45 -8.06398 1.40228 0
M  V30 26046 N 2591.11 0.29574 -1.548 0
M  V30 26047 C 2592.36 1.02795 -1.7354 0
M  V30 26048 C 2592.67 1.88249 -0.531192 0
M  V30 26049 O 2593.88 2.64776 -0.600505 0
M  V30 26050 C 2592.33 1.87738 -3.07054 0
M  V30 26051 C 2591.94 1.07262 -4.3497 0
M  V30 26052 C 2593.69 2.60527 -3.35151 0
M  V30 26053 C 2591.59 1.91511 -5.59533 0
M  V30 26054 H 2590.52 0.387511 -0.646801 0
M  V30 26055 H 2593.17 0.284687 -1.81278 0
M  V30 26056 H 2591.56 2.66073 -2.93294 0
M  V30 26057 H 2592.73 0.335036 -4.5958 0
M  V30 26058 H 2591.04 0.460311 -4.13848 0
M  V30 26059 H 2593.64 3.23922 -4.25416 0
M  V30 26060 H 2593.98 3.29632 -2.54261 0
M  V30 26061 H 2594.52 1.89238 -3.49906 0
M  V30 26062 H 2591.26 1.26867 -6.43106 0
M  V30 26063 H 2590.78 2.62928 -5.391 0
M  V30 26064 H 2592.46 2.49432 -5.96986 0
M  V30 26065 N 2592.59 1.47346 0.559187 0
M  V30 26066 C 2593.53 1.59684 1.66642 0
M  V30 26067 C 2594.5 0.439968 1.60167 0
M  V30 26068 O 2595.69 0.659768 1.7903 0
M  V30 26069 C 2592.83 1.61523 3.04966 0
M  V30 26070 C 2591.94 2.88114 3.21892 0
M  V30 26071 C 2591.08 2.81302 4.50603 0
M  V30 26072 C 2590.12 4.02725 4.60954 0
M  V30 26073 N 2589.25 3.94161 5.81017 0
M  V30 26074 H 2594.09 2.54252 1.55434 0
M  V30 26075 H 2591.63 1.26115 0.757196 0
M  V30 26076 H 2593.59 1.60573 3.85061 0
M  V30 26077 H 2592.22 0.7047 3.15014 0
M  V30 26078 H 2591.27 2.9894 2.35242 0
M  V30 26079 H 2592.58 3.78038 3.25405 0
M  V30 26080 H 2591.74 2.78589 5.38955 0
M  V30 26081 H 2590.48 1.89057 4.49565 0
M  V30 26082 H 2589.48 4.05745 3.71014 0
M  V30 26083 H 2590.71 4.96095 4.63753 0
M  V30 26084 H 2588.65 3.04718 5.80933 0
M  V30 26085 H 2588.57 4.77763 5.859 0
M  V30 26086 H 2589.84 3.95462 6.71737 0
M  V30 26087 N 2594.07 -0.805758 1.35445 0
M  V30 26088 C 2595.31 -1.56288 1.28764 0
M  V30 26089 C 2595.64 -1.94012 -0.137713 0
M  V30 26090 O 2594.9 -1.61644 -1.10317 0
M  V30 26091 C 2595.19 -2.86212 2.1405 0
M  V30 26092 C 2594.86 -2.67703 3.6283 0
M  V30 26093 C 2593.52 -2.62363 4.03385 0
M  V30 26094 C 2595.87 -2.50178 4.57231 0
M  V30 26095 C 2593.2 -2.37442 5.36506 0
M  V30 26096 C 2595.55 -2.26786 5.90551 0
M  V30 26097 C 2594.22 -2.19869 6.30249 0
M  V30 26098 H 2593.49 -0.5719 0.471181 0
M  V30 26099 H 2596.14 -0.930944 1.67349 0
M  V30 26100 H 2594.44 -3.53788 1.68348 0
M  V30 26101 H 2596.14 -3.43913 2.06216 0
M  V30 26102 H 2592.73 -2.72707 3.30649 0
M  V30 26103 H 2596.91 -2.53315 4.26784 0
M  V30 26104 H 2592.17 -2.30557 5.66263 0
M  V30 26105 H 2596.34 -2.12217 6.63277 0
M  V30 26106 H 2593.97 -2.0032 7.33332 0
M  V30 26107 N 2595.54 -1.19456 -1.02801 0
M  V30 26108 C 2596.77 -1.02367 -1.80377 0
M  V30 26109 C 2597.19 0.422975 -1.83283 0
M  V30 26110 O 2596.55 1.30411 -1.25947 0
M  V30 26111 C 2596.6 -1.59827 -3.23246 0
M  V30 26112 O 2595.7 -0.828176 -4.03999 0
M  V30 26113 H 2595.04 -0.361771 -0.556792 0
M  V30 26114 H 2597.57 -1.58498 -1.29382 0
M  V30 26115 H 2597.58 -1.63079 -3.73991 0
M  V30 26116 H 2596.26 -2.65118 -3.20445 0
M  V30 26117 H 2594.84 -0.868973 -3.62634 0
M  V30 26118 N 2597.02 1.21924 -0.998617 0
M  V30 26119 C 2597.97 2.26084 -0.546681 0
M  V30 26120 C 2598.96 1.64474 0.405547 0
M  V30 26121 O 2600.17 1.77849 0.27744 0
M  V30 26122 H 2596.54 0.735125 -0.158416 0
M  V30 26123 H 2598.52 2.61548 -1.43649 0
M  V30 26124 C 2597.26 3.47502 0.117327 0
M  V30 26125 H 2596.59 3.95175 -0.606346 0
M  V30 26126 H 2598.03 4.22138 0.396918 0
M  V30 26127 C 2596.49 3.08472 1.35449 0
M  V30 26128 O 2597.02 3.18384 2.44938 0
M  V30 26129 N 2595.22 2.63199 1.23186 0
M  V30 26130 H 2594.77 2.55334 0.340961 0
M  V30 26131 H 2594.73 2.37453 2.06067 0
M  V30 26132 N 2598.5 0.772537 1.37367 0
M  V30 26133 C 2599.43 0.173345 2.32856 0
M  V30 26134 C 2600.41 -0.682234 1.55819 0
M  V30 26135 O 2601.6 -0.619534 1.84053 0
M  V30 26136 C 2598.73 -0.705947 3.4005 0
M  V30 26137 C 2597.68 0.0483896 4.27973 0
M  V30 26138 C 2597.01 -0.950399 5.26186 0
M  V30 26139 C 2598.31 1.22785 5.07662 0
M  V30 26140 H 2600 0.971052 2.83215 0
M  V30 26141 H 2597.55 0.468401 1.36169 0
M  V30 26142 H 2599.5 -1.13494 4.05829 0
M  V30 26143 H 2598.22 -1.53618 2.88217 0
M  V30 26144 H 2596.88 0.458171 3.63726 0
M  V30 26145 H 2596.53 -1.7752 4.70633 0
M  V30 26146 H 2596.23 -0.450211 5.85873 0
M  V30 26147 H 2597.75 -1.37832 5.9484 0
M  V30 26148 H 2599.17 0.875466 5.66576 0
M  V30 26149 H 2597.56 1.66018 5.76679 0
M  V30 26150 H 2598.63 2.03157 4.4029 0
M  V30 26151 N 2599.98 -1.48664 0.523142 0
M  V30 26152 C 2601.23 -2.01694 -0.0154046 0
M  V30 26153 C 2601.54 -1.40609 -1.35973 0
M  V30 26154 O 2602.75 -1.85096 -1.98624 0
M  V30 26155 C 2601.2 -3.59816 -0.0778671 0
M  V30 26156 C 2600.81 -4.29883 1.26114 0
M  V30 26157 C 2602.55 -4.20715 -0.565604 0
M  V30 26158 C 2600.46 -5.79919 1.15964 0
M  V30 26159 H 2599.39 -0.75394 -0.00952838 0
M  V30 26160 H 2602.04 -1.70991 0.665895 0
M  V30 26161 H 2600.42 -3.8733 -0.824097 0
M  V30 26162 H 2601.6 -4.14048 2.0224 0
M  V30 26163 H 2599.91 -3.80825 1.68407 0
M  V30 26164 H 2602.51 -5.30618 -0.659406 0
M  V30 26165 H 2602.85 -3.8557 -1.56977 0
M  V30 26166 H 2603.39 -3.97604 0.12474 0
M  V30 26167 H 2600.12 -6.19627 2.13875 0
M  V30 26168 H 2599.64 -5.98187 0.439634 0
M  V30 26169 H 2601.32 -6.41426 0.847473 0
M  V30 26170 N 2601.46 -0.257958 -1.55475 0
M  V30 26171 C 2602.39 0.669842 -2.19193 0
M  V30 26172 C 2603.4 1.13048 -1.1715 0
M  V30 26173 O 2604.59 1.05534 -1.43961 0
M  V30 26174 C 2601.69 1.92358 -2.79019 0
M  V30 26175 C 2600.86 1.61258 -4.06589 0
M  V30 26176 C 2599.92 2.71702 -4.50627 0
M  V30 26177 O 2598.95 2.38617 -5.16769 0
M  V30 26178 N 2600.15 4.01423 -4.19332 0
M  V30 26179 H 2602.91 0.124583 -2.99441 0
M  V30 26180 H 2600.48 -0.0783595 -1.6171 0
M  V30 26181 H 2602.47 2.65506 -3.05432 0
M  V30 26182 H 2601.04 2.37833 -2.02865 0
M  V30 26183 H 2600.26 0.715743 -3.87648 0
M  V30 26184 H 2601.55 1.37958 -4.8974 0
M  V30 26185 H 2600.94 4.31131 -3.66255 0
M  V30 26186 H 2599.5 4.71002 -4.50556 0
M  V30 26187 N 2602.93 1.57593 0.0150108 0
M  V30 26188 C 2604.21 1.81096 0.739168 0
M  V30 26189 C 2604.59 0.859378 1.92816 0
M  V30 26190 O 2603.94 -0.0953219 2.28301 0
M  V30 26191 C 2604.15 3.29193 1.15901 0
M  V30 26192 C 2605.5 3.94543 1.56911 0
M  V30 26193 O 2606.52 3.33426 1.25322 0
M  V30 26194 O 2605.38 5.02176 2.15595 0
M  V30 26195 H 2602.47 0.7452 0.358618 0
M  V30 26196 H 2605.02 1.69697 -0.00929139 0
M  V30 26197 H 2603.79 3.90063 0.310853 0
M  V30 26198 H 2603.42 3.45533 1.96705 0
M  V30 26199 N 2604.41 -0.287527 1.54955 0
M  V30 26200 C 2605.64 -1.04394 1.79211 0
M  V30 26201 C 2606.06 -1.79681 0.556463 0
M  V30 26202 O 2605.42 -1.74455 -0.493487 0
M  V30 26203 C 2605.47 -1.98963 3.00742 0
M  V30 26204 O 2604.57 -3.07495 2.7481 0
M  V30 26205 H 2603.91 -0.299217 0.592761 0
M  V30 26206 H 2606.44 -0.320851 2.02069 0
M  V30 26207 H 2606.45 -2.41184 3.29081 0
M  V30 26208 H 2605.13 -1.43575 3.90332 0
M  V30 26209 H 2603.71 -2.69693 2.57527 0
M  V30 26210 N 2605.89 -1.47641 -0.551365 0
M  V30 26211 C 2607.14 -1.5426 -1.30569 0
M  V30 26212 C 2607.46 -0.208997 -1.93877 0
M  V30 26213 O 2606.73 0.767588 -1.80236 0
M  V30 26214 H 2605.31 -0.56824 -0.484884 0
M  V30 26215 H 2607.97 -1.83975 -0.64337 0
M  V30 26216 H 2607.07 -2.3123 -2.09617 0
M  V30 26217 N 2607.37 0.798563 -1.3587 0
M  V30 26218 C 2608.3 1.92526 -1.32121 0
M  V30 26219 C 2609.28 1.68987 -0.194239 0
M  V30 26220 O 2610.46 1.90234 -0.39046 0
M  V30 26221 C 2607.59 3.29402 -1.10053 0
M  V30 26222 C 2606.55 3.67442 -2.19477 0
M  V30 26223 C 2605.87 5.02568 -1.82564 0
M  V30 26224 C 2607.17 3.7698 -3.61501 0
M  V30 26225 H 2608.87 1.9592 -2.26397 0
M  V30 26226 H 2606.41 0.941211 -1.08983 0
M  V30 26227 H 2608.37 4.07833 -1.06068 0
M  V30 26228 H 2607.09 3.26371 -0.122252 0
M  V30 26229 H 2605.75 2.91302 -2.22573 0
M  V30 26230 H 2605.4 4.96049 -0.833336 0
M  V30 26231 H 2605.1 5.2899 -2.55819 0
M  V30 26232 H 2606.62 5.83429 -1.80118 0
M  V30 26233 H 2608.04 4.45624 -3.60683 0
M  V30 26234 H 2606.43 4.14879 -4.33584 0
M  V30 26235 H 2607.5 2.78322 -3.9707 0
M  V30 26236 N 2608.85 1.19999 1.02166 0
M  V30 26237 C 2609.78 0.968077 2.12486 0
M  V30 26238 C 2610.76 -0.101155 1.69799 0
M  V30 26239 O 2611.94 0.0553334 1.94121 0
M  V30 26240 C 2609.07 0.513836 3.43478 0
M  V30 26241 C 2608.03 1.52573 3.99882 0
M  V30 26242 C 2607.35 0.928307 5.2658 0
M  V30 26243 C 2608.65 2.90803 4.33856 0
M  V30 26244 H 2610.35 1.89074 2.32146 0
M  V30 26245 H 2607.89 0.910488 1.11562 0
M  V30 26246 H 2609.85 0.338847 4.20035 0
M  V30 26247 H 2608.57 -0.444436 3.23562 0
M  V30 26248 H 2607.23 1.68799 3.25426 0
M  V30 26249 H 2606.88 -0.0377405 5.02986 0
M  V30 26250 H 2606.58 1.60407 5.65282 0
M  V30 26251 H 2608.1 0.764274 6.05798 0
M  V30 26252 H 2609.51 2.78118 5.01322 0
M  V30 26253 H 2607.91 3.55239 4.83658 0
M  V30 26254 H 2608.98 3.4291 3.42842 0
M  V30 26255 N 2610.32 -1.21392 1.00507 0
M  V30 26256 C 2611.55 -1.94999 0.706401 0
M  V30 26257 C 2611.97 -1.73583 -0.7246 0
M  V30 26258 O 2611.33 -1.02272 -1.497 0
M  V30 26259 C 2611.38 -3.45486 1.03306 0
M  V30 26260 O 2610.48 -4.12168 0.138347 0
M  V30 26261 H 2609.83 -0.609614 0.263186 0
M  V30 26262 H 2612.36 -1.54149 1.34533 0
M  V30 26263 H 2612.37 -3.96057 0.979942 0
M  V30 26264 H 2611.04 -3.60397 2.07573 0
M  V30 26265 H 2609.62 -3.72074 0.247994 0
M  V30 26266 N 2611.8 -0.779811 -1.36955 0
M  V30 26267 C 2613.05 -0.348316 -1.99786 0
M  V30 26268 C 2613.38 1.07462 -1.61758 0
M  V30 26269 O 2612.66 1.74074 -0.867669 0
M  V30 26270 C 2612.94 -0.501102 -3.56596 0
M  V30 26271 C 2612.79 -1.96704 -4.04509 0
M  V30 26272 C 2614.11 0.0897324 -4.40009 0
M  V30 26273 H 2611.23 -0.128034 -0.725794 0
M  V30 26274 H 2613.87 -0.98436 -1.62513 0
M  V30 26275 H 2612.02 0.0403664 -3.88479 0
M  V30 26276 H 2613.69 -2.56883 -3.83156 0
M  V30 26277 H 2611.94 -2.47303 -3.56404 0
M  V30 26278 H 2612.61 -2.02495 -5.13517 0
M  V30 26279 H 2615.08 -0.372366 -4.14431 0
M  V30 26280 H 2613.96 -0.047257 -5.4888 0
M  V30 26281 H 2614.22 1.18088 -4.26037 0
M  V30 26282 N 2613.28 1.48384 -0.531019 0
M  V30 26283 C 2614.53 2.01699 0.00470803 0
M  V30 26284 C 2614.84 1.41328 1.35225 0
M  V30 26285 O 2616.05 1.86147 1.9764 0
M  V30 26286 C 2614.5 3.59852 0.0587841 0
M  V30 26287 C 2614.11 4.29208 -1.28392 0
M  V30 26288 C 2615.86 4.21009 0.543284 0
M  V30 26289 C 2613.76 5.79296 -1.19038 0
M  V30 26290 H 2612.69 0.75398 0.00552992 0
M  V30 26291 H 2615.34 1.70636 -0.674954 0
M  V30 26292 H 2613.73 3.87762 0.803544 0
M  V30 26293 H 2614.9 4.12969 -2.04433 0
M  V30 26294 H 2613.22 3.79927 -1.70425 0
M  V30 26295 H 2615.81 5.30961 0.631257 0
M  V30 26296 H 2616.16 3.86397 1.5493 0
M  V30 26297 H 2616.69 3.97533 -0.145824 0
M  V30 26298 H 2613.43 6.18484 -2.17158 0
M  V30 26299 H 2612.95 5.97945 -0.471351 0
M  V30 26300 H 2614.63 6.40967 -0.881478 0
M  V30 26301 N 2614.76 0.2662 1.55336 0
M  V30 26302 C 2615.99 -0.35672 2.03802 0
M  V30 26303 C 2616.4 -1.50127 1.14487 0
M  V30 26304 O 2615.76 -1.81769 0.163153 0
M  V30 26305 C 2615.81 -0.846219 3.51456 0
M  V30 26306 O 2615.53 0.25274 4.3737 0
M  V30 26307 C 2617.03 -1.53787 4.1577 0
M  V30 26308 H 2614.25 -0.0825101 0.665908 0
M  V30 26309 H 2616.8 0.395695 2.00635 0
M  V30 26310 H 2614.95 -1.54875 3.55095 0
M  V30 26311 H 2615.36 -0.122081 5.24358 0
M  V30 26312 H 2616.84 -1.83188 5.20717 0
M  V30 26313 H 2617.32 -2.4664 3.63408 0
M  V30 26314 H 2617.92 -0.879415 4.16109 0
M  V30 26315 N 2616.24 -1.57599 -0.0066531 0
M  V30 26316 C 2617.51 -1.81485 -0.729554 0
M  V30 26317 C 2617.89 -0.869591 -1.92357 0
M  V30 26318 O 2617.24 0.0832132 -2.28348 0
M  V30 26319 C 2617.45 -3.29803 -1.14154 0
M  V30 26320 C 2618.8 -3.95369 -1.54816 0
M  V30 26321 O 2619.82 -3.34086 -1.23552 0
M  V30 26322 O 2618.68 -5.03313 -2.12929 0
M  V30 26323 H 2615.78 -0.747091 -0.354661 0
M  V30 26324 H 2618.32 -1.6969 0.0182907 0
M  V30 26325 H 2617.09 -3.90223 -0.290162 0
M  V30 26326 H 2616.72 -3.46571 -1.9487 0
M  V30 26327 N 2617.72 0.279305 -1.55105 0
M  V30 26328 C 2619.13 0.850803 -1.66187 0
M  V30 26329 C 2619.48 1.87284 -0.58474 0
M  V30 26330 O 2618.6 2.14647 0.274882 0
M  V30 26331 C 2619.2 1.54996 -3.01267 0
M  V30 26332 C 2617.76 2.06957 -3.14397 0
M  V30 26333 C 2616.9 0.90949 -2.61961 0
M  V30 26334 H 2619.85 0.0557957 -1.58602 0
M  V30 26335 H 2619.88 2.41664 -2.93903 0
M  V30 26336 H 2619.39 0.805864 -3.79641 0
M  V30 26337 H 2617.49 2.84348 -2.40784 0
M  V30 26338 H 2617.6 2.28921 -4.20871 0
M  V30 26339 H 2615.97 1.30112 -2.18959 0
M  V30 26340 H 2616.75 0.179002 -3.42833 0
M  V30 26341 N 2619.19 1.47931 0.543528 0
M  V30 26342 C 2620.44 1.54514 1.29647 0
M  V30 26343 C 2620.76 0.218007 1.94381 0
M  V30 26344 O 2621.96 0.161955 2.71017 0
M  V30 26345 C 2620.42 2.72439 2.3517 0
M  V30 26346 C 2620.03 4.11739 1.76565 0
M  V30 26347 C 2621.77 2.88325 3.11559 0
M  V30 26348 C 2619.68 5.20944 2.79949 0
M  V30 26349 H 2618.61 0.575178 0.487531 0
M  V30 26350 H 2621.26 1.74236 0.575677 0
M  V30 26351 H 2619.64 2.46124 3.10224 0
M  V30 26352 H 2620.81 4.48015 1.07791 0
M  V30 26353 H 2619.13 4.00854 1.12715 0
M  V30 26354 H 2621.73 3.6708 3.88788 0
M  V30 26355 H 2622.07 1.97275 3.6659 0
M  V30 26356 H 2622.6 3.14476 2.43618 0
M  V30 26357 H 2619.34 6.13916 2.29755 0
M  V30 26358 H 2618.86 4.8917 3.47092 0
M  V30 26359 H 2620.54 5.4848 3.43189 0
M  V30 26360 N 2620.67 -0.791347 1.36292 0
M  V30 26361 C 2621.62 -1.8936 1.26991 0
M  V30 26362 C 2622.61 -1.60084 0.161823 0
M  V30 26363 O 2623.8 -1.72549 0.394456 0
M  V30 26364 C 2620.93 -3.26542 1.0595 0
M  V30 26365 C 2620.01 -3.61834 2.21217 0
M  V30 26366 N 2620.4 -3.68449 3.46525 0
M  V30 26367 C 2618.7 -3.91883 2.1294 0
M  V30 26368 C 2619.4 -3.99924 4.22417 0
M  V30 26369 N 2618.38 -4.14806 3.51336 0
M  V30 26370 H 2622.18 -1.92698 2.21912 0
M  V30 26371 H 2619.69 -0.986765 1.28983 0
M  V30 26372 H 2621.69 -4.05369 0.973738 0
M  V30 26373 H 2620.35 -3.24481 0.11928 0
M  V30 26374 H 2621.36 -3.51142 3.80684 0
M  V30 26375 H 2618.04 -3.97759 1.26862 0
M  V30 26376 H 2619.43 -4.11981 5.30774 0
M  V30 26377 N 2622.15 -1.2054 -1.01528 0
M  V30 26378 C 2623.38 -1.04202 -1.78744 0
M  V30 26379 C 2623.79 0.4087 -1.84323 0
M  V30 26380 O 2623.15 1.28374 -1.29716 0
M  V30 26381 C 2623.2 -1.6204 -3.23149 0
M  V30 26382 O 2622.92 -3.01435 -3.17913 0
M  V30 26383 C 2624.42 -1.50673 -4.16908 0
M  V30 26384 H 2621.64 -0.366488 -0.562074 0
M  V30 26385 H 2624.19 -1.59655 -1.27791 0
M  V30 26386 H 2622.34 -1.10704 -3.71246 0
M  V30 26387 H 2622.76 -3.28904 -4.08561 0
M  V30 26388 H 2624.23 -1.95901 -5.16069 0
M  V30 26389 H 2624.71 -0.45944 -4.3679 0
M  V30 26390 H 2625.31 -2.01207 -3.74694 0
M  V30 26391 N 2623.63 1.20858 -1.01149 0
M  V30 26392 C 2625.04 1.71827 -0.730235 0
M  V30 26393 C 2625.39 1.81232 0.751631 0
M  V30 26394 O 2624.51 1.47135 1.58683 0
M  V30 26395 C 2625.11 3.12074 -1.3189 0
M  V30 26396 C 2623.67 3.60374 -1.08662 0
M  V30 26397 C 2622.82 2.3772 -1.42774 0
M  V30 26398 H 2625.77 1.05943 -1.1816 0
M  V30 26399 H 2625.79 3.73877 -0.706859 0
M  V30 26400 H 2625.3 3.05197 -2.39742 0
M  V30 26401 H 2623.4 3.72591 -0.0255469 0
M  V30 26402 H 2623.51 4.4548 -1.76308 0
M  V30 26403 H 2621.88 2.40217 -0.846645 0
M  V30 26404 H 2622.66 2.33489 -2.5167 0
M  V30 26405 N 2625.11 0.787064 1.3654 0
M  V30 26406 C 2626.35 0.358907 1.99599 0
M  V30 26407 C 2626.68 -1.06603 1.62325 0
M  V30 26408 O 2625.96 -1.73611 0.876889 0
M  V30 26409 C 2626.24 0.520006 3.56326 0
M  V30 26410 C 2626.1 1.98846 4.0346 0
M  V30 26411 C 2627.41 -0.0663964 4.4005 0
M  V30 26412 H 2624.53 0.131882 0.725104 0
M  V30 26413 H 2627.18 0.992964 1.61988 0
M  V30 26414 H 2625.33 -0.0197638 3.88495 0
M  V30 26415 H 2627 2.58911 3.81789 0
M  V30 26416 H 2625.24 2.4919 3.55087 0
M  V30 26417 H 2625.91 2.05216 5.12436 0
M  V30 26418 H 2628.39 0.394339 4.14227 0
M  V30 26419 H 2627.26 0.0763647 5.48847 0
M  V30 26420 H 2627.52 -1.15827 4.26657 0
M  V30 26421 N 2626.58 -1.48101 0.53888 0
M  V30 26422 C 2627.81 -2.06896 0.01235 0
M  V30 26423 C 2628.23 -1.39419 -1.2731 0
M  V30 26424 O 2627.58 -0.484613 -1.75948 0
M  V30 26425 C 2627.63 -3.60912 -0.206055 0
M  V30 26426 O 2627.36 -4.25857 1.02847 0
M  V30 26427 C 2628.86 -4.36527 -0.771956 0
M  V30 26428 H 2626.08 -0.669949 0.0375357 0
M  V30 26429 H 2628.62 -1.90366 0.747065 0
M  V30 26430 H 2626.78 -3.77018 -0.890844 0
M  V30 26431 H 2627.19 -5.18133 0.814745 0
M  V30 26432 H 2628.66 -5.45034 -0.874155 0
M  V30 26433 H 2629.14 -4.01559 -1.77897 0
M  V30 26434 H 2629.75 -4.25121 -0.123451 0
M  V30 26435 N 2628.06 -0.274434 -1.55192 0
M  V30 26436 C 2628.99 0.606993 -2.25473 0
M  V30 26437 C 2629.97 1.15944 -1.24463 0
M  V30 26438 O 2631.16 1.1937 -1.53181 0
M  V30 26439 C 2628.29 1.79147 -2.97529 0
M  V30 26440 C 2627.24 1.37059 -4.05461 0
M  V30 26441 C 2626.57 2.63812 -4.65089 0
M  V30 26442 C 2627.87 0.521298 -5.19692 0
M  V30 26443 H 2629.56 0.0208817 -2.99393 0
M  V30 26444 H 2627.11 0.00860334 -1.43997 0
M  V30 26445 H 2629.06 2.41398 -3.45406 0
M  V30 26446 H 2627.78 2.4034 -2.21143 0
M  V30 26447 H 2626.44 0.771292 -3.58395 0
M  V30 26448 H 2626.09 3.23262 -3.85371 0
M  V30 26449 H 2625.79 2.36363 -5.37965 0
M  V30 26450 H 2627.32 3.26912 -5.15714 0
M  V30 26451 H 2628.73 1.04879 -5.63625 0
M  V30 26452 H 2627.13 0.34172 -5.99126 0
M  V30 26453 H 2628.2 -0.460085 -4.82712 0
M  V30 26454 N 2629.54 1.576 -0.00170483 0
M  V30 26455 C 2630.79 1.90642 0.682786 0
M  V30 26456 C 2631.11 0.875446 1.73684 0
M  V30 26457 O 2630.37 -0.119541 1.95335 0
M  V30 26458 C 2630.67 3.30438 1.36183 0
M  V30 26459 C 2630.33 4.4874 0.440808 0
M  V30 26460 C 2629 4.80836 0.187227 0
M  V30 26461 C 2631.35 5.20842 -0.193226 0
M  V30 26462 C 2628.68 5.82405 -0.708652 0
M  V30 26463 C 2631.03 6.23365 -1.07699 0
M  V30 26464 C 2629.69 6.53917 -1.33973 0
M  V30 26465 H 2628.96 0.697608 0.249849 0
M  V30 26466 H 2631.61 1.91413 -0.0575979 0
M  V30 26467 H 2629.91 3.25798 2.1763 0
M  V30 26468 H 2631.61 3.53263 1.89753 0
M  V30 26469 H 2628.2 4.23664 0.64862 0
M  V30 26470 H 2632.39 4.96299 -0.0103317 0
M  V30 26471 H 2627.64 6.04435 -0.920204 0
M  V30 26472 H 2631.82 6.78365 -1.57463 0
M  V30 26473 H 2629.44 7.32439 -2.03562 0
M  V30 26474 N 2631.02 -0.271076 1.55251 0
M  V30 26475 C 2632.26 -0.999801 1.77131 0
M  V30 26476 C 2632.62 -1.83867 0.566622 0
M  V30 26477 O 2631.91 -1.86464 -0.440657 0
M  V30 26478 C 2632.11 -1.91316 3.01882 0
M  V30 26479 C 2631.93 -1.16418 4.3437 0
M  V30 26480 C 2630.7 -0.879081 4.97594 0
M  V30 26481 C 2632.9 -0.553659 5.11311 0
M  V30 26482 N 2630.88 -0.10351 6.13813 0
M  V30 26483 C 2632.26 0.0876531 6.19938 0
M  V30 26484 C 2634.31 -0.461695 4.95755 0
M  V30 26485 C 2633.01 0.812067 7.14701 0
M  V30 26486 C 2635.04 0.249131 5.90875 0
M  V30 26487 C 2634.4 0.879174 6.98892 0
M  V30 26488 H 2630.5 -0.347771 0.700414 0
M  V30 26489 H 2633.08 -0.27528 1.92744 0
M  V30 26490 H 2631.26 -2.60992 2.87642 0
M  V30 26491 H 2632.99 -2.57563 3.12159 0
M  V30 26492 H 2629.74 -1.18483 4.5854 0
M  V30 26493 H 2630.17 0.271662 6.76455 0
M  V30 26494 H 2634.81 -0.93448 4.12344 0
M  V30 26495 H 2632.53 1.29653 7.97631 0
M  V30 26496 H 2636.11 0.320631 5.80916 0
M  V30 26497 H 2634.99 1.42044 7.71228 0
M  V30 26498 N 2632.5 -1.48217 -0.535675 0
M  V30 26499 C 2633.91 -1.4955 -1.11767 0
M  V30 26500 C 2634.26 -0.262104 -1.94441 0
M  V30 26501 O 2633.38 0.63125 -2.06988 0
M  V30 26502 C 2633.98 -2.70978 -2.03363 0
M  V30 26503 C 2632.54 -2.75201 -2.56791 0
M  V30 26504 C 2631.68 -2.4298 -1.33627 0
M  V30 26505 H 2634.64 -1.55415 -0.321205 0
M  V30 26506 H 2634.66 -2.49172 -2.87565 0
M  V30 26507 H 2634.17 -3.6073 -1.43163 0
M  V30 26508 H 2632.27 -1.89643 -3.20728 0
M  V30 26509 H 2632.38 -3.76477 -2.96313 0
M  V30 26510 H 2630.75 -1.94015 -1.65017 0
M  V30 26511 H 2631.53 -3.34965 -0.751881 0
M  V30 26512 N 2633.97 0.784108 -1.3671 0
M  V30 26513 C 2635.2 1.57303 -1.344 0
M  V30 26514 C 2635.62 1.88657 0.0735246 0
M  V30 26515 O 2634.97 1.50525 1.03191 0
M  V30 26516 C 2635.03 2.89082 -2.17058 0
M  V30 26517 O 2634.75 2.59077 -3.53286 0
M  V30 26518 C 2636.25 3.83365 -2.22589 0
M  V30 26519 H 2633.47 0.487728 -0.460828 0
M  V30 26520 H 2636.01 0.972788 -1.79881 0
M  V30 26521 H 2634.17 3.45561 -1.75119 0
M  V30 26522 H 2634.58 3.43376 -3.96476 0
M  V30 26523 H 2636.05 4.72873 -2.84772 0
M  V30 26524 H 2636.53 4.21601 -1.23083 0
M  V30 26525 H 2637.14 3.32818 -2.64787 0
M  V30 26526 N 2635.45 1.21076 1.00888 0
M  V30 26527 C 2636.73 0.934499 1.71833 0
M  V30 26528 C 2637.11 -0.554717 2.03681 0
M  V30 26529 O 2636.46 -1.51851 1.70744 0
M  V30 26530 C 2636.67 1.81555 2.98058 0
M  V30 26531 C 2638.02 2.06206 3.71166 0
M  V30 26532 O 2639.04 1.78872 3.08031 0
M  V30 26533 O 2637.9 2.52412 4.84717 0
M  V30 26534 H 2634.99 0.350083 0.749247 0
M  V30 26535 H 2637.54 1.31987 1.06666 0
M  V30 26536 H 2636.31 2.8236 2.70903 0
M  V30 26537 H 2635.93 1.43075 3.70965 0
M  V30 26538 N 2636.93 -1.2032 1.01789 0
M  V30 26539 C 2637.86 -2.22567 0.547396 0
M  V30 26540 C 2638.88 -1.58519 -0.370894 0
M  V30 26541 O 2640.06 -1.77698 -0.169036 0
M  V30 26542 C 2637.16 -3.38166 -0.222972 0
M  V30 26543 C 2636.34 -4.31802 0.697547 0
M  V30 26544 C 2635.4 -5.26194 -0.0254695 0
M  V30 26545 O 2634.42 -5.66056 0.597466 0
M  V30 26546 N 2635.62 -5.65759 -1.29989 0
M  V30 26547 H 2638.39 -2.63561 1.42673 0
M  V30 26548 H 2635.95 -1.34874 0.895576 0
M  V30 26549 H 2637.94 -3.98317 -0.715932 0
M  V30 26550 H 2636.51 -2.96051 -1.00361 0
M  V30 26551 H 2635.73 -3.69598 1.37079 0
M  V30 26552 H 2637.02 -4.91283 1.32356 0
M  V30 26553 H 2636.42 -5.35388 -1.8269 0
M  V30 26554 H 2634.98 -6.28214 -1.73755 0
M  V30 26555 N 2638.41 -0.794293 -1.3612 0
M  V30 26556 C 2639.37 -0.201929 -2.28309 0
M  V30 26557 C 2640.37 0.603577 -1.49042 0
M  V30 26558 O 2641.56 0.423858 -1.68965 0
M  V30 26559 C 2638.69 0.719919 -3.33212 0
M  V30 26560 H 2639.89 -1.01486 -2.82207 0
M  V30 26561 H 2637.44 -0.564062 -1.45767 0
M  V30 26562 H 2638.17 1.55701 -2.84478 0
M  V30 26563 H 2637.96 0.144197 -3.91835 0
M  V30 26564 H 2639.45 1.12909 -4.02046 0
M  V30 26565 N 2639.89 1.47813 -0.546727 0
M  V30 26566 C 2640.82 2.32682 0.195276 0
M  V30 26567 C 2641.8 1.43141 0.918956 0
M  V30 26568 O 2642.98 1.72009 0.90147 0
M  V30 26569 C 2640.11 3.24702 1.23231 0
M  V30 26570 C 2639.07 4.23401 0.625743 0
M  V30 26571 C 2638.39 5.04672 1.76665 0
M  V30 26572 C 2639.69 5.2066 -0.413606 0
M  V30 26573 H 2641.39 2.94968 -0.513236 0
M  V30 26574 H 2638.93 1.41844 -0.248266 0
M  V30 26575 H 2640.89 3.8291 1.75948 0
M  V30 26576 H 2639.61 2.60449 1.97063 0
M  V30 26577 H 2638.27 3.66404 0.119958 0
M  V30 26578 H 2637.92 4.36831 2.49375 0
M  V30 26579 H 2637.62 5.71487 1.36663 0
M  V30 26580 H 2639.14 5.65736 2.29728 0
M  V30 26581 H 2640.55 5.73294 0.0271035 0
M  V30 26582 H 2638.95 5.9562 -0.731929 0
M  V30 26583 H 2640.02 4.66776 -1.31334 0
M  V30 26584 N 2641.36 0.28266 1.55044 0
M  V30 26585 C 2642.31 -0.616211 2.19515 0
M  V30 26586 C 2643.3 -1.11275 1.16218 0
M  V30 26587 O 2644.49 -1.05657 1.42006 0
M  V30 26588 C 2641.62 -1.79635 2.92551 0
M  V30 26589 C 2640.71 -1.31664 4.03144 0
M  V30 26590 N 2641.1 -0.553606 5.02761 0
M  V30 26591 C 2639.39 -1.59895 4.16353 0
M  V30 26592 C 2640.1 -0.300438 5.80924 0
M  V30 26593 N 2639.07 -0.875022 5.36511 0
M  V30 26594 H 2642.87 -0.0254847 2.93889 0
M  V30 26595 H 2640.39 0.0865647 1.62169 0
M  V30 26596 H 2642.38 -2.45167 3.37193 0
M  V30 26597 H 2641.04 -2.39095 2.1969 0
M  V30 26598 H 2642.06 -0.200229 5.17513 0
M  V30 26599 H 2638.73 -2.20237 3.54686 0
M  V30 26600 H 2640.12 0.311171 6.71179 0
M  V30 26601 N 2642.84 -1.57597 0.0100627 0
M  V30 26602 C 2643.81 -2.07988 -0.962993 0
M  V30 26603 C 2644.81 -0.991195 -1.26617 0
M  V30 26604 O 2646 -1.25349 -1.20968 0
M  V30 26605 C 2643.13 -2.52978 -2.28506 0
M  V30 26606 H 2644.32 -2.95235 -0.526919 0
M  V30 26607 H 2641.87 -1.54483 -0.237612 0
M  V30 26608 H 2642.61 -1.69004 -2.76782 0
M  V30 26609 H 2642.39 -3.32497 -2.07818 0
M  V30 26610 H 2643.88 -2.92256 -2.98289 0
M  V30 26611 N 2644.32 0.262839 -1.55393 0
M  V30 26612 C 2645.25 1.32913 -1.9198 0
M  V30 26613 C 2646.23 1.51016 -0.782826 0
M  V30 26614 O 2647.42 1.6389 -1.04181 0
M  V30 26615 C 2644.55 2.68684 -2.2006 0
M  V30 26616 C 2643.5 2.65298 -3.35858 0
M  V30 26617 C 2642.83 4.04715 -3.49442 0
M  V30 26618 C 2644.13 2.23677 -4.71981 0
M  V30 26619 H 2645.82 1.02539 -2.81293 0
M  V30 26620 H 2643.37 0.491823 -1.35341 0
M  V30 26621 H 2645.32 3.43399 -2.44243 0
M  V30 26622 H 2644.04 3.00661 -1.27556 0
M  V30 26623 H 2642.7 1.9304 -3.11659 0
M  V30 26624 H 2642.35 4.33932 -2.54386 0
M  V30 26625 H 2642.05 4.03342 -4.27304 0
M  V30 26626 H 2643.57 4.81155 -3.75929 0
M  V30 26627 H 2644.99 2.88118 -4.95642 0
M  V30 26628 H 2643.39 2.33446 -5.52832 0
M  V30 26629 H 2644.46 1.18819 -4.70117 0
M  V30 26630 N 2645.8 1.48499 0.527807 0
M  V30 26631 C 2647.21 1.5014 1.10972 0
M  V30 26632 C 2647.56 0.272412 1.943 0
M  V30 26633 O 2646.69 -0.620264 2.0732 0
M  V30 26634 C 2647.28 2.72053 2.01923 0
M  V30 26635 C 2645.84 2.76559 2.55328 0
M  V30 26636 C 2644.99 2.43685 1.32336 0
M  V30 26637 H 2647.94 1.55584 0.312958 0
M  V30 26638 H 2647.96 2.50694 2.86239 0
M  V30 26639 H 2647.47 3.61484 1.41248 0
M  V30 26640 H 2645.57 1.91341 3.19717 0
M  V30 26641 H 2645.68 3.78044 2.94313 0
M  V30 26642 H 2644.05 1.94887 1.63985 0
M  V30 26643 H 2644.83 3.35359 0.734106 0
M  V30 26644 N 2647.28 -0.776847 1.37123 0
M  V30 26645 C 2648.24 -1.87158 1.32304 0
M  V30 26646 C 2649.24 -1.59174 0.228127 0
M  V30 26647 O 2650.43 -1.67351 0.483672 0
M  V30 26648 C 2647.56 -3.24195 1.05406 0
M  V30 26649 H 2648.76 -1.92844 2.29676 0
M  V30 26650 H 2646.31 -0.976038 1.22079 0
M  V30 26651 H 2647.04 -3.24187 0.0854442 0
M  V30 26652 H 2646.83 -3.45898 1.84654 0
M  V30 26653 H 2648.32 -4.04269 1.04671 0
M  V30 26654 N 2648.76 -1.2161 -1.00244 0
M  V30 26655 C 2649.67 -0.993746 -2.12513 0
M  V30 26656 C 2650.68 0.0549633 -1.73913 0
M  V30 26657 O 2651.86 -0.135654 -2.00943 0
M  V30 26658 C 2648.92 -0.564013 -3.42082 0
M  V30 26659 C 2647.98 -1.68523 -3.9484 0
M  V30 26660 C 2647.22 -1.27591 -5.18224 0
M  V30 26661 O 2647.44 -0.150606 -5.70201 0
M  V30 26662 O 2646.37 -2.0888 -5.64493 0
M  V30 26663 H 2650.2 -1.93412 -2.34149 0
M  V30 26664 H 2647.78 -1.0012 -1.10889 0
M  V30 26665 H 2649.67 -0.334268 -4.20072 0
M  V30 26666 H 2648.34 0.347608 -3.21828 0
M  V30 26667 H 2647.25 -1.96941 -3.18065 0
M  V30 26668 H 2648.58 -2.57437 -4.19508 0
M  V30 26669 N 2650.23 1.19778 -1.02425 0
M  V30 26670 C 2651.17 2.22274 -0.559192 0
M  V30 26671 C 2652.18 1.58713 0.362482 0
M  V30 26672 O 2653.37 1.77785 0.15961 0
M  V30 26673 C 2650.47 3.38279 0.205035 0
M  V30 26674 C 2649.64 4.31426 -0.720437 0
M  V30 26675 C 2648.7 5.262 -0.00243618 0
M  V30 26676 O 2647.73 5.65731 -0.627477 0
M  V30 26677 N 2648.93 5.6644 1.26987 0
M  V30 26678 H 2651.69 2.62801 -1.44068 0
M  V30 26679 H 2649.25 1.34397 -0.902716 0
M  V30 26680 H 2651.25 3.98691 0.694798 0
M  V30 26681 H 2649.82 2.9658 0.987895 0
M  V30 26682 H 2649.04 3.68866 -1.39037 0
M  V30 26683 H 2650.32 4.90575 -1.34959 0
M  V30 26684 H 2649.72 5.3635 1.79849 0
M  V30 26685 H 2648.28 6.29126 1.70421 0
M  V30 26686 N 2651.71 0.801501 1.35697 0
M  V30 26687 C 2652.64 0.166069 2.28598 0
M  V30 26688 C 2653.66 -0.631694 1.50045 0
M  V30 26689 O 2654.85 -0.46489 1.7234 0
M  V30 26690 C 2651.95 -0.787393 3.29626 0
M  V30 26691 C 2651.12 -0.0370941 4.37384 0
M  V30 26692 C 2650.18 -0.908284 5.18302 0
M  V30 26693 O 2649.2 -0.361089 5.68054 0
M  V30 26694 N 2650.41 -2.23103 5.35915 0
M  V30 26695 H 2653.17 0.96412 2.83769 0
M  V30 26696 H 2650.73 0.656495 1.47992 0
M  V30 26697 H 2652.72 -1.37432 3.8065 0
M  V30 26698 H 2651.29 -1.48627 2.75007 0
M  V30 26699 H 2650.51 0.731003 3.87363 0
M  V30 26700 H 2651.8 0.480198 5.06529 0
M  V30 26701 H 2651.2 -2.69959 4.9713 0
M  V30 26702 H 2649.76 -2.76731 5.90138 0
M  V30 26703 N 2653.19 -1.47521 0.554558 0
M  V30 26704 C 2654.47 -1.95567 -0.036036 0
M  V30 26705 C 2654.85 -1.49713 -1.48826 0
M  V30 26706 O 2654.19 -0.734755 -2.16365 0
M  V30 26707 C 2654.4 -3.48837 0.106692 0
M  V30 26708 C 2655.75 -4.24581 -0.0400153 0
M  V30 26709 O 2656.78 -3.56184 0.0341079 0
M  V30 26710 O 2655.64 -5.46138 -0.199015 0
M  V30 26711 H 2652.73 -0.824393 -0.0656149 0
M  V30 26712 H 2655.28 -1.57934 0.620894 0
M  V30 26713 H 2654.05 -3.75008 1.11734 0
M  V30 26714 H 2653.67 -3.93229 -0.587971 0
M  V30 26715 N 2654.67 -0.290879 -1.54892 0
M  V30 26716 C 2655.91 0.321356 -1.99934 0
M  V30 26717 C 2656.24 1.5467 -1.1793 0
M  V30 26718 O 2655.5 1.94211 -0.240936 0
M  V30 26719 C 2655.8 0.732335 -3.49817 0
M  V30 26720 C 2655.46 -0.390135 -4.49209 0
M  V30 26721 C 2654.12 -0.698306 -4.76106 0
M  V30 26722 C 2656.48 -1.14571 -5.08451 0
M  V30 26723 C 2653.8 -1.76536 -5.59511 0
M  V30 26724 C 2656.16 -2.2026 -5.93016 0
M  V30 26725 C 2654.82 -2.51695 -6.18228 0
M  V30 26726 H 2654.09 0.117592 -0.73161 0
M  V30 26727 H 2656.74 -0.407872 -1.87106 0
M  V30 26728 H 2655.04 1.54149 -3.60202 0
M  V30 26729 H 2656.74 1.21705 -3.82085 0
M  V30 26730 H 2653.33 -0.139836 -4.28372 0
M  V30 26731 H 2657.51 -0.920887 -4.87682 0
M  V30 26732 H 2652.77 -2.01374 -5.77285 0
M  V30 26733 H 2656.94 -2.79272 -6.3795 0
M  V30 26734 H 2654.57 -3.34511 -6.82647 0
M  V30 26735 N 2656.15 1.57589 -0.0184203 0
M  V30 26736 C 2657.08 2.12601 0.965559 0
M  V30 26737 C 2658.06 1.03953 1.3464 0
M  V30 26738 O 2659.24 1.31731 1.4269 0
M  V30 26739 C 2656.37 2.64438 2.25145 0
M  V30 26740 C 2655.33 3.77777 2.01168 0
M  V30 26741 C 2654.65 4.15999 3.35929 0
M  V30 26742 C 2655.95 5.04298 1.35944 0
M  V30 26743 H 2657.65 2.95068 0.507452 0
M  V30 26744 H 2655.19 1.41941 0.242646 0
M  V30 26745 H 2657.14 3.01554 2.94352 0
M  V30 26746 H 2655.87 1.79117 2.73102 0
M  V30 26747 H 2654.53 3.41082 1.34382 0
M  V30 26748 H 2654.18 3.27676 3.81625 0
M  V30 26749 H 2653.88 4.92369 3.20696 0
M  V30 26750 H 2655.4 4.5569 4.06422 0
M  V30 26751 H 2656.81 5.39069 1.95135 0
M  V30 26752 H 2655.21 5.85595 1.31142 0
M  V30 26753 H 2656.28 4.83769 0.330986 0
M  V30 26754 N 2657.62 -0.254594 1.5553 0
M  V30 26755 C 2658.87 -0.983705 1.77001 0
M  V30 26756 C 2659.2 -1.85608 0.581363 0
M  V30 26757 O 2658.45 -1.90791 -0.435587 0
M  V30 26758 C 2658.75 -1.88103 3.03895 0
M  V30 26759 C 2658.42 -1.16465 4.35599 0
M  V30 26760 C 2657.08 -0.966631 4.71391 0
M  V30 26761 C 2659.43 -0.656296 5.17051 0
M  V30 26762 C 2656.76 -0.247839 5.86176 0
M  V30 26763 C 2659.11 0.0489919 6.32581 0
M  V30 26764 C 2657.78 0.258556 6.66999 0
M  V30 26765 H 2657.05 -0.359963 0.647694 0
M  V30 26766 H 2659.69 -0.25443 1.89802 0
M  V30 26767 H 2658 -2.67712 2.86073 0
M  V30 26768 H 2659.7 -2.44672 3.17705 0
M  V30 26769 H 2656.29 -1.32891 4.07477 0
M  V30 26770 H 2660.47 -0.796847 4.89861 0
M  V30 26771 H 2655.73 -0.0749276 6.11354 0
M  V30 26772 H 2659.9 0.450567 6.94941 0
M  V30 26773 H 2657.53 0.817491 7.55792 0
M  V30 26774 N 2659.1 -1.48777 -0.519925 0
M  V30 26775 C 2660.05 -1.64506 -1.6444 0
M  V30 26776 C 2661.04 -0.511277 -1.615 0
M  V30 26777 O 2662.25 -0.690324 -1.66236 0
M  V30 26778 H 2658.62 -0.518394 -0.544767 0
M  V30 26779 H 2660.6 -2.58928 -1.48321 0
M  V30 26780 C 2659.34 -1.71132 -3.0267 0
M  V30 26781 H 2658.67 -2.57741 -3.0563 0
M  V30 26782 H 2660.11 -1.86179 -3.80938 0
M  V30 26783 C 2658.57 -0.45209 -3.33853 0
M  V30 26784 O 2659.1 0.430608 -3.99385 0
M  V30 26785 N 2657.3 -0.320741 -2.88825 0
M  V30 26786 H 2656.85 -1.04003 -2.35672 0
M  V30 26787 H 2656.81 0.520759 -3.10057 0
M  V30 26788 N 2660.58 0.769564 -1.37534 0
M  V30 26789 C 2661.51 1.89212 -1.29351 0
M  V30 26790 C 2662.52 1.61455 -0.208871 0
M  V30 26791 O 2663.71 1.72332 -0.465188 0
M  V30 26792 C 2660.81 3.24491 -0.977706 0
M  V30 26793 C 2659.99 3.79876 -2.16824 0
M  V30 26794 C 2659.05 4.93635 -1.82238 0
M  V30 26795 O 2658.07 5.09106 -2.54557 0
M  V30 26796 N 2659.27 5.754 -0.767798 0
M  V30 26797 H 2662.04 1.96747 -2.26077 0
M  V30 26798 H 2659.6 0.948772 -1.31187 0
M  V30 26799 H 2661.59 3.98114 -0.727135 0
M  V30 26800 H 2660.16 3.12443 -0.0989326 0
M  V30 26801 H 2659.38 2.98005 -2.58043 0
M  V30 26802 H 2660.67 4.13612 -2.96315 0
M  V30 26803 H 2660.07 5.65451 -0.167726 0
M  V30 26804 H 2658.62 6.4924 -0.577087 0
M  V30 26805 N 2662.06 1.22139 0.995977 0
M  V30 26806 C 2663.34 0.952672 1.70832 0
M  V30 26807 C 2663.72 -0.533083 2.04258 0
M  V30 26808 O 2663.06 -1.50031 1.72345 0
M  V30 26809 C 2663.27 1.84706 2.96116 0
M  V30 26810 C 2664.62 2.10131 3.68958 0
M  V30 26811 O 2665.65 1.82129 3.06117 0
M  V30 26812 O 2664.5 2.57539 4.82012 0
M  V30 26813 H 2661.6 0.35801 0.745492 0
M  V30 26814 H 2664.14 1.33111 1.0526 0
M  V30 26815 H 2662.92 2.85218 2.67893 0
M  V30 26816 H 2662.54 1.47002 3.69427 0
M  V30 26817 N 2663.54 -1.19233 1.03059 0
M  V30 26818 C 2664.48 -2.24556 0.606431 0
M  V30 26819 C 2665.48 -1.65491 -0.361797 0
M  V30 26820 O 2666.68 -1.78522 -0.230189 0
M  V30 26821 H 2663.06 -0.730666 0.177851 0
M  V30 26822 H 2665.03 -2.57648 1.50533 0
M  V30 26823 C 2663.78 -3.47691 -0.0251516 0
M  V30 26824 H 2663.1 -3.93429 0.710907 0
M  V30 26825 H 2664.54 -4.23042 -0.284856 0
M  V30 26826 C 2663 -3.11955 -1.27223 0
M  V30 26827 O 2663.53 -3.24766 -2.36411 0
M  V30 26828 N 2661.74 -2.66372 -1.16165 0
M  V30 26829 H 2661.28 -2.56148 -0.273144 0
M  V30 26830 H 2661.24 -2.42833 -1.99699 0
M  V30 26831 N 2665.01 -0.808686 -1.3527 0
M  V30 26832 C 2665.96 -0.218523 -2.29763 0
M  V30 26833 C 2666.93 0.648625 -1.52912 0
M  V30 26834 O 2668.12 0.593265 -1.81342 0
M  V30 26835 C 2665.26 0.625222 -3.39389 0
M  V30 26836 C 2664.37 -0.262592 -4.31201 0
M  V30 26837 C 2663.5 0.589359 -5.2792 0
M  V30 26838 C 2662.54 -0.298724 -6.11371 0
M  V30 26839 N 2661.68 0.51332 -7.00221 0
M  V30 26840 H 2666.52 -1.02973 -2.79644 0
M  V30 26841 H 2664.06 -0.519328 -1.37628 0
M  V30 26842 H 2666.02 1.12959 -4.01617 0
M  V30 26843 H 2664.65 1.40168 -2.9078 0
M  V30 26844 H 2663.7 -0.885078 -3.6996 0
M  V30 26845 H 2665.01 -0.946057 -4.89746 0
M  V30 26846 H 2664.16 1.15878 -5.95531 0
M  V30 26847 H 2662.9 1.30638 -4.69878 0
M  V30 26848 H 2661.91 -0.880396 -5.42705 0
M  V30 26849 H 2663.13 -1.01364 -6.71492 0
M  V30 26850 H 2661.08 1.21428 -6.44664 0
M  V30 26851 H 2661 -0.112055 -7.55917 0
M  V30 26852 H 2662.26 1.06595 -7.72177 0
M  V30 26853 N 2666.49 1.47225 -0.562374 0
M  V30 26854 C 2667.77 1.95583 0.0256641 0
M  V30 26855 C 2668.15 1.50501 1.4803 0
M  V30 26856 O 2667.5 0.746219 2.15972 0
M  V30 26857 C 2667.71 3.48775 -0.12519 0
M  V30 26858 C 2669.06 4.24596 0.0174982 0
M  V30 26859 O 2670.08 3.56161 -0.0529967 0
M  V30 26860 O 2668.94 5.46235 0.170049 0
M  V30 26861 H 2666.03 0.824729 0.061242 0
M  V30 26862 H 2668.58 1.57602 -0.629261 0
M  V30 26863 H 2667.35 3.7441 -1.13721 0
M  V30 26864 H 2666.97 3.93535 0.567109 0
M  V30 26865 N 2667.97 0.299089 1.54736 0
M  V30 26866 C 2668.92 -0.577859 2.23449 0
M  V30 26867 C 2669.89 -1.13106 1.21639 0
M  V30 26868 O 2671.07 -1.17594 1.50254 0
M  V30 26869 C 2668.21 -1.74479 2.97743 0
M  V30 26870 C 2667.33 -1.22316 4.14322 0
M  V30 26871 C 2666.46 -2.3538 4.76203 0
M  V30 26872 C 2665.5 -1.80341 5.8493 0
M  V30 26873 N 2664.64 -2.86971 6.40775 0
M  V30 26874 H 2669.48 0.0147069 2.97996 0
M  V30 26875 H 2667.01 0.0190272 1.47088 0
M  V30 26876 H 2668.97 -2.43108 3.39049 0
M  V30 26877 H 2667.6 -2.30901 2.25576 0
M  V30 26878 H 2666.65 -0.429183 3.77971 0
M  V30 26879 H 2667.97 -0.780222 4.9266 0
M  V30 26880 H 2667.12 -3.1196 5.20352 0
M  V30 26881 H 2665.86 -2.83 3.97193 0
M  V30 26882 H 2664.86 -1.02249 5.40208 0
M  V30 26883 H 2666.09 -1.33628 6.65823 0
M  V30 26884 H 2664.03 -3.33928 5.64649 0
M  V30 26885 H 2663.95 -2.47167 7.14454 0
M  V30 26886 H 2665.22 -3.63454 6.89581 0
M  V30 26887 N 2669.45 -1.57577 0.0267774 0
M  V30 26888 C 2670.38 -2.1311 -0.95427 0
M  V30 26889 C 2671.36 -1.04665 -1.34086 0
M  V30 26890 O 2672.54 -1.32486 -1.4199 0
M  V30 26891 C 2669.67 -2.65628 -2.23739 0
M  V30 26892 C 2668.63 -3.78839 -1.99162 0
M  V30 26893 C 2667.95 -4.17775 -3.33719 0
M  V30 26894 C 2669.25 -5.05012 -1.33268 0
M  V30 26895 H 2670.95 -2.95333 -0.491796 0
M  V30 26896 H 2668.49 -1.42068 -0.235115 0
M  V30 26897 H 2670.45 -3.03111 -2.92748 0
M  V30 26898 H 2669.17 -1.80563 -2.72148 0
M  V30 26899 H 2667.83 -3.4179 -1.32571 0
M  V30 26900 H 2667.48 -3.29695 -3.79882 0
M  V30 26901 H 2667.18 -4.94063 -3.18081 0
M  V30 26902 H 2668.7 -4.57839 -4.03999 0
M  V30 26903 H 2670.12 -5.40096 -1.92273 0
M  V30 26904 H 2668.51 -5.86282 -1.28035 0
M  V30 26905 H 2669.58 -4.83938 -0.305326 0
M  V30 26906 N 2670.93 0.246342 -1.55663 0
M  V30 26907 C 2671.87 1.30501 -1.90363 0
M  V30 26908 C 2672.84 1.47799 -0.757931 0
M  V30 26909 O 2674.03 1.61773 -1.01163 0
M  V30 26910 C 2671.17 2.65531 -2.20425 0
M  V30 26911 C 2670.28 2.56236 -3.47803 0
M  V30 26912 C 2669.42 3.83623 -3.67433 0
M  V30 26913 C 2668.46 3.68948 -4.8841 0
M  V30 26914 N 2667.59 4.88228 -5.04557 0
M  V30 26915 H 2672.43 1.00208 -2.80646 0
M  V30 26916 H 2669.97 0.483553 -1.38925 0
M  V30 26917 H 2671.93 3.44131 -2.35859 0
M  V30 26918 H 2670.56 2.93971 -1.33345 0
M  V30 26919 H 2669.61 1.69202 -3.40697 0
M  V30 26920 H 2670.92 2.41302 -4.36549 0
M  V30 26921 H 2670.08 4.70666 -3.82829 0
M  V30 26922 H 2668.81 4.01455 -2.76921 0
M  V30 26923 H 2667.82 2.80288 -4.72989 0
M  V30 26924 H 2669.04 3.5261 -5.80381 0
M  V30 26925 H 2666.99 5.0642 -4.16983 0
M  V30 26926 H 2666.91 4.75927 -5.87392 0
M  V30 26927 H 2668.18 5.76768 -5.24365 0
M  V30 26928 N 2672.4 1.4905 0.512027 0
M  V30 26929 C 2673.31 1.6762 1.64136 0
M  V30 26930 C 2674.33 0.55873 1.64785 0
M  V30 26931 O 2675.51 0.832066 1.83408 0
M  V30 26932 C 2672.57 1.7284 3.00545 0
M  V30 26933 C 2671.63 2.96345 3.10609 0
M  V30 26934 C 2670.87 3.01306 4.40512 0
M  V30 26935 O 2671.09 2.14166 5.28667 0
M  V30 26936 O 2670.02 3.93661 4.55318 0
M  V30 26937 H 2673.85 2.6327 1.51402 0
M  V30 26938 H 2671.43 1.32662 0.687108 0
M  V30 26939 H 2673.32 1.7869 3.81638 0
M  V30 26940 H 2671.99 0.803671 3.13565 0
M  V30 26941 H 2670.9 2.96018 2.28745 0
M  V30 26942 H 2672.23 3.88261 3.02513 0
M  V30 26943 N 2673.88 -0.762259 1.3794 0
M  V30 26944 C 2675.11 -1.5492 1.36688 0
M  V30 26945 C 2675.52 -1.89141 -0.0473767 0
M  V30 26946 O 2674.86 -1.52639 -1.0221 0
M  V30 26947 C 2674.93 -2.88148 2.14968 0
M  V30 26948 C 2674.59 -2.76512 3.63855 0
M  V30 26949 C 2675.59 -2.46896 4.57535 0
M  V30 26950 C 2673.27 -2.94236 4.071 0
M  V30 26951 C 2675.27 -2.35145 5.9244 0
M  V30 26952 C 2672.95 -2.82106 5.42088 0
M  V30 26953 C 2673.95 -2.52602 6.34572 0
M  V30 26954 O 2673.64 -2.40516 7.67077 0
M  V30 26955 H 2673.37 -0.486268 0.469595 0
M  V30 26956 H 2675.92 -0.951844 1.82014 0
M  V30 26957 H 2674.15 -3.50039 1.64346 0
M  V30 26958 H 2675.84 -3.49605 2.06231 0
M  V30 26959 H 2676.61 -2.32879 4.25432 0
M  V30 26960 H 2672.49 -3.162 3.35468 0
M  V30 26961 H 2676.03 -2.12038 6.64594 0
M  V30 26962 H 2671.93 -2.95694 5.7379 0
M  V30 26963 H 2672.7 -2.55794 7.77504 0
M  V30 26964 N 2675.36 -1.22666 -0.989486 0
M  V30 26965 C 2676.29 -1.02407 -2.09845 0
M  V30 26966 C 2677.27 0.0561004 -1.70007 0
M  V30 26967 O 2678.46 -0.106782 -1.93906 0
M  V30 26968 C 2675.59 -0.604723 -3.41995 0
M  V30 26969 C 2674.54 -1.63122 -3.95696 0
M  V30 26970 C 2673.87 -1.06759 -5.23934 0
M  V30 26971 C 2675.17 -3.02204 -4.25993 0
M  V30 26972 H 2676.86 -1.95162 -2.27051 0
M  V30 26973 H 2674.41 -0.939747 -1.09109 0
M  V30 26974 H 2676.36 -0.450093 -4.18989 0
M  V30 26975 H 2675.08 0.358493 -3.24627 0
M  V30 26976 H 2673.74 -1.77368 -3.20837 0
M  V30 26977 H 2673.39 -0.0956306 -5.02909 0
M  V30 26978 H 2673.09 -1.75338 -5.6083 0
M  V30 26979 H 2674.61 -0.924622 -6.03559 0
M  V30 26980 H 2676.03 -2.91311 -4.93772 0
M  V30 26981 H 2674.43 -3.67938 -4.74069 0
M  V30 26982 H 2675.5 -3.51879 -3.3363 0
M  V30 26983 N 2676.84 1.18685 -1.0369 0
M  V30 26984 C 2677.79 2.22186 -0.624663 0
M  V30 26985 C 2678.76 1.62026 0.365608 0
M  V30 26986 O 2679.94 1.89014 0.260448 0
M  V30 26987 C 2677.08 3.45099 0.0101131 0
M  V30 26988 C 2676.19 4.19611 -1.02717 0
M  V30 26989 C 2675.33 5.2997 -0.361306 0
M  V30 26990 C 2674.37 5.96249 -1.38394 0
M  V30 26991 N 2673.51 6.98154 -0.743318 0
M  V30 26992 H 2678.35 2.56804 -1.51181 0
M  V30 26993 H 2675.88 1.26164 -0.756382 0
M  V30 26994 H 2677.84 4.15322 0.395455 0
M  V30 26995 H 2676.47 3.11111 0.860793 0
M  V30 26996 H 2675.52 3.48253 -1.53049 0
M  V30 26997 H 2676.83 4.65032 -1.80406 0
M  V30 26998 H 2675.99 6.06649 0.0784471 0
M  V30 26999 H 2674.73 4.85641 0.447714 0
M  V30 27000 H 2673.73 5.18314 -1.83387 0
M  V30 27001 H 2674.96 6.42662 -2.1946 0
M  V30 27002 H 2672.9 6.55984 0.0454636 0
M  V30 27003 H 2672.82 7.41808 -1.45797 0
M  V30 27004 H 2674.09 7.7881 -0.327835 0
M  V30 27005 N 2678.32 0.815849 1.34839 0
M  V30 27006 C 2679.56 0.40057 1.98499 0
M  V30 27007 C 2679.89 -1.0346 1.64701 0
M  V30 27008 O 2679.15 -1.73411 0.907037 0
M  V30 27009 C 2679.45 0.541603 3.53272 0
M  V30 27010 C 2679.11 1.94145 4.06963 0
M  V30 27011 C 2677.77 2.3244 4.21337 0
M  V30 27012 C 2680.13 2.85685 4.35928 0
M  V30 27013 C 2677.45 3.61625 4.62 0
M  V30 27014 C 2679.81 4.14326 4.78034 0
M  V30 27015 C 2678.47 4.52608 4.90614 0
M  V30 27016 H 2677.74 0.146579 0.726358 0
M  V30 27017 H 2680.39 1.03843 1.609 0
M  V30 27018 H 2678.69 -0.179672 3.91388 0
M  V30 27019 H 2680.39 0.20092 4.00496 0
M  V30 27020 H 2676.98 1.63395 3.96232 0
M  V30 27021 H 2681.16 2.57344 4.24367 0
M  V30 27022 H 2676.42 3.91121 4.6993 0
M  V30 27023 H 2680.59 4.85351 4.99407 0
M  V30 27024 H 2678.22 5.52761 5.21881 0
M  V30 27025 N 2679.8 -1.46924 0.570174 0
M  V30 27026 C 2680.75 -2.272 -0.190881 0
M  V30 27027 C 2681.73 -1.35129 -0.873433 0
M  V30 27028 O 2682.92 -1.59393 -0.769599 0
M  V30 27029 C 2680.05 -3.21194 -1.21198 0
M  V30 27030 C 2679.14 -4.20748 -0.532187 0
M  V30 27031 N 2679.53 -5.04175 0.405127 0
M  V30 27032 C 2677.83 -4.39046 -0.784505 0
M  V30 27033 C 2678.53 -5.76155 0.80125 0
M  V30 27034 N 2677.5 -5.43384 0.153178 0
M  V30 27035 H 2681.3 -2.89089 0.529586 0
M  V30 27036 H 2678.82 -1.57622 0.391047 0
M  V30 27037 H 2680.82 -3.77401 -1.77128 0
M  V30 27038 H 2679.48 -2.60863 -1.93341 0
M  V30 27039 H 2680.49 -5.11993 0.779993 0
M  V30 27040 H 2677.16 -3.89875 -1.49345 0
M  V30 27041 H 2678.55 -6.53247 1.5722 0
M  V30 27042 N 2681.27 -0.307291 -1.54575 0
M  V30 27043 C 2682.52 0.300577 -2.0056 0
M  V30 27044 C 2682.85 1.53054 -1.19532 0
M  V30 27045 O 2682.13 1.92569 -0.273404 0
M  V30 27046 C 2682.41 0.650925 -3.54168 0
M  V30 27047 C 2682.26 -0.588618 -4.45932 0
M  V30 27048 C 2683.58 1.47498 -4.14647 0
M  V30 27049 H 2680.7 0.107775 -0.729077 0
M  V30 27050 H 2683.34 -0.420639 -1.85285 0
M  V30 27051 H 2681.49 1.26538 -3.67315 0
M  V30 27052 H 2683.17 -1.22705 -4.44681 0
M  V30 27053 H 2681.41 -1.22065 -4.16272 0
M  V30 27054 H 2682.08 -0.29925 -5.51188 0
M  V30 27055 H 2684.56 0.95575 -4.04975 0
M  V30 27056 H 2683.43 1.6889 -5.22271 0
M  V30 27057 H 2683.69 2.46614 -3.66925 0
M  V30 27058 N 2682.75 1.57561 -0.0351337 0
M  V30 27059 C 2684 1.91224 0.64157 0
M  V30 27060 C 2684.31 0.913791 1.72943 0
M  V30 27061 O 2685.52 1.14189 2.46319 0
M  V30 27062 C 2683.98 3.39572 1.19243 0
M  V30 27063 C 2683.58 4.47789 0.137538 0
M  V30 27064 C 2685.33 3.82294 1.8453 0
M  V30 27065 C 2683.23 5.87238 0.700375 0
M  V30 27066 H 2682.16 0.713632 0.243405 0
M  V30 27067 H 2684.82 1.8322 -0.101414 0
M  V30 27068 H 2683.2 3.42528 1.98722 0
M  V30 27069 H 2684.37 4.56401 -0.635233 0
M  V30 27070 H 2682.69 4.14307 -0.416928 0
M  V30 27071 H 2685.28 4.83838 2.27607 0
M  V30 27072 H 2685.63 3.17677 2.69048 0
M  V30 27073 H 2686.16 3.81786 1.11732 0
M  V30 27074 H 2682.9 6.55413 -0.106808 0
M  V30 27075 H 2682.42 5.82221 1.4415 0
M  V30 27076 H 2684.1 6.35995 1.18826 0
M  V30 27077 N 2684.23 -0.238084 1.55791 0
M  V30 27078 C 2685.65 -0.587019 1.48412 0
M  V30 27079 C 2685.85 -1.87926 0.727053 0
M  V30 27080 O 2684.9 -2.51158 0.259986 0
M  V30 27081 C 2686.21 -0.681572 2.92874 0
M  V30 27082 C 2687.76 -0.773309 3.03297 0
M  V30 27083 C 2688.24 -0.899349 4.49083 0
M  V30 27084 N 2689.73 -0.963995 4.53058 0
M  V30 27085 C 2690.46 -1.08094 5.63119 0
M  V30 27086 N 2689.96 -1.16287 6.82971 0
M  V30 27087 N 2691.75 -1.11479 5.50935 0
M  V30 27088 H 2683.9 0.610112 2.03449 0
M  V30 27089 H 2686.17 0.211829 0.92403 0
M  V30 27090 H 2685.87 0.198082 3.51142 0
M  V30 27091 H 2685.75 -1.55063 3.43854 0
M  V30 27092 H 2688.13 -1.64341 2.45104 0
M  V30 27093 H 2688.21 0.121079 2.55513 0
M  V30 27094 H 2687.86 -0.0337693 5.07889 0
M  V30 27095 H 2687.79 -1.80891 4.94556 0
M  V30 27096 H 2690.28 -0.911666 3.66738 0
M  V30 27097 H 2690.59 -1.25142 7.626 0
M  V30 27098 H 2688.94 -1.13229 6.85714 0
M  V30 27099 H 2692.13 -1.04732 4.56233 0
M  V30 27100 H 2692.3 -1.20247 6.36745 0
M  V30 27101 N 2685.71 -1.4932 -0.504115 0
M  V30 27102 C 2686.98 -1.49149 -1.26546 0
M  V30 27103 C 2687.36 -0.217477 -2.09977 0
M  V30 27104 O 2686.71 0.800232 -2.14029 0
M  V30 27105 C 2686.92 -2.7686 -2.12484 0
M  V30 27106 C 2688.27 -3.26226 -2.71775 0
M  V30 27107 O 2689.29 -2.77956 -2.22753 0
M  V30 27108 O 2688.15 -4.10287 -3.61008 0
M  V30 27109 H 2685.25 -0.596817 -0.572485 0
M  V30 27110 H 2687.79 -1.6158 -0.518642 0
M  V30 27111 H 2686.57 -3.61079 -1.50789 0
M  V30 27112 H 2686.19 -2.67275 -2.94364 0
M  V30 27113 N 2687.19 0.754933 -1.38342 0
M  V30 27114 C 2688.15 1.8503 -1.35265 0
M  V30 27115 C 2689.15 1.5879 -0.253421 0
M  V30 27116 O 2690.34 1.6656 -0.510235 0
M  V30 27117 C 2687.47 3.22477 -1.1055 0
M  V30 27118 H 2688.66 1.89166 -2.32715 0
M  V30 27119 H 2686.22 0.956493 -1.23616 0
M  V30 27120 H 2686.95 3.2401 -0.137009 0
M  V30 27121 H 2686.74 3.42917 -1.90133 0
M  V30 27122 H 2688.23 4.02553 -1.11089 0
M  V30 27123 N 2688.66 1.23189 0.982967 0
M  V30 27124 C 2689.61 1.01079 2.07489 0
M  V30 27125 C 2690.58 -0.0708758 1.65949 0
M  V30 27126 O 2691.77 0.0807157 1.90629 0
M  V30 27127 C 2688.91 0.60532 3.3975 0
M  V30 27128 C 2688.02 1.75883 3.94575 0
M  V30 27129 C 2687.15 1.30039 5.15037 0
M  V30 27130 C 2686.19 2.42481 5.62022 0
M  V30 27131 N 2685.33 1.97614 6.73716 0
M  V30 27132 H 2690.17 1.94544 2.25736 0
M  V30 27133 H 2687.71 0.969199 1.10657 0
M  V30 27134 H 2689.66 0.351352 4.15718 0
M  V30 27135 H 2688.29 -0.292325 3.21474 0
M  V30 27136 H 2687.35 2.12687 3.15386 0
M  V30 27137 H 2688.66 2.60426 4.25417 0
M  V30 27138 H 2687.81 1.0044 5.98328 0
M  V30 27139 H 2686.55 0.425301 4.85842 0
M  V30 27140 H 2685.56 2.72858 4.77314 0
M  V30 27141 H 2686.78 3.30523 5.93238 0
M  V30 27142 H 2684.73 1.12481 6.46285 0
M  V30 27143 H 2684.64 2.75717 7.03929 0
M  V30 27144 H 2685.91 1.71111 7.60487 0
M  V30 27145 N 2690.14 -1.18133 1.04318 0
M  V30 27146 C 2691.39 -1.88455 0.749161 0
M  V30 27147 C 2691.72 -1.80301 -0.721459 0
M  V30 27148 O 2691 -1.20502 -1.52674 0
M  V30 27149 C 2691.28 -3.38836 1.21911 0
M  V30 27150 C 2691.13 -3.55787 2.75201 0
M  V30 27151 C 2692.45 -4.3256 0.811161 0
M  V30 27152 H 2689.57 -0.684324 0.273624 0
M  V30 27153 H 2692.21 -1.38973 1.29563 0
M  V30 27154 H 2690.36 -3.81109 0.754204 0
M  V30 27155 H 2692.03 -3.22589 3.29748 0
M  V30 27156 H 2690.28 -2.98358 3.14905 0
M  V30 27157 H 2690.95 -4.61312 3.03143 0
M  V30 27158 H 2693.42 -3.9808 1.21125 0
M  V30 27159 H 2692.3 -5.36336 1.1677 0
M  V30 27160 H 2692.56 -4.41177 -0.285518 0
M  V30 27161 N 2691.62 -0.822988 -1.34405 0
M  V30 27162 C 2692.55 -0.259649 -2.32052 0
M  V30 27163 C 2693.53 0.623933 -1.58244 0
M  V30 27164 O 2694.72 0.550797 -1.86225 0
M  V30 27165 C 2691.85 0.579254 -3.42435 0
M  V30 27166 C 2690.8 -0.207196 -4.27498 0
M  V30 27167 C 2690.13 0.754453 -5.29351 0
M  V30 27168 C 2691.43 -1.41542 -5.02756 0
M  V30 27169 H 2693.12 -1.0755 -2.79416 0
M  V30 27170 H 2690.67 -0.518617 -1.34337 0
M  V30 27171 H 2692.62 0.98354 -4.09761 0
M  V30 27172 H 2691.34 1.42815 -2.9372 0
M  V30 27173 H 2690 -0.59285 -3.61775 0
M  V30 27174 H 2689.65 1.59931 -4.76897 0
M  V30 27175 H 2689.35 0.232458 -5.8714 0
M  V30 27176 H 2690.87 1.1566 -5.99546 0
M  V30 27177 H 2692.29 -1.08514 -5.62937 0
M  V30 27178 H 2690.69 -1.87306 -5.7012 0
M  V30 27179 H 2691.76 -2.19358 -4.32447 0
M  V30 27180 N 2693.1 1.4662 -0.577957 0
M  V30 27181 C 2694.06 2.28723 0.147765 0
M  V30 27182 C 2695.06 1.38125 0.8233 0
M  V30 27183 O 2696.25 1.60549 0.675983 0
M  V30 27184 C 2693.38 3.1838 1.21848 0
M  V30 27185 H 2694.58 2.94361 -0.573706 0
M  V30 27186 H 2692.13 1.52652 -0.33573 0
M  V30 27187 H 2692.86 2.57479 1.97168 0
M  V30 27188 H 2692.65 3.8508 0.738647 0
M  V30 27189 H 2694.14 3.80189 1.72761 0
M  V30 27190 N 2694.58 0.315484 1.5441 0
M  V30 27191 C 2695.82 -0.289936 2.00717 0
M  V30 27192 C 2696.16 -1.52418 1.20342 0
M  V30 27193 O 2695.43 -1.92421 0.283613 0
M  V30 27194 C 2695.71 -0.632134 3.54508 0
M  V30 27195 C 2695.57 0.612258 4.45614 0
M  V30 27196 C 2696.89 -1.45297 4.15424 0
M  V30 27197 H 2694 -0.103907 0.729638 0
M  V30 27198 H 2696.65 0.430459 1.8506 0
M  V30 27199 H 2694.8 -1.24588 3.67981 0
M  V30 27200 H 2696.47 1.25061 4.44024 0
M  V30 27201 H 2694.71 1.24271 4.15619 0
M  V30 27202 H 2695.38 0.328476 5.51022 0
M  V30 27203 H 2697.86 -0.934259 4.05476 0
M  V30 27204 H 2696.73 -1.66117 5.2316 0
M  V30 27205 H 2697 -2.44665 3.68228 0
M  V30 27206 N 2696.05 -1.5754 0.0434891 0
M  V30 27207 C 2697.33 -1.83714 -0.671447 0
M  V30 27208 C 2697.71 -0.930348 -1.89493 0
M  V30 27209 O 2697.06 0.0105237 -2.28498 0
M  V30 27210 C 2697.27 -3.33268 -1.03604 0
M  V30 27211 C 2698.62 -4.00095 -1.4216 0
M  V30 27212 O 2699.64 -3.37848 -1.1286 0
M  V30 27213 O 2698.5 -5.09832 -1.96808 0
M  V30 27214 H 2695.59 -0.757996 -0.330713 0
M  V30 27215 H 2698.14 -1.69546 0.0722671 0
M  V30 27216 H 2696.91 -3.90948 -0.165869 0
M  V30 27217 H 2696.54 -3.52595 -1.83745 0
M  V30 27218 N 2697.53 0.229818 -1.55915 0
M  V30 27219 C 2698.46 1.28811 -1.94756 0
M  V30 27220 C 2699.44 1.49322 -0.814683 0
M  V30 27221 O 2700.63 1.61644 -1.07634 0
M  V30 27222 C 2697.76 2.63955 -2.2571 0
M  V30 27223 C 2696.71 2.58114 -3.4141 0
M  V30 27224 C 2696.04 3.97212 -3.57948 0
M  V30 27225 C 2697.34 2.13615 -4.76619 0
M  V30 27226 H 2699.03 0.965497 -2.83405 0
M  V30 27227 H 2696.58 0.463004 -1.36353 0
M  V30 27228 H 2698.53 3.38141 -2.51472 0
M  V30 27229 H 2697.26 2.97888 -1.33905 0
M  V30 27230 H 2695.91 1.86386 -3.15683 0
M  V30 27231 H 2695.56 4.28438 -2.63534 0
M  V30 27232 H 2695.26 3.94188 -4.35764 0
M  V30 27233 H 2696.79 4.73072 -3.8605 0
M  V30 27234 H 2698.2 2.7754 -5.01642 0
M  V30 27235 H 2696.6 2.21667 -5.57659 0
M  V30 27236 H 2697.67 1.0882 -4.72532 0
M  V30 27237 N 2699.01 1.49585 0.49619 0
M  V30 27238 C 2700.42 1.5246 1.07762 0
M  V30 27239 C 2700.77 0.313564 1.93678 0
M  V30 27240 O 2699.9 -0.576149 2.08589 0
M  V30 27241 C 2700.49 2.76275 1.96107 0
M  V30 27242 C 2699.05 2.81913 2.49404 0
M  V30 27243 C 2698.2 2.46437 1.27138 0
M  V30 27244 H 2701.15 1.56212 0.279886 0
M  V30 27245 H 2701.17 2.56709 2.80857 0
M  V30 27246 H 2700.68 3.64399 1.33549 0
M  V30 27247 H 2698.78 1.9808 3.15587 0
M  V30 27248 H 2698.9 3.84201 2.86227 0
M  V30 27249 H 2697.26 1.98321 1.59815 0
M  V30 27250 H 2698.04 3.36841 0.662807 0
M  V30 27251 N 2700.49 -0.747586 1.3874 0
M  V30 27252 C 2701.72 -1.53684 1.38524 0
M  V30 27253 C 2702.13 -1.88785 -0.0234797 0
M  V30 27254 O 2701.49 -1.53208 -0.991635 0
M  V30 27255 C 2701.54 -2.83225 2.24646 0
M  V30 27256 O 2701.26 -2.49619 3.60031 0
M  V30 27257 C 2702.76 -3.77329 2.32675 0
M  V30 27258 H 2699.98 -0.475338 0.473597 0
M  V30 27259 H 2702.53 -0.924754 1.82397 0
M  V30 27260 H 2700.68 -3.40796 1.84219 0
M  V30 27261 H 2701.09 -3.32743 4.05441 0
M  V30 27262 H 2702.57 -4.65157 2.97209 0
M  V30 27263 H 2703.05 -4.18189 1.34217 0
M  V30 27264 H 2703.65 -3.25681 2.73518 0
M  V30 27265 N 2701.97 -1.23709 -0.97642 0
M  V30 27266 C 2703.19 -1.09925 -1.75873 0
M  V30 27267 C 2703.62 0.344858 -1.84912 0
M  V30 27268 O 2702.97 1.24951 -1.31365 0
M  V30 27269 C 2703.02 -1.73393 -3.16176 0
M  V30 27270 O 2702.13 -0.998781 -4.00123 0
M  V30 27271 H 2701.47 -0.385061 -0.540947 0
M  V30 27272 H 2704 -1.63842 -1.22543 0
M  V30 27273 H 2704.01 -1.78795 -3.66738 0
M  V30 27274 H 2702.68 -2.78471 -3.08912 0
M  V30 27275 H 2701.26 -1.022 -3.58622 0
M  V30 27276 N 2703.44 1.17579 -1.04943 0
M  V30 27277 C 2704.67 1.91702 -0.778328 0
M  V30 27278 C 2705.09 1.76676 0.665666 0
M  V30 27279 O 2704.44 1.10224 1.45454 0
M  V30 27280 C 2704.5 3.42843 -1.14634 0
M  V30 27281 O 2704.22 3.57404 -2.53365 0
M  V30 27282 C 2705.72 4.34047 -0.901007 0
M  V30 27283 H 2702.94 0.608318 -0.283178 0
M  V30 27284 H 2705.48 1.49117 -1.39944 0
M  V30 27285 H 2703.64 3.83183 -0.57002 0
M  V30 27286 H 2704.05 4.5103 -2.67717 0
M  V30 27287 H 2705.52 5.38614 -1.20827 0
M  V30 27288 H 2706 4.38894 0.163889 0
M  V30 27289 H 2706.61 3.99417 -1.46104 0
M  V30 27290 N 2704.92 0.830104 1.33967 0
M  V30 27291 C 2705.89 0.26239 2.27693 0
M  V30 27292 C 2706.89 -0.563849 1.5059 0
M  V30 27293 O 2708.08 -0.378911 1.70029 0
M  V30 27294 C 2705.21 -0.631321 3.35003 0
M  V30 27295 H 2706.4 1.08933 2.79417 0
M  V30 27296 H 2703.95 0.602512 1.4422 0
M  V30 27297 H 2704.69 -1.48104 2.88506 0
M  V30 27298 H 2704.47 -0.0402587 3.92079 0
M  V30 27299 H 2705.96 -1.0221 4.04899 0
M  V30 27300 N 2706.4 -1.46311 0.585725 0
M  V30 27301 C 2707.65 -2.03239 0.0809089 0
M  V30 27302 C 2708 -1.44874 -1.26607 0
M  V30 27303 O 2707.3 -0.605592 -1.81778 0
M  V30 27304 C 2707.49 -3.57378 -0.0400683 0
M  V30 27305 C 2707.32 -4.30692 1.29363 0
M  V30 27306 C 2706.09 -4.69481 1.86858 0
M  V30 27307 C 2708.29 -4.64038 2.21751 0
M  V30 27308 N 2706.27 -5.27558 3.13936 0
M  V30 27309 C 2707.64 -5.22717 3.33417 0
M  V30 27310 C 2709.69 -4.4597 2.21394 0
M  V30 27311 C 2708.4 -5.65234 4.44862 0
M  V30 27312 C 2710.42 -4.89505 3.31871 0
M  V30 27313 C 2709.79 -5.48258 4.42258 0
M  V30 27314 H 2705.88 -0.778636 0.0724567 0
M  V30 27315 H 2708.47 -1.78424 0.779285 0
M  V30 27316 H 2706.64 -3.819 -0.707618 0
M  V30 27317 H 2708.37 -4.00951 -0.549544 0
M  V30 27318 H 2705.13 -4.52337 1.40315 0
M  V30 27319 H 2705.55 -5.61116 3.78785 0
M  V30 27320 H 2710.19 -3.99879 1.37321 0
M  V30 27321 H 2707.91 -6.10303 5.29675 0
M  V30 27322 H 2711.5 -4.77275 3.32716 0
M  V30 27323 H 2710.38 -5.81329 5.26333 0
M  V30 27324 N 2707.88 -0.323668 -1.54241 0
M  V30 27325 C 2708.83 0.542237 -2.2434 0
M  V30 27326 C 2709.8 1.11157 -1.23423 0
M  V30 27327 O 2710.98 1.15189 -1.52106 0
M  V30 27328 C 2708.12 1.6972 -3.00482 0
M  V30 27329 C 2707.23 1.15709 -4.16216 0
M  V30 27330 C 2706.37 2.27774 -4.79888 0
M  V30 27331 C 2705.41 1.71012 -5.87725 0
M  V30 27332 N 2704.55 2.76741 -6.45259 0
M  V30 27333 H 2709.39 -0.0621137 -2.97935 0
M  V30 27334 H 2706.92 -0.0424252 -1.47039 0
M  V30 27335 H 2708.88 2.37684 -3.42874 0
M  V30 27336 H 2707.51 2.27283 -2.29221 0
M  V30 27337 H 2706.56 0.368996 -3.78606 0
M  V30 27338 H 2707.87 0.701745 -4.93839 0
M  V30 27339 H 2707.03 3.03642 -5.25249 0
M  V30 27340 H 2705.77 2.76645 -4.01645 0
M  V30 27341 H 2704.77 0.936422 -5.41767 0
M  V30 27342 H 2706 1.23018 -6.67865 0
M  V30 27343 H 2703.94 3.24902 -5.6989 0
M  V30 27344 H 2703.86 2.3577 -7.18296 0
M  V30 27345 H 2705.13 3.52437 -6.95276 0
M  V30 27346 N 2709.36 1.57515 -0.0518432 0
M  V30 27347 C 2710.59 1.97032 0.631361 0
M  V30 27348 C 2711 0.929409 1.64339 0
M  V30 27349 O 2710.36 -0.0862945 1.82296 0
M  V30 27350 C 2710.41 3.3663 1.31768 0
M  V30 27351 O 2710.13 4.3673 0.34617 0
M  V30 27352 C 2711.63 3.90909 2.09058 0
M  V30 27353 H 2708.85 0.648431 0.172565 0
M  V30 27354 H 2711.39 2.04157 -0.118342 0
M  V30 27355 H 2709.55 3.30652 2.01861 0
M  V30 27356 H 2709.96 5.17792 0.836135 0
M  V30 27357 H 2711.44 4.90865 2.52499 0
M  V30 27358 H 2711.91 3.26371 2.93902 0
M  V30 27359 H 2712.52 4.00225 1.43875 0
M  V30 27360 N 2710.84 -0.221546 1.56035 0
M  V30 27361 C 2711.77 -1.27776 1.95436 0
M  V30 27362 C 2712.75 -1.48887 0.82259 0
M  V30 27363 O 2713.93 -1.61071 1.08489 0
M  V30 27364 C 2711.06 -2.62755 2.27106 0
M  V30 27365 C 2710.02 -2.563 3.42774 0
M  V30 27366 C 2709.34 -3.95308 3.60049 0
M  V30 27367 C 2710.64 -2.11084 4.77745 0
M  V30 27368 H 2712.34 -0.950454 2.83913 0
M  V30 27369 H 2709.88 -0.455767 1.36597 0
M  V30 27370 H 2711.83 -3.36803 2.53262 0
M  V30 27371 H 2710.56 -2.97173 1.35483 0
M  V30 27372 H 2709.22 -1.84709 3.16667 0
M  V30 27373 H 2708.87 -4.27034 2.65802 0
M  V30 27374 H 2708.57 -3.91871 4.37848 0
M  V30 27375 H 2710.09 -4.71018 3.88554 0
M  V30 27376 H 2711.5 -2.74876 5.03106 0
M  V30 27377 H 2709.9 -2.18707 5.58827 0
M  V30 27378 H 2710.97 -1.06313 4.73102 0
M  V30 27379 N 2712.31 -1.49846 -0.48825 0
M  V30 27380 C 2713.25 -1.63587 -1.60536 0
M  V30 27381 C 2714.26 -0.517999 -1.54339 0
M  V30 27382 O 2715.45 -0.790544 -1.6004 0
M  V30 27383 C 2712.55 -1.5884 -2.99371 0
M  V30 27384 C 2711.72 -2.86374 -3.30619 0
M  V30 27385 C 2710.78 -2.74504 -4.48925 0
M  V30 27386 O 2709.81 -3.48451 -4.50078 0
M  V30 27387 N 2711.01 -1.86904 -5.49588 0
M  V30 27388 H 2713.77 -2.59938 -1.49171 0
M  V30 27389 H 2711.33 -1.47095 -0.676365 0
M  V30 27390 H 2713.33 -1.48536 -3.76456 0
M  V30 27391 H 2711.9 -0.702946 -3.04594 0
M  V30 27392 H 2711.12 -3.10934 -2.42309 0
M  V30 27393 H 2712.4 -3.70898 -3.48299 0
M  V30 27394 H 2711.8 -1.26107 -5.51465 0
M  V30 27395 H 2710.36 -1.82514 -6.25725 0
M  V30 27396 N 2713.79 0.740218 -1.39135 0
M  V30 27397 C 2715.04 1.49671 -1.35805 0
M  V30 27398 C 2715.36 1.94943 0.0470554 0
M  V30 27399 O 2714.63 1.68613 0.997318 0
M  V30 27400 H 2713.21 0.555215 -0.499745 0
M  V30 27401 H 2715.87 0.879076 -1.73949 0
M  V30 27402 H 2714.97 2.3813 -2.01744 0
M  V30 27403 N 2715.27 1.24225 0.969846 0
M  V30 27404 C 2716.49 1.10857 1.75287 0
M  V30 27405 C 2716.92 -0.335046 1.85092 0
M  V30 27406 O 2716.28 -1.24253 1.32026 0
M  V30 27407 C 2716.33 1.75068 3.15252 0
M  V30 27408 O 2715.43 1.01999 3.99587 0
M  V30 27409 H 2714.77 0.387924 0.538898 0
M  V30 27410 H 2717.3 1.6449 1.21672 0
M  V30 27411 H 2717.31 1.80737 3.65784 0
M  V30 27412 H 2715.99 2.80105 3.07431 0
M  V30 27413 H 2714.56 1.041 3.58075 0
M  V30 27414 N 2716.75 -1.1702 1.05565 0
M  V30 27415 C 2717.66 -2.24805 0.670797 0
M  V30 27416 C 2718.67 -1.71219 -0.309835 0
M  V30 27417 O 2719.85 -2.00756 -0.16099 0
M  V30 27418 C 2716.91 -3.46656 0.0553979 0
M  V30 27419 C 2715.98 -4.15312 1.08696 0
M  V30 27420 C 2715.21 -5.31345 0.50083 0
M  V30 27421 O 2715.43 -5.66228 -0.688618 0
M  V30 27422 O 2714.37 -5.89053 1.23693 0
M  V30 27423 H 2718.19 -2.6002 1.56918 0
M  V30 27424 H 2715.78 -1.24393 0.82745 0
M  V30 27425 H 2717.66 -4.20426 -0.286418 0
M  V30 27426 H 2716.33 -3.13231 -0.816583 0
M  V30 27427 H 2715.24 -3.43544 1.48083 0
M  V30 27428 H 2716.57 -4.52773 1.93022 0
M  V30 27429 N 2718.23 -0.837197 -1.33524 0
M  V30 27430 C 2719.16 -0.284246 -2.31763 0
M  V30 27431 C 2720.14 0.607114 -1.58897 0
M  V30 27432 O 2721.32 0.531015 -1.86799 0
M  V30 27433 C 2718.45 0.542901 -3.4303 0
M  V30 27434 C 2717.41 -0.252526 -4.27254 0
M  V30 27435 C 2716.73 0.698266 -5.30121 0
M  V30 27436 C 2718.03 -1.46866 -5.01226 0
M  V30 27437 H 2719.73 -1.10507 -2.7826 0
M  V30 27438 H 2717.27 -0.532836 -1.33779 0
M  V30 27439 H 2719.22 0.940024 -4.10782 0
M  V30 27440 H 2717.95 1.39692 -2.95218 0
M  V30 27441 H 2716.61 -0.631188 -3.61125 0
M  V30 27442 H 2716.26 1.54864 -4.78567 0
M  V30 27443 H 2715.96 0.170171 -5.87354 0
M  V30 27444 H 2717.48 1.09294 -6.00739 0
M  V30 27445 H 2718.89 -1.14479 -5.61754 0
M  V30 27446 H 2717.29 -1.93343 -5.68101 0
M  V30 27447 H 2718.36 -2.23932 -4.30096 0
M  V30 27448 N 2719.7 1.45999 -0.593476 0
M  V30 27449 C 2720.93 2.07216 -0.087273 0
M  V30 27450 C 2721.35 1.43757 1.21308 0
M  V30 27451 O 2720.71 0.525183 1.73527 0
M  V30 27452 C 2720.76 3.6056 0.0537564 0
M  V30 27453 O 2719.86 3.97249 1.10758 0
M  V30 27454 H 2719.2 0.660543 -0.0676714 0
M  V30 27455 H 2721.73 1.87472 -0.819478 0
M  V30 27456 H 2721.74 4.07193 0.256496 0
M  V30 27457 H 2720.42 4.06138 -0.89581 0
M  V30 27458 H 2719 3.62309 0.882437 0
M  V30 27459 N 2721.18 0.331843 1.54067 0
M  V30 27460 C 2722.43 -0.268631 2.01013 0
M  V30 27461 C 2722.76 -1.51133 1.21952 0
M  V30 27462 O 2722.04 -1.92109 0.304006 0
M  V30 27463 C 2722.32 -0.594498 3.55159 0
M  V30 27464 C 2722.17 0.659487 4.44939 0
M  V30 27465 C 2723.49 -1.40883 4.16941 0
M  V30 27466 H 2720.61 -0.0961627 0.730699 0
M  V30 27467 H 2723.25 0.450063 1.84593 0
M  V30 27468 H 2721.4 -1.20678 3.69282 0
M  V30 27469 H 2723.07 1.29764 4.42673 0
M  V30 27470 H 2721.32 1.28672 4.14277 0
M  V30 27471 H 2721.99 0.386901 5.50642 0
M  V30 27472 H 2724.46 -0.891201 4.06444 0
M  V30 27473 H 2723.34 -1.60559 5.24892 0
M  V30 27474 H 2723.6 -2.40745 3.70802 0
M  V30 27475 N 2722.66 -1.57485 0.0601958 0
M  V30 27476 C 2723.61 -2.12056 -0.911082 0
M  V30 27477 C 2724.58 -1.03016 -1.30296 0
M  V30 27478 O 2725.76 -1.30614 -1.39085 0
M  V30 27479 C 2722.9 -2.67733 -2.17746 0
M  V30 27480 C 2722.02 -3.9089 -1.83926 0
M  V30 27481 C 2721.15 -4.3485 -3.05088 0
M  V30 27482 C 2720.19 -5.50685 -2.67232 0
M  V30 27483 N 2719.33 -5.89656 -3.81116 0
M  V30 27484 H 2724.17 -2.94751 -0.438829 0
M  V30 27485 H 2721.7 -1.45665 -0.20497 0
M  V30 27486 H 2723.66 -2.98116 -2.91861 0
M  V30 27487 H 2722.29 -1.87821 -2.62532 0
M  V30 27488 H 2721.34 -3.67042 -0.999223 0
M  V30 27489 H 2722.66 -4.75055 -1.52066 0
M  V30 27490 H 2721.81 -4.66834 -3.87494 0
M  V30 27491 H 2720.55 -3.49515 -3.40133 0
M  V30 27492 H 2719.55 -5.18364 -1.83245 0
M  V30 27493 H 2720.78 -6.37743 -2.33369 0
M  V30 27494 H 2718.72 -5.07273 -4.15945 0
M  V30 27495 H 2718.64 -6.68534 -3.52985 0
M  V30 27496 H 2719.91 -6.26258 -4.64134 0
M  V30 27497 N 2724.14 0.213268 -1.5615 0
M  V30 27498 C 2725.38 0.943403 -1.81326 0
M  V30 27499 C 2725.74 1.81197 -0.634966 0
M  V30 27500 O 2726.94 2.57648 -0.766211 0
M  V30 27501 C 2725.21 1.75328 -3.1144 0
M  V30 27502 S 2726.77 2.53792 -3.57959 0
M  V30 27503 H 2723.59 0.316755 -0.636543 0
M  V30 27504 H 2726.19 0.208279 -1.94387 0
M  V30 27505 H 2724.9 1.1055 -3.9523 0
M  V30 27506 H 2724.43 2.53056 -3.01208 0
M  V30 27507 H 2726.44 3.77571 -3.21954 0
M  V30 27508 N 2725.62 1.50103 0.480296 0
M  V30 27509 C 2726.86 1.60314 1.2306 0
M  V30 27510 C 2727.19 0.30126 1.92659 0
M  V30 27511 O 2726.46 -0.680721 1.83693 0
M  V30 27512 H 2725.04 0.590727 0.457221 0
M  V30 27513 H 2727.7 1.86835 0.55486 0
M  V30 27514 H 2726.79 2.40967 1.98346 0
M  V30 27515 N 2727.09 -0.732829 1.39526 0
M  V30 27516 C 2728.06 -1.82854 1.38192 0
M  V30 27517 C 2729.06 -1.58367 0.278651 0
M  V30 27518 O 2730.25 -1.65727 0.536668 0
M  V30 27519 C 2727.38 -3.20678 1.15666 0
M  V30 27520 H 2728.57 -1.8544 2.35695 0
M  V30 27521 H 2726.13 -0.936706 1.25122 0
M  V30 27522 H 2726.86 -3.23751 0.188539 0
M  V30 27523 H 2726.65 -3.39848 1.95565 0
M  V30 27524 H 2728.14 -4.00735 1.17479 0
M  V30 27525 N 2728.57 -1.24737 -0.963244 0
M  V30 27526 C 2729.82 -1.08758 -1.70341 0
M  V30 27527 C 2730.14 0.373585 -1.91388 0
M  V30 27528 O 2729.41 1.26617 -1.49482 0
M  V30 27529 H 2727.99 -0.399467 -0.631217 0
M  V30 27530 H 2730.65 -1.56727 -1.15857 0
M  V30 27531 H 2729.75 -1.58914 -2.68613 0
M  V30 27532 N 2730.05 1.16459 -1.06184 0
M  V30 27533 C 2731.47 1.38955 -0.785089 0
M  V30 27534 C 2731.67 1.91851 0.61607 0
M  V30 27535 O 2730.72 2.1166 1.37682 0
M  V30 27536 C 2732.04 2.37129 -1.84906 0
M  V30 27537 C 2733.58 2.50816 -1.87244 0
M  V30 27538 C 2734.06 3.52272 -2.92692 0
M  V30 27539 N 2735.55 3.59798 -2.91719 0
M  V30 27540 C 2736.28 4.38086 -3.69957 0
M  V30 27541 N 2735.78 5.19807 -4.58009 0
M  V30 27542 N 2737.57 4.33058 -3.58353 0
M  V30 27543 H 2729.72 0.8046 -1.9657 0
M  V30 27544 H 2731.99 0.416196 -0.851754 0
M  V30 27545 H 2731.69 2.05355 -2.85521 0
M  V30 27546 H 2731.57 3.36763 -1.69914 0
M  V30 27547 H 2733.95 2.81895 -0.872877 0
M  V30 27548 H 2734.04 1.51222 -2.06314 0
M  V30 27549 H 2733.68 3.2193 -3.92841 0
M  V30 27550 H 2733.61 4.51593 -2.70872 0
M  V30 27551 H 2736.1 3.0146 -2.27882 0
M  V30 27552 H 2736.41 5.76755 -5.14367 0
M  V30 27553 H 2734.76 5.19154 -4.62065 0
M  V30 27554 H 2737.95 3.68274 -2.88949 0
M  V30 27555 H 2738.12 4.93825 -4.19572 0
M  V30 27556 N 2731.53 0.844266 1.33079 0
M  V30 27557 C 2732.81 0.364295 1.92178 0
M  V30 27558 C 2733.19 -1.15098 1.76963 0
M  V30 27559 O 2732.53 -1.96788 1.16132 0
M  V30 27560 C 2732.74 0.817166 3.39298 0
M  V30 27561 C 2734.09 0.828309 4.16442 0
M  V30 27562 O 2735.12 0.761123 3.47973 0
M  V30 27563 O 2733.97 0.921021 5.38683 0
M  V30 27564 H 2731.07 0.104205 0.820409 0
M  V30 27565 H 2733.61 0.930478 1.41916 0
M  V30 27566 H 2732.39 1.85997 3.44269 0
M  V30 27567 H 2732.01 0.227855 3.96947 0
M  V30 27568 N 2733.01 -1.45682 0.60121 0
M  V30 27569 C 2734.26 -2.01492 0.0915307 0
M  V30 27570 C 2734.57 -1.47619 -1.28328 0
M  V30 27571 O 2735.77 -1.95365 -1.88533 0
M  V30 27572 C 2734.23 -3.59723 0.112973 0
M  V30 27573 C 2733.84 -4.22593 1.48724 0
M  V30 27574 C 2735.58 -4.23122 -0.341797 0
M  V30 27575 C 2733.49 -5.72957 1.46541 0
M  V30 27576 H 2732.42 -0.753385 0.0304497 0
M  V30 27577 H 2735.07 -1.67221 0.755597 0
M  V30 27578 H 2733.45 -3.91154 -0.617623 0
M  V30 27579 H 2734.63 -4.02745 2.23904 0
M  V30 27580 H 2732.94 -3.71363 1.88357 0
M  V30 27581 H 2735.54 -5.33368 -0.37721 0
M  V30 27582 H 2735.88 -3.93349 -1.36318 0
M  V30 27583 H 2736.41 -3.96384 0.335326 0
M  V30 27584 H 2733.15 -6.07419 2.46419 0
M  V30 27585 H 2732.67 -5.95015 0.756102 0
M  V30 27586 H 2734.35 -6.36032 1.18629 0
M  V30 27587 N 2734.48 -0.340009 -1.53889 0
M  V30 27588 C 2735.73 0.257077 -2.00458 0
M  V30 27589 C 2736.05 1.51351 -1.22955 0
M  V30 27590 O 2735.32 1.93001 -0.335768 0
M  V30 27591 H 2733.9 0.0979835 -0.740546 0
M  V30 27592 H 2736.57 -0.46035 -1.89385 0
M  V30 27593 H 2735.66 0.502002 -3.08036 0
M  V30 27594 N 2735.96 1.57451 -0.0685468 0
M  V30 27595 C 2737.24 1.84759 0.642134 0
M  V30 27596 C 2737.62 0.960377 1.87989 0
M  V30 27597 O 2736.97 0.0258296 2.28485 0
M  V30 27598 C 2737.18 3.34874 0.982888 0
M  V30 27599 C 2738.53 4.02306 1.35777 0
M  V30 27600 O 2739.55 3.396 1.07471 0
M  V30 27601 O 2738.41 5.12899 1.88672 0
M  V30 27602 H 2735.5 0.763161 0.318612 0
M  V30 27603 H 2738.05 1.6941 -0.0992313 0
M  V30 27604 H 2736.82 3.91163 0.103652 0
M  V30 27605 H 2736.44 3.55474 1.78112 0
M  V30 27606 N 2737.44 -0.204984 1.56261 0
M  V30 27607 C 2738.37 -1.25696 1.96781 0
M  V30 27608 C 2739.35 -1.48007 0.838335 0
M  V30 27609 O 2740.54 -1.59911 1.10192 0
M  V30 27610 C 2737.67 -2.60331 2.2988 0
M  V30 27611 C 2736.62 -2.5265 3.45473 0
M  V30 27612 C 2735.95 -3.91467 3.64222 0
M  V30 27613 C 2737.25 -2.06005 4.79957 0
M  V30 27614 H 2738.94 -0.920288 2.84905 0
M  V30 27615 H 2736.49 -0.441253 1.37073 0
M  V30 27616 H 2738.44 -3.34098 2.5682 0
M  V30 27617 H 2737.16 -2.9572 1.38627 0
M  V30 27618 H 2735.82 -1.8134 3.18609 0
M  V30 27619 H 2735.47 -4.24191 2.70316 0
M  V30 27620 H 2735.17 -3.87205 4.4198 0
M  V30 27621 H 2736.7 -4.66871 3.93528 0
M  V30 27622 H 2738.11 -2.69524 5.05994 0
M  V30 27623 H 2736.51 -2.12767 5.61115 0
M  V30 27624 H 2737.58 -1.01289 4.74203 0
M  V30 27625 N 2738.92 -1.50356 -0.472329 0
M  V30 27626 C 2740.17 -1.61283 -1.2245 0
M  V30 27627 C 2740.49 -0.312594 -1.91972 0
M  V30 27628 O 2739.75 0.701443 -1.82697 0
M  V30 27629 C 2740.05 -2.74186 -2.29252 0
M  V30 27630 C 2739.71 -4.14711 -1.76991 0
M  V30 27631 C 2738.38 -4.52946 -1.62459 0
M  V30 27632 C 2740.73 -5.02542 -1.38206 0
M  V30 27633 C 2738.06 -5.76756 -1.07564 0
M  V30 27634 C 2740.41 -6.26897 -0.847528 0
M  V30 27635 C 2739.07 -6.63936 -0.688829 0
M  V30 27636 H 2738.34 -0.590176 -0.448077 0
M  V30 27637 H 2740.99 -1.84285 -0.520712 0
M  V30 27638 H 2739.29 -2.45268 -3.05534 0
M  V30 27639 H 2740.99 -2.79845 -2.87207 0
M  V30 27640 H 2737.58 -3.84545 -1.89269 0
M  V30 27641 H 2741.77 -4.73635 -1.48268 0
M  V30 27642 H 2737.02 -6.04129 -0.940131 0
M  V30 27643 H 2741.2 -6.94316 -0.538333 0
M  V30 27644 H 2738.82 -7.59751 -0.261301 0
M  V30 27645 N 2740.4 0.725419 -1.39912 0
M  V30 27646 C 2741.33 1.85252 -1.42141 0
M  V30 27647 C 2742.31 1.6772 -0.283542 0
M  V30 27648 O 2743.49 1.87897 -0.49075 0
M  V30 27649 C 2740.62 3.23105 -1.27359 0
M  V30 27650 C 2739.58 3.55291 -2.38646 0
M  V30 27651 C 2738.9 4.92184 -2.08947 0
M  V30 27652 C 2740.2 3.57288 -3.80976 0
M  V30 27653 H 2741.9 1.83644 -2.36464 0
M  V30 27654 H 2739.44 0.882118 -1.13819 0
M  V30 27655 H 2741.4 4.01637 -1.27537 0
M  V30 27656 H 2740.12 3.25264 -0.295083 0
M  V30 27657 H 2738.78 2.79094 -2.37701 0
M  V30 27658 H 2738.43 4.90934 -1.09511 0
M  V30 27659 H 2738.13 5.14686 -2.835 0
M  V30 27660 H 2739.65 5.73061 -2.10791 0
M  V30 27661 H 2741.07 4.25878 -3.83798 0
M  V30 27662 H 2739.46 3.91312 -4.54967 0
M  V30 27663 H 2740.53 2.56883 -4.11265 0
M  V30 27664 N 2741.88 1.25246 0.956615 0
M  V30 27665 C 2742.82 1.05244 2.07428 0
M  V30 27666 C 2743.82 -0.0160427 1.69392 0
M  V30 27667 O 2745.02 0.139413 1.79459 0
M  V30 27668 H 2741.4 0.323385 0.678915 0
M  V30 27669 H 2743.37 1.99999 2.21456 0
M  V30 27670 C 2742.12 0.685762 3.4087 0
M  V30 27671 H 2741.44 1.49974 3.70605 0
M  V30 27672 H 2742.88 0.585488 4.19938 0
M  V30 27673 C 2741.34 -0.608024 3.31368 0
M  V30 27674 O 2741.87 -1.65069 3.66217 0
M  V30 27675 N 2740.08 -0.592905 2.84487 0
M  V30 27676 H 2739.62 0.255965 2.56325 0
M  V30 27677 H 2739.58 -1.45872 2.78512 0
M  V30 27678 N 2743.35 -1.15894 1.068 0
M  V30 27679 C 2744.6 -1.86179 0.786243 0
M  V30 27680 C 2744.92 -1.82403 -0.689515 0
M  V30 27681 O 2744.19 -1.2611 -1.49911 0
M  V30 27682 H 2742.77 -0.68931 0.287856 0
M  V30 27683 H 2745.43 -1.40518 1.35058 0
M  V30 27684 H 2744.53 -2.91475 1.11575 0
M  V30 27685 N 2744.83 -0.851312 -1.32629 0
M  V30 27686 C 2745.76 -0.250797 -2.27824 0
M  V30 27687 C 2746.78 0.575571 -1.52286 0
M  V30 27688 O 2747.97 0.400607 -1.73947 0
M  V30 27689 C 2745.07 0.664512 -3.32321 0
M  V30 27690 C 2744.24 -0.125264 -4.37221 0
M  V30 27691 C 2743.3 0.715293 -5.21316 0
M  V30 27692 O 2742.32 0.150011 -5.69002 0
M  V30 27693 N 2743.53 2.03059 -5.43827 0
M  V30 27694 H 2746.29 -1.06878 -2.79995 0
M  V30 27695 H 2743.85 -0.710969 -1.45454 0
M  V30 27696 H 2745.84 1.2321 -3.85489 0
M  V30 27697 H 2744.41 1.38318 -2.80334 0
M  V30 27698 H 2743.63 -0.874267 -3.84383 0
M  V30 27699 H 2744.92 -0.667863 -5.04398 0
M  V30 27700 H 2744.32 2.51323 -5.06807 0
M  V30 27701 H 2742.88 2.54638 -6.00002 0
M  V30 27702 N 2746.31 1.45361 -0.608928 0
M  V30 27703 C 2747.54 2.06602 -0.111049 0
M  V30 27704 C 2747.95 1.45334 1.20513 0
M  V30 27705 O 2747.31 0.568008 1.73436 0
M  V30 27706 C 2747.36 3.61484 0.0336244 0
M  V30 27707 O 2747.08 4.20465 -1.23048 0
M  V30 27708 C 2748.58 4.39713 0.562805 0
M  V30 27709 H 2745.8 0.667395 -0.0694571 0
M  V30 27710 H 2748.35 1.86585 -0.83704 0
M  V30 27711 H 2746.5 3.80839 0.709949 0
M  V30 27712 H 2746.92 5.13656 -1.06103 0
M  V30 27713 H 2748.39 5.48584 0.613117 0
M  V30 27714 H 2748.87 4.09589 1.58535 0
M  V30 27715 H 2749.47 4.25226 -0.0795201 0
M  V30 27716 N 2747.79 0.348166 1.53706 0
M  V30 27717 C 2749.03 -0.247218 2.02899 0
M  V30 27718 C 2749.39 -1.47399 1.23035 0
M  V30 27719 O 2750.59 -2.14385 1.6215 0
M  V30 27720 C 2748.86 -0.549089 3.53157 0
M  V30 27721 S 2750.42 -1.12063 4.24249 0
M  V30 27722 H 2747.24 -0.073277 0.707214 0
M  V30 27723 H 2749.84 0.486998 1.89337 0
M  V30 27724 H 2748.55 0.351507 4.08892 0
M  V30 27725 H 2748.08 -1.31285 3.70848 0
M  V30 27726 H 2750.09 -2.40606 4.33962 0
M  V30 27727 N 2749.27 -1.57412 0.0768958 0
M  V30 27728 C 2750.68 -1.57129 -0.279745 0
M  V30 27729 C 2750.88 -1.08669 -1.69686 0
M  V30 27730 O 2749.94 -0.754886 -2.40952 0
M  V30 27731 C 2751.25 -3.00581 -0.0847526 0
M  V30 27732 C 2752.8 -3.12621 -0.153899 0
M  V30 27733 C 2753.27 -4.57998 0.0128751 0
M  V30 27734 N 2754.76 -4.6318 -0.0425621 0
M  V30 27735 C 2755.5 -5.73366 0.06199 0
M  V30 27736 N 2755 -6.92449 0.220351 0
M  V30 27737 N 2756.79 -5.621 0.00455952 0
M  V30 27738 H 2748.94 -1.87226 1.003 0
M  V30 27739 H 2751.2 -0.863347 0.391581 0
M  V30 27740 H 2750.91 -3.40166 0.89331 0
M  V30 27741 H 2750.78 -3.67844 -0.834896 0
M  V30 27742 H 2753.17 -2.72919 -1.12245 0
M  V30 27743 H 2753.25 -2.47986 0.627433 0
M  V30 27744 H 2752.89 -4.98391 0.978216 0
M  V30 27745 H 2752.82 -5.20672 -0.787924 0
M  V30 27746 H 2755.32 -3.77548 -0.16316 0
M  V30 27747 H 2755.63 -7.72248 0.292135 0
M  V30 27748 H 2753.97 -6.94529 0.25578 0
M  V30 27749 H 2757.16 -4.67952 -0.117897 0
M  V30 27750 H 2757.34 -6.47938 0.0894935 0
M  V30 27751 N 2750.74 0.196695 -1.56368 0
M  V30 27752 C 2751.99 0.915508 -1.79726 0
M  V30 27753 C 2752.31 1.8449 -0.649836 0
M  V30 27754 O 2753.51 2.60421 -0.767676 0
M  V30 27755 C 2751.97 1.67831 -3.18372 0
M  V30 27756 C 2751.58 0.79382 -4.40911 0
M  V30 27757 C 2753.32 2.38685 -3.51041 0
M  V30 27758 C 2751.23 1.55539 -5.7058 0
M  V30 27759 H 2750.16 0.345592 -0.670136 0
M  V30 27760 H 2752.81 0.168824 -1.82722 0
M  V30 27761 H 2751.19 2.46882 -3.09622 0
M  V30 27762 H 2752.36 0.042082 -4.60781 0
M  V30 27763 H 2750.68 0.196187 -4.15938 0
M  V30 27764 H 2753.28 2.96211 -4.45155 0
M  V30 27765 H 2753.62 3.12794 -2.7471 0
M  V30 27766 H 2754.15 1.66602 -3.61232 0
M  V30 27767 H 2750.89 0.857112 -6.49872 0
M  V30 27768 H 2750.41 2.28111 -5.5473 0
M  V30 27769 H 2752.09 2.10961 -6.11641 0
M  V30 27770 N 2752.22 1.50604 0.464349 0
M  V30 27771 C 2753.47 1.6217 1.21773 0
M  V30 27772 C 2753.8 0.324188 1.91475 0
M  V30 27773 O 2753.08 -0.67475 1.82421 0
M  V30 27774 C 2753.36 2.80665 2.25609 0
M  V30 27775 C 2753.21 4.20317 1.60168 0
M  V30 27776 C 2754.53 2.94707 3.26857 0
M  V30 27777 H 2751.65 0.59023 0.441359 0
M  V30 27778 H 2754.29 1.83011 0.51059 0
M  V30 27779 H 2752.44 2.63026 2.85919 0
M  V30 27780 H 2754.11 4.49562 1.03403 0
M  V30 27781 H 2752.36 4.24263 0.904622 0
M  V30 27782 H 2753.03 4.9917 2.35656 0
M  V30 27783 H 2755.5 3.10877 2.76577 0
M  V30 27784 H 2754.38 3.7923 3.96832 0
M  V30 27785 H 2754.64 2.0561 3.91378 0
M  V30 27786 N 2753.7 -0.717989 1.40295 0
M  V30 27787 C 2754.63 -1.84281 1.36284 0
M  V30 27788 C 2755.65 -1.60568 0.26865 0
M  V30 27789 O 2756.83 -1.70487 0.528827 0
M  V30 27790 C 2753.93 -3.20638 1.09747 0
M  V30 27791 C 2753.11 -3.71567 2.30774 0
M  V30 27792 C 2752.17 -4.86532 2.00433 0
M  V30 27793 O 2751.19 -4.99308 2.73277 0
M  V30 27794 N 2752.39 -5.72154 0.980825 0
M  V30 27795 H 2755.16 -1.88221 2.33223 0
M  V30 27796 H 2752.72 -0.899429 1.34618 0
M  V30 27797 H 2754.71 -3.95141 0.874391 0
M  V30 27798 H 2753.28 -3.11861 0.214826 0
M  V30 27799 H 2752.5 -2.88223 2.68926 0
M  V30 27800 H 2753.79 -4.02329 3.11462 0
M  V30 27801 H 2753.19 -5.64439 0.377474 0
M  V30 27802 H 2751.75 -6.46651 0.817651 0
M  V30 27803 N 2755.18 -1.25752 -0.94996 0
M  V30 27804 C 2756.59 -1.02675 -1.22189 0
M  V30 27805 C 2756.79 0.253553 -1.99898 0
M  V30 27806 O 2755.85 0.965035 -2.33331 0
M  V30 27807 C 2757.16 -2.2528 -1.99171 0
M  V30 27808 C 2758.71 -2.3009 -2.12197 0
M  V30 27809 C 2759.19 -3.52365 -2.9258 0
M  V30 27810 N 2760.68 -3.52789 -3.00156 0
M  V30 27811 C 2761.41 -4.44065 -3.62759 0
M  V30 27812 N 2760.91 -5.45619 -4.26933 0
M  V30 27813 N 2762.7 -4.31736 -3.59945 0
M  V30 27814 H 2754.85 -2.07997 -0.430221 0
M  V30 27815 H 2757.12 -0.913664 -0.252828 0
M  V30 27816 H 2756.82 -3.18356 -1.49473 0
M  V30 27817 H 2756.7 -2.28826 -2.99864 0
M  V30 27818 H 2759.08 -1.37534 -2.61091 0
M  V30 27819 H 2759.16 -2.3056 -1.10795 0
M  V30 27820 H 2758.81 -4.45245 -2.44375 0
M  V30 27821 H 2758.74 -3.49141 -3.94218 0
M  V30 27822 H 2761.23 -2.79331 -2.54524 0
M  V30 27823 H 2761.54 -6.1147 -4.72572 0
M  V30 27824 H 2759.89 -5.49486 -4.25547 0
M  V30 27825 H 2763.08 -3.51623 -3.08997 0
M  V30 27826 H 2763.25 -5.03066 -4.08446 0
M  V30 27827 N 2756.66 1.15326 -1.07413 0
M  V30 27828 C 2757.57 2.2371 -0.706477 0
M  V30 27829 C 2758.58 1.7169 0.282556 0
M  V30 27830 O 2759.76 2.00986 0.129031 0
M  V30 27831 C 2756.82 3.46524 -0.110541 0
M  V30 27832 C 2755.88 4.1353 -1.15289 0
M  V30 27833 C 2755.12 5.30481 -0.585299 0
M  V30 27834 O 2755.34 5.67252 0.598449 0
M  V30 27835 O 2754.27 5.87011 -1.33049 0
M  V30 27836 H 2758.1 2.5749 -1.61035 0
M  V30 27837 H 2755.69 1.23061 -0.847135 0
M  V30 27838 H 2757.57 4.20828 0.219496 0
M  V30 27839 H 2756.24 3.1449 0.766648 0
M  V30 27840 H 2755.15 3.41144 -1.53529 0
M  V30 27841 H 2756.48 4.49645 -2.002 0
M  V30 27842 N 2758.13 0.858334 1.32176 0
M  V30 27843 C 2759.06 0.321082 2.31282 0
M  V30 27844 C 2760.05 -0.581758 1.59842 0
M  V30 27845 O 2761.23 -0.501229 1.8762 0
M  V30 27846 C 2758.36 -0.48826 3.43851 0
M  V30 27847 C 2757.31 0.320466 4.26799 0
M  V30 27848 C 2756.64 -0.61384 5.31165 0
M  V30 27849 C 2757.94 1.54822 4.98826 0
M  V30 27850 H 2759.63 1.1492 2.76467 0
M  V30 27851 H 2757.18 0.554051 1.32915 0
M  V30 27852 H 2759.13 -0.874553 4.12225 0
M  V30 27853 H 2757.86 -1.34978 2.97403 0
M  V30 27854 H 2756.52 0.68856 3.60076 0
M  V30 27855 H 2756.16 -1.47231 4.8097 0
M  V30 27856 H 2755.86 -0.0767064 5.8755 0
M  V30 27857 H 2757.39 -0.99723 6.02402 0
M  V30 27858 H 2758.8 1.23401 5.59862 0
M  V30 27859 H 2757.2 2.02356 5.64953 0
M  V30 27860 H 2758.27 2.30746 4.26479 0
M  V30 27861 N 2759.61 -1.45036 0.616628 0
M  V30 27862 C 2760.54 -2.33349 -0.0840377 0
M  V30 27863 C 2761.52 -1.47362 -0.849615 0
M  V30 27864 O 2762.71 -1.76114 -0.818376 0
M  V30 27865 C 2759.84 -3.30212 -1.07599 0
M  V30 27866 C 2758.79 -4.25904 -0.423021 0
M  V30 27867 C 2758.12 -5.12526 -1.52385 0
M  V30 27868 C 2759.42 -5.18093 0.661549 0
M  V30 27869 H 2761.11 -2.92184 0.653385 0
M  V30 27870 H 2758.66 -1.40498 0.315658 0
M  V30 27871 H 2760.61 -3.90869 -1.57479 0
M  V30 27872 H 2759.34 -2.69555 -1.84412 0
M  V30 27873 H 2757.99 -3.66559 0.0549944 0
M  V30 27874 H 2757.64 -4.48231 -2.28249 0
M  V30 27875 H 2757.34 -5.77356 -1.09241 0
M  V30 27876 H 2758.87 -5.76052 -2.02474 0
M  V30 27877 H 2760.28 -5.7277 0.246453 0
M  V30 27878 H 2758.68 -5.91449 1.01527 0
M  V30 27879 H 2759.75 -4.59978 1.53454 0
M  V30 27880 N 2761.09 -0.356312 -1.53519 0
M  V30 27881 C 2762.34 0.236268 -2.01117 0
M  V30 27882 C 2762.67 1.49529 -1.24384 0
M  V30 27883 O 2761.92 1.93015 -0.323091 0
M  V30 27884 C 2762.22 0.583307 -3.52608 0
M  V30 27885 C 2761.89 -0.580309 -4.4715 0
M  V30 27886 C 2760.55 -0.899611 -4.72716 0
M  V30 27887 C 2762.9 -1.36033 -5.03135 0
M  V30 27888 C 2760.23 -2.00108 -5.5152 0
M  V30 27889 C 2762.58 -2.45214 -5.8314 0
M  V30 27890 C 2761.24 -2.7769 -6.06996 0
M  V30 27891 H 2760.51 0.0864566 -0.735939 0
M  V30 27892 H 2763.16 -0.486863 -1.85208 0
M  V30 27893 H 2761.47 1.38733 -3.66416 0
M  V30 27894 H 2763.16 1.0539 -3.86903 0
M  V30 27895 H 2759.75 -0.321397 -4.27393 0
M  V30 27896 H 2763.94 -1.1269 -4.83337 0
M  V30 27897 H 2759.19 -2.25678 -5.68225 0
M  V30 27898 H 2763.37 -3.06078 -6.25531 0
M  V30 27899 H 2760.99 -3.63163 -6.67845 0
M  V30 27900 N 2762.57 1.57369 -0.0852427 0
M  V30 27901 C 2763.85 1.8543 0.622502 0
M  V30 27902 C 2764.23 0.980262 1.8696 0
M  V30 27903 O 2763.57 0.0500621 2.28445 0
M  V30 27904 C 2763.78 3.35897 0.947314 0
M  V30 27905 C 2765.13 4.03723 1.31502 0
M  V30 27906 O 2766.16 3.40721 1.03863 0
M  V30 27907 O 2765.01 5.14871 1.83222 0
M  V30 27908 H 2762.11 0.766498 0.3105 0
M  V30 27909 H 2764.65 1.69295 -0.117194 0
M  V30 27910 H 2763.43 3.91251 0.0621576 0
M  V30 27911 H 2763.05 3.57343 1.74332 0
M  V30 27912 N 2764.05 -0.188399 1.5647 0
M  V30 27913 C 2764.98 -1.23602 1.98103 0
M  V30 27914 C 2765.96 -1.47109 0.853986 0
M  V30 27915 O 2767.14 -1.58733 1.11881 0
M  V30 27916 C 2764.27 -2.57878 2.32629 0
M  V30 27917 C 2763.23 -2.48972 3.48134 0
M  V30 27918 C 2762.55 -3.87582 3.68354 0
M  V30 27919 C 2763.85 -2.00903 4.82115 0
M  V30 27920 H 2765.55 -0.890018 2.85865 0
M  V30 27921 H 2763.09 -0.42669 1.37533 0
M  V30 27922 H 2765.05 -3.31355 2.60349 0
M  V30 27923 H 2763.77 -2.94233 1.41756 0
M  V30 27924 H 2762.43 -1.7795 3.20514 0
M  V30 27925 H 2762.08 -4.213 2.748 0
M  V30 27926 H 2761.78 -3.82496 4.46062 0
M  V30 27927 H 2763.3 -4.62671 3.98457 0
M  V30 27928 H 2764.71 -2.64142 5.08824 0
M  V30 27929 H 2763.11 -2.06804 5.6334 0
M  V30 27930 H 2764.18 -0.962536 4.75251 0
M  V30 27931 N 2765.53 -1.50848 -0.456355 0
M  V30 27932 C 2766.77 -1.62252 -1.20494 0
M  V30 27933 C 2767.09 -0.331872 -1.92155 0
M  V30 27934 O 2766.36 0.651411 -1.84752 0
M  V30 27935 H 2764.94 -0.597926 -0.447765 0
M  V30 27936 H 2767.61 -1.87694 -0.525066 0
M  V30 27937 H 2766.7 -2.44092 -1.94487 0
M  V30 27938 N 2767 0.710538 -1.40674 0
M  V30 27939 C 2768.25 1.47265 -1.39431 0
M  V30 27940 C 2768.58 1.942 0.00178716 0
M  V30 27941 O 2767.86 1.68508 0.971357 0
M  V30 27942 C 2768.14 2.69516 -2.38817 0
M  V30 27943 C 2767.99 2.28442 -3.87471 0
M  V30 27944 C 2769.31 3.71685 -2.35666 0
M  V30 27945 H 2766.43 0.534164 -0.507778 0
M  V30 27946 H 2769.07 0.810517 -1.71845 0
M  V30 27947 H 2767.22 3.26009 -2.11306 0
M  V30 27948 H 2768.9 1.77391 -4.25829 0
M  V30 27949 H 2767.14 1.60388 -4.03061 0
M  V30 27950 H 2767.81 3.16095 -4.52535 0
M  V30 27951 H 2770.29 3.24831 -2.60046 0
M  V30 27952 H 2769.16 4.54854 -3.07245 0
M  V30 27953 H 2769.42 4.20336 -1.37003 0
M  V30 27954 N 2768.48 1.26254 0.943277 0
M  V30 27955 C 2769.44 1.07693 2.02324 0
M  V30 27956 C 2770.44 0.0259457 1.60779 0
M  V30 27957 O 2771.63 0.269164 1.72108 0
M  V30 27958 C 2768.77 0.637579 3.34885 0
M  V30 27959 H 2769.96 2.03574 2.20222 0
M  V30 27960 H 2767.51 1.08821 1.12195 0
M  V30 27961 H 2768.25 -0.323321 3.22684 0
M  V30 27962 H 2768.03 1.39643 3.66391 0
M  V30 27963 H 2769.52 0.529491 4.1423 0
M  V30 27964 N 2769.96 -1.14755 1.08024 0
M  V30 27965 C 2771.19 -1.89296 0.827679 0
M  V30 27966 C 2771.6 -1.78632 -0.623474 0
M  V30 27967 O 2770.94 -1.14074 -1.43989 0
M  V30 27968 C 2771 -3.4008 1.16559 0
M  V30 27969 C 2770.67 -3.74529 2.61872 0
M  V30 27970 C 2771.66 -3.74977 3.60122 0
M  V30 27971 C 2769.35 -4.04628 2.97626 0
M  V30 27972 C 2771.34 -4.05042 4.92158 0
M  V30 27973 C 2769.03 -4.34357 4.29858 0
M  V30 27974 C 2770.03 -4.34546 5.26933 0
M  V30 27975 O 2769.72 -4.63557 6.56788 0
M  V30 27976 H 2769.45 -0.606572 0.298407 0
M  V30 27977 H 2772 -1.46283 1.44189 0
M  V30 27978 H 2770.23 -3.83527 0.494363 0
M  V30 27979 H 2771.92 -3.95922 0.894476 0
M  V30 27980 H 2772.69 -3.51815 3.33843 0
M  V30 27981 H 2768.57 -4.03635 2.22709 0
M  V30 27982 H 2772.11 -4.05105 5.67922 0
M  V30 27983 H 2768.01 -4.56987 4.55887 0
M  V30 27984 H 2768.77 -4.81291 6.62043 0
M  V30 27985 N 2771.44 -0.865331 -1.31719 0
M  V30 27986 C 2772.69 -0.47303 -1.96486 0
M  V30 27987 C 2773.01 0.976946 -1.68762 0
M  V30 27988 O 2772.28 1.68422 -1.00054 0
M  V30 27989 H 2770.86 -0.171934 -0.726944 0
M  V30 27990 H 2773.52 -1.1041 -1.6061 0
M  V30 27991 H 2772.61 -0.626924 -3.05739 0
M  V30 27992 N 2772.92 1.44707 -0.624311 0
M  V30 27993 C 2774.16 2.01321 -0.123575 0
M  V30 27994 C 2774.48 1.49642 1.25963 0
M  V30 27995 O 2775.68 1.9834 1.85401 0
M  V30 27996 C 2774.14 3.59497 -0.170187 0
M  V30 27997 C 2773.75 4.20174 -1.55429 0
M  V30 27998 C 2775.49 4.23612 0.274439 0
M  V30 27999 C 2773.4 5.70553 -1.55638 0
M  V30 28000 H 2772.33 0.752805 -0.0424316 0
M  V30 28001 H 2774.98 1.65998 -0.782105 0
M  V30 28002 H 2773.36 3.92087 0.555316 0
M  V30 28003 H 2774.54 3.99132 -2.30283 0
M  V30 28004 H 2772.85 3.68319 -1.94242 0
M  V30 28005 H 2775.45 5.339 0.292308 0
M  V30 28006 H 2775.79 3.95468 1.30043 0
M  V30 28007 H 2776.32 3.95801 -0.398345 0
M  V30 28008 H 2773.06 6.03422 -2.56051 0
M  V30 28009 H 2772.58 5.93737 -0.850668 0
M  V30 28010 H 2774.26 6.34064 -1.28732 0
M  V30 28011 N 2774.39 0.364449 1.53328 0
M  V30 28012 C 2775.67 -0.281928 1.93558 0
M  V30 28013 C 2776.05 -1.66488 1.29788 0
M  V30 28014 O 2775.4 -2.23893 0.456552 0
M  V30 28015 C 2775.61 -0.33327 3.47405 0
M  V30 28016 C 2776.96 -0.574157 4.207 0
M  V30 28017 O 2777.98 -0.414525 3.5378 0
M  V30 28018 O 2776.84 -0.884907 5.39288 0
M  V30 28019 H 2773.93 -0.168867 0.809576 0
M  V30 28020 H 2776.48 0.41715 1.64493 0
M  V30 28021 H 2775.25 0.636394 3.8609 0
M  V30 28022 H 2774.87 -1.07829 3.82699 0
M  V30 28023 N 2775.87 -1.57322 0.0935872 0
M  V30 28024 C 2777.11 -1.96179 -0.573866 0
M  V30 28025 C 2777.48 -0.974289 -1.65444 0
M  V30 28026 O 2778.68 -1.2513 -2.37899 0
M  V30 28027 C 2776.95 -3.39528 -1.11606 0
M  V30 28028 S 2778.51 -4.0038 -1.79559 0
M  V30 28029 H 2775.32 -0.685885 -0.187303 0
M  V30 28030 H 2777.93 -1.94736 0.172631 0
M  V30 28031 H 2776.63 -4.09166 -0.318078 0
M  V30 28032 H 2776.16 -3.44563 -1.89842 0
M  V30 28033 H 2778.18 -3.89061 -3.07971 0
M  V30 28034 N 2777.35 0.180099 -1.56568 0
M  V30 28035 C 2778.28 1.2255 -1.98756 0
M  V30 28036 C 2779.26 1.46654 -0.861776 0
M  V30 28037 O 2780.45 1.58137 -1.12722 0
M  V30 28038 C 2777.58 2.56641 -2.33993 0
M  V30 28039 C 2776.53 2.47122 -3.49449 0
M  V30 28040 C 2775.86 3.85623 -3.70404 0
M  V30 28041 C 2777.16 1.98343 -4.83174 0
M  V30 28042 H 2778.85 0.874846 -2.86333 0
M  V30 28043 H 2776.4 0.41939 -1.37757 0
M  V30 28044 H 2778.35 3.2997 -2.62103 0
M  V30 28045 H 2777.07 2.93477 -1.43314 0
M  V30 28046 H 2775.73 1.76248 -3.21453 0
M  V30 28047 H 2775.38 4.19837 -2.77031 0
M  V30 28048 H 2775.08 3.80125 -4.48084 0
M  V30 28049 H 2776.6 4.60551 -4.00905 0
M  V30 28050 H 2778.02 2.6144 -5.10217 0
M  V30 28051 H 2776.41 2.03813 -5.64429 0
M  V30 28052 H 2777.48 0.937319 -4.75754 0
M  V30 28053 N 2778.83 1.51088 0.448349 0
M  V30 28054 C 2779.76 1.74547 1.55099 0
M  V30 28055 C 2780.74 0.594961 1.59356 0
M  V30 28056 O 2781.92 0.836522 1.7526 0
M  V30 28057 C 2779.05 1.86046 2.93265 0
M  V30 28058 C 2778.01 3.01407 3.03871 0
M  V30 28059 C 2777.33 2.98075 4.43909 0
M  V30 28060 C 2778.63 4.41556 2.78972 0
M  V30 28061 H 2780.33 2.66872 1.3572 0
M  V30 28062 H 2777.87 1.2842 0.651475 0
M  V30 28063 H 2779.83 2.01041 3.70352 0
M  V30 28064 H 2778.55 0.903603 3.13851 0
M  V30 28065 H 2777.21 2.861 2.29222 0
M  V30 28066 H 2776.86 2.0019 4.61447 0
M  V30 28067 H 2776.56 3.75535 4.51937 0
M  V30 28068 H 2778.08 3.15149 5.22985 0
M  V30 28069 H 2779.5 4.57271 3.45797 0
M  V30 28070 H 2777.89 5.20638 2.98422 0
M  V30 28071 H 2778.96 4.52353 1.74655 0
M  V30 28072 N 2780.31 -0.703068 1.41049 0
M  V30 28073 C 2781.56 -1.45868 1.39303 0
M  V30 28074 C 2781.87 -1.956 0.00270515 0
M  V30 28075 O 2783.07 -2.71152 -0.137366 0
M  V30 28076 C 2781.53 -2.63731 2.44896 0
M  V30 28077 C 2781.14 -2.20817 3.898 0
M  V30 28078 C 2782.88 -3.41404 2.52276 0
M  V30 28079 C 2780.79 -3.35594 4.86961 0
M  V30 28080 H 2779.72 -0.547884 0.518015 0
M  V30 28081 H 2782.37 -0.763979 1.6684 0
M  V30 28082 H 2780.75 -3.35432 2.10478 0
M  V30 28083 H 2781.93 -1.56454 4.33427 0
M  V30 28084 H 2780.24 -1.56156 3.86011 0
M  V30 28085 H 2782.84 -4.26834 3.22051 0
M  V30 28086 H 2783.18 -3.86078 1.55721 0
M  V30 28087 H 2783.71 -2.76755 2.85747 0
M  V30 28088 H 2780.45 -2.95939 5.84893 0
M  V30 28089 H 2779.97 -3.98831 4.47989 0
M  V30 28090 H 2781.65 -4.0148 5.07368 0
M  V30 28091 N 2781.78 -1.26752 -0.936569 0
M  V30 28092 C 2783.06 -1.03309 -1.66092 0
M  V30 28093 C 2783.44 0.435021 -2.06569 0
M  V30 28094 O 2782.79 1.41637 -1.79307 0
M  V30 28095 C 2783 -1.98624 -2.86966 0
M  V30 28096 C 2784.35 -2.27495 -3.58512 0
M  V30 28097 O 2785.37 -1.96527 -2.97078 0
M  V30 28098 O 2784.23 -2.80243 -4.69176 0
M  V30 28099 H 2781.32 -0.393171 -0.727561 0
M  V30 28100 H 2783.87 -1.37981 -0.98789 0
M  V30 28101 H 2782.64 -2.97674 -2.5398 0
M  V30 28102 H 2782.27 -1.6446 -3.61993 0
M  V30 28103 N 2783.26 1.1418 -1.08631 0
M  V30 28104 C 2784.67 1.66835 -0.838032 0
M  V30 28105 C 2785.02 1.85645 0.634852 0
M  V30 28106 O 2784.15 1.56928 1.49005 0
M  V30 28107 C 2784.74 3.03055 -1.5147 0
M  V30 28108 C 2783.3 3.52734 -1.31361 0
M  V30 28109 C 2782.45 2.28159 -1.57603 0
M  V30 28110 H 2785.4 0.982143 -1.24658 0
M  V30 28111 H 2785.42 3.68624 -0.943199 0
M  V30 28112 H 2784.93 2.89333 -2.58666 0
M  V30 28113 H 2783.04 3.71675 -0.262449 0
M  V30 28114 H 2783.15 4.33365 -2.04282 0
M  V30 28115 H 2781.51 2.34346 -0.9977 0
M  V30 28116 H 2782.3 2.17011 -2.6601 0
M  V30 28117 N 2784.74 0.872304 1.31258 0
M  V30 28118 C 2785.97 0.498942 2.00794 0
M  V30 28119 C 2786.38 -0.909209 1.65466 0
M  V30 28120 O 2785.74 -1.596 0.885101 0
M  V30 28121 C 2785.79 0.649155 3.55624 0
M  V30 28122 O 2785.51 2.00185 3.89689 0
M  V30 28123 C 2787.01 0.277112 4.42433 0
M  V30 28124 H 2784.23 0.194157 0.642296 0
M  V30 28125 H 2786.78 1.17411 1.67436 0
M  V30 28126 H 2784.93 0.0215083 3.87394 0
M  V30 28127 H 2785.35 2.01131 4.84403 0
M  V30 28128 H 2786.82 0.433161 5.50298 0
M  V30 28129 H 2787.3 -0.783913 4.32147 0
M  V30 28130 H 2787.9 0.880556 4.16084 0
M  V30 28131 N 2786.22 -1.44374 0.631976 0
M  V30 28132 C 2787.15 -2.33425 -0.0592832 0
M  V30 28133 C 2788.13 -1.48255 -0.833938 0
M  V30 28134 O 2789.31 -1.76972 -0.799651 0
M  V30 28135 C 2786.44 -3.31334 -1.0409 0
M  V30 28136 C 2785.4 -4.26329 -0.377824 0
M  V30 28137 C 2784.72 -5.14113 -1.46941 0
M  V30 28138 C 2786.02 -5.17363 0.716462 0
M  V30 28139 H 2787.72 -2.91474 0.684338 0
M  V30 28140 H 2785.26 -1.40155 0.330542 0
M  V30 28141 H 2787.22 -3.92517 -1.53324 0
M  V30 28142 H 2785.94 -2.71496 -1.81542 0
M  V30 28143 H 2784.6 -3.6648 0.0938698 0
M  V30 28144 H 2784.25 -4.50627 -2.23482 0
M  V30 28145 H 2783.95 -5.78482 -1.03111 0
M  V30 28146 H 2785.47 -5.78168 -1.96353 0
M  V30 28147 H 2786.89 -5.72476 0.307189 0
M  V30 28148 H 2785.28 -5.90339 1.07795 0
M  V30 28149 H 2786.35 -4.58325 1.58324 0
M  V30 28150 N 2787.7 -0.372575 -1.53133 0
M  V30 28151 C 2788.94 0.214499 -2.00958 0
M  V30 28152 C 2789.27 1.48709 -1.26138 0
M  V30 28153 O 2788.54 1.92245 -0.37663 0
M  V30 28154 H 2787.12 0.0822534 -0.742458 0
M  V30 28155 H 2789.78 -0.500418 -1.88366 0
M  V30 28156 H 2788.87 0.43655 -3.09032 0
M  V30 28157 N 2789.17 1.5727 -0.101929 0
M  V30 28158 C 2790.42 1.94214 0.559057 0
M  V30 28159 C 2790.74 0.984978 1.68295 0
M  V30 28160 O 2790.01 0.0382319 1.95863 0
M  V30 28161 H 2788.59 0.717018 0.209508 0
M  V30 28162 H 2791.26 1.94184 -0.166866 0
M  V30 28163 H 2790.35 2.96813 0.964798 0
M  V30 28164 N 2790.65 -0.171793 1.56661 0
M  V30 28165 C 2792.07 -0.523544 1.50769 0
M  V30 28166 C 2792.27 -1.84673 0.806105 0
M  V30 28167 O 2791.32 -2.49829 0.366277 0
M  V30 28168 C 2792.64 -0.556741 2.95501 0
M  V30 28169 C 2794.19 -0.643975 3.06304 0
M  V30 28170 C 2794.66 -0.708069 4.52494 0
M  V30 28171 N 2796.15 -0.770971 4.56739 0
M  V30 28172 C 2796.89 -0.841129 5.67197 0
M  V30 28173 N 2796.38 -0.872151 6.87288 0
M  V30 28174 N 2798.18 -0.880112 5.55167 0
M  V30 28175 H 2790.33 0.695853 2.00678 0
M  V30 28176 H 2792.59 0.25083 0.914215 0
M  V30 28177 H 2792.3 0.346835 3.49986 0
M  V30 28178 H 2792.17 -1.40339 3.50121 0
M  V30 28179 H 2794.56 -1.53798 2.51854 0
M  V30 28180 H 2794.64 0.229342 2.5477 0
M  V30 28181 H 2794.28 0.181674 5.07575 0
M  V30 28182 H 2794.21 -1.59752 5.01784 0
M  V30 28183 H 2796.7 -0.755299 3.70275 0
M  V30 28184 H 2797.02 -0.926845 7.67222 0
M  V30 28185 H 2795.36 -0.840436 6.899 0
M  V30 28186 H 2798.55 -0.852875 4.60265 0
M  V30 28187 H 2798.72 -0.931327 6.41272 0
M  V30 28188 N 2792.13 -1.51324 -0.44033 0
M  V30 28189 C 2793.37 -1.65501 -1.19953 0
M  V30 28190 C 2793.73 -0.361911 -1.88558 0
M  V30 28191 O 2794.94 -0.37943 -2.66109 0
M  V30 28192 C 2793.21 -2.82307 -2.19175 0
M  V30 28193 S 2794.77 -3.16796 -3.03621 0
M  V30 28194 H 2791.58 -0.583109 -0.406823 0
M  V30 28195 H 2794.19 -1.89219 -0.491563 0
M  V30 28196 H 2792.89 -3.74704 -1.67407 0
M  V30 28197 H 2792.42 -2.60768 -2.94556 0
M  V30 28198 H 2794.44 -2.62998 -4.20769 0
M  V30 28199 N 2793.61 0.695578 -1.41419 0
M  V30 28200 C 2794.89 1.45012 -1.31266 0
M  V30 28201 C 2795.27 2.11015 0.0597623 0
M  V30 28202 O 2794.61 2.01687 1.074 0
M  V30 28203 C 2794.82 2.46956 -2.46605 0
M  V30 28204 C 2796.17 3.12209 -2.87769 0
M  V30 28205 O 2797.2 2.5728 -2.46344 0
M  V30 28206 O 2796.05 4.11694 -3.59402 0
M  V30 28207 H 2793.15 0.645807 -0.516587 0
M  V30 28208 H 2795.69 0.726057 -1.53383 0
M  V30 28209 H 2794.47 1.96839 -3.38187 0
M  V30 28210 H 2794.09 3.26872 -2.26364 0
M  V30 28211 N 2795.09 1.27247 0.929833 0
M  V30 28212 C 2796.32 1.16268 1.71142 0
M  V30 28213 C 2796.73 -0.280753 1.86701 0
M  V30 28214 O 2796.09 -1.19134 1.38251 0
M  V30 28215 C 2796.14 1.83916 3.11219 0
M  V30 28216 O 2795.86 3.22619 2.96392 0
M  V30 28217 C 2797.36 1.79035 4.05538 0
M  V30 28218 H 2794.58 0.404338 0.535492 0
M  V30 28219 H 2797.12 1.68079 1.16489 0
M  V30 28220 H 2795.28 1.36015 3.62738 0
M  V30 28221 H 2795.69 3.56268 3.84933 0
M  V30 28222 H 2797.17 2.30987 5.01347 0
M  V30 28223 H 2797.64 0.759244 4.32588 0
M  V30 28224 H 2798.25 2.26541 3.59943 0
M  V30 28225 N 2796.57 -1.13603 1.09235 0
M  V30 28226 C 2797.81 -1.84834 0.827192 0
M  V30 28227 C 2798.14 -1.83418 -0.647167 0
M  V30 28228 O 2797.4 -1.26611 -1.49225 0
M  V30 28229 C 2797.69 -3.3272 1.30506 0
M  V30 28230 C 2797.36 -3.5432 2.7887 0
M  V30 28231 C 2796.02 -3.59923 3.19388 0
M  V30 28232 C 2798.37 -3.6245 3.74539 0
M  V30 28233 C 2795.7 -3.71188 4.54353 0
M  V30 28234 C 2798.05 -3.75243 5.09289 0
M  V30 28235 C 2796.72 -3.79098 5.49401 0
M  V30 28236 H 2795.99 -0.676357 0.302691 0
M  V30 28237 H 2798.64 -1.34132 1.36678 0
M  V30 28238 H 2796.94 -3.85761 0.685238 0
M  V30 28239 H 2798.64 -3.86279 1.07654 0
M  V30 28240 H 2795.23 -3.50613 2.46513 0
M  V30 28241 H 2799.41 -3.57403 3.4435 0
M  V30 28242 H 2794.67 -3.72439 4.8487 0
M  V30 28243 H 2798.84 -3.80477 5.83276 0
M  V30 28244 H 2796.47 -3.87579 6.53977 0
M  V30 28245 N 2798.04 -0.879253 -1.30793 0
M  V30 28246 C 2799.27 -0.509584 -2.00526 0
M  V30 28247 C 2799.69 0.900421 -1.65945 0
M  V30 28248 O 2799.04 1.59129 -0.893553 0
M  V30 28249 C 2799.09 -0.668005 -3.55274 0
M  V30 28250 O 2798.82 -2.02249 -3.88622 0
M  V30 28251 C 2800.32 -0.300572 -4.4228 0
M  V30 28252 H 2797.54 -0.19756 -0.641257 0
M  V30 28253 H 2800.08 -1.18298 -1.66811 0
M  V30 28254 H 2798.24 -0.0420524 -3.87377 0
M  V30 28255 H 2798.65 -2.03697 -4.8333 0
M  V30 28256 H 2800.12 -0.462339 -5.5006 0
M  V30 28257 H 2800.6 0.760984 -4.32557 0
M  V30 28258 H 2801.21 -0.902609 -4.15612 0
M  V30 28259 N 2799.52 1.44037 -0.639624 0
M  V30 28260 C 2800.75 2.0632 -0.154847 0
M  V30 28261 C 2801.16 1.47858 1.17403 0
M  V30 28262 O 2800.52 0.604669 1.72192 0
M  V30 28263 C 2800.57 3.61474 -0.0430593 0
M  V30 28264 O 2800.29 4.1776 -1.31939 0
M  V30 28265 C 2801.79 4.40808 0.469408 0
M  V30 28266 H 2799.01 0.665772 -0.0835979 0
M  V30 28267 H 2801.56 1.84767 -0.87643 0
M  V30 28268 H 2799.71 3.82259 0.629008 0
M  V30 28269 H 2800.13 5.1129 -1.16974 0
M  V30 28270 H 2801.6 5.49762 0.496616 0
M  V30 28271 H 2802.08 4.1286 1.49812 0
M  V30 28272 H 2802.68 4.24961 -0.169699 0
M  V30 28273 N 2801 0.380691 1.52933 0
M  V30 28274 C 2802.25 -0.204242 2.01467 0
M  V30 28275 C 2802.57 -1.47531 1.26747 0
M  V30 28276 O 2801.83 -1.92476 0.353757 0
M  V30 28277 C 2802.13 -0.527137 3.53491 0
M  V30 28278 C 2801.79 0.651373 4.4617 0
M  V30 28279 C 2800.46 0.974702 4.71225 0
M  V30 28280 C 2802.81 1.4402 5.00907 0
M  V30 28281 C 2800.14 2.08856 5.48266 0
M  V30 28282 C 2802.49 2.5446 5.79166 0
M  V30 28283 C 2801.15 2.87311 6.02502 0
M  V30 28284 H 2800.42 -0.0747375 0.737221 0
M  V30 28285 H 2803.07 0.516266 1.8441 0
M  V30 28286 H 2801.37 -1.32886 3.68576 0
M  V30 28287 H 2803.07 -0.992215 3.88531 0
M  V30 28288 H 2799.66 0.389351 4.26828 0
M  V30 28289 H 2803.85 1.20365 4.81483 0
M  V30 28290 H 2799.1 2.34689 5.64563 0
M  V30 28291 H 2803.28 3.15991 6.20583 0
M  V30 28292 H 2800.9 3.73742 6.61983 0
M  V30 28293 N 2802.48 -1.57214 0.110268 0
M  V30 28294 C 2803.75 -1.86397 -0.592923 0
M  V30 28295 C 2804.13 -1.00988 -1.85377 0
M  V30 28296 O 2803.48 -0.0863994 -2.28337 0
M  V30 28297 C 2803.69 -3.37362 -0.893756 0
M  V30 28298 C 2805.04 -4.05764 -1.25062 0
M  V30 28299 O 2806.06 -3.4233 -0.984296 0
M  V30 28300 O 2804.92 -5.17721 -1.75008 0
M  V30 28301 H 2802.02 -0.771341 -0.298266 0
M  V30 28302 H 2804.56 -1.69087 0.144112 0
M  V30 28303 H 2803.34 -3.913 9.48118e-05 0
M  V30 28304 H 2802.96 -3.60071 -1.68625 0
M  V30 28305 N 2803.96 0.163482 -1.5675 0
M  V30 28306 C 2804.92 1.1861 -1.96123 0
M  V30 28307 C 2805.92 1.36759 -0.845789 0
M  V30 28308 O 2807.11 1.34031 -1.11271 0
M  V30 28309 C 2804.24 2.54965 -2.26287 0
M  V30 28310 H 2805.43 0.848714 -2.8764 0
M  V30 28311 H 2802.99 0.406225 -1.50929 0
M  V30 28312 H 2803.72 2.93704 -1.37509 0
M  V30 28313 H 2803.51 2.43156 -3.07599 0
M  V30 28314 H 2805 3.28648 -2.57643 0
M  V30 28315 N 2805.43 1.51555 0.432299 0
M  V30 28316 C 2806.66 1.68574 1.20821 0
M  V30 28317 C 2807.08 0.384628 1.84126 0
M  V30 28318 O 2806.44 -0.655722 1.69027 0
M  V30 28319 C 2806.49 2.8065 2.26424 0
M  V30 28320 O 2805.59 2.44604 3.32028 0
M  V30 28321 H 2804.93 0.561919 0.353755 0
M  V30 28322 H 2807.46 1.98145 0.509881 0
M  V30 28323 H 2807.47 3.04883 2.71128 0
M  V30 28324 H 2806.15 3.75062 1.79727 0
M  V30 28325 H 2804.73 2.30961 2.92765 0
M  V30 28326 N 2806.91 -0.688069 1.41786 0
M  V30 28327 C 2808.16 -1.44527 1.41267 0
M  V30 28328 C 2808.48 -1.94984 0.0253289 0
M  V30 28329 O 2807.75 -1.72198 -0.934051 0
M  V30 28330 H 2806.33 -0.536285 0.520007 0
M  V30 28331 H 2808.99 -0.81391 1.77092 0
M  V30 28332 H 2808.09 -2.30478 2.10443 0
M  V30 28333 N 2808.39 -1.27739 -0.923072 0
M  V30 28334 C 2809.3 -1.12688 -2.05763 0
M  V30 28335 C 2810.32 -0.0557503 -1.73911 0
M  V30 28336 O 2811.49 -0.263172 -1.99673 0
M  V30 28337 C 2808.56 -0.780422 -3.37802 0
M  V30 28338 C 2807.62 -1.93293 -3.83323 0
M  V30 28339 C 2806.85 -1.6029 -5.09061 0
M  V30 28340 O 2807.07 -0.512928 -5.68089 0
M  V30 28341 O 2806.01 -2.44357 -5.50067 0
M  V30 28342 H 2809.83 -2.07911 -2.21375 0
M  V30 28343 H 2807.42 -1.06969 -1.04297 0
M  V30 28344 H 2809.3 -0.600742 -4.17096 0
M  V30 28345 H 2807.98 0.142234 -3.23387 0
M  V30 28346 H 2806.88 -2.1677 -3.04896 0
M  V30 28347 H 2808.22 -2.83595 -4.02287 0
M  V30 28348 N 2809.87 1.13022 -1.09836 0
M  V30 28349 C 2811.11 1.86039 -0.846696 0
M  V30 28350 C 2811.47 1.81832 0.616525 0
M  V30 28351 O 2812.67 2.50131 0.984285 0
M  V30 28352 C 2810.94 3.30002 -1.37234 0
M  V30 28353 S 2812.5 4.20465 -1.25519 0
M  V30 28354 H 2809.32 0.641725 -0.306121 0
M  V30 28355 H 2811.92 1.36192 -1.40257 0
M  V30 28356 H 2810.63 3.3062 -2.43143 0
M  V30 28357 H 2810.16 3.84912 -0.812778 0
M  V30 28358 H 2812.17 4.9576 -0.208849 0
M  V30 28359 N 2811.35 0.886177 1.30325 0
M  V30 28360 C 2812.59 0.504229 1.95709 0
M  V30 28361 C 2812.92 -0.949973 1.70295 0
M  V30 28362 O 2812.19 -1.66809 1.02721 0
M  V30 28363 H 2810.77 0.183478 0.724117 0
M  V30 28364 H 2813.43 1.12951 1.58833 0
M  V30 28365 H 2812.52 0.675485 3.04702 0
M  V30 28366 N 2812.82 -1.43695 0.647253 0
M  V30 28367 C 2814.05 -2.0675 0.16412 0
M  V30 28368 C 2814.47 -1.4816 -1.15889 0
M  V30 28369 O 2813.83 -0.589224 -1.71458 0
M  V30 28370 C 2813.88 -3.60511 0.0801001 0
M  V30 28371 O 2812.98 -4.01086 -0.959383 0
M  V30 28372 H 2812.33 -0.657576 0.0921404 0
M  V30 28373 H 2814.86 -1.84301 0.888493 0
M  V30 28374 H 2814.87 -4.07864 -0.105192 0
M  V30 28375 H 2813.54 -4.02533 1.04593 0
M  V30 28376 H 2812.12 -3.65334 -0.747361 0
M  V30 28377 N 2814.3 -0.388796 -1.52729 0
M  V30 28378 C 2815.54 0.193336 -2.03484 0
M  V30 28379 C 2815.91 1.44085 -1.269 0
M  V30 28380 O 2817.11 2.10011 -1.67777 0
M  V30 28381 C 2815.38 0.455263 -3.54489 0
M  V30 28382 S 2816.94 1.00775 -4.27071 0
M  V30 28383 H 2813.76 0.0545007 -0.708908 0
M  V30 28384 H 2816.36 -0.537026 -1.87979 0
M  V30 28385 H 2815.06 -0.459794 -4.07816 0
M  V30 28386 H 2814.59 1.21406 -3.74198 0
M  V30 28387 H 2816.61 2.29015 -4.40189 0
M  V30 28388 N 2815.78 1.57153 -0.118604 0
M  V30 28389 C 2817.03 1.9547 0.540291 0
M  V30 28390 C 2817.36 1.00199 1.66355 0
M  V30 28391 O 2816.63 0.0391382 1.94461 0
M  V30 28392 C 2816.92 3.43731 1.07336 0
M  V30 28393 C 2816.77 4.49776 -0.0464523 0
M  V30 28394 C 2818.09 3.93829 1.96435 0
M  V30 28395 H 2815.21 0.710755 0.194927 0
M  V30 28396 H 2817.85 1.89006 -0.194083 0
M  V30 28397 H 2816 3.49371 1.69918 0
M  V30 28398 H 2817.67 4.56235 -0.681729 0
M  V30 28399 H 2815.92 4.27956 -0.709649 0
M  V30 28400 H 2816.59 5.50774 0.36776 0
M  V30 28401 H 2819.06 3.9049 1.43724 0
M  V30 28402 H 2817.94 4.98088 2.30651 0
M  V30 28403 H 2818.2 3.345 2.89071 0
M  V30 28404 N 2817.26 -0.155167 1.56834 0
M  V30 28405 C 2818.21 -1.21104 1.98586 0
M  V30 28406 C 2819.2 -1.44931 0.877012 0
M  V30 28407 O 2820.41 -1.4532 1.06218 0
M  V30 28408 H 2816.78 -0.407458 0.632046 0
M  V30 28409 H 2818.75 -0.832145 2.86562 0
M  V30 28410 C 2817.5 -2.53891 2.3756 0
M  V30 28411 H 2816.82 -2.36384 3.22432 0
M  V30 28412 H 2818.26 -3.26419 2.70604 0
M  V30 28413 C 2816.72 -3.13835 1.22513 0
M  V30 28414 O 2817.25 -3.98301 0.521458 0
M  V30 28415 N 2815.46 -2.73163 0.991492 0
M  V30 28416 H 2815.01 -2.04574 1.56547 0
M  V30 28417 H 2814.96 -3.13604 0.223601 0
M  V30 28418 N 2818.74 -1.51782 -0.424256 0
M  V30 28419 C 2819.96 -1.68924 -1.19467 0
M  V30 28420 C 2820.38 -0.392162 -1.84682 0
M  V30 28421 O 2819.74 0.630524 -1.71262 0
M  V30 28422 C 2819.79 -2.8142 -2.26904 0
M  V30 28423 O 2819.51 -4.06103 -1.64354 0
M  V30 28424 C 2821.01 -3.09942 -3.1694 0
M  V30 28425 H 2818.23 -0.566518 -0.359581 0
M  V30 28426 H 2820.77 -1.98265 -0.501105 0
M  V30 28427 H 2818.93 -2.5464 -2.91954 0
M  V30 28428 H 2819.34 -4.68678 -2.3546 0
M  V30 28429 H 2820.82 -3.92207 -3.8843 0
M  V30 28430 H 2821.29 -2.22877 -3.78447 0
M  V30 28431 H 2821.9 -3.3843 -2.57575 0
M  V30 28432 N 2820.21 0.68054 -1.42149 0
M  V30 28433 C 2821.63 1.26097 -1.37683 0
M  V30 28434 C 2821.98 1.96085 -0.0672693 0
M  V30 28435 O 2821.1 1.99678 0.834137 0
M  V30 28436 C 2821.7 2.29324 -2.49391 0
M  V30 28437 C 2820.26 2.82907 -2.48275 0
M  V30 28438 C 2819.4 1.57148 -2.28473 0
M  V30 28439 H 2822.35 0.474299 -1.51447 0
M  V30 28440 H 2822.37 3.10937 -2.19313 0
M  V30 28441 H 2821.89 1.78357 -3.44689 0
M  V30 28442 H 2819.99 3.38011 -1.56779 0
M  V30 28443 H 2820.1 3.32314 -3.45115 0
M  V30 28444 H 2818.46 1.83508 -1.76627 0
M  V30 28445 H 2819.25 1.08155 -3.25818 0
M  V30 28446 N 2821.69 1.28226 0.916285 0
M  V30 28447 C 2822.92 1.18191 1.70428 0
M  V30 28448 C 2823.34 -0.256241 1.86346 0
M  V30 28449 O 2822.7 -1.18542 1.37177 0
M  V30 28450 C 2822.75 1.88281 3.07543 0
M  V30 28451 O 2821.85 1.18855 3.94902 0
M  V30 28452 H 2821.19 0.410432 0.521959 0
M  V30 28453 H 2823.72 1.69503 1.14586 0
M  V30 28454 H 2823.73 1.96089 3.57789 0
M  V30 28455 H 2822.41 2.92893 2.95274 0
M  V30 28456 H 2820.99 1.19194 3.53337 0
M  V30 28457 N 2823.17 -1.12438 1.10433 0
M  V30 28458 C 2824.41 -1.85587 0.856551 0
M  V30 28459 C 2824.77 -1.82157 -0.606873 0
M  V30 28460 O 2825.98 -2.50649 -0.971006 0
M  V30 28461 C 2824.25 -3.2927 1.38982 0
M  V30 28462 S 2825.81 -4.19793 1.27747 0
M  V30 28463 H 2822.62 -0.640092 0.30952 0
M  V30 28464 H 2825.23 -1.35446 1.40977 0
M  V30 28465 H 2823.93 -3.29326 2.44893 0
M  V30 28466 H 2823.46 -3.84476 0.833179 0
M  V30 28467 H 2825.48 -4.95643 0.235138 0
M  V30 28468 N 2824.65 -0.893076 -1.29853 0
M  V30 28469 C 2826.06 -0.56503 -1.77945 0
M  V30 28470 C 2826.41 0.919104 -1.7334 0
M  V30 28471 O 2825.54 1.71845 -1.31523 0
M  V30 28472 C 2826.13 -1.01889 -3.23116 0
M  V30 28473 C 2824.69 -0.742116 -3.69012 0
M  V30 28474 C 2823.84 -1.19732 -2.50119 0
M  V30 28475 H 2826.79 -1.07648 -1.16609 0
M  V30 28476 H 2826.81 -0.351316 -3.78875 0
M  V30 28477 H 2826.32 -2.09909 -3.26435 0
M  V30 28478 H 2824.42 0.325751 -3.71173 0
M  V30 28479 H 2824.54 -1.33535 -4.60114 0
M  V30 28480 H 2822.9 -0.616461 -2.47127 0
M  V30 28481 H 2823.68 -2.28543 -2.5617 0
M  V30 28482 N 2826.13 1.4335 -0.654865 0
M  V30 28483 C 2827.54 1.56306 -0.322577 0
M  V30 28484 C 2827.74 1.63823 1.17321 0
M  V30 28485 O 2826.8 1.5942 1.9581 0
M  V30 28486 C 2828.11 2.82313 -1.03538 0
M  V30 28487 C 2829.66 2.96059 -1.01579 0
M  V30 28488 C 2830.14 4.24899 -1.70952 0
M  V30 28489 N 2831.63 4.31767 -1.67724 0
M  V30 28490 C 2832.36 5.3023 -2.18275 0
M  V30 28491 N 2831.86 6.34961 -2.77121 0
M  V30 28492 N 2833.65 5.21894 -2.08765 0
M  V30 28493 H 2825.8 1.36715 -1.62551 0
M  V30 28494 H 2828.06 0.656715 -0.683688 0
M  V30 28495 H 2827.77 2.82827 -2.0905 0
M  V30 28496 H 2827.64 3.72589 -0.587979 0
M  V30 28497 H 2830.03 2.95084 0.0309315 0
M  V30 28498 H 2830.11 2.07067 -1.5019 0
M  V30 28499 H 2829.76 4.26635 -2.75582 0
M  V30 28500 H 2829.69 5.12791 -1.19806 0
M  V30 28501 H 2832.18 3.56704 -1.24784 0
M  V30 28502 H 2832.49 7.06415 -3.13365 0
M  V30 28503 H 2830.84 6.3558 -2.81182 0
M  V30 28504 H 2834.03 4.38991 -1.62496 0
M  V30 28505 H 2834.2 5.98471 -2.48469 0
M  V30 28506 N 2827.61 0.39689 1.52521 0
M  V30 28507 C 2828.85 -0.175571 2.02641 0
M  V30 28508 C 2829.21 -1.43836 1.27785 0
M  V30 28509 O 2828.5 -1.87955 0.371954 0
M  V30 28510 C 2828.69 -0.489614 3.5403 0
M  V30 28511 C 2828.52 0.741191 4.4355 0
M  V30 28512 C 2827.29 1.26273 4.89268 0
M  V30 28513 C 2829.49 1.61574 4.88261 0
M  V30 28514 N 2827.47 2.4503 5.6288 0
M  V30 28515 C 2828.84 2.64965 5.6053 0
M  V30 28516 C 2830.9 1.63494 4.70292 0
M  V30 28517 C 2829.6 3.70172 6.16737 0
M  V30 28518 C 2831.63 2.67613 5.27387 0
M  V30 28519 C 2830.99 3.69726 5.99568 0
M  V30 28520 H 2827.09 -0.0261339 0.781563 0
M  V30 28521 H 2829.67 0.548487 1.86815 0
M  V30 28522 H 2827.84 -1.18272 3.69954 0
M  V30 28523 H 2829.58 -1.04989 3.90845 0
M  V30 28524 H 2826.33 0.822591 4.66402 0
M  V30 28525 H 2826.75 3.05139 6.04334 0
M  V30 28526 H 2831.4 0.85892 4.13984 0
M  V30 28527 H 2829.11 4.48638 6.72123 0
M  V30 28528 H 2832.7 2.69991 5.1536 0
M  V30 28529 H 2831.58 4.48969 6.42959 0
M  V30 28530 N 2829.08 -1.57088 0.126936 0
M  V30 28531 C 2830.31 -2.00249 -0.539935 0
M  V30 28532 C 2830.73 -1.00621 -1.58925 0
M  V30 28533 O 2830.09 0.0209812 -1.81288 0
M  V30 28534 C 2830.14 -3.42252 -1.13559 0
M  V30 28535 O 2829.24 -3.45551 -2.25097 0
M  V30 28536 H 2828.58 -0.650316 -0.134108 0
M  V30 28537 H 2831.11 -2.03438 0.217753 0
M  V30 28538 H 2831.12 -3.8063 -1.46919 0
M  V30 28539 H 2829.8 -4.14277 -0.367049 0
M  V30 28540 H 2828.38 -3.18999 -1.93117 0
M  V30 28541 N 2830.56 0.146848 -1.56914 0
M  V30 28542 C 2831.51 1.1813 -1.98277 0
M  V30 28543 C 2832.48 1.4268 -0.850392 0
M  V30 28544 O 2833.66 1.55012 -1.11247 0
M  V30 28545 C 2830.8 2.50975 -2.36866 0
M  V30 28546 C 2829.92 2.33598 -3.63395 0
M  V30 28547 C 2829.05 3.59479 -3.91086 0
M  V30 28548 C 2828.09 3.3714 -5.10885 0
M  V30 28549 N 2827.23 4.55152 -5.34585 0
M  V30 28550 H 2832.07 0.821572 -2.86451 0
M  V30 28551 H 2829.6 0.394223 -1.41719 0
M  V30 28552 H 2831.56 3.28435 -2.57267 0
M  V30 28553 H 2830.19 2.84895 -1.51771 0
M  V30 28554 H 2829.24 1.47193 -3.50768 0
M  V30 28555 H 2830.56 2.13051 -4.51011 0
M  V30 28556 H 2829.71 4.45367 -4.11987 0
M  V30 28557 H 2828.45 3.83031 -3.01892 0
M  V30 28558 H 2827.45 2.4964 -4.89857 0
M  V30 28559 H 2828.68 3.14987 -6.01631 0
M  V30 28560 H 2826.63 4.78876 -4.48346 0
M  V30 28561 H 2826.54 4.37608 -6.1647 0
M  V30 28562 H 2827.81 5.42253 -5.59984 0
M  V30 28563 N 2832.04 1.52005 0.4162 0
M  V30 28564 C 2833.45 1.57958 0.995292 0
M  V30 28565 C 2833.8 0.415788 1.91744 0
M  V30 28566 O 2832.93 -0.464771 2.1135 0
M  V30 28567 C 2833.52 2.86281 1.81186 0
M  V30 28568 C 2832.08 2.94737 2.3411 0
M  V30 28569 C 2831.23 2.5283 1.13896 0
M  V30 28570 H 2834.18 1.57476 0.196688 0
M  V30 28571 H 2834.2 2.71236 2.66855 0
M  V30 28572 H 2833.71 3.70965 1.14045 0
M  V30 28573 H 2831.81 2.1453 3.04643 0
M  V30 28574 H 2831.93 3.98833 2.65459 0
M  V30 28575 H 2830.29 2.06514 1.49077 0
M  V30 28576 H 2831.07 3.39881 0.483323 0
M  V30 28577 N 2833.52 -0.672992 1.42508 0
M  V30 28578 C 2834.46 -1.78649 1.46127 0
M  V30 28579 C 2835.43 -1.63124 0.313036 0
M  V30 28580 O 2836.62 -1.83652 0.51737 0
M  V30 28581 C 2833.76 -3.16691 1.37116 0
M  V30 28582 C 2832.87 -3.4349 2.61989 0
M  V30 28583 C 2832.01 -4.71271 2.45107 0
M  V30 28584 C 2831.05 -4.9111 3.65345 0
M  V30 28585 N 2830.18 -6.10133 3.47394 0
M  V30 28586 H 2835.02 -1.7489 2.41283 0
M  V30 28587 H 2832.56 -0.853745 1.1979 0
M  V30 28588 H 2834.52 -3.96465 1.29888 0
M  V30 28589 H 2833.15 -3.19569 0.455546 0
M  V30 28590 H 2832.2 -2.57956 2.79576 0
M  V30 28591 H 2833.51 -3.54043 3.51361 0
M  V30 28592 H 2832.67 -5.59139 2.35475 0
M  V30 28593 H 2831.41 -4.63004 1.53227 0
M  V30 28594 H 2830.41 -4.01684 3.75407 0
M  V30 28595 H 2831.64 -5.01221 4.58208 0
M  V30 28596 H 2829.58 -6.03036 2.58233 0
M  V30 28597 H 2829.5 -6.21555 4.30355 0
M  V30 28598 H 2830.77 -7.00675 3.41578 0
M  V30 28599 N 2835 -1.2871 -0.909472 0
M  V30 28600 C 2836.24 -1.15885 -1.65575 0
M  V30 28601 C 2836.56 0.292075 -1.928 0
M  V30 28602 O 2835.83 1.20163 -1.54718 0
M  V30 28603 H 2834.41 -0.42588 -0.613706 0
M  V30 28604 H 2837.08 -1.615 -1.09105 0
M  V30 28605 H 2836.17 -1.70163 -2.61631 0
M  V30 28606 N 2836.47 1.1185 -1.11028 0
M  V30 28607 C 2837.72 1.83767 -0.857762 0
M  V30 28608 C 2838.05 1.84201 0.61511 0
M  V30 28609 O 2837.33 1.29199 1.45389 0
M  V30 28610 C 2837.61 3.31152 -1.41459 0
M  V30 28611 C 2837.46 3.39137 -2.95477 0
M  V30 28612 C 2838.78 4.27095 -1.06198 0
M  V30 28613 H 2835.9 0.667207 -0.313056 0
M  V30 28614 H 2838.54 1.31182 -1.37445 0
M  V30 28615 H 2836.69 3.76063 -0.975118 0
M  V30 28616 H 2838.37 3.02815 -3.47995 0
M  V30 28617 H 2836.61 2.79491 -3.31764 0
M  V30 28618 H 2837.28 4.42853 -3.29523 0
M  V30 28619 H 2839.76 3.90341 -1.44128 0
M  V30 28620 H 2838.63 5.28615 -1.47841 0
M  V30 28621 H 2838.89 4.42091 0.0278135 0
M  V30 28622 N 2837.95 0.89995 1.29378 0
M  V30 28623 C 2838.9 0.376283 2.27712 0
M  V30 28624 C 2839.87 -0.541746 1.57017 0
M  V30 28625 O 2841.05 -0.466933 1.84998 0
M  V30 28626 C 2838.19 -0.389939 3.4289 0
M  V30 28627 C 2837.31 0.559013 4.28368 0
M  V30 28628 C 2836.44 -0.224285 5.30726 0
M  V30 28629 C 2835.48 0.719175 6.0786 0
M  V30 28630 N 2834.62 -0.0297335 7.02094 0
M  V30 28631 H 2839.46 1.21993 2.71886 0
M  V30 28632 H 2836.99 0.612903 1.33723 0
M  V30 28633 H 2838.95 -0.850242 4.08444 0
M  V30 28634 H 2837.58 -1.19804 2.99745 0
M  V30 28635 H 2836.63 1.13783 3.62984 0
M  V30 28636 H 2837.95 1.28119 4.82065 0
M  V30 28637 H 2837.1 -0.745775 6.02099 0
M  V30 28638 H 2835.84 -0.97959 4.77761 0
M  V30 28639 H 2834.84 1.25216 5.35351 0
M  V30 28640 H 2836.07 1.47381 6.62914 0
M  V30 28641 H 2834.02 -0.767301 6.51497 0
M  V30 28642 H 2833.93 0.632524 7.53349 0
M  V30 28643 H 2835.2 -0.531479 7.77686 0
M  V30 28644 N 2839.43 -1.43001 0.662458 0
M  V30 28645 C 2840.36 -2.29115 -0.0622857 0
M  V30 28646 C 2841.38 -1.43012 -0.777901 0
M  V30 28647 O 2842.56 -1.66857 -0.634116 0
M  V30 28648 C 2839.66 -3.20152 -1.11157 0
M  V30 28649 C 2838.84 -4.34843 -0.472251 0
M  V30 28650 C 2837.9 -5.06688 -1.41965 0
M  V30 28651 O 2836.92 -5.61639 -0.924696 0
M  V30 28652 N 2838.12 -5.11048 -2.75336 0
M  V30 28653 H 2840.89 -2.91956 0.67689 0
M  V30 28654 H 2838.45 -1.53792 0.505934 0
M  V30 28655 H 2840.44 -3.65081 -1.74637 0
M  V30 28656 H 2839.01 -2.58848 -1.75261 0
M  V30 28657 H 2838.23 -3.92715 0.34182 0
M  V30 28658 H 2839.52 -5.08793 -0.0263487 0
M  V30 28659 H 2838.92 -4.67792 -3.181 0
M  V30 28660 H 2837.48 -5.59664 -3.34095 0
M  V30 28661 N 2840.91 -0.404973 -1.52308 0
M  V30 28662 C 2841.86 0.422557 -2.26899 0
M  V30 28663 C 2842.83 1.04458 -1.29142 0
M  V30 28664 O 2844.01 1.06964 -1.57998 0
M  V30 28665 C 2841.15 1.53553 -3.09056 0
M  V30 28666 C 2840.26 0.934834 -4.21764 0
M  V30 28667 C 2839.4 2.02016 -4.91287 0
M  V30 28668 C 2838.44 1.39618 -5.95964 0
M  V30 28669 N 2837.57 2.42148 -6.59021 0
M  V30 28670 H 2842.41 -0.219955 -2.97187 0
M  V30 28671 H 2839.95 -0.120308 -1.46607 0
M  V30 28672 H 2841.91 2.19175 -3.54991 0
M  V30 28673 H 2840.54 2.14813 -2.40946 0
M  V30 28674 H 2839.59 0.167787 -3.8003 0
M  V30 28675 H 2840.9 0.438985 -4.96865 0
M  V30 28676 H 2840.06 2.75373 -5.40606 0
M  V30 28677 H 2838.8 2.54965 -4.15745 0
M  V30 28678 H 2837.8 0.647927 -5.45969 0
M  V30 28679 H 2839.03 0.874435 -6.73447 0
M  V30 28680 H 2836.97 2.94237 -5.86311 0
M  V30 28681 H 2836.89 1.97363 -7.29783 0
M  V30 28682 H 2838.16 3.15087 -7.1298 0
M  V30 28683 N 2842.39 1.57018 -0.135265 0
M  V30 28684 C 2843.63 1.97631 0.521651 0
M  V30 28685 C 2843.99 1.01781 1.62802 0
M  V30 28686 O 2845.19 1.31393 2.34498 0
M  V30 28687 C 2843.46 3.42367 1.02564 0
M  V30 28688 S 2845.02 4.05 1.68881 0
M  V30 28689 H 2841.84 0.69061 0.169052 0
M  V30 28690 H 2844.44 1.9421 -0.224202 0
M  V30 28691 H 2843.15 4.09865 0.209484 0
M  V30 28692 H 2842.68 3.49475 1.80639 0
M  V30 28693 H 2844.69 3.9709 2.97547 0
M  V30 28694 N 2843.86 -0.138524 1.5699 0
M  V30 28695 C 2844.79 -1.17237 2.01935 0
M  V30 28696 C 2845.78 -1.44318 0.900356 0
M  V30 28697 O 2846.96 -1.55093 1.16875 0
M  V30 28698 C 2844.09 -2.50347 2.40715 0
M  V30 28699 C 2843.04 -2.3777 3.55878 0
M  V30 28700 C 2842.37 -3.75667 3.80498 0
M  V30 28701 C 2843.67 -1.85463 4.88263 0
M  V30 28702 H 2845.36 -0.798622 2.88552 0
M  V30 28703 H 2842.91 -0.382719 1.38821 0
M  V30 28704 H 2844.86 -3.22905 2.70759 0
M  V30 28705 H 2843.59 -2.89574 1.51045 0
M  V30 28706 H 2842.25 -1.67663 3.26013 0
M  V30 28707 H 2841.89 -4.12344 2.88064 0
M  V30 28708 H 2841.59 -3.68111 4.58005 0
M  V30 28709 H 2843.12 -4.4976 4.12975 0
M  V30 28710 H 2844.53 -2.47821 5.1697 0
M  V30 28711 H 2842.93 -1.88777 5.69634 0
M  V30 28712 H 2844 -0.810851 4.78072 0
M  V30 28713 N 2845.34 -1.52224 -0.408133 0
M  V30 28714 C 2846.57 -1.69934 -1.17498 0
M  V30 28715 C 2846.98 -0.408907 -1.84728 0
M  V30 28716 O 2846.32 0.624995 -1.72741 0
M  V30 28717 C 2846.39 -2.77959 -2.27989 0
M  V30 28718 C 2846.05 -4.19677 -1.80887 0
M  V30 28719 C 2847.05 -5.03485 -1.29609 0
M  V30 28720 C 2844.73 -4.65916 -1.8769 0
M  V30 28721 C 2846.73 -6.31605 -0.857584 0
M  V30 28722 C 2844.41 -5.94024 -1.43451 0
M  V30 28723 C 2845.41 -6.76698 -0.925703 0
M  V30 28724 O 2845.1 -8.02407 -0.4897 0
M  V30 28725 H 2844.83 -0.572761 -0.359055 0
M  V30 28726 H 2847.38 -1.99564 -0.486153 0
M  V30 28727 H 2845.61 -2.43708 -3.00239 0
M  V30 28728 H 2847.3 -2.84259 -2.89744 0
M  V30 28729 H 2848.07 -4.68953 -1.23725 0
M  V30 28730 H 2843.95 -4.01669 -2.26237 0
M  V30 28731 H 2847.49 -6.96083 -0.459757 0
M  V30 28732 H 2843.39 -6.28064 -1.49015 0
M  V30 28733 H 2844.16 -8.16202 -0.612919 0
M  V30 28734 N 2846.82 0.665425 -1.42863 0
M  V30 28735 C 2847.77 1.79997 -1.47322 0
M  V30 28736 C 2848.76 1.65787 -0.347992 0
M  V30 28737 O 2849.97 1.72282 -0.521436 0
M  V30 28738 H 2846.34 0.593659 -0.461598 0
M  V30 28739 H 2848.31 1.73356 -2.42879 0
M  V30 28740 C 2847.06 3.182 -1.40157 0
M  V30 28741 H 2846.39 3.29766 -2.26041 0
M  V30 28742 H 2847.83 3.97577 -1.47338 0
M  V30 28743 C 2846.29 3.36695 -0.117552 0
M  V30 28744 O 2846.82 3.93116 0.825989 0
M  V30 28745 N 2845.02 2.90583 -0.0316729 0
M  V30 28746 H 2844.57 2.44853 -0.80029 0
M  V30 28747 H 2844.53 3.03334 0.826782 0
M  V30 28748 N 2848.3 1.29191 0.902633 0
M  V30 28749 C 2849.23 1.1662 2.02292 0
M  V30 28750 C 2850.21 0.0611474 1.6999 0
M  V30 28751 O 2851.39 0.240106 1.9271 0
M  V30 28752 C 2848.52 0.838879 3.37016 0
M  V30 28753 C 2847.48 1.89993 3.83519 0
M  V30 28754 C 2846.8 1.42598 5.15335 0
M  V30 28755 C 2848.1 3.30832 4.04163 0
M  V30 28756 H 2849.8 2.10339 2.13067 0
M  V30 28757 H 2847.34 1.01268 1.02376 0
M  V30 28758 H 2849.3 0.737657 4.14893 0
M  V30 28759 H 2848.02 -0.134013 3.26325 0
M  V30 28760 H 2846.68 1.99048 3.07856 0
M  V30 28761 H 2846.33 0.441847 5.01056 0
M  V30 28762 H 2846.03 2.13556 5.47419 0
M  V30 28763 H 2847.55 1.3382 5.95755 0
M  V30 28764 H 2848.97 3.24634 4.72531 0
M  V30 28765 H 2847.36 3.99721 4.47597 0
M  V30 28766 H 2848.43 3.74026 3.08597 0
M  V30 28767 N 2849.78 -1.1126 1.1162 0
M  V30 28768 C 2851.19 -1.64554 0.881971 0
M  V30 28769 C 2851.54 -1.87263 -0.585409 0
M  V30 28770 O 2850.66 -1.60824 -1.44792 0
M  V30 28771 C 2851.26 -2.98932 1.59452 0
M  V30 28772 C 2849.82 -3.49127 1.40667 0
M  V30 28773 C 2848.96 -2.23901 1.63597 0
M  V30 28774 H 2851.92 -0.948747 1.27218 0
M  V30 28775 H 2851.94 -3.65994 1.0406 0
M  V30 28776 H 2851.45 -2.82373 2.66246 0
M  V30 28777 H 2849.55 -3.70848 0.3609 0
M  V30 28778 H 2849.66 -4.27797 2.15701 0
M  V30 28779 H 2848.03 -2.31618 1.05948 0
M  V30 28780 H 2848.81 -2.09882 2.7167 0
M  V30 28781 N 2851.25 -0.906798 -1.28899 0
M  V30 28782 C 2852.5 -0.53636 -1.95268 0
M  V30 28783 C 2852.83 0.918681 -1.71437 0
M  V30 28784 O 2852.08 1.66751 -1.02434 0
M  V30 28785 C 2852.38 -0.783678 -3.48702 0
M  V30 28786 C 2852.05 -2.21718 -3.92622 0
M  V30 28787 C 2850.71 -2.60913 -4.04324 0
M  V30 28788 C 2853.06 -3.15036 -4.15213 0
M  V30 28789 C 2850.39 -3.92592 -4.35991 0
M  V30 28790 C 2852.74 -4.46272 -4.48357 0
M  V30 28791 C 2851.41 -4.8533 -4.5827 0
M  V30 28792 H 2850.68 -0.196268 -0.714535 0
M  V30 28793 H 2853.32 -1.1468 -1.53364 0
M  V30 28794 H 2851.63 -0.0903737 -3.91696 0
M  V30 28795 H 2853.33 -0.476337 -3.98161 0
M  V30 28796 H 2849.92 -1.90302 -3.84035 0
M  V30 28797 H 2854.1 -2.85967 -4.05631 0
M  V30 28798 H 2849.36 -4.22564 -4.4187 0
M  V30 28799 H 2853.53 -5.18601 -4.64786 0
M  V30 28800 H 2851.16 -5.87399 -4.82562 0
M  V30 28801 N 2852.73 1.42648 -0.670032 0
M  V30 28802 C 2853.68 2.30797 0.0112523 0
M  V30 28803 C 2854.65 1.45697 0.797601 0
M  V30 28804 O 2855.83 1.74537 0.770814 0
M  V30 28805 C 2852.97 3.31481 0.959921 0
M  V30 28806 C 2852.09 4.31674 0.167899 0
M  V30 28807 C 2851.22 5.19433 1.11189 0
M  V30 28808 C 2850.26 6.11308 0.311274 0
M  V30 28809 N 2849.4 6.91635 1.20772 0
M  V30 28810 H 2854.24 2.88504 -0.746282 0
M  V30 28811 H 2851.78 1.42113 -0.379764 0
M  V30 28812 H 2853.73 3.88379 1.52372 0
M  V30 28813 H 2852.36 2.75384 1.68414 0
M  V30 28814 H 2851.42 3.76932 -0.512451 0
M  V30 28815 H 2852.73 4.9673 -0.453901 0
M  V30 28816 H 2851.88 5.8104 1.74577 0
M  V30 28817 H 2850.62 4.54541 1.76758 0
M  V30 28818 H 2849.63 5.48773 -0.335854 0
M  V30 28819 H 2850.85 6.78247 -0.340254 0
M  V30 28820 H 2848.8 6.29376 1.8499 0
M  V30 28821 H 2848.71 7.53279 0.640888 0
M  V30 28822 H 2849.98 7.57733 1.82922 0
M  V30 28823 N 2854.21 0.413044 1.52091 0
M  V30 28824 C 2855.63 0.0641116 1.59471 0
M  V30 28825 C 2855.83 -1.42399 1.42565 0
M  V30 28826 O 2854.88 -2.19127 1.25457 0
M  V30 28827 C 2856.2 0.562526 2.95391 0
M  V30 28828 C 2857.74 0.520842 3.08636 0
M  V30 28829 C 2858.22 0.995831 4.47043 0
M  V30 28830 N 2859.71 0.952812 4.53294 0
M  V30 28831 C 2860.45 1.29148 5.58667 0
M  V30 28832 N 2859.94 1.7018 6.71573 0
M  V30 28833 N 2861.73 1.2112 5.48896 0
M  V30 28834 H 2853.89 1.38156 1.61328 0
M  V30 28835 H 2856.15 0.567798 0.75915 0
M  V30 28836 H 2855.85 1.60277 3.13056 0
M  V30 28837 H 2855.73 -0.0257212 3.77191 0
M  V30 28838 H 2858.12 -0.510361 2.90653 0
M  V30 28839 H 2858.2 1.14519 2.28733 0
M  V30 28840 H 2857.84 2.02538 4.65769 0
M  V30 28841 H 2857.77 0.348255 5.25447 0
M  V30 28842 H 2860.26 0.651184 3.72247 0
M  V30 28843 H 2860.57 1.94323 7.4797 0
M  V30 28844 H 2858.92 1.74087 6.72844 0
M  V30 28845 H 2862.11 0.889477 4.59571 0
M  V30 28846 H 2862.28 1.47844 6.30909 0
M  V30 28847 N 2855.69 -1.56945 0.143591 0
M  V30 28848 C 2856.64 -2.17872 -0.814517 0
M  V30 28849 C 2857.63 -1.13476 -1.25776 0
M  V30 28850 O 2858.84 -1.31733 -1.22664 0
M  V30 28851 H 2855.21 -0.697583 -0.28086 0
M  V30 28852 H 2857.18 -2.97117 -0.276407 0
M  V30 28853 C 2855.93 -2.81204 -2.04498 0
M  V30 28854 H 2855.26 -3.61248 -1.71289 0
M  V30 28855 H 2856.7 -3.27342 -2.69487 0
M  V30 28856 C 2855.15 -1.79537 -2.85076 0
M  V30 28857 O 2855.68 -1.26374 -3.81304 0
M  V30 28858 N 2853.89 -1.48918 -2.49543 0
M  V30 28859 H 2853.44 -1.92341 -1.71356 0
M  V30 28860 H 2853.4 -0.811401 -3.03749 0
M  V30 28861 N 2857.17 0.130197 -1.57061 0
M  V30 28862 C 2858.1 1.16165 -2.02554 0
M  V30 28863 C 2859.08 1.43838 -0.907997 0
M  V30 28864 O 2860.26 1.54471 -1.17696 0
M  V30 28865 C 2857.39 2.49067 -2.42039 0
M  V30 28866 C 2856.35 2.3588 -3.57134 0
M  V30 28867 C 2855.67 3.73644 -3.82485 0
M  V30 28868 C 2856.97 1.82871 -4.8924 0
M  V30 28869 H 2858.67 0.783308 -2.88972 0
M  V30 28870 H 2856.21 0.375351 -1.39022 0
M  V30 28871 H 2858.17 3.21464 -2.72468 0
M  V30 28872 H 2856.89 2.88769 -1.52578 0
M  V30 28873 H 2855.55 1.65932 -3.26898 0
M  V30 28874 H 2855.2 4.10811 -2.90247 0
M  V30 28875 H 2854.9 3.65677 -4.5995 0
M  V30 28876 H 2856.42 4.47563 -4.15355 0
M  V30 28877 H 2857.84 2.45076 -5.18277 0
M  V30 28878 H 2856.23 1.85753 -5.70627 0
M  V30 28879 H 2857.3 0.785487 -4.78496 0
M  V30 28880 N 2858.65 1.52438 0.400055 0
M  V30 28881 C 2859.56 1.79334 1.5125 0
M  V30 28882 C 2860.57 0.679425 1.60187 0
M  V30 28883 O 2861.75 0.965822 1.76731 0
M  V30 28884 C 2858.81 1.94657 2.86896 0
M  V30 28885 C 2857.87 3.18569 2.87772 0
M  V30 28886 C 2857.11 3.33152 4.16948 0
M  V30 28887 O 2857.33 2.52792 5.11324 0
M  V30 28888 O 2856.26 4.26351 4.24863 0
M  V30 28889 H 2860.09 2.73775 1.31456 0
M  V30 28890 H 2857.67 1.37393 0.58681 0
M  V30 28891 H 2859.56 2.06507 3.67332 0
M  V30 28892 H 2858.23 1.03405 3.06739 0
M  V30 28893 H 2857.14 3.1217 2.06157 0
M  V30 28894 H 2858.47 4.09631 2.72879 0
M  V30 28895 N 2860.12 -0.657839 1.43214 0
M  V30 28896 C 2861.37 -1.41498 1.44301 0
M  V30 28897 C 2861.69 -1.94886 0.0666821 0
M  V30 28898 O 2860.96 -1.74141 -0.897315 0
M  V30 28899 H 2859.54 -0.525134 0.531266 0
M  V30 28900 H 2862.2 -0.776163 1.78778 0
M  V30 28901 H 2861.3 -2.25963 2.15284 0
M  V30 28902 N 2861.6 -1.29668 -0.895769 0
M  V30 28903 C 2862.84 -1.19139 -1.66088 0
M  V30 28904 C 2863.21 0.252212 -1.90336 0
M  V30 28905 O 2864.41 0.480547 -2.6447 0
M  V30 28906 C 2862.68 -1.98623 -2.97125 0
M  V30 28907 S 2864.24 -2.04673 -3.88142 0
M  V30 28908 H 2861.05 -0.424754 -0.57018 0
M  V30 28909 H 2863.66 -1.64005 -1.06408 0
M  V30 28910 H 2862.36 -3.02642 -2.77193 0
M  V30 28911 H 2861.89 -1.54377 -3.61844 0
M  V30 28912 H 2863.91 -1.16626 -4.82299 0
M  V30 28913 N 2863.08 1.10667 -1.12208 0
M  V30 28914 C 2864.5 1.34598 -0.857642 0
M  V30 28915 C 2864.7 1.94847 0.513507 0
M  V30 28916 O 2863.75 2.18661 1.26269 0
M  V30 28917 C 2865.06 2.26994 -1.97216 0
M  V30 28918 C 2866.61 2.40538 -2.00276 0
M  V30 28919 C 2867.09 3.36262 -3.10954 0
M  V30 28920 N 2868.58 3.43829 -3.10381 0
M  V30 28921 C 2869.31 4.1786 -3.92658 0
M  V30 28922 N 2868.81 4.94798 -4.84919 0
M  V30 28923 N 2870.6 4.13454 -3.80805 0
M  V30 28924 H 2862.75 0.699271 -2.00559 0
M  V30 28925 H 2865.02 0.370461 -0.872618 0
M  V30 28926 H 2864.72 1.89931 -2.96005 0
M  V30 28927 H 2864.6 3.27282 -1.87526 0
M  V30 28928 H 2866.98 2.76872 -1.02108 0
M  V30 28929 H 2867.06 1.40073 -2.1404 0
M  V30 28930 H 2866.71 3.00653 -4.09353 0
M  V30 28931 H 2866.64 4.366 -2.94429 0
M  V30 28932 H 2869.13 2.88957 -2.43541 0
M  V30 28933 H 2869.44 5.48679 -5.44216 0
M  V30 28934 H 2867.79 4.93931 -4.88935 0
M  V30 28935 H 2870.98 3.5244 -3.08065 0
M  V30 28936 H 2871.15 4.70891 -4.45158 0
M  V30 28937 N 2864.56 0.913621 1.28416 0
M  V30 28938 C 2865.47 0.407006 2.31042 0
M  V30 28939 C 2866.48 -0.505269 1.66502 0
M  V30 28940 O 2867.66 -0.391487 1.97558 0
M  V30 28941 C 2864.72 -0.344841 3.44981 0
M  V30 28942 C 2863.79 0.600638 4.25077 0
M  V30 28943 C 2863.02 -0.115422 5.33575 0
M  V30 28944 O 2863.24 -1.33717 5.54505 0
M  V30 28945 O 2862.18 0.549201 5.99389 0
M  V30 28946 H 2866 1.25878 2.76385 0
M  V30 28947 H 2863.59 0.678438 1.33107 0
M  V30 28948 H 2865.47 -0.769469 4.14315 0
M  V30 28949 H 2864.14 -1.17245 3.01721 0
M  V30 28950 H 2863.05 1.07466 3.58332 0
M  V30 28951 H 2864.38 1.39506 4.72016 0
M  V30 28952 N 2866.04 -1.4229 0.677588 0
M  V30 28953 C 2867.45 -1.55773 0.347403 0
M  V30 28954 C 2867.65 -1.65669 -1.147 0
M  V30 28955 O 2866.71 -1.62515 -1.93249 0
M  V30 28956 C 2868.02 -2.8063 1.08016 0
M  V30 28957 C 2869.57 -2.94405 1.06276 0
M  V30 28958 C 2870.04 -4.22126 1.7769 0
M  V30 28959 N 2871.53 -4.29044 1.74572 0
M  V30 28960 C 2872.27 -5.2669 2.26683 0
M  V30 28961 N 2871.77 -6.30472 2.87187 0
M  V30 28962 N 2873.56 -5.18507 2.17041 0
M  V30 28963 H 2865.71 -1.34111 1.64706 0
M  V30 28964 H 2867.97 -0.645755 0.694049 0
M  V30 28965 H 2867.68 -2.79465 2.13523 0
M  V30 28966 H 2867.55 -3.71607 0.64718 0
M  V30 28967 H 2869.94 -2.95096 0.0160177 0
M  V30 28968 H 2870.02 -2.04651 1.53465 0
M  V30 28969 H 2869.66 -4.22196 2.82334 0
M  V30 28970 H 2869.59 -5.1082 1.27949 0
M  V30 28971 H 2872.09 -3.54673 1.30443 0
M  V30 28972 H 2872.4 -7.0134 3.24564 0
M  V30 28973 H 2870.74 -6.31026 2.91258 0
M  V30 28974 H 2873.93 -4.3635 1.69459 0
M  V30 28975 H 2874.11 -5.94442 2.57959 0
M  V30 28976 N 2867.51 -0.421104 -1.5187 0
M  V30 28977 C 2868.75 0.150131 -2.03848 0
M  V30 28978 C 2869.12 1.4136 -1.29928 0
M  V30 28979 O 2870.32 2.06405 -1.72194 0
M  V30 28980 C 2868.59 0.379968 -3.55374 0
M  V30 28981 S 2870.15 0.916935 -4.29113 0
M  V30 28982 H 2866.97 0.0394514 -0.709905 0
M  V30 28983 H 2869.57 -0.576779 -1.86798 0
M  V30 28984 H 2868.27 -0.546194 -4.06749 0
M  V30 28985 H 2867.8 1.13442 -3.76689 0
M  V30 28986 H 2869.82 2.19627 -4.44948 0
M  V30 28987 N 2868.99 1.56866 -0.151912 0
M  V30 28988 C 2870.22 2.01082 0.508009 0
M  V30 28989 C 2870.64 1.03136 1.57304 0
M  V30 28990 O 2870 0.00786277 1.81298 0
M  V30 28991 C 2870.05 3.44016 1.081 0
M  V30 28992 O 2869.15 3.49088 2.19571 0
M  V30 28993 H 2868.49 0.652367 0.123745 0
M  V30 28994 H 2871.02 2.03066 -0.250091 0
M  V30 28995 H 2871.03 3.82919 1.40844 0
M  V30 28996 H 2869.71 4.14809 0.301095 0
M  V30 28997 H 2868.29 3.22031 1.88017 0
M  V30 28998 N 2870.47 -0.121866 1.57128 0
M  V30 28999 C 2871.4 -1.15089 2.03167 0
M  V30 29000 C 2872.38 -1.43355 0.915612 0
M  V30 29001 O 2873.57 -1.53845 1.18513 0
M  V30 29002 C 2870.7 -2.4778 2.43357 0
M  V30 29003 C 2869.65 -2.33982 3.5838 0
M  V30 29004 C 2868.98 -3.7161 3.84461 0
M  V30 29005 C 2870.28 -1.80274 4.90203 0
M  V30 29006 H 2871.97 -0.767972 2.89383 0
M  V30 29007 H 2869.52 -0.367973 1.39219 0
M  V30 29008 H 2871.47 -3.20015 2.74169 0
M  V30 29009 H 2870.19 -2.87955 1.54108 0
M  V30 29010 H 2868.85 -1.64196 3.27773 0
M  V30 29011 H 2868.5 -4.09266 2.92422 0
M  V30 29012 H 2868.2 -3.63232 4.61883 0
M  V30 29013 H 2869.72 -4.45354 4.17722 0
M  V30 29014 H 2871.14 -2.42324 5.19569 0
M  V30 29015 H 2869.54 -1.82725 5.71605 0
M  V30 29016 H 2870.61 -0.7601 4.78906 0
M  V30 29017 N 2871.95 -1.52648 -0.391965 0
M  V30 29018 C 2873.19 -1.67795 -1.13897 0
M  V30 29019 C 2873.53 -0.415174 -1.8971 0
M  V30 29020 O 2872.8 0.586946 -1.85432 0
M  V30 29021 C 2873.09 -2.91109 -2.11961 0
M  V30 29022 C 2872.94 -4.2748 -1.39931 0
M  V30 29023 C 2874.26 -3.09966 -3.12424 0
M  V30 29024 H 2871.38 -0.610615 -0.412696 0
M  V30 29025 H 2874.02 -1.85239 -0.422692 0
M  V30 29026 H 2872.17 -2.76368 -2.73044 0
M  V30 29027 H 2873.84 -4.53983 -0.818359 0
M  V30 29028 H 2872.08 -4.28096 -0.701171 0
M  V30 29029 H 2872.75 -5.09845 -2.11572 0
M  V30 29030 H 2875.23 -3.23719 -2.61429 0
M  V30 29031 H 2874.11 -3.97731 -3.78287 0
M  V30 29032 H 2874.37 -2.24049 -3.81123 0
M  V30 29033 N 2873.43 0.650235 -1.43561 0
M  V30 29034 C 2874.68 1.40597 -1.44621 0
M  V30 29035 C 2874.99 1.95455 -0.0752989 0
M  V30 29036 O 2876.19 2.71475 0.0366354 0
M  V30 29037 C 2874.65 2.5446 -2.54515 0
M  V30 29038 C 2874.26 2.06197 -3.97727 0
M  V30 29039 C 2876 3.31806 -2.64773 0
M  V30 29040 C 2873.91 3.17289 -4.99081 0
M  V30 29041 H 2872.84 0.528281 -0.537992 0
M  V30 29042 H 2875.49 0.701531 -1.69561 0
M  V30 29043 H 2873.87 3.2739 -2.22783 0
M  V30 29044 H 2875.05 1.4026 -4.38935 0
M  V30 29045 H 2873.36 1.41722 -3.9154 0
M  V30 29046 H 2875.96 4.14587 -3.37671 0
M  V30 29047 H 2876.3 3.80033 -1.69943 0
M  V30 29048 H 2876.83 2.65959 -2.95822 0
M  V30 29049 H 2873.57 2.74027 -5.95474 0
M  V30 29050 H 2873.09 3.81929 -4.62482 0
M  V30 29051 H 2874.77 3.82373 -5.21919 0
M  V30 29052 N 2874.9 1.30141 0.88888 0
M  V30 29053 C 2875.84 1.12003 1.9997 0
M  V30 29054 C 2876.85 0.0643905 1.62673 0
M  V30 29055 O 2878.04 0.310013 1.75787 0
M  V30 29056 C 2875.14 0.685118 3.31903 0
M  V30 29057 C 2874.31 1.82165 3.97661 0
M  V30 29058 C 2873.37 1.37594 5.07892 0
M  V30 29059 O 2872.4 2.0825 5.29736 0
M  V30 29060 N 2873.6 0.252799 5.79949 0
M  V30 29061 H 2876.36 2.07675 2.16082 0
M  V30 29062 H 2873.92 1.22225 1.06173 0
M  V30 29063 H 2875.92 0.370035 4.03005 0
M  V30 29064 H 2874.49 -0.179452 3.12084 0
M  V30 29065 H 2873.71 2.30505 3.19783 0
M  V30 29066 H 2874.99 2.58339 4.38336 0
M  V30 29067 H 2874.39 -0.336042 5.64701 0
M  V30 29068 H 2872.95 -0.00285356 6.518 0
M  V30 29069 N 2876.38 -1.1007 1.12794 0
M  V30 29070 C 2877.63 -1.81478 0.880264 0
M  V30 29071 C 2877.94 -1.86313 -0.595542 0
M  V30 29072 O 2879.15 -2.53964 -0.959934 0
M  V30 29073 C 2877.61 -3.25984 1.5252 0
M  V30 29074 C 2877.21 -3.29435 3.03606 0
M  V30 29075 C 2878.96 -4.02194 1.35795 0
M  V30 29076 C 2876.87 -4.68425 3.61015 0
M  V30 29077 H 2875.8 -0.680042 0.325666 0
M  V30 29078 H 2878.45 -1.23756 1.35487 0
M  V30 29079 H 2876.83 -3.83727 0.978256 0
M  V30 29080 H 2878 -2.81496 3.64824 0
M  V30 29081 H 2876.32 -2.66713 3.1977 0
M  V30 29082 H 2878.91 -5.04867 1.76105 0
M  V30 29083 H 2879.26 -4.15203 0.302045 0
M  V30 29084 H 2879.79 -3.50876 1.87432 0
M  V30 29085 H 2876.53 -4.60616 4.66383 0
M  V30 29086 H 2876.05 -5.16716 3.04573 0
M  V30 29087 H 2877.73 -5.37396 3.60298 0
M  V30 29088 N 2877.86 -0.920419 -1.2793 0
M  V30 29089 C 2879.27 -0.602647 -1.76706 0
M  V30 29090 C 2879.62 0.882129 -1.75251 0
M  V30 29091 O 2878.75 1.69016 -1.35138 0
M  V30 29092 C 2879.34 -1.08719 -3.20882 0
M  V30 29093 C 2877.9 -0.820222 -3.67354 0
M  V30 29094 C 2877.05 -1.2501 -2.47523 0
M  V30 29095 H 2880 -1.10097 -1.14299 0
M  V30 29096 H 2880.02 -0.431602 -3.78044 0
M  V30 29097 H 2879.53 -2.16786 -3.21909 0
M  V30 29098 H 2877.63 0.246946 -3.71781 0
M  V30 29099 H 2877.75 -1.43265 -4.57178 0
M  V30 29100 H 2876.11 -0.668742 -2.45764 0
M  V30 29101 H 2876.89 -2.33925 -2.51265 0
M  V30 29102 N 2879.34 1.41929 -0.685124 0
M  V30 29103 C 2880.75 1.55587 -0.35566 0
M  V30 29104 C 2880.95 1.66275 1.1382 0
M  V30 29105 O 2880.01 1.63538 1.92384 0
M  V30 29106 C 2881.32 2.80053 -1.09503 0
M  V30 29107 C 2882.87 2.93837 -1.07836 0
M  V30 29108 C 2883.35 4.21178 -1.79926 0
M  V30 29109 N 2884.84 4.28112 -1.76845 0
M  V30 29110 C 2885.57 5.25481 -2.29473 0
M  V30 29111 N 2885.07 6.2894 -2.90527 0
M  V30 29112 N 2886.86 5.17349 -2.19788 0
M  V30 29113 H 2879.01 1.33236 -1.65415 0
M  V30 29114 H 2881.28 0.642066 -0.697464 0
M  V30 29115 H 2880.98 2.78329 -2.15002 0
M  V30 29116 H 2880.86 3.71258 -0.666878 0
M  V30 29117 H 2883.24 2.95083 -0.0316671 0
M  V30 29118 H 2883.32 2.03834 -1.54548 0
M  V30 29119 H 2882.97 4.20693 -2.84569 0
M  V30 29120 H 2882.9 5.10134 -1.30656 0
M  V30 29121 H 2885.39 3.53977 -1.32322 0
M  V30 29122 H 2885.7 6.99609 -3.28279 0
M  V30 29123 H 2884.05 6.29472 -2.94601 0
M  V30 29124 H 2887.24 4.35445 -1.71771 0
M  V30 29125 H 2887.41 5.93066 -2.61108 0
M  V30 29126 N 2880.82 0.429152 1.51644 0
M  V30 29127 C 2882.06 -0.139318 2.03925 0
M  V30 29128 C 2882.42 -1.40669 1.30676 0
M  V30 29129 O 2883.62 -2.05488 1.73286 0
M  V30 29130 C 2881.89 -0.361116 3.55571 0
M  V30 29131 S 2883.45 -0.894166 4.29593 0
M  V30 29132 H 2880.27 -0.0356861 0.710104 0
M  V30 29133 H 2882.87 0.586677 1.8649 0
M  V30 29134 H 2881.58 0.567757 4.06454 0
M  V30 29135 H 2881.11 -1.11442 3.77285 0
M  V30 29136 H 2883.12 -2.17264 4.46106 0
M  V30 29137 N 2882.29 -1.56783 0.160229 0
M  V30 29138 C 2883.53 -1.98436 -0.490144 0
M  V30 29139 C 2883.9 -1.04358 -1.61162 0
M  V30 29140 O 2885.1 -1.35107 -2.32378 0
M  V30 29141 C 2883.37 -3.43956 -0.971046 0
M  V30 29142 S 2884.93 -4.07635 -1.62416 0
M  V30 29143 H 2881.75 -0.693212 -0.158044 0
M  V30 29144 H 2884.35 -1.93829 0.25507 0
M  V30 29145 H 2883.05 -4.10146 -0.144251 0
M  V30 29146 H 2882.58 -3.52305 -1.75057 0
M  V30 29147 H 2884.6 -4.01773 -2.91192 0
M  V30 29148 N 2883.77 0.113531 -1.57191 0
M  V30 29149 C 2884.72 1.13898 -2.00738 0
M  V30 29150 C 2885.69 1.40844 -0.880465 0
M  V30 29151 O 2886.88 1.52618 -1.1451 0
M  V30 29152 C 2884.02 2.45895 -2.42136 0
M  V30 29153 C 2883.13 2.25838 -3.68268 0
M  V30 29154 C 2882.26 3.51103 -3.98623 0
M  V30 29155 C 2881.3 3.26227 -5.17921 0
M  V30 29156 N 2880.44 4.4371 -5.44119 0
M  V30 29157 H 2885.28 0.760626 -2.88129 0
M  V30 29158 H 2882.82 0.364074 -1.42523 0
M  V30 29159 H 2884.77 3.22904 -2.64176 0
M  V30 29160 H 2883.4 2.81612 -1.5778 0
M  V30 29161 H 2882.46 1.39719 -3.53812 0
M  V30 29162 H 2883.77 2.03436 -4.55428 0
M  V30 29163 H 2882.92 4.36528 -4.21341 0
M  V30 29164 H 2881.66 3.76541 -3.09949 0
M  V30 29165 H 2880.67 2.39193 -4.95042 0
M  V30 29166 H 2881.89 3.02154 -6.08177 0
M  V30 29167 H 2879.84 4.69258 -4.58402 0
M  V30 29168 H 2879.75 4.24433 -6.25614 0
M  V30 29169 H 2881.02 5.30253 -5.7136 0
M  V30 29170 N 2885.25 1.52854 0.383864 0
M  V30 29171 C 2886.5 1.67816 1.12616 0
M  V30 29172 C 2886.82 0.423174 1.90353 0
M  V30 29173 O 2886.09 -0.562521 1.8765 0
M  V30 29174 H 2884.67 0.618609 0.418727 0
M  V30 29175 H 2887.33 1.89985 0.434917 0
M  V30 29176 H 2886.43 2.53094 1.8262 0
M  V30 29177 N 2886.73 -0.642612 1.43904 0
M  V30 29178 C 2887.96 -1.42778 1.49325 0
M  V30 29179 C 2888.37 -1.88862 0.113091 0
M  V30 29180 O 2887.71 -1.60753 -0.889061 0
M  V30 29181 C 2887.77 -2.68893 2.38615 0
M  V30 29182 C 2887.44 -2.4468 3.8598 0
M  V30 29183 C 2888.43 -2.07231 4.76814 0
M  V30 29184 C 2886.12 -2.58676 4.30572 0
M  V30 29185 C 2888.11 -1.8409 6.10237 0
M  V30 29186 C 2885.8 -2.35149 5.64046 0
M  V30 29187 C 2886.8 -1.97913 6.53697 0
M  V30 29188 O 2886.49 -1.7464 7.84701 0
M  V30 29189 H 2886.22 -0.44472 0.509117 0
M  V30 29190 H 2888.77 -0.794162 1.89426 0
M  V30 29191 H 2887 -3.34851 1.9342 0
M  V30 29192 H 2888.69 -3.30869 2.35118 0
M  V30 29193 H 2889.46 -1.95985 4.43638 0
M  V30 29194 H 2885.34 -2.86631 3.61059 0
M  V30 29195 H 2888.88 -1.5495 6.80174 0
M  V30 29196 H 2884.78 -2.46001 5.96786 0
M  V30 29197 H 2885.54 -1.88979 7.96385 0
M  V30 29198 N 2888.21 -1.30611 -0.881966 0
M  V30 29199 C 2889.45 -1.19607 -1.63403 0
M  V30 29200 C 2889.78 0.24854 -1.92905 0
M  V30 29201 O 2889.04 1.19388 -1.55064 0
M  V30 29202 C 2889.34 -1.97316 -2.97995 0
M  V30 29203 C 2889 -3.46912 -2.88033 0
M  V30 29204 C 2887.66 -3.87705 -2.85023 0
M  V30 29205 C 2890.02 -4.42161 -2.7594 0
M  V30 29206 C 2887.34 -5.22035 -2.67762 0
M  V30 29207 C 2889.7 -5.76602 -2.60218 0
M  V30 29208 C 2888.36 -6.1663 -2.55584 0
M  V30 29209 H 2887.63 -0.437672 -0.597933 0
M  V30 29210 H 2890.28 -1.61746 -1.02521 0
M  V30 29211 H 2888.58 -1.47821 -3.62845 0
M  V30 29212 H 2890.28 -1.86192 -3.55153 0
M  V30 29213 H 2886.87 -3.14497 -2.91187 0
M  V30 29214 H 2891.05 -4.11585 -2.77329 0
M  V30 29215 H 2886.31 -5.52137 -2.62592 0
M  V30 29216 H 2890.48 -6.50043 -2.49835 0
M  V30 29217 H 2888.11 -7.20663 -2.41968 0
M  V30 29218 N 2889.69 1.0947 -1.13376 0
M  V30 29219 C 2890.93 1.81278 -0.893454 0
M  V30 29220 C 2891.25 1.86112 0.581996 0
M  V30 29221 O 2890.52 1.34635 1.42303 0
M  V30 29222 H 2889.1 0.671355 -0.327555 0
M  V30 29223 H 2891.77 1.32405 -1.43021 0
M  V30 29224 H 2890.86 2.84474 -1.28379 0
M  V30 29225 N 2891.16 0.92719 1.2744 0
M  V30 29226 C 2892.58 0.627355 1.46753 0
M  V30 29227 C 2892.78 -0.823517 1.83903 0
M  V30 29228 O 2891.84 -1.60145 1.95217 0
M  V30 29229 C 2893.15 1.57679 2.56043 0
M  V30 29230 C 2894.7 1.58496 2.69904 0
M  V30 29231 C 2895.17 2.52135 3.82351 0
M  V30 29232 N 2896.66 2.50339 3.89724 0
M  V30 29233 C 2897.4 3.19483 4.76149 0
M  V30 29234 N 2896.89 3.98005 5.67066 0
M  V30 29235 N 2898.69 3.08504 4.69874 0
M  V30 29236 H 2890.84 1.86519 1.0161 0
M  V30 29237 H 2893.1 0.800762 0.507429 0
M  V30 29238 H 2892.81 2.6118 2.35537 0
M  V30 29239 H 2892.68 1.3181 3.5342 0
M  V30 29240 H 2895.07 0.557259 2.89791 0
M  V30 29241 H 2895.15 1.88413 1.73015 0
M  V30 29242 H 2894.79 3.55015 3.63217 0
M  V30 29243 H 2894.72 2.19514 4.78666 0
M  V30 29244 H 2897.21 1.93312 3.24714 0
M  V30 29245 H 2897.53 4.47751 6.29872 0
M  V30 29246 H 2895.87 4.02108 5.66863 0
M  V30 29247 H 2899.06 2.46653 3.97844 0
M  V30 29248 H 2899.24 3.62661 5.37011 0
M  V30 29249 N 2892.64 -1.41564 0.692641 0
M  V30 29250 C 2893.92 -1.9502 0.15053 0
M  V30 29251 C 2894.3 -1.63217 -1.33878 0
M  V30 29252 O 2893.65 -0.937635 -2.08376 0
M  V30 29253 C 2893.86 -3.46232 0.438697 0
M  V30 29254 C 2895.2 -4.2303 0.364852 0
M  V30 29255 O 2896.23 -3.54237 0.373445 0
M  V30 29256 O 2895.09 -5.45548 0.322436 0
M  V30 29257 H 2892.18 -0.826894 0.0132599 0
M  V30 29258 H 2894.73 -1.51296 0.7686 0
M  V30 29259 H 2893.5 -3.62651 1.46969 0
M  V30 29260 H 2893.12 -3.97042 -0.210493 0
M  V30 29261 N 2894.12 -0.437188 -1.51415 0
M  V30 29262 C 2895.36 0.128502 -2.03996 0
M  V30 29263 C 2895.72 1.39974 -1.3142 0
M  V30 29264 O 2896.92 2.04567 -1.74373 0
M  V30 29265 C 2895.2 0.342254 -3.55757 0
M  V30 29266 S 2896.75 0.871371 -4.30061 0
M  V30 29267 H 2893.57 0.0319197 -0.710283 0
M  V30 29268 H 2896.17 -0.596559 -1.86176 0
M  V30 29269 H 2894.88 -0.589304 -4.06147 0
M  V30 29270 H 2894.41 1.0944 -3.77871 0
M  V30 29271 H 2896.42 2.14895 -4.47252 0
M  V30 29272 N 2895.6 1.56696 -0.168541 0
M  V30 29273 C 2896.53 2.15 0.794211 0
M  V30 29274 C 2897.54 1.10487 1.19568 0
M  V30 29275 O 2898.73 1.37684 1.13602 0
M  V30 29276 C 2895.83 2.67551 2.08014 0
M  V30 29277 C 2895 3.96692 1.84267 0
M  V30 29278 C 2894.06 4.34335 2.97051 0
M  V30 29279 O 2893.09 5.02263 2.67806 0
M  V30 29280 N 2894.29 3.95667 4.24768 0
M  V30 29281 H 2897.06 2.98237 0.29578 0
M  V30 29282 H 2894.62 1.61894 0.0143326 0
M  V30 29283 H 2896.61 2.89734 2.82554 0
M  V30 29284 H 2895.18 1.88918 2.49056 0
M  V30 29285 H 2894.4 3.82915 0.93646 0
M  V30 29286 H 2895.69 4.8104 1.65765 0
M  V30 29287 H 2895.09 3.40976 4.51389 0
M  V30 29288 H 2893.64 4.22857 4.9602 0
M  V30 29289 N 2897.08 -0.105193 1.57249 0
M  V30 29290 C 2898.04 -1.11249 2.0039 0
M  V30 29291 C 2899.04 -1.33526 0.895964 0
M  V30 29292 O 2900.23 -1.29809 1.16169 0
M  V30 29293 C 2897.36 -2.46391 2.35593 0
M  V30 29294 H 2898.55 -0.741373 2.90592 0
M  V30 29295 H 2896.11 -0.349929 1.52332 0
M  V30 29296 H 2896.84 -2.88398 1.48315 0
M  V30 29297 H 2896.63 -2.31572 3.16412 0
M  V30 29298 H 2898.12 -3.18859 2.69663 0
M  V30 29299 N 2898.55 -1.53055 -0.375752 0
M  V30 29300 C 2899.79 -1.7044 -1.12825 0
M  V30 29301 C 2900.16 -0.44156 -1.86854 0
M  V30 29302 O 2901.36 -0.491954 -2.6426 0
M  V30 29303 C 2899.63 -2.91349 -2.07004 0
M  V30 29304 S 2901.19 -3.29388 -2.89912 0
M  V30 29305 H 2898.01 -0.599839 -0.381725 0
M  V30 29306 H 2900.61 -1.91134 -0.410866 0
M  V30 29307 H 2899.31 -3.81467 -1.51364 0
M  V30 29308 H 2898.84 -2.73027 -2.83231 0
M  V30 29309 H 2900.86 -2.80608 -4.09235 0
M  V30 29310 N 2900.03 0.634971 -1.44242 0
M  V30 29311 C 2901.44 1.21653 -1.41625 0
M  V30 29312 C 2901.79 1.95771 -0.129618 0
M  V30 29313 O 2900.92 2.0223 0.770189 0
M  V30 29314 C 2901.51 2.21274 -2.56561 0
M  V30 29315 C 2900.07 2.74865 -2.5715 0
M  V30 29316 C 2899.22 1.498 -2.33357 0
M  V30 29317 H 2902.17 0.425878 -1.52879 0
M  V30 29318 H 2902.19 3.03803 -2.29094 0
M  V30 29319 H 2901.7 1.673 -3.50189 0
M  V30 29320 H 2899.81 3.32852 -1.67453 0
M  V30 29321 H 2899.92 3.21166 -3.55513 0
M  V30 29322 H 2898.28 1.77796 -1.82375 0
M  V30 29323 H 2899.07 0.977344 -3.29094 0
M  V30 29324 N 2901.51 1.31076 0.875027 0
M  V30 29325 C 2902.76 1.20234 1.62445 0
M  V30 29326 C 2903.08 -0.240854 1.93507 0
M  V30 29327 O 2902.35 -1.16019 1.57849 0
M  V30 29328 H 2900.93 0.442002 0.602199 0
M  V30 29329 H 2903.59 1.64336 1.04785 0
M  V30 29330 H 2902.69 1.7704 2.57028 0
M  V30 29331 N 2902.99 -1.08867 1.13955 0
M  V30 29332 C 2904.24 -1.80802 0.903055 0
M  V30 29333 C 2904.56 -1.86418 -0.572118 0
M  V30 29334 O 2903.83 -1.35388 -1.41587 0
M  V30 29335 H 2902.41 -0.669608 0.33111 0
M  V30 29336 H 2905.07 -1.31645 1.43721 0
M  V30 29337 H 2904.17 -2.83789 1.29885 0
M  V30 29338 N 2904.47 -0.933936 -1.26946 0
M  V30 29339 C 2905.88 -0.621355 -1.76057 0
M  V30 29340 C 2906.23 0.863491 -1.76177 0
M  V30 29341 O 2905.35 1.67574 -1.36923 0
M  V30 29342 C 2905.95 -1.12117 -3.19711 0
M  V30 29343 C 2904.51 -0.859139 -3.66464 0
M  V30 29344 C 2903.65 -1.27628 -2.46183 0
M  V30 29345 H 2906.61 -1.11303 -1.13125 0
M  V30 29346 H 2906.63 -0.471674 -3.77565 0
M  V30 29347 H 2906.14 -2.20188 -3.19592 0
M  V30 29348 H 2904.24 0.2075 -3.72022 0
M  V30 29349 H 2904.35 -1.48106 -4.55633 0
M  V30 29350 H 2902.72 -0.694771 -2.45041 0
M  V30 29351 H 2903.5 -2.36577 -2.4877 0
M  V30 29352 N 2905.94 1.41194 -0.700139 0
M  V30 29353 C 2907.22 1.94937 -0.160871 0
M  V30 29354 C 2907.6 1.63925 1.33011 0
M  V30 29355 O 2906.95 0.948673 2.07876 0
M  V30 29356 C 2907.16 3.45994 -0.457052 0
M  V30 29357 C 2908.51 4.2283 -0.387281 0
M  V30 29358 O 2909.53 3.54034 -0.392226 0
M  V30 29359 O 2908.39 5.45369 -0.351363 0
M  V30 29360 H 2905.48 0.826812 -0.017645 0
M  V30 29361 H 2908.03 1.50887 -0.776613 0
M  V30 29362 H 2906.8 3.61867 -1.4889 0
M  V30 29363 H 2906.43 3.97148 0.189433 0
M  V30 29364 N 2907.42 0.445212 1.51181 0
M  V30 29365 C 2908.39 -0.350682 2.26501 0
M  V30 29366 C 2909.39 -0.942929 1.30252 0
M  V30 29367 O 2910.58 -0.816148 1.53898 0
M  V30 29368 C 2907.71 -1.49692 3.06276 0
M  V30 29369 H 2908.9 0.309527 2.98298 0
M  V30 29370 H 2906.45 0.198579 1.55033 0
M  V30 29371 H 2907.19 -2.19295 2.38915 0
M  V30 29372 H 2906.97 -1.07834 3.76981 0
M  V30 29373 H 2908.46 -2.05903 3.6331 0
M  V30 29374 N 2908.9 -1.56605 0.176849 0
M  V30 29375 C 2910.31 -1.83598 -0.33893 0
M  V30 29376 C 2910.66 -1.09687 -1.62675 0
M  V30 29377 O 2909.79 -0.351699 -2.13523 0
M  V30 29378 C 2910.38 -3.33047 -0.621711 0
M  V30 29379 C 2908.94 -3.60516 -1.08191 0
M  V30 29380 C 2908.09 -2.77037 -0.120725 0
M  V30 29381 H 2911.04 -1.5355 0.401005 0
M  V30 29382 H 2911.06 -3.50826 -1.47314 0
M  V30 29383 H 2910.57 -3.86813 0.315759 0
M  V30 29384 H 2908.67 -3.12165 -2.03429 0
M  V30 29385 H 2908.79 -4.68818 -0.987247 0
M  V30 29386 H 2907.15 -2.4706 -0.619149 0
M  V30 29387 H 2907.93 -3.33586 0.810865 0
M  V30 29388 N 2910.38 0.0968524 -1.57302 0
M  V30 29389 C 2911.62 0.806301 -1.87825 0
M  V30 29390 C 2911.98 1.75987 -0.767624 0
M  V30 29391 O 2913.18 2.51255 -0.955217 0
M  V30 29392 C 2911.45 1.51743 -3.23587 0
M  V30 29393 S 2913.01 2.26541 -3.75799 0
M  V30 29394 H 2909.83 0.268665 -0.658286 0
M  V30 29395 H 2912.43 0.0635132 -1.95397 0
M  V30 29396 H 2911.14 0.809278 -4.02342 0
M  V30 29397 H 2910.67 2.30016 -3.19149 0
M  V30 29398 H 2912.68 3.5265 -3.49074 0
M  V30 29399 N 2911.86 1.53252 0.36763 0
M  V30 29400 C 2912.8 1.80213 1.47058 0
M  V30 29401 C 2913.8 0.671139 1.55538 0
M  V30 29402 O 2915 0.854042 1.58449 0
M  V30 29403 H 2911.38 0.570564 0.489858 0
M  V30 29404 H 2913.35 2.72534 1.21522 0
M  V30 29405 C 2912.1 2.00711 2.8392 0
M  V30 29406 H 2911.42 2.87177 2.78153 0
M  V30 29407 H 2912.86 2.23553 3.60277 0
M  V30 29408 C 2911.32 0.785625 3.27612 0
M  V30 29409 O 2911.85 -0.0266753 4.01691 0
M  V30 29410 N 2910.06 0.609647 2.84133 0
M  V30 29411 H 2909.6 1.27182 2.24015 0
M  V30 29412 H 2909.56 -0.206226 3.13723 0
M  V30 29413 N 2913.34 -0.627313 1.44577 0
M  V30 29414 C 2914.28 -1.76028 1.52042 0
M  V30 29415 C 2915.28 -1.64806 0.391825 0
M  V30 29416 O 2916.48 -1.70839 0.56693 0
M  V30 29417 H 2912.86 -0.581212 0.477176 0
M  V30 29418 H 2914.83 -1.66855 2.4739 0
M  V30 29419 C 2913.58 -3.14372 1.48544 0
M  V30 29420 H 2912.9 -3.23657 2.34704 0
M  V30 29421 H 2914.34 -3.93531 1.57828 0
M  V30 29422 C 2912.8 -3.36265 0.206779 0
M  V30 29423 O 2913.33 -3.95168 -0.721471 0
M  V30 29424 N 2911.54 -2.90397 0.108705 0
M  V30 29425 H 2911.08 -2.42645 0.864927 0
M  V30 29426 H 2911.04 -3.0542 -0.746068 0
M  V30 29427 N 2914.81 -1.31539 -0.868063 0
M  V30 29428 C 2916.23 -1.10237 -1.15412 0
M  V30 29429 C 2916.43 0.125912 -2.01106 0
M  V30 29430 O 2915.49 0.814691 -2.38996 0
M  V30 29431 C 2916.8 -2.37491 -1.84441 0
M  V30 29432 C 2918.35 -2.43119 -1.97134 0
M  V30 29433 C 2918.82 -3.70259 -2.69578 0
M  V30 29434 N 2920.31 -3.71164 -2.77113 0
M  V30 29435 C 2921.05 -4.66236 -3.33783 0
M  V30 29436 N 2920.54 -5.71666 -3.9137 0
M  V30 29437 N 2922.34 -4.53753 -3.31759 0
M  V30 29438 H 2914.49 -2.10312 -0.297072 0
M  V30 29439 H 2916.75 -0.927893 -0.194211 0
M  V30 29440 H 2916.46 -3.27218 -1.28924 0
M  V30 29441 H 2916.33 -2.47433 -2.84704 0
M  V30 29442 H 2918.72 -1.5386 -2.51815 0
M  V30 29443 H 2918.8 -2.3714 -0.959078 0
M  V30 29444 H 2918.44 -4.59885 -2.15564 0
M  V30 29445 H 2918.37 -3.73505 -3.71216 0
M  V30 29446 H 2920.86 -2.94953 -2.36244 0
M  V30 29447 H 2921.18 -6.40286 -4.32729 0
M  V30 29448 H 2919.52 -5.75437 -3.8974 0
M  V30 29449 H 2922.71 -3.70562 -2.8601 0
M  V30 29450 H 2922.89 -5.28023 -3.75627 0
M  V30 29451 N 2916.29 1.08262 -1.1453 0
M  V30 29452 C 2917.54 1.8032 -0.91263 0
M  V30 29453 C 2917.86 1.86719 0.562224 0
M  V30 29454 O 2917.13 1.36137 1.40867 0
M  V30 29455 H 2915.71 0.667843 -0.334657 0
M  V30 29456 H 2918.37 1.30881 -1.44417 0
M  V30 29457 H 2917.47 2.83096 -1.31389 0
M  V30 29458 N 2917.77 0.940655 1.26449 0
M  V30 29459 C 2919.02 0.588814 1.94064 0
M  V30 29460 C 2919.35 -0.869822 1.73631 0
M  V30 29461 O 2918.62 -1.62223 1.07302 0
M  V30 29462 C 2918.91 0.93126 3.4785 0
M  V30 29463 C 2918.76 2.4446 3.7757 0
M  V30 29464 C 2920.08 0.446306 4.37831 0
M  V30 29465 H 2917.2 0.215392 0.704823 0
M  V30 29466 H 2919.84 1.17478 1.49328 0
M  V30 29467 H 2917.99 0.432607 3.86084 0
M  V30 29468 H 2919.66 3.01594 3.49054 0
M  V30 29469 H 2917.9 2.8883 3.23666 0
M  V30 29470 H 2918.58 2.63472 4.85063 0
M  V30 29471 H 2921.05 0.873849 4.06821 0
M  V30 29472 H 2919.93 0.714744 5.44227 0
M  V30 29473 H 2920.19 -0.653738 4.3724 0
M  V30 29474 N 2919.25 -1.40821 0.707617 0
M  V30 29475 C 2920.49 -2.0289 0.248021 0
M  V30 29476 C 2920.85 -1.54874 -1.13481 0
M  V30 29477 O 2922.05 -2.08951 -1.69095 0
M  V30 29478 C 2920.32 -3.55997 0.316388 0
M  V30 29479 S 2921.88 -4.38748 -0.0673927 0
M  V30 29480 H 2918.7 -0.704079 0.0989624 0
M  V30 29481 H 2921.3 -1.72067 0.928069 0
M  V30 29482 H 2920.01 -3.88436 1.32459 0
M  V30 29483 H 2919.54 -3.91537 -0.382406 0
M  V30 29484 H 2921.55 -4.79092 -1.29173 0
M  V30 29485 N 2920.73 -0.453223 -1.50943 0
M  V30 29486 C 2921.66 0.340399 -2.31005 0
M  V30 29487 C 2922.64 1.00667 -1.37114 0
M  V30 29488 O 2923.82 1.00727 -1.66035 0
M  V30 29489 C 2920.95 1.43295 -3.1636 0
M  V30 29490 C 2919.91 0.889289 -4.18659 0
M  V30 29491 C 2919.23 2.07879 -4.92636 0
M  V30 29492 C 2920.53 -0.087206 -5.22227 0
M  V30 29493 H 2922.23 -0.327775 -2.976 0
M  V30 29494 H 2919.77 -0.159079 -1.43119 0
M  V30 29495 H 2921.72 1.99549 -3.71158 0
M  V30 29496 H 2920.45 2.12964 -2.47617 0
M  V30 29497 H 2919.11 0.348851 -3.64936 0
M  V30 29498 H 2918.76 2.76204 -4.20381 0
M  V30 29499 H 2918.46 1.72133 -5.61822 0
M  V30 29500 H 2919.98 2.64656 -5.50263 0
M  V30 29501 H 2921.39 0.385555 -5.72002 0
M  V30 29502 H 2919.79 -0.358031 -5.99031 0
M  V30 29503 H 2920.86 -1.01887 -4.74075 0
M  V30 29504 N 2922.2 1.56509 -0.185151 0
M  V30 29505 C 2923.48 1.89013 0.503315 0
M  V30 29506 C 2923.86 1.09718 1.80348 0
M  V30 29507 O 2923.21 0.195243 2.27664 0
M  V30 29508 C 2923.42 3.41242 0.731779 0
M  V30 29509 C 2924.77 4.11269 1.0556 0
M  V30 29510 O 2925.79 3.46637 0.819845 0
M  V30 29511 O 2924.65 5.25481 1.50107 0
M  V30 29512 H 2921.74 0.784693 0.261125 0
M  V30 29513 H 2924.29 1.68207 -0.224622 0
M  V30 29514 H 2923.06 3.90854 -0.186789 0
M  V30 29515 H 2922.68 3.67707 1.51254 0
M  V30 29516 N 2923.68 -0.0885089 1.57351 0
M  V30 29517 C 2924.61 -1.13326 1.99223 0
M  V30 29518 C 2925.63 -1.35943 0.895729 0
M  V30 29519 O 2926.82 -1.34479 1.17379 0
M  V30 29520 C 2923.92 -2.48752 2.30165 0
M  V30 29521 C 2923.09 -2.46321 3.61448 0
M  V30 29522 C 2922.15 -3.63725 3.8025 0
M  V30 29523 O 2921.17 -3.45916 4.5203 0
M  V30 29524 N 2922.38 -4.83454 3.21329 0
M  V30 29525 H 2925.14 -0.776811 2.89458 0
M  V30 29526 H 2922.7 -0.2774 1.59506 0
M  V30 29527 H 2924.69 -3.25907 2.39931 0
M  V30 29528 H 2923.26 -2.76461 1.45904 0
M  V30 29529 H 2922.48 -1.54666 3.62591 0
M  V30 29530 H 2923.77 -2.41781 4.47682 0
M  V30 29531 H 2923.17 -5.00828 2.63036 0
M  V30 29532 H 2921.73 -5.58179 3.3657 0
M  V30 29533 N 2925.16 -1.53445 -0.359498 0
M  V30 29534 C 2926.39 -1.73587 -1.12032 0
M  V30 29535 C 2926.8 -0.46747 -1.83334 0
M  V30 29536 O 2926.14 0.569722 -1.74642 0
M  V30 29537 C 2926.2 -2.85071 -2.19031 0
M  V30 29538 C 2925.87 -4.2522 -1.67443 0
M  V30 29539 C 2926.86 -5.07354 -1.13525 0
M  V30 29540 C 2924.55 -4.71651 -1.72772 0
M  V30 29541 C 2926.54 -6.34013 -0.656209 0
M  V30 29542 C 2924.23 -5.98288 -1.2448 0
M  V30 29543 C 2925.23 -6.793 -0.709948 0
M  V30 29544 O 2924.92 -8.03559 -0.234173 0
M  V30 29545 H 2924.65 -0.583894 -0.340651 0
M  V30 29546 H 2927.2 -2.01009 -0.422417 0
M  V30 29547 H 2925.43 -2.53137 -2.92333 0
M  V30 29548 H 2927.12 -2.93333 -2.80554 0
M  V30 29549 H 2927.89 -4.72652 -1.08743 0
M  V30 29550 H 2923.77 -4.08663 -2.13344 0
M  V30 29551 H 2927.31 -6.97194 -0.23807 0
M  V30 29552 H 2923.21 -6.32487 -1.28958 0
M  V30 29553 H 2923.97 -8.17739 -0.35294 0
M  V30 29554 N 2926.64 0.619637 -1.44908 0
M  V30 29555 C 2927.86 1.4108 -1.52024 0
M  V30 29556 C 2928.29 1.87503 -0.149793 0
M  V30 29557 O 2927.65 1.59428 0.863275 0
M  V30 29558 C 2927.69 2.59951 -2.49916 0
M  V30 29559 O 2926.8 3.60177 -2.00863 0
M  V30 29560 H 2926.14 0.421675 -0.512919 0
M  V30 29561 H 2928.67 0.755249 -1.9015 0
M  V30 29562 H 2928.68 3.0735 -2.68329 0
M  V30 29563 H 2927.35 2.25509 -3.49454 0
M  V30 29564 H 2925.93 3.1951 -1.92271 0
M  V30 29565 N 2928.12 1.31997 0.861075 0
M  V30 29566 C 2929.08 1.20342 1.95065 0
M  V30 29567 C 2930.08 0.128143 1.60289 0
M  V30 29568 O 2931.27 0.378074 1.70048 0
M  V30 29569 C 2928.4 0.849263 3.30152 0
M  V30 29570 H 2929.59 2.17167 2.06829 0
M  V30 29571 H 2927.15 1.15736 1.05047 0
M  V30 29572 H 2927.88 -0.117451 3.24087 0
M  V30 29573 H 2927.67 1.62662 3.56768 0
M  V30 29574 H 2929.16 0.791854 4.10024 0
M  V30 29575 N 2929.59 -1.07653 1.15103 0
M  V30 29576 C 2930.82 -1.83916 0.947763 0
M  V30 29577 C 2931.24 -1.81951 -0.503895 0
M  V30 29578 O 2930.59 -1.22873 -1.34939 0
M  V30 29579 C 2930.65 -3.3113 1.45035 0
M  V30 29580 O 2930.37 -3.33141 2.84514 0
M  V30 29581 C 2931.87 -4.24172 1.28814 0
M  V30 29582 H 2929.09 -0.580352 0.336797 0
M  V30 29583 H 2931.63 -1.35912 1.52801 0
M  V30 29584 H 2929.79 -3.76495 0.912698 0
M  V30 29585 H 2930.2 -4.25095 3.07237 0
M  V30 29586 H 2931.67 -5.25548 1.68829 0
M  V30 29587 H 2932.15 -4.38587 0.231928 0
M  V30 29588 H 2932.76 -3.8464 1.81472 0
M  V30 29589 N 2931.07 -0.947348 -1.25949 0
M  V30 29590 C 2932.32 -0.59703 -1.9308 0
M  V30 29591 C 2932.64 0.867641 -1.74634 0
M  V30 29592 O 2931.91 1.61718 -1.10562 0
M  V30 29593 H 2930.49 -0.217817 -0.714538 0
M  V30 29594 H 2933.15 -1.20401 -1.53263 0
M  V30 29595 H 2932.25 -0.820093 -3.01133 0
M  V30 29596 N 2932.55 1.40444 -0.715075 0
M  V30 29597 C 2933.46 2.34515 -0.0632036 0
M  V30 29598 C 2934.48 1.57274 0.744369 0
M  V30 29599 O 2935.65 1.89665 0.677442 0
M  V30 29600 C 2932.72 3.36173 0.847855 0
M  V30 29601 C 2931.78 4.29289 0.0302901 0
M  V30 29602 C 2931.01 5.26092 0.897959 0
M  V30 29603 O 2931.23 5.28848 2.1372 0
M  V30 29604 O 2930.17 6.00955 0.337223 0
M  V30 29605 H 2933.99 2.91877 -0.839129 0
M  V30 29606 H 2931.58 1.41629 -0.475552 0
M  V30 29607 H 2933.46 3.98518 1.36973 0
M  V30 29608 H 2932.14 2.81225 1.60294 0
M  V30 29609 H 2931.04 3.70231 -0.536638 0
M  V30 29610 H 2932.38 4.87388 -0.68656 0
M  V30 29611 N 2934.03 0.461222 1.507 0
M  V30 29612 C 2935.27 -0.0960314 2.04174 0
M  V30 29613 C 2935.63 -1.37866 1.3363 0
M  V30 29614 O 2936.83 -2.01767 1.77605 0
M  V30 29615 C 2935.1 -0.285613 3.56257 0
M  V30 29616 S 2936.66 -0.802841 4.31393 0
M  V30 29617 H 2933.48 -0.0206157 0.710701 0
M  V30 29618 H 2936.08 0.626102 1.85203 0
M  V30 29619 H 2934.79 0.653844 4.05158 0
M  V30 29620 H 2934.32 -1.03415 3.79564 0
M  V30 29621 H 2936.33 -2.07753 4.50614 0
M  V30 29622 N 2935.51 -1.56408 0.193449 0
M  V30 29623 C 2936.45 -2.19015 -0.728085 0
M  V30 29624 C 2937.42 -1.13688 -1.21096 0
M  V30 29625 O 2938.61 -1.41932 -1.27515 0
M  V30 29626 C 2935.75 -2.85224 -1.94272 0
M  V30 29627 C 2934.86 -4.05072 -1.50136 0
M  V30 29628 C 2934 -4.59142 -2.67137 0
M  V30 29629 C 2933.04 -5.71352 -2.19599 0
M  V30 29630 N 2932.17 -6.19835 -3.29772 0
M  V30 29631 H 2937.01 -2.9741 -0.187447 0
M  V30 29632 H 2934.55 -1.46878 -0.0807806 0
M  V30 29633 H 2936.51 -3.21779 -2.65545 0
M  V30 29634 H 2935.14 -2.09395 -2.4567 0
M  V30 29635 H 2934.19 -3.7419 -0.684558 0
M  V30 29636 H 2935.5 -4.86234 -1.11258 0
M  V30 29637 H 2934.66 -4.97994 -3.46535 0
M  V30 29638 H 2933.39 -3.77084 -3.09288 0
M  V30 29639 H 2932.4 -5.32029 -1.38654 0
M  V30 29640 H 2933.62 -6.55226 -1.78481 0
M  V30 29641 H 2931.57 -5.40699 -3.71457 0
M  V30 29642 H 2931.49 -6.96044 -2.95057 0
M  V30 29643 H 2932.76 -6.63341 -4.09389 0
M  V30 29644 N 2936.98 0.0801629 -1.57396 0
M  V30 29645 C 2938.22 0.786334 -1.88669 0
M  V30 29646 C 2938.59 1.75163 -0.786246 0
M  V30 29647 O 2939.79 2.50228 -0.981813 0
M  V30 29648 C 2938.06 1.48303 -3.25178 0
M  V30 29649 S 2939.62 2.22542 -3.78181 0
M  V30 29650 H 2936.44 0.261668 -0.661098 0
M  V30 29651 H 2939.04 0.0427852 -1.95453 0
M  V30 29652 H 2937.74 0.766559 -4.03177 0
M  V30 29653 H 2937.27 2.26618 -3.21571 0
M  V30 29654 H 2939.29 3.48927 -3.52795 0
M  V30 29655 N 2938.46 1.53634 0.351355 0
M  V30 29656 C 2939.41 1.81762 1.45139 0
M  V30 29657 C 2940.4 0.687598 1.54817 0
M  V30 29658 O 2941.61 0.8708 1.57534 0
M  V30 29659 H 2937.99 0.575728 0.483779 0
M  V30 29660 H 2939.96 2.73808 1.18625 0
M  V30 29661 C 2938.71 2.03711 2.81775 0
M  V30 29662 H 2938.03 2.90111 2.75092 0
M  V30 29663 H 2939.47 2.27362 3.57886 0
M  V30 29664 C 2937.93 0.820329 3.2676 0
M  V30 29665 O 2938.46 0.0159309 4.01697 0
M  V30 29666 N 2936.66 0.639749 2.83471 0
M  V30 29667 H 2936.21 1.2955 2.22653 0
M  V30 29668 H 2936.17 -0.17294 3.13924 0
M  V30 29669 N 2939.94 -0.611943 1.45234 0
M  V30 29670 C 2941.17 -1.39781 1.52541 0
M  V30 29671 C 2941.58 -1.8815 0.156566 0
M  V30 29672 O 2940.94 -1.61963 -0.841092 0
M  V30 29673 C 2940.99 -2.60524 2.50619 0
M  V30 29674 O 2940.71 -2.14166 3.82184 0
M  V30 29675 C 2942.21 -3.53434 2.67581 0
M  V30 29676 H 2939.43 -0.428034 0.516748 0
M  V30 29677 H 2941.98 -0.746694 1.9038 0
M  V30 29678 H 2940.13 -3.21686 2.15863 0
M  V30 29679 H 2940.55 -2.92584 4.3531 0
M  V30 29680 H 2942.02 -4.34711 3.40192 0
M  V30 29681 H 2942.5 -4.03493 1.73466 0
M  V30 29682 H 2943.1 -2.98128 3.03315 0
M  V30 29683 N 2941.42 -1.32452 -0.854063 0
M  V30 29684 C 2942.67 -1.22803 -1.60511 0
M  V30 29685 C 2942.99 0.210039 -1.93866 0
M  V30 29686 O 2942.26 1.13493 -1.59675 0
M  V30 29687 H 2940.84 -0.451526 -0.595091 0
M  V30 29688 H 2943.5 -1.65982 -1.02157 0
M  V30 29689 H 2942.6 -1.81107 -2.54178 0
M  V30 29690 N 2942.9 1.07041 -1.15672 0
M  V30 29691 C 2944.14 1.79697 -0.933549 0
M  V30 29692 C 2944.47 1.86879 0.539129 0
M  V30 29693 O 2943.73 1.35096 1.4159 0
M  V30 29694 C 2944.03 3.24546 -1.49683 0
M  V30 29695 C 2943.69 3.37458 -2.99053 0
M  V30 29696 C 2942.35 3.40689 -3.3983 0
M  V30 29697 C 2944.71 3.39997 -3.95033 0
M  V30 29698 C 2942.03 3.44067 -4.75221 0
M  V30 29699 C 2944.39 3.44911 -5.30301 0
M  V30 29700 C 2943.05 3.46422 -5.70568 0
M  V30 29701 H 2942.32 0.657559 -0.34161 0
M  V30 29702 H 2944.97 1.25935 -1.44266 0
M  V30 29703 H 2943.27 3.8111 -0.908982 0
M  V30 29704 H 2944.97 3.79345 -1.29992 0
M  V30 29705 H 2941.56 3.35644 -2.66536 0
M  V30 29706 H 2945.74 3.36719 -3.64601 0
M  V30 29707 H 2941 3.43536 -5.0576 0
M  V30 29708 H 2945.17 3.45823 -6.04466 0
M  V30 29709 H 2942.8 3.48791 -6.75462 0
M  V30 29710 N 2944.38 0.954014 1.25445 0
M  V30 29711 C 2945.32 0.46482 2.27908 0
M  V30 29712 C 2946.32 -0.464578 1.62905 0
M  V30 29713 O 2947.52 -0.341376 1.76733 0
M  V30 29714 H 2943.9 0.131811 0.740358 0
M  V30 29715 H 2945.87 1.34127 2.66557 0
M  V30 29716 C 2944.62 -0.242528 3.46853 0
M  V30 29717 H 2943.94 0.463488 3.97104 0
M  V30 29718 H 2945.38 -0.548845 4.20433 0
M  V30 29719 C 2943.84 -1.46482 3.03389 0
M  V30 29720 O 2944.37 -2.56257 3.09347 0
M  V30 29721 N 2942.58 -1.32595 2.58587 0
M  V30 29722 H 2942.12 -0.432789 2.53938 0
M  V30 29723 H 2942.08 -2.14493 2.2987 0
M  V30 29724 N 2945.85 -1.40063 0.722513 0
M  V30 29725 C 2947.1 -2.00362 0.26449 0
M  V30 29726 C 2947.42 -1.57594 -1.14844 0
M  V30 29727 O 2946.69 -0.818508 -1.77981 0
M  V30 29728 H 2945.27 -0.74096 0.0947976 0
M  V30 29729 H 2947.93 -1.71297 0.929689 0
M  V30 29730 H 2947.03 -3.10625 0.303031 0
M  V30 29731 N 2947.33 -0.469207 -1.50453 0
M  V30 29732 C 2948.56 0.0841771 -2.06729 0
M  V30 29733 C 2948.97 1.33675 -1.33328 0
M  V30 29734 O 2948.33 1.78017 -0.402009 0
M  V30 29735 C 2948.38 0.37419 -3.59558 0
M  V30 29736 O 2948.1 -0.828698 -4.30191 0
M  V30 29737 C 2949.6 0.974748 -4.32451 0
M  V30 29738 H 2946.82 -0.00624279 -0.670971 0
M  V30 29739 H 2949.37 -0.657449 -1.93644 0
M  V30 29740 H 2947.52 1.06575 -3.72452 0
M  V30 29741 H 2947.94 -0.572158 -5.2137 0
M  V30 29742 H 2949.41 1.12745 -5.40363 0
M  V30 29743 H 2949.89 1.96435 -3.92823 0
M  V30 29744 H 2950.49 0.321628 -4.24082 0
M  V30 29745 N 2948.81 1.56303 -0.201741 0
M  V30 29746 C 2949.77 2.1816 0.702773 0
M  V30 29747 C 2950.77 1.13789 1.13617 0
M  V30 29748 O 2951.96 1.39136 1.04818 0
M  V30 29749 C 2949.09 2.78902 1.96027 0
M  V30 29750 H 2950.29 2.99452 0.163783 0
M  V30 29751 H 2947.84 1.56227 0.0478825 0
M  V30 29752 H 2948.58 2.01426 2.54162 0
M  V30 29753 H 2948.36 3.55312 1.65818 0
M  V30 29754 H 2949.85 3.26378 2.60513 0
M  V30 29755 N 2950.29 -0.0718147 1.57436 0
M  V30 29756 C 2951.53 -0.776318 1.89084 0
M  V30 29757 C 2951.89 -1.74744 0.795525 0
M  V30 29758 O 2953.09 -2.49703 0.995069 0
M  V30 29759 C 2951.36 -1.46576 3.2596 0
M  V30 29760 S 2952.92 -2.20533 3.79355 0
M  V30 29761 H 2949.74 -0.258158 0.662477 0
M  V30 29762 H 2952.34 -0.0324192 1.95473 0
M  V30 29763 H 2951.05 -0.745166 4.03578 0
M  V30 29764 H 2950.58 -2.24909 3.22768 0
M  V30 29765 H 2952.59 -3.47051 3.5464 0
M  V30 29766 N 2951.77 -1.53818 -0.343203 0
M  V30 29767 C 2952.68 -1.84824 -1.4449 0
M  V30 29768 C 2953.69 -0.738409 -1.57555 0
M  V30 29769 O 2954.87 -1.03075 -1.73025 0
M  V30 29770 C 2951.93 -2.05171 -2.79474 0
M  V30 29771 C 2950.99 -3.2903 -2.7575 0
M  V30 29772 C 2950.23 -3.48397 -4.04296 0
M  V30 29773 O 2950.45 -2.71595 -5.0159 0
M  V30 29774 O 2949.38 -4.41826 -4.08746 0
M  V30 29775 H 2953.21 -2.78466 -1.21204 0
M  V30 29776 H 2950.79 -1.39476 -0.535413 0
M  V30 29777 H 2952.68 -2.19998 -3.59415 0
M  V30 29778 H 2951.35 -1.14718 -3.0269 0
M  V30 29779 H 2950.26 -3.19607 -1.94429 0
M  V30 29780 H 2951.59 -4.19477 -2.57488 0
M  V30 29781 N 2953.24 0.604233 -1.45557 0
M  V30 29782 C 2954.18 1.72861 -1.48978 0
M  V30 29783 C 2955.15 1.5888 -0.345831 0
M  V30 29784 O 2956.34 1.80394 -0.546828 0
M  V30 29785 C 2953.47 3.1072 -1.34799 0
M  V30 29786 C 2952.51 3.43281 -2.53102 0
M  V30 29787 S 2953.34 3.37746 -4.15557 0
M  V30 29788 C 2954.5 4.7818 -4.0385 0
M  V30 29789 H 2954.73 1.69697 -2.44111 0
M  V30 29790 H 2952.27 0.781171 -1.33181 0
M  V30 29791 H 2954.22 3.9026 -1.27307 0
M  V30 29792 H 2952.89 3.11395 -0.411309 0
M  V30 29793 H 2952.08 4.43666 -2.39117 0
M  V30 29794 H 2951.68 2.71262 -2.57474 0
M  V30 29795 H 2953.97 5.68064 -3.69201 0
M  V30 29796 H 2954.92 4.97222 -5.04159 0
M  V30 29797 H 2955.32 4.54019 -3.35451 0
M  V30 29798 N 2954.72 1.32903 0.847027 0
M  V30 29799 C 2955.96 1.25221 1.61552 0
M  V30 29800 C 2956.33 -0.181396 1.91141 0
M  V30 29801 O 2957.53 -0.382059 2.66071 0
M  V30 29802 C 2955.8 2.09514 2.89549 0
M  V30 29803 S 2957.36 2.18937 3.80279 0
M  V30 29804 H 2954.17 0.445623 0.554023 0
M  V30 29805 H 2956.78 1.67841 1.00248 0
M  V30 29806 H 2955.48 3.12721 2.6577 0
M  V30 29807 H 2955.01 1.677 3.55865 0
M  V30 29808 H 2957.03 1.34446 4.77639 0
M  V30 29809 N 2956.2 -1.06426 1.16238 0
M  V30 29810 C 2957.45 -1.79616 0.954449 0
M  V30 29811 C 2957.8 -1.85452 -0.512379 0
M  V30 29812 O 2957.09 -1.33412 -1.3752 0
M  V30 29813 C 2957.29 -3.23747 1.51402 0
M  V30 29814 C 2957.12 -3.31956 3.03373 0
M  V30 29815 C 2955.89 -3.41969 3.72002 0
M  V30 29816 C 2958.08 -3.2193 4.01081 0
M  V30 29817 N 2956.07 -3.39179 5.11694 0
M  V30 29818 C 2957.44 -3.26367 5.27148 0
M  V30 29819 C 2959.49 -3.05805 3.92922 0
M  V30 29820 C 2958.2 -3.16337 6.46006 0
M  V30 29821 C 2960.22 -2.97112 5.1135 0
M  V30 29822 C 2959.58 -3.0217 6.36296 0
M  V30 29823 H 2955.68 -0.670149 0.403019 0
M  V30 29824 H 2958.27 -1.26965 1.47608 0
M  V30 29825 H 2956.44 -3.74797 1.0189 0
M  V30 29826 H 2958.17 -3.85107 1.24397 0
M  V30 29827 H 2954.92 -3.46709 3.22629 0
M  V30 29828 H 2955.35 -3.41287 5.84682 0
M  V30 29829 H 2959.99 -3.00741 2.97178 0
M  V30 29830 H 2957.71 -3.20157 7.41974 0
M  V30 29831 H 2961.29 -2.85725 5.06806 0
M  V30 29832 H 2960.17 -2.955 7.26395 0
M  V30 29833 N 2957.68 -0.960653 -1.24937 0
M  V30 29834 C 2959.09 -0.65856 -1.74699 0
M  V30 29835 C 2959.44 0.825927 -1.77969 0
M  V30 29836 O 2958.57 1.64632 -1.40447 0
M  V30 29837 C 2959.16 -1.18873 -3.17261 0
M  V30 29838 C 2957.72 -0.936678 -3.64559 0
M  V30 29839 C 2956.87 -1.32822 -2.43421 0
M  V30 29840 H 2959.82 -1.13678 -1.10739 0
M  V30 29841 H 2959.84 -0.551655 -3.7648 0
M  V30 29842 H 2959.35 -2.26917 -3.1485 0
M  V30 29843 H 2957.45 0.128542 -3.72378 0
M  V30 29844 H 2957.56 -1.57737 -4.52389 0
M  V30 29845 H 2955.93 -0.746591 -2.43512 0
M  V30 29846 H 2956.71 -2.418 -2.43696 0
M  V30 29847 N 2959.16 1.39677 -0.729931 0
M  V30 29848 C 2960.4 2.00219 -0.275112 0
M  V30 29849 C 2960.73 1.58201 1.14007 0
M  V30 29850 O 2960 0.827935 1.77544 0
M  V30 29851 H 2958.58 0.740447 -0.0987258 0
M  V30 29852 H 2961.24 1.70802 -0.93876 0
M  V30 29853 H 2960.33 3.1046 -0.3195 0
M  V30 29854 N 2960.63 0.47718 1.50202 0
M  V30 29855 C 2962.05 0.131691 1.59056 0
M  V30 29856 C 2962.25 -1.36225 1.48476 0
M  V30 29857 O 2961.31 -2.13609 1.34638 0
M  V30 29858 C 2962.62 0.687306 2.9274 0
M  V30 29859 C 2964.17 0.651277 3.06149 0
M  V30 29860 C 2964.64 1.18454 4.42417 0
M  V30 29861 N 2966.13 1.14421 4.48845 0
M  V30 29862 C 2966.87 1.52727 5.52686 0
M  V30 29863 N 2966.36 1.98511 6.63751 0
M  V30 29864 N 2968.16 1.44292 5.43265 0
M  V30 29865 H 2960.31 1.44874 1.55323 0
M  V30 29866 H 2962.57 0.599486 0.734385 0
M  V30 29867 H 2962.28 1.7341 3.05977 0
M  V30 29868 H 2962.15 0.134282 3.76961 0
M  V30 29869 H 2964.54 -0.386626 2.92556 0
M  V30 29870 H 2964.62 1.24118 2.2367 0
M  V30 29871 H 2964.26 2.22111 4.5676 0
M  V30 29872 H 2964.19 0.570801 5.23497 0
M  V30 29873 H 2966.68 0.808481 3.6915 0
M  V30 29874 H 2967 2.25872 7.39055 0
M  V30 29875 H 2965.34 2.02468 6.64855 0
M  V30 29876 H 2968.53 1.0836 4.55385 0
M  V30 29877 H 2968.71 1.7447 6.24071 0
M  V30 29878 N 2962.11 -1.56194 0.210027 0
M  V30 29879 C 2963.36 -1.97995 -0.424778 0
M  V30 29880 C 2963.69 -1.09736 -1.60587 0
M  V30 29881 O 2962.94 -0.139728 -1.95201 0
M  V30 29882 C 2963.24 -3.4554 -0.913059 0
M  V30 29883 C 2962.91 -4.50629 0.156266 0
M  V30 29884 C 2961.57 -4.79091 0.45005 0
M  V30 29885 C 2963.92 -5.13716 0.88005 0
M  V30 29886 C 2961.25 -5.67925 1.47233 0
M  V30 29887 C 2963.6 -6.03657 1.89159 0
M  V30 29888 C 2962.27 -6.30468 2.19241 0
M  V30 29889 H 2961.54 -0.724514 -0.155437 0
M  V30 29890 H 2964.18 -1.88972 0.310129 0
M  V30 29891 H 2962.49 -3.51708 -1.72652 0
M  V30 29892 H 2964.18 -3.75247 -1.41388 0
M  V30 29893 H 2960.77 -4.2852 -0.0828713 0
M  V30 29894 H 2964.96 -4.91807 0.666317 0
M  V30 29895 H 2960.21 -5.86966 1.71115 0
M  V30 29896 H 2964.39 -6.51596 2.45756 0
M  V30 29897 H 2962.02 -6.99101 2.98599 0
M  V30 29898 N 2963.59 0.0634645 -1.57472 0
M  V30 29899 C 2964.84 0.75953 -1.87285 0
M  V30 29900 C 2965.16 1.77691 -0.803166 0
M  V30 29901 O 2964.43 1.95185 0.167259 0
M  V30 29902 H 2963.01 0.283503 -0.691111 0
M  V30 29903 H 2965.67 0.0375748 -1.94864 0
M  V30 29904 H 2964.77 1.27057 -2.85067 0
M  V30 29905 N 2965.07 1.53998 0.33504 0
M  V30 29906 C 2966.48 1.63012 0.910162 0
M  V30 29907 C 2966.83 0.516843 1.8927 0
M  V30 29908 O 2965.96 -0.352085 2.13517 0
M  V30 29909 C 2966.55 2.95483 1.65756 0
M  V30 29910 C 2965.11 3.06732 2.18157 0
M  V30 29911 C 2964.26 2.58512 1.00334 0
M  V30 29912 H 2967.21 1.58298 0.112937 0
M  V30 29913 H 2967.23 2.85 2.52102 0
M  V30 29914 H 2966.74 3.76489 0.942204 0
M  V30 29915 H 2964.84 2.30377 2.92843 0
M  V30 29916 H 2964.95 4.12344 2.43945 0
M  V30 29917 H 2963.32 2.14126 1.37921 0
M  V30 29918 H 2964.1 3.41965 0.30248 0
M  V30 29919 N 2966.55 -0.596505 1.45875 0
M  V30 29920 C 2967.82 -1.35625 1.40944 0
M  V30 29921 C 2968.2 -2.10926 0.0857437 0
M  V30 29922 O 2967.55 -2.08606 -0.932507 0
M  V30 29923 C 2967.76 -2.29381 2.63031 0
M  V30 29924 C 2969.11 -2.91643 3.08593 0
M  V30 29925 O 2970.13 -2.39699 2.63482 0
M  V30 29926 O 2968.99 -3.85958 3.86909 0
M  V30 29927 H 2966.09 -0.608686 0.559849 0
M  V30 29928 H 2968.63 -0.61867 1.58021 0
M  V30 29929 H 2967.4 -1.73074 3.50943 0
M  V30 29930 H 2967.03 -3.10501 2.48344 0
M  V30 29931 N 2968.02 -1.3335 -0.839967 0
M  V30 29932 C 2969.26 -1.26076 -1.60886 0
M  V30 29933 C 2969.63 0.171257 -1.91235 0
M  V30 29934 O 2970.83 0.367944 -2.6627 0
M  V30 29935 C 2969.1 -2.11047 -2.88434 0
M  V30 29936 S 2970.66 -2.20951 -3.79112 0
M  V30 29937 H 2967.48 -0.448555 -0.551652 0
M  V30 29938 H 2970.08 -1.6837 -0.993561 0
M  V30 29939 H 2968.78 -3.14126 -2.64108 0
M  V30 29940 H 2968.31 -1.69585 -3.54971 0
M  V30 29941 H 2970.33 -1.36977 -4.76919 0
M  V30 29942 N 2969.5 1.05808 -1.16801 0
M  V30 29943 C 2970.43 2.15363 -0.902279 0
M  V30 29944 C 2971.41 1.69408 0.153321 0
M  V30 29945 O 2972.6 1.942 0.00438619 0
M  V30 29946 C 2969.73 3.44895 -0.407972 0
M  V30 29947 C 2968.68 4.04384 -1.40204 0
M  V30 29948 C 2968.01 5.29186 -0.765941 0
M  V30 29949 C 2969.31 4.42593 -2.77324 0
M  V30 29950 H 2971 2.3785 -1.81846 0
M  V30 29951 H 2968.55 1.14309 -0.875751 0
M  V30 29952 H 2970.5 4.20879 -0.209524 0
M  V30 29953 H 2969.23 3.22042 0.543723 0
M  V30 29954 H 2967.88 3.30463 -1.58712 0
M  V30 29955 H 2967.53 5.02632 0.192394 0
M  V30 29956 H 2967.23 5.69947 -1.42949 0
M  V30 29957 H 2968.76 6.07862 -0.577626 0
M  V30 29958 H 2970.17 5.09637 -2.6257 0
M  V30 29959 H 2968.57 4.94353 -3.40198 0
M  V30 29960 H 2969.64 3.53225 -3.32205 0
M  V30 29961 N 2970.98 0.967265 1.24426 0
M  V30 29962 C 2972.39 0.667815 1.74348 0
M  V30 29963 C 2972.74 -0.816478 1.78404 0
M  V30 29964 O 2971.87 -1.63884 1.41318 0
M  V30 29965 C 2972.46 1.20554 3.16626 0
M  V30 29966 C 2971.02 0.955998 3.64057 0
M  V30 29967 C 2970.17 1.34111 2.42713 0
M  V30 29968 H 2973.12 1.14263 1.10134 0
M  V30 29969 H 2973.14 0.571613 3.76182 0
M  V30 29970 H 2972.65 2.28584 3.13642 0
M  V30 29971 H 2970.75 -0.108792 3.72441 0
M  V30 29972 H 2970.87 1.60134 4.51546 0
M  V30 29973 H 2969.23 0.759495 2.43113 0
M  V30 29974 H 2970.01 2.43089 2.4241 0
M  V30 29975 N 2972.46 -1.39288 0.737328 0
M  V30 29976 C 2973.7 -2.02318 0.291002 0
M  V30 29977 C 2974.06 -1.57246 -1.10171 0
M  V30 29978 O 2975.26 -2.12491 -1.64624 0
M  V30 29979 C 2973.54 -3.55246 0.391829 0
M  V30 29980 S 2975.09 -4.38792 0.0256875 0
M  V30 29981 H 2971.91 -0.701822 0.113875 0
M  V30 29982 H 2974.51 -1.7006 0.964358 0
M  V30 29983 H 2973.22 -3.85539 1.40669 0
M  V30 29984 H 2972.75 -3.9226 -0.299269 0
M  V30 29985 H 2974.76 -4.81724 -1.18982 0
M  V30 29986 N 2973.94 -0.485139 -1.49947 0
M  V30 29987 C 2975.19 0.064842 -2.01996 0
M  V30 29988 C 2975.51 1.38942 -1.36821 0
M  V30 29989 O 2974.78 1.88922 -0.518196 0
M  V30 29990 H 2973.36 0.0269531 -0.746514 0
M  V30 29991 H 2976.02 -0.638765 -1.84135 0
M  V30 29992 H 2975.11 0.206116 -3.11419 0
M  V30 29993 N 2975.42 1.56081 -0.218307 0
M  V30 29994 C 2976.66 2.00119 0.416158 0
M  V30 29995 C 2977.02 1.10268 1.57178 0
M  V30 29996 O 2978.22 1.43639 2.27203 0
M  V30 29997 C 2976.49 3.47323 0.84272 0
M  V30 29998 S 2978.05 4.13382 1.47175 0
M  V30 29999 H 2974.87 0.6986 0.132207 0
M  V30 30000 H 2977.47 1.92749 -0.326833 0
M  V30 30001 H 2976.17 4.10399 -0.00807139 0
M  V30 30002 H 2975.71 3.58559 1.6186 0
M  V30 30003 H 2977.72 4.12304 2.7608 0
M  V30 30004 N 2976.89 -0.0551124 1.57504 0
M  V30 30005 C 2978.12 -0.767318 1.92684 0
M  V30 30006 C 2978.54 -1.69471 0.81617 0
M  V30 30007 O 2977.9 -1.79836 -0.229957 0
M  V30 30008 C 2977.95 -1.5228 3.26869 0
M  V30 30009 O 2977.05 -2.63454 3.17279 0
M  V30 30010 H 2976.39 -0.208227 0.630506 0
M  V30 30011 H 2978.92 -0.0183666 2.04592 0
M  V30 30012 H 2978.93 -1.89844 3.61142 0
M  V30 30013 H 2977.61 -0.84247 4.07278 0
M  V30 30014 H 2976.19 -2.28624 2.94593 0
M  V30 30015 N 2978.37 -1.54173 -0.326869 0
M  V30 30016 C 2979.65 -1.62866 -1.08323 0
M  V30 30017 C 2980.03 -0.460427 -2.06018 0
M  V30 30018 O 2979.38 0.545646 -2.2189 0
M  V30 30019 C 2979.59 -2.99713 -1.78811 0
M  V30 30020 C 2980.93 -3.55645 -2.31952 0
M  V30 30021 O 2981.96 -3.01996 -1.88883 0
M  V30 30022 O 2980.82 -4.49522 -3.10793 0
M  V30 30023 H 2977.91 -0.659401 -0.499119 0
M  V30 30024 H 2980.46 -1.66519 -0.327025 0
M  V30 30025 H 2979.23 -3.76177 -1.07732 0
M  V30 30026 H 2978.85 -2.99724 -2.6125 0
M  V30 30027 N 2979.85 0.58876 -1.4619 0
M  V30 30028 C 2980.8 1.69301 -1.52713 0
M  V30 30029 C 2981.78 1.56137 -0.388606 0
M  V30 30030 O 2982.98 1.65154 -0.636645 0
M  V30 30031 C 2980.1 3.08081 -1.51463 0
M  V30 30032 C 2979.19 3.26563 -2.70587 0
M  V30 30033 N 2979.58 3.15229 -3.95556 0
M  V30 30034 C 2977.88 3.57486 -2.66682 0
M  V30 30035 C 2978.58 3.35552 -4.75163 0
M  V30 30036 N 2977.56 3.60425 -4.06933 0
M  V30 30037 H 2981.36 1.59059 -2.47139 0
M  V30 30038 H 2978.87 0.792608 -1.41744 0
M  V30 30039 H 2980.87 3.87325 -1.54223 0
M  V30 30040 H 2979.53 3.19458 -0.581092 0
M  V30 30041 H 2980.54 2.93225 -4.26895 0
M  V30 30042 H 2977.22 3.75585 -1.82324 0
M  V30 30043 H 2978.61 3.32024 -5.84132 0
M  V30 30044 N 2981.33 1.33794 0.832883 0
M  V30 30045 C 2982.58 1.25341 1.58537 0
M  V30 30046 C 2982.9 -0.17917 1.94175 0
M  V30 30047 O 2982.17 -1.10938 1.6146 0
M  V30 30048 H 2980.75 0.460936 0.587832 0
M  V30 30049 H 2983.41 1.67586 0.995035 0
M  V30 30050 H 2982.5 1.85128 2.51265 0
M  V30 30051 N 2982.81 -1.05187 1.1736 0
M  V30 30052 C 2983.74 -2.12931 0.848116 0
M  V30 30053 C 2984.75 -1.62112 -0.149492 0
M  V30 30054 O 2985.94 -1.78335 0.076811 0
M  V30 30055 C 2983.04 -3.38021 0.243948 0
M  V30 30056 C 2982.21 -4.18116 1.28443 0
M  V30 30057 C 2981.27 -5.2155 0.698018 0
M  V30 30058 O 2980.3 -5.52471 1.36983 0
M  V30 30059 N 2981.5 -5.78256 -0.509923 0
M  V30 30060 H 2984.26 -2.4145 1.77545 0
M  V30 30061 H 2981.83 -1.21285 1.07246 0
M  V30 30062 H 2983.82 -4.04377 -0.161656 0
M  V30 30063 H 2982.39 -3.07036 -0.587166 0
M  V30 30064 H 2981.61 -3.47249 1.86579 0
M  V30 30065 H 2982.9 -4.68429 1.98626 0
M  V30 30066 H 2982.29 -5.55417 -1.07368 0
M  V30 30067 H 2980.85 -6.46134 -0.857591 0
M  V30 30068 N 2984.28 -0.97385 -1.23911 0
M  V30 30069 C 2985.52 -0.647049 -1.93888 0
M  V30 30070 C 2985.89 0.803705 -1.74369 0
M  V30 30071 O 2987.09 1.24102 -2.38437 0
M  V30 30072 C 2985.36 -1.01891 -3.42568 0
M  V30 30073 S 2986.92 -0.807593 -4.31304 0
M  V30 30074 H 2983.74 -0.237177 -0.670275 0
M  V30 30075 H 2986.34 -1.25211 -1.50142 0
M  V30 30076 H 2985.04 -2.07152 -3.54282 0
M  V30 30077 H 2984.57 -0.404881 -3.91311 0
M  V30 30078 H 2986.59 0.311899 -4.95219 0
M  V30 30079 N 2985.76 1.38895 -0.744705 0
M  V30 30080 C 2987.04 1.94327 -0.222807 0
M  V30 30081 C 2987.42 1.68073 1.27728 0
M  V30 30082 O 2986.77 1.01433 2.04753 0
M  V30 30083 C 2986.98 3.44365 -0.566896 0
M  V30 30084 C 2988.32 4.21384 -0.521605 0
M  V30 30085 O 2989.35 3.52607 -0.504661 0
M  V30 30086 O 2988.21 5.43975 -0.52469 0
M  V30 30087 H 2985.3 0.825832 -0.0439404 0
M  V30 30088 H 2987.85 1.4834 -0.824223 0
M  V30 30089 H 2986.62 3.56947 -1.60327 0
M  V30 30090 H 2986.24 3.9755 0.0629878 0
M  V30 30091 N 2987.24 0.493084 1.49688 0
M  V30 30092 C 2988.52 -0.116872 1.95251 0
M  V30 30093 C 2988.9 -1.54889 1.43431 0
M  V30 30094 O 2988.25 -2.19218 0.644659 0
M  V30 30095 C 2988.46 -0.0376436 3.4898 0
M  V30 30096 C 2989.8 -0.215546 4.24053 0
M  V30 30097 O 2990.83 -0.113204 3.5602 0
M  V30 30098 O 2989.69 -0.424674 5.44847 0
M  V30 30099 H 2986.78 -0.0996476 0.820975 0
M  V30 30100 H 2989.33 0.555057 1.60366 0
M  V30 30101 H 2988.1 0.961317 3.79308 0
M  V30 30102 H 2987.72 -0.750069 3.90461 0
M  V30 30103 N 2988.72 -1.55963 0.226582 0
M  V30 30104 C 2989.97 -1.98042 -0.402957 0
M  V30 30105 C 2990.29 -1.1156 -1.59936 0
M  V30 30106 O 2989.56 -0.193754 -1.94939 0
M  V30 30107 H 2988.14 -0.7314 -0.151867 0
M  V30 30108 H 2990.8 -1.92244 0.320647 0
M  V30 30109 H 2989.9 -3.03541 -0.725883 0
M  V30 30110 N 2990.2 0.0467589 -1.57531 0
M  V30 30111 C 2991.45 0.740036 -1.87634 0
M  V30 30112 C 2991.76 1.77456 -0.822722 0
M  V30 30113 O 2992.96 2.51918 -1.0124 0
M  V30 30114 C 2991.42 1.36721 -3.32919 0
M  V30 30115 C 2991.03 0.369956 -4.4647 0
M  V30 30116 C 2992.77 2.04139 -3.72193 0
M  V30 30117 C 2990.68 1.00447 -5.82807 0
M  V30 30118 H 2989.61 0.280146 -0.700025 0
M  V30 30119 H 2992.26 -0.00610376 -1.83499 0
M  V30 30120 H 2990.64 2.16246 -3.31743 0
M  V30 30121 H 2991.82 -0.397298 -4.59084 0
M  V30 30122 H 2990.13 -0.201152 -4.15914 0
M  V30 30123 H 2992.73 2.52433 -4.71362 0
M  V30 30124 H 2993.07 2.85187 -3.03273 0
M  V30 30125 H 2993.6 1.31413 -3.75467 0
M  V30 30126 H 2990.34 0.233791 -6.55083 0
M  V30 30127 H 2989.86 1.74198 -5.73947 0
M  V30 30128 H 2991.54 1.51702 -6.28964 0
M  V30 30129 N 2991.67 1.54344 0.318688 0
M  V30 30130 C 2992.9 1.76752 1.07547 0
M  V30 30131 C 2993.32 0.518454 1.81542 0
M  V30 30132 O 2992.67 -0.511047 1.75199 0
M  V30 30133 C 2992.73 2.96382 2.06978 0
M  V30 30134 O 2992.45 4.1646 1.35988 0
M  V30 30135 C 2993.95 3.31039 2.94835 0
M  V30 30136 H 2991.17 0.589943 0.319701 0
M  V30 30137 H 2993.71 2.01246 0.363333 0
M  V30 30138 H 2991.87 2.74147 2.73719 0
M  V30 30139 H 2992.28 4.83785 2.02615 0
M  V30 30140 H 2993.75 4.18033 3.60489 0
M  V30 30141 H 2994.23 2.48418 3.62195 0
M  V30 30142 H 2994.84 3.5537 2.3365 0
M  V30 30143 N 2993.15 -0.580999 1.465 0
M  V30 30144 C 2994.4 -1.3365 1.51598 0
M  V30 30145 C 2994.72 -1.94258 0.169893 0
M  V30 30146 O 2993.99 -1.78653 -0.803745 0
M  V30 30147 H 2992.57 -0.496234 0.558355 0
M  V30 30148 H 2995.23 -0.680306 1.82641 0
M  V30 30149 H 2994.33 -2.14233 2.26959 0
M  V30 30150 N 2994.63 -1.34234 -0.825776 0
M  V30 30151 C 2995.86 -1.29651 -1.61881 0
M  V30 30152 C 2996.28 0.127262 -1.87669 0
M  V30 30153 O 2995.64 1.0881 -1.45017 0
M  V30 30154 C 2995.69 -2.0902 -2.93842 0
M  V30 30155 O 2994.79 -1.45776 -3.85776 0
M  V30 30156 H 2994.13 -0.445413 -0.492446 0
M  V30 30157 H 2996.66 -1.76993 -1.02638 0
M  V30 30158 H 2996.67 -2.2027 -3.43431 0
M  V30 30159 H 2995.35 -3.12538 -2.74396 0
M  V30 30160 H 2993.92 -1.43251 -3.44287 0
M  V30 30161 N 2996.11 1.04563 -1.17917 0
M  V30 30162 C 2997.36 1.77326 -0.969536 0
M  V30 30163 C 2997.68 1.88413 0.502536 0
M  V30 30164 O 2996.95 1.4055 1.36465 0
M  V30 30165 H 2995.53 0.656858 -0.355734 0
M  V30 30166 H 2998.19 1.2622 -1.48508 0
M  V30 30167 H 2997.29 2.78773 -1.40329 0
M  V30 30168 N 2997.59 0.980408 1.23393 0
M  V30 30169 C 2998.52 0.478696 2.24145 0
M  V30 30170 C 2999.53 -0.419464 1.57303 0
M  V30 30171 O 3000.72 -0.223599 1.77094 0
M  V30 30172 C 2997.82 -0.326854 3.3732 0
M  V30 30173 C 2996.99 0.564436 4.33743 0
M  V30 30174 C 2996.05 -0.187265 5.25867 0
M  V30 30175 O 2995.08 0.423118 5.67625 0
M  V30 30176 N 2996.28 -1.47325 5.61494 0
M  V30 30177 H 2999.05 1.34501 2.67824 0
M  V30 30178 H 2996.61 0.853677 1.37564 0
M  V30 30179 H 2998.6 -0.838078 3.95927 0
M  V30 30180 H 2997.17 -1.09417 2.92825 0
M  V30 30181 H 2996.39 1.25649 3.73639 0
M  V30 30182 H 2997.68 1.17186 4.95121 0
M  V30 30183 H 2997.07 -1.99067 5.29517 0
M  V30 30184 H 2995.63 -1.92991 6.22573 0
M  V30 30185 N 2999.06 -1.38498 0.75206 0
M  V30 30186 C 3000.3 -2.01998 0.312444 0
M  V30 30187 C 3000.67 -1.58406 -1.08497 0
M  V30 30188 O 3001.87 -2.14225 -1.62361 0
M  V30 30189 C 3000.14 -3.5481 0.429486 0
M  V30 30190 S 3001.7 -4.38741 0.0722258 0
M  V30 30191 H 2998.52 -0.700574 0.121312 0
M  V30 30192 H 3001.12 -1.69028 0.982341 0
M  V30 30193 H 2999.82 -3.84025 1.4475 0
M  V30 30194 H 2999.35 -3.92555 -0.257647 0
M  V30 30195 H 3001.37 -4.82959 -1.13866 0
M  V30 30196 N 3000.54 -0.501015 -1.49424 0
M  V30 30197 C 3001.47 0.266734 -2.31972 0
M  V30 30198 C 3002.45 0.962538 -1.40247 0
M  V30 30199 O 3003.64 0.953938 -1.69156 0
M  V30 30200 C 3000.77 1.33157 -3.20759 0
M  V30 30201 C 2999.72 0.755646 -4.21277 0
M  V30 30202 C 2999.05 1.921 -4.99001 0
M  V30 30203 C 3000.35 -0.253304 -5.21685 0
M  V30 30204 H 3002.04 -0.422289 -2.96407 0
M  V30 30205 H 2999.59 -0.20453 -1.4254 0
M  V30 30206 H 3001.54 1.8764 -3.77319 0
M  V30 30207 H 3000.27 2.04978 -2.54266 0
M  V30 30208 H 2998.92 0.232573 -3.65862 0
M  V30 30209 H 2998.57 2.6269 -4.28956 0
M  V30 30210 H 2998.27 1.54172 -5.67014 0
M  V30 30211 H 2999.8 2.47016 -5.58404 0
M  V30 30212 H 3001.21 0.203382 -5.72939 0
M  V30 30213 H 2999.61 -0.548427 -5.97589 0
M  V30 30214 H 3000.68 -1.16918 -4.70594 0
M  V30 30215 N 3002.02 1.5584 -0.234849 0
M  V30 30216 C 3003.26 2.00549 0.394909 0
M  V30 30217 C 3003.63 1.11929 1.56 0
M  V30 30218 O 3004.83 1.46041 2.25667 0
M  V30 30219 C 3003.1 3.48197 0.805834 0
M  V30 30220 S 3004.66 4.1492 1.42782 0
M  V30 30221 H 3001.47 0.699963 0.12479 0
M  V30 30222 H 3004.08 1.92391 -0.347258 0
M  V30 30223 H 3002.78 4.10368 -0.0515993 0
M  V30 30224 H 3002.31 3.60256 1.58048 0
M  V30 30225 H 3004.33 4.15209 2.71692 0
M  V30 30226 N 3003.5 -0.038404 1.57553 0
M  V30 30227 C 3004.41 -1.05906 2.09335 0
M  V30 30228 C 3005.43 -1.40245 1.02992 0
M  V30 30229 O 3006.6 -1.49752 1.34671 0
M  V30 30230 C 3003.67 -2.34382 2.55472 0
M  V30 30231 C 3002.73 -2.0671 3.76257 0
M  V30 30232 C 3001.96 -3.2906 4.20185 0
M  V30 30233 O 3002.18 -4.39401 3.63708 0
M  V30 30234 O 3001.12 -3.15308 5.12703 0
M  V30 30235 H 3004.94 -0.649035 2.96684 0
M  V30 30236 H 3002.53 -0.254776 1.47212 0
M  V30 30237 H 3004.41 -3.0993 2.85519 0
M  V30 30238 H 3003.09 -2.74698 1.71238 0
M  V30 30239 H 3001.99 -1.2876 3.51243 0
M  V30 30240 H 3003.33 -1.71255 4.61446 0
M  V30 30241 N 3004.98 -1.54511 -0.310498 0
M  V30 30242 C 3006.21 -1.7732 -1.06608 0
M  V30 30243 C 3006.62 -0.528075 -1.81264 0
M  V30 30244 O 3005.98 0.501749 -1.75467 0
M  V30 30245 C 3006.03 -2.97475 -2.05403 0
M  V30 30246 O 3005.75 -4.17175 -1.33777 0
M  V30 30247 C 3007.25 -3.32598 -2.93076 0
M  V30 30248 H 3004.47 -0.59163 -0.316568 0
M  V30 30249 H 3007.01 -2.01436 -0.352656 0
M  V30 30250 H 3005.17 -2.75595 -2.72261 0
M  V30 30251 H 3005.58 -4.84852 -2.00046 0
M  V30 30252 H 3007.06 -4.19939 -3.58267 0
M  V30 30253 H 3007.53 -2.50335 -3.60872 0
M  V30 30254 H 3008.14 -3.56604 -2.31762 0
M  V30 30255 N 3006.46 0.573222 -1.46806 0
M  V30 30256 C 3007.7 1.32844 -1.52305 0
M  V30 30257 C 3008.02 1.94166 -0.180193 0
M  V30 30258 O 3007.29 1.79076 0.794259 0
M  V30 30259 H 3005.87 0.493266 -0.560979 0
M  V30 30260 H 3008.54 0.67061 -1.83 0
M  V30 30261 H 3007.63 2.13027 -2.28092 0
M  V30 30262 N 3007.93 1.3467 0.818645 0
M  V30 30263 C 3009.18 1.28464 1.57697 0
M  V30 30264 C 3009.53 -0.143023 1.91868 0
M  V30 30265 O 3008.83 -1.09039 1.57547 0
M  V30 30266 C 3009.02 2.11309 2.88242 0
M  V30 30267 C 3008.85 3.61987 2.66825 0
M  V30 30268 C 3007.62 4.31255 2.63339 0
M  V30 30269 C 3009.82 4.55896 2.38041 0
M  V30 30270 N 3007.8 5.67755 2.33512 0
M  V30 30271 C 3009.17 5.8043 2.17947 0
M  V30 30272 C 3011.23 4.44765 2.23804 0
M  V30 30273 C 3009.93 6.95087 1.85058 0
M  V30 30274 C 3011.96 5.59259 1.92311 0
M  V30 30275 C 3011.32 6.82814 1.73044 0
M  V30 30276 H 3007.42 0.525324 0.579275 0
M  V30 30277 H 3010 1.69427 0.959307 0
M  V30 30278 H 3008.17 1.72636 3.47924 0
M  V30 30279 H 3009.9 1.96715 3.53674 0
M  V30 30280 H 3006.66 3.83739 2.77563 0
M  V30 30281 H 3007.08 6.39765 2.21426 0
M  V30 30282 H 3011.72 3.49856 2.37404 0
M  V30 30283 H 3009.44 7.89974 1.70196 0
M  V30 30284 H 3013.03 5.52593 1.82021 0
M  V30 30285 H 3011.91 7.69909 1.49028 0
M  V30 30286 N 3009.41 -1.03936 1.1847 0
M  V30 30287 C 3010.64 -1.80808 1.00579 0
M  V30 30288 C 3011.05 -1.83462 -0.445754 0
M  V30 30289 O 3010.41 -1.27103 -1.30962 0
M  V30 30290 C 3010.46 -3.26348 1.55497 0
M  V30 30291 O 3010.18 -3.23921 2.94969 0
M  V30 30292 C 3011.68 -4.19859 1.42243 0
M  V30 30293 H 3008.9 -0.569344 0.35509 0
M  V30 30294 H 3011.45 -1.30982 1.57048 0
M  V30 30295 H 3009.6 -3.73401 1.03202 0
M  V30 30296 H 3010.02 -4.15105 3.20606 0
M  V30 30297 H 3011.49 -5.19911 1.85464 0
M  V30 30298 H 3011.97 -4.37627 0.371344 0
M  V30 30299 H 3012.57 -3.78672 1.93617 0
M  V30 30300 N 3010.89 -0.986938 -1.22871 0
M  V30 30301 C 3012.14 -0.658155 -1.91083 0
M  V30 30302 C 3012.46 0.811644 -1.77306 0
M  V30 30303 O 3011.73 1.58119 -1.15651 0
M  V30 30304 H 3010.31 -0.240439 -0.707247 0
M  V30 30305 H 3012.97 -1.25216 -1.49355 0
M  V30 30306 H 3012.07 -0.915481 -2.98371 0
M  V30 30307 N 3012.37 1.38098 -0.759394 0
M  V30 30308 C 3013.78 1.82685 -0.385111 0
M  V30 30309 C 3014.13 1.63332 1.08707 0
M  V30 30310 O 3013.25 1.13766 1.84082 0
M  V30 30311 C 3013.85 3.31653 -0.692219 0
M  V30 30312 C 3012.41 3.74566 -0.371143 0
M  V30 30313 C 3011.56 2.60794 -0.942421 0
M  V30 30314 H 3014.51 1.26744 -0.95507 0
M  V30 30315 H 3014.53 3.8049 0.0275333 0
M  V30 30316 H 3014.04 3.45707 -1.76375 0
M  V30 30317 H 3012.14 3.66088 0.693573 0
M  V30 30318 H 3012.25 4.71121 -0.870755 0
M  V30 30319 H 3010.62 2.52036 -0.367427 0
M  V30 30320 H 3011.4 2.77646 -2.0191 0
M  V30 30321 N 3013.85 0.508932 1.49156 0
M  V30 30322 C 3015.07 -0.0314817 2.07376 0
M  V30 30323 C 3015.5 -1.29338 1.36577 0
M  V30 30324 O 3014.85 -1.76248 0.424994 0
M  V30 30325 C 3014.9 -0.260054 3.59661 0
M  V30 30326 O 3014.01 -1.33315 3.90257 0
M  V30 30327 H 3013.35 0.0297506 0.663333 0
M  V30 30328 H 3015.88 0.710825 1.91855 0
M  V30 30329 H 3015.89 -0.489154 4.05057 0
M  V30 30330 H 3014.56 0.661866 4.106 0
M  V30 30331 H 3013.14 -1.08838 3.56663 0
M  V30 30332 N 3015.32 -1.55714 0.243111 0
M  V30 30333 C 3016.56 -2.00755 -0.384268 0
M  V30 30334 C 3016.93 -1.12754 -1.55404 0
M  V30 30335 O 3018.13 -1.47235 -2.24889 0
M  V30 30336 C 3016.4 -3.48619 -0.787357 0
M  V30 30337 S 3017.96 -4.15671 -1.4058 0
M  V30 30338 H 3014.78 -0.700615 -0.121076 0
M  V30 30339 H 3017.38 -1.92204 0.357456 0
M  V30 30340 H 3016.08 -4.10334 0.0733613 0
M  V30 30341 H 3015.61 -3.61089 -1.56136 0
M  V30 30342 H 3017.63 -4.16644 -2.69486 0
M  V30 30343 N 3016.8 0.030048 -1.57571 0
M  V30 30344 C 3018.08 0.756415 -1.80382 0
M  V30 30345 C 3018.46 1.93627 -0.84094 0
M  V30 30346 O 3017.81 2.282 0.117103 0
M  V30 30347 C 3018.02 1.19037 -3.28072 0
M  V30 30348 C 3019.37 1.60669 -3.93028 0
M  V30 30349 O 3020.39 1.28498 -3.32215 0
M  V30 30350 O 3019.25 2.20377 -5.00096 0
M  V30 30351 H 3016.34 0.365712 -0.741744 0
M  V30 30352 H 3018.89 0.00690194 -1.69699 0
M  V30 30353 H 3017.66 0.348059 -3.89749 0
M  V30 30354 H 3017.28 1.99993 -3.4364 0
M  V30 30355 N 3018.28 1.54674 0.3023 0
M  V30 30356 C 3019.51 1.77883 1.05666 0
M  V30 30357 C 3019.92 0.53768 1.80982 0
M  V30 30358 O 3019.28 -0.492436 1.75731 0
M  V30 30359 C 3019.33 2.98561 2.03823 0
M  V30 30360 O 3019.05 4.17879 1.31563 0
M  V30 30361 C 3020.55 3.34148 2.91308 0
M  V30 30362 H 3017.77 0.5933 0.313426 0
M  V30 30363 H 3020.32 2.01621 0.341968 0
M  V30 30364 H 3018.47 2.77035 2.70796 0
M  V30 30365 H 3018.89 4.85906 1.97472 0
M  V30 30366 H 3020.36 4.21833 3.56035 0
M  V30 30367 H 3020.84 2.52246 3.5954 0
M  V30 30368 H 3021.44 3.57828 2.29867 0
M  V30 30369 N 3019.76 -0.565428 1.47108 0
M  V30 30370 C 3020.69 -1.68817 1.55027 0
M  V30 30371 C 3021.7 -1.56822 0.437128 0
M  V30 30372 O 3022.89 -1.6393 0.706344 0
M  V30 30373 C 3019.99 -3.07218 1.43075 0
M  V30 30374 C 3019.17 -3.45048 2.68813 0
M  V30 30375 C 3018.22 -4.62578 2.50814 0
M  V30 30376 O 3017.25 -4.67571 3.24601 0
M  V30 30377 N 3018.45 -5.58555 1.58103 0
M  V30 30378 H 3021.22 -1.62472 2.51839 0
M  V30 30379 H 3018.78 -0.75186 1.43383 0
M  V30 30380 H 3020.77 -3.83664 1.2878 0
M  V30 30381 H 3019.34 -3.07834 0.543775 0
M  V30 30382 H 3018.56 -2.58133 2.97928 0
M  V30 30383 H 3019.85 -3.67095 3.52305 0
M  V30 30384 H 3019.25 -5.57271 0.972905 0
M  V30 30385 H 3017.8 -6.34361 1.49764 0
M  V30 30386 N 3021.24 -1.35102 -0.811492 0
M  V30 30387 C 3022.2 -1.27499 -1.90465 0
M  V30 30388 C 3023.2 -0.187544 -1.59703 0
M  V30 30389 O 3024.39 -0.440925 -1.68527 0
M  V30 30390 C 3021.52 -0.971211 -3.26773 0
M  V30 30391 H 3022.71 -2.24694 -1.98627 0
M  V30 30392 H 3020.27 -1.19555 -1.00679 0
M  V30 30393 H 3021 -0.0029127 -3.243 0
M  V30 30394 H 3020.79 -1.75791 -3.50485 0
M  V30 30395 H 3022.28 -0.943486 -4.06802 0
M  V30 30396 N 3022.71 1.03306 -1.19019 0
M  V30 30397 C 3023.96 1.76898 -0.991712 0
M  V30 30398 C 3024.29 1.88256 0.47678 0
M  V30 30399 O 3023.57 1.39627 1.35405 0
M  V30 30400 C 3023.85 3.19746 -1.65633 0
M  V30 30401 C 3023.7 3.16285 -3.19819 0
M  V30 30402 C 3025.02 4.18041 -1.37586 0
M  V30 30403 H 3022.14 0.642147 -0.361685 0
M  V30 30404 H 3024.78 1.20626 -1.46797 0
M  V30 30405 H 3022.93 3.67794 -1.25139 0
M  V30 30406 H 3024.61 2.76167 -3.69499 0
M  V30 30407 H 3022.85 2.54111 -3.51582 0
M  V30 30408 H 3023.52 4.1719 -3.61465 0
M  V30 30409 H 3026 3.78575 -1.72686 0
M  V30 30410 H 3024.87 5.16193 -1.86645 0
M  V30 30411 H 3025.13 4.4108 -0.300196 0
M  V30 30412 N 3024.19 0.99344 1.22346 0
M  V30 30413 C 3025.12 0.564128 2.26583 0
M  V30 30414 C 3026.1 -0.409269 1.65103 0
M  V30 30415 O 3027.29 -0.299785 1.91872 0
M  V30 30416 C 3024.42 -0.121493 3.47087 0
M  V30 30417 C 3023.37 0.770503 4.21007 0
M  V30 30418 C 3022.7 -0.0480646 5.34678 0
M  V30 30419 C 3024 2.06761 4.79632 0
M  V30 30420 H 3025.69 1.43543 2.62747 0
M  V30 30421 H 3023.24 0.69165 1.26302 0
M  V30 30422 H 3025.19 -0.43323 4.19167 0
M  V30 30423 H 3023.92 -1.02734 3.10021 0
M  V30 30424 H 3022.57 1.06589 3.50763 0
M  V30 30425 H 3022.22 -0.954846 4.93854 0
M  V30 30426 H 3021.92 0.545744 5.8506 0
M  V30 30427 H 3023.45 -0.353884 6.09574 0
M  V30 30428 H 3024.86 1.81979 5.43651 0
M  V30 30429 H 3023.26 2.61029 5.40355 0
M  V30 30430 H 3024.33 2.74599 3.99654 0
M  V30 30431 N 3025.67 -1.37693 0.766707 0
M  V30 30432 C 3027.08 -1.82478 0.394793 0
M  V30 30433 C 3027.43 -1.63906 -1.07839 0
M  V30 30434 O 3026.56 -1.1474 -1.83477 0
M  V30 30435 C 3027.15 -3.31281 0.709798 0
M  V30 30436 C 3025.71 -3.74364 0.391002 0
M  V30 30437 C 3024.86 -2.60291 0.956238 0
M  V30 30438 H 3027.81 -1.26236 0.961778 0
M  V30 30439 H 3027.83 -3.80499 -0.00735456 0
M  V30 30440 H 3027.34 -3.44767 1.78206 0
M  V30 30441 H 3025.44 -3.66451 -0.674148 0
M  V30 30442 H 3025.56 -4.70652 0.895728 0
M  V30 30443 H 3023.92 -2.51837 0.380788 0
M  V30 30444 H 3024.7 -2.76571 2.0338 0
M  V30 30445 N 3027.15 -0.516835 -1.48884 0
M  V30 30446 C 3028.11 0.242216 -2.27917 0
M  V30 30447 C 3029.11 0.879711 -1.34602 0
M  V30 30448 O 3030.3 0.741792 -1.57617 0
M  V30 30449 C 3027.43 1.34909 -3.13069 0
M  V30 30450 H 3028.63 -0.451496 -2.96482 0
M  V30 30451 H 3026.18 -0.272321 -1.53909 0
M  V30 30452 H 3026.91 2.07646 -2.49105 0
M  V30 30453 H 3026.7 0.897246 -3.81696 0
M  V30 30454 H 3028.19 1.88334 -3.7272 0
M  V30 30455 N 3028.63 1.55583 -0.251365 0
M  V30 30456 C 3029.87 1.99346 0.372685 0
M  V30 30457 C 3030.21 1.13937 1.57264 0
M  V30 30458 O 3029.48 0.203804 1.93429 0
M  V30 30459 C 3029.76 3.51591 0.778183 0
M  V30 30460 C 3029.62 4.47764 -0.427473 0
M  V30 30461 C 3030.94 4.0906 1.62351 0
M  V30 30462 H 3028.05 0.724718 0.133989 0
M  V30 30463 H 3030.7 1.86681 -0.353569 0
M  V30 30464 H 3028.85 3.62515 1.39698 0
M  V30 30465 H 3030.52 4.48816 -1.06594 0
M  V30 30466 H 3028.76 4.20402 -1.06979 0
M  V30 30467 H 3029.43 5.51909 -0.100347 0
M  V30 30468 H 3031.91 4.01266 1.10113 0
M  V30 30469 H 3030.78 5.15843 1.87608 0
M  V30 30470 H 3031.05 3.57796 2.59682 0
M  V30 30471 N 3030.1 -0.0216912 1.57585 0
M  V30 30472 C 3031.34 -0.715769 1.91458 0
M  V30 30473 C 3031.71 -1.72124 0.850715 0
M  V30 30474 O 3032.91 -2.46411 1.07401 0
M  V30 30475 C 3031.18 -1.36132 3.30459 0
M  V30 30476 S 3032.74 -2.08353 3.86179 0
M  V30 30477 H 3029.56 -0.236951 0.670355 0
M  V30 30478 H 3032.16 0.0297854 1.95477 0
M  V30 30479 H 3030.86 -0.616394 4.05745 0
M  V30 30480 H 3030.39 -2.14527 3.2976 0
M  V30 30481 H 3032.41 -3.35593 3.65502 0
M  V30 30482 N 3031.58 -1.54832 -0.294093 0
M  V30 30483 C 3032.81 -1.78441 -1.04721 0
M  V30 30484 C 3033.23 -0.547271 -1.80694 0
M  V30 30485 O 3032.58 0.48311 -1.75989 0
M  V30 30486 C 3032.63 -2.99637 -2.02237 0
M  V30 30487 O 3032.36 -4.18571 -1.29345 0
M  V30 30488 C 3033.86 -3.35688 -2.89532 0
M  V30 30489 H 3031.08 -0.594954 -0.310275 0
M  V30 30490 H 3033.62 -2.01799 -0.331271 0
M  V30 30491 H 3031.78 -2.78467 -2.69323 0
M  V30 30492 H 3032.19 -4.86947 -1.94892 0
M  V30 30493 H 3033.66 -4.23715 -3.53793 0
M  V30 30494 H 3034.14 -2.54149 -3.58197 0
M  V30 30495 H 3034.75 -3.59042 -2.27966 0
M  V30 30496 N 3033.06 0.557619 -1.47405 0
M  V30 30497 C 3034.47 1.13974 -1.47874 0
M  V30 30498 C 3034.82 1.94809 -0.23321 0
M  V30 30499 O 3033.95 2.06028 0.661908 0
M  V30 30500 C 3034.54 2.07363 -2.67929 0
M  V30 30501 C 3033.1 2.60848 -2.71359 0
M  V30 30502 C 3032.25 1.37219 -2.40969 0
M  V30 30503 H 3035.2 0.344241 -1.54921 0
M  V30 30504 H 3035.22 2.91232 -2.44876 0
M  V30 30505 H 3034.73 1.48502 -3.58565 0
M  V30 30506 H 3032.83 3.23508 -1.84861 0
M  V30 30507 H 3032.95 3.01869 -3.72037 0
M  V30 30508 H 3031.31 1.67878 -1.91543 0
M  V30 30509 H 3032.09 0.801524 -3.33812 0
M  V30 30510 N 3034.54 1.35531 0.804316 0
M  V30 30511 C 3035.95 1.25917 1.37847 0
M  V30 30512 C 3036.3 -0.107461 1.95905 0
M  V30 30513 O 3035.43 -1.00849 1.91464 0
M  V30 30514 C 3036.02 2.27998 2.50604 0
M  V30 30515 C 3034.58 2.22119 3.03875 0
M  V30 30516 C 3033.73 2.13585 1.76853 0
M  V30 30517 H 3036.68 1.46626 0.607166 0
M  V30 30518 H 3036.7 1.90778 3.29217 0
M  V30 30519 H 3036.21 3.27453 2.08317 0
M  V30 30520 H 3034.31 1.26083 3.50619 0
M  V30 30521 H 3034.43 3.14179 3.61702 0
M  V30 30522 H 3032.79 1.59599 1.98495 0
M  V30 30523 H 3033.57 3.14903 1.36715 0
M  V30 30524 N 3036.02 -1.02674 1.19565 0
M  V30 30525 C 3037.26 -1.7766 1.01075 0
M  V30 30526 C 3037.62 -1.86645 -0.450311 0
M  V30 30527 O 3038.82 -2.57977 -0.755086 0
M  V30 30528 C 3037.09 -3.16306 1.66388 0
M  V30 30529 S 3038.65 -4.07456 1.62865 0
M  V30 30530 H 3035.47 -0.611558 0.362655 0
M  V30 30531 H 3038.07 -1.23011 1.51949 0
M  V30 30532 H 3036.78 -3.07386 2.71923 0
M  V30 30533 H 3036.31 -3.76031 1.15603 0
M  V30 30534 H 3038.32 -4.91867 0.654351 0
M  V30 30535 N 3037.5 -0.999914 -1.21817 0
M  V30 30536 C 3038.72 -0.698128 -1.95297 0
M  V30 30537 C 3039.15 0.731952 -1.73275 0
M  V30 30538 O 3038.5 1.50132 -1.01637 0
M  V30 30539 C 3038.55 -1.0184 -3.4592 0
M  V30 30540 O 3037.66 -0.120874 -4.12223 0
M  V30 30541 H 3037 -0.260599 -0.610724 0
M  V30 30542 H 3039.53 -1.33879 -1.54718 0
M  V30 30543 H 3039.54 -0.963144 -3.96469 0
M  V30 30544 H 3038.21 -2.06044 -3.61274 0
M  V30 30545 H 3036.79 -0.232219 -3.72176 0
M  V30 30546 N 3038.97 1.37284 -0.773999 0
M  V30 30547 C 3039.94 2.28583 -0.168014 0
M  V30 30548 C 3040.94 1.4813 0.625636 0
M  V30 30549 O 3042.13 1.68317 0.448894 0
M  V30 30550 C 3039.26 3.32106 0.769305 0
M  V30 30551 H 3040.45 2.83682 -0.972856 0
M  V30 30552 H 3038 1.46588 -0.542361 0
M  V30 30553 H 3038.74 2.82135 1.59907 0
M  V30 30554 H 3038.52 3.91578 0.20235 0
M  V30 30555 H 3040.01 4.00326 1.18865 0
M  V30 30556 N 3040.45 0.524724 1.48608 0
M  V30 30557 C 3041.4 -0.260656 2.26505 0
M  V30 30558 C 3042.39 -0.914573 1.3238 0
M  V30 30559 O 3043.58 -0.818249 1.56951 0
M  V30 30560 C 3040.71 -1.31018 3.17316 0
M  V30 30561 C 3039.79 -0.661317 4.18912 0
M  V30 30562 N 3040.18 0.249899 5.05182 0
M  V30 30563 C 3038.48 -0.919143 4.36426 0
M  V30 30564 C 3039.18 0.6237 5.78347 0
M  V30 30565 N 3038.16 -0.0139883 5.43598 0
M  V30 30566 H 3041.96 0.440439 2.90581 0
M  V30 30567 H 3039.47 0.342392 1.5875 0
M  V30 30568 H 3041.47 -1.8865 3.71775 0
M  V30 30569 H 3040.13 -2.01271 2.54794 0
M  V30 30570 H 3041.14 0.622184 5.14149 0
M  V30 30571 H 3037.82 -1.61263 3.85098 0
M  V30 30572 H 3039.21 1.37057 6.57773 0
M  V30 30573 N 3041.93 -1.55447 0.259613 0
M  V30 30574 C 3042.89 -2.20618 -0.62132 0
M  V30 30575 C 3043.89 -1.17927 -1.09315 0
M  V30 30576 O 3045.08 -1.42931 -0.995816 0
M  V30 30577 C 3042.21 -2.85985 -1.85541 0
M  V30 30578 H 3043.41 -2.99854 -0.0525306 0
M  V30 30579 H 3040.96 -1.56297 0.0101329 0
M  V30 30580 H 3041.7 -2.1072 -2.46511 0
M  V30 30581 H 3041.48 -3.61222 -1.52516 0
M  V30 30582 H 3042.97 -3.35822 -2.48221 0
M  V30 30583 N 3043.41 0.0133338 -1.57594 0
M  V30 30584 C 3044.64 0.712294 -1.94252 0
M  V30 30585 C 3045.05 1.68042 -0.860659 0
M  V30 30586 O 3044.41 1.81783 0.1616 0
M  V30 30587 C 3044.46 1.45575 -3.30893 0
M  V30 30588 O 3044.18 0.526463 -4.34925 0
M  V30 30589 C 3045.68 2.25043 -3.8193 0
M  V30 30590 H 3042.9 0.19923 -0.64074 0
M  V30 30591 H 3045.44 -0.0338215 -2.04472 0
M  V30 30592 H 3043.6 2.15361 -3.22023 0
M  V30 30593 H 3044.01 1.04953 -5.13892 0
M  V30 30594 H 3045.49 2.72581 -4.80004 0
M  V30 30595 H 3045.96 3.07146 -3.13939 0
M  V30 30596 H 3046.57 1.60301 -3.93934 0
M  V30 30597 N 3044.89 1.54985 0.285878 0
M  V30 30598 C 3046.13 1.76728 1.02696 0
M  V30 30599 C 3046.49 0.54975 1.83961 0
M  V30 30600 O 3047.69 0.645188 2.60942 0
M  V30 30601 C 3045.96 3.02922 1.89666 0
M  V30 30602 S 3047.52 3.45731 2.70214 0
M  V30 30603 H 3044.34 0.621074 0.346103 0
M  V30 30604 H 3046.94 1.93204 0.298731 0
M  V30 30605 H 3045.64 3.89643 1.28866 0
M  V30 30606 H 3045.18 2.89076 2.66831 0
M  V30 30607 H 3047.19 3.0399 3.92179 0
M  V30 30608 N 3046.36 -0.549794 1.47699 0
M  V30 30609 C 3047.31 -1.65622 1.60742 0
M  V30 30610 C 3048.28 -1.59884 0.450158 0
M  V30 30611 O 3049.47 -1.78606 0.671154 0
M  V30 30612 C 3046.61 -3.03931 1.63462 0
M  V30 30613 C 3045.72 -3.20051 2.90158 0
M  V30 30614 C 3044.85 -4.48802 2.84165 0
M  V30 30615 C 3043.89 -4.5838 4.05652 0
M  V30 30616 N 3043.03 -5.78496 3.97853 0
M  V30 30617 H 3047.87 -1.53812 2.55237 0
M  V30 30618 H 3045.41 -0.749151 1.26594 0
M  V30 30619 H 3047.37 -3.84031 1.63022 0
M  V30 30620 H 3046 -3.14559 0.724744 0
M  V30 30621 H 3045.05 -2.33334 3.00432 0
M  V30 30622 H 3046.36 -3.22992 3.80103 0
M  V30 30623 H 3045.51 -5.37171 2.82015 0
M  V30 30624 H 3044.25 -4.48352 1.91916 0
M  V30 30625 H 3043.26 -3.68423 4.08099 0
M  V30 30626 H 3044.48 -4.60584 4.99038 0
M  V30 30627 H 3042.43 -5.78981 3.08411 0
M  V30 30628 H 3042.35 -5.82846 4.81483 0
M  V30 30629 H 3043.61 -6.69205 3.99731 0
M  V30 30630 N 3047.84 -1.35955 -0.797117 0
M  V30 30631 C 3048.75 -1.31788 -1.94086 0
M  V30 30632 C 3049.77 -0.221258 -1.72588 0
M  V30 30633 O 3050.94 -0.45229 -1.96256 0
M  V30 30634 C 3048.01 -1.09884 -3.28826 0
M  V30 30635 C 3047.07 -2.28949 -3.63154 0
M  V30 30636 C 3046.3 -2.08081 -4.91465 0
M  V30 30637 O 3046.53 -1.05206 -5.60614 0
M  V30 30638 O 3045.46 -2.95673 -5.24272 0
M  V30 30639 H 3049.29 -2.28065 -2.0055 0
M  V30 30640 H 3046.87 -1.16423 -0.936267 0
M  V30 30641 H 3048.75 -0.995557 -4.09471 0
M  V30 30642 H 3047.43 -0.166647 -3.23271 0
M  V30 30643 H 3046.34 -2.44844 -2.82847 0
M  V30 30644 H 3047.67 -3.20648 -3.73425 0
M  V30 30645 N 3049.32 1.02038 -1.20108 0
M  V30 30646 C 3050.27 2.12615 -0.943268 0
M  V30 30647 C 3051.26 1.6908 0.104012 0
M  V30 30648 O 3052.47 1.79941 -0.0460048 0
M  V30 30649 H 3048.84 0.694797 -0.287682 0
M  V30 30650 H 3050.81 2.31546 -1.88225 0
M  V30 30651 C 3049.56 3.43972 -0.50777 0
M  V30 30652 H 3048.89 3.77895 -1.30521 0
M  V30 30653 H 3050.33 4.22413 -0.366561 0
M  V30 30654 C 3048.79 3.27762 0.779333 0
M  V30 30655 O 3049.32 3.57148 1.8387 0
M  V30 30656 N 3047.52 2.81023 0.739881 0
M  V30 30657 H 3047.07 2.57309 -0.122471 0
M  V30 30658 H 3047.03 2.70558 1.60142 0
M  V30 30659 N 3050.8 1.00636 1.21285 0
M  V30 30660 C 3051.75 0.561065 2.25732 0
M  V30 30661 C 3052.74 -0.395066 1.64729 0
M  V30 30662 O 3053.95 -0.26611 1.78022 0
M  V30 30663 H 3050.32 0.163094 0.734101 0
M  V30 30664 H 3052.29 1.45312 2.60628 0
M  V30 30665 C 3051.04 -0.0951976 3.4757 0
M  V30 30666 H 3050.36 0.631496 3.94781 0
M  V30 30667 H 3051.8 -0.370031 4.22382 0
M  V30 30668 C 3050.26 -1.33482 3.09328 0
M  V30 30669 O 3050.79 -2.42906 3.19937 0
M  V30 30670 N 3049 -1.21508 2.63978 0
M  V30 30671 H 3048.55 -0.324696 2.55545 0
M  V30 30672 H 3048.5 -2.04551 2.3876 0
M  V30 30673 N 3052.28 -1.36872 0.781268 0
M  V30 30674 C 3053.5 -2.03716 0.361602 0
M  V30 30675 C 3053.92 -1.58918 -1.01934 0
M  V30 30676 O 3053.28 -0.774812 -1.65236 0
M  V30 30677 C 3053.33 -3.59208 0.406454 0
M  V30 30678 O 3053.05 -4.02369 1.73293 0
M  V30 30679 C 3054.55 -4.43294 -0.0236115 0
M  V30 30680 H 3051.77 -0.653986 0.150145 0
M  V30 30681 H 3054.31 -1.75014 1.05784 0
M  V30 30682 H 3052.47 -3.86648 -0.241296 0
M  V30 30683 H 3052.88 -4.9693 1.67812 0
M  V30 30684 H 3054.36 -5.51969 0.0589175 0
M  V30 30685 H 3054.83 -4.25835 -1.07522 0
M  V30 30686 H 3055.44 -4.21099 0.596314 0
M  V30 30687 N 3053.75 -0.532597 -1.48328 0
M  V30 30688 C 3054.99 -0.00149211 -2.044 0
M  V30 30689 C 3055.36 1.31333 -1.40056 0
M  V30 30690 O 3056.56 1.93063 -1.8703 0
M  V30 30691 C 3054.83 0.115313 -3.57214 0
M  V30 30692 S 3056.39 0.596104 -4.34732 0
M  V30 30693 H 3053.21 -0.0133162 -0.710875 0
M  V30 30694 H 3055.81 -0.713752 -1.82005 0
M  V30 30695 H 3054.51 -0.846406 -4.01577 0
M  V30 30696 H 3054.04 0.851872 -3.84066 0
M  V30 30697 H 3056.06 1.86017 -4.60013 0
M  V30 30698 N 3055.23 1.55307 -0.267853 0
M  V30 30699 C 3056.14 2.25898 0.633015 0
M  V30 30700 C 3057.16 1.28233 1.1761 0
M  V30 30701 O 3058.33 1.61155 1.20794 0
M  V30 30702 C 3055.4 2.96074 1.80391 0
M  V30 30703 C 3054.46 4.092 1.29822 0
M  V30 30704 C 3053.69 4.7602 2.41331 0
M  V30 30705 O 3053.92 4.42012 3.60529 0
M  V30 30706 O 3052.85 5.64115 2.09899 0
M  V30 30707 H 3056.68 3.03638 0.0613848 0
M  V30 30708 H 3054.26 1.49358 -0.0355334 0
M  V30 30709 H 3056.14 3.40201 2.48679 0
M  V30 30710 H 3054.82 2.21257 2.36277 0
M  V30 30711 H 3053.73 3.69545 0.582021 0
M  V30 30712 H 3055.06 4.85897 0.785202 0
M  V30 30713 N 3056.71 -0.00497598 1.57599 0
M  V30 30714 C 3057.95 -0.695422 1.92206 0
M  V30 30715 C 3058.31 -1.71212 0.868924 0
M  V30 30716 O 3059.52 -2.45258 1.10008 0
M  V30 30717 C 3057.79 -1.32619 3.31884 0
M  V30 30718 S 3059.35 -2.04245 3.88368 0
M  V30 30719 H 3056.16 -0.229828 0.67283 0
M  V30 30720 H 3058.77 0.0505168 1.95435 0
M  V30 30721 H 3057.47 -0.573324 4.06376 0
M  V30 30722 H 3057 -2.11017 3.32017 0
M  V30 30723 H 3059.02 -3.31698 3.69041 0
M  V30 30724 N 3058.19 -1.55135 -0.277654 0
M  V30 30725 C 3059.14 -1.8848 -1.36301 0
M  V30 30726 C 3060.13 -0.760681 -1.51361 0
M  V30 30727 O 3061.34 -0.94497 -1.532 0
M  V30 30728 H 3057.71 -0.598154 -0.455759 0
M  V30 30729 H 3059.68 -2.79156 -1.05426 0
M  V30 30730 C 3058.43 -2.16922 -2.71735 0
M  V30 30731 H 3057.75 -3.02906 -2.60937 0
M  V30 30732 H 3059.19 -2.44178 -3.46631 0
M  V30 30733 C 3057.65 -0.975296 -3.22474 0
M  V30 30734 O 3058.18 -0.207568 -4.01163 0
M  V30 30735 N 3056.39 -0.774268 -2.80095 0
M  V30 30736 H 3055.94 -1.40026 -2.16219 0
M  V30 30737 H 3055.89 0.0229658 -3.14392 0
M  V30 30738 N 3059.67 0.541953 -1.47989 0
M  V30 30739 C 3060.6 1.6571 -1.64506 0
M  V30 30740 C 3061.58 1.62764 -0.494144 0
M  V30 30741 O 3062.76 1.80148 -0.725287 0
M  V30 30742 C 3059.89 3.04325 -1.67343 0
M  V30 30743 C 3058.85 3.22125 -2.81815 0
M  V30 30744 C 3058.17 4.6168 -2.69733 0
M  V30 30745 C 3059.47 3.06039 -4.23247 0
M  V30 30746 H 3061.17 1.52142 -2.57862 0
M  V30 30747 H 3058.71 0.730507 -1.24095 0
M  V30 30748 H 3060.67 3.82199 -1.77487 0
M  V30 30749 H 3059.39 3.18888 -0.70557 0
M  V30 30750 H 3058.05 2.46664 -2.71205 0
M  V30 30751 H 3057.7 4.73062 -1.70942 0
M  V30 30752 H 3057.4 4.74537 -3.46538 0
M  V30 30753 H 3058.92 5.41669 -2.81828 0
M  V30 30754 H 3060.33 3.73716 -4.34752 0
M  V30 30755 H 3058.73 3.30396 -5.00958 0
M  V30 30756 H 3059.8 2.02601 -4.40546 0
M  V30 30757 N 3061.15 1.36376 0.789896 0
M  V30 30758 C 3062.42 1.21128 1.53581 0
M  V30 30759 C 3062.8 -0.202748 2.10124 0
M  V30 30760 O 3062.15 -1.20832 1.93938 0
M  V30 30761 C 3062.36 2.29287 2.63113 0
M  V30 30762 C 3063.71 2.6593 3.31008 0
M  V30 30763 O 3064.73 2.28326 2.73396 0
M  V30 30764 O 3063.59 3.30651 4.35123 0
M  V30 30765 H 3060.69 0.471595 0.679358 0
M  V30 30766 H 3063.23 1.48106 0.82842 0
M  V30 30767 H 3062 3.24057 2.19323 0
M  V30 30768 H 3061.63 2.03672 3.41472 0
M  V30 30769 N 3062.62 -1.014 1.20647 0
M  V30 30770 C 3063.85 -1.78374 1.04241 0
M  V30 30771 C 3064.26 -1.84675 -0.411294 0
M  V30 30772 O 3063.6 -1.30059 -1.29731 0
M  V30 30773 C 3063.67 -3.24199 1.55354 0
M  V30 30774 C 3063.33 -3.41499 3.0369 0
M  V30 30775 C 3064.33 -3.30507 4.01324 0
M  V30 30776 C 3062.01 -3.67231 3.42705 0
M  V30 30777 C 3064.01 -3.44998 5.35962 0
M  V30 30778 C 3061.69 -3.81365 4.77498 0
M  V30 30779 C 3062.69 -3.70253 5.73935 0
M  V30 30780 O 3062.38 -3.8395 7.06284 0
M  V30 30781 H 3062.11 -0.567711 0.366988 0
M  V30 30782 H 3064.67 -1.28503 1.60238 0
M  V30 30783 H 3062.9 -3.75165 0.937456 0
M  V30 30784 H 3064.58 -3.82818 1.34928 0
M  V30 30785 H 3065.35 -3.10562 3.72527 0
M  V30 30786 H 3061.23 -3.74966 2.68181 0
M  V30 30787 H 3064.77 -3.36241 6.11218 0
M  V30 30788 H 3060.67 -4.00812 5.05984 0
M  V30 30789 H 3061.44 -4.00952 7.13568 0
M  V30 30790 N 3064.1 -1.01278 -1.2075 0
M  V30 30791 C 3065.01 -0.589317 -2.27078 0
M  V30 30792 C 3066.03 0.371359 -1.69991 0
M  V30 30793 O 3067.2 0.233259 -2.00045 0
M  V30 30794 C 3064.27 0.0696106 -3.4663 0
M  V30 30795 C 3063.33 -0.936527 -4.1896 0
M  V30 30796 C 3062.56 -0.308949 -5.32805 0
M  V30 30797 O 3062.79 0.892301 -5.63377 0
M  V30 30798 O 3061.72 -1.02377 -5.93129 0
M  V30 30799 H 3065.55 -1.47443 -2.65508 0
M  V30 30800 H 3063.13 -0.782067 -1.27295 0
M  V30 30801 H 3065.01 0.437799 -4.1912 0
M  V30 30802 H 3063.69 0.928975 -3.10083 0
M  V30 30803 H 3062.59 -1.35601 -3.48659 0
M  V30 30804 H 3063.93 -1.76573 -4.59437 0
M  V30 30805 N 3065.58 1.36456 -0.788516 0
M  V30 30806 C 3066.83 1.98872 -0.359784 0
M  V30 30807 C 3067.15 1.62894 1.07194 0
M  V30 30808 O 3066.42 0.902493 1.73873 0
M  V30 30809 H 3065 0.735594 -0.130042 0
M  V30 30810 H 3067.66 1.66667 -1.01036 0
M  V30 30811 H 3066.76 3.08826 -0.45089 0
M  V30 30812 N 3067.06 0.540456 1.48043 0
M  V30 30813 C 3068.33 -0.0546958 1.95524 0
M  V30 30814 C 3068.71 -1.50248 1.48287 0
M  V30 30815 O 3068.06 -2.17056 0.714075 0
M  V30 30816 C 3068.27 0.0734007 3.48923 0
M  V30 30817 C 3069.62 -0.0805279 4.24524 0
M  V30 30818 O 3070.64 0.00011848 3.562 0
M  V30 30819 O 3069.5 -0.25112 5.45923 0
M  V30 30820 H 3066.6 -0.0734785 0.823729 0
M  V30 30821 H 3069.14 0.605796 1.58519 0
M  V30 30822 H 3067.92 1.0815 3.76057 0
M  V30 30823 H 3067.54 -0.625467 3.9265 0
M  V30 30824 N 3068.54 -1.55163 0.276085 0
M  V30 30825 C 3069.78 -1.99224 -0.339747 0
M  V30 30826 C 3070.1 -1.16592 -1.56305 0
M  V30 30827 O 3069.37 -0.255674 -1.94224 0
M  V30 30828 H 3067.95 -0.735861 -0.128521 0
M  V30 30829 H 3070.62 -1.91127 0.381646 0
M  V30 30830 H 3069.71 -3.05697 -0.628947 0
M  V30 30831 N 3070.01 -0.00338196 -1.576 0
M  V30 30832 C 3071.26 0.679967 -1.89893 0
M  V30 30833 C 3071.58 1.74749 -0.878762 0
M  V30 30834 O 3072.78 2.4857 -1.09203 0
M  V30 30835 C 3071.24 1.2606 -3.37101 0
M  V30 30836 C 3070.85 0.227728 -4.47421 0
M  V30 30837 C 3072.59 1.92195 -3.78499 0
M  V30 30838 C 3070.5 0.818547 -5.85708 0
M  V30 30839 H 3069.43 0.257733 -0.708583 0
M  V30 30840 H 3072.08 -0.0644795 -1.83387 0
M  V30 30841 H 3070.46 2.05583 -3.38455 0
M  V30 30842 H 3071.63 -0.543151 -4.57588 0
M  V30 30843 H 3069.95 -0.33337 -4.15063 0
M  V30 30844 H 3072.55 2.37309 -4.79154 0
M  V30 30845 H 3072.89 2.75394 -3.12192 0
M  V30 30846 H 3073.42 1.19401 -3.79458 0
M  V30 30847 H 3070.16 0.0252635 -6.55495 0
M  V30 30848 H 3069.68 1.55851 -5.79198 0
M  V30 30849 H 3071.36 1.31616 -6.33472 0
M  V30 30850 N 3071.49 1.5528 0.269423 0
M  V30 30851 C 3072.72 1.80084 1.01869 0
M  V30 30852 C 3073.13 0.575948 1.79801 0
M  V30 30853 O 3072.49 -0.45505 1.76736 0
M  V30 30854 C 3072.54 3.02817 1.97444 0
M  V30 30855 O 3072.26 4.20576 1.2267 0
M  V30 30856 C 3073.76 3.40252 2.84154 0
M  V30 30857 H 3070.98 0.599815 0.30077 0
M  V30 30858 H 3073.53 2.02301 0.299124 0
M  V30 30859 H 3071.68 2.82716 2.64859 0
M  V30 30860 H 3072.1 4.89986 1.87121 0
M  V30 30861 H 3073.57 4.2929 3.47007 0
M  V30 30862 H 3074.05 2.59815 3.54108 0
M  V30 30863 H 3074.65 3.62624 2.22226 0
M  V30 30864 N 3072.97 -0.534097 1.48274 0
M  V30 30865 C 3074.21 -1.30067 1.57676 0
M  V30 30866 C 3074.57 -1.90452 0.24329 0
M  V30 30867 O 3075.77 -2.6796 0.212278 0
M  V30 30868 C 3074.05 -2.364 2.68048 0
M  V30 30869 S 3075.6 -3.22838 2.97189 0
M  V30 30870 H 3072.42 -0.442491 0.556527 0
M  V30 30871 H 3075.02 -0.608927 1.85775 0
M  V30 30872 H 3073.73 -1.90511 3.63502 0
M  V30 30873 H 3073.26 -3.10287 2.41838 0
M  V30 30874 H 3075.27 -4.36392 2.36171 0
M  V30 30875 N 3074.45 -1.36793 -0.782652 0
M  V30 30876 C 3075.68 -1.34568 -1.5716 0
M  V30 30877 C 3076.09 0.0715169 -1.88664 0
M  V30 30878 O 3075.45 1.0303 -1.50635 0
M  V30 30879 C 3075.5 -2.17365 -2.8885 0
M  V30 30880 O 3075.22 -3.53561 -2.587 0
M  V30 30881 C 3076.72 -2.22997 -3.83128 0
M  V30 30882 H 3073.94 -0.461347 -0.487237 0
M  V30 30883 H 3076.48 -1.79984 -0.970873 0
M  V30 30884 H 3074.64 -1.75487 -3.45374 0
M  V30 30885 H 3075.05 -3.96841 -3.42954 0
M  V30 30886 H 3076.53 -2.85275 -4.7257 0
M  V30 30887 H 3077 -1.23531 -4.2147 0
M  V30 30888 H 3077.61 -2.65141 -3.32536 0
M  V30 30889 N 3075.93 1.00759 -1.21184 0
M  V30 30890 C 3077.17 1.74755 -1.02901 0
M  V30 30891 C 3077.51 1.89225 0.436741 0
M  V30 30892 O 3076.78 1.42468 1.32412 0
M  V30 30893 C 3077.06 3.16161 -1.72378 0
M  V30 30894 C 3076.92 3.0943 -3.26456 0
M  V30 30895 C 3078.24 4.15028 -1.46422 0
M  V30 30896 H 3075.35 0.634331 -0.375225 0
M  V30 30897 H 3078 1.17485 -1.49323 0
M  V30 30898 H 3076.15 3.65057 -1.32912 0
M  V30 30899 H 3077.82 2.68268 -3.75274 0
M  V30 30900 H 3076.06 2.46597 -3.56893 0
M  V30 30901 H 3076.73 4.09429 -3.70233 0
M  V30 30902 H 3079.21 3.74827 -1.80677 0
M  V30 30903 H 3078.08 5.12117 -1.97553 0
M  V30 30904 H 3078.35 4.40344 -0.393688 0
M  V30 30905 N 3077.4 1.01917 1.20211 0
M  V30 30906 C 3078.65 0.71104 1.89926 0
M  V30 30907 C 3078.98 -0.757638 1.78811 0
M  V30 30908 O 3078.26 -1.55071 1.17402 0
M  V30 30909 C 3078.54 1.15059 3.41223 0
M  V30 30910 C 3078.39 2.67977 3.61259 0
M  V30 30911 C 3079.71 0.723846 4.34107 0
M  V30 30912 H 3076.83 0.259781 0.689698 0
M  V30 30913 H 3079.47 1.26737 1.41555 0
M  V30 30914 H 3077.62 0.677267 3.82551 0
M  V30 30915 H 3079.3 3.23182 3.29167 0
M  V30 30916 H 3077.54 3.08829 3.04642 0
M  V30 30917 H 3078.21 2.93787 4.67326 0
M  V30 30918 H 3080.69 1.1308 4.0044 0
M  V30 30919 H 3079.56 1.0594 5.38579 0
M  V30 30920 H 3079.82 -0.374346 4.40512 0
M  V30 30921 N 3078.88 -1.36036 0.795742 0
M  V30 30922 C 3080.16 -1.93366 0.294777 0
M  V30 30923 C 3080.54 -1.72698 -1.21402 0
M  V30 30924 O 3079.89 -1.08962 -2.00847 0
M  V30 30925 C 3080.1 -3.42024 0.694314 0
M  V30 30926 C 3081.45 -4.19158 0.67764 0
M  V30 30927 O 3082.47 -3.50491 0.635181 0
M  V30 30928 O 3081.33 -5.41653 0.726222 0
M  V30 30929 H 3078.42 -0.823632 0.0745603 0
M  V30 30930 H 3080.97 -1.45178 0.878711 0
M  V30 30931 H 3079.74 -3.5075 1.73464 0
M  V30 30932 H 3079.36 -3.9751 0.0846037 0
M  V30 30933 N 3080.36 -0.5483 -1.47755 0
M  V30 30934 C 3081.61 -0.0209311 -2.02489 0
M  V30 30935 C 3081.94 1.32531 -1.42358 0
M  V30 30936 O 3081.19 1.87352 -0.565481 0
M  V30 30937 C 3081.49 0.131006 -3.5716 0
M  V30 30938 C 3081.16 -1.14321 -4.36167 0
M  V30 30939 C 3079.82 -1.49238 -4.57473 0
M  V30 30940 C 3082.17 -1.98798 -4.81797 0
M  V30 30941 C 3079.5 -2.68496 -5.21658 0
M  V30 30942 C 3081.85 -3.17252 -5.47297 0
M  V30 30943 C 3080.51 -3.52493 -5.66838 0
M  V30 30944 H 3079.78 -0.00765923 -0.74096 0
M  V30 30945 H 3082.43 -0.718018 -1.7753 0
M  V30 30946 H 3080.74 0.910996 -3.81062 0
M  V30 30947 H 3082.43 0.55426 -3.97151 0
M  V30 30948 H 3079.02 -0.861309 -4.19856 0
M  V30 30949 H 3083.21 -1.73131 -4.65123 0
M  V30 30950 H 3078.46 -2.9598 -5.34982 0
M  V30 30951 H 3082.64 -3.83004 -5.81619 0
M  V30 30952 H 3080.26 -4.44998 -6.16344 0
M  V30 30953 N 3081.84 1.55014 -0.28431 0
M  V30 30954 C 3083.08 2.01704 0.330906 0
M  V30 30955 C 3083.44 1.16835 1.5236 0
M  V30 30956 O 3084.64 1.53146 2.20907 0
M  V30 30957 C 3082.91 3.50584 0.69465 0
M  V30 30958 S 3084.47 4.19253 1.2951 0
M  V30 30959 H 3081.29 0.703579 0.102458 0
M  V30 30960 H 3083.89 1.91189 -0.40829 0
M  V30 30961 H 3082.6 4.09996 -0.182128 0
M  V30 30962 H 3082.13 3.65102 1.46507 0
M  V30 30963 H 3084.14 4.23642 2.58344 0
M  V30 30964 N 3083.32 0.0117398 1.57596 0
M  V30 30965 C 3084.26 -0.97586 2.09155 0
M  V30 30966 C 3085.23 -1.33402 0.989603 0
M  V30 30967 O 3086.42 -1.43035 1.26275 0
M  V30 30968 C 3083.56 -2.25876 2.6091 0
M  V30 30969 C 3082.67 -1.95859 3.8505 0
M  V30 30970 C 3081.81 -3.18316 4.25263 0
M  V30 30971 C 3080.85 -2.84039 5.42207 0
M  V30 30972 N 3079.98 -3.99068 5.77658 0
M  V30 30973 H 3084.82 -0.529259 2.93262 0
M  V30 30974 H 3082.36 -0.249666 1.44966 0
M  V30 30975 H 3084.32 -3.0089 2.89 0
M  V30 30976 H 3082.95 -2.68184 1.79659 0
M  V30 30977 H 3082 -1.11162 3.63796 0
M  V30 30978 H 3083.31 -1.66602 4.70154 0
M  V30 30979 H 3082.47 -4.01666 4.54697 0
M  V30 30980 H 3081.2 -3.5072 3.3889 0
M  V30 30981 H 3080.21 -1.99098 5.12484 0
M  V30 30982 H 3081.43 -2.5287 6.30265 0
M  V30 30983 H 3079.38 -4.31347 4.94242 0
M  V30 30984 H 3079.3 -3.73376 6.57363 0
M  V30 30985 H 3080.57 -4.83173 6.1169 0
M  V30 30986 N 3084.79 -1.55421 -0.261185 0
M  V30 30987 C 3085.73 -1.85538 -1.34568 0
M  V30 30988 C 3086.74 -0.740638 -1.44977 0
M  V30 30989 O 3087.93 -1.01862 -1.46583 0
M  V30 30990 C 3085.03 -2.01383 -2.72577 0
M  V30 30991 C 3084.2 -3.32136 -2.84612 0
M  V30 30992 C 3083.26 -3.379 -4.03373 0
M  V30 30993 O 3082.29 -4.11204 -3.93573 0
M  V30 30994 N 3083.49 -2.66157 -5.15888 0
M  V30 30995 H 3086.25 -2.79147 -1.09073 0
M  V30 30996 H 3083.81 -1.55483 -0.4513 0
M  V30 30997 H 3085.81 -2.02596 -3.50338 0
M  V30 30998 H 3084.38 -1.14585 -2.90842 0
M  V30 30999 H 3083.6 -3.43361 -1.93641 0
M  V30 31000 H 3084.88 -4.18346 -2.89593 0
M  V30 31001 H 3084.28 -2.06306 -5.26739 0
M  V30 31002 H 3082.84 -2.73079 -5.91837 0
M  V30 31003 N 3086.27 0.526227 -1.48555 0
M  V30 31004 C 3087.55 1.28746 -1.47254 0
M  V30 31005 C 3087.93 2.10276 -0.186281 0
M  V30 31006 O 3087.28 2.12818 0.831916 0
M  V30 31007 C 3087.49 2.1657 -2.73675 0
M  V30 31008 C 3088.84 2.76588 -3.22156 0
M  V30 31009 O 3089.86 2.26855 -2.74618 0
M  V30 31010 O 3088.72 3.67059 -4.04883 0
M  V30 31011 H 3085.81 0.581282 -0.588252 0
M  V30 31012 H 3088.36 0.542572 -1.60793 0
M  V30 31013 H 3087.13 1.56133 -3.58801 0
M  V30 31014 H 3086.75 2.98299 -2.62876 0
M  V30 31015 N 3087.75 1.37206 0.775387 0
M  V30 31016 C 3088.7 1.32756 1.90994 0
M  V30 31017 C 3089.69 0.216937 1.68005 0
M  V30 31018 O 3090.9 0.384754 1.7584 0
M  V30 31019 H 3087.27 0.413632 0.628023 0
M  V30 31020 H 3089.24 2.2854 1.91865 0
M  V30 31021 C 3087.99 1.14777 3.28209 0
M  V30 31022 H 3087.32 1.9949 3.46473 0
M  V30 31023 H 3088.76 1.15713 4.07905 0
M  V30 31024 C 3087.22 -0.146793 3.3658 0
M  V30 31025 O 3087.75 -1.13167 3.8543 0
M  V30 31026 N 3085.95 -0.196254 2.89937 0
M  V30 31027 H 3085.5 0.605851 2.50374 0
M  V30 31028 H 3085.46 -1.06206 2.95918 0
M  V30 31029 N 3089.23 -1.00115 1.21716 0
M  V30 31030 C 3090.48 -1.73605 1.03468 0
M  V30 31031 C 3090.8 -1.90149 -0.432261 0
M  V30 31032 O 3090.07 -1.45518 -1.31154 0
M  V30 31033 H 3088.65 -0.643202 0.379868 0
M  V30 31034 H 3091.31 -1.20621 1.5309 0
M  V30 31035 H 3090.41 -2.73373 1.50578 0
M  V30 31036 N 3090.71 -1.02553 -1.19669 0
M  V30 31037 C 3091.96 -0.718613 -1.88892 0
M  V30 31038 C 3092.28 0.754824 -1.79798 0
M  V30 31039 O 3091.55 1.54359 -1.20623 0
M  V30 31040 H 3090.13 -0.262818 -0.699239 0
M  V30 31041 H 3092.79 -1.29904 -1.45296 0
M  V30 31042 H 3091.88 -1.00994 -2.95308 0
M  V30 31043 N 3092.19 1.35612 -0.802945 0
M  V30 31044 C 3093.43 2.00699 -0.387199 0
M  V30 31045 C 3093.79 1.62324 1.02543 0
M  V30 31046 O 3094.99 2.20103 1.54299 0
M  V30 31047 C 3093.26 3.52972 -0.560875 0
M  V30 31048 S 3094.82 4.3817 -0.235012 0
M  V30 31049 H 3091.64 0.695589 -0.14723 0
M  V30 31050 H 3094.24 1.65265 -1.0444 0
M  V30 31051 H 3092.94 3.78389 -1.58903 0
M  V30 31052 H 3092.48 3.93241 0.111776 0
M  V30 31053 H 3094.49 4.86852 0.958629 0
M  V30 31054 N 3093.66 0.556128 1.47462 0
M  V30 31055 C 3094.63 -0.181703 2.28479 0
M  V30 31056 C 3095.63 -0.843714 1.36887 0
M  V30 31057 O 3096.82 -0.699742 1.59528 0
M  V30 31058 C 3093.95 -1.26561 3.16536 0
M  V30 31059 H 3095.14 0.529944 2.95181 0
M  V30 31060 H 3092.69 0.313032 1.53133 0
M  V30 31061 H 3093.43 -2.00969 2.54523 0
M  V30 31062 H 3093.21 -0.795731 3.83941 0
M  V30 31063 H 3094.7 -1.78386 3.77582 0
M  V30 31064 N 3095.14 -1.54861 0.292527 0
M  V30 31065 C 3096.09 -2.23202 -0.587326 0
M  V30 31066 C 3097.06 -1.21159 -1.13621 0
M  V30 31067 O 3098.24 -1.49754 -1.1823 0
M  V30 31068 C 3095.38 -2.97001 -1.75739 0
M  V30 31069 C 3094.5 -4.138 -1.24071 0
M  V30 31070 C 3093.63 -4.75201 -2.37397 0
M  V30 31071 C 3092.67 -5.84161 -1.82819 0
M  V30 31072 N 3091.81 -6.39552 -2.89685 0
M  V30 31073 H 3096.65 -2.98 0.00207445 0
M  V30 31074 H 3094.18 -1.47094 0.0127918 0
M  V30 31075 H 3096.14 -3.38015 -2.44544 0
M  V30 31076 H 3094.77 -2.24595 -2.31856 0
M  V30 31077 H 3093.82 -3.77786 -0.445201 0
M  V30 31078 H 3095.14 -4.92325 -0.801099 0
M  V30 31079 H 3094.29 -5.19025 -3.14163 0
M  V30 31080 H 3093.03 -3.9599 -2.84681 0
M  V30 31081 H 3092.03 -5.3977 -1.04539 0
M  V30 31082 H 3093.26 -6.65251 -1.36449 0
M  V30 31083 H 3091.21 -5.63228 -3.36318 0
M  V30 31084 H 3091.12 -7.134 -2.50194 0
M  V30 31085 H 3092.39 -6.88034 -3.66374 0
M  V30 31086 N 3096.62 -0.0200973 -1.57587 0
M  V30 31087 C 3097.87 0.66147 -1.91709 0
M  V30 31088 C 3098.2 1.72295 -0.895998 0
M  V30 31089 O 3097.47 1.94325 0.0825428 0
M  V30 31090 C 3097.76 1.28621 -3.36346 0
M  V30 31091 C 3097.61 0.234903 -4.49186 0
M  V30 31092 C 3098.93 2.20678 -3.80774 0
M  V30 31093 H 3096.05 0.238992 -0.697174 0
M  V30 31094 H 3098.69 -0.0755098 -1.8985 0
M  V30 31095 H 3096.84 1.91433 -3.38061 0
M  V30 31096 H 3098.51 -0.395091 -4.59605 0
M  V30 31097 H 3096.75 -0.440641 -4.31556 0
M  V30 31098 H 3097.43 0.711462 -5.47396 0
M  V30 31099 H 3099.9 1.67862 -3.80738 0
M  V30 31100 H 3098.78 2.61347 -4.82689 0
M  V30 31101 H 3099.04 3.09423 -3.15769 0
M  V30 31102 N 3098.1 1.55557 0.252939 0
M  V30 31103 C 3099.06 1.89013 1.29641 0
M  V30 31104 C 3100.06 0.766121 1.41376 0
M  V30 31105 O 3101.25 1.03416 1.40181 0
M  V30 31106 C 3098.38 2.11321 2.675 0
M  V30 31107 H 3099.58 2.8231 1.01197 0
M  V30 31108 H 3097.13 1.48356 0.491951 0
M  V30 31109 H 3097.86 1.20472 3.01093 0
M  V30 31110 H 3097.65 2.93177 2.60365 0
M  V30 31111 H 3099.14 2.38409 3.42857 0
M  V30 31112 N 3099.58 -0.518341 1.48832 0
M  V30 31113 C 3100.99 -0.847956 1.3521 0
M  V30 31114 C 3101.19 -1.98037 0.371962 0
M  V30 31115 O 3100.25 -2.51686 -0.202637 0
M  V30 31116 C 3101.56 -1.2045 2.75522 0
M  V30 31117 C 3103.11 -1.31372 2.84096 0
M  V30 31118 C 3103.58 -1.70364 4.25135 0
M  V30 31119 N 3105.07 -1.77445 4.27864 0
M  V30 31120 C 3105.81 -2.09025 5.33944 0
M  V30 31121 N 3105.31 -2.38948 6.50289 0
M  V30 31122 N 3107.1 -2.1013 5.21346 0
M  V30 31123 H 3099.25 0.228661 2.11166 0
M  V30 31124 H 3101.51 0.0396765 0.947169 0
M  V30 31125 H 3101.22 -0.44593 3.48862 0
M  V30 31126 H 3101.09 -2.15199 3.09789 0
M  V30 31127 H 3103.48 -2.06304 2.11004 0
M  V30 31128 H 3103.56 -0.347158 2.53433 0
M  V30 31129 H 3103.2 -0.959887 4.98747 0
M  V30 31130 H 3103.13 -2.6809 4.5325 0
M  V30 31131 H 3105.63 -1.56551 3.43948 0
M  V30 31132 H 3105.94 -2.62184 7.26966 0
M  V30 31133 H 3104.28 -2.36442 6.53544 0
M  V30 31134 H 3107.47 -1.86218 4.29466 0
M  V30 31135 H 3107.65 -2.34408 6.04117 0
M  V30 31136 N 3101.05 -1.37615 -0.7681 0
M  V30 31137 C 3102.29 -1.34427 -1.53976 0
M  V30 31138 C 3102.66 0.0696466 -1.91874 0
M  V30 31139 O 3103.86 0.226283 -2.67846 0
M  V30 31140 C 3102.13 -2.26039 -2.76841 0
M  V30 31141 S 3103.69 -2.40736 -3.66867 0
M  V30 31142 H 3100.51 -0.477166 -0.527099 0
M  V30 31143 H 3103.11 -1.734 -0.902915 0
M  V30 31144 H 3101.81 -3.27684 -2.47085 0
M  V30 31145 H 3101.34 -1.88163 -3.45483 0
M  V30 31146 H 3103.36 -1.62065 -4.68987 0
M  V30 31147 N 3102.53 0.994677 -1.22245 0
M  V30 31148 C 3103.76 1.77485 -1.07302 0
M  V30 31149 C 3104.18 1.84379 0.37227 0
M  V30 31150 O 3103.54 1.29496 1.26888 0
M  V30 31151 C 3103.59 3.18715 -1.6868 0
M  V30 31152 O 3102.69 4.01561 -0.939272 0
M  V30 31153 H 3102.03 0.546604 -0.376988 0
M  V30 31154 H 3104.56 1.24962 -1.62005 0
M  V30 31155 H 3104.57 3.69351 -1.73331 0
M  V30 31156 H 3103.25 3.13012 -2.73855 0
M  V30 31157 H 3101.82 3.60099 -0.968647 0
M  V30 31158 N 3104.01 1.03186 1.19123 0
M  V30 31159 C 3104.94 0.573333 2.21913 0
M  V30 31160 C 3105.95 -0.352369 1.58941 0
M  V30 31161 O 3107.14 -0.148287 1.77883 0
M  V30 31162 C 3104.24 -0.183491 3.38403 0
M  V30 31163 C 3103.42 0.747893 4.30959 0
M  V30 31164 C 3102.48 0.0359414 5.26188 0
M  V30 31165 O 3101.5 0.663487 5.6532 0
M  V30 31166 N 3102.7 -1.23377 5.67237 0
M  V30 31167 H 3105.47 1.45739 2.61878 0
M  V30 31168 H 3103.03 0.911255 1.3382 0
M  V30 31169 H 3105.02 -0.669398 3.99125 0
M  V30 31170 H 3103.59 -0.96899 2.97203 0
M  V30 31171 H 3102.81 1.41383 3.67973 0
M  V30 31172 H 3104.1 1.3808 4.89705 0
M  V30 31173 H 3103.5 -1.7643 5.37484 0
M  V30 31174 H 3102.05 -1.66412 6.30199 0
M  V30 31175 N 3105.49 -1.35184 0.810125 0
M  V30 31176 C 3106.44 -2.2974 0.220968 0
M  V30 31177 C 3107.41 -1.52981 -0.646997 0
M  V30 31178 O 3108.59 -1.81405 -0.591335 0
M  V30 31179 C 3105.73 -3.39455 -0.62161 0
M  V30 31180 C 3104.84 -4.31173 0.26718 0
M  V30 31181 C 3103.98 -5.27983 -0.58374 0
M  V30 31182 C 3103.02 -6.11338 0.30523 0
M  V30 31183 N 3102.15 -7.00275 -0.505868 0
M  V30 31184 H 3106.99 -2.79534 1.03271 0
M  V30 31185 H 3104.53 -1.37572 0.520792 0
M  V30 31186 H 3106.49 -4.01737 -1.12532 0
M  V30 31187 H 3105.12 -2.90929 -1.39858 0
M  V30 31188 H 3104.17 -3.69866 0.889015 0
M  V30 31189 H 3105.48 -4.89645 0.951268 0
M  V30 31190 H 3104.64 -5.95654 -1.15244 0
M  V30 31191 H 3103.38 -4.70016 -1.30138 0
M  V30 31192 H 3102.38 -5.42611 0.886171 0
M  V30 31193 H 3103.61 -6.71384 1.02079 0
M  V30 31194 H 3101.55 -6.44793 -1.20742 0
M  V30 31195 H 3101.47 -7.55905 0.120099 0
M  V30 31196 H 3102.74 -7.7229 -1.05773 0
M  V30 31197 N 3106.97 -0.56394 -1.47165 0
M  V30 31198 C 3108.21 -0.0423228 -2.02056 0
M  V30 31199 C 3108.54 1.31494 -1.43994 0
M  V30 31200 O 3107.81 1.8591 -0.617611 0
M  V30 31201 H 3106.39 -0.0126559 -0.746893 0
M  V30 31202 H 3109.05 -0.735473 -1.8049 0
M  V30 31203 H 3108.14 0.0407495 -3.12073 0
M  V30 31204 N 3108.44 1.54704 -0.300735 0
M  V30 31205 C 3109.67 2.04546 0.311234 0
M  V30 31206 C 3110.09 1.17803 1.47539 0
M  V30 31207 O 3109.44 0.203602 1.81361 0
M  V30 31208 C 3109.5 3.53254 0.767721 0
M  V30 31209 O 3109.22 4.36699 -0.350104 0
M  V30 31210 C 3110.72 4.19092 1.44487 0
M  V30 31211 H 3107.94 0.66758 0.0676562 0
M  V30 31212 H 3110.48 1.99704 -0.440289 0
M  V30 31213 H 3108.64 3.58457 1.46927 0
M  V30 31214 H 3109.05 5.245 0.00524818 0
M  V30 31215 H 3110.52 5.24668 1.71544 0
M  V30 31216 H 3111 3.68812 2.38484 0
M  V30 31217 H 3111.61 4.17964 0.786507 0
M  V30 31218 N 3109.92 0.0284543 1.57574 0
M  V30 31219 C 3110.87 -0.953621 2.10178 0
M  V30 31220 C 3111.84 -1.32345 1.0037 0
M  V30 31221 O 3113.02 -1.41688 1.27785 0
M  V30 31222 C 3110.16 -2.23096 2.63291 0
M  V30 31223 C 3109.28 -1.91764 3.87105 0
M  V30 31224 C 3108.41 -3.13788 4.28615 0
M  V30 31225 C 3107.45 -2.78272 5.45189 0
M  V30 31226 N 3106.59 -3.92919 5.81858 0
M  V30 31227 H 3111.43 -0.498125 2.93807 0
M  V30 31228 H 3108.97 -0.234276 1.45222 0
M  V30 31229 H 3110.92 -2.97808 2.92175 0
M  V30 31230 H 3109.55 -2.66263 1.82494 0
M  V30 31231 H 3108.61 -1.07297 3.64954 0
M  V30 31232 H 3109.92 -1.61606 4.71895 0
M  V30 31233 H 3109.07 -3.9682 4.58932 0
M  V30 31234 H 3107.81 -3.47106 3.42591 0
M  V30 31235 H 3106.82 -1.93652 5.14567 0
M  V30 31236 H 3108.04 -2.46171 6.32911 0
M  V30 31237 H 3105.99 -4.26081 4.9879 0
M  V30 31238 H 3105.9 -3.66383 6.61286 0
M  V30 31239 H 3107.17 -4.76658 6.1678 0
M  V30 31240 N 3111.4 -1.55689 -0.244686 0
M  V30 31241 C 3112.65 -1.77887 -0.973855 0
M  V30 31242 C 3112.98 -0.594104 -1.84889 0
M  V30 31243 O 3112.25 0.407531 -1.90183 0
M  V30 31244 C 3112.54 -3.09987 -1.83249 0
M  V30 31245 C 3112.39 -4.38871 -0.985494 0
M  V30 31246 C 3113.71 -3.38334 -2.81458 0
M  V30 31247 H 3110.83 -0.647171 -0.352617 0
M  V30 31248 H 3113.47 -1.88424 -0.24421 0
M  V30 31249 H 3111.62 -3.01135 -2.45459 0
M  V30 31250 H 3113.29 -4.59716 -0.381924 0
M  V30 31251 H 3111.54 -4.3283 -0.289944 0
M  V30 31252 H 3112.21 -5.27689 -1.62013 0
M  V30 31253 H 3114.68 -3.47163 -2.29384 0
M  V30 31254 H 3113.56 -4.31977 -3.38655 0
M  V30 31255 H 3113.82 -2.59355 -3.58033 0
M  V30 31256 N 3112.88 0.510441 -1.49105 0
M  V30 31257 C 3114.1 1.29414 -1.6207 0
M  V30 31258 C 3114.53 1.85875 -0.288465 0
M  V30 31259 O 3113.89 1.65392 0.742637 0
M  V30 31260 C 3113.93 2.40697 -2.6851 0
M  V30 31261 O 3113.04 3.44286 -2.27027 0
M  V30 31262 H 3112.38 0.382467 -0.542785 0
M  V30 31263 H 3114.91 0.612119 -1.95229 0
M  V30 31264 H 3114.92 2.86599 -2.90388 0
M  V30 31265 H 3113.59 1.98967 -3.65219 0
M  V30 31266 H 3112.17 3.04367 -2.15442 0
M  V30 31267 N 3114.36 1.38021 0.760791 0
M  V30 31268 C 3115.6 1.35242 1.53261 0
M  V30 31269 C 3115.96 -0.0594701 1.91908 0
M  V30 31270 O 3117.16 -0.212075 2.67962 0
M  V30 31271 C 3115.43 2.27504 2.75639 0
M  V30 31272 S 3116.99 2.42678 3.65585 0
M  V30 31273 H 3113.81 0.479955 0.524561 0
M  V30 31274 H 3116.41 1.73877 0.893706 0
M  V30 31275 H 3115.12 3.2899 2.45344 0
M  V30 31276 H 3114.65 1.89993 3.4448 0
M  V30 31277 H 3116.66 1.6455 4.68121 0
M  V30 31278 N 3115.83 -0.98818 1.22771 0
M  V30 31279 C 3117.06 -1.76914 1.08242 0
M  V30 31280 C 3117.48 -1.84574 -0.362487 0
M  V30 31281 O 3116.84 -1.30167 -1.26199 0
M  V30 31282 C 3116.89 -3.17816 1.70368 0
M  V30 31283 O 3115.99 -4.01057 0.960555 0
M  V30 31284 H 3115.34 -0.544597 0.379882 0
M  V30 31285 H 3117.87 -1.24101 1.62666 0
M  V30 31286 H 3117.88 -3.68427 1.75287 0
M  V30 31287 H 3116.55 -3.11555 2.75511 0
M  V30 31288 H 3115.13 -3.59581 0.98773 0
M  V30 31289 N 3117.31 -1.03816 -1.18575 0
M  V30 31290 C 3118.55 -0.748915 -1.90186 0
M  V30 31291 C 3118.92 0.710145 -1.78384 0
M  V30 31292 O 3120.12 1.11289 -2.4468 0
M  V30 31293 C 3118.39 -1.19907 -3.36685 0
M  V30 31294 S 3119.95 -1.03508 -4.26417 0
M  V30 31295 H 3116.77 -0.272373 -0.65676 0
M  V30 31296 H 3119.37 -1.32993 -1.43294 0
M  V30 31297 H 3118.07 -2.25641 -3.42804 0
M  V30 31298 H 3117.6 -0.611737 -3.88615 0
M  V30 31299 H 3119.62 0.0489559 -4.96176 0
M  V30 31300 N 3118.79 1.34753 -0.817283 0
M  V30 31301 C 3119.72 2.28388 -0.192736 0
M  V30 31302 C 3120.74 1.50772 0.61414 0
M  V30 31303 O 3121.92 1.72871 0.444746 0
M  V30 31304 C 3119.02 3.30523 0.748871 0
M  V30 31305 C 3118.2 4.37398 -0.0139531 0
M  V30 31306 C 3117.26 5.19326 0.847734 0
M  V30 31307 O 3116.28 5.68436 0.294771 0
M  V30 31308 N 3117.48 5.38483 2.16833 0
M  V30 31309 H 3120.25 2.82624 -0.997172 0
M  V30 31310 H 3117.81 1.47216 -0.673722 0
M  V30 31311 H 3119.8 3.82228 1.3298 0
M  V30 31312 H 3118.37 2.76723 1.45408 0
M  V30 31313 H 3117.59 3.86483 -0.77616 0
M  V30 31314 H 3118.88 5.05934 -0.53928 0
M  V30 31315 H 3118.28 5.00247 2.64139 0
M  V30 31316 H 3116.84 5.93328 2.69825 0
M  V30 31317 N 3120.27 0.571737 1.46864 0
M  V30 31318 C 3121.22 -0.167767 2.30189 0
M  V30 31319 C 3122.19 -0.894585 1.39951 0
M  V30 31320 O 3123.37 -0.887421 1.68907 0
M  V30 31321 C 3120.51 -1.18254 3.24207 0
M  V30 31322 C 3119.62 -0.4603 4.29541 0
M  V30 31323 C 3118.76 -1.46164 5.10695 0
M  V30 31324 C 3117.8 -0.725184 6.07789 0
M  V30 31325 N 3116.94 -1.67405 6.8185 0
M  V30 31326 H 3121.78 0.548882 2.92901 0
M  V30 31327 H 3119.31 0.282499 1.44362 0
M  V30 31328 H 3121.27 -1.78364 3.7715 0
M  V30 31329 H 3119.9 -1.86704 2.63327 0
M  V30 31330 H 3118.95 0.255612 3.7954 0
M  V30 31331 H 3120.26 0.115942 4.98665 0
M  V30 31332 H 3119.42 -2.13585 5.67861 0
M  V30 31333 H 3118.16 -2.07181 4.41506 0
M  V30 31334 H 3117.16 -0.0371314 5.49787 0
M  V30 31335 H 3118.39 -0.120559 6.78993 0
M  V30 31336 H 3116.33 -2.27252 6.1538 0
M  V30 31337 H 3116.25 -1.15033 7.47197 0
M  V30 31338 H 3117.52 -2.33895 7.43581 0
M  V30 31339 N 3121.75 -1.54542 0.308935 0
M  V30 31340 C 3123 -1.999 -0.297412 0
M  V30 31341 C 3123.32 -1.19881 -1.53797 0
M  V30 31342 O 3122.59 -0.296814 -1.93638 0
M  V30 31343 H 3121.17 -0.738421 -0.112884 0
M  V30 31344 H 3123.83 -1.90274 0.422101 0
M  V30 31345 H 3122.92 -3.06962 -0.563962 0
M  V30 31346 N 3123.23 -0.0368104 -1.57557 0
M  V30 31347 C 3124.46 0.64919 -1.96135 0
M  V30 31348 C 3124.86 1.65752 -0.912308 0
M  V30 31349 O 3124.21 1.83349 0.113536 0
M  V30 31350 C 3124.27 1.40539 -3.30891 0
M  V30 31351 C 3123.93 0.55453 -4.53623 0
M  V30 31352 C 3124.93 -0.173401 -5.19611 0
M  V30 31353 C 3122.61 0.489672 -4.99907 0
M  V30 31354 C 3124.61 -0.954781 -6.30208 0
M  V30 31355 C 3122.3 -0.295407 -6.10386 0
M  V30 31356 C 3123.29 -1.01633 -6.75396 0
M  V30 31357 O 3122.98 -1.78853 -7.83752 0
M  V30 31358 H 3122.71 0.183332 -0.650665 0
M  V30 31359 H 3125.27 -0.0951873 -2.05179 0
M  V30 31360 H 3123.5 2.19508 -3.1836 0
M  V30 31361 H 3125.19 1.98024 -3.54318 0
M  V30 31362 H 3125.95 -0.132675 -4.84818 0
M  V30 31363 H 3121.83 1.04038 -4.49107 0
M  V30 31364 H 3125.38 -1.51801 -6.80884 0
M  V30 31365 H 3121.27 -0.337823 -6.44615 0
M  V30 31366 H 3122.04 -1.70912 -8.00457 0
M  V30 31367 N 3124.7 1.55817 0.236426 0
M  V30 31368 C 3125.65 1.9119 1.29286 0
M  V30 31369 C 3126.62 0.767327 1.47314 0
M  V30 31370 O 3127.81 1.02191 1.61126 0
M  V30 31371 C 3124.95 2.22111 2.64122 0
M  V30 31372 C 3124.06 3.49428 2.54016 0
M  V30 31373 C 3123.19 3.69868 3.81276 0
M  V30 31374 C 3122.23 4.90749 3.6583 0
M  V30 31375 N 3121.37 5.07655 4.85005 0
M  V30 31376 H 3126.21 2.81279 0.984191 0
M  V30 31377 H 3123.75 1.3923 0.474697 0
M  V30 31378 H 3125.7 2.38046 3.42622 0
M  V30 31379 H 3124.33 1.35214 2.93116 0
M  V30 31380 H 3123.39 3.41768 1.6703 0
M  V30 31381 H 3124.7 4.38076 2.38518 0
M  V30 31382 H 3123.85 3.85818 4.68219 0
M  V30 31383 H 3122.59 2.79472 3.99683 0
M  V30 31384 H 3121.6 4.74764 2.77271 0
M  V30 31385 H 3122.82 5.82615 3.48908 0
M  V30 31386 H 3120.77 4.20199 5.03754 0
M  V30 31387 H 3120.68 5.90411 4.72177 0
M  V30 31388 H 3121.95 5.28027 5.73417 0
M  V30 31389 N 3126.18 -0.502526 1.49373 0
M  V30 31390 C 3127.43 -1.25427 1.5847 0
M  V30 31391 C 3127.75 -1.93085 0.272626 0
M  V30 31392 O 3127.02 -1.82662 -0.707915 0
M  V30 31393 H 3125.6 -0.46594 0.583874 0
M  V30 31394 H 3128.26 -0.582535 1.85991 0
M  V30 31395 H 3127.36 -2.01901 2.37996 0
M  V30 31396 N 3127.66 -1.38422 -0.75346 0
M  V30 31397 C 3128.94 -1.25158 -1.50316 0
M  V30 31398 C 3129.32 0.146966 -2.10588 0
M  V30 31399 O 3128.66 1.15648 -1.97073 0
M  V30 31400 C 3128.87 -2.36182 -2.56942 0
M  V30 31401 C 3130.22 -2.74613 -3.23841 0
M  V30 31402 O 3131.25 -2.35495 -2.67247 0
M  V30 31403 O 3130.11 -3.42071 -4.26204 0
M  V30 31404 H 3127.2 -0.489441 -0.666615 0
M  V30 31405 H 3129.75 -1.5025 -0.788861 0
M  V30 31406 H 3128.52 -3.29758 -2.10654 0
M  V30 31407 H 3128.14 -2.12654 -3.35952 0
M  V30 31408 N 3129.14 0.981655 -1.23294 0
M  V30 31409 C 3130.39 1.71937 -1.06217 0
M  V30 31410 C 3130.71 1.90812 0.401955 0
M  V30 31411 O 3129.98 1.47586 1.28822 0
M  V30 31412 H 3128.56 0.637078 -0.390053 0
M  V30 31413 H 3131.22 1.1817 -1.5499 0
M  V30 31414 H 3130.31 2.70942 -1.54909 0
M  V30 31415 N 3130.62 1.04444 1.18022 0
M  V30 31416 C 3131.57 0.609108 2.19713 0
M  V30 31417 C 3132.55 -0.350445 1.57037 0
M  V30 31418 O 3133.74 -0.168889 1.76192 0
M  V30 31419 C 3130.87 -0.0225308 3.43293 0
M  V30 31420 C 3129.96 0.960397 4.13083 0
M  V30 31421 N 3130.35 2.12891 4.58815 0
M  V30 31422 C 3128.65 0.787223 4.38997 0
M  V30 31423 C 3129.35 2.75013 5.12584 0
M  V30 31424 N 3128.32 2.02862 5.04329 0
M  V30 31425 H 3132.12 1.49953 2.52767 0
M  V30 31426 H 3129.64 0.913541 1.34269 0
M  V30 31427 H 3131.64 -0.352123 4.1541 0
M  V30 31428 H 3130.3 -0.90844 3.11733 0
M  V30 31429 H 3131.31 2.50762 4.53143 0
M  V30 31430 H 3127.98 -0.0482747 4.17472 0
M  V30 31431 H 3129.37 3.74063 5.58146 0
M  V30 31432 N 3132.09 -1.34317 0.824418 0
M  V30 31433 C 3133.32 -2.02994 0.42523 0
M  V30 31434 C 3133.74 -1.61672 -0.961448 0
M  V30 31435 O 3133.1 -0.802098 -1.62592 0
M  V30 31436 C 3133.15 -3.56578 0.537067 0
M  V30 31437 O 3132.25 -4.10019 -0.442504 0
M  V30 31438 H 3131.59 -0.640561 0.174864 0
M  V30 31439 H 3134.12 -1.71532 1.11525 0
M  V30 31440 H 3134.13 -4.059 0.413382 0
M  V30 31441 H 3132.81 -3.86001 1.54842 0
M  V30 31442 H 3131.39 -3.71865 -0.277579 0
M  V30 31443 N 3133.57 -0.579517 -1.46558 0
M  V30 31444 C 3134.81 -0.0665196 -2.04292 0
M  V30 31445 C 3135.18 1.26811 -1.44163 0
M  V30 31446 O 3136.38 1.87015 -1.93077 0
M  V30 31447 C 3134.65 0.00160972 -3.574 0
M  V30 31448 S 3136.21 0.457495 -4.36409 0
M  V30 31449 H 3133.02 -0.0359255 -0.710092 0
M  V30 31450 H 3135.63 -0.771294 -1.79642 0
M  V30 31451 H 3134.33 -0.973736 -3.98681 0
M  V30 31452 H 3133.86 0.729253 -3.86582 0
M  V30 31453 H 3135.88 1.71288 -4.65698 0
M  V30 31454 N 3135.05 1.54376 -0.317127 0
M  V30 31455 C 3136.28 2.04864 0.289522 0
M  V30 31456 C 3136.69 1.19361 1.46282 0
M  V30 31457 O 3136.05 0.222827 1.81135 0
M  V30 31458 C 3136.1 3.54048 0.73021 0
M  V30 31459 O 3135.82 4.36303 -0.396402 0
M  V30 31460 C 3137.32 4.20601 1.40034 0
M  V30 31461 H 3134.54 0.66826 0.0605719 0
M  V30 31462 H 3137.09 1.99226 -0.461446 0
M  V30 31463 H 3135.24 3.59995 1.43117 0
M  V30 31464 H 3135.66 5.24476 -0.0503823 0
M  V30 31465 H 3137.13 5.26458 1.65969 0
M  V30 31466 H 3137.61 3.7132 2.34559 0
M  V30 31467 H 3138.21 4.18775 0.742132 0
M  V30 31468 N 3136.53 0.0451655 1.57535 0
M  V30 31469 C 3137.44 -0.946609 2.14654 0
M  V30 31470 C 3138.45 -1.34588 1.10282 0
M  V30 31471 O 3139.63 -1.42403 1.4242 0
M  V30 31472 C 3136.7 -2.2051 2.67537 0
M  V30 31473 C 3135.76 -1.86475 3.86686 0
M  V30 31474 C 3134.99 -3.06324 4.37037 0
M  V30 31475 O 3135.21 -4.19503 3.86488 0
M  V30 31476 O 3134.15 -2.87688 5.28696 0
M  V30 31477 H 3137.97 -0.490857 2.99707 0
M  V30 31478 H 3135.56 -0.176384 1.48355 0
M  V30 31479 H 3137.44 -2.9436 3.01547 0
M  V30 31480 H 3136.11 -2.65235 1.85559 0
M  V30 31481 H 3135.02 -1.0996 3.57575 0
M  V30 31482 H 3136.35 -1.46554 4.69875 0
M  V30 31483 N 3138.01 -1.5594 -0.228159 0
M  V30 31484 C 3139.26 -1.77845 -0.951532 0
M  V30 31485 C 3139.57 -0.612534 -1.85762 0
M  V30 31486 O 3140.77 -0.715052 -2.61915 0
M  V30 31487 C 3139.23 -3.14926 -1.74211 0
M  V30 31488 C 3138.84 -4.39222 -0.882492 0
M  V30 31489 C 3140.58 -3.46161 -2.45709 0
M  V30 31490 C 3138.49 -5.6733 -1.67004 0
M  V30 31491 H 3137.42 -0.663037 -0.359024 0
M  V30 31492 H 3140.07 -1.82345 -0.205604 0
M  V30 31493 H 3138.45 -3.04585 -2.5307 0
M  V30 31494 H 3139.63 -4.60602 -0.134909 0
M  V30 31495 H 3137.94 -4.15458 -0.279949 0
M  V30 31496 H 3140.54 -4.39097 -3.0512 0
M  V30 31497 H 3140.88 -2.68352 -3.18266 0
M  V30 31498 H 3141.41 -3.57802 -1.73846 0
M  V30 31499 H 3138.15 -6.48013 -0.987872 0
M  V30 31500 H 3137.67 -5.50022 -2.39241 0
M  V30 31501 H 3139.35 -6.07266 -2.23241 0
M  V30 31502 N 3139.48 0.494597 -1.49638 0
M  V30 31503 C 3140.76 1.25593 -1.49952 0
M  V30 31504 C 3141.14 2.09834 -0.230842 0
M  V30 31505 O 3140.49 2.14534 0.786587 0
M  V30 31506 C 3140.7 2.10717 -2.78208 0
M  V30 31507 C 3142.05 2.69692 -3.2795 0
M  V30 31508 O 3143.07 2.20979 -2.79369 0
M  V30 31509 O 3141.93 3.58388 -4.12578 0
M  V30 31510 H 3139.02 0.568673 -0.60045 0
M  V30 31511 H 3141.57 0.508343 -1.61907 0
M  V30 31512 H 3140.34 1.48487 -3.62032 0
M  V30 31513 H 3139.97 2.92656 -2.69144 0
M  V30 31514 N 3140.96 1.3882 0.746109 0
M  V30 31515 C 3142.37 1.31651 1.32382 0
M  V30 31516 C 3142.72 -0.0242741 1.96185 0
M  V30 31517 O 3141.85 -0.926375 1.95569 0
M  V30 31518 C 3142.44 2.38422 2.40708 0
M  V30 31519 C 3141 2.34808 2.94181 0
M  V30 31520 C 3140.15 2.20893 1.67635 0
M  V30 31521 H 3143.1 1.49069 0.54443 0
M  V30 31522 H 3143.12 2.04569 3.2083 0
M  V30 31523 H 3142.63 3.35994 1.94242 0
M  V30 31524 H 3140.74 1.4084 3.44956 0
M  V30 31525 H 3140.85 3.29237 3.48051 0
M  V30 31526 H 3139.21 1.67874 1.91547 0
M  V30 31527 H 3140 3.20418 1.23236 0
M  V30 31528 N 3142.44 -0.975103 1.23812 0
M  V30 31529 C 3143.68 -1.73213 1.0852 0
M  V30 31530 C 3144.04 -1.88387 -0.370743 0
M  V30 31531 O 3145.25 -2.60947 -0.64499 0
M  V30 31532 C 3143.52 -3.08965 1.79654 0
M  V30 31533 S 3145.08 -4.00182 1.8 0
M  V30 31534 H 3141.89 -0.595626 0.388267 0
M  V30 31535 H 3144.5 -1.16456 1.5703 0
M  V30 31536 H 3143.2 -2.95576 2.84715 0
M  V30 31537 H 3142.73 -3.7079 1.31447 0
M  V30 31538 H 3144.75 -4.88649 0.86238 0
M  V30 31539 N 3143.92 -1.05068 -1.17467 0
M  V30 31540 C 3144.88 -0.654832 -2.19647 0
M  V30 31541 C 3145.88 0.293035 -1.58107 0
M  V30 31542 O 3147.07 0.0770754 -1.74029 0
M  V30 31543 C 3144.2 0.0383838 -3.40878 0
M  V30 31544 H 3145.4 -1.5592 -2.56182 0
M  V30 31545 H 3142.95 -0.844419 -1.31527 0
M  V30 31546 H 3143.68 0.956078 -3.09886 0
M  V30 31547 H 3143.47 -0.643029 -3.86791 0
M  V30 31548 H 3144.96 0.301494 -4.1651 0
M  V30 31549 N 3145.4 1.33878 -0.831529 0
M  V30 31550 C 3146.67 1.92517 -0.345941 0
M  V30 31551 C 3147.05 1.75856 1.16781 0
M  V30 31552 O 3146.4 1.14249 1.97887 0
M  V30 31553 C 3146.61 3.40063 -0.784752 0
M  V30 31554 C 3147.96 4.17214 -0.788534 0
M  V30 31555 O 3148.98 3.48684 -0.727884 0
M  V30 31556 O 3147.84 5.39537 -0.869576 0
M  V30 31557 H 3144.94 0.821366 -0.0963713 0
M  V30 31558 H 3147.48 1.42798 -0.916893 0
M  V30 31559 H 3146.25 3.46028 -1.82703 0
M  V30 31560 H 3145.88 3.97146 -0.189967 0
M  V30 31561 N 3146.87 0.587281 1.46249 0
M  V30 31562 C 3148.12 0.0744628 2.01963 0
M  V30 31563 C 3148.44 -1.29187 1.46068 0
M  V30 31564 O 3147.71 -1.84904 0.647109 0
M  V30 31565 H 3146.29 0.0245367 0.746597 0
M  V30 31566 H 3148.96 0.764095 1.79298 0
M  V30 31567 H 3148.05 0.00890379 3.12099 0
M  V30 31568 N 3148.35 -1.54206 0.325309 0
M  V30 31569 C 3149.28 -2.27346 -0.532534 0
M  V30 31570 C 3150.26 -1.28208 -1.11789 0
M  V30 31571 O 3151.45 -1.57023 -1.14269 0
M  V30 31572 C 3148.58 -3.03258 -1.69268 0
M  V30 31573 C 3147.53 -4.09748 -1.23655 0
M  V30 31574 C 3146.86 -4.73511 -2.48378 0
M  V30 31575 C 3148.16 -5.21125 -0.350152 0
M  V30 31576 H 3149.85 -2.993 0.0775635 0
M  V30 31577 H 3147.4 -1.43948 0.0387446 0
M  V30 31578 H 3149.35 -3.53156 -2.29911 0
M  V30 31579 H 3148.08 -2.28925 -2.3294 0
M  V30 31580 H 3146.73 -3.60737 -0.653043 0
M  V30 31581 H 3146.38 -3.95791 -3.10417 0
M  V30 31582 H 3146.08 -5.45445 -2.18548 0
M  V30 31583 H 3147.61 -5.26183 -3.09779 0
M  V30 31584 H 3149.02 -5.66769 -0.862912 0
M  V30 31585 H 3147.42 -5.99926 -0.144555 0
M  V30 31586 H 3148.49 -4.80939 0.618542 0
M  V30 31587 N 3149.83 -0.0535194 -1.57509 0
M  V30 31588 C 3150.78 0.937893 -2.12853 0
M  V30 31589 C 3151.77 1.32065 -1.0609 0
M  V30 31590 O 3152.98 1.30003 -1.24496 0
M  V30 31591 H 3149.35 0.32033 -0.680362 0
M  V30 31592 H 3151.33 0.446025 -2.95048 0
M  V30 31593 C 3150.07 2.20259 -2.69038 0
M  V30 31594 H 3149.4 1.91686 -3.50851 0
M  V30 31595 H 3150.84 2.87782 -3.1138 0
M  V30 31596 C 3149.3 2.94885 -1.62925 0
M  V30 31597 O 3149.83 3.87912 -1.04341 0
M  V30 31598 N 3148.03 2.57658 -1.34389 0
M  V30 31599 H 3147.58 1.82084 -1.82217 0
M  V30 31600 H 3147.54 3.07896 -0.636203 0
M  V30 31601 N 3151.31 1.56059 0.219886 0
M  V30 31602 C 3152.56 1.78795 0.942168 0
M  V30 31603 C 3152.88 0.622316 1.84803 0
M  V30 31604 O 3152.15 -0.360701 1.92551 0
M  V30 31605 H 3150.73 0.659462 0.350884 0
M  V30 31606 H 3153.39 1.93522 0.231342 0
M  V30 31607 H 3152.49 2.71005 1.54799 0
M  V30 31608 N 3152.79 -0.486655 1.49898 0
M  V30 31609 C 3154.04 -1.23739 1.59791 0
M  V30 31610 C 3154.36 -1.92785 0.29309 0
M  V30 31611 O 3153.63 -1.83402 -0.688502 0
M  V30 31612 H 3152.21 -0.459721 0.588783 0
M  V30 31613 H 3154.87 -0.562775 1.86598 0
M  V30 31614 H 3153.96 -1.99366 2.40124 0
M  V30 31615 N 3154.27 -1.39214 -0.738737 0
M  V30 31616 C 3155.51 -1.37663 -1.5109 0
M  V30 31617 C 3155.87 0.0289317 -1.91978 0
M  V30 31618 O 3157.07 0.169418 -2.68266 0
M  V30 31619 C 3155.34 -2.31861 -2.71984 0
M  V30 31620 S 3156.9 -2.48464 -3.61678 0
M  V30 31621 H 3153.72 -0.488239 -0.516859 0
M  V30 31622 H 3156.32 -1.75277 -0.865931 0
M  V30 31623 H 3155.02 -3.32852 -2.40079 0
M  V30 31624 H 3154.56 -1.95449 -3.41414 0
M  V30 31625 H 3156.57 -1.71977 -4.65444 0
M  V30 31626 N 3155.74 0.968523 -1.24328 0
M  V30 31627 C 3156.69 2.04805 -1.00195 0
M  V30 31628 C 3157.68 1.60801 0.0563242 0
M  V30 31629 O 3158.87 1.763 -0.157299 0
M  V30 31630 C 3156 3.37877 -0.607809 0
M  V30 31631 C 3155.08 3.88444 -1.70211 0
M  V30 31632 N 3155.48 4.11957 -2.9347 0
M  V30 31633 C 3153.77 4.17097 -1.57943 0
M  V30 31634 C 3154.47 4.53414 -3.64404 0
M  V30 31635 N 3153.45 4.58539 -2.91964 0
M  V30 31636 H 3157.25 2.20958 -1.9379 0
M  V30 31637 H 3154.77 1.15225 -1.14442 0
M  V30 31638 H 3156.76 4.14818 -0.416152 0
M  V30 31639 H 3155.42 3.2311 0.32097 0
M  V30 31640 H 3156.43 3.99433 -3.29657 0
M  V30 31641 H 3153.11 4.11269 -0.718625 0
M  V30 31642 H 3154.5 4.80026 -4.70133 0
M  V30 31643 N 3157.22 1.0569 1.16908 0
M  V30 31644 C 3158.13 0.673189 2.24734 0
M  V30 31645 C 3159.15 -0.308013 1.71252 0
M  V30 31646 O 3160.32 -0.158853 2.00773 0
M  V30 31647 C 3157.39 0.0590869 3.4665 0
M  V30 31648 C 3156.45 1.09138 4.15196 0
M  V30 31649 C 3155.68 0.506484 5.31291 0
M  V30 31650 O 3155.91 -0.682592 5.66301 0
M  V30 31651 O 3154.84 1.2432 5.88921 0
M  V30 31652 H 3158.67 1.57195 2.59853 0
M  V30 31653 H 3156.25 0.828773 1.24305 0
M  V30 31654 H 3158.13 -0.281944 4.20456 0
M  V30 31655 H 3156.81 -0.813249 3.13318 0
M  V30 31656 H 3155.71 1.48448 3.43386 0
M  V30 31657 H 3157.05 1.93503 4.52567 0
M  V30 31658 N 3158.7 -1.33435 0.838617 0
M  V30 31659 C 3159.65 -2.26694 0.243721 0
M  V30 31660 C 3160.63 -1.49248 -0.601142 0
M  V30 31661 O 3161.83 -1.71101 -0.453151 0
M  V30 31662 C 3158.95 -3.38357 -0.580465 0
M  V30 31663 C 3158.04 -4.23202 0.275893 0
M  V30 31664 N 3158.43 -4.87327 1.35449 0
M  V30 31665 C 3156.73 -4.45956 0.0628831 0
M  V30 31666 C 3157.43 -5.50482 1.88 0
M  V30 31667 N 3156.41 -5.30604 1.18152 0
M  V30 31668 H 3160.21 -2.73787 1.06854 0
M  V30 31669 H 3157.72 -1.47337 0.683044 0
M  V30 31670 H 3159.72 -4.04155 -1.02294 0
M  V30 31671 H 3158.38 -2.92812 -1.40326 0
M  V30 31672 H 3159.39 -4.87889 1.73738 0
M  V30 31673 H 3156.07 -4.11131 -0.726491 0
M  V30 31674 H 3157.46 -6.11544 2.78323 0
M  V30 31675 N 3160.18 -0.595029 -1.45935 0
M  V30 31676 C 3161.14 0.121062 -2.2888 0
M  V30 31677 C 3162.14 0.807124 -1.39076 0
M  V30 31678 O 3163.33 0.6572 -1.61327 0
M  V30 31679 C 3160.46 1.18124 -3.1978 0
M  V30 31680 H 3161.66 -0.60802 -2.93672 0
M  V30 31681 H 3159.21 -0.353522 -1.5225 0
M  V30 31682 H 3159.94 1.9415 -2.59762 0
M  V30 31683 H 3159.73 0.693656 -3.85916 0
M  V30 31684 H 3161.22 1.68312 -3.82179 0
M  V30 31685 N 3161.66 1.54031 -0.333483 0
M  V30 31686 C 3162.88 2.0516 0.267777 0
M  V30 31687 C 3163.3 1.20906 1.45007 0
M  V30 31688 O 3162.66 0.242026 1.80888 0
M  V30 31689 C 3162.71 3.54803 0.692618 0
M  V30 31690 O 3162.43 4.35858 -0.442655 0
M  V30 31691 C 3163.93 4.22063 1.35565 0
M  V30 31692 H 3161.15 0.668865 0.0534807 0
M  V30 31693 H 3163.69 1.98725 -0.48255 0
M  V30 31694 H 3161.85 3.61493 1.3929 0
M  V30 31695 H 3162.26 5.24393 -0.106007 0
M  V30 31696 H 3163.74 5.28189 1.60376 0
M  V30 31697 H 3164.21 3.73787 2.30607 0
M  V30 31698 H 3164.82 4.19539 0.697674 0
M  V30 31699 N 3163.13 0.0618717 1.57479 0
M  V30 31700 C 3164.37 -0.613275 1.94983 0
M  V30 31701 C 3164.74 -1.67373 0.940759 0
M  V30 31702 O 3165.94 -2.40372 1.20311 0
M  V30 31703 C 3164.21 -1.18424 3.3721 0
M  V30 31704 S 3165.77 -1.87589 3.96681 0
M  V30 31705 H 3162.59 -0.201084 0.681972 0
M  V30 31706 H 3165.19 0.133362 1.95045 0
M  V30 31707 H 3163.89 -0.400451 4.08442 0
M  V30 31708 H 3163.42 -1.96745 3.40668 0
M  V30 31709 H 3165.44 -3.15747 3.82777 0
M  V30 31710 N 3164.61 -1.56173 -0.211607 0
M  V30 31711 C 3165.56 -1.93223 -1.26228 0
M  V30 31712 C 3166.53 -0.790666 -1.46074 0
M  V30 31713 O 3167.71 -1.04742 -1.5948 0
M  V30 31714 C 3164.85 -2.26285 -2.60555 0
M  V30 31715 C 3163.97 -3.53425 -2.48425 0
M  V30 31716 C 3163.1 -3.75887 -3.75343 0
M  V30 31717 C 3162.14 -4.96507 -3.57977 0
M  V30 31718 N 3161.28 -5.15307 -4.76868 0
M  V30 31719 H 3166.12 -2.82809 -0.939317 0
M  V30 31720 H 3163.66 -1.39968 -0.452487 0
M  V30 31721 H 3165.61 -2.43467 -3.38792 0
M  V30 31722 H 3164.24 -1.39861 -2.90928 0
M  V30 31723 H 3163.3 -3.44382 -1.61571 0
M  V30 31724 H 3164.61 -4.41815 -2.31518 0
M  V30 31725 H 3163.76 -3.93218 -4.62022 0
M  V30 31726 H 3162.5 -2.85795 -3.95186 0
M  V30 31727 H 3161.51 -4.79115 -2.69682 0
M  V30 31728 H 3162.73 -5.88092 -3.39595 0
M  V30 31729 H 3160.68 -4.28161 -4.97006 0
M  V30 31730 H 3160.59 -5.97848 -4.62725 0
M  V30 31731 H 3161.86 -5.37083 -5.64944 0
M  V30 31732 N 3166.09 0.478699 -1.50154 0
M  V30 31733 C 3167.02 1.59613 -1.63092 0
M  V30 31734 C 3168 1.55377 -0.479238 0
M  V30 31735 O 3169.19 1.75111 -0.697746 0
M  V30 31736 C 3166.31 2.98178 -1.60648 0
M  V30 31737 C 3165.36 3.20595 -2.81285 0
M  V30 31738 S 3166.19 3.01313 -4.42686 0
M  V30 31739 C 3167.35 4.42233 -4.42923 0
M  V30 31740 H 3167.58 1.48398 -2.57615 0
M  V30 31741 H 3165.11 0.665489 -1.39322 0
M  V30 31742 H 3167.07 3.78067 -1.59923 0
M  V30 31743 H 3165.73 3.06789 -0.673738 0
M  V30 31744 H 3164.93 4.21804 -2.75857 0
M  V30 31745 H 3164.53 2.48465 -2.79537 0
M  V30 31746 H 3166.82 5.3473 -4.16017 0
M  V30 31747 H 3167.76 4.52705 -5.44485 0
M  V30 31748 H 3168.17 4.23956 -3.72722 0
M  V30 31749 N 3167.57 1.39603 0.731343 0
M  V30 31750 C 3168.8 1.40308 1.52057 0
M  V30 31751 C 3169.21 -0.00144602 1.888 0
M  V30 31752 O 3168.57 -0.973688 1.54355 0
M  V30 31753 C 3168.62 2.27936 2.80584 0
M  V30 31754 O 3168.34 3.62919 2.454 0
M  V30 31755 C 3169.84 2.37063 3.74588 0
M  V30 31756 H 3167.06 0.479112 0.469779 0
M  V30 31757 H 3169.61 1.83464 0.903404 0
M  V30 31758 H 3167.76 1.88184 3.38623 0
M  V30 31759 H 3168.17 4.09296 3.27989 0
M  V30 31760 H 3169.65 3.02617 4.61657 0
M  V30 31761 H 3170.13 1.39089 4.16594 0
M  V30 31762 H 3170.73 2.773 3.22466 0
M  V30 31763 N 3169.05 -0.961916 1.2484 0
M  V30 31764 C 3170.29 -1.70226 1.08939 0
M  V30 31765 C 3170.62 -1.91428 -0.371548 0
M  V30 31766 O 3169.89 -1.49617 -1.26458 0
M  V30 31767 H 3168.47 -0.630792 0.400139 0
M  V30 31768 H 3171.13 -1.1569 1.5685 0
M  V30 31769 H 3170.22 -2.68444 1.59199 0
M  V30 31770 N 3170.52 -1.06308 -1.16346 0
M  V30 31771 C 3171.94 -0.804249 -1.6849 0
M  V30 31772 C 3172.29 0.672126 -1.84328 0
M  V30 31773 O 3171.41 1.52136 -1.53894 0
M  V30 31774 C 3172.01 -1.45333 -3.06045 0
M  V30 31775 C 3170.57 -1.24227 -3.55309 0
M  V30 31776 C 3169.71 -1.52974 -2.31288 0
M  V30 31777 H 3172.66 -1.22654 -1.00706 0
M  V30 31778 H 3172.68 -0.868739 -3.7045 0
M  V30 31779 H 3172.2 -2.52784 -2.94485 0
M  V30 31780 H 3170.3 -0.187513 -3.72128 0
M  V30 31781 H 3170.41 -1.9551 -4.37393 0
M  V30 31782 H 3168.77 -0.950283 -2.36309 0
M  V30 31783 H 3169.56 -2.61584 -2.22326 0
M  V30 31784 N 3172 1.32989 -0.845682 0
M  V30 31785 C 3173.25 1.97167 -0.443809 0
M  V30 31786 C 3173.57 1.67294 1.00189 0
M  V30 31787 O 3172.84 0.975427 1.69889 0
M  V30 31788 H 3171.42 0.729416 -0.161124 0
M  V30 31789 H 3174.08 1.62231 -1.08014 0
M  V30 31790 H 3173.18 3.06636 -0.581467 0
M  V30 31791 N 3173.48 0.60276 1.45618 0
M  V30 31792 C 3174.43 -0.118903 2.30494 0
M  V30 31793 C 3175.4 -0.864698 1.41817 0
M  V30 31794 O 3176.58 -0.851394 1.70751 0
M  V30 31795 C 3173.72 -1.11351 3.26642 0
M  V30 31796 C 3172.84 -0.369085 4.3042 0
M  V30 31797 C 3171.97 -1.35298 5.13681 0
M  V30 31798 C 3171.01 -0.5961 6.0919 0
M  V30 31799 N 3170.15 -1.52904 6.85248 0
M  V30 31800 H 3174.99 0.610887 2.91671 0
M  V30 31801 H 3172.52 0.313057 1.4373 0
M  V30 31802 H 3174.48 -1.70324 3.80849 0
M  V30 31803 H 3173.11 -1.81077 2.67228 0
M  V30 31804 H 3172.16 0.336061 3.78913 0
M  V30 31805 H 3173.48 0.22169 4.98307 0
M  V30 31806 H 3172.63 -2.01492 5.72264 0
M  V30 31807 H 3171.37 -1.97769 4.45801 0
M  V30 31808 H 3170.37 0.079495 5.49743 0
M  V30 31809 H 3171.6 0.0234928 6.79096 0
M  V30 31810 H 3169.54 -2.14148 6.20062 0
M  V30 31811 H 3169.46 -0.991582 7.49469 0
M  V30 31812 H 3170.73 -2.1807 7.48375 0
M  V30 31813 N 3174.96 -1.53852 0.341647 0
M  V30 31814 C 3175.91 -2.21708 -0.531956 0
M  V30 31815 C 3176.89 -1.20382 -1.06757 0
M  V30 31816 O 3178.08 -1.45936 -1.00158 0
M  V30 31817 C 3175.21 -2.99196 -1.68335 0
M  V30 31818 C 3174.3 -4.07877 -1.16177 0
M  V30 31819 N 3174.69 -5.04508 -0.36126 0
M  V30 31820 C 3172.99 -4.22153 -1.43883 0
M  V30 31821 C 3173.69 -5.81647 -0.0784356 0
M  V30 31822 N 3172.67 -5.39461 -0.669556 0
M  V30 31823 H 3176.47 -2.93772 0.0867341 0
M  V30 31824 H 3173.98 -1.6172 0.148414 0
M  V30 31825 H 3175.98 -3.46307 -2.32115 0
M  V30 31826 H 3174.64 -2.28657 -2.30534 0
M  V30 31827 H 3175.65 -5.179 -0.00250802 0
M  V30 31828 H 3172.33 -3.62835 -2.06535 0
M  V30 31829 H 3173.72 -6.69502 0.567185 0
M  V30 31830 N 3176.44 -0.0702223 -1.57443 0
M  V30 31831 C 3177.38 0.897561 -2.12632 0
M  V30 31832 C 3178.35 1.29637 -1.03843 0
M  V30 31833 O 3179.54 1.3825 -1.31497 0
M  V30 31834 C 3176.68 2.16037 -2.69114 0
M  V30 31835 C 3175.79 1.81433 -3.92054 0
M  V30 31836 C 3174.93 3.02313 -4.36784 0
M  V30 31837 C 3173.97 2.6372 -5.52375 0
M  V30 31838 N 3173.1 3.77354 -5.92071 0
M  V30 31839 H 3177.94 0.420052 -2.95025 0
M  V30 31840 H 3175.48 0.195691 -1.45793 0
M  V30 31841 H 3177.44 2.89956 -2.99969 0
M  V30 31842 H 3176.07 2.61331 -1.89489 0
M  V30 31843 H 3175.12 0.975831 -3.67671 0
M  V30 31844 H 3176.43 1.49038 -4.76014 0
M  V30 31845 H 3175.59 3.84513 -4.69291 0
M  V30 31846 H 3174.32 3.37901 -3.51674 0
M  V30 31847 H 3173.33 1.79941 -5.1952 0
M  V30 31848 H 3174.55 2.29304 -6.39216 0
M  V30 31849 H 3172.5 4.12706 -5.09911 0
M  V30 31850 H 3172.42 3.48721 -6.70768 0
M  V30 31851 H 3173.69 4.60137 -6.29201 0
M  V30 31852 N 3177.91 1.56283 0.203321 0
M  V30 31853 C 3179.15 1.81923 0.931839 0
M  V30 31854 C 3179.52 0.64649 1.80789 0
M  V30 31855 O 3180.72 0.782601 2.57155 0
M  V30 31856 C 3178.99 3.1255 1.73342 0
M  V30 31857 S 3180.55 3.59568 2.51508 0
M  V30 31858 H 3177.37 0.638547 0.312695 0
M  V30 31859 H 3179.97 1.94516 0.195897 0
M  V30 31860 H 3178.67 3.95926 1.08031 0
M  V30 31861 H 3178.2 3.02813 2.51133 0
M  V30 31862 H 3180.22 3.24351 3.75514 0
M  V30 31863 N 3179.39 -0.470729 1.50406 0
M  V30 31864 C 3180.3 -1.59451 1.72083 0
M  V30 31865 C 3181.32 -1.63182 0.60396 0
M  V30 31866 O 3182.5 -1.81044 0.882328 0
M  V30 31867 C 3179.56 -2.95664 1.81062 0
M  V30 31868 C 3178.62 -3.02319 3.04798 0
M  V30 31869 C 3177.85 -4.32035 3.13339 0
M  V30 31870 O 3178.08 -5.2256 2.28664 0
M  V30 31871 O 3177.01 -4.44289 4.06068 0
M  V30 31872 H 3180.84 -1.44084 2.67345 0
M  V30 31873 H 3178.42 -0.650263 1.34506 0
M  V30 31874 H 3180.3 -3.76565 1.89147 0
M  V30 31875 H 3178.98 -3.11229 0.889837 0
M  V30 31876 H 3177.89 -2.20494 3.02214 0
M  V30 31877 H 3179.22 -2.91691 3.96456 0
M  V30 31878 N 3180.87 -1.39989 -0.72393 0
M  V30 31879 C 3182.11 -1.39258 -1.49622 0
M  V30 31880 C 3182.48 0.00856823 -1.91998 0
M  V30 31881 O 3183.68 0.140955 -2.6843 0
M  V30 31882 C 3181.95 -2.34732 -2.6951 0
M  V30 31883 S 3183.51 -2.52286 -3.59023 0
M  V30 31884 H 3180.32 -0.493694 -0.511652 0
M  V30 31885 H 3182.93 -1.76185 -0.847291 0
M  V30 31886 H 3181.63 -3.35379 -2.36535 0
M  V30 31887 H 3181.16 -1.99059 -3.39321 0
M  V30 31888 H 3183.18 -1.76904 -4.63594 0
M  V30 31889 N 3182.35 0.955282 -1.25348 0
M  V30 31890 C 3183.3 2.05186 -1.05676 0
M  V30 31891 C 3184.27 1.66065 0.0338925 0
M  V30 31892 O 3185.45 1.90402 -0.123159 0
M  V30 31893 C 3182.59 3.38317 -0.680851 0
M  V30 31894 C 3181.7 3.90559 -1.84629 0
M  V30 31895 C 3180.84 5.12013 -1.4148 0
M  V30 31896 C 3179.88 5.56482 -2.54941 0
M  V30 31897 N 3179.02 6.69147 -2.12572 0
M  V30 31898 H 3183.86 2.21346 -1.99524 0
M  V30 31899 H 3181.39 1.08471 -0.993607 0
M  V30 31900 H 3183.35 4.14832 -0.443867 0
M  V30 31901 H 3181.98 3.22045 0.220643 0
M  V30 31902 H 3181.03 3.1057 -2.19659 0
M  V30 31903 H 3182.34 4.19511 -2.69837 0
M  V30 31904 H 3181.5 5.95943 -1.13743 0
M  V30 31905 H 3180.24 4.84774 -0.533419 0
M  V30 31906 H 3179.24 4.71117 -2.83423 0
M  V30 31907 H 3180.47 5.85728 -3.43655 0
M  V30 31908 H 3178.41 6.43619 -1.26849 0
M  V30 31909 H 3178.33 6.97613 -2.91329 0
M  V30 31910 H 3179.6 7.56487 -1.88009 0
M  V30 31911 N 3183.83 1.06924 1.1578 0
M  V30 31912 C 3185.05 0.810805 1.90895 0
M  V30 31913 C 3185.48 -0.629683 1.77247 0
M  V30 31914 O 3184.84 -1.43951 1.10217 0
M  V30 31915 C 3184.88 1.21835 3.39394 0
M  V30 31916 O 3183.99 0.361006 4.10817 0
M  V30 31917 H 3183.33 0.295763 0.594492 0
M  V30 31918 H 3185.86 1.42671 1.46649 0
M  V30 31919 H 3185.87 1.19266 3.90179 0
M  V30 31920 H 3184.54 2.26756 3.48646 0
M  V30 31921 H 3183.12 0.448813 3.70189 0
M  V30 31922 N 3185.31 -1.32538 0.852723 0
M  V30 31923 C 3186.26 -2.26422 0.267751 0
M  V30 31924 C 3187.24 -1.49878 -0.585278 0
M  V30 31925 O 3188.43 -1.71572 -0.434978 0
M  V30 31926 C 3185.56 -3.38954 -0.544545 0
M  V30 31927 C 3184.65 -4.22885 0.320764 0
M  V30 31928 N 3185.04 -4.85863 1.4061 0
M  V30 31929 C 3183.34 -4.45864 0.110179 0
M  V30 31930 C 3184.04 -5.48457 1.93828 0
M  V30 31931 N 3183.01 -5.29321 1.23773 0
M  V30 31932 H 3186.81 -2.72639 1.09752 0
M  V30 31933 H 3184.33 -1.46604 0.698633 0
M  V30 31934 H 3186.33 -4.05218 -0.980019 0
M  V30 31935 H 3184.99 -2.94283 -1.37213 0
M  V30 31936 H 3186 -4.86019 1.78903 0
M  V30 31937 H 3182.67 -4.11878 -0.682844 0
M  V30 31938 H 3184.06 -6.08557 2.84794 0
M  V30 31939 N 3186.78 -0.610474 -1.45296 0
M  V30 31940 C 3188.01 -0.113083 -2.0629 0
M  V30 31941 C 3188.42 1.20905 -1.45529 0
M  V30 31942 O 3187.76 1.748 -0.564868 0
M  V30 31943 C 3187.83 0.0979061 -3.59367 0
M  V30 31944 C 3187.49 -1.14286 -4.42479 0
M  V30 31945 C 3188.49 -2.0617 -4.77274 0
M  V30 31946 C 3186.17 -1.3725 -4.83185 0
M  V30 31947 C 3188.17 -3.19342 -5.51633 0
M  V30 31948 C 3185.85 -2.50723 -5.57298 0
M  V30 31949 C 3186.85 -3.41597 -5.91439 0
M  V30 31950 O 3186.54 -4.53095 -6.64048 0
M  V30 31951 H 3186.27 -0.0673278 -0.672639 0
M  V30 31952 H 3188.83 -0.83897 -1.87485 0
M  V30 31953 H 3187.06 0.878717 -3.76584 0
M  V30 31954 H 3188.74 0.547257 -4.02194 0
M  V30 31955 H 3189.51 -1.89655 -4.46381 0
M  V30 31956 H 3185.39 -0.67415 -4.56044 0
M  V30 31957 H 3188.93 -3.90296 -5.782 0
M  V30 31958 H 3184.83 -2.67189 -5.87605 0
M  V30 31959 H 3185.6 -4.51813 -6.82501 0
M  V30 31960 N 3188.26 1.53669 -0.349801 0
M  V30 31961 C 3189.51 2.01313 0.245154 0
M  V30 31962 C 3189.84 1.23708 1.497 0
M  V30 31963 O 3189.12 0.326405 1.91742 0
M  V30 31964 C 3189.4 3.55828 0.553009 0
M  V30 31965 C 3189.25 4.44139 -0.711369 0
M  V30 31966 C 3190.57 4.18557 1.36007 0
M  V30 31967 H 3187.69 0.731772 0.0876286 0
M  V30 31968 H 3190.33 1.84055 -0.471575 0
M  V30 31969 H 3188.48 3.70665 1.1636 0
M  V30 31970 H 3190.15 4.41128 -1.34921 0
M  V30 31971 H 3188.4 4.12748 -1.33499 0
M  V30 31972 H 3189.07 5.50153 -0.451137 0
M  V30 31973 H 3191.54 4.07457 0.843706 0
M  V30 31974 H 3190.42 5.2673 1.54423 0
M  V30 31975 H 3190.68 3.73586 2.36401 0
M  V30 31976 N 3189.74 0.0785709 1.57404 0
M  V30 31977 C 3190.99 -0.587826 1.93362 0
M  V30 31978 C 3191.31 -1.69739 0.959886 0
M  V30 31979 O 3190.58 -1.95898 0.00915174 0
M  V30 31980 H 3189.16 -0.220129 0.713829 0
M  V30 31981 H 3191.82 0.13802 1.94411 0
M  V30 31982 H 3190.92 -1.00875 2.95348 0
M  V30 31983 N 3191.22 -1.56389 -0.19503 0
M  V30 31984 C 3192.49 -1.71461 -0.941305 0
M  V30 31985 C 3192.87 -0.633371 -2.01374 0
M  V30 31986 O 3192.22 0.35563 -2.25716 0
M  V30 31987 C 3192.43 -3.13789 -1.52767 0
M  V30 31988 C 3193.78 -3.74024 -2.00976 0
M  V30 31989 O 3194.8 -3.16918 -1.62609 0
M  V30 31990 O 3193.66 -4.74245 -2.71577 0
M  V30 31991 H 3190.76 -0.699329 -0.441439 0
M  V30 31992 H 3193.3 -1.68692 -0.184722 0
M  V30 31993 H 3192.08 -3.83954 -0.754632 0
M  V30 31994 H 3191.7 -3.20787 -2.34908 0
M  V30 31995 N 3192.7 0.462746 -1.50653 0
M  V30 31996 C 3193.94 1.21181 -1.61739 0
M  V30 31997 C 3194.26 1.92294 -0.323724 0
M  V30 31998 O 3193.53 1.84475 0.659237 0
M  V30 31999 H 3192.11 0.450295 -0.596023 0
M  V30 32000 H 3194.78 0.533018 -1.8747 0
M  V30 32001 H 3193.87 1.9552 -2.43266 0
M  V30 32002 N 3194.17 1.40371 0.716495 0
M  V30 32003 C 3195.1 1.43318 1.84343 0
M  V30 32004 C 3196.09 0.294216 1.67536 0
M  V30 32005 O 3197.27 0.502704 1.87581 0
M  V30 32006 C 3194.4 1.29414 3.22288 0
M  V30 32007 C 3193.35 2.40904 3.53765 0
M  V30 32008 C 3192.68 2.12077 4.90844 0
M  V30 32009 C 3193.98 3.83243 3.54855 0
M  V30 32010 H 3195.67 2.37629 1.82134 0
M  V30 32011 H 3193.22 1.14378 0.874853 0
M  V30 32012 H 3195.17 1.30092 4.00817 0
M  V30 32013 H 3193.9 0.315787 3.2507 0
M  V30 32014 H 3192.56 2.39474 2.77575 0
M  V30 32015 H 3192.2 1.12635 4.90227 0
M  V30 32016 H 3191.9 2.86771 5.1287 0
M  V30 32017 H 3193.43 2.14436 5.71708 0
M  V30 32018 H 3194.84 3.86502 4.23426 0
M  V30 32019 H 3193.24 4.57449 3.88408 0
M  V30 32020 H 3194.31 4.12893 2.54259 0
M  V30 32021 N 3195.65 -0.948621 1.25853 0
M  V30 32022 C 3196.6 -2.06754 1.06562 0
M  V30 32023 C 3197.59 -1.69399 -0.00525654 0
M  V30 32024 O 3198.8 -1.79367 0.150837 0
M  V30 32025 H 3195.18 -0.676843 0.327701 0
M  V30 32026 H 3197.15 -2.20178 2.01405 0
M  V30 32027 C 3195.9 -3.40427 0.707452 0
M  V30 32028 H 3195.22 -3.69642 1.52331 0
M  V30 32029 H 3196.66 -4.19557 0.612216 0
M  V30 32030 C 3195.12 -3.31748 -0.586912 0
M  V30 32031 O 3195.65 -3.67261 -1.62734 0
M  V30 32032 N 3193.85 -2.84859 -0.574778 0
M  V30 32033 H 3193.4 -2.56157 0.272281 0
M  V30 32034 H 3193.36 -2.79435 -1.44096 0
M  V30 32035 N 3197.13 -1.07536 -1.15212 0
M  V30 32036 C 3198.37 -0.809042 -1.87707 0
M  V30 32037 C 3198.73 0.653034 -1.80553 0
M  V30 32038 O 3199.94 1.03448 -2.48097 0
M  V30 32039 C 3198.21 -1.30558 -3.327 0
M  V30 32040 S 3199.77 -1.17022 -4.22908 0
M  V30 32041 H 3196.58 -0.29313 -0.647762 0
M  V30 32042 H 3199.19 -1.37485 -1.3899 0
M  V30 32043 H 3197.89 -2.36433 -3.35451 0
M  V30 32044 H 3197.42 -0.735062 -3.86472 0
M  V30 32045 H 3199.44 -0.108923 -4.9608 0
M  V30 32046 N 3198.61 1.32084 -0.85974 0
M  V30 32047 C 3199.52 2.32528 -0.311121 0
M  V30 32048 C 3200.53 1.64271 0.573686 0
M  V30 32049 O 3201.71 1.95771 0.472843 0
M  V30 32050 C 3198.78 3.4326 0.487196 0
M  V30 32051 C 3197.84 4.27198 -0.424354 0
M  V30 32052 C 3197.07 5.32642 0.335957 0
M  V30 32053 O 3197.29 5.48502 1.56531 0
M  V30 32054 O 3196.23 6.01147 -0.300882 0
M  V30 32055 H 3200.05 2.81353 -1.14341 0
M  V30 32056 H 3197.64 1.35799 -0.622818 0
M  V30 32057 H 3199.52 4.10779 0.940131 0
M  V30 32058 H 3198.19 2.96615 1.2962 0
M  V30 32059 H 3197.1 3.62469 -0.925573 0
M  V30 32060 H 3198.43 4.77381 -1.19868 0
M  V30 32061 N 3200.09 0.618171 1.4497 0
M  V30 32062 C 3201.5 0.201367 1.85611 0
M  V30 32063 C 3201.85 -1.24424 1.51701 0
M  V30 32064 O 3200.97 -1.94492 0.948784 0
M  V30 32065 C 3201.57 0.358678 3.36896 0
M  V30 32066 C 3200.13 -0.0035158 3.764 0
M  V30 32067 C 3199.27 0.678165 2.6888 0
M  V30 32068 H 3202.23 0.824176 1.35621 0
M  V30 32069 H 3202.25 -0.406109 3.78327 0
M  V30 32070 H 3201.76 1.4109 3.61546 0
M  V30 32071 H 3199.86 -1.05451 3.57367 0
M  V30 32072 H 3199.97 0.397511 4.77448 0
M  V30 32073 H 3198.34 0.114744 2.54441 0
M  V30 32074 H 3199.12 1.73273 2.96364 0
M  V30 32075 N 3201.56 -1.53481 0.357946 0
M  V30 32076 C 3202.47 -2.29205 -0.500233 0
M  V30 32077 C 3203.49 -1.34872 -1.09934 0
M  V30 32078 O 3204.67 -1.67923 -1.11192 0
M  V30 32079 C 3201.73 -3.06088 -1.62823 0
M  V30 32080 C 3200.79 -4.16073 -1.05744 0
M  V30 32081 C 3200.03 -4.8928 -2.13167 0
M  V30 32082 O 3200.25 -4.6228 -3.34145 0
M  V30 32083 O 3199.18 -5.75393 -1.76653 0
M  V30 32084 H 3203.01 -3.03479 0.115749 0
M  V30 32085 H 3200.59 -1.48897 0.122553 0
M  V30 32086 H 3202.48 -3.54121 -2.28421 0
M  V30 32087 H 3201.15 -2.34657 -2.22975 0
M  V30 32088 H 3200.06 -3.72309 -0.365576 0
M  V30 32089 H 3201.39 -4.89648 -0.500575 0
M  V30 32090 N 3203.04 -0.0869173 -1.5736 0
M  V30 32091 C 3203.97 0.904821 -2.10584 0
M  V30 32092 C 3204.99 1.25146 -1.04127 0
M  V30 32093 O 3206.18 1.206 -1.31597 0
M  V30 32094 C 3203.28 2.21631 -2.56385 0
M  V30 32095 C 3202.45 2.04624 -3.86585 0
M  V30 32096 C 3201.51 3.19212 -4.18319 0
M  V30 32097 O 3200.53 2.93535 -4.87674 0
M  V30 32098 N 3201.74 4.44747 -3.73068 0
M  V30 32099 H 3204.5 0.4503 -2.96298 0
M  V30 32100 H 3202.06 0.0984092 -1.61601 0
M  V30 32101 H 3204.05 2.97222 -2.74665 0
M  V30 32102 H 3202.62 2.58533 -1.75726 0
M  V30 32103 H 3201.84 1.1341 -3.77534 0
M  V30 32104 H 3203.13 1.90529 -4.7178 0
M  V30 32105 H 3202.53 4.68492 -3.17068 0
M  V30 32106 H 3201.09 5.17315 -3.9652 0
M  V30 32107 N 3204.52 1.5649 0.186734 0
M  V30 32108 C 3205.45 1.98234 1.23391 0
M  V30 32109 C 3206.43 0.855551 1.47018 0
M  V30 32110 O 3207.62 1.1205 1.58614 0
M  V30 32111 C 3204.75 2.32903 2.57631 0
M  V30 32112 C 3203.7 3.48398 2.48601 0
M  V30 32113 C 3203.03 3.68766 3.8719 0
M  V30 32114 C 3204.33 4.82329 2.0039 0
M  V30 32115 H 3206.02 2.8596 0.886976 0
M  V30 32116 H 3203.57 1.37578 0.425226 0
M  V30 32117 H 3205.52 2.60702 3.31078 0
M  V30 32118 H 3204.24 1.42069 2.94082 0
M  V30 32119 H 3202.9 3.20703 1.77609 0
M  V30 32120 H 3202.55 2.75248 4.21008 0
M  V30 32121 H 3202.25 4.46468 3.82021 0
M  V30 32122 H 3203.77 3.98949 4.62246 0
M  V30 32123 H 3205.19 5.09105 2.63601 0
M  V30 32124 H 3203.59 5.6356 2.06204 0
M  V30 32125 H 3204.66 4.75353 0.957478 0
M  V30 32126 N 3206 -0.45475 1.50897 0
M  V30 32127 C 3207.41 -1.03517 1.55374 0
M  V30 32128 C 3207.76 -1.9274 0.366856 0
M  V30 32129 O 3206.89 -2.10099 -0.518407 0
M  V30 32130 C 3207.48 -1.88413 2.81578 0
M  V30 32131 C 3206.04 -2.41535 2.88683 0
M  V30 32132 C 3205.19 -1.20293 2.4985 0
M  V30 32133 H 3208.14 -0.236701 1.56925 0
M  V30 32134 H 3208.16 -2.73671 2.64357 0
M  V30 32135 H 3207.67 -1.23449 3.67943 0
M  V30 32136 H 3205.77 -3.10004 2.06708 0
M  V30 32137 H 3205.88 -2.75524 3.91948 0
M  V30 32138 H 3204.25 -1.54285 2.02653 0
M  V30 32139 H 3205.03 -0.569664 3.38541 0
M  V30 32140 N 3207.48 -1.40749 -0.709041 0
M  V30 32141 C 3208.73 -1.38684 -1.46457 0
M  V30 32142 C 3209.04 0.00558652 -1.95599 0
M  V30 32143 O 3210.24 0.14886 -2.71092 0
M  V30 32144 C 3208.7 -2.43775 -2.64767 0
M  V30 32145 C 3208.31 -3.8886 -2.22467 0
M  V30 32146 C 3210.05 -2.50827 -3.42471 0
M  V30 32147 C 3207.96 -4.85534 -3.37655 0
M  V30 32148 H 3206.89 -0.515688 -0.550075 0
M  V30 32149 H 3209.54 -1.66515 -0.771045 0
M  V30 32150 H 3207.92 -2.09054 -3.36322 0
M  V30 32151 H 3209.1 -4.3276 -1.5829 0
M  V30 32152 H 3207.41 -3.85345 -1.57791 0
M  V30 32153 H 3210.01 -3.20239 -4.28195 0
M  V30 32154 H 3210.35 -1.54083 -3.86735 0
M  V30 32155 H 3210.88 -2.84572 -2.77964 0
M  V30 32156 H 3207.62 -5.83634 -2.98416 0
M  V30 32157 H 3207.14 -4.46294 -4.00726 0
M  V30 32158 H 3208.82 -5.05662 -4.03628 0
M  V30 32159 N 3208.96 0.941933 -1.26354 0
M  V30 32160 C 3210.23 1.66528 -1.02604 0
M  V30 32161 C 3210.61 2.06383 0.443774 0
M  V30 32162 O 3209.96 1.78705 1.42396 0
M  V30 32163 C 3210.17 2.87805 -1.97406 0
M  V30 32164 C 3211.52 3.59474 -2.25973 0
M  V30 32165 O 3212.54 2.97909 -1.95266 0
M  V30 32166 O 3211.4 4.70359 -2.78252 0
M  V30 32167 H 3208.5 0.729222 -0.390083 0
M  V30 32168 H 3211.04 0.99373 -1.37561 0
M  V30 32169 H 3209.81 2.55239 -2.96595 0
M  V30 32170 H 3209.44 3.62687 -1.62924 0
M  V30 32171 N 3210.43 1.08146 1.1464 0
M  V30 32172 C 3211.85 0.808561 1.37603 0
M  V30 32173 C 3212.05 -0.583418 1.92869 0
M  V30 32174 O 3211.11 -1.3407 2.13966 0
M  V30 32175 C 3212.42 1.88904 2.33957 0
M  V30 32176 C 3213.97 1.91474 2.47602 0
M  V30 32177 C 3214.44 2.98629 3.47253 0
M  V30 32178 N 3215.93 2.97784 3.54795 0
M  V30 32179 C 3216.67 3.77339 4.31744 0
M  V30 32180 N 3216.16 4.66766 5.11958 0
M  V30 32181 N 3217.96 3.65652 4.26913 0
M  V30 32182 H 3210.11 1.97908 0.771119 0
M  V30 32183 H 3212.37 0.858695 0.401679 0
M  V30 32184 H 3212.08 2.88966 2.00479 0
M  V30 32185 H 3211.95 1.75606 3.3383 0
M  V30 32186 H 3214.34 0.920598 2.80373 0
M  V30 32187 H 3214.42 2.08851 1.47699 0
M  V30 32188 H 3214.06 3.98248 3.15216 0
M  V30 32189 H 3213.99 2.78498 4.4693 0
M  V30 32190 H 3216.48 2.32965 2.97549 0
M  V30 32191 H 3216.8 5.24082 5.67941 0
M  V30 32192 H 3215.14 4.7081 5.11236 0
M  V30 32193 H 3218.33 2.95159 3.63317 0
M  V30 32194 H 3218.51 4.27893 4.86633 0
M  V30 32195 N 3211.91 -1.31626 0.866732 0
M  V30 32196 C 3213.15 -1.98623 0.482514 0
M  V30 32197 C 3213.52 -1.67031 -0.946815 0
M  V30 32198 O 3214.72 -2.27214 -1.43622 0
M  V30 32199 C 3212.99 -3.49894 0.728644 0
M  V30 32200 S 3214.55 -4.3655 0.443801 0
M  V30 32201 H 3211.36 -0.687773 0.18025 0
M  V30 32202 H 3213.97 -1.60094 1.12206 0
M  V30 32203 H 3212.67 -3.70376 1.76776 0
M  V30 32204 H 3212.2 -3.93327 0.0759722 0
M  V30 32205 H 3214.22 -4.90871 -0.725254 0
M  V30 32206 N 3213.39 -0.62585 -1.4464 0
M  V30 32207 C 3214.32 0.0691778 -2.33398 0
M  V30 32208 C 3215.3 0.840215 -1.479 0
M  V30 32209 O 3216.49 0.807145 -1.76632 0
M  V30 32210 C 3213.62 1.05494 -3.3089 0
M  V30 32211 C 3212.57 0.395893 -4.26165 0
M  V30 32212 C 3211.9 1.49119 -5.13486 0
M  V30 32213 C 3213.2 -0.694524 -5.17662 0
M  V30 32214 H 3214.89 -0.671976 -2.91762 0
M  V30 32215 H 3212.44 -0.324598 -1.40294 0
M  V30 32216 H 3214.39 1.54986 -3.91864 0
M  V30 32217 H 3213.11 1.82692 -2.70724 0
M  V30 32218 H 3211.77 -0.0783336 -3.66516 0
M  V30 32219 H 3211.42 2.25391 -4.49675 0
M  V30 32220 H 3211.12 1.05562 -5.7804 0
M  V30 32221 H 3212.64 1.98802 -5.7733 0
M  V30 32222 H 3214.06 -0.282919 -5.72601 0
M  V30 32223 H 3212.45 -1.05291 -5.90791 0
M  V30 32224 H 3213.52 -1.5638 -4.58992 0
M  V30 32225 N 3214.87 1.53289 -0.36608 0
M  V30 32226 C 3215.8 2.23342 0.514877 0
M  V30 32227 C 3216.81 1.2477 1.04576 0
M  V30 32228 O 3218 1.5099 0.952058 0
M  V30 32229 C 3215.1 2.91791 1.72369 0
M  V30 32230 C 3214.27 4.16873 1.32422 0
M  V30 32231 C 3213.33 4.68528 2.39516 0
M  V30 32232 O 3212.36 5.32194 2.01885 0
M  V30 32233 N 3213.56 4.46385 3.71108 0
M  V30 32234 H 3216.33 2.99579 -0.0851799 0
M  V30 32235 H 3213.89 1.60766 -0.191283 0
M  V30 32236 H 3215.88 3.23256 2.43491 0
M  V30 32237 H 3214.45 2.19004 2.23061 0
M  V30 32238 H 3213.67 3.91705 0.442832 0
M  V30 32239 H 3214.96 4.9819 1.03363 0
M  V30 32240 H 3214.36 3.95515 4.04456 0
M  V30 32241 H 3212.91 4.82398 4.38332 0
M  V30 32242 N 3216.35 0.0952613 1.57312 0
M  V30 32243 C 3217.62 -0.610682 1.85823 0
M  V30 32244 C 3218 -1.86332 0.992147 0
M  V30 32245 O 3217.35 -2.28409 0.0646071 0
M  V30 32246 C 3217.56 -0.925907 3.36494 0
M  V30 32247 C 3218.91 -1.28929 4.04552 0
M  V30 32248 O 3219.93 -1.01692 3.41376 0
M  V30 32249 O 3218.79 -1.7994 5.16027 0
M  V30 32250 H 3215.89 -0.305613 0.768459 0
M  V30 32251 H 3218.43 0.127971 1.69217 0
M  V30 32252 H 3217.2 -0.0372439 3.91282 0
M  V30 32253 H 3216.83 -1.72053 3.58446 0
M  V30 32254 N 3217.82 -1.56587 -0.178432 0
M  V30 32255 C 3218.77 -1.96767 -1.24039 0
M  V30 32256 C 3219.77 -0.855401 -1.46216 0
M  V30 32257 O 3220.97 -1.04049 -1.4688 0
M  V30 32258 H 3217.35 -0.625927 -0.416796 0
M  V30 32259 H 3219.32 -2.85295 -0.874594 0
M  V30 32260 C 3218.07 -2.33765 -2.5739 0
M  V30 32261 H 3217.39 -3.18887 -2.41145 0
M  V30 32262 H 3218.83 -2.65729 -3.304 0
M  V30 32263 C 3217.29 -1.1784 -3.15619 0
M  V30 32264 O 3217.82 -0.462272 -3.99031 0
M  V30 32265 N 3216.02 -0.950831 -2.74604 0
M  V30 32266 H 3215.57 -1.53493 -2.06876 0
M  V30 32267 H 3215.53 -0.177022 -3.13901 0
M  V30 32268 N 3219.3 0.446741 -1.51136 0
M  V30 32269 C 3220.55 1.19459 -1.63015 0
M  V30 32270 C 3220.87 1.9194 -0.344101 0
M  V30 32271 O 3220.14 1.85163 0.639634 0
M  V30 32272 H 3218.72 0.443948 -0.600765 0
M  V30 32273 H 3221.38 0.513104 -1.88025 0
M  V30 32274 H 3220.48 1.92929 -2.45326 0
M  V30 32275 N 3220.78 1.41123 0.701567 0
M  V30 32276 C 3221.71 1.38425 1.82678 0
M  V30 32277 C 3222.72 0.28737 1.60244 0
M  V30 32278 O 3223.91 0.548688 1.69858 0
M  V30 32279 C 3221.01 1.13481 3.19336 0
M  V30 32280 C 3220.19 2.35094 3.68849 0
M  V30 32281 C 3219.25 2.06097 4.84159 0
M  V30 32282 O 3218.27 2.79085 4.96085 0
M  V30 32283 N 3219.47 1.04753 5.7097 0
M  V30 32284 H 3222.24 2.35404 1.85486 0
M  V30 32285 H 3219.8 1.35658 0.883658 0
M  V30 32286 H 3221.79 0.920447 3.94094 0
M  V30 32287 H 3220.36 0.251207 3.11589 0
M  V30 32288 H 3219.58 2.72271 2.85065 0
M  V30 32289 H 3220.87 3.16136 3.98667 0
M  V30 32290 H 3220.27 0.443321 5.6396 0
M  V30 32291 H 3218.82 0.893063 6.45653 0
M  V30 32292 N 3222.26 -0.935219 1.26852 0
M  V30 32293 C 3223.5 -1.69673 1.13975 0
M  V30 32294 C 3223.86 -1.89471 -0.310622 0
M  V30 32295 O 3225.06 -2.62867 -0.561645 0
M  V30 32296 C 3223.33 -3.03093 1.89393 0
M  V30 32297 S 3224.89 -3.94253 1.9264 0
M  V30 32298 H 3221.71 -0.582972 0.407019 0
M  V30 32299 H 3224.31 -1.11401 1.60655 0
M  V30 32300 H 3223.02 -2.86369 2.93975 0
M  V30 32301 H 3222.55 -3.6642 1.43177 0
M  V30 32302 H 3224.56 -4.85658 1.0174 0
M  V30 32303 N 3223.74 -1.08752 -1.14065 0
M  V30 32304 C 3224.69 -0.690233 -2.17301 0
M  V30 32305 C 3225.67 0.291921 -1.5823 0
M  V30 32306 O 3226.86 0.10338 -1.76698 0
M  V30 32307 C 3223.99 -0.104896 -3.4314 0
M  V30 32308 C 3223.08 -1.11305 -4.09233 0
M  V30 32309 N 3223.47 -2.29773 -4.50597 0
M  V30 32310 C 3221.77 -0.949611 -4.35773 0
M  V30 32311 C 3222.47 -2.93848 -5.02024 0
M  V30 32312 N 3221.44 -2.2144 -4.96453 0
M  V30 32313 H 3225.25 -1.59231 -2.47028 0
M  V30 32314 H 3222.76 -0.962745 -1.30786 0
M  V30 32315 H 3224.76 0.197704 -4.16431 0
M  V30 32316 H 3223.42 0.792116 -3.1489 0
M  V30 32317 H 3224.43 -2.67407 -4.43524 0
M  V30 32318 H 3221.1 -0.106701 -4.17364 0
M  V30 32319 H 3222.49 -3.9452 -5.43878 0
M  V30 32320 N 3225.21 1.31165 -0.873701 0
M  V30 32321 C 3226.18 2.26707 -0.337109 0
M  V30 32322 C 3227.18 1.52363 0.514033 0
M  V30 32323 O 3228.37 1.71183 0.322804 0
M  V30 32324 C 3225.5 3.36898 0.520838 0
M  V30 32325 H 3226.69 2.75684 -1.1806 0
M  V30 32326 H 3224.25 1.42161 -0.649602 0
M  V30 32327 H 3224.98 2.9322 1.38538 0
M  V30 32328 H 3224.77 3.92 -0.0886704 0
M  V30 32329 H 3226.26 4.0804 0.888425 0
M  V30 32330 N 3226.69 0.633512 1.44307 0
M  V30 32331 C 3227.97 0.0697606 1.95476 0
M  V30 32332 C 3228.35 -1.40513 1.57542 0
M  V30 32333 O 3227.7 -2.12075 0.850669 0
M  V30 32334 C 3227.91 0.295154 3.4775 0
M  V30 32335 C 3229.26 0.189616 4.24176 0
M  V30 32336 O 3230.28 0.226648 3.55478 0
M  V30 32337 O 3229.14 0.0965751 5.46415 0
M  V30 32338 H 3226.23 -0.0209436 0.826735 0
M  V30 32339 H 3228.78 0.705381 1.54345 0
M  V30 32340 H 3227.55 1.31847 3.68418 0
M  V30 32341 H 3227.17 -0.37449 3.95832 0
M  V30 32342 N 3228.17 -1.53093 0.374204 0
M  V30 32343 C 3229.13 -2.24619 -0.455959 0
M  V30 32344 C 3230.13 -1.25711 -1.00266 0
M  V30 32345 O 3231.32 -1.49923 -0.887051 0
M  V30 32346 C 3228.46 -2.9896 -1.63816 0
M  V30 32347 H 3229.65 -2.99418 0.170038 0
M  V30 32348 H 3227.2 -1.55791 0.126042 0
M  V30 32349 H 3227.94 -2.28425 -2.30201 0
M  V30 32350 H 3227.72 -3.7154 -1.25302 0
M  V30 32351 H 3229.21 -3.53309 -2.22626 0
M  V30 32352 N 3229.65 -0.103603 -1.57259 0
M  V30 32353 C 3230.6 0.852257 -2.14488 0
M  V30 32354 C 3231.57 1.27405 -1.0657 0
M  V30 32355 O 3232.75 1.3543 -1.344 0
M  V30 32356 C 3229.89 2.1028 -2.73636 0
M  V30 32357 C 3229 1.73076 -3.95814 0
M  V30 32358 C 3228.14 2.92981 -4.43098 0
M  V30 32359 C 3227.18 2.51944 -5.57845 0
M  V30 32360 N 3226.31 3.6471 -5.99942 0
M  V30 32361 H 3231.15 0.357378 -2.95849 0
M  V30 32362 H 3228.69 0.164722 -1.46175 0
M  V30 32363 H 3230.65 2.83528 -3.06051 0
M  V30 32364 H 3229.28 2.57253 -1.94989 0
M  V30 32365 H 3228.33 0.897623 -3.69658 0
M  V30 32366 H 3229.64 1.38908 -4.79068 0
M  V30 32367 H 3228.8 3.74472 -4.77342 0
M  V30 32368 H 3227.54 3.30365 -3.58762 0
M  V30 32369 H 3226.54 1.68881 -5.2322 0
M  V30 32370 H 3227.77 2.15693 -6.43936 0
M  V30 32371 H 3225.71 4.01798 -5.18551 0
M  V30 32372 H 3225.63 3.34415 -6.78014 0
M  V30 32373 H 3226.9 4.46687 -6.3882 0
M  V30 32374 N 3231.13 1.56679 0.170126 0
M  V30 32375 C 3232.37 1.83859 0.89304 0
M  V30 32376 C 3232.73 0.684693 1.79377 0
M  V30 32377 O 3233.93 0.836971 2.55437 0
M  V30 32378 C 3232.2 3.16156 1.66673 0
M  V30 32379 S 3233.76 3.64822 2.43824 0
M  V30 32380 H 3230.58 0.645036 0.29908 0
M  V30 32381 H 3233.18 1.94888 0.154593 0
M  V30 32382 H 3231.89 3.98129 0.996082 0
M  V30 32383 H 3231.42 3.08072 2.44653 0
M  V30 32384 H 3233.43 3.32244 3.68549 0
M  V30 32385 N 3232.6 -0.43872 1.5137 0
M  V30 32386 C 3233.85 -1.19003 1.64214 0
M  V30 32387 C 3234.18 -1.90897 0.35664 0
M  V30 32388 O 3233.46 -1.8354 -0.64369 0
M  V30 32389 C 3233.74 -2.20812 2.84454 0
M  V30 32390 C 3233.59 -1.5301 4.22975 0
M  V30 32391 C 3234.91 -3.21808 3.00213 0
M  V30 32392 H 3232.03 -0.431278 0.597636 0
M  V30 32393 H 3234.67 -0.479454 1.83851 0
M  V30 32394 H 3232.82 -2.81413 2.67841 0
M  V30 32395 H 3234.5 -0.957575 4.51252 0
M  V30 32396 H 3232.74 -0.832481 4.25737 0
M  V30 32397 H 3233.41 -2.27149 5.03098 0
M  V30 32398 H 3235.89 -2.7126 3.15527 0
M  V30 32399 H 3234.76 -3.90339 3.85911 0
M  V30 32400 H 3235.02 -3.87832 2.12223 0
M  V30 32401 N 3234.08 -1.41493 -0.694073 0
M  V30 32402 C 3235.36 -1.31421 -1.44872 0
M  V30 32403 C 3235.74 0.0575167 -2.11022 0
M  V30 32404 O 3235.09 1.07185 -2.01801 0
M  V30 32405 C 3235.3 -2.46867 -2.46693 0
M  V30 32406 C 3236.65 -2.88101 -3.11902 0
M  V30 32407 O 3237.67 -2.46618 -2.57018 0
M  V30 32408 O 3236.53 -3.5984 -4.11312 0
M  V30 32409 H 3233.62 -0.517274 -0.645257 0
M  V30 32410 H 3236.17 -1.53461 -0.724425 0
M  V30 32411 H 3234.94 -3.38396 -1.96479 0
M  V30 32412 H 3234.56 -2.26712 -3.2663 0
M  V30 32413 N 3235.56 0.928479 -1.27346 0
M  V30 32414 C 3236.49 2.04601 -1.12521 0
M  V30 32415 C 3237.47 1.70079 -0.0268862 0
M  V30 32416 O 3238.66 1.93155 -0.201231 0
M  V30 32417 C 3235.79 3.38638 -0.770808 0
M  V30 32418 C 3234.74 3.87269 -1.82227 0
M  V30 32419 C 3234.07 5.18103 -1.32187 0
M  V30 32420 C 3235.37 4.10746 -3.22621 0
M  V30 32421 H 3237.06 2.17262 -2.06004 0
M  V30 32422 H 3234.61 1.04396 -0.991845 0
M  V30 32423 H 3236.56 4.16295 -0.653916 0
M  V30 32424 H 3235.28 3.25989 0.199732 0
M  V30 32425 H 3233.94 3.11804 -1.92805 0
M  V30 32426 H 3233.59 5.01844 -0.340807 0
M  V30 32427 H 3233.29 5.5161 -2.02484 0
M  V30 32428 H 3234.81 5.98331 -1.2179 0
M  V30 32429 H 3236.23 4.78976 -3.15048 0
M  V30 32430 H 3234.63 4.55559 -3.90622 0
M  V30 32431 H 3235.7 3.1607 -3.67733 0
M  V30 32432 N 3237.04 1.09355 1.13486 0
M  V30 32433 C 3237.99 0.701748 2.16932 0
M  V30 32434 C 3238.97 -0.283525 1.58382 0
M  V30 32435 O 3240.16 -0.0940081 1.7675 0
M  V30 32436 C 3237.29 0.123092 3.43079 0
M  V30 32437 C 3236.38 1.13474 4.08637 0
M  V30 32438 N 3236.77 2.32159 4.49373 0
M  V30 32439 C 3235.07 0.972708 4.35264 0
M  V30 32440 C 3235.77 2.96506 5.00459 0
M  V30 32441 N 3234.75 2.2407 4.95271 0
M  V30 32442 H 3238.55 1.60539 2.4618 0
M  V30 32443 H 3236.06 0.969667 1.30274 0
M  V30 32444 H 3238.06 -0.175617 4.1653 0
M  V30 32445 H 3236.72 -0.775406 3.15305 0
M  V30 32446 H 3237.73 2.69756 4.421 0
M  V30 32447 H 3234.41 0.128833 4.17301 0
M  V30 32448 H 3235.8 3.97399 5.41778 0
M  V30 32449 N 3238.52 -1.307 0.880644 0
M  V30 32450 C 3239.76 -1.96309 0.49691 0
M  V30 32451 C 3240.09 -1.69551 -0.953034 0
M  V30 32452 O 3239.35 -0.990537 -1.6878 0
M  V30 32453 C 3239.65 -3.5021 0.713264 0
M  V30 32454 C 3239.31 -3.97009 2.13763 0
M  V30 32455 C 3237.97 -4.09499 2.52714 0
M  V30 32456 C 3240.33 -4.21475 3.06607 0
M  V30 32457 C 3237.65 -4.43813 3.83728 0
M  V30 32458 C 3240.01 -4.57257 4.37148 0
M  V30 32459 C 3238.67 -4.67955 4.75999 0
M  V30 32460 H 3237.94 -0.718344 0.181832 0
M  V30 32461 H 3240.59 -1.55644 1.11567 0
M  V30 32462 H 3238.89 -3.91798 0.0114383 0
M  V30 32463 H 3240.59 -3.9904 0.39602 0
M  V30 32464 H 3237.18 -3.87791 1.82526 0
M  V30 32465 H 3241.36 -4.1131 2.77736 0
M  V30 32466 H 3236.62 -4.50294 4.13576 0
M  V30 32467 H 3240.79 -4.7514 5.09132 0
M  V30 32468 H 3238.42 -4.94299 5.77557 0
M  V30 32469 N 3240 -0.641156 -1.43969 0
M  V30 32470 C 3240.93 0.0962912 -2.28998 0
M  V30 32471 C 3241.94 0.799046 -1.41842 0
M  V30 32472 O 3243.13 0.658817 -1.65897 0
M  V30 32473 C 3240.23 1.15897 -3.18467 0
M  V30 32474 C 3239.4 0.536752 -4.34094 0
M  V30 32475 C 3238.46 1.49472 -5.04524 0
M  V30 32476 O 3237.49 1.00797 -5.60204 0
M  V30 32477 N 3238.69 2.82892 -5.06904 0
M  V30 32478 H 3241.45 -0.633474 -2.92929 0
M  V30 32479 H 3239.02 -0.483048 -1.54526 0
M  V30 32480 H 3241.01 1.80037 -3.62448 0
M  V30 32481 H 3239.58 1.79085 -2.56218 0
M  V30 32482 H 3238.8 -0.283483 -3.93179 0
M  V30 32483 H 3240.09 0.101877 -5.08698 0
M  V30 32484 H 3239.48 3.25009 -4.63018 0
M  V30 32485 H 3238.04 3.42366 -5.54643 0
M  V30 32486 N 3241.47 1.52892 -0.382318 0
M  V30 32487 C 3242.75 1.93873 0.25932 0
M  V30 32488 C 3243.13 1.31723 1.64962 0
M  V30 32489 O 3242.48 0.48265 2.23344 0
M  V30 32490 C 3242.69 3.4777 0.292704 0
M  V30 32491 C 3244.04 4.21342 0.525021 0
M  V30 32492 O 3245.06 3.54239 0.37321 0
M  V30 32493 O 3243.92 5.40284 0.821909 0
M  V30 32494 H 3241.01 0.811491 0.159407 0
M  V30 32495 H 3243.56 1.63995 -0.436318 0
M  V30 32496 H 3242.33 3.85321 -0.681409 0
M  V30 32497 H 3241.95 3.83932 1.03355 0
M  V30 32498 N 3242.95 0.111941 1.57202 0
M  V30 32499 C 3244.18 -0.555678 1.99298 0
M  V30 32500 C 3244.59 -1.60671 0.991473 0
M  V30 32501 O 3243.95 -1.82492 -0.0166351 0
M  V30 32502 C 3244 -1.1882 3.41415 0
M  V30 32503 O 3243.72 -0.179184 4.37733 0
M  V30 32504 C 3245.22 -1.93982 3.98605 0
M  V30 32505 H 3242.44 -0.147684 0.654546 0
M  V30 32506 H 3244.99 0.196199 2.03557 0
M  V30 32507 H 3243.14 -1.8909 3.38118 0
M  V30 32508 H 3243.56 -0.637844 5.20607 0
M  V30 32509 H 3245.03 -2.33575 5.00147 0
M  V30 32510 H 3245.51 -2.81227 3.37354 0
M  V30 32511 H 3246.11 -1.2849 4.05426 0
M  V30 32512 N 3244.43 -1.56767 -0.161814 0
M  V30 32513 C 3245.66 -1.86674 -0.892214 0
M  V30 32514 C 3246.07 -0.698441 -1.75406 0
M  V30 32515 O 3245.43 0.33222 -1.79451 0
M  V30 32516 C 3245.48 -3.15699 -1.76115 0
M  V30 32517 O 3245.2 -4.28027 -0.934056 0
M  V30 32518 C 3246.7 -3.59018 -2.6004 0
M  V30 32519 H 3243.92 -0.61911 -0.258736 0
M  V30 32520 H 3246.47 -2.03881 -0.159053 0
M  V30 32521 H 3244.62 -3.0029 -2.44754 0
M  V30 32522 H 3245.04 -5.01712 -1.52922 0
M  V30 32523 H 3246.51 -4.52175 -3.1661 0
M  V30 32524 H 3246.99 -2.83592 -3.35369 0
M  V30 32525 H 3247.59 -3.77071 -1.96717 0
M  V30 32526 N 3245.91 0.430686 -1.51601 0
M  V30 32527 C 3247.15 1.18131 -1.64842 0
M  V30 32528 C 3247.49 1.90705 -0.366759 0
M  V30 32529 O 3246.76 1.83879 0.633947 0
M  V30 32530 C 3247.04 2.19301 -2.85621 0
M  V30 32531 C 3246.9 1.50765 -4.23781 0
M  V30 32532 C 3248.22 3.20211 -3.01915 0
M  V30 32533 H 3245.34 0.428102 -0.599915 0
M  V30 32534 H 3247.98 0.469697 -1.84103 0
M  V30 32535 H 3246.13 2.79989 -2.6933 0
M  V30 32536 H 3247.8 0.93363 -4.51753 0
M  V30 32537 H 3246.04 0.809892 -4.26173 0
M  V30 32538 H 3246.71 2.24478 -5.04295 0
M  V30 32539 H 3249.19 2.69583 -3.16961 0
M  V30 32540 H 3248.07 3.88286 -3.87975 0
M  V30 32541 H 3248.33 3.86701 -2.14277 0
M  V30 32542 N 3247.39 1.4186 0.686559 0
M  V30 32543 C 3248.63 1.4142 1.44377 0
M  V30 32544 C 3248.95 0.0274038 1.94981 0
M  V30 32545 O 3248.22 -0.932218 1.72298 0
M  V30 32546 H 3246.8 0.520578 0.535731 0
M  V30 32547 H 3249.47 1.77178 0.812025 0
M  V30 32548 H 3248.56 2.10688 2.30254 0
M  V30 32549 N 3248.86 -0.921712 1.27837 0
M  V30 32550 C 3250.11 -1.67251 1.14695 0
M  V30 32551 C 3250.44 -1.91784 -0.30535 0
M  V30 32552 O 3249.72 -1.51251 -1.22284 0
M  V30 32553 C 3250 -3.03535 1.93748 0
M  V30 32554 C 3249.85 -2.86206 3.46996 0
M  V30 32555 C 3251.17 -4.03956 1.74665 0
M  V30 32556 H 3248.29 -0.606975 0.418031 0
M  V30 32557 H 3250.93 -1.06919 1.57062 0
M  V30 32558 H 3249.08 -3.55034 1.57744 0
M  V30 32559 H 3250.76 -2.41778 3.92862 0
M  V30 32560 H 3249 -2.21425 3.73033 0
M  V30 32561 H 3249.67 -3.82951 3.97558 0
M  V30 32562 H 3252.15 -3.6149 2.06069 0
M  V30 32563 H 3251.02 -4.97292 2.32362 0
M  V30 32564 H 3251.28 -4.36586 0.696096 0
M  V30 32565 N 3250.34 -1.09956 -1.12905 0
M  V30 32566 C 3251.59 -0.838944 -1.84304 0
M  V30 32567 C 3251.92 0.635475 -1.83826 0
M  V30 32568 O 3251.17 1.48416 -1.27558 0
M  V30 32569 C 3251.47 -1.32622 -3.31883 0
M  V30 32570 C 3251.14 -2.8112 -3.52537 0
M  V30 32571 C 3249.8 -3.21674 -3.57882 0
M  V30 32572 C 3252.15 -3.76839 -3.60058 0
M  V30 32573 C 3249.48 -4.56707 -3.68288 0
M  V30 32574 C 3251.83 -5.11668 -3.71992 0
M  V30 32575 C 3250.49 -5.51803 -3.75592 0
M  V30 32576 H 3249.76 -0.306991 -0.674416 0
M  V30 32577 H 3252.41 -1.37529 -1.33259 0
M  V30 32578 H 3250.72 -0.709787 -3.85317 0
M  V30 32579 H 3252.41 -1.10112 -3.85586 0
M  V30 32580 H 3249 -2.48741 -3.49036 0
M  V30 32581 H 3253.19 -3.46618 -3.55203 0
M  V30 32582 H 3248.44 -4.87232 -3.69344 0
M  V30 32583 H 3252.62 -5.85687 -3.76755 0
M  V30 32584 H 3250.24 -6.56432 -3.83407 0
M  V30 32585 N 3251.82 1.30231 -0.887563 0
M  V30 32586 C 3252.77 2.25633 -0.327689 0
M  V30 32587 C 3253.75 1.51377 0.545335 0
M  V30 32588 O 3254.95 1.72665 0.389336 0
M  V30 32589 C 3252.07 3.40278 0.454486 0
M  V30 32590 C 3251.16 4.21886 -0.432772 0
M  V30 32591 N 3251.55 4.81964 -1.53442 0
M  V30 32592 C 3249.85 4.45415 -0.228353 0
M  V30 32593 C 3250.55 5.43126 -2.08302 0
M  V30 32594 N 3249.53 5.25854 -1.37764 0
M  V30 32595 H 3253.33 2.69633 -1.16942 0
M  V30 32596 H 3250.84 1.44701 -0.737257 0
M  V30 32597 H 3252.84 4.07673 0.872238 0
M  V30 32598 H 3251.5 2.97818 1.29362 0
M  V30 32599 H 3252.51 4.81105 -1.91726 0
M  V30 32600 H 3249.19 4.13544 0.573402 0
M  V30 32601 H 3250.58 6.00793 -3.00828 0
M  V30 32602 N 3253.3 0.648782 1.43627 0
M  V30 32603 C 3254.23 -0.0320375 2.33478 0
M  V30 32604 C 3255.21 -0.816579 1.49218 0
M  V30 32605 O 3256.39 -0.778943 1.77894 0
M  V30 32606 C 3253.52 -1.00216 3.32527 0
M  V30 32607 C 3252.48 -0.328044 4.26741 0
M  V30 32608 C 3251.8 -1.40931 5.15793 0
M  V30 32609 C 3253.1 0.776792 5.16491 0
M  V30 32610 H 3254.8 0.718308 2.90656 0
M  V30 32611 H 3252.34 0.346876 1.3976 0
M  V30 32612 H 3254.3 -1.48733 3.9428 0
M  V30 32613 H 3253.02 -1.78362 2.73596 0
M  V30 32614 H 3251.68 0.136633 3.66345 0
M  V30 32615 H 3251.33 -2.18208 4.53204 0
M  V30 32616 H 3251.03 -0.963529 5.79646 0
M  V30 32617 H 3252.55 -1.89592 5.8042 0
M  V30 32618 H 3253.97 0.373979 5.72079 0
M  V30 32619 H 3252.36 1.14677 5.89041 0
M  V30 32620 H 3253.43 1.63663 4.56446 0
M  V30 32621 N 3254.78 -1.52688 0.390421 0
M  V30 32622 C 3256.19 -1.59549 0.0404309 0
M  V30 32623 C 3256.39 -1.40435 -1.445 0
M  V30 32624 O 3255.45 -1.2219 -2.20965 0
M  V30 32625 C 3256.76 -2.96194 0.518613 0
M  V30 32626 C 3258.31 -3.09375 0.474968 0
M  V30 32627 C 3258.78 -4.48472 0.929357 0
M  V30 32628 N 3260.28 -4.54659 0.885415 0
M  V30 32629 C 3261.01 -5.60522 1.2084 0
M  V30 32630 N 3260.51 -6.74026 1.60192 0
M  V30 32631 N 3262.3 -5.50633 1.12958 0
M  V30 32632 H 3254.45 -1.63361 1.35746 0
M  V30 32633 H 3256.71 -0.767496 0.556466 0
M  V30 32634 H 3256.42 -3.15401 1.55612 0
M  V30 32635 H 3256.29 -3.77111 -0.0817127 0
M  V30 32636 H 3258.68 -2.89864 -0.553452 0
M  V30 32637 H 3258.76 -2.30408 1.11111 0
M  V30 32638 H 3258.41 -4.68724 1.95601 0
M  V30 32639 H 3258.34 -5.25906 0.270213 0
M  V30 32640 H 3260.83 -3.73173 0.595852 0
M  V30 32641 H 3261.14 -7.50772 1.83198 0
M  V30 32642 H 3259.48 -6.75354 1.64079 0
M  V30 32643 H 3262.68 -4.60841 0.821155 0
M  V30 32644 H 3262.85 -6.33034 1.38461 0
M  V30 32645 N 3256.25 -0.120276 -1.5714 0
M  V30 32646 C 3257.48 0.548419 -2.00018 0
M  V30 32647 C 3257.9 1.5935 -0.999461 0
M  V30 32648 O 3257.26 1.81277 0.028666 0
M  V30 32649 C 3257.31 1.15009 -3.41768 0
M  V30 32650 O 3256.41 2.2656 -3.44593 0
M  V30 32651 H 3255.76 0.136864 -0.649742 0
M  V30 32652 H 3258.29 -0.209127 -2.03528 0
M  V30 32653 H 3258.3 1.48531 -3.80003 0
M  V30 32654 H 3256.97 0.384608 -4.14118 0
M  V30 32655 H 3255.55 1.94467 -3.18177 0
M  V30 32656 N 3257.73 1.56851 0.153498 0
M  V30 32657 C 3259.14 1.72499 0.714216 0
M  V30 32658 C 3259.49 0.733653 1.81967 0
M  V30 32659 O 3258.62 -0.101142 2.16164 0
M  V30 32660 C 3259.21 3.1277 1.30233 0
M  V30 32661 C 3257.77 3.30042 1.80968 0
M  V30 32662 C 3256.92 2.68434 0.69559 0
M  V30 32663 H 3259.87 1.58536 -0.0721011 0
M  V30 32664 H 3259.89 3.12409 2.17212 0
M  V30 32665 H 3259.4 3.84898 0.497537 0
M  V30 32666 H 3257.51 2.629 2.64035 0
M  V30 32667 H 3257.62 4.37938 1.94287 0
M  V30 32668 H 3255.98 2.28725 1.12057 0
M  V30 32669 H 3256.77 3.43161 -0.0976488 0
M  V30 32670 N 3259.21 -0.42264 1.51827 0
M  V30 32671 C 3260.14 -1.52114 1.77154 0
M  V30 32672 C 3261.12 -1.58323 0.621922 0
M  V30 32673 O 3262.31 -1.73815 0.866148 0
M  V30 32674 C 3259.44 -2.90065 1.90997 0
M  V30 32675 C 3258.39 -2.98712 3.06521 0
M  V30 32676 C 3257.72 -4.38786 3.05567 0
M  V30 32677 C 3259.02 -2.71437 4.46227 0
M  V30 32678 H 3260.71 -1.3117 2.69137 0
M  V30 32679 H 3258.26 -0.629584 1.29508 0
M  V30 32680 H 3260.21 -3.66886 2.07298 0
M  V30 32681 H 3258.93 -3.12272 0.956743 0
M  V30 32682 H 3257.59 -2.24333 2.89949 0
M  V30 32683 H 3257.24 -4.57982 2.07993 0
M  V30 32684 H 3256.94 -4.45498 3.83151 0
M  V30 32685 H 3258.46 -5.17561 3.2398 0
M  V30 32686 H 3259.88 -3.37986 4.63075 0
M  V30 32687 H 3258.28 -2.89542 5.25628 0
M  V30 32688 H 3259.35 -1.66952 4.55253 0
M  V30 32689 N 3260.69 -1.42222 -0.679027 0
M  V30 32690 C 3261.94 -1.42184 -1.43625 0
M  V30 32691 C 3262.26 -0.0377437 -1.94963 0
M  V30 32692 O 3261.53 0.923067 -1.7279 0
M  V30 32693 H 3260.11 -0.523412 -0.532963 0
M  V30 32694 H 3262.77 -1.77606 -0.802618 0
M  V30 32695 H 3261.87 -2.11906 -2.29134 0
M  V30 32696 N 3262.17 0.91492 -1.28324 0
M  V30 32697 C 3263.1 2.02186 -1.07951 0
M  V30 32698 C 3264.11 1.62769 -0.0316029 0
M  V30 32699 O 3265.3 1.76376 -0.274534 0
M  V30 32700 C 3262.4 3.33216 -0.618108 0
M  V30 32701 C 3261.57 4.01251 -1.74116 0
M  V30 32702 C 3260.63 5.10561 -1.27334 0
M  V30 32703 O 3259.66 5.33824 -1.97535 0
M  V30 32704 N 3260.86 5.80341 -0.135902 0
M  V30 32705 H 3263.63 2.20222 -2.03279 0
M  V30 32706 H 3261.19 1.08614 -1.20061 0
M  V30 32707 H 3263.18 4.03668 -0.288764 0
M  V30 32708 H 3261.75 3.1166 0.242293 0
M  V30 32709 H 3260.97 3.24362 -2.24016 0
M  V30 32710 H 3262.26 4.43452 -2.49455 0
M  V30 32711 H 3261.65 5.63909 0.449747 0
M  V30 32712 H 3260.21 6.51662 0.134175 0
M  V30 32713 N 3263.64 1.10553 1.1232 0
M  V30 32714 C 3264.87 0.86964 1.87406 0
M  V30 32715 C 3265.28 -0.583528 1.79977 0
M  V30 32716 O 3264.63 -1.41413 1.17253 0
M  V30 32717 C 3264.69 1.24105 3.37399 0
M  V30 32718 C 3264.35 2.7015 3.68603 0
M  V30 32719 C 3265.35 3.68386 3.66863 0
M  V30 32720 C 3263.03 3.06566 3.97898 0
M  V30 32721 C 3265.03 5.01059 3.93979 0
M  V30 32722 C 3262.71 4.39426 4.24674 0
M  V30 32723 C 3263.71 5.36482 4.22701 0
M  V30 32724 O 3263.4 6.66951 4.48812 0
M  V30 32725 H 3263.13 0.311845 0.599774 0
M  V30 32726 H 3265.69 1.47412 1.43034 0
M  V30 32727 H 3263.92 0.579673 3.82331 0
M  V30 32728 H 3265.61 0.982447 3.93831 0
M  V30 32729 H 3266.37 3.41597 3.44291 0
M  V30 32730 H 3262.25 2.31645 3.98574 0
M  V30 32731 H 3265.79 5.76805 3.92354 0
M  V30 32732 H 3261.69 4.65953 4.46719 0
M  V30 32733 H 3262.46 6.726 4.66425 0
M  V30 32734 N 3265.12 -1.29758 0.894457 0
M  V30 32735 C 3266.07 -2.27869 0.366626 0
M  V30 32736 C 3267.04 -1.56786 -0.548397 0
M  V30 32737 O 3268.22 -1.84799 -0.474771 0
M  V30 32738 C 3265.36 -3.42722 -0.404471 0
M  V30 32739 C 3264.48 -4.28601 0.540849 0
M  V30 32740 C 3263.61 -5.30626 -0.246781 0
M  V30 32741 C 3262.65 -6.0816 0.693401 0
M  V30 32742 N 3261.79 -7.02075 -0.0594956 0
M  V30 32743 H 3266.63 -2.724 1.20839 0
M  V30 32744 H 3264.17 -1.33982 0.607229 0
M  V30 32745 H 3266.12 -4.0808 -0.867549 0
M  V30 32746 H 3264.75 -2.99234 -1.21073 0
M  V30 32747 H 3263.81 -3.63463 1.12244 0
M  V30 32748 H 3265.12 -4.82604 1.26074 0
M  V30 32749 H 3264.27 -6.01777 -0.771292 0
M  V30 32750 H 3263.01 -4.77341 -0.999834 0
M  V30 32751 H 3262.02 -5.35877 1.22946 0
M  V30 32752 H 3263.24 -6.63533 1.4457 0
M  V30 32753 H 3261.19 -6.51166 -0.794911 0
M  V30 32754 H 3261.1 -7.53611 0.600583 0
M  V30 32755 H 3262.37 -7.77454 -0.564441 0
M  V30 32756 N 3266.6 -0.65639 -1.4328 0
M  V30 32757 C 3267.53 0.0196551 -2.33492 0
M  V30 32758 C 3268.51 0.808654 -1.49649 0
M  V30 32759 O 3269.7 0.769498 -1.78304 0
M  V30 32760 C 3266.83 0.984515 -3.33053 0
M  V30 32761 C 3265.78 0.305408 -4.26909 0
M  V30 32762 C 3265.11 1.38193 -5.16533 0
M  V30 32763 C 3266.41 -0.804172 -5.16072 0
M  V30 32764 H 3268.1 -0.733712 -2.90271 0
M  V30 32765 H 3265.65 -0.354283 -1.39574 0
M  V30 32766 H 3267.6 1.4664 -3.95063 0
M  V30 32767 H 3266.32 1.76908 -2.74538 0
M  V30 32768 H 3264.98 -0.156059 -3.66268 0
M  V30 32769 H 3264.63 2.15802 -4.54355 0
M  V30 32770 H 3264.33 0.932776 -5.80149 0
M  V30 32771 H 3265.85 1.86512 -5.81417 0
M  V30 32772 H 3267.27 -0.404312 -5.71873 0
M  V30 32773 H 3265.67 -1.17799 -5.88424 0
M  V30 32774 H 3266.74 -1.66081 -4.55571 0
M  V30 32775 N 3268.08 1.52478 -0.398513 0
M  V30 32776 C 3269.31 2.06111 0.180521 0
M  V30 32777 C 3269.72 1.26948 1.39749 0
M  V30 32778 O 3269.08 0.318529 1.79699 0
M  V30 32779 C 3269.13 3.57421 0.541511 0
M  V30 32780 O 3268.85 4.33588 -0.627119 0
M  V30 32781 C 3270.35 4.27433 1.17542 0
M  V30 32782 H 3267.57 0.670532 0.0250637 0
M  V30 32783 H 3270.12 1.965 -0.566402 0
M  V30 32784 H 3268.27 3.67075 1.23833 0
M  V30 32785 H 3268.69 5.23471 -0.328325 0
M  V30 32786 H 3270.16 5.34516 1.3783 0
M  V30 32787 H 3270.64 3.83232 2.14546 0
M  V30 32788 H 3271.24 4.2212 0.519105 0
M  V30 32789 N 3269.56 0.128608 1.57074 0
M  V30 32790 C 3270.8 -0.527053 1.95521 0
M  V30 32791 C 3271.13 -1.66071 1.01246 0
M  V30 32792 O 3270.39 -1.95663 0.038142 0
M  V30 32793 C 3270.69 -1.09132 3.40331 0
M  V30 32794 C 3270.35 -0.0780246 4.50832 0
M  V30 32795 C 3269.01 0.200578 4.80782 0
M  V30 32796 C 3271.37 0.612011 5.17594 0
M  V30 32797 C 3268.69 1.17534 5.74807 0
M  V30 32798 C 3271.05 1.57546 6.12668 0
M  V30 32799 C 3269.71 1.86196 6.41005 0
M  V30 32800 H 3268.98 -0.192862 0.715461 0
M  V30 32801 H 3271.63 0.211548 1.90328 0
M  V30 32802 H 3269.93 -1.90688 3.42265 0
M  V30 32803 H 3271.63 -1.6069 3.67396 0
M  V30 32804 H 3268.22 -0.305355 4.27511 0
M  V30 32805 H 3272.4 0.409947 4.94604 0
M  V30 32806 H 3267.66 1.40394 5.95063 0
M  V30 32807 H 3271.83 2.11577 6.63482 0
M  V30 32808 H 3269.46 2.61881 7.13668 0
M  V30 32809 N 3271.04 -1.5693 -0.145178 0
M  V30 32810 C 3272.31 -1.74369 -0.886279 0
M  V30 32811 C 3272.69 -0.697116 -1.99257 0
M  V30 32812 O 3272.04 0.28364 -2.26733 0
M  V30 32813 C 3272.25 -3.1849 -1.42706 0
M  V30 32814 C 3273.6 -3.80228 -1.88975 0
M  V30 32815 O 3274.62 -3.21931 -1.52444 0
M  V30 32816 O 3273.48 -4.82645 -2.56352 0
M  V30 32817 H 3270.58 -0.713019 -0.418967 0
M  V30 32818 H 3273.12 -1.69194 -0.130961 0
M  V30 32819 H 3271.89 -3.86161 -0.632097 0
M  V30 32820 H 3271.52 -3.28098 -2.24583 0
M  V30 32821 N 3272.51 0.414582 -1.52049 0
M  V30 32822 C 3273.46 1.50477 -1.75001 0
M  V30 32823 C 3274.43 1.55181 -0.592278 0
M  V30 32824 O 3275.62 1.71838 -0.829234 0
M  V30 32825 C 3272.76 2.8798 -1.90162 0
M  V30 32826 C 3271.87 2.92627 -3.17794 0
M  V30 32827 C 3271 4.21395 -3.23419 0
M  V30 32828 C 3270.04 4.19996 -4.45275 0
M  V30 32829 N 3269.18 5.40326 -4.48321 0
M  V30 32830 H 3274.02 1.30208 -2.68048 0
M  V30 32831 H 3271.56 0.632131 -1.32825 0
M  V30 32832 H 3273.51 3.67794 -1.96935 0
M  V30 32833 H 3272.14 3.06756 -1.00501 0
M  V30 32834 H 3271.2 2.05338 -3.2022 0
M  V30 32835 H 3272.51 2.87458 -4.07639 0
M  V30 32836 H 3271.66 5.09598 -3.29233 0
M  V30 32837 H 3270.4 4.29252 -2.31503 0
M  V30 32838 H 3269.41 3.30184 -4.39612 0
M  V30 32839 H 3270.63 4.13784 -5.38479 0
M  V30 32840 H 3268.58 5.48862 -3.59286 0
M  V30 32841 H 3268.49 5.37129 -5.32004 0
M  V30 32842 H 3269.76 6.30498 -4.58359 0
M  V30 32843 N 3273.99 1.4258 0.671475 0
M  V30 32844 C 3274.95 1.46011 1.76673 0
M  V30 32845 C 3275.95 0.347241 1.57006 0
M  V30 32846 O 3277.14 0.608213 1.63237 0
M  V30 32847 C 3274.28 1.29499 3.15346 0
M  V30 32848 H 3275.47 2.43534 1.75017 0
M  V30 32849 H 3273.02 1.29076 0.881421 0
M  V30 32850 H 3273.76 0.329117 3.22626 0
M  V30 32851 H 3273.54 2.10155 3.31025 0
M  V30 32852 H 3275.03 1.34791 3.95248 0
M  V30 32853 N 3275.47 -0.908102 1.28807 0
M  V30 32854 C 3276.89 -1.18747 1.06636 0
M  V30 32855 C 3277.09 -2.00624 -0.187694 0
M  V30 32856 O 3276.14 -2.36378 -0.887799 0
M  V30 32857 C 3277.45 -1.91657 2.31707 0
M  V30 32858 C 3279 -2.04517 2.36942 0
M  V30 32859 C 3279.48 -2.80836 3.61794 0
M  V30 32860 N 3280.97 -2.88395 3.62467 0
M  V30 32861 C 3281.7 -3.47962 4.55752 0
M  V30 32862 N 3281.2 -4.08764 5.5936 0
M  V30 32863 N 3282.99 -3.45556 4.43337 0
M  V30 32864 H 3275.14 -0.361603 2.09299 0
M  V30 32865 H 3277.41 -0.222652 0.921483 0
M  V30 32866 H 3277.11 -1.38925 3.23098 0
M  V30 32867 H 3276.99 -2.92178 2.38561 0
M  V30 32868 H 3279.37 -2.56428 1.46044 0
M  V30 32869 H 3279.45 -1.03155 2.34079 0
M  V30 32870 H 3279.1 -2.29604 4.53039 0
M  V30 32871 H 3279.03 -3.82526 3.61914 0
M  V30 32872 H 3281.52 -2.45203 2.87548 0
M  V30 32873 H 3281.83 -4.52213 6.26676 0
M  V30 32874 H 3280.18 -4.07251 5.6318 0
M  V30 32875 H 3283.37 -2.97269 3.61592 0
M  V30 32876 H 3283.54 -3.91686 5.16223 0
M  V30 32877 N 3276.95 -1.11147 -1.11732 0
M  V30 32878 C 3277.86 -0.779646 -2.21266 0
M  V30 32879 C 3278.87 0.225955 -1.72527 0
M  V30 32880 O 3280.05 0.0628812 -2.01302 0
M  V30 32881 C 3277.11 -0.224411 -3.45973 0
M  V30 32882 C 3276.18 -1.28823 -4.09516 0
M  V30 32883 C 3275.41 -0.759393 -5.2827 0
M  V30 32884 O 3275.63 0.411625 -5.68913 0
M  V30 32885 O 3274.57 -1.52277 -5.82319 0
M  V30 32886 H 3278.39 -1.69414 -2.52057 0
M  V30 32887 H 3275.98 -0.887137 -1.20209 0
M  V30 32888 H 3277.86 0.081018 -4.21322 0
M  V30 32889 H 3276.53 0.662835 -3.16841 0
M  V30 32890 H 3275.44 -1.64663 -3.35912 0
M  V30 32891 H 3276.77 -2.14875 -4.4282 0
M  V30 32892 N 3278.43 1.29282 -0.901326 0
M  V30 32893 C 3279.39 2.25941 -0.385121 0
M  V30 32894 C 3280.39 1.53419 0.481599 0
M  V30 32895 O 3281.58 1.71829 0.286421 0
M  V30 32896 C 3278.71 3.37927 0.449259 0
M  V30 32897 H 3279.9 2.73118 -1.23882 0
M  V30 32898 H 3277.46 1.40751 -0.679611 0
M  V30 32899 H 3278.19 2.96092 1.32287 0
M  V30 32900 H 3277.98 3.91723 -0.171799 0
M  V30 32901 H 3279.47 4.09833 0.801674 0
M  V30 32902 N 3279.9 0.663979 1.4293 0
M  V30 32903 C 3281.14 0.185514 2.03556 0
M  V30 32904 C 3281.51 -1.1819 1.51311 0
M  V30 32905 O 3282.71 -1.7544 2.03652 0
M  V30 32906 C 3280.98 0.206767 3.56801 0
M  V30 32907 S 3282.54 -0.202278 4.38334 0
M  V30 32908 H 3279.36 0.0772647 0.706789 0
M  V30 32909 H 3281.96 0.874719 1.7484 0
M  V30 32910 H 3280.66 1.20452 3.92326 0
M  V30 32911 H 3280.19 -0.502625 3.90176 0
M  V30 32912 H 3282.21 -1.43845 4.74893 0
M  V30 32913 N 3281.38 -1.52265 0.406593 0
M  V30 32914 C 3282.34 -2.25536 -0.408212 0
M  V30 32915 C 3283.34 -1.2781 -0.975772 0
M  V30 32916 O 3284.53 -1.51771 -0.85505 0
M  V30 32917 C 3281.67 -3.02367 -1.57438 0
M  V30 32918 H 3282.86 -2.9899 0.233511 0
M  V30 32919 H 3280.41 -1.55489 0.159059 0
M  V30 32920 H 3281.15 -2.33256 -2.25304 0
M  V30 32921 H 3280.93 -3.74114 -1.17393 0
M  V30 32922 H 3282.42 -3.57952 -2.15082 0
M  V30 32923 N 3282.86 -0.136936 -1.57004 0
M  V30 32924 C 3283.81 0.823746 -2.17525 0
M  V30 32925 C 3284.8 1.26256 -1.12942 0
M  V30 32926 O 3286.01 1.23221 -1.31212 0
M  V30 32927 H 3282.38 0.283815 -0.696386 0
M  V30 32928 H 3284.35 0.289 -2.96997 0
M  V30 32929 C 3283.1 2.05688 -2.80335 0
M  V30 32930 H 3282.43 1.72819 -3.60519 0
M  V30 32931 H 3283.87 2.70872 -3.26197 0
M  V30 32932 C 3282.33 2.85834 -1.78327 0
M  V30 32933 O 3282.86 3.81836 -1.24757 0
M  V30 32934 N 3281.06 2.50172 -1.47858 0
M  V30 32935 H 3280.61 1.7217 -1.91613 0
M  V30 32936 H 3280.57 3.04091 -0.798518 0
M  V30 32937 N 3284.34 1.57005 0.136853 0
M  V30 32938 C 3285.25 2.02302 1.18789 0
M  V30 32939 C 3286.26 0.940206 1.46411 0
M  V30 32940 O 3287.44 1.25043 1.5788 0
M  V30 32941 C 3284.51 2.40315 2.49899 0
M  V30 32942 C 3283.57 3.62594 2.29834 0
M  V30 32943 C 3282.8 3.98785 3.54692 0
M  V30 32944 O 3283.02 3.35518 4.61285 0
M  V30 32945 O 3281.96 4.91982 3.46753 0
M  V30 32946 H 3285.78 2.92044 0.833294 0
M  V30 32947 H 3283.37 1.4533 0.346335 0
M  V30 32948 H 3285.25 2.65579 3.27178 0
M  V30 32949 H 3283.92 1.53725 2.84869 0
M  V30 32950 H 3282.83 3.42504 1.50472 0
M  V30 32951 H 3284.16 4.49834 1.99776 0
M  V30 32952 N 3285.82 -0.406513 1.52267 0
M  V30 32953 C 3286.78 -1.47811 1.7517 0
M  V30 32954 C 3287.78 -1.483 0.621601 0
M  V30 32955 O 3288.97 -1.49778 0.889502 0
M  V30 32956 C 3286.1 -2.87205 1.83647 0
M  V30 32957 H 3287.29 -1.28794 2.70836 0
M  V30 32958 H 3284.85 -0.637171 1.42723 0
M  V30 32959 H 3285.58 -3.11589 0.899048 0
M  V30 32960 H 3285.37 -2.88253 2.65806 0
M  V30 32961 H 3286.86 -3.64884 2.031 0
M  V30 32962 N 3287.29 -1.42934 -0.663904 0
M  V30 32963 C 3288.26 -1.46946 -1.75896 0
M  V30 32964 C 3289.26 -0.355562 -1.5682 0
M  V30 32965 O 3290.45 -0.616862 -1.62912 0
M  V30 32966 C 3287.58 -1.3117 -3.14654 0
M  V30 32967 H 3288.77 -2.44459 -1.73723 0
M  V30 32968 H 3286.33 -1.29542 -0.874564 0
M  V30 32969 H 3287.06 -0.346222 -3.22447 0
M  V30 32970 H 3286.85 -2.11908 -3.29905 0
M  V30 32971 H 3288.34 -1.36885 -3.94528 0
M  V30 32972 N 3288.77 0.901258 -1.29287 0
M  V30 32973 C 3290 1.68509 -1.20051 0
M  V30 32974 C 3290.42 1.8728 0.239095 0
M  V30 32975 O 3289.77 1.40871 1.16024 0
M  V30 32976 C 3289.82 3.07045 -1.90803 0
M  V30 32977 O 3289.54 2.89132 -3.29142 0
M  V30 32978 C 3291.05 4.0145 -1.88024 0
M  V30 32979 H 3288.27 0.526353 -0.416166 0
M  V30 32980 H 3290.81 1.12716 -1.70632 0
M  V30 32981 H 3288.96 3.59618 -1.44061 0
M  V30 32982 H 3289.38 3.76902 -3.64754 0
M  V30 32983 H 3290.85 4.96078 -2.42097 0
M  V30 32984 H 3291.33 4.30789 -0.855416 0
M  V30 32985 H 3291.94 3.54808 -2.34503 0
M  V30 32986 N 3290.25 1.11738 1.11141 0
M  V30 32987 C 3291.18 0.722337 2.16466 0
M  V30 32988 C 3292.16 -0.282978 1.60119 0
M  V30 32989 O 3293.35 -0.178663 1.87651 0
M  V30 32990 C 3290.47 0.0679934 3.38632 0
M  V30 32991 C 3289.52 1.03895 4.13652 0
M  V30 32992 S 3290.35 2.56298 4.70182 0
M  V30 32993 C 3291.51 1.92173 5.95668 0
M  V30 32994 H 3291.74 1.61452 2.49641 0
M  V30 32995 H 3289.27 0.93573 1.22815 0
M  V30 32996 H 3291.23 -0.303181 4.09379 0
M  V30 32997 H 3289.89 -0.801186 3.0371 0
M  V30 32998 H 3289.09 0.52861 5.0122 0
M  V30 32999 H 3288.69 1.35271 3.4868 0
M  V30 33000 H 3290.98 1.26006 6.65679 0
M  V30 33001 H 3291.92 2.77752 6.51352 0
M  V30 33002 H 3292.33 1.3806 5.47357 0
M  V30 33003 N 3291.73 -1.28802 0.90817 0
M  V30 33004 C 3292.69 -2.25734 0.397098 0
M  V30 33005 C 3293.69 -1.53672 -0.473456 0
M  V30 33006 O 3294.88 -1.71979 -0.277304 0
M  V30 33007 C 3292.01 -3.3816 -0.431332 0
M  V30 33008 H 3293.21 -2.72457 1.25328 0
M  V30 33009 H 3290.76 -1.40389 0.687066 0
M  V30 33010 H 3291.49 -2.9679 -1.30715 0
M  V30 33011 H 3291.28 -3.91627 0.192571 0
M  V30 33012 H 3292.77 -4.10252 -0.779928 0
M  V30 33013 N 3293.21 -0.67155 -1.42576 0
M  V30 33014 C 3294.43 -0.200767 -2.05924 0
M  V30 33015 C 3294.85 1.1408 -1.50436 0
M  V30 33016 O 3294.21 1.70802 -0.642875 0
M  V30 33017 C 3294.26 -0.123568 -3.61289 0
M  V30 33018 O 3293.98 -1.41212 -4.14718 0
M  V30 33019 C 3295.48 0.3711 -4.41744 0
M  V30 33020 H 3292.7 -0.0984075 -0.663745 0
M  V30 33021 H 3295.24 -0.91737 -1.82769 0
M  V30 33022 H 3293.4 0.543702 -3.83566 0
M  V30 33023 H 3293.81 -1.28334 -5.08557 0
M  V30 33024 H 3295.29 0.374031 -5.50731 0
M  V30 33025 H 3295.76 1.40578 -4.16094 0
M  V30 33026 H 3296.37 -0.264319 -4.24478 0
M  V30 33027 N 3294.68 1.52047 -0.414663 0
M  V30 33028 C 3295.91 2.05992 0.15842 0
M  V30 33029 C 3296.32 1.28417 1.38945 0
M  V30 33030 O 3295.67 0.330759 1.80698 0
M  V30 33031 C 3295.73 3.54979 0.568329 0
M  V30 33032 C 3295.39 4.53645 -0.552734 0
M  V30 33033 C 3296.39 5.00189 -1.418 0
M  V30 33034 C 3294.07 4.97011 -0.727004 0
M  V30 33035 C 3296.07 5.88748 -2.44244 0
M  V30 33036 C 3293.75 5.85365 -1.75474 0
M  V30 33037 C 3294.75 6.31128 -2.61086 0
M  V30 33038 O 3294.44 7.17732 -3.62099 0
M  V30 33039 H 3294.17 0.675659 0.0214627 0
M  V30 33040 H 3296.73 1.96868 -0.58586 0
M  V30 33041 H 3294.96 3.61808 1.36498 0
M  V30 33042 H 3296.65 3.91544 1.06996 0
M  V30 33043 H 3297.41 4.67397 -1.29479 0
M  V30 33044 H 3293.29 4.60946 -0.0702774 0
M  V30 33045 H 3296.83 6.24389 -3.11101 0
M  V30 33046 H 3292.73 6.1757 -1.87824 0
M  V30 33047 H 3293.5 7.35857 -3.58409 0
M  V30 33048 N 3296.16 0.145261 1.56929 0
M  V30 33049 C 3297.11 -0.812198 2.17959 0
M  V30 33050 C 3298.1 -1.25655 1.1361 0
M  V30 33051 O 3299.31 -1.22523 1.31864 0
M  V30 33052 H 3295.69 -0.280118 0.697881 0
M  V30 33053 H 3297.66 -0.273245 2.97146 0
M  V30 33054 C 3296.41 -2.04198 2.81422 0
M  V30 33055 H 3295.73 -1.70905 3.6143 0
M  V30 33056 H 3297.17 -2.69138 3.27629 0
M  V30 33057 C 3295.63 -2.84885 1.7984 0
M  V30 33058 O 3296.16 -3.81169 1.2678 0
M  V30 33059 N 3294.36 -2.49385 1.49183 0
M  V30 33060 H 3293.91 -1.71151 1.92523 0
M  V30 33061 H 3293.87 -3.03663 0.814633 0
M  V30 33062 N 3297.64 -1.57075 -0.128525 0
M  V30 33063 C 3298.57 -1.96275 -1.18359 0
M  V30 33064 C 3299.59 -0.860842 -1.38179 0
M  V30 33065 O 3300.78 -1.13918 -1.37422 0
M  V30 33066 C 3297.88 -2.23759 -2.54529 0
M  V30 33067 C 3297.05 -3.55062 -2.5544 0
M  V30 33068 C 3296.11 -3.70871 -3.73285 0
M  V30 33069 O 3295.13 -4.4308 -3.57308 0
M  V30 33070 N 3296.34 -3.08921 -4.91475 0
M  V30 33071 H 3299.1 -2.87387 -0.850225 0
M  V30 33072 H 3296.66 -1.58748 -0.317904 0
M  V30 33073 H 3298.65 -2.31559 -3.31908 0
M  V30 33074 H 3297.22 -1.38821 -2.80085 0
M  V30 33075 H 3296.44 -3.58537 -1.63844 0
M  V30 33076 H 3297.73 -4.41384 -2.53096 0
M  V30 33077 H 3297.13 -2.50205 -5.0736 0
M  V30 33078 H 3295.69 -3.22255 -5.66564 0
M  V30 33079 N 3299.12 0.398432 -1.5248 0
M  V30 33080 C 3300.05 1.49276 -1.79552 0
M  V30 33081 C 3301.03 1.57313 -0.647032 0
M  V30 33082 O 3302.22 1.72415 -0.893691 0
M  V30 33083 C 3299.35 2.8699 -1.95587 0
M  V30 33084 C 3298.3 2.93797 -3.11235 0
M  V30 33085 C 3297.63 4.33869 -3.12509 0
M  V30 33086 C 3298.93 2.64304 -4.50489 0
M  V30 33087 H 3300.62 1.26872 -2.7119 0
M  V30 33088 H 3298.17 0.608901 -1.30493 0
M  V30 33089 H 3300.12 3.63542 -2.13108 0
M  V30 33090 H 3298.84 3.10711 -1.0063 0
M  V30 33091 H 3297.5 2.19691 -2.93481 0
M  V30 33092 H 3297.15 4.54615 -2.15253 0
M  V30 33093 H 3296.85 4.39346 -3.9019 0
M  V30 33094 H 3298.37 5.12341 -3.32173 0
M  V30 33095 H 3299.79 3.30576 -4.68393 0
M  V30 33096 H 3298.18 2.81144 -5.30168 0
M  V30 33097 H 3299.25 1.59688 -4.57851 0
M  V30 33098 N 3300.6 1.43284 0.656314 0
M  V30 33099 C 3301.82 1.48384 1.44903 0
M  V30 33100 C 3302.25 0.102026 1.87823 0
M  V30 33101 O 3301.61 -0.903569 1.57179 0
M  V30 33102 C 3301.65 2.43219 2.66227 0
M  V30 33103 O 3300.76 1.91632 3.65173 0
M  V30 33104 H 3300.1 0.502022 0.434592 0
M  V30 33105 H 3302.63 1.88167 0.803396 0
M  V30 33106 H 3302.64 2.6042 3.14079 0
M  V30 33107 H 3301.31 3.43602 2.3433 0
M  V30 33108 H 3299.89 1.84077 3.24299 0
M  V30 33109 N 3302.08 -0.894389 1.29763 0
M  V30 33110 C 3303.31 -1.67627 1.20768 0
M  V30 33111 C 3303.71 -1.87755 -0.233401 0
M  V30 33112 O 3303.06 -1.41832 -1.16744 0
M  V30 33113 C 3303.12 -3.07916 1.85548 0
M  V30 33114 C 3302.78 -3.10998 3.34857 0
M  V30 33115 C 3303.78 -2.90751 4.30999 0
M  V30 33116 C 3301.46 -3.32895 3.76147 0
M  V30 33117 C 3303.46 -2.92342 5.66405 0
M  V30 33118 C 3301.15 -3.34117 5.11673 0
M  V30 33119 C 3302.14 -3.13863 6.06613 0
M  V30 33120 O 3301.83 -3.14884 7.39664 0
M  V30 33121 H 3301.56 -0.530147 0.419428 0
M  V30 33122 H 3304.12 -1.12645 1.71756 0
M  V30 33123 H 3302.35 -3.64522 1.29077 0
M  V30 33124 H 3304.04 -3.68214 1.70801 0
M  V30 33125 H 3304.8 -2.73641 4.00432 0
M  V30 33126 H 3300.68 -3.47698 3.027 0
M  V30 33127 H 3304.23 -2.76452 6.40484 0
M  V30 33128 H 3300.12 -3.5076 5.41883 0
M  V30 33129 H 3300.89 -3.31114 7.48536 0
M  V30 33130 N 3303.55 -1.12326 -1.10547 0
M  V30 33131 C 3304.52 -0.793193 -2.15037 0
M  V30 33132 C 3305.52 0.191891 -1.59651 0
M  V30 33133 O 3306.71 -0.0337569 -1.74167 0
M  V30 33134 C 3303.84 -0.17848 -3.40432 0
M  V30 33135 H 3305.03 -1.71896 -2.45747 0
M  V30 33136 H 3302.58 -0.926355 -1.2589 0
M  V30 33137 H 3303.32 0.757067 -3.15339 0
M  V30 33138 H 3303.1 -0.887712 -3.81919 0
M  V30 33139 H 3304.59 0.035999 -4.17584 0
M  V30 33140 N 3305.03 1.28319 -0.914988 0
M  V30 33141 C 3305.96 2.26329 -0.361617 0
M  V30 33142 C 3306.98 1.54912 0.500609 0
M  V30 33143 O 3308.17 1.75693 0.315289 0
M  V30 33144 C 3305.27 3.35167 0.501634 0
M  V30 33145 C 3304.44 4.36089 -0.338366 0
M  V30 33146 C 3303.5 5.24184 0.460174 0
M  V30 33147 O 3302.52 5.69057 -0.127694 0
M  V30 33148 N 3303.73 5.53083 1.76293 0
M  V30 33149 H 3306.49 2.74449 -1.20407 0
M  V30 33150 H 3304.05 1.41813 -0.781067 0
M  V30 33151 H 3306.04 3.91039 1.04261 0
M  V30 33152 H 3304.61 2.86746 1.2448 0
M  V30 33153 H 3303.83 3.79661 -1.06071 0
M  V30 33154 H 3305.12 5.0054 -0.913084 0
M  V30 33155 H 3304.52 5.18462 2.26305 0
M  V30 33156 H 3303.08 6.11708 2.2507 0
M  V30 33157 N 3306.51 0.679102 1.42218 0
M  V30 33158 C 3307.46 0.00344373 2.308 0
M  V30 33159 C 3308.43 -0.788308 1.46202 0
M  V30 33160 O 3309.61 -0.759685 1.75024 0
M  V30 33161 C 3306.75 -0.938795 3.32085 0
M  V30 33162 C 3305.86 -0.140409 4.31772 0
M  V30 33163 C 3305 -1.07879 5.2013 0
M  V30 33164 C 3304.04 -0.272343 6.11494 0
M  V30 33165 N 3303.18 -1.16366 6.9239 0
M  V30 33166 H 3308.02 0.764637 2.88023 0
M  V30 33167 H 3305.55 0.388805 1.41869 0
M  V30 33168 H 3307.51 -1.49896 3.89342 0
M  V30 33169 H 3306.14 -1.66657 2.76451 0
M  V30 33170 H 3305.19 0.536442 3.76599 0
M  V30 33171 H 3306.5 0.485521 4.96431 0
M  V30 33172 H 3305.66 -1.70874 5.8214 0
M  V30 33173 H 3304.4 -1.7386 4.55658 0
M  V30 33174 H 3303.4 0.37079 5.48548 0
M  V30 33175 H 3304.63 0.383434 6.78017 0
M  V30 33176 H 3302.57 -1.80979 6.30542 0
M  V30 33177 H 3302.49 -0.59291 7.53671 0
M  V30 33178 H 3303.76 -1.78094 7.58883 0
M  V30 33179 N 3307.99 -1.51825 0.42272 0
M  V30 33180 C 3308.95 -2.25956 -0.384268 0
M  V30 33181 C 3309.95 -1.28837 -0.962161 0
M  V30 33182 O 3311.14 -1.5267 -0.838905 0
M  V30 33183 C 3308.27 -3.0402 -1.54222 0
M  V30 33184 H 3309.47 -2.98725 0.26521 0
M  V30 33185 H 3307.02 -1.55311 0.175542 0
M  V30 33186 H 3307.75 -2.35633 -2.22817 0
M  V30 33187 H 3307.54 -3.75338 -1.13418 0
M  V30 33188 H 3309.03 -3.60213 -2.11273 0
M  V30 33189 N 3309.47 -0.153581 -1.5685 0
M  V30 33190 C 3310.41 0.783588 -2.17091 0
M  V30 33191 C 3311.38 1.2395 -1.10569 0
M  V30 33192 O 3312.57 1.31086 -1.38641 0
M  V30 33193 C 3309.71 2.01468 -2.80187 0
M  V30 33194 C 3308.82 1.60396 -4.0112 0
M  V30 33195 C 3307.96 2.78735 -4.52195 0
M  V30 33196 C 3306.99 2.34069 -5.65578 0
M  V30 33197 N 3306.13 3.45439 -6.11242 0
M  V30 33198 H 3310.97 0.263075 -2.96837 0
M  V30 33199 H 3308.51 0.118134 -1.46625 0
M  V30 33200 H 3310.47 2.73648 -3.14917 0
M  V30 33201 H 3309.1 2.50919 -2.03075 0
M  V30 33202 H 3308.15 0.779565 -3.72326 0
M  V30 33203 H 3309.46 1.23596 -4.83245 0
M  V30 33204 H 3308.61 3.59097 -4.89014 0
M  V30 33205 H 3307.35 3.18784 -3.69091 0
M  V30 33206 H 3306.36 1.52149 -5.28328 0
M  V30 33207 H 3307.58 1.95098 -6.50472 0
M  V30 33208 H 3305.53 3.85097 -5.31071 0
M  V30 33209 H 3305.45 3.12675 -6.8831 0
M  V30 33210 H 3306.71 4.26138 -6.52707 0
M  V30 33211 N 3310.94 1.57141 0.120193 0
M  V30 33212 C 3312.17 1.887 0.841186 0
M  V30 33213 C 3312.58 0.7428 1.74009 0
M  V30 33214 O 3311.92 -0.295465 1.81308 0
M  V30 33215 C 3311.99 3.1526 1.72776 0
M  V30 33216 C 3311.65 4.45851 1.00328 0
M  V30 33217 C 3312.65 5.18756 0.344643 0
M  V30 33218 C 3310.33 4.92551 0.984812 0
M  V30 33219 C 3312.33 6.36582 -0.322776 0
M  V30 33220 C 3310.01 6.10295 0.313594 0
M  V30 33221 C 3311.01 6.82158 -0.339046 0
M  V30 33222 O 3310.7 7.97662 -0.999557 0
M  V30 33223 H 3310.43 0.629187 0.247184 0
M  V30 33224 H 3312.99 2.05108 0.109506 0
M  V30 33225 H 3311.22 2.94931 2.50105 0
M  V30 33226 H 3312.9 3.32849 2.32307 0
M  V30 33227 H 3313.67 4.83732 0.350538 0
M  V30 33228 H 3309.55 4.36521 1.48223 0
M  V30 33229 H 3313.09 6.92612 -0.832765 0
M  V30 33230 H 3308.99 6.44777 0.305459 0
M  V30 33231 H 3309.76 8.13493 -0.903913 0
M  V30 33232 N 3312.42 -0.39034 1.5269 0
M  V30 33233 C 3313.37 -1.47627 1.73753 0
M  V30 33234 C 3314.36 -1.49629 0.591598 0
M  V30 33235 O 3315.55 -1.55288 0.849381 0
M  V30 33236 C 3312.68 -2.85355 1.9086 0
M  V30 33237 C 3311.76 -2.87927 3.11382 0
M  V30 33238 N 3312.15 -2.60173 4.33756 0
M  V30 33239 C 3310.45 -3.19095 3.11599 0
M  V30 33240 C 3311.15 -2.69794 5.1535 0
M  V30 33241 N 3310.13 -3.03468 4.51008 0
M  V30 33242 H 3313.93 -1.24993 2.65996 0
M  V30 33243 H 3311.45 -0.598274 1.50978 0
M  V30 33244 H 3313.44 -3.63539 2.04072 0
M  V30 33245 H 3312.1 -3.08973 0.998295 0
M  V30 33246 H 3313.11 -2.34218 4.61911 0
M  V30 33247 H 3309.79 -3.48187 2.30374 0
M  V30 33248 H 3311.18 -2.51891 6.22897 0
M  V30 33249 N 3313.9 -1.4363 -0.648706 0
M  V30 33250 C 3314.83 -1.5195 -1.77295 0
M  V30 33251 C 3315.81 -0.373814 -1.65942 0
M  V30 33252 O 3317 -0.591629 -1.84969 0
M  V30 33253 C 3314.13 -1.44643 -3.15746 0
M  V30 33254 C 3313.08 -2.57508 -3.41868 0
M  V30 33255 C 3312.41 -2.35254 -4.80166 0
M  V30 33256 C 3313.71 -3.99737 -3.36166 0
M  V30 33257 H 3315.4 -2.46048 -1.70589 0
M  V30 33258 H 3312.95 -1.18422 -0.819285 0
M  V30 33259 H 3314.9 -1.49067 -3.94153 0
M  V30 33260 H 3313.62 -0.470523 -3.23193 0
M  V30 33261 H 3312.28 -2.52444 -2.65833 0
M  V30 33262 H 3311.93 -1.35896 -4.84295 0
M  V30 33263 H 3311.63 -3.10914 -4.98604 0
M  V30 33264 H 3313.15 -2.41469 -5.60825 0
M  V30 33265 H 3314.57 -4.06264 -4.04503 0
M  V30 33266 H 3312.97 -4.75459 -3.6614 0
M  V30 33267 H 3314.04 -4.24553 -2.3427 0
M  V30 33268 N 3315.38 0.887495 -1.30236 0
M  V30 33269 C 3316.62 1.65326 -1.20194 0
M  V30 33270 C 3316.98 1.90493 0.240087 0
M  V30 33271 O 3318.18 2.6477 0.463697 0
M  V30 33272 C 3316.45 2.95855 -2.00511 0
M  V30 33273 S 3318.01 3.86831 -2.0714 0
M  V30 33274 H 3314.83 0.567464 -0.428376 0
M  V30 33275 H 3317.43 1.05361 -1.64679 0
M  V30 33276 H 3316.14 2.75261 -3.04401 0
M  V30 33277 H 3315.67 3.60854 -1.56678 0
M  V30 33278 H 3317.68 4.81547 -1.19695 0
M  V30 33279 N 3316.86 1.12911 1.0995 0
M  V30 33280 C 3318.08 0.910854 1.86328 0
M  V30 33281 C 3318.51 -0.534842 1.80336 0
M  V30 33282 O 3317.86 -1.37906 1.17693 0
M  V30 33283 C 3317.91 1.39654 3.32459 0
M  V30 33284 O 3317.02 0.578264 4.08326 0
M  V30 33285 H 3316.36 0.32686 0.577978 0
M  V30 33286 H 3318.89 1.50244 1.3888 0
M  V30 33287 H 3318.9 1.39781 3.83308 0
M  V30 33288 H 3317.57 2.44919 3.36136 0
M  V30 33289 H 3316.15 0.644411 3.6729 0
M  V30 33290 N 3318.33 -1.27832 0.92178 0
M  V30 33291 C 3319.3 -2.253 0.421017 0
M  V30 33292 C 3320.3 -1.54165 -0.457131 0
M  V30 33293 O 3321.49 -1.72263 -0.259048 0
M  V30 33294 C 3318.62 -3.38599 -0.395441 0
M  V30 33295 H 3319.81 -2.71112 1.28211 0
M  V30 33296 H 3317.37 -1.39652 0.701917 0
M  V30 33297 H 3318.1 -2.98159 -1.2756 0
M  V30 33298 H 3317.89 -3.91401 0.234097 0
M  V30 33299 H 3319.38 -4.11056 -0.736371 0
M  V30 33300 N 3319.81 -0.686634 -1.41856 0
M  V30 33301 C 3321.06 -0.213414 -2.0097 0
M  V30 33302 C 3321.38 1.18818 -1.5462 0
M  V30 33303 O 3320.65 1.80006 -0.772948 0
M  V30 33304 H 3319.23 -0.0759099 -0.743133 0
M  V30 33305 H 3321.89 -0.885794 -1.73608 0
M  V30 33306 H 3320.99 -0.223881 -3.11296 0
M  V30 33307 N 3321.29 1.51599 -0.430766 0
M  V30 33308 C 3322.54 2.02982 0.130388 0
M  V30 33309 C 3322.89 1.30957 1.40954 0
M  V30 33310 O 3322.18 0.413729 1.8708 0
M  V30 33311 C 3322.38 3.55033 0.410631 0
M  V30 33312 C 3322.21 4.41789 -0.839809 0
M  V30 33313 C 3320.98 4.86334 -1.37141 0
M  V30 33314 C 3323.18 4.8454 -1.7241 0
M  V30 33315 N 3321.16 5.57282 -2.57507 0
M  V30 33316 C 3322.53 5.54488 -2.77386 0
M  V30 33317 C 3324.58 4.66533 -1.73929 0
M  V30 33318 C 3323.29 6.08339 -3.83819 0
M  V30 33319 C 3325.31 5.21295 -2.79294 0
M  V30 33320 C 3324.67 5.91184 -3.8299 0
M  V30 33321 H 3320.77 0.781951 0.00871781 0
M  V30 33322 H 3323.36 1.85547 -0.589964 0
M  V30 33323 H 3321.53 3.72497 1.10002 0
M  V30 33324 H 3323.26 3.93086 0.962566 0
M  V30 33325 H 3320.02 4.64453 -0.92628 0
M  V30 33326 H 3320.44 5.97387 -3.18525 0
M  V30 33327 H 3325.08 4.11968 -0.950924 0
M  V30 33328 H 3322.8 6.61963 -4.63498 0
M  V30 33329 H 3326.39 5.09218 -2.81404 0
M  V30 33330 H 3325.27 6.32799 -4.6318 0
M  V30 33331 N 3322.77 0.161897 1.56766 0
M  V30 33332 C 3323.7 -0.767879 2.20513 0
M  V30 33333 C 3324.68 -1.2461 1.15785 0
M  V30 33334 O 3325.86 -1.30097 1.44182 0
M  V30 33335 C 3322.99 -2.0012 2.83847 0
M  V30 33336 C 3321.95 -1.65919 3.94531 0
M  V30 33337 C 3321.27 -2.96638 4.44871 0
M  V30 33338 C 3322.57 -0.894406 5.14585 0
M  V30 33339 H 3324.27 -0.236555 2.98464 0
M  V30 33340 H 3321.81 -0.112338 1.43561 0
M  V30 33341 H 3323.77 -2.65658 3.27114 0
M  V30 33342 H 3322.49 -2.5565 2.0325 0
M  V30 33343 H 3321.15 -1.02753 3.51905 0
M  V30 33344 H 3320.8 -3.50189 3.61077 0
M  V30 33345 H 3320.5 -2.74512 5.19536 0
M  V30 33346 H 3322.02 -3.63222 4.90818 0
M  V30 33347 H 3323.44 -1.45218 5.54603 0
M  V30 33348 H 3321.83 -0.772531 5.95107 0
M  V30 33349 H 3322.9 0.111071 4.84773 0
M  V30 33350 N 3324.25 -1.57203 -0.111858 0
M  V30 33351 C 3325.16 -2.04167 -1.15556 0
M  V30 33352 C 3326.17 -0.96338 -1.44897 0
M  V30 33353 O 3327.35 -1.27539 -1.55871 0
M  V30 33354 C 3324.41 -2.44261 -2.46044 0
M  V30 33355 C 3323.47 -3.66205 -2.24037 0
M  V30 33356 C 3322.71 -4.04377 -3.48303 0
M  V30 33357 O 3322.93 -3.42814 -4.55889 0
M  V30 33358 O 3321.86 -4.97436 -3.38882 0
M  V30 33359 H 3325.69 -2.93333 -0.786727 0
M  V30 33360 H 3323.28 -1.45863 -0.32317 0
M  V30 33361 H 3325.16 -2.70751 -3.22912 0
M  V30 33362 H 3323.83 -1.58238 -2.82387 0
M  V30 33363 H 3322.74 -3.44854 -1.45004 0
M  V30 33364 H 3324.07 -4.52955 -1.92594 0
M  V30 33365 N 3325.72 0.382237 -1.52894 0
M  V30 33366 C 3326.95 1.14763 -1.72154 0
M  V30 33367 C 3327.37 1.83531 -0.442943 0
M  V30 33368 O 3326.72 1.72936 0.583055 0
M  V30 33369 C 3326.78 2.19057 -2.8757 0
M  V30 33370 O 3326.5 1.53092 -4.10481 0
M  V30 33371 C 3328 3.08272 -3.18565 0
M  V30 33372 H 3325.22 0.343822 -0.576218 0
M  V30 33373 H 3327.76 0.446238 -1.99572 0
M  V30 33374 H 3325.92 2.84821 -2.62594 0
M  V30 33375 H 3326.33 2.22446 -4.74993 0
M  V30 33376 H 3327.8 3.77466 -4.02769 0
M  V30 33377 H 3328.28 3.72157 -2.33229 0
M  V30 33378 H 3328.89 2.48144 -3.45405 0
M  V30 33379 N 3327.2 1.43972 0.64108 0
M  V30 33380 C 3328.45 1.45942 1.39805 0
M  V30 33381 C 3328.77 0.0894216 1.94795 0
M  V30 33382 O 3328.04 -0.876931 1.75176 0
M  V30 33383 H 3326.62 0.537358 0.518898 0
M  V30 33384 H 3329.28 1.79672 0.755246 0
M  V30 33385 H 3328.38 2.17907 2.23435 0
M  V30 33386 N 3328.68 -0.880575 1.30704 0
M  V30 33387 C 3330.1 -1.16458 1.09131 0
M  V30 33388 C 3330.3 -2.00977 -0.145096 0
M  V30 33389 O 3329.35 -2.38208 -0.83746 0
M  V30 33390 C 3330.67 -1.86699 2.3572 0
M  V30 33391 C 3332.21 -1.99445 2.41227 0
M  V30 33392 C 3332.69 -2.73099 3.6767 0
M  V30 33393 N 3334.18 -2.80642 3.68503 0
M  V30 33394 C 3334.92 -3.38217 4.6303 0
M  V30 33395 N 3334.41 -3.96807 5.67905 0
M  V30 33396 N 3336.2 -3.36074 4.50567 0
M  V30 33397 H 3328.36 -0.317127 2.10019 0
M  V30 33398 H 3330.62 -0.203056 0.925998 0
M  V30 33399 H 3330.32 -1.32041 3.25973 0
M  V30 33400 H 3330.2 -2.87053 2.44705 0
M  V30 33401 H 3332.59 -2.53272 1.51451 0
M  V30 33402 H 3332.67 -0.981663 2.36214 0
M  V30 33403 H 3332.31 -2.19943 4.57807 0
M  V30 33404 H 3332.24 -3.74763 3.69946 0
M  V30 33405 H 3334.73 -2.39048 2.92685 0
M  V30 33406 H 3335.04 -4.38819 6.36127 0
M  V30 33407 H 3333.39 -3.95213 5.71692 0
M  V30 33408 H 3336.58 -2.89532 3.67816 0
M  V30 33409 H 3336.75 -3.80648 5.24415 0
M  V30 33410 N 3330.16 -1.13492 -1.09349 0
M  V30 33411 C 3331.41 -0.898484 -1.81811 0
M  V30 33412 C 3331.74 0.573926 -1.85526 0
M  V30 33413 O 3331.01 1.42475 -1.32405 0
M  V30 33414 C 3331.3 -1.488 -3.27918 0
M  V30 33415 C 3331.15 -3.02958 -3.32471 0
M  V30 33416 C 3332.47 -1.15685 -4.24623 0
M  V30 33417 H 3329.59 -0.327841 -0.660068 0
M  V30 33418 H 3332.23 -1.40333 -1.28088 0
M  V30 33419 H 3330.38 -1.05865 -3.73798 0
M  V30 33420 H 3332.05 -3.54654 -2.94988 0
M  V30 33421 H 3330.29 -3.37908 -2.72031 0
M  V30 33422 H 3330.97 -3.39306 -4.35403 0
M  V30 33423 H 3333.44 -1.52788 -3.87034 0
M  V30 33424 H 3332.32 -1.5958 -5.25191 0
M  V30 33425 H 3332.58 -0.070671 -4.42044 0
M  V30 33426 N 3331.64 1.27341 -0.928546 0
M  V30 33427 C 3332.6 2.25074 -0.43296 0
M  V30 33428 C 3333.6 1.54406 0.448949 0
M  V30 33429 O 3334.79 1.72398 0.249909 0
M  V30 33430 C 3331.92 3.38804 0.377479 0
M  V30 33431 H 3333.12 2.70429 -1.29647 0
M  V30 33432 H 3330.67 1.39278 -0.709313 0
M  V30 33433 H 3331.4 2.98832 1.25977 0
M  V30 33434 H 3331.19 3.91271 -0.254851 0
M  V30 33435 H 3332.68 4.11441 0.714562 0
M  V30 33436 N 3333.12 0.694147 1.4149 0
M  V30 33437 C 3334.35 0.233164 2.0528 0
M  V30 33438 C 3334.75 -1.12214 1.52331 0
M  V30 33439 O 3334.1 -1.71209 0.66582 0
M  V30 33440 C 3334.16 0.111782 3.59326 0
M  V30 33441 C 3333.82 1.3989 4.35063 0
M  V30 33442 C 3334.82 2.33645 4.64441 0
M  V30 33443 C 3332.5 1.65188 4.74361 0
M  V30 33444 C 3334.5 3.50961 5.32076 0
M  V30 33445 C 3332.19 2.82789 5.41732 0
M  V30 33446 C 3333.18 3.75498 5.70517 0
M  V30 33447 O 3332.87 4.9104 6.36502 0
M  V30 33448 H 3332.6 0.10643 0.667569 0
M  V30 33449 H 3335.16 0.946852 1.82274 0
M  V30 33450 H 3333.39 -0.657663 3.81067 0
M  V30 33451 H 3335.08 -0.311835 4.047 0
M  V30 33452 H 3335.84 2.15358 4.34564 0
M  V30 33453 H 3331.72 0.93889 4.51338 0
M  V30 33454 H 3335.27 4.23343 5.54461 0
M  V30 33455 H 3331.16 3.00994 5.71028 0
M  V30 33456 H 3331.93 4.90836 6.54998 0
M  V30 33457 N 3334.59 -1.51368 0.438799 0
M  V30 33458 C 3336 -1.86685 -0.0239811 0
M  V30 33459 C 3336.36 -1.35586 -1.41813 0
M  V30 33460 O 3335.48 -0.707268 -2.04516 0
M  V30 33461 C 3336.08 -3.38763 -0.0502932 0
M  V30 33462 C 3334.63 -3.73609 -0.457491 0
M  V30 33463 C 3333.78 -2.75096 0.3489 0
M  V30 33464 H 3336.73 -1.44572 0.654577 0
M  V30 33465 H 3336.75 -3.70666 -0.859469 0
M  V30 33466 H 3336.27 -3.75924 0.964517 0
M  V30 33467 H 3334.37 -3.42038 -1.47785 0
M  V30 33468 H 3334.48 -4.78757 -0.181272 0
M  V30 33469 H 3332.84 -2.53968 -0.192992 0
M  V30 33470 H 3333.63 -3.151 1.36261 0
M  V30 33471 N 3336.07 -0.170208 -1.56678 0
M  V30 33472 C 3337.3 0.481327 -2.01223 0
M  V30 33473 C 3337.71 1.56881 -1.05042 0
M  V30 33474 O 3337.07 1.82428 -0.0511072 0
M  V30 33475 C 3337.12 1.06067 -3.4559 0
M  V30 33476 O 3336.84 0.0165984 -4.38097 0
M  V30 33477 C 3338.34 1.79054 -4.0553 0
M  V30 33478 H 3335.56 0.123289 -0.659576 0
M  V30 33479 H 3338.11 -0.271612 -2.02688 0
M  V30 33480 H 3336.26 1.76411 -3.44903 0
M  V30 33481 H 3336.68 0.444184 -5.22616 0
M  V30 33482 H 3338.15 2.14852 -5.08471 0
M  V30 33483 H 3338.63 2.68513 -3.47559 0
M  V30 33484 H 3339.23 1.13354 -4.09916 0
M  V30 33485 N 3337.55 1.5726 0.10352 0
M  V30 33486 C 3338.51 2.00509 1.11036 0
M  V30 33487 C 3339.51 0.897384 1.3343 0
M  V30 33488 O 3340.7 1.16307 1.29686 0
M  V30 33489 C 3337.83 2.35856 2.4614 0
M  V30 33490 H 3339.03 2.90671 0.738281 0
M  V30 33491 H 3336.58 1.5237 0.348308 0
M  V30 33492 H 3337.32 1.48622 2.8824 0
M  V30 33493 H 3337.1 3.16658 2.31236 0
M  V30 33494 H 3338.59 2.70003 3.18572 0
M  V30 33495 N 3339.03 -0.374123 1.53095 0
M  V30 33496 C 3340.27 -1.11766 1.68863 0
M  V30 33497 C 3340.6 -1.89549 0.436066 0
M  V30 33498 O 3339.86 -1.8685 -0.581846 0
M  V30 33499 C 3340.16 -2.11044 2.88436 0
M  V30 33500 C 3339.82 -1.49806 4.25287 0
M  V30 33501 C 3338.48 -1.32833 4.62503 0
M  V30 33502 C 3340.84 -1.05424 5.10427 0
M  V30 33503 C 3338.16 -0.700465 5.82504 0
M  V30 33504 C 3340.52 -0.440414 6.31065 0
M  V30 33505 C 3339.18 -0.258098 6.67001 0
M  V30 33506 H 3338.45 -0.40898 0.617913 0
M  V30 33507 H 3341.1 -0.400467 1.87266 0
M  V30 33508 H 3339.4 -2.89036 2.6451 0
M  V30 33509 H 3341.1 -2.68511 2.9783 0
M  V30 33510 H 3337.69 -1.64009 3.95979 0
M  V30 33511 H 3341.87 -1.17333 4.82231 0
M  V30 33512 H 3337.13 -0.547545 6.08943 0
M  V30 33513 H 3341.3 -0.0882738 6.96344 0
M  V30 33514 H 3338.93 0.230487 7.59851 0
M  V30 33515 N 3340.51 -1.4431 -0.633436 0
M  V30 33516 C 3341.47 -1.50644 -1.7274 0
M  V30 33517 C 3342.47 -0.388746 -1.5603 0
M  V30 33518 O 3343.66 -0.651279 -1.61567 0
M  V30 33519 C 3340.79 -1.37814 -3.11801 0
M  V30 33520 H 3341.98 -2.48089 -1.68499 0
M  V30 33521 H 3339.54 -1.31368 -0.846889 0
M  V30 33522 H 3340.27 -0.414539 -3.2164 0
M  V30 33523 H 3340.06 -2.18858 -3.25336 0
M  V30 33524 H 3341.55 -1.45223 -3.91536 0
M  V30 33525 N 3341.98 0.873632 -1.3117 0
M  V30 33526 C 3343.21 1.6645 -1.23731 0
M  V30 33527 C 3343.63 1.87088 0.194836 0
M  V30 33528 O 3342.99 1.41 1.13967 0
M  V30 33529 C 3343.04 3.01186 -1.9829 0
M  V30 33530 O 3342.14 3.9078 -1.31774 0
M  V30 33531 H 3341.49 0.508183 -0.427371 0
M  V30 33532 H 3344.02 1.08952 -1.73178 0
M  V30 33533 H 3344.03 3.51149 -2.07746 0
M  V30 33534 H 3342.7 2.85485 -3.02442 0
M  V30 33535 H 3341.28 3.49228 -1.30746 0
M  V30 33536 N 3343.46 1.1407 1.08746 0
M  V30 33537 C 3344.39 0.782237 2.15438 0
M  V30 33538 C 3345.41 -0.199272 1.61576 0
M  V30 33539 O 3346.6 0.0219357 1.78487 0
M  V30 33540 C 3343.7 0.139889 3.38611 0
M  V30 33541 C 3342.87 1.15525 4.21868 0
M  V30 33542 C 3341.93 0.537308 5.2345 0
M  V30 33543 O 3340.95 1.19929 5.56422 0
M  V30 33544 N 3342.16 -0.687499 5.76415 0
M  V30 33545 H 3344.92 1.70036 2.46795 0
M  V30 33546 H 3342.48 1.03466 1.24525 0
M  V30 33547 H 3344.47 -0.285928 4.03689 0
M  V30 33548 H 3343.04 -0.681303 3.05085 0
M  V30 33549 H 3342.26 1.75812 3.52822 0
M  V30 33550 H 3343.55 1.84127 4.74315 0
M  V30 33551 H 3342.95 -1.24397 5.51853 0
M  V30 33552 H 3341.51 -1.05588 6.43191 0
M  V30 33553 N 3344.94 -1.26847 0.935286 0
M  V30 33554 C 3345.89 -2.28573 0.430936 0
M  V30 33555 C 3346.88 -1.62197 -0.48871 0
M  V30 33556 O 3348.09 -1.76207 -0.367574 0
M  V30 33557 H 3344.46 -0.742233 0.120806 0
M  V30 33558 H 3346.43 -2.68519 1.30155 0
M  V30 33559 C 3345.18 -3.46455 -0.293992 0
M  V30 33560 H 3344.51 -3.97749 0.404486 0
M  V30 33561 H 3345.95 -4.19572 -0.611198 0
M  V30 33562 C 3344.41 -3.01181 -1.5097 0
M  V30 33563 O 3344.94 -3.05508 -2.60821 0
M  V30 33564 N 3343.14 -2.5659 -1.36419 0
M  V30 33565 H 3342.69 -2.53268 -0.470439 0
M  V30 33566 H 3342.65 -2.2666 -2.17882 0
M  V30 33567 N 3346.42 -0.701641 -1.4112 0
M  V30 33568 C 3347.66 -0.239419 -2.02993 0
M  V30 33569 C 3348.02 1.14137 -1.54392 0
M  V30 33570 O 3349.22 1.69979 -2.08232 0
M  V30 33571 C 3347.49 -0.301294 -3.56128 0
M  V30 33572 S 3349.05 0.085991 -4.38716 0
M  V30 33573 H 3345.87 -0.0959768 -0.704492 0
M  V30 33574 H 3348.47 -0.920767 -1.72459 0
M  V30 33575 H 3347.18 -1.30812 -3.88994 0
M  V30 33576 H 3346.71 0.399 -3.91371 0
M  V30 33577 H 3348.72 1.31203 -4.7854 0
M  V30 33578 N 3347.9 1.51133 -0.446821 0
M  V30 33579 C 3349.14 2.01766 0.116228 0
M  V30 33580 C 3349.47 1.33241 1.42379 0
M  V30 33581 O 3348.74 0.469948 1.9018 0
M  V30 33582 H 3347.32 0.745586 0.0459427 0
M  V30 33583 H 3349.98 1.85701 -0.591697 0
M  V30 33584 H 3349.07 3.10793 0.285303 0
M  V30 33585 N 3349.37 0.178515 1.56586 0
M  V30 33586 C 3350.6 -0.473806 2.01915 0
M  V30 33587 C 3351.02 -1.55531 1.05791 0
M  V30 33588 O 3350.38 -1.81259 0.0386337 0
M  V30 33589 C 3350.43 -1.02245 3.45801 0
M  V30 33590 O 3349.53 -2.13614 3.52764 0
M  V30 33591 H 3348.88 -0.112655 0.654374 0
M  V30 33592 H 3351.41 0.284522 2.02612 0
M  V30 33593 H 3351.42 -1.34325 3.85254 0
M  V30 33594 H 3350.09 -0.230646 4.1526 0
M  V30 33595 H 3348.67 -1.82525 3.25176 0
M  V30 33596 N 3350.85 -1.57312 -0.0951784 0
M  V30 33597 C 3352.1 -1.85716 -0.797109 0
M  V30 33598 C 3352.42 -0.767202 -1.79274 0
M  V30 33599 O 3351.69 0.20655 -1.94808 0
M  V30 33600 H 3350.27 -0.685259 -0.29737 0
M  V30 33601 H 3352.93 -1.94749 -0.0768275 0
M  V30 33602 H 3352.03 -2.82449 -1.32774 0
M  V30 33603 N 3352.33 0.365999 -1.53291 0
M  V30 33604 C 3353.58 1.11033 -1.69704 0
M  V30 33605 C 3353.91 1.88978 -0.447314 0
M  V30 33606 O 3353.18 1.86402 0.555388 0
M  V30 33607 C 3353.47 2.06989 -2.94665 0
M  V30 33608 C 3353.32 1.32655 -4.29794 0
M  V30 33609 C 3354.64 3.07118 -3.15225 0
M  V30 33610 H 3351.76 0.402273 -0.617532 0
M  V30 33611 H 3354.4 0.39119 -1.85929 0
M  V30 33612 H 3352.55 2.68313 -2.80963 0
M  V30 33613 H 3354.22 0.741186 -4.55307 0
M  V30 33614 H 3352.47 0.628408 -4.29224 0
M  V30 33615 H 3353.14 2.02887 -5.13362 0
M  V30 33616 H 3355.61 2.55897 -3.28109 0
M  V30 33617 H 3354.49 3.71482 -4.04095 0
M  V30 33618 H 3354.75 3.77265 -2.30486 0
M  V30 33619 N 3353.81 1.44644 0.625774 0
M  V30 33620 C 3355.05 1.47927 1.38728 0
M  V30 33621 C 3355.39 0.113503 1.93868 0
M  V30 33622 O 3354.66 -0.869609 1.73977 0
M  V30 33623 C 3354.95 2.54395 2.54863 0
M  V30 33624 C 3354.8 4.0035 2.05037 0
M  V30 33625 C 3356.12 2.57316 3.57039 0
M  V30 33626 H 3353.24 0.538593 0.503077 0
M  V30 33627 H 3355.88 1.76353 0.707071 0
M  V30 33628 H 3354.03 2.30287 3.1289 0
M  V30 33629 H 3355.7 4.35608 1.51799 0
M  V30 33630 H 3353.94 4.11872 1.36177 0
M  V30 33631 H 3354.61 4.70502 2.88672 0
M  V30 33632 H 3357.09 2.78871 3.08821 0
M  V30 33633 H 3355.97 3.33705 4.35812 0
M  V30 33634 H 3356.23 1.61715 4.11462 0
M  V30 33635 N 3355.29 -0.866663 1.31631 0
M  V30 33636 C 3356.53 -1.61676 1.21266 0
M  V30 33637 C 3356.86 -1.93656 -0.228528 0
M  V30 33638 O 3356.13 -1.58585 -1.15012 0
M  V30 33639 H 3354.71 -0.599372 0.445827 0
M  V30 33640 H 3357.37 -1.03736 1.64999 0
M  V30 33641 H 3356.46 -2.55895 1.78673 0
M  V30 33642 N 3356.77 -1.14645 -1.0814 0
M  V30 33643 C 3358.01 -0.91094 -1.79958 0
M  V30 33644 C 3358.33 0.563833 -1.87297 0
M  V30 33645 O 3359.53 0.91669 -2.55556 0
M  V30 33646 C 3357.99 -1.58031 -3.23349 0
M  V30 33647 C 3357.6 -3.09154 -3.24235 0
M  V30 33648 C 3359.34 -1.42602 -3.99831 0
M  V30 33649 C 3357.25 -3.68914 -4.6223 0
M  V30 33650 H 3356.18 -0.337162 -0.674417 0
M  V30 33651 H 3358.83 -1.37568 -1.21438 0
M  V30 33652 H 3357.21 -1.04325 -3.82011 0
M  V30 33653 H 3358.39 -3.6955 -2.75263 0
M  V30 33654 H 3356.7 -3.24251 -2.61247 0
M  V30 33655 H 3359.3 -1.84649 -5.01806 0
M  V30 33656 H 3359.64 -0.372475 -4.1463 0
M  V30 33657 H 3360.17 -1.93361 -3.47644 0
M  V30 33658 H 3356.91 -4.74134 -4.52634 0
M  V30 33659 H 3356.43 -3.13299 -5.11472 0
M  V30 33660 H 3358.11 -3.69367 -5.31203 0
M  V30 33661 N 3358.24 1.26349 -0.942 0
M  V30 33662 C 3359.49 1.94001 -0.590879 0
M  V30 33663 C 3359.82 1.73723 0.867974 0
M  V30 33664 O 3359.1 1.07475 1.62109 0
M  V30 33665 C 3359.38 3.47751 -0.934962 0
M  V30 33666 C 3359.23 3.7731 -2.44862 0
M  V30 33667 C 3360.55 4.37783 -0.450965 0
M  V30 33668 H 3357.67 0.704593 -0.216142 0
M  V30 33669 H 3360.31 1.49203 -1.17637 0
M  V30 33670 H 3358.46 3.86038 -0.436716 0
M  V30 33671 H 3360.14 3.48733 -3.01965 0
M  V30 33672 H 3358.38 3.23358 -2.89175 0
M  V30 33673 H 3359.05 4.84783 -2.63988 0
M  V30 33674 H 3361.53 4.06727 -0.878178 0
M  V30 33675 H 3360.4 5.4415 -0.720535 0
M  V30 33676 H 3360.66 4.37309 0.649085 0
M  V30 33677 N 3359.72 0.709115 1.40746 0
M  V30 33678 C 3361 0.17328 1.94831 0
M  V30 33679 C 3361.38 -1.31964 1.64768 0
M  V30 33680 O 3360.73 -2.07268 0.96189 0
M  V30 33681 C 3360.94 0.479074 3.45696 0
M  V30 33682 C 3362.28 0.414196 4.22575 0
M  V30 33683 O 3363.31 0.414761 3.53777 0
M  V30 33684 O 3362.17 0.386082 5.45135 0
M  V30 33685 H 3359.26 0.0229092 0.826683 0
M  V30 33686 H 3361.81 0.786205 1.50389 0
M  V30 33687 H 3360.58 1.51191 3.60911 0
M  V30 33688 H 3360.2 -0.164142 3.97261 0
M  V30 33689 N 3361.2 -1.50894 0.454829 0
M  V30 33690 C 3362.43 -2.06339 -0.103749 0
M  V30 33691 C 3362.84 -1.32056 -1.35491 0
M  V30 33692 O 3362.18 -0.378552 -1.79757 0
M  V30 33693 C 3362.24 -3.56361 -0.474013 0
M  V30 33694 C 3361.91 -4.5202 0.672815 0
M  V30 33695 C 3362.9 -4.96253 1.55012 0
M  V30 33696 C 3360.59 -4.94909 0.858522 0
M  V30 33697 C 3362.58 -5.82065 2.59768 0
M  V30 33698 C 3360.27 -5.80507 1.90933 0
M  V30 33699 C 3361.27 -6.23984 2.77728 0
M  V30 33700 O 3360.96 -7.07879 3.81002 0
M  V30 33701 H 3360.69 -0.675991 -0.00354122 0
M  V30 33702 H 3363.24 -1.95245 0.63785 0
M  V30 33703 H 3361.47 -3.653 -1.26857 0
M  V30 33704 H 3363.16 -3.94243 -0.965775 0
M  V30 33705 H 3363.93 -4.638 1.41826 0
M  V30 33706 H 3359.81 -4.60598 0.192464 0
M  V30 33707 H 3363.35 -6.15922 3.27546 0
M  V30 33708 H 3359.25 -6.12373 2.04132 0
M  V30 33709 H 3360.01 -7.26095 3.77793 0
M  V30 33710 N 3362.68 -0.186817 -1.56489 0
M  V30 33711 C 3363.93 0.453227 -1.96952 0
M  V30 33712 C 3364.25 1.62723 -1.07453 0
M  V30 33713 O 3363.52 1.95369 -0.14408 0
M  V30 33714 H 3362.1 0.170432 -0.727298 0
M  V30 33715 H 3364.76 -0.271618 -1.92998 0
M  V30 33716 H 3363.85 0.802898 -3.01596 0
M  V30 33717 N 3364.16 1.57361 0.0868344 0
M  V30 33718 C 3365.57 1.75373 0.640411 0
M  V30 33719 C 3365.92 0.810172 1.78692 0
M  V30 33720 O 3365.04 -0.00936909 2.16398 0
M  V30 33721 C 3365.64 3.18012 1.1685 0
M  V30 33722 C 3364.2 3.3742 1.66807 0
M  V30 33723 C 3363.34 2.71143 0.581112 0
M  V30 33724 H 3366.29 1.58088 -0.139277 0
M  V30 33725 H 3366.32 3.2134 2.03766 0
M  V30 33726 H 3365.83 3.86661 0.333841 0
M  V30 33727 H 3363.93 2.73862 2.52647 0
M  V30 33728 H 3364.04 4.45784 1.75537 0
M  V30 33729 H 3362.41 2.33272 1.02255 0
M  V30 33730 H 3363.19 3.42438 -0.243107 0
M  V30 33731 N 3365.63 -0.357865 1.53483 0
M  V30 33732 C 3367.05 -0.700048 1.43428 0
M  V30 33733 C 3367.25 -1.92986 0.579527 0
M  V30 33734 O 3366.31 -2.52416 0.064953 0
M  V30 33735 C 3367.62 -0.906049 2.86725 0
M  V30 33736 C 3369.17 -1.00557 2.96407 0
M  V30 33737 C 3369.64 -1.24399 4.40782 0
M  V30 33738 N 3371.13 -1.31152 4.44245 0
M  V30 33739 C 3371.87 -1.51324 5.53072 0
M  V30 33740 N 3371.36 -1.68762 6.71931 0
M  V30 33741 N 3373.16 -1.53756 5.40662 0
M  V30 33742 H 3365.31 0.45093 2.07558 0
M  V30 33743 H 3367.57 0.139727 0.937646 0
M  V30 33744 H 3367.28 -0.0740961 3.51622 0
M  V30 33745 H 3367.15 -1.81193 3.30831 0
M  V30 33746 H 3369.54 -1.82806 2.31659 0
M  V30 33747 H 3369.62 -0.0769063 2.55684 0
M  V30 33748 H 3369.26 -0.426486 5.06106 0
M  V30 33749 H 3369.19 -2.186 4.79084 0
M  V30 33750 H 3371.68 -1.19258 3.58589 0
M  V30 33751 H 3372 -1.83749 7.50637 0
M  V30 33752 H 3370.34 -1.65925 6.74903 0
M  V30 33753 H 3373.53 -1.39705 4.46766 0
M  V30 33754 H 3373.71 -1.69135 6.25538 0
M  V30 33755 N 3367.11 -1.44974 -0.618094 0
M  V30 33756 C 3368.52 -1.43035 -1.19991 0
M  V30 33757 C 3368.87 -0.152457 -1.95607 0
M  V30 33758 O 3368 0.746536 -2.03115 0
M  V30 33759 C 3368.59 -2.59126 -2.18264 0
M  V30 33760 C 3367.15 -2.6034 -2.71845 0
M  V30 33761 C 3366.3 -2.35089 -1.47066 0
M  V30 33762 H 3369.25 -1.53366 -0.408007 0
M  V30 33763 H 3369.27 -2.32624 -3.01108 0
M  V30 33764 H 3368.78 -3.52117 -1.63202 0
M  V30 33765 H 3366.88 -1.71326 -3.30875 0
M  V30 33766 H 3367 -3.59237 -3.16995 0
M  V30 33767 H 3365.36 -1.84438 -1.75655 0
M  V30 33768 H 3366.14 -3.30212 -0.93887 0
M  V30 33769 N 3368.59 0.85967 -1.32089 0
M  V30 33770 C 3369.54 1.98922 -1.20552 0
M  V30 33771 C 3370.53 1.69033 -0.111451 0
M  V30 33772 O 3371.74 1.77902 -0.274041 0
M  V30 33773 H 3368.11 0.65266 -0.373549 0
M  V30 33774 H 3370.08 2.05781 -2.16094 0
M  V30 33775 C 3368.83 3.34745 -0.940284 0
M  V30 33776 H 3368.16 3.5827 -1.77433 0
M  V30 33777 H 3369.6 4.14343 -0.899785 0
M  V30 33778 C 3368.05 3.35003 0.356983 0
M  V30 33779 O 3368.58 3.77599 1.37048 0
M  V30 33780 N 3366.79 2.88142 0.377179 0
M  V30 33781 H 3366.34 2.53673 -0.448095 0
M  V30 33782 H 3366.3 2.88697 1.24504 0
M  V30 33783 N 3370.07 1.15217 1.0753 0
M  V30 33784 C 3371.01 0.84728 2.14685 0
M  V30 33785 C 3371.98 -0.199014 1.64903 0
M  V30 33786 O 3373.17 -0.0669651 1.90682 0
M  V30 33787 C 3370.31 0.340733 3.43414 0
M  V30 33788 C 3369.42 1.44838 4.06996 0
M  V30 33789 C 3368.56 0.898151 5.23552 0
M  V30 33790 C 3367.6 1.98286 5.79093 0
M  V30 33791 N 3366.73 1.44914 6.86982 0
M  V30 33792 H 3371.57 1.76502 2.40106 0
M  V30 33793 H 3369.11 0.88071 1.17822 0
M  V30 33794 H 3371.07 0.0287689 4.1719 0
M  V30 33795 H 3369.7 -0.540088 3.1825 0
M  V30 33796 H 3368.75 1.87657 3.30891 0
M  V30 33797 H 3370.06 2.26742 4.44285 0
M  V30 33798 H 3369.22 0.538621 6.04304 0
M  V30 33799 H 3367.96 0.0482609 4.87676 0
M  V30 33800 H 3366.96 2.35124 4.96988 0
M  V30 33801 H 3368.19 2.8365 6.17025 0
M  V30 33802 H 3366.13 0.621582 6.53049 0
M  V30 33803 H 3366.05 2.20447 7.23145 0
M  V30 33804 H 3367.32 1.1178 7.71444 0
M  V30 33805 N 3371.55 -1.25848 0.948687 0
M  V30 33806 C 3372.77 -1.98017 0.616776 0
M  V30 33807 C 3373.2 -1.701 -0.802975 0
M  V30 33808 O 3372.55 -0.953419 -1.54206 0
M  V30 33809 C 3372.6 -3.49836 0.874491 0
M  V30 33810 O 3371.71 -4.1237 -0.0496843 0
M  V30 33811 H 3371.05 -0.620978 0.235123 0
M  V30 33812 H 3373.58 -1.60122 1.27367 0
M  V30 33813 H 3373.59 -4.00112 0.79838 0
M  V30 33814 H 3372.26 -3.69485 1.90929 0
M  V30 33815 H 3370.84 -3.72818 0.0781247 0
M  V30 33816 N 3373.02 -0.716569 -1.40368 0
M  V30 33817 C 3373.93 -0.0656992 -2.34508 0
M  V30 33818 C 3374.95 0.742695 -1.57353 0
M  V30 33819 O 3376.13 0.675423 -1.89737 0
M  V30 33820 C 3373.19 0.844277 -3.36263 0
M  V30 33821 C 3372.25 0.0257217 -4.29292 0
M  V30 33822 C 3371.49 0.89236 -5.26187 0
M  V30 33823 O 3371.71 2.13157 -5.29075 0
M  V30 33824 O 3370.64 0.330827 -6.0099 0
M  V30 33825 H 3374.47 -0.842235 -2.91788 0
M  V30 33826 H 3372.05 -0.477059 -1.41579 0
M  V30 33827 H 3373.94 1.36548 -3.98663 0
M  V30 33828 H 3372.61 1.59994 -2.81396 0
M  V30 33829 H 3371.52 -0.540577 -3.70174 0
M  V30 33830 H 3372.85 -0.691746 -4.87315 0
M  V30 33831 N 3374.5 1.50651 -0.462825 0
M  V30 33832 C 3375.44 2.2499 0.381429 0
M  V30 33833 C 3376.41 1.27959 1.00326 0
M  V30 33834 O 3377.6 1.57161 1.04079 0
M  V30 33835 C 3374.72 3.01984 1.53373 0
M  V30 33836 C 3373.77 4.13873 1.0301 0
M  V30 33837 S 3374.6 5.35478 -0.0485411 0
M  V30 33838 C 3375.76 6.16018 1.10783 0
M  V30 33839 H 3375.99 2.9625 -0.24963 0
M  V30 33840 H 3373.53 1.52402 -0.24761 0
M  V30 33841 H 3375.48 3.46937 2.19419 0
M  V30 33842 H 3374.14 2.30265 2.13628 0
M  V30 33843 H 3373.34 4.67119 1.89252 0
M  V30 33844 H 3372.94 3.71313 0.447483 0
M  V30 33845 H 3375.23 6.4665 2.02114 0
M  V30 33846 H 3376.17 7.05426 0.614813 0
M  V30 33847 H 3376.58 5.47924 1.35792 0
M  V30 33848 N 3375.98 0.195113 1.56388 0
M  V30 33849 C 3377.23 -0.437682 1.98635 0
M  V30 33850 C 3377.58 -1.59237 1.07988 0
M  V30 33851 O 3376.87 -1.91196 0.124294 0
M  V30 33852 C 3377.07 -0.94599 3.44653 0
M  V30 33853 C 3376.9 0.157907 4.49423 0
M  V30 33854 C 3375.67 0.615545 5.01537 0
M  V30 33855 C 3377.87 0.966862 5.0513 0
M  V30 33856 N 3375.85 1.69726 5.89971 0
M  V30 33857 C 3377.22 1.89798 5.90234 0
M  V30 33858 C 3379.27 1.00928 4.87563 0
M  V30 33859 C 3377.98 2.868 6.5965 0
M  V30 33860 C 3380 1.96734 5.57718 0
M  V30 33861 C 3379.36 2.8859 6.42569 0
M  V30 33862 H 3375.46 -0.12758 0.771523 0
M  V30 33863 H 3378.05 0.300811 1.92362 0
M  V30 33864 H 3376.22 -1.65392 3.51426 0
M  V30 33865 H 3377.95 -1.54939 3.73866 0
M  V30 33866 H 3374.71 0.20889 4.73139 0
M  V30 33867 H 3375.13 2.23932 6.38892 0
M  V30 33868 H 3379.77 0.313097 4.21639 0
M  V30 33869 H 3377.49 3.57393 7.24773 0
M  V30 33870 H 3381.08 2.00657 5.46103 0
M  V30 33871 H 3379.96 3.61516 6.95899 0
M  V30 33872 N 3377.46 -1.57404 -0.0784879 0
M  V30 33873 C 3378.74 -1.77971 -0.811526 0
M  V30 33874 C 3379.12 -0.781001 -1.96121 0
M  V30 33875 O 3378.46 0.18722 -2.27732 0
M  V30 33876 C 3378.67 -3.24256 -1.2907 0
M  V30 33877 C 3380.02 -3.87901 -1.72678 0
M  V30 33878 O 3381.05 -3.28107 -1.38653 0
M  V30 33879 O 3379.9 -4.93083 -2.35651 0
M  V30 33880 H 3377 -0.730147 -0.388348 0
M  V30 33881 H 3379.54 -1.69597 -0.059082 0
M  V30 33882 H 3378.32 -3.88494 -0.467745 0
M  V30 33883 H 3377.94 -3.37328 -2.10466 0
M  V30 33884 N 3378.94 0.34972 -1.53671 0
M  V30 33885 C 3380.18 1.09227 -1.70872 0
M  V30 33886 C 3380.52 1.88493 -0.467332 0
M  V30 33887 O 3379.79 1.86981 0.535586 0
M  V30 33888 C 3380.07 2.03852 -2.96844 0
M  V30 33889 C 3379.93 1.28089 -4.31176 0
M  V30 33890 C 3381.25 3.03757 -3.18464 0
M  V30 33891 H 3378.36 0.3957 -0.621764 0
M  V30 33892 H 3381.01 0.371448 -1.86334 0
M  V30 33893 H 3379.16 2.65318 -2.83793 0
M  V30 33894 H 3380.83 0.692853 -4.56067 0
M  V30 33895 H 3379.07 0.582848 -4.29867 0
M  V30 33896 H 3379.74 1.97431 -5.15485 0
M  V30 33897 H 3382.22 2.52403 -3.30805 0
M  V30 33898 H 3381.09 3.67175 -4.08012 0
M  V30 33899 H 3381.36 3.74799 -2.34474 0
M  V30 33900 N 3380.41 1.45299 0.610397 0
M  V30 33901 C 3381.66 1.49169 1.36948 0
M  V30 33902 C 3381.99 0.132326 1.94049 0
M  V30 33903 O 3381.24 -0.868655 1.75365 0
M  V30 33904 C 3381.54 2.51628 2.53807 0
M  V30 33905 C 3381.21 3.96411 2.1487 0
M  V30 33906 C 3379.87 4.35835 2.03965 0
M  V30 33907 C 3382.22 4.87475 1.84439 0
M  V30 33908 C 3379.55 5.64221 1.60846 0
M  V30 33909 C 3381.9 6.1627 1.42808 0
M  V30 33910 C 3380.57 6.54627 1.30459 0
M  V30 33911 H 3379.84 0.545849 0.501128 0
M  V30 33912 H 3382.48 1.7863 0.69019 0
M  V30 33913 H 3380.79 2.15726 3.27062 0
M  V30 33914 H 3382.49 2.51861 3.12037 0
M  V30 33915 H 3379.08 3.65233 2.24283 0
M  V30 33916 H 3383.26 4.57756 1.91763 0
M  V30 33917 H 3378.52 5.92738 1.49906 0
M  V30 33918 H 3382.69 6.86277 1.18306 0
M  V30 33919 H 3380.32 7.54009 0.968214 0
M  V30 33920 N 3381.89 -0.852653 1.32543 0
M  V30 33921 C 3383.13 -1.62081 1.24535 0
M  V30 33922 C 3383.5 -1.91063 -0.189497 0
M  V30 33923 O 3384.7 -2.65907 -0.393335 0
M  V30 33924 C 3382.97 -2.90435 2.08285 0
M  V30 33925 S 3384.53 -3.81203 2.17323 0
M  V30 33926 H 3381.35 -0.555907 0.44327 0
M  V30 33927 H 3383.95 -1.00958 1.67415 0
M  V30 33928 H 3382.65 -2.67093 3.11592 0
M  V30 33929 H 3382.18 -3.56573 1.6619 0
M  V30 33930 H 3384.2 -4.78204 1.3242 0
M  V30 33931 N 3383.37 -1.15786 -1.06918 0
M  V30 33932 C 3384.6 -0.958063 -1.83043 0
M  V30 33933 C 3385.01 0.496995 -1.82556 0
M  V30 33934 O 3384.35 1.35657 -1.23866 0
M  V30 33935 C 3384.41 -1.40062 -3.31094 0
M  V30 33936 C 3384.08 -2.87429 -3.55294 0
M  V30 33937 C 3385.07 -3.8547 -3.48869 0
M  V30 33938 C 3382.76 -3.25201 -3.82818 0
M  V30 33939 C 3384.75 -5.19285 -3.69624 0
M  V30 33940 C 3382.44 -4.59188 -4.03224 0
M  V30 33941 C 3383.44 -5.56039 -3.96623 0
M  V30 33942 O 3383.13 -6.87605 -4.16479 0
M  V30 33943 H 3382.86 -0.340106 -0.584212 0
M  V30 33944 H 3385.41 -1.54069 -1.35838 0
M  V30 33945 H 3383.64 -0.761428 -3.79129 0
M  V30 33946 H 3385.33 -1.16923 -3.88695 0
M  V30 33947 H 3386.1 -3.57634 -3.27601 0
M  V30 33948 H 3381.98 -2.50398 -3.87068 0
M  V30 33949 H 3385.52 -5.94868 -3.64387 0
M  V30 33950 H 3381.42 -4.86736 -4.23979 0
M  V30 33951 H 3382.19 -6.94087 -4.33803 0
M  V30 33952 N 3384.85 1.25343 -0.955348 0
M  V30 33953 C 3386.26 1.45319 -0.659889 0
M  V30 33954 C 3386.46 1.85692 0.782347 0
M  V30 33955 O 3385.52 1.98736 1.55757 0
M  V30 33956 C 3386.83 2.52467 -1.63343 0
M  V30 33957 C 3388.38 2.66306 -1.64469 0
M  V30 33958 C 3388.86 3.76639 -2.60589 0
M  V30 33959 N 3390.35 3.84051 -2.58958 0
M  V30 33960 C 3391.08 4.68914 -3.3001 0
M  V30 33961 N 3390.58 5.5806 -4.10538 0
M  V30 33962 N 3392.37 4.62885 -3.18894 0
M  V30 33963 H 3384.52 0.974296 -1.88736 0
M  V30 33964 H 3386.79 0.489465 -0.811867 0
M  V30 33965 H 3386.49 2.29661 -2.66362 0
M  V30 33966 H 3386.37 3.50396 -1.3965 0
M  V30 33967 H 3388.75 2.88477 -0.621673 0
M  V30 33968 H 3388.83 1.68775 -1.92221 0
M  V30 33969 H 3388.48 3.55219 -3.63018 0
M  V30 33970 H 3388.41 4.73658 -2.30122 0
M  V30 33971 H 3390.9 3.20327 -2.00497 0
M  V30 33972 H 3391.21 6.19742 -4.61671 0
M  V30 33973 H 3389.56 5.57765 -4.14636 0
M  V30 33974 H 3392.75 3.92251 -2.55454 0
M  V30 33975 H 3392.92 5.28799 -3.74533 0
M  V30 33976 N 3386.33 0.724003 1.39986 0
M  V30 33977 C 3387.26 0.0258127 2.28185 0
M  V30 33978 C 3388.24 -0.759045 1.43796 0
M  V30 33979 O 3389.42 -0.743918 1.732 0
M  V30 33980 C 3386.55 -0.970754 3.2449 0
M  V30 33981 C 3385.6 -0.275703 4.25608 0
M  V30 33982 S 3386.43 1.00246 5.26033 0
M  V30 33983 C 3387.58 0.00820988 6.25899 0
M  V30 33984 H 3387.82 0.773811 2.87053 0
M  V30 33985 H 3385.35 0.515358 1.45545 0
M  V30 33986 H 3387.31 -1.54048 3.80499 0
M  V30 33987 H 3385.97 -1.69151 2.64663 0
M  V30 33988 H 3385.16 -1.02937 4.93376 0
M  V30 33989 H 3384.76 0.221696 3.73342 0
M  V30 33990 H 3387.06 -0.835853 6.72324 0
M  V30 33991 H 3388 0.652731 7.05085 0
M  V30 33992 H 3388.41 -0.359277 5.63356 0
M  V30 33993 N 3387.81 -1.50403 0.470808 0
M  V30 33994 C 3388.75 -2.28521 -0.32351 0
M  V30 33995 C 3389.72 -1.33561 -0.987449 0
M  V30 33996 O 3390.91 -1.62499 -0.999941 0
M  V30 33997 C 3388.05 -3.15439 -1.39972 0
M  V30 33998 C 3387.16 -4.2543 -0.750582 0
M  V30 33999 C 3386.3 -4.99605 -1.80466 0
M  V30 34000 C 3385.33 -6.01471 -1.13575 0
M  V30 34001 N 3384.47 -6.68926 -2.13267 0
M  V30 34002 H 3389.31 -2.9595 0.348954 0
M  V30 34003 H 3386.85 -1.45946 0.183934 0
M  V30 34004 H 3388.81 -3.64184 -2.03534 0
M  V30 34005 H 3387.44 -2.50058 -2.04135 0
M  V30 34006 H 3386.49 -3.804 -0.00240405 0
M  V30 34007 H 3387.8 -4.98303 -0.22255 0
M  V30 34008 H 3386.95 -5.52067 -2.51609 0
M  V30 34009 H 3385.69 -4.26437 -2.36649 0
M  V30 34010 H 3384.7 -5.4827 -0.409946 0
M  V30 34011 H 3385.92 -6.76612 -0.580816 0
M  V30 34012 H 3383.87 -5.98549 -2.68468 0
M  V30 34013 H 3383.79 -7.37674 -1.65448 0
M  V30 34014 H 3385.05 -7.26005 -2.83791 0
M  V30 34015 N 3389.28 -0.203404 -1.56282 0
M  V30 34016 C 3390.56 0.481222 -1.89588 0
M  V30 34017 C 3390.94 1.79055 -1.11815 0
M  V30 34018 O 3390.29 2.27421 -0.221799 0
M  V30 34019 C 3390.5 0.691904 -3.42073 0
M  V30 34020 C 3391.85 1.00754 -4.12473 0
M  V30 34021 O 3392.87 0.779335 -3.4757 0
M  V30 34022 O 3391.73 1.43964 -5.27197 0
M  V30 34023 H 3388.82 0.251949 -0.787687 0
M  V30 34024 H 3391.37 -0.244237 -1.67933 0
M  V30 34025 H 3390.14 -0.232391 -3.90609 0
M  V30 34026 H 3389.76 1.46952 -3.69447 0
M  V30 34027 N 3390.76 1.57444 0.0701393 0
M  V30 34028 C 3392.01 1.87609 0.77012 0
M  V30 34029 C 3392.34 0.795906 1.77141 0
M  V30 34030 O 3391.62 -0.19364 1.93534 0
M  V30 34031 C 3391.9 3.28432 1.47662 0
M  V30 34032 C 3391.75 4.47105 0.491634 0
M  V30 34033 C 3393.07 3.67518 2.42112 0
M  V30 34034 H 3390.19 0.682351 0.278507 0
M  V30 34035 H 3392.83 1.89971 0.033285 0
M  V30 34036 H 3390.98 3.26549 2.1047 0
M  V30 34037 H 3392.65 4.61113 -0.131364 0
M  V30 34038 H 3390.9 4.33371 -0.192894 0
M  V30 34039 H 3391.57 5.42426 1.02363 0
M  V30 34040 H 3394.04 3.70506 1.8938 0
M  V30 34041 H 3392.92 4.66938 2.88548 0
M  V30 34042 H 3393.18 2.9754 3.2699 0
M  V30 34043 N 3392.24 -0.341566 1.53854 0
M  V30 34044 C 3393.19 -1.43978 1.82683 0
M  V30 34045 C 3394.18 -1.54376 0.697442 0
M  V30 34046 O 3395.39 -1.56977 0.880813 0
M  V30 34047 H 3391.76 -0.480103 0.578796 0
M  V30 34048 H 3393.73 -1.16879 2.74558 0
M  V30 34049 C 3392.48 -2.80472 2.05501 0
M  V30 34050 H 3391.81 -2.73239 2.91857 0
M  V30 34051 H 3393.25 -3.56431 2.29636 0
M  V30 34052 C 3391.7 -3.26231 0.841118 0
M  V30 34053 O 3392.23 -4.01679 0.0415082 0
M  V30 34054 N 3390.44 -2.83057 0.657786 0
M  V30 34055 H 3389.99 -2.21824 1.30966 0
M  V30 34056 H 3389.95 -3.14028 -0.152948 0
M  V30 34057 N 3393.72 -1.45621 -0.602683 0
M  V30 34058 C 3394.96 -1.51437 -1.37281 0
M  V30 34059 C 3395.32 -0.154182 -1.9138 0
M  V30 34060 O 3396.52 -0.0870482 -2.68659 0
M  V30 34061 C 3394.79 -2.56729 -2.48646 0
M  V30 34062 S 3396.35 -2.81806 -3.3635 0
M  V30 34063 H 3393.17 -0.53528 -0.46797 0
M  V30 34064 H 3395.77 -1.82732 -0.694925 0
M  V30 34065 H 3394.48 -3.54219 -2.07261 0
M  V30 34066 H 3394.01 -2.27101 -3.2123 0
M  V30 34067 H 3396.02 -2.15557 -4.46933 0
M  V30 34068 N 3395.2 0.845612 -1.32993 0
M  V30 34069 C 3396.42 1.63266 -1.2709 0
M  V30 34070 C 3396.84 1.88126 0.159448 0
M  V30 34071 O 3396.2 1.45665 1.09945 0
M  V30 34072 C 3396.25 2.98676 -2.03654 0
M  V30 34073 O 3395.97 2.74912 -3.41109 0
M  V30 34074 C 3397.47 3.93114 -2.04882 0
M  V30 34075 H 3394.69 0.508228 -0.438116 0
M  V30 34076 H 3397.23 1.05378 -1.75259 0
M  V30 34077 H 3395.39 3.53184 -1.59184 0
M  V30 34078 H 3395.8 3.61092 -3.80411 0
M  V30 34079 H 3397.28 4.85363 -2.6292 0
M  V30 34080 H 3397.75 4.26773 -1.03736 0
M  V30 34081 H 3398.36 3.44542 -2.4934 0
M  V30 34082 N 3396.67 1.16351 1.06302 0
M  V30 34083 C 3397.91 0.955645 1.80684 0
M  V30 34084 C 3398.28 -0.507492 1.85172 0
M  V30 34085 O 3399.48 -0.834059 2.55533 0
M  V30 34086 C 3397.75 1.56583 3.21273 0
M  V30 34087 S 3399.31 1.50258 4.12272 0
M  V30 34088 H 3396.13 0.343677 0.62242 0
M  V30 34089 H 3398.73 1.48095 1.27625 0
M  V30 34090 H 3397.43 2.62342 3.15603 0
M  V30 34091 H 3396.96 1.03985 3.79408 0
M  V30 34092 H 3398.98 0.50279 4.93646 0
M  V30 34093 N 3398.15 -1.24835 0.961982 0
M  V30 34094 C 3399.1 -2.25606 0.486899 0
M  V30 34095 C 3400.07 -1.59472 -0.464518 0
M  V30 34096 O 3401.25 -1.87056 -0.376146 0
M  V30 34097 C 3398.39 -3.44384 -0.222233 0
M  V30 34098 C 3397.51 -4.25132 0.767281 0
M  V30 34099 C 3396.64 -5.31189 0.0348392 0
M  V30 34100 C 3395.68 -6.03629 1.0148 0
M  V30 34101 N 3394.82 -7.01403 0.312743 0
M  V30 34102 H 3399.66 -2.65612 1.35109 0
M  V30 34103 H 3397.19 -1.30575 0.677396 0
M  V30 34104 H 3399.15 -4.12105 -0.650014 0
M  V30 34105 H 3397.78 -3.05231 -1.05041 0
M  V30 34106 H 3396.83 -3.57002 1.31352 0
M  V30 34107 H 3398.15 -4.75243 1.51478 0
M  V30 34108 H 3397.3 -6.0502 -0.451219 0
M  V30 34109 H 3396.04 -4.8197 -0.745401 0
M  V30 34110 H 3395.04 -5.28607 1.51179 0
M  V30 34111 H 3396.27 -6.54937 1.79539 0
M  V30 34112 H 3394.22 -6.54464 -0.448625 0
M  V30 34113 H 3394.13 -7.49368 0.999211 0
M  V30 34114 H 3395.4 -7.79353 -0.151536 0
M  V30 34115 N 3399.63 -0.731417 -1.396 0
M  V30 34116 C 3400.88 -0.278203 -2.00883 0
M  V30 34117 C 3401.21 1.13056 -1.57899 0
M  V30 34118 O 3400.48 1.77003 -0.806234 0
M  V30 34119 C 3400.77 -0.376032 -3.58131 0
M  V30 34120 C 3400.62 -1.82431 -4.11144 0
M  V30 34121 C 3401.94 0.243625 -4.39425 0
M  V30 34122 H 3399.06 -0.102562 -0.729829 0
M  V30 34123 H 3401.7 -0.926898 -1.65857 0
M  V30 34124 H 3399.85 0.17626 -3.881 0
M  V30 34125 H 3401.52 -2.4332 -3.9191 0
M  V30 34126 H 3399.76 -2.34682 -3.64838 0
M  V30 34127 H 3400.44 -1.84405 -5.20287 0
M  V30 34128 H 3402.91 -0.22714 -4.1548 0
M  V30 34129 H 3401.79 0.144811 -5.48709 0
M  V30 34130 H 3402.05 1.32922 -4.21645 0
M  V30 34131 N 3401.11 1.50152 -0.478778 0
M  V30 34132 C 3402.36 2.01967 0.0734042 0
M  V30 34133 C 3402.68 1.36231 1.39521 0
M  V30 34134 O 3401.95 0.510183 1.8914 0
M  V30 34135 H 3400.53 0.746393 0.0301174 0
M  V30 34136 H 3403.19 1.84404 -0.630954 0
M  V30 34137 H 3402.29 3.11328 0.219315 0
M  V30 34138 N 3402.59 0.211689 1.56172 0
M  V30 34139 C 3403.82 -0.427187 2.02135 0
M  V30 34140 C 3404.22 -1.54585 1.09087 0
M  V30 34141 O 3403.57 -1.83475 0.0909383 0
M  V30 34142 C 3403.63 -1.02894 3.44461 0
M  V30 34143 C 3403.29 -0.046944 4.56976 0
M  V30 34144 C 3404.29 0.749815 5.14465 0
M  V30 34145 C 3401.98 0.0689516 5.02253 0
M  V30 34146 C 3403.97 1.64927 6.15693 0
M  V30 34147 C 3401.66 0.97195 6.03321 0
M  V30 34148 C 3402.65 1.76066 6.59916 0
M  V30 34149 O 3402.34 2.6485 7.59019 0
M  V30 34150 H 3402.07 -0.109882 0.66701 0
M  V30 34151 H 3404.63 0.322631 2.0285 0
M  V30 34152 H 3402.86 -1.82766 3.40784 0
M  V30 34153 H 3404.55 -1.57419 3.74131 0
M  V30 34154 H 3405.31 0.670673 4.8034 0
M  V30 34155 H 3401.19 -0.534809 4.57887 0
M  V30 34156 H 3404.74 2.26533 6.59794 0
M  V30 34157 H 3400.63 1.05215 6.36867 0
M  V30 34158 H 3401.4 2.58815 7.76503 0
M  V30 34159 N 3404.06 -1.57479 -0.0617887 0
M  V30 34160 C 3405.31 -1.88014 -0.76016 0
M  V30 34161 C 3405.64 -0.805289 -1.76717 0
M  V30 34162 O 3404.92 0.183374 -1.93634 0
M  V30 34163 C 3405.2 -3.29211 -1.45919 0
M  V30 34164 C 3405.05 -4.4736 -0.467916 0
M  V30 34165 C 3406.37 -3.68797 -2.4016 0
M  V30 34166 H 3403.49 -0.683818 -0.274884 0
M  V30 34167 H 3406.13 -1.89986 -0.0232099 0
M  V30 34168 H 3404.28 -3.27661 -2.08736 0
M  V30 34169 H 3405.96 -4.61037 0.155816 0
M  V30 34170 H 3404.2 -4.33263 0.215874 0
M  V30 34171 H 3404.87 -5.42961 -0.994847 0
M  V30 34172 H 3407.35 -3.71505 -1.87412 0
M  V30 34173 H 3406.22 -4.68462 -2.86068 0
M  V30 34174 H 3406.48 -2.9927 -3.25408 0
M  V30 34175 N 3405.54 0.333401 -1.54033 0
M  V30 34176 C 3406.79 1.07037 -1.71428 0
M  V30 34177 C 3407.11 1.88859 -0.485529 0
M  V30 34178 O 3406.38 1.89398 0.500522 0
M  V30 34179 H 3404.96 0.398162 -0.632041 0
M  V30 34180 H 3407.62 0.372219 -1.91313 0
M  V30 34181 H 3406.72 1.742 -2.58961 0
M  V30 34182 N 3407.02 1.45939 0.594952 0
M  V30 34183 C 3408.3 1.41088 1.35475 0
M  V30 34184 C 3408.68 0.0879883 2.10917 0
M  V30 34185 O 3408.03 -0.930287 2.08705 0
M  V30 34186 C 3408.24 2.63275 2.29101 0
M  V30 34187 C 3409.58 3.08903 2.91315 0
M  V30 34188 O 3410.61 2.63737 2.39418 0
M  V30 34189 O 3409.47 3.8732 3.85546 0
M  V30 34190 H 3406.56 0.560496 0.60809 0
M  V30 34191 H 3409.11 1.58087 0.616988 0
M  V30 34192 H 3407.88 3.51127 1.72701 0
M  V30 34193 H 3407.5 2.48674 3.10237 0
M  V30 34194 N 3408.5 -0.838547 1.3344 0
M  V30 34195 C 3409.75 -1.59067 1.24668 0
M  V30 34196 C 3410.07 -1.94097 -0.187399 0
M  V30 34197 O 3409.34 -1.60989 -1.11622 0
M  V30 34198 H 3407.92 -0.589781 0.45844 0
M  V30 34199 H 3410.58 -1.00213 1.67163 0
M  V30 34200 H 3409.68 -2.52048 1.84061 0
M  V30 34201 N 3409.98 -1.16914 -1.05683 0
M  V30 34202 C 3411.22 -0.954456 -1.78596 0
M  V30 34203 C 3411.55 0.517282 -1.87495 0
M  V30 34204 O 3410.81 1.40004 -1.36739 0
M  V30 34205 C 3411.11 -1.5346 -3.22777 0
M  V30 34206 C 3410.77 -3.02971 -3.33945 0
M  V30 34207 C 3409.43 -3.43783 -3.367 0
M  V30 34208 C 3411.79 -3.98974 -3.35364 0
M  V30 34209 C 3409.11 -4.79204 -3.38497 0
M  V30 34210 C 3411.47 -5.3429 -3.38699 0
M  V30 34211 C 3410.13 -5.74572 -3.39739 0
M  V30 34212 H 3409.4 -0.34926 -0.653528 0
M  V30 34213 H 3412.05 -1.45726 -1.24243 0
M  V30 34214 H 3410.35 -0.953397 -3.80023 0
M  V30 34215 H 3412.05 -1.34411 -3.77803 0
M  V30 34216 H 3408.64 -2.70435 -3.3251 0
M  V30 34217 H 3412.82 -3.68506 -3.32441 0
M  V30 34218 H 3408.08 -5.09735 -3.3761 0
M  V30 34219 H 3412.25 -6.08461 -3.38745 0
M  V30 34220 H 3409.88 -6.79486 -3.40885 0
M  V30 34221 N 3411.45 1.24323 -0.968589 0
M  V30 34222 C 3412.68 1.9701 -0.6482 0
M  V30 34223 C 3413.1 1.71356 0.775812 0
M  V30 34224 O 3412.46 0.977831 1.5267 0
M  V30 34225 C 3412.51 3.484 -0.930036 0
M  V30 34226 O 3411.61 4.12397 -0.0159264 0
M  V30 34227 H 3410.96 0.617159 -0.244972 0
M  V30 34228 H 3413.49 1.58075 -1.29898 0
M  V30 34229 H 3413.5 3.98792 -0.861933 0
M  V30 34230 H 3412.17 3.66401 -1.96783 0
M  V30 34231 H 3410.75 3.72647 -0.137427 0
M  V30 34232 N 3412.93 0.73881 1.3921 0
M  V30 34233 C 3414.17 0.293154 2.02287 0
M  V30 34234 C 3414.54 -1.10003 1.57363 0
M  V30 34235 O 3415.74 -1.64398 2.12666 0
M  V30 34236 C 3414.01 0.395609 3.55204 0
M  V30 34237 S 3415.57 0.0303569 4.38789 0
M  V30 34238 H 3412.39 0.114621 0.7017 0
M  V30 34239 H 3414.99 0.966168 1.69957 0
M  V30 34240 H 3413.69 1.41079 3.85389 0
M  V30 34241 H 3413.22 -0.295094 3.92292 0
M  V30 34242 H 3415.24 -1.18469 4.8185 0
M  V30 34243 N 3414.41 -1.49895 0.486734 0
M  V30 34244 C 3415.64 -2.07307 -0.0622634 0
M  V30 34245 C 3416.06 -1.34642 -1.31351 0
M  V30 34246 O 3415.42 -0.398783 -1.7686 0
M  V30 34247 C 3415.47 -3.59235 -0.313418 0
M  V30 34248 O 3414.57 -3.88235 -1.39094 0
M  V30 34249 H 3413.91 -0.663702 0.0199001 0
M  V30 34250 H 3416.44 -1.92889 0.682266 0
M  V30 34251 H 3416.45 -4.04286 -0.549231 0
M  V30 34252 H 3415.13 -4.11537 0.600839 0
M  V30 34253 H 3413.7 -3.55008 -1.1412 0
M  V30 34254 N 3415.89 -0.219968 -1.56057 0
M  V30 34255 C 3417.14 0.411348 -1.97869 0
M  V30 34256 C 3417.46 1.60407 -1.10881 0
M  V30 34257 O 3416.73 1.9502 -0.185488 0
M  V30 34258 H 3415.31 0.154966 -0.730749 0
M  V30 34259 H 3417.97 -0.312495 -1.92378 0
M  V30 34260 H 3417.07 0.738744 -3.03231 0
M  V30 34261 N 3417.37 1.57509 0.0534363 0
M  V30 34262 C 3418.32 2.06001 1.0801 0
M  V30 34263 C 3419.31 0.968887 1.38957 0
M  V30 34264 O 3420.52 1.15391 1.38148 0
M  V30 34265 H 3416.89 0.657069 0.365739 0
M  V30 34266 H 3418.86 2.91343 0.645118 0
M  V30 34267 C 3417.61 2.53479 2.37999 0
M  V30 34268 H 3416.93 3.37042 2.15042 0
M  V30 34269 H 3418.37 2.91143 3.08239 0
M  V30 34270 C 3416.83 1.42548 3.05257 0
M  V30 34271 O 3417.36 0.777901 3.94096 0
M  V30 34272 N 3415.57 1.16604 2.6618 0
M  V30 34273 H 3415.12 1.69447 1.94024 0
M  V30 34274 H 3415.07 0.425904 3.11502 0
M  V30 34275 N 3418.85 -0.325228 1.54208 0
M  V30 34276 C 3419.78 -1.4054 1.86469 0
M  V30 34277 C 3420.76 -1.54047 0.721351 0
M  V30 34278 O 3421.94 -1.67954 0.974935 0
M  V30 34279 C 3419.07 -2.77331 2.09057 0
M  V30 34280 C 3418.03 -2.78614 3.24898 0
M  V30 34281 C 3417.35 -4.18465 3.32854 0
M  V30 34282 C 3418.65 -2.4251 4.62587 0
M  V30 34283 H 3420.35 -1.13789 2.76934 0
M  V30 34284 H 3417.89 -0.545948 1.33249 0
M  V30 34285 H 3419.84 -3.5296 2.30211 0
M  V30 34286 H 3418.57 -3.05556 1.1534 0
M  V30 34287 H 3417.23 -2.05439 3.03629 0
M  V30 34288 H 3416.88 -4.43828 2.36698 0
M  V30 34289 H 3416.58 -4.20229 4.10708 0
M  V30 34290 H 3418.1 -4.95909 3.5624 0
M  V30 34291 H 3419.51 -3.07852 4.83632 0
M  V30 34292 H 3417.91 -2.55528 5.42978 0
M  V30 34293 H 3418.98 -1.37662 4.64949 0
M  V30 34294 N 3420.32 -1.46252 -0.587204 0
M  V30 34295 C 3421.25 -1.59333 -1.70691 0
M  V30 34296 C 3422.23 -0.44386 -1.64207 0
M  V30 34297 O 3423.42 -0.669548 -1.82293 0
M  V30 34298 C 3420.55 -1.57905 -3.09327 0
M  V30 34299 C 3419.5 -2.71776 -3.30639 0
M  V30 34300 C 3418.83 -2.55408 -4.69756 0
M  V30 34301 C 3420.13 -4.13636 -3.18909 0
M  V30 34302 H 3421.82 -2.53062 -1.6 0
M  V30 34303 H 3419.37 -1.2179 -0.768321 0
M  V30 34304 H 3421.32 -1.65651 -3.87476 0
M  V30 34305 H 3420.05 -0.607176 -3.20906 0
M  V30 34306 H 3418.71 -2.63492 -2.54887 0
M  V30 34307 H 3418.35 -1.56314 -4.78095 0
M  V30 34308 H 3418.05 -3.31782 -4.84968 0
M  V30 34309 H 3419.58 -2.65038 -5.50079 0
M  V30 34310 H 3420.99 -4.23055 -3.86908 0
M  V30 34311 H 3419.39 -4.90561 -3.45644 0
M  V30 34312 H 3420.46 -4.34108 -2.16052 0
M  V30 34313 N 3421.8 0.831459 -1.33883 0
M  V30 34314 C 3422.73 1.94912 -1.20591 0
M  V30 34315 C 3423.75 1.62239 -0.135054 0
M  V30 34316 O 3424.94 1.74273 -0.386147 0
M  V30 34317 C 3422.04 3.2861 -0.82877 0
M  V30 34318 C 3421.21 3.89365 -1.99282 0
M  V30 34319 C 3420.27 5.0143 -1.59546 0
M  V30 34320 O 3419.29 5.20181 -2.31085 0
M  V30 34321 N 3420.5 5.78302 -0.504702 0
M  V30 34322 H 3423.26 2.06848 -2.16873 0
M  V30 34323 H 3420.82 1.00759 -1.26725 0
M  V30 34324 H 3422.81 4.01015 -0.544898 0
M  V30 34325 H 3421.38 3.1257 0.0435984 0
M  V30 34326 H 3420.6 3.09459 -2.4419 0
M  V30 34327 H 3421.89 4.2669 -2.77152 0
M  V30 34328 H 3421.29 5.65628 0.0902111 0
M  V30 34329 H 3419.85 6.51196 -0.28053 0
M  V30 34330 N 3423.28 1.17472 1.05062 0
M  V30 34331 C 3424.53 0.965342 1.78351 0
M  V30 34332 C 3424.86 -0.504674 1.87528 0
M  V30 34333 O 3424.13 -1.37463 1.37602 0
M  V30 34334 C 3424.42 1.60868 3.2217 0
M  V30 34335 C 3424.27 3.15088 3.20997 0
M  V30 34336 C 3425.59 1.31365 4.20037 0
M  V30 34337 H 3422.71 0.352113 0.647445 0
M  V30 34338 H 3425.35 1.44991 1.22791 0
M  V30 34339 H 3423.5 1.19665 3.69611 0
M  V30 34340 H 3425.17 3.65358 2.81622 0
M  V30 34341 H 3423.41 3.47771 2.59303 0
M  V30 34342 H 3424.09 3.55232 4.2251 0
M  V30 34343 H 3426.56 1.67047 3.81096 0
M  V30 34344 H 3425.44 1.78962 5.18906 0
M  V30 34345 H 3425.7 0.234684 4.41477 0
M  V30 34346 N 3424.76 -1.23807 0.975168 0
M  V30 34347 C 3425.69 -2.27395 0.530429 0
M  V30 34348 C 3426.67 -1.64477 -0.433734 0
M  V30 34349 O 3427.85 -1.91406 -0.328236 0
M  V30 34350 C 3424.98 -3.46869 -0.173005 0
M  V30 34351 C 3423.94 -4.22105 0.707919 0
M  V30 34352 C 3423.26 -5.34548 -0.127433 0
M  V30 34353 C 3424.56 -4.82649 1.99618 0
M  V30 34354 H 3426.26 -2.64849 1.39627 0
M  V30 34355 H 3423.8 -1.27315 0.672824 0
M  V30 34356 H 3425.76 -4.18478 -0.495408 0
M  V30 34357 H 3424.48 -3.08462 -1.07325 0
M  V30 34358 H 3423.14 -3.52306 1.0137 0
M  V30 34359 H 3422.79 -4.92382 -1.02805 0
M  V30 34360 H 3422.49 -5.85806 0.458831 0
M  V30 34361 H 3424.01 -6.08981 -0.444336 0
M  V30 34362 H 3425.43 -5.46293 1.73888 0
M  V30 34363 H 3423.82 -5.44171 2.52978 0
M  V30 34364 H 3424.89 -4.03686 2.68636 0
M  V30 34365 N 3426.24 -0.746182 -1.38816 0
M  V30 34366 C 3427.17 -0.0621118 -2.28115 0
M  V30 34367 C 3428.15 0.736072 -1.44985 0
M  V30 34368 O 3429.33 0.716269 -1.74361 0
M  V30 34369 C 3426.46 0.919007 -3.25994 0
M  V30 34370 C 3425.5 0.207958 -4.25993 0
M  V30 34371 S 3426.34 -1.08602 -5.24372 0
M  V30 34372 C 3427.49 -0.107784 -6.25807 0
M  V30 34373 H 3427.73 -0.819381 -2.85786 0
M  V30 34374 H 3425.26 -0.538448 -1.44707 0
M  V30 34375 H 3427.22 1.47976 -3.82901 0
M  V30 34376 H 3425.88 1.64919 -2.67321 0
M  V30 34377 H 3425.07 0.950753 -4.94951 0
M  V30 34378 H 3424.67 -0.281063 -3.72942 0
M  V30 34379 H 3426.96 0.728786 -6.73569 0
M  V30 34380 H 3427.91 -0.764821 -7.03957 0
M  V30 34381 H 3428.32 0.269607 -5.63856 0
M  V30 34382 N 3427.71 1.49635 -0.494676 0
M  V30 34383 C 3428.94 2.07337 0.0512686 0
M  V30 34384 C 3429.36 1.35337 1.30635 0
M  V30 34385 O 3428.72 0.408157 1.76646 0
M  V30 34386 C 3428.77 3.59397 0.294362 0
M  V30 34387 O 3427.87 3.88967 1.37033 0
M  V30 34388 H 3427.21 0.663587 -0.0234196 0
M  V30 34389 H 3429.74 1.92525 -0.692485 0
M  V30 34390 H 3429.75 4.04572 0.527783 0
M  V30 34391 H 3428.43 4.11213 -0.622656 0
M  V30 34392 H 3427.01 3.55609 1.12236 0
M  V30 34393 N 3429.19 0.228241 1.55939 0
M  V30 34394 C 3430.44 -0.401642 1.98477 0
M  V30 34395 C 3430.77 -1.59295 1.11603 0
M  V30 34396 O 3430.02 -1.95024 0.162499 0
M  V30 34397 C 3430.32 -0.872671 3.46582 0
M  V30 34398 C 3429.99 0.208846 4.50416 0
M  V30 34399 C 3428.65 0.505931 4.78533 0
M  V30 34400 C 3431 0.939943 5.12654 0
M  V30 34401 C 3428.33 1.53851 5.66168 0
M  V30 34402 C 3430.68 1.96191 6.01408 0
M  V30 34403 C 3429.34 2.26584 6.27866 0
M  V30 34404 H 3428.61 -0.146971 0.726278 0
M  V30 34405 H 3431.26 0.332161 1.88597 0
M  V30 34406 H 3429.57 -1.68535 3.53699 0
M  V30 34407 H 3431.26 -1.36999 3.76872 0
M  V30 34408 H 3427.85 -0.0328555 4.28587 0
M  V30 34409 H 3432.04 0.723667 4.90996 0
M  V30 34410 H 3427.29 1.77954 5.84929 0
M  V30 34411 H 3431.47 2.53344 6.48683 0
M  V30 34412 H 3429.09 3.06737 6.95569 0
M  V30 34413 N 3430.67 -1.57536 -0.0450825 0
M  V30 34414 C 3432.08 -1.77009 -0.593689 0
M  V30 34415 C 3432.43 -0.857264 -1.76481 0
M  V30 34416 O 3431.56 -0.0480083 -2.16347 0
M  V30 34417 C 3432.15 -3.20998 -1.08377 0
M  V30 34418 C 3430.71 -3.41724 -1.57802 0
M  V30 34419 C 3429.86 -2.72588 -0.509019 0
M  V30 34420 H 3432.81 -1.57663 0.181142 0
M  V30 34421 H 3432.83 -3.2663 -1.95175 0
M  V30 34422 H 3432.34 -3.87411 -0.231208 0
M  V30 34423 H 3430.44 -2.80464 -2.45297 0
M  V30 34424 H 3430.56 -4.50281 -1.63656 0
M  V30 34425 H 3428.92 -2.35901 -0.960347 0
M  V30 34426 H 3429.7 -3.41673 0.333813 0
M  V30 34427 N 3432.15 0.317045 -1.54378 0
M  V30 34428 C 3433.37 1.07795 -1.77186 0
M  V30 34429 C 3433.8 1.8071 -0.522072 0
M  V30 34430 O 3433.16 1.73481 0.52669 0
M  V30 34431 C 3433.2 2.04666 -2.96891 0
M  V30 34432 O 3432.31 3.12683 -2.68892 0
M  V30 34433 H 3431.65 0.310474 -0.586943 0
M  V30 34434 H 3434.18 0.359354 -2.01419 0
M  V30 34435 H 3434.19 2.4742 -3.24418 0
M  V30 34436 H 3432.86 1.50998 -3.87521 0
M  V30 34437 H 3431.44 2.74558 -2.52334 0
M  V30 34438 N 3433.63 1.46561 0.57944 0
M  V30 34439 C 3434.56 1.60236 1.69843 0
M  V30 34440 C 3435.54 0.452562 1.63969 0
M  V30 34441 O 3436.72 0.679206 1.81935 0
M  V30 34442 C 3433.85 1.59543 3.08485 0
M  V30 34443 C 3432.81 2.73526 3.29193 0
M  V30 34444 C 3432.13 2.57896 4.68395 0
M  V30 34445 C 3433.43 4.15321 3.16711 0
M  V30 34446 H 3435.13 2.53907 1.58656 0
M  V30 34447 H 3432.67 1.22196 0.761852 0
M  V30 34448 H 3434.63 1.67703 3.86592 0
M  V30 34449 H 3433.35 0.624186 3.2058 0
M  V30 34450 H 3432.01 2.6484 2.53486 0
M  V30 34451 H 3431.66 1.58847 4.77259 0
M  V30 34452 H 3431.36 3.34349 4.83202 0
M  V30 34453 H 3432.88 2.67951 5.48666 0
M  V30 34454 H 3434.29 4.251 3.84659 0
M  V30 34455 H 3432.69 4.92387 3.43038 0
M  V30 34456 H 3433.76 4.35247 2.13747 0
M  V30 34457 N 3435.1 -0.824347 1.34322 0
M  V30 34458 C 3436.33 -1.61223 1.29671 0
M  V30 34459 C 3436.75 -1.88355 -0.129499 0
M  V30 34460 O 3436.1 -1.47396 -1.07614 0
M  V30 34461 C 3436.16 -2.95398 2.0838 0
M  V30 34462 O 3435.88 -2.6945 3.45439 0
M  V30 34463 C 3437.38 -3.89804 2.1111 0
M  V30 34464 H 3434.6 -0.501193 0.446146 0
M  V30 34465 H 3437.14 -1.02576 1.76914 0
M  V30 34466 H 3435.3 -3.50607 1.64783 0
M  V30 34467 H 3435.71 -3.54995 3.86108 0
M  V30 34468 H 3437.18 -4.81119 2.70608 0
M  V30 34469 H 3437.66 -4.25069 1.10512 0
M  V30 34470 H 3438.27 -3.40532 2.5479 0
M  V30 34471 N 3436.58 -1.18028 -1.04437 0
M  V30 34472 C 3437.53 -0.90024 -2.14472 0
M  V30 34473 C 3438.52 0.138057 -1.68837 0
M  V30 34474 O 3439.73 -0.00974175 -1.79997 0
M  V30 34475 H 3436.11 -0.273625 -0.700452 0
M  V30 34476 H 3438.08 -1.83522 -2.35292 0
M  V30 34477 C 3436.83 -0.438365 -3.44926 0
M  V30 34478 H 3436.15 -1.2288 -3.80448 0
M  V30 34479 H 3437.59 -0.28138 -4.23065 0
M  V30 34480 C 3436.05 0.84521 -3.26125 0
M  V30 34481 O 3436.58 1.91028 -3.53371 0
M  V30 34482 N 3434.78 0.796351 -2.79476 0
M  V30 34483 H 3434.33 -0.0706048 -2.57503 0
M  V30 34484 H 3434.29 1.65561 -2.67277 0
M  V30 34485 N 3438.06 1.23288 -0.98172 0
M  V30 34486 C 3439.31 1.91739 -0.651335 0
M  V30 34487 C 3439.64 1.76588 0.815287 0
M  V30 34488 O 3438.89 1.12153 1.60375 0
M  V30 34489 C 3439.19 3.43435 -0.989304 0
M  V30 34490 C 3438.86 3.78767 -2.44635 0
M  V30 34491 C 3437.52 3.88122 -2.84455 0
M  V30 34492 C 3439.87 3.95778 -3.3913 0
M  V30 34493 C 3437.2 4.11916 -4.17782 0
M  V30 34494 C 3439.55 4.21073 -4.72102 0
M  V30 34495 C 3438.21 4.2865 -5.11679 0
M  V30 34496 H 3437.48 0.701623 -0.23834 0
M  V30 34497 H 3440.13 1.46286 -1.23583 0
M  V30 34498 H 3438.44 3.90468 -0.322745 0
M  V30 34499 H 3440.13 3.94631 -0.711865 0
M  V30 34500 H 3436.72 3.7206 -2.12765 0
M  V30 34501 H 3440.91 3.87939 -3.09543 0
M  V30 34502 H 3436.16 4.16005 -4.48051 0
M  V30 34503 H 3440.34 4.33179 -5.45279 0
M  V30 34504 H 3437.96 4.4684 -6.15011 0
M  V30 34505 N 3439.54 0.753533 1.38418 0
M  V30 34506 C 3440.47 0.141239 2.33072 0
M  V30 34507 C 3441.45 -0.703643 1.54864 0
M  V30 34508 O 3442.63 -0.64484 1.83181 0
M  V30 34509 C 3439.76 -0.752743 3.39044 0
M  V30 34510 C 3438.72 -0.010594 4.27999 0
M  V30 34511 C 3438.04 -1.02282 5.24826 0
M  V30 34512 C 3439.34 1.15777 5.09306 0
M  V30 34513 H 3441.04 0.93193 2.84527 0
M  V30 34514 H 3438.58 0.449591 1.36802 0
M  V30 34515 H 3440.54 -1.19076 4.04226 0
M  V30 34516 H 3439.26 -1.57575 2.86073 0
M  V30 34517 H 3437.92 0.408003 3.64323 0
M  V30 34518 H 3437.57 -1.83989 4.68142 0
M  V30 34519 H 3437.27 -0.530907 5.85197 0
M  V30 34520 H 3438.79 -1.46016 5.92884 0
M  V30 34521 H 3440.21 0.797303 5.67729 0
M  V30 34522 H 3438.6 1.58055 5.78912 0
M  V30 34523 H 3439.67 1.9707 4.43048 0
M  V30 34524 N 3441.02 -1.49371 0.502605 0
M  V30 34525 C 3442.24 -2.06865 -0.0381066 0
M  V30 34526 C 3442.66 -1.36273 -1.30672 0
M  V30 34527 O 3442.02 -0.441563 -1.77078 0
M  V30 34528 C 3442.07 -3.60302 -0.294004 0
M  V30 34529 O 3441.79 -4.28238 0.924319 0
M  V30 34530 C 3443.29 -4.34515 -0.878176 0
M  V30 34531 H 3440.51 -0.670665 0.0211874 0
M  V30 34532 H 3443.05 -1.92131 0.700421 0
M  V30 34533 H 3441.21 -3.74734 -0.982517 0
M  V30 34534 H 3441.62 -5.19966 0.688153 0
M  V30 34535 H 3443.1 -5.42741 -1.0068 0
M  V30 34536 H 3443.57 -3.97101 -1.87636 0
M  V30 34537 H 3444.18 -4.24693 -0.227083 0
M  V30 34538 N 3442.49 -0.236508 -1.55815 0
M  V30 34539 C 3443.4 0.678399 -2.24577 0
M  V30 34540 C 3444.42 1.2017 -1.25838 0
M  V30 34541 O 3445.6 1.24016 -1.58688 0
M  V30 34542 C 3442.66 1.8632 -2.92379 0
M  V30 34543 C 3441.72 1.3804 -4.06501 0
M  V30 34544 C 3440.96 2.50873 -4.71061 0
M  V30 34545 O 3441.18 3.69362 -4.34659 0
M  V30 34546 O 3440.11 2.21222 -5.59772 0
M  V30 34547 H 3443.94 0.122548 -3.03453 0
M  V30 34548 H 3441.52 -0.00543429 -1.49399 0
M  V30 34549 H 3443.41 2.55482 -3.35122 0
M  V30 34550 H 3442.08 2.40687 -2.16452 0
M  V30 34551 H 3440.99 0.656357 -3.68297 0
M  V30 34552 H 3442.32 0.882939 -4.84216 0
M  V30 34553 N 3443.97 1.57557 0.0367273 0
M  V30 34554 C 3445.22 1.892 0.730153 0
M  V30 34555 C 3445.55 0.833302 1.75413 0
M  V30 34556 O 3444.83 -0.152545 1.93901 0
M  V30 34557 C 3445.11 3.31491 1.40663 0
M  V30 34558 C 3444.96 4.48047 0.396686 0
M  V30 34559 C 3446.28 3.72571 2.34262 0
M  V30 34560 H 3443.4 0.688105 0.263971 0
M  V30 34561 H 3446.04 1.89999 -0.0070181 0
M  V30 34562 H 3444.19 3.3094 2.03496 0
M  V30 34563 H 3445.86 4.60731 -0.229143 0
M  V30 34564 H 3444.11 4.32864 -0.284775 0
M  V30 34565 H 3444.78 5.44475 0.90834 0
M  V30 34566 H 3447.25 3.74439 1.81478 0
M  V30 34567 H 3446.13 4.72954 2.78579 0
M  V30 34568 H 3446.39 3.04409 3.20605 0
M  V30 34569 N 3445.45 -0.308854 1.54544 0
M  V30 34570 C 3446.38 -1.38554 1.8795 0
M  V30 34571 C 3447.36 -1.53273 0.737649 0
M  V30 34572 O 3448.55 -1.66911 0.992694 0
M  V30 34573 C 3445.68 -2.75098 2.11987 0
M  V30 34574 C 3444.63 -2.75152 3.27834 0
M  V30 34575 C 3443.96 -4.14911 3.37273 0
M  V30 34576 C 3445.26 -2.3759 4.65133 0
M  V30 34577 H 3446.95 -1.10845 2.78125 0
M  V30 34578 H 3444.5 -0.531784 1.33821 0
M  V30 34579 H 3446.45 -3.50499 2.33941 0
M  V30 34580 H 3445.17 -3.04315 1.18574 0
M  V30 34581 H 3443.83 -2.02207 3.05791 0
M  V30 34582 H 3443.48 -4.41292 2.41392 0
M  V30 34583 H 3443.18 -4.1585 4.15142 0
M  V30 34584 H 3444.71 -4.92103 3.61479 0
M  V30 34585 H 3446.12 -3.02705 4.8687 0
M  V30 34586 H 3444.52 -2.49755 5.45658 0
M  V30 34587 H 3445.59 -1.32723 4.66383 0
M  V30 34588 N 3446.93 -1.46867 -0.571659 0
M  V30 34589 C 3447.89 -1.57835 -1.66195 0
M  V30 34590 C 3448.89 -0.454574 -1.54241 0
M  V30 34591 O 3450.08 -0.719219 -1.5866 0
M  V30 34592 C 3447.21 -1.50915 -3.05675 0
M  V30 34593 H 3448.41 -2.55012 -1.57825 0
M  V30 34594 H 3445.96 -1.34841 -0.79041 0
M  V30 34595 H 3446.7 -0.550585 -3.19592 0
M  V30 34596 H 3446.48 -2.32459 -3.15761 0
M  V30 34597 H 3447.97 -1.61699 -3.85024 0
M  V30 34598 N 3448.41 0.817212 -1.34757 0
M  V30 34599 C 3449.64 1.60301 -1.30335 0
M  V30 34600 C 3450.05 1.88796 0.123537 0
M  V30 34601 O 3449.39 1.48398 1.08276 0
M  V30 34602 C 3449.45 2.96574 -2.03184 0
M  V30 34603 C 3449.11 2.90946 -3.52419 0
M  V30 34604 C 3450.11 2.65128 -4.47217 0
M  V30 34605 C 3447.8 3.10398 -3.94916 0
M  V30 34606 C 3449.79 2.58822 -5.82486 0
M  V30 34607 C 3447.48 3.03716 -5.30283 0
M  V30 34608 C 3448.48 2.77962 -6.2388 0
M  V30 34609 O 3448.16 2.71224 -7.56765 0
M  V30 34610 H 3447.9 0.504792 -0.449623 0
M  V30 34611 H 3450.45 1.0244 -1.78032 0
M  V30 34612 H 3448.68 3.56376 -1.5011 0
M  V30 34613 H 3450.37 3.5763 -1.91979 0
M  V30 34614 H 3451.13 2.49829 -4.15705 0
M  V30 34615 H 3447.01 3.29458 -3.22457 0
M  V30 34616 H 3450.56 2.3864 -6.55513 0
M  V30 34617 H 3446.45 3.1857 -5.61412 0
M  V30 34618 H 3447.22 2.86909 -7.66567 0
M  V30 34619 N 3449.89 1.1858 1.0381 0
M  V30 34620 C 3451.11 1.00834 1.81238 0
M  V30 34621 C 3451.54 -0.438498 1.82917 0
M  V30 34622 O 3450.89 -1.31474 1.24837 0
M  V30 34623 C 3450.94 1.57081 3.24589 0
M  V30 34624 O 3450.05 0.793895 4.04686 0
M  V30 34625 H 3449.39 0.357038 0.559839 0
M  V30 34626 H 3451.92 1.57395 1.30721 0
M  V30 34627 H 3451.93 1.59903 3.7536 0
M  V30 34628 H 3450.6 2.62392 3.22681 0
M  V30 34629 H 3449.18 0.838198 3.63357 0
M  V30 34630 N 3451.36 -1.22766 0.988245 0
M  V30 34631 C 3452.31 -2.2654 0.527494 0
M  V30 34632 C 3453.31 -1.64124 -0.419477 0
M  V30 34633 O 3454.51 -1.77607 -0.292508 0
M  V30 34634 H 3450.89 -0.736441 0.152178 0
M  V30 34635 H 3452.86 -2.62757 1.41427 0
M  V30 34636 C 3451.61 -3.4739 -0.146784 0
M  V30 34637 H 3450.93 -3.95675 0.572821 0
M  V30 34638 H 3452.37 -4.21786 -0.432693 0
M  V30 34639 C 3450.83 -3.07313 -1.3806 0
M  V30 34640 O 3451.36 -3.16296 -2.47629 0
M  V30 34641 N 3449.56 -2.62145 -1.25413 0
M  V30 34642 H 3449.11 -2.55035 -0.362596 0
M  V30 34643 H 3449.07 -2.35697 -2.08073 0
M  V30 34644 N 3452.84 -0.760864 -1.38017 0
M  V30 34645 C 3454.07 -0.330074 -2.04757 0
M  V30 34646 C 3454.49 1.03582 -1.57011 0
M  V30 34647 O 3453.85 1.66156 -0.725379 0
M  V30 34648 C 3453.9 -0.370145 -3.58695 0
M  V30 34649 O 3453 0.633289 -4.07509 0
M  V30 34650 H 3452.34 -0.144793 -0.648021 0
M  V30 34651 H 3454.87 -1.03402 -1.76548 0
M  V30 34652 H 3454.88 -0.223586 -4.07387 0
M  V30 34653 H 3453.56 -1.36668 -3.92804 0
M  V30 34654 H 3452.13 0.450745 -3.70166 0
M  V30 34655 N 3454.32 1.49102 -0.510519 0
M  V30 34656 C 3455.54 2.07379 0.0292749 0
M  V30 34657 C 3455.97 1.36715 1.29192 0
M  V30 34658 O 3455.33 0.426869 1.76203 0
M  V30 34659 C 3455.38 3.59689 0.256227 0
M  V30 34660 O 3454.48 3.90399 1.329 0
M  V30 34661 H 3453.82 0.663301 -0.0304565 0
M  V30 34662 H 3456.35 1.9178 -0.712866 0
M  V30 34663 H 3456.36 4.05109 0.484843 0
M  V30 34664 H 3455.04 4.10529 -0.666235 0
M  V30 34665 H 3453.61 3.56779 1.08458 0
M  V30 34666 N 3455.8 0.244768 1.55688 0
M  V30 34667 C 3456.76 -0.642344 2.20015 0
M  V30 34668 C 3457.76 -1.10435 1.16879 0
M  V30 34669 O 3458.95 -1.00941 1.41974 0
M  V30 34670 C 3456.08 -1.88262 2.84201 0
M  V30 34671 H 3457.28 -0.081141 2.9979 0
M  V30 34672 H 3454.83 -0.0047817 1.56299 0
M  V30 34673 H 3455.56 -2.4851 2.08358 0
M  V30 34674 H 3455.35 -1.55956 3.5975 0
M  V30 34675 H 3456.84 -2.51414 3.33438 0
M  V30 34676 N 3457.28 -1.57574 -0.0283712 0
M  V30 34677 C 3458.69 -1.54911 -0.384027 0
M  V30 34678 C 3458.89 -0.970978 -1.76562 0
M  V30 34679 O 3457.95 -0.592331 -2.45454 0
M  V30 34680 C 3459.26 -2.99344 -0.285244 0
M  V30 34681 C 3460.81 -3.10896 -0.362276 0
M  V30 34682 C 3461.28 -4.57062 -0.292934 0
M  V30 34683 N 3462.77 -4.61863 -0.351707 0
M  V30 34684 C 3463.51 -5.72501 -0.320953 0
M  V30 34685 N 3463.01 -6.92376 -0.242451 0
M  V30 34686 N 3464.8 -5.60876 -0.370733 0
M  V30 34687 H 3456.95 -1.93505 0.875764 0
M  V30 34688 H 3459.21 -0.887565 0.333066 0
M  V30 34689 H 3458.92 -3.45371 0.664206 0
M  V30 34690 H 3458.79 -3.61449 -1.07862 0
M  V30 34691 H 3461.18 -2.64817 -1.30216 0
M  V30 34692 H 3461.26 -2.51621 0.460467 0
M  V30 34693 H 3460.9 -5.0381 0.643285 0
M  V30 34694 H 3460.83 -5.1425 -1.13379 0
M  V30 34695 H 3463.33 -3.75616 -0.414863 0
M  V30 34696 H 3463.64 -7.72475 -0.224104 0
M  V30 34697 H 3461.98 -6.94687 -0.208489 0
M  V30 34698 H 3465.17 -4.6612 -0.430059 0
M  V30 34699 H 3465.35 -6.4709 -0.343299 0
M  V30 34700 N 3458.75 0.300654 -1.54706 0
M  V30 34701 C 3460 1.03377 -1.73659 0
M  V30 34702 C 3460.32 1.87786 -0.52548 0
M  V30 34703 O 3459.59 1.90417 0.460235 0
M  V30 34704 H 3458.17 0.384666 -0.640345 0
M  V30 34705 H 3460.83 0.331555 -1.92059 0
M  V30 34706 H 3459.93 1.68668 -2.62598 0
M  V30 34707 N 3460.23 1.47168 0.563863 0
M  V30 34708 C 3461.65 1.32539 0.889133 0
M  V30 34709 C 3461.85 0.310889 1.99087 0
M  V30 34710 O 3460.9 -0.279936 2.50943 0
M  V30 34711 C 3462.22 2.71687 1.28866 0
M  V30 34712 C 3463.77 2.79922 1.40046 0
M  V30 34713 C 3464.24 4.19695 1.83357 0
M  V30 34714 N 3465.73 4.22205 1.90519 0
M  V30 34715 C 3466.47 5.27264 2.25345 0
M  V30 34716 N 3465.96 6.42633 2.58832 0
M  V30 34717 N 3467.76 5.14638 2.26062 0
M  V30 34718 H 3459.91 2.11769 -0.163619 0
M  V30 34719 H 3462.17 0.947941 -0.0105317 0
M  V30 34720 H 3461.88 3.47325 0.552996 0
M  V30 34721 H 3461.75 3.03025 2.24623 0
M  V30 34722 H 3464.14 2.0456 2.12695 0
M  V30 34723 H 3464.22 2.52246 0.424927 0
M  V30 34724 H 3463.86 4.95559 1.1128 0
M  V30 34725 H 3463.79 4.44791 2.81901 0
M  V30 34726 H 3466.28 3.38971 1.67053 0
M  V30 34727 H 3466.6 7.1856 2.84414 0
M  V30 34728 H 3464.94 6.45964 2.56428 0
M  V30 34729 H 3468.13 4.23536 1.99336 0
M  V30 34730 H 3468.3 5.96623 2.52874 0
M  V30 34731 N 3461.71 -0.810054 1.35188 0
M  V30 34732 C 3462.67 -1.90329 1.27701 0
M  V30 34733 C 3463.67 -1.59683 0.189244 0
M  V30 34734 O 3464.86 -1.6848 0.442718 0
M  V30 34735 C 3462 -3.26669 0.974688 0
M  V30 34736 H 3463.19 -1.98388 2.24905 0
M  V30 34737 H 3460.74 -1.00552 1.19662 0
M  V30 34738 H 3461.48 -3.24299 0.0063638 0
M  V30 34739 H 3461.26 -3.50298 1.76164 0
M  V30 34740 H 3462.75 -4.06702 0.947814 0
M  V30 34741 N 3463.19 -1.19129 -1.0318 0
M  V30 34742 C 3464.44 -0.992124 -1.76531 0
M  V30 34743 C 3464.76 0.477396 -1.8855 0
M  V30 34744 O 3464.02 1.37072 -1.39678 0
M  V30 34745 C 3464.32 -1.60272 -3.19449 0
M  V30 34746 C 3463.98 -3.09987 -3.27443 0
M  V30 34747 C 3462.65 -3.50847 -3.29332 0
M  V30 34748 C 3465 -4.05998 -3.26825 0
M  V30 34749 C 3462.33 -4.86276 -3.28256 0
M  V30 34750 C 3464.68 -5.41354 -3.2729 0
M  V30 34751 C 3463.34 -5.8165 -3.27475 0
M  V30 34752 H 3462.61 -0.363044 -0.645972 0
M  V30 34753 H 3465.26 -1.48328 -1.21124 0
M  V30 34754 H 3463.56 -1.03379 -3.77915 0
M  V30 34755 H 3465.26 -1.42394 -3.74866 0
M  V30 34756 H 3461.85 -2.77427 -3.26699 0
M  V30 34757 H 3466.03 -3.75475 -3.24549 0
M  V30 34758 H 3461.29 -5.16781 -3.26722 0
M  V30 34759 H 3465.46 -6.1551 -3.25762 0
M  V30 34760 H 3463.09 -6.86564 -3.26395 0
M  V30 34761 N 3464.67 1.2224 -0.994741 0
M  V30 34762 C 3465.6 2.26523 -0.566539 0
M  V30 34763 C 3466.58 1.65146 0.407512 0
M  V30 34764 O 3467.76 1.91904 0.297743 0
M  V30 34765 C 3464.89 3.471 0.117799 0
M  V30 34766 C 3463.85 4.20925 -0.774982 0
M  V30 34767 C 3463.17 5.34683 0.0423747 0
M  V30 34768 C 3464.47 4.79412 -2.07271 0
M  V30 34769 H 3466.17 2.62594 -1.43822 0
M  V30 34770 H 3463.71 1.26228 -0.692993 0
M  V30 34771 H 3465.67 4.19213 0.428769 0
M  V30 34772 H 3464.39 3.10131 1.02404 0
M  V30 34773 H 3463.05 3.50649 -1.06962 0
M  V30 34774 H 3462.7 4.93955 0.94959 0
M  V30 34775 H 3462.4 5.85002 -0.55197 0
M  V30 34776 H 3463.92 6.09611 0.347397 0
M  V30 34777 H 3465.33 5.43457 -1.82557 0
M  V30 34778 H 3463.73 5.40077 -2.61604 0
M  V30 34779 H 3464.8 3.99361 -2.75024 0
M  V30 34780 N 3466.14 0.768172 1.37611 0
M  V30 34781 C 3467.05 0.15269 2.34103 0
M  V30 34782 C 3468.07 -0.683783 1.60001 0
M  V30 34783 O 3469.25 -0.604538 1.92113 0
M  V30 34784 C 3466.31 -0.718894 3.39165 0
M  V30 34785 C 3465.37 0.133625 4.29092 0
M  V30 34786 C 3464.61 -0.696454 5.29136 0
M  V30 34787 O 3464.83 -1.93374 5.36622 0
M  V30 34788 O 3463.76 -0.107546 6.01804 0
M  V30 34789 H 3467.59 0.94995 2.88461 0
M  V30 34790 H 3465.17 0.529277 1.3971 0
M  V30 34791 H 3467.06 -1.21658 4.03457 0
M  V30 34792 H 3465.73 -1.4944 2.8714 0
M  V30 34793 H 3464.64 0.677592 3.67912 0
M  V30 34794 H 3465.97 0.872133 4.84412 0
M  V30 34795 N 3467.62 -1.48829 0.518419 0
M  V30 34796 C 3468.57 -2.26393 -0.270255 0
M  V30 34797 C 3469.56 -1.31991 -0.920177 0
M  V30 34798 O 3470.75 -1.56603 -0.824895 0
M  V30 34799 C 3467.88 -3.16757 -1.32362 0
M  V30 34800 C 3466.96 -4.18628 -0.67907 0
M  V30 34801 N 3467.35 -5.05284 0.228481 0
M  V30 34802 C 3465.65 -4.36033 -0.937635 0
M  V30 34803 C 3466.35 -5.78606 0.599178 0
M  V30 34804 N 3465.33 -5.43587 -0.0370318 0
M  V30 34805 H 3469.13 -2.90765 0.428117 0
M  V30 34806 H 3466.65 -1.58893 0.33566 0
M  V30 34807 H 3468.64 -3.70972 -1.90224 0
M  V30 34808 H 3467.3 -2.53939 -2.02349 0
M  V30 34809 H 3468.31 -5.14408 0.600383 0
M  V30 34810 H 3464.99 -3.84411 -1.62894 0
M  V30 34811 H 3466.38 -6.58348 1.34268 0
M  V30 34812 N 3469.1 -0.253021 -1.55556 0
M  V30 34813 C 3470.03 0.638007 -2.24615 0
M  V30 34814 C 3471.01 1.17648 -1.22854 0
M  V30 34815 O 3472.2 1.2147 -1.51521 0
M  V30 34816 C 3469.33 1.83231 -2.95032 0
M  V30 34817 C 3468.28 1.42634 -4.03534 0
M  V30 34818 C 3467.61 2.70196 -4.61409 0
M  V30 34819 C 3468.91 0.592867 -5.18924 0
M  V30 34820 H 3470.6 0.0621391 -2.99336 0
M  V30 34821 H 3468.15 0.0284469 -1.43972 0
M  V30 34822 H 3470.1 2.46135 -3.42046 0
M  V30 34823 H 3468.82 2.43365 -2.17809 0
M  V30 34824 H 3467.48 0.820609 -3.57298 0
M  V30 34825 H 3467.13 3.28542 -3.8088 0
M  V30 34826 H 3466.83 2.43754 -5.34657 0
M  V30 34827 H 3468.35 3.33988 -5.1116 0
M  V30 34828 H 3469.77 1.12636 -5.62126 0
M  V30 34829 H 3468.17 0.424253 -5.98598 0
M  V30 34830 H 3469.24 -0.393519 -4.83301 0
M  V30 34831 N 3470.58 1.57587 0.0200142 0
M  V30 34832 C 3471.81 1.93949 0.720522 0
M  V30 34833 C 3472.22 0.853528 1.68405 0
M  V30 34834 O 3471.58 -0.169305 1.81713 0
M  V30 34835 C 3471.63 3.30273 1.46976 0
M  V30 34836 O 3471.35 4.34698 0.544895 0
M  V30 34837 C 3472.85 3.80972 2.2666 0
M  V30 34838 H 3470.07 0.63989 0.201945 0
M  V30 34839 H 3472.62 2.04485 -0.0251534 0
M  V30 34840 H 3470.77 3.21107 2.16724 0
M  V30 34841 H 3471.18 5.13443 1.0713 0
M  V30 34842 H 3472.66 4.78844 2.74613 0
M  V30 34843 H 3473.14 3.12635 3.08474 0
M  V30 34844 H 3473.74 3.93251 1.61969 0
M  V30 34845 N 3472.06 -0.292445 1.54863 0
M  V30 34846 C 3473.33 -1.04668 1.65239 0
M  V30 34847 C 3473.71 -2.04941 0.506204 0
M  V30 34848 O 3473.06 -2.2305 -0.496083 0
M  V30 34849 C 3473.27 -1.7209 3.03622 0
M  V30 34850 C 3474.62 -2.23972 3.60724 0
M  V30 34851 O 3475.64 -1.82109 3.06129 0
M  V30 34852 O 3474.5 -3.00702 4.56334 0
M  V30 34853 H 3471.6 -0.484307 0.670355 0
M  V30 34854 H 3474.14 -0.289851 1.67206 0
M  V30 34855 H 3472.91 -0.993258 3.78484 0
M  V30 34856 H 3472.54 -2.54508 3.05469 0
M  V30 34857 N 3473.53 -1.47465 -0.55605 0
M  V30 34858 C 3474.46 -1.62918 -1.67273 0
M  V30 34859 C 3475.45 -0.47859 -1.63228 0
M  V30 34860 O 3476.63 -0.708064 -1.80832 0
M  V30 34861 C 3473.76 -1.64431 -3.05908 0
M  V30 34862 C 3472.71 -2.78728 -3.24799 0
M  V30 34863 C 3472.04 -2.65315 -4.64233 0
M  V30 34864 C 3473.34 -4.20307 -3.10063 0
M  V30 34865 H 3475.03 -2.56399 -1.54596 0
M  V30 34866 H 3472.58 -1.23392 -0.742315 0
M  V30 34867 H 3474.53 -1.73832 -3.83875 0
M  V30 34868 H 3473.26 -0.675109 -3.19546 0
M  V30 34869 H 3471.92 -2.68839 -2.49241 0
M  V30 34870 H 3471.56 -1.6642 -4.74672 0
M  V30 34871 H 3471.26 -3.41994 -4.77822 0
M  V30 34872 H 3472.79 -2.76646 -5.44334 0
M  V30 34873 H 3474.2 -4.31166 -3.77847 0
M  V30 34874 H 3472.6 -4.97782 -3.35161 0
M  V30 34875 H 3473.67 -4.38593 -2.06796 0
M  V30 34876 N 3475.01 0.802873 -1.35616 0
M  V30 34877 C 3476.24 1.59657 -1.3238 0
M  V30 34878 C 3476.66 1.87858 0.0953905 0
M  V30 34879 O 3476.02 1.46843 1.06333 0
M  V30 34880 C 3476.07 2.90252 -2.13977 0
M  V30 34881 O 3475.17 3.83246 -1.52303 0
M  V30 34882 H 3474.51 0.484815 -0.453708 0
M  V30 34883 H 3477.04 0.996186 -1.7871 0
M  V30 34884 H 3477.05 3.39643 -2.26067 0
M  V30 34885 H 3475.73 2.69052 -3.1715 0
M  V30 34886 H 3474.31 3.41806 -1.49074 0
M  V30 34887 N 3476.49 1.19674 1.02547 0
M  V30 34888 C 3477.74 0.995762 1.75407 0
M  V30 34889 C 3478.05 -0.473829 1.89774 0
M  V30 34890 O 3479.26 -0.793717 2.59639 0
M  V30 34891 C 3477.72 1.73278 3.1544 0
M  V30 34892 C 3477.32 3.24271 3.09115 0
M  V30 34893 C 3479.07 1.61516 3.92572 0
M  V30 34894 C 3476.97 3.90548 4.44102 0
M  V30 34895 H 3475.9 0.368955 0.657562 0
M  V30 34896 H 3478.56 1.43205 1.14737 0
M  V30 34897 H 3476.94 1.22432 3.76598 0
M  V30 34898 H 3478.11 3.82262 2.57318 0
M  V30 34899 H 3476.43 3.36346 2.45479 0
M  V30 34900 H 3479.02 2.08381 4.92424 0
M  V30 34901 H 3479.37 0.569876 4.12381 0
M  V30 34902 H 3479.9 2.09727 3.38023 0
M  V30 34903 H 3476.64 4.95189 4.29497 0
M  V30 34904 H 3476.16 3.37346 4.95942 0
M  V30 34905 H 3477.84 3.94291 5.12975 0
M  V30 34906 N 3477.97 -1.21711 1.00121 0
M  V30 34907 C 3479.39 -1.4277 0.713368 0
M  V30 34908 C 3479.59 -1.88468 -0.71289 0
M  V30 34909 O 3478.64 -2.0438 -1.48273 0
M  V30 34910 C 3479.95 -2.46231 1.72601 0
M  V30 34911 C 3481.5 -2.60019 1.74239 0
M  V30 34912 C 3481.98 -3.66708 2.74388 0
M  V30 34913 N 3483.47 -3.74175 2.73033 0
M  V30 34914 C 3484.2 -4.56343 3.47187 0
M  V30 34915 N 3483.7 -5.42438 4.30967 0
M  V30 34916 N 3485.49 -4.50731 3.35854 0
M  V30 34917 H 3477.64 -0.903577 1.92222 0
M  V30 34918 H 3479.91 -0.458996 0.829474 0
M  V30 34919 H 3479.61 -2.19617 2.74702 0
M  V30 34920 H 3479.49 -3.44972 1.52559 0
M  V30 34921 H 3481.87 -2.85971 0.728311 0
M  V30 34922 H 3481.95 -1.61524 1.98352 0
M  V30 34923 H 3481.6 -3.41501 3.75951 0
M  V30 34924 H 3481.53 -4.6479 2.47543 0
M  V30 34925 H 3484.02 -3.12665 2.12247 0
M  V30 34926 H 3484.33 -6.0218 4.84354 0
M  V30 34927 H 3482.68 -5.41992 4.35051 0
M  V30 34928 H 3485.87 -3.82499 2.69837 0
M  V30 34929 H 3486.04 -5.14535 3.93901 0
M  V30 34930 N 3479.45 -0.775459 -1.37202 0
M  V30 34931 C 3480.7 -0.340791 -1.99206 0
M  V30 34932 C 3481.02 1.08744 -1.61863 0
M  V30 34933 O 3480.29 1.74726 -0.885861 0
M  V30 34934 H 3478.87 -0.123017 -0.736801 0
M  V30 34935 H 3481.53 -0.994409 -1.67623 0
M  V30 34936 H 3480.62 -0.4214 -3.09242 0
M  V30 34937 N 3480.93 1.48552 -0.526305 0
M  V30 34938 C 3482.15 2.06899 0.00519133 0
M  V30 34939 C 3482.57 1.38335 1.28487 0
M  V30 34940 O 3481.93 0.469679 1.76353 0
M  V30 34941 C 3481.98 3.60725 0.236646 0
M  V30 34942 O 3481.7 4.26713 -0.992331 0
M  V30 34943 C 3483.2 4.35857 0.808938 0
M  V30 34944 H 3480.42 0.670243 -0.0318544 0
M  V30 34945 H 3482.96 1.90992 -0.730899 0
M  V30 34946 H 3481.12 3.76249 0.922776 0
M  V30 34947 H 3481.53 5.18805 -0.770788 0
M  V30 34948 H 3483.01 5.44274 0.920332 0
M  V30 34949 H 3483.48 4.00036 1.81295 0
M  V30 34950 H 3484.09 4.25001 0.159489 0
M  V30 34951 N 3482.4 0.261267 1.55419 0
M  V30 34952 C 3483.33 -0.626087 2.2495 0
M  V30 34953 C 3484.31 -1.16995 1.23476 0
M  V30 34954 O 3485.5 -1.20664 1.52164 0
M  V30 34955 C 3482.63 -1.81663 2.96 0
M  V30 34956 C 3481.58 -1.40492 4.04285 0
M  V30 34957 C 3480.91 -2.67745 4.62835 0
M  V30 34958 C 3482.21 -0.565339 5.19231 0
M  V30 34959 H 3483.9 -0.0462638 2.99364 0
M  V30 34960 H 3481.45 -0.0208113 1.43985 0
M  V30 34961 H 3483.4 -2.44317 3.43347 0
M  V30 34962 H 3482.13 -2.42207 2.19097 0
M  V30 34963 H 3480.79 -0.80165 3.57728 0
M  V30 34964 H 3480.43 -3.26517 3.82617 0
M  V30 34965 H 3480.13 -2.40915 5.35942 0
M  V30 34966 H 3481.66 -3.31272 5.12924 0
M  V30 34967 H 3483.07 -1.09653 5.62716 0
M  V30 34968 H 3481.47 -0.392502 5.98815 0
M  V30 34969 H 3482.54 0.419144 4.83085 0
M  V30 34970 N 3483.88 -1.57596 -0.0116567 0
M  V30 34971 C 3485.13 -1.90056 -0.698925 0
M  V30 34972 C 3485.46 -0.860689 -1.7442 0
M  V30 34973 O 3484.71 0.136098 -1.95226 0
M  V30 34974 C 3485.01 -3.29271 -1.38979 0
M  V30 34975 C 3484.68 -4.4835 -0.478837 0
M  V30 34976 C 3483.34 -4.8066 -0.227986 0
M  V30 34977 C 3485.69 -5.20987 0.149061 0
M  V30 34978 C 3483.02 -5.82984 0.65925 0
M  V30 34979 C 3485.37 -6.24255 1.0241 0
M  V30 34980 C 3484.03 -6.55029 1.28425 0
M  V30 34981 H 3483.3 -0.695464 -0.255755 0
M  V30 34982 H 3485.95 -1.91455 0.0413676 0
M  V30 34983 H 3484.26 -3.23941 -2.20384 0
M  V30 34984 H 3485.95 -3.51642 -1.92741 0
M  V30 34985 H 3482.54 -4.23099 -0.684515 0
M  V30 34986 H 3486.73 -4.9629 -0.0317454 0
M  V30 34987 H 3481.98 -6.05194 0.868926 0
M  V30 34988 H 3486.16 -6.79675 1.51706 0
M  V30 34989 H 3483.78 -7.34138 1.97345 0
M  V30 34990 N 3485.36 0.284228 -1.55016 0
M  V30 34991 C 3486.61 1.01881 -1.75351 0
M  V30 34992 C 3486.94 1.86341 -0.546858 0
M  V30 34993 O 3486.21 1.89084 0.455799 0
M  V30 34994 C 3486.5 1.91079 -3.05223 0
M  V30 34995 C 3486.35 1.09687 -4.36221 0
M  V30 34996 C 3487.67 2.89977 -3.31061 0
M  V30 34997 H 3484.79 0.368973 -0.637987 0
M  V30 34998 H 3487.43 0.292083 -1.87742 0
M  V30 34999 H 3485.58 2.53043 -2.94791 0
M  V30 35000 H 3487.25 0.498796 -4.58595 0
M  V30 35001 H 3485.49 0.400002 -4.31952 0
M  V30 35002 H 3486.17 1.7539 -5.23395 0
M  V30 35003 H 3488.64 2.38145 -3.41213 0
M  V30 35004 H 3487.52 3.49539 -4.23218 0
M  V30 35005 H 3487.78 3.64517 -2.5016 0
M  V30 35006 N 3486.84 1.47758 0.548222 0
M  V30 35007 C 3488.25 1.48597 1.1303 0
M  V30 35008 C 3488.6 0.24561 1.94657 0
M  V30 35009 O 3487.72 -0.648776 2.06446 0
M  V30 35010 C 3488.32 2.69244 2.05653 0
M  V30 35011 C 3486.88 2.73014 2.59115 0
M  V30 35012 C 3486.03 2.41838 1.35682 0
M  V30 35013 H 3488.98 1.55138 0.33437 0
M  V30 35014 H 3489 2.46725 2.89667 0
M  V30 35015 H 3488.51 3.59503 1.46216 0
M  V30 35016 H 3486.61 1.86917 3.22324 0
M  V30 35017 H 3486.72 3.73952 2.99494 0
M  V30 35018 H 3485.09 1.92609 1.66655 0
M  V30 35019 H 3485.87 3.34316 0.780253 0
M  V30 35020 N 3488.32 -0.79567 1.3604 0
M  V30 35021 C 3489.25 -1.91646 1.25716 0
M  V30 35022 C 3490.26 -1.61824 0.178021 0
M  V30 35023 O 3491.45 -1.73188 0.432216 0
M  V30 35024 C 3488.55 -3.26297 0.915604 0
M  V30 35025 C 3487.72 -3.83945 2.09535 0
M  V30 35026 C 3486.78 -4.97023 1.72784 0
M  V30 35027 O 3485.81 -5.13872 2.44795 0
M  V30 35028 N 3487.01 -5.7676 0.657851 0
M  V30 35029 H 3489.77 -2.01026 2.22281 0
M  V30 35030 H 3487.34 -0.973635 1.29352 0
M  V30 35031 H 3489.33 -3.99429 0.651028 0
M  V30 35032 H 3487.9 -3.12575 0.0392892 0
M  V30 35033 H 3487.12 -3.02876 2.52309 0
M  V30 35034 H 3488.41 -4.19191 2.88368 0
M  V30 35035 H 3487.8 -5.65668 0.0597869 0
M  V30 35036 H 3486.36 -6.50223 0.453084 0
M  V30 35037 N 3489.79 -1.20217 -1.0191 0
M  V30 35038 C 3490.74 -0.94553 -2.12515 0
M  V30 35039 C 3491.74 0.102213 -1.69091 0
M  V30 35040 O 3492.94 -0.0479197 -1.79936 0
M  V30 35041 H 3489.32 -0.288421 -0.694491 0
M  V30 35042 H 3491.29 -1.88472 -2.31346 0
M  V30 35043 C 3490.04 -0.51143 -3.43918 0
M  V30 35044 H 3489.36 -1.30923 -3.77756 0
M  V30 35045 H 3490.8 -0.371056 -4.22373 0
M  V30 35046 C 3489.26 0.775844 -3.27845 0
M  V30 35047 O 3489.79 1.83489 -3.57344 0
M  V30 35048 N 3488 0.73689 -2.81102 0
M  V30 35049 H 3487.54 -0.125209 -2.57296 0
M  V30 35050 H 3487.5 1.59854 -2.70729 0
M  V30 35051 N 3491.27 1.21178 -1.00765 0
M  V30 35052 C 3492.5 1.94849 -0.71055 0
M  V30 35053 C 3492.92 1.73737 0.720904 0
M  V30 35054 O 3492.28 1.02591 1.49482 0
M  V30 35055 C 3492.33 3.45265 -1.04041 0
M  V30 35056 O 3491.43 4.12138 -0.147119 0
M  V30 35057 H 3490.77 0.609052 -0.264483 0
M  V30 35058 H 3493.3 1.53862 -1.34861 0
M  V30 35059 H 3493.31 3.95848 -0.988369 0
M  V30 35060 H 3491.99 3.59955 -2.0834 0
M  V30 35061 H 3490.57 3.72021 -0.255912 0
M  V30 35062 N 3492.75 0.782725 1.36789 0
M  V30 35063 C 3494 0.351351 1.99022 0
M  V30 35064 C 3494.32 -1.07884 1.62438 0
M  V30 35065 O 3493.59 -1.74254 0.895114 0
M  V30 35066 H 3492.17 0.126922 0.736138 0
M  V30 35067 H 3494.83 1.00328 1.67093 0
M  V30 35068 H 3493.93 0.437794 3.09014 0
M  V30 35069 N 3494.23 -1.48271 0.534176 0
M  V30 35070 C 3495.16 -2.32508 -0.214996 0
M  V30 35071 C 3496.14 -1.42356 -0.931058 0
M  V30 35072 O 3497.32 -1.71239 -0.916021 0
M  V30 35073 C 3494.45 -3.23646 -1.25979 0
M  V30 35074 C 3493.41 -4.22855 -0.661617 0
M  V30 35075 C 3492.73 -5.03156 -1.80937 0
M  V30 35076 C 3494.03 -5.20992 0.369449 0
M  V30 35077 H 3495.73 -2.95393 0.48821 0
M  V30 35078 H 3493.27 -1.42049 0.236231 0
M  V30 35079 H 3495.23 -3.81405 -1.79188 0
M  V30 35080 H 3493.95 -2.58769 -1.99264 0
M  V30 35081 H 3492.61 -3.66289 -0.151018 0
M  V30 35082 H 3492.26 -4.34701 -2.5307 0
M  V30 35083 H 3491.96 -5.70307 -1.41503 0
M  V30 35084 H 3493.48 -5.63768 -2.34516 0
M  V30 35085 H 3494.9 -5.7325 -0.0757069 0
M  V30 35086 H 3493.29 -5.96219 0.681406 0
M  V30 35087 H 3494.36 -4.67872 1.27371 0
M  V30 35088 N 3495.71 -0.269505 -1.55279 0
M  V30 35089 C 3496.95 0.348189 -1.99078 0
M  V30 35090 C 3497.28 1.56798 -1.15928 0
M  V30 35091 O 3496.55 1.94331 -0.247438 0
M  V30 35092 H 3495.13 0.13164 -0.735309 0
M  V30 35093 H 3497.79 -0.37354 -1.91287 0
M  V30 35094 H 3496.88 0.6419 -3.05428 0
M  V30 35095 N 3497.18 1.576 0.00329885 0
M  V30 35096 C 3498.09 2.11642 1.01217 0
M  V30 35097 C 3499.11 1.06091 1.37916 0
M  V30 35098 O 3500.29 1.37974 1.46715 0
M  V30 35099 C 3497.35 2.6063 2.28633 0
M  V30 35100 C 3496.41 3.80768 1.98277 0
M  V30 35101 C 3495.65 4.2741 3.19619 0
M  V30 35102 O 3495.87 3.73405 4.3119 0
M  V30 35103 O 3494.8 5.19599 3.03809 0
M  V30 35104 H 3498.63 2.98056 0.582787 0
M  V30 35105 H 3496.21 1.47743 0.221921 0
M  V30 35106 H 3498.1 2.92352 3.03493 0
M  V30 35107 H 3496.77 1.77315 2.70816 0
M  V30 35108 H 3495.68 3.54024 1.20904 0
M  V30 35109 H 3497.01 4.65146 1.60934 0
M  V30 35110 N 3498.66 -0.276003 1.55164 0
M  V30 35111 C 3499.61 -1.36101 1.88625 0
M  V30 35112 C 3500.6 -1.51279 0.762291 0
M  V30 35113 O 3501.81 -1.531 0.946599 0
M  V30 35114 H 3498.19 -0.455122 0.598638 0
M  V30 35115 H 3500.16 -1.05129 2.79268 0
M  V30 35116 C 3498.91 -2.71504 2.17211 0
M  V30 35117 H 3498.23 -2.60614 3.03183 0
M  V30 35118 H 3499.67 -3.46371 2.44547 0
M  V30 35119 C 3498.13 -3.2237 0.978727 0
M  V30 35120 O 3498.66 -4.01141 0.211836 0
M  V30 35121 N 3496.86 -2.80013 0.777248 0
M  V30 35122 H 3496.41 -2.16069 1.40256 0
M  V30 35123 H 3496.37 -3.14394 -0.0196201 0
M  V30 35124 N 3500.14 -1.48046 -0.540378 0
M  V30 35125 C 3501.05 -1.64457 -1.67305 0
M  V30 35126 C 3502.07 -0.527181 -1.65822 0
M  V30 35127 O 3503.24 -0.796914 -1.84963 0
M  V30 35128 C 3500.31 -1.67073 -3.03789 0
M  V30 35129 C 3499.37 -2.90363 -3.16208 0
M  V30 35130 C 3498.6 -2.92844 -4.46181 0
M  V30 35131 O 3498.82 -2.04038 -5.32658 0
M  V30 35132 O 3497.76 -3.849 -4.62748 0
M  V30 35133 H 3501.58 -2.60333 -1.56398 0
M  V30 35134 H 3499.17 -1.31327 -0.7123 0
M  V30 35135 H 3501.05 -1.71374 -3.84979 0
M  V30 35136 H 3499.73 -0.743685 -3.15041 0
M  V30 35137 H 3498.63 -2.91599 -2.34352 0
M  V30 35138 H 3499.97 -3.82418 -3.09867 0
M  V30 35139 N 3501.62 0.788444 -1.3646 0
M  V30 35140 C 3502.85 1.57729 -1.339 0
M  V30 35141 C 3503.26 1.88632 0.0795139 0
M  V30 35142 O 3502.62 1.50197 1.03668 0
M  V30 35143 C 3502.67 2.89769 -2.16139 0
M  V30 35144 O 3502.39 2.60197 -3.52462 0
M  V30 35145 C 3503.89 3.8407 -2.21371 0
M  V30 35146 H 3501.11 0.489189 -0.459277 0
M  V30 35147 H 3503.66 0.978494 -1.79571 0
M  V30 35148 H 3501.81 3.46115 -1.74021 0
M  V30 35149 H 3502.22 3.44633 -3.95384 0
M  V30 35150 H 3503.7 4.73775 -2.83269 0
M  V30 35151 H 3504.18 4.2199 -1.21743 0
M  V30 35152 H 3504.78 3.33657 -2.63729 0
M  V30 35153 N 3503.1 1.20755 1.01271 0
M  V30 35154 C 3504.03 0.983842 2.11761 0
M  V30 35155 C 3505.01 -0.0885337 1.69869 0
M  V30 35156 O 3506.19 0.069758 1.94075 0
M  V30 35157 C 3503.32 0.539348 3.43086 0
M  V30 35158 C 3502.28 1.55541 3.98737 0
M  V30 35159 C 3501.6 0.967414 5.25876 0
M  V30 35160 C 3502.9 2.94019 4.31683 0
M  V30 35161 H 3504.6 1.90794 2.30734 0
M  V30 35162 H 3502.14 0.918754 1.10882 0
M  V30 35163 H 3504.1 0.370053 4.19772 0
M  V30 35164 H 3502.82 -0.420378 3.23883 0
M  V30 35165 H 3501.48 1.71213 3.24163 0
M  V30 35166 H 3501.13 -0.000359892 5.03 0
M  V30 35167 H 3500.83 1.64604 5.64074 0
M  V30 35168 H 3502.35 0.809273 6.05213 0
M  V30 35169 H 3503.76 2.81835 4.99241 0
M  V30 35170 H 3502.16 3.58824 4.81005 0
M  V30 35171 H 3503.23 3.45448 3.40284 0
M  V30 35172 N 3504.58 -1.20642 1.01406 0
M  V30 35173 C 3505.8 -1.94469 0.720873 0
M  V30 35174 C 3506.23 -1.74117 -0.71168 0
M  V30 35175 O 3505.58 -1.03382 -1.48936 0
M  V30 35176 C 3505.63 -3.44708 1.0587 0
M  V30 35177 O 3504.74 -4.12054 0.168974 0
M  V30 35178 H 3504.08 -0.607641 0.267709 0
M  V30 35179 H 3506.61 -1.53145 1.35675 0
M  V30 35180 H 3506.62 -3.95318 1.00935 0
M  V30 35181 H 3505.29 -3.58845 2.10246 0
M  V30 35182 H 3503.87 -3.7188 0.275638 0
M  V30 35183 N 3506.05 -0.789968 -1.36372 0
M  V30 35184 C 3507.3 -0.3619 -1.98833 0
M  V30 35185 C 3507.62 1.07021 -1.63008 0
M  V30 35186 O 3506.89 1.73777 -0.904343 0
M  V30 35187 H 3505.47 -0.130825 -0.735455 0
M  V30 35188 H 3508.13 -1.01213 -1.66559 0
M  V30 35189 H 3507.23 -0.454176 -3.08778 0
M  V30 35190 N 3507.53 1.47986 -0.542031 0
M  V30 35191 C 3508.95 1.58333 -0.200719 0
M  V30 35192 C 3509.15 1.54258 1.29641 0
M  V30 35193 O 3508.2 1.43798 2.07553 0
M  V30 35194 C 3509.52 2.89475 -0.813929 0
M  V30 35195 C 3511.06 3.03028 -0.783764 0
M  V30 35196 C 3511.54 4.36849 -1.37577 0
M  V30 35197 N 3513.03 4.43446 -1.33827 0
M  V30 35198 C 3513.77 5.45524 -1.76611 0
M  V30 35199 N 3513.26 6.54493 -2.27181 0
M  V30 35200 N 3515.05 5.36478 -1.67774 0
M  V30 35201 H 3507.21 1.48877 -1.5149 0
M  V30 35202 H 3509.47 0.707627 -0.630847 0
M  V30 35203 H 3509.17 2.98148 -1.86549 0
M  V30 35204 H 3509.05 3.76021 -0.298045 0
M  V30 35205 H 3511.44 2.93961 0.259067 0
M  V30 35206 H 3511.52 2.18063 -1.33725 0
M  V30 35207 H 3511.16 4.46671 -2.41759 0
M  V30 35208 H 3511.09 5.20521 -0.797861 0
M  V30 35209 H 3513.58 3.65286 -0.968211 0
M  V30 35210 H 3513.89 7.28536 -2.5779 0
M  V30 35211 H 3512.24 6.55423 -2.31182 0
M  V30 35212 H 3515.43 4.50244 -1.28056 0
M  V30 35213 H 3515.6 6.15895 -2.01437 0
M  V30 35214 N 3509.01 0.277736 1.55133 0
M  V30 35215 C 3510.29 -0.390219 1.91668 0
M  V30 35216 C 3510.67 -1.73516 1.20231 0
M  V30 35217 O 3510.01 -2.26104 0.330052 0
M  V30 35218 C 3510.22 -0.527909 3.44984 0
M  V30 35219 C 3511.57 -0.809592 4.1681 0
M  V30 35220 O 3512.6 -0.612617 3.50892 0
M  V30 35221 O 3511.46 -1.18647 5.33465 0
M  V30 35222 H 3508.55 -0.214081 0.798811 0
M  V30 35223 H 3511.1 0.324082 1.66577 0
M  V30 35224 H 3509.87 0.418491 3.89056 0
M  V30 35225 H 3509.49 -1.29158 3.76037 0
M  V30 35226 N 3510.49 -1.57599 0.00505908 0
M  V30 35227 C 3511.74 -1.89965 -0.677946 0
M  V30 35228 C 3512.05 -0.880621 -1.74655 0
M  V30 35229 O 3513.26 -1.09468 -2.48453 0
M  V30 35230 C 3511.71 -3.37235 -1.25702 0
M  V30 35231 C 3511.32 -4.47445 -0.222967 0
M  V30 35232 C 3513.06 -3.78703 -1.91792 0
M  V30 35233 C 3510.97 -5.85795 -0.812313 0
M  V30 35234 H 3509.9 -0.708857 -0.256979 0
M  V30 35235 H 3512.55 -1.8338 0.066431 0
M  V30 35236 H 3510.93 -3.38674 -2.05222 0
M  V30 35237 H 3512.11 -4.5753 0.54802 0
M  V30 35238 H 3510.42 -4.15028 0.337787 0
M  V30 35239 H 3513.02 -4.79406 -2.36799 0
M  V30 35240 H 3513.36 -3.12485 -2.75062 0
M  V30 35241 H 3513.9 -3.79585 -1.18997 0
M  V30 35242 H 3510.63 -6.55497 -0.0182879 0
M  V30 35243 H 3510.15 -5.79364 -1.55234 0
M  V30 35244 H 3511.83 -6.33611 -1.30941 0
M  V30 35245 N 3511.97 0.267771 -1.55309 0
M  V30 35246 C 3512.88 1.35303 -1.91651 0
M  V30 35247 C 3513.89 1.53766 -0.814376 0
M  V30 35248 O 3515.07 1.67791 -1.11391 0
M  V30 35249 C 3512.13 2.69134 -2.18558 0
M  V30 35250 C 3511.19 2.59374 -3.42088 0
M  V30 35251 C 3510.43 3.86822 -3.67702 0
M  V30 35252 O 3510.65 4.87746 -2.95736 0
M  V30 35253 O 3509.58 3.8671 -4.61236 0
M  V30 35254 H 3513.41 1.07478 -2.84046 0
M  V30 35255 H 3510.99 0.466747 -1.41922 0
M  V30 35256 H 3512.88 3.48257 -2.37266 0
M  V30 35257 H 3511.55 2.96735 -1.29345 0
M  V30 35258 H 3510.46 1.78609 -3.28709 0
M  V30 35259 H 3511.79 2.36722 -4.31536 0
M  V30 35260 N 3513.44 1.48331 0.532519 0
M  V30 35261 C 3514.39 1.59065 1.63347 0
M  V30 35262 C 3515.38 0.447932 1.54539 0
M  V30 35263 O 3516.57 0.699233 1.62603 0
M  V30 35264 C 3513.7 1.63114 3.02074 0
M  V30 35265 C 3512.78 2.82857 3.15995 0
M  V30 35266 N 3513.18 4.07302 2.99898 0
M  V30 35267 C 3511.47 2.80136 3.47044 0
M  V30 35268 C 3512.17 4.87627 3.17167 0
M  V30 35269 N 3511.15 4.20397 3.44627 0
M  V30 35270 H 3514.95 2.53031 1.49508 0
M  V30 35271 H 3512.47 1.44667 0.737915 0
M  V30 35272 H 3514.46 1.68898 3.81155 0
M  V30 35273 H 3513.12 0.70263 3.17007 0
M  V30 35274 H 3514.13 4.37779 2.76713 0
M  V30 35275 H 3510.81 1.9653 3.68351 0
M  V30 35276 H 3512.2 5.96382 3.09481 0
M  V30 35277 N 3514.92 -0.781196 1.36876 0
M  V30 35278 C 3515.87 -1.88411 1.28395 0
M  V30 35279 C 3516.86 -1.59959 0.173715 0
M  V30 35280 O 3518.05 -1.72251 0.407268 0
M  V30 35281 C 3515.18 -3.25745 1.08374 0
M  V30 35282 C 3514.26 -3.6018 2.239 0
M  V30 35283 N 3514.65 -3.65863 3.49253 0
M  V30 35284 C 3512.95 -3.9029 2.15847 0
M  V30 35285 C 3513.65 -3.96773 4.25377 0
M  V30 35286 N 3512.63 -4.12183 3.54409 0
M  V30 35287 H 3516.43 -1.91043 2.23338 0
M  V30 35288 H 3513.94 -0.977152 1.29713 0
M  V30 35289 H 3515.94 -4.04634 1.00384 0
M  V30 35290 H 3514.6 -3.24383 0.143391 0
M  V30 35291 H 3515.61 -3.48303 3.83283 0
M  V30 35292 H 3512.29 -3.96805 1.29815 0
M  V30 35293 H 3513.68 -4.08025 5.33821 0
M  V30 35294 N 3516.4 -1.21291 -1.0063 0
M  V30 35295 C 3517.33 -0.995058 -2.11236 0
M  V30 35296 C 3518.31 0.0795238 -1.69914 0
M  V30 35297 O 3519.5 -0.0800493 -1.94035 0
M  V30 35298 C 3516.63 -0.557535 -3.42796 0
M  V30 35299 C 3515.58 -1.57653 -3.97906 0
M  V30 35300 C 3514.91 -0.995289 -5.25355 0
M  V30 35301 C 3516.21 -2.96304 -4.30117 0
M  V30 35302 H 3517.9 -1.92014 -2.29719 0
M  V30 35303 H 3515.45 -0.924621 -1.10394 0
M  V30 35304 H 3517.4 -0.39231 -4.1957 0
M  V30 35305 H 3516.12 0.403196 -3.24102 0
M  V30 35306 H 3514.78 -1.7293 -3.2325 0
M  V30 35307 H 3514.43 -0.0263154 -5.02993 0
M  V30 35308 H 3514.13 -1.67593 -5.63193 0
M  V30 35309 H 3515.65 -0.841357 -6.04776 0
M  V30 35310 H 3517.07 -2.84479 -4.97739 0
M  V30 35311 H 3515.46 -3.6137 -4.79095 0
M  V30 35312 H 3516.53 -3.47248 -3.38448 0
M  V30 35313 N 3517.88 1.20103 -1.02045 0
M  V30 35314 C 3518.84 2.21242 -0.598721 0
M  V30 35315 C 3519.84 1.5731 0.333178 0
M  V30 35316 O 3521.03 1.73777 0.12134 0
M  V30 35317 C 3518.16 3.4067 0.125123 0
M  V30 35318 H 3519.36 2.60067 -1.49349 0
M  V30 35319 H 3516.91 1.33633 -0.810672 0
M  V30 35320 H 3517.64 3.07353 1.03463 0
M  V30 35321 H 3517.43 3.88303 -0.544384 0
M  V30 35322 H 3518.92 4.15608 0.407396 0
M  V30 35323 N 3519.36 0.797189 1.35951 0
M  V30 35324 C 3520.3 0.188998 2.31831 0
M  V30 35325 C 3521.3 -0.656015 1.56182 0
M  V30 35326 O 3522.5 -0.550229 1.71384 0
M  V30 35327 H 3518.88 0.0423486 0.750807 0
M  V30 35328 H 3520.85 1.01295 2.80681 0
M  V30 35329 C 3519.6 -0.655487 3.41465 0
M  V30 35330 H 3518.92 -0.0146152 3.99797 0
M  V30 35331 H 3520.36 -1.04758 4.10855 0
M  V30 35332 C 3518.82 -1.81704 2.83699 0
M  V30 35333 O 3519.35 -2.91404 2.76489 0
M  V30 35334 N 3517.56 -1.6256 2.40879 0
M  V30 35335 H 3517.1 -0.733294 2.46942 0
M  V30 35336 H 3517.06 -2.40438 2.02576 0
M  V30 35337 N 3520.83 -1.47696 0.549872 0
M  V30 35338 C 3522.08 -2.02787 0.0231201 0
M  V30 35339 C 3522.41 -1.42411 -1.32033 0
M  V30 35340 O 3521.69 -0.577011 -1.85744 0
M  V30 35341 C 3521.97 -3.60016 -0.077773 0
M  V30 35342 C 3521.82 -4.30838 1.29225 0
M  V30 35343 C 3523.14 -4.32863 -0.794833 0
M  V30 35344 H 3520.26 -0.736934 0.00987602 0
M  V30 35345 H 3522.9 -1.76206 0.710745 0
M  V30 35346 H 3521.05 -3.82794 -0.663396 0
M  V30 35347 H 3522.73 -4.19421 1.92051 0
M  V30 35348 H 3520.97 -3.91478 1.8689 0
M  V30 35349 H 3521.64 -5.39361 1.17445 0
M  V30 35350 H 3524.12 -4.15034 -0.29767 0
M  V30 35351 H 3522.99 -5.42521 -0.83437 0
M  V30 35352 H 3523.25 -4.01558 -1.84941 0
M  V30 35353 N 3522.31 -0.285959 -1.54984 0
M  V30 35354 C 3523.54 0.333585 -2.047 0
M  V30 35355 C 3523.96 1.47873 -1.16254 0
M  V30 35356 O 3523.32 1.80562 -0.163407 0
M  V30 35357 C 3523.37 0.781808 -3.52023 0
M  V30 35358 O 3522.47 1.88805 -3.66642 0
M  V30 35359 H 3521.81 0.0673087 -0.66058 0
M  V30 35360 H 3524.34 -0.423421 -2.00171 0
M  V30 35361 H 3524.35 1.07466 -3.93592 0
M  V30 35362 H 3523.03 -0.0559661 -4.15862 0
M  V30 35363 H 3521.61 1.5969 -3.36977 0
M  V30 35364 N 3523.79 1.57594 -0.0134169 0
M  V30 35365 C 3524.72 2.04733 1.00795 0
M  V30 35366 C 3525.7 0.939873 1.32684 0
M  V30 35367 O 3526.89 1.20902 1.4462 0
M  V30 35368 C 3524.01 2.45622 2.33212 0
M  V30 35369 C 3523.06 3.67233 2.16892 0
M  V30 35370 S 3523.89 5.14573 1.48239 0
M  V30 35371 C 3525.05 5.58743 2.82058 0
M  V30 35372 H 3525.28 2.91045 0.606622 0
M  V30 35373 H 3522.81 1.53127 0.197838 0
M  V30 35374 H 3524.77 2.69846 3.09343 0
M  V30 35375 H 3523.43 1.59684 2.70481 0
M  V30 35376 H 3522.63 3.93638 3.14746 0
M  V30 35377 H 3522.23 3.4308 1.48904 0
M  V30 35378 H 3524.52 5.62023 3.78333 0
M  V30 35379 H 3525.46 6.58506 2.60337 0
M  V30 35380 H 3525.87 4.86343 2.86584 0
M  V30 35381 N 3525.27 -0.259531 1.55448 0
M  V30 35382 C 3526.52 -0.989319 1.76688 0
M  V30 35383 C 3526.84 -1.85792 0.575467 0
M  V30 35384 O 3526.1 -1.90652 -0.441642 0
M  V30 35385 C 3526.4 -1.89067 3.03296 0
M  V30 35386 C 3526.06 -1.17847 4.35227 0
M  V30 35387 C 3524.73 -0.981592 4.71082 0
M  V30 35388 C 3527.08 -0.672709 5.1684 0
M  V30 35389 C 3524.41 -0.266448 5.86095 0
M  V30 35390 C 3526.76 0.0289077 6.32593 0
M  V30 35391 C 3525.42 0.237378 6.67078 0
M  V30 35392 H 3524.69 -0.362018 0.646548 0
M  V30 35393 H 3527.34 -0.260454 1.89721 0
M  V30 35394 H 3525.64 -2.68619 2.85221 0
M  V30 35395 H 3527.34 -2.45679 3.16927 0
M  V30 35396 H 3523.93 -1.34184 4.07053 0
M  V30 35397 H 3528.11 -0.812395 4.89606 0
M  V30 35398 H 3523.37 -0.0943372 6.11327 0
M  V30 35399 H 3527.54 0.4285 6.9508 0
M  V30 35400 H 3525.17 0.793491 7.56047 0
M  V30 35401 N 3526.75 -1.48611 -0.524645 0
M  V30 35402 C 3527.99 -1.569 -1.28018 0
M  V30 35403 C 3528.32 -0.245237 -1.92948 0
M  V30 35404 O 3527.58 0.764935 -1.80131 0
M  V30 35405 C 3527.88 -2.65998 -2.38705 0
M  V30 35406 C 3527.54 -4.08264 -1.91393 0
M  V30 35407 C 3526.2 -4.46985 -1.78207 0
M  V30 35408 C 3528.56 -4.97399 -1.55704 0
M  V30 35409 C 3525.88 -5.72639 -1.27677 0
M  V30 35410 C 3528.24 -6.23548 -1.06634 0
M  V30 35411 C 3526.9 -6.6112 -0.920702 0
M  V30 35412 H 3526.17 -0.574138 -0.468451 0
M  V30 35413 H 3528.82 -1.8235 -0.584869 0
M  V30 35414 H 3527.12 -2.34428 -3.13928 0
M  V30 35415 H 3528.82 -2.69625 -2.96822 0
M  V30 35416 H 3525.41 -3.77688 -2.02607 0
M  V30 35417 H 3529.59 -4.68158 -1.64749 0
M  V30 35418 H 3524.85 -6.0047 -1.15092 0
M  V30 35419 H 3529.02 -6.92008 -0.780926 0
M  V30 35420 H 3526.65 -7.58371 -0.526958 0
M  V30 35421 N 3528.22 0.773926 -1.37289 0
M  V30 35422 C 3529.45 1.56073 -1.35369 0
M  V30 35423 C 3529.86 1.89094 0.0634105 0
M  V30 35424 O 3529.21 1.51767 1.03501 0
M  V30 35425 C 3529.27 2.8996 -2.12517 0
M  V30 35426 C 3528.93 2.79587 -3.61497 0
M  V30 35427 C 3529.93 2.50766 -4.55426 0
M  V30 35428 C 3527.61 2.97677 -4.04591 0
M  V30 35429 C 3529.61 2.4016 -5.90425 0
M  V30 35430 C 3527.29 2.86692 -5.39677 0
M  V30 35431 C 3528.29 2.57973 -6.32407 0
M  V30 35432 O 3527.98 2.4701 -7.65011 0
M  V30 35433 H 3527.71 0.490232 -0.465455 0
M  V30 35434 H 3530.27 0.967241 -1.812 0
M  V30 35435 H 3528.5 3.5142 -1.61372 0
M  V30 35436 H 3530.19 3.51341 -2.03259 0
M  V30 35437 H 3530.95 2.36477 -4.23443 0
M  V30 35438 H 3526.83 3.19033 -3.32775 0
M  V30 35439 H 3530.37 2.17665 -6.62773 0
M  V30 35440 H 3526.27 3.00548 -5.71263 0
M  V30 35441 H 3527.04 2.62376 -7.75307 0
M  V30 35442 N 3529.7 1.21823 0.99985 0
M  V30 35443 C 3530.65 0.97922 2.10984 0
M  V30 35444 C 3531.64 -0.0752989 1.69233 0
M  V30 35445 O 3532.85 0.0765399 1.79837 0
M  V30 35446 H 3529.23 0.299433 0.689814 0
M  V30 35447 H 3531.2 1.92128 2.28318 0
M  V30 35448 C 3529.95 0.56608 3.43061 0
M  V30 35449 H 3529.27 1.36916 3.75625 0
M  V30 35450 H 3530.71 0.438204 4.21729 0
M  V30 35451 C 3529.17 -0.723589 3.29038 0
M  V30 35452 O 3529.7 -1.77781 3.60218 0
M  V30 35453 N 3527.9 -0.692076 2.82239 0
M  V30 35454 H 3527.45 0.166127 2.57064 0
M  V30 35455 H 3527.41 -1.55527 2.73237 0
M  V30 35456 N 3531.18 -1.1956 1.0268 0
M  V30 35457 C 3532.46 -1.84945 0.636772 0
M  V30 35458 C 3532.84 -1.9167 -0.884634 0
M  V30 35459 O 3532.19 -1.43215 -1.7805 0
M  V30 35460 C 3532.4 -3.24027 1.29643 0
M  V30 35461 C 3533.74 -4.0021 1.41835 0
M  V30 35462 O 3534.77 -3.33418 1.25344 0
M  V30 35463 O 3533.63 -5.19848 1.68583 0
M  V30 35464 H 3530.72 -0.796908 0.221058 0
M  V30 35465 H 3533.27 -1.27066 1.12482 0
M  V30 35466 H 3532.04 -3.13956 2.33554 0
M  V30 35467 H 3531.66 -3.89548 0.796109 0
M  V30 35468 N 3532.66 -0.804387 -1.35526 0
M  V30 35469 C 3533.59 -0.227645 -2.32388 0
M  V30 35470 C 3534.57 0.645681 -1.57369 0
M  V30 35471 O 3535.75 0.576409 -1.85449 0
M  V30 35472 C 3532.88 0.62639 -3.41605 0
M  V30 35473 C 3531.84 -0.148262 -4.27743 0
M  V30 35474 C 3531.16 0.827332 -5.28261 0
M  V30 35475 C 3532.46 -1.346 -5.04658 0
M  V30 35476 H 3534.16 -1.03689 -2.80872 0
M  V30 35477 H 3531.7 -0.500054 -1.35039 0
M  V30 35478 H 3533.66 1.03992 -4.08367 0
M  V30 35479 H 3532.38 1.4685 -2.91724 0
M  V30 35480 H 3531.04 -0.542938 -3.62557 0
M  V30 35481 H 3530.69 1.66488 -4.74648 0
M  V30 35482 H 3530.39 0.31335 -5.86764 0
M  V30 35483 H 3531.91 1.23911 -5.97895 0
M  V30 35484 H 3533.33 -1.00746 -5.64378 0
M  V30 35485 H 3531.72 -1.79432 -5.72647 0
M  V30 35486 H 3532.79 -2.13377 -4.35429 0
M  V30 35487 N 3534.14 1.47403 -0.557697 0
M  V30 35488 C 3535.38 2.02772 -0.0338741 0
M  V30 35489 C 3535.72 1.4311 1.31276 0
M  V30 35490 O 3534.99 0.586853 1.85435 0
M  V30 35491 C 3535.27 3.60052 0.0586794 0
M  V30 35492 C 3535.13 4.30146 -1.31508 0
M  V30 35493 C 3536.45 4.33278 0.771866 0
M  V30 35494 H 3533.57 0.736871 -0.013784 0
M  V30 35495 H 3536.21 1.75826 -0.72008 0
M  V30 35496 H 3534.36 3.83141 0.643086 0
M  V30 35497 H 3536.03 4.18397 -1.94273 0
M  V30 35498 H 3534.27 3.90481 -1.88963 0
M  V30 35499 H 3534.94 5.38731 -1.20303 0
M  V30 35500 H 3537.42 4.15186 0.275656 0
M  V30 35501 H 3536.3 5.42956 0.805588 0
M  V30 35502 H 3536.56 4.02534 1.82809 0
M  V30 35503 N 3535.62 0.294175 1.5483 0
M  V30 35504 C 3536.56 -0.600756 2.24708 0
M  V30 35505 C 3537.56 -1.14254 1.25069 0
M  V30 35506 O 3538.76 -1.09397 1.42941 0
M  V30 35507 H 3535.14 -0.212325 0.721403 0
M  V30 35508 H 3537.11 0.0112207 2.98398 0
M  V30 35509 C 3535.86 -1.76445 2.99604 0
M  V30 35510 H 3535.18 -1.35677 3.76074 0
M  V30 35511 H 3536.62 -2.36686 3.5179 0
M  V30 35512 C 3535.08 -2.66446 2.06175 0
M  V30 35513 O 3535.61 -3.6735 1.62533 0
M  V30 35514 N 3533.82 -2.3403 1.72274 0
M  V30 35515 H 3533.36 -1.52022 2.0796 0
M  V30 35516 H 3533.32 -2.94516 1.10036 0
M  V30 35517 N 3537.09 -1.57585 0.0217743 0
M  V30 35518 C 3538.34 -1.91118 -0.657153 0
M  V30 35519 C 3538.66 -0.898069 -1.73089 0
M  V30 35520 O 3537.93 0.0614771 -1.95804 0
M  V30 35521 H 3536.51 -0.705429 -0.24572 0
M  V30 35522 H 3539.17 -1.94782 0.0678439 0
M  V30 35523 H 3538.27 -2.9152 -1.11457 0
M  V30 35524 N 3538.57 0.251283 -1.55584 0
M  V30 35525 C 3539.8 0.997604 -1.81261 0
M  V30 35526 C 3540.21 1.79116 -0.596892 0
M  V30 35527 O 3539.57 1.77255 0.434394 0
M  V30 35528 C 3539.62 1.93897 -3.051 0
M  V30 35529 O 3539.34 1.17753 -4.21979 0
M  V30 35530 C 3540.84 2.80164 -3.43545 0
M  V30 35531 H 3538.06 0.29375 -0.603284 0
M  V30 35532 H 3540.61 0.275495 -2.02636 0
M  V30 35533 H 3538.76 2.61541 -2.85788 0
M  V30 35534 H 3539.18 1.8139 -4.92136 0
M  V30 35535 H 3540.65 3.41973 -4.33311 0
M  V30 35536 H 3541.13 3.51052 -2.6393 0
M  V30 35537 H 3541.73 2.17978 -3.65192 0
M  V30 35538 N 3540.05 1.48887 0.516757 0
M  V30 35539 C 3541.28 1.6126 1.29625 0
M  V30 35540 C 3541.69 0.277893 1.86744 0
M  V30 35541 O 3541.05 -0.73461 1.67062 0
M  V30 35542 C 3541.1 2.66939 2.43774 0
M  V30 35543 O 3540.82 3.95232 1.89007 0
M  V30 35544 C 3542.32 2.89873 3.35393 0
M  V30 35545 H 3539.54 0.543342 0.393726 0
M  V30 35546 H 3542.09 1.9481 0.622035 0
M  V30 35547 H 3540.24 2.36211 3.07055 0
M  V30 35548 H 3540.66 4.53317 2.63825 0
M  V30 35549 H 3542.13 3.67588 4.11805 0
M  V30 35550 H 3542.61 1.99192 3.91432 0
M  V30 35551 H 3543.21 3.21957 2.77892 0
M  V30 35552 N 3541.53 -0.766635 1.37697 0
M  V30 35553 C 3542.46 -1.8939 1.36579 0
M  V30 35554 C 3543.44 -1.68488 0.233626 0
M  V30 35555 O 3544.62 -1.89271 0.434753 0
M  V30 35556 C 3541.75 -3.26744 1.17711 0
M  V30 35557 C 3540.71 -3.62219 2.27994 0
M  V30 35558 C 3540.03 -4.9817 1.94244 0
M  V30 35559 C 3541.33 -3.6844 3.70201 0
M  V30 35560 H 3543.03 -1.90583 2.30908 0
M  V30 35561 H 3540.57 -0.915518 1.1115 0
M  V30 35562 H 3542.53 -4.05246 1.15558 0
M  V30 35563 H 3541.25 -3.25997 0.198392 0
M  V30 35564 H 3539.91 -2.86028 2.29311 0
M  V30 35565 H 3539.56 -4.93969 0.948883 0
M  V30 35566 H 3539.26 -5.22875 2.68095 0
M  V30 35567 H 3540.78 -5.79067 1.93686 0
M  V30 35568 H 3542.2 -4.37084 3.70986 0
M  V30 35569 H 3540.59 -4.04647 4.43149 0
M  V30 35570 H 3541.66 -2.68979 4.03458 0
M  V30 35571 N 3543.01 -1.22351 -0.993375 0
M  V30 35572 C 3543.94 -0.950962 -2.08541 0
M  V30 35573 C 3544.95 0.0702455 -1.62648 0
M  V30 35574 O 3546.14 -0.163701 -1.77748 0
M  V30 35575 C 3543.24 -0.408525 -3.36429 0
M  V30 35576 C 3542.41 -1.48684 -4.11354 0
M  V30 35577 C 3541.47 -0.951569 -5.17525 0
M  V30 35578 O 3540.5 -1.63766 -5.45132 0
M  V30 35579 N 3541.7 0.227276 -5.80055 0
M  V30 35580 H 3544.46 -1.8911 -2.32503 0
M  V30 35581 H 3542.03 -1.13034 -1.15909 0
M  V30 35582 H 3544.02 -0.035768 -4.04684 0
M  V30 35583 H 3542.59 0.436712 -3.09534 0
M  V30 35584 H 3541.81 -2.03294 -3.37736 0
M  V30 35585 H 3543.1 -2.21236 -4.58183 0
M  V30 35586 H 3542.49 0.801503 -5.59993 0
M  V30 35587 H 3541.05 0.541424 -6.49547 0
M  V30 35588 N 3544.48 1.19014 -1.03313 0
M  V30 35589 C 3545.71 1.92756 -0.751836 0
M  V30 35590 C 3546.13 1.75742 0.689951 0
M  V30 35591 O 3545.48 1.08209 1.46959 0
M  V30 35592 C 3545.53 3.4439 -1.09898 0
M  V30 35593 O 3545.26 3.60862 -2.48415 0
M  V30 35594 C 3546.76 4.35247 -0.841105 0
M  V30 35595 H 3543.98 0.612163 -0.274768 0
M  V30 35596 H 3546.52 1.51031 -1.37876 0
M  V30 35597 H 3544.68 3.83933 -0.517159 0
M  V30 35598 H 3545.09 4.54677 -2.61476 0
M  V30 35599 H 3546.56 5.40228 -1.13393 0
M  V30 35600 H 3547.04 4.38627 0.224357 0
M  V30 35601 H 3547.65 4.01392 -1.40586 0
M  V30 35602 N 3545.96 0.811563 1.35098 0
M  V30 35603 C 3547.38 0.49591 1.517 0
M  V30 35604 C 3547.58 -0.982004 1.75951 0
M  V30 35605 O 3546.63 -1.76687 1.80383 0
M  V30 35606 C 3547.95 1.34559 2.68913 0
M  V30 35607 C 3549.49 1.34154 2.82793 0
M  V30 35608 C 3549.97 2.17545 4.03036 0
M  V30 35609 N 3551.46 2.15108 4.10223 0
M  V30 35610 C 3552.2 2.76386 5.02392 0
M  V30 35611 N 3551.69 3.46611 5.9986 0
M  V30 35612 N 3553.48 2.66001 4.95177 0
M  V30 35613 H 3545.64 1.76864 1.17614 0
M  V30 35614 H 3547.9 0.753052 0.575862 0
M  V30 35615 H 3547.6 2.39462 2.57586 0
M  V30 35616 H 3547.48 1.0023 3.6364 0
M  V30 35617 H 3549.87 0.300336 2.93568 0
M  V30 35618 H 3549.95 1.72474 1.88909 0
M  V30 35619 H 3549.59 3.21708 3.93022 0
M  V30 35620 H 3549.52 1.76583 4.96111 0
M  V30 35621 H 3552.01 1.64016 3.40451 0
M  V30 35622 H 3552.32 3.90643 6.66796 0
M  V30 35623 H 3550.67 3.50716 6.00019 0
M  V30 35624 H 3553.86 2.10723 4.17988 0
M  V30 35625 H 3554.03 3.14046 5.66815 0
M  V30 35626 N 3547.44 -1.47105 0.565506 0
M  V30 35627 C 3548.37 -2.32912 -0.165629 0
M  V30 35628 C 3549.35 -1.44299 -0.900653 0
M  V30 35629 O 3550.54 -1.73143 -0.879493 0
M  V30 35630 C 3547.67 -3.26245 -1.19086 0
M  V30 35631 C 3546.62 -4.24164 -0.571774 0
M  V30 35632 C 3545.95 -5.06881 -1.70224 0
M  V30 35633 C 3547.25 -5.20091 0.479876 0
M  V30 35634 H 3548.94 -2.94291 0.550757 0
M  V30 35635 H 3546.49 -1.41516 0.266309 0
M  V30 35636 H 3548.44 -3.8512 -1.71058 0
M  V30 35637 H 3547.16 -2.62938 -1.9373 0
M  V30 35638 H 3545.82 -3.66527 -0.0732886 0
M  V30 35639 H 3545.47 -4.39971 -2.43792 0
M  V30 35640 H 3545.17 -5.73181 -1.29374 0
M  V30 35641 H 3546.69 -5.68616 -2.22505 0
M  V30 35642 H 3548.11 -5.73282 0.045905 0
M  V30 35643 H 3546.5 -5.94639 0.807719 0
M  V30 35644 H 3547.57 -4.65065 1.37267 0
M  V30 35645 N 3548.92 -0.302382 -1.54672 0
M  V30 35646 C 3550.17 0.305883 -1.99772 0
M  V30 35647 C 3550.49 1.54304 -1.19228 0
M  V30 35648 O 3549.76 1.93762 -0.288603 0
M  V30 35649 H 3548.34 0.116013 -0.737936 0
M  V30 35650 H 3551 -0.414031 -1.90452 0
M  V30 35651 H 3550.1 0.57697 -3.06721 0
M  V30 35652 N 3550.4 1.57571 -0.0301311 0
M  V30 35653 C 3551.62 1.96551 0.662011 0
M  V30 35654 C 3552.05 0.906609 1.6481 0
M  V30 35655 O 3551.4 -0.132383 1.80816 0
M  V30 35656 C 3551.45 3.34624 1.34383 0
M  V30 35657 O 3550.56 3.3106 2.45913 0
M  V30 35658 H 3549.9 0.640842 0.173831 0
M  V30 35659 H 3552.43 2.04392 -0.092284 0
M  V30 35660 H 3552.44 3.70878 1.70039 0
M  V30 35661 H 3551.11 4.11237 0.62102 0
M  V30 35662 H 3549.69 3.06524 2.12361 0
M  V30 35663 N 3551.87 -0.243029 1.55715 0
M  V30 35664 C 3552.82 -1.30095 1.90641 0
M  V30 35665 C 3553.79 -1.47638 0.761075 0
M  V30 35666 O 3554.98 -1.61558 1.01507 0
M  V30 35667 C 3552.12 -2.65061 2.2099 0
M  V30 35668 C 3551.23 -2.55495 3.48348 0
M  V30 35669 C 3550.36 -3.8284 3.68248 0
M  V30 35670 C 3549.4 -3.67907 4.89194 0
M  V30 35671 N 3548.54 -4.87153 5.05595 0
M  V30 35672 H 3553.38 -0.996106 2.80859 0
M  V30 35673 H 3550.92 -0.480595 1.39028 0
M  V30 35674 H 3552.88 -3.43628 2.36591 0
M  V30 35675 H 3551.51 -2.93686 1.33971 0
M  V30 35676 H 3550.56 -1.68477 3.41057 0
M  V30 35677 H 3551.87 -2.40373 4.37061 0
M  V30 35678 H 3551.02 -4.69851 3.8383 0
M  V30 35679 H 3549.76 -4.00864 2.77775 0
M  V30 35680 H 3548.77 -2.79281 4.73585 0
M  V30 35681 H 3549.99 -3.51374 5.81131 0
M  V30 35682 H 3547.94 -5.05531 4.1806 0
M  V30 35683 H 3547.86 -4.74676 5.88404 0
M  V30 35684 H 3549.12 -5.75651 5.25592 0
M  V30 35685 N 3553.35 -1.49159 -0.508854 0
M  V30 35686 C 3554.28 -1.68157 -1.62005 0
M  V30 35687 C 3555.26 -0.530278 -1.61623 0
M  V30 35688 O 3556.45 -0.765236 -1.78487 0
M  V30 35689 C 3553.58 -1.7408 -3.00522 0
M  V30 35690 C 3552.53 -2.8892 -3.15767 0
M  V30 35691 C 3551.86 -2.7995 -4.55557 0
M  V30 35692 C 3553.16 -4.29959 -2.96535 0
M  V30 35693 H 3554.85 -2.61187 -1.46361 0
M  V30 35694 H 3552.4 -1.25692 -0.702683 0
M  V30 35695 H 3554.35 -1.85957 -3.78151 0
M  V30 35696 H 3553.08 -0.776428 -3.17237 0
M  V30 35697 H 3551.73 -2.76633 -2.40562 0
M  V30 35698 H 3551.38 -1.81437 -4.69137 0
M  V30 35699 H 3551.08 -3.57023 -4.667 0
M  V30 35700 H 3552.61 -2.93824 -5.35257 0
M  V30 35701 H 3554.02 -4.42969 -3.63939 0
M  V30 35702 H 3552.42 -5.08193 -3.19155 0
M  V30 35703 H 3553.49 -4.4495 -1.92737 0
M  V30 35704 N 3554.83 0.759322 -1.38102 0
M  V30 35705 C 3555.76 1.88663 -1.37581 0
M  V30 35706 C 3556.74 1.68362 -0.242558 0
M  V30 35707 O 3557.93 1.89038 -0.444784 0
M  V30 35708 C 3555.06 3.26115 -1.19442 0
M  V30 35709 C 3554.01 3.61005 -2.29911 0
M  V30 35710 C 3553.34 4.97133 -1.96883 0
M  V30 35711 C 3554.64 3.66472 -3.7215 0
M  V30 35712 H 3556.33 1.89355 -2.31916 0
M  V30 35713 H 3553.88 0.909611 -1.11634 0
M  V30 35714 H 3555.83 4.04628 -1.17705 0
M  V30 35715 H 3554.55 3.25887 -0.215677 0
M  V30 35716 H 3553.21 2.84808 -2.30825 0
M  V30 35717 H 3552.86 4.93459 -0.975066 0
M  V30 35718 H 3552.56 5.21446 -2.70865 0
M  V30 35719 H 3554.08 5.78031 -1.96754 0
M  V30 35720 H 3555.5 4.35111 -3.73298 0
M  V30 35721 H 3553.9 4.02291 -4.45289 0
M  V30 35722 H 3554.97 2.66835 -4.04879 0
M  V30 35723 N 3556.31 1.22876 0.986873 0
M  V30 35724 C 3557.56 1.05106 1.7215 0
M  V30 35725 C 3557.87 -0.413214 1.91186 0
M  V30 35726 O 3559.08 -0.710713 2.62033 0
M  V30 35727 C 3557.53 1.83226 3.09768 0
M  V30 35728 C 3557.14 3.33941 2.98642 0
M  V30 35729 C 3558.88 1.73924 3.87235 0
M  V30 35730 C 3556.79 4.04479 4.31452 0
M  V30 35731 H 3555.72 0.389688 0.645491 0
M  V30 35732 H 3558.37 1.46783 1.10123 0
M  V30 35733 H 3556.75 1.34351 3.72513 0
M  V30 35734 H 3557.93 3.90255 2.45026 0
M  V30 35735 H 3556.24 3.43986 2.34655 0
M  V30 35736 H 3558.84 2.23941 4.85546 0
M  V30 35737 H 3559.18 0.700784 4.10359 0
M  V30 35738 H 3559.72 2.20375 3.31179 0
M  V30 35739 H 3556.46 5.08603 4.13526 0
M  V30 35740 H 3555.98 3.52953 4.84958 0
M  V30 35741 H 3557.65 4.10412 5.00171 0
M  V30 35742 N 3557.79 -1.18464 1.03942 0
M  V30 35743 C 3559.01 -1.92355 0.762047 0
M  V30 35744 C 3559.43 -1.76105 -0.680621 0
M  V30 35745 O 3558.79 -1.08987 -1.46383 0
M  V30 35746 C 3558.84 -3.43803 1.11723 0
M  V30 35747 O 3558.56 -3.5954 2.50326 0
M  V30 35748 C 3560.06 -4.34795 0.864176 0
M  V30 35749 H 3557.28 -0.610697 0.27801 0
M  V30 35750 H 3559.82 -1.50298 1.38675 0
M  V30 35751 H 3557.98 -3.83653 0.537513 0
M  V30 35752 H 3558.39 -4.53284 2.63883 0
M  V30 35753 H 3559.87 -5.39619 1.16256 0
M  V30 35754 H 3560.34 -4.38739 -0.201093 0
M  V30 35755 H 3560.95 -4.00641 1.42713 0
M  V30 35756 N 3559.26 -0.818716 -1.34665 0
M  V30 35757 C 3560.23 -0.243077 -2.27907 0
M  V30 35758 C 3561.23 0.576596 -1.50107 0
M  V30 35759 O 3562.42 0.393312 -1.69702 0
M  V30 35760 C 3559.55 0.6597 -3.34456 0
M  V30 35761 H 3560.74 -1.0656 -2.8033 0
M  V30 35762 H 3558.3 -0.590263 -1.44726 0
M  V30 35763 H 3559.03 1.50544 -2.8724 0
M  V30 35764 H 3558.82 0.0734981 -3.92031 0
M  V30 35765 H 3560.31 1.05639 -4.04018 0
M  V30 35766 N 3560.74 1.46803 -0.573299 0
M  V30 35767 C 3561.97 2.07317 -0.0587081 0
M  V30 35768 C 3562.39 1.42071 1.23278 0
M  V30 35769 O 3561.75 0.501219 1.74234 0
M  V30 35770 C 3561.8 3.60452 0.10344 0
M  V30 35771 O 3560.9 3.95684 1.16222 0
M  V30 35772 H 3560.24 0.661412 -0.058562 0
M  V30 35773 H 3562.77 1.88583 -0.793565 0
M  V30 35774 H 3562.78 4.06801 0.312587 0
M  V30 35775 H 3561.46 4.07334 -0.839755 0
M  V30 35776 H 3560.04 3.61058 0.932283 0
M  V30 35777 N 3562.22 0.31058 1.54509 0
M  V30 35778 C 3563.15 -0.595059 2.21341 0
M  V30 35779 C 3564.17 -1.09006 1.20919 0
M  V30 35780 O 3565.35 -1.00587 1.4746 0
M  V30 35781 C 3562.45 -1.82777 2.85387 0
M  V30 35782 C 3561.63 -1.47364 4.11828 0
M  V30 35783 C 3560.69 -2.56251 4.59589 0
M  V30 35784 O 3559.71 -2.2094 5.2457 0
M  V30 35785 N 3560.91 -3.86959 4.32716 0
M  V30 35786 H 3563.68 -0.0228764 2.99691 0
M  V30 35787 H 3561.24 0.133201 1.61351 0
M  V30 35788 H 3563.23 -2.54986 3.14268 0
M  V30 35789 H 3561.8 -2.30811 2.1082 0
M  V30 35790 H 3561.02 -0.583757 3.89854 0
M  V30 35791 H 3562.31 -1.21256 4.9414 0
M  V30 35792 H 3561.71 -4.18452 3.80677 0
M  V30 35793 H 3560.27 -4.55438 4.66283 0
M  V30 35794 N 3563.7 -1.57553 0.0384871 0
M  V30 35795 C 3564.98 -1.835 -0.677276 0
M  V30 35796 C 3565.36 -0.924327 -1.89788 0
M  V30 35797 O 3564.7 0.0177783 -2.28493 0
M  V30 35798 C 3564.91 -3.32937 -1.04661 0
M  V30 35799 C 3566.26 -3.99641 -1.43429 0
M  V30 35800 O 3567.29 -3.37488 -1.13932 0
M  V30 35801 O 3566.15 -5.09205 -1.98426 0
M  V30 35802 H 3563.24 -0.756942 -0.333118 0
M  V30 35803 H 3565.79 -1.69568 0.0668838 0
M  V30 35804 H 3564.56 -3.90894 -0.17828 0
M  V30 35805 H 3564.18 -3.5201 -1.84864 0
M  V30 35806 N 3565.18 0.234767 -1.55842 0
M  V30 35807 C 3566.59 0.802857 -1.68556 0
M  V30 35808 C 3566.94 1.85532 -0.63814 0
M  V30 35809 O 3566.06 2.15346 0.213292 0
M  V30 35810 C 3566.66 1.46304 -3.05582 0
M  V30 35811 C 3565.22 1.97868 -3.20196 0
M  V30 35812 C 3564.37 0.83409 -2.64458 0
M  V30 35813 H 3567.32 0.010348 -1.58697 0
M  V30 35814 H 3567.34 2.33147 -3.00704 0
M  V30 35815 H 3566.85 0.696801 -3.81794 0
M  V30 35816 H 3564.95 2.77335 -2.4883 0
M  V30 35817 H 3565.06 2.16773 -4.27254 0
M  V30 35818 H 3563.43 1.23787 -2.22596 0
M  V30 35819 H 3564.21 0.0807385 -3.43205 0
M  V30 35820 N 3566.66 1.49427 0.500936 0
M  V30 35821 C 3567.59 1.69013 1.61111 0
M  V30 35822 C 3568.57 0.538842 1.6134 0
M  V30 35823 O 3569.75 0.774691 1.78079 0
M  V30 35824 C 3566.88 1.75671 2.99595 0
M  V30 35825 C 3565.84 2.90591 3.14231 0
M  V30 35826 C 3565.16 2.82362 4.54066 0
M  V30 35827 C 3566.46 4.31525 2.9425 0
M  V30 35828 H 3568.16 2.6196 1.44974 0
M  V30 35829 H 3565.7 1.26062 0.696007 0
M  V30 35830 H 3567.65 1.8796 3.77159 0
M  V30 35831 H 3566.38 0.793241 3.16821 0
M  V30 35832 H 3565.04 2.77905 2.39091 0
M  V30 35833 H 3564.69 1.83922 4.68168 0
M  V30 35834 H 3564.39 3.59493 4.648 0
M  V30 35835 H 3565.91 2.96658 5.33691 0
M  V30 35836 H 3567.32 4.44893 3.61584 0
M  V30 35837 H 3565.72 5.09878 3.16455 0
M  V30 35838 H 3566.79 4.45966 1.90375 0
M  V30 35839 N 3568.13 -0.751987 1.38502 0
M  V30 35840 C 3569.07 -1.87549 1.3175 0
M  V30 35841 C 3570.08 -1.61175 0.229414 0
M  V30 35842 O 3571.27 -1.71725 0.487096 0
M  V30 35843 C 3568.37 -3.23219 1.01895 0
M  V30 35844 C 3567.54 -3.77084 2.21644 0
M  V30 35845 C 3566.6 -4.91275 1.88509 0
M  V30 35846 O 3565.63 -5.05823 2.6102 0
M  V30 35847 N 3566.83 -5.74376 0.84101 0
M  V30 35848 H 3569.59 -1.93852 2.28564 0
M  V30 35849 H 3567.15 -0.931989 1.32384 0
M  V30 35850 H 3569.15 -3.97156 0.777774 0
M  V30 35851 H 3567.72 -3.12292 0.138713 0
M  V30 35852 H 3566.94 -2.94695 2.61817 0
M  V30 35853 H 3568.22 -4.09805 3.01558 0
M  V30 35854 H 3567.62 -5.65192 0.23972 0
M  V30 35855 H 3566.18 -6.48453 0.659718 0
M  V30 35856 N 3569.61 -1.23398 -0.980343 0
M  V30 35857 C 3571.02 -1.06103 -1.5362 0
M  V30 35858 C 3571.37 0.371611 -1.92649 0
M  V30 35859 O 3570.5 1.25834 -1.76053 0
M  V30 35860 C 3571.09 -1.91984 -2.79155 0
M  V30 35861 C 3569.65 -1.78949 -3.31141 0
M  V30 35862 C 3568.8 -1.87684 -2.04132 0
M  V30 35863 H 3571.75 -1.3706 -0.800023 0
M  V30 35864 H 3571.77 -1.44466 -3.52008 0
M  V30 35865 H 3571.28 -2.96246 -2.50718 0
M  V30 35866 H 3569.38 -0.774698 -3.64457 0
M  V30 35867 H 3569.5 -2.62336 -4.00895 0
M  V30 35868 H 3567.86 -1.31266 -2.18269 0
M  V30 35869 H 3568.64 -2.93503 -1.78076 0
M  V30 35870 N 3571.09 1.17911 -1.04569 0
M  V30 35871 C 3572.32 1.91948 -0.772238 0
M  V30 35872 C 3572.73 1.76464 0.671272 0
M  V30 35873 O 3572.09 1.09762 1.45803 0
M  V30 35874 C 3572.14 3.43205 -1.13545 0
M  V30 35875 O 3571.86 3.58207 -2.52229 0
M  V30 35876 C 3573.36 4.34331 -0.887222 0
M  V30 35877 H 3570.58 0.609214 -0.281245 0
M  V30 35878 H 3573.13 1.49561 -1.3947 0
M  V30 35879 H 3571.28 3.83362 -0.557851 0
M  V30 35880 H 3571.7 4.51878 -2.66283 0
M  V30 35881 H 3573.17 5.38995 -1.19116 0
M  V30 35882 H 3573.65 4.3884 0.177822 0
M  V30 35883 H 3574.25 3.99878 -1.44836 0
M  V30 35884 N 3572.57 0.825847 1.34229 0
M  V30 35885 C 3573.48 0.251844 2.33244 0
M  V30 35886 C 3574.49 -0.615306 1.62757 0
M  V30 35887 O 3575.67 -0.522513 1.94504 0
M  V30 35888 C 3572.73 -0.574396 3.41909 0
M  V30 35889 C 3571.8 0.315497 4.28139 0
M  V30 35890 C 3571.03 -0.471403 5.31614 0
M  V30 35891 O 3571.25 -1.7044 5.4434 0
M  V30 35892 O 3570.19 0.147796 6.01719 0
M  V30 35893 H 3574.01 1.07144 2.84172 0
M  V30 35894 H 3571.6 0.588056 1.3734 0
M  V30 35895 H 3573.48 -1.04437 4.08254 0
M  V30 35896 H 3572.15 -1.37127 2.9322 0
M  V30 35897 H 3571.06 0.833027 3.64707 0
M  V30 35898 H 3572.39 1.0768 4.80277 0
M  V30 35899 N 3574.05 -1.46497 0.581077 0
M  V30 35900 C 3575.27 -2.06776 0.0716016 0
M  V30 35901 C 3575.69 -1.43008 -1.23265 0
M  V30 35902 O 3575.05 -0.534807 -1.74488 0
M  V30 35903 C 3575.1 -3.61354 -0.102602 0
M  V30 35904 O 3574.82 -4.22737 1.15002 0
M  V30 35905 C 3576.32 -4.38559 -0.646615 0
M  V30 35906 H 3573.54 -0.668599 0.0567081 0
M  V30 35907 H 3576.08 -1.88148 0.801281 0
M  V30 35908 H 3574.24 -3.79415 -0.782497 0
M  V30 35909 H 3574.65 -5.15587 0.962808 0
M  V30 35910 H 3576.13 -5.47314 -0.717694 0
M  V30 35911 H 3576.6 -4.06489 -1.66323 0
M  V30 35912 H 3577.21 -4.253 -0.00164263 0
M  V30 35913 N 3575.52 -0.31877 -1.54343 0
M  V30 35914 C 3576.94 0.0340399 -1.59564 0
M  V30 35915 C 3577.14 1.50894 -1.33541 0
M  V30 35916 O 3576.2 2.26425 -1.1175 0
M  V30 35917 C 3577.51 -0.379879 -2.98291 0
M  V30 35918 C 3579.06 -0.330132 -3.11254 0
M  V30 35919 C 3579.53 -0.719141 -4.52319 0
M  V30 35920 N 3581.02 -0.67236 -4.58294 0
M  V30 35921 C 3581.76 -0.945613 -5.65549 0
M  V30 35922 N 3581.25 -1.28575 -6.80764 0
M  V30 35923 N 3583.05 -0.871492 -5.55303 0
M  V30 35924 H 3575.2 -1.27978 -1.69515 0
M  V30 35925 H 3577.46 -0.520058 -0.792618 0
M  V30 35926 H 3577.17 -1.40729 -3.22317 0
M  V30 35927 H 3577.04 0.25754 -3.7632 0
M  V30 35928 H 3579.43 0.688066 -2.86966 0
M  V30 35929 H 3579.51 -1.00242 -2.35341 0
M  V30 35930 H 3579.15 -1.73523 -4.77339 0
M  V30 35931 H 3579.08 -0.0245926 -5.26594 0
M  V30 35932 H 3581.57 -0.421125 -3.75546 0
M  V30 35933 H 3581.89 -1.47976 -7.585 0
M  V30 35934 H 3580.23 -1.32397 -6.82273 0
M  V30 35935 H 3583.42 -0.605286 -4.6417 0
M  V30 35936 H 3583.6 -1.08781 -6.38804 0
M  V30 35937 N 3577 1.5753 -0.0468419 0
M  V30 35938 C 3578.25 1.92519 0.627905 0
M  V30 35939 C 3578.58 0.924831 1.71106 0
M  V30 35940 O 3577.83 -0.0635468 1.95597 0
M  V30 35941 C 3578.13 3.34202 1.26663 0
M  V30 35942 C 3577.8 4.49819 0.312105 0
M  V30 35943 C 3576.46 4.81175 0.0494356 0
M  V30 35944 C 3578.81 5.20075 -0.34232 0
M  V30 35945 C 3576.14 5.80136 -0.875166 0
M  V30 35946 C 3578.49 6.20024 -1.25509 0
M  V30 35947 C 3577.15 6.49812 -1.52647 0
M  V30 35948 H 3576.42 0.704477 0.229767 0
M  V30 35949 H 3579.07 1.9117 -0.112396 0
M  V30 35950 H 3577.38 3.31898 2.0821 0
M  V30 35951 H 3579.07 3.58553 1.79557 0
M  V30 35952 H 3575.66 4.25348 0.527013 0
M  V30 35953 H 3579.85 4.96066 -0.152471 0
M  V30 35954 H 3575.1 6.01552 -1.09294 0
M  V30 35955 H 3579.28 6.73576 -1.76827 0
M  V30 35956 H 3576.9 7.26308 -2.24456 0
M  V30 35957 N 3578.48 -0.226499 1.55964 0
M  V30 35958 C 3579.73 -0.953028 1.79012 0
M  V30 35959 C 3580.06 -1.84183 0.615641 0
M  V30 35960 O 3579.33 -1.90645 -0.385308 0
M  V30 35961 C 3579.62 -1.79619 3.12104 0
M  V30 35962 C 3579.47 -0.934209 4.39992 0
M  V30 35963 C 3580.79 -2.7749 3.41595 0
M  V30 35964 H 3577.91 -0.34504 0.651242 0
M  V30 35965 H 3580.55 -0.222203 1.88696 0
M  V30 35966 H 3578.7 -2.41928 3.03979 0
M  V30 35967 H 3580.37 -0.328248 4.60131 0
M  V30 35968 H 3578.62 -0.239411 4.33139 0
M  V30 35969 H 3579.29 -1.55844 5.29544 0
M  V30 35970 H 3581.76 -2.25317 3.49816 0
M  V30 35971 H 3580.64 -3.33591 4.35899 0
M  V30 35972 H 3580.9 -3.54981 2.63516 0
M  V30 35973 N 3579.96 -1.4969 -0.493005 0
M  V30 35974 C 3581.24 -1.50086 -1.25434 0
M  V30 35975 C 3581.62 -0.233075 -2.09809 0
M  V30 35976 O 3580.96 0.784304 -2.14618 0
M  V30 35977 C 3581.17 -2.78432 -2.1042 0
M  V30 35978 C 3582.52 -3.28237 -2.69343 0
M  V30 35979 O 3583.55 -2.79604 -2.20681 0
M  V30 35980 O 3582.4 -4.12959 -3.57949 0
M  V30 35981 H 3579.5 -0.601054 -0.568034 0
M  V30 35982 H 3582.04 -1.61961 -0.50662 0
M  V30 35983 H 3580.82 -3.6219 -1.48102 0
M  V30 35984 H 3580.44 -2.69455 -2.92369 0
M  V30 35985 N 3581.44 0.744631 -1.38899 0
M  V30 35986 C 3582.68 1.50101 -1.35329 0
M  V30 35987 C 3583.01 1.94927 0.0532445 0
M  V30 35988 O 3582.28 1.68296 1.00267 0
M  V30 35989 H 3580.86 0.556799 -0.49798 0
M  V30 35990 H 3583.52 0.884594 -1.73669 0
M  V30 35991 H 3582.61 2.38769 -2.00987 0
M  V30 35992 N 3582.91 1.23916 0.973785 0
M  V30 35993 C 3584.33 1.00324 1.24126 0
M  V30 35994 C 3584.53 -0.291655 1.99378 0
M  V30 35995 O 3583.59 -1.00939 2.31447 0
M  V30 35996 C 3584.9 2.21438 2.03434 0
M  V30 35997 C 3586.45 2.25999 2.16549 0
M  V30 35998 C 3586.92 3.46718 2.99251 0
M  V30 35999 N 3588.41 3.46997 3.06834 0
M  V30 36000 C 3589.15 4.37062 3.71167 0
M  V30 36001 N 3588.64 5.37372 4.37268 0
M  V30 36002 N 3590.44 4.24788 3.68118 0
M  V30 36003 H 3582.59 2.07138 0.469836 0
M  V30 36004 H 3584.85 0.908673 0.270218 0
M  V30 36005 H 3584.56 3.15446 1.55521 0
M  V30 36006 H 3584.43 2.23062 3.04176 0
M  V30 36007 H 3586.82 1.32527 2.63668 0
M  V30 36008 H 3586.9 2.28404 1.15175 0
M  V30 36009 H 3586.54 4.40501 2.52827 0
M  V30 36010 H 3586.47 3.41555 4.00809 0
M  V30 36011 H 3588.96 2.74423 2.59808 0
M  V30 36012 H 3589.28 6.0234 4.84155 0
M  V30 36013 H 3587.62 5.41265 4.35956 0
M  V30 36014 H 3590.81 3.45662 3.15651 0
M  V30 36015 H 3590.99 4.9518 4.17972 0
M  V30 36016 N 3584.39 -1.17355 1.05193 0
M  V30 36017 C 3585.36 -2.19577 0.657169 0
M  V30 36018 C 3586.36 -1.58138 -0.291352 0
M  V30 36019 O 3587.55 -1.74038 -0.0752234 0
M  V30 36020 C 3584.68 -3.40882 -0.0347562 0
M  V30 36021 H 3585.87 -2.56016 1.56192 0
M  V30 36022 H 3583.42 -1.31437 0.845818 0
M  V30 36023 H 3584.16 -3.09988 -0.95278 0
M  V30 36024 H 3583.94 -3.86723 0.647144 0
M  V30 36025 H 3585.43 -4.16542 -0.297062 0
M  V30 36026 N 3585.87 -0.832954 -1.3379 0
M  V30 36027 C 3587.12 -0.422161 -1.97233 0
M  V30 36028 C 3587.43 1.02261 -1.6674 0
M  V30 36029 O 3588.64 1.53779 -2.2375 0
M  V30 36030 C 3587.09 -0.703934 -3.52949 0
M  V30 36031 C 3586.7 -2.16299 -3.92325 0
M  V30 36032 C 3588.45 -0.359802 -4.22972 0
M  V30 36033 C 3586.35 -2.38912 -5.40994 0
M  V30 36034 H 3585.28 -0.154125 -0.73808 0
M  V30 36035 H 3587.93 -1.02071 -1.52492 0
M  V30 36036 H 3586.32 -0.035088 -3.95984 0
M  V30 36037 H 3587.49 -2.87182 -3.60365 0
M  V30 36038 H 3585.81 -2.46952 -3.35266 0
M  V30 36039 H 3588.4 -0.50646 -5.32296 0
M  V30 36040 H 3588.75 0.69667 -4.10429 0
M  V30 36041 H 3589.28 -0.983636 -3.85447 0
M  V30 36042 H 3586.02 -3.43102 -5.58535 0
M  V30 36043 H 3585.54 -1.72583 -5.74435 0
M  V30 36044 H 3587.22 -2.2177 -6.07805 0
M  V30 36045 N 3587.35 1.46186 -0.588837 0
M  V30 36046 C 3588.28 2.33146 0.128554 0
M  V30 36047 C 3589.26 1.45714 0.877582 0
M  V30 36048 O 3590.44 1.7452 0.851836 0
M  V30 36049 C 3587.57 3.28098 1.13881 0
M  V30 36050 C 3586.53 4.2502 0.504221 0
M  V30 36051 C 3585.85 5.09525 1.62138 0
M  V30 36052 C 3587.15 5.19262 -0.562557 0
M  V30 36053 H 3588.85 2.93377 -0.597507 0
M  V30 36054 H 3586.39 1.41074 -0.288789 0
M  V30 36055 H 3588.35 3.87792 1.64909 0
M  V30 36056 H 3587.07 2.65987 1.89522 0
M  V30 36057 H 3585.73 3.66597 0.0149681 0
M  V30 36058 H 3585.38 4.43794 2.36762 0
M  V30 36059 H 3585.08 5.75166 1.20239 0
M  V30 36060 H 3586.6 5.72084 2.13431 0
M  V30 36061 H 3588.02 5.73136 -0.137103 0
M  V30 36062 H 3586.41 5.93279 -0.902219 0
M  V30 36063 H 3587.48 4.62823 -1.44648 0
M  V30 36064 N 3588.83 0.32695 1.54171 0
M  V30 36065 C 3589.76 -0.571549 2.21959 0
M  V30 36066 C 3590.77 -1.07718 1.22069 0
M  V30 36067 O 3591.96 -0.990176 1.48519 0
M  V30 36068 C 3589.06 -1.79739 2.8731 0
M  V30 36069 C 3588.23 -1.42988 4.13368 0
M  V30 36070 C 3587.29 -2.51362 4.62281 0
M  V30 36071 O 3586.32 -2.15364 5.26884 0
M  V30 36072 N 3587.52 -3.82348 4.36796 0
M  V30 36073 H 3590.29 0.00891116 2.99699 0
M  V30 36074 H 3587.85 0.150307 1.61201 0
M  V30 36075 H 3589.84 -2.51639 3.16954 0
M  V30 36076 H 3588.41 -2.28562 2.13256 0
M  V30 36077 H 3587.63 -0.542375 3.90451 0
M  V30 36078 H 3588.92 -1.16008 4.95398 0
M  V30 36079 H 3588.31 -4.1439 3.85094 0
M  V30 36080 H 3586.87 -4.50467 4.71087 0
M  V30 36081 N 3590.3 -1.57503 0.0551955 0
M  V30 36082 C 3591.55 -1.93953 -0.612679 0
M  V30 36083 C 3591.91 -0.933919 -1.68213 0
M  V30 36084 O 3591.2 0.0463128 -1.91544 0
M  V30 36085 C 3591.39 -3.34869 -1.24889 0
M  V30 36086 C 3591.22 -4.49045 -0.242587 0
M  V30 36087 C 3589.99 -5.05024 0.166869 0
M  V30 36088 C 3592.19 -5.11729 0.513595 0
M  V30 36089 N 3590.17 -6.02733 1.16561 0
M  V30 36090 C 3591.54 -6.04781 1.3653 0
M  V30 36091 C 3593.6 -4.9461 0.571471 0
M  V30 36092 C 3592.3 -6.82552 2.26971 0
M  V30 36093 C 3594.33 -5.7301 1.46332 0
M  V30 36094 C 3593.69 -6.65698 2.30274 0
M  V30 36095 H 3589.79 -0.757112 -0.19572 0
M  V30 36096 H 3592.37 -1.94276 0.128466 0
M  V30 36097 H 3590.54 -3.35316 -1.96004 0
M  V30 36098 H 3592.27 -3.58598 -1.87589 0
M  V30 36099 H 3589.03 -4.73121 -0.212908 0
M  V30 36100 H 3589.45 -6.56282 1.662 0
M  V30 36101 H 3594.1 -4.22753 -0.0632921 0
M  V30 36102 H 3591.81 -7.53697 2.9149 0
M  V30 36103 H 3595.4 -5.6179 1.51272 0
M  V30 36104 H 3594.28 -7.25305 2.98165 0
M  V30 36105 N 3591.78 0.218225 -1.56082 0
M  V30 36106 C 3593.06 0.966655 -1.70045 0
M  V30 36107 C 3593.44 2.02292 -0.603407 0
M  V30 36108 O 3592.79 2.25163 0.389098 0
M  V30 36109 C 3593 1.57408 -3.11486 0
M  V30 36110 C 3594.35 2.06507 -3.70999 0
M  V30 36111 O 3595.37 1.67296 -3.14469 0
M  V30 36112 O 3594.23 2.78588 -4.70161 0
M  V30 36113 H 3591.32 0.451772 -0.692699 0
M  V30 36114 H 3593.87 0.209744 -1.68399 0
M  V30 36115 H 3592.64 0.811547 -3.82792 0
M  V30 36116 H 3592.26 2.39644 -3.17264 0
M  V30 36117 N 3593.26 1.4995 0.485059 0
M  V30 36118 C 3594.51 1.59483 1.23484 0
M  V30 36119 C 3594.82 0.294116 1.93376 0
M  V30 36120 O 3596.03 0.26818 2.70172 0
M  V30 36121 C 3594.49 2.81458 2.24298 0
M  V30 36122 C 3594.09 4.1835 1.60272 0
M  V30 36123 C 3595.84 3.00329 3.00005 0
M  V30 36124 C 3593.74 5.31528 2.59291 0
M  V30 36125 H 3592.67 0.593866 0.464584 0
M  V30 36126 H 3595.33 1.76361 0.506862 0
M  V30 36127 H 3593.71 2.58108 3.00327 0
M  V30 36128 H 3594.88 4.519 0.901272 0
M  V30 36129 H 3593.2 4.04969 0.968982 0
M  V30 36130 H 3595.79 3.82054 3.74084 0
M  V30 36131 H 3596.14 2.11508 3.58567 0
M  V30 36132 H 3596.67 3.23794 2.3109 0
M  V30 36133 H 3593.41 6.22459 2.05487 0
M  V30 36134 H 3592.93 5.02413 3.27629 0
M  V30 36135 H 3594.61 5.61525 3.21402 0
M  V30 36136 N 3594.74 -0.737255 1.39292 0
M  V30 36137 C 3595.99 -1.49677 1.36393 0
M  V30 36138 C 3596.31 -1.94457 -0.0408517 0
M  V30 36139 O 3595.57 -1.66941 -1.02124 0
M  V30 36140 C 3595.87 -2.75189 2.28048 0
M  V30 36141 C 3595.53 -2.49288 3.75721 0
M  V30 36142 C 3594.2 -2.41933 4.15959 0
M  V30 36143 C 3596.55 -2.2708 4.69131 0
M  V30 36144 C 3593.88 -2.10409 5.47672 0
M  V30 36145 C 3596.23 -1.97073 6.0112 0
M  V30 36146 C 3594.89 -1.88186 6.40424 0
M  V30 36147 H 3594.16 -0.547707 0.499097 0
M  V30 36148 H 3596.81 -0.846386 1.71781 0
M  V30 36149 H 3595.11 -3.44959 1.85771 0
M  V30 36150 H 3596.81 -3.33208 2.23099 0
M  V30 36151 H 3593.4 -2.5589 3.43829 0
M  V30 36152 H 3597.59 -2.31731 4.38879 0
M  V30 36153 H 3592.84 -2.02049 5.77049 0
M  V30 36154 H 3597.02 -1.78897 6.7303 0
M  V30 36155 H 3594.64 -1.63524 7.42404 0
M  V30 36156 N 3596.22 -1.24431 -0.967199 0
M  V30 36157 C 3597.18 -1.03812 -2.04342 0
M  V30 36158 C 3598.18 0.00474146 -1.60799 0
M  V30 36159 O 3599.37 -0.236271 -1.7259 0
M  V30 36160 C 3596.5 -0.573555 -3.3604 0
M  V30 36161 H 3597.7 -1.99334 -2.24067 0
M  V30 36162 H 3595.25 -1.0666 -1.14251 0
M  V30 36163 H 3595.98 0.384842 -3.22008 0
M  V30 36164 H 3595.77 -1.32626 -3.68989 0
M  V30 36165 H 3597.26 -0.450345 -4.15165 0
M  V30 36166 N 3597.7 1.16795 -1.05814 0
M  V30 36167 C 3598.92 1.9166 -0.792552 0
M  V30 36168 C 3599.35 1.76638 0.646567 0
M  V30 36169 O 3598.7 1.08838 1.44996 0
M  V30 36170 C 3598.75 3.40542 -1.18591 0
M  V30 36171 O 3597.86 4.11143 -0.321789 0
M  V30 36172 H 3597.2 0.597287 -0.290077 0
M  V30 36173 H 3599.73 1.48004 -1.41266 0
M  V30 36174 H 3599.74 3.91299 -1.15537 0
M  V30 36175 H 3598.41 3.50794 -2.23419 0
M  V30 36176 H 3596.99 3.70601 -0.413469 0
M  V30 36177 N 3599.17 0.840037 1.33346 0
M  V30 36178 C 3600.12 0.262658 2.31112 0
M  V30 36179 C 3601.12 -0.605995 1.5819 0
M  V30 36180 O 3602.32 -0.495426 1.73048 0
M  V30 36181 H 3598.7 0.0662135 0.749079 0
M  V30 36182 H 3600.67 1.10174 2.77316 0
M  V30 36183 C 3599.42 -0.54652 3.43378 0
M  V30 36184 H 3598.74 0.112585 3.99641 0
M  V30 36185 H 3600.18 -0.916337 4.1398 0
M  V30 36186 C 3598.64 -1.72587 2.89336 0
M  V30 36187 O 3599.17 -2.82461 2.8562 0
M  V30 36188 N 3597.37 -1.54814 2.45929 0
M  V30 36189 H 3596.92 -0.65436 2.4915 0
M  V30 36190 H 3596.88 -2.33871 2.10123 0
M  V30 36191 N 3600.65 -1.45872 0.596582 0
M  V30 36192 C 3601.9 -2.01911 0.087321 0
M  V30 36193 C 3602.22 -1.46887 -1.28254 0
M  V30 36194 O 3601.49 -0.65887 -1.84488 0
M  V30 36195 H 3600.07 -0.746426 0.0292901 0
M  V30 36196 H 3602.73 -1.78807 0.775496 0
M  V30 36197 H 3601.83 -3.12087 0.0287762 0
M  V30 36198 N 3602.13 -0.335122 -1.53996 0
M  V30 36199 C 3603.38 0.264918 -1.99953 0
M  V30 36200 C 3603.69 1.5233 -1.22699 0
M  V30 36201 O 3604.9 2.20006 -1.5909 0
M  V30 36202 C 3603.35 0.522604 -3.56085 0
M  V30 36203 C 3602.96 -0.719391 -4.42186 0
M  V30 36204 C 3604.71 1.08196 -4.1048 0
M  V30 36205 C 3602.61 -0.43297 -5.89813 0
M  V30 36206 H 3601.54 0.102769 -0.746964 0
M  V30 36207 H 3604.19 -0.449143 -1.77918 0
M  V30 36208 H 3602.58 1.29715 -3.74152 0
M  V30 36209 H 3603.75 -1.4944 -4.35895 0
M  V30 36210 H 3602.06 -1.19979 -3.98741 0
M  V30 36211 H 3604.66 1.31107 -5.18377 0
M  V30 36212 H 3605 2.03491 -3.63176 0
M  V30 36213 H 3605.54 0.368325 -3.96091 0
M  V30 36214 H 3602.28 -1.3554 -6.41334 0
M  V30 36215 H 3601.8 0.304108 -5.99029 0
M  V30 36216 H 3603.48 -0.0470794 -6.46983 0
M  V30 36217 N 3603.61 1.57472 -0.0635475 0
M  V30 36218 C 3604.86 1.9235 0.606975 0
M  V30 36219 C 3605.17 0.944836 1.71266 0
M  V30 36220 O 3606.38 1.18613 2.44219 0
M  V30 36221 C 3604.83 3.41668 1.13099 0
M  V30 36222 C 3604.44 4.47964 0.0567468 0
M  V30 36223 C 3606.18 3.8556 1.77605 0
M  V30 36224 C 3604.09 5.88406 0.59434 0
M  V30 36225 H 3603.02 0.717906 0.230493 0
M  V30 36226 H 3605.67 1.83007 -0.134445 0
M  V30 36227 H 3604.05 3.46057 1.92511 0
M  V30 36228 H 3605.23 4.5518 -0.717452 0
M  V30 36229 H 3603.54 4.13488 -0.491589 0
M  V30 36230 H 3606.14 4.87865 2.18843 0
M  V30 36231 H 3606.48 3.22478 2.63274 0
M  V30 36232 H 3607.02 3.8374 1.04827 0
M  V30 36233 H 3603.75 6.55114 -0.225008 0
M  V30 36234 H 3603.27 5.84726 1.33625 0
M  V30 36235 H 3604.95 6.38035 1.07335 0
M  V30 36236 N 3605.09 -0.209945 1.56195 0
M  V30 36237 C 3606.04 -1.26397 1.89757 0
M  V30 36238 C 3607.02 -1.41725 0.761756 0
M  V30 36239 O 3608.21 -1.44345 1.02437 0
M  V30 36240 C 3605.34 -2.61197 2.2278 0
M  V30 36241 C 3604.43 -2.49723 3.42782 0
M  V30 36242 N 3604.82 -2.07911 4.61093 0
M  V30 36243 C 3603.12 -2.80653 3.46626 0
M  V30 36244 C 3603.82 -2.07969 5.43253 0
M  V30 36245 N 3602.79 -2.48904 4.83268 0
M  V30 36246 H 3606.59 -0.931791 2.78738 0
M  V30 36247 H 3604.11 -0.418457 1.56916 0
M  V30 36248 H 3606.11 -3.37312 2.45003 0
M  V30 36249 H 3604.77 -2.95251 1.35118 0
M  V30 36250 H 3605.78 -1.78856 4.86036 0
M  V30 36251 H 3602.45 -3.19003 2.69339 0
M  V30 36252 H 3603.84 -1.77669 6.47984 0
M  V30 36253 N 3606.56 -1.50205 -0.4771 0
M  V30 36254 C 3607.81 -1.61132 -1.23144 0
M  V30 36255 C 3608.14 -0.307943 -1.91743 0
M  V30 36256 O 3607.42 0.690191 -1.81842 0
M  V30 36257 C 3607.7 -2.78742 -2.2798 0
M  V30 36258 C 3607.55 -4.18944 -1.63725 0
M  V30 36259 C 3608.87 -2.91926 -3.29344 0
M  V30 36260 H 3605.99 -0.586466 -0.446348 0
M  V30 36261 H 3608.63 -1.82571 -0.526088 0
M  V30 36262 H 3606.78 -2.60593 -2.88138 0
M  V30 36263 H 3608.46 -4.48669 -1.07211 0
M  V30 36264 H 3606.7 -4.23481 -0.940559 0
M  V30 36265 H 3607.37 -4.97154 -2.39879 0
M  V30 36266 H 3609.85 -3.08521 -2.79202 0
M  V30 36267 H 3608.72 -3.75852 -4.00033 0
M  V30 36268 H 3608.98 -2.02284 -3.93107 0
M  V30 36269 N 3608.04 0.729857 -1.39681 0
M  V30 36270 C 3609.29 1.485 -1.36494 0
M  V30 36271 C 3609.6 1.95569 0.0346228 0
M  V30 36272 O 3610.81 2.70841 0.189087 0
M  V30 36273 C 3609.27 2.68357 -2.39818 0
M  V30 36274 C 3608.87 2.28215 -3.85515 0
M  V30 36275 C 3610.62 3.46157 -2.45715 0
M  V30 36276 C 3608.53 3.44826 -4.80468 0
M  V30 36277 H 3607.46 0.55767 -0.507465 0
M  V30 36278 H 3610.11 0.795679 -1.65352 0
M  V30 36279 H 3608.49 3.39388 -2.04039 0
M  V30 36280 H 3609.66 1.64697 -4.30362 0
M  V30 36281 H 3607.98 1.63494 -3.8296 0
M  V30 36282 H 3610.57 4.32902 -3.13847 0
M  V30 36283 H 3610.92 3.8898 -1.48325 0
M  V30 36284 H 3611.45 2.82158 -2.80414 0
M  V30 36285 H 3608.19 3.07047 -5.79139 0
M  V30 36286 H 3607.71 4.07308 -4.40296 0
M  V30 36287 H 3609.39 4.1109 -4.99614 0
M  V30 36288 N 3609.52 1.24942 0.960587 0
M  V30 36289 C 3610.75 1.12156 1.74458 0
M  V30 36290 C 3611.17 -0.321282 1.85336 0
M  V30 36291 O 3610.53 -1.23268 1.32946 0
M  V30 36292 C 3610.58 1.77405 3.13942 0
M  V30 36293 O 3609.68 1.04965 3.98818 0
M  V30 36294 H 3609.02 0.391919 0.536 0
M  V30 36295 H 3611.55 1.6539 1.20447 0
M  V30 36296 H 3611.56 1.8345 3.64431 0
M  V30 36297 H 3610.24 2.82382 3.05341 0
M  V30 36298 H 3608.81 1.06758 3.57291 0
M  V30 36299 N 3611 -1.16233 1.06432 0
M  V30 36300 C 3612.41 -1.38788 0.788045 0
M  V30 36301 C 3612.61 -1.91982 -0.611985 0
M  V30 36302 O 3611.67 -2.11952 -1.37231 0
M  V30 36303 C 3612.98 -2.36735 1.8541 0
M  V30 36304 C 3614.53 -2.50417 1.87777 0
M  V30 36305 C 3615.01 -3.51648 2.93441 0
M  V30 36306 N 3616.5 -3.59176 2.92484 0
M  V30 36307 C 3617.23 -4.37298 3.70888 0
M  V30 36308 N 3616.73 -5.18831 4.59115 0
M  V30 36309 N 3618.52 -4.32294 3.59274 0
M  V30 36310 H 3610.67 -0.800414 1.96741 0
M  V30 36311 H 3612.94 -0.414382 0.852638 0
M  V30 36312 H 3612.64 -2.04746 2.85958 0
M  V30 36313 H 3612.52 -3.364 1.70631 0
M  V30 36314 H 3614.9 -2.81709 0.878874 0
M  V30 36315 H 3614.98 -1.50783 2.06635 0
M  V30 36316 H 3614.63 -3.21093 3.93525 0
M  V30 36317 H 3614.56 -4.51015 2.71832 0
M  V30 36318 H 3617.05 -3.00975 2.28523 0
M  V30 36319 H 3617.36 -5.75659 5.15593 0
M  V30 36320 H 3615.71 -5.18169 4.63169 0
M  V30 36321 H 3618.9 -3.67658 2.89733 0
M  V30 36322 H 3619.07 -4.92931 4.20622 0
M  V30 36323 N 3612.48 -0.847097 -1.32899 0
M  V30 36324 C 3613.89 -0.502426 -1.79813 0
M  V30 36325 C 3614.24 0.979188 -1.70019 0
M  V30 36326 O 3613.36 1.76341 -1.2543 0
M  V30 36327 C 3613.96 -0.905212 -3.26483 0
M  V30 36328 C 3612.52 -0.612554 -3.71382 0
M  V30 36329 C 3611.66 -1.10907 -2.54155 0
M  V30 36330 H 3614.62 -1.03502 -1.20304 0
M  V30 36331 H 3614.64 -0.218543 -3.79872 0
M  V30 36332 H 3614.15 -1.98359 -3.3358 0
M  V30 36333 H 3612.25 0.455415 -3.69806 0
M  V30 36334 H 3612.36 -1.17355 -4.64505 0
M  V30 36335 H 3610.73 -0.52962 -2.49133 0
M  V30 36336 H 3611.51 -2.1944 -2.64009 0
M  V30 36337 N 3613.95 1.45554 -0.604309 0
M  V30 36338 C 3614.88 2.33269 0.103818 0
M  V30 36339 C 3615.87 1.46636 0.862078 0
M  V30 36340 O 3617.05 1.75414 0.833278 0
M  V30 36341 C 3614.18 3.29288 1.10394 0
M  V30 36342 C 3613.13 4.2553 0.459114 0
M  V30 36343 C 3612.46 5.11216 1.56725 0
M  V30 36344 C 3613.76 5.18636 -0.6176 0
M  V30 36345 H 3615.45 2.92727 -0.62859 0
M  V30 36346 H 3613 1.4076 -0.303735 0
M  V30 36347 H 3614.95 3.8952 1.60787 0
M  V30 36348 H 3613.68 2.67982 1.8669 0
M  V30 36349 H 3612.34 3.66592 -0.0239153 0
M  V30 36350 H 3611.98 4.4628 2.32041 0
M  V30 36351 H 3611.68 5.76409 1.14132 0
M  V30 36352 H 3613.21 5.74315 2.07351 0
M  V30 36353 H 3614.62 5.72958 -0.197884 0
M  V30 36354 H 3613.02 5.92289 -0.965094 0
M  V30 36355 H 3614.09 4.61262 -1.49549 0
M  V30 36356 N 3615.43 0.343284 1.53816 0
M  V30 36357 C 3616.38 -0.513625 2.25012 0
M  V30 36358 C 3617.35 -1.09576 1.24829 0
M  V30 36359 O 3618.53 -1.13243 1.5356 0
M  V30 36360 C 3615.67 -1.6588 3.02618 0
M  V30 36361 C 3614.79 -1.10399 4.17655 0
M  V30 36362 C 3613.92 -2.21645 4.8275 0
M  V30 36363 C 3612.96 -1.63514 5.89856 0
M  V30 36364 N 3612.1 -2.68501 6.48731 0
M  V30 36365 H 3616.94 0.100049 2.97832 0
M  V30 36366 H 3614.48 0.0611464 1.46973 0
M  V30 36367 H 3616.43 -2.33298 3.45873 0
M  V30 36368 H 3615.06 -2.24346 2.32096 0
M  V30 36369 H 3614.12 -0.320753 3.79045 0
M  V30 36370 H 3615.43 -0.6388 4.94693 0
M  V30 36371 H 3614.58 -2.96929 5.29073 0
M  V30 36372 H 3613.32 -2.71507 4.05136 0
M  V30 36373 H 3612.33 -0.867355 5.42915 0
M  V30 36374 H 3613.55 -1.14504 6.69377 0
M  V30 36375 H 3611.5 -3.17619 5.73981 0
M  V30 36376 H 3611.41 -2.26603 7.2124 0
M  V30 36377 H 3612.68 -3.43555 6.99707 0
M  V30 36378 N 3616.91 -1.57436 0.0718977 0
M  V30 36379 C 3617.87 -2.11607 -0.880634 0
M  V30 36380 C 3618.87 -1.04012 -1.2263 0
M  V30 36381 O 3620.06 -1.29999 -1.15956 0
M  V30 36382 C 3617.2 -2.6175 -2.18403 0
M  V30 36383 H 3618.39 -2.97075 -0.41066 0
M  V30 36384 H 3615.94 -1.55297 -0.176808 0
M  V30 36385 H 3616.68 -1.79735 -2.69936 0
M  V30 36386 H 3616.46 -3.40396 -1.9461 0
M  V30 36387 H 3617.95 -3.03736 -2.86591 0
M  V30 36388 N 3618.39 0.201658 -1.56305 0
M  V30 36389 C 3619.8 0.766923 -1.70221 0
M  V30 36390 C 3620.15 1.84137 -0.677351 0
M  V30 36391 O 3619.28 2.1575 0.167566 0
M  V30 36392 C 3619.87 1.39789 -3.08617 0
M  V30 36393 C 3618.43 1.91032 -3.24321 0
M  V30 36394 C 3617.58 0.777806 -2.66168 0
M  V30 36395 H 3620.53 -0.0233162 -1.58683 0
M  V30 36396 H 3620.55 2.26716 -3.05582 0
M  V30 36397 H 3620.06 0.61566 -3.83186 0
M  V30 36398 H 3618.16 2.71994 -2.54656 0
M  V30 36399 H 3618.27 2.07662 -4.31756 0
M  V30 36400 H 3616.64 1.19038 -2.25171 0
M  V30 36401 H 3617.42 0.00792145 -3.43299 0
M  V30 36402 N 3619.87 1.50456 0.469128 0
M  V30 36403 C 3621.28 1.54379 1.04995 0
M  V30 36404 C 3621.63 0.348447 1.93081 0
M  V30 36405 O 3620.75 -0.538432 2.09595 0
M  V30 36406 C 3621.35 2.79767 1.91091 0
M  V30 36407 C 3619.91 2.86365 2.44278 0
M  V30 36408 C 3619.05 2.4869 1.22672 0
M  V30 36409 H 3622.01 1.56692 0.251665 0
M  V30 36410 H 3622.03 2.61733 2.76181 0
M  V30 36411 H 3621.54 3.66748 1.26954 0
M  V30 36412 H 3619.64 2.0374 3.11963 0
M  V30 36413 H 3619.75 3.89302 2.79251 0
M  V30 36414 H 3618.12 2.01172 1.56211 0
M  V30 36415 H 3618.9 3.37982 0.601942 0
M  V30 36416 N 3621.34 -0.722439 1.40066 0
M  V30 36417 C 3622.31 -1.81822 1.39547 0
M  V30 36418 C 3623.31 -1.58156 0.290413 0
M  V30 36419 O 3624.5 -1.65324 0.54897 0
M  V30 36420 C 3621.63 -3.19809 1.18046 0
M  V30 36421 H 3622.82 -1.83683 2.37067 0
M  V30 36422 H 3620.38 -0.927382 1.25815 0
M  V30 36423 H 3621.11 -3.23602 0.212593 0
M  V30 36424 H 3620.9 -3.38386 1.98085 0
M  V30 36425 H 3622.39 -3.99851 1.20454 0
M  V30 36426 N 3622.82 -1.2545 -0.953947 0
M  V30 36427 C 3624.23 -1.09337 -1.51335 0
M  V30 36428 C 3624.59 0.330664 -1.93394 0
M  V30 36429 O 3623.71 1.22071 -1.78683 0
M  V30 36430 C 3624.31 -1.97862 -2.7502 0
M  V30 36431 C 3622.86 -1.85933 -3.2727 0
M  V30 36432 C 3622.01 -1.91972 -2.00105 0
M  V30 36433 H 3624.96 -1.38726 -0.770771 0
M  V30 36434 H 3624.98 -1.519 -3.48865 0
M  V30 36435 H 3624.5 -3.01498 -2.44378 0
M  V30 36436 H 3622.6 -0.851831 -3.62732 0
M  V30 36437 H 3622.71 -2.7078 -3.9524 0
M  V30 36438 H 3621.07 -1.35866 -2.15436 0
M  V30 36439 H 3621.86 -2.97214 -1.7181 0
M  V30 36440 N 3624.3 1.15667 -1.07047 0
M  V30 36441 C 3625.55 1.86656 -0.792941 0
M  V30 36442 C 3625.88 1.81936 0.679181 0
M  V30 36443 O 3625.16 1.24033 1.4982 0
M  V30 36444 C 3625.44 3.35898 -1.29786 0
M  V30 36445 C 3625.29 3.49267 -2.8343 0
M  V30 36446 C 3626.61 4.30549 -0.911897 0
M  V30 36447 H 3623.73 0.677751 -0.289521 0
M  V30 36448 H 3626.37 1.35911 -1.32771 0
M  V30 36449 H 3624.52 3.79245 -0.842946 0
M  V30 36450 H 3626.19 3.14805 -3.37188 0
M  V30 36451 H 3624.44 2.90927 -3.21782 0
M  V30 36452 H 3625.11 4.54111 -3.13827 0
M  V30 36453 H 3627.58 3.95145 -1.30383 0
M  V30 36454 H 3626.46 5.33464 -1.29256 0
M  V30 36455 H 3626.72 4.41723 0.182473 0
M  V30 36456 N 3625.78 0.854133 1.32447 0
M  V30 36457 C 3627.01 0.471223 2.01462 0
M  V30 36458 C 3627.42 -0.931925 1.64197 0
M  V30 36459 O 3626.78 -1.60805 0.863023 0
M  V30 36460 C 3626.83 0.600085 3.56485 0
M  V30 36461 O 3626.55 1.94796 3.92411 0
M  V30 36462 C 3628.05 0.216114 4.42773 0
M  V30 36463 H 3625.27 0.185287 0.644911 0
M  V30 36464 H 3627.82 1.15093 1.69038 0
M  V30 36465 H 3625.97 -0.0318807 3.87387 0
M  V30 36466 H 3626.39 1.94436 4.87129 0
M  V30 36467 H 3627.86 0.357283 5.50843 0
M  V30 36468 H 3628.34 -0.843393 4.31026 0
M  V30 36469 H 3628.94 0.823132 4.17258 0
M  V30 36470 N 3627.26 -1.45231 0.61202 0
M  V30 36471 C 3628.19 -2.33321 -0.0914459 0
M  V30 36472 C 3629.17 -1.47091 -0.85429 0
M  V30 36473 O 3630.35 -1.75854 -0.823963 0
M  V30 36474 C 3627.48 -3.29868 -1.08647 0
M  V30 36475 C 3626.44 -4.25768 -0.436541 0
M  V30 36476 C 3625.76 -5.1204 -1.54012 0
M  V30 36477 C 3627.06 -5.18301 0.645096 0
M  V30 36478 H 3628.76 -2.9239 0.644105 0
M  V30 36479 H 3626.3 -1.40597 0.311196 0
M  V30 36480 H 3628.26 -3.90367 -1.58719 0
M  V30 36481 H 3626.98 -2.68968 -1.85267 0
M  V30 36482 H 3625.64 -3.66574 0.0433562 0
M  V30 36483 H 3625.29 -4.47504 -2.29671 0
M  V30 36484 H 3624.99 -5.77006 -1.11073 0
M  V30 36485 H 3626.51 -5.75407 -2.04302 0
M  V30 36486 H 3627.93 -5.72845 0.228267 0
M  V30 36487 H 3626.32 -5.91769 0.996491 0
M  V30 36488 H 3627.39 -4.60463 1.51993 0
M  V30 36489 N 3628.74 -0.351436 -1.53632 0
M  V30 36490 C 3629.96 0.243816 -2.05458 0
M  V30 36491 C 3630.38 1.43587 -1.2259 0
M  V30 36492 O 3629.74 1.80593 -0.26312 0
M  V30 36493 C 3629.79 0.651164 -3.55587 0
M  V30 36494 O 3629.51 -0.493492 -4.35312 0
M  V30 36495 C 3631.01 1.3063 -4.23616 0
M  V30 36496 H 3628.23 0.0456711 -0.669444 0
M  V30 36497 H 3630.77 -0.50571 -1.98148 0
M  V30 36498 H 3628.93 1.35062 -3.63094 0
M  V30 36499 H 3629.34 -0.167199 -5.24233 0
M  V30 36500 H 3630.82 1.54201 -5.30025 0
M  V30 36501 H 3631.29 2.26229 -3.76453 0
M  V30 36502 H 3631.9 0.648664 -4.20324 0
M  V30 36503 N 3630.21 1.57396 -0.0802459 0
M  V30 36504 C 3631.16 2.09729 0.894297 0
M  V30 36505 C 3632.15 1.00889 1.2534 0
M  V30 36506 O 3633.34 1.27186 1.23097 0
M  V30 36507 C 3630.47 2.66928 2.15881 0
M  V30 36508 C 3629.55 3.82786 1.8258 0
M  V30 36509 N 3629.95 4.91415 1.19768 0
M  V30 36510 C 3628.24 3.92241 2.1228 0
M  V30 36511 C 3628.94 5.72191 1.04748 0
M  V30 36512 N 3627.92 5.20736 1.55996 0
M  V30 36513 H 3631.72 2.91103 0.404472 0
M  V30 36514 H 3629.24 1.6193 0.123403 0
M  V30 36515 H 3631.23 3.02741 2.86625 0
M  V30 36516 H 3629.89 1.87003 2.65443 0
M  V30 36517 H 3630.9 5.10603 0.866294 0
M  V30 36518 H 3627.58 3.23304 2.64161 0
M  V30 36519 H 3628.97 6.69584 0.557442 0
M  V30 36520 N 3631.69 -0.193366 1.56409 0
M  V30 36521 C 3632.92 -0.929643 1.84838 0
M  V30 36522 C 3633.33 -1.76778 0.662959 0
M  V30 36523 O 3632.69 -1.78745 -0.368307 0
M  V30 36524 C 3632.74 -1.8244 3.12087 0
M  V30 36525 O 3632.46 -1.0201 4.26058 0
M  V30 36526 C 3633.96 -2.67221 3.53706 0
M  V30 36527 H 3631.18 -0.271157 0.613771 0
M  V30 36528 H 3633.73 -0.200098 2.03519 0
M  V30 36529 H 3631.88 -2.50754 2.95298 0
M  V30 36530 H 3632.3 -1.62999 4.98529 0
M  V30 36531 H 3633.77 -3.25656 4.45704 0
M  V30 36532 H 3634.25 -3.41014 2.76777 0
M  V30 36533 H 3634.85 -2.04274 3.73031 0
M  V30 36534 N 3633.17 -1.50702 -0.461142 0
M  V30 36535 C 3634.42 -1.61868 -1.21009 0
M  V30 36536 C 3634.74 -0.32577 -1.9226 0
M  V30 36537 O 3634.01 0.657273 -1.84545 0
M  V30 36538 H 3632.59 -0.596502 -0.449661 0
M  V30 36539 H 3635.25 -1.87526 -0.531023 0
M  V30 36540 H 3634.35 -2.43474 -1.95261 0
M  V30 36541 N 3634.65 0.715001 -1.40447 0
M  V30 36542 C 3635.58 1.8419 -1.43514 0
M  V30 36543 C 3636.56 1.67505 -0.295998 0
M  V30 36544 O 3637.74 1.87527 -0.5047 0
M  V30 36545 C 3634.87 3.2215 -1.29757 0
M  V30 36546 C 3633.83 3.53508 -2.4128 0
M  V30 36547 C 3633.15 4.90618 -2.12599 0
M  V30 36548 C 3634.45 3.54447 -3.83621 0
M  V30 36549 H 3636.15 1.81881 -2.37823 0
M  V30 36550 H 3633.69 0.873635 -1.14471 0
M  V30 36551 H 3635.65 4.00678 -1.30519 0
M  V30 36552 H 3634.37 3.25036 -0.319247 0
M  V30 36553 H 3633.03 2.7732 -2.39769 0
M  V30 36554 H 3632.68 4.90107 -1.13156 0
M  V30 36555 H 3632.38 5.12565 -2.87317 0
M  V30 36556 H 3633.9 5.71479 -2.15044 0
M  V30 36557 H 3635.32 4.23014 -3.86952 0
M  V30 36558 H 3633.71 3.87921 -4.57862 0
M  V30 36559 H 3634.78 2.53819 -4.13163 0
M  V30 36560 N 3636.13 1.25954 0.947281 0
M  V30 36561 C 3637.37 1.10918 1.68943 0
M  V30 36562 C 3637.69 -0.349182 1.91848 0
M  V30 36563 O 3636.96 -1.24704 1.51082 0
M  V30 36564 H 3635.54 0.407473 0.626079 0
M  V30 36565 H 3638.21 1.58189 1.13851 0
M  V30 36566 H 3637.3 1.62321 2.66567 0
M  V30 36567 N 3637.6 -1.15097 1.07659 0
M  V30 36568 C 3638.57 -2.18133 0.703597 0
M  V30 36569 C 3639.57 -1.58721 -0.257743 0
M  V30 36570 O 3640.76 -1.74158 -0.0382905 0
M  V30 36571 C 3637.89 -3.40879 0.0375578 0
M  V30 36572 H 3639.08 -2.52645 1.61587 0
M  V30 36573 H 3636.64 -1.29613 0.873507 0
M  V30 36574 H 3637.37 -3.11939 -0.886813 0
M  V30 36575 H 3637.16 -3.85263 0.729028 0
M  V30 36576 H 3638.65 -4.17078 -0.20864 0
M  V30 36577 N 3639.08 -0.861145 -1.31993 0
M  V30 36578 C 3640.33 -0.466789 -1.96635 0
M  V30 36579 C 3640.65 0.982299 -1.68451 0
M  V30 36580 O 3639.92 1.68739 -0.995187 0
M  V30 36581 H 3638.5 -0.169625 -0.727486 0
M  V30 36582 H 3641.16 -1.099 -1.6096 0
M  V30 36583 H 3640.26 -0.617214 -3.05936 0
M  V30 36584 N 3640.56 1.44905 -0.619713 0
M  V30 36585 C 3641.81 2.01359 -0.117182 0
M  V30 36586 C 3642.12 1.49241 1.26438 0
M  V30 36587 O 3643.33 1.9775 1.8603 0
M  V30 36588 C 3641.78 3.5955 -0.158773 0
M  V30 36589 C 3641.39 4.20665 -1.54094 0
M  V30 36590 C 3643.14 4.23523 0.287887 0
M  V30 36591 C 3641.04 5.71044 -1.53826 0
M  V30 36592 H 3639.97 0.752936 -0.0400413 0
M  V30 36593 H 3642.62 1.66246 -0.776831 0
M  V30 36594 H 3641.01 3.91909 0.567761 0
M  V30 36595 H 3642.18 3.99861 -2.29014 0
M  V30 36596 H 3640.5 3.68934 -1.93071 0
M  V30 36597 H 3643.09 5.33805 0.309258 0
M  V30 36598 H 3643.44 3.95053 1.31298 0
M  V30 36599 H 3643.97 3.95925 -0.385776 0
M  V30 36600 H 3640.71 6.04232 -2.54134 0
M  V30 36601 H 3640.23 5.94004 -0.831813 0
M  V30 36602 H 3641.91 6.34469 -1.26719 0
M  V30 36603 N 3642.04 0.359579 1.53443 0
M  V30 36604 C 3643.29 -0.231987 2.01167 0
M  V30 36605 C 3643.61 -1.49264 1.24702 0
M  V30 36606 O 3642.87 -1.92945 0.327198 0
M  V30 36607 C 3643.17 -0.575801 3.52731 0
M  V30 36608 C 3642.83 0.589824 4.47026 0
M  V30 36609 C 3641.5 0.90967 4.72523 0
M  V30 36610 C 3643.85 1.37104 5.02844 0
M  V30 36611 C 3641.18 2.01281 5.51092 0
M  V30 36612 C 3643.53 2.46455 5.82617 0
M  V30 36613 C 3642.19 2.78981 6.06404 0
M  V30 36614 H 3641.46 -0.0848901 0.736121 0
M  V30 36615 H 3644.11 0.490803 1.85104 0
M  V30 36616 H 3642.41 -1.37953 3.6671 0
M  V30 36617 H 3644.11 -1.04566 3.87126 0
M  V30 36618 H 3640.7 0.330493 4.27324 0
M  V30 36619 H 3644.88 1.13718 4.83096 0
M  V30 36620 H 3640.14 2.26887 5.67743 0
M  V30 36621 H 3644.31 3.07409 6.24878 0
M  V30 36622 H 3641.94 3.64584 6.6707 0
M  V30 36623 N 3643.52 -1.57351 0.0885919 0
M  V30 36624 C 3644.76 -1.94116 -0.576641 0
M  V30 36625 C 3645.09 -0.969872 -1.68593 0
M  V30 36626 O 3644.35 0.0116654 -1.95697 0
M  V30 36627 C 3644.65 -3.37443 -1.17758 0
M  V30 36628 C 3644.31 -4.50488 -0.192734 0
M  V30 36629 C 3642.97 -4.81137 0.0781567 0
M  V30 36630 C 3645.33 -5.18984 0.480088 0
M  V30 36631 C 3642.65 -5.77612 1.02867 0
M  V30 36632 C 3645.01 -6.16479 1.41903 0
M  V30 36633 C 3643.67 -6.45536 1.69822 0
M  V30 36634 H 3642.94 -0.710321 -0.211008 0
M  V30 36635 H 3645.59 -1.90805 0.163042 0
M  V30 36636 H 3643.89 -3.37301 -1.99337 0
M  V30 36637 H 3645.59 -3.63188 -1.69988 0
M  V30 36638 H 3642.18 -4.26595 -0.414055 0
M  V30 36639 H 3646.36 -4.95487 0.283941 0
M  V30 36640 H 3641.62 -5.98443 1.25205 0
M  V30 36641 H 3645.79 -6.68651 1.94623 0
M  V30 36642 H 3643.42 -7.20102 2.43634 0
M  V30 36643 N 3644.99 0.185069 -1.5651 0
M  V30 36644 C 3645.96 1.21301 -1.9447 0
M  V30 36645 C 3646.96 1.37912 -0.826862 0
M  V30 36646 O 3648.15 1.35552 -1.09413 0
M  V30 36647 C 3645.28 2.58059 -2.22751 0
M  V30 36648 H 3646.47 0.888273 -2.86443 0
M  V30 36649 H 3644.03 0.426986 -1.50355 0
M  V30 36650 H 3644.76 2.95571 -1.33448 0
M  V30 36651 H 3644.55 2.47372 -3.04219 0
M  V30 36652 H 3646.04 3.32168 -2.5309 0
M  V30 36653 N 3646.47 1.50945 0.453144 0
M  V30 36654 C 3647.72 1.62066 1.20073 0
M  V30 36655 C 3648.03 0.335068 1.92709 0
M  V30 36656 O 3649.24 0.325428 2.69543 0
M  V30 36657 C 3647.7 2.86152 2.18277 0
M  V30 36658 C 3647.3 4.21656 1.51362 0
M  V30 36659 C 3649.05 3.06625 2.93567 0
M  V30 36660 C 3646.96 5.36908 2.47958 0
M  V30 36661 H 3645.89 0.603587 0.451883 0
M  V30 36662 H 3648.54 1.77396 0.469339 0
M  V30 36663 H 3646.92 2.6442 2.94785 0
M  V30 36664 H 3648.09 4.5371 0.805215 0
M  V30 36665 H 3646.41 4.06933 0.882864 0
M  V30 36666 H 3649 3.89903 3.65896 0
M  V30 36667 H 3649.35 2.19066 3.54 0
M  V30 36668 H 3649.88 3.28623 2.2417 0
M  V30 36669 H 3646.62 6.26678 1.92238 0
M  V30 36670 H 3646.14 5.0925 3.16899 0
M  V30 36671 H 3647.82 5.68216 3.09418 0
M  V30 36672 N 3647.95 -0.707543 1.40825 0
M  V30 36673 C 3649.2 -1.46309 1.3884 0
M  V30 36674 C 3649.51 -1.956 -0.00350501 0
M  V30 36675 O 3650.72 -2.71107 -0.145975 0
M  V30 36676 C 3649.17 -2.64507 2.44057 0
M  V30 36677 C 3648.78 -2.22053 3.89097 0
M  V30 36678 C 3650.53 -3.42204 2.51191 0
M  V30 36679 C 3648.43 -3.37138 4.85893 0
M  V30 36680 H 3647.36 -0.549526 0.516273 0
M  V30 36681 H 3650.01 -0.769272 1.66597 0
M  V30 36682 H 3648.4 -3.36099 2.09412 0
M  V30 36683 H 3649.57 -1.57829 4.32928 0
M  V30 36684 H 3647.89 -1.57381 3.85513 0
M  V30 36685 H 3650.48 -4.27854 3.20695 0
M  V30 36686 H 3650.83 -3.86571 1.54495 0
M  V30 36687 H 3651.36 -2.77661 2.84867 0
M  V30 36688 H 3648.1 -2.97795 5.83951 0
M  V30 36689 H 3647.62 -4.00251 4.4672 0
M  V30 36690 H 3649.3 -4.03089 5.06091 0
M  V30 36691 N 3649.43 -1.26454 -0.940588 0
M  V30 36692 C 3650.36 -1.10563 -2.05665 0
M  V30 36693 C 3651.34 -0.0106557 -1.70097 0
M  V30 36694 O 3652.52 -0.18279 -1.93338 0
M  V30 36695 C 3649.65 -0.738459 -3.39358 0
M  V30 36696 C 3648.61 -1.78524 -3.8899 0
M  V30 36697 C 3647.93 -1.27237 -5.19341 0
M  V30 36698 C 3649.23 -3.18687 -4.13806 0
M  V30 36699 H 3650.93 -2.03921 -2.19218 0
M  V30 36700 H 3648.47 -0.981838 -1.05337 0
M  V30 36701 H 3650.43 -0.614163 -4.169 0
M  V30 36702 H 3649.15 0.23083 -3.25783 0
M  V30 36703 H 3647.81 -1.89821 -3.13629 0
M  V30 36704 H 3647.46 -0.292904 -5.02146 0
M  V30 36705 H 3647.16 -1.97211 -5.53517 0
M  V30 36706 H 3648.68 -1.16075 -5.99465 0
M  V30 36707 H 3650.1 -3.10463 -4.8196 0
M  V30 36708 H 3648.49 -3.86257 -4.59266 0
M  V30 36709 H 3649.56 -3.647 -3.19565 0
M  V30 36710 N 3650.91 1.14525 -1.08268 0
M  V30 36711 C 3652.15 1.85804 -0.812694 0
M  V30 36712 C 3652.49 1.82646 0.659846 0
M  V30 36713 O 3651.76 1.25615 1.48496 0
M  V30 36714 C 3652.04 3.34503 -1.33341 0
M  V30 36715 C 3651.9 3.46241 -2.87119 0
M  V30 36716 C 3653.22 4.29558 -0.957511 0
M  V30 36717 H 3650.33 0.674642 -0.296693 0
M  V30 36718 H 3652.98 1.34495 -1.34205 0
M  V30 36719 H 3651.13 3.78329 -0.883123 0
M  V30 36720 H 3652.8 3.11211 -3.40508 0
M  V30 36721 H 3651.04 2.87498 -3.2485 0
M  V30 36722 H 3651.71 4.50757 -3.18626 0
M  V30 36723 H 3654.19 3.9374 -1.34567 0
M  V30 36724 H 3653.06 5.32063 -1.34907 0
M  V30 36725 H 3653.33 4.41892 0.135612 0
M  V30 36726 N 3652.39 0.868133 1.31534 0
M  V30 36727 C 3653.61 0.492564 2.00951 0
M  V30 36728 C 3654.03 -0.914458 1.65176 0
M  V30 36729 O 3653.39 -1.5988 0.88003 0
M  V30 36730 C 3653.44 0.637861 3.55828 0
M  V30 36731 O 3653.16 1.98947 3.90322 0
M  V30 36732 C 3654.66 0.263064 4.42519 0
M  V30 36733 H 3651.88 0.192116 0.642909 0
M  V30 36734 H 3654.42 1.16879 1.67808 0
M  V30 36735 H 3652.58 0.00920869 3.87399 0
M  V30 36736 H 3652.99 1.99592 4.8504 0
M  V30 36737 H 3654.47 0.415687 5.50433 0
M  V30 36738 H 3654.94 -0.797629 4.31896 0
M  V30 36739 H 3655.55 0.867341 4.16362 0
M  V30 36740 N 3653.86 -1.44574 0.627389 0
M  V30 36741 C 3655.11 -2.01681 0.13013 0
M  V30 36742 C 3655.43 -1.49575 -1.2511 0
M  V30 36743 O 3654.7 -0.697854 -1.83049 0
M  V30 36744 H 3653.28 -0.745636 0.0451163 0
M  V30 36745 H 3655.94 -1.77122 0.813249 0
M  V30 36746 H 3655.04 -3.11955 0.0949679 0
M  V30 36747 N 3655.34 -0.367711 -1.5325 0
M  V30 36748 C 3656.3 0.465477 -2.24424 0
M  V30 36749 C 3657.3 1.00798 -1.25285 0
M  V30 36750 O 3658.49 0.893398 -1.49546 0
M  V30 36751 C 3655.63 1.65082 -2.98263 0
M  V30 36752 H 3656.82 -0.157344 -2.99487 0
M  V30 36753 H 3654.37 -0.119437 -1.55843 0
M  V30 36754 H 3655.11 2.31167 -2.27447 0
M  V30 36755 H 3654.89 1.26876 -3.71005 0
M  V30 36756 H 3656.38 2.24122 -3.52362 0
M  V30 36757 N 3656.82 1.57302 -0.0969353 0
M  V30 36758 C 3658.07 1.94707 0.567178 0
M  V30 36759 C 3658.4 0.978967 1.6772 0
M  V30 36760 O 3657.67 0.0123358 1.94496 0
M  V30 36761 C 3657.96 3.42219 1.12063 0
M  V30 36762 C 3657.81 4.49797 0.0155359 0
M  V30 36763 C 3659.13 3.91085 2.01843 0
M  V30 36764 H 3656.25 0.708001 0.204704 0
M  V30 36765 H 3658.89 1.89256 -0.168018 0
M  V30 36766 H 3657.04 3.46996 1.74717 0
M  V30 36767 H 3658.71 4.57131 -0.61879 0
M  V30 36768 H 3656.95 4.28893 -0.650605 0
M  V30 36769 H 3657.63 5.50214 0.443627 0
M  V30 36770 H 3660.1 3.88473 1.49092 0
M  V30 36771 H 3658.98 4.94862 2.37493 0
M  V30 36772 H 3659.24 3.30485 2.93653 0
M  V30 36773 N 3658.3 -0.176766 1.56606 0
M  V30 36774 C 3659.26 -1.20268 1.95111 0
M  V30 36775 C 3660.26 -1.37471 0.834164 0
M  V30 36776 O 3661.45 -1.3497 1.1013 0
M  V30 36777 C 3658.58 -2.56874 2.24117 0
M  V30 36778 H 3659.78 -0.87307 2.8691 0
M  V30 36779 H 3657.33 -0.419006 1.50579 0
M  V30 36780 H 3658.06 -2.94859 1.35014 0
M  V30 36781 H 3657.85 -2.45755 3.05527 0
M  V30 36782 H 3659.34 -3.30821 2.54848 0
M  V30 36783 N 3659.78 -1.51183 -0.445132 0
M  V30 36784 C 3660.71 -1.74877 -1.54727 0
M  V30 36785 C 3661.69 -0.598351 -1.59229 0
M  V30 36786 O 3662.87 -0.84025 -1.75081 0
M  V30 36787 C 3660 -1.86669 -2.92868 0
M  V30 36788 C 3658.96 -3.02053 -3.03229 0
M  V30 36789 C 3658.28 -2.9902 -4.43274 0
M  V30 36790 C 3659.58 -4.42149 -2.78032 0
M  V30 36791 H 3661.28 -2.6716 -1.35151 0
M  V30 36792 H 3658.82 -1.28559 -0.648741 0
M  V30 36793 H 3660.77 -2.01828 -3.69923 0
M  V30 36794 H 3659.5 -0.910281 -3.13658 0
M  V30 36795 H 3658.16 -2.86587 -2.28612 0
M  V30 36796 H 3657.81 -2.01171 -4.6102 0
M  V30 36797 H 3657.51 -3.76496 -4.51137 0
M  V30 36798 H 3659.03 -3.16261 -5.22313 0
M  V30 36799 H 3660.44 -4.58006 -3.44823 0
M  V30 36800 H 3658.84 -5.21272 -2.97314 0
M  V30 36801 H 3659.91 -4.52724 -1.73692 0
M  V30 36802 N 3661.25 0.700065 -1.41198 0
M  V30 36803 C 3662.22 1.79579 -1.42422 0
M  V30 36804 C 3663.22 1.57674 -0.315537 0
M  V30 36805 O 3664.41 1.6443 -0.575202 0
M  V30 36806 C 3661.54 3.17891 -1.23119 0
M  V30 36807 H 3662.73 1.79888 -2.39959 0
M  V30 36808 H 3660.28 0.907248 -1.27274 0
M  V30 36809 H 3661.02 3.23223 -0.264049 0
M  V30 36810 H 3660.8 3.35191 -2.03443 0
M  V30 36811 H 3662.29 3.97884 -1.268 0
M  V30 36812 N 3662.73 1.26951 0.933869 0
M  V30 36813 C 3663.69 1.09193 2.01518 0
M  V30 36814 C 3664.69 0.0378933 1.60755 0
M  V30 36815 O 3665.88 0.281947 1.71903 0
M  V30 36816 C 3663.02 0.662449 3.34402 0
M  V30 36817 H 3664.21 2.05205 2.18703 0
M  V30 36818 H 3661.76 1.09652 1.11383 0
M  V30 36819 H 3662.5 -0.299331 3.22916 0
M  V30 36820 H 3662.28 1.42362 3.65343 0
M  V30 36821 H 3663.77 0.56026 4.13825 0
M  V30 36822 N 3664.21 -1.13949 1.08873 0
M  V30 36823 C 3665.44 -1.88676 0.841724 0
M  V30 36824 C 3665.85 -1.79091 -0.610182 0
M  V30 36825 O 3665.19 -1.1514 -1.43138 0
M  V30 36826 C 3665.25 -3.39204 1.19083 0
M  V30 36827 C 3664.92 -3.72572 2.64649 0
M  V30 36828 C 3665.91 -3.72291 3.62899 0
M  V30 36829 C 3663.6 -4.02405 3.00625 0
M  V30 36830 C 3665.59 -4.01373 4.95155 0
M  V30 36831 C 3663.28 -4.3115 4.33074 0
M  V30 36832 C 3664.28 -4.30618 5.30148 0
M  V30 36833 O 3663.97 -4.58663 6.60215 0
M  V30 36834 H 3663.7 -0.604337 0.302907 0
M  V30 36835 H 3666.25 -1.45207 1.45273 0
M  V30 36836 H 3664.48 -3.83149 0.522852 0
M  V30 36837 H 3666.17 -3.95246 0.923875 0
M  V30 36838 H 3666.94 -3.49325 3.36448 0
M  V30 36839 H 3662.82 -4.01969 2.25703 0
M  V30 36840 H 3666.36 -4.00874 5.70917 0
M  V30 36841 H 3662.26 -4.53587 4.5927 0
M  V30 36842 H 3663.02 -4.76358 6.65602 0
M  V30 36843 N 3665.69 -0.875096 -1.31072 0
M  V30 36844 C 3666.91 -0.502419 -2.01223 0
M  V30 36845 C 3667.34 0.899024 -1.65225 0
M  V30 36846 O 3666.7 1.59411 -0.863587 0
M  V30 36847 C 3666.74 -0.672809 -3.54268 0
M  V30 36848 O 3665.85 0.285645 -4.1141 0
M  V30 36849 H 3665.19 -0.199192 -0.633418 0
M  V30 36850 H 3667.72 -1.17992 -1.6715 0
M  V30 36851 H 3667.73 -0.568044 -4.04026 0
M  V30 36852 H 3666.4 -1.69466 -3.79808 0
M  V30 36853 H 3664.98 0.135406 -3.72654 0
M  V30 36854 N 3667.17 1.44239 -0.635047 0
M  V30 36855 C 3668.4 2.06069 -0.148081 0
M  V30 36856 C 3668.8 1.4756 1.18417 0
M  V30 36857 O 3668.15 0.594455 1.73816 0
M  V30 36858 C 3668.21 3.59481 0.0368961 0
M  V30 36859 C 3667.87 4.40475 -1.2178 0
M  V30 36860 C 3668.87 4.73705 -2.14241 0
M  V30 36861 C 3666.56 4.80786 -1.45431 0
M  V30 36862 C 3668.55 5.46134 -3.28659 0
M  V30 36863 C 3666.24 5.52962 -2.60146 0
M  V30 36864 C 3667.23 5.85556 -3.51586 0
M  V30 36865 O 3666.92 6.56262 -4.64301 0
M  V30 36866 H 3666.65 0.671399 -0.0787349 0
M  V30 36867 H 3669.21 1.86034 -0.870671 0
M  V30 36868 H 3667.44 3.78021 0.814672 0
M  V30 36869 H 3669.13 4.03065 0.478913 0
M  V30 36870 H 3669.89 4.43098 -1.97204 0
M  V30 36871 H 3665.77 4.54834 -0.751458 0
M  V30 36872 H 3669.32 5.71492 -4.00053 0
M  V30 36873 H 3665.21 5.82986 -2.77124 0
M  V30 36874 H 3665.98 6.74734 -4.63332 0
M  V30 36875 N 3668.64 0.375833 1.53053 0
M  V30 36876 C 3669.89 -0.210638 2.01402 0
M  V30 36877 C 3670.22 -1.47933 1.26278 0
M  V30 36878 O 3669.47 -1.92587 0.347644 0
M  V30 36879 C 3669.77 -0.538357 3.53322 0
M  V30 36880 C 3669.44 0.637204 4.46375 0
M  V30 36881 C 3668.1 0.959736 4.71532 0
M  V30 36882 C 3670.45 1.42429 5.01361 0
M  V30 36883 C 3667.78 2.07115 5.48927 0
M  V30 36884 C 3670.13 2.5262 5.7997 0
M  V30 36885 C 3668.8 2.85397 6.03411 0
M  V30 36886 H 3668.07 -0.0770777 0.73698 0
M  V30 36887 H 3670.71 0.510409 1.84573 0
M  V30 36888 H 3669.02 -1.34055 3.68153 0
M  V30 36889 H 3670.72 -1.00455 3.88214 0
M  V30 36890 H 3667.31 0.375797 4.26949 0
M  V30 36891 H 3671.49 1.18836 4.81863 0
M  V30 36892 H 3666.75 2.32896 5.65305 0
M  V30 36893 H 3670.92 3.14019 6.21583 0
M  V30 36894 H 3668.55 3.71638 6.63166 0
M  V30 36895 N 3670.12 -1.57248 0.105276 0
M  V30 36896 C 3671.54 -1.57608 -0.251358 0
M  V30 36897 C 3671.74 -1.11712 -1.67698 0
M  V30 36898 O 3670.79 -0.798224 -2.39551 0
M  V30 36899 C 3672.11 -3.00685 -0.0305226 0
M  V30 36900 C 3673.66 -3.12848 -0.0974859 0
M  V30 36901 C 3674.13 -4.579 0.0954829 0
M  V30 36902 N 3675.62 -4.63182 0.0409894 0
M  V30 36903 C 3676.36 -5.73161 0.165399 0
M  V30 36904 N 3675.85 -6.91939 0.345213 0
M  V30 36905 N 3677.65 -5.62 0.105946 0
M  V30 36906 H 3669.8 -1.85387 1.03661 0
M  V30 36907 H 3672.06 -0.856144 0.407089 0
M  V30 36908 H 3671.77 -3.38499 0.95452 0
M  V30 36909 H 3671.64 -3.6929 -0.768412 0
M  V30 36910 H 3674.03 -2.749 -1.07304 0
M  V30 36911 H 3674.11 -2.46814 0.67206 0
M  V30 36912 H 3673.75 -4.96545 1.06795 0
M  V30 36913 H 3673.68 -5.22008 -0.693882 0
M  V30 36914 H 3676.17 -3.7778 -0.0950345 0
M  V30 36915 H 3676.49 -7.71595 0.431379 0
M  V30 36916 H 3674.83 -6.93955 0.381012 0
M  V30 36917 H 3678.02 -4.68088 -0.0334721 0
M  V30 36918 H 3678.19 -6.47671 0.206349 0
M  V30 36919 N 3671.6 0.168458 -1.56697 0
M  V30 36920 C 3672.85 0.882941 -1.81348 0
M  V30 36921 C 3673.16 1.83288 -0.683007 0
M  V30 36922 O 3674.37 2.58994 -0.814524 0
M  V30 36923 C 3672.82 1.62061 -3.21348 0
M  V30 36924 C 3672.43 0.714163 -4.42271 0
M  V30 36925 C 3674.18 2.32314 -3.55289 0
M  V30 36926 C 3672.08 1.45222 -5.73293 0
M  V30 36927 H 3671.01 0.333449 -0.67626 0
M  V30 36928 H 3673.66 0.135839 -1.82997 0
M  V30 36929 H 3672.05 2.41257 -3.14024 0
M  V30 36930 H 3673.22 -0.0410366 -4.60782 0
M  V30 36931 H 3671.54 0.121132 -4.16224 0
M  V30 36932 H 3674.13 2.88133 -4.50426 0
M  V30 36933 H 3674.48 3.07789 -2.80307 0
M  V30 36934 H 3675.01 1.60059 -3.64178 0
M  V30 36935 H 3671.75 0.739754 -6.51312 0
M  V30 36936 H 3671.27 2.18068 -5.58754 0
M  V30 36937 H 3672.95 1.99894 -6.15347 0
M  V30 36938 N 3673.08 1.51417 0.437109 0
M  V30 36939 C 3674.03 1.73322 1.5512 0
M  V30 36940 C 3675.02 0.599539 1.58436 0
M  V30 36941 O 3676.23 0.780925 1.62178 0
M  V30 36942 H 3672.6 0.547641 0.515358 0
M  V30 36943 H 3674.57 2.66711 1.3382 0
M  V30 36944 C 3673.32 1.87559 2.92774 0
M  V30 36945 H 3672.64 2.74199 2.90955 0
M  V30 36946 H 3674.08 2.06898 3.70094 0
M  V30 36947 C 3672.54 0.635466 3.30853 0
M  V30 36948 O 3673.07 -0.20976 4.01152 0
M  V30 36949 N 3671.28 0.479491 2.86617 0
M  V30 36950 H 3670.83 1.16838 2.29579 0
M  V30 36951 H 3670.78 -0.349023 3.12457 0
M  V30 36952 N 3674.56 -0.692567 1.41567 0
M  V30 36953 C 3675.97 -1.00353 1.24102 0
M  V30 36954 C 3676.17 -2.01064 0.132521 0
M  V30 36955 O 3675.23 -2.47458 -0.502099 0
M  V30 36956 C 3676.54 -1.52528 2.59144 0
M  V30 36957 C 3678.09 -1.64396 2.66351 0
M  V30 36958 C 3678.56 -2.19971 4.01717 0
M  V30 36959 N 3680.06 -2.27328 4.03579 0
M  V30 36960 C 3680.79 -2.71364 5.05123 0
M  V30 36961 N 3680.29 -3.14983 6.17056 0
M  V30 36962 N 3682.08 -2.70955 4.92483 0
M  V30 36963 H 3674.23 -0.0254486 2.12385 0
M  V30 36964 H 3676.49 -0.0738518 0.945119 0
M  V30 36965 H 3676.2 -0.85983 3.41028 0
M  V30 36966 H 3676.07 -2.50694 2.81838 0
M  V30 36967 H 3678.46 -2.30052 1.84825 0
M  V30 36968 H 3678.54 -0.647673 2.47465 0
M  V30 36969 H 3678.19 -1.5493 4.83693 0
M  V30 36970 H 3678.12 -3.20358 4.17945 0
M  V30 36971 H 3680.61 -1.9655 3.22764 0
M  V30 36972 H 3680.92 -3.47219 6.90405 0
M  V30 36973 H 3679.26 -3.12884 6.20587 0
M  V30 36974 H 3682.46 -2.36229 4.04121 0
M  V30 36975 H 3682.63 -3.04955 5.71757 0
M  V30 36976 N 3676.03 -1.27445 -0.927123 0
M  V30 36977 C 3677.45 -1.04862 -1.20317 0
M  V30 36978 C 3677.65 0.217456 -2.00323 0
M  V30 36979 O 3676.71 0.922791 -2.35034 0
M  V30 36980 C 3678.02 -2.28836 -1.95076 0
M  V30 36981 C 3679.57 -2.3388 -2.08012 0
M  V30 36982 C 3680.04 -3.57585 -2.86176 0
M  V30 36983 N 3681.53 -3.58146 -2.93744 0
M  V30 36984 C 3682.27 -4.50536 -3.5469 0
M  V30 36985 N 3681.76 -5.53231 -4.17022 0
M  V30 36986 N 3683.56 -4.38158 -3.52099 0
M  V30 36987 H 3675.71 -2.08739 -0.392634 0
M  V30 36988 H 3677.97 -0.918076 -0.236307 0
M  V30 36989 H 3677.68 -3.21001 -1.43706 0
M  V30 36990 H 3677.55 -2.34198 -2.95688 0
M  V30 36991 H 3679.94 -1.42221 -2.58567 0
M  V30 36992 H 3680.02 -2.32521 -1.06618 0
M  V30 36993 H 3679.66 -4.49581 -2.36304 0
M  V30 36994 H 3679.59 -3.56195 -3.87857 0
M  V30 36995 H 3682.08 -2.83877 -2.49444 0
M  V30 36996 H 3682.4 -6.19894 -4.61466 0
M  V30 36997 H 3680.74 -5.57072 -4.15567 0
M  V30 36998 H 3683.93 -3.57139 -3.02604 0
M  V30 36999 H 3684.11 -5.10351 -3.99306 0
M  V30 37000 N 3677.51 1.1337 -1.09476 0
M  V30 37001 C 3678.74 1.885 -0.852955 0
M  V30 37002 C 3679.16 1.79152 0.595824 0
M  V30 37003 O 3678.51 1.15847 1.41016 0
M  V30 37004 C 3678.56 3.38081 -1.27999 0
M  V30 37005 O 3678.28 3.47187 -2.67195 0
M  V30 37006 C 3679.79 4.30177 -1.07064 0
M  V30 37007 H 3677.01 0.596738 -0.306831 0
M  V30 37008 H 3679.55 1.43511 -1.45688 0
M  V30 37009 H 3677.7 3.80651 -0.719946 0
M  V30 37010 H 3678.12 4.40177 -2.85209 0
M  V30 37011 H 3679.59 5.33458 -1.4187 0
M  V30 37012 H 3680.07 4.39199 -0.00846452 0
M  V30 37013 H 3680.68 3.93376 -1.61666 0
M  V30 37014 N 3678.99 0.882035 1.30606 0
M  V30 37015 C 3680.24 0.495072 1.9553 0
M  V30 37016 C 3680.55 -0.96002 1.7042 0
M  V30 37017 O 3681.76 -1.45369 2.29303 0
M  V30 37018 C 3680.21 0.834444 3.50093 0
M  V30 37019 C 3679.82 2.30711 3.84027 0
M  V30 37020 C 3681.57 0.516537 4.21346 0
M  V30 37021 C 3679.47 2.58826 5.31755 0
M  V30 37022 H 3678.4 0.181412 0.731851 0
M  V30 37023 H 3681.05 1.0766 1.48598 0
M  V30 37024 H 3679.44 0.182031 3.95581 0
M  V30 37025 H 3680.61 3.00359 3.49458 0
M  V30 37026 H 3678.93 2.59225 3.2587 0
M  V30 37027 H 3681.52 0.703669 5.3005 0
M  V30 37028 H 3681.87 -0.543862 4.12732 0
M  V30 37029 H 3682.4 1.12601 3.81531 0
M  V30 37030 H 3679.14 3.63596 5.45416 0
M  V30 37031 H 3678.66 1.93784 5.67633 0
M  V30 37032 H 3680.34 2.44176 5.99155 0
M  V30 37033 N 3680.47 -1.439 0.642688 0
M  V30 37034 C 3681.72 -2.01531 0.151513 0
M  V30 37035 C 3682.04 -1.50893 -1.23516 0
M  V30 37036 O 3681.31 -0.717229 -1.82298 0
M  V30 37037 H 3679.89 -0.745116 0.0530222 0
M  V30 37038 H 3682.55 -1.7625 0.831989 0
M  V30 37039 H 3681.65 -3.11837 0.12805 0
M  V30 37040 N 3681.95 -0.383945 -1.52852 0
M  V30 37041 C 3683.19 0.199954 -2.0151 0
M  V30 37042 C 3683.52 1.47261 -1.27061 0
M  V30 37043 O 3682.78 1.924 -0.357853 0
M  V30 37044 C 3683.08 0.519612 -3.53603 0
M  V30 37045 C 3682.74 -0.660868 -4.46031 0
M  V30 37046 C 3681.4 -0.984729 -4.71016 0
M  V30 37047 C 3683.76 -1.45086 -5.00599 0
M  V30 37048 C 3681.08 -2.10023 -5.47821 0
M  V30 37049 C 3683.44 -2.55692 -5.78623 0
M  V30 37050 C 3682.1 -2.88593 -6.01889 0
M  V30 37051 H 3681.37 0.0731683 -0.737379 0
M  V30 37052 H 3684.02 -0.52019 -1.84299 0
M  V30 37053 H 3682.32 1.32101 -3.68858 0
M  V30 37054 H 3684.02 0.983943 -3.88741 0
M  V30 37055 H 3680.61 -0.398434 -4.26744 0
M  V30 37056 H 3684.79 -1.2139 -4.81226 0
M  V30 37057 H 3680.05 -2.3589 -5.64062 0
M  V30 37058 H 3684.22 -3.17311 -6.19909 0
M  V30 37059 H 3681.85 -3.7515 -6.61186 0
M  V30 37060 N 3683.43 1.5719 -0.113614 0
M  V30 37061 C 3684.36 2.12089 0.868948 0
M  V30 37062 C 3685.37 1.06236 1.23361 0
M  V30 37063 O 3686.56 1.33625 1.18349 0
M  V30 37064 C 3683.66 2.60109 2.17247 0
M  V30 37065 C 3682.83 3.90002 1.98033 0
M  V30 37066 C 3681.89 4.23676 3.12065 0
M  V30 37067 O 3680.92 4.92586 2.85215 0
M  V30 37068 N 3682.12 3.80564 4.38351 0
M  V30 37069 H 3684.88 2.97019 0.399944 0
M  V30 37070 H 3682.45 1.61744 0.0709662 0
M  V30 37071 H 3684.44 2.7967 2.92518 0
M  V30 37072 H 3683.01 1.80089 2.55513 0
M  V30 37073 H 3682.23 3.79404 1.06986 0
M  V30 37074 H 3683.52 4.74946 1.82494 0
M  V30 37075 H 3682.91 3.24974 4.63042 0
M  V30 37076 H 3681.47 4.05243 5.10511 0
M  V30 37077 N 3684.9 -0.160146 1.56784 0
M  V30 37078 C 3685.85 -1.20296 1.93682 0
M  V30 37079 C 3686.84 -1.3923 0.806459 0
M  V30 37080 O 3688.03 -1.41013 1.06978 0
M  V30 37081 C 3685.16 -2.53978 2.30977 0
M  V30 37082 C 3684.24 -2.38691 3.50553 0
M  V30 37083 N 3684.64 -1.93137 4.67474 0
M  V30 37084 C 3682.93 -2.69484 3.55379 0
M  V30 37085 C 3683.63 -1.90581 5.49594 0
M  V30 37086 N 3682.61 -2.33404 4.90942 0
M  V30 37087 H 3686.41 -0.842641 2.81561 0
M  V30 37088 H 3683.93 -0.368324 1.58168 0
M  V30 37089 H 3685.92 -3.29346 2.5561 0
M  V30 37090 H 3684.58 -2.90803 1.44442 0
M  V30 37091 H 3685.59 -1.63303 4.9148 0
M  V30 37092 H 3682.27 -3.10272 2.79352 0
M  V30 37093 H 3683.66 -1.56964 6.53308 0
M  V30 37094 N 3686.38 -1.51647 -0.429072 0
M  V30 37095 C 3687.63 -1.64724 -1.17781 0
M  V30 37096 C 3687.96 -0.367448 -1.90998 0
M  V30 37097 O 3687.21 0.648829 -1.84631 0
M  V30 37098 C 3687.51 -2.8064 -2.21305 0
M  V30 37099 C 3687.18 -4.1961 -1.65041 0
M  V30 37100 C 3685.84 -4.57414 -1.4942 0
M  V30 37101 C 3688.19 -5.06294 -1.23756 0
M  V30 37102 C 3685.52 -5.796 -0.910007 0
M  V30 37103 C 3687.87 -6.29067 -0.667633 0
M  V30 37104 C 3686.53 -6.65637 -0.49839 0
M  V30 37105 H 3685.8 -0.602767 -0.43099 0
M  V30 37106 H 3688.45 -1.857 -0.467718 0
M  V30 37107 H 3686.76 -2.53918 -2.98384 0
M  V30 37108 H 3688.45 -2.87956 -2.79074 0
M  V30 37109 H 3685.04 -3.89808 -1.78178 0
M  V30 37110 H 3689.23 -4.77687 -1.34642 0
M  V30 37111 H 3684.48 -6.06573 -0.766718 0
M  V30 37112 H 3688.66 -6.95573 -0.339255 0
M  V30 37113 H 3686.28 -7.60187 -0.0435955 0
M  V30 37114 N 3687.86 0.685049 -1.41932 0
M  V30 37115 C 3688.77 1.82843 -1.46988 0
M  V30 37116 C 3689.79 1.70245 -0.359517 0
M  V30 37117 O 3690.96 1.91976 -0.608858 0
M  V30 37118 C 3688.03 3.18909 -1.36006 0
M  V30 37119 C 3687.09 3.43539 -2.57448 0
M  V30 37120 C 3686.32 4.73113 -2.46981 0
M  V30 37121 O 3686.54 5.50321 -1.50008 0
M  V30 37122 O 3685.48 4.9876 -3.3693 0
M  V30 37123 H 3689.3 1.81533 -2.43473 0
M  V30 37124 H 3686.89 0.839476 -1.23585 0
M  V30 37125 H 3688.77 4.00125 -1.32205 0
M  V30 37126 H 3687.45 3.20879 -0.426422 0
M  V30 37127 H 3686.35 2.62212 -2.66825 0
M  V30 37128 H 3687.69 3.46391 -3.49677 0
M  V30 37129 N 3689.34 1.27935 0.920351 0
M  V30 37130 C 3690.56 1.1765 1.70802 0
M  V30 37131 C 3690.99 -0.262156 1.86264 0
M  V30 37132 O 3690.35 -1.18976 1.368 0
M  V30 37133 C 3690.39 1.87304 3.08139 0
M  V30 37134 O 3689.5 1.176 3.95277 0
M  V30 37135 H 3688.84 0.408773 0.52326 0
M  V30 37136 H 3691.37 1.69138 1.15124 0
M  V30 37137 H 3691.38 1.94952 3.5841 0
M  V30 37138 H 3690.05 2.91954 2.96202 0
M  V30 37139 H 3688.63 1.18071 3.53714 0
M  V30 37140 N 3690.82 -1.12788 1.10076 0
M  V30 37141 C 3691.73 -2.22 0.758497 0
M  V30 37142 C 3692.74 -1.72303 -0.242408 0
M  V30 37143 O 3693.92 -2.01233 -0.082087 0
M  V30 37144 C 3690.98 -3.46171 0.191387 0
M  V30 37145 C 3690.04 -4.10726 1.24909 0
M  V30 37146 C 3689.28 -5.2897 0.70895 0
M  V30 37147 O 3689.5 -5.68494 -0.465893 0
M  V30 37148 O 3688.43 -5.83746 1.46713 0
M  V30 37149 H 3692.26 -2.53662 1.67001 0
M  V30 37150 H 3689.84 -1.2105 0.875626 0
M  V30 37151 H 3691.73 -4.21226 -0.121218 0
M  V30 37152 H 3690.4 -3.16194 -0.693039 0
M  V30 37153 H 3689.31 -3.37468 1.6145 0
M  V30 37154 H 3690.64 -4.4485 2.1064 0
M  V30 37155 N 3692.29 -0.888949 -1.30136 0
M  V30 37156 C 3693.2 -0.362841 -2.31777 0
M  V30 37157 C 3694.22 0.536951 -1.65508 0
M  V30 37158 O 3695.4 0.429117 -1.96775 0
M  V30 37159 C 3692.46 0.410612 -3.4426 0
M  V30 37160 C 3691.52 -0.519409 -4.26146 0
M  V30 37161 C 3690.75 0.217226 -5.33258 0
M  V30 37162 O 3690.98 1.44274 -5.51852 0
M  V30 37163 O 3689.91 -0.434716 -6.00328 0
M  V30 37164 H 3693.74 -1.2058 -2.78737 0
M  V30 37165 H 3691.32 -0.652913 -1.34378 0
M  V30 37166 H 3693.2 0.848395 -4.12771 0
M  V30 37167 H 3691.88 1.22981 -2.99428 0
M  V30 37168 H 3690.79 -1.00608 -3.60318 0
M  V30 37169 H 3692.12 -1.30472 -4.74592 0
M  V30 37170 N 3693.77 1.43557 -0.65031 0
M  V30 37171 C 3695.05 1.95381 -0.0925687 0
M  V30 37172 C 3695.43 1.59171 1.38665 0
M  V30 37173 O 3694.78 0.875361 2.11068 0
M  V30 37174 C 3694.99 3.47382 -0.335718 0
M  V30 37175 C 3696.33 4.23926 -0.239107 0
M  V30 37176 O 3697.36 3.55189 -0.268119 0
M  V30 37177 O 3696.22 5.46265 -0.160337 0
M  V30 37178 H 3693.31 0.826923 0.0112938 0
M  V30 37179 H 3695.86 1.53512 -0.723346 0
M  V30 37180 H 3694.63 3.66854 -1.36138 0
M  V30 37181 H 3694.25 3.96243 0.328269 0
M  V30 37182 N 3695.25 0.392045 1.52646 0
M  V30 37183 C 3696.5 -0.190525 2.00798 0
M  V30 37184 C 3696.81 -1.47671 1.28268 0
M  V30 37185 O 3698.02 -2.1395 1.67146 0
M  V30 37186 C 3696.47 -0.390085 3.5778 0
M  V30 37187 C 3696.08 0.88301 4.39212 0
M  V30 37188 C 3697.83 -0.928872 4.14213 0
M  V30 37189 C 3695.73 0.651577 5.878 0
M  V30 37190 H 3694.66 -0.0749747 0.750263 0
M  V30 37191 H 3697.31 0.514866 1.76129 0
M  V30 37192 H 3695.7 -1.15739 3.78709 0
M  V30 37193 H 3696.87 1.65515 4.30048 0
M  V30 37194 H 3695.18 1.34695 3.94013 0
M  V30 37195 H 3697.78 -1.11778 5.22886 0
M  V30 37196 H 3698.12 -1.89872 3.70479 0
M  V30 37197 H 3698.66 -0.221065 3.97185 0
M  V30 37198 H 3695.4 1.5925 6.35861 0
M  V30 37199 H 3694.92 -0.0815732 5.99745 0
M  V30 37200 H 3696.6 0.28717 6.46362 0
M  V30 37201 N 3696.73 -1.57127 0.121948 0
M  V30 37202 C 3697.68 -2.16729 -0.844465 0
M  V30 37203 C 3698.67 -1.11732 -1.27328 0
M  V30 37204 O 3699.88 -1.3003 -1.24467 0
M  V30 37205 H 3696.25 -0.693646 -0.290447 0
M  V30 37206 H 3698.22 -2.96708 -0.317327 0
M  V30 37207 C 3696.97 -2.7836 -2.08354 0
M  V30 37208 H 3696.29 -3.58853 -1.76251 0
M  V30 37209 H 3697.73 -3.23597 -2.73972 0
M  V30 37210 C 3696.19 -1.75591 -2.87523 0
M  V30 37211 O 3696.72 -1.21107 -3.83009 0
M  V30 37212 N 3694.93 -1.45464 -2.51572 0
M  V30 37213 H 3694.48 -1.89961 -1.7399 0
M  V30 37214 H 3694.43 -0.769464 -3.04839 0
M  V30 37215 N 3698.21 0.151829 -1.56867 0
M  V30 37216 C 3699.45 0.866534 -1.83355 0
M  V30 37217 C 3699.79 1.81036 -0.702816 0
M  V30 37218 O 3699.06 1.92267 0.29391 0
M  V30 37219 C 3699.34 1.64524 -3.20319 0
M  V30 37220 C 3699.2 0.723219 -4.43948 0
M  V30 37221 C 3700.52 2.60876 -3.54446 0
M  V30 37222 H 3697.63 0.313576 -0.666963 0
M  V30 37223 H 3700.28 0.131921 -1.89541 0
M  V30 37224 H 3698.43 2.27149 -3.15176 0
M  V30 37225 H 3700.1 0.108339 -4.61173 0
M  V30 37226 H 3698.34 0.0324819 -4.33788 0
M  V30 37227 H 3699.01 1.30401 -5.36376 0
M  V30 37228 H 3701.49 2.0837 -3.60168 0
M  V30 37229 H 3700.36 3.12414 -4.51319 0
M  V30 37230 H 3700.63 3.42004 -2.80152 0
M  V30 37231 N 3699.68 1.51872 0.421024 0
M  V30 37232 C 3700.65 1.73752 1.49475 0
M  V30 37233 C 3701.65 0.607422 1.48886 0
M  V30 37234 O 3702.84 0.87517 1.5062 0
M  V30 37235 C 3699.97 1.80898 2.88944 0
M  V30 37236 H 3701.16 2.69595 1.31372 0
M  V30 37237 H 3698.72 1.42108 0.650761 0
M  V30 37238 H 3699.45 0.869275 3.12433 0
M  V30 37239 H 3699.24 2.63043 2.90776 0
M  V30 37240 H 3700.73 1.99609 3.66805 0
M  V30 37241 N 3701.16 -0.677513 1.42294 0
M  V30 37242 C 3702.13 -1.77291 1.45261 0
M  V30 37243 C 3703.13 -1.57152 0.340582 0
M  V30 37244 O 3704.32 -1.63494 0.601288 0
M  V30 37245 C 3701.45 -3.15892 1.28161 0
M  V30 37246 H 3702.64 -1.76048 2.4279 0
M  V30 37247 H 3700.19 -0.886885 1.28701 0
M  V30 37248 H 3700.93 -3.22762 0.315437 0
M  V30 37249 H 3700.71 -3.31912 2.0875 0
M  V30 37250 H 3702.2 -3.95816 1.33114 0
M  V30 37251 N 3702.64 -1.28421 -0.913554 0
M  V30 37252 C 3703.57 -1.14901 -2.03273 0
M  V30 37253 C 3704.55 -0.0467333 -1.70036 0
M  V30 37254 O 3705.74 -0.223759 -1.92907 0
M  V30 37255 C 3702.87 -0.810276 -3.37716 0
M  V30 37256 C 3701.82 -1.86734 -3.85116 0
M  V30 37257 C 3701.15 -1.38224 -5.16525 0
M  V30 37258 C 3702.45 -3.27393 -4.06953 0
M  V30 37259 H 3704.14 -2.08525 -2.14843 0
M  V30 37260 H 3701.69 -1.00396 -1.03231 0
M  V30 37261 H 3703.64 -0.702455 -4.15504 0
M  V30 37262 H 3702.36 0.161674 -3.262 0
M  V30 37263 H 3701.02 -1.96431 -3.09532 0
M  V30 37264 H 3700.67 -0.399351 -5.01412 0
M  V30 37265 H 3700.37 -2.08907 -5.4921 0
M  V30 37266 H 3701.89 -1.28765 -5.96868 0
M  V30 37267 H 3703.31 -3.20616 -4.75266 0
M  V30 37268 H 3701.71 -3.95912 -4.5097 0
M  V30 37269 H 3702.78 -3.71397 -3.11757 0
M  V30 37270 N 3704.12 1.12202 -1.10672 0
M  V30 37271 C 3705.37 1.83403 -0.848982 0
M  V30 37272 C 3705.69 1.84638 0.627208 0
M  V30 37273 O 3704.96 1.31125 1.45544 0
M  V30 37274 H 3703.54 0.679143 -0.311086 0
M  V30 37275 H 3706.2 1.35853 -1.39749 0
M  V30 37276 H 3705.3 2.8752 -1.21403 0
M  V30 37277 N 3705.6 0.895838 1.29663 0
M  V30 37278 C 3706.54 0.369051 2.2783 0
M  V30 37279 C 3707.51 -0.546729 1.56844 0
M  V30 37280 O 3708.7 -0.472804 1.84849 0
M  V30 37281 C 3705.84 -0.400824 3.42764 0
M  V30 37282 C 3704.95 0.54541 4.28543 0
M  V30 37283 C 3704.09 -0.241134 5.30652 0
M  V30 37284 C 3703.13 0.699872 6.08086 0
M  V30 37285 N 3702.26 -0.0520243 7.02081 0
M  V30 37286 H 3707.1 1.21129 2.72272 0
M  V30 37287 H 3704.64 0.608654 1.33917 0
M  V30 37288 H 3706.6 -0.863205 4.08172 0
M  V30 37289 H 3705.23 -1.20755 2.99363 0
M  V30 37290 H 3704.28 1.1263 3.63344 0
M  V30 37291 H 3705.59 1.26587 4.8247 0
M  V30 37292 H 3704.75 -0.764888 6.01859 0
M  V30 37293 H 3703.48 -0.994754 4.77447 0
M  V30 37294 H 3702.49 1.23516 5.35746 0
M  V30 37295 H 3703.71 1.45276 6.63379 0
M  V30 37296 H 3701.66 -0.787981 6.5125 0
M  V30 37297 H 3701.58 0.608602 7.53546 0
M  V30 37298 H 3702.85 -0.556167 7.77513 0
M  V30 37299 N 3707.07 -1.43211 0.657914 0
M  V30 37300 C 3708.01 -2.29094 -0.0695597 0
M  V30 37301 C 3709.02 -1.42765 -0.782438 0
M  V30 37302 O 3710.21 -1.66655 -0.639411 0
M  V30 37303 C 3707.31 -3.19798 -1.12173 0
M  V30 37304 C 3706.48 -4.34691 -0.486054 0
M  V30 37305 C 3705.54 -5.06234 -1.43573 0
M  V30 37306 O 3704.57 -5.61342 -0.942523 0
M  V30 37307 N 3705.77 -5.10171 -2.76957 0
M  V30 37308 H 3708.53 -2.92169 0.667617 0
M  V30 37309 H 3706.09 -1.53952 0.501049 0
M  V30 37310 H 3708.09 -3.64525 -1.75795 0
M  V30 37311 H 3706.66 -2.5829 -1.76082 0
M  V30 37312 H 3705.88 -3.92822 0.32935 0
M  V30 37313 H 3707.16 -5.08782 -0.0425024 0
M  V30 37314 H 3706.56 -4.66779 -3.19583 0
M  V30 37315 H 3705.12 -5.586 -3.3587 0
M  V30 37316 N 3708.55 -0.400135 -1.52436 0
M  V30 37317 C 3709.48 0.464999 -2.24434 0
M  V30 37318 C 3710.5 1.01771 -1.27069 0
M  V30 37319 O 3711.69 0.918188 -1.53074 0
M  V30 37320 C 3708.79 1.65827 -2.95558 0
M  V30 37321 C 3707.96 1.23103 -4.19719 0
M  V30 37322 C 3707.02 2.2902 -4.73747 0
M  V30 37323 O 3706.04 1.8998 -5.3656 0
M  V30 37324 N 3707.25 3.61072 -4.5454 0
M  V30 37325 H 3710.01 -0.151891 -2.99315 0
M  V30 37326 H 3707.57 -0.227047 -1.603 0
M  V30 37327 H 3709.56 2.3623 -3.28599 0
M  V30 37328 H 3708.13 2.18127 -2.23918 0
M  V30 37329 H 3707.35 0.355468 -3.92594 0
M  V30 37330 H 3708.64 0.922399 -5.00369 0
M  V30 37331 H 3708.04 3.95545 -4.04426 0
M  V30 37332 H 3706.6 4.27478 -4.92043 0
M  V30 37333 N 3710.03 1.57061 -0.13028 0
M  V30 37334 C 3711.44 1.82511 0.393285 0
M  V30 37335 C 3711.79 1.04809 1.6586 0
M  V30 37336 O 3710.92 0.288156 2.14473 0
M  V30 37337 C 3711.51 3.31054 0.720308 0
M  V30 37338 C 3710.07 3.57145 1.18846 0
M  V30 37339 C 3709.22 2.76557 0.202915 0
M  V30 37340 H 3712.17 1.54673 -0.355244 0
M  V30 37341 H 3712.19 3.46298 1.57664 0
M  V30 37342 H 3711.7 3.8758 -0.200787 0
M  V30 37343 H 3709.8 3.05989 2.12607 0
M  V30 37344 H 3709.92 4.6568 1.12599 0
M  V30 37345 H 3708.28 2.45113 0.692221 0
M  V30 37346 H 3709.06 3.35847 -0.711476 0
M  V30 37347 N 3711.51 -0.143508 1.56945 0
M  V30 37348 C 3712.42 -1.19646 2.01797 0
M  V30 37349 C 3713.44 -1.46808 0.933991 0
M  V30 37350 O 3714.61 -1.58409 1.24373 0
M  V30 37351 C 3711.68 -2.50915 2.39254 0
M  V30 37352 C 3710.74 -2.31369 3.61617 0
M  V30 37353 C 3709.97 -3.56379 3.97278 0
M  V30 37354 O 3710.19 -4.62703 3.3356 0
M  V30 37355 O 3709.13 -3.48835 4.90508 0
M  V30 37356 H 3712.95 -0.845666 2.91688 0
M  V30 37357 H 3710.54 -0.352493 1.45182 0
M  V30 37358 H 3712.42 -3.28301 2.6419 0
M  V30 37359 H 3711.1 -2.85518 1.52516 0
M  V30 37360 H 3710 -1.51923 3.41863 0
M  V30 37361 H 3711.34 -2.01681 4.48983 0
M  V30 37362 N 3712.99 -1.52093 -0.412964 0
M  V30 37363 C 3713.94 -1.75768 -1.52343 0
M  V30 37364 C 3714.93 -0.624669 -1.57462 0
M  V30 37365 O 3716.14 -0.806627 -1.60915 0
M  V30 37366 H 3712.51 -0.55577 -0.50658 0
M  V30 37367 H 3714.48 -2.68806 -1.29559 0
M  V30 37368 C 3713.23 -1.92193 -2.89753 0
M  V30 37369 H 3712.55 -2.78793 -2.86556 0
M  V30 37370 H 3713.99 -2.12759 -3.66755 0
M  V30 37371 C 3712.45 -0.688021 -3.298 0
M  V30 37372 O 3712.98 0.145913 -4.01435 0
M  V30 37373 N 3711.19 -0.525028 -2.85818 0
M  V30 37374 H 3710.74 -1.20475 -2.27692 0
M  V30 37375 H 3710.69 0.29927 -3.12972 0
M  V30 37376 N 3714.47 0.669957 -1.42651 0
M  V30 37377 C 3715.71 1.42577 -1.4267 0
M  V30 37378 C 3716.03 1.9554 -0.048356 0
M  V30 37379 O 3717.23 2.71399 0.074044 0
M  V30 37380 C 3715.69 2.57944 -2.50984 0
M  V30 37381 C 3715.3 2.11659 -3.94847 0
M  V30 37382 C 3717.04 3.35423 -2.60176 0
M  V30 37383 C 3714.95 3.24137 -4.94661 0
M  V30 37384 H 3713.88 0.535645 -0.530661 0
M  V30 37385 H 3716.53 0.724832 -1.68578 0
M  V30 37386 H 3714.91 3.30429 -2.1825 0
M  V30 37387 H 3716.09 1.46295 -4.3696 0
M  V30 37388 H 3714.4 1.47105 -3.8955 0
M  V30 37389 H 3717 4.19201 -3.31926 0
M  V30 37390 H 3717.34 3.82339 -1.6469 0
M  V30 37391 H 3717.87 2.7001 -2.92129 0
M  V30 37392 H 3714.61 2.82208 -5.91641 0
M  V30 37393 H 3714.13 3.88267 -4.57175 0
M  V30 37394 H 3715.81 3.89529 -5.166 0
M  V30 37395 N 3715.94 1.28904 0.90673 0
M  V30 37396 C 3717.17 1.19455 1.69545 0
M  V30 37397 C 3717.59 -0.242386 1.86532 0
M  V30 37398 O 3716.95 -1.17519 1.38054 0
M  V30 37399 C 3717 1.90561 3.06135 0
M  V30 37400 O 3716.1 1.21786 3.94007 0
M  V30 37401 H 3715.44 0.414299 0.518895 0
M  V30 37402 H 3717.97 1.70349 1.13324 0
M  V30 37403 H 3717.98 1.98742 3.56322 0
M  V30 37404 H 3716.66 2.95079 2.93089 0
M  V30 37405 H 3715.24 1.21816 3.52442 0
M  V30 37406 N 3717.42 -1.11614 1.11266 0
M  V30 37407 C 3718.37 -2.19682 0.764359 0
M  V30 37408 C 3719.36 -1.67643 -0.243367 0
M  V30 37409 O 3720.57 -1.79706 -0.102837 0
M  V30 37410 H 3716.94 -0.716192 0.229287 0
M  V30 37411 H 3718.92 -2.46308 1.68449 0
M  V30 37412 C 3717.66 -3.46992 0.221811 0
M  V30 37413 H 3716.99 -3.87387 0.98849 0
M  V30 37414 H 3718.43 -4.23997 0.0162691 0
M  V30 37415 C 3716.89 -3.20202 -1.0475 0
M  V30 37416 O 3717.42 -3.40734 -2.12752 0
M  V30 37417 N 3715.62 -2.73949 -0.96956 0
M  V30 37418 H 3715.17 -2.57441 -0.0905611 0
M  V30 37419 H 3715.13 -2.56401 -1.81951 0
M  V30 37420 N 3718.9 -0.902701 -1.29186 0
M  V30 37421 C 3720.31 -0.578238 -1.7752 0
M  V30 37422 C 3720.66 0.906196 -1.74019 0
M  V30 37423 O 3719.79 1.70863 -1.32796 0
M  V30 37424 C 3720.38 -1.04287 -3.2235 0
M  V30 37425 C 3718.94 -0.769519 -3.6845 0
M  V30 37426 C 3718.09 -1.21587 -2.49222 0
M  V30 37427 H 3721.04 -1.08512 -1.15806 0
M  V30 37428 H 3721.06 -0.379463 -3.78603 0
M  V30 37429 H 3720.57 -2.12329 -3.24866 0
M  V30 37430 H 3718.67 0.298158 -3.71405 0
M  V30 37431 H 3718.79 -1.36951 -4.59109 0
M  V30 37432 H 3717.15 -0.634809 -2.46662 0
M  V30 37433 H 3717.93 -2.3044 -2.54465 0
M  V30 37434 N 3720.38 1.4286 -0.6655 0
M  V30 37435 C 3721.31 2.335 0.0047874 0
M  V30 37436 C 3722.29 1.50161 0.799109 0
M  V30 37437 O 3723.47 1.78791 0.758129 0
M  V30 37438 C 3720.6 3.33674 0.963288 0
M  V30 37439 C 3719.56 4.27095 0.278219 0
M  V30 37440 C 3718.88 5.17403 1.34902 0
M  V30 37441 C 3720.18 5.1555 -0.837016 0
M  V30 37442 H 3721.88 2.89798 -0.752179 0
M  V30 37443 H 3719.42 1.39345 -0.363163 0
M  V30 37444 H 3721.38 3.95989 1.44121 0
M  V30 37445 H 3720.1 2.75659 1.75156 0
M  V30 37446 H 3718.76 3.66161 -0.179378 0
M  V30 37447 H 3718.41 4.5572 2.12904 0
M  V30 37448 H 3718.11 5.80731 0.895817 0
M  V30 37449 H 3719.63 5.82593 1.82806 0
M  V30 37450 H 3721.05 5.71604 -0.440718 0
M  V30 37451 H 3719.44 5.87662 -1.21544 0
M  V30 37452 H 3720.51 4.54505 -1.68978 0
M  V30 37453 N 3721.86 0.408213 1.52221 0
M  V30 37454 C 3723.09 -0.167151 2.05923 0
M  V30 37455 C 3723.49 -1.39488 1.27827 0
M  V30 37456 O 3722.84 -1.80836 0.323097 0
M  V30 37457 C 3722.9 -0.583372 3.54735 0
M  V30 37458 C 3722.56 0.533498 4.53875 0
M  V30 37459 C 3723.56 1.39679 5.00785 0
M  V30 37460 C 3721.24 0.705929 4.97315 0
M  V30 37461 C 3723.24 2.41746 5.89778 0
M  V30 37462 C 3720.93 1.72991 5.86103 0
M  V30 37463 C 3721.92 2.58409 6.32229 0
M  V30 37464 O 3721.61 3.59054 7.19261 0
M  V30 37465 H 3721.34 -0.0243267 0.675562 0
M  V30 37466 H 3723.9 0.577509 1.97114 0
M  V30 37467 H 3722.13 -1.3803 3.61226 0
M  V30 37468 H 3723.82 -1.08655 3.91087 0
M  V30 37469 H 3724.58 1.27497 4.67942 0
M  V30 37470 H 3720.46 0.0507368 4.60972 0
M  V30 37471 H 3724.01 3.08451 6.25703 0
M  V30 37472 H 3719.9 1.85204 6.1836 0
M  V30 37473 H 3720.67 3.55287 7.37369 0
M  V30 37474 N 3723.33 -1.56989 0.138607 0
M  V30 37475 C 3724.24 -2.19895 -0.817509 0
M  V30 37476 C 3725.26 -1.18077 -1.27804 0
M  V30 37477 O 3726.44 -1.50622 -1.33697 0
M  V30 37478 C 3723.5 -2.80156 -2.04239 0
M  V30 37479 C 3722.56 -3.97074 -1.6319 0
M  V30 37480 C 3721.79 -4.54451 -2.79839 0
M  V30 37481 O 3722.02 -4.1071 -3.9582 0
M  V30 37482 O 3720.95 -5.44842 -2.55794 0
M  V30 37483 H 3724.78 -3.02092 -0.31207 0
M  V30 37484 H 3722.36 -1.49141 -0.0880018 0
M  V30 37485 H 3724.24 -3.1849 -2.75939 0
M  V30 37486 H 3722.92 -2.00977 -2.53751 0
M  V30 37487 H 3721.83 -3.63472 -0.885385 0
M  V30 37488 H 3723.16 -4.77747 -1.18401 0
M  V30 37489 N 3724.81 0.135183 -1.57019 0
M  V30 37490 C 3726.04 0.864366 -1.8853 0
M  V30 37491 C 3726.46 1.73404 -0.728882 0
M  V30 37492 O 3725.82 1.78433 0.321164 0
M  V30 37493 C 3725.87 1.68715 -3.18697 0
M  V30 37494 O 3724.97 2.79256 -3.03463 0
M  V30 37495 H 3724.31 0.240039 -0.619094 0
M  V30 37496 H 3726.84 0.122444 -2.04233 0
M  V30 37497 H 3726.85 2.07973 -3.51014 0
M  V30 37498 H 3725.53 1.04861 -4.02464 0
M  V30 37499 H 3724.1 2.43318 -2.82579 0
M  V30 37500 N 3726.29 1.5231 0.404892 0
M  V30 37501 C 3727.52 1.70431 1.17306 0
M  V30 37502 C 3727.93 0.415649 1.84168 0
M  V30 37503 O 3727.29 -0.608663 1.72051 0
M  V30 37504 C 3727.34 2.84286 2.23301 0
M  V30 37505 O 3727.06 4.08163 1.59169 0
M  V30 37506 C 3728.56 3.13953 3.12967 0
M  V30 37507 H 3725.78 0.571051 0.352338 0
M  V30 37508 H 3728.33 1.98888 0.475816 0
M  V30 37509 H 3726.48 2.58337 2.88688 0
M  V30 37510 H 3726.9 4.71638 2.29473 0
M  V30 37511 H 3728.37 3.97122 3.83404 0
M  V30 37512 H 3728.85 2.27678 3.75578 0
M  V30 37513 H 3729.45 3.41683 2.53245 0
M  V30 37514 N 3727.77 -0.662382 1.43004 0
M  V30 37515 C 3729 -1.45032 1.47557 0
M  V30 37516 C 3729.41 -1.88582 0.0906414 0
M  V30 37517 O 3728.77 -1.58921 -0.897243 0
M  V30 37518 C 3728.82 -2.69133 2.4135 0
M  V30 37519 O 3728.54 -2.27407 3.74457 0
M  V30 37520 C 3730.04 -3.62579 2.55051 0
M  V30 37521 H 3727.26 -0.445851 0.501455 0
M  V30 37522 H 3729.81 -0.812846 1.87651 0
M  V30 37523 H 3727.96 -3.29041 2.04476 0
M  V30 37524 H 3728.37 -3.07635 4.24807 0
M  V30 37525 H 3729.85 -4.46347 3.24774 0
M  V30 37526 H 3730.33 -4.09315 1.59242 0
M  V30 37527 H 3730.93 -3.08557 2.92698 0
M  V30 37528 N 3729.25 -1.29383 -0.899882 0
M  V30 37529 C 3730.47 -1.20352 -1.68909 0
M  V30 37530 C 3730.9 0.23249 -1.86658 0
M  V30 37531 O 3730.25 1.16785 -1.38676 0
M  V30 37532 C 3730.3 -1.92182 -3.0512 0
M  V30 37533 O 3729.41 -1.23874 -3.93356 0
M  V30 37534 H 3728.75 -0.417045 -0.516691 0
M  V30 37535 H 3731.28 -1.70948 -1.12419 0
M  V30 37536 H 3731.29 -2.00629 -3.55263 0
M  V30 37537 H 3729.96 -2.96629 -2.9152 0
M  V30 37538 H 3728.54 -1.23684 -3.51791 0
M  V30 37539 N 3730.72 1.11022 -1.11856 0
M  V30 37540 C 3731.69 2.15372 -0.784071 0
M  V30 37541 C 3732.69 1.59568 0.198657 0
M  V30 37542 O 3733.88 1.7418 -0.0263735 0
M  V30 37543 C 3731.01 3.40505 -0.164047 0
M  V30 37544 H 3732.2 2.46474 -1.70853 0
M  V30 37545 H 3729.76 1.26282 -0.92101 0
M  V30 37546 H 3730.49 3.15016 0.770428 0
M  V30 37547 H 3730.28 3.82292 -0.871514 0
M  V30 37548 H 3731.77 4.17565 0.0537005 0
M  V30 37549 N 3732.2 0.90954 1.28706 0
M  V30 37550 C 3733.61 0.587644 1.77211 0
M  V30 37551 C 3733.96 -0.896955 1.74497 0
M  V30 37552 O 3733.09 -1.70156 1.33701 0
M  V30 37553 C 3733.68 1.05995 3.21793 0
M  V30 37554 C 3732.24 0.789048 3.68037 0
M  V30 37555 C 3731.39 1.22907 2.48574 0
M  V30 37556 H 3734.34 1.09124 1.15228 0
M  V30 37557 H 3734.36 0.399535 3.78397 0
M  V30 37558 H 3733.87 2.14049 3.23736 0
M  V30 37559 H 3731.98 -0.278457 3.71558 0
M  V30 37560 H 3732.09 1.39384 4.58377 0
M  V30 37561 H 3730.45 0.647881 2.46322 0
M  V30 37562 H 3731.24 2.31786 2.53239 0
M  V30 37563 N 3733.68 -1.42505 0.673067 0
M  V30 37564 C 3735.09 -1.84707 0.272082 0
M  V30 37565 C 3735.44 -1.5634 -1.18542 0
M  V30 37566 O 3734.57 -1.02235 -1.90728 0
M  V30 37567 C 3735.16 -3.35281 0.487036 0
M  V30 37568 C 3733.72 -3.76139 0.140188 0
M  V30 37569 C 3732.87 -2.66094 0.780323 0
M  V30 37570 H 3735.82 -1.32376 0.875352 0
M  V30 37571 H 3735.84 -3.79601 -0.261376 0
M  V30 37572 H 3735.35 -3.55895 1.5479 0
M  V30 37573 H 3733.45 -3.61132 -0.917303 0
M  V30 37574 H 3733.57 -4.75582 0.579501 0
M  V30 37575 H 3731.93 -2.53818 0.2118 0
M  V30 37576 H 3732.71 -2.89532 1.84461 0
M  V30 37577 N 3735.16 -0.41628 -1.52003 0
M  V30 37578 C 3736.07 0.412363 -2.30947 0
M  V30 37579 C 3737.08 1.04705 -1.38971 0
M  V30 37580 O 3738.26 1.047 -1.72046 0
M  V30 37581 C 3735.33 1.51018 -3.12081 0
M  V30 37582 C 3734.39 0.897818 -4.19807 0
M  V30 37583 C 3733.62 1.94332 -4.97062 0
M  V30 37584 O 3733.84 3.16253 -4.747 0
M  V30 37585 O 3732.78 1.54557 -5.81718 0
M  V30 37586 H 3736.6 -0.231527 -3.02816 0
M  V30 37587 H 3734.19 -0.179309 -1.4832 0
M  V30 37588 H 3736.07 2.14735 -3.62584 0
M  V30 37589 H 3734.74 2.13854 -2.42998 0
M  V30 37590 H 3733.65 0.22317 -3.73434 0
M  V30 37591 H 3734.98 0.313274 -4.91202 0
M  V30 37592 N 3736.64 1.56914 -0.146931 0
M  V30 37593 C 3738.05 1.82918 0.373906 0
M  V30 37594 C 3738.4 1.06562 1.64739 0
M  V30 37595 O 3737.52 0.310887 2.14155 0
M  V30 37596 C 3738.12 3.318 0.685155 0
M  V30 37597 C 3736.68 3.58385 1.15051 0
M  V30 37598 C 3735.82 2.76756 0.173572 0
M  V30 37599 H 3738.78 1.54287 -0.371629 0
M  V30 37600 H 3738.8 3.47951 1.53983 0
M  V30 37601 H 3738.31 3.87345 -0.241884 0
M  V30 37602 H 3736.41 3.08226 2.0935 0
M  V30 37603 H 3736.52 4.66849 1.07653 0
M  V30 37604 H 3734.89 2.45833 0.666184 0
M  V30 37605 H 3735.67 3.35073 -0.747057 0
M  V30 37606 N 3738.11 -0.126854 1.57089 0
M  V30 37607 C 3739.34 -0.854356 1.88986 0
M  V30 37608 C 3739.76 -1.73015 0.738068 0
M  V30 37609 O 3739.12 -1.78601 -0.311697 0
M  V30 37610 C 3739.17 -1.67022 3.19587 0
M  V30 37611 O 3738.27 -2.77643 3.0494 0
M  V30 37612 H 3737.62 -0.236753 0.620358 0
M  V30 37613 H 3740.15 -0.111611 2.04295 0
M  V30 37614 H 3740.16 -2.06109 3.52112 0
M  V30 37615 H 3738.83 -1.02725 4.03014 0
M  V30 37616 H 3737.41 -2.41816 2.83865 0
M  V30 37617 N 3739.59 -1.52523 -0.396809 0
M  V30 37618 C 3740.82 -1.70803 -1.16232 0
M  V30 37619 C 3741.23 -0.422624 -1.84419 0
M  V30 37620 O 3740.57 0.61214 -1.73201 0
M  V30 37621 C 3740.64 -2.79645 -2.25917 0
M  V30 37622 C 3740.3 -4.2101 -1.77763 0
M  V30 37623 C 3741.3 -5.04435 -1.25864 0
M  V30 37624 C 3738.98 -4.67298 -1.84223 0
M  V30 37625 C 3740.98 -6.32224 -0.810622 0
M  V30 37626 C 3738.66 -5.95074 -1.39032 0
M  V30 37627 C 3739.66 -6.77367 -0.875389 0
M  V30 37628 O 3739.35 -8.02749 -0.430056 0
M  V30 37629 H 3739.08 -0.575414 -0.354789 0
M  V30 37630 H 3741.63 -1.9992 -0.471309 0
M  V30 37631 H 3739.86 -2.45933 -2.98419 0
M  V30 37632 H 3741.55 -2.86405 -2.87623 0
M  V30 37633 H 3742.32 -4.6986 -1.20236 0
M  V30 37634 H 3738.2 -4.03339 -2.23246 0
M  V30 37635 H 3741.74 -6.96406 -0.408014 0
M  V30 37636 H 3737.64 -6.29154 -1.44343 0
M  V30 37637 H 3738.41 -8.16635 -0.552245 0
M  V30 37638 N 3741.07 0.654789 -1.43354 0
M  V30 37639 C 3742.35 1.41193 -1.35366 0
M  V30 37640 C 3742.73 2.111 -0.000698629 0
M  V30 37641 O 3742.08 2.0468 1.01579 0
M  V30 37642 C 3742.29 2.39792 -2.53576 0
M  V30 37643 C 3743.63 3.03839 -2.96593 0
M  V30 37644 O 3744.66 2.50119 -2.53612 0
M  V30 37645 O 3743.52 4.01232 -3.71046 0
M  V30 37646 H 3740.61 0.630746 -0.534872 0
M  V30 37647 H 3743.16 0.681829 -1.554 0
M  V30 37648 H 3741.93 1.87072 -3.43686 0
M  V30 37649 H 3741.55 3.20254 -2.35633 0
M  V30 37650 N 3742.55 1.29858 0.893007 0
M  V30 37651 C 3743.96 1.16433 1.45946 0
M  V30 37652 C 3744.31 -0.238016 1.94751 0
M  V30 37653 O 3743.44 -1.13407 1.84304 0
M  V30 37654 C 3744.03 2.10758 2.65267 0
M  V30 37655 C 3742.59 2.01336 3.18027 0
M  V30 37656 C 3741.74 2.01301 1.90718 0
M  V30 37657 H 3744.69 1.42245 0.703705 0
M  V30 37658 H 3744.71 1.68372 3.4122 0
M  V30 37659 H 3744.22 3.12814 2.29715 0
M  V30 37660 H 3742.32 1.02392 3.58255 0
M  V30 37661 H 3742.44 2.89329 3.81871 0
M  V30 37662 H 3740.8 1.4599 2.08708 0
M  V30 37663 H 3741.58 3.05073 1.57434 0
M  V30 37664 N 3744.03 -1.10427 1.12443 0
M  V30 37665 C 3745.27 -1.8239 0.879791 0
M  V30 37666 C 3745.6 -1.85196 -0.59437 0
M  V30 37667 O 3744.86 -1.30833 -1.45538 0
M  V30 37668 C 3745.16 -3.28846 1.39982 0
M  V30 37669 C 3744.82 -3.46187 2.88903 0
M  V30 37670 C 3743.48 -3.50628 3.29566 0
M  V30 37671 C 3745.84 -3.51575 3.84766 0
M  V30 37672 C 3743.16 -3.58023 4.64797 0
M  V30 37673 C 3745.52 -3.60502 5.19828 0
M  V30 37674 C 3744.18 -3.63207 5.60033 0
M  V30 37675 H 3743.45 -0.667411 0.321938 0
M  V30 37676 H 3746.1 -1.30162 1.40463 0
M  V30 37677 H 3744.4 -3.8364 0.795442 0
M  V30 37678 H 3746.1 -3.83037 1.18674 0
M  V30 37679 H 3742.69 -3.43408 2.56454 0
M  V30 37680 H 3746.87 -3.47394 3.54445 0
M  V30 37681 H 3742.13 -3.58399 4.95338 0
M  V30 37682 H 3746.3 -3.63615 5.93934 0
M  V30 37683 H 3743.93 -3.6869 6.6481 0
M  V30 37684 N 3745.51 -0.916353 -1.28221 0
M  V30 37685 C 3746.73 -0.566807 -1.98985 0
M  V30 37686 C 3747.15 0.852524 -1.68456 0
M  V30 37687 O 3746.51 1.56504 -0.938762 0
M  V30 37688 C 3746.56 -0.769485 -3.53215 0
M  V30 37689 O 3746.28 -2.13297 -3.8267 0
M  V30 37690 C 3747.78 -0.427121 -4.41238 0
M  V30 37691 H 3745 -0.215845 -0.635336 0
M  V30 37692 H 3747.54 -1.23027 -1.63354 0
M  V30 37693 H 3745.7 -0.152983 -3.87098 0
M  V30 37694 H 3746.11 -2.17456 -4.77298 0
M  V30 37695 H 3747.59 -0.619691 -5.48511 0
M  V30 37696 H 3748.06 0.636784 -4.34559 0
M  V30 37697 H 3748.67 -1.02127 -4.12856 0
M  V30 37698 N 3746.98 1.42146 -0.680615 0
M  V30 37699 C 3748.26 1.95141 -0.133991 0
M  V30 37700 C 3748.64 1.62076 1.35257 0
M  V30 37701 O 3747.99 0.919935 2.09164 0
M  V30 37702 C 3748.2 3.46591 -0.409327 0
M  V30 37703 C 3749.55 4.23324 -0.328974 0
M  V30 37704 O 3750.57 3.54541 -0.343399 0
M  V30 37705 O 3749.43 5.45802 -0.276172 0
M  V30 37706 H 3746.52 0.826976 -0.00624896 0
M  V30 37707 H 3749.07 1.51943 -0.755745 0
M  V30 37708 H 3747.84 3.63884 -1.43889 0
M  V30 37709 H 3747.46 3.9685 0.244147 0
M  V30 37710 N 3748.46 0.424336 1.5178 0
M  V30 37711 C 3749.69 -0.147932 2.06872 0
M  V30 37712 C 3750.11 -1.36806 1.29096 0
M  V30 37713 O 3749.47 -1.78358 0.32531 0
M  V30 37714 C 3749.52 -0.461694 3.57632 0
M  V30 37715 O 3748.62 -1.55029 3.82152 0
M  V30 37716 H 3747.96 -0.00756108 0.663957 0
M  V30 37717 H 3750.49 0.601922 1.95546 0
M  V30 37718 H 3750.5 -0.715935 4.01669 0
M  V30 37719 H 3749.18 0.430154 4.1367 0
M  V30 37720 H 3747.75 -1.28703 3.49986 0
M  V30 37721 N 3749.94 -1.56833 0.15525 0
M  V30 37722 C 3750.85 -2.2075 -0.79414 0
M  V30 37723 C 3751.87 -1.19426 -1.26544 0
M  V30 37724 O 3753.04 -1.52032 -1.32092 0
M  V30 37725 C 3750.11 -2.82306 -2.01256 0
M  V30 37726 C 3749.17 -3.98782 -1.58969 0
M  V30 37727 C 3748.4 -4.57393 -2.75003 0
M  V30 37728 O 3748.62 -4.14885 -3.91441 0
M  V30 37729 O 3747.56 -5.47524 -2.50001 0
M  V30 37730 H 3751.38 -3.02406 -0.280011 0
M  V30 37731 H 3748.97 -1.49226 -0.0721785 0
M  V30 37732 H 3750.85 -3.21398 -2.72545 0
M  V30 37733 H 3749.53 -2.03657 -2.51606 0
M  V30 37734 H 3748.43 -3.6439 -0.846784 0
M  V30 37735 H 3749.77 -4.78976 -1.13327 0
M  V30 37736 N 3751.42 0.118521 -1.57154 0
M  V30 37737 C 3752.33 1.1642 -2.03675 0
M  V30 37738 C 3753.34 1.45304 -0.957229 0
M  V30 37739 O 3754.52 1.5641 -1.26877 0
M  V30 37740 C 3751.58 2.47077 -2.43215 0
M  V30 37741 C 3750.65 2.25587 -3.65252 0
M  V30 37742 C 3749.88 3.50014 -4.02897 0
M  V30 37743 O 3750.1 4.57338 -3.40879 0
M  V30 37744 O 3749.04 3.40987 -4.95995 0
M  V30 37745 H 3752.86 0.799154 -2.92997 0
M  V30 37746 H 3750.45 0.329351 -1.45725 0
M  V30 37747 H 3752.33 3.24056 -2.6938 0
M  V30 37748 H 3751 2.83055 -1.57039 0
M  V30 37749 H 3749.91 1.46465 -3.44237 0
M  V30 37750 H 3751.24 1.94513 -4.52135 0
M  V30 37751 N 3752.9 1.52731 0.388715 0
M  V30 37752 C 3754.31 1.41988 0.728803 0
M  V30 37753 C 3754.51 0.540527 1.94115 0
M  V30 37754 O 3753.57 0.0140841 2.52496 0
M  V30 37755 C 3754.88 2.84841 0.963633 0
M  V30 37756 C 3756.43 2.94321 1.06509 0
M  V30 37757 C 3756.9 4.38186 1.33255 0
M  V30 37758 N 3758.39 4.41512 1.40076 0
M  V30 37759 C 3759.13 5.49911 1.62436 0
M  V30 37760 N 3758.63 6.68395 1.82265 0
M  V30 37761 N 3760.42 5.37455 1.64618 0
M  V30 37762 H 3752.57 2.08425 -0.409021 0
M  V30 37763 H 3754.83 0.940271 -0.120808 0
M  V30 37764 H 3754.54 3.51401 0.144924 0
M  V30 37765 H 3754.41 3.27113 1.87822 0
M  V30 37766 H 3756.8 2.27929 1.87436 0
M  V30 37767 H 3756.88 2.55478 0.128405 0
M  V30 37768 H 3756.52 5.05144 0.528368 0
M  V30 37769 H 3756.45 4.74583 2.28208 0
M  V30 37770 H 3758.95 3.56113 1.26459 0
M  V30 37771 H 3759.26 7.46783 1.98835 0
M  V30 37772 H 3757.6 6.71423 1.79489 0
M  V30 37773 H 3760.79 4.43861 1.48678 0
M  V30 37774 H 3760.97 6.22003 1.81704 0
M  V30 37775 N 3754.37 -0.647178 1.43699 0
M  V30 37776 C 3755.31 -1.7726 1.45299 0
M  V30 37777 C 3756.32 -1.5903 0.348338 0
M  V30 37778 O 3757.51 -1.67639 0.613136 0
M  V30 37779 C 3754.61 -3.1477 1.2559 0
M  V30 37780 C 3753.78 -3.59605 2.49005 0
M  V30 37781 C 3752.84 -4.75938 2.24431 0
M  V30 37782 O 3751.87 -4.85068 2.97821 0
M  V30 37783 N 3753.07 -5.66555 1.26475 0
M  V30 37784 H 3755.83 -1.76364 2.42314 0
M  V30 37785 H 3753.39 -0.831222 1.38933 0
M  V30 37786 H 3755.39 -3.90292 1.07023 0
M  V30 37787 H 3753.96 -3.10403 0.369981 0
M  V30 37788 H 3753.18 -2.74462 2.82956 0
M  V30 37789 H 3754.46 -3.86307 3.31126 0
M  V30 37790 H 3753.86 -5.61857 0.658305 0
M  V30 37791 H 3752.42 -6.41773 1.13891 0
M  V30 37792 N 3755.85 -1.3033 -0.886108 0
M  V30 37793 C 3756.78 -1.19187 -2.0079 0
M  V30 37794 C 3757.76 -0.0827899 -1.69898 0
M  V30 37795 O 3758.95 -0.264627 -1.92389 0
M  V30 37796 C 3756.08 -0.881728 -3.35921 0
M  V30 37797 C 3755.03 -1.94861 -3.81068 0
M  V30 37798 C 3754.36 -1.49149 -5.13477 0
M  V30 37799 C 3755.66 -3.35952 -3.99917 0
M  V30 37800 H 3757.35 -2.13036 -2.10371 0
M  V30 37801 H 3754.9 -1.02563 -1.01078 0
M  V30 37802 H 3756.85 -0.790432 -4.1392 0
M  V30 37803 H 3755.58 0.0924463 -3.26469 0
M  V30 37804 H 3754.23 -2.02953 -3.05296 0
M  V30 37805 H 3753.88 -0.505618 -5.00452 0
M  V30 37806 H 3753.58 -2.2051 -5.44655 0
M  V30 37807 H 3755.11 -1.41396 -5.94003 0
M  V30 37808 H 3756.52 -3.30625 -4.68359 0
M  V30 37809 H 3754.92 -4.05389 -4.4247 0
M  V30 37810 H 3755.99 -3.77926 -3.03809 0
M  V30 37811 N 3757.33 1.0983 -1.13028 0
M  V30 37812 C 3758.24 2.19911 -0.81709 0
M  V30 37813 C 3759.26 1.72885 0.196639 0
M  V30 37814 O 3760.43 2.0138 0.0287048 0
M  V30 37815 C 3757.5 3.45542 -0.283101 0
M  V30 37816 C 3756.56 4.0727 -1.35755 0
M  V30 37817 C 3755.79 5.26905 -0.848948 0
M  V30 37818 O 3756.01 5.6953 0.315004 0
M  V30 37819 O 3754.95 5.79651 -1.62138 0
M  V30 37820 H 3758.77 2.49145 -1.73668 0
M  V30 37821 H 3756.36 1.18686 -0.907412 0
M  V30 37822 H 3758.24 4.21399 0.00949469 0
M  V30 37823 H 3756.92 3.1792 0.608962 0
M  V30 37824 H 3755.82 3.33069 -1.7034 0
M  V30 37825 H 3757.16 4.39109 -2.22361 0
M  V30 37826 N 3758.81 0.92314 1.27734 0
M  V30 37827 C 3760.06 0.560075 1.94184 0
M  V30 37828 C 3760.38 -0.90081 1.72946 0
M  V30 37829 O 3759.65 -1.63799 1.07456 0
M  V30 37830 H 3758.23 0.204142 0.718565 0
M  V30 37831 H 3760.89 1.17454 1.55533 0
M  V30 37832 H 3759.99 0.762477 3.02643 0
M  V30 37833 N 3760.29 -1.41783 0.688143 0
M  V30 37834 C 3761.23 -2.32599 0.00665124 0
M  V30 37835 C 3762.23 -1.50558 -0.776449 0
M  V30 37836 O 3763.43 -1.66542 -0.682908 0
M  V30 37837 H 3759.81 -0.751816 -0.0166483 0
M  V30 37838 H 3761.78 -2.87759 0.789769 0
M  V30 37839 C 3760.53 -3.35275 -0.921192 0
M  V30 37840 H 3759.85 -3.98452 -0.328028 0
M  V30 37841 H 3761.29 -4.01377 -1.36648 0
M  V30 37842 C 3759.75 -2.68579 -2.03388 0
M  V30 37843 O 3760.28 -2.52791 -3.12185 0
M  V30 37844 N 3758.49 -2.27392 -1.80946 0
M  V30 37845 H 3758.03 -2.40433 -0.92465 0
M  V30 37846 H 3757.99 -1.83101 -2.55581 0
M  V30 37847 N 3761.76 -0.432379 -1.51553 0
M  V30 37848 C 3763.04 0.195438 -1.94621 0
M  V30 37849 C 3763.42 1.60542 -1.37075 0
M  V30 37850 O 3762.77 2.21637 -0.55582 0
M  V30 37851 C 3762.98 0.178206 -3.48545 0
M  V30 37852 C 3764.33 0.386209 -4.2284 0
M  V30 37853 O 3765.35 0.256541 -3.55275 0
M  V30 37854 O 3764.21 0.643831 -5.42694 0
M  V30 37855 H 3761.3 0.132641 -0.816294 0
M  V30 37856 H 3763.85 -0.49 -1.62472 0
M  V30 37857 H 3762.62 -0.807726 -3.82873 0
M  V30 37858 H 3762.25 0.906764 -3.87122 0
M  V30 37859 N 3763.24 1.56749 -0.163565 0
M  V30 37860 C 3764.65 1.83304 0.354484 0
M  V30 37861 C 3765 1.08304 1.63599 0
M  V30 37862 O 3764.13 0.333584 2.13813 0
M  V30 37863 C 3764.72 3.32508 0.649925 0
M  V30 37864 C 3763.28 3.59586 1.11244 0
M  V30 37865 C 3762.43 2.76925 0.144208 0
M  V30 37866 H 3765.38 1.53885 -0.387973 0
M  V30 37867 H 3765.4 3.49564 1.50284 0
M  V30 37868 H 3764.91 3.87067 -0.282954 0
M  V30 37869 H 3763.02 3.10429 2.06069 0
M  V30 37870 H 3763.13 4.67964 1.02696 0
M  V30 37871 H 3761.49 2.46526 0.640073 0
M  V30 37872 H 3762.28 3.34262 -0.782554 0
M  V30 37873 N 3764.72 -0.110185 1.57214 0
M  V30 37874 C 3765.65 -1.13576 2.04017 0
M  V30 37875 C 3766.63 -1.4267 0.92624 0
M  V30 37876 O 3767.82 -1.5296 1.19653 0
M  V30 37877 C 3764.95 -2.45964 2.45192 0
M  V30 37878 C 3763.9 -2.31312 3.60109 0
M  V30 37879 C 3763.23 -3.68743 3.87212 0
M  V30 37880 C 3764.53 -1.76626 4.91529 0
M  V30 37881 H 3766.22 -0.746445 2.89946 0
M  V30 37882 H 3763.77 -0.357617 1.39489 0
M  V30 37883 H 3765.72 -3.17968 2.7654 0
M  V30 37884 H 3764.44 -2.86802 1.56243 0
M  V30 37885 H 3763.1 -1.61756 3.28984 0
M  V30 37886 H 3762.75 -4.07081 2.95455 0
M  V30 37887 H 3762.45 -3.5979 4.6457 0
M  V30 37888 H 3763.97 -4.42238 4.2102 0
M  V30 37889 H 3765.39 -2.38456 5.21356 0
M  V30 37890 H 3763.79 -1.78472 5.72947 0
M  V30 37891 H 3764.86 -0.724489 4.79457 0
M  V30 37892 N 3766.2 -1.52935 -0.38061 0
M  V30 37893 C 3767.61 -1.42373 -0.721262 0
M  V30 37894 C 3767.81 -0.550814 -1.93825 0
M  V30 37895 O 3766.87 -0.0274744 -2.52485 0
M  V30 37896 C 3768.18 -2.85348 -0.948513 0
M  V30 37897 C 3769.73 -2.94882 -1.04946 0
M  V30 37898 C 3770.21 -4.38887 -1.30929 0
M  V30 37899 N 3771.7 -4.42249 -1.37732 0
M  V30 37900 C 3772.43 -5.50765 -1.59517 0
M  V30 37901 N 3771.93 -6.69352 -1.78718 0
M  V30 37902 N 3773.72 -5.3832 -1.61765 0
M  V30 37903 H 3765.87 -2.08205 0.420068 0
M  V30 37904 H 3768.14 -0.939617 0.125792 0
M  V30 37905 H 3767.84 -3.51473 -0.126287 0
M  V30 37906 H 3767.72 -3.28104 -1.86084 0
M  V30 37907 H 3770.1 -2.2892 -1.86225 0
M  V30 37908 H 3770.18 -2.55542 -0.114854 0
M  V30 37909 H 3769.83 -5.05417 -0.501571 0
M  V30 37910 H 3769.76 -4.75786 -2.25688 0
M  V30 37911 H 3772.25 -3.56779 -1.24568 0
M  V30 37912 H 3772.56 -7.47827 -1.94872 0
M  V30 37913 H 3770.91 -6.72365 -1.75926 0
M  V30 37914 H 3774.1 -4.44643 -1.46322 0
M  V30 37915 H 3774.27 -6.22958 -1.78403 0
M  V30 37916 N 3767.68 0.639548 -1.4404 0
M  V30 37917 C 3768.9 1.42667 -1.49846 0
M  V30 37918 C 3769.32 1.88414 -0.120632 0
M  V30 37919 O 3768.68 1.60328 0.871847 0
M  V30 37920 C 3768.73 2.65259 -2.45601 0
M  V30 37921 O 3768.45 2.21421 -3.78027 0
M  V30 37922 C 3769.95 3.58476 -2.60787 0
M  V30 37923 H 3767.17 0.437817 -0.508485 0
M  V30 37924 H 3769.71 0.782889 -1.88921 0
M  V30 37925 H 3767.87 3.25747 -2.09685 0
M  V30 37926 H 3768.28 3.00838 -4.29647 0
M  V30 37927 H 3769.76 4.41124 -3.31834 0
M  V30 37928 H 3770.23 4.0673 -1.65734 0
M  V30 37929 H 3770.84 3.03862 -2.9757 0
M  V30 37930 N 3769.15 1.30798 0.879184 0
M  V30 37931 C 3770.08 1.2025 2.00156 0
M  V30 37932 C 3771.07 0.0917989 1.69852 0
M  V30 37933 O 3772.25 0.274826 1.92246 0
M  V30 37934 C 3769.38 0.899531 3.35449 0
M  V30 37935 C 3768.33 1.96879 3.8003 0
M  V30 37936 C 3767.66 1.5187 5.12679 0
M  V30 37937 C 3768.96 3.38068 3.9813 0
M  V30 37938 H 3770.65 2.14148 2.09239 0
M  V30 37939 H 3768.2 1.03098 1.00533 0
M  V30 37940 H 3770.15 0.812372 4.13495 0
M  V30 37941 H 3768.88 -0.0751316 3.26514 0
M  V30 37942 H 3767.54 2.04569 3.04216 0
M  V30 37943 H 3767.18 0.532151 5.00177 0
M  V30 37944 H 3766.88 2.23395 5.43478 0
M  V30 37945 H 3768.41 1.44544 5.93245 0
M  V30 37946 H 3769.82 3.33105 4.66599 0
M  V30 37947 H 3768.22 4.0773 4.40314 0
M  V30 37948 H 3769.29 3.79532 3.01801 0
M  V30 37949 O 3770.67 -1.01551 1.25577 0
M  V30 37950 H 3771.36 -1.63411 1.04003 0
M  V30 END ATOM
M  V30 BEGIN BOND
M  V30 END BOND
M  V30 END CTAB
M  END
$$$$
