drugbank_target|Q8WWL2 Protein spire homolog 2 (DB08080)
 OpenBabel12092120483D

  0  0  0     0  0            999 V3000
M  V30 BEGIN CTAB
M  V30 COUNTS 11141 11257 0 0 0
M  V30 BEGIN ATOM
M  V30 1 H -0.908 1.98254 -0.117106 0
M  V30 2 N 0 1.576 0 0
M  V30 3 C 0.933 2.03868 1.02534 0
M  V30 4 C 1.911 0.928543 1.3348 0
M  V30 5 O 3.095 1.19667 1.45644 0
M  V30 6 C 0.222 2.43627 2.35294 0
M  V30 7 C -0.732 3.65373 2.2001 0
M  V30 8 S 0.101 5.13292 1.52614 0
M  V30 9 C 1.257 5.56322 2.86805 0
M  V30 10 H 1.49 2.90518 0.631377 0
M  V30 11 H -0.977 1.52953 0.210867 0
M  V30 12 H 0.981 2.67203 3.11629 0
M  V30 13 H -0.358 1.57376 2.7183 0
M  V30 14 H -1.165 3.90944 3.18086 0
M  V30 15 H -1.563 3.418 1.51819 0
M  V30 16 H 0.729 5.58782 3.83104 0
M  V30 17 H 1.672 6.56266 2.65933 0
M  V30 18 H 2.08 4.83886 2.90714 0
M  V30 19 N 1.4781 -0.272755 1.55222 0
M  V30 20 C 2.4411 -1.32041 1.87344 0
M  V30 21 C 3.4411 -1.42342 0.74803 0
M  V30 22 O 4.6311 -1.41488 1.0162 0
M  V30 23 C 1.7631 -2.70173 2.07893 0
M  V30 24 H 2.9561 -1.04789 2.80997 0
M  V30 25 H 0.5091 -0.51083 1.47717 0
M  V30 26 H 1.2441 -3.02605 1.16622 0
M  V30 27 H 1.0291 -2.64082 2.89833 0
M  V30 28 H 2.5191 -3.45869 2.34017 0
M  V30 29 N 2.9562 -1.48159 -0.537278 0
M  V30 30 C 4.3722 -1.34118 -0.865129 0
M  V30 31 C 4.5722 -0.346678 -1.98495 0
M  V30 32 O 3.6282 0.234715 -2.51407 0
M  V30 33 C 4.9412 -2.73963 -1.23954 0
M  V30 34 C 6.4892 -2.82397 -1.34984 0
M  V30 35 C 6.9642 -4.22928 -1.75772 0
M  V30 36 N 8.4552 -4.25566 -1.82887 0
M  V30 37 C 9.1902 -5.31235 -2.15817 0
M  V30 38 N 8.6862 -6.47189 -2.47222 0
M  V30 39 N 10.4792 -5.18624 -2.16761 0
M  V30 40 H 2.6302 -2.1144 0.201715 0
M  V30 41 H 4.8932 -0.947598 0.0275949 0
M  V30 42 H 4.5992 -3.48264 -0.490381 0
M  V30 43 H 4.4732 -3.0702 -2.19132 0
M  V30 44 H 6.8602 -2.08356 -2.08978 0
M  V30 45 H 6.9412 -2.5297 -0.379448 0
M  V30 46 H 6.5852 -4.97482 -1.02341 0
M  V30 47 H 6.5152 -4.49794 -2.73848 0
M  V30 48 H 9.0062 -3.41924 -1.60924 0
M  V30 49 H 9.3192 -7.23564 -2.71433 0
M  V30 50 H 7.6642 -6.50476 -2.44757 0
M  V30 51 H 10.8552 -4.27056 -1.91679 0
M  V30 52 H 11.0282 -6.01078 -2.42093 0
M  V30 53 N 4.4343 0.785586 -1.36625 0
M  V30 54 C 5.3973 1.87999 -1.31107 0
M  V30 55 C 6.3973 1.59316 -0.217959 0
M  V30 56 O 7.5873 1.67656 -0.472977 0
M  V30 57 C 4.7193 3.24861 -1.03334 0
M  V30 58 H 5.9123 1.94307 -2.2844 0
M  V30 59 H 3.4653 0.983813 -1.21453 0
M  V30 60 H 4.2003 3.24235 -0.0647432 0
M  V30 61 H 3.9853 3.4707 -1.82441 0
M  V30 62 H 5.4753 4.04929 -1.02088 0
M  V30 63 N 5.9124 1.20967 1.01018 0
M  V30 64 C 7.1604 1.02172 1.74371 0
M  V30 65 C 7.4814 -0.446414 1.89821 0
M  V30 66 O 6.7514 -1.32234 1.44537 0
M  V30 67 H 5.3314 0.375066 0.646014 0
M  V30 68 H 7.9934 1.52187 1.21758 0
M  V30 69 H 7.0894 1.48538 2.74487 0
M  V30 70 N 7.3905 -1.2043 1.01659 0
M  V30 71 C 8.6155 -1.94318 0.724942 0
M  V30 72 C 9.0405 -1.74266 -0.708034 0
M  V30 73 O 8.3985 -1.03694 -1.48719 0
M  V30 74 C 8.4465 -3.44486 1.06591 0
M  V30 75 O 7.5505 -4.12017 0.177599 0
M  V30 76 H 6.8915 -0.60708 0.26898 0
M  V30 77 H 9.4215 -1.52861 1.35995 0
M  V30 78 H 9.4315 -3.95106 1.01762 0
M  V30 79 H 8.1065 -3.58404 2.10997 0
M  V30 80 H 6.6835 -3.71821 0.283421 0
M  V30 81 N 8.8686 -0.792821 -1.36206 0
M  V30 82 C 10.1086 -0.372238 -2.00982 0
M  V30 83 C 10.4726 1.03749 -1.61555 0
M  V30 84 O 11.6736 1.55934 -2.18948 0
M  V30 85 C 9.9446 -0.534566 -3.5338 0
M  V30 86 S 11.5036 -0.202365 -4.38333 0
M  V30 87 H 8.3216 -0.142044 -0.696667 0
M  V30 88 H 10.9236 -1.03206 -1.66039 0
M  V30 89 H 9.6276 -1.5608 -3.79562 0
M  V30 90 H 9.1586 0.141065 -3.93147 0
M  V30 91 H 11.1736 0.994869 -4.86124 0
M  V30 92 N 10.3467 1.47872 -0.545128 0
M  V30 93 C 11.5947 2.02093 -0.016553 0
M  V30 94 C 11.9157 1.42305 1.3332 0
M  V30 95 O 11.1857 0.593853 1.86682 0
M  V30 96 H 9.7657 0.746993 -0.00313038 0
M  V30 97 H 12.4277 1.81414 -0.712397 0
M  V30 98 H 11.5237 3.11996 0.0805422 0
M  V30 99 N 11.8248 0.280983 1.55075 0
M  V30 100 C 13.0728 -0.333455 1.9933 0
M  V30 101 C 13.3938 -1.55937 1.17085 0
M  V30 102 O 12.6638 -1.94143 0.261805 0
M  V30 103 H 11.2438 -0.126197 0.736263 0
M  V30 104 H 13.9058 0.387678 1.91005 0
M  V30 105 H 13.0018 -0.619292 3.05894 0
M  V30 106 N 13.3029 -1.57598 0.00835791 0
M  V30 107 C 14.2659 -2.07884 -0.965242 0
M  V30 108 C 15.2659 -0.989825 -1.26725 0
M  V30 109 O 16.4559 -1.25218 -1.21104 0
M  V30 110 C 13.5879 -2.52731 -2.28779 0
M  V30 111 H 14.7809 -2.95178 -0.530112 0
M  V30 112 H 12.3339 -1.54458 -0.239283 0
M  V30 113 H 13.0689 -1.68705 -2.76964 0
M  V30 114 H 12.8539 -3.32272 -2.08177 0
M  V30 115 H 14.3439 -2.91933 -2.98605 0
M  V30 116 N 14.781 0.264519 -1.55364 0
M  V30 117 C 15.744 1.31046 -1.88042 0
M  V30 118 C 16.744 1.41943 -0.755569 0
M  V30 119 O 17.934 1.40947 -1.02369 0
M  V30 120 C 15.066 2.69067 -2.09323 0
M  V30 121 H 16.259 1.03297 -2.81549 0
M  V30 122 H 13.812 0.502989 -1.47986 0
M  V30 123 H 14.547 3.01982 -1.18226 0
M  V30 124 H 14.332 2.62542 -2.91229 0
M  V30 125 H 15.822 3.44623 -2.35848 0
M  V30 126 N 16.2591 1.48442 0.529413 0
M  V30 127 C 17.2221 1.62524 1.61612 0
M  V30 128 C 18.2221 0.498509 1.52877 0
M  V30 129 O 19.4121 0.76431 1.56537 0
M  V30 130 C 16.5441 1.59597 3.01233 0
M  V30 131 H 17.7371 2.59423 1.50465 0
M  V30 132 H 15.2901 1.37047 0.751514 0
M  V30 133 H 16.0251 0.641781 3.17886 0
M  V30 134 H 15.8101 2.41397 3.08982 0
M  V30 135 H 17.3001 1.72646 3.80241 0
M  V30 136 N 17.7372 -0.778329 1.37039 0
M  V30 137 C 18.9852 -1.53361 1.31623 0
M  V30 138 C 19.3062 -1.94739 -0.100831 0
M  V30 139 O 18.5762 -1.65797 -1.04347 0
M  V30 140 H 17.1562 -0.568794 0.484234 0
M  V30 141 H 19.8182 -0.926742 1.71457 0
M  V30 142 H 18.9142 -2.43606 1.95096 0
M  V30 143 N 19.2153 -1.21501 -1.00376 0
M  V30 144 C 20.1783 -0.976927 -2.07337 0
M  V30 145 C 21.1783 0.0525322 -1.60714 0
M  V30 146 O 22.3683 -0.184869 -1.73216 0
M  V30 147 C 19.5003 -0.473423 -3.37597 0
M  V30 148 H 20.6933 -1.92587 -2.29892 0
M  V30 149 H 18.2463 -1.03217 -1.17371 0
M  V30 150 H 18.9813 0.480379 -3.20722 0
M  V30 151 H 18.7663 -1.216 -3.72768 0
M  V30 152 H 20.2563 -0.32675 -4.1632 0
M  V30 153 N 20.6934 1.19889 -1.02296 0
M  V30 154 C 21.9414 1.89046 -0.714558 0
M  V30 155 C 22.2624 1.79636 0.758681 0
M  V30 156 O 21.5324 1.20292 1.54618 0
M  V30 157 H 20.1124 0.699802 -0.261317 0
M  V30 158 H 22.7744 1.45574 -1.29592 0
M  V30 159 H 21.8704 2.95524 -1.0036 0
M  V30 160 N 22.1715 0.800033 1.35784 0
M  V30 161 C 23.5875 0.482977 1.52117 0
M  V30 162 C 23.7875 -0.996948 1.75109 0
M  V30 163 O 22.8435 -1.78216 1.78872 0
M  V30 164 C 24.1565 1.32264 2.70049 0
M  V30 165 C 25.7045 1.31742 2.83924 0
M  V30 166 C 26.1795 2.14106 4.04874 0
M  V30 167 N 27.6705 2.11607 4.12039 0
M  V30 168 C 28.4055 2.72099 5.04727 0
M  V30 169 N 27.9015 3.41492 6.02789 0
M  V30 170 N 29.6945 2.61776 4.97423 0
M  V30 171 H 21.8455 1.75856 1.19115 0
M  V30 172 H 24.1085 0.748122 0.582252 0
M  V30 173 H 23.8145 2.37261 2.59616 0
M  V30 174 H 23.6885 0.971303 3.6448 0
M  V30 175 H 26.0755 0.275333 2.93813 0
M  V30 176 H 26.1565 1.70859 1.9037 0
M  V30 177 H 25.8005 3.18351 3.95746 0
M  V30 178 H 25.7305 1.72353 4.97596 0
M  V30 179 H 28.2215 1.61112 3.41835 0
M  V30 180 H 28.5345 3.84953 6.70098 0
M  V30 181 H 26.8795 3.45596 6.02983 0
M  V30 182 H 30.0705 2.07157 4.19766 0
M  V30 183 H 30.2435 3.0921 5.69468 0
M  V30 184 N 23.6496 -1.47581 0.552962 0
M  V30 185 C 25.0606 -1.86324 0.118463 0
M  V30 186 C 25.4116 -1.46006 -1.3106 0
M  V30 187 O 24.5366 -0.861182 -1.98526 0
M  V30 188 C 25.1316 -3.3816 0.20821 0
M  V30 189 C 23.6906 -3.7601 -0.171226 0
M  V30 190 C 22.8376 -2.71634 0.557686 0
M  V30 191 H 25.7886 -1.39159 0.762928 0
M  V30 192 H 25.8096 -3.76141 -0.574278 0
M  V30 193 H 25.3216 -3.67473 1.24841 0
M  V30 194 H 23.4226 -3.52313 -1.21269 0
M  V30 195 H 23.5356 -4.78745 0.184379 0
M  V30 196 H 21.8996 -2.547 0.00125792 0
M  V30 197 H 22.6826 -3.0379 1.59896 0
M  V30 198 N 25.1277 -0.289203 -1.54924 0
M  V30 199 C 26.0377 0.601863 -2.26748 0
M  V30 200 C 27.0537 1.15834 -1.2984 0
M  V30 201 O 28.2297 1.18564 -1.62802 0
M  V30 202 C 25.2947 1.76299 -2.98529 0
M  V30 203 C 24.3557 1.24178 -4.10948 0
M  V30 204 C 23.5887 2.34757 -4.79296 0
M  V30 205 O 23.8117 3.54411 -4.46933 0
M  V30 206 O 22.7457 2.02115 -5.66951 0
M  V30 207 H 26.5717 0.0195879 -3.03694 0
M  V30 208 H 24.1567 -0.0560868 -1.49295 0
M  V30 209 H 26.0387 2.43973 -3.43592 0
M  V30 210 H 24.7137 2.33209 -2.24488 0
M  V30 211 H 23.6207 0.531104 -3.70311 0
M  V30 212 H 24.9537 0.718252 -4.86931 0
M  V30 213 N 26.6058 1.57591 -0.0167156 0
M  V30 214 C 28.0168 1.79201 0.523834 0
M  V30 215 C 28.3678 0.925796 1.72984 0
M  V30 216 O 27.4928 0.132792 2.15992 0
M  V30 217 C 28.0878 3.25 0.957091 0
M  V30 218 C 26.6468 3.47648 1.44283 0
M  V30 219 C 25.7938 2.74374 0.401757 0
M  V30 220 H 28.7448 1.56831 -0.242816 0
M  V30 221 H 28.7658 3.34031 1.82219 0
M  V30 222 H 28.2778 3.88019 0.0791415 0
M  V30 223 H 26.3788 2.89866 2.34113 0
M  V30 224 H 26.4918 4.56352 1.45877 0
M  V30 225 H 24.8558 2.39485 0.867121 0
M  V30 226 H 25.6388 3.40102 -0.467513 0
M  V30 227 N 28.0839 -0.256276 1.55502 0
M  V30 228 C 29.3299 -0.982884 1.78076 0
M  V30 229 C 29.6849 -1.83319 0.584109 0
M  V30 230 O 28.9779 -1.86875 -0.422877 0
M  V30 231 C 29.1719 -1.88432 3.03691 0
M  V30 232 C 29.0009 -1.12276 4.35459 0
M  V30 233 C 27.7709 -0.831647 4.98409 0
M  V30 234 C 29.9689 -0.504933 5.11815 0
M  V30 235 N 27.9509 -0.0450423 6.13883 0
M  V30 236 C 29.3219 0.146696 6.19826 0
M  V30 237 C 31.3769 -0.414455 4.96172 0
M  V30 238 C 30.0799 0.880103 7.13895 0
M  V30 239 C 32.1059 0.305398 5.90611 0
M  V30 240 C 31.4679 0.945701 6.98023 0
M  V30 241 H 27.5669 -0.341084 0.703694 0
M  V30 242 H 30.1509 -0.256909 1.92998 0
M  V30 243 H 28.3219 -2.58241 2.90114 0
M  V30 244 H 30.0539 -2.54579 3.14598 0
M  V30 245 H 26.8089 -1.14111 4.59647 0
M  V30 246 H 27.2329 0.336079 6.76165 0
M  V30 247 H 31.8749 -0.895163 4.13215 0
M  V30 248 H 29.5929 1.37244 7.9636 0
M  V30 249 H 33.1789 0.375946 5.80584 0
M  V30 250 H 32.0589 1.49383 7.6984 0
M  V30 251 N 29.562 -1.4872 -0.521534 0
M  V30 252 C 30.472 -1.66569 -1.65203 0
M  V30 253 C 31.488 -0.548197 -1.65139 0
M  V30 254 O 32.664 -0.820339 -1.83936 0
M  V30 255 C 29.729 -1.70917 -3.01642 0
M  V30 256 C 28.79 -2.94356 -3.12495 0
M  V30 257 C 28.023 -2.98487 -4.42426 0
M  V30 258 O 28.246 -2.10786 -5.30024 0
M  V30 259 O 27.18 -3.90746 -4.57822 0
M  V30 260 H 31.006 -2.62298 -1.5308 0
M  V30 261 H 28.591 -1.3222 -0.695565 0
M  V30 262 H 30.473 -1.7625 -3.82771 0
M  V30 263 H 29.148 -0.783633 -3.14071 0
M  V30 264 H 28.055 -2.94552 -2.3063 0
M  V30 265 H 29.388 -3.86322 -3.04986 0
M  V30 266 N 31.0401 0.771051 -1.3745 0
M  V30 267 C 31.9701 1.89827 -1.3597 0
M  V30 268 C 32.9511 1.68562 -0.228216 0
M  V30 269 O 34.1361 1.8941 -0.428675 0
M  V30 270 C 31.2661 3.2712 -1.16662 0
M  V30 271 C 30.2201 3.6295 -2.2683 0
M  V30 272 C 29.5461 4.98791 -1.92644 0
M  V30 273 C 30.8461 3.69627 -3.69017 0
M  V30 274 H 32.5401 1.91323 -2.30295 0
M  V30 275 H 30.0861 0.919082 -1.10855 0
M  V30 276 H 32.0391 4.05615 -1.14256 0
M  V30 277 H 30.7631 3.26059 -0.187926 0
M  V30 278 H 29.4221 2.86763 -2.28392 0
M  V30 279 H 29.0701 4.94271 -0.933021 0
M  V30 280 H 28.7701 5.23733 -2.66416 0
M  V30 281 H 30.2941 5.79685 -1.91826 0
M  V30 282 H 31.7081 4.38273 -3.69581 0
M  V30 283 H 30.1051 4.06067 -4.41848 0
M  V30 284 H 31.1751 2.70273 -4.02592 0
M  V30 285 N 32.5182 1.22032 0.997298 0
M  V30 286 C 33.7432 1.06921 1.77715 0
M  V30 287 C 34.1682 -0.376226 1.84299 0
M  V30 288 O 33.5262 -1.27165 1.29223 0
M  V30 289 C 33.5742 1.67996 3.19076 0
M  V30 290 O 32.6782 0.930653 4.01762 0
M  V30 291 H 32.0192 0.375814 0.547412 0
M  V30 292 H 34.5492 1.61737 1.25309 0
M  V30 293 H 34.5592 1.72538 3.69723 0
M  V30 294 H 33.2342 2.73182 3.13599 0
M  V30 295 H 31.8112 0.960917 3.60307 0
M  V30 296 N 33.9963 -1.19345 1.0293 0
M  V30 297 C 34.9263 -2.2481 0.631105 0
M  V30 298 C 35.9073 -1.66245 -0.360104 0
M  V30 299 O 37.0923 -1.92677 -0.242726 0
M  V30 300 C 34.2223 -3.47295 -0.0184607 0
M  V30 301 C 33.1763 -4.18536 0.895073 0
M  V30 302 C 32.5023 -5.34586 0.110592 0
M  V30 303 C 33.8023 -4.73287 2.209 0
M  V30 304 H 35.4963 -2.58372 1.51275 0
M  V30 305 H 33.0423 -1.24194 0.728818 0
M  V30 306 H 34.9953 -4.20268 -0.308675 0
M  V30 307 H 33.7193 -3.12933 -0.934907 0
M  V30 308 H 32.3783 -3.47446 1.16949 0
M  V30 309 H 32.0263 -4.96469 -0.807902 0
M  V30 310 H 31.7263 -5.83183 0.719087 0
M  V30 311 H 33.2503 -6.10355 -0.172871 0
M  V30 312 H 34.6643 -5.38013 1.98028 0
M  V30 313 H 33.0613 -5.32373 2.76946 0
M  V30 314 H 34.1313 -3.91331 2.86336 0
M  V30 315 N 35.4744 -0.807222 -1.35358 0
M  V30 316 C 36.3844 -0.219594 -2.3357 0
M  V30 317 C 37.4004 0.637734 -1.61892 0
M  V30 318 O 38.5764 0.549336 -1.93763 0
M  V30 319 C 35.6414 0.62158 -3.41083 0
M  V30 320 C 34.7024 -0.256315 -4.28534 0
M  V30 321 C 33.9354 0.544807 -5.30912 0
M  V30 322 O 34.1584 1.77944 -5.41934 0
M  V30 323 O 33.0924 -0.0646478 -6.01865 0
M  V30 324 H 36.9184 -1.03208 -2.85625 0
M  V30 325 H 34.5034 -0.569025 -1.38139 0
M  V30 326 H 36.3854 1.10067 -4.06772 0
M  V30 327 H 35.0604 1.41165 -2.91297 0
M  V30 328 H 33.9674 -0.782559 -3.65823 0
M  V30 329 H 35.3004 -1.01034 -4.81719 0
M  V30 330 N 36.9525 1.47285 -0.560781 0
M  V30 331 C 37.8625 2.33846 0.187954 0
M  V30 332 C 38.8785 1.48412 0.908293 0
M  V30 333 O 40.0545 1.81332 0.876388 0
M  V30 334 C 37.1195 3.25178 1.2025 0
M  V30 335 C 36.1805 4.26504 0.489208 0
M  V30 336 C 35.4135 5.13472 1.45542 0
M  V30 337 O 35.6365 5.02959 2.6905 0
M  V30 338 O 34.5705 5.93902 0.977963 0
M  V30 339 H 38.3965 2.99177 -0.522177 0
M  V30 340 H 35.9815 1.45903 -0.321364 0
M  V30 341 H 37.8635 3.81584 1.78805 0
M  V30 342 H 36.5385 2.6247 1.89449 0
M  V30 343 H 35.4455 3.73847 -0.137627 0
M  V30 344 H 36.7785 4.91935 -0.161399 0
M  V30 345 N 38.4306 0.297415 1.54768 0
M  V30 346 C 39.6766 -0.313376 2.00364 0
M  V30 347 C 40.0096 -1.53815 1.18553 0
M  V30 348 O 39.2846 -1.92739 0.261103 0
M  V30 349 C 39.5676 -0.673525 3.53745 0
M  V30 350 C 39.4206 0.560133 4.46299 0
M  V30 351 C 40.7396 -1.50143 4.13697 0
M  V30 352 H 37.8586 -0.112428 0.728374 0
M  V30 353 H 40.5006 0.4088 1.8555 0
M  V30 354 H 38.6506 -1.28881 3.665 0
M  V30 355 H 40.3226 1.19863 4.45455 0
M  V30 356 H 38.5656 1.19405 4.17043 0
M  V30 357 H 39.2366 0.26405 5.51368 0
M  V30 358 H 41.7126 -0.981588 4.04356 0
M  V30 359 H 40.5886 -1.72221 5.21182 0
M  V30 360 H 40.8496 -2.48952 3.65343 0
M  V30 361 N 39.9087 -1.5758 0.0250728 0
M  V30 362 C 40.8387 -2.13007 -0.956575 0
M  V30 363 C 41.8197 -1.0452 -1.342 0
M  V30 364 O 43.0047 -1.32332 -1.42133 0
M  V30 365 C 40.1347 -2.65386 -2.24026 0
M  V30 366 C 39.0887 -3.78623 -1.99571 0
M  V30 367 C 38.4147 -4.17414 -3.3417 0
M  V30 368 C 39.7147 -5.04867 -1.33814 0
M  V30 369 H 41.4087 -2.9528 -0.494991 0
M  V30 370 H 38.9547 -1.42042 -0.236651 0
M  V30 371 H 40.9077 -3.02794 -2.93076 0
M  V30 372 H 39.6317 -1.80268 -2.72343 0
M  V30 373 H 38.2907 -3.41646 -1.32941 0
M  V30 374 H 37.9387 -3.29284 -3.80238 0
M  V30 375 H 37.6387 -4.93719 -3.18615 0
M  V30 376 H 39.1627 -4.57402 -4.04495 0
M  V30 377 H 40.5767 -5.39888 -1.92857 0
M  V30 378 H 38.9737 -5.86144 -1.28669 0
M  V30 379 H 40.0437 -4.83904 -0.310561 0
M  V30 380 N 41.3868 0.248026 -1.55636 0
M  V30 381 C 42.3338 1.30707 -1.90222 0
M  V30 382 C 43.3038 1.47881 -0.756332 0
M  V30 383 O 44.4888 1.61883 -1.00988 0
M  V30 384 C 41.6288 2.65769 -2.20138 0
M  V30 385 C 40.7418 2.56612 -3.47526 0
M  V30 386 C 39.8768 3.8402 -3.67017 0
M  V30 387 C 38.9158 3.69476 -4.8801 0
M  V30 388 N 38.0528 4.88774 -5.04029 0
M  V30 389 H 42.8928 1.00512 -2.80538 0
M  V30 390 H 40.4298 0.485055 -1.38873 0
M  V30 391 H 42.3878 3.44386 -2.35487 0
M  V30 392 H 41.0178 2.94115 -1.33027 0
M  V30 393 H 40.0698 1.69571 -3.40514 0
M  V30 394 H 41.3818 2.41774 -4.36287 0
M  V30 395 H 40.5358 4.7108 -3.8232 0
M  V30 396 H 39.2748 4.01754 -2.76487 0
M  V30 397 H 38.2798 2.80799 -4.72686 0
M  V30 398 H 39.5048 3.53238 -5.8 0
M  V30 399 H 37.4508 5.0687 -4.16435 0
M  V30 400 H 37.3678 4.76562 -5.86877 0
M  V30 401 H 38.6358 5.77335 -5.23741 0
M  V30 402 N 42.8649 1.48995 0.513639 0
M  V30 403 C 43.8279 1.64229 1.59879 0
M  V30 404 C 44.8279 0.514696 1.5234 0
M  V30 405 O 46.0179 0.78087 1.55718 0
M  V30 406 C 43.1499 1.62783 2.99524 0
M  V30 407 H 44.3429 2.61004 1.47705 0
M  V30 408 H 41.8959 1.37837 0.736936 0
M  V30 409 H 42.6309 0.675461 3.17188 0
M  V30 410 H 42.4159 2.4466 3.06404 0
M  V30 411 H 43.9059 1.76669 3.78388 0
M  V30 412 N 44.343 -0.763751 1.37857 0
M  V30 413 C 45.573 -1.55067 1.3652 0
M  V30 414 C 45.981 -1.89135 -0.0494227 0
M  V30 415 O 45.324 -1.52529 -1.02375 0
M  V30 416 C 45.386 -2.8838 2.14656 0
M  V30 417 C 45.05 -2.76905 3.63555 0
M  V30 418 C 46.047 -2.4739 4.57268 0
M  V30 419 C 43.732 -2.94676 4.06781 0
M  V30 420 C 45.726 -2.35786 5.92186 0
M  V30 421 C 43.413 -2.82692 5.41782 0
M  V30 422 C 44.411 -2.53289 6.34298 0
M  V30 423 O 44.099 -2.41345 7.66817 0
M  V30 424 H 43.831 -0.486776 0.469069 0
M  V30 425 H 46.385 -0.953812 1.81911 0
M  V30 426 H 44.615 -3.50217 1.63967 0
M  V30 427 H 46.304 -3.49828 2.05852 0
M  V30 428 H 47.07 -2.33339 4.2518 0
M  V30 429 H 42.949 -3.16563 3.35126 0
M  V30 430 H 46.493 -2.12757 6.64365 0
M  V30 431 H 42.39 -2.96314 5.7347 0
M  V30 432 H 43.158 -2.56634 7.77226 0
M  V30 433 N 45.8211 -1.22559 -0.990812 0
M  V30 434 C 46.7311 -1.01394 -2.11557 0
M  V30 435 C 47.7471 0.0383962 -1.73958 0
M  V30 436 O 48.9231 -0.154787 -2.00804 0
M  V30 437 C 45.9881 -0.596569 -3.41529 0
M  V30 438 C 45.0491 -1.72276 -3.93217 0
M  V30 439 C 44.2821 -1.32521 -5.16985 0
M  V30 440 O 44.5051 -0.204909 -5.70032 0
M  V30 441 O 43.4391 -2.14247 -5.62478 0
M  V30 442 H 47.2651 -1.95633 -2.32296 0
M  V30 443 H 44.8501 -1.01172 -1.0993 0
M  V30 444 H 46.7321 -0.374263 -4.19735 0
M  V30 445 H 45.4071 0.316939 -3.22145 0
M  V30 446 H 44.3141 -1.99961 -3.16174 0
M  V30 447 H 45.6471 -2.61421 -4.17037 0
M  V30 448 N 47.2992 1.18797 -1.03562 0
M  V30 449 C 48.2312 2.21731 -0.580337 0
M  V30 450 C 49.2442 1.59051 0.347349 0
M  V30 451 O 50.4332 1.77929 0.142669 0
M  V30 452 C 47.5332 3.38459 0.172805 0
M  V30 453 C 46.7062 4.3072 -0.761496 0
M  V30 454 C 45.7652 5.26174 -0.0525547 0
M  V30 455 O 44.7912 5.65108 -0.681333 0
M  V30 456 N 45.9932 5.67624 1.21586 0
M  V30 457 H 48.7582 2.61417 -1.46565 0
M  V30 458 H 46.3192 1.33531 -0.915476 0
M  V30 459 H 48.3112 3.99335 0.656793 0
M  V30 460 H 46.8812 2.97507 0.959602 0
M  V30 461 H 46.1012 3.67525 -1.42544 0
M  V30 462 H 47.3892 4.89267 -1.39626 0
M  V30 463 H 46.7872 5.38038 1.74732 0
M  V30 464 H 45.3442 6.30721 1.64421 0
M  V30 465 N 48.7773 0.814389 1.34928 0
M  V30 466 C 50.1883 0.458364 1.80986 0
M  V30 467 C 50.5393 -1.02042 1.67577 0
M  V30 468 O 49.6643 -1.79352 1.21086 0
M  V30 469 C 50.2593 0.825212 3.28597 0
M  V30 470 C 48.8183 0.521677 3.72767 0
M  V30 471 C 47.9653 1.04668 2.56788 0
M  V30 472 H 50.9163 1.00533 1.22795 0
M  V30 473 H 50.9373 0.12571 3.80292 0
M  V30 474 H 50.4493 1.90154 3.38324 0
M  V30 475 H 48.5503 -0.545589 3.68584 0
M  V30 476 H 48.6633 1.05977 4.67232 0
M  V30 477 H 47.0273 0.468622 2.50352 0
M  V30 478 H 47.8103 2.12927 2.6929 0
M  V30 479 N 50.2554 -1.46986 0.568584 0
M  V30 480 C 51.1854 -2.32946 -0.160753 0
M  V30 481 C 52.1664 -1.44487 -0.897631 0
M  V30 482 O 53.3514 -1.73327 -0.875867 0
M  V30 483 C 50.4814 -3.26494 -1.18403 0
M  V30 484 C 49.4354 -4.24282 -0.562895 0
M  V30 485 C 48.7614 -5.07236 -1.69163 0
M  V30 486 C 50.0614 -5.19989 0.490761 0
M  V30 487 H 51.7554 -2.94175 0.556916 0
M  V30 488 H 49.3014 -1.4146 0.26927 0
M  V30 489 H 51.2544 -3.85477 -1.70251 0
M  V30 490 H 49.9784 -2.63343 -1.93179 0
M  V30 491 H 48.6374 -3.66541 -0.0656164 0
M  V30 492 H 48.2854 -4.4048 -2.42871 0
M  V30 493 H 47.9854 -5.7345 -1.28174 0
M  V30 494 H 49.5094 -5.6908 -2.21314 0
M  V30 495 H 50.9234 -5.73271 0.0579047 0
M  V30 496 H 49.3204 -5.94469 0.820165 0
M  V30 497 H 50.3904 -4.64777 1.3824 0
M  V30 498 N 51.7335 -0.305618 -1.54608 0
M  V30 499 C 52.6815 0.584119 -2.25146 0
M  V30 500 C 53.6755 1.13326 -1.25911 0
M  V30 501 O 54.8815 1.08337 -1.43747 0
M  V30 502 H 51.2565 0.206983 -0.722954 0
M  V30 503 H 53.2275 -0.033291 -2.98381 0
M  V30 504 C 51.9765 1.74225 -3.009 0
M  V30 505 H 51.2995 1.32892 -3.77067 0
M  V30 506 H 52.7395 2.34077 -3.53531 0
M  V30 507 C 51.1985 2.64914 -2.0814 0
M  V30 508 O 51.7285 3.66137 -1.65246 0
M  V30 509 N 49.9345 2.3275 -1.74 0
M  V30 510 H 49.4815 1.50479 -2.09078 0
M  V30 511 H 49.4395 2.93694 -1.12211 0
M  V30 512 N 53.2116 1.57565 -0.0334293 0
M  V30 513 C 54.1216 2.13943 0.962572 0
M  V30 514 C 55.1376 1.09276 1.35406 0
M  V30 515 O 56.3136 1.41355 1.4346 0
M  V30 516 C 53.3786 2.65887 2.22497 0
M  V30 517 C 52.4396 3.85286 1.8935 0
M  V30 518 C 51.6726 4.34743 3.09571 0
M  V30 519 O 51.8956 3.83352 4.22371 0
M  V30 520 O 50.8296 5.26538 2.91618 0
M  V30 521 H 54.6556 2.99333 0.513169 0
M  V30 522 H 52.2406 1.4822 0.18743 0
M  V30 523 H 54.1226 2.99346 2.96598 0
M  V30 524 H 52.7976 1.83578 2.6661 0
M  V30 525 H 51.7046 3.56746 1.1262 0
M  V30 526 H 53.0376 4.68771 1.5005 0
M  V30 527 N 54.6897 -0.239769 1.55765 0
M  V30 528 C 55.5997 -1.31831 1.94056 0
M  V30 529 C 56.6157 -1.52275 0.841925 0
M  V30 530 O 57.7917 -1.65759 1.14394 0
M  V30 531 C 54.8567 -2.65156 2.23368 0
M  V30 532 C 53.9177 -2.53173 3.46701 0
M  V30 533 C 53.1507 -3.8014 3.74606 0
M  V30 534 O 53.3737 -4.82343 3.04469 0
M  V30 535 O 52.3077 -3.78344 4.68123 0
M  V30 536 H 56.1337 -1.02347 2.85935 0
M  V30 537 H 53.7187 -0.441123 1.42739 0
M  V30 538 H 55.6007 -3.43929 2.43497 0
M  V30 539 H 54.2757 -2.94358 1.34666 0
M  V30 540 H 53.1827 -1.72662 3.31871 0
M  V30 541 H 54.5157 -2.28915 4.35728 0
M  V30 542 N 56.1678 -1.49265 -0.50573 0
M  V30 543 C 57.0998 -1.617 -1.62437 0
M  V30 544 C 58.1128 -0.499924 -1.54934 0
M  V30 545 O 59.3018 -0.771785 -1.60953 0
M  V30 546 C 56.4018 -1.5533 -3.01207 0
M  V30 547 C 55.5748 -2.8249 -3.33943 0
M  V30 548 C 54.6338 -2.69238 -4.52103 0
M  V30 549 O 53.6598 -3.43167 -4.5412 0
M  V30 550 N 54.8618 -1.80468 -5.51735 0
M  V30 551 H 57.6268 -2.58177 -1.52199 0
M  V30 552 H 55.1878 -1.46294 -0.693511 0
M  V30 553 H 57.1798 -1.44125 -3.78167 0
M  V30 554 H 55.7498 -0.667297 -3.05395 0
M  V30 555 H 54.9698 -3.08081 -2.45926 0
M  V30 556 H 56.2578 -3.66802 -3.5261 0
M  V30 557 H 55.6558 -1.19653 -5.52901 0
M  V30 558 H 54.2128 -1.75188 -6.27816 0
M  V30 559 N 57.6459 0.756429 -1.3826 0
M  V30 560 C 58.6089 1.85176 -1.35065 0
M  V30 561 C 59.6089 1.58818 -0.251703 0
M  V30 562 O 60.7989 1.66615 -0.508433 0
M  V30 563 C 57.9309 3.22596 -1.10201 0
M  V30 564 H 59.1239 1.89417 -2.3251 0
M  V30 565 H 56.6769 0.95783 -1.23512 0
M  V30 566 H 57.4119 3.24025 -0.133504 0
M  V30 567 H 57.1969 3.43122 -1.89762 0
M  V30 568 H 58.6869 4.02673 -1.10654 0
M  V30 569 N 59.124 1.23083 0.984299 0
M  V30 570 C 60.37 1.07221 1.72845 0
M  V30 571 C 60.725 -0.387453 1.88458 0
M  V30 572 O 60.018 -1.28309 1.42293 0
M  V30 573 C 60.212 1.72673 3.1292 0
M  V30 574 C 60.041 3.24853 3.10967 0
M  V30 575 C 58.811 3.93998 3.16376 0
M  V30 576 C 61.009 4.21674 2.94441 0
M  V30 577 N 58.991 5.33192 3.04268 0
M  V30 578 C 60.362 5.47756 2.90453 0
M  V30 579 C 62.417 4.12457 2.78897 0
M  V30 580 C 61.12 6.6568 2.72512 0
M  V30 581 C 63.146 5.3004 2.62319 0
M  V30 582 C 62.508 6.55046 2.59026 0
M  V30 583 H 58.607 0.44685 0.641755 0
M  V30 584 H 61.191 1.55753 1.16829 0
M  V30 585 H 59.362 1.26679 3.67161 0
M  V30 586 H 61.094 1.49824 3.75945 0
M  V30 587 H 57.849 3.45052 3.24401 0
M  V30 588 H 58.273 6.06157 3.015 0
M  V30 589 H 62.915 3.16588 2.80235 0
M  V30 590 H 60.633 7.61689 2.69919 0
M  V30 591 H 64.219 5.24747 2.5126 0
M  V30 592 H 63.099 7.44498 2.46357 0
M  V30 593 N 60.6021 -1.18246 1.0419 0
M  V30 594 C 61.5651 -2.20128 0.638452 0
M  V30 595 C 62.5651 -1.57885 -0.304805 0
M  V30 596 O 63.7551 -1.73967 -0.0900369 0
M  V30 597 C 60.8871 -3.4084 -0.0637751 0
M  V30 598 H 62.0801 -2.57336 1.54007 0
M  V30 599 H 59.6331 -1.32152 0.834598 0
M  V30 600 H 60.3681 -3.09166 -0.979136 0
M  V30 601 H 60.1531 -3.8726 0.614198 0
M  V30 602 H 61.6431 -4.16274 -0.332512 0
M  V30 603 N 62.0802 -0.821533 -1.34494 0
M  V30 604 C 63.3262 -0.409552 -1.98622 0
M  V30 605 C 63.6592 1.0244 -1.64984 0
M  V30 606 O 62.9342 1.71325 -0.920758 0
M  V30 607 C 63.2172 -0.610458 -3.54888 0
M  V30 608 C 63.0702 -2.09043 -3.98273 0
M  V30 609 C 64.3892 -0.0455379 -4.40076 0
M  V30 610 H 61.5082 -0.15028 -0.721516 0
M  V30 611 H 64.1502 -1.03384 -1.59411 0
M  V30 612 H 62.3002 -0.079044 -3.8842 0
M  V30 613 H 63.9722 -2.68537 -3.75081 0
M  V30 614 H 62.2152 -2.58139 -3.48635 0
M  V30 615 H 62.8862 -2.18182 -5.07051 0
M  V30 616 H 65.3622 -0.499557 -4.1309 0
M  V30 617 H 64.2382 -0.215922 -5.48475 0
M  V30 618 H 64.4992 1.04939 -4.29465 0
M  V30 619 N 63.5583 1.46682 -0.576371 0
M  V30 620 C 64.7983 2.04306 -0.0621356 0
M  V30 621 C 65.1623 1.4389 1.2712 0
M  V30 622 O 66.3633 1.92675 1.87429 0
M  V30 623 C 64.6343 3.57399 0.00927922 0
M  V30 624 S 66.1933 4.36309 0.466859 0
M  V30 625 H 63.0113 0.710167 -0.0344016 0
M  V30 626 H 65.6133 1.79807 -0.767437 0
M  V30 627 H 64.3173 3.98889 -0.965178 0
M  V30 628 H 63.8483 3.86424 0.737547 0
M  V30 629 H 65.8633 4.6533 1.72287 0
M  V30 630 N 65.0364 0.313813 1.54444 0
M  V30 631 C 66.2834 -0.291675 2.00388 0
M  V30 632 C 66.6114 -1.52904 1.2021 0
M  V30 633 O 65.8664 -1.93833 0.269707 0
M  V30 634 C 66.1654 -0.680386 3.50864 0
M  V30 635 C 65.8314 0.456699 4.48581 0
M  V30 636 C 64.4934 0.768824 4.75018 0
M  V30 637 C 66.8454 1.22098 5.06697 0
M  V30 638 C 64.1734 1.84812 5.56831 0
M  V30 639 C 66.5254 2.29029 5.89685 0
M  V30 640 C 65.1894 2.60834 6.14428 0
M  V30 641 H 64.4594 -0.106732 0.733273 0
M  V30 642 H 67.1064 0.43557 1.86481 0
M  V30 643 H 65.4114 -1.48791 3.62448 0
M  V30 644 H 67.1084 -1.16026 3.83847 0
M  V30 645 H 63.6984 0.203337 4.28117 0
M  V30 646 H 67.8824 0.993096 4.86263 0
M  V30 647 H 63.1384 2.09912 5.74236 0
M  V30 648 H 67.3124 2.887 6.33739 0
M  V30 649 H 64.9394 3.44596 6.77612 0
M  V30 650 N 66.5145 -1.57545 0.0417849 0
M  V30 651 C 67.4465 -2.07904 -0.964799 0
M  V30 652 C 68.4595 -1.00497 -1.28079 0
M  V30 653 O 69.6485 -1.28087 -1.24322 0
M  V30 654 C 66.7485 -2.49928 -2.28887 0
M  V30 655 C 65.9215 -3.80562 -2.15619 0
M  V30 656 C 64.9805 -4.08999 -3.31069 0
M  V30 657 O 64.0065 -4.79061 -3.0739 0
M  V30 658 N 65.2085 -3.6017 -4.55256 0
M  V30 659 H 67.9735 -2.94886 -0.535029 0
M  V30 660 H 65.5345 -1.61252 -0.144681 0
M  V30 661 H 67.5265 -2.66034 -3.04972 0
M  V30 662 H 66.0965 -1.68245 -2.63463 0
M  V30 663 H 65.3165 -3.74129 -1.24183 0
M  V30 664 H 66.6045 -4.66126 -2.03971 0
M  V30 665 H 66.0025 -3.03512 -4.77386 0
M  V30 666 H 64.5595 -3.81532 -5.28466 0
M  V30 667 N 67.9926 0.231505 -1.5589 0
M  V30 668 C 69.2406 0.955461 -1.78088 0
M  V30 669 C 69.5616 1.85262 -0.608533 0
M  V30 670 O 68.8316 1.92277 0.375035 0
M  V30 671 H 67.4116 0.355787 -0.656829 0
M  V30 672 H 70.0736 0.245751 -1.93344 0
M  V30 673 H 69.1696 1.56814 -2.69844 0
M  V30 674 N 69.4707 1.49531 0.497807 0
M  V30 675 C 70.7107 1.60799 1.26187 0
M  V30 676 C 71.0747 0.289627 1.89803 0
M  V30 677 O 72.2757 0.277512 2.67364 0
M  V30 678 C 70.5467 2.73729 2.29798 0
M  V30 679 S 72.1057 3.04968 3.155 0
M  V30 680 H 68.9237 0.567145 0.428798 0
M  V30 681 H 71.5257 1.87204 0.563477 0
M  V30 682 H 70.2297 3.68036 1.81597 0
M  V30 683 H 69.7607 2.49328 3.04301 0
M  V30 684 H 71.7757 2.46735 4.30507 0
M  V30 685 N 70.9488 -0.749086 1.3866 0
M  V30 686 C 72.3648 -1.05276 1.19955 0
M  V30 687 C 72.5648 -2.01435 0.05134 0
M  V30 688 O 71.6208 -2.45232 -0.60147 0
M  V30 689 C 72.9338 -1.62853 2.52783 0
M  V30 690 C 74.4818 -1.75002 2.59506 0
M  V30 691 C 74.9568 -2.35991 3.92521 0
M  V30 692 N 76.4478 -2.43416 3.94085 0
M  V30 693 C 77.1828 -2.91511 4.9377 0
M  V30 694 N 76.6788 -3.39608 6.03853 0
M  V30 695 N 78.4718 -2.90592 4.81157 0
M  V30 696 H 70.6228 -0.111066 2.12109 0
M  V30 697 H 72.8858 -0.111901 0.941373 0
M  V30 698 H 72.5918 -0.99664 3.37283 0
M  V30 699 H 72.4658 -2.61854 2.715 0
M  V30 700 H 74.8528 -2.37317 1.75398 0
M  V30 701 H 74.9338 -0.74693 2.44652 0
M  V30 702 H 74.5778 -1.74308 4.77053 0
M  V30 703 H 74.5078 -3.3695 4.04688 0
M  V30 704 H 76.9988 -2.09405 3.14576 0
M  V30 705 H 77.3118 -3.74775 6.75843 0
M  V30 706 H 75.6568 -3.37653 6.07466 0
M  V30 707 H 78.8478 -2.52332 3.94267 0
M  V30 708 H 79.0208 -3.27762 5.58996 0
M  V30 709 N 72.4269 -1.23603 -0.977757 0
M  V30 710 C 73.6749 -1.06759 -1.71601 0
M  V30 711 C 73.9959 0.395929 -1.90938 0
M  V30 712 O 73.2659 1.28356 -1.47992 0
M  V30 713 H 71.8459 -0.392062 -0.635843 0
M  V30 714 H 74.5079 -1.55362 -1.1768 0
M  V30 715 H 73.6039 -1.55763 -2.70452 0
M  V30 716 N 73.905 1.17692 -1.04816 0
M  V30 717 C 74.835 2.23777 -0.666791 0
M  V30 718 C 75.816 1.66796 0.33361 0
M  V30 719 O 77.001 1.93039 0.212042 0
M  V30 720 C 74.131 3.47281 -0.0367933 0
M  V30 721 C 73.085 4.17059 -0.961546 0
M  V30 722 C 72.411 5.34342 -0.195626 0
M  V30 723 C 73.711 4.69713 -2.28402 0
M  V30 724 H 75.405 2.55933 -1.55367 0
M  V30 725 H 72.951 1.23019 -0.748484 0
M  V30 726 H 74.904 4.20706 0.241775 0
M  V30 727 H 73.628 3.14381 0.885004 0
M  V30 728 H 72.287 3.45541 -1.22462 0
M  V30 729 H 71.935 4.97692 0.728816 0
M  V30 730 H 71.635 5.81966 -0.811775 0
M  V30 731 H 73.159 6.10553 0.0757473 0
M  V30 732 H 74.573 5.34794 -2.06563 0
M  V30 733 H 72.97 5.279 -2.8538 0
M  V30 734 H 74.04 3.86726 -2.92525 0
M  V30 735 N 75.3831 0.828654 1.34056 0
M  V30 736 C 76.7991 0.515135 1.51058 0
M  V30 737 C 76.9991 -0.959581 1.77184 0
M  V30 738 O 76.0551 -1.74382 1.82612 0
M  V30 739 C 77.3681 1.37963 2.67183 0
M  V30 740 C 78.9161 1.37735 2.81066 0
M  V30 741 C 79.3911 2.22645 4.00241 0
M  V30 742 N 80.8821 2.203 4.07458 0
M  V30 743 C 81.6171 2.82744 4.98842 0
M  V30 744 N 81.1131 3.54201 5.9541 0
M  V30 745 N 82.9061 2.72268 4.91759 0
M  V30 746 H 75.0571 1.78343 1.15358 0
M  V30 747 H 77.3201 0.760304 0.566252 0
M  V30 748 H 77.0261 2.42714 2.54525 0
M  V30 749 H 76.9001 1.0484 3.62338 0
M  V30 750 H 79.2871 0.337593 2.93163 0
M  V30 751 H 79.3681 1.74859 1.86703 0
M  V30 752 H 79.0121 3.26674 3.88905 0
M  V30 753 H 78.9421 1.82869 4.93829 0
M  V30 754 H 81.4331 1.68327 3.38341 0
M  V30 755 H 81.7461 3.9908 6.61782 0
M  V30 756 H 80.0911 3.58308 5.95517 0
M  V30 757 H 83.2821 2.16014 4.15278 0
M  V30 758 H 83.4551 3.21219 5.62781 0
M  V30 759 N 76.8612 -1.46375 0.584142 0
M  V30 760 C 78.1092 -2.01978 0.0701287 0
M  V30 761 C 78.4302 -1.4579 -1.295 0
M  V30 762 O 77.7002 -0.64314 -1.85042 0
M  V30 763 H 76.2802 -0.746648 0.0229345 0
M  V30 764 H 78.9422 -1.79461 0.760245 0
M  V30 765 H 78.0382 -3.121 0.0022064 0
M  V30 766 N 78.3393 -0.321999 -1.54275 0
M  V30 767 C 79.5643 0.285791 -2.05422 0
M  V30 768 C 79.9893 1.45124 -1.19669 0
M  V30 769 O 79.3473 1.80132 -0.205441 0
M  V30 770 C 79.3953 0.69956 -3.53749 0
M  V30 771 O 78.4993 1.8021 -3.70942 0
M  V30 772 H 77.8403 0.0518962 -0.661969 0
M  V30 773 H 80.3703 -0.469954 -1.9913 0
M  V30 774 H 80.3803 0.982649 -3.9599 0
M  V30 775 H 79.0553 -0.152864 -4.15619 0
M  V30 776 H 77.6323 1.51794 -3.40607 0
M  V30 777 N 79.8174 1.5752 -0.0501392 0
M  V30 778 C 81.2284 1.80271 0.485705 0
M  V30 779 C 81.5794 0.96228 1.70981 0
M  V30 780 O 80.7044 0.178578 2.15662 0
M  V30 781 C 81.2994 3.26957 0.887938 0
M  V30 782 C 79.8584 3.5063 1.36877 0
M  V30 783 C 79.0054 2.75165 0.343468 0
M  V30 784 H 81.9564 1.56281 -0.276028 0
M  V30 785 H 81.9774 3.37821 1.75093 0
M  V30 786 H 81.4894 3.881 -0.0031809 0
M  V30 787 H 79.5904 2.94766 2.27911 0
M  V30 788 H 79.7034 4.59343 1.36164 0
M  V30 789 H 78.0674 2.4127 0.816128 0
M  V30 790 H 78.8504 3.39034 -0.539548 0
M  V30 791 N 81.2955 -0.223234 1.56011 0
M  V30 792 C 82.5435 -0.946003 1.78592 0
M  V30 793 C 82.8645 -1.84936 0.618349 0
M  V30 794 O 82.1345 -1.92473 -0.364833 0
M  V30 795 H 80.7145 -0.352298 0.658707 0
M  V30 796 H 83.3765 -0.235494 1.93472 0
M  V30 797 H 82.4725 -1.55381 2.70672 0
M  V30 798 N 82.7736 -1.49793 -0.48987 0
M  V30 799 C 84.1896 -1.36803 -0.822022 0
M  V30 800 C 84.3896 -0.409652 -1.97292 0
M  V30 801 O 83.4456 0.154614 -2.52026 0
M  V30 802 C 84.7586 -2.77768 -1.15175 0
M  V30 803 C 86.3066 -2.86549 -1.25931 0
M  V30 804 C 86.7816 -4.28306 -1.62228 0
M  V30 805 N 88.2726 -4.31169 -1.69256 0
M  V30 806 C 89.0076 -5.37832 -1.98807 0
M  V30 807 N 88.5036 -6.54726 -2.26507 0
M  V30 808 N 90.2966 -5.25258 -2.00152 0
M  V30 809 H 82.4476 -2.10691 0.268881 0
M  V30 810 H 84.7106 -0.946241 0.057728 0
M  V30 811 H 84.4166 -3.49648 -0.379335 0
M  V30 812 H 84.2906 -3.13836 -2.09253 0
M  V30 813 H 86.6776 -2.14899 -2.02243 0
M  V30 814 H 86.7586 -2.54049 -0.298776 0
M  V30 815 H 86.4026 -5.00486 -0.864622 0
M  V30 816 H 86.3326 -4.58279 -2.594 0
M  V30 817 H 88.8236 -3.4687 -1.49965 0
M  V30 818 H 89.1366 -7.31833 -2.48276 0
M  V30 819 H 87.4816 -6.57933 -2.23939 0
M  V30 820 H 90.6726 -4.32938 -1.77996 0
M  V30 821 H 90.8456 -6.08476 -2.22848 0
M  V30 822 N 84.2517 0.741722 -1.39055 0
M  V30 823 C 85.6677 1.04638 -1.20512 0
M  V30 824 C 85.8677 2.01405 -0.0620218 0
M  V30 825 O 84.9237 2.45547 0.588457 0
M  V30 826 C 86.2367 1.6151 -2.53643 0
M  V30 827 C 87.7847 1.73623 -2.6043 0
M  V30 828 C 88.2597 2.33906 -3.93767 0
M  V30 829 N 89.7507 2.41323 -3.9537 0
M  V30 830 C 90.4857 2.88888 -4.95309 0
M  V30 831 N 89.9817 3.36401 -6.05645 0
M  V30 832 N 91.7747 2.88037 -4.82692 0
M  V30 833 H 83.9257 0.0998155 -2.12165 0
M  V30 834 H 86.1887 0.106907 -0.941953 0
M  V30 835 H 85.8947 0.978739 -3.37807 0
M  V30 836 H 85.7687 2.60411 -2.72885 0
M  V30 837 H 88.1557 2.36384 -1.76655 0
M  V30 838 H 88.2367 0.733945 -2.45045 0
M  V30 839 H 87.8807 1.71776 -4.7797 0
M  V30 840 H 87.8107 3.34799 -4.06469 0
M  V30 841 H 90.3017 2.07734 -3.15682 0
M  V30 842 H 90.6147 3.71186 -6.77821 0
M  V30 843 H 88.9597 3.34427 -6.09248 0
M  V30 844 H 92.1507 2.50237 -3.95599 0
M  V30 845 H 92.3237 3.24792 -5.60726 0
M  V30 846 N 85.7298 1.2412 0.971189 0
M  V30 847 C 86.6598 1.05508 2.08304 0
M  V30 848 C 87.6408 -0.0308864 1.70072 0
M  V30 849 O 88.8258 0.135521 1.93727 0
M  V30 850 C 85.9558 0.655365 3.4106 0
M  V30 851 C 84.9098 1.68971 3.93234 0
M  V30 852 C 84.2358 1.14516 5.22293 0
M  V30 853 C 85.5358 3.08487 4.21465 0
M  V30 854 H 87.2298 1.98507 2.24132 0
M  V30 855 H 84.7758 0.955821 1.07704 0
M  V30 856 H 86.7288 0.51217 4.18276 0
M  V30 857 H 85.4528 -0.31032 3.25122 0
M  V30 858 H 84.1118 1.82106 3.18171 0
M  V30 859 H 83.7598 0.170189 5.02712 0
M  V30 860 H 83.4598 1.83635 5.58168 0
M  V30 861 H 84.9838 1.01401 6.02121 0
M  V30 862 H 86.3978 2.98601 4.89398 0
M  V30 863 H 84.7948 3.74926 4.68562 0
M  V30 864 H 85.8648 3.56787 3.28376 0
M  V30 865 N 87.2079 -1.17134 1.05439 0
M  V30 866 C 88.6239 -1.39454 0.776201 0
M  V30 867 C 88.8239 -1.91454 -0.628307 0
M  V30 868 O 87.8799 -2.10777 -1.39031 0
M  V30 869 C 89.1929 -2.38305 1.83388 0
M  V30 870 C 90.7409 -2.52006 1.85639 0
M  V30 871 C 91.2159 -3.54133 2.90437 0
M  V30 872 N 92.7069 -3.61653 2.89415 0
M  V30 873 C 93.4419 -4.4044 3.67152 0
M  V30 874 N 92.9379 -5.22721 4.54681 0
M  V30 875 N 94.7309 -4.35337 3.55581 0
M  V30 876 H 86.8819 -0.817134 1.96053 0
M  V30 877 H 89.1449 -0.421626 0.849079 0
M  V30 878 H 88.8509 -2.07173 2.84204 0
M  V30 879 H 88.7249 -3.37841 1.67761 0
M  V30 880 H 91.1119 -2.82447 0.85486 0
M  V30 881 H 91.1929 -1.52537 2.05344 0
M  V30 882 H 90.8369 -3.24431 3.90777 0
M  V30 883 H 90.7669 -4.53313 2.67983 0
M  V30 884 H 93.2579 -3.02909 2.25952 0
M  V30 885 H 93.5709 -5.80027 5.10674 0
M  V30 886 H 91.9159 -5.22093 4.58741 0
M  V30 887 H 95.1069 -3.70112 2.86592 0
M  V30 888 H 95.2799 -4.96494 4.1641 0
M  V30 889 N 88.686 -0.835752 -1.33615 0
M  V30 890 C 89.963 -0.352017 -1.92406 0
M  V30 891 C 90.343 1.16225 -1.76224 0
M  V30 892 O 89.691 1.97526 -1.14873 0
M  V30 893 C 89.901 -0.795485 -3.39813 0
M  V30 894 C 91.249 -0.801703 -4.16963 0
M  V30 895 O 92.273 -0.738889 -3.48452 0
M  V30 896 O 91.132 -0.886607 -5.3926 0
M  V30 897 H 88.226 -0.0989641 -0.821057 0
M  V30 898 H 90.772 -0.921397 -1.42507 0
M  V30 899 H 89.544 -1.83795 -3.45449 0
M  V30 900 H 89.167 -0.202505 -3.97084 0
M  V30 901 N 90.1641 1.46063 -0.591896 0
M  V30 902 C 91.3921 2.06717 -0.0868936 0
M  V30 903 C 91.8071 1.43916 1.22203 0
M  V30 904 O 91.1641 0.547698 1.74088 0
M  V30 905 C 91.2151 3.6142 0.0758725 0
M  V30 906 O 90.9361 4.21874 -1.18126 0
M  V30 907 C 92.4371 4.39025 0.61416 0
M  V30 908 H 89.6571 0.668162 -0.0616518 0
M  V30 909 H 92.2011 1.8755 -0.815175 0
M  V30 910 H 90.3561 3.79983 0.754413 0
M  V30 911 H 90.7701 5.14861 -1.00092 0
M  V30 912 H 92.2441 5.4783 0.677193 0
M  V30 913 H 92.7211 4.07708 1.63312 0
M  V30 914 H 93.3271 4.2529 -0.0298142 0
M  V30 915 N 91.6422 0.330177 1.54103 0
M  V30 916 C 92.8902 -0.269871 2.0029 0
M  V30 917 C 93.2112 -1.52133 1.21986 0
M  V30 918 O 92.4812 -1.93212 0.323438 0
M  V30 919 H 91.0612 -0.10271 0.739905 0
M  V30 920 H 93.7232 0.448249 1.89675 0
M  V30 921 H 92.8192 -0.52166 3.07709 0
M  V30 922 N 93.1203 -1.57491 0.0584922 0
M  V30 923 C 94.3973 -1.84346 -0.653918 0
M  V30 924 C 94.7773 -0.948355 -1.88599 0
M  V30 925 O 94.1253 -0.0112403 -2.28497 0
M  V30 926 C 94.3353 -3.34239 -1.00425 0
M  V30 927 C 95.6833 -4.01431 -1.38342 0
M  V30 928 O 96.7073 -3.38907 -1.09637 0
M  V30 929 O 95.5663 -5.11683 -1.91943 0
M  V30 930 H 92.6603 -0.761112 -0.323478 0
M  V30 931 H 95.2063 -1.6947 0.0884125 0
M  V30 932 H 93.9783 -3.91089 -0.128625 0
M  V30 933 H 93.6013 -3.54329 -1.80378 0
M  V30 934 N 94.5984 0.214957 -1.56127 0
M  V30 935 C 95.5284 1.2695 -1.95974 0
M  V30 936 C 96.5094 1.48539 -0.828868 0
M  V30 937 O 97.6944 1.60611 -1.09168 0
M  V30 938 C 94.8244 2.61794 -2.28214 0
M  V30 939 C 93.7784 2.54851 -3.43853 0
M  V30 940 C 93.1044 3.93785 -3.61715 0
M  V30 941 C 94.4044 2.09065 -4.78632 0
M  V30 942 H 96.0984 0.93846 -2.84312 0
M  V30 943 H 93.6444 0.449996 -1.36788 0
M  V30 944 H 95.5974 3.35731 -2.54682 0
M  V30 945 H 94.3214 2.96599 -1.36736 0
M  V30 946 H 92.9804 1.8337 -3.17444 0
M  V30 947 H 92.6284 4.25908 -2.67602 0
M  V30 948 H 92.3284 3.90019 -4.39498 0
M  V30 949 H 93.8524 4.69374 -3.90539 0
M  V30 950 H 95.2664 2.7275 -5.04262 0
M  V30 951 H 93.6634 2.16346 -5.59745 0
M  V30 952 H 94.7334 1.04315 -4.73547 0
M  V30 953 N 96.0765 1.50051 0.48192 0
M  V30 954 C 97.0065 1.71046 1.58951 0
M  V30 955 C 97.9875 0.559288 1.60642 0
M  V30 956 O 99.1725 0.797243 1.77081 0
M  V30 957 C 96.3025 1.79462 2.97339 0
M  V30 958 C 95.2565 2.94558 3.10515 0
M  V30 959 C 94.5825 2.88105 4.50444 0
M  V30 960 C 95.8825 4.35227 2.88747 0
M  V30 961 H 97.5765 2.6378 1.41635 0
M  V30 962 H 95.1225 1.26936 0.679942 0
M  V30 963 H 97.0755 1.92734 3.74742 0
M  V30 964 H 95.7995 0.833412 3.15788 0
M  V30 965 H 94.4585 2.80918 2.35543 0
M  V30 966 H 94.1065 1.89853 4.65795 0
M  V30 967 H 93.8065 3.65366 4.60197 0
M  V30 968 H 95.3305 3.03412 5.29881 0
M  V30 969 H 96.7445 4.49449 3.55905 0
M  V30 970 H 95.1415 5.13856 3.09955 0
M  V30 971 H 96.2115 4.48347 1.84696 0
M  V30 972 N 97.5546 -0.734337 1.39446 0
M  V30 973 C 98.4846 -1.86155 1.40955 0
M  V30 974 C 99.4656 -1.67898 0.272827 0
M  V30 975 O 100.651 -1.88207 0.478743 0
M  V30 976 C 97.7806 -3.23912 1.25294 0
M  V30 977 C 96.7346 -3.56808 2.36373 0
M  V30 978 C 96.0606 -4.93508 2.058 0
M  V30 979 C 97.3606 -3.59713 3.78687 0
M  V30 980 H 99.0546 -1.8515 2.35287 0
M  V30 981 H 96.6006 -0.889367 1.13253 0
M  V30 982 H 98.5536 -4.02443 1.2497 0
M  V30 983 H 97.2776 -3.25446 0.274308 0
M  V30 984 H 95.9366 -2.80606 2.35914 0
M  V30 985 H 95.5846 -4.91623 1.06374 0
M  V30 986 H 95.2846 -5.16486 2.80208 0
M  V30 987 H 96.8086 -5.74396 2.07128 0
M  V30 988 H 98.2226 -4.2832 3.81071 0
M  V30 989 H 96.6196 -3.94209 4.52459 0
M  V30 990 H 97.6896 -2.59504 4.09617 0
M  V30 991 N 99.0327 -1.24633 -0.964593 0
M  V30 992 C 100.449 -1.01239 -1.2338 0
M  V30 993 C 100.649 0.2769 -1.99588 0
M  V30 994 O 99.7047 0.992241 -2.32187 0
M  V30 995 C 101.018 -2.22937 -2.01791 0
M  V30 996 C 102.566 -2.27594 -2.14872 0
M  V30 997 C 103.041 -3.48921 -2.96678 0
M  V30 998 N 104.532 -3.49257 -3.04259 0
M  V30 999 C 105.267 -4.39795 -3.67924 0
M  V30 1000 N 104.763 -5.40591 -4.33281 0
M  V30 1001 N 106.556 -4.275 -3.64966 0
M  V30 1002 H 98.7067 -2.0748 -0.454502 0
M  V30 1003 H 100.97 -0.910647 -0.26349 0
M  V30 1004 H 100.676 -3.16587 -1.53184 0
M  V30 1005 H 100.55 -2.25306 -3.02518 0
M  V30 1006 H 102.937 -1.34473 -2.6268 0
M  V30 1007 H 103.018 -2.2925 -1.13482 0
M  V30 1008 H 102.662 -4.42359 -2.49562 0
M  V30 1009 H 102.592 -3.4451 -3.98272 0
M  V30 1010 H 105.083 -2.76337 -2.57771 0
M  V30 1011 H 105.396 -6.05904 -4.79687 0
M  V30 1012 H 103.741 -5.44475 -4.3194 0
M  V30 1013 H 106.932 -3.47987 -3.13086 0
M  V30 1014 H 107.105 -4.98258 -4.14298 0
M  V30 1015 N 100.511 1.16574 -1.06058 0
M  V30 1016 C 101.759 1.86677 -0.77434 0
M  V30 1017 C 102.08 1.81959 0.701147 0
M  V30 1018 O 101.35 1.2515 1.50713 0
M  V30 1019 H 99.9298 0.691134 -0.283449 0
M  V30 1020 H 102.592 1.41378 -1.34158 0
M  V30 1021 H 101.688 2.92181 -1.09711 0
M  V30 1022 N 101.989 0.842826 1.3317 0
M  V30 1023 C 103.266 0.362216 1.92217 0
M  V30 1024 C 103.646 -1.15289 1.76838 0
M  V30 1025 O 102.994 -1.96914 1.15919 0
M  V30 1026 C 103.204 0.813495 3.39387 0
M  V30 1027 C 104.552 0.823804 4.16532 0
M  V30 1028 O 105.576 0.757358 3.48055 0
M  V30 1029 O 104.435 0.915193 5.38782 0
M  V30 1030 H 101.529 0.103317 0.820521 0
M  V30 1031 H 104.075 0.928942 1.42017 0
M  V30 1032 H 102.847 1.85624 3.4447 0
M  V30 1033 H 102.47 0.223561 3.96971 0
M  V30 1034 N 103.467 -1.45747 0.599634 0
M  V30 1035 C 104.715 -2.01893 0.0915472 0
M  V30 1036 C 105.036 -1.47155 -1.27946 0
M  V30 1037 O 104.306 -0.66273 -1.84349 0
M  V30 1038 H 102.886 -0.746363 0.0308524 0
M  V30 1039 H 105.548 -1.78645 0.779237 0
M  V30 1040 H 104.644 -3.1208 0.0353086 0
M  V30 1041 N 104.945 -0.338344 -1.53925 0
M  V30 1042 C 106.17 0.263987 -2.05713 0
M  V30 1043 C 106.595 1.43847 -1.21201 0
M  V30 1044 O 105.953 1.79904 -0.224535 0
M  V30 1045 C 106.001 0.662 -3.54471 0
M  V30 1046 O 105.105 1.76265 -3.72833 0
M  V30 1047 H 104.446 0.0448722 -0.662482 0
M  V30 1048 H 106.976 -0.491048 -1.9862 0
M  V30 1049 H 106.986 0.940594 -3.9701 0
M  V30 1050 H 105.661 -0.196937 -4.15433 0
M  V30 1051 H 104.238 1.48173 -3.42198 0
M  V30 1052 N 106.423 1.57458 -0.0668435 0
M  V30 1053 C 107.669 1.93587 0.6043 0
M  V30 1054 C 108.002 0.946722 1.69561 0
M  V30 1055 O 107.277 -0.0248516 1.94484 0
M  V30 1056 C 107.56 3.40014 1.18585 0
M  V30 1057 C 107.413 4.49685 0.101529 0
M  V30 1058 C 108.732 3.87154 2.09284 0
M  V30 1059 H 105.851 0.703958 0.218202 0
M  V30 1060 H 108.493 1.89542 -0.131804 0
M  V30 1061 H 106.643 3.43592 1.81319 0
M  V30 1062 H 108.315 4.5823 -0.531279 0
M  V30 1063 H 106.558 4.30059 -0.568487 0
M  V30 1064 H 107.229 5.49266 0.54874 0
M  V30 1065 H 109.705 3.85551 1.56491 0
M  V30 1066 H 108.581 4.90231 2.46911 0
M  V30 1067 H 108.842 3.2481 2.99918 0
M  V30 1068 N 107.901 -0.206675 1.56239 0
M  V30 1069 C 109.149 -0.927007 1.79586 0
M  V30 1070 C 109.47 -1.8427 0.637929 0
M  V30 1071 O 108.74 -1.92849 -0.344398 0
M  V30 1072 H 107.32 -0.345292 0.662407 0
M  V30 1073 H 109.982 -0.21496 1.93711 0
M  V30 1074 H 109.078 -1.52501 2.72305 0
M  V30 1075 N 109.379 -1.50304 -0.473955 0
M  V30 1076 C 110.342 -1.6841 -1.55469 0
M  V30 1077 C 111.342 -0.554905 -1.50922 0
M  V30 1078 O 112.532 -0.821882 -1.53593 0
M  V30 1079 C 109.664 -1.70667 -2.95102 0
M  V30 1080 H 110.857 -2.64828 -1.40733 0
M  V30 1081 H 108.41 -1.39742 -0.700132 0
M  V30 1082 H 109.145 -0.75932 -3.15285 0
M  V30 1083 H 108.93 -2.52698 -2.9981 0
M  V30 1084 H 110.42 -1.8664 -3.73571 0
M  V30 1085 N 110.857 0.726932 -1.39834 0
M  V30 1086 C 112.273 1.03354 -1.21615 0
M  V30 1087 C 112.473 2.01327 -0.08338 0
M  V30 1088 O 111.529 2.46158 0.56238 0
M  V30 1089 C 112.842 1.58811 -2.55342 0
M  V30 1090 C 114.39 1.70851 -2.62257 0
M  V30 1091 C 114.865 2.29716 -3.96225 0
M  V30 1092 N 116.356 2.37116 -3.97907 0
M  V30 1093 C 117.091 2.83619 -4.98345 0
M  V30 1094 N 116.587 3.29958 -6.09179 0
M  V30 1095 N 118.38 2.82901 -4.8572 0
M  V30 1096 H 110.531 0.0773069 -2.12259 0
M  V30 1097 H 112.794 0.0969102 -0.943034 0
M  V30 1098 H 112.5 0.942855 -3.38826 0
M  V30 1099 H 112.374 2.57502 -2.75632 0
M  V30 1100 H 114.761 2.34497 -1.79152 0
M  V30 1101 H 114.842 0.707913 -2.45809 0
M  V30 1102 H 114.486 1.66696 -4.79765 0
M  V30 1103 H 114.416 3.30469 -4.09997 0
M  V30 1104 H 116.907 2.04374 -3.17868 0
M  V30 1105 H 117.22 3.63976 -6.8172 0
M  V30 1106 H 115.565 3.27946 -6.12761 0
M  V30 1107 H 118.756 2.46027 -3.98231 0
M  V30 1108 H 118.929 3.18827 -5.6414 0
M  V30 1109 N 112.336 1.25143 0.95797 0
M  V30 1110 C 113.246 1.06968 2.08794 0
M  V30 1111 C 114.262 0.00773911 1.73998 0
M  V30 1112 O 115.438 0.207972 2.00323 0
M  V30 1113 C 112.503 0.68691 3.39827 0
M  V30 1114 C 111.564 1.82641 3.88511 0
M  V30 1115 C 110.797 1.46181 5.1329 0
M  V30 1116 O 111.02 0.355971 5.69288 0
M  V30 1117 O 109.954 2.29085 5.566 0
M  V30 1118 H 113.78 2.01723 2.27027 0
M  V30 1119 H 111.365 1.04051 1.07209 0
M  V30 1120 H 113.247 0.485417 4.18595 0
M  V30 1121 H 111.922 -0.231417 3.22872 0
M  V30 1122 H 110.829 2.08274 3.10762 0
M  V30 1123 H 112.162 2.72386 4.09959 0
M  V30 1124 N 113.814 -1.1601 1.06675 0
M  V30 1125 C 115.225 -1.68235 0.809565 0
M  V30 1126 C 115.576 -1.8454 -0.666303 0
M  V30 1127 O 114.701 -1.54374 -1.5165 0
M  V30 1128 C 115.296 -3.05585 1.46299 0
M  V30 1129 C 113.855 -3.54915 1.25349 0
M  V30 1130 C 113.002 -2.30804 1.53703 0
M  V30 1131 H 115.953 -1.00318 1.22971 0
M  V30 1132 H 115.974 -3.70174 0.880431 0
M  V30 1133 H 115.486 -2.93686 2.53713 0
M  V30 1134 H 113.587 -3.72067 0.199261 0
M  V30 1135 H 113.7 -4.36774 1.9689 0
M  V30 1136 H 112.064 -2.36007 0.957739 0
M  V30 1137 H 112.847 -2.21499 2.62284 0
M  V30 1138 N 115.292 -0.849877 -1.32721 0
M  V30 1139 C 116.202 -0.293791 -2.32753 0
M  V30 1140 C 117.218 0.585906 -1.63839 0
M  V30 1141 O 118.394 0.487413 -1.95413 0
M  V30 1142 C 115.459 0.512752 -3.42887 0
M  V30 1143 C 114.52 -0.39252 -4.27502 0
M  V30 1144 C 113.753 0.375625 -5.32377 0
M  V30 1145 O 113.976 1.60613 -5.4732 0
M  V30 1146 O 112.91 -0.256094 -6.01355 0
M  V30 1147 H 116.736 -1.12242 -2.82197 0
M  V30 1148 H 114.321 -0.612685 -1.36259 0
M  V30 1149 H 116.203 0.970704 -4.10067 0
M  V30 1150 H 114.878 1.31826 -2.95641 0
M  V30 1151 H 113.785 -0.898547 -3.63149 0
M  V30 1152 H 115.118 -1.16309 -4.7826 0
M  V30 1153 N 116.77 1.45427 -0.607355 0
M  V30 1154 C 117.733 2.28974 0.101693 0
M  V30 1155 C 118.733 1.39754 0.795329 0
M  V30 1156 O 119.923 1.61878 0.643527 0
M  V30 1157 C 117.055 3.20768 1.15414 0
M  V30 1158 H 118.248 2.93147 -0.632844 0
M  V30 1159 H 115.801 1.51945 -0.366391 0
M  V30 1160 H 116.536 2.61395 1.91945 0
M  V30 1161 H 116.321 3.86489 0.66098 0
M  V30 1162 H 117.811 3.83589 1.65073 0
M  V30 1163 N 118.248 0.346503 1.53744 0
M  V30 1164 C 119.211 -0.496439 2.23759 0
M  V30 1165 C 120.211 -1.0252 1.2388 0
M  V30 1166 O 121.401 -0.913974 1.48297 0
M  V30 1167 C 118.533 -1.69187 2.95954 0
M  V30 1168 H 119.726 0.115952 2.99676 0
M  V30 1169 H 117.279 0.0978939 1.55993 0
M  V30 1170 H 118.014 -2.34288 2.24231 0
M  V30 1171 H 117.799 -1.31989 3.69217 0
M  V30 1172 H 119.289 -2.28969 3.49232 0
M  V30 1173 N 119.726 -1.57421 0.075193 0
M  V30 1174 C 120.636 -2.1642 -0.905511 0
M  V30 1175 C 121.652 -1.12828 -1.32461 0
M  V30 1176 O 122.828 -1.45109 -1.39661 0
M  V30 1177 C 119.893 -2.71693 -2.15369 0
M  V30 1178 C 118.954 -3.90171 -1.79068 0
M  V30 1179 C 118.187 -4.42798 -2.97936 0
M  V30 1180 O 118.41 -3.94416 -4.12058 0
M  V30 1181 O 117.344 -5.34085 -2.77555 0
M  V30 1182 H 121.17 -3.00588 -0.433626 0
M  V30 1183 H 118.755 -1.48664 -0.148067 0
M  V30 1184 H 120.637 -3.07104 -2.88557 0
M  V30 1185 H 119.312 -1.90582 -2.61649 0
M  V30 1186 H 118.219 -3.59606 -1.03122 0
M  V30 1187 H 119.552 -4.72584 -1.37569 0
M  V30 1188 N 121.204 0.198386 -1.56346 0
M  V30 1189 C 122.615 0.763358 -1.70381 0
M  V30 1190 C 122.966 1.83995 -0.681203 0
M  V30 1191 O 122.091 2.15785 0.16305 0
M  V30 1192 C 122.686 1.39143 -3.08909 0
M  V30 1193 C 121.245 1.90352 -3.2472 0
M  V30 1194 C 120.392 0.772233 -2.6633 0
M  V30 1195 H 123.343 -0.0266377 -1.58678 0
M  V30 1196 H 123.364 2.26076 -3.06055 0
M  V30 1197 H 122.876 0.607638 -3.83314 0
M  V30 1198 H 120.977 2.71461 -2.55225 0
M  V30 1199 H 121.09 2.06757 -4.3219 0
M  V30 1200 H 119.454 1.18566 -2.2542 0
M  V30 1201 H 120.237 0.00073556 -3.433 0
M  V30 1202 N 122.682 1.50554 0.465978 0
M  V30 1203 C 123.645 1.69233 1.54574 0
M  V30 1204 C 124.645 0.562901 1.50626 0
M  V30 1205 O 125.835 0.830016 1.53155 0
M  V30 1206 C 122.967 1.7223 2.94193 0
M  V30 1207 H 124.16 2.65571 1.39327 0
M  V30 1208 H 121.713 1.40111 0.692711 0
M  V30 1209 H 122.448 0.77603 3.14878 0
M  V30 1210 H 122.233 2.54285 2.98466 0
M  V30 1211 H 123.723 1.88618 3.72576 0
M  V30 1212 N 124.16 -0.719506 1.40217 0
M  V30 1213 C 125.388 -1.50864 1.41589 0
M  V30 1214 C 125.803 -1.88794 0.0145275 0
M  V30 1215 O 125.16 -1.55174 -0.960594 0
M  V30 1216 C 125.211 -2.78646 2.30302 0
M  V30 1217 O 124.932 -2.42321 3.64983 0
M  V30 1218 C 126.433 -3.72569 2.40224 0
M  V30 1219 H 123.653 -0.465709 0.48307 0
M  V30 1220 H 126.197 -0.88785 1.84221 0
M  V30 1221 H 124.352 -3.37019 1.91042 0
M  V30 1222 H 124.766 -3.24514 4.12057 0
M  V30 1223 H 126.24 -4.5908 3.06512 0
M  V30 1224 H 126.717 -4.15403 1.42608 0
M  V30 1225 H 127.323 -3.20109 2.80019 0
M  V30 1226 N 125.638 -1.25649 -0.95132 0
M  V30 1227 C 126.571 -1.00644 -2.04807 0
M  V30 1228 C 127.549 0.0654271 -1.62468 0
M  V30 1229 O 128.733 -0.074911 -1.88351 0
M  V30 1230 C 125.86 -0.522052 -3.34653 0
M  V30 1231 C 124.906 -1.58495 -3.95957 0
M  V30 1232 S 125.739 -3.17108 -4.31512 0
M  V30 1233 C 126.895 -2.70412 -5.64471 0
M  V30 1234 H 127.128 -1.93508 -2.25703 0
M  V30 1235 H 124.661 -1.09216 -1.09139 0
M  V30 1236 H 126.619 -0.24923 -4.09743 0
M  V30 1237 H 125.28 0.386146 -3.11717 0
M  V30 1238 H 124.473 -1.1968 -4.89584 0
M  V30 1239 H 124.075 -1.80862 -3.2736 0
M  V30 1240 H 126.367 -2.14245 -6.42733 0
M  V30 1241 H 127.31 -3.62693 -6.08161 0
M  V30 1242 H 127.718 -2.10302 -5.23864 0
M  V30 1243 N 127.117 1.15442 -1.07289 0
M  V30 1244 C 128.363 1.86489 -0.796846 0
M  V30 1245 C 128.696 1.82078 0.675371 0
M  V30 1246 O 127.971 1.24346 1.4956 0
M  V30 1247 C 128.254 3.35626 -1.30489 0
M  V30 1248 C 128.107 3.48673 -2.84161 0
M  V30 1249 C 129.426 4.30357 -0.920907 0
M  V30 1250 H 126.545 0.677144 -0.290939 0
M  V30 1251 H 129.187 1.35633 -1.33056 0
M  V30 1252 H 127.337 3.79068 -0.850883 0
M  V30 1253 H 129.009 3.14099 -3.37846 0
M  V30 1254 H 127.252 2.90253 -3.22391 0
M  V30 1255 H 127.923 4.53453 -3.14777 0
M  V30 1256 H 130.399 3.94871 -1.3121 0
M  V30 1257 H 129.275 5.33193 -1.30372 0
M  V30 1258 H 129.536 4.4176 0.173226 0
M  V30 1259 N 128.595 0.856903 1.32268 0
M  V30 1260 C 129.841 0.462069 1.97466 0
M  V30 1261 C 130.174 -0.980298 1.67642 0
M  V30 1262 O 129.449 -1.68824 0.965858 0
M  V30 1263 C 129.732 0.704336 3.53145 0
M  V30 1264 C 129.585 2.19529 3.9259 0
M  V30 1265 C 130.904 0.1622 4.39801 0
M  V30 1266 H 128.023 0.169357 0.717278 0
M  V30 1267 H 130.665 1.07574 1.56614 0
M  V30 1268 H 128.815 0.181999 3.88073 0
M  V30 1269 H 130.487 2.78387 3.67829 0
M  V30 1270 H 128.73 2.67292 3.41668 0
M  V30 1271 H 129.401 2.31549 5.01088 0
M  V30 1272 H 131.877 0.608905 4.11621 0
M  V30 1273 H 130.753 0.361265 5.4771 0
M  V30 1274 H 131.014 -0.935158 4.32096 0
M  V30 1275 N 130.073 -1.45103 0.615059 0
M  V30 1276 C 131.484 -1.85654 0.197383 0
M  V30 1277 C 131.835 -1.51433 -1.24749 0
M  V30 1278 O 130.96 -0.944608 -1.94695 0
M  V30 1279 C 131.555 -3.36972 0.351448 0
M  V30 1280 C 130.114 -3.76398 -0.011593 0
M  V30 1281 C 129.261 -2.69024 0.672394 0
M  V30 1282 H 132.212 -1.35797 0.821263 0
M  V30 1283 H 132.233 -3.78239 -0.414227 0
M  V30 1284 H 131.745 -3.61847 1.40314 0
M  V30 1285 H 129.846 -3.5714 -1.06217 0
M  V30 1286 H 129.959 -4.77532 0.387265 0
M  V30 1287 H 128.323 -2.54465 0.109284 0
M  V30 1288 H 129.106 -2.96735 1.72636 0
M  V30 1289 N 131.551 -0.354651 -1.53558 0
M  V30 1290 C 132.481 0.489091 -2.2832 0
M  V30 1291 C 133.462 1.09324 -1.30316 0
M  V30 1292 O 134.647 1.11255 -1.59173 0
M  V30 1293 C 131.777 1.63456 -3.0643 0
M  V30 1294 C 130.731 1.1582 -4.12031 0
M  V30 1295 C 130.057 2.39305 -4.7816 0
M  V30 1296 C 131.357 0.250731 -5.21698 0
M  V30 1297 H 133.051 -0.134614 -2.99097 0
M  V30 1298 H 130.597 -0.0661826 -1.43848 0
M  V30 1299 H 132.55 2.23136 -3.57475 0
M  V30 1300 H 131.274 2.28533 -2.33325 0
M  V30 1301 H 129.933 0.584146 -3.61916 0
M  V30 1302 H 129.581 3.02814 -4.01637 0
M  V30 1303 H 129.281 2.08109 -5.49513 0
M  V30 1304 H 130.805 2.99691 -5.31994 0
M  V30 1305 H 132.219 0.754695 -5.68311 0
M  V30 1306 H 130.616 0.0301468 -6.00092 0
M  V30 1307 H 131.686 -0.710125 -4.79672 0
M  V30 1308 N 133.029 1.57378 -0.0835403 0
M  V30 1309 C 133.992 2.12252 0.864959 0
M  V30 1310 C 134.992 1.04916 1.21858 0
M  V30 1311 O 136.182 1.30853 1.14991 0
M  V30 1312 C 133.314 2.63358 2.16461 0
M  V30 1313 H 134.507 2.97371 0.388676 0
M  V30 1314 H 132.06 1.55423 0.165317 0
M  V30 1315 H 132.795 1.81727 2.686 0
M  V30 1316 H 132.58 3.41826 1.92087 0
M  V30 1317 H 134.07 3.05847 2.84337 0
M  V30 1318 N 134.507 -0.190092 1.56449 0
M  V30 1319 C 135.732 -0.929864 1.85387 0
M  V30 1320 C 136.157 -1.7585 0.667704 0
M  V30 1321 O 135.515 -1.77198 -0.383459 0
M  V30 1322 C 135.563 -1.79773 3.12593 0
M  V30 1323 O 134.667 -2.89713 2.93496 0
M  V30 1324 H 134.008 -0.261574 0.610307 0
M  V30 1325 H 136.538 -0.193896 2.03679 0
M  V30 1326 H 136.548 -2.20139 3.43515 0
M  V30 1327 H 135.223 -1.18892 3.98544 0
M  V30 1328 H 133.8 -2.53065 2.73884 0
M  V30 1329 N 135.985 -1.50799 -0.457987 0
M  V30 1330 C 137.21 -1.66496 -1.23668 0
M  V30 1331 C 137.635 -0.353288 -1.84752 0
M  V30 1332 O 136.993 0.684346 -1.67888 0
M  V30 1333 C 137.041 -2.76763 -2.3116 0
M  V30 1334 O 136.145 -2.38928 -3.36136 0
M  V30 1335 H 135.486 -0.555828 -0.363252 0
M  V30 1336 H 138.016 -1.9725 -0.543474 0
M  V30 1337 H 138.026 -3.00232 -2.76269 0
M  V30 1338 H 136.701 -3.71954 -1.86073 0
M  V30 1339 H 135.278 -2.25953 -2.96647 0
M  V30 1340 N 137.463 0.71206 -1.40597 0
M  V30 1341 C 138.373 1.8562 -1.43466 0
M  V30 1342 C 139.389 1.70902 -0.326902 0
M  V30 1343 O 140.565 1.93105 -0.572043 0
M  V30 1344 C 137.63 3.21451 -1.29884 0
M  V30 1345 C 136.691 3.48398 -2.50833 0
M  V30 1346 C 135.924 4.77749 -2.3789 0
M  V30 1347 O 136.147 5.53089 -1.39459 0
M  V30 1348 O 135.081 5.05111 -3.27333 0
M  V30 1349 H 138.907 1.86155 -2.39958 0
M  V30 1350 H 136.492 0.86295 -1.21957 0
M  V30 1351 H 138.374 4.02579 -1.24531 0
M  V30 1352 H 137.049 3.21636 -0.364997 0
M  V30 1353 H 135.956 2.67265 -2.61763 0
M  V30 1354 H 137.289 3.53014 -3.4299 0
M  V30 1355 N 138.941 1.26152 0.944643 0
M  V30 1356 C 139.904 1.07474 2.0244 0
M  V30 1357 C 140.904 0.0242064 1.60782 0
M  V30 1358 O 142.094 0.267302 1.72137 0
M  V30 1359 C 139.226 0.633956 3.34953 0
M  V30 1360 H 140.419 2.03336 2.20442 0
M  V30 1361 H 137.972 1.087 1.12312 0
M  V30 1362 H 138.707 -0.326811 3.22649 0
M  V30 1363 H 138.492 1.39247 3.66542 0
M  V30 1364 H 139.982 0.52501 4.14287 0
M  V30 1365 N 140.419 -1.14872 1.07899 0
M  V30 1366 C 141.351 -2.19425 0.662231 0
M  V30 1367 C 142.364 -1.60231 -0.288079 0
M  V30 1368 O 143.553 -1.78336 -0.076534 0
M  V30 1369 C 140.653 -3.38867 -0.0470695 0
M  V30 1370 C 139.826 -4.27597 0.920831 0
M  V30 1371 C 138.885 -5.25616 0.247805 0
M  V30 1372 O 137.911 -5.62189 0.890599 0
M  V30 1373 N 139.113 -5.71746 -1.00435 0
M  V30 1374 H 141.878 -2.55797 1.56166 0
M  V30 1375 H 139.439 -1.30042 0.964404 0
M  V30 1376 H 141.431 -4.01497 -0.50813 0
M  V30 1377 H 140.001 -3.00864 -0.848523 0
M  V30 1378 H 139.221 -3.61982 1.56087 0
M  V30 1379 H 140.509 -4.83748 1.57688 0
M  V30 1380 H 139.907 -5.44153 -1.54642 0
M  V30 1381 H 138.464 -6.36389 -1.40899 0
M  V30 1382 N 141.898 -0.863906 -1.31812 0
M  V30 1383 C 143.126 -0.486111 -2.01108 0
M  V30 1384 C 143.541 0.919755 -1.64882 0
M  V30 1385 O 142.898 1.60162 -0.874893 0
M  V30 1386 C 142.949 -0.626435 -3.56031 0
M  V30 1387 O 142.67 -1.97693 -3.90959 0
M  V30 1388 C 144.171 -0.248857 -4.42601 0
M  V30 1389 H 141.391 -0.190052 -0.643523 0
M  V30 1390 H 143.935 -1.1634 -1.68182 0
M  V30 1391 H 142.09 0.00322717 -3.874 0
M  V30 1392 H 142.504 -1.98034 -4.85678 0
M  V30 1393 H 143.978 -0.398016 -5.50563 0
M  V30 1394 H 144.455 0.811489 -4.31638 0
M  V30 1395 H 145.061 -0.853971 -4.16638 0
M  V30 1396 N 143.376 1.44774 -0.622745 0
M  V30 1397 C 144.622 2.0242 -0.124083 0
M  V30 1398 C 144.955 1.4881 1.24777 0
M  V30 1399 O 144.23 0.668799 1.8264 0
M  V30 1400 C 144.513 3.59957 -0.101619 0
M  V30 1401 C 144.366 4.23867 -1.50521 0
M  V30 1402 C 145.685 4.36284 0.578272 0
M  V30 1403 H 142.804 0.735528 -0.0465645 0
M  V30 1404 H 145.446 1.72447 -0.797617 0
M  V30 1405 H 143.596 3.85623 0.471934 0
M  V30 1406 H 145.268 4.09336 -2.12701 0
M  V30 1407 H 143.511 3.81684 -2.06154 0
M  V30 1408 H 144.182 5.32843 -1.4416 0
M  V30 1409 H 146.658 4.16001 0.0906057 0
M  V30 1410 H 145.534 5.46004 0.563149 0
M  V30 1411 H 145.795 4.10271 1.64713 0
M  V30 1412 N 144.854 0.36279 1.53368 0
M  V30 1413 C 145.786 -0.519668 2.23231 0
M  V30 1414 C 146.799 -1.04844 1.24546 0
M  V30 1415 O 147.988 -0.955296 1.50786 0
M  V30 1416 C 145.088 -1.72995 2.9142 0
M  V30 1417 C 144.261 -1.33316 4.16588 0
M  V30 1418 C 143.32 -2.40521 4.68013 0
M  V30 1419 O 142.346 -2.03027 5.3176 0
M  V30 1420 N 143.548 -3.72065 4.45587 0
M  V30 1421 H 146.313 0.078751 2.99597 0
M  V30 1422 H 143.874 0.187833 1.60807 0
M  V30 1423 H 145.866 -2.44184 3.22733 0
M  V30 1424 H 144.436 -2.2353 2.18525 0
M  V30 1425 H 143.656 -0.451236 3.91609 0
M  V30 1426 H 144.944 -1.04432 4.97967 0
M  V30 1427 H 144.342 -4.05304 3.94646 0
M  V30 1428 H 142.899 -4.39366 4.81457 0
M  V30 1429 N 146.332 -1.57332 0.0918853 0
M  V30 1430 C 147.557 -1.98995 -0.584442 0
M  V30 1431 C 147.982 -0.970528 -1.61128 0
M  V30 1432 O 147.34 0.0613904 -1.81196 0
M  V30 1433 C 147.388 -3.39636 -1.21161 0
M  V30 1434 O 146.492 -3.40447 -2.32744 0
M  V30 1435 H 145.833 -0.647165 -0.148572 0
M  V30 1436 H 148.363 -2.03873 0.172347 0
M  V30 1437 H 148.373 -3.7726 -1.55367 0
M  V30 1438 H 147.048 -4.13356 -0.459313 0
M  V30 1439 H 145.625 -3.14614 -2.0018 0
M  V30 1440 N 147.81 0.181792 -1.56548 0
M  V30 1441 C 148.74 1.22765 -1.98623 0
M  V30 1442 C 149.721 1.46747 -0.860189 0
M  V30 1443 O 150.906 1.58259 -1.12551 0
M  V30 1444 C 148.036 2.56894 -2.33715 0
M  V30 1445 C 146.99 2.475 -3.49182 0
M  V30 1446 C 146.316 3.86023 -3.69986 0
M  V30 1447 C 147.616 1.98866 -4.82959 0
M  V30 1448 H 149.31 0.877942 -2.86239 0
M  V30 1449 H 146.856 0.42088 -1.37712 0
M  V30 1450 H 148.809 3.30253 -2.61746 0
M  V30 1451 H 147.533 2.93632 -1.42997 0
M  V30 1452 H 146.192 1.76596 -3.21262 0
M  V30 1453 H 145.84 4.20136 -2.76576 0
M  V30 1454 H 145.54 3.80609 -4.47672 0
M  V30 1455 H 147.064 4.60984 -4.00407 0
M  V30 1456 H 148.478 2.61992 -5.09934 0
M  V30 1457 H 146.875 2.04424 -5.64208 0
M  V30 1458 H 147.945 0.942465 -4.75653 0
M  V30 1459 N 149.288 1.51039 0.449983 0
M  V30 1460 C 150.536 1.62759 1.19808 0
M  V30 1461 C 150.857 0.339981 1.92013 0
M  V30 1462 O 150.127 -0.643606 1.85026 0
M  V30 1463 H 148.707 0.599811 0.445237 0
M  V30 1464 H 151.369 1.87914 0.517138 0
M  V30 1465 H 150.465 2.44911 1.93455 0
M  V30 1466 N 150.766 -0.704594 1.40972 0
M  V30 1467 C 152.013 -1.46458 1.39844 0
M  V30 1468 C 152.341 -1.94499 0.00447594 0
M  V30 1469 O 151.596 -1.69275 -0.982057 0
M  V30 1470 C 151.895 -2.698 2.34399 0
M  V30 1471 C 151.561 -2.40464 3.81429 0
M  V30 1472 C 150.223 -2.32174 4.21484 0
M  V30 1473 C 152.575 -2.16086 4.74296 0
M  V30 1474 C 149.903 -1.97589 5.52427 0
M  V30 1475 C 152.255 -1.83011 6.05549 0
M  V30 1476 C 150.919 -1.7321 6.44635 0
M  V30 1477 H 150.189 -0.535927 0.511725 0
M  V30 1478 H 152.836 -0.806124 1.73706 0
M  V30 1479 H 151.141 -3.40536 1.93759 0
M  V30 1480 H 152.838 -3.27919 2.30804 0
M  V30 1481 H 149.428 -2.47808 3.49699 0
M  V30 1482 H 153.612 -2.2144 4.4416 0
M  V30 1483 H 148.868 -1.88547 5.81601 0
M  V30 1484 H 153.042 -1.63164 6.77016 0
M  V30 1485 H 150.669 -1.46179 7.46013 0
M  V30 1486 N 152.244 -1.26651 -0.937939 0
M  V30 1487 C 153.207 -1.08546 -2.01867 0
M  V30 1488 C 154.207 -0.0327327 -1.60767 0
M  V30 1489 O 155.397 -0.276427 -1.71993 0
M  V30 1490 C 152.529 -0.651711 -3.34613 0
M  V30 1491 H 153.722 -2.04502 -2.1936 0
M  V30 1492 H 151.275 -1.09294 -1.11734 0
M  V30 1493 H 152.01 0.309696 -3.22818 0
M  V30 1494 H 151.795 -1.41189 -3.65798 0
M  V30 1495 H 153.285 -0.546973 -4.14002 0
M  V30 1496 N 153.722 1.14298 -1.08507 0
M  V30 1497 C 154.971 1.84708 -0.810305 0
M  V30 1498 C 155.284 1.83903 0.666271 0
M  V30 1499 O 156.49 2.50112 1.05624 0
M  V30 1500 C 154.946 3.31572 -1.39957 0
M  V30 1501 C 154.554 3.40791 -2.90801 0
M  V30 1502 C 156.298 4.07087 -1.20334 0
M  V30 1503 C 154.205 4.81872 -3.4286 0
M  V30 1504 H 153.135 0.691985 -0.299454 0
M  V30 1505 H 155.786 1.28841 -1.30661 0
M  V30 1506 H 154.168 3.87183 -0.830976 0
M  V30 1507 H 155.342 2.95225 -3.53806 0
M  V30 1508 H 153.657 2.78732 -3.0935 0
M  V30 1509 H 156.254 5.11225 -1.56693 0
M  V30 1510 H 156.597 4.16054 -0.143237 0
M  V30 1511 H 157.13 3.57779 -1.73893 0
M  V30 1512 H 153.869 4.78094 -4.48449 0
M  V30 1513 H 153.389 5.27972 -2.84615 0
M  V30 1514 H 155.068 5.50765 -3.39509 0
M  V30 1515 N 155.201 0.870884 1.31352 0
M  V30 1516 C 156.431 0.496049 2.00557 0
M  V30 1517 C 156.839 -0.916241 1.65534 0
M  V30 1518 O 156.182 -1.61188 0.881134 0
M  V30 1519 C 156.244 0.574418 3.54881 0
M  V30 1520 C 155.908 1.94849 4.1338 0
M  V30 1521 C 156.905 2.91611 4.30417 0
M  V30 1522 C 154.59 2.25005 4.49086 0
M  V30 1523 C 156.584 4.16672 4.82352 0
M  V30 1524 C 154.271 3.50315 5.00722 0
M  V30 1525 C 155.269 4.45964 5.17306 0
M  V30 1526 O 154.957 5.69052 5.67833 0
M  V30 1527 H 154.689 0.191664 0.64826 0
M  V30 1528 H 157.243 1.17409 1.68536 0
M  V30 1529 H 155.473 -0.160549 3.86367 0
M  V30 1530 H 157.162 0.212879 4.05341 0
M  V30 1531 H 157.928 2.69622 4.03149 0
M  V30 1532 H 153.807 1.51332 4.35453 0
M  V30 1533 H 157.351 4.91336 4.95211 0
M  V30 1534 H 153.248 3.72147 5.27424 0
M  V30 1535 H 154.016 5.71236 5.86201 0
M  V30 1536 N 156.679 -1.44442 0.630414 0
M  V30 1537 C 158.095 -1.56832 0.295973 0
M  V30 1538 C 158.295 -1.61806 -1.20088 0
M  V30 1539 O 157.351 -1.5607 -1.9849 0
M  V30 1540 C 158.664 -2.84031 0.987264 0
M  V30 1541 C 160.212 -2.97742 0.96534 0
M  V30 1542 C 160.687 -4.27743 1.63708 0
M  V30 1543 N 162.178 -4.34555 1.60364 0
M  V30 1544 C 162.913 -5.33862 2.09234 0
M  V30 1545 N 162.409 -6.39578 2.66292 0
M  V30 1546 N 164.202 -5.25366 1.99867 0
M  V30 1547 H 156.353 -1.39457 1.60205 0
M  V30 1548 H 158.616 -0.668237 0.672431 0
M  V30 1549 H 158.322 -2.86338 2.04215 0
M  V30 1550 H 158.196 -3.73534 0.524588 0
M  V30 1551 H 160.583 -2.94989 -0.0810639 0
M  V30 1552 H 160.664 -2.09589 1.4665 0
M  V30 1553 H 160.308 -4.31255 2.68293 0
M  V30 1554 H 160.238 -5.14752 1.11076 0
M  V30 1555 H 162.729 -3.58772 1.18705 0
M  V30 1556 H 163.042 -7.11637 3.01317 0
M  V30 1557 H 161.387 -6.40265 2.70343 0
M  V30 1558 H 164.578 -4.41688 1.55013 0
M  V30 1559 H 164.751 -6.02606 2.38265 0
M  V30 1560 N 158.157 -0.370918 -1.53173 0
M  V30 1561 C 159.12 0.460778 -2.24521 0
M  V30 1562 C 160.12 1.00536 -1.25496 0
M  V30 1563 O 161.31 0.890266 -1.49733 0
M  V30 1564 C 158.442 1.64457 -2.98608 0
M  V30 1565 H 159.635 -0.163613 -2.99453 0
M  V30 1566 H 157.188 -0.122699 -1.55818 0
M  V30 1567 H 157.923 2.30691 -2.2793 0
M  V30 1568 H 157.708 1.26099 -3.7127 0
M  V30 1569 H 159.198 2.23384 -3.5283 0
M  V30 1570 N 159.635 1.57281 -0.100228 0
M  V30 1571 C 160.565 2.17328 0.853857 0
M  V30 1572 C 161.546 1.10804 1.2906 0
M  V30 1573 O 162.731 1.38963 1.35657 0
M  V30 1574 C 159.861 2.75772 2.11109 0
M  V30 1575 C 158.815 3.87713 1.81279 0
M  V30 1576 C 158.141 4.32882 3.13874 0
M  V30 1577 C 159.441 5.10677 1.09574 0
M  V30 1578 H 161.135 2.97305 0.353545 0
M  V30 1579 H 158.681 1.43009 0.168612 0
M  V30 1580 H 160.634 3.16433 2.78296 0
M  V30 1581 H 159.358 1.93057 2.63432 0
M  V30 1582 H 158.017 3.476 1.16489 0
M  V30 1583 H 157.665 3.47051 3.64095 0
M  V30 1584 H 157.365 5.08358 2.94696 0
M  V30 1585 H 158.889 4.7618 3.82211 0
M  V30 1586 H 160.303 5.48474 1.66879 0
M  V30 1587 H 158.7 5.91615 1.00557 0
M  V30 1588 H 159.77 4.84835 0.0793299 0
M  V30 1589 N 161.113 -0.173488 1.56642 0
M  V30 1590 C 162.39 -0.917617 1.7274 0
M  V30 1591 C 162.77 -2.00484 0.661027 0
M  V30 1592 O 162.118 -2.26184 -0.32453 0
M  V30 1593 C 162.328 -1.48433 3.15862 0
M  V30 1594 C 163.676 -1.95809 3.76754 0
M  V30 1595 O 164.7 -1.58231 3.19126 0
M  V30 1596 O 163.559 -2.65024 4.77938 0
M  V30 1597 H 160.653 -0.431772 0.705338 0
M  V30 1598 H 163.199 -0.161487 1.6893 0
M  V30 1599 H 161.971 -0.701715 3.84957 0
M  V30 1600 H 161.594 -2.30471 3.23989 0
M  V30 1601 N 162.591 -1.51276 -0.441967 0
M  V30 1602 C 163.837 -1.6492 -1.1905 0
M  V30 1603 C 164.192 -0.358731 -1.89026 0
M  V30 1604 O 163.485 0.645193 -1.8041 0
M  V30 1605 C 163.679 -2.78746 -2.23686 0
M  V30 1606 C 163.508 -4.18737 -1.63979 0
M  V30 1607 C 162.278 -4.84739 -1.42674 0
M  V30 1608 C 164.476 -5.01988 -1.11858 0
M  V30 1609 N 162.458 -6.08858 -0.785159 0
M  V30 1610 C 163.829 -6.17071 -0.601989 0
M  V30 1611 C 165.884 -4.87551 -1.0099 0
M  V30 1612 C 164.587 -7.19299 0.0126012 0
M  V30 1613 C 166.613 -5.89983 -0.409206 0
M  V30 1614 C 165.975 -7.04333 0.0968651 0
M  V30 1615 H 162.074 -0.657416 -0.423471 0
M  V30 1616 H 164.658 -1.8849 -0.48782 0
M  V30 1617 H 162.829 -2.56848 -2.91348 0
M  V30 1618 H 164.561 -2.81595 -2.90666 0
M  V30 1619 H 161.316 -4.42528 -1.68719 0
M  V30 1620 H 161.74 -6.75282 -0.481942 0
M  V30 1621 H 166.382 -3.99401 -1.38703 0
M  V30 1622 H 164.1 -8.071 0.401879 0
M  V30 1623 H 167.686 -5.8088 -0.327079 0
M  V30 1624 H 166.566 -7.82238 0.554373 0
M  V30 1625 N 164.069 0.697108 -1.41344 0
M  V30 1626 C 165.317 1.45426 -1.40341 0
M  V30 1627 C 165.638 1.94996 -0.0128787 0
M  V30 1628 O 164.908 1.71599 0.945027 0
M  V30 1629 H 163.488 0.539594 -0.516573 0
M  V30 1630 H 166.15 0.825201 -1.76569 0
M  V30 1631 H 165.246 2.31817 -2.08967 0
M  V30 1632 N 165.547 1.27147 0.931209 0
M  V30 1633 C 166.477 1.12081 2.04842 0
M  V30 1634 C 167.458 0.0232364 1.70084 0
M  V30 1635 O 168.643 0.197085 1.93197 0
M  V30 1636 C 165.773 0.76354 3.38803 0
M  V30 1637 C 164.727 1.81396 3.87659 0
M  V30 1638 C 164.053 1.31075 5.18385 0
M  V30 1639 C 165.353 3.21739 4.11438 0
M  V30 1640 H 167.047 2.05537 2.17703 0
M  V30 1641 H 164.593 0.989603 1.04608 0
M  V30 1642 H 166.546 0.644982 4.16435 0
M  V30 1643 H 165.27 -0.206727 3.25945 0
M  V30 1644 H 163.929 1.92136 3.12217 0
M  V30 1645 H 163.577 0.330037 5.01916 0
M  V30 1646 H 163.277 2.013 5.52044 0
M  V30 1647 H 164.801 1.20506 5.98591 0
M  V30 1648 H 166.215 3.14019 4.79651 0
M  V30 1649 H 164.612 3.89644 4.56397 0
M  V30 1650 H 165.682 3.67054 3.16859 0
M  V30 1651 N 167.025 -1.13721 1.09112 0
M  V30 1652 C 168.302 -1.81155 0.737706 0
M  V30 1653 C 168.682 -1.96253 -0.777683 0
M  V30 1654 O 168.03 -1.52807 -1.69889 0
M  V30 1655 C 168.24 -3.16392 1.47299 0
M  V30 1656 C 169.588 -3.91787 1.63671 0
M  V30 1657 O 170.612 -3.26005 1.43524 0
M  V30 1658 O 169.471 -5.0977 1.96969 0
M  V30 1659 H 166.565 -0.783518 0.26463 0
M  V30 1660 H 169.111 -1.20676 1.19312 0
M  V30 1661 H 167.883 -3.0061 2.50498 0
M  V30 1662 H 167.506 -3.8457 1.00953 0
M  V30 1663 N 168.503 -0.877838 -1.30888 0
M  V30 1664 C 169.413 -0.343096 -2.32078 0
M  V30 1665 C 170.429 0.551022 -1.65045 0
M  V30 1666 O 171.605 0.445854 -1.96403 0
M  V30 1667 C 168.67 0.439905 -3.43898 0
M  V30 1668 C 167.731 -0.483111 -4.26573 0
M  V30 1669 C 166.964 0.262616 -5.33053 0
M  V30 1670 O 167.187 1.48967 -5.50604 0
M  V30 1671 O 166.121 -0.383593 -6.00676 0
M  V30 1672 H 169.947 -1.18203 -2.79753 0
M  V30 1673 H 167.532 -0.64145 -1.34929 0
M  V30 1674 H 169.414 0.883504 -4.12034 0
M  V30 1675 H 168.089 1.25526 -2.98371 0
M  V30 1676 H 166.996 -0.975374 -3.61161 0
M  V30 1677 H 168.329 -1.26427 -4.75686 0
M  V30 1678 N 169.982 1.44106 -0.638065 0
M  V30 1679 C 171.207 2.0685 -0.150916 0
M  V30 1680 C 171.632 1.47417 1.16833 0
M  V30 1681 O 170.99 0.578264 1.71831 0
M  V30 1682 C 171.038 3.60555 -0.05708 0
M  V30 1683 O 170.142 4.00465 0.984972 0
M  V30 1684 H 169.483 0.658151 -0.0879399 0
M  V30 1685 H 172.013 1.84865 -0.876707 0
M  V30 1686 H 172.023 4.07789 0.131232 0
M  V30 1687 H 170.698 4.03193 -1.02021 0
M  V30 1688 H 169.275 3.64849 0.770672 0
M  V30 1689 N 171.46 0.379036 1.52974 0
M  V30 1690 C 172.37 -0.468639 2.29872 0
M  V30 1691 C 173.386 -1.08067 1.36373 0
M  V30 1692 O 174.562 -1.08871 1.69438 0
M  V30 1693 C 171.627 -1.58594 3.083 0
M  V30 1694 C 170.688 -1.00007 4.17489 0
M  V30 1695 C 169.921 -2.06413 4.92168 0
M  V30 1696 O 170.144 -3.27751 4.66835 0
M  V30 1697 O 169.078 -1.68717 5.7777 0
M  V30 1698 H 172.904 0.157508 3.03291 0
M  V30 1699 H 170.489 0.143035 1.48714 0
M  V30 1700 H 172.371 -2.23525 3.57232 0
M  V30 1701 H 171.046 -2.19724 2.37703 0
M  V30 1702 H 169.953 -0.314299 3.72777 0
M  V30 1703 H 171.286 -0.433135 4.90291 0
M  V30 1704 N 172.938 -1.57226 0.108567 0
M  V30 1705 C 173.848 -2.18292 -0.859401 0
M  V30 1706 C 174.864 -1.15612 -1.30038 0
M  V30 1707 O 176.04 -1.48039 -1.36552 0
M  V30 1708 C 173.105 -2.762 -2.09558 0
M  V30 1709 C 172.166 -3.93881 -1.70752 0
M  V30 1710 C 171.399 -4.49018 -2.88477 0
M  V30 1711 O 171.622 -4.03068 -4.036 0
M  V30 1712 O 170.556 -5.39852 -2.66164 0
M  V30 1713 H 174.382 -3.01441 -0.369769 0
M  V30 1714 H 171.967 -1.48945 -0.1165 0
M  V30 1715 H 173.849 -3.13156 -2.81978 0
M  V30 1716 H 172.524 -1.96089 -2.57548 0
M  V30 1717 H 171.431 -3.61713 -0.954714 0
M  V30 1718 H 172.764 -4.75396 -1.27513 0
M  V30 1719 N 174.416 0.165178 -1.56732 0
M  V30 1720 C 175.832 0.517174 -1.50988 0
M  V30 1721 C 176.032 1.84331 -0.813894 0
M  V30 1722 O 175.088 2.49672 -0.37682 0
M  V30 1723 C 176.401 0.544261 -2.95733 0
M  V30 1724 C 177.949 0.631039 -3.06573 0
M  V30 1725 C 178.424 0.68896 -4.52788 0
M  V30 1726 N 179.915 0.751683 -4.5706 0
M  V30 1727 C 180.65 0.817177 -5.67547 0
M  V30 1728 N 180.146 0.843129 -6.8765 0
M  V30 1729 N 181.939 0.856668 -5.55534 0
M  V30 1730 H 174.09 -0.704318 -2.00382 0
M  V30 1731 H 176.353 -0.254687 -0.913148 0
M  V30 1732 H 176.059 -0.361607 -3.49836 0
M  V30 1733 H 175.933 1.3886 -3.5071 0
M  V30 1734 H 178.32 1.52733 -2.52501 0
M  V30 1735 H 178.401 -0.240095 -2.54671 0
M  V30 1736 H 178.045 -0.2031 -5.07494 0
M  V30 1737 H 177.975 1.57633 -5.02454 0
M  V30 1738 H 180.466 0.739661 -3.70591 0
M  V30 1739 H 180.779 0.894448 -7.67606 0
M  V30 1740 H 179.124 0.811304 -6.90248 0
M  V30 1741 H 182.315 0.833437 -4.60621 0
M  V30 1742 H 182.488 0.904247 -6.4166 0
M  V30 1743 N 175.894 1.51508 0.433938 0
M  V30 1744 C 176.804 1.75917 1.5521 0
M  V30 1745 C 177.82 0.643545 1.61662 0
M  V30 1746 O 178.996 0.926183 1.7884 0
M  V30 1747 C 176.061 1.88213 2.91164 0
M  V30 1748 C 175.122 3.12074 2.94802 0
M  V30 1749 C 174.355 3.23774 4.24271 0
M  V30 1750 O 174.578 2.4133 5.16833 0
M  V30 1751 O 173.512 4.16774 4.34262 0
M  V30 1752 H 177.338 2.70777 1.37527 0
M  V30 1753 H 174.923 1.36051 0.617293 0
M  V30 1754 H 176.805 1.98267 3.71845 0
M  V30 1755 H 175.48 0.965413 3.08968 0
M  V30 1756 H 174.387 3.07497 2.13065 0
M  V30 1757 H 175.72 4.03446 2.81943 0
M  V30 1758 N 177.372 -0.689602 1.41712 0
M  V30 1759 C 178.302 -1.81577 1.46806 0
M  V30 1760 C 179.283 -1.66945 0.326105 0
M  V30 1761 O 180.468 -1.86588 0.538377 0
M  V30 1762 C 177.598 -3.19762 1.35535 0
M  V30 1763 C 176.552 -3.49107 2.47605 0
M  V30 1764 C 175.878 -4.86711 2.21397 0
M  V30 1765 C 177.178 -3.47483 3.89939 0
M  V30 1766 H 178.872 -1.7757 2.41058 0
M  V30 1767 H 176.418 -0.852887 1.16025 0
M  V30 1768 H 178.371 -3.98263 1.3771 0
M  V30 1769 H 177.095 -3.24409 0.377708 0
M  V30 1770 H 175.754 -2.72959 2.44722 0
M  V30 1771 H 175.402 -4.8799 1.21961 0
M  V30 1772 H 175.102 -5.0731 2.96497 0
M  V30 1773 H 176.626 -5.67515 2.25297 0
M  V30 1774 H 178.04 -4.1598 3.94505 0
M  V30 1775 H 176.437 -3.79615 4.64771 0
M  V30 1776 H 177.507 -2.46341 4.17665 0
M  V30 1777 N 178.85 -1.27639 -0.924453 0
M  V30 1778 C 180.075 -1.17101 -1.71179 0
M  V30 1779 C 180.5 0.268134 -1.86179 0
M  V30 1780 O 179.858 1.19415 -1.36418 0
M  V30 1781 C 179.906 -1.86313 -3.08739 0
M  V30 1782 O 179.01 -1.16331 -3.95652 0
M  V30 1783 H 178.351 -0.407091 -0.524569 0
M  V30 1784 H 180.881 -1.68767 -1.15666 0
M  V30 1785 H 180.891 -1.938 -3.59034 0
M  V30 1786 H 179.566 -2.91001 -2.97138 0
M  V30 1787 H 178.143 -1.16935 -3.54091 0
M  V30 1788 N 180.328 1.1314 -1.09713 0
M  V30 1789 C 181.739 1.66029 -0.853885 0
M  V30 1790 C 182.09 1.86241 0.617142 0
M  V30 1791 O 181.215 1.5834 1.47503 0
M  V30 1792 C 181.81 3.01599 -1.5435 0
M  V30 1793 C 180.369 3.51467 -1.34714 0
M  V30 1794 C 179.516 2.26648 -1.59769 0
M  V30 1795 H 182.467 0.970226 -1.25588 0
M  V30 1796 H 182.488 3.67709 -0.978267 0
M  V30 1797 H 182 2.86856 -2.6141 0
M  V30 1798 H 180.101 3.71408 -0.297838 0
M  V30 1799 H 180.214 4.314 -2.08401 0
M  V30 1800 H 178.578 2.33385 -1.01998 0
M  V30 1801 H 179.361 2.14467 -2.68065 0
M  V30 1802 N 181.806 0.884767 1.30421 0
M  V30 1803 C 182.738 0.308655 2.27112 0
M  V30 1804 C 183.751 -0.536655 1.53701 0
M  V30 1805 O 184.94 -0.35624 1.74909 0
M  V30 1806 C 182.04 -0.579782 3.33904 0
M  V30 1807 C 181.213 0.236417 4.36761 0
M  V30 1808 C 180.272 -0.582482 5.22966 0
M  V30 1809 O 179.298 -0.00525502 5.692 0
M  V30 1810 N 180.5 -1.89163 5.48815 0
M  V30 1811 H 183.265 1.13964 2.77186 0
M  V30 1812 H 180.826 0.747731 1.43599 0
M  V30 1813 H 182.818 -1.13366 3.88497 0
M  V30 1814 H 181.388 -1.31144 2.83761 0
M  V30 1815 H 180.608 0.97174 3.82035 0
M  V30 1816 H 181.896 0.795924 5.02536 0
M  V30 1817 H 181.294 -2.38352 5.13035 0
M  V30 1818 H 179.851 -2.39296 6.06284 0
M  V30 1819 N 183.284 -1.43765 0.645699 0
M  V30 1820 C 184.214 -2.33471 -0.0370477 0
M  V30 1821 C 185.195 -1.49042 -0.819779 0
M  V30 1822 O 186.38 -1.77726 -0.782758 0
M  V30 1823 C 183.51 -3.32311 -1.0093 0
M  V30 1824 C 182.464 -4.2667 -0.337201 0
M  V30 1825 C 181.79 -5.1549 -1.42037 0
M  V30 1826 C 183.09 -5.16657 0.765706 0
M  V30 1827 H 184.784 -2.90809 0.712069 0
M  V30 1828 H 182.33 -1.39834 0.343876 0
M  V30 1829 H 184.283 -3.9396 -1.49578 0
M  V30 1830 H 183.007 -2.73213 -1.78948 0
M  V30 1831 H 181.666 -3.66374 0.128771 0
M  V30 1832 H 181.314 -4.52735 -2.1918 0
M  V30 1833 H 181.014 -5.79438 -0.975966 0
M  V30 1834 H 182.538 -5.80012 -1.90838 0
M  V30 1835 H 183.952 -5.72158 0.361702 0
M  V30 1836 H 182.349 -5.89286 1.13413 0
M  V30 1837 H 183.419 -4.56796 1.62683 0
M  V30 1838 N 184.763 -0.387143 -1.52771 0
M  V30 1839 C 185.673 0.456442 -2.30117 0
M  V30 1840 C 186.689 1.07342 -1.36944 0
M  V30 1841 O 187.865 1.07971 -1.70013 0
M  V30 1842 C 184.93 1.56957 -3.09136 0
M  V30 1843 C 183.991 0.977916 -4.18014 0
M  V30 1844 C 183.224 2.038 -4.93256 0
M  V30 1845 O 183.447 3.25271 -4.68567 0
M  V30 1846 O 182.381 1.6565 -5.78657 0
M  V30 1847 H 186.207 -0.17359 -3.03203 0
M  V30 1848 H 183.792 -0.150919 -1.48636 0
M  V30 1849 H 185.674 2.21628 -3.58412 0
M  V30 1850 H 184.349 2.18461 -2.38865 0
M  V30 1851 H 183.256 0.294525 -3.72939 0
M  V30 1852 H 184.589 0.407128 -4.90513 0
M  V30 1853 N 186.241 1.57166 -0.116904 0
M  V30 1854 C 187.657 1.5779 0.239693 0
M  V30 1855 C 187.857 1.1295 1.66867 0
M  V30 1856 O 186.913 0.81592 2.38954 0
M  V30 1857 C 188.226 3.00699 0.00828202 0
M  V30 1858 C 189.774 3.12912 0.0743438 0
M  V30 1859 C 190.249 4.57817 -0.129348 0
M  V30 1860 N 191.74 4.63139 -0.075247 0
M  V30 1861 C 192.475 5.73023 -0.207788 0
M  V30 1862 N 191.971 6.91665 -0.396382 0
M  V30 1863 N 193.764 5.61906 -0.14751 0
M  V30 1864 H 185.915 1.84615 -1.05029 0
M  V30 1865 H 188.178 0.85311 -0.41341 0
M  V30 1866 H 187.884 3.37784 -0.979531 0
M  V30 1867 H 187.758 3.69848 0.741077 0
M  V30 1868 H 190.145 2.75686 1.05268 0
M  V30 1869 H 190.226 2.4631 -0.690297 0
M  V30 1870 H 189.87 4.95742 -1.10465 0
M  V30 1871 H 189.8 5.22507 0.655253 0
M  V30 1872 H 192.291 3.7784 0.0670898 0
M  V30 1873 H 192.604 7.71255 -0.488437 0
M  V30 1874 H 190.949 6.93654 -0.432329 0
M  V30 1875 H 194.14 4.681 -0.00115036 0
M  V30 1876 H 194.313 6.47501 -0.254247 0
M  V30 1877 N 187.719 -0.156864 1.56817 0
M  V30 1878 C 188.649 -1.19589 2.00551 0
M  V30 1879 C 189.63 -1.4536 0.883426 0
M  V30 1880 O 190.815 -1.56449 1.15054 0
M  V30 1881 C 187.945 -2.53143 2.37773 0
M  V30 1882 C 186.899 -2.41913 3.53075 0
M  V30 1883 C 186.225 -3.80088 3.76081 0
M  V30 1884 C 187.525 -1.91157 4.86062 0
M  V30 1885 H 189.219 -0.832293 2.87599 0
M  V30 1886 H 186.765 -0.398918 1.38364 0
M  V30 1887 H 188.718 -3.26047 2.66967 0
M  V30 1888 H 187.442 -2.91319 1.4765 0
M  V30 1889 H 186.101 -1.71462 3.24031 0
M  V30 1890 H 185.749 -4.15683 2.83225 0
M  V30 1891 H 185.449 -3.73439 4.53671 0
M  V30 1892 H 186.973 -4.54556 4.0769 0
M  V30 1893 H 188.387 -2.53846 5.14038 0
M  V30 1894 H 186.784 -1.95422 5.67389 0
M  V30 1895 H 187.854 -0.866673 4.77092 0
M  V30 1896 N 189.197 -1.51736 -0.425897 0
M  V30 1897 C 190.446 -1.64201 -1.17136 0
M  V30 1898 C 190.759 -0.369705 -1.92074 0
M  V30 1899 O 191.965 -0.373898 -2.68913 0
M  V30 1900 C 190.421 -2.90035 -2.13091 0
M  V30 1901 C 190.029 -4.24312 -1.43747 0
M  V30 1902 C 191.773 -3.1186 -2.87999 0
M  V30 1903 C 189.68 -5.41285 -2.38253 0
M  V30 1904 H 188.61 -0.611624 -0.440944 0
M  V30 1905 H 191.261 -1.78212 -0.437328 0
M  V30 1906 H 189.643 -2.69684 -2.89977 0
M  V30 1907 H 190.817 -4.55086 -0.723408 0
M  V30 1908 H 189.132 -4.08456 -0.809465 0
M  V30 1909 H 191.729 -3.96427 -3.58817 0
M  V30 1910 H 192.072 -2.25403 -3.49999 0
M  V30 1911 H 192.605 -3.32605 -2.18217 0
M  V30 1912 H 189.344 -6.30037 -1.80925 0
M  V30 1913 H 188.864 -5.14872 -3.0768 0
M  V30 1914 H 190.543 -5.73694 -2.99139 0
M  V30 1915 N 190.675 0.682077 -1.42076 0
M  V30 1916 C 191.952 1.43755 -1.32642 0
M  V30 1917 C 192.332 2.11063 0.0396611 0
M  V30 1918 O 191.68 2.02701 1.05474 0
M  V30 1919 C 191.89 2.44596 -2.48946 0
M  V30 1920 C 193.238 3.09454 -2.9073 0
M  V30 1921 O 194.262 2.54922 -2.48783 0
M  V30 1922 O 193.121 4.08253 -3.63307 0
M  V30 1923 H 190.215 0.640857 -0.522715 0
M  V30 1924 H 192.761 0.711415 -1.54068 0
M  V30 1925 H 191.533 1.93609 -3.40046 0
M  V30 1926 H 191.156 3.24701 -2.29467 0
M  V30 1927 N 192.153 1.28127 0.917671 0
M  V30 1928 C 193.083 1.14248 2.03641 0
M  V30 1929 C 194.064 0.0412748 1.7005 0
M  V30 1930 O 195.249 0.217566 1.92977 0
M  V30 1931 C 192.379 0.799431 3.37974 0
M  V30 1932 C 191.333 1.85497 3.85713 0
M  V30 1933 C 190.659 1.36565 5.16966 0
M  V30 1934 C 191.959 3.26085 4.08002 0
M  V30 1935 H 193.653 2.07835 2.15511 0
M  V30 1936 H 191.199 1.00064 1.03553 0
M  V30 1937 H 193.152 0.689114 4.15727 0
M  V30 1938 H 191.876 -0.172145 3.26146 0
M  V30 1939 H 190.535 1.95437 3.10161 0
M  V30 1940 H 190.183 0.383253 5.01538 0
M  V30 1941 H 189.883 2.07143 5.49878 0
M  V30 1942 H 191.407 1.26848 5.97279 0
M  V30 1943 H 192.821 3.19089 4.76293 0
M  V30 1944 H 191.218 3.94462 4.52238 0
M  V30 1945 H 192.288 3.70394 3.12948 0
M  V30 1946 N 193.631 -1.12557 1.10312 0
M  V30 1947 C 194.564 -2.1737 0.694674 0
M  V30 1948 C 195.542 -1.59745 -0.303373 0
M  V30 1949 O 196.726 -1.87408 -0.202578 0
M  V30 1950 C 193.853 -3.38691 0.0248052 0
M  V30 1951 C 192.899 -4.14943 0.986121 0
M  V30 1952 S 193.732 -4.73413 2.50281 0
M  V30 1953 C 194.888 -5.9807 1.84562 0
M  V30 1954 H 195.121 -2.5168 1.58255 0
M  V30 1955 H 192.654 -1.23998 0.919992 0
M  V30 1956 H 194.612 -4.08959 -0.355361 0
M  V30 1957 H 193.273 -3.02664 -0.839851 0
M  V30 1958 H 192.466 -5.01854 0.464651 0
M  V30 1959 H 192.068 -3.50377 1.30813 0
M  V30 1960 H 194.36 -6.67232 1.17507 0
M  V30 1961 H 195.303 -6.54841 2.69423 0
M  V30 1962 H 195.711 -5.49073 1.31069 0
M  V30 1963 N 195.109 -0.891671 -1.2995 0
M  V30 1964 C 196.072 -0.36828 -2.26222 0
M  V30 1965 C 197.072 0.493014 -1.53056 0
M  V30 1966 O 198.262 0.299213 -1.71611 0
M  V30 1967 C 195.394 0.47442 -3.37583 0
M  V30 1968 H 196.587 -1.21844 -2.74033 0
M  V30 1969 H 194.14 -0.669107 -1.41254 0
M  V30 1970 H 194.875 1.34489 -2.95099 0
M  V30 1971 H 194.66 -0.142615 -3.91841 0
M  V30 1972 H 196.15 0.83218 -4.09224 0
M  V30 1973 N 196.587 1.43421 -0.653314 0
M  V30 1974 C 197.535 2.32546 0.0501531 0
M  V30 1975 C 198.529 1.48617 0.812985 0
M  V30 1976 O 199.735 1.64825 0.723375 0
M  V30 1977 H 196.11 0.751185 0.0350032 0
M  V30 1978 H 198.081 2.89602 -0.719261 0
M  V30 1979 C 196.83 3.32925 1.00279 0
M  V30 1980 H 196.153 3.97532 0.425236 0
M  V30 1981 H 197.593 3.9792 1.46409 0
M  V30 1982 C 196.052 2.63532 2.09886 0
M  V30 1983 O 196.582 2.45092 3.18265 0
M  V30 1984 N 194.788 2.22905 1.86445 0
M  V30 1985 H 194.335 2.38103 0.98309 0
M  V30 1986 H 194.293 1.76805 2.59976 0
M  V30 1987 N 198.065 0.39524 1.52563 0
M  V30 1988 C 199.013 -0.451859 2.28169 0
M  V30 1989 C 200.007 -1.05792 1.32304 0
M  V30 1990 O 201.213 -0.997718 1.49818 0
M  V30 1991 H 197.588 -0.164481 0.733792 0
M  V30 1992 H 199.559 0.207199 2.9768 0
M  V30 1993 C 198.308 -1.56385 3.10546 0
M  V30 1994 H 197.631 -1.10682 3.84174 0
M  V30 1995 H 199.071 -2.13067 3.66577 0
M  V30 1996 C 197.53 -2.52328 2.23231 0
M  V30 1997 O 198.06 -3.5588 1.86312 0
M  V30 1998 N 196.266 -2.22209 1.87274 0
M  V30 1999 H 195.813 -1.38033 2.17496 0
M  V30 2000 H 195.771 -2.86652 1.29143 0
M  V30 2001 N 199.544 -1.57102 0.125237 0
M  V30 2002 C 200.821 -1.86953 -0.575142 0
M  V30 2003 C 201.201 -1.02749 -1.84407 0
M  V30 2004 O 200.549 -0.108144 -2.28244 0
M  V30 2005 C 200.759 -3.38198 -0.861583 0
M  V30 2006 C 202.107 -4.06937 -1.21192 0
M  V30 2007 O 203.131 -3.43252 -0.951645 0
M  V30 2008 O 201.99 -5.19364 -1.70068 0
M  V30 2009 H 199.084 -0.774147 -0.290906 0
M  V30 2010 H 201.63 -1.68942 0.160211 0
M  V30 2011 H 200.402 -3.91282 0.0373647 0
M  V30 2012 H 200.025 -3.61661 -1.65188 0
M  V30 2013 N 201.022 0.148545 -1.56898 0
M  V30 2014 C 202.247 0.880385 -1.87787 0
M  V30 2015 C 202.672 1.74018 -0.714093 0
M  V30 2016 O 202.03 1.78153 0.336343 0
M  V30 2017 C 202.078 1.71422 -3.17249 0
M  V30 2018 O 201.182 2.8183 -3.01074 0
M  V30 2019 H 200.523 0.245301 -0.617028 0
M  V30 2020 H 203.053 0.139826 -2.04122 0
M  V30 2021 H 203.063 2.10954 -3.49231 0
M  V30 2022 H 201.738 1.08284 -4.01556 0
M  V30 2023 H 200.315 2.45715 -2.80497 0
M  V30 2024 N 202.5 1.5196 0.417844 0
M  V30 2025 C 203.41 1.77554 1.53336 0
M  V30 2026 C 204.426 0.660655 1.6097 0
M  V30 2027 O 205.602 0.945099 1.77848 0
M  V30 2028 C 202.667 1.91291 2.89152 0
M  V30 2029 C 201.728 3.15183 2.91475 0
M  V30 2030 C 200.961 3.28256 4.20813 0
M  V30 2031 O 201.184 2.46798 5.14244 0
M  V30 2032 O 200.118 4.21356 4.29817 0
M  V30 2033 H 203.944 2.7222 1.34647 0
M  V30 2034 H 201.529 1.36698 0.602828 0
M  V30 2035 H 203.411 2.02199 3.69721 0
M  V30 2036 H 202.086 0.998129 3.07927 0
M  V30 2037 H 200.993 3.09739 2.09791 0
M  V30 2038 H 202.326 4.06414 2.77648 0
M  V30 2039 N 203.978 -0.674533 1.42435 0
M  V30 2040 C 205.255 -1.4305 1.33402 0
M  V30 2041 C 205.635 -2.11081 -0.0284674 0
M  V30 2042 O 204.983 -2.03257 -1.04397 0
M  V30 2043 C 205.193 -2.43272 2.50239 0
M  V30 2044 C 206.541 -3.07907 2.92367 0
M  V30 2045 O 207.565 -2.53599 2.50132 0
M  V30 2046 O 206.424 -4.0632 3.65467 0
M  V30 2047 H 203.518 -0.638076 0.526106 0
M  V30 2048 H 206.064 -0.703235 1.54443 0
M  V30 2049 H 204.836 -1.91803 3.41068 0
M  V30 2050 H 204.459 -3.23479 2.31186 0
M  V30 2051 N 205.456 -1.28612 -0.910864 0
M  V30 2052 C 206.681 -1.1891 -1.69927 0
M  V30 2053 C 207.106 0.248372 -1.86453 0
M  V30 2054 O 206.464 1.17961 -1.37676 0
M  V30 2055 C 206.512 -1.89578 -3.06745 0
M  V30 2056 O 205.616 -1.20521 -3.94396 0
M  V30 2057 H 204.957 -0.412632 -0.520222 0
M  V30 2058 H 207.487 -1.69985 -1.1387 0
M  V30 2059 H 207.497 -1.97597 -3.56958 0
M  V30 2060 H 206.172 -2.94136 -2.94035 0
M  V30 2061 H 204.749 -1.20684 -3.52831 0
M  V30 2062 N 206.934 1.1197 -1.10907 0
M  V30 2063 C 208.182 1.83225 -0.852819 0
M  V30 2064 C 208.503 1.84769 0.623341 0
M  V30 2065 O 207.773 1.3143 1.45269 0
M  V30 2066 H 206.353 0.67849 -0.312507 0
M  V30 2067 H 209.015 1.3556 -1.40033 0
M  V30 2068 H 208.111 2.87265 -1.22005 0
M  V30 2069 N 208.412 0.89855 1.29475 0
M  V30 2070 C 209.652 0.530771 1.97388 0
M  V30 2071 C 210.016 -0.905832 1.69289 0
M  V30 2072 O 211.217 -1.38042 2.30646 0
M  V30 2073 C 209.488 0.81369 3.48014 0
M  V30 2074 S 211.047 0.550048 4.35339 0
M  V30 2075 H 207.865 0.196956 0.683176 0
M  V30 2076 H 210.467 1.16074 1.57312 0
M  V30 2077 H 209.171 1.85749 3.65958 0
M  V30 2078 H 208.702 0.171795 3.93025 0
M  V30 2079 H 210.717 -0.605423 4.92493 0
M  V30 2080 N 209.89 -1.43072 0.660911 0
M  V30 2081 C 211.138 -2.01323 0.177094 0
M  V30 2082 C 211.459 -1.5245 -1.2159 0
M  V30 2083 O 210.729 -0.740322 -1.81373 0
M  V30 2084 H 209.309 -0.744382 0.0624804 0
M  V30 2085 H 211.971 -1.75179 0.854305 0
M  V30 2086 H 211.067 -3.11649 0.167641 0
M  V30 2087 N 211.368 -0.403325 -1.52352 0
M  V30 2088 C 212.331 0.413051 -2.25447 0
M  V30 2089 C 213.331 0.978513 -1.276 0
M  V30 2090 O 214.521 0.858305 -1.51587 0
M  V30 2091 C 211.653 1.58087 -3.02029 0
M  V30 2092 H 212.846 -0.227094 -2.99039 0
M  V30 2093 H 210.399 -0.155722 -1.55522 0
M  V30 2094 H 211.134 2.25804 -2.32772 0
M  V30 2095 H 210.919 1.18195 -3.73861 0
M  V30 2096 H 212.409 2.1585 -3.57489 0
M  V30 2097 N 212.846 1.57033 -0.133567 0
M  V30 2098 C 213.809 2.14897 0.796995 0
M  V30 2099 C 214.809 1.0874 1.18458 0
M  V30 2100 O 215.999 1.34446 1.1077 0
M  V30 2101 C 213.131 2.70112 2.07973 0
M  V30 2102 H 214.324 2.98457 0.293873 0
M  V30 2103 H 211.877 1.55871 0.115787 0
M  V30 2104 H 212.612 1.9018 2.62682 0
M  V30 2105 H 212.397 3.47764 1.81115 0
M  V30 2106 H 213.887 3.14738 2.74462 0
M  V30 2107 N 214.325 -0.140222 1.56975 0
M  V30 2108 C 215.602 -0.880769 1.74648 0
M  V30 2109 C 215.982 -1.99036 0.703404 0
M  V30 2110 O 215.33 -2.26821 -0.27648 0
M  V30 2111 C 215.54 -1.417 3.18939 0
M  V30 2112 C 216.888 -1.87774 3.80823 0
M  V30 2113 O 217.912 -1.51427 3.2241 0
M  V30 2114 O 216.771 -2.54827 4.83452 0
M  V30 2115 H 213.865 -0.416713 0.714338 0
M  V30 2116 H 216.411 -0.125618 1.69234 0
M  V30 2117 H 215.183 -0.619902 3.86359 0
M  V30 2118 H 214.806 -2.23546 3.28805 0
M  V30 2119 N 215.803 -1.52179 -0.40978 0
M  V30 2120 C 216.713 -1.78364 -1.52392 0
M  V30 2121 C 217.729 -0.669183 -1.60617 0
M  V30 2122 O 218.905 -0.954518 -1.77344 0
M  V30 2123 C 215.97 -1.92822 -2.88133 0
M  V30 2124 C 215.031 -3.16725 -2.898 0
M  V30 2125 C 214.264 -3.30483 -4.19067 0
M  V30 2126 O 214.487 -2.49522 -5.12928 0
M  V30 2127 O 213.421 -4.2363 -4.27576 0
M  V30 2128 H 217.247 -2.72931 -1.33201 0
M  V30 2129 H 214.832 -1.37016 -0.59557 0
M  V30 2130 H 216.714 -2.04157 -3.68643 0
M  V30 2131 H 215.389 -1.01444 -3.07393 0
M  V30 2132 H 214.296 -3.10848 -2.08146 0
M  V30 2133 H 215.629 -4.07881 -2.75489 0
M  V30 2134 N 217.281 0.66697 -1.42791 0
M  V30 2135 C 218.529 1.42417 -1.43394 0
M  V30 2136 C 218.85 1.94925 -0.0542373 0
M  V30 2137 O 218.12 1.73564 0.908415 0
M  V30 2138 H 216.7 0.528515 -0.527902 0
M  V30 2139 H 219.362 0.787562 -1.78279 0
M  V30 2140 H 218.458 2.27333 -2.13837 0
M  V30 2141 N 218.759 1.29093 0.90403 0
M  V30 2142 C 219.989 1.19516 1.68522 0
M  V30 2143 C 220.397 -0.24738 1.87576 0
M  V30 2144 O 219.74 -1.17798 1.40959 0
M  V30 2145 C 219.802 1.83249 3.0929 0
M  V30 2146 C 219.466 3.32531 3.13484 0
M  V30 2147 C 220.463 4.28821 2.93953 0
M  V30 2148 C 218.148 3.73656 3.35688 0
M  V30 2149 C 220.142 5.64212 2.96553 0
M  V30 2150 C 217.829 5.0917 3.37919 0
M  V30 2151 C 218.827 6.04258 3.18373 0
M  V30 2152 O 218.515 7.37298 3.20385 0
M  V30 2153 H 218.247 0.415467 0.533257 0
M  V30 2154 H 220.801 1.70912 1.13922 0
M  V30 2155 H 219.031 1.26358 3.65473 0
M  V30 2156 H 220.72 1.68054 3.69476 0
M  V30 2157 H 221.486 3.98382 2.76616 0
M  V30 2158 H 217.365 3.00101 3.49943 0
M  V30 2159 H 220.909 6.38407 2.81216 0
M  V30 2160 H 216.806 5.39256 3.54787 0
M  V30 2161 H 217.574 7.46048 3.36681 0
M  V30 2162 N 220.237 -1.11381 1.11499 0
M  V30 2163 C 221.485 -1.8277 0.862524 0
M  V30 2164 C 221.806 -1.85097 -0.613534 0
M  V30 2165 O 221.076 -1.32198 -1.4457 0
M  V30 2166 H 219.656 -0.676823 0.316101 0
M  V30 2167 H 222.318 -1.34816 1.4075 0
M  V30 2168 H 221.414 -2.86614 1.23527 0
M  V30 2169 N 221.715 -0.905404 -1.28997 0
M  V30 2170 C 222.963 -0.533192 -1.9494 0
M  V30 2171 C 223.284 0.924618 -1.71685 0
M  V30 2172 O 222.554 1.65268 -1.05183 0
M  V30 2173 H 221.134 -0.194194 -0.721317 0
M  V30 2174 H 223.796 -1.15294 -1.57141 0
M  V30 2175 H 222.892 -0.72059 -3.03667 0
M  V30 2176 N 223.193 1.4272 -0.668489 0
M  V30 2177 C 224.604 1.84793 -0.266151 0
M  V30 2178 C 224.955 1.55959 1.19043 0
M  V30 2179 O 224.08 1.01622 1.91055 0
M  V30 2180 C 224.675 3.35436 -0.476271 0
M  V30 2181 C 223.234 3.76182 -0.128113 0
M  V30 2182 C 222.381 2.66344 -0.771777 0
M  V30 2183 H 225.332 1.32656 -0.871098 0
M  V30 2184 H 225.353 3.79515 0.273561 0
M  V30 2185 H 224.865 3.5639 -1.53647 0
M  V30 2186 H 222.966 3.60836 0.928891 0
M  V30 2187 H 223.079 4.75766 -0.564231 0
M  V30 2188 H 221.443 2.53885 -0.203652 0
M  V30 2189 H 222.226 2.90123 -1.83531 0
M  V30 2190 N 224.671 0.411399 1.52136 0
M  V30 2191 C 225.581 -0.419774 2.30814 0
M  V30 2192 C 226.597 -1.0515 1.38634 0
M  V30 2193 O 227.773 -1.05252 1.71709 0
M  V30 2194 C 224.838 -1.52019 3.11594 0
M  V30 2195 C 223.899 -0.91129 4.19516 0
M  V30 2196 C 223.132 -1.95927 4.96436 0
M  V30 2197 O 223.355 -3.17775 4.73683 0
M  V30 2198 O 222.289 -1.56423 5.81219 0
M  V30 2199 H 226.115 0.221805 3.02889 0
M  V30 2200 H 223.7 0.174547 1.48377 0
M  V30 2201 H 225.582 -2.15898 3.61892 0
M  V30 2202 H 224.257 -2.14633 2.42311 0
M  V30 2203 H 223.164 -0.235157 3.7336 0
M  V30 2204 H 224.497 -0.32904 4.91099 0
M  V30 2205 N 226.149 -1.5696 0.141893 0
M  V30 2206 C 227.059 -2.20066 -0.812905 0
M  V30 2207 C 228.075 -1.18344 -1.27557 0
M  V30 2208 O 229.251 -1.50902 -1.33381 0
M  V30 2209 C 226.316 -2.80583 -2.03652 0
M  V30 2210 C 225.377 -3.97414 -1.62359 0
M  V30 2211 C 224.61 -4.55036 -2.78887 0
M  V30 2212 O 224.833 -4.11538 -3.94959 0
M  V30 2213 O 223.767 -5.45376 -2.54653 0
M  V30 2214 H 227.593 -3.02157 -0.305746 0
M  V30 2215 H 225.178 -1.49159 -0.0848799 0
M  V30 2216 H 227.06 -3.19067 -2.75272 0
M  V30 2217 H 225.735 -2.01508 -2.5333 0
M  V30 2218 H 224.642 -3.63656 -0.877775 0
M  V30 2219 H 225.975 -4.77994 -1.17401 0
M  V30 2220 N 227.627 0.131896 -1.57047 0
M  V30 2221 C 228.537 1.1815 -2.02676 0
M  V30 2222 C 229.553 1.46113 -0.944824 0
M  V30 2223 O 230.729 1.57485 -1.25541 0
M  V30 2224 C 227.794 2.49139 -2.41103 0
M  V30 2225 C 226.855 2.28688 -3.63318 0
M  V30 2226 C 226.088 3.53431 -3.99903 0
M  V30 2227 O 226.311 4.60223 -3.36973 0
M  V30 2228 O 225.245 3.45198 -4.93074 0
M  V30 2229 H 229.071 0.824069 -2.92306 0
M  V30 2230 H 226.656 0.341745 -1.45439 0
M  V30 2231 H 228.538 3.26338 -2.66611 0
M  V30 2232 H 227.213 2.84382 -1.54624 0
M  V30 2233 H 226.12 1.4939 -3.42977 0
M  V30 2234 H 227.453 1.98355 -4.50462 0
M  V30 2235 N 229.106 1.52395 0.401703 0
M  V30 2236 C 230.016 1.7917 1.51444 0
M  V30 2237 C 231.032 0.677691 1.6026 0
M  V30 2238 O 232.208 0.963909 1.76835 0
M  V30 2239 C 229.273 1.94347 2.87107 0
M  V30 2240 C 228.334 3.18257 2.88116 0
M  V30 2241 C 227.567 3.32701 4.17308 0
M  V30 2242 O 227.79 2.52238 5.11598 0
M  V30 2243 O 226.724 4.25891 4.25324 0
M  V30 2244 H 230.55 2.73633 1.31752 0
M  V30 2245 H 228.135 1.3733 0.588296 0
M  V30 2246 H 230.017 2.06109 3.67555 0
M  V30 2247 H 228.692 1.03073 3.06851 0
M  V30 2248 H 227.599 3.11947 2.06494 0
M  V30 2249 H 228.932 4.09336 2.73322 0
M  V30 2250 N 230.584 -0.659388 1.43143 0
M  V30 2251 C 231.494 -1.80167 1.50256 0
M  V30 2252 C 232.51 -1.69571 0.390106 0
M  V30 2253 O 233.686 -1.90849 0.643319 0
M  V30 2254 C 230.751 -3.16409 1.41725 0
M  V30 2255 C 229.812 -3.38848 2.63591 0
M  V30 2256 C 229.045 -4.68591 2.55458 0
M  V30 2257 O 229.268 -5.47532 1.59891 0
M  V30 2258 O 228.202 -4.92614 3.45854 0
M  V30 2259 H 232.028 -1.77121 2.46702 0
M  V30 2260 H 229.613 -0.817092 1.25076 0
M  V30 2261 H 231.495 -3.9768 1.39387 0
M  V30 2262 H 230.17 -3.20059 0.484118 0
M  V30 2263 H 229.077 -2.57366 2.71502 0
M  V30 2264 H 230.41 -3.4004 3.55856 0
M  V30 2265 N 232.062 -1.29571 -0.897171 0
M  V30 2266 C 233.025 -1.14913 -1.98312 0
M  V30 2267 C 234.025 -0.0838629 -1.60581 0
M  V30 2268 O 235.215 -0.331006 -1.71026 0
M  V30 2269 C 232.347 -0.757835 -3.3237 0
M  V30 2270 H 233.54 -2.11377 -2.12743 0
M  V30 2271 H 231.093 -1.12793 -1.08201 0
M  V30 2272 H 231.828 0.206837 -3.2364 0
M  V30 2273 H 231.613 -1.52755 -3.61121 0
M  V30 2274 H 233.103 -0.678408 -4.12053 0
M  V30 2275 N 233.54 1.10788 -1.12088 0
M  V30 2276 C 234.45 2.20599 -0.798338 0
M  V30 2277 C 235.466 1.72712 0.21135 0
M  V30 2278 O 236.642 2.01348 0.0458477 0
M  V30 2279 C 233.707 3.45771 -0.253674 0
M  V30 2280 C 232.768 4.08411 -1.32283 0
M  V30 2281 C 232.001 5.27608 -0.80406 0
M  V30 2282 O 232.224 5.69241 0.363478 0
M  V30 2283 O 231.158 5.8101 -1.57198 0
M  V30 2284 H 234.984 2.50614 -1.7154 0
M  V30 2285 H 232.569 1.19454 -0.897275 0
M  V30 2286 H 234.451 4.21376 0.0453691 0
M  V30 2287 H 233.126 3.1739 0.636005 0
M  V30 2288 H 232.033 3.34507 -1.67499 0
M  V30 2289 H 233.366 4.40986 -2.18614 0
M  V30 2290 N 235.018 0.912232 1.28515 0
M  V30 2291 C 236.266 0.543523 1.94654 0
M  V30 2292 C 236.587 -0.9155 1.72173 0
M  V30 2293 O 235.857 -1.64708 1.06058 0
M  V30 2294 H 234.437 0.198017 0.720277 0
M  V30 2295 H 237.099 1.16126 1.56527 0
M  V30 2296 H 236.195 0.736684 3.03281 0
M  V30 2297 N 236.496 -1.42363 0.676048 0
M  V30 2298 C 237.742 -2.0182 0.199125 0
M  V30 2299 C 238.075 -1.53339 -1.19168 0
M  V30 2300 O 237.35 -0.736124 -1.80032 0
M  V30 2301 C 237.633 -3.59331 0.235144 0
M  V30 2302 C 237.486 -4.17989 1.66149 0
M  V30 2303 C 238.805 -4.3813 -0.41595 0
M  V30 2304 H 235.924 -0.733293 0.0738311 0
M  V30 2305 H 238.566 -1.69368 0.86107 0
M  V30 2306 H 236.716 -3.87109 -0.328487 0
M  V30 2307 H 238.388 -4.0116 2.27747 0
M  V30 2308 H 236.631 -3.7377 2.20178 0
M  V30 2309 H 237.302 -5.27126 1.63837 0
M  V30 2310 H 239.778 -4.16051 0.0638529 0
M  V30 2311 H 238.654 -5.47717 -0.360115 0
M  V30 2312 H 238.915 -4.16101 -1.49373 0
M  V30 2313 N 237.974 -0.419461 -1.51915 0
M  V30 2314 C 239.385 0.0477853 -1.86639 0
M  V30 2315 C 239.736 1.43531 -1.33766 0
M  V30 2316 O 238.861 2.05401 -0.68113 0
M  V30 2317 C 239.456 0.0934885 -3.38671 0
M  V30 2318 C 238.015 0.505097 -3.72996 0
M  V30 2319 C 237.162 -0.313792 -2.75519 0
M  V30 2320 H 240.113 -0.636088 -1.45395 0
M  V30 2321 H 240.134 0.906667 -3.6954 0
M  V30 2322 H 239.646 -0.916501 -3.77123 0
M  V30 2323 H 237.747 1.52135 -3.40126 0
M  V30 2324 H 237.86 0.242309 -4.78487 0
M  V30 2325 H 236.224 0.225363 -2.53701 0
M  V30 2326 H 237.007 -1.32232 -3.16812 0
M  V30 2327 N 239.452 1.56882 -0.150215 0
M  V30 2328 C 240.868 1.58263 0.20617 0
M  V30 2329 C 241.068 1.16464 1.64434 0
M  V30 2330 O 240.124 0.866422 2.3717 0
M  V30 2331 C 241.437 3.00649 -0.0555025 0
M  V30 2332 C 242.985 3.12999 0.00795388 0
M  V30 2333 C 243.46 4.5744 -0.226429 0
M  V30 2334 N 244.951 4.62875 -0.173469 0
M  V30 2335 C 245.686 5.72454 -0.329288 0
M  V30 2336 N 245.182 6.90669 -0.543005 0
M  V30 2337 N 246.975 5.61467 -0.266666 0
M  V30 2338 H 239.126 1.82345 -1.08922 0
M  V30 2339 H 241.389 0.844149 -0.431413 0
M  V30 2340 H 241.095 3.3563 -1.05096 0
M  V30 2341 H 240.969 3.71337 0.66246 0
M  V30 2342 H 243.356 2.77857 0.993966 0
M  V30 2343 H 243.437 2.4479 -0.742388 0
M  V30 2344 H 243.081 4.93287 -1.20956 0
M  V30 2345 H 243.011 5.2378 0.544274 0
M  V30 2346 H 245.502 3.77898 -0.0130709 0
M  V30 2347 H 245.815 7.70045 -0.651922 0
M  V30 2348 H 244.16 6.92581 -0.579366 0
M  V30 2349 H 247.351 4.67992 -0.100441 0
M  V30 2350 H 247.524 6.46816 -0.391535 0
M  V30 2351 N 240.93 -0.123565 1.57115 0
M  V30 2352 C 242.155 -0.850398 1.89164 0
M  V30 2353 C 242.58 -1.7286 0.741688 0
M  V30 2354 O 241.938 -1.78665 -0.307958 0
M  V30 2355 C 241.986 -1.66353 3.19936 0
M  V30 2356 O 241.09 -2.77004 3.0552 0
M  V30 2357 H 240.431 -0.235454 0.620852 0
M  V30 2358 H 242.961 -0.107335 2.04318 0
M  V30 2359 H 242.971 -2.05372 3.52543 0
M  V30 2360 H 241.646 -1.01881 4.03228 0
M  V30 2361 H 240.223 -2.41221 2.84371 0
M  V30 2362 N 242.408 -1.52605 -0.393616 0
M  V30 2363 C 243.654 -1.67672 -1.14079 0
M  V30 2364 C 243.987 -0.413121 -1.89755 0
M  V30 2365 O 243.262 0.588952 -1.85369 0
M  V30 2366 C 243.545 -2.9088 -2.12276 0
M  V30 2367 C 243.398 -4.27329 -1.40394 0
M  V30 2368 C 244.717 -3.09628 -3.12759 0
M  V30 2369 H 241.836 -0.610168 -0.413356 0
M  V30 2370 H 244.478 -1.85193 -0.424696 0
M  V30 2371 H 242.628 -2.76073 -2.73342 0
M  V30 2372 H 244.3 -4.53894 -0.82327 0
M  V30 2373 H 242.543 -4.2802 -0.705801 0
M  V30 2374 H 243.214 -5.09615 -2.12123 0
M  V30 2375 H 245.69 -3.23436 -2.61779 0
M  V30 2376 H 244.566 -3.97322 -3.78717 0
M  V30 2377 H 244.827 -2.23637 -3.81365 0
M  V30 2378 N 243.887 0.651787 -1.4349 0
M  V30 2379 C 245.303 0.96762 -1.26922 0
M  V30 2380 C 245.503 2.00602 -0.189982 0
M  V30 2381 O 244.559 2.48793 0.431107 0
M  V30 2382 C 245.872 1.45052 -2.63401 0
M  V30 2383 C 247.42 1.5671 -2.70945 0
M  V30 2384 C 247.895 2.0839 -4.07845 0
M  V30 2385 N 249.386 2.1569 -4.09917 0
M  V30 2386 C 250.121 2.56804 -5.12679 0
M  V30 2387 N 249.617 2.97203 -6.25813 0
M  V30 2388 N 251.41 2.56756 -5.00033 0
M  V30 2389 H 243.561 -0.0353158 -2.12371 0
M  V30 2390 H 245.824 0.0467858 -0.946845 0
M  V30 2391 H 245.53 0.761926 -3.43348 0
M  V30 2392 H 245.404 2.42529 -2.88894 0
M  V30 2393 H 247.791 2.2467 -1.9133 0
M  V30 2394 H 247.872 0.57662 -2.49216 0
M  V30 2395 H 247.516 1.41031 -4.87927 0
M  V30 2396 H 247.446 3.08271 -4.26938 0
M  V30 2397 H 249.937 1.87237 -3.28254 0
M  V30 2398 H 250.25 3.27328 -7.00055 0
M  V30 2399 H 248.595 2.95004 -6.29283 0
M  V30 2400 H 251.786 2.24572 -4.10713 0
M  V30 2401 H 251.959 2.88475 -5.80247 0
M  V30 2402 N 245.365 1.30045 0.890287 0
M  V30 2403 C 246.593 1.21472 1.67487 0
M  V30 2404 C 247.008 -0.223241 1.87476 0
M  V30 2405 O 246.365 -1.14828 1.41847 0
M  V30 2406 C 246.416 1.93394 3.05419 0
M  V30 2407 O 246.137 3.31576 2.86337 0
M  V30 2408 C 247.638 1.91414 3.99844 0
M  V30 2409 H 244.858 0.420604 0.522813 0
M  V30 2410 H 247.402 1.7158 1.11268 0
M  V30 2411 H 245.557 1.47099 3.58386 0
M  V30 2412 H 245.971 3.67929 3.73802 0
M  V30 2413 H 247.445 2.46285 4.94012 0
M  V30 2414 H 247.922 0.891833 4.3005 0
M  V30 2415 H 248.528 2.37496 3.52811 0
M  V30 2416 N 246.843 -1.10192 1.12674 0
M  V30 2417 C 248.09 -1.82205 0.883606 0
M  V30 2418 C 248.418 -1.8532 -0.590492 0
M  V30 2419 O 247.673 -1.31137 -1.45264 0
M  V30 2420 C 247.972 -3.28552 1.4067 0
M  V30 2421 C 247.638 -3.45582 2.89627 0
M  V30 2422 C 246.3 -3.49937 3.30299 0
M  V30 2423 C 248.652 -3.50768 3.85501 0
M  V30 2424 C 245.98 -3.57049 4.65546 0
M  V30 2425 C 248.332 -3.59414 5.20581 0
M  V30 2426 C 246.996 -3.62034 5.60792 0
M  V30 2427 H 246.266 -0.666735 0.323334 0
M  V30 2428 H 248.913 -1.29868 1.40736 0
M  V30 2429 H 247.218 -3.83473 0.80347 0
M  V30 2430 H 248.915 -3.82788 1.19475 0
M  V30 2431 H 245.505 -3.42871 2.57172 0
M  V30 2432 H 249.689 -3.46651 3.55171 0
M  V30 2433 H 244.945 -3.57361 4.96088 0
M  V30 2434 H 249.119 -3.62371 5.94693 0
M  V30 2435 H 246.746 -3.67298 6.6558 0
M  V30 2436 N 248.321 -0.919034 -1.28029 0
M  V30 2437 C 249.284 -0.416182 -2.2539 0
M  V30 2438 C 250.284 0.460438 -1.54067 0
M  V30 2439 O 251.474 0.262744 -1.72207 0
M  V30 2440 C 248.606 0.402707 -3.38513 0
M  V30 2441 H 249.799 -1.27629 -2.71387 0
M  V30 2442 H 247.352 -0.698919 -1.39803 0
M  V30 2443 H 248.087 1.282 -2.97885 0
M  V30 2444 H 247.872 -0.225698 -3.9145 0
M  V30 2445 H 249.362 0.745191 -4.10897 0
M  V30 2446 N 249.799 1.42003 -0.683588 0
M  V30 2447 C 250.731 2.29183 0.0283068 0
M  V30 2448 C 251.744 1.4415 0.756611 0
M  V30 2449 O 252.933 1.67779 0.609306 0
M  V30 2450 C 250.033 3.21765 1.06398 0
M  V30 2451 C 249.206 4.35496 0.407723 0
M  V30 2452 C 248.265 5.08737 1.34437 0
M  V30 2453 O 247.291 5.62948 0.841318 0
M  V30 2454 N 248.493 5.15075 2.67728 0
M  V30 2455 H 251.258 2.9092 -0.720105 0
M  V30 2456 H 248.819 1.53025 -0.528682 0
M  V30 2457 H 250.811 3.6763 1.69204 0
M  V30 2458 H 249.381 2.61418 1.71404 0
M  V30 2459 H 248.601 3.92165 -0.400012 0
M  V30 2460 H 249.889 5.08776 -0.0490956 0
M  V30 2461 H 249.287 4.72457 3.11129 0
M  V30 2462 H 247.844 5.64556 3.2576 0
M  V30 2463 N 251.277 0.427512 1.51691 0
M  V30 2464 C 252.24 -0.377132 2.26076 0
M  V30 2465 C 253.24 -0.958089 1.29141 0
M  V30 2466 O 254.43 -0.83408 1.52934 0
M  V30 2467 C 251.562 -1.53262 3.04506 0
M  V30 2468 H 252.755 0.27464 2.9864 0
M  V30 2469 H 250.308 0.180445 1.55255 0
M  V30 2470 H 251.043 -2.22072 2.36335 0
M  V30 2471 H 250.828 -1.12232 3.75694 0
M  V30 2472 H 252.318 -2.10135 3.60878 0
M  V30 2473 N 252.755 -1.56801 0.158532 0
M  V30 2474 C 253.688 -2.13148 -0.815065 0
M  V30 2475 C 254.666 -1.0581 -1.23462 0
M  V30 2476 O 255.85 -1.3371 -1.32868 0
M  V30 2477 C 252.977 -2.6606 -2.09594 0
M  V30 2478 C 252.023 -3.85651 -1.82141 0
M  V30 2479 S 252.856 -5.26041 -1.00207 0
M  V30 2480 C 254.012 -5.8235 -2.29389 0
M  V30 2481 H 254.245 -2.95396 -0.335937 0
M  V30 2482 H 251.778 -1.54299 -0.0559391 0
M  V30 2483 H 253.736 -2.97195 -2.8317 0
M  V30 2484 H 252.397 -1.83921 -2.54621 0
M  V30 2485 H 251.59 -4.20958 -2.77147 0
M  V30 2486 H 251.192 -3.55338 -1.16667 0
M  V30 2487 H 253.484 -5.94485 -3.24952 0
M  V30 2488 H 254.427 -6.79688 -1.9857 0
M  V30 2489 H 254.835 -5.10675 -2.40564 0
M  V30 2490 N 254.233 0.115231 -1.57178 0
M  V30 2491 C 255.649 0.468877 -1.52557 0
M  V30 2492 C 255.849 1.81649 -0.872125 0
M  V30 2493 O 254.905 2.48347 -0.45606 0
M  V30 2494 C 256.218 0.4499 -2.97315 0
M  V30 2495 C 257.766 0.533185 -3.08425 0
M  V30 2496 C 258.241 0.54456 -4.54751 0
M  V30 2497 N 259.732 0.605892 -4.5922 0
M  V30 2498 C 260.467 0.636203 -5.6986 0
M  V30 2499 N 259.963 0.623931 -6.89985 0
M  V30 2500 N 261.756 0.679496 -5.57978 0
M  V30 2501 H 253.907 -0.767712 -1.9804 0
M  V30 2502 H 256.17 -0.283609 -0.904583 0
M  V30 2503 H 255.876 -0.472721 -3.48509 0
M  V30 2504 H 255.75 1.27632 -3.5495 0
M  V30 2505 H 258.137 1.44623 -2.57232 0
M  V30 2506 H 258.218 -0.320995 -2.53778 0
M  V30 2507 H 257.862 -0.364452 -5.06591 0
M  V30 2508 H 257.792 1.41568 -5.07214 0
M  V30 2509 H 260.283 0.621386 -3.72756 0
M  V30 2510 H 260.596 0.649787 -7.70063 0
M  V30 2511 H 258.941 0.591296 -6.9248 0
M  V30 2512 H 262.132 0.686472 -4.63039 0
M  V30 2513 H 262.305 0.69965 -6.44212 0
M  V30 2514 N 255.711 1.52812 0.385517 0
M  V30 2515 C 256.641 1.80808 1.47752 0
M  V30 2516 C 257.622 0.660318 1.5676 0
M  V30 2517 O 258.807 0.908246 1.71652 0
M  V30 2518 C 255.937 1.98008 2.85324 0
M  V30 2519 C 254.891 3.13709 2.91154 0
M  V30 2520 C 254.217 3.16169 4.31209 0
M  V30 2521 C 255.517 4.52709 2.60483 0
M  V30 2522 H 257.211 2.72253 1.24573 0
M  V30 2523 H 254.757 1.31003 0.597839 0
M  V30 2524 H 256.71 2.16176 3.61726 0
M  V30 2525 H 255.434 1.03255 3.09848 0
M  V30 2526 H 254.093 2.95329 2.17201 0
M  V30 2527 H 253.741 2.19092 4.52778 0
M  V30 2528 H 253.441 3.93894 4.36029 0
M  V30 2529 H 254.965 3.36496 5.09512 0
M  V30 2530 H 256.379 4.71173 3.26602 0
M  V30 2531 H 254.776 5.32528 2.76648 0
M  V30 2532 H 255.846 4.59186 1.55809 0
M  V30 2533 N 257.189 -0.644168 1.43834 0
M  V30 2534 C 258.429 -1.41565 1.47441 0
M  V30 2535 C 258.793 -1.91743 0.0992723 0
M  V30 2536 O 259.994 -2.68798 0.0100192 0
M  V30 2537 C 258.265 -2.55902 2.49498 0
M  V30 2538 S 259.824 -3.44287 2.72051 0
M  V30 2539 H 256.642 -0.483118 0.521649 0
M  V30 2540 H 259.244 -0.747008 1.80666 0
M  V30 2541 H 257.948 -2.17327 3.48134 0
M  V30 2542 H 257.479 -3.27607 2.17801 0
M  V30 2543 H 259.494 -4.52927 2.0266 0
M  V30 2544 N 258.668 -1.30515 -0.883378 0
M  V30 2545 C 259.631 -1.1701 -1.97082 0
M  V30 2546 C 260.631 -0.10089 -1.60483 0
M  V30 2547 O 261.821 -0.349127 -1.70666 0
M  V30 2548 C 258.953 -0.793045 -3.31547 0
M  V30 2549 H 260.146 -2.13622 -2.10489 0
M  V30 2550 H 257.699 -1.13935 -1.06998 0
M  V30 2551 H 258.434 0.172499 -3.23841 0
M  V30 2552 H 258.219 -1.56576 -3.5948 0
M  V30 2553 H 259.709 -0.722073 -4.1131 0
M  V30 2554 N 260.146 1.09593 -1.13257 0
M  V30 2555 C 261.109 2.14359 -0.811358 0
M  V30 2556 C 262.109 1.59808 0.178377 0
M  V30 2557 O 263.299 1.74132 -0.0484911 0
M  V30 2558 C 260.431 3.40269 -0.207276 0
M  V30 2559 H 261.624 2.44284 -1.73969 0
M  V30 2560 H 259.177 1.25102 -0.936973 0
M  V30 2561 H 259.912 3.15969 0.73036 0
M  V30 2562 H 259.697 3.81154 -0.919992 0
M  V30 2563 H 261.187 4.176 0.000667944 0
M  V30 2564 N 261.624 0.925811 1.2754 0
M  V30 2565 C 263.04 0.625767 1.46821 0
M  V30 2566 C 263.24 -0.825506 1.83814 0
M  V30 2567 O 262.296 -1.60356 1.95044 0
M  V30 2568 C 263.609 1.57402 2.56213 0
M  V30 2569 C 265.157 1.58204 2.70075 0
M  V30 2570 C 265.632 2.51721 3.82623 0
M  V30 2571 N 267.123 2.49917 3.89994 0
M  V30 2572 C 267.858 3.18968 4.76494 0
M  V30 2573 N 267.354 3.97391 5.67496 0
M  V30 2574 N 269.147 3.07996 4.70208 0
M  V30 2575 H 261.298 1.86409 1.01811 0
M  V30 2576 H 263.561 0.800213 0.508295 0
M  V30 2577 H 263.267 2.60925 2.35819 0
M  V30 2578 H 263.141 1.31428 3.53563 0
M  V30 2579 H 265.528 0.554124 2.89851 0
M  V30 2580 H 265.609 1.88226 1.73218 0
M  V30 2581 H 265.253 3.54622 3.63601 0
M  V30 2582 H 265.183 2.18996 4.78903 0
M  V30 2583 H 267.674 1.9296 3.24923 0
M  V30 2584 H 267.987 4.4707 6.30356 0
M  V30 2585 H 266.332 4.01495 5.67298 0
M  V30 2586 H 269.523 2.46223 3.9811 0
M  V30 2587 H 269.696 3.6208 5.37403 0
M  V30 2588 N 263.102 -1.41638 0.69111 0
M  V30 2589 C 264.032 -2.3347 0.037248 0
M  V30 2590 C 265.013 -1.51575 -0.771947 0
M  V30 2591 O 266.198 -1.80126 -0.72582 0
M  V30 2592 C 263.328 -3.35354 -0.903064 0
M  V30 2593 C 262.282 -4.27526 -0.201288 0
M  V30 2594 C 261.608 -5.19747 -1.25565 0
M  V30 2595 C 262.908 -5.13959 0.929689 0
M  V30 2596 H 264.602 -2.88397 0.804227 0
M  V30 2597 H 262.148 -1.38669 0.388189 0
M  V30 2598 H 264.101 -3.98519 -1.36969 0
M  V30 2599 H 262.825 -2.78767 -1.70166 0
M  V30 2600 H 261.484 -3.65779 0.245265 0
M  V30 2601 H 261.132 -4.59479 -2.04666 0
M  V30 2602 H 260.832 -5.8225 -0.791128 0
M  V30 2603 H 262.356 -5.85789 -1.72288 0
M  V30 2604 H 263.77 -5.70718 0.543546 0
M  V30 2605 H 262.167 -5.85379 1.32103 0
M  V30 2606 H 263.237 -4.51389 1.77133 0
M  V30 2607 N 264.58 -0.43555 -1.51462 0
M  V30 2608 C 265.808 0.130242 -2.0649 0
M  V30 2609 C 266.223 1.36614 -1.30315 0
M  V30 2610 O 265.58 1.78869 -0.362223 0
M  V30 2611 C 265.631 0.454253 -3.58635 0
M  V30 2612 O 265.352 -0.73259 -4.31931 0
M  V30 2613 C 266.853 1.07091 -4.3017 0
M  V30 2614 H 264.073 0.00871669 -0.670943 0
M  V30 2615 H 266.617 -0.614117 -1.95061 0
M  V30 2616 H 264.772 1.14851 -3.69984 0
M  V30 2617 H 265.186 -0.455787 -5.22516 0
M  V30 2618 H 266.66 1.24764 -5.37716 0
M  V30 2619 H 267.137 2.05144 -3.88346 0
M  V30 2620 H 267.743 0.416089 -4.2326 0
M  V30 2621 N 266.058 1.56714 -0.166846 0
M  V30 2622 C 267.335 1.88412 0.525373 0
M  V30 2623 C 267.715 1.07602 1.81618 0
M  V30 2624 O 267.063 0.168621 2.27877 0
M  V30 2625 C 267.273 3.40363 0.771613 0
M  V30 2626 C 268.621 4.10007 1.1036 0
M  V30 2627 O 269.645 3.45655 0.860304 0
M  V30 2628 O 268.504 5.2369 1.56239 0
M  V30 2629 H 265.598 0.781587 0.270278 0
M  V30 2630 H 268.144 1.68458 -0.204946 0
M  V30 2631 H 266.916 3.91046 -0.141093 0
M  V30 2632 H 266.539 3.65914 1.55541 0
M  V30 2633 N 267.536 -0.106894 1.57237 0
M  V30 2634 C 268.947 -0.662723 1.74542 0
M  V30 2635 C 269.298 -1.7971 0.787319 0
M  V30 2636 O 268.423 -2.16368 -0.0369636 0
M  V30 2637 C 269.018 -1.20896 3.16496 0
M  V30 2638 C 267.577 -1.71096 3.35266 0
M  V30 2639 C 266.724 -0.615642 2.7038 0
M  V30 2640 H 269.675 0.119106 1.58252 0
M  V30 2641 H 269.696 -2.07847 3.18716 0
M  V30 2642 H 269.208 -0.383122 3.86204 0
M  V30 2643 H 267.309 -2.56119 2.70618 0
M  V30 2644 H 267.422 -1.81208 4.43509 0
M  V30 2645 H 265.786 -1.05222 2.31949 0
M  V30 2646 H 266.569 0.199419 3.4272 0
M  V30 2647 N 269.014 -1.53014 -0.377408 0
M  V30 2648 C 270.43 -1.42523 -0.718281 0
M  V30 2649 C 270.63 -0.55487 -1.9371 0
M  V30 2650 O 269.686 -0.0327593 -2.52479 0
M  V30 2651 C 270.999 -2.85546 -0.942539 0
M  V30 2652 C 272.547 -2.95101 -1.04329 0
M  V30 2653 C 273.022 -4.3916 -1.3001 0
M  V30 2654 N 274.513 -4.42536 -1.36806 0
M  V30 2655 C 275.248 -5.51097 -1.58364 0
M  V30 2656 N 274.744 -6.69724 -1.77317 0
M  V30 2657 N 276.537 -5.38657 -1.60638 0
M  V30 2658 H 268.688 -2.08116 0.424426 0
M  V30 2659 H 270.951 -0.939352 0.127759 0
M  V30 2660 H 270.657 -3.51499 -0.118929 0
M  V30 2661 H 270.531 -3.28493 -1.85397 0
M  V30 2662 H 272.918 -2.29309 -1.85745 0
M  V30 2663 H 272.999 -2.55566 -0.109505 0
M  V30 2664 H 272.643 -5.05521 -0.490991 0
M  V30 2665 H 272.573 -4.76258 -2.24691 0
M  V30 2666 H 275.064 -3.57039 -1.23821 0
M  V30 2667 H 275.377 -7.48233 -1.93306 0
M  V30 2668 H 273.722 -6.72732 -1.74518 0
M  V30 2669 H 276.913 -4.44948 -1.45391 0
M  V30 2670 H 277.086 -6.2333 -1.77098 0
M  V30 2671 N 270.492 0.636531 -1.44174 0
M  V30 2672 C 271.74 1.39343 -1.46383 0
M  V30 2673 C 272.061 1.94766 -0.0955715 0
M  V30 2674 O 271.331 1.75452 0.871395 0
M  V30 2675 H 269.911 0.517199 -0.538994 0
M  V30 2676 H 272.573 0.74957 -1.7991 0
M  V30 2677 H 271.669 2.22746 -2.18611 0
M  V30 2678 N 271.97 1.30982 0.876444 0
M  V30 2679 C 272.933 1.18054 1.96459 0
M  V30 2680 C 273.933 0.109399 1.60427 0
M  V30 2681 O 275.123 0.358173 1.70478 0
M  V30 2682 C 272.255 0.810616 3.31122 0
M  V30 2683 H 273.448 2.14735 2.09354 0
M  V30 2684 H 271.001 1.145 1.06392 0
M  V30 2685 H 271.736 -0.155322 3.23928 0
M  V30 2686 H 271.521 1.58481 3.58645 0
M  V30 2687 H 273.011 0.743876 4.10921 0
M  V30 2688 N 273.449 -1.08991 1.13837 0
M  V30 2689 C 274.381 -2.15606 0.777612 0
M  V30 2690 C 275.394 -1.61533 -0.202739 0
M  V30 2691 O 276.583 -1.78491 0.0181055 0
M  V30 2692 C 273.683 -3.3864 0.132623 0
M  V30 2693 C 272.856 -4.22115 1.1462 0
M  V30 2694 C 271.915 -5.23564 0.526074 0
M  V30 2695 O 270.941 -5.56678 1.18735 0
M  V30 2696 N 272.143 -5.76266 -0.699866 0
M  V30 2697 H 274.908 -2.47159 1.69506 0
M  V30 2698 H 272.469 -1.24747 1.03198 0
M  V30 2699 H 274.461 -4.03626 -0.29459 0
M  V30 2700 H 273.031 -3.04938 -0.687849 0
M  V30 2701 H 272.251 -3.53199 1.75055 0
M  V30 2702 H 273.539 -4.74709 1.83109 0
M  V30 2703 H 272.937 -5.51585 -1.25581 0
M  V30 2704 H 271.494 -6.42963 -1.06968 0
M  V30 2705 N 274.927 -0.932562 -1.27047 0
M  V30 2706 C 275.89 -0.440064 -2.24936 0
M  V30 2707 C 276.89 0.444071 -1.54547 0
M  V30 2708 O 278.08 0.244465 -1.72476 0
M  V30 2709 C 275.212 0.36678 -3.38921 0
M  V30 2710 H 276.405 -1.305 -2.70018 0
M  V30 2711 H 273.958 -0.713707 -1.39054 0
M  V30 2712 H 274.693 1.25033 -2.99228 0
M  V30 2713 H 274.478 -0.267204 -3.91188 0
M  V30 2714 H 275.968 0.701567 -4.11665 0
M  V30 2715 N 276.405 1.4127 -0.698611 0
M  V30 2716 C 277.355 2.27997 -0.0119836 0
M  V30 2717 C 278.339 1.42363 0.749765 0
M  V30 2718 O 279.531 1.65607 0.624758 0
M  V30 2719 C 276.66 3.30702 0.921458 0
M  V30 2720 C 275.746 4.23814 0.155796 0
M  V30 2721 N 276.137 4.98572 -0.852015 0
M  V30 2722 C 274.435 4.44284 0.390836 0
M  V30 2723 C 275.136 5.66744 -1.3106 0
M  V30 2724 N 274.112 5.39867 -0.635944 0
M  V30 2725 H 277.914 2.83232 -0.784649 0
M  V30 2726 H 275.428 1.53518 -0.529711 0
M  V30 2727 H 277.425 3.91661 1.42854 0
M  V30 2728 H 276.085 2.77028 1.69369 0
M  V30 2729 H 277.096 5.03024 -1.23235 0
M  V30 2730 H 273.773 4.01614 1.14071 0
M  V30 2731 H 275.163 6.36672 -2.14707 0
M  V30 2732 N 277.883 0.443576 1.51229 0
M  V30 2733 C 279.113 -0.119117 2.06256 0
M  V30 2734 C 279.521 -1.36471 1.31043 0
M  V30 2735 O 278.864 -1.80034 0.365151 0
M  V30 2736 C 278.926 -0.500546 3.55998 0
M  V30 2737 C 278.59 0.639125 4.52509 0
M  V30 2738 C 279.587 1.51311 4.97394 0
M  V30 2739 C 277.272 0.821632 4.95535 0
M  V30 2740 C 279.266 2.55425 5.83984 0
M  V30 2741 C 276.953 1.86603 5.81913 0
M  V30 2742 C 277.951 2.73072 6.26036 0
M  V30 2743 O 277.639 3.75718 7.10698 0
M  V30 2744 H 277.371 -0.00857665 0.675946 0
M  V30 2745 H 279.925 0.623288 1.95715 0
M  V30 2746 H 278.155 -1.29575 3.64345 0
M  V30 2747 H 279.844 -0.995116 3.93513 0
M  V30 2748 H 280.61 1.38367 4.64844 0
M  V30 2749 H 276.489 0.158149 4.60729 0
M  V30 2750 H 280.033 3.22949 6.18344 0
M  V30 2751 H 275.93 1.99564 6.13876 0
M  V30 2752 H 276.698 3.72374 7.2889 0
M  V30 2753 N 279.361 -1.56624 0.175154 0
M  V30 2754 C 280.293 -2.15333 -0.785128 0
M  V30 2755 C 281.306 -1.1099 -1.19101 0
M  V30 2756 O 282.495 -1.38162 -1.13019 0
M  V30 2757 C 279.595 -2.68427 -2.06882 0
M  V30 2758 C 278.768 -3.97466 -1.8259 0
M  V30 2759 C 277.827 -4.35585 -2.95215 0
M  V30 2760 O 276.853 -5.03389 -2.65684 0
M  V30 2761 N 278.055 -3.97457 -4.23094 0
M  V30 2762 H 280.82 -2.98359 -0.283187 0
M  V30 2763 H 278.381 -1.61898 -0.00749817 0
M  V30 2764 H 280.373 -2.90924 -2.81328 0
M  V30 2765 H 278.943 -1.89968 -2.48256 0
M  V30 2766 H 278.163 -3.83307 -0.920287 0
M  V30 2767 H 279.451 -4.81736 -1.63733 0
M  V30 2768 H 278.849 -3.42878 -4.49945 0
M  V30 2769 H 277.406 -4.24947 -4.9423 0
M  V30 2770 N 280.839 0.0985539 -1.57292 0
M  V30 2771 C 281.802 1.10402 -2.00858 0
M  V30 2772 C 282.802 1.33146 -0.901593 0
M  V30 2773 O 283.992 1.29318 -1.16716 0
M  V30 2774 C 281.124 2.45394 -2.36632 0
M  V30 2775 H 282.317 0.729099 -2.90902 0
M  V30 2776 H 279.87 0.343495 -1.52479 0
M  V30 2777 H 280.605 2.87769 -1.49531 0
M  V30 2778 H 280.39 2.30235 -3.17387 0
M  V30 2779 H 281.88 3.17718 -2.71007 0
M  V30 2780 N 282.317 1.53212 0.369288 0
M  V30 2781 C 283.563 1.69466 1.11397 0
M  V30 2782 C 283.896 0.443257 1.89074 0
M  V30 2783 O 283.171 -0.559386 1.86282 0
M  V30 2784 C 283.454 2.9422 2.07621 0
M  V30 2785 C 283.307 4.29508 1.33577 0
M  V30 2786 C 284.626 3.14565 3.07794 0
M  V30 2787 H 281.745 0.616667 0.403597 0
M  V30 2788 H 284.387 1.85845 0.395179 0
M  V30 2789 H 282.537 2.80387 2.68916 0
M  V30 2790 H 284.209 4.55147 0.750955 0
M  V30 2791 H 282.452 4.29088 0.637618 0
M  V30 2792 H 283.123 5.12926 2.03989 0
M  V30 2793 H 285.599 3.2756 2.56601 0
M  V30 2794 H 284.475 4.03297 3.72348 0
M  V30 2795 H 284.736 2.29675 3.77759 0
M  V30 2796 N 283.795 -0.628877 1.44509 0
M  V30 2797 C 285.035 -1.39993 1.48934 0
M  V30 2798 C 285.399 -1.91627 0.119604 0
M  V30 2799 O 286.6 -2.68772 0.0385283 0
M  V30 2800 C 284.871 -2.53241 2.52198 0
M  V30 2801 S 286.43 -3.41383 2.75687 0
M  V30 2802 H 283.248 -0.477558 0.526744 0
M  V30 2803 H 285.85 -0.727804 1.81448 0
M  V30 2804 H 284.554 -2.13622 3.50419 0
M  V30 2805 H 284.085 -3.25278 2.21264 0
M  V30 2806 H 286.1 -4.50752 2.07453 0
M  V30 2807 N 285.273 -1.31445 -0.869486 0
M  V30 2808 C 286.689 -1.10113 -1.15531 0
M  V30 2809 C 286.889 0.128087 -2.01092 0
M  V30 2810 O 285.945 0.817276 -2.38908 0
M  V30 2811 C 287.258 -2.37291 -1.84698 0
M  V30 2812 C 288.806 -2.42906 -1.97397 0
M  V30 2813 C 289.281 -3.69967 -2.69979 0
M  V30 2814 N 290.772 -3.70864 -2.77514 0
M  V30 2815 C 291.507 -4.65875 -3.34287 0
M  V30 2816 N 291.003 -5.71242 -3.91988 0
M  V30 2817 N 292.796 -4.53394 -3.3225 0
M  V30 2818 H 284.947 -2.1028 -0.299347 0
M  V30 2819 H 287.21 -0.927683 -0.195214 0
M  V30 2820 H 286.916 -3.27078 -1.29278 0
M  V30 2821 H 286.79 -2.47125 -2.84972 0
M  V30 2822 H 289.177 -1.53588 -2.51982 0
M  V30 2823 H 289.258 -2.37036 -0.961643 0
M  V30 2824 H 288.902 -4.59652 -2.16062 0
M  V30 2825 H 288.832 -3.73103 -3.7162 0
M  V30 2826 H 291.323 -2.94697 -2.36563 0
M  V30 2827 H 291.636 -6.39817 -4.33421 0
M  V30 2828 H 289.981 -5.75015 -3.90362 0
M  V30 2829 H 293.172 -3.70252 -2.8641 0
M  V30 2830 H 293.345 -5.27617 -3.76197 0
M  V30 2831 N 286.751 1.08385 -1.14413 0
M  V30 2832 C 287.714 2.13486 -0.834048 0
M  V30 2833 C 288.714 1.59988 0.161418 0
M  V30 2834 O 289.904 1.74071 -0.0669575 0
M  V30 2835 C 287.036 3.4003 -0.243354 0
M  V30 2836 H 288.229 2.42425 -1.7655 0
M  V30 2837 H 285.782 1.24101 -0.950189 0
M  V30 2838 H 286.517 3.16726 0.696807 0
M  V30 2839 H 286.302 3.80157 -0.960367 0
M  V30 2840 H 287.792 4.17577 -0.0436242 0
M  V30 2841 N 288.23 0.939286 1.26551 0
M  V30 2842 C 289.16 0.465044 2.28822 0
M  V30 2843 C 290.141 -0.480692 1.63167 0
M  V30 2844 O 291.326 -0.382955 1.90387 0
M  V30 2845 C 288.456 -0.27234 3.46231 0
M  V30 2846 C 287.41 0.58666 4.2396 0
M  V30 2847 C 286.736 -0.280573 5.33963 0
M  V30 2848 C 288.036 1.85704 4.88171 0
M  V30 2849 H 289.73 1.31979 2.68741 0
M  V30 2850 H 287.276 0.636061 1.29191 0
M  V30 2851 H 289.229 -0.615133 4.16886 0
M  V30 2852 H 287.953 -1.16121 3.0526 0
M  V30 2853 H 286.612 0.91232 3.55067 0
M  V30 2854 H 286.26 -1.16874 4.89234 0
M  V30 2855 H 285.96 0.29076 5.8688 0
M  V30 2856 H 287.484 -0.618678 6.07458 0
M  V30 2857 H 288.898 1.58161 5.51052 0
M  V30 2858 H 287.295 2.37279 5.51197 0
M  V30 2859 H 288.365 2.56957 4.11219 0
M  V30 2860 N 289.708 -1.40897 0.706093 0
M  V30 2861 C 290.955 -2.01054 0.241531 0
M  V30 2862 C 291.283 -1.55956 -1.16223 0
M  V30 2863 O 290.538 -0.766336 -1.80072 0
M  V30 2864 C 290.837 -3.5646 0.259099 0
M  V30 2865 C 290.503 -4.21106 1.61184 0
M  V30 2866 C 289.165 -4.38479 1.98216 0
M  V30 2867 C 291.517 -4.57256 2.50132 0
M  V30 2868 C 288.845 -4.89282 3.2376 0
M  V30 2869 C 291.197 -5.09454 3.7502 0
M  V30 2870 C 289.861 -5.25037 4.12181 0
M  V30 2871 H 289.131 -0.73571 0.0883825 0
M  V30 2872 H 291.778 -1.68645 0.907257 0
M  V30 2873 H 290.083 -3.88721 -0.490189 0
M  V30 2874 H 291.78 -4.00826 -0.11804 0
M  V30 2875 H 288.37 -4.07966 1.31384 0
M  V30 2876 H 292.554 -4.43479 2.228 0
M  V30 2877 H 287.81 -4.99531 3.52532 0
M  V30 2878 H 291.984 -5.36404 4.44121 0
M  V30 2879 H 289.611 -5.64164 5.09532 0
M  V30 2880 N 291.186 -0.45159 -1.50991 0
M  V30 2881 C 292.432 0.110237 -2.025 0
M  V30 2882 C 292.765 1.41109 -1.33424 0
M  V30 2883 O 292.04 1.89135 -0.453659 0
M  V30 2884 C 292.323 0.314271 -3.58726 0
M  V30 2885 C 292.176 -1.00623 -4.38401 0
M  V30 2886 C 293.495 1.07767 -4.26702 0
M  V30 2887 H 290.614 0.0385897 -0.735989 0
M  V30 2888 H 293.256 -0.593374 -1.80497 0
M  V30 2889 H 291.406 0.913601 -3.77605 0
M  V30 2890 H 293.078 -1.64064 -4.31139 0
M  V30 2891 H 291.321 -1.6075 -4.02917 0
M  V30 2892 H 291.992 -0.817341 -5.45915 0
M  V30 2893 H 294.468 0.56986 -4.12179 0
M  V30 2894 H 293.344 1.18921 -5.35863 0
M  V30 2895 H 293.605 2.10939 -3.88532 0
M  V30 2896 N 292.664 1.56529 -0.183458 0
M  V30 2897 C 293.574 2.22144 0.754272 0
M  V30 2898 C 294.59 1.21684 1.24374 0
M  V30 2899 O 295.766 1.54385 1.29333 0
M  V30 2900 C 292.831 2.85884 1.96141 0
M  V30 2901 C 291.892 4.01579 1.51765 0
M  V30 2902 C 291.125 4.6227 2.66725 0
M  V30 2903 O 291.348 4.21865 3.83909 0
M  V30 2904 O 290.282 5.51936 2.40104 0
M  V30 2905 H 294.108 3.02861 0.225527 0
M  V30 2906 H 291.693 1.49331 0.0453032 0
M  V30 2907 H 293.575 3.26253 2.66715 0
M  V30 2908 H 292.25 2.08154 2.47899 0
M  V30 2909 H 291.157 3.65856 0.781049 0
M  V30 2910 H 292.49 4.80938 1.04686 0
M  V30 2911 N 294.142 -0.090211 1.57342 0
M  V30 2912 C 295.37 -0.806224 1.90546 0
M  V30 2913 C 295.785 -1.72041 0.777644 0
M  V30 2914 O 295.142 -1.80778 -0.250103 0
M  V30 2915 C 295.193 -1.61546 3.23396 0
M  V30 2916 O 294.914 -0.738043 4.31839 0
M  V30 2917 C 296.415 -2.4341 3.70495 0
M  V30 2918 H 293.635 -0.230256 0.630257 0
M  V30 2919 H 296.179 -0.0659843 2.04394 0
M  V30 2920 H 294.334 -2.30816 3.11131 0
M  V30 2921 H 294.748 -1.29901 5.08159 0
M  V30 2922 H 296.222 -2.95676 4.66133 0
M  V30 2923 H 296.699 -3.22098 2.98579 0
M  V30 2924 H 297.305 -1.79331 3.85643 0
M  V30 2925 N 295.62 -1.53406 -0.361157 0
M  V30 2926 C 296.55 -1.83136 -1.44857 0
M  V30 2927 C 297.531 -0.685174 -1.5569 0
M  V30 2928 O 298.716 -0.93544 -1.70186 0
M  V30 2929 C 295.846 -2.02522 -2.82138 0
M  V30 2930 C 294.8 -3.18302 -2.86126 0
M  V30 2931 C 294.126 -3.22989 -4.26125 0
M  V30 2932 C 295.426 -4.56796 -2.53248 0
M  V30 2933 H 297.12 -2.74201 -1.20226 0
M  V30 2934 H 294.666 -1.31938 -0.576922 0
M  V30 2935 H 296.619 -2.21904 -3.58241 0
M  V30 2936 H 295.343 -1.08172 -3.08166 0
M  V30 2937 H 294.002 -2.98747 -2.12475 0
M  V30 2938 H 293.65 -2.26267 -4.49235 0
M  V30 2939 H 293.35 -4.00781 -4.29708 0
M  V30 2940 H 294.874 -3.44559 -5.04094 0
M  V30 2941 H 296.288 -4.7631 -3.19064 0
M  V30 2942 H 294.685 -5.36862 -2.68141 0
M  V30 2943 H 295.755 -4.61606 -1.48484 0
M  V30 2944 N 297.098 0.621204 -1.44841 0
M  V30 2945 C 298.008 1.7612 -1.5498 0
M  V30 2946 C 299.024 1.68477 -0.434927 0
M  V30 2947 O 300.2 1.89076 -0.693693 0
M  V30 2948 C 297.265 3.1254 -1.50065 0
M  V30 2949 C 296.326 3.31741 -2.72482 0
M  V30 2950 C 295.559 4.61653 -2.67792 0
M  V30 2951 O 295.782 5.431 -1.74352 0
M  V30 2952 O 294.716 4.83271 -3.58794 0
M  V30 2953 H 298.542 1.70518 -2.51311 0
M  V30 2954 H 296.127 0.783643 -1.27198 0
M  V30 2955 H 298.009 3.93844 -1.49882 0
M  V30 2956 H 296.684 3.18663 -0.568806 0
M  V30 2957 H 295.591 2.50077 -2.7823 0
M  V30 2958 H 296.924 3.30486 -3.64746 0
M  V30 2959 N 298.576 1.31904 0.862503 0
M  V30 2960 C 299.506 1.22782 1.98612 0
M  V30 2961 C 300.487 0.113362 1.69722 0
M  V30 2962 O 301.672 0.299218 1.91881 0
M  V30 2963 C 298.802 0.942058 3.34279 0
M  V30 2964 C 297.756 2.0169 3.77499 0
M  V30 2965 C 297.082 1.58369 5.10709 0
M  V30 2966 C 298.382 3.43096 3.93805 0
M  V30 2967 H 300.076 2.16788 2.06502 0
M  V30 2968 H 297.622 1.04366 0.992154 0
M  V30 2969 H 299.575 0.864818 4.1243 0
M  V30 2970 H 298.299 -0.0336603 3.26583 0
M  V30 2971 H 296.958 2.08416 3.01593 0
M  V30 2972 H 296.606 0.595628 4.99461 0
M  V30 2973 H 296.306 2.30279 5.40597 0
M  V30 2974 H 297.83 1.52067 5.91361 0
M  V30 2975 H 299.244 3.39003 4.62331 0
M  V30 2976 H 297.641 4.13288 4.35101 0
M  V30 2977 H 298.711 3.83334 2.96957 0
M  V30 2978 N 300.054 -1.07777 1.14986 0
M  V30 2979 C 301.47 -1.32373 0.891596 0
M  V30 2980 C 301.67 -1.9609 -0.463788 0
M  V30 2981 O 300.726 -2.21801 -1.20667 0
M  V30 2982 C 302.039 -2.21905 2.02925 0
M  V30 2983 C 303.587 -2.35367 2.06329 0
M  V30 2984 C 304.062 -3.28245 3.19405 0
M  V30 2985 N 305.553 -3.35824 3.19024 0
M  V30 2986 C 306.288 -4.07739 4.03158 0
M  V30 2987 N 305.784 -4.82306 4.97346 0
M  V30 2988 N 307.577 -4.03635 3.91197 0
M  V30 2989 H 299.728 -0.648039 2.02273 0
M  V30 2990 H 301.991 -0.348149 0.881757 0
M  V30 2991 H 301.697 -1.82342 3.0074 0
M  V30 2992 H 301.571 -3.22407 1.95789 0
M  V30 2993 H 303.958 -2.74186 1.09116 0
M  V30 2994 H 304.039 -1.34585 2.17533 0
M  V30 2995 H 303.683 -2.90146 4.16867 0
M  V30 2996 H 303.613 -4.28971 3.05437 0
M  V30 2997 H 306.104 -2.8267 2.50811 0
M  V30 2998 H 306.417 -5.34661 5.57994 0
M  V30 2999 H 304.762 -4.81337 5.01338 0
M  V30 3000 H 307.953 -3.44491 3.16928 0
M  V30 3001 H 308.126 -4.59417 4.5699 0
M  V30 3002 N 301.532 -0.945985 -1.26051 0
M  V30 3003 C 302.495 -0.463897 -2.24456 0
M  V30 3004 C 303.495 0.427655 -1.55009 0
M  V30 3005 O 304.685 0.226157 -1.72726 0
M  V30 3006 C 301.817 0.330812 -3.39291 0
M  V30 3007 H 303.01 -1.33357 -2.68619 0
M  V30 3008 H 300.563 -0.728416 -1.38289 0
M  V30 3009 H 301.298 1.21852 -3.00537 0
M  V30 3010 H 301.083 -0.308679 -3.90883 0
M  V30 3011 H 302.573 0.657865 -4.12386 0
M  V30 3012 N 303.011 1.40521 -0.713556 0
M  V30 3013 C 304.258 2.00923 -0.25219 0
M  V30 3014 C 304.586 1.56571 1.15395 0
M  V30 3015 O 303.841 0.775874 1.79663 0
M  V30 3016 C 304.14 3.56317 -0.278 0
M  V30 3017 C 303.806 4.20246 -1.63415 0
M  V30 3018 C 302.468 4.37422 -2.00538 0
M  V30 3019 C 304.82 4.55923 -2.52554 0
M  V30 3020 C 302.148 4.87558 -3.2635 0
M  V30 3021 C 304.5 5.07458 -3.77716 0
M  V30 3022 C 303.164 5.22843 -4.14959 0
M  V30 3023 H 302.434 0.735231 -0.0922829 0
M  V30 3024 H 305.081 1.68161 -0.916188 0
M  V30 3025 H 303.386 3.88976 0.469567 0
M  V30 3026 H 305.083 4.00883 0.0967819 0
M  V30 3027 H 301.673 4.07263 -1.33546 0
M  V30 3028 H 305.857 4.42291 -2.25149 0
M  V30 3029 H 301.113 4.97654 -3.55176 0
M  V30 3030 H 305.287 5.34041 -4.4696 0
M  V30 3031 H 302.914 5.61454 -5.12516 0
M  V30 3032 N 304.489 0.459591 1.5075 0
M  V30 3033 C 305.419 -0.330644 2.31147 0
M  V30 3034 C 306.4 -1.00087 1.37538 0
M  V30 3035 O 307.585 -1.00025 1.66459 0
M  V30 3036 C 304.715 -1.41958 3.16962 0
M  V30 3037 C 303.669 -0.871608 4.19031 0
M  V30 3038 C 302.995 -2.05797 4.9351 0
M  V30 3039 C 304.295 0.109251 5.22186 0
M  V30 3040 H 305.989 0.340336 2.97459 0
M  V30 3041 H 303.535 0.165119 1.4305 0
M  V30 3042 H 305.488 -1.9798 3.71997 0
M  V30 3043 H 304.212 -2.11917 2.48513 0
M  V30 3044 H 302.871 -0.333442 3.6508 0
M  V30 3045 H 302.519 -2.74427 4.21544 0
M  V30 3046 H 302.219 -1.6976 5.62544 0
M  V30 3047 H 303.743 -2.62331 5.51375 0
M  V30 3048 H 305.157 -0.361405 5.7216 0
M  V30 3049 H 303.554 0.383316 5.98875 0
M  V30 3050 H 304.624 1.03887 4.73641 0
M  V30 3051 N 305.967 -1.56429 0.191757 0
M  V30 3052 C 306.93 -2.17707 -0.716688 0
M  V30 3053 C 307.93 -1.13061 -1.14341 0
M  V30 3054 O 309.12 -1.38464 -1.05704 0
M  V30 3055 C 306.252 -2.77644 -1.97804 0
M  V30 3056 H 307.445 -2.99342 -0.1829 0
M  V30 3057 H 304.998 -1.56193 -0.0578566 0
M  V30 3058 H 305.733 -1.99799 -2.55443 0
M  V30 3059 H 305.518 -3.54246 -1.68083 0
M  V30 3060 H 307.008 -3.24708 -2.62592 0
M  V30 3061 N 307.445 0.0818655 -1.57387 0
M  V30 3062 C 308.861 0.436412 -1.53517 0
M  V30 3063 C 309.061 1.79758 -0.910459 0
M  V30 3064 O 308.117 2.47324 -0.508636 0
M  V30 3065 C 309.43 0.386734 -2.98203 0
M  V30 3066 C 310.978 0.467644 -3.09487 0
M  V30 3067 C 311.453 0.447978 -4.55804 0
M  V30 3068 N 312.944 0.508348 -4.60402 0
M  V30 3069 C 313.679 0.515184 -5.71081 0
M  V30 3070 N 313.175 0.477435 -6.91153 0
M  V30 3071 N 314.968 0.560988 -5.59294 0
M  V30 3072 H 307.119 -0.809546 -1.96367 0
M  V30 3073 H 309.382 -0.302733 -0.898363 0
M  V30 3074 H 309.088 -0.546539 -3.47427 0
M  V30 3075 H 308.962 1.20075 -3.57578 0
M  V30 3076 H 311.349 1.39134 -2.60242 0
M  V30 3077 H 311.43 -0.374753 -2.5304 0
M  V30 3078 H 311.074 -0.471826 -5.05704 0
M  V30 3079 H 311.004 1.30777 -5.10103 0
M  V30 3080 H 313.495 0.54218 -3.7399 0
M  V30 3081 H 313.808 0.486299 -7.71268 0
M  V30 3082 H 312.153 0.444278 -6.93579 0
M  V30 3083 H 315.344 0.5881 -4.64391 0
M  V30 3084 H 315.517 0.562846 -6.45551 0
M  V30 3085 N 308.923 1.53595 0.353017 0
M  V30 3086 C 310.169 1.70638 1.09593 0
M  V30 3087 C 310.502 0.463286 1.88593 0
M  V30 3088 O 309.777 -0.539597 1.86865 0
M  V30 3089 C 310.06 2.96406 2.04489 0
M  V30 3090 C 309.913 4.30901 1.29014 0
M  V30 3091 C 311.232 3.17812 3.0444 0
M  V30 3092 H 308.351 0.620913 0.397034 0
M  V30 3093 H 310.993 1.86254 0.375446 0
M  V30 3094 H 309.143 2.83223 2.65927 0
M  V30 3095 H 310.815 4.55917 0.702638 0
M  V30 3096 H 309.058 4.29741 0.592071 0
M  V30 3097 H 309.729 5.1506 1.98537 0
M  V30 3098 H 312.205 3.30263 2.53112 0
M  V30 3099 H 311.081 4.07223 3.6805 0
M  V30 3100 H 311.342 2.33669 3.75301 0
M  V30 3101 N 310.401 -0.613514 1.45168 0
M  V30 3102 C 311.817 -0.933629 1.29443 0
M  V30 3103 C 312.017 -2.00028 0.243101 0
M  V30 3104 O 311.073 -2.49848 -0.364992 0
M  V30 3105 C 312.386 -1.38018 2.67155 0
M  V30 3106 C 313.934 -1.49471 2.75004 0
M  V30 3107 C 314.409 -1.97503 4.13227 0
M  V30 3108 N 315.9 -2.04746 4.15491 0
M  V30 3109 C 316.635 -2.43121 5.19307 0
M  V30 3110 N 316.131 -2.80506 6.33473 0
M  V30 3111 N 317.924 -2.43408 5.06664 0
M  V30 3112 H 310.075 0.0916097 2.12202 0
M  V30 3113 H 312.338 -0.0216655 0.947752 0
M  V30 3114 H 312.044 -0.670625 3.45247 0
M  V30 3115 H 311.918 -2.34784 2.95222 0
M  V30 3116 H 314.305 -2.19519 1.9722 0
M  V30 3117 H 314.386 -0.510342 2.50657 0
M  V30 3118 H 314.03 -1.28045 4.91495 0
M  V30 3119 H 313.96 -2.96843 4.34962 0
M  V30 3120 H 316.451 -1.78468 3.33103 0
M  V30 3121 H 316.764 -3.08652 7.08487 0
M  V30 3122 H 315.109 -2.78216 6.36884 0
M  V30 3123 H 318.3 -2.13604 4.16523 0
M  V30 3124 H 318.473 -2.72989 5.87691 0
M  V30 3125 N 311.879 -1.3236 -0.855495 0
M  V30 3126 C 312.789 -1.23221 -1.99634 0
M  V30 3127 C 313.805 -0.145983 -1.73387 0
M  V30 3128 O 314.981 -0.366502 -1.98037 0
M  V30 3129 C 312.046 -0.954782 -3.33294 0
M  V30 3130 C 311.107 -2.12937 -3.72769 0
M  V30 3131 C 310.34 -1.86508 -5.00051 0
M  V30 3132 O 310.563 -0.807231 -5.64659 0
M  V30 3133 O 309.497 -2.72591 -5.36636 0
M  V30 3134 H 313.323 -2.19126 -2.1028 0
M  V30 3135 H 310.908 -1.12241 -0.986018 0
M  V30 3136 H 312.79 -0.816519 -4.13414 0
M  V30 3137 H 311.465 -0.0258854 -3.2369 0
M  V30 3138 H 310.372 -2.3231 -2.93228 0
M  V30 3139 H 311.705 -3.04102 -3.87018 0
M  V30 3140 N 313.357 1.07166 -1.15556 0
M  V30 3141 C 314.32 2.12589 -0.856644 0
M  V30 3142 C 315.32 1.6015 0.14444 0
M  V30 3143 O 316.51 1.7399 -0.0854163 0
M  V30 3144 C 313.642 3.39753 -0.279405 0
M  V30 3145 H 314.835 2.40539 -1.79112 0
M  V30 3146 H 312.388 1.23086 -0.963298 0
M  V30 3147 H 313.123 3.17447 0.663174 0
M  V30 3148 H 312.908 3.79117 -1.00063 0
M  V30 3149 H 314.398 4.17507 -0.0879113 0
M  V30 3150 N 314.835 0.952656 1.25548 0
M  V30 3151 C 315.782 0.47008 2.25962 0
M  V30 3152 C 316.752 -0.476384 1.59122 0
M  V30 3153 O 317.937 -0.39007 1.8677 0
M  V30 3154 C 315.077 -0.247881 3.44209 0
M  V30 3155 C 314.19 0.735591 4.25691 0
M  V30 3156 C 313.325 -0.0047306 5.312 0
M  V30 3157 C 312.364 0.969805 6.04368 0
M  V30 3158 N 311.501 0.260486 7.01617 0
M  V30 3159 H 316.341 1.33126 2.66611 0
M  V30 3160 H 313.878 0.66765 1.31076 0
M  V30 3161 H 315.836 -0.680695 4.1161 0
M  V30 3162 H 314.466 -1.07312 3.0444 0
M  V30 3163 H 313.518 1.28689 3.57971 0
M  V30 3164 H 314.83 1.47934 4.76358 0
M  V30 3165 H 313.984 -0.496275 6.04667 0
M  V30 3166 H 312.723 -0.781282 4.81401 0
M  V30 3167 H 311.728 1.47237 5.29718 0
M  V30 3168 H 312.953 1.74655 6.56256 0
M  V30 3169 H 310.899 -0.497364 6.54112 0
M  V30 3170 H 310.816 0.943362 7.50091 0
M  V30 3171 H 312.084 -0.209587 7.79218 0
M  V30 3172 N 316.313 -1.40141 0.720998 0
M  V30 3173 C 317.223 -2.34486 0.0731031 0
M  V30 3174 C 318.239 -1.57587 -0.737723 0
M  V30 3175 O 319.415 -1.89949 -0.669429 0
M  V30 3176 C 316.48 -3.36528 -0.833656 0
M  V30 3177 C 315.541 -4.29298 -0.0121673 0
M  V30 3178 C 314.774 -5.26466 -0.875742 0
M  V30 3179 O 314.997 -5.29745 -2.11485 0
M  V30 3180 O 313.931 -6.01092 -0.31185 0
M  V30 3181 H 317.757 -2.9152 0.851444 0
M  V30 3182 H 315.342 -1.41427 0.481527 0
M  V30 3183 H 317.224 -3.99093 -1.35289 0
M  V30 3184 H 315.899 -2.81899 -1.59105 0
M  V30 3185 H 314.806 -3.70001 0.552262 0
M  V30 3186 H 316.139 -4.87094 0.707129 0
M  V30 3187 N 317.792 -0.46758 -1.50504 0
M  V30 3188 C 318.725 0.374324 -2.25109 0
M  V30 3189 C 319.703 0.99921 -1.28275 0
M  V30 3190 O 320.887 1.03583 -1.57489 0
M  V30 3191 C 318.014 1.52419 -3.02467 0
M  V30 3192 C 317.06 1.01702 -4.14197 0
M  V30 3193 S 317.893 -0.0654477 -5.3546 0
M  V30 3194 C 319.049 1.08837 -6.16365 0
M  V30 3195 H 319.282 -0.258983 -2.9617 0
M  V30 3196 H 316.815 -0.252421 -1.52323 0
M  V30 3197 H 318.773 2.18322 -3.47628 0
M  V30 3198 H 317.434 2.129 -2.30938 0
M  V30 3199 H 316.627 1.87776 -4.67714 0
M  V30 3200 H 316.229 0.435757 -3.71453 0
M  V30 3201 H 318.521 2.00071 -6.47285 0
M  V30 3202 H 319.464 0.592538 -7.05616 0
M  V30 3203 H 319.872 1.34061 -5.4835 0
M  V30 3204 N 319.27 1.56325 -0.20005 0
M  V30 3205 C 320.2 2.22318 0.713916 0
M  V30 3206 C 321.181 1.18788 1.21752 0
M  V30 3207 O 322.366 1.47309 1.26545 0
M  V30 3208 C 319.496 2.88639 1.93144 0
M  V30 3209 C 318.45 3.98457 1.56255 0
M  V30 3210 C 317.776 4.51967 2.85709 0
M  V30 3211 C 319.076 5.16612 0.768747 0
M  V30 3212 H 320.77 2.98952 0.163755 0
M  V30 3213 H 318.316 1.43792 0.0773219 0
M  V30 3214 H 320.269 3.33491 2.57608 0
M  V30 3215 H 318.993 2.09419 2.50621 0
M  V30 3216 H 317.652 3.54305 0.941471 0
M  V30 3217 H 317.3 3.69503 3.41287 0
M  V30 3218 H 317 5.26071 2.6177 0
M  V30 3219 H 318.524 4.99523 3.51154 0
M  V30 3220 H 319.938 5.57977 1.3166 0
M  V30 3221 H 318.335 5.96812 0.627286 0
M  V30 3222 H 319.405 4.84358 -0.229168 0
M  V30 3223 N 320.748 -0.0735177 1.57428 0
M  V30 3224 C 321.68 -1.11423 2.00294 0
M  V30 3225 C 322.693 -1.35084 0.908637 0
M  V30 3226 O 323.882 -1.33355 1.18654 0
M  V30 3227 C 320.982 -2.46548 2.32523 0
M  V30 3228 C 320.155 -2.42867 3.63778 0
M  V30 3229 C 319.214 -3.60087 3.83697 0
M  V30 3230 O 318.24 -3.41595 4.55304 0
M  V30 3231 N 319.442 -4.80372 3.25919 0
M  V30 3232 H 322.207 -0.749206 2.90184 0
M  V30 3233 H 319.768 -0.262195 1.59763 0
M  V30 3234 H 321.76 -3.23607 2.43024 0
M  V30 3235 H 320.33 -2.75059 1.48531 0
M  V30 3236 H 319.55 -1.51206 3.64047 0
M  V30 3237 H 320.838 -2.37506 4.49965 0
M  V30 3238 H 320.236 -4.983 2.67795 0
M  V30 3239 H 318.793 -5.54948 3.41871 0
M  V30 3240 N 322.226 -1.5378 -0.344866 0
M  V30 3241 C 323.173 -1.81676 -1.42346 0
M  V30 3242 C 324.143 -0.662376 -1.52321 0
M  V30 3243 O 325.328 -0.906675 -1.67881 0
M  V30 3244 C 322.468 -2.03087 -2.79015 0
M  V30 3245 C 321.581 -3.30799 -2.77842 0
M  V30 3246 C 320.716 -3.42285 -4.0622 0
M  V30 3247 C 319.755 -4.6395 -3.9927 0
M  V30 3248 N 318.892 -4.72477 -5.19336 0
M  V30 3249 H 323.732 -2.73703 -1.17858 0
M  V30 3250 H 321.269 -1.35568 -0.570949 0
M  V30 3251 H 323.227 -2.1349 -3.58438 0
M  V30 3252 H 321.857 -1.14375 -3.01858 0
M  V30 3253 H 320.909 -3.29244 -1.90533 0
M  V30 3254 H 322.221 -4.20314 -2.68584 0
M  V30 3255 H 321.375 -3.52113 -4.94066 0
M  V30 3256 H 320.114 -2.50823 -4.18258 0
M  V30 3257 H 319.119 -4.54201 -3.09809 0
M  V30 3258 H 320.344 -5.56775 -3.88817 0
M  V30 3259 H 318.29 -3.83924 -5.3192 0
M  V30 3260 H 318.207 -5.55927 -5.12329 0
M  V30 3261 H 319.475 -4.86613 -6.08957 0
M  V30 3262 N 323.704 0.605807 -1.45491 0
M  V30 3263 C 324.634 1.72709 -1.57143 0
M  V30 3264 C 325.615 1.6476 -0.422884 0
M  V30 3265 O 326.8 1.83132 -0.646247 0
M  V30 3266 C 323.93 3.11316 -1.53948 0
M  V30 3267 C 322.884 3.34077 -2.67537 0
M  V30 3268 C 322.21 4.72975 -2.49397 0
M  V30 3269 C 323.51 3.24158 -4.09535 0
M  V30 3270 H 325.204 1.63214 -2.51001 0
M  V30 3271 H 322.75 0.78379 -1.208 0
M  V30 3272 H 324.703 3.89557 -1.60696 0
M  V30 3273 H 323.427 3.21655 -0.566205 0
M  V30 3274 H 322.086 2.58227 -2.6022 0
M  V30 3275 H 321.734 4.8005 -1.50205 0
M  V30 3276 H 321.434 4.8916 -3.25571 0
M  V30 3277 H 322.958 5.53414 -2.58002 0
M  V30 3278 H 324.372 3.92271 -4.18086 0
M  V30 3279 H 322.769 3.51872 -4.86113 0
M  V30 3280 H 323.839 2.2157 -4.31317 0
M  V30 3281 N 325.182 1.32811 0.848464 0
M  V30 3282 C 326.598 1.11937 1.13764 0
M  V30 3283 C 326.798 -0.0960789 2.01271 0
M  V30 3284 O 325.854 -0.779165 2.40178 0
M  V30 3285 C 327.167 2.402 1.809 0
M  V30 3286 C 328.715 2.46016 1.93508 0
M  V30 3287 C 329.19 3.74215 2.64059 0
M  V30 3288 N 330.681 3.75232 2.71579 0
M  V30 3289 C 331.416 4.71134 3.26833 0
M  V30 3290 N 330.912 5.77406 3.8285 0
M  V30 3291 N 332.705 4.58623 3.24995 0
M  V30 3292 H 324.856 2.1073 0.265855 0
M  V30 3293 H 327.119 0.930671 0.180431 0
M  V30 3294 H 326.825 3.29093 1.24058 0
M  V30 3295 H 326.699 2.51628 2.81004 0
M  V30 3296 H 329.086 1.57577 2.49506 0
M  V30 3297 H 329.167 2.38536 0.923811 0
M  V30 3298 H 328.811 4.63031 2.08722 0
M  V30 3299 H 328.741 3.78968 3.65637 0
M  V30 3300 H 331.232 2.98423 2.31845 0
M  V30 3301 H 331.545 6.46632 4.23187 0
M  V30 3302 H 329.89 5.81152 3.81165 0
M  V30 3303 H 333.081 3.74762 2.80484 0
M  V30 3304 H 333.254 5.33535 3.67756 0
M  V30 3305 N 326.66 -1.06551 1.16123 0
M  V30 3306 C 327.57 -2.17484 0.879662 0
M  V30 3307 C 328.586 -1.73377 -0.147104 0
M  V30 3308 O 329.762 -2.01379 0.0289128 0
M  V30 3309 C 326.827 -3.44591 0.381829 0
M  V30 3310 C 325.888 -4.0322 1.4735 0
M  V30 3311 C 325.121 -5.24261 0.999324 0
M  V30 3312 O 325.344 -5.70198 -0.151957 0
M  V30 3313 O 324.278 -5.74775 1.78653 0
M  V30 3314 H 328.104 -2.44075 1.80724 0
M  V30 3315 H 325.689 -1.16042 0.940992 0
M  V30 3316 H 327.571 -4.21254 0.111053 0
M  V30 3317 H 326.246 -3.19532 -0.51777 0
M  V30 3318 H 325.153 -3.2806 1.79798 0
M  V30 3319 H 326.486 -4.32568 2.34831 0
M  V30 3320 N 328.138 -0.959301 -1.25041 0
M  V30 3321 C 329.415 -0.533805 -1.88175 0
M  V30 3322 C 329.795 0.988994 -1.865 0
M  V30 3323 O 329.143 1.85677 -1.33177 0
M  V30 3324 C 329.353 -1.11575 -3.30684 0
M  V30 3325 C 330.701 -1.19548 -4.07423 0
M  V30 3326 O 331.725 -1.06765 -3.39823 0
M  V30 3327 O 330.584 -1.39656 -5.28354 0
M  V30 3328 H 327.678 -0.176772 -0.807887 0
M  V30 3329 H 330.224 -1.05303 -1.33076 0
M  V30 3330 H 328.996 -2.15884 -3.26358 0
M  V30 3331 H 328.619 -0.580059 -3.93346 0
M  V30 3332 N 329.616 1.39756 -0.72842 0
M  V30 3333 C 330.526 2.34444 -0.0855374 0
M  V30 3334 C 331.542 1.57976 0.729356 0
M  V30 3335 O 332.718 1.90301 0.659346 0
M  V30 3336 C 329.783 3.36965 0.815798 0
M  V30 3337 C 328.844 4.29299 -0.0105996 0
M  V30 3338 C 328.077 5.26923 0.84781 0
M  V30 3339 O 328.3 5.30859 2.08673 0
M  V30 3340 O 327.234 6.01249 0.279969 0
M  V30 3341 H 331.06 2.91065 -0.866892 0
M  V30 3342 H 328.645 1.4117 -0.48902 0
M  V30 3343 H 330.527 3.99804 1.33171 0
M  V30 3344 H 329.202 2.82739 1.57608 0
M  V30 3345 H 328.109 3.69703 -0.571877 0
M  V30 3346 H 329.442 4.86712 -0.73295 0
M  V30 3347 N 331.094 0.475555 1.50254 0
M  V30 3348 C 332.505 0.0215174 1.86688 0
M  V30 3349 C 332.856 -1.38467 1.39001 0
M  V30 3350 O 331.981 -2.02732 0.756894 0
M  V30 3351 C 332.576 0.0322715 3.38785 0
M  V30 3352 C 331.135 -0.366314 3.74613 0
M  V30 3353 C 330.282 0.415832 2.74164 0
M  V30 3354 H 333.233 0.689612 1.42934 0
M  V30 3355 H 333.254 -0.76889 3.7265 0
M  V30 3356 H 332.766 1.05584 3.73462 0
M  V30 3357 H 330.867 -1.39406 3.45538 0
M  V30 3358 H 330.98 -0.064555 4.79057 0
M  V30 3359 H 329.344 -0.131048 2.54363 0
M  V30 3360 H 330.127 1.43899 3.11686 0
M  V30 3361 N 332.573 -1.56217 0.208337 0
M  V30 3362 C 333.523 -2.16324 -0.720281 0
M  V30 3363 C 334.507 -1.10775 -1.16695 0
M  V30 3364 O 335.699 -1.36801 -1.12314 0
M  V30 3365 C 332.828 -2.83644 -1.93393 0
M  V30 3366 C 331.914 -3.96401 -1.50755 0
M  V30 3367 N 332.305 -4.99546 -0.792937 0
M  V30 3368 C 330.603 -4.08246 -1.79585 0
M  V30 3369 C 331.304 -5.78828 -0.577364 0
M  V30 3370 N 330.28 -5.31723 -1.1301 0
M  V30 3371 H 334.082 -2.93432 -0.165725 0
M  V30 3372 H 331.596 -1.62397 0.00906463 0
M  V30 3373 H 333.593 -3.25107 -2.60981 0
M  V30 3374 H 332.253 -2.08027 -2.49308 0
M  V30 3375 H 333.264 -5.15967 -0.447004 0
M  V30 3376 H 329.941 -3.4377 -2.36915 0
M  V30 3377 H 331.331 -6.71899 -0.00952956 0
M  V30 3378 N 334.051 0.0651679 -1.57465 0
M  V30 3379 C 334.981 1.07693 -2.07182 0
M  V30 3380 C 335.962 1.39962 -0.966673 0
M  V30 3381 O 337.147 1.49475 -1.2398 0
M  V30 3382 C 334.277 2.3885 -2.52127 0
M  V30 3383 C 333.231 2.20917 -3.66579 0
M  V30 3384 C 332.557 3.57515 -3.97601 0
M  V30 3385 C 333.857 1.62493 -4.9638 0
M  V30 3386 H 335.551 0.663199 -2.91962 0
M  V30 3387 H 333.097 0.317569 -1.40455 0
M  V30 3388 H 335.05 3.09928 -2.85522 0
M  V30 3389 H 333.774 2.82215 -1.64384 0
M  V30 3390 H 332.433 1.52279 -3.33477 0
M  V30 3391 H 332.081 3.98463 -3.06979 0
M  V30 3392 H 331.781 3.46353 -4.74672 0
M  V30 3393 H 333.305 4.30013 -4.33499 0
M  V30 3394 H 334.719 2.23445 -5.27963 0
M  V30 3395 H 333.116 1.62009 -5.77818 0
M  V30 3396 H 334.186 0.587041 -4.81333 0
M  V30 3397 N 335.529 1.53961 0.336706 0
M  V30 3398 C 336.439 1.85432 1.43708 0
M  V30 3399 C 337.455 0.745053 1.57242 0
M  V30 3400 O 338.631 1.03804 1.72588 0
M  V30 3401 C 335.696 2.06349 2.78605 0
M  V30 3402 C 334.757 3.30191 2.74358 0
M  V30 3403 C 333.99 3.50101 4.02822 0
M  V30 3404 O 334.213 2.7371 5.00439 0
M  V30 3405 O 333.147 4.43547 4.06878 0
M  V30 3406 H 336.973 2.78975 1.20028 0
M  V30 3407 H 334.558 1.39701 0.52952 0
M  V30 3408 H 336.44 2.21513 3.58483 0
M  V30 3409 H 335.115 1.15995 3.02203 0
M  V30 3410 H 334.022 3.20425 1.93078 0
M  V30 3411 H 335.355 4.2056 2.55715 0
M  V30 3412 N 337.007 -0.598083 1.45811 0
M  V30 3413 C 338.235 -1.38322 1.53866 0
M  V30 3414 C 338.65 -1.87992 0.174479 0
M  V30 3415 O 338.007 -1.62756 -0.825627 0
M  V30 3416 C 338.058 -2.58125 2.53089 0
M  V30 3417 O 337.779 -2.10516 3.84206 0
M  V30 3418 C 339.28 -3.50869 2.70935 0
M  V30 3419 H 336.5 -0.423093 0.520801 0
M  V30 3420 H 339.044 -0.728527 1.91083 0
M  V30 3421 H 337.199 -3.19615 2.18917 0
M  V30 3422 H 337.613 -2.88425 4.38077 0
M  V30 3423 H 339.087 -4.31451 3.44317 0
M  V30 3424 H 339.564 -4.01822 1.77301 0
M  V30 3425 H 340.17 -2.95225 3.06141 0
M  V30 3426 N 338.485 -1.33259 -0.841409 0
M  V30 3427 C 339.896 -1.22066 -1.41269 0
M  V30 3428 C 340.247 0.161479 -1.95534 0
M  V30 3429 O 339.372 1.06094 -1.88608 0
M  V30 3430 C 339.967 -2.20996 -2.568 0
M  V30 3431 C 338.526 -2.13649 -3.09888 0
M  V30 3432 C 337.673 -2.08623 -1.82679 0
M  V30 3433 H 340.624 -1.44895 -0.647395 0
M  V30 3434 H 340.645 -1.81621 -3.34356 0
M  V30 3435 H 340.157 -3.2158 -2.17274 0
M  V30 3436 H 338.258 -1.16359 -3.53965 0
M  V30 3437 H 338.371 -3.04079 -3.70234 0
M  V30 3438 H 336.735 -1.54061 -2.02824 0
M  V30 3439 H 337.518 -3.1101 -1.45353 0
M  V30 3440 N 339.963 1.05934 -1.16686 0
M  V30 3441 C 341.379 1.30938 -0.912542 0
M  V30 3442 C 341.579 1.96803 0.432533 0
M  V30 3443 O 340.635 2.23693 1.17123 0
M  V30 3444 C 341.948 2.18649 -2.06429 0
M  V30 3445 C 343.496 2.32055 -2.10047 0
M  V30 3446 C 343.971 3.23122 -3.24586 0
M  V30 3447 N 345.462 3.30706 -3.24327 0
M  V30 3448 C 346.197 4.01273 -4.09594 0
M  V30 3449 N 345.693 4.74332 -5.04956 0
M  V30 3450 N 347.486 3.97361 -3.97569 0
M  V30 3451 H 339.637 0.615777 -2.03278 0
M  V30 3452 H 341.9 0.334077 -0.887185 0
M  V30 3453 H 341.606 1.77534 -3.03603 0
M  V30 3454 H 341.48 3.19252 -2.00894 0
M  V30 3455 H 343.867 2.72415 -1.13464 0
M  V30 3456 H 343.948 1.31107 -2.19647 0
M  V30 3457 H 343.592 2.83477 -4.2143 0
M  V30 3458 H 343.522 4.24057 -3.12223 0
M  V30 3459 H 346.013 2.78644 -2.55276 0
M  V30 3460 H 346.326 5.25716 -5.6643 0
M  V30 3461 H 344.671 4.733 -5.08933 0
M  V30 3462 H 347.862 3.39405 -3.22369 0
M  V30 3463 H 348.035 4.52089 -4.64241 0
M  V30 3464 N 341.441 0.965919 1.2453 0
M  V30 3465 C 342.404 0.499547 2.2369 0
M  V30 3466 C 343.404 -0.40294 1.5567 0
M  V30 3467 O 344.594 -0.19865 1.73064 0
M  V30 3468 C 341.726 -0.276792 3.39774 0
M  V30 3469 H 342.919 1.37613 2.66463 0
M  V30 3470 H 340.472 0.750324 1.37112 0
M  V30 3471 H 341.207 -1.17055 3.02438 0
M  V30 3472 H 340.992 0.370826 3.90343 0
M  V30 3473 H 342.482 -0.592175 4.1338 0
M  V30 3474 N 342.919 -1.39368 0.735821 0
M  V30 3475 C 343.829 -2.34395 0.0979693 0
M  V30 3476 C 344.845 -1.58361 -0.720968 0
M  V30 3477 O 346.021 -1.90648 -0.649245 0
M  V30 3478 C 343.086 -3.37393 -0.797916 0
M  V30 3479 C 342.147 -4.29287 0.0333662 0
M  V30 3480 C 341.38 -5.27365 -0.819854 0
M  V30 3481 O 341.603 -5.31959 -2.05855 0
M  V30 3482 O 340.537 -6.01389 -0.248079 0
M  V30 3483 H 344.363 -2.90601 0.882315 0
M  V30 3484 H 341.948 -1.40909 0.4965 0
M  V30 3485 H 343.83 -4.00505 -1.31048 0
M  V30 3486 H 342.505 -2.83571 -1.56106 0
M  V30 3487 H 341.412 -3.69395 0.591475 0
M  V30 3488 H 342.745 -4.86317 0.758752 0
M  V30 3489 N 344.397 -0.483516 -1.5 0
M  V30 3490 C 345.327 0.293829 -2.31644 0
M  V30 3491 C 346.308 0.978864 -1.39112 0
M  V30 3492 O 347.493 0.973644 -1.68029 0
M  V30 3493 C 344.623 1.36897 -3.19181 0
M  V30 3494 C 343.577 0.804833 -4.20365 0
M  V30 3495 C 342.903 1.9792 -4.96721 0
M  V30 3496 C 344.203 -0.192313 -5.21946 0
M  V30 3497 H 345.897 -0.387616 -2.9688 0
M  V30 3498 H 343.443 -0.187856 -1.42769 0
M  V30 3499 H 345.396 1.92037 -3.751 0
M  V30 3500 H 344.12 2.07936 -2.51853 0
M  V30 3501 H 342.779 0.275319 -3.65565 0
M  V30 3502 H 342.427 2.67686 -4.25856 0
M  V30 3503 H 342.127 1.60789 -5.65173 0
M  V30 3504 H 343.651 2.53526 -5.55479 0
M  V30 3505 H 345.065 0.270333 -5.72662 0
M  V30 3506 H 343.462 -0.478543 -5.98189 0
M  V30 3507 H 344.532 -1.11409 -4.71928 0
M  V30 3508 N 345.875 1.56104 -0.216619 0
M  V30 3509 C 347.152 1.89988 0.465165 0
M  V30 3510 C 347.532 1.13326 1.78102 0
M  V30 3511 O 346.88 0.241033 2.27225 0
M  V30 3512 C 347.09 3.42646 0.662939 0
M  V30 3513 C 348.438 4.13311 0.972602 0
M  V30 3514 O 349.462 3.48217 0.749901 0
M  V30 3515 O 348.321 5.28396 1.39499 0
M  V30 3516 H 345.415 0.78979 0.245276 0
M  V30 3517 H 347.961 1.67721 -0.258436 0
M  V30 3518 H 346.733 3.90399 -0.26543 0
M  V30 3519 H 346.356 3.70677 1.43821 0
M  V30 3520 N 347.353 -0.0568162 1.57498 0
M  V30 3521 C 348.578 -0.769402 1.92601 0
M  V30 3522 C 349.003 -1.69559 0.814336 0
M  V30 3523 O 348.361 -1.79811 -0.231903 0
M  V30 3524 C 348.409 -1.52634 3.26704 0
M  V30 3525 O 347.513 -2.63797 3.16994 0
M  V30 3526 H 346.854 -0.208909 0.63028 0
M  V30 3527 H 349.384 -0.0205798 2.0459 0
M  V30 3528 H 349.394 -1.90234 3.60936 0
M  V30 3529 H 348.069 -0.846875 4.07186 0
M  V30 3530 H 346.646 -2.28943 2.94346 0
M  V30 3531 N 348.832 -1.54138 -0.328536 0
M  V30 3532 C 349.762 -1.86167 -1.40939 0
M  V30 3533 C 350.743 -0.718044 -1.54202 0
M  V30 3534 O 351.928 -0.971328 -1.68163 0
M  V30 3535 C 349.058 -2.08461 -2.77779 0
M  V30 3536 C 348.012 -3.24299 -2.7931 0
M  V30 3537 C 347.338 -3.31955 -4.19178 0
M  V30 3538 C 348.638 -4.62065 -2.43502 0
M  V30 3539 H 350.332 -2.76689 -1.14383 0
M  V30 3540 H 347.878 -1.33132 -0.548806 0
M  V30 3541 H 349.831 -2.29453 -3.53454 0
M  V30 3542 H 348.555 -1.14684 -3.05802 0
M  V30 3543 H 347.214 -3.03187 -2.0609 0
M  V30 3544 H 346.862 -2.35745 -4.44335 0
M  V30 3545 H 346.562 -4.09805 -4.2111 0
M  V30 3546 H 348.086 -3.55175 -4.96672 0
M  V30 3547 H 349.5 -4.8297 -3.08889 0
M  V30 3548 H 347.897 -5.42429 -2.56693 0
M  V30 3549 H 348.967 -4.64652 -1.38659 0
M  V30 3550 N 350.31 0.590341 -1.46126 0
M  V30 3551 C 351.558 1.34616 -1.50742 0
M  V30 3552 C 351.879 1.94363 -0.157486 0
M  V30 3553 O 351.149 1.78136 0.815136 0
M  V30 3554 H 349.729 0.499789 -0.555175 0
M  V30 3555 H 352.391 0.691953 -1.82203 0
M  V30 3556 H 351.487 2.15678 -2.25587 0
M  V30 3557 N 351.788 1.33704 0.83433 0
M  V30 3558 C 352.738 1.20899 1.93306 0
M  V30 3559 C 353.722 0.110783 1.60518 0
M  V30 3560 O 354.914 0.339331 1.73717 0
M  V30 3561 C 352.043 0.955018 3.29749 0
M  V30 3562 C 351.129 2.09587 3.68692 0
M  V30 3563 N 351.52 3.34621 3.79292 0
M  V30 3564 C 349.818 2.00358 3.98463 0
M  V30 3565 C 350.519 4.09472 4.13167 0
M  V30 3566 N 349.495 3.37954 4.25779 0
M  V30 3567 H 353.297 2.15665 1.99664 0
M  V30 3568 H 350.811 1.25777 1.02732 0
M  V30 3569 H 352.808 0.844208 4.08263 0
M  V30 3570 H 351.468 0.0159317 3.24696 0
M  V30 3571 H 352.479 3.69313 3.63082 0
M  V30 3572 H 349.156 1.14137 4.01596 0
M  V30 3573 H 350.546 5.17391 4.28668 0
M  V30 3574 N 353.266 -1.05314 1.17247 0
M  V30 3575 C 354.494 -1.81971 0.984593 0
M  V30 3576 C 354.909 -1.82929 -0.467166 0
M  V30 3577 O 354.266 -1.25564 -1.32438 0
M  V30 3578 C 354.317 -3.28143 1.51672 0
M  V30 3579 O 354.038 -3.27347 2.91163 0
M  V30 3580 C 355.539 -4.21493 1.37326 0
M  V30 3581 H 352.759 -0.573455 0.348411 0
M  V30 3582 H 355.303 -1.32808 1.55506 0
M  V30 3583 H 353.458 -3.74582 0.988302 0
M  V30 3584 H 353.872 -4.18824 3.15732 0
M  V30 3585 H 355.346 -5.22043 1.79375 0
M  V30 3586 H 355.823 -4.38031 0.320169 0
M  V30 3587 H 356.429 -3.80909 1.89178 0
M  V30 3588 N 354.744 -0.972509 -1.24016 0
M  V30 3589 C 356.021 -0.553733 -1.87598 0
M  V30 3590 C 356.401 0.969158 -1.87538 0
M  V30 3591 O 355.749 1.84255 -1.35139 0
M  V30 3592 C 355.959 -1.15076 -3.29482 0
M  V30 3593 C 357.307 -1.23862 -4.06132 0
M  V30 3594 O 358.331 -1.10363 -3.38672 0
M  V30 3595 O 357.19 -1.45252 -5.26844 0
M  V30 3596 H 354.284 -0.185331 -0.805966 0
M  V30 3597 H 356.83 -1.06709 -1.31952 0
M  V30 3598 H 355.602 -2.19333 -3.2405 0
M  V30 3599 H 355.225 -0.621746 -3.92709 0
M  V30 3600 N 356.222 1.38976 -0.743202 0
M  V30 3601 C 357.468 2.01114 -0.304109 0
M  V30 3602 C 357.823 1.57929 1.09892 0
M  V30 3603 O 357.116 0.801983 1.74008 0
M  V30 3604 C 357.31 3.55647 -0.353517 0
M  V30 3605 C 357.139 4.13837 -1.75981 0
M  V30 3606 C 355.909 4.46062 -2.37395 0
M  V30 3607 C 358.107 4.36812 -2.71477 0
M  V30 3608 N 356.089 4.898 -3.70093 0
M  V30 3609 C 357.46 4.82844 -3.88923 0
M  V30 3610 C 359.515 4.18893 -2.69134 0
M  V30 3611 C 358.218 5.12837 -5.04371 0
M  V30 3612 C 360.244 4.50005 -3.83731 0
M  V30 3613 C 359.606 4.96251 -4.99914 0
M  V30 3614 H 355.705 0.765931 -0.157716 0
M  V30 3615 H 358.289 1.68763 -0.970931 0
M  V30 3616 H 356.46 3.87368 0.282987 0
M  V30 3617 H 358.192 4.04564 0.104904 0
M  V30 3618 H 354.947 4.34145 -1.89248 0
M  V30 3619 H 355.371 5.16016 -4.38242 0
M  V30 3620 H 360.013 3.82335 -1.80499 0
M  V30 3621 H 357.731 5.48297 -5.9363 0
M  V30 3622 H 361.317 4.37755 -3.83225 0
M  V30 3623 H 360.197 5.19867 -5.87118 0
M  V30 3624 N 357.7 0.491464 1.49741 0
M  V30 3625 C 358.663 -0.280906 2.27472 0
M  V30 3626 C 359.663 -0.902454 1.33088 0
M  V30 3627 O 360.853 -0.768465 1.56334 0
M  V30 3628 C 357.985 -1.40209 3.10732 0
M  V30 3629 H 359.178 0.401056 2.97206 0
M  V30 3630 H 356.731 0.246131 1.5435 0
M  V30 3631 H 357.466 -2.11849 2.45541 0
M  V30 3632 H 357.251 -0.961969 3.80117 0
M  V30 3633 H 358.741 -1.9464 3.69466 0
M  V30 3634 N 359.178 -1.55987 0.224894 0
M  V30 3635 C 360.594 -1.59066 -0.130426 0
M  V30 3636 C 360.794 -1.24176 -1.5869 0
M  V30 3637 O 359.85 -0.978592 -2.32766 0
M  V30 3638 C 361.163 -3.00042 0.198883 0
M  V30 3639 C 362.711 -3.1268 0.141391 0
M  V30 3640 C 363.186 -4.55839 0.444422 0
M  V30 3641 N 364.677 -4.6152 0.394115 0
M  V30 3642 C 365.412 -5.70231 0.602038 0
M  V30 3643 N 364.908 -6.87291 0.871914 0
M  V30 3644 N 366.701 -5.59555 0.534245 0
M  V30 3645 H 358.852 -1.76941 1.17497 0
M  V30 3646 H 361.115 -0.822604 0.471197 0
M  V30 3647 H 360.821 -3.30234 1.2099 0
M  V30 3648 H 360.695 -3.74075 -0.484535 0
M  V30 3649 H 363.082 -2.82283 -0.860265 0
M  V30 3650 H 363.163 -2.40969 0.858335 0
M  V30 3651 H 362.807 -4.86954 1.44353 0
M  V30 3652 H 362.737 -5.2578 -0.293752 0
M  V30 3653 H 365.228 -3.77405 0.193356 0
M  V30 3654 H 365.541 -7.66058 1.01858 0
M  V30 3655 H 363.886 -6.89028 0.909145 0
M  V30 3656 H 367.077 -4.6698 0.323612 0
M  V30 3657 H 367.25 -6.44211 0.699693 0
M  V30 3658 N 360.656 0.0484629 -1.57525 0
M  V30 3659 C 361.586 1.0549 -2.08313 0
M  V30 3660 C 362.567 1.38929 -0.981463 0
M  V30 3661 O 363.752 1.48151 -1.25558 0
M  V30 3662 C 360.882 2.36162 -2.54646 0
M  V30 3663 C 359.836 2.17016 -3.68901 0
M  V30 3664 C 359.162 3.53278 -4.01371 0
M  V30 3665 C 360.462 1.57219 -4.98076 0
M  V30 3666 H 362.156 0.632195 -2.92649 0
M  V30 3667 H 359.702 0.302654 -1.40784 0
M  V30 3668 H 361.655 3.06882 -2.88793 0
M  V30 3669 H 360.379 2.80456 -1.67368 0
M  V30 3670 H 359.038 1.48733 -3.35073 0
M  V30 3671 H 358.686 3.95185 -3.11188 0
M  V30 3672 H 358.386 3.41299 -4.78318 0
M  V30 3673 H 359.91 4.25391 -4.38035 0
M  V30 3674 H 361.324 2.17832 -5.30304 0
M  V30 3675 H 359.721 1.55871 -5.79503 0
M  V30 3676 H 360.791 0.535956 -4.81929 0
M  V30 3677 N 362.134 1.5431 0.320358 0
M  V30 3678 C 363.38 1.73859 1.05568 0
M  V30 3679 C 363.735 0.507807 1.85578 0
M  V30 3680 O 363.028 -0.499789 1.84967 0
M  V30 3681 C 363.222 2.95639 2.00828 0
M  V30 3682 C 363.051 4.30444 1.30186 0
M  V30 3683 C 361.821 4.94544 1.03703 0
M  V30 3684 C 364.019 5.0929 0.716138 0
M  V30 3685 N 362.001 6.13172 0.298846 0
M  V30 3686 C 363.372 6.19903 0.109729 0
M  V30 3687 C 365.427 4.94034 0.619269 0
M  V30 3688 C 364.13 7.16924 -0.584153 0
M  V30 3689 C 366.156 5.91369 -0.0609184 0
M  V30 3690 C 365.518 7.01336 -0.656258 0
M  V30 3691 H 361.617 0.688988 0.36989 0
M  V30 3692 H 364.201 1.9177 0.336494 0
M  V30 3693 H 362.372 2.79188 2.70016 0
M  V30 3694 H 364.104 3.03802 2.6737 0
M  V30 3695 H 360.859 4.54536 1.33019 0
M  V30 3696 H 361.283 6.76977 -0.0561964 0
M  V30 3697 H 365.925 4.0916 1.06526 0
M  V30 3698 H 363.643 8.01354 -1.04197 0
M  V30 3699 H 367.229 5.81642 -0.135552 0
M  V30 3700 H 366.109 7.75359 -1.17423 0
M  V30 3701 N 363.613 -0.582584 1.46437 0
M  V30 3702 C 364.859 -1.34278 1.51978 0
M  V30 3703 C 365.192 -1.93446 0.170973 0
M  V30 3704 O 364.467 -1.76481 -0.817608 0
M  V30 3705 C 364.75 -2.47203 2.61845 0
M  V30 3706 C 364.603 -1.93069 4.06257 0
M  V30 3707 C 365.922 -3.49247 2.67795 0
M  V30 3708 H 363.041 -0.486876 0.553282 0
M  V30 3709 H 365.683 -0.654437 1.78374 0
M  V30 3710 H 363.833 -3.0592 2.39469 0
M  V30 3711 H 365.505 -1.38808 4.3992 0
M  V30 3712 H 363.748 -1.23898 4.1573 0
M  V30 3713 H 364.419 -2.74586 4.7886 0
M  V30 3714 H 366.895 -3.00411 2.8791 0
M  V30 3715 H 365.771 -4.25719 3.46489 0
M  V30 3716 H 366.032 -4.06482 1.73852 0
M  V30 3717 N 365.091 -1.34144 -0.827227 0
M  V30 3718 C 366.023 -1.21206 -1.9453 0
M  V30 3719 C 367.036 -0.140176 -1.62195 0
M  V30 3720 O 368.225 -0.391647 -1.7415 0
M  V30 3721 C 365.325 -0.839141 -3.28347 0
M  V30 3722 C 364.498 -2.0051 -3.88734 0
M  V30 3723 C 363.557 -1.61128 -5.00923 0
M  V30 3724 O 362.583 -2.32726 -5.19449 0
M  V30 3725 N 363.785 -0.522958 -5.7814 0
M  V30 3726 H 366.55 -2.17525 -2.06162 0
M  V30 3727 H 364.111 -1.27043 -1.00358 0
M  V30 3728 H 366.103 -0.557556 -4.00841 0
M  V30 3729 H 364.673 0.0337293 -3.12582 0
M  V30 3730 H 363.893 -2.45166 -3.08686 0
M  V30 3731 H 365.181 -2.78498 -4.25812 0
M  V30 3732 H 364.579 0.0723518 -5.65654 0
M  V30 3733 H 363.136 -0.301089 -6.51104 0
M  V30 3734 N 366.569 1.04691 -1.17803 0
M  V30 3735 C 367.499 2.14494 -0.92275 0
M  V30 3736 C 368.48 1.69546 0.137179 0
M  V30 3737 O 369.665 1.94195 -0.0141108 0
M  V30 3738 C 366.795 3.44491 -0.440803 0
M  V30 3739 C 365.749 4.03031 -1.4405 0
M  V30 3740 C 365.075 5.28432 -0.81631 0
M  V30 3741 C 366.375 4.39932 -2.81527 0
M  V30 3742 H 368.069 2.36107 -1.84103 0
M  V30 3743 H 365.615 1.1347 -0.886599 0
M  V30 3744 H 367.568 4.2066 -0.249602 0
M  V30 3745 H 366.292 3.22546 0.513025 0
M  V30 3746 H 364.951 3.28937 -1.61853 0
M  V30 3747 H 364.599 5.02792 0.144511 0
M  V30 3748 H 364.299 5.68559 -1.48371 0
M  V30 3749 H 365.823 6.07284 -0.635496 0
M  V30 3750 H 367.237 5.07113 -2.67412 0
M  V30 3751 H 365.634 4.9109 -3.44892 0
M  V30 3752 H 366.704 3.50045 -3.35554 0
M  V30 3753 N 368.047 0.979072 1.23499 0
M  V30 3754 C 368.98 0.463027 2.23453 0
M  V30 3755 C 369.958 -0.469128 1.55685 0
M  V30 3756 O 371.142 -0.397882 1.84253 0
M  V30 3757 C 368.269 -0.330308 3.37086 0
M  V30 3758 C 367.315 0.545795 4.22993 0
M  V30 3759 S 368.148 1.99285 4.97037 0
M  V30 3760 C 369.304 1.20862 6.1412 0
M  V30 3761 H 369.537 1.31005 2.6688 0
M  V30 3762 H 367.07 0.784965 1.32957 0
M  V30 3763 H 369.028 -0.782027 4.02982 0
M  V30 3764 H 367.689 -1.15244 2.92194 0
M  V30 3765 H 366.882 -0.0638928 5.03959 0
M  V30 3766 H 366.484 0.933705 3.62157 0
M  V30 3767 H 368.776 0.469284 6.75873 0
M  V30 3768 H 369.719 1.99307 6.79472 0
M  V30 3769 H 370.127 0.727992 5.59786 0
M  V30 3770 N 369.525 -1.3858 0.750561 0
M  V30 3771 C 370.941 -1.53759 0.427824 0
M  V30 3772 C 371.141 -1.71401 -1.05943 0
M  V30 3773 O 370.197 -1.72331 -1.84549 0
M  V30 3774 C 371.51 -2.74642 1.22443 0
M  V30 3775 C 373.058 -2.88489 1.2142 0
M  V30 3776 C 373.533 -4.12329 1.9937 0
M  V30 3777 N 375.024 -4.194 1.96616 0
M  V30 3778 C 375.759 -5.14209 2.53727 0
M  V30 3779 N 375.255 -6.14709 3.19539 0
M  V30 3780 N 377.048 -5.06537 2.43673 0
M  V30 3781 H 369.199 -1.25377 1.71447 0
M  V30 3782 H 371.462 -0.608844 0.726645 0
M  V30 3783 H 371.168 -2.68 2.27747 0
M  V30 3784 H 371.042 -3.67745 0.839273 0
M  V30 3785 H 373.429 -2.94614 0.169232 0
M  V30 3786 H 373.51 -1.96406 1.63885 0
M  V30 3787 H 373.154 -4.06966 3.03877 0
M  V30 3788 H 373.084 -5.03486 1.54302 0
M  V30 3789 H 375.575 -3.47421 1.48684 0
M  V30 3790 H 375.888 -6.8354 3.60545 0
M  V30 3791 H 374.233 -6.1505 3.23633 0
M  V30 3792 H 377.424 -4.26962 1.91889 0
M  V30 3793 H 377.597 -5.80245 2.88479 0
M  V30 3794 N 371.003 -0.499398 -1.49478 0
M  V30 3795 C 371.913 0.284489 -2.32869 0
M  V30 3796 C 372.929 0.968885 -1.44529 0
M  V30 3797 O 374.105 0.95062 -1.77553 0
M  V30 3798 C 371.17 1.33594 -3.19928 0
M  V30 3799 C 370.231 0.665149 -4.24116 0
M  V30 3800 C 369.464 1.6665 -5.07014 0
M  V30 3801 O 369.687 2.89618 -4.91404 0
M  V30 3802 O 368.621 1.22271 -5.8935 0
M  V30 3803 H 372.447 -0.39802 -3.01081 0
M  V30 3804 H 370.032 -0.260758 -1.47107 0
M  V30 3805 H 371.914 1.94431 -3.73864 0
M  V30 3806 H 370.589 2.0014 -2.54412 0
M  V30 3807 H 369.496 0.0170769 -3.74096 0
M  V30 3808 H 370.829 0.0421555 -4.92182 0
M  V30 3809 N 372.481 1.55866 -0.233164 0
M  V30 3810 C 373.411 2.23783 0.666599 0
M  V30 3811 C 374.392 1.21343 1.19205 0
M  V30 3812 O 375.577 1.4996 1.23392 0
M  V30 3813 C 372.707 2.92671 1.86978 0
M  V30 3814 C 371.661 4.01682 1.47768 0
M  V30 3815 C 370.987 4.57926 2.76058 0
M  V30 3816 C 372.287 5.18126 0.658993 0
M  V30 3817 H 373.981 2.99232 0.100306 0
M  V30 3818 H 371.527 1.43924 0.046804 0
M  V30 3819 H 373.48 3.3888 2.50476 0
M  V30 3820 H 372.204 2.14688 2.46123 0
M  V30 3821 H 370.863 3.56222 0.866106 0
M  V30 3822 H 370.511 3.76659 3.33372 0
M  V30 3823 H 370.211 5.31505 2.50552 0
M  V30 3824 H 371.735 5.06859 3.40479 0
M  V30 3825 H 373.149 5.60644 1.19795 0
M  V30 3826 H 371.546 5.98009 0.500552 0
M  V30 3827 H 372.616 4.83763 -0.331856 0
M  V30 3828 N 373.959 -0.0401083 1.57549 0
M  V30 3829 C 375.375 -0.395556 1.54621 0
M  V30 3830 C 375.575 -1.77281 0.957799 0
M  V30 3831 O 374.631 -2.45888 0.574031 0
M  V30 3832 C 375.944 -0.307535 2.99123 0
M  V30 3833 C 377.492 -0.385425 3.10618 0
M  V30 3834 C 377.967 -0.326973 4.56831 0
M  V30 3835 N 379.458 -0.386102 4.61588 0
M  V30 3836 C 380.193 -0.363591 5.72246 0
M  V30 3837 N 379.689 -0.29402 6.92176 0
M  V30 3838 N 381.482 -0.412503 5.60584 0
M  V30 3839 H 373.633 0.861325 1.94152 0
M  V30 3840 H 375.896 0.326445 0.890021 0
M  V30 3841 H 375.602 0.638461 3.45856 0
M  V30 3842 H 375.476 -1.10552 3.60636 0
M  V30 3843 H 377.863 -1.32185 2.63839 0
M  V30 3844 H 377.944 0.44171 2.51957 0
M  V30 3845 H 377.588 0.605738 5.04275 0
M  V30 3846 H 377.518 -1.17207 5.13391 0
M  V30 3847 H 380.009 -0.442832 3.75296 0
M  V30 3848 H 380.322 -0.28164 7.72287 0
M  V30 3849 H 378.667 -0.260232 6.94513 0
M  V30 3850 H 381.858 -0.464769 4.65787 0
M  V30 3851 H 382.031 -0.391492 6.46816 0
M  V30 3852 N 375.437 -1.54477 -0.31217 0
M  V30 3853 C 376.853 -1.45442 -0.657185 0
M  V30 3854 C 377.053 -0.63653 -1.91182 0
M  V30 3855 O 376.109 -0.139815 -2.52113 0
M  V30 3856 C 377.422 -2.89287 -0.82058 0
M  V30 3857 C 378.97 -2.9926 -0.917188 0
M  V30 3858 C 379.445 -4.44279 -1.11267 0
M  V30 3859 N 380.936 -4.4794 -1.17914 0
M  V30 3860 C 381.671 -5.57318 -1.34848 0
M  V30 3861 N 381.167 -6.76642 -1.48752 0
M  V30 3862 N 382.96 -5.44986 -1.37647 0
M  V30 3863 H 375.111 -2.06129 0.512313 0
M  V30 3864 H 377.374 -0.933088 0.167485 0
M  V30 3865 H 377.08 -3.51687 0.0302604 0
M  V30 3866 H 376.954 -3.36061 -1.71298 0
M  V30 3867 H 379.341 -2.36981 -1.75852 0
M  V30 3868 H 379.422 -2.558 -0.00101257 0
M  V30 3869 H 379.066 -5.07149 -0.27614 0
M  V30 3870 H 378.996 -4.85359 -2.04289 0
M  V30 3871 H 381.487 -3.61969 -1.08567 0
M  V30 3872 H 381.8 -7.55758 -1.61397 0
M  V30 3873 H 380.145 -6.79529 -1.45828 0
M  V30 3874 H 383.336 -4.50715 -1.26388 0
M  V30 3875 H 383.509 -6.3028 -1.50501 0
M  V30 3876 N 376.915 0.57481 -1.46744 0
M  V30 3877 C 378.163 1.33009 -1.52161 0
M  V30 3878 C 378.484 1.94185 -0.178092 0
M  V30 3879 O 377.754 1.7899 0.796196 0
M  V30 3880 H 376.334 0.493873 -0.560445 0
M  V30 3881 H 378.996 0.672589 -1.82927 0
M  V30 3882 H 378.092 2.13273 -2.27862 0
M  V30 3883 N 378.394 1.34581 0.820102 0
M  V30 3884 C 379.64 1.27285 1.57881 0
M  V30 3885 C 379.973 -0.156137 1.93571 0
M  V30 3886 O 379.248 -1.10222 1.60254 0
M  V30 3887 C 379.531 2.16639 2.87645 0
M  V30 3888 C 379.384 3.68088 2.58517 0
M  V30 3889 C 380.703 2.05378 3.8924 0
M  V30 3890 H 377.822 0.463714 0.572833 0
M  V30 3891 H 380.464 1.64859 0.944539 0
M  V30 3892 H 378.614 1.84725 3.41773 0
M  V30 3893 H 380.286 4.10382 2.10676 0
M  V30 3894 H 378.529 3.89038 1.91917 0
M  V30 3895 H 379.2 4.2598 3.51063 0
M  V30 3896 H 381.676 2.33404 3.44473 0
M  V30 3897 H 380.552 2.7012 4.77835 0
M  V30 3898 H 380.813 1.0316 4.29896 0
M  V30 3899 N 379.872 -1.04064 1.18357 0
M  V30 3900 C 380.819 -2.12077 0.910603 0
M  V30 3901 C 381.789 -1.65421 -0.15 0
M  V30 3902 O 382.974 -1.90797 -0.0103614 0
M  V30 3903 C 380.114 -3.42252 0.442472 0
M  V30 3904 C 379.227 -4.0252 1.5685 0
M  V30 3905 C 378.362 -5.20657 1.05309 0
M  V30 3906 C 377.401 -5.72955 2.1538 0
M  V30 3907 N 376.538 -6.8238 1.65233 0
M  V30 3908 H 381.378 -2.34764 1.83548 0
M  V30 3909 H 378.915 -1.15157 0.915279 0
M  V30 3910 H 380.873 -4.16921 0.152534 0
M  V30 3911 H 379.503 -3.19712 -0.445428 0
M  V30 3912 H 378.555 -3.25178 1.97391 0
M  V30 3913 H 379.867 -4.37362 2.39824 0
M  V30 3914 H 379.021 -6.0244 0.717677 0
M  V30 3915 H 377.76 -4.87318 0.19293 0
M  V30 3916 H 376.765 -4.89793 2.49766 0
M  V30 3917 H 377.99 -6.08337 3.01832 0
M  V30 3918 H 375.936 -6.50917 0.815064 0
M  V30 3919 H 375.853 -7.16286 2.41805 0
M  V30 3920 H 377.121 -7.67788 1.34619 0
M  V30 3921 N 381.35 -0.985608 -1.22978 0
M  V30 3922 C 382.28 -0.549649 -2.26939 0
M  V30 3923 C 383.261 0.419803 -1.64838 0
M  V30 3924 O 384.446 0.31203 -1.91677 0
M  V30 3925 C 381.576 0.143652 -3.47003 0
M  V30 3926 C 380.53 -0.743606 -4.21491 0
M  V30 3927 C 379.856 0.0822027 -5.34637 0
M  V30 3928 C 381.156 -2.03694 -4.80943 0
M  V30 3929 H 382.85 -1.41862 -2.63658 0
M  V30 3930 H 380.396 -0.683571 -1.26741 0
M  V30 3931 H 382.349 0.459985 -4.18882 0
M  V30 3932 H 381.073 1.04711 -3.09359 0
M  V30 3933 H 379.732 -1.04347 -3.51436 0
M  V30 3934 H 379.38 0.986359 -4.93234 0
M  V30 3935 H 379.08 -0.508377 -5.85397 0
M  V30 3936 H 380.604 0.392797 -6.09335 0
M  V30 3937 H 382.018 -1.78504 -5.44802 0
M  V30 3938 H 380.415 -2.57573 -5.42011 0
M  V30 3939 H 381.485 -2.72042 -4.01399 0
M  V30 3940 N 382.828 1.3818 -0.7579 0
M  V30 3941 C 383.775 2.30416 -0.133057 0
M  V30 3942 C 384.745 1.50398 0.704957 0
M  V30 3943 O 385.93 1.79014 0.660192 0
M  V30 3944 C 383.07 3.36834 0.750813 0
M  V30 3945 C 382.183 4.31879 -0.102297 0
M  V30 3946 C 381.318 5.25368 0.784979 0
M  V30 3947 C 380.357 6.12058 -0.0715046 0
M  V30 3948 N 379.494 6.97832 0.772972 0
M  V30 3949 H 384.334 2.83274 -0.925186 0
M  V30 3950 H 381.871 1.39461 -0.467866 0
M  V30 3951 H 383.829 3.97145 1.27794 0
M  V30 3952 H 382.459 2.85374 1.50868 0
M  V30 3953 H 381.511 3.72991 -0.747095 0
M  V30 3954 H 382.823 4.92921 -0.763552 0
M  V30 3955 H 381.977 5.90818 1.37911 0
M  V30 3956 H 380.716 4.64703 1.47996 0
M  V30 3957 H 379.721 5.456 -0.678272 0
M  V30 3958 H 380.946 6.74793 -0.763606 0
M  V30 3959 H 378.892 6.3971 1.45282 0
M  V30 3960 H 378.809 7.55812 0.168709 0
M  V30 3961 H 380.077 7.67687 1.35194 0
M  V30 3962 N 384.306 0.507319 1.49211 0
M  V30 3963 C 385.253 -0.267728 2.29242 0
M  V30 3964 C 386.223 -0.954609 1.35928 0
M  V30 3965 O 387.408 -0.960046 1.64887 0
M  V30 3966 C 384.548 -1.32243 3.18756 0
M  V30 3967 C 383.661 -0.64669 4.27132 0
M  V30 3968 C 382.796 -1.68238 5.03855 0
M  V30 3969 C 381.835 -0.98885 6.0406 0
M  V30 3970 N 380.972 -1.96903 6.73924 0
M  V30 3971 H 385.812 0.420968 2.95012 0
M  V30 3972 H 383.349 0.219443 1.45454 0
M  V30 3973 H 385.307 -1.94599 3.69036 0
M  V30 3974 H 383.937 -1.97981 2.54958 0
M  V30 3975 H 382.989 0.0902926 3.80293 0
M  V30 3976 H 384.301 -0.101058 4.98698 0
M  V30 3977 H 383.455 -2.38081 5.58034 0
M  V30 3978 H 382.194 -2.26187 4.32077 0
M  V30 3979 H 381.199 -0.276222 5.49106 0
M  V30 3980 H 382.424 -0.415767 6.77826 0
M  V30 3981 H 380.37 -2.53803 6.04913 0
M  V30 3982 H 380.287 -1.47423 7.41487 0
M  V30 3983 H 381.555 -2.66015 7.32705 0
M  V30 3984 N 385.784 -1.5574 0.241426 0
M  V30 3985 C 387.03 -1.99104 -0.385406 0
M  V30 3986 C 387.363 -1.1293 -1.57988 0
M  V30 3987 O 386.638 -0.191449 -1.93555 0
M  V30 3988 C 386.921 -3.51087 -0.800616 0
M  V30 3989 C 386.774 -4.48028 0.398874 0
M  V30 3990 C 388.093 -4.08015 -1.64959 0
M  V30 3991 H 385.212 -0.723848 -0.138614 0
M  V30 3992 H 387.854 -1.86903 0.341642 0
M  V30 3993 H 386.004 -3.61615 -1.4201 0
M  V30 3994 H 387.676 -4.49487 1.03726 0
M  V30 3995 H 385.919 -4.21077 1.04293 0
M  V30 3996 H 386.59 -5.51962 0.0651056 0
M  V30 3997 H 389.066 -4.00555 -1.12672 0
M  V30 3998 H 387.942 -5.14635 -1.90898 0
M  V30 3999 H 388.203 -3.56131 -2.61961 0
M  V30 4000 N 387.262 0.0317525 -1.57568 0
M  V30 4001 C 388.194 1.06073 -2.03178 0
M  V30 4002 C 389.207 1.32627 -0.944132 0
M  V30 4003 O 390.396 1.30162 -1.22148 0
M  V30 4004 C 387.496 2.40297 -2.38978 0
M  V30 4005 C 386.669 2.33137 -3.70089 0
M  V30 4006 C 385.728 3.49787 -3.9311 0
M  V30 4007 O 384.754 3.29403 -4.64201 0
M  V30 4008 N 385.956 4.71562 -3.38541 0
M  V30 4009 H 388.721 0.672006 -2.92069 0
M  V30 4010 H 386.282 0.219745 -1.60402 0
M  V30 4011 H 388.274 3.1705 -2.51518 0
M  V30 4012 H 386.844 2.71024 -1.55771 0
M  V30 4013 H 386.064 1.415 -3.67928 0
M  V30 4014 H 387.352 2.25493 -4.56104 0
M  V30 4015 H 386.75 4.91024 -2.80912 0
M  V30 4016 H 385.307 5.45689 -3.56464 0
M  V30 4017 N 388.74 1.54641 0.303973 0
M  V30 4018 C 389.65 1.88439 1.39743 0
M  V30 4019 C 390.666 0.778239 1.55626 0
M  V30 4020 O 391.842 1.07442 1.70347 0
M  V30 4021 C 388.907 2.12212 2.74166 0
M  V30 4022 C 387.968 3.35936 2.67293 0
M  V30 4023 C 387.201 3.58566 3.95305 0
M  V30 4024 O 387.424 2.84263 4.9452 0
M  V30 4025 O 386.358 4.52078 3.97378 0
M  V30 4026 H 390.184 2.81458 1.14083 0
M  V30 4027 H 387.769 1.40793 0.499768 0
M  V30 4028 H 389.651 2.29067 3.53704 0
M  V30 4029 H 388.326 1.22379 2.99675 0
M  V30 4030 H 387.233 3.24448 1.86237 0
M  V30 4031 H 388.566 4.2589 2.46736 0
M  V30 4032 N 390.218 -0.567019 1.47046 0
M  V30 4033 C 391.15 -1.68985 1.54844 0
M  V30 4034 C 392.163 -1.56869 0.435431 0
M  V30 4035 O 393.352 -1.64006 0.70457 0
M  V30 4036 C 390.452 -3.07373 1.42742 0
M  V30 4037 C 389.625 -3.45339 2.6844 0
M  V30 4038 C 388.684 -4.62849 2.50314 0
M  V30 4039 O 387.71 -4.67922 3.24095 0
M  V30 4040 N 388.912 -5.58726 1.57499 0
M  V30 4041 H 391.677 -1.62745 2.51663 0
M  V30 4042 H 389.238 -0.753411 1.43302 0
M  V30 4043 H 391.23 -3.83803 1.28365 0
M  V30 4044 H 389.8 -3.07893 0.540445 0
M  V30 4045 H 389.02 -2.58455 2.97648 0
M  V30 4046 H 390.308 -3.67476 3.51907 0
M  V30 4047 H 389.706 -5.57376 0.966876 0
M  V30 4048 H 388.263 -6.34523 1.49078 0
M  V30 4049 N 391.696 -1.35014 -0.812953 0
M  V30 4050 C 392.606 -1.2951 -1.95613 0
M  V30 4051 C 393.622 -0.20107 -1.72834 0
M  V30 4052 O 394.798 -0.42932 -1.96771 0
M  V30 4053 C 391.863 -1.06033 -3.30088 0
M  V30 4054 C 390.924 -2.24688 -3.65805 0
M  V30 4055 C 390.157 -2.02322 -4.93864 0
M  V30 4056 O 390.38 -0.986464 -5.61805 0
M  V30 4057 O 389.314 -2.89525 -5.27692 0
M  V30 4058 H 393.14 -2.25705 -2.03202 0
M  V30 4059 H 390.725 -1.15321 -0.949811 0
M  V30 4060 H 392.607 -0.94763 -4.10607 0
M  V30 4061 H 391.282 -0.128852 -3.23443 0
M  V30 4062 H 390.189 -2.41521 -2.85689 0
M  V30 4063 H 391.522 -3.16261 -3.77147 0
M  V30 4064 N 393.175 1.03435 -1.18907 0
M  V30 4065 C 394.422 1.76743 -0.988334 0
M  V30 4066 C 394.75 1.88447 0.481441 0
M  V30 4067 O 394.005 1.39383 1.37371 0
M  V30 4068 C 394.304 3.19792 -1.59586 0
M  V30 4069 C 393.97 3.28108 -3.09283 0
M  V30 4070 C 392.632 3.30084 -3.5014 0
M  V30 4071 C 394.984 3.27696 -4.05296 0
M  V30 4072 C 392.312 3.29299 -4.85571 0
M  V30 4073 C 394.664 3.28451 -5.4065 0
M  V30 4074 C 393.328 3.28723 -5.80946 0
M  V30 4075 H 392.598 0.64675 -0.361657 0
M  V30 4076 H 395.245 1.21442 -1.48068 0
M  V30 4077 H 393.55 3.78136 -1.02568 0
M  V30 4078 H 395.247 3.75171 -1.41589 0
M  V30 4079 H 391.837 3.27294 -2.76725 0
M  V30 4080 H 396.021 3.25354 -3.74778 0
M  V30 4081 H 391.277 3.2783 -5.16079 0
M  V30 4082 H 395.451 3.27082 -6.14809 0
M  V30 4083 H 393.078 3.27868 -6.85862 0
M  V30 4084 N 394.653 0.992116 1.22453 0
M  V30 4085 C 395.601 0.534644 2.26372 0
M  V30 4086 C 396.595 -0.414293 1.64256 0
M  V30 4087 O 397.801 -0.286899 1.77699 0
M  V30 4088 H 394.176 0.154502 0.735957 0
M  V30 4089 H 396.147 1.42256 2.62309 0
M  V30 4090 C 394.896 -0.135815 3.47435 0
M  V30 4091 H 394.219 0.585311 3.95492 0
M  V30 4092 H 395.659 -0.419374 4.21921 0
M  V30 4093 C 394.118 -1.37089 3.07747 0
M  V30 4094 O 394.648 -2.46629 3.17076 0
M  V30 4095 N 392.854 -1.24585 2.62539 0
M  V30 4096 H 392.401 -0.354542 2.55149 0
M  V30 4097 H 392.359 -2.07327 2.36353 0
M  V30 4098 N 396.131 -1.37776 0.765217 0
M  V30 4099 C 397.542 -1.82521 0.392819 0
M  V30 4100 C 397.893 -1.63789 -1.08017 0
M  V30 4101 O 397.018 -1.14542 -1.83601 0
M  V30 4102 C 397.613 -3.31358 0.706214 0
M  V30 4103 C 396.172 -3.74406 0.386952 0
M  V30 4104 C 395.319 -2.60394 0.953422 0
M  V30 4105 H 398.27 -1.2634 0.960412 0
M  V30 4106 H 398.291 -3.80498 -0.0114706 0
M  V30 4107 H 397.803 -3.44959 1.77833 0
M  V30 4108 H 395.904 -3.66377 -0.678112 0
M  V30 4109 H 396.017 -4.70749 0.890636 0
M  V30 4110 H 394.381 -2.51878 0.378064 0
M  V30 4111 H 395.164 -2.76791 2.03081 0
M  V30 4112 N 397.609 -0.515225 -1.4894 0
M  V30 4113 C 398.539 0.244628 -2.32215 0
M  V30 4114 C 399.52 0.949136 -1.41157 0
M  V30 4115 O 400.705 0.937783 -1.70057 0
M  V30 4116 C 397.835 1.30096 -3.22013 0
M  V30 4117 C 396.789 0.715486 -4.21977 0
M  V30 4118 C 396.115 1.87339 -5.00808 0
M  V30 4119 C 397.415 -0.302982 -5.2142 0
M  V30 4120 H 399.109 -0.450501 -2.95991 0
M  V30 4121 H 396.655 -0.218098 -1.42339 0
M  V30 4122 H 398.608 1.84037 -3.79089 0
M  V30 4123 H 397.332 2.02547 -2.56207 0
M  V30 4124 H 395.991 0.197715 -3.66066 0
M  V30 4125 H 395.639 2.58592 -4.31438 0
M  V30 4126 H 395.339 1.48764 -5.68457 0
M  V30 4127 H 396.863 2.41686 -5.60732 0
M  V30 4128 H 398.277 0.148802 -5.73107 0
M  V30 4129 H 396.674 -0.60532 -5.97039 0
M  V30 4130 H 397.744 -1.21395 -4.69459 0
M  V30 4131 N 399.087 1.5561 -0.249682 0
M  V30 4132 C 400.498 1.84979 0.252949 0
M  V30 4133 C 400.849 1.17153 1.57384 0
M  V30 4134 O 399.974 0.450884 2.11651 0
M  V30 4135 C 400.569 3.35584 0.465732 0
M  V30 4136 C 399.128 3.65169 0.912624 0
M  V30 4137 C 398.275 2.77299 -0.00859085 0
M  V30 4138 H 401.226 1.51513 -0.47217 0
M  V30 4139 H 401.247 3.57313 1.30795 0
M  V30 4140 H 400.759 3.8492 -0.49579 0
M  V30 4141 H 398.86 3.21312 1.88652 0
M  V30 4142 H 398.973 4.72912 0.767559 0
M  V30 4143 H 397.337 2.49678 0.50327 0
M  V30 4144 H 398.12 3.29442 -0.965537 0
M  V30 4145 N 400.565 -0.0233959 1.57583 0
M  V30 4146 C 401.793 -0.724682 1.93794 0
M  V30 4147 C 402.208 -1.68588 0.849912 0
M  V30 4148 O 401.565 -1.81676 -0.173204 0
M  V30 4149 C 401.616 -1.47684 3.29957 0
M  V30 4150 O 401.337 -0.554222 4.3458 0
M  V30 4151 C 402.838 -2.27477 3.80485 0
M  V30 4152 H 400.058 -0.203317 0.639455 0
M  V30 4153 H 402.602 0.0207653 2.04489 0
M  V30 4154 H 400.757 -2.17412 3.20641 0
M  V30 4155 H 401.171 -1.08232 5.13212 0
M  V30 4156 H 402.645 -2.7564 4.78254 0
M  V30 4157 H 403.122 -3.09144 3.11972 0
M  V30 4158 H 403.728 -1.62813 3.92902 0
M  V30 4159 N 402.043 -1.548 -0.295768 0
M  V30 4160 C 402.953 -1.89177 -1.38742 0
M  V30 4161 C 403.969 -0.786481 -1.55211 0
M  V30 4162 O 405.145 -1.08344 -1.69775 0
M  V30 4163 C 402.21 -2.13663 -2.73036 0
M  V30 4164 C 401.271 -3.37349 -2.65508 0
M  V30 4165 C 400.504 -3.60658 -3.93398 0
M  V30 4166 O 400.727 -2.86882 -4.93006 0
M  V30 4167 O 399.661 -4.54179 -3.94975 0
M  V30 4168 H 403.487 -2.82059 -1.12589 0
M  V30 4169 H 401.072 -1.41056 -0.492295 0
M  V30 4170 H 402.954 -2.3094 -3.52484 0
M  V30 4171 H 401.629 -1.23967 -2.99022 0
M  V30 4172 H 400.536 -3.25431 -1.84514 0
M  V30 4173 H 401.869 -4.27192 -2.44474 0
M  V30 4174 N 403.521 0.559213 -1.47345 0
M  V30 4175 C 404.768 1.31648 -1.53867 0
M  V30 4176 C 405.096 1.93468 -0.200104 0
M  V30 4177 O 404.351 1.78295 0.806799 0
M  V30 4178 C 404.65 2.44853 -2.6035 0
M  V30 4179 C 404.316 2.00876 -4.03683 0
M  V30 4180 C 402.978 1.88599 -4.42701 0
M  V30 4181 C 405.33 1.67279 -4.93626 0
M  V30 4182 C 402.658 1.41017 -5.69501 0
M  V30 4183 C 405.01 1.21169 -6.20887 0
M  V30 4184 C 403.674 1.07487 -6.58789 0
M  V30 4185 H 402.944 0.481734 -0.56304 0
M  V30 4186 H 405.591 0.627301 -1.80934 0
M  V30 4187 H 403.896 3.19318 -2.27032 0
M  V30 4188 H 405.593 3.03039 -2.62619 0
M  V30 4189 H 402.183 2.11374 -3.72853 0
M  V30 4190 H 406.367 1.75638 -4.64182 0
M  V30 4191 H 401.623 1.29086 -5.97618 0
M  V30 4192 H 405.797 0.942345 -6.89995 0
M  V30 4193 H 403.424 0.703946 -7.56934 0
M  V30 4194 N 404.999 1.35443 0.805782 0
M  V30 4195 C 405.931 1.24285 1.92577 0
M  V30 4196 C 406.944 0.165962 1.61952 0
M  V30 4197 O 408.133 0.419303 1.73505 0
M  V30 4198 C 405.233 0.891272 3.2697 0
M  V30 4199 C 404.406 2.06669 3.85495 0
M  V30 4200 C 403.465 1.69077 4.98297 0
M  V30 4201 O 402.491 2.4096 5.15681 0
M  V30 4202 N 403.693 0.614869 5.77234 0
M  V30 4203 H 406.458 2.20777 2.02676 0
M  V30 4204 H 404.019 1.28623 0.983243 0
M  V30 4205 H 406.011 0.621256 3.99903 0
M  V30 4206 H 404.581 0.016004 3.12596 0
M  V30 4207 H 403.801 2.50046 3.04747 0
M  V30 4208 H 405.089 2.85237 4.21328 0
M  V30 4209 H 404.487 0.017648 5.65697 0
M  V30 4210 H 403.044 0.404636 6.50543 0
M  V30 4211 N 406.477 -1.02803 1.19454 0
M  V30 4212 C 407.407 -2.12999 0.956758 0
M  V30 4213 C 408.388 -1.69743 -0.110188 0
M  V30 4214 O 409.573 -1.94148 0.0450038 0
M  V30 4215 C 406.703 -3.43746 0.495553 0
M  V30 4216 C 405.657 -4.00688 1.50443 0
M  V30 4217 C 404.983 -5.27067 0.900275 0
M  V30 4218 C 406.283 -4.35397 2.8849 0
M  V30 4219 H 407.977 -2.33148 1.87836 0
M  V30 4220 H 405.523 -1.12045 0.904539 0
M  V30 4221 H 407.476 -4.2021 0.316493 0
M  V30 4222 H 406.2 -3.23321 -0.461646 0
M  V30 4223 H 404.859 -3.2632 1.67065 0
M  V30 4224 H 404.507 -5.02959 -0.064503 0
M  V30 4225 H 404.207 -5.66127 1.57397 0
M  V30 4226 H 405.731 -6.06196 0.73203 0
M  V30 4227 H 407.145 -5.02795 2.75446 0
M  V30 4228 H 405.542 -4.85541 3.52661 0
M  V30 4229 H 406.612 -3.44662 3.41081 0
M  V30 4230 N 407.956 -0.998596 -1.21925 0
M  V30 4231 C 409.184 -0.696286 -1.94832 0
M  V30 4232 C 409.599 0.740032 -1.73692 0
M  V30 4233 O 408.956 1.5 -1.03953 0
M  V30 4234 C 409.007 -0.999833 -3.47398 0
M  V30 4235 O 408.728 -2.37972 -3.67833 0
M  V30 4236 C 410.229 -0.716025 -4.37479 0
M  V30 4237 H 407.449 -0.257111 -0.619786 0
M  V30 4238 H 409.993 -1.33491 -1.54921 0
M  V30 4239 H 408.148 -0.406918 -3.85257 0
M  V30 4240 H 408.562 -2.48338 -4.61983 0
M  V30 4241 H 410.036 -0.978642 -5.43256 0
M  V30 4242 H 410.513 0.349968 -4.37803 0
M  V30 4243 H 411.119 -1.29025 -4.05256 0
M  V30 4244 N 409.434 1.37368 -0.772513 0
M  V30 4245 C 410.845 1.8231 -0.402493 0
M  V30 4246 C 411.196 1.6436 1.07146 0
M  V30 4247 O 410.321 1.15514 1.82991 0
M  V30 4248 C 410.916 3.30979 -0.723776 0
M  V30 4249 C 409.475 3.74195 -0.406802 0
M  V30 4250 C 408.622 2.59885 -0.967218 0
M  V30 4251 H 411.573 1.25829 -0.967099 0
M  V30 4252 H 411.594 3.80499 -0.00870832 0
M  V30 4253 H 411.106 3.44011 -1.7966 0
M  V30 4254 H 409.207 3.66732 0.658673 0
M  V30 4255 H 409.32 4.7027 -0.915588 0
M  V30 4256 H 407.684 2.51674 -0.391416 0
M  V30 4257 H 408.467 2.7571 -2.04546 0
M  V30 4258 N 410.912 0.523116 1.48665 0
M  V30 4259 C 412.159 -0.0134763 2.02496 0
M  V30 4260 C 412.487 -1.3493 1.40086 0
M  V30 4261 O 411.742 -1.88286 0.533567 0
M  V30 4262 C 412.041 -0.191671 3.56886 0
M  V30 4263 C 411.707 1.06893 4.38046 0
M  V30 4264 C 410.369 1.41443 4.59943 0
M  V30 4265 C 412.721 1.90584 4.85106 0
M  V30 4266 C 410.049 2.59594 5.26144 0
M  V30 4267 C 412.401 3.07907 5.52609 0
M  V30 4268 C 411.065 3.42811 5.72745 0
M  V30 4269 H 410.335 -0.00493133 0.740984 0
M  V30 4270 H 412.982 0.687751 1.78724 0
M  V30 4271 H 411.287 -0.97561 3.79459 0
M  V30 4272 H 412.984 -0.621659 3.96152 0
M  V30 4273 H 409.574 0.789848 4.21259 0
M  V30 4274 H 413.758 1.65203 4.67997 0
M  V30 4275 H 409.014 2.86847 5.39934 0
M  V30 4276 H 413.188 3.73066 5.88043 0
M  V30 4277 H 410.815 4.34462 6.23816 0
M  V30 4278 N 412.39 -1.55475 0.257931 0
M  V30 4279 C 413.3 -2.2549 -0.647425 0
M  V30 4280 C 414.316 -1.2748 -1.18427 0
M  V30 4281 O 415.492 -1.6038 -1.2182 0
M  V30 4282 C 412.557 -2.94916 -1.82278 0
M  V30 4283 C 411.618 -4.08363 -1.32432 0
M  V30 4284 C 410.851 -4.74469 -2.44366 0
M  V30 4285 O 411.074 -4.39701 -3.63344 0
M  V30 4286 O 410.008 -5.62763 -2.13497 0
M  V30 4287 H 413.834 -3.03593 -0.0807707 0
M  V30 4288 H 411.419 -1.49377 0.0259962 0
M  V30 4289 H 413.301 -3.38606 -2.50846 0
M  V30 4290 H 411.976 -2.19744 -2.37685 0
M  V30 4291 H 410.883 -3.69166 -0.605605 0
M  V30 4292 H 412.216 -4.85385 -0.816211 0
M  V30 4293 N 413.868 0.0150385 -1.57593 0
M  V30 4294 C 414.801 1.04475 -2.0288 0
M  V30 4295 C 415.779 1.3436 -0.915764 0
M  V30 4296 O 416.963 1.46779 -1.18271 0
M  V30 4297 C 414.09 2.37608 -2.41371 0
M  V30 4298 C 413.136 2.23487 -3.63257 0
M  V30 4299 S 413.969 1.57505 -5.11813 0
M  V30 4300 C 415.125 2.921 -5.5356 0
M  V30 4301 H 415.358 0.65907 -2.89903 0
M  V30 4302 H 412.891 0.225452 -1.52745 0
M  V30 4303 H 414.849 3.14165 -2.64217 0
M  V30 4304 H 413.51 2.7332 -1.54775 0
M  V30 4305 H 412.703 3.21802 -3.87891 0
M  V30 4306 H 412.305 1.55074 -3.40335 0
M  V30 4307 H 414.597 3.88419 -5.55101 0
M  V30 4308 H 415.54 2.72184 -6.53698 0
M  V30 4309 H 415.948 2.95318 -4.8109 0
M  V30 4310 N 415.346 1.54954 0.287554 0
M  V30 4311 C 416.276 1.89839 1.35954 0
M  V30 4312 C 417.257 0.758675 1.52244 0
M  V30 4313 O 418.442 1.01557 1.65529 0
M  V30 4314 C 415.572 2.15753 2.72154 0
M  V30 4315 C 414.526 3.3159 2.70614 0
M  V30 4316 C 413.852 3.42952 4.10229 0
M  V30 4317 C 415.152 4.68359 2.31165 0
M  V30 4318 H 416.846 2.79625 1.07007 0
M  V30 4319 H 414.392 1.3454 0.513316 0
M  V30 4320 H 416.345 2.38743 3.47246 0
M  V30 4321 H 415.069 1.22752 3.02654 0
M  V30 4322 H 413.728 3.08545 1.97979 0
M  V30 4323 H 413.376 2.47443 4.37928 0
M  V30 4324 H 413.076 4.20826 4.10097 0
M  V30 4325 H 414.6 3.68218 4.87081 0
M  V30 4326 H 416.014 4.9099 2.95976 0
M  V30 4327 H 414.411 5.49044 2.42221 0
M  V30 4328 H 415.481 4.68165 1.26291 0
M  V30 4329 N 416.824 -0.551391 1.4764 0
M  V30 4330 C 417.757 -1.6738 1.5511 0
M  V30 4331 C 418.735 -1.5753 0.402856 0
M  V30 4332 O 419.919 -1.78307 0.611475 0
M  V30 4333 C 417.046 -3.05661 1.45908 0
M  V30 4334 C 416.092 -3.33938 2.65307 0
M  V30 4335 S 416.925 -3.22553 4.27457 0
M  V30 4336 C 418.081 -4.63317 4.20818 0
M  V30 4337 H 418.314 -1.6079 2.50068 0
M  V30 4338 H 415.847 -0.732674 1.35909 0
M  V30 4339 H 417.805 -3.8542 1.41286 0
M  V30 4340 H 416.466 -3.09711 0.523248 0
M  V30 4341 H 415.659 -4.34761 2.54948 0
M  V30 4342 H 415.261 -2.61809 2.67081 0
M  V30 4343 H 417.553 -5.54391 3.89431 0
M  V30 4344 H 418.496 -4.78732 5.21748 0
M  V30 4345 H 418.904 -4.41636 3.51593 0
M  V30 4346 N 418.302 -1.35869 -0.798587 0
M  V30 4347 C 419.234 -1.25305 -1.91915 0
M  V30 4348 C 420.247 -0.174548 -1.61862 0
M  V30 4349 O 421.436 -0.428499 -1.73281 0
M  V30 4350 C 418.536 -0.9086 -3.26493 0
M  V30 4351 C 417.709 -2.08711 -3.84394 0
M  V30 4352 C 416.768 -1.71717 -4.97393 0
M  V30 4353 O 415.794 -2.43692 -5.14396 0
M  V30 4354 N 416.996 -0.645473 -5.769 0
M  V30 4355 H 419.761 -2.21849 -2.01502 0
M  V30 4356 H 417.322 -1.29143 -0.976408 0
M  V30 4357 H 419.314 -0.642455 -3.99568 0
M  V30 4358 H 417.884 -0.0325815 -3.12583 0
M  V30 4359 H 417.104 -2.51659 -3.03416 0
M  V30 4360 H 418.392 -2.87468 -4.19809 0
M  V30 4361 H 417.79 -0.047648 -5.6568 0
M  V30 4362 H 416.347 -0.43913 -6.50319 0
M  V30 4363 N 419.78 1.02168 -1.19998 0
M  V30 4364 C 421.057 1.72816 -0.916191 0
M  V30 4365 C 421.437 2.03081 0.576325 0
M  V30 4366 O 420.785 1.69122 1.53656 0
M  V30 4367 C 420.995 2.9997 -1.78378 0
M  V30 4368 C 422.343 3.73336 -2.02251 0
M  V30 4369 O 423.367 3.09914 -1.75589 0
M  V30 4370 O 422.226 4.87371 -2.47249 0
M  V30 4371 H 419.32 0.752924 -0.342103 0
M  V30 4372 H 421.866 1.08062 -1.30846 0
M  V30 4373 H 420.638 2.73888 -2.79466 0
M  V30 4374 H 420.261 3.72464 -1.39126 0
M  V30 4375 N 421.258 1.00505 1.21394 0
M  V30 4376 C 422.507 0.683159 1.89778 0
M  V30 4377 C 422.82 -0.789471 1.7896 0
M  V30 4378 O 424.026 -1.22344 2.42372 0
M  V30 4379 C 422.482 1.17146 3.40301 0
M  V30 4380 C 422.09 2.67017 3.5973 0
M  V30 4381 C 423.834 0.924461 4.14311 0
M  V30 4382 C 421.741 3.09387 5.04017 0
M  V30 4383 H 420.671 0.25183 0.710702 0
M  V30 4384 H 423.322 1.21622 1.37406 0
M  V30 4385 H 421.704 0.566451 3.91928 0
M  V30 4386 H 422.878 3.32968 3.18542 0
M  V30 4387 H 421.193 2.89732 2.99073 0
M  V30 4388 H 423.79 1.21658 5.20676 0
M  V30 4389 H 424.133 -0.139286 4.16067 0
M  V30 4390 H 424.666 1.49226 3.6875 0
M  V30 4391 H 421.405 4.14989 5.07409 0
M  V30 4392 H 420.925 2.48149 5.46061 0
M  V30 4393 H 422.604 3.01371 5.72525 0
M  V30 4394 N 422.737 -1.36956 0.779787 0
M  V30 4395 C 424.153 -1.52817 0.460342 0
M  V30 4396 C 424.353 -1.7361 -1.02283 0
M  V30 4397 O 423.409 -1.76207 -1.80852 0
M  V30 4398 C 424.722 -2.71983 1.28241 0
M  V30 4399 C 426.27 -2.85849 1.27512 0
M  V30 4400 C 426.745 -4.08008 2.08072 0
M  V30 4401 N 428.236 -4.15135 2.05467 0
M  V30 4402 C 428.971 -5.08711 2.64577 0
M  V30 4403 N 428.467 -6.07792 3.32506 0
M  V30 4404 N 430.26 -5.01254 2.54363 0
M  V30 4405 H 422.411 -1.21713 1.74068 0
M  V30 4406 H 424.674 -0.593294 0.739396 0
M  V30 4407 H 424.38 -2.63109 2.33381 0
M  V30 4408 H 424.254 -3.65882 0.917088 0
M  V30 4409 H 426.641 -2.94189 0.231686 0
M  V30 4410 H 426.722 -1.92886 1.68014 0
M  V30 4411 H 426.366 -4.00429 3.12441 0
M  V30 4412 H 426.296 -5.001 1.64947 0
M  V30 4413 H 428.787 -3.44189 1.5602 0
M  V30 4414 H 429.1 -6.75739 3.74963 0
M  V30 4415 H 427.445 -6.08047 3.36606 0
M  V30 4416 H 430.636 -4.22795 2.00902 0
M  V30 4417 H 430.809 -5.73995 3.00722 0
M  V30 4418 N 424.215 -0.530993 -1.48385 0
M  V30 4419 C 425.178 0.220497 -2.28137 0
M  V30 4420 C 426.178 0.866851 -1.35434 0
M  V30 4421 O 427.368 0.726746 -1.58316 0
M  V30 4422 C 424.5 1.31921 -3.1434 0
M  V30 4423 H 425.693 -0.479714 -2.96038 0
M  V30 4424 H 423.246 -0.286968 -1.53643 0
M  V30 4425 H 423.981 2.05264 -2.51072 0
M  V30 4426 H 423.766 0.86085 -3.82533 0
M  V30 4427 H 425.256 1.84776 -3.74497 0
M  V30 4428 N 425.693 1.55336 -0.266172 0
M  V30 4429 C 427.109 1.59356 0.0882065 0
M  V30 4430 C 427.309 1.2834 1.55342 0
M  V30 4431 O 426.365 1.03996 2.30089 0
M  V30 4432 C 427.678 2.99409 -0.278364 0
M  V30 4433 C 429.226 3.12196 -0.224243 0
M  V30 4434 C 429.701 4.545 -0.565123 0
M  V30 4435 N 431.192 4.60313 -0.51634 0
M  V30 4436 C 431.927 5.68434 -0.753013 0
M  V30 4437 N 431.423 6.84738 -1.05383 0
M  V30 4438 N 433.216 5.57942 -0.682414 0
M  V30 4439 H 425.367 1.73764 -1.22147 0
M  V30 4440 H 427.63 0.809822 -0.492841 0
M  V30 4441 H 427.336 3.2691 -1.29703 0
M  V30 4442 H 427.21 3.75228 0.385186 0
M  V30 4443 H 429.597 2.84464 0.78512 0
M  V30 4444 H 429.678 2.38609 -0.921922 0
M  V30 4445 H 429.322 4.82956 -1.57213 0
M  V30 4446 H 429.252 5.26374 0.154248 0
M  V30 4447 H 431.743 3.7676 -0.29335 0
M  V30 4448 H 432.056 7.63088 -1.22133 0
M  V30 4449 H 430.401 6.86375 -1.09151 0
M  V30 4450 H 433.592 4.65958 -0.44731 0
M  V30 4451 H 433.765 6.4213 -0.870248 0
M  V30 4452 N 427.171 -0.0066808 1.57599 0
M  V30 4453 C 428.119 -1.01851 2.09115 0
M  V30 4454 C 429.113 -1.36021 1.00969 0
M  V30 4455 O 430.319 -1.34663 1.19439 0
M  V30 4456 H 426.694 -0.346083 0.667631 0
M  V30 4457 H 428.665 -0.558394 2.93129 0
M  V30 4458 C 427.414 -2.30374 2.60429 0
M  V30 4459 H 426.737 -2.04947 3.43273 0
M  V30 4460 H 428.177 -2.99466 3.00161 0
M  V30 4461 C 426.636 -3.00893 1.51542 0
M  V30 4462 O 427.166 -3.91614 0.894484 0
M  V30 4463 N 425.372 -2.62603 1.2445 0
M  V30 4464 H 424.919 -1.88911 1.75129 0
M  V30 4465 H 424.877 -3.10101 0.518137 0
M  V30 4466 N 428.649 -1.55105 -0.279332 0
M  V30 4467 C 429.879 -1.7917 -1.02867 0
M  V30 4468 C 430.287 -0.56204 -1.80659 0
M  V30 4469 O 429.63 0.478266 -1.77365 0
M  V30 4470 C 429.692 -2.96061 -2.03932 0
M  V30 4471 C 429.356 -4.33341 -1.45137 0
M  V30 4472 C 430.353 -5.12565 -0.870266 0
M  V30 4473 C 428.038 -4.79987 -1.48048 0
M  V30 4474 C 430.032 -6.36565 -0.326097 0
M  V30 4475 C 427.719 -6.03944 -0.932443 0
M  V30 4476 C 428.717 -6.8207 -0.356247 0
M  V30 4477 O 428.405 -8.03691 0.183412 0
M  V30 4478 H 428.137 -0.600796 -0.309872 0
M  V30 4479 H 430.691 -2.02932 -0.317468 0
M  V30 4480 H 428.921 -2.67975 -2.78794 0
M  V30 4481 H 430.61 -3.07506 -2.64943 0
M  V30 4482 H 431.376 -4.77661 -0.840521 0
M  V30 4483 H 427.255 -4.1919 -1.91835 0
M  V30 4484 H 430.799 -6.97489 0.124286 0
M  V30 4485 H 426.696 -6.3833 -0.959407 0
M  V30 4486 H 427.464 -8.18468 0.0721681 0
M  V30 4487 N 430.127 0.543554 -1.4793 0
M  V30 4488 C 431.074 1.64942 -1.6144 0
M  V30 4489 C 432.044 1.59692 -0.456903 0
M  V30 4490 O 433.229 1.78321 -0.678688 0
M  V30 4491 C 430.369 3.03238 -1.64744 0
M  V30 4492 C 429.482 3.18823 -2.91506 0
M  V30 4493 C 428.617 4.47599 -2.86057 0
M  V30 4494 C 427.656 4.56664 -4.07584 0
M  V30 4495 N 426.793 5.76811 -4.00292 0
M  V30 4496 H 431.633 1.52733 -2.55884 0
M  V30 4497 H 429.17 0.7438 -1.2691 0
M  V30 4498 H 431.128 3.83339 -1.64641 0
M  V30 4499 H 429.758 3.1425 -0.738017 0
M  V30 4500 H 428.81 2.32064 -3.01414 0
M  V30 4501 H 430.122 3.21384 -3.81463 0
M  V30 4502 H 429.276 5.35975 -2.84281 0
M  V30 4503 H 428.015 4.47538 -1.93807 0
M  V30 4504 H 427.02 3.66697 -4.09651 0
M  V30 4505 H 428.245 4.58474 -5.00978 0
M  V30 4506 H 426.191 5.77673 -3.10853 0
M  V30 4507 H 426.108 5.80808 -4.8394 0
M  V30 4508 H 427.376 6.67512 -4.02553 0
M  V30 4509 N 431.605 1.3629 0.791371 0
M  V30 4510 C 432.535 1.33137 1.91825 0
M  V30 4511 C 433.516 0.203168 1.68882 0
M  V30 4512 O 434.701 0.400509 1.90025 0
M  V30 4513 C 431.831 1.11793 3.28816 0
M  V30 4514 C 430.785 2.21417 3.66277 0
M  V30 4515 C 430.111 1.85218 5.01596 0
M  V30 4516 C 431.411 3.63489 3.75064 0
M  V30 4517 H 433.105 2.2743 1.9472 0
M  V30 4518 H 430.651 1.09479 0.935437 0
M  V30 4519 H 432.604 1.08222 4.07266 0
M  V30 4520 H 431.328 0.139501 3.26302 0
M  V30 4521 H 429.987 2.2411 2.90121 0
M  V30 4522 H 429.635 0.859544 4.95602 0
M  V30 4523 H 429.335 2.58611 5.27631 0
M  V30 4524 H 430.859 1.832 5.82469 0
M  V30 4525 H 432.273 3.63034 4.43711 0
M  V30 4526 H 430.67 4.35771 4.12582 0
M  V30 4527 H 431.74 3.98536 2.76219 0
M  V30 4528 N 433.083 -1.0153 1.20538 0
M  V30 4529 C 434.499 -1.27461 0.96051 0
M  V30 4530 C 434.699 -1.98273 -0.359193 0
M  V30 4531 O 433.755 -2.27886 -1.0874 0
M  V30 4532 C 435.068 -2.10837 2.14402 0
M  V30 4533 C 436.616 -2.24099 2.18515 0
M  V30 4534 C 437.091 -3.10852 3.36355 0
M  V30 4535 N 438.582 -3.18441 3.36377 0
M  V30 4536 C 439.317 -3.85795 4.24205 0
M  V30 4537 N 438.813 -4.55264 5.22213 0
M  V30 4538 N 440.606 -3.82331 4.12043 0
M  V30 4539 H 432.757 -0.539907 2.05423 0
M  V30 4540 H 435.02 -0.30092 0.898972 0
M  V30 4541 H 434.726 -1.66144 3.09983 0
M  V30 4542 H 434.6 -3.11576 2.12604 0
M  V30 4543 H 436.987 -2.68016 1.23497 0
M  V30 4544 H 437.068 -1.22865 2.24361 0
M  V30 4545 H 436.712 -2.6764 4.31661 0
M  V30 4546 H 436.642 -4.12177 3.27746 0
M  V30 4547 H 439.133 -2.68978 2.65442 0
M  V30 4548 H 439.446 -5.04331 5.85551 0
M  V30 4549 H 437.791 -4.54085 5.26148 0
M  V30 4550 H 440.982 -3.27207 3.34743 0
M  V30 4551 H 441.155 -4.34547 4.807 0
M  V30 4552 N 434.561 -1.01147 -1.20859 0
M  V30 4553 C 435.508 -0.577354 -2.23462 0
M  V30 4554 C 436.478 0.399922 -1.61214 0
M  V30 4555 O 437.663 0.300515 -1.88419 0
M  V30 4556 C 434.803 0.083372 -3.44999 0
M  V30 4557 C 433.916 -0.937856 -4.21697 0
M  V30 4558 C 433.051 -0.248717 -5.30617 0
M  V30 4559 C 432.09 -1.25705 -5.99053 0
M  V30 4560 N 431.227 -0.594939 -6.99575 0
M  V30 4561 H 436.067 -1.45695 -2.59956 0
M  V30 4562 H 433.604 -0.729428 -1.27741 0
M  V30 4563 H 435.562 0.483535 -4.14388 0
M  V30 4564 H 434.192 0.926645 -3.09214 0
M  V30 4565 H 433.244 -1.45622 -3.51423 0
M  V30 4566 H 434.556 -1.70493 -4.68757 0
M  V30 4567 H 433.71 0.207215 -6.06346 0
M  V30 4568 H 432.449 0.55071 -4.84581 0
M  V30 4569 H 431.454 -1.72343 -5.2209 0
M  V30 4570 H 432.679 -2.05767 -6.47176 0
M  V30 4571 H 430.625 0.184713 -6.5574 0
M  V30 4572 H 430.542 -1.30017 -7.44736 0
M  V30 4573 H 431.81 -0.162427 -7.79331 0
M  V30 4574 N 436.039 1.36541 -0.78704 0
M  V30 4575 C 437.285 1.99599 -0.358872 0
M  V30 4576 C 437.618 1.62323 1.06606 0
M  V30 4577 O 436.893 0.876858 1.73613 0
M  V30 4578 C 437.176 3.56327 -0.519944 0
M  V30 4579 C 437.029 4.03464 -1.98839 0
M  V30 4580 C 438.348 4.4005 0.0664737 0
M  V30 4581 H 435.467 0.725107 -0.131869 0
M  V30 4582 H 438.109 1.6199 -0.992936 0
M  V30 4583 H 436.259 3.88495 0.0198321 0
M  V30 4584 H 437.931 3.81793 -2.58905 0
M  V30 4585 H 436.174 3.55092 -2.49183 0
M  V30 4586 H 436.845 5.12439 -2.05207 0
M  V30 4587 H 439.321 4.14228 -0.394267 0
M  V30 4588 H 438.197 5.48847 -0.0762682 0
M  V30 4589 H 438.458 4.26655 1.15835 0
M  V30 4590 N 437.518 0.538854 1.48102 0
M  V30 4591 C 438.451 -0.266495 2.26639 0
M  V30 4592 C 439.429 -0.93687 1.32897 0
M  V30 4593 O 440.613 -0.959507 1.62252 0
M  V30 4594 C 437.74 -1.37814 3.09394 0
M  V30 4595 C 436.786 -0.818247 4.18577 0
M  V30 4596 S 437.619 0.320848 5.34538 0
M  V30 4597 C 438.775 -0.793059 6.20855 0
M  V30 4598 H 439.008 0.399994 2.94597 0
M  V30 4599 H 436.541 0.324808 1.50945 0
M  V30 4600 H 438.499 -2.01488 3.57649 0
M  V30 4601 H 437.16 -2.01639 2.40833 0
M  V30 4602 H 436.353 -1.65247 4.7614 0
M  V30 4603 H 435.955 -0.258036 3.73109 0
M  V30 4604 H 438.247 -1.68961 6.56093 0
M  V30 4605 H 439.19 -0.255204 7.0764 0
M  V30 4606 H 439.598 -1.07746 5.54122 0
M  V30 4607 N 438.996 -1.55193 0.274407 0
M  V30 4608 C 440.242 -1.99877 -0.343086 0
M  V30 4609 C 440.575 -1.16256 -1.55558 0
M  V30 4610 O 439.85 -0.232462 -1.93106 0
M  V30 4611 C 440.133 -3.52706 -0.725965 0
M  V30 4612 C 439.986 -4.47081 0.493818 0
M  V30 4613 C 441.305 -4.11422 -1.56268 0
M  V30 4614 H 438.424 -0.726625 -0.123229 0
M  V30 4615 H 441.066 -1.86136 0.38121 0
M  V30 4616 H 439.216 -3.64546 -1.34307 0
M  V30 4617 H 440.888 -4.47186 1.13237 0
M  V30 4618 H 439.131 -4.1877 1.13201 0
M  V30 4619 H 439.802 -5.51699 0.18217 0
M  V30 4620 H 442.278 -4.02855 -1.04151 0
M  V30 4621 H 441.154 -5.18568 -1.79939 0
M  V30 4622 H 441.415 -3.61607 -2.54348 0
M  V30 4623 N 440.474 -0.00167713 -1.576 0
M  V30 4624 C 441.751 0.719951 -1.81868 0
M  V30 4625 C 442.131 1.91895 -0.879747 0
M  V30 4626 O 441.479 2.28389 0.0711423 0
M  V30 4627 C 441.689 1.12409 -3.30402 0
M  V30 4628 C 443.037 1.52724 -3.96182 0
M  V30 4629 O 444.061 1.21784 -3.34734 0
M  V30 4630 O 442.92 2.10265 -5.04431 0
M  V30 4631 H 440.014 0.350707 -0.748955 0
M  V30 4632 H 442.56 -0.0272597 -1.69678 0
M  V30 4633 H 441.332 0.269532 -3.90371 0
M  V30 4634 H 440.955 1.93035 -3.47596 0
M  V30 4635 N 441.952 1.55251 0.271103 0
M  V30 4636 C 443.2 1.75599 1.00047 0
M  V30 4637 C 443.521 0.561188 1.8675 0
M  V30 4638 O 442.791 -0.423846 1.9126 0
M  V30 4639 H 441.371 0.647562 0.372387 0
M  V30 4640 H 444.033 1.92656 0.294876 0
M  V30 4641 H 443.129 2.65766 1.6363 0
M  V30 4642 N 443.43 -0.535701 1.48216 0
M  V30 4643 C 444.707 -1.29683 1.46429 0
M  V30 4644 C 445.087 -2.10391 0.172852 0
M  V30 4645 O 444.435 -2.12282 -0.845488 0
M  V30 4646 C 444.645 -2.18313 2.72287 0
M  V30 4647 C 445.993 -2.78639 3.20383 0
M  V30 4648 O 447.017 -2.28604 2.73164 0
M  V30 4649 O 445.876 -3.69636 4.02531 0
M  V30 4650 H 442.97 -0.585026 0.584529 0
M  V30 4651 H 445.516 -0.552827 1.60443 0
M  V30 4652 H 444.288 -1.58421 3.57797 0
M  V30 4653 H 443.911 -2.99971 2.60966 0
M  V30 4654 N 444.908 -1.36708 -0.784132 0
M  V30 4655 C 446.157 -1.30559 -1.53744 0
M  V30 4656 C 446.47 0.111374 -1.95283 0
M  V30 4657 O 447.676 0.29527 -2.6989 0
M  V30 4658 C 446.132 -2.29098 -2.77565 0
M  V30 4659 C 445.74 -3.76258 -2.43174 0
M  V30 4660 C 447.484 -2.31936 -3.55536 0
M  V30 4661 C 445.391 -4.6656 -3.63422 0
M  V30 4662 H 444.321 -0.48518 -0.577162 0
M  V30 4663 H 446.972 -1.62101 -0.859981 0
M  V30 4664 H 445.354 -1.90557 -3.47137 0
M  V30 4665 H 446.528 -4.23565 -1.81465 0
M  V30 4666 H 444.843 -3.76246 -1.78403 0
M  V30 4667 H 447.44 -2.9661 -4.44889 0
M  V30 4668 H 447.783 -1.3294 -3.94503 0
M  V30 4669 H 448.316 -2.6912 -2.92949 0
M  V30 4670 H 445.055 -5.66638 -3.29547 0
M  V30 4671 H 444.575 -4.23966 -4.24279 0
M  V30 4672 H 446.254 -4.8309 -4.30387 0
M  V30 4673 N 446.386 1.0089 -1.21074 0
M  V30 4674 C 447.797 1.56056 -1.02486 0
M  V30 4675 C 448.148 1.91728 0.416506 0
M  V30 4676 O 447.273 1.73066 1.29912 0
M  V30 4677 C 447.868 2.83563 -1.85411 0
M  V30 4678 C 446.427 3.3523 -1.71166 0
M  V30 4679 C 445.574 2.0846 -1.82865 0
M  V30 4680 H 448.525 0.831818 -1.35154 0
M  V30 4681 H 448.546 3.55286 -1.36205 0
M  V30 4682 H 448.058 2.57569 -2.9031 0
M  V30 4683 H 446.159 3.66167 -0.689361 0
M  V30 4684 H 446.272 4.06913 -2.52901 0
M  V30 4685 H 444.636 2.21275 -1.26132 0
M  V30 4686 H 445.419 1.84883 -2.89263 0
M  V30 4687 N 447.864 1.01787 1.20321 0
M  V30 4688 C 449.275 0.739307 1.71438 0
M  V30 4689 C 449.626 -0.742041 1.81627 0
M  V30 4690 O 448.751 -1.57903 1.47971 0
M  V30 4691 C 449.346 1.33538 3.11373 0
M  V30 4692 C 447.905 1.10566 3.59795 0
M  V30 4693 C 447.052 1.44028 2.36962 0
M  V30 4694 H 450.003 1.18718 1.05317 0
M  V30 4695 H 450.024 0.726611 3.73498 0
M  V30 4696 H 449.536 2.41352 3.03926 0
M  V30 4697 H 447.637 0.0452405 3.72573 0
M  V30 4698 H 447.75 1.78661 4.44542 0
M  V30 4699 H 446.114 0.85933 2.39766 0
M  V30 4700 H 446.897 2.52901 2.32155 0
M  V30 4701 N 449.342 -1.36122 0.79427 0
M  V30 4702 C 450.758 -1.5232 0.476525 0
M  V30 4703 C 450.958 -1.74685 -1.00436 0
M  V30 4704 O 450.014 -1.78115 -1.78973 0
M  V30 4705 C 451.327 -2.70607 1.31119 0
M  V30 4706 C 452.875 -2.8448 1.30537 0
M  V30 4707 C 453.35 -4.05778 2.12387 0
M  V30 4708 N 454.841 -4.12933 2.09859 0
M  V30 4709 C 455.576 -5.05876 2.69957 0
M  V30 4710 N 455.072 -6.04232 3.38934 0
M  V30 4711 N 456.865 -4.98528 2.59665 0
M  V30 4712 H 449.016 -1.1986 1.75349 0
M  V30 4713 H 451.279 -0.585418 0.745647 0
M  V30 4714 H 450.985 -2.60619 2.36158 0
M  V30 4715 H 450.859 -3.64888 0.955843 0
M  V30 4716 H 453.246 -2.93927 0.262876 0
M  V30 4717 H 453.327 -1.91093 1.70051 0
M  V30 4718 H 452.971 -3.97092 3.1667 0
M  V30 4719 H 452.901 -4.98323 1.70242 0
M  V30 4720 H 455.392 -3.42515 1.59662 0
M  V30 4721 H 455.705 -6.71724 3.82109 0
M  V30 4722 H 454.05 -6.04443 3.43036 0
M  V30 4723 H 457.241 -4.20641 2.05375 0
M  V30 4724 H 457.414 -5.70773 3.06793 0
M  V30 4725 N 450.82 -0.546701 -1.47814 0
M  V30 4726 C 452.066 -0.0187684 -2.02791 0
M  V30 4727 C 452.399 1.32338 -1.42128 0
M  V30 4728 O 451.674 1.85867 -0.573023 0
M  V30 4729 C 451.957 0.0854985 -3.59998 0
M  V30 4730 C 451.81 -1.283 -4.31114 0
M  V30 4731 C 453.129 0.80412 -4.32691 0
M  V30 4732 H 450.248 -0.0082946 -0.736953 0
M  V30 4733 H 452.89 -0.706962 -1.76358 0
M  V30 4734 H 451.04 0.671609 -3.82651 0
M  V30 4735 H 452.712 -1.91151 -4.19832 0
M  V30 4736 H 450.955 -1.86049 -3.91878 0
M  V30 4737 H 451.626 -1.16287 -5.39612 0
M  V30 4738 H 454.102 0.306576 -4.14969 0
M  V30 4739 H 452.978 0.846011 -5.42341 0
M  V30 4740 H 453.239 1.85802 -4.01161 0
M  V30 4741 N 452.299 1.55045 -0.282633 0
M  V30 4742 C 453.246 2.22822 0.601566 0
M  V30 4743 C 454.216 1.20431 1.14392 0
M  V30 4744 O 455.401 1.48996 1.19184 0
M  V30 4745 C 452.541 2.95873 1.77632 0
M  V30 4746 C 451.654 4.12999 1.26711 0
M  V30 4747 C 450.789 4.73676 2.40426 0
M  V30 4748 C 449.828 5.82981 1.86545 0
M  V30 4749 N 448.965 6.3769 2.93762 0
M  V30 4750 H 453.805 2.97995 0.0169528 0
M  V30 4751 H 451.342 1.471 -0.00339964 0
M  V30 4752 H 453.3 3.36447 2.46697 0
M  V30 4753 H 451.93 2.2311 2.33285 0
M  V30 4754 H 450.982 3.77494 0.469314 0
M  V30 4755 H 452.294 4.91803 0.832518 0
M  V30 4756 H 451.448 5.17008 3.17471 0
M  V30 4757 H 450.187 3.94164 2.87203 0
M  V30 4758 H 449.192 5.39092 1.07983 0
M  V30 4759 H 450.417 6.64366 1.40694 0
M  V30 4760 H 448.363 5.61069 3.39908 0
M  V30 4761 H 448.28 7.11788 2.54744 0
M  V30 4762 H 449.548 6.8568 3.7076 0
M  V30 4763 N 453.777 0.010035 1.57597 0
M  V30 4764 C 454.724 -0.978122 2.09049 0
M  V30 4765 C 455.694 -1.33509 0.988159 0
M  V30 4766 O 456.879 -1.43172 1.26121 0
M  V30 4767 C 454.019 -2.26158 2.60666 0
M  V30 4768 C 453.132 -1.96275 3.84838 0
M  V30 4769 C 452.267 -3.18776 4.24918 0
M  V30 4770 C 451.306 -2.84625 5.41899 0
M  V30 4771 N 450.443 -3.99693 5.77226 0
M  V30 4772 H 455.283 -0.532431 2.93205 0
M  V30 4773 H 452.82 -0.251234 1.44939 0
M  V30 4774 H 454.778 -3.01202 2.88675 0
M  V30 4775 H 453.408 -2.68378 1.79369 0
M  V30 4776 H 452.46 -1.11555 3.63675 0
M  V30 4777 H 453.772 -1.67111 4.69974 0
M  V30 4778 H 452.926 -4.02157 4.54262 0
M  V30 4779 H 451.665 -3.51087 3.38511 0
M  V30 4780 H 450.67 -1.99653 5.12268 0
M  V30 4781 H 451.895 -2.53551 6.29991 0
M  V30 4782 H 449.841 -4.31882 4.93776 0
M  V30 4783 H 449.758 -3.74087 6.56959 0
M  V30 4784 H 451.026 -4.83834 6.11167 0
M  V30 4785 N 455.255 -1.55392 -0.262866 0
M  V30 4786 C 456.532 -1.67204 -1.01499 0
M  V30 4787 C 456.912 -0.545186 -2.03939 0
M  V30 4788 O 456.26 0.453467 -2.23955 0
M  V30 4789 C 456.47 -3.06847 -1.6627 0
M  V30 4790 C 457.818 -3.64928 -2.17054 0
M  V30 4791 O 458.842 -3.09545 -1.76239 0
M  V30 4792 O 457.701 -4.61984 -2.91947 0
M  V30 4793 H 454.795 -0.679467 -0.471438 0
M  V30 4794 H 457.341 -1.67729 -0.257918 0
M  V30 4795 H 456.113 -3.80309 -0.920915 0
M  V30 4796 H 455.736 -3.10266 -2.48638 0
M  V30 4797 N 456.733 0.527833 -1.48498 0
M  V30 4798 C 457.696 1.61439 -1.62696 0
M  V30 4799 C 458.696 1.52824 -0.500136 0
M  V30 4800 O 459.886 1.56456 -0.765976 0
M  V30 4801 C 457.018 3.01063 -1.59918 0
M  V30 4802 H 458.211 1.50189 -2.59583 0
M  V30 4803 H 455.764 0.750055 -1.37127 0
M  V30 4804 H 456.499 3.17818 -0.645163 0
M  V30 4805 H 456.284 3.08725 -2.41726 0
M  V30 4806 H 457.774 3.80057 -1.73051 0
M  V30 4807 N 458.211 1.37122 0.776871 0
M  V30 4808 C 459.161 1.28989 1.88005 0
M  V30 4809 C 460.145 0.178765 1.59904 0
M  V30 4810 O 461.337 0.412705 1.72121 0
M  V30 4811 C 458.466 1.09402 3.25402 0
M  V30 4812 C 457.552 2.25036 3.59471 0
M  V30 4813 N 457.943 3.50407 3.64759 0
M  V30 4814 C 456.241 2.17078 3.89607 0
M  V30 4815 C 456.942 4.26628 3.95428 0
M  V30 4816 N 455.918 3.55709 4.11062 0
M  V30 4817 H 459.72 2.2394 1.90337 0
M  V30 4818 H 457.234 1.30021 0.973052 0
M  V30 4819 H 459.231 1.01661 4.04315 0
M  V30 4820 H 457.891 0.153632 3.24336 0
M  V30 4821 H 458.902 3.8438 3.47091 0
M  V30 4822 H 455.579 1.31067 3.96393 0
M  V30 4823 H 456.969 5.35107 4.06338 0
M  V30 4824 N 459.689 -1.00246 1.21608 0
M  V30 4825 C 460.599 -2.12515 0.993709 0
M  V30 4826 C 461.615 -1.73913 -0.0549939 0
M  V30 4827 O 462.791 -2.00943 0.135619 0
M  V30 4828 C 459.856 -3.42083 0.563953 0
M  V30 4829 C 458.917 -3.94843 1.68516 0
M  V30 4830 C 458.15 -5.18226 1.27582 0
M  V30 4831 O 458.373 -5.70201 0.150506 0
M  V30 4832 O 457.307 -5.64497 2.0887 0
M  V30 4833 H 461.133 -2.34152 1.93407 0
M  V30 4834 H 458.718 -1.10891 1.00118 0
M  V30 4835 H 460.6 -4.20073 0.334194 0
M  V30 4836 H 459.275 -3.21828 -0.347665 0
M  V30 4837 H 458.182 -3.18068 1.96935 0
M  V30 4838 H 459.515 -4.19512 2.5743 0
M  V30 4839 N 461.167 -1.02423 -1.1978 0
M  V30 4840 C 462.097 -0.62157 -2.25075 0
M  V30 4841 C 463.078 0.367148 -1.6609 0
M  V30 4842 O 464.263 0.250892 -1.92573 0
M  V30 4843 C 461.393 0.0331826 -3.47284 0
M  V30 4844 C 460.347 -0.877323 -4.18912 0
M  V30 4845 C 459.673 -0.0879296 -5.34628 0
M  V30 4846 C 460.973 -2.18892 -4.74219 0
M  V30 4847 H 462.667 -1.50179 -2.59011 0
M  V30 4848 H 460.213 -0.723547 -1.24502 0
M  V30 4849 H 462.166 0.326488 -4.20133 0
M  V30 4850 H 460.89 0.948164 -3.12534 0
M  V30 4851 H 459.549 -1.15475 -3.47938 0
M  V30 4852 H 459.197 0.828941 -4.96123 0
M  V30 4853 H 458.897 -0.694359 -5.83483 0
M  V30 4854 H 460.421 0.198743 -6.10276 0
M  V30 4855 H 461.835 -1.95746 -5.38847 0
M  V30 4856 H 460.232 -2.74686 -5.33542 0
M  V30 4857 H 461.302 -2.84674 -3.92541 0
M  V30 4858 N 462.645 1.35699 -0.801477 0
M  V30 4859 C 463.894 1.98165 -0.375979 0
M  V30 4860 C 464.207 1.64306 1.06127 0
M  V30 4861 O 465.413 2.20097 1.58964 0
M  V30 4862 C 463.869 3.54497 -0.621305 0
M  V30 4863 C 463.477 3.9727 -2.07076 0
M  V30 4864 C 465.221 4.23697 -0.26091 0
M  V30 4865 C 463.128 5.46427 -2.26211 0
M  V30 4866 H 462.058 0.741478 -0.136844 0
M  V30 4867 H 464.709 1.54834 -0.984814 0
M  V30 4868 H 463.091 3.95958 0.0574112 0
M  V30 4869 H 464.265 3.66974 -2.78687 0
M  V30 4870 H 462.58 3.40943 -2.39054 0
M  V30 4871 H 465.177 5.33334 -0.381994 0
M  V30 4872 H 465.52 4.0869 0.792344 0
M  V30 4873 H 466.053 3.87639 -0.893339 0
M  V30 4874 H 462.792 5.66396 -3.29963 0
M  V30 4875 H 462.312 5.78309 -1.59119 0
M  V30 4876 H 463.991 6.12819 -2.07513 0
M  V30 4877 N 464.123 0.554532 1.47522 0
M  V30 4878 C 465.053 -0.182974 2.32782 0
M  V30 4879 C 466.034 -0.911377 1.43624 0
M  V30 4880 O 467.219 -0.892366 1.72483 0
M  V30 4881 C 464.349 -1.21513 3.25349 0
M  V30 4882 C 463.303 -0.603355 4.23726 0
M  V30 4883 C 462.629 -1.73995 5.05598 0
M  V30 4884 C 463.929 0.441121 5.20434 0
M  V30 4885 H 465.623 0.52882 2.94693 0
M  V30 4886 H 463.169 0.255759 1.41711 0
M  V30 4887 H 465.122 -1.73922 3.83835 0
M  V30 4888 H 463.846 -1.95683 2.61487 0
M  V30 4889 H 462.505 -0.10059 3.66462 0
M  V30 4890 H 462.153 -2.47063 4.38143 0
M  V30 4891 H 461.853 -1.3364 5.72201 0
M  V30 4892 H 463.377 -2.26735 5.66942 0
M  V30 4893 H 464.791 0.00319931 5.733 0
M  V30 4894 H 463.188 0.763402 5.95224 0
M  V30 4895 H 464.258 1.33799 4.66075 0
M  V30 4896 N 465.601 -1.54893 0.290851 0
M  V30 4897 C 466.878 -1.91991 -0.373989 0
M  V30 4898 C 467.258 -1.21694 -1.72493 0
M  V30 4899 O 466.606 -0.34917 -2.25816 0
M  V30 4900 C 466.816 -3.45419 -0.498703 0
M  V30 4901 C 468.164 -4.1748 -0.774298 0
M  V30 4902 O 469.188 -3.51398 -0.582908 0
M  V30 4903 O 468.047 -5.3445 -1.14129 0
M  V30 4904 H 465.141 -0.800593 -0.207315 0
M  V30 4905 H 467.687 -1.66297 0.338164 0
M  V30 4906 H 466.459 -3.88688 0.451392 0
M  V30 4907 H 466.082 -3.77117 -1.25972 0
M  V30 4908 N 467.08 -0.0183926 -1.57589 0
M  V30 4909 C 468.327 0.662562 -1.91354 0
M  V30 4910 C 468.655 1.72747 -0.893788 0
M  V30 4911 O 467.91 1.9545 0.0988509 0
M  V30 4912 C 468.209 1.32676 -3.31861 0
M  V30 4913 C 467.875 0.393267 -4.49182 0
M  V30 4914 C 466.537 0.136302 -4.81007 0
M  V30 4915 C 468.889 -0.248366 -5.20608 0
M  V30 4916 C 466.217 -0.770282 -5.81621 0
M  V30 4917 C 468.569 -1.14294 -6.22189 0
M  V30 4918 C 467.233 -1.4089 -6.52462 0
M  V30 4919 H 466.503 0.242448 -0.700214 0
M  V30 4920 H 469.15 -0.0778629 -1.91342 0
M  V30 4921 H 467.455 2.14168 -3.28084 0
M  V30 4922 H 469.152 1.86001 -3.55253 0
M  V30 4923 H 465.742 0.603723 -4.24327 0
M  V30 4924 H 469.926 -0.062883 -4.9626 0
M  V30 4925 H 465.182 -0.984154 -6.03427 0
M  V30 4926 H 469.356 -1.64637 -6.76659 0
M  V30 4927 H 466.983 -2.11306 -7.30242 0
M  V30 4928 N 468.558 1.5553 0.254621 0
M  V30 4929 C 469.807 1.76202 0.981612 0
M  V30 4930 C 470.12 0.580883 1.86776 0
M  V30 4931 O 471.326 0.670448 2.63092 0
M  V30 4932 C 469.782 3.11921 1.79537 0
M  V30 4933 C 469.39 4.37659 0.956991 0
M  V30 4934 C 471.134 3.41936 2.51555 0
M  V30 4935 C 469.041 5.64411 1.76619 0
M  V30 4936 H 467.971 0.656841 0.370237 0
M  V30 4937 H 470.622 1.81969 0.236556 0
M  V30 4938 H 469.004 3.00241 2.58208 0
M  V30 4939 H 470.178 4.60307 0.21315 0
M  V30 4940 H 468.493 4.14922 0.350497 0
M  V30 4941 H 471.09 4.33849 3.12536 0
M  V30 4942 H 471.433 2.62905 3.22779 0
M  V30 4943 H 471.966 3.54797 1.799 0
M  V30 4944 H 468.705 6.46241 1.09783 0
M  V30 4945 H 468.225 5.45877 2.48551 0
M  V30 4946 H 469.904 6.03386 2.33527 0
M  V30 4947 N 470.036 -0.519951 1.48776 0
M  V30 4948 C 471.452 -0.849418 1.35119 0
M  V30 4949 C 471.652 -1.98077 0.36982 0
M  V30 4950 O 470.708 -2.51664 -0.205359 0
M  V30 4951 C 472.021 -1.20748 2.75391 0
M  V30 4952 C 473.569 -1.31679 2.83954 0
M  V30 4953 C 474.044 -1.70824 4.24951 0
M  V30 4954 N 475.535 -1.77908 4.27672 0
M  V30 4955 C 476.27 -2.09603 5.33717 0
M  V30 4956 N 475.766 -2.39652 6.5003 0
M  V30 4957 N 477.559 -2.10694 5.21119 0
M  V30 4958 H 469.71 0.226377 2.1119 0
M  V30 4959 H 471.973 0.0386519 0.947212 0
M  V30 4960 H 471.679 -0.449703 3.48813 0
M  V30 4961 H 471.553 -2.15534 3.09556 0
M  V30 4962 H 473.94 -2.06532 2.10781 0
M  V30 4963 H 474.021 -0.3499 2.53396 0
M  V30 4964 H 473.665 -0.965282 4.98643 0
M  V30 4965 H 473.595 -2.6858 4.52959 0
M  V30 4966 H 476.086 -1.56923 3.43779 0
M  V30 4967 H 476.399 -2.6297 7.26682 0
M  V30 4968 H 474.744 -2.37149 6.53288 0
M  V30 4969 H 477.935 -1.86682 4.29264 0
M  V30 4970 H 478.108 -2.35062 6.03863 0
M  V30 4971 N 471.514 -1.37532 -0.769588 0
M  V30 4972 C 472.739 -1.36231 -1.56384 0
M  V30 4973 C 473.164 0.0495849 -1.88035 0
M  V30 4974 O 472.522 1.02723 -1.49391 0
M  V30 4975 C 472.57 -2.20986 -2.84952 0
M  V30 4976 O 471.674 -1.61597 -3.79421 0
M  V30 4977 H 471.015 -0.465387 -0.473615 0
M  V30 4978 H 473.545 -1.81085 -0.952342 0
M  V30 4979 H 473.555 -2.34277 -3.34034 0
M  V30 4980 H 472.23 -3.23612 -2.61243 0
M  V30 4981 H 470.807 -1.57359 -3.38072 0
M  V30 4982 N 472.992 0.995999 -1.22138 0
M  V30 4983 C 474.408 1.25917 -0.980667 0
M  V30 4984 C 474.608 1.98819 0.327604 0
M  V30 4985 O 473.664 2.29587 1.05101 0
M  V30 4986 C 474.977 2.07399 -2.17729 0
M  V30 4987 C 476.525 2.20594 -2.22052 0
M  V30 4988 C 477 3.05462 -3.41258 0
M  V30 4989 N 478.491 3.13049 -3.41401 0
M  V30 4990 C 479.226 3.78997 -4.30289 0
M  V30 4991 N 478.722 4.46899 -5.2939 0
M  V30 4992 N 480.515 3.75728 -4.18073 0
M  V30 4993 H 472.666 0.507158 -2.06256 0
M  V30 4994 H 474.929 0.28658 -0.903646 0
M  V30 4995 H 474.635 1.61191 -3.12586 0
M  V30 4996 H 474.509 3.08154 -2.17534 0
M  V30 4997 H 476.896 2.66017 -1.27745 0
M  V30 4998 H 476.977 1.1928 -2.26287 0
M  V30 4999 H 476.621 2.60739 -4.35864 0
M  V30 5000 H 476.551 4.06911 -3.34262 0
M  V30 5001 H 479.042 2.64721 -2.69688 0
M  V30 5002 H 479.355 4.94952 -5.935 0
M  V30 5003 H 477.7 4.45657 -5.33306 0
M  V30 5004 H 480.891 3.2184 -3.39907 0
M  V30 5005 H 481.064 4.26845 -4.87553 0
M  V30 5006 N 474.47 1.03057 1.19235 0
M  V30 5007 C 475.881 0.757449 1.70645 0
M  V30 5008 C 476.232 -0.722735 1.82403 0
M  V30 5009 O 475.357 -1.56325 1.49638 0
M  V30 5010 C 475.952 1.36833 3.09939 0
M  V30 5011 C 474.511 1.14375 3.58602 0
M  V30 5012 C 473.658 1.46533 2.35422 0
M  V30 5013 H 476.609 1.19828 1.04052 0
M  V30 5014 H 476.63 0.766184 3.72706 0
M  V30 5015 H 476.142 2.44562 3.01349 0
M  V30 5016 H 474.243 0.0847542 3.72504 0
M  V30 5017 H 474.356 1.83366 4.42622 0
M  V30 5018 H 472.72 0.884712 2.38841 0
M  V30 5019 H 473.503 2.55349 2.2946 0
M  V30 5020 N 475.948 -1.35272 0.808662 0
M  V30 5021 C 477.359 -1.81179 0.450688 0
M  V30 5022 C 477.71 -1.67143 -1.02751 0
M  V30 5023 O 476.835 -1.20325 -1.79864 0
M  V30 5024 C 477.43 -3.28943 0.811275 0
M  V30 5025 C 475.989 -3.72985 0.505871 0
M  V30 5026 C 475.136 -2.57229 1.03578 0
M  V30 5027 H 478.087 -1.2322 1.00012 0
M  V30 5028 H 478.108 -3.80342 0.109588 0
M  V30 5029 H 477.62 -3.39127 1.88718 0
M  V30 5030 H 475.721 -3.68349 -0.561209 0
M  V30 5031 H 475.834 -4.67677 1.03995 0
M  V30 5032 H 474.198 -2.50548 0.458005 0
M  V30 5033 H 474.981 -2.7019 2.11784 0
M  V30 5034 N 477.426 -0.562348 -1.47226 0
M  V30 5035 C 478.356 0.170627 -2.32876 0
M  V30 5036 C 479.337 0.903748 -1.44106 0
M  V30 5037 O 480.522 0.883206 -1.72954 0
M  V30 5038 C 477.652 1.19786 -3.25989 0
M  V30 5039 C 476.606 0.580875 -4.2404 0
M  V30 5040 C 475.932 1.71311 -5.06514 0
M  V30 5041 C 477.232 -0.468714 -5.20193 0
M  V30 5042 H 478.926 -0.544441 -2.94408 0
M  V30 5043 H 476.472 -0.263271 -1.41573 0
M  V30 5044 H 478.425 1.71884 -3.84752 0
M  V30 5045 H 477.149 1.94294 -2.62521 0
M  V30 5046 H 475.808 0.0811538 -3.6651 0
M  V30 5047 H 475.456 2.44736 -4.39447 0
M  V30 5048 H 475.156 1.30604 -5.72902 0
M  V30 5049 H 476.68 2.23725 -5.68137 0
M  V30 5050 H 478.094 -0.0336028 -5.7329 0
M  V30 5051 H 476.491 -0.794957 -5.94811 0
M  V30 5052 H 477.561 -1.36269 -4.65359 0
M  V30 5053 N 478.904 1.54736 -0.299062 0
M  V30 5054 C 479.851 2.23448 0.577899 0
M  V30 5055 C 480.821 1.21637 1.13109 0
M  V30 5056 O 482.006 1.50252 1.17597 0
M  V30 5057 C 479.146 2.9774 1.74484 0
M  V30 5058 C 478.259 4.1432 1.22323 0
M  V30 5059 C 477.394 4.76199 2.35388 0
M  V30 5060 C 476.433 5.84927 1.80351 0
M  V30 5061 N 475.57 6.4077 2.86982 0
M  V30 5062 H 480.41 2.97996 -0.0146545 0
M  V30 5063 H 477.947 1.47088 -0.0190013 0
M  V30 5064 H 479.905 3.39045 2.43114 0
M  V30 5065 H 478.535 2.25572 2.30905 0
M  V30 5066 H 477.587 3.7797 0.429249 0
M  V30 5067 H 478.899 4.92659 0.780309 0
M  V30 5068 H 478.053 5.20346 3.11969 0
M  V30 5069 H 476.792 3.97188 2.83006 0
M  V30 5070 H 475.797 5.40207 1.02259 0
M  V30 5071 H 477.022 6.65821 1.3364 0
M  V30 5072 H 474.968 5.64643 3.33938 0
M  V30 5073 H 474.885 7.1445 2.4718 0
M  V30 5074 H 476.153 6.89574 3.63466 0
M  V30 5075 N 480.382 0.0267497 1.57577 0
M  V30 5076 C 481.314 -0.984594 2.06974 0
M  V30 5077 C 482.327 -1.29032 0.992705 0
M  V30 5078 O 483.516 -1.25539 1.26895 0
M  V30 5079 C 480.616 -2.31262 2.47732 0
M  V30 5080 C 479.789 -2.1924 3.78487 0
M  V30 5081 C 478.848 -3.34956 4.05821 0
M  V30 5082 O 477.874 -3.11948 4.76106 0
M  V30 5083 N 479.076 -4.58672 3.55809 0
M  V30 5084 H 481.841 -0.563143 2.94362 0
M  V30 5085 H 479.402 -0.160061 1.61107 0
M  V30 5086 H 481.394 -3.07496 2.63112 0
M  V30 5087 H 479.964 -2.65056 1.65723 0
M  V30 5088 H 479.184 -1.27747 3.72927 0
M  V30 5089 H 480.472 -2.08409 4.64158 0
M  V30 5090 H 479.87 -4.8026 2.98942 0
M  V30 5091 H 478.427 -5.32083 3.76472 0
M  V30 5092 N 481.861 -1.55662 -0.24637 0
M  V30 5093 C 483.107 -1.77782 -0.975779 0
M  V30 5094 C 483.44 -0.592103 -1.84953 0
M  V30 5095 O 482.715 0.409588 -1.90138 0
M  V30 5096 C 482.998 -3.09788 -1.83584 0
M  V30 5097 C 482.851 -4.38764 -0.990241 0
M  V30 5098 C 484.17 -3.38029 -2.81823 0
M  V30 5099 H 481.289 -0.646789 -0.353317 0
M  V30 5100 H 483.931 -1.88398 -0.246248 0
M  V30 5101 H 482.081 -3.00869 -2.45784 0
M  V30 5102 H 483.753 -4.59675 -0.386897 0
M  V30 5103 H 481.996 -4.32798 -0.294626 0
M  V30 5104 H 482.667 -5.27514 -1.62584 0
M  V30 5105 H 485.143 -3.46915 -2.2976 0
M  V30 5106 H 484.019 -4.3161 -3.39122 0
M  V30 5107 H 484.28 -2.58968 -3.58313 0
M  V30 5108 N 483.339 0.512053 -1.4905 0
M  V30 5109 C 484.564 1.2959 -1.6193 0
M  V30 5110 C 484.989 1.85906 -0.286454 0
M  V30 5111 O 484.347 1.65312 0.744426 0
M  V30 5112 C 484.395 2.40987 -2.68249 0
M  V30 5113 O 483.499 3.44531 -2.26654 0
M  V30 5114 H 482.84 0.383053 -0.542371 0
M  V30 5115 H 485.37 0.614231 -1.95162 0
M  V30 5116 H 485.38 2.86913 -2.90078 0
M  V30 5117 H 484.055 1.99361 -3.65004 0
M  V30 5118 H 482.632 3.046 -2.15112 0
M  V30 5119 N 484.817 1.37938 0.762283 0
M  V30 5120 C 485.727 1.36681 1.90671 0
M  V30 5121 C 486.743 0.265078 1.71969 0
M  V30 5122 O 487.919 0.502055 1.95042 0
M  V30 5123 C 484.984 1.18211 3.25925 0
M  V30 5124 C 484.045 2.3811 3.57214 0
M  V30 5125 C 483.278 2.20512 4.86014 0
M  V30 5126 O 483.501 1.19429 5.57757 0
M  V30 5127 O 482.435 3.08911 5.16583 0
M  V30 5128 H 486.261 2.33091 1.94685 0
M  V30 5129 H 483.846 1.18767 0.906356 0
M  V30 5130 H 485.728 1.09937 4.06807 0
M  V30 5131 H 484.403 0.248807 3.22742 0
M  V30 5132 H 483.31 2.51958 2.76529 0
M  V30 5133 H 484.643 3.30041 3.65149 0
M  V30 5134 N 486.295 -0.989507 1.22664 0
M  V30 5135 C 487.711 -1.25395 0.987331 0
M  V30 5136 C 487.911 -1.9899 -0.317056 0
M  V30 5137 O 486.967 -2.30141 -1.03882 0
M  V30 5138 C 488.28 -2.06242 2.18826 0
M  V30 5139 C 489.828 -2.19413 2.23219 0
M  V30 5140 C 490.303 -3.03648 3.42873 0
M  V30 5141 N 491.794 -3.11234 3.43056 0
M  V30 5142 C 492.529 -3.7671 4.32293 0
M  V30 5143 N 492.025 -4.44085 5.31752 0
M  V30 5144 N 493.818 -3.73505 4.2006 0
M  V30 5145 H 485.969 -0.496212 2.06522 0
M  V30 5146 H 488.232 -0.281784 0.905153 0
M  V30 5147 H 487.938 -1.59531 3.13437 0
M  V30 5148 H 487.812 -3.06996 2.19165 0
M  V30 5149 H 490.199 -2.65336 1.29154 0
M  V30 5150 H 490.28 -1.18078 2.26917 0
M  V30 5151 H 489.924 -2.58424 4.37241 0
M  V30 5152 H 489.854 -4.05132 3.36416 0
M  V30 5153 H 492.345 -2.63287 2.71088 0
M  V30 5154 H 492.658 -4.91797 5.96117 0
M  V30 5155 H 491.003 -4.42822 5.35662 0
M  V30 5156 H 494.194 -3.20033 3.41609 0
M  V30 5157 H 494.367 -4.24253 4.8981 0
M  V30 5158 N 487.773 -1.03688 -1.18687 0
M  V30 5159 C 489.189 -0.755413 -1.4059 0
M  V30 5160 C 489.389 0.656659 -1.905 0
M  V30 5161 O 488.445 1.42144 -2.08689 0
M  V30 5162 C 489.758 -1.7983 -2.41001 0
M  V30 5163 C 491.306 -1.81877 -2.54735 0
M  V30 5164 C 491.781 -2.85148 -3.58406 0
M  V30 5165 N 493.272 -2.84015 -3.6591 0
M  V30 5166 C 494.007 -3.60573 -4.45841 0
M  V30 5167 N 493.503 -4.46871 -5.29413 0
M  V30 5168 N 495.296 -3.49079 -4.40568 0
M  V30 5169 H 487.447 -1.94818 -0.846148 0
M  V30 5170 H 489.71 -0.842727 -0.434184 0
M  V30 5171 H 489.416 -2.81097 -2.1137 0
M  V30 5172 H 489.29 -1.62727 -3.40294 0
M  V30 5173 H 491.677 -0.812836 -2.83685 0
M  V30 5174 H 491.758 -2.03057 -1.55568 0
M  V30 5175 H 491.402 -3.85918 -3.30197 0
M  V30 5176 H 491.332 -2.61224 -4.57241 0
M  V30 5177 H 493.823 -2.21431 -3.0623 0
M  V30 5178 H 494.136 -5.02007 -5.87545 0
M  V30 5179 H 492.481 -4.5094 -5.28846 0
M  V30 5180 H 495.672 -2.81066 -3.74325 0
M  V30 5181 H 495.845 -4.08994 -5.02621 0
M  V30 5182 N 489.251 1.34841 -0.815825 0
M  V30 5183 C 490.181 2.32187 -0.247298 0
M  V30 5184 C 491.162 1.5791 0.632344 0
M  V30 5185 O 492.347 1.8593 0.560698 0
M  V30 5186 C 489.477 3.42122 0.597466 0
M  V30 5187 C 488.431 4.27602 -0.184446 0
M  V30 5188 C 487.757 5.28942 0.782609 0
M  V30 5189 C 489.057 5.03502 -1.38865 0
M  V30 5190 H 490.751 2.79985 -1.06061 0
M  V30 5191 H 488.297 1.34611 -0.511461 0
M  V30 5192 H 490.25 4.09232 1.00533 0
M  V30 5193 H 488.974 2.92956 1.44376 0
M  V30 5194 H 487.633 3.62085 -0.573592 0
M  V30 5195 H 487.281 4.7604 1.62466 0
M  V30 5196 H 486.981 5.87008 0.263695 0
M  V30 5197 H 488.505 5.98922 1.18848 0
M  V30 5198 H 489.919 5.63506 -1.05518 0
M  V30 5199 H 488.316 5.71108 -1.8427 0
M  V30 5200 H 489.386 4.33608 -2.17054 0
M  V30 5201 N 490.729 0.570148 1.46925 0
M  V30 5202 C 492.145 0.23087 1.57921 0
M  V30 5203 C 492.345 -1.26676 1.56702 0
M  V30 5204 O 491.401 -2.04774 1.47729 0
M  V30 5205 C 492.714 0.868973 2.8787 0
M  V30 5206 C 494.262 0.841397 3.01479 0
M  V30 5207 C 494.737 1.45881 4.34146 0
M  V30 5208 N 496.228 1.42258 4.40814 0
M  V30 5209 C 496.963 1.8698 5.42057 0
M  V30 5210 N 496.459 2.39618 6.50042 0
M  V30 5211 N 498.252 1.77972 5.33181 0
M  V30 5212 H 490.403 1.54301 1.45962 0
M  V30 5213 H 492.666 0.644224 0.69547 0
M  V30 5214 H 492.372 1.922 2.94537 0
M  V30 5215 H 492.246 0.369682 3.75384 0
M  V30 5216 H 494.633 -0.202973 2.94401 0
M  V30 5217 H 494.714 1.37858 2.15474 0
M  V30 5218 H 494.358 2.50231 4.4198 0
M  V30 5219 H 494.288 0.896958 5.18905 0
M  V30 5220 H 496.779 1.03768 3.63374 0
M  V30 5221 H 497.092 2.71633 7.23488 0
M  V30 5222 H 495.437 2.43636 6.50897 0
M  V30 5223 H 498.628 1.36617 4.4772 0
M  V30 5224 H 498.801 2.13143 6.11943 0
M  V30 5225 N 492.207 -1.54576 0.307264 0
M  V30 5226 C 493.618 -1.8579 -0.184121 0
M  V30 5227 C 493.969 -1.22914 -1.52927 0
M  V30 5228 O 493.094 -0.529126 -2.09831 0
M  V30 5229 C 493.689 -3.37081 -0.340862 0
M  V30 5230 C 492.248 -3.68304 -0.776465 0
M  V30 5231 C 491.395 -2.77076 0.111503 0
M  V30 5232 H 494.346 -1.49656 0.528078 0
M  V30 5233 H 494.367 -3.61922 -1.17443 0
M  V30 5234 H 493.879 -3.82815 0.638309 0
M  V30 5235 H 491.98 -3.28092 -1.76596 0
M  V30 5236 H 492.093 -4.75434 -0.591512 0
M  V30 5237 H 490.457 -2.51374 -0.410256 0
M  V30 5238 H 491.24 -3.25632 1.08714 0
M  V30 5239 N 493.685 -0.035106 -1.57561 0
M  V30 5240 C 494.615 0.942993 -2.13612 0
M  V30 5241 C 495.596 1.33531 -1.05373 0
M  V30 5242 O 496.781 1.41287 -1.33235 0
M  V30 5243 C 493.911 2.22332 -2.66807 0
M  V30 5244 C 492.865 1.97156 -3.79886 0
M  V30 5245 C 492.191 3.31506 -4.19533 0
M  V30 5246 C 493.491 1.30596 -5.05709 0
M  V30 5247 H 495.185 0.476179 -2.95589 0
M  V30 5248 H 492.731 0.227602 -1.4219 0
M  V30 5249 H 494.684 2.91142 -3.04654 0
M  V30 5250 H 493.408 2.7119 -1.81999 0
M  V30 5251 H 492.067 1.30763 -3.42486 0
M  V30 5252 H 491.715 3.78134 -3.31698 0
M  V30 5253 H 491.415 3.15465 -4.95738 0
M  V30 5254 H 492.939 4.01574 -4.59968 0
M  V30 5255 H 494.353 1.89416 -5.41105 0
M  V30 5256 H 492.75 1.24934 -5.86951 0
M  V30 5257 H 493.82 0.279742 -4.84092 0
M  V30 5258 N 495.163 1.55791 0.238111 0
M  V30 5259 C 496.574 1.68383 0.806472 0
M  V30 5260 C 496.925 0.634157 1.85669 0
M  V30 5261 O 496.05 -0.217913 2.153 0
M  V30 5262 C 496.645 3.05268 1.46959 0
M  V30 5263 C 495.204 3.1977 1.98555 0
M  V30 5264 C 494.351 2.64279 0.839763 0
M  V30 5265 H 497.302 1.58694 0.0137535 0
M  V30 5266 H 497.323 3.00203 2.33792 0
M  V30 5267 H 496.835 3.81643 0.704993 0
M  V30 5268 H 494.936 2.48234 2.77868 0
M  V30 5269 H 495.049 4.26788 2.17689 0
M  V30 5270 H 493.413 2.22329 1.24265 0
M  V30 5271 H 494.196 3.43187 0.0881032 0
M  V30 5272 N 496.642 -0.504142 1.49319 0
M  V30 5273 C 498.053 -1.08572 1.51885 0
M  V30 5274 C 498.404 -1.93842 0.303255 0
M  V30 5275 O 497.529 -2.0828 -0.58724 0
M  V30 5276 C 498.124 -1.97574 2.75227 0
M  V30 5277 C 496.683 -2.509 2.80581 0
M  V30 5278 C 495.83 -1.28447 2.45757 0
M  V30 5279 H 498.781 -0.288194 1.56061 0
M  V30 5280 H 498.802 -2.82219 2.55211 0
M  V30 5281 H 498.314 -1.35486 3.63683 0
M  V30 5282 H 496.415 -3.16636 1.96398 0
M  V30 5283 H 496.528 -2.88268 3.82673 0
M  V30 5284 H 494.892 -1.60868 1.97468 0
M  V30 5285 H 495.675 -0.68072 3.36483 0
M  V30 5286 N 498.12 -1.38341 -0.754957 0
M  V30 5287 C 499.067 -1.3546 -1.86867 0
M  V30 5288 C 500.037 -0.217369 -1.64672 0
M  V30 5289 O 501.222 -0.409383 -1.86356 0
M  V30 5290 C 498.362 -1.18413 -3.24149 0
M  V30 5291 C 497.475 -2.41511 -3.58185 0
M  V30 5292 C 496.61 -2.17205 -4.84763 0
M  V30 5293 C 495.649 -3.36081 -5.11582 0
M  V30 5294 N 494.786 -3.11219 -6.29354 0
M  V30 5295 H 499.626 -2.30672 -1.88664 0
M  V30 5296 H 497.163 -1.14607 -0.922154 0
M  V30 5297 H 499.121 -1.06545 -4.03366 0
M  V30 5298 H 497.751 -0.268397 -3.21682 0
M  V30 5299 H 496.803 -2.64056 -2.73822 0
M  V30 5300 H 498.115 -3.30115 -3.73932 0
M  V30 5301 H 497.269 -2.02465 -5.7192 0
M  V30 5302 H 496.008 -1.25964 -4.71152 0
M  V30 5303 H 495.013 -3.51341 -4.22894 0
M  V30 5304 H 496.238 -4.28196 -5.27091 0
M  V30 5305 H 494.184 -2.22624 -6.17069 0
M  V30 5306 H 494.101 -3.93373 -6.45596 0
M  V30 5307 H 495.369 -3.00132 -7.19403 0
M  V30 5308 N 499.598 0.982988 -1.23187 0
M  V30 5309 C 500.53 2.07729 -0.968572 0
M  V30 5310 C 501.543 1.62702 0.0564821 0
M  V30 5311 O 502.732 1.77603 -0.178733 0
M  V30 5312 C 499.832 3.36071 -0.436974 0
M  V30 5313 C 499.005 4.10081 -1.52159 0
M  V30 5314 C 498.064 5.16701 -0.99532 0
M  V30 5315 O 497.09 5.43727 -1.68373 0
M  V30 5316 N 498.292 5.80226 0.178192 0
M  V30 5317 H 501.057 2.30894 -1.9107 0
M  V30 5318 H 498.618 1.14949 -1.1401 0
M  V30 5319 H 500.61 4.04639 -0.0700051 0
M  V30 5320 H 499.18 3.09893 0.410509 0
M  V30 5321 H 498.4 3.36004 -2.06144 0
M  V30 5322 H 499.688 4.56295 -2.25105 0
M  V30 5323 H 499.086 5.60651 0.754096 0
M  V30 5324 H 497.643 6.49982 0.486449 0
M  V30 5325 N 501.076 1.04316 1.18135 0
M  V30 5326 C 502.492 0.762858 1.40188 0
M  V30 5327 C 502.692 -0.646547 1.90846 0
M  V30 5328 O 501.748 -1.41036 2.0944 0
M  V30 5329 C 503.061 1.81106 2.40044 0
M  V30 5330 C 504.609 1.83226 2.53766 0
M  V30 5331 C 505.084 2.87044 3.56889 0
M  V30 5332 N 506.575 2.85951 3.64398 0
M  V30 5333 C 507.31 3.62932 4.43923 0
M  V30 5334 N 506.806 4.49672 5.27036 0
M  V30 5335 N 508.599 3.51411 4.38711 0
M  V30 5336 H 500.75 1.95264 0.835805 0
M  V30 5337 H 503.013 0.845017 0.429709 0
M  V30 5338 H 502.719 2.82214 2.09876 0
M  V30 5339 H 502.593 1.64529 3.39426 0
M  V30 5340 H 504.98 0.827869 2.8325 0
M  V30 5341 H 505.061 2.03879 1.54489 0
M  V30 5342 H 504.705 3.87663 3.28145 0
M  V30 5343 H 504.635 2.63645 4.5585 0
M  V30 5344 H 507.126 2.23051 3.05052 0
M  V30 5345 H 507.439 5.05116 5.84874 0
M  V30 5346 H 505.784 4.53738 5.26447 0
M  V30 5347 H 508.975 2.83047 3.72829 0
M  V30 5348 H 509.148 4.11654 5.00445 0
M  V30 5349 N 502.554 -1.34406 0.822964 0
M  V30 5350 C 503.779 -2.0304 0.423034 0
M  V30 5351 C 504.204 -1.61568 -0.963196 0
M  V30 5352 O 503.562 -0.800339 -1.62678 0
M  V30 5353 C 503.61 -3.56636 0.53321 0
M  V30 5354 O 502.714 -4.09971 -0.446939 0
M  V30 5355 H 502.055 -0.64075 0.174171 0
M  V30 5356 H 504.585 -1.71653 1.11339 0
M  V30 5357 H 504.595 -4.05945 0.408991 0
M  V30 5358 H 503.27 -3.86168 1.54425 0
M  V30 5359 H 501.847 -3.71835 -0.281601 0
M  V30 5360 N 504.032 -0.577932 -1.46621 0
M  V30 5361 C 504.962 0.145917 -2.33044 0
M  V30 5362 C 505.943 0.888412 -1.45056 0
M  V30 5363 O 507.128 0.864812 -1.73881 0
M  V30 5364 C 504.258 1.16322 -3.27241 0
M  V30 5365 C 503.212 0.535868 -4.24632 0
M  V30 5366 C 502.538 1.65929 -5.08303 0
M  V30 5367 C 503.838 -0.523861 -5.19666 0
M  V30 5368 H 505.532 -0.575636 -2.93814 0
M  V30 5369 H 503.078 -0.278272 -1.41286 0
M  V30 5370 H 505.031 1.67793 -3.86553 0
M  V30 5371 H 503.755 1.91498 -2.64567 0
M  V30 5372 H 502.414 0.0422759 -3.66576 0
M  V30 5373 H 502.062 2.40061 -4.42018 0
M  V30 5374 H 501.762 1.2452 -5.74255 0
M  V30 5375 H 503.286 2.17686 -5.70478 0
M  V30 5376 H 504.7 -0.0944059 -5.73222 0
M  V30 5377 H 503.097 -0.858 -5.93935 0
M  V30 5378 H 504.167 -1.41197 -4.63887 0
M  V30 5379 N 505.51 1.54411 -0.315457 0
M  V30 5380 C 506.46 2.20772 0.569549 0
M  V30 5381 C 507.444 1.18551 1.08787 0
M  V30 5382 O 508.636 1.44213 1.02624 0
M  V30 5383 C 505.765 2.96293 1.73394 0
M  V30 5384 C 504.851 4.05844 1.2309 0
M  V30 5385 N 505.242 5.03822 0.446927 0
M  V30 5386 C 503.54 4.19648 1.51035 0
M  V30 5387 C 504.241 5.8143 0.17725 0
M  V30 5388 N 503.217 5.38245 0.761118 0
M  V30 5389 H 507.019 2.93877 -0.0368076 0
M  V30 5390 H 504.533 1.61949 -0.120915 0
M  V30 5391 H 506.53 3.42313 2.37965 0
M  V30 5392 H 505.19 2.24708 2.34386 0
M  V30 5393 H 506.201 5.17821 0.0905027 0
M  V30 5394 H 502.878 3.59274 2.1267 0
M  V30 5395 H 504.268 6.70369 -0.45335 0
M  V30 5396 N 506.988 0.0434614 1.5754 0
M  V30 5397 C 507.898 -0.94893 2.14552 0
M  V30 5398 C 508.914 -1.34707 1.10136 0
M  V30 5399 O 510.09 -1.42557 1.42266 0
M  V30 5400 C 507.155 -2.208 2.67298 0
M  V30 5401 C 506.216 -1.86893 3.86484 0
M  V30 5402 C 505.449 -3.06797 4.36705 0
M  V30 5403 O 505.672 -4.19921 3.86034 0
M  V30 5404 O 504.606 -2.8826 5.28384 0
M  V30 5405 H 508.432 -0.494099 2.99654 0
M  V30 5406 H 506.017 -0.177989 1.48336 0
M  V30 5407 H 507.899 -2.94686 3.01228 0
M  V30 5408 H 506.574 -2.65436 1.85272 0
M  V30 5409 H 505.481 -1.10347 3.57455 0
M  V30 5410 H 506.814 -1.47062 4.69716 0
M  V30 5411 N 508.466 -1.55915 -0.229846 0
M  V30 5412 C 509.413 -1.91734 -1.28478 0
M  V30 5413 C 510.383 -0.773539 -1.46988 0
M  V30 5414 O 511.568 -1.02871 -1.60693 0
M  V30 5415 C 508.708 -2.23224 -2.63182 0
M  V30 5416 C 507.821 -3.50497 -2.52539 0
M  V30 5417 C 506.956 -3.71474 -3.79711 0
M  V30 5418 C 505.995 -4.92289 -3.63755 0
M  V30 5419 N 505.132 -5.09698 -4.82858 0
M  V30 5420 H 509.972 -2.81692 -0.972308 0
M  V30 5421 H 507.509 -1.39429 -0.468815 0
M  V30 5422 H 509.467 -2.3949 -3.41614 0
M  V30 5423 H 508.097 -1.36451 -2.92542 0
M  V30 5424 H 507.149 -3.4247 -1.65585 0
M  V30 5425 H 508.461 -4.39079 -2.36666 0
M  V30 5426 H 507.615 -3.87791 -4.66586 0
M  V30 5427 H 506.354 -2.81157 -3.985 0
M  V30 5428 H 505.359 -4.7593 -2.75264 0
M  V30 5429 H 506.584 -5.84083 -3.46445 0
M  V30 5430 H 504.53 -4.22322 -5.01976 0
M  V30 5431 H 504.447 -5.92399 -4.69681 0
M  V30 5432 H 505.715 -5.30443 -5.71183 0
M  V30 5433 N 509.944 0.496216 -1.49584 0
M  V30 5434 C 511.193 1.24668 -1.58558 0
M  V30 5435 C 511.506 1.9359 -0.279703 0
M  V30 5436 O 512.712 2.70365 -0.248048 0
M  V30 5437 C 511.168 2.26388 -2.79779 0
M  V30 5438 C 510.776 1.63384 -4.17145 0
M  V30 5439 C 512.52 3.02233 -2.98086 0
M  V30 5440 C 510.427 2.63243 -5.29582 0
M  V30 5441 H 509.357 0.468995 -0.590389 0
M  V30 5442 H 512.008 0.519985 -1.75978 0
M  V30 5443 H 510.39 3.02241 -2.55863 0
M  V30 5444 H 511.564 0.93491 -4.51216 0
M  V30 5445 H 509.879 0.999121 -4.04236 0
M  V30 5446 H 512.476 3.76919 -3.79257 0
M  V30 5447 H 512.819 3.60132 -2.08831 0
M  V30 5448 H 513.352 2.33495 -3.22063 0
M  V30 5449 H 510.091 2.10119 -6.20911 0
M  V30 5450 H 509.611 3.31363 -4.99959 0
M  V30 5451 H 511.29 3.25575 -5.59115 0
M  V30 5452 N 511.423 1.38739 0.74761 0
M  V30 5453 C 512.353 1.39173 1.87492 0
M  V30 5454 C 513.334 0.256794 1.6815 0
M  V30 5455 O 514.519 0.460762 1.88655 0
M  V30 5456 C 511.649 1.22197 3.25093 0
M  V30 5457 C 510.603 2.32957 3.59047 0
M  V30 5458 C 509.929 2.01082 4.95449 0
M  V30 5459 C 511.229 3.75237 3.6331 0
M  V30 5460 H 512.923 2.3351 1.87386 0
M  V30 5461 H 510.469 1.12399 0.900134 0
M  V30 5462 H 512.422 1.21124 4.03617 0
M  V30 5463 H 511.146 0.243241 3.25693 0
M  V30 5464 H 509.805 2.33226 2.82845 0
M  V30 5465 H 509.453 1.01678 4.92616 0
M  V30 5466 H 509.153 2.75267 5.19136 0
M  V30 5467 H 510.677 2.01638 5.76346 0
M  V30 5468 H 512.091 3.76966 4.31937 0
M  V30 5469 H 510.488 4.48677 3.98509 0
M  V30 5470 H 511.558 4.07122 2.634 0
M  V30 5471 N 512.901 -0.976442 1.23707 0
M  V30 5472 C 513.811 -2.10359 1.03856 0
M  V30 5473 C 514.827 -1.73991 -0.0180919 0
M  V30 5474 O 516.003 -2.0061 0.178211 0
M  V30 5475 C 513.068 -3.40809 0.636387 0
M  V30 5476 C 512.129 -3.91179 1.76854 0
M  V30 5477 C 511.362 -5.15404 1.38546 0
M  V30 5478 O 511.585 -5.69754 0.27142 0
M  V30 5479 O 510.519 -5.5994 2.20797 0
M  V30 5480 H 514.345 -2.29997 1.98331 0
M  V30 5481 H 511.93 -1.08742 1.02448 0
M  V30 5482 H 513.812 -4.19269 0.423223 0
M  V30 5483 H 512.487 -3.22493 -0.279322 0
M  V30 5484 H 511.394 -3.13819 2.03638 0
M  V30 5485 H 512.727 -4.13958 2.6627 0
M  V30 5486 N 514.379 -1.04941 -1.1758 0
M  V30 5487 C 515.289 -0.658826 -2.25159 0
M  V30 5488 C 516.305 0.318941 -1.71052 0
M  V30 5489 O 517.481 0.171669 -2.00667 0
M  V30 5490 C 514.546 -0.0369522 -3.4668 0
M  V30 5491 C 513.607 -1.06484 -4.15884 0
M  V30 5492 C 512.84 -0.472551 -5.31604 0
M  V30 5493 O 513.063 0.718736 -5.65854 0
M  V30 5494 O 511.997 -1.20557 -5.89703 0
M  V30 5495 H 515.823 -1.55533 -2.60851 0
M  V30 5496 H 513.408 -0.820819 -1.24832 0
M  V30 5497 H 515.29 0.308784 -4.20267 0
M  V30 5498 H 513.965 0.833238 -3.12792 0
M  V30 5499 H 512.872 -1.46253 -3.44327 0
M  V30 5500 H 514.205 -1.9061 -4.53794 0
M  V30 5501 N 515.857 1.33968 -0.830081 0
M  V30 5502 C 517.106 1.97323 -0.417928 0
M  V30 5503 C 517.419 1.6652 1.02618 0
M  V30 5504 O 518.625 2.2342 1.54259 0
M  V30 5505 C 517.081 3.53099 -0.696359 0
M  V30 5506 C 516.689 3.92788 -2.15457 0
M  V30 5507 C 518.433 4.23049 -0.350724 0
M  V30 5508 C 516.34 5.41506 -2.37751 0
M  V30 5509 H 515.27 0.738409 -0.152541 0
M  V30 5510 H 517.921 1.52711 -1.01744 0
M  V30 5511 H 516.303 3.95991 -0.0265904 0
M  V30 5512 H 517.477 3.6098 -2.86408 0
M  V30 5513 H 515.792 3.35795 -2.46232 0
M  V30 5514 H 518.389 5.32403 -0.495036 0
M  V30 5515 H 518.732 4.10279 0.705476 0
M  V30 5516 H 519.265 3.85657 -0.975362 0
M  V30 5517 H 516.004 5.5927 -3.41903 0
M  V30 5518 H 515.524 5.74804 -1.7135 0
M  V30 5519 H 517.203 6.0828 -2.20465 0
M  V30 5520 N 517.335 0.585699 1.46312 0
M  V30 5521 C 518.282 -0.145835 2.30339 0
M  V30 5522 C 519.252 -0.881215 1.40797 0
M  V30 5523 O 520.437 -0.871293 1.69744 0
M  V30 5524 C 517.577 -1.15161 3.25318 0
M  V30 5525 C 516.69 -0.419367 4.2996 0
M  V30 5526 C 515.825 -1.41293 5.12064 0
M  V30 5527 C 514.864 -0.667261 6.08452 0
M  V30 5528 N 514.001 -1.60903 6.83414 0
M  V30 5529 H 518.841 0.576755 2.92365 0
M  V30 5530 H 516.378 0.296237 1.44086 0
M  V30 5531 H 518.336 -1.74763 3.78832 0
M  V30 5532 H 516.966 -1.84188 2.65094 0
M  V30 5533 H 516.018 0.291751 3.7928 0
M  V30 5534 H 517.33 0.163433 4.98532 0
M  V30 5535 H 516.484 -2.08167 5.6987 0
M  V30 5536 H 515.223 -2.02966 4.43459 0
M  V30 5537 H 514.228 0.0152356 5.49798 0
M  V30 5538 H 515.453 -0.0558817 6.79077 0
M  V30 5539 H 513.399 -2.21381 6.17516 0
M  V30 5540 H 513.316 -1.07911 7.48259 0
M  V30 5541 H 514.584 -2.26802 7.45775 0
M  V30 5542 N 518.813 -1.54241 0.323641 0
M  V30 5543 C 519.745 -2.21836 -0.576311 0
M  V30 5544 C 520.758 -1.21837 -1.07979 0
M  V30 5545 O 521.947 -1.48306 -0.99336 0
M  V30 5546 C 519.047 -2.86923 -1.80356 0
M  V30 5547 C 518.22 -4.1306 -1.43875 0
M  V30 5548 C 517.279 -4.6174 -2.52353 0
M  V30 5549 O 516.305 -5.26421 -2.16494 0
M  V30 5550 N 517.507 -4.35974 -3.83284 0
M  V30 5551 H 520.272 -2.997 0.00247987 0
M  V30 5552 H 517.833 -1.61233 0.146848 0
M  V30 5553 H 519.825 -3.16414 -2.52318 0
M  V30 5554 H 518.395 -2.12765 -2.29019 0
M  V30 5555 H 517.615 -3.90334 -0.550752 0
M  V30 5556 H 518.903 -4.95148 -1.17071 0
M  V30 5557 H 518.301 -3.84203 -4.15216 0
M  V30 5558 H 516.858 -4.70119 -4.51477 0
M  V30 5559 N 520.291 -0.0518155 -1.57515 0
M  V30 5560 C 521.201 0.937539 -2.15052 0
M  V30 5561 C 522.217 1.34121 -1.10849 0
M  V30 5562 O 523.393 1.418 -1.4302 0
M  V30 5563 C 520.458 2.19379 -2.68466 0
M  V30 5564 C 519.519 1.84841 -3.87469 0
M  V30 5565 C 518.752 3.04477 -4.38326 0
M  V30 5566 O 518.975 4.17868 -3.88256 0
M  V30 5567 O 517.909 2.85453 -5.29906 0
M  V30 5568 H 521.735 0.478201 -2.99912 0
M  V30 5569 H 519.32 0.17012 -1.48428 0
M  V30 5570 H 521.202 2.93084 -3.02787 0
M  V30 5571 H 519.877 2.64449 -1.86677 0
M  V30 5572 H 518.784 1.08449 -3.58036 0
M  V30 5573 H 520.117 1.44569 -4.7049 0
M  V30 5574 N 521.769 1.56035 0.221574 0
M  V30 5575 C 523.185 1.49026 0.571271 0
M  V30 5576 C 523.385 0.746912 1.87146 0
M  V30 5577 O 522.441 0.286566 2.50869 0
M  V30 5578 C 523.754 2.93579 0.650522 0
M  V30 5579 C 525.302 3.04099 0.741151 0
M  V30 5580 C 525.777 4.5001 0.851747 0
M  V30 5581 N 527.268 4.54053 0.915968 0
M  V30 5582 C 528.003 5.64232 1.02125 0
M  V30 5583 N 527.499 6.84164 1.09049 0
M  V30 5584 N 529.292 5.52084 1.05639 0
M  V30 5585 H 521.443 2.02791 -0.63162 0
M  V30 5586 H 523.706 0.921736 -0.221602 0
M  V30 5587 H 523.412 3.50912 -0.235253 0
M  V30 5588 H 523.286 3.45476 1.51413 0
M  V30 5589 H 525.673 2.4683 1.61737 0
M  V30 5590 H 525.754 2.55371 -0.148128 0
M  V30 5591 H 525.398 5.07896 -0.0200117 0
M  V30 5592 H 525.328 4.96444 1.75644 0
M  V30 5593 H 527.819 3.67683 0.872782 0
M  V30 5594 H 528.132 7.63883 1.1706 0
M  V30 5595 H 526.477 6.86875 1.05962 0
M  V30 5596 H 529.668 4.57317 0.998953 0
M  V30 5597 H 529.841 6.37983 1.13498 0
M  V30 5598 N 523.247 -0.488276 1.49845 0
M  V30 5599 C 524.663 -0.820566 1.3689 0
M  V30 5600 C 524.863 -1.97248 0.411752 0
M  V30 5601 O 523.919 -2.52042 -0.151931 0
M  V30 5602 C 525.232 -1.1488 2.77891 0
M  V30 5603 C 526.78 -1.25626 2.86683 0
M  V30 5604 C 527.255 -1.61772 4.28479 0
M  V30 5605 N 528.746 -1.68797 4.31349 0
M  V30 5606 C 529.481 -1.98235 5.38043 0
M  V30 5607 N 528.977 -2.2581 6.54967 0
M  V30 5608 N 530.77 -1.99593 5.2547 0
M  V30 5609 H 522.921 0.271123 2.10662 0
M  V30 5610 H 525.184 0.058735 0.946179 0
M  V30 5611 H 524.89 -0.375614 3.49688 0
M  V30 5612 H 524.764 -2.08919 3.14058 0
M  V30 5613 H 527.151 -2.02014 2.15114 0
M  V30 5614 H 527.232 -0.296072 2.54081 0
M  V30 5615 H 526.876 -0.859295 5.00578 0
M  V30 5616 H 526.806 -2.58912 4.58554 0
M  V30 5617 H 529.297 -1.49595 3.4703 0
M  V30 5618 H 529.61 -2.47497 7.32096 0
M  V30 5619 H 527.955 -2.23239 6.58171 0
M  V30 5620 H 531.146 -1.77535 4.33127 0
M  V30 5621 H 531.319 -2.222 6.08713 0
M  V30 5622 N 524.725 -1.39134 -0.740242 0
M  V30 5623 C 525.655 -1.40165 -1.86751 0
M  V30 5624 C 526.636 -0.265708 -1.68012 0
M  V30 5625 O 527.821 -0.47076 -1.88408 0
M  V30 5626 C 524.951 -1.2392 -3.2444 0
M  V30 5627 C 523.905 -2.34858 -3.57807 0
M  V30 5628 C 523.231 -2.03707 -4.94376 0
M  V30 5629 C 524.531 -3.77159 -3.61315 0
M  V30 5630 H 526.225 -2.345 -1.86145 0
M  V30 5631 H 523.771 -1.12875 -0.89416 0
M  V30 5632 H 525.724 -1.23263 -4.02969 0
M  V30 5633 H 524.448 -0.26051 -3.25559 0
M  V30 5634 H 523.107 -2.34723 -2.81604 0
M  V30 5635 H 522.755 -1.04289 -4.9207 0
M  V30 5636 H 522.455 -2.78016 -5.17669 0
M  V30 5637 H 523.979 -2.04691 -5.75268 0
M  V30 5638 H 525.393 -3.79252 -4.29931 0
M  V30 5639 H 523.79 -4.50784 -3.96124 0
M  V30 5640 H 524.86 -4.08513 -2.61238 0
M  V30 5641 N 526.204 0.969867 -1.24223 0
M  V30 5642 C 527.62 1.23809 -1.00716 0
M  V30 5643 C 527.82 1.99469 0.285358 0
M  V30 5644 O 526.876 2.31764 1.00207 0
M  V30 5645 C 528.189 2.02734 -2.2208 0
M  V30 5646 C 529.737 2.15834 -2.26681 0
M  V30 5647 C 530.212 2.98154 -3.47661 0
M  V30 5648 N 531.703 3.05737 -3.47964 0
M  V30 5649 C 532.438 3.69785 -4.38231 0
M  V30 5650 N 531.934 4.35569 -5.3875 0
M  V30 5651 N 533.727 3.66775 -4.25949 0
M  V30 5652 H 525.878 0.463294 -2.07286 0
M  V30 5653 H 528.141 0.267348 -0.909521 0
M  V30 5654 H 527.847 1.54524 -3.15935 0
M  V30 5655 H 527.721 3.0347 -2.24021 0
M  V30 5656 H 530.108 2.63248 -1.33359 0
M  V30 5657 H 530.189 1.14453 -2.28767 0
M  V30 5658 H 529.833 2.51435 -4.41297 0
M  V30 5659 H 529.763 3.99729 -3.42818 0
M  V30 5660 H 532.254 2.58941 -2.75242 0
M  V30 5661 H 532.567 4.82251 -6.03866 0
M  V30 5662 H 530.912 4.34244 -5.42639 0
M  V30 5663 H 534.103 3.14558 -3.46657 0
M  V30 5664 H 534.276 4.16407 -4.96497 0
M  V30 5665 N 527.682 1.05563 1.17022 0
M  V30 5666 C 529.093 0.793475 1.69 0
M  V30 5667 C 529.444 -0.683882 1.83895 0
M  V30 5668 O 528.569 -1.53116 1.5292 0
M  V30 5669 C 529.164 1.43376 3.06967 0
M  V30 5670 C 527.723 1.21956 3.56095 0
M  V30 5671 C 526.87 1.51494 2.3226 0
M  V30 5672 H 529.821 1.22008 1.01487 0
M  V30 5673 H 529.842 0.845068 3.70997 0
M  V30 5674 H 529.354 2.50899 2.96093 0
M  V30 5675 H 527.455 0.163749 3.7224 0
M  V30 5676 H 527.568 1.92713 4.38633 0
M  V30 5677 H 525.932 0.935175 2.3691 0
M  V30 5678 H 526.715 2.60159 2.23992 0
M  V30 5679 N 529.16 -1.33526 0.837174 0
M  V30 5680 C 530.406 -1.9813 0.432704 0
M  V30 5681 C 530.739 -1.66168 -1.00508 0
M  V30 5682 O 530.014 -0.94069 -1.70239 0
M  V30 5683 C 530.297 -3.54151 0.651834 0
M  V30 5684 C 530.15 -3.95806 2.13676 0
M  V30 5685 C 531.469 -4.39993 0.0968937 0
M  V30 5686 H 528.588 -0.719713 0.15869 0
M  V30 5687 H 531.23 -1.58193 1.05237 0
M  V30 5688 H 529.38 -3.88301 0.124369 0
M  V30 5689 H 531.052 -3.71921 2.72896 0
M  V30 5690 H 529.295 -3.45599 2.62191 0
M  V30 5691 H 529.966 -5.0447 2.24084 0
M  V30 5692 H 532.442 -4.12479 0.547733 0
M  V30 5693 H 531.318 -5.48186 0.279917 0
M  V30 5694 H 531.579 -4.3066 -0.9992 0
M  V30 5695 N 530.638 -0.59345 -1.46 0
M  V30 5696 C 532.054 -0.255965 -1.57534 0
M  V30 5697 C 532.254 1.24167 -1.58697 0
M  V30 5698 O 531.31 2.02398 -1.50968 0
M  V30 5699 C 532.623 -0.91466 -2.86451 0
M  V30 5700 C 534.171 -0.889253 -3.00102 0
M  V30 5701 C 534.646 -1.52769 -4.3177 0
M  V30 5702 N 536.137 -1.49253 -4.38495 0
M  V30 5703 C 536.872 -1.9558 -5.39014 0
M  V30 5704 N 536.368 -2.49929 -6.46148 0
M  V30 5705 N 538.161 -1.86432 -5.30282 0
M  V30 5706 H 530.312 -1.56604 -1.43489 0
M  V30 5707 H 532.575 -0.655207 -0.685133 0
M  V30 5708 H 532.281 -1.96861 -2.91442 0
M  V30 5709 H 532.155 -0.429356 -3.74748 0
M  V30 5710 H 534.542 0.156111 -2.94687 0
M  V30 5711 H 534.623 -1.41268 -2.13253 0
M  V30 5712 H 534.267 -2.57231 -4.37944 0
M  V30 5713 H 534.197 -0.979398 -5.17412 0
M  V30 5714 H 536.688 -1.09536 -3.61677 0
M  V30 5715 H 537.001 -2.83109 -7.19075 0
M  V30 5716 H 535.346 -2.53961 -6.46938 0
M  V30 5717 H 538.537 -1.43722 -4.4549 0
M  V30 5718 H 538.71 -2.22852 -6.08474 0
M  V30 5719 N 532.116 1.54067 -0.331816 0
M  V30 5720 C 533.364 2.00319 0.267739 0
M  V30 5721 C 533.685 1.22148 1.52003 0
M  V30 5722 O 532.955 0.325494 1.93177 0
M  V30 5723 H 531.535 0.740014 0.101922 0
M  V30 5724 H 534.197 1.89628 -0.450267 0
M  V30 5725 H 533.293 3.07765 0.518385 0
M  V30 5726 N 533.594 0.0601682 1.57485 0
M  V30 5727 C 534.504 -0.926121 2.15546 0
M  V30 5728 C 535.52 -1.33532 1.11558 0
M  V30 5729 O 536.696 -1.4104 1.4377 0
M  V30 5730 C 533.761 -2.17952 2.69625 0
M  V30 5731 C 532.822 -1.82783 3.88444 0
M  V30 5732 C 532.055 -3.02148 4.39935 0
M  V30 5733 O 532.278 -4.15803 3.90466 0
M  V30 5734 O 531.212 -2.82639 5.31412 0
M  V30 5735 H 535.038 -0.462289 3.00161 0
M  V30 5736 H 532.623 -0.162246 1.48516 0
M  V30 5737 H 534.505 -2.91474 3.04337 0
M  V30 5738 H 533.18 -2.63456 1.88077 0
M  V30 5739 H 532.087 -1.06549 3.58606 0
M  V30 5740 H 533.42 -1.42072 4.7125 0
M  V30 5741 N 535.072 -1.5615 -0.213296 0
M  V30 5742 C 536.32 -1.79191 -0.934612 0
M  V30 5743 C 536.641 -0.630112 -1.84539 0
M  V30 5744 O 535.911 0.35257 -1.92701 0
M  V30 5745 H 534.491 -0.660937 -0.348097 0
M  V30 5746 H 537.153 -1.93618 -0.22317 0
M  V30 5747 H 536.249 -2.71656 -1.53654 0
M  V30 5748 N 536.55 0.480323 -1.50102 0
M  V30 5749 C 537.796 1.23208 -1.61837 0
M  V30 5750 C 538.151 1.89878 -0.310509 0
M  V30 5751 O 537.444 1.7871 0.690897 0
M  V30 5752 C 537.638 2.30708 -2.72963 0
M  V30 5753 C 537.467 1.74583 -4.14428 0
M  V30 5754 C 536.237 1.54964 -4.80951 0
M  V30 5755 C 538.435 1.24597 -4.98979 0
M  V30 5756 N 536.417 0.939855 -6.06663 0
M  V30 5757 C 537.788 0.758834 -6.15339 0
M  V30 5758 C 539.843 1.13365 -4.84822 0
M  V30 5759 C 538.546 0.17046 -7.19098 0
M  V30 5760 C 540.572 0.559221 -5.8875 0
M  V30 5761 C 539.934 0.082415 -7.04352 0
M  V30 5762 H 536.033 0.440065 -0.646426 0
M  V30 5763 H 538.617 0.535632 -1.87187 0
M  V30 5764 H 536.788 2.9779 -2.4935 0
M  V30 5765 H 538.52 2.97738 -2.74106 0
M  V30 5766 H 535.275 1.79926 -4.38091 0
M  V30 5767 H 535.699 0.653641 -6.73837 0
M  V30 5768 H 540.341 1.48823 -3.95742 0
M  V30 5769 H 538.059 -0.196347 -8.07861 0
M  V30 5770 H 541.645 0.474804 -5.79859 0
M  V30 5771 H 540.525 -0.355119 -7.83396 0
M  V30 5772 N 538.028 1.39524 0.732853 0
M  V30 5773 C 538.991 1.38189 1.82857 0
M  V30 5774 C 539.991 0.278624 1.58368 0
M  V30 5775 O 541.181 0.536639 1.65728 0
M  V30 5776 C 538.313 1.15661 3.2068 0
M  V30 5777 H 539.506 2.35692 1.85444 0
M  V30 5778 H 537.059 1.2512 0.936728 0
M  V30 5779 H 537.794 0.188482 3.23752 0
M  V30 5780 H 537.579 1.95559 3.39852 0
M  V30 5781 H 539.069 1.17472 4.00737 0
M  V30 5782 N 539.506 -0.963266 1.24736 0
M  V30 5783 C 540.469 -2.04013 1.04457 0
M  V30 5784 C 541.469 -1.608 0.000335555 0
M  V30 5785 O 542.659 -1.72515 0.241719 0
M  V30 5786 C 539.791 -3.35858 0.584162 0
M  V30 5787 H 540.984 -2.23436 2.00041 0
M  V30 5788 H 538.537 -1.13914 1.07021 0
M  V30 5789 H 539.272 -3.22128 -0.374673 0
M  V30 5790 H 539.057 -3.68568 1.3379 0
M  V30 5791 H 540.547 -4.1502 0.463451 0
M  V30 5792 N 540.985 -1.06182 -1.16461 0
M  V30 5793 C 542.401 -0.785065 -1.38956 0
M  V30 5794 C 542.601 0.616103 -1.9185 0
M  V30 5795 O 541.657 1.37686 -2.11657 0
M  V30 5796 C 542.97 -1.84902 -2.37132 0
M  V30 5797 C 544.518 -1.8724 -2.50819 0
M  V30 5798 C 544.993 -2.92686 -3.52277 0
M  V30 5799 N 546.484 -2.91712 -3.59803 0
M  V30 5800 C 547.219 -3.69949 -4.38093 0
M  V30 5801 N 546.715 -4.58 -5.19815 0
M  V30 5802 N 548.508 -3.58346 -4.33064 0
M  V30 5803 H 540.659 -1.96569 -0.804634 0
M  V30 5804 H 542.922 -0.851747 -0.416211 0
M  V30 5805 H 542.628 -2.85518 -2.0536 0
M  V30 5806 H 542.502 -1.69908 -3.36766 0
M  V30 5807 H 544.889 -0.872827 -2.81897 0
M  V30 5808 H 544.97 -2.06311 -1.51226 0
M  V30 5809 H 544.614 -3.92835 -3.21937 0
M  V30 5810 H 544.544 -2.70864 -4.51598 0
M  V30 5811 H 547.035 -2.27876 -3.01464 0
M  V30 5812 H 547.348 -5.14357 -5.76764 0
M  V30 5813 H 545.693 -4.62056 -5.19162 0
M  V30 5814 H 548.884 -2.88943 -3.68279 0
M  V30 5815 H 549.057 -4.19563 -4.93833 0
M  V30 5816 N 542.463 1.3308 -0.844243 0
M  V30 5817 C 543.711 1.97215 -0.441676 0
M  V30 5818 C 544.032 1.67185 1.0037 0
M  V30 5819 O 543.302 0.973588 1.69994 0
M  V30 5820 H 541.882 0.72959 -0.160335 0
M  V30 5821 H 544.544 1.62348 -1.07838 0
M  V30 5822 H 543.64 3.06698 -0.57815 0
M  V30 5823 N 543.941 0.601185 1.45683 0
M  V30 5824 C 545.188 0.0938811 2.02282 0
M  V30 5825 C 545.516 -1.27315 1.47041 0
M  V30 5826 O 544.771 -1.85193 0.632623 0
M  V30 5827 C 545.07 -0.00222425 3.574 0
M  V30 5828 C 544.736 1.29963 4.31764 0
M  V30 5829 C 543.398 1.65625 4.51798 0
M  V30 5830 C 545.75 2.1603 4.74321 0
M  V30 5831 C 543.078 2.87119 5.11644 0
M  V30 5832 C 545.43 3.36766 5.3551 0
M  V30 5833 C 544.094 3.72689 5.53768 0
M  V30 5834 H 543.364 0.0343535 0.740203 0
M  V30 5835 H 546.011 0.781522 1.74827 0
M  V30 5836 H 544.316 -0.773096 3.84097 0
M  V30 5837 H 546.013 -0.410794 3.9889 0
M  V30 5838 H 542.603 1.01204 4.1648 0
M  V30 5839 H 546.787 1.89778 4.58582 0
M  V30 5840 H 542.043 3.15065 5.2397 0
M  V30 5841 H 546.217 4.03713 5.67441 0
M  V30 5842 H 543.844 4.66918 5.99909 0
M  V30 5843 N 545.419 -1.53889 0.339982 0
M  V30 5844 C 546.667 -2.00458 -0.257112 0
M  V30 5845 C 546.988 -1.22953 -1.51353 0
M  V30 5846 O 546.258 -0.335734 -1.93002 0
M  V30 5847 H 544.838 -0.740544 -0.0979965 0
M  V30 5848 H 547.5 -1.89386 0.460317 0
M  V30 5849 H 546.596 -3.08035 -0.502057 0
M  V30 5850 N 546.897 -0.0685191 -1.57451 0
M  V30 5851 C 548.122 0.613919 -1.98106 0
M  V30 5852 C 548.547 1.62551 -0.946501 0
M  V30 5853 O 547.905 1.81085 0.0882824 0
M  V30 5854 C 547.953 1.26189 -3.378 0
M  V30 5855 O 547.057 2.37773 -3.36954 0
M  V30 5856 H 546.398 0.158163 -0.644888 0
M  V30 5857 H 548.928 -0.142063 -2.04106 0
M  V30 5858 H 548.938 1.60951 -3.74912 0
M  V30 5859 H 547.613 0.520625 -4.12629 0
M  V30 5860 H 546.19 2.04829 -3.11608 0
M  V30 5861 N 548.375 1.56261 0.205012 0
M  V30 5862 C 549.305 1.96779 1.257 0
M  V30 5863 C 550.286 0.838309 1.48008 0
M  V30 5864 O 551.471 1.10189 1.59913 0
M  V30 5865 C 548.601 2.29876 2.60335 0
M  V30 5866 C 547.555 3.45469 2.52656 0
M  V30 5867 C 546.881 3.64215 3.91473 0
M  V30 5868 C 548.181 4.79954 2.06014 0
M  V30 5869 H 549.875 2.84904 0.920338 0
M  V30 5870 H 547.421 1.37072 0.441277 0
M  V30 5871 H 549.374 2.56814 3.34102 0
M  V30 5872 H 548.098 1.38622 2.95722 0
M  V30 5873 H 546.757 3.18605 1.81345 0
M  V30 5874 H 546.405 2.70309 4.24196 0
M  V30 5875 H 546.105 4.41973 3.87213 0
M  V30 5876 H 547.629 3.93519 4.66878 0
M  V30 5877 H 549.043 5.05989 2.69533 0
M  V30 5878 H 547.44 5.61111 2.12777 0
M  V30 5879 H 548.51 4.74201 1.01297 0
M  V30 5880 N 549.853 -0.472356 1.50355 0
M  V30 5881 C 551.264 -1.05326 1.54154 0
M  V30 5882 C 551.615 -1.93155 0.344303 0
M  V30 5883 O 550.74 -2.09479 -0.542928 0
M  V30 5884 C 551.335 -1.91691 2.79356 0
M  V30 5885 C 549.894 -2.44892 2.8584 0
M  V30 5886 C 549.041 -1.23205 2.48426 0
M  V30 5887 H 551.992 -0.255027 1.56637 0
M  V30 5888 H 552.013 -2.76742 2.6114 0
M  V30 5889 H 551.525 -1.27741 3.66475 0
M  V30 5890 H 549.626 -3.12399 2.0307 0
M  V30 5891 H 549.739 -2.80086 3.88701 0
M  V30 5892 H 548.103 -1.56643 2.00836 0
M  V30 5893 H 548.886 -0.609194 3.37852 0
M  V30 5894 N 551.331 -1.39911 -0.725443 0
M  V30 5895 C 552.571 -1.39096 -1.49772 0
M  V30 5896 C 552.935 0.0106452 -1.91997 0
M  V30 5897 O 554.136 0.143859 -2.68415 0
M  V30 5898 C 552.407 -2.34441 -2.69764 0
M  V30 5899 S 553.966 -2.51898 -3.59295 0
M  V30 5900 H 550.784 -0.49314 -0.512186 0
M  V30 5901 H 553.386 -1.76093 -0.849197 0
M  V30 5902 H 552.09 -3.35123 -2.36898 0
M  V30 5903 H 551.621 -1.98692 -3.39537 0
M  V30 5904 H 553.636 -1.76402 -4.63785 0
M  V30 5905 N 552.809 0.956637 -1.25245 0
M  V30 5906 C 554.058 1.69537 -1.0927 0
M  V30 5907 C 554.371 1.92136 0.366503 0
M  V30 5908 O 555.577 2.63687 0.64665 0
M  V30 5909 C 554.033 3.05211 -1.9072 0
M  V30 5910 C 553.641 2.90416 -3.41119 0
M  V30 5911 C 555.385 3.82882 -1.83308 0
M  V30 5912 C 553.292 4.21468 -4.14872 0
M  V30 5913 H 552.222 0.635804 -0.405302 0
M  V30 5914 H 554.873 1.06513 -1.49423 0
M  V30 5915 H 553.255 3.69128 -1.43389 0
M  V30 5916 H 554.429 2.35444 -3.9611 0
M  V30 5917 H 552.744 2.26203 -3.49602 0
M  V30 5918 H 555.341 4.79944 -2.35706 0
M  V30 5919 H 555.684 4.0853 -0.800572 0
M  V30 5920 H 556.217 3.25711 -2.28379 0
M  V30 5921 H 552.956 4.01009 -5.18529 0
M  V30 5922 H 552.476 4.76213 -3.64665 0
M  V30 5923 H 554.155 4.90022 -4.22478 0
M  V30 5924 N 554.287 1.06798 1.15896 0
M  V30 5925 C 555.217 0.704677 2.22613 0
M  V30 5926 C 556.198 -0.305252 1.67339 0
M  V30 5927 O 557.383 -0.179247 1.93371 0
M  V30 5928 C 554.513 0.0957325 3.47168 0
M  V30 5929 C 553.467 1.0322 4.15367 0
M  V30 5930 C 552.793 0.286293 5.33933 0
M  V30 5931 C 554.093 2.36341 4.65768 0
M  V30 5932 H 555.787 1.59688 2.53259 0
M  V30 5933 H 553.333 0.769257 1.21731 0
M  V30 5934 H 555.286 -0.170333 4.21056 0
M  V30 5935 H 554.01 -0.831516 3.15838 0
M  V30 5936 H 552.669 1.28309 3.43413 0
M  V30 5937 H 552.317 -0.644237 4.98857 0
M  V30 5938 H 552.017 0.910436 5.80504 0
M  V30 5939 H 553.541 0.0278938 6.10594 0
M  V30 5940 H 554.955 2.1561 5.31211 0
M  V30 5941 H 553.352 2.94299 5.2298 0
M  V30 5942 H 554.422 2.99047 3.81705 0
M  V30 5943 N 555.766 -1.3263 0.851289 0
M  V30 5944 C 556.714 -2.30882 0.282202 0
M  V30 5945 C 557.708 -1.58697 -0.592589 0
M  V30 5946 O 558.914 -1.73461 -0.480768 0
M  V30 5947 H 555.289 -0.748492 0.0725487 0
M  V30 5948 H 557.26 -2.76374 1.12516 0
M  V30 5949 C 556.009 -3.43828 -0.517449 0
M  V30 5950 H 555.332 -3.99532 0.146392 0
M  V30 5951 H 556.772 -4.1474 -0.88128 0
M  V30 5952 C 555.231 -2.90786 -1.70133 0
M  V30 5953 O 555.761 -2.88 -2.80034 0
M  V30 5954 N 553.967 -2.4723 -1.52728 0
M  V30 5955 H 553.514 -2.49695 -0.633257 0
M  V30 5956 H 553.472 -2.12094 -2.32085 0
M  V30 5957 N 557.244 -0.608902 -1.45362 0
M  V30 5958 C 558.207 0.0992563 -2.28985 0
M  V30 5959 C 559.207 0.793841 -1.39838 0
M  V30 5960 O 560.397 0.641804 -1.61946 0
M  V30 5961 C 557.529 1.15073 -3.20891 0
M  V30 5962 H 558.722 -0.635964 -2.93079 0
M  V30 5963 H 556.275 -0.368007 -1.51906 0
M  V30 5964 H 557.01 1.91667 -2.616 0
M  V30 5965 H 556.795 0.656867 -3.86559 0
M  V30 5966 H 558.285 1.64665 -3.83765 0
M  V30 5967 N 558.722 1.53707 -0.348139 0
M  V30 5968 C 559.962 2.02899 0.247254 0
M  V30 5969 C 560.326 1.23033 1.47401 0
M  V30 5970 O 561.527 1.62146 2.14388 0
M  V30 5971 C 559.798 3.53156 0.549151 0
M  V30 5972 S 561.357 4.24247 1.1207 0
M  V30 5973 H 558.175 0.707213 0.0732894 0
M  V30 5974 H 560.777 1.89338 -0.486965 0
M  V30 5975 H 559.481 4.08893 -0.351435 0
M  V30 5976 H 559.012 3.70845 1.31291 0
M  V30 5977 H 561.027 4.33958 2.40613 0
M  V30 5978 N 560.2 0.0768682 1.57412 0
M  V30 5979 C 561.425 -0.603404 1.98428 0
M  V30 5980 C 561.85 -1.62047 0.955108 0
M  V30 5981 O 561.208 -1.81129 -0.0786778 0
M  V30 5982 C 561.256 -1.24396 3.38464 0
M  V30 5983 O 560.36 -2.35982 3.3821 0
M  V30 5984 H 559.701 -0.154741 0.645718 0
M  V30 5985 H 562.231 0.152885 2.04028 0
M  V30 5986 H 562.241 -1.5896 3.7576 0
M  V30 5987 H 560.916 -0.498735 4.12899 0
M  V30 5988 H 559.493 -2.03173 3.1269 0
M  V30 5989 N 561.678 -1.56367 -0.196722 0
M  V30 5990 C 562.926 -1.80172 -0.915554 0
M  V30 5991 C 563.247 -0.649649 -1.8386 0
M  V30 5992 O 562.517 0.332111 -1.93064 0
M  V30 5993 H 561.097 -0.664592 -0.341067 0
M  V30 5994 H 563.759 -1.93844 -0.202622 0
M  V30 5995 H 562.855 -2.7327 -1.50764 0
M  V30 5996 N 563.156 0.464375 -1.50603 0
M  V30 5997 C 564.433 1.22549 -1.5245 0
M  V30 5998 C 564.813 2.09327 -0.273035 0
M  V30 5999 O 564.161 2.16074 0.743242 0
M  V30 6000 C 564.371 2.05074 -2.82393 0
M  V30 6001 C 565.719 2.63036 -3.33313 0
M  V30 6002 O 566.743 2.1531 -2.8376 0
M  V30 6003 O 565.602 3.5001 -4.19709 0
M  V30 6004 H 562.696 0.556471 -0.611775 0
M  V30 6005 H 565.242 0.475648 -1.62898 0
M  V30 6006 H 564.014 1.41169 -3.64948 0
M  V30 6007 H 563.637 2.87179 -2.7498 0
M  V30 6008 N 564.634 1.40294 0.718013 0
M  V30 6009 C 565.597 1.4012 1.81381 0
M  V30 6010 C 566.597 0.295405 1.58063 0
M  V30 6011 O 567.787 0.554187 1.6515 0
M  V30 6012 C 564.919 1.19056 3.19435 0
M  V30 6013 H 566.112 2.37645 1.82933 0
M  V30 6014 H 563.665 1.26107 0.923405 0
M  V30 6015 H 564.4 0.222809 3.23534 0
M  V30 6016 H 564.185 1.99152 3.37758 0
M  V30 6017 H 565.675 1.21716 3.99468 0
M  V30 6018 N 566.112 -0.949982 1.2575 0
M  V30 6019 C 567.059 -2.04738 1.06541 0
M  V30 6020 C 568.029 -1.66078 -0.0268818 0
M  V30 6021 O 569.214 -1.90348 0.131196 0
M  V30 6022 C 566.354 -3.38027 0.695127 0
M  V30 6023 C 565.467 -3.89776 1.86276 0
M  V30 6024 C 564.602 -5.11411 1.4364 0
M  V30 6025 C 563.641 -5.554 2.57287 0
M  V30 6026 N 562.778 -6.68244 2.15395 0
M  V30 6027 H 567.618 -2.20502 2.00457 0
M  V30 6028 H 565.155 -1.0805 0.998178 0
M  V30 6029 H 567.113 -4.14641 0.461375 0
M  V30 6030 H 565.743 -3.22135 -0.207046 0
M  V30 6031 H 564.795 -3.0964 2.20969 0
M  V30 6032 H 566.107 -4.18368 2.71606 0
M  V30 6033 H 565.261 -5.95457 1.16257 0
M  V30 6034 H 564 -4.84545 0.553879 0
M  V30 6035 H 563.005 -4.69916 2.85409 0
M  V30 6036 H 564.23 -5.84272 3.46125 0
M  V30 6037 H 562.176 -6.43078 1.29565 0
M  V30 6038 H 562.093 -6.96377 2.94272 0
M  V30 6039 H 563.361 -7.55687 1.91201 0
M  V30 6040 N 567.59 -1.07411 -1.15328 0
M  V30 6041 C 568.815 -0.818856 -1.90551 0
M  V30 6042 C 569.24 0.622194 -1.77512 0
M  V30 6043 O 568.598 1.43484 -1.10824 0
M  V30 6044 C 568.646 -1.23267 -3.38877 0
M  V30 6045 O 567.75 -0.378345 -4.10661 0
M  V30 6046 H 567.091 -0.29827 -0.593238 0
M  V30 6047 H 569.621 -1.43289 -1.46046 0
M  V30 6048 H 569.631 -1.20912 -3.89672 0
M  V30 6049 H 568.306 -2.28226 -3.47686 0
M  V30 6050 H 566.883 -0.464437 -3.69996 0
M  V30 6051 N 569.068 1.32177 -0.85831 0
M  V30 6052 C 570.296 2.01313 -0.477582 0
M  V30 6053 C 570.711 1.6449 0.926736 0
M  V30 6054 O 570.068 0.868096 1.60531 0
M  V30 6055 C 570.119 3.56293 -0.611337 0
M  V30 6056 O 569.84 3.91794 -1.96034 0
M  V30 6057 C 571.341 4.42702 -0.230093 0
M  V30 6058 H 568.561 0.644323 -0.187322 0
M  V30 6059 H 571.105 1.68674 -1.15626 0
M  V30 6060 H 569.26 3.87395 0.0196494 0
M  V30 6061 H 569.674 4.86513 -1.95973 0
M  V30 6062 H 571.148 5.50727 -0.374674 0
M  V30 6063 H 571.625 4.3129 0.829779 0
M  V30 6064 H 572.231 4.16997 -0.836302 0
M  V30 6065 N 570.547 0.616602 1.45037 0
M  V30 6066 C 571.772 0.120192 2.07051 0
M  V30 6067 C 572.197 -1.19008 1.45666 0
M  V30 6068 O 571.555 -1.7267 0.552692 0
M  V30 6069 C 571.603 0.00354901 3.606 0
M  V30 6070 O 570.707 -1.04431 3.98958 0
M  V30 6071 H 570.048 0.0781599 0.659384 0
M  V30 6072 H 572.578 0.849167 1.86146 0
M  V30 6073 H 572.588 -0.191754 4.07549 0
M  V30 6074 H 571.263 0.960239 4.04663 0
M  V30 6075 H 569.84 -0.824749 3.63665 0
M  V30 6076 N 572.025 -1.5352 0.356285 0
M  V30 6077 C 573.265 -2.03027 -0.23649 0
M  V30 6078 C 573.629 -1.23813 -1.46746 0
M  V30 6079 O 574.83 -1.63281 -2.13525 0
M  V30 6080 C 573.101 -3.53442 -0.530415 0
M  V30 6081 S 574.66 -4.24836 -1.09819 0
M  V30 6082 H 571.478 -0.707591 -0.0695378 0
M  V30 6083 H 574.08 -1.89077 0.496999 0
M  V30 6084 H 572.784 -4.087 0.373114 0
M  V30 6085 H 572.315 -3.71536 -1.29323 0
M  V30 6086 H 574.33 -4.35228 -2.38309 0
M  V30 6087 N 573.503 -0.0852151 -1.57369 0
M  V30 6088 C 574.752 0.580443 -1.93168 0
M  V30 6089 C 575.065 1.6995 -0.968319 0
M  V30 6090 O 576.271 2.42564 -1.21963 0
M  V30 6091 C 574.727 1.08386 -3.43192 0
M  V30 6092 C 574.335 -0.00491388 -4.48 0
M  V30 6093 C 576.079 1.72281 -3.87968 0
M  V30 6094 C 573.986 0.513299 -5.89168 0
M  V30 6095 H 572.916 0.22059 -0.72101 0
M  V30 6096 H 575.567 -0.159621 -1.82804 0
M  V30 6097 H 573.949 1.8773 -3.48674 0
M  V30 6098 H 575.123 -0.780032 -4.5415 0
M  V30 6099 H 573.438 -0.548453 -4.12772 0
M  V30 6100 H 576.035 2.12108 -4.9083 0
M  V30 6101 H 576.378 2.58811 -3.26071 0
M  V30 6102 H 576.911 0.995359 -3.85146 0
M  V30 6103 H 573.65 -0.315153 -6.54742 0
M  V30 6104 H 573.17 1.25564 -5.8651 0
M  V30 6105 H 574.849 0.985433 -6.39451 0
M  V30 6106 N 574.981 1.5647 0.188427 0
M  V30 6107 C 575.929 1.95971 1.25293 0
M  V30 6108 C 576.923 0.846047 1.4676 0
M  V30 6109 O 578.129 1.03109 1.47542 0
M  V30 6110 H 574.504 0.623253 0.420784 0
M  V30 6111 H 576.475 2.84731 0.892792 0
M  V30 6112 C 575.224 2.32116 2.58877 0
M  V30 6113 H 574.547 3.17341 2.43176 0
M  V30 6114 H 575.987 2.63613 3.3209 0
M  V30 6115 C 574.446 1.15823 3.16365 0
M  V30 6116 O 574.976 0.436785 3.99318 0
M  V30 6117 N 573.182 0.933278 2.75206 0
M  V30 6118 H 572.729 1.52169 2.07852 0
M  V30 6119 H 572.687 0.156976 3.14008 0
M  V30 6120 N 576.459 -0.456382 1.50847 0
M  V30 6121 C 577.389 -1.56025 1.73719 0
M  V30 6122 C 578.37 -1.5967 0.586473 0
M  V30 6123 O 579.555 -1.75702 0.827185 0
M  V30 6124 C 576.685 -2.94251 1.84483 0
M  V30 6125 C 575.639 -3.05471 2.99786 0
M  V30 6126 C 574.965 -4.45489 2.95709 0
M  V30 6127 C 576.265 -2.81318 4.40065 0
M  V30 6128 H 577.959 -1.37138 2.66146 0
M  V30 6129 H 575.505 -0.658299 1.28072 0
M  V30 6130 H 577.458 -3.71417 1.99067 0
M  V30 6131 H 576.182 -3.14328 0.886891 0
M  V30 6132 H 574.841 -2.30741 2.84876 0
M  V30 6133 H 574.489 -4.62505 1.97732 0
M  V30 6134 H 574.189 -4.53929 3.73125 0
M  V30 6135 H 575.713 -5.24655 3.12362 0
M  V30 6136 H 577.127 -3.48226 4.55425 0
M  V30 6137 H 575.524 -3.01188 5.19043 0
M  V30 6138 H 576.594 -1.7706 4.51418 0
M  V30 6139 N 577.937 -1.40673 -0.710563 0
M  V30 6140 C 579.162 -1.42741 -1.50465 0
M  V30 6141 C 579.587 -0.0302116 -1.88076 0
M  V30 6142 O 578.945 0.962945 -1.53613 0
M  V30 6143 C 578.993 -2.32873 -2.75322 0
M  V30 6144 O 578.097 -1.77544 -3.72226 0
M  V30 6145 H 577.438 -0.485056 -0.45345 0
M  V30 6146 H 579.968 -1.84961 -0.874681 0
M  V30 6147 H 579.978 -2.48233 -3.23797 0
M  V30 6148 H 578.653 -3.34401 -2.47283 0
M  V30 6149 H 577.23 -1.71556 -3.31093 0
M  V30 6150 N 579.415 0.9433 -1.26252 0
M  V30 6151 C 580.661 1.69175 -1.11837 0
M  V30 6152 C 580.994 1.91238 0.337891 0
M  V30 6153 O 580.269 1.49152 1.24836 0
M  V30 6154 C 580.552 3.06783 -1.88563 0
M  V30 6155 C 580.405 2.9206 -3.42083 0
M  V30 6156 C 581.724 4.06865 -1.67776 0
M  V30 6157 H 578.843 0.61399 -0.407658 0
M  V30 6158 H 581.485 1.09572 -1.55222 0
M  V30 6159 H 579.635 3.57663 -1.51689 0
M  V30 6160 H 581.307 2.48419 -3.88698 0
M  V30 6161 H 579.55 2.27731 -3.69217 0
M  V30 6162 H 580.221 3.89651 -3.90994 0
M  V30 6163 H 582.697 3.64939 -1.99897 0
M  V30 6164 H 581.573 5.01168 -2.23879 0
M  V30 6165 H 581.834 4.37705 -0.621816 0
M  V30 6166 N 580.893 1.08022 1.14757 0
M  V30 6167 C 582.121 0.828847 1.89572 0
M  V30 6168 C 582.536 -0.618621 1.78377 0
M  V30 6169 O 581.893 -1.42482 1.1404 0
M  V30 6170 C 581.944 1.23677 3.39685 0
M  V30 6171 O 581.665 2.62746 3.50566 0
M  V30 6172 C 583.166 1.01569 4.31507 0
M  V30 6173 H 580.386 0.299196 0.600602 0
M  V30 6174 H 582.93 1.43846 1.45357 0
M  V30 6175 H 581.085 0.671347 3.81539 0
M  V30 6176 H 581.499 2.79573 4.43778 0
M  V30 6177 H 582.973 1.35055 5.35223 0
M  V30 6178 H 583.45 -0.0475433 4.39174 0
M  V30 6179 H 584.056 1.56636 3.95405 0
M  V30 6180 N 582.371 -1.3172 0.865308 0
M  V30 6181 C 583.648 -1.91574 0.394789 0
M  V30 6182 C 584.028 -1.78769 -1.12271 0
M  V30 6183 O 583.376 -1.19245 -1.94918 0
M  V30 6184 C 583.586 -3.37957 0.870982 0
M  V30 6185 C 584.934 -4.15073 0.894384 0
M  V30 6186 O 585.958 -3.4672 0.816325 0
M  V30 6187 O 584.817 -5.37151 1.00651 0
M  V30 6188 H 581.911 -0.818649 0.117229 0
M  V30 6189 H 584.457 -1.4042 0.952913 0
M  V30 6190 H 583.229 -3.41269 1.91444 0
M  V30 6191 H 582.852 -3.96534 0.290907 0
M  V30 6192 N 583.85 -0.624285 -1.44708 0
M  V30 6193 C 584.812 0.0749638 -2.29077 0
M  V30 6194 C 585.812 0.778965 -1.40673 0
M  V30 6195 O 587.003 0.624591 -1.62618 0
M  V30 6196 C 584.135 1.11663 -3.22094 0
M  V30 6197 H 585.327 -0.667013 -2.92388 0
M  V30 6198 H 582.88 -0.384098 -1.51507 0
M  V30 6199 H 583.615 1.88881 -2.63618 0
M  V30 6200 H 583.401 0.61583 -3.87234 0
M  V30 6201 H 584.891 1.60585 -3.8549 0
M  V30 6202 N 585.328 1.53329 -0.364422 0
M  V30 6203 C 586.576 2.00842 0.225189 0
M  V30 6204 C 586.897 1.25345 1.49378 0
M  V30 6205 O 586.167 0.366396 1.92443 0
M  V30 6206 H 584.747 0.742009 0.0862027 0
M  V30 6207 H 587.409 1.8863 -0.490389 0
M  V30 6208 H 586.505 3.08795 0.452987 0
M  V30 6209 N 586.806 0.0935595 1.57322 0
M  V30 6210 C 588.054 -0.569383 1.93913 0
M  V30 6211 C 588.375 -1.68817 0.976009 0
M  V30 6212 O 587.645 -1.9588 0.0278099 0
M  V30 6213 H 586.225 -0.21332 0.715894 0
M  V30 6214 H 588.887 0.156531 1.9427 0
M  V30 6215 H 587.983 -0.980577 2.96296 0
M  V30 6216 N 588.284 -1.56567 -0.180126 0
M  V30 6217 C 589.509 -1.85975 -0.918041 0
M  V30 6218 C 589.934 -0.678888 -1.75422 0
M  V30 6219 O 589.292 0.372168 -1.77439 0
M  V30 6220 C 589.34 -3.13731 -1.77779 0
M  V30 6221 O 588.444 -2.95335 -2.87838 0
M  V30 6222 H 587.785 -0.61196 -0.257683 0
M  V30 6223 H 590.315 -2.03798 -0.180923 0
M  V30 6224 H 590.325 -3.4491 -2.17948 0
M  V30 6225 H 589 -3.99293 -1.16352 0
M  V30 6226 H 587.577 -2.7549 -2.51316 0
M  V30 6227 N 589.762 0.448376 -1.51087 0
M  V30 6228 C 590.725 1.52588 -1.71025 0
M  V30 6229 C 591.725 1.49958 -0.580442 0
M  V30 6230 O 592.915 1.52176 -0.847833 0
M  V30 6231 C 590.047 2.92163 -1.75652 0
M  V30 6232 H 591.24 1.36218 -2.67179 0
M  V30 6233 H 588.793 0.676313 -1.4091 0
M  V30 6234 H 589.528 3.13951 -0.812724 0
M  V30 6235 H 589.313 2.95478 -2.57751 0
M  V30 6236 H 590.803 3.70349 -1.92953 0
M  V30 6237 N 591.24 1.41047 0.703093 0
M  V30 6238 C 592.172 1.38228 1.82827 0
M  V30 6239 C 593.185 0.285637 1.60275 0
M  V30 6240 O 594.374 0.54685 1.69917 0
M  V30 6241 C 591.474 1.13136 3.19458 0
M  V30 6242 C 590.647 2.34695 3.69103 0
M  V30 6243 C 589.706 2.05574 4.84382 0
M  V30 6244 O 588.732 2.78549 4.96386 0
M  V30 6245 N 589.934 1.04135 5.71083 0
M  V30 6246 H 592.699 2.35203 1.85741 0
M  V30 6247 H 590.26 1.35562 0.885125 0
M  V30 6248 H 592.252 0.916183 3.94193 0
M  V30 6249 H 590.822 0.247836 3.11616 0
M  V30 6250 H 590.042 2.71963 2.85359 0
M  V30 6251 H 591.33 3.15705 3.99009 0
M  V30 6252 H 590.728 0.43722 5.64008 0
M  V30 6253 H 589.285 0.886078 6.45749 0
M  V30 6254 N 592.718 -0.936591 1.26751 0
M  V30 6255 C 594.134 -1.21095 1.03963 0
M  V30 6256 C 594.334 -2.00156 -0.232372 0
M  V30 6257 O 593.39 -2.3434 -0.940274 0
M  V30 6258 C 594.703 -1.96775 2.27377 0
M  V30 6259 C 596.251 -2.09749 2.32324 0
M  V30 6260 C 596.726 -2.88832 3.55443 0
M  V30 6261 N 598.217 -2.96404 3.55948 0
M  V30 6262 C 598.952 -3.58036 4.47881 0
M  V30 6263 N 598.448 -4.21132 5.50109 0
M  V30 6264 N 600.241 -3.55353 4.35523 0
M  V30 6265 H 592.392 -0.408173 2.08441 0
M  V30 6266 H 594.655 -0.243139 0.91629 0
M  V30 6267 H 594.361 -1.46094 3.19921 0
M  V30 6268 H 594.235 -2.97424 2.31989 0
M  V30 6269 H 596.622 -2.5962 1.40291 0
M  V30 6270 H 596.703 -1.08347 2.31721 0
M  V30 6271 H 596.347 -2.39647 4.47808 0
M  V30 6272 H 596.277 -3.90499 3.53296 0
M  V30 6273 H 598.768 -2.51552 2.82011 0
M  V30 6274 H 599.081 -4.66071 6.16439 0
M  V30 6275 H 597.426 -4.19705 5.53961 0
M  V30 6276 H 600.617 -3.05256 3.54875 0
M  V30 6277 H 600.79 -4.03097 5.07363 0
M  V30 6278 N 594.196 -1.08629 -1.14182 0
M  V30 6279 C 595.607 -0.838003 -1.66836 0
M  V30 6280 C 595.958 0.634885 -1.85644 0
M  V30 6281 O 595.083 1.49008 -1.56926 0
M  V30 6282 C 595.678 -1.51465 -3.03058 0
M  V30 6283 C 594.237 -1.31355 -3.52736 0
M  V30 6284 C 593.384 -1.57599 -2.28162 0
M  V30 6285 H 596.335 -1.24656 -0.982165 0
M  V30 6286 H 596.356 -0.943134 -3.68626 0
M  V30 6287 H 595.868 -2.58661 -2.89337 0
M  V30 6288 H 593.969 -0.262384 -3.71675 0
M  V30 6289 H 594.082 -2.04275 -4.33369 0
M  V30 6290 H 592.446 -0.997659 -2.34348 0
M  V30 6291 H 593.229 -2.66006 -2.17015 0
M  V30 6292 N 595.674 1.31259 -0.872281 0
M  V30 6293 C 597.09 1.49283 -0.564521 0
M  V30 6294 C 597.29 1.80243 0.900807 0
M  V30 6295 O 596.346 1.88246 1.68284 0
M  V30 6296 C 597.659 2.62503 -1.46673 0
M  V30 6297 C 599.207 2.76386 -1.46901 0
M  V30 6298 C 599.682 3.92705 -2.35684 0
M  V30 6299 N 601.173 3.99995 -2.33577 0
M  V30 6300 C 601.908 4.89276 -2.98992 0
M  V30 6301 N 601.404 5.83443 -3.73585 0
M  V30 6302 N 603.197 4.82541 -2.88289 0
M  V30 6303 H 595.348 1.09432 -1.82039 0
M  V30 6304 H 597.611 0.540949 -0.77851 0
M  V30 6305 H 597.317 2.46407 -2.50951 0
M  V30 6306 H 597.191 3.58695 -1.16696 0
M  V30 6307 H 599.578 2.91894 -0.433796 0
M  V30 6308 H 599.659 1.80853 -1.80903 0
M  V30 6309 H 599.303 3.77954 -3.39283 0
M  V30 6310 H 599.233 4.87549 -1.99006 0
M  V30 6311 H 601.724 3.32624 -1.7936 0
M  V30 6312 H 602.037 6.48303 -4.20622 0
M  V30 6313 H 600.382 5.83415 -3.77694 0
M  V30 6314 H 603.573 4.07951 -2.2955 0
M  V30 6315 H 603.746 5.51916 -3.39549 0
M  V30 6316 N 597.152 0.631951 1.44375 0
M  V30 6317 C 598.563 0.219036 1.85411 0
M  V30 6318 C 598.914 -1.22974 1.52879 0
M  V30 6319 O 598.039 -1.93579 0.967266 0
M  V30 6320 C 598.634 0.39075 3.36539 0
M  V30 6321 C 597.193 0.0323351 3.76386 0
M  V30 6322 C 596.34 0.703744 2.68221 0
M  V30 6323 H 599.291 0.837056 1.3483 0
M  V30 6324 H 599.312 -0.370056 3.78696 0
M  V30 6325 H 598.824 1.44527 3.60185 0
M  V30 6326 H 596.925 -1.02042 3.58355 0
M  V30 6327 H 597.038 0.442969 4.77048 0
M  V30 6328 H 595.402 0.138974 2.54321 0
M  V30 6329 H 596.185 1.76088 2.947 0
M  V30 6330 N 598.631 -1.53133 0.372548 0
M  V30 6331 C 600.047 -1.59585 0.02178 0
M  V30 6332 C 600.247 -1.38736 -1.46132 0
M  V30 6333 O 599.303 -1.19599 -2.22379 0
M  V30 6334 C 600.616 -2.9678 0.483959 0
M  V30 6335 C 602.164 -3.09909 0.438775 0
M  V30 6336 C 602.639 -4.49527 0.876876 0
M  V30 6337 N 604.13 -4.55663 0.832214 0
M  V30 6338 C 604.865 -5.61896 1.14281 0
M  V30 6339 N 604.361 -6.75852 1.52303 0
M  V30 6340 N 606.154 -5.51916 1.06515 0
M  V30 6341 H 598.305 -1.64936 1.33827 0
M  V30 6342 H 600.568 -0.773947 0.547458 0
M  V30 6343 H 600.274 -3.17198 1.51915 0
M  V30 6344 H 600.148 -3.7699 -0.125784 0
M  V30 6345 H 602.535 -2.89197 -0.587294 0
M  V30 6346 H 602.616 -2.31691 1.0841 0
M  V30 6347 H 602.26 -4.70979 1.90109 0
M  V30 6348 H 602.19 -5.26186 0.208727 0
M  V30 6349 H 604.681 -3.73844 0.552195 0
M  V30 6350 H 604.994 -7.52862 1.7441 0
M  V30 6351 H 603.339 -6.77226 1.56175 0
M  V30 6352 H 606.53 -4.6177 0.767235 0
M  V30 6353 H 606.703 -6.34609 1.31053 0
M  V30 6354 N 600.109 -0.101901 -1.5727 0
M  V30 6355 C 601.355 0.561027 -1.94885 0
M  V30 6356 C 601.688 1.6741 -0.984258 0
M  V30 6357 O 600.963 1.94491 -0.0184767 0
M  V30 6358 C 601.246 1.10982 -3.42571 0
M  V30 6359 C 601.099 0.00133418 -4.498 0
M  V30 6360 C 602.418 2.00608 -3.9172 0
M  V30 6361 H 599.537 0.202467 -0.708644 0
M  V30 6362 H 602.179 -0.173992 -1.89202 0
M  V30 6363 H 600.329 1.73621 -3.47546 0
M  V30 6364 H 602.001 -0.63322 -4.56933 0
M  V30 6365 H 600.244 -0.664143 -4.28686 0
M  V30 6366 H 600.915 0.426253 -5.50352 0
M  V30 6367 H 603.391 1.47864 -3.88941 0
M  V30 6368 H 602.267 2.3593 -4.95609 0
M  V30 6369 H 602.528 2.92608 -3.3141 0
M  V30 6370 N 601.587 1.56661 0.17182 0
M  V30 6371 C 602.517 1.99401 1.21498 0
M  V30 6372 C 603.498 0.869516 1.46197 0
M  V30 6373 O 604.683 1.13556 1.57539 0
M  V30 6374 C 601.813 2.35346 2.55401 0
M  V30 6375 C 600.767 3.5075 2.45272 0
M  V30 6376 C 600.093 3.72437 3.8366 0
M  V30 6377 C 601.393 4.84216 1.95787 0
M  V30 6378 H 603.087 2.86792 0.859699 0
M  V30 6379 H 600.633 1.37977 0.412103 0
M  V30 6380 H 602.586 2.63843 3.2858 0
M  V30 6381 H 601.31 1.44864 2.92715 0
M  V30 6382 H 599.969 3.2238 1.74547 0
M  V30 6383 H 599.617 2.79246 4.18367 0
M  V30 6384 H 599.317 4.50087 3.77751 0
M  V30 6385 H 600.841 4.03334 4.58426 0
M  V30 6386 H 602.255 5.11592 2.5874 0
M  V30 6387 H 600.652 5.65498 2.00827 0
M  V30 6388 H 601.722 4.76243 0.912159 0
M  V30 6389 N 603.065 -0.440357 1.51323 0
M  V30 6390 C 603.995 -1.54174 1.75364 0
M  V30 6391 C 604.976 -1.59039 0.603375 0
M  V30 6392 O 606.161 -1.74815 0.845774 0
M  V30 6393 C 603.291 -2.92277 1.87593 0
M  V30 6394 C 602.245 -3.02274 3.03009 0
M  V30 6395 C 601.571 -4.42327 3.00418 0
M  V30 6396 C 602.871 -2.76634 4.43024 0
M  V30 6397 H 604.565 -1.34307 2.67585 0
M  V30 6398 H 602.111 -0.644678 1.28763 0
M  V30 6399 H 604.064 -3.69284 2.02995 0
M  V30 6400 H 602.788 -3.13369 0.920179 0
M  V30 6401 H 601.447 -2.27706 2.87307 0
M  V30 6402 H 601.095 -4.60382 2.02626 0
M  V30 6403 H 600.795 -4.49946 3.77918 0
M  V30 6404 H 602.319 -5.21312 3.17909 0
M  V30 6405 H 603.733 -3.43376 4.59093 0
M  V30 6406 H 602.13 -2.95666 5.22208 0
M  V30 6407 H 603.2 -1.72262 4.5327 0
M  V30 6408 N 604.543 -1.41418 -0.695603 0
M  V30 6409 C 605.49 -1.43264 -1.80954 0
M  V30 6410 C 606.46 -0.287016 -1.63601 0
M  V30 6411 O 607.645 -0.488054 -1.84452 0
M  V30 6412 C 604.785 -1.32054 -3.18835 0
M  V30 6413 C 603.898 -2.56485 -3.4762 0
M  V30 6414 C 603.033 -2.3757 -4.75115 0
M  V30 6415 C 602.072 -3.57477 -4.96867 0
M  V30 6416 N 601.209 -3.37632 -6.15588 0
M  V30 6417 H 606.049 -2.38467 -1.78711 0
M  V30 6418 H 603.586 -1.18415 -0.872715 0
M  V30 6419 H 605.544 -1.23558 -3.98484 0
M  V30 6420 H 604.174 -0.404592 -3.20254 0
M  V30 6421 H 603.226 -2.75432 -2.62376 0
M  V30 6422 H 604.538 -3.45678 -3.59594 0
M  V30 6423 H 603.692 -2.2654 -5.62818 0
M  V30 6424 H 602.431 -1.45834 -4.65386 0
M  V30 6425 H 601.436 -3.68961 -4.07612 0
M  V30 6426 H 602.661 -4.50167 -5.08455 0
M  V30 6427 H 600.607 -2.48596 -6.07072 0
M  V30 6428 H 600.524 -4.20401 -6.2833 0
M  V30 6429 H 601.792 -3.30375 -7.06026 0
M  V30 6430 N 606.021 0.929856 -1.27246 0
M  V30 6431 C 606.984 2.01172 -1.09829 0
M  V30 6432 C 607.984 1.60743 -0.0429687 0
M  V30 6433 O 609.174 1.71813 -0.287373 0
M  V30 6434 C 606.306 3.34191 -0.673003 0
M  V30 6435 H 607.499 2.18054 -2.05895 0
M  V30 6436 H 605.052 1.11036 -1.10003 0
M  V30 6437 H 605.787 3.23009 0.289134 0
M  V30 6438 H 605.572 3.64892 -1.43515 0
M  V30 6439 H 607.062 4.13646 -0.573323 0
M  V30 6440 N 607.499 1.09233 1.13605 0
M  V30 6441 C 608.91 0.846839 1.6639 0
M  V30 6442 C 609.261 -0.625031 1.85978 0
M  V30 6443 O 608.386 -1.48173 1.57714 0
M  V30 6444 C 608.981 1.5307 3.0225 0
M  V30 6445 C 607.54 1.33223 3.52035 0
M  V30 6446 C 606.687 1.58806 2.27323 0
M  V30 6447 H 609.638 1.25175 0.975541 0
M  V30 6448 H 609.659 0.96267 3.68121 0
M  V30 6449 H 609.171 2.60192 2.87961 0
M  V30 6450 H 607.272 0.282091 3.71531 0
M  V30 6451 H 607.385 2.0657 4.32279 0
M  V30 6452 H 605.749 1.01007 2.33815 0
M  V30 6453 H 606.532 2.67153 2.15602 0
M  V30 6454 N 608.977 -1.30795 0.87923 0
M  V30 6455 C 610.205 -2.00527 0.509548 0
M  V30 6456 C 610.62 -1.65944 -0.90045 0
M  V30 6457 O 609.977 -0.893525 -1.5913 0
M  V30 6458 C 610.028 -3.55276 0.667943 0
M  V30 6459 O 609.749 -3.88625 2.02242 0
M  V30 6460 C 611.25 -4.4228 0.300494 0
M  V30 6461 H 608.47 -0.641261 0.197549 0
M  V30 6462 H 611.014 -1.66813 1.18295 0
M  V30 6463 H 609.169 -3.87377 0.0419843 0
M  V30 6464 H 609.583 -4.83334 2.03688 0
M  V30 6465 H 611.057 -5.50061 0.462242 0
M  V30 6466 H 611.534 -4.32556 -0.76106 0
M  V30 6467 H 612.14 -4.15613 0.902536 0
M  V30 6468 N 610.455 -0.639598 -1.44038 0
M  V30 6469 C 611.385 0.0469443 -2.33453 0
M  V30 6470 C 612.366 0.82609 -1.48694 0
M  V30 6471 O 613.551 0.790285 -1.77393 0
M  V30 6472 C 610.681 1.02338 -3.3188 0
M  V30 6473 C 609.635 0.355284 -4.26523 0
M  V30 6474 C 608.961 1.44221 -5.14883 0
M  V30 6475 C 610.261 -0.743798 -5.16977 0
M  V30 6476 H 611.955 -0.699735 -2.91108 0
M  V30 6477 H 609.501 -0.337946 -1.39978 0
M  V30 6478 H 611.454 1.51247 -3.93322 0
M  V30 6479 H 610.178 1.80105 -2.72451 0
M  V30 6480 H 608.837 -0.113239 -3.66425 0
M  V30 6481 H 608.485 2.21097 -4.51802 0
M  V30 6482 H 608.185 1.00052 -5.79019 0
M  V30 6483 H 609.709 1.93295 -5.79197 0
M  V30 6484 H 611.123 -0.337444 -5.72306 0
M  V30 6485 H 609.52 -1.10914 -5.89761 0
M  V30 6486 H 610.59 -1.60745 -4.57481 0
M  V30 6487 N 611.933 1.52934 -0.380664 0
M  V30 6488 C 612.896 2.24809 0.446473 0
M  V30 6489 C 613.896 1.26133 0.997347 0
M  V30 6490 O 615.086 1.50297 0.880714 0
M  V30 6491 C 612.218 2.99649 1.62553 0
M  V30 6492 H 613.411 2.99343 -0.182677 0
M  V30 6493 H 610.964 1.55736 -0.132618 0
M  V30 6494 H 611.699 2.29395 2.29235 0
M  V30 6495 H 611.484 3.72066 1.23732 0
M  V30 6496 H 612.974 3.54246 2.21133 0
M  V30 6497 N 613.412 0.11024 1.57214 0
M  V30 6498 C 614.322 -0.857077 2.18383 0
M  V30 6499 C 615.338 -1.29915 1.1575 0
M  V30 6500 O 616.514 -1.36394 1.48184 0
M  V30 6501 C 613.579 -2.09264 2.76423 0
M  V30 6502 C 612.64 -1.70333 3.94063 0
M  V30 6503 C 611.873 -2.87999 4.49324 0
M  V30 6504 O 612.096 -4.0317 4.03497 0
M  V30 6505 O 611.03 -2.6559 5.40135 0
M  V30 6506 H 614.856 -0.366561 3.0148 0
M  V30 6507 H 612.441 -0.114914 1.48957 0
M  V30 6508 H 614.323 -2.81644 3.13456 0
M  V30 6509 H 612.998 -2.57339 1.96363 0
M  V30 6510 H 611.905 -0.950864 3.61814 0
M  V30 6511 H 613.238 -1.27007 4.75531 0
M  V30 6512 N 614.89 -1.56749 -0.16351 0
M  V30 6513 C 615.823 -1.9213 -1.23132 0
M  V30 6514 C 616.801 -0.785047 -1.42393 0
M  V30 6515 O 617.985 -1.0391 -1.57273 0
M  V30 6516 C 615.112 -2.17901 -2.59301 0
M  V30 6517 C 614.158 -3.40576 -2.5673 0
M  V30 6518 S 614.991 -4.94689 -2.05045 0
M  V30 6519 C 616.147 -5.23564 -3.42975 0
M  V30 6520 H 616.38 -2.824 -0.929383 0
M  V30 6521 H 613.913 -1.4994 -0.368418 0
M  V30 6522 H 615.871 -2.33429 -3.3767 0
M  V30 6523 H 614.532 -1.28324 -2.86691 0
M  V30 6524 H 613.725 -3.55833 -3.5693 0
M  V30 6525 H 613.327 -3.24204 -1.86462 0
M  V30 6526 H 615.619 -5.16019 -4.3901 0
M  V30 6527 H 616.562 -6.25134 -3.32586 0
M  V30 6528 H 616.97 -4.51113 -3.39348 0
M  V30 6529 N 616.368 0.432326 -1.51554 0
M  V30 6530 C 617.278 1.55023 -1.76082 0
M  V30 6531 C 618.294 1.61593 -0.645265 0
M  V30 6532 O 619.47 1.78742 -0.928086 0
M  V30 6533 C 616.535 2.90964 -1.88523 0
M  V30 6534 C 615.596 2.9447 -3.12388 0
M  V30 6535 C 614.829 4.23926 -3.24225 0
M  V30 6536 O 615.052 5.16576 -2.4188 0
M  V30 6537 O 613.986 4.33818 -4.17235 0
M  V30 6538 H 617.812 1.37238 -2.70923 0
M  V30 6539 H 615.397 0.615845 -1.36117 0
M  V30 6540 H 617.279 3.71633 -1.98662 0
M  V30 6541 H 615.954 3.08865 -0.9687 0
M  V30 6542 H 614.861 2.12737 -3.07723 0
M  V30 6543 H 616.194 2.81514 -4.03746 0
M  V30 6544 N 617.846 1.41785 0.688094 0
M  V30 6545 C 618.756 1.46596 1.83158 0
M  V30 6546 C 619.772 0.355862 1.70322 0
M  V30 6547 O 620.948 0.604737 1.92106 0
M  V30 6548 C 618.013 1.35322 3.192 0
M  V30 6549 C 617.074 2.56711 3.4409 0
M  V30 6550 C 616.307 2.45965 4.73642 0
M  V30 6551 O 616.53 1.48827 5.50642 0
M  V30 6552 O 615.464 3.35859 4.99482 0
M  V30 6553 H 619.29 2.43083 1.82056 0
M  V30 6554 H 616.875 1.23404 0.842126 0
M  V30 6555 H 618.757 1.31347 4.00407 0
M  V30 6556 H 617.432 0.419536 3.2097 0
M  V30 6557 H 616.339 2.66262 2.62784 0
M  V30 6558 H 617.672 3.48933 3.47141 0
M  V30 6559 N 619.324 -0.923095 1.27737 0
M  V30 6560 C 620.257 -2.02515 1.05181 0
M  V30 6561 C 621.235 -1.62574 -0.0292204 0
M  V30 6562 O 622.419 -1.88137 0.116848 0
M  V30 6563 C 619.546 -3.33407 0.596468 0
M  V30 6564 C 618.592 -3.92328 1.67276 0
M  V30 6565 S 619.425 -4.24342 3.26641 0
M  V30 6566 C 620.581 -5.58308 2.82919 0
M  V30 6567 H 620.814 -2.21336 1.98488 0
M  V30 6568 H 618.347 -1.06679 1.1162 0
M  V30 6569 H 620.305 -4.09086 0.34044 0
M  V30 6570 H 618.966 -3.125 -0.316614 0
M  V30 6571 H 618.159 -4.86797 1.30556 0
M  V30 6572 H 617.761 -3.2325 1.8811 0
M  V30 6573 H 620.053 -6.37801 2.28509 0
M  V30 6574 H 620.996 -5.99931 3.7615 0
M  V30 6575 H 621.404 -5.19049 2.21919 0
M  V30 6576 N 620.802 -1.09834 -1.13024 0
M  V30 6577 C 621.75 -0.736283 -2.20639 0
M  V30 6578 C 622.744 0.264725 -1.67319 0
M  V30 6579 O 623.95 0.125745 -1.7956 0
M  V30 6580 H 620.325 -0.220136 -0.719058 0
M  V30 6581 H 622.296 -1.65295 -2.48436 0
M  V30 6582 C 621.045 -0.177544 -3.47246 0
M  V30 6583 H 620.368 -0.939009 -3.88616 0
M  V30 6584 H 621.808 0.0378007 -4.23983 0
M  V30 6585 C 620.267 1.08824 -3.1884 0
M  V30 6586 O 620.797 2.1708 -3.37993 0
M  V30 6587 N 619.003 1.00442 -2.7269 0
M  V30 6588 H 618.55 0.123383 -2.57304 0
M  V30 6589 H 618.508 1.85206 -2.5406 0
M  V30 6590 N 622.28 1.30327 -0.886154 0
M  V30 6591 C 623.508 2.00254 -0.520176 0
M  V30 6592 C 623.923 1.66419 0.891637 0
M  V30 6593 O 623.28 0.901951 1.58654 0
M  V30 6594 C 623.331 3.54916 -0.686775 0
M  V30 6595 O 623.052 3.87547 -2.04301 0
M  V30 6596 C 624.553 4.42115 -0.323945 0
M  V30 6597 H 621.773 0.640204 -0.200947 0
M  V30 6598 H 624.317 1.66183 -1.19178 0
M  V30 6599 H 622.472 3.8735 -0.0625273 0
M  V30 6600 H 622.886 4.82247 -2.06249 0
M  V30 6601 H 624.36 5.49808 -0.491407 0
M  V30 6602 H 624.837 4.32953 0.73811 0
M  V30 6603 H 625.443 4.15129 -0.924565 0
M  V30 6604 N 623.758 0.647228 1.43697 0
M  V30 6605 C 624.983 0.164083 2.0675 0
M  V30 6606 C 625.408 -1.15892 1.48158 0
M  V30 6607 O 624.766 -1.71459 0.589194 0
M  V30 6608 C 624.814 0.0800368 3.60511 0
M  V30 6609 O 623.918 -0.959453 4.01084 0
M  V30 6610 H 623.259 0.0921288 0.657578 0
M  V30 6611 H 625.789 0.88846 1.84303 0
M  V30 6612 H 625.799 -0.105263 4.07864 0
M  V30 6613 H 624.474 1.04586 4.02535 0
M  V30 6614 H 623.051 -0.747425 3.65333 0
M  V30 6615 N 625.236 -1.5273 0.388769 0
M  V30 6616 C 626.146 -2.30165 -0.453993 0
M  V30 6617 C 627.162 -1.37058 -1.07197 0
M  V30 6618 O 628.338 -1.70127 -1.0779 0
M  V30 6619 C 625.403 -3.09303 -1.56628 0
M  V30 6620 C 624.464 -4.18117 -0.973467 0
M  V30 6621 C 623.697 -4.93472 -2.03275 0
M  V30 6622 O 623.92 -4.68913 -3.24772 0
M  V30 6623 O 622.854 -5.78833 -1.65034 0
M  V30 6624 H 626.68 -3.03185 0.176816 0
M  V30 6625 H 624.265 -1.4862 0.152501 0
M  V30 6626 H 626.147 -3.58648 -2.21246 0
M  V30 6627 H 624.822 -2.39098 -2.18206 0
M  V30 6628 H 623.729 -3.7297 -0.290556 0
M  V30 6629 H 625.062 -4.90556 -0.401908 0
M  V30 6630 N 626.714 -0.118576 -1.57153 0
M  V30 6631 C 627.624 0.845484 -2.18835 0
M  V30 6632 C 628.64 1.29299 -1.16438 0
M  V30 6633 O 629.816 1.35607 -1.48905 0
M  V30 6634 C 626.881 2.07795 -2.77529 0
M  V30 6635 C 625.942 1.6824 -3.9496 0
M  V30 6636 C 625.175 2.85612 -4.50845 0
M  V30 6637 O 625.398 4.01025 -4.05629 0
M  V30 6638 O 624.332 2.62721 -5.41536 0
M  V30 6639 H 628.158 0.350568 -3.0167 0
M  V30 6640 H 625.743 0.107013 -1.49016 0
M  V30 6641 H 627.625 2.79978 -3.14945 0
M  V30 6642 H 626.3 2.56294 -1.97725 0
M  V30 6643 H 625.207 0.931663 -3.62313 0
M  V30 6644 H 626.54 1.24484 -4.76198 0
M  V30 6645 N 628.193 1.56834 0.155195 0
M  V30 6646 C 629.103 2.009 1.21146 0
M  V30 6647 C 630.119 0.923029 1.475 0
M  V30 6648 O 631.295 1.23189 1.59331 0
M  V30 6649 C 628.36 2.37378 2.52691 0
M  V30 6650 C 627.421 3.59883 2.34057 0
M  V30 6651 C 626.654 3.94612 3.59329 0
M  V30 6652 O 626.877 3.30104 4.65175 0
M  V30 6653 O 625.811 4.87895 3.52479 0
M  V30 6654 H 629.637 2.9105 0.867371 0
M  V30 6655 H 627.222 1.44916 0.363298 0
M  V30 6656 H 629.104 2.61737 3.3026 0
M  V30 6657 H 627.779 1.50385 2.86646 0
M  V30 6658 H 626.686 3.40722 1.54465 0
M  V30 6659 H 628.019 4.47468 2.0502 0
M  V30 6660 N 629.671 -0.424282 1.51781 0
M  V30 6661 C 630.581 -1.54087 1.76902 0
M  V30 6662 C 631.597 -1.61249 0.653826 0
M  V30 6663 O 632.773 -1.78247 0.937552 0
M  V30 6664 C 629.838 -2.8996 1.90063 0
M  V30 6665 C 628.899 -2.92809 3.13945 0
M  V30 6666 C 628.132 -4.22201 3.26469 0
M  V30 6667 O 628.355 -5.15286 2.44616 0
M  V30 6668 O 627.289 -4.31599 4.1953 0
M  V30 6669 H 631.115 -1.358 2.71647 0
M  V30 6670 H 628.7 -0.608618 1.36441 0
M  V30 6671 H 630.582 -3.70575 2.0063 0
M  V30 6672 H 629.257 -3.08347 0.985067 0
M  V30 6673 H 628.164 -2.11102 3.08847 0
M  V30 6674 H 629.497 -2.79369 4.05233 0
M  V30 6675 N 631.149 -1.42148 -0.680565 0
M  V30 6676 C 632.374 -1.45901 -1.47403 0
M  V30 6677 C 632.799 -0.0700985 -1.87969 0
M  V30 6678 O 632.157 0.930145 -1.55621 0
M  V30 6679 C 632.205 -2.38661 -2.70321 0
M  V30 6680 O 631.309 -1.85399 -3.68376 0
M  V30 6681 H 630.65 -0.494565 -0.443059 0
M  V30 6682 H 633.18 -1.86774 -0.835251 0
M  V30 6683 H 633.19 -2.55046 -3.18458 0
M  V30 6684 H 631.865 -3.39571 -2.40134 0
M  V30 6685 H 630.442 -1.78541 -3.2738 0
M  V30 6686 N 632.627 0.916307 -1.28225 0
M  V30 6687 C 634.038 1.48024 -1.13779 0
M  V30 6688 C 634.389 1.94289 0.273139 0
M  V30 6689 O 633.514 1.82226 1.16716 0
M  V30 6690 C 634.109 2.69029 -2.05935 0
M  V30 6691 C 632.668 3.2161 -1.95561 0
M  V30 6692 C 631.815 1.94321 -1.97825 0
M  V30 6693 H 634.766 0.729272 -1.40951 0
M  V30 6694 H 634.787 3.44204 -1.62184 0
M  V30 6695 H 634.299 2.35325 -3.08616 0
M  V30 6696 H 632.4 3.60045 -0.959076 0
M  V30 6697 H 632.513 3.87032 -2.82388 0
M  V30 6698 H 630.877 2.1131 -1.42198 0
M  V30 6699 H 631.66 1.62917 -3.0218 0
M  V30 6700 N 634.105 1.10431 1.1244 0
M  V30 6701 C 635.345 0.856518 1.85589 0
M  V30 6702 C 635.709 -0.606905 1.82156 0
M  V30 6703 O 636.91 -0.97105 2.50647 0
M  V30 6704 C 635.181 1.38977 3.29272 0
M  V30 6705 S 636.74 1.27739 4.19795 0
M  V30 6706 H 633.558 0.309509 0.640098 0
M  V30 6707 H 636.16 1.40975 1.35449 0
M  V30 6708 H 634.864 2.44887 3.2933 0
M  V30 6709 H 634.395 0.833112 3.84477 0
M  V30 6710 H 636.41 0.235051 4.95643 0
M  V30 6711 N 635.583 -1.29855 0.893053 0
M  V30 6712 C 636.831 -1.9544 0.514566 0
M  V30 6713 C 637.152 -1.70795 -0.940959 0
M  V30 6714 O 636.422 -1.03601 -1.66264 0
M  V30 6715 H 635.002 -0.723137 0.187302 0
M  V30 6716 H 637.664 -1.58234 1.13789 0
M  V30 6717 H 636.76 -3.04341 0.691581 0
M  V30 6718 N 637.061 -0.65484 -1.43351 0
M  V30 6719 C 637.971 0.0363603 -2.34572 0
M  V30 6720 C 638.987 0.810432 -1.53974 0
M  V30 6721 O 640.163 0.757308 -1.86619 0
M  V30 6722 C 637.228 0.989733 -3.32273 0
M  V30 6723 C 636.289 0.212414 -4.28774 0
M  V30 6724 C 635.522 1.12038 -5.21808 0
M  V30 6725 O 635.745 2.35967 -5.19303 0
M  V30 6726 O 634.679 0.59191 -5.98982 0
M  V30 6727 H 638.505 -0.714527 -2.95175 0
M  V30 6728 H 636.09 -0.415029 -1.4352 0
M  V30 6729 H 637.972 1.53759 -3.92347 0
M  V30 6730 H 636.647 1.72082 -2.74171 0
M  V30 6731 H 635.554 -0.379062 -3.72175 0
M  V30 6732 H 636.887 -0.479138 -4.89862 0
M  V30 6733 N 638.539 1.52521 -0.396863 0
M  V30 6734 C 639.785 2.01971 0.183169 0
M  V30 6735 C 640.118 1.2825 1.45827 0
M  V30 6736 O 639.393 0.385179 1.90648 0
M  V30 6737 C 639.676 3.5736 0.443391 0
M  V30 6738 C 639.529 4.41743 -0.84753 0
M  V30 6739 C 640.848 4.22539 1.2308 0
M  V30 6740 H 637.967 0.734119 0.0650976 0
M  V30 6741 H 640.609 1.82519 -0.527918 0
M  V30 6742 H 638.759 3.74066 1.04914 0
M  V30 6743 H 640.431 4.36773 -1.48414 0
M  V30 6744 H 638.674 4.0845 -1.4612 0
M  V30 6745 H 639.345 5.48507 -0.620003 0
M  V30 6746 H 641.821 4.09857 0.718084 0
M  V30 6747 H 640.697 5.31227 1.38162 0
M  V30 6748 H 640.958 3.80675 2.24808 0
M  V30 6749 N 640.017 0.126909 1.57088 0
M  V30 6750 C 641.245 -0.53667 1.99819 0
M  V30 6751 C 641.66 -1.5972 1.00673 0
M  V30 6752 O 641.017 -1.825 0.000747365 0
M  V30 6753 C 641.068 -1.15563 3.42531 0
M  V30 6754 O 640.789 -0.137483 4.37884 0
M  V30 6755 C 642.29 -1.90176 4.00435 0
M  V30 6756 H 639.51 -0.141443 0.655923 0
M  V30 6757 H 642.054 0.215578 2.03361 0
M  V30 6758 H 640.209 -1.85861 3.39904 0
M  V30 6759 H 640.623 -0.588229 5.21191 0
M  V30 6760 H 642.097 -2.28801 5.02349 0
M  V30 6761 H 642.574 -2.78002 3.40017 0
M  V30 6762 H 643.18 -1.24623 4.06632 0
M  V30 6763 N 641.495 -1.56914 -0.146875 0
M  V30 6764 C 642.425 -2.01308 -1.1831 0
M  V30 6765 C 643.406 -0.892664 -1.44795 0
M  V30 6766 O 644.591 -1.16048 -1.55713 0
M  V30 6767 C 641.721 -2.3938 -2.51624 0
M  V30 6768 C 640.675 -3.54608 -2.3966 0
M  V30 6769 C 640.001 -3.78493 -3.77686 0
M  V30 6770 C 641.301 -4.87269 -1.88058 0
M  V30 6771 H 642.995 -2.88123 -0.813964 0
M  V30 6772 H 640.541 -1.38615 -0.3901 0
M  V30 6773 H 642.494 -2.69037 -3.24341 0
M  V30 6774 H 641.218 -1.49502 -2.90373 0
M  V30 6775 H 639.877 -3.25116 -1.69396 0
M  V30 6776 H 639.525 -2.85866 -4.13871 0
M  V30 6777 H 639.225 -4.56039 -3.70543 0
M  V30 6778 H 640.749 -4.10576 -4.51951 0
M  V30 6779 H 642.163 -5.15644 -2.50568 0
M  V30 6780 H 640.56 -5.68622 -1.91805 0
M  V30 6781 H 641.63 -4.77634 -0.836277 0
M  V30 6782 N 642.974 0.416227 -1.52004 0
M  V30 6783 C 643.921 1.50666 -1.74838 0
M  V30 6784 C 644.891 1.55245 -0.590599 0
M  V30 6785 O 646.076 1.71928 -0.827374 0
M  V30 6786 C 643.216 2.88185 -1.89851 0
M  V30 6787 C 642.329 2.92971 -3.17478 0
M  V30 6788 C 641.464 4.21745 -3.22962 0
M  V30 6789 C 640.503 4.20478 -4.4482 0
M  V30 6790 N 639.64 5.40811 -4.47736 0
M  V30 6791 H 644.48 1.30498 -2.67907 0
M  V30 6792 H 642.017 0.633568 -1.32757 0
M  V30 6793 H 643.975 3.68007 -1.96537 0
M  V30 6794 H 642.605 3.06865 -1.00169 0
M  V30 6795 H 641.657 2.05684 -3.19997 0
M  V30 6796 H 642.969 2.87899 -4.07328 0
M  V30 6797 H 642.123 5.09954 -3.28682 0
M  V30 6798 H 640.862 4.29503 -2.31038 0
M  V30 6799 H 639.867 3.30659 -4.39254 0
M  V30 6800 H 641.092 4.14366 -5.38031 0
M  V30 6801 H 639.038 5.4925 -3.58692 0
M  V30 6802 H 638.955 5.37705 -5.31422 0
M  V30 6803 H 640.223 6.30993 -4.57676 0
M  V30 6804 N 644.452 1.42507 0.673017 0
M  V30 6805 C 645.868 1.25472 0.986355 0
M  V30 6806 C 646.068 0.160181 2.00862 0
M  V30 6807 O 645.124 -0.467993 2.48125 0
M  V30 6808 C 646.437 2.61219 1.48947 0
M  V30 6809 C 647.985 2.68589 1.60715 0
M  V30 6810 C 648.46 4.04707 2.14422 0
M  V30 6811 N 649.951 4.0667 2.21752 0
M  V30 6812 C 650.686 5.0881 2.64386 0
M  V30 6813 N 650.182 6.21332 3.0646 0
M  V30 6814 N 651.975 4.96166 2.64151 0
M  V30 6815 H 644.126 2.124 -0.00378532 0
M  V30 6816 H 646.389 0.946046 0.0608367 0
M  V30 6817 H 646.095 3.42179 0.812812 0
M  V30 6818 H 645.969 2.85261 2.46791 0
M  V30 6819 H 648.356 1.87974 2.27486 0
M  V30 6820 H 648.437 2.48333 0.613552 0
M  V30 6821 H 648.081 4.8578 1.48258 0
M  V30 6822 H 648.011 4.22315 3.14575 0
M  V30 6823 H 650.502 3.25438 1.92089 0
M  V30 6824 H 650.815 6.95118 3.37684 0
M  V30 6825 H 649.16 6.24835 3.04313 0
M  V30 6826 H 652.351 4.07334 2.30644 0
M  V30 6827 H 652.524 5.759 2.97057 0
M  V30 6828 N 645.93 -0.909495 1.28709 0
M  V30 6829 C 647.207 -1.63865 1.06806 0
M  V30 6830 C 647.587 -2.07445 -0.391143 0
M  V30 6831 O 646.935 -1.82269 -1.37805 0
M  V30 6832 C 647.145 -2.82692 2.04661 0
M  V30 6833 C 648.493 -3.5361 2.35042 0
M  V30 6834 O 649.517 -2.92847 2.02779 0
M  V30 6835 O 648.376 -4.63131 2.90124 0
M  V30 6836 H 645.47 -0.719065 0.408502 0
M  V30 6837 H 648.016 -0.958424 1.40044 0
M  V30 6838 H 646.788 -2.47614 3.0299 0
M  V30 6839 H 646.411 -3.58426 1.72095 0
M  V30 6840 N 647.408 -1.11026 -1.11852 0
M  V30 6841 C 648.824 -0.843294 -1.35502 0
M  V30 6842 C 649.024 0.534179 -1.9429 0
M  V30 6843 O 648.08 1.28585 -2.17307 0
M  V30 6844 C 649.393 -1.94793 -2.29077 0
M  V30 6845 C 650.941 -1.97709 -2.42652 0
M  V30 6846 C 651.416 -3.07364 -3.39546 0
M  V30 6847 N 652.907 -3.0671 -3.47107 0
M  V30 6848 C 653.642 -3.88197 -4.22008 0
M  V30 6849 N 653.138 -4.79635 -4.99922 0
M  V30 6850 N 654.931 -3.76391 -4.17476 0
M  V30 6851 H 647.082 -1.99805 -0.720538 0
M  V30 6852 H 649.345 -0.868633 -0.379711 0
M  V30 6853 H 649.051 -2.93971 -1.93065 0
M  V30 6854 H 648.925 -1.84039 -3.29256 0
M  V30 6855 H 651.312 -0.991604 -2.77941 0
M  V30 6856 H 651.393 -2.1254 -1.4234 0
M  V30 6857 H 651.037 -4.06136 -3.04985 0
M  V30 6858 H 650.967 -2.89774 -4.39703 0
M  V30 6859 H 653.458 -2.40457 -2.91528 0
M  V30 6860 H 653.771 -5.38357 -5.54429 0
M  V30 6861 H 652.116 -4.8366 -4.99097 0
M  V30 6862 H 655.307 -3.04303 -3.55693 0
M  V30 6863 H 655.48 -4.40131 -4.75593 0
M  V30 6864 N 648.886 1.2938 -0.899927 0
M  V30 6865 C 650.111 2.00228 -0.540692 0
M  V30 6866 C 650.536 1.66909 0.867359 0
M  V30 6867 O 649.894 0.893824 1.57735 0
M  V30 6868 C 649.942 3.52921 -0.740232 0
M  V30 6869 O 649.046 4.11879 0.207154 0
M  V30 6870 H 648.387 0.629505 -0.211233 0
M  V30 6871 H 650.917 1.6487 -1.21158 0
M  V30 6872 H 650.927 4.0287 -0.644973 0
M  V30 6873 H 649.602 3.76508 -1.76677 0
M  V30 6874 H 648.179 3.72845 0.0643315 0
M  V30 6875 N 650.364 0.662433 1.43002 0
M  V30 6876 C 651.611 0.179591 2.01702 0
M  V30 6877 C 651.939 -1.20964 1.52309 0
M  V30 6878 O 651.194 -1.82343 0.7106 0
M  V30 6879 C 651.493 0.149363 3.57088 0
M  V30 6880 C 651.159 1.48158 4.25864 0
M  V30 6881 C 649.821 1.84638 4.44367 0
M  V30 6882 C 652.173 2.35953 4.64732 0
M  V30 6883 C 649.501 3.08561 4.99006 0
M  V30 6884 C 651.853 3.59176 5.20745 0
M  V30 6885 C 650.517 3.95841 5.37463 0
M  V30 6886 H 649.787 0.0657172 0.73808 0
M  V30 6887 H 652.434 0.854968 1.71355 0
M  V30 6888 H 650.739 -0.609491 3.8703 0
M  V30 6889 H 652.436 -0.241241 4.00274 0
M  V30 6890 H 649.026 1.18777 4.11813 0
M  V30 6891 H 653.21 2.09058 4.50121 0
M  V30 6892 H 648.466 3.37005 5.10135 0
M  V30 6893 H 652.64 4.27417 5.49807 0
M  V30 6894 H 650.267 4.91942 5.79566 0
M  V30 6895 N 651.842 -1.52309 0.404946 0
M  V30 6896 C 653.067 -2.06666 -0.1743 0
M  V30 6897 C 653.492 -1.27341 -1.38441 0
M  V30 6898 O 652.85 -0.302539 -1.78758 0
M  V30 6899 C 652.898 -3.57014 -0.507262 0
M  V30 6900 O 652.002 -3.80144 -1.59889 0
M  V30 6901 H 651.343 -0.663807 -0.0160273 0
M  V30 6902 H 653.873 -1.96297 0.576937 0
M  V30 6903 H 653.883 -4.00724 -0.767098 0
M  V30 6904 H 652.558 -4.14184 0.377368 0
M  V30 6905 H 651.135 -3.48316 -1.33155 0
M  V30 6906 N 653.32 -0.135238 -1.57019 0
M  V30 6907 C 654.23 0.822226 -2.19719 0
M  V30 6908 C 655.246 1.28057 -1.17802 0
M  V30 6909 O 656.422 1.3402 -1.50335 0
M  V30 6910 C 653.487 2.0484 -2.79717 0
M  V30 6911 C 652.548 1.64042 -3.96723 0
M  V30 6912 C 651.781 2.80814 -4.53849 0
M  V30 6913 O 652.004 3.967 -4.0986 0
M  V30 6914 O 650.938 2.56963 -5.44292 0
M  V30 6915 H 654.764 0.318552 -3.02025 0
M  V30 6916 H 652.349 0.0912021 -1.49121 0
M  V30 6917 H 654.231 2.76622 -3.17897 0
M  V30 6918 H 652.906 2.54182 -2.00432 0
M  V30 6919 H 651.813 0.893182 -3.63281 0
M  V30 6920 H 653.146 1.19426 -4.77492 0
M  V30 6921 N 654.798 1.5699 0.138552 0
M  V30 6922 C 655.748 1.9532 1.17619 0
M  V30 6923 C 656.732 0.825545 1.38107 0
M  V30 6924 O 657.924 1.08908 1.39528 0
M  V30 6925 C 655.053 2.34451 2.50774 0
M  V30 6926 C 654.139 3.53805 2.33844 0
M  V30 6927 N 654.53 4.70088 1.86685 0
M  V30 6928 C 652.828 3.59055 2.64567 0
M  V30 6929 C 653.529 5.52165 1.82998 0
M  V30 6930 N 652.505 4.94108 2.26624 0
M  V30 6931 H 656.307 2.82694 0.803809 0
M  V30 6932 H 653.821 1.5866 0.346519 0
M  V30 6933 H 655.818 2.60119 3.25797 0
M  V30 6934 H 654.478 1.48431 2.88788 0
M  V30 6935 H 655.489 4.93681 1.56523 0
M  V30 6936 H 652.166 2.83596 3.06398 0
M  V30 6937 H 653.556 6.55407 1.47957 0
M  V30 6938 N 656.276 -0.40816 1.52223 0
M  V30 6939 C 657.553 -1.16807 1.56893 0
M  V30 6940 C 657.933 -2.08169 0.350537 0
M  V30 6941 O 657.281 -2.18684 -0.662536 0
M  V30 6942 C 657.491 -1.94451 2.8981 0
M  V30 6943 C 658.839 -2.50484 3.42845 0
M  V30 6944 O 659.863 -2.0463 2.91556 0
M  V30 6945 O 658.722 -3.34192 4.3241 0
M  V30 6946 H 655.816 -0.533382 0.632007 0
M  V30 6947 H 658.362 -0.414862 1.64551 0
M  V30 6948 H 657.134 -1.27527 3.69936 0
M  V30 6949 H 656.757 -2.76775 2.85449 0
M  V30 6950 N 657.755 -1.42862 -0.66545 0
M  V30 6951 C 658.685 -1.49867 -1.79059 0
M  V30 6952 C 659.666 -0.354394 -1.66367 0
M  V30 6953 O 660.851 -0.569969 -1.85647 0
M  V30 6954 C 657.981 -1.40943 -3.17415 0
M  V30 6955 C 656.935 -2.53495 -3.44854 0
M  V30 6956 C 656.261 -2.29626 -4.82883 0
M  V30 6957 C 657.561 -3.95781 -3.40815 0
M  V30 6958 H 659.255 -2.44037 -1.73453 0
M  V30 6959 H 656.801 -1.17456 -0.833071 0
M  V30 6960 H 658.754 -1.4445 -3.95869 0
M  V30 6961 H 657.478 -0.432716 -3.23721 0
M  V30 6962 H 656.137 -2.4932 -2.68766 0
M  V30 6963 H 655.785 -1.30226 -4.8585 0
M  V30 6964 H 655.485 -3.05065 -5.02204 0
M  V30 6965 H 657.009 -2.34897 -5.63609 0
M  V30 6966 H 658.423 -4.01508 -4.09224 0
M  V30 6967 H 656.82 -4.71148 -3.71672 0
M  V30 6968 H 657.89 -4.21786 -2.39216 0
M  V30 6969 N 659.233 0.902656 -1.29189 0
M  V30 6970 C 660.196 1.98797 -1.14071 0
M  V30 6971 C 661.196 1.60615 -0.0770549 0
M  V30 6972 O 662.386 1.71165 -0.323753 0
M  V30 6973 C 659.518 3.32688 -0.743739 0
M  V30 6974 H 660.711 2.13637 -2.10473 0
M  V30 6975 H 658.264 1.08678 -1.12334 0
M  V30 6976 H 658.999 3.23549 0.220554 0
M  V30 6977 H 658.784 3.61765 -1.51223 0
M  V30 6978 H 660.274 4.12337 -0.660935 0
M  V30 6979 N 660.711 1.11618 1.11262 0
M  V30 6980 C 661.643 0.734015 2.17129 0
M  V30 6981 C 662.656 -0.235243 1.61091 0
M  V30 6982 O 663.845 -0.0178597 1.78491 0
M  V30 6983 C 660.945 0.0643682 3.38839 0
M  V30 6984 C 660.118 1.06092 4.24339 0
M  V30 6985 C 659.177 0.420482 5.24517 0
M  V30 6986 O 658.203 1.07495 5.58957 0
M  V30 6987 N 659.405 -0.815828 5.74739 0
M  V30 6988 H 662.17 1.64492 2.50524 0
M  V30 6989 H 659.731 1.00664 1.26801 0
M  V30 6990 H 661.723 -0.375851 4.02951 0
M  V30 6991 H 660.293 -0.749147 3.03491 0
M  V30 6992 H 659.513 1.67903 3.56654 0
M  V30 6993 H 660.801 1.73507 4.78302 0
M  V30 6994 H 660.199 -1.36668 5.48943 0
M  V30 6995 H 658.756 -1.199 6.40677 0
M  V30 6996 N 662.189 -1.289 0.906776 0
M  V30 6997 C 663.119 -2.29932 0.406659 0
M  V30 6998 C 664.1 -1.6189 -0.522061 0
M  V30 6999 O 665.285 -1.8935 -0.431283 0
M  V30 7000 C 662.415 -3.45425 -0.360366 0
M  V30 7001 C 661.369 -4.25316 0.478574 0
M  V30 7002 C 660.695 -5.33076 -0.416373 0
M  V30 7003 C 661.995 -4.92739 1.7322 0
M  V30 7004 H 663.689 -2.72013 1.25097 0
M  V30 7005 H 661.235 -1.30768 0.602977 0
M  V30 7006 H 663.188 -4.15186 -0.721029 0
M  V30 7007 H 661.912 -3.02206 -1.23852 0
M  V30 7008 H 660.571 -3.57273 0.821662 0
M  V30 7009 H 660.219 -4.86101 -1.29287 0
M  V30 7010 H 659.919 -5.8743 0.141309 0
M  V30 7011 H 661.443 -6.05686 -0.773072 0
M  V30 7012 H 662.857 -5.54898 1.44086 0
M  V30 7013 H 661.254 -5.57057 2.23175 0
M  V30 7014 H 662.324 -4.17625 2.46408 0
M  V30 7015 N 663.667 -0.670007 -1.42649 0
M  V30 7016 C 665.083 -0.33911 -1.55956 0
M  V30 7017 C 665.283 1.1558 -1.65056 0
M  V30 7018 O 664.339 1.94111 -1.61485 0
M  V30 7019 C 665.652 -1.06522 -2.812 0
M  V30 7020 C 667.2 -1.04708 -2.94966 0
M  V30 7021 C 667.675 -1.75442 -4.23065 0
M  V30 7022 N 669.166 -1.72286 -4.29967 0
M  V30 7023 C 669.901 -2.23877 -5.27889 0
M  V30 7024 N 669.397 -2.83829 -6.31991 0
M  V30 7025 N 671.19 -2.14279 -5.19654 0
M  V30 7026 H 663.341 -1.6399 -1.34986 0
M  V30 7027 H 665.604 -0.690603 -0.649439 0
M  V30 7028 H 665.31 -2.12033 -2.80597 0
M  V30 7029 H 665.184 -0.627398 -3.71946 0
M  V30 7030 H 667.571 -0.000315966 -2.951 0
M  V30 7031 H 667.652 -1.52374 -2.05465 0
M  V30 7032 H 667.296 -2.80084 -4.23693 0
M  V30 7033 H 667.226 -1.25229 -5.11493 0
M  V30 7034 H 669.717 -1.28554 -3.55362 0
M  V30 7035 H 670.03 -3.20827 -7.03057 0
M  V30 7036 H 668.375 -2.87896 -6.32567 0
M  V30 7037 H 671.566 -1.67135 -4.37245 0
M  V30 7038 H 671.739 -2.54792 -5.95806 0
M  V30 7039 N 665.145 1.52092 -0.413018 0
M  V30 7040 C 666.37 2.06756 0.163338 0
M  V30 7041 C 666.795 1.28073 1.37764 0
M  V30 7042 O 666.153 0.312015 1.78595 0
M  V30 7043 C 666.201 3.57278 0.488322 0
M  V30 7044 O 665.305 3.80986 1.57871 0
M  V30 7045 H 664.646 0.663882 0.0125068 0
M  V30 7046 H 667.176 1.95988 -0.587339 0
M  V30 7047 H 667.186 4.01125 0.745836 0
M  V30 7048 H 665.861 4.13978 -0.399327 0
M  V30 7049 H 664.438 3.49017 1.31306 0
M  V30 7050 N 666.623 0.143563 1.56945 0
M  V30 7051 C 667.533 -0.810562 2.20152 0
M  V30 7052 C 668.549 -1.27431 1.1848 0
M  V30 7053 O 669.725 -1.33221 1.51044 0
M  V30 7054 C 666.79 -2.03353 2.80799 0
M  V30 7055 C 665.851 -1.61936 3.97587 0
M  V30 7056 C 665.084 -2.78403 4.55332 0
M  V30 7057 O 665.307 -3.94521 4.11958 0
M  V30 7058 O 664.241 -2.54073 5.45647 0
M  V30 7059 H 668.067 -0.30253 3.02189 0
M  V30 7060 H 665.652 -0.0832925 1.49168 0
M  V30 7061 H 667.534 -2.74932 3.19359 0
M  V30 7062 H 666.209 -2.53116 2.01777 0
M  V30 7063 H 665.116 -0.873904 3.6375 0
M  V30 7064 H 666.449 -1.16892 4.78118 0
M  V30 7065 N 668.101 -1.57061 -0.130224 0
M  V30 7066 C 669.347 -1.8453 -0.841216 0
M  V30 7067 C 669.68 -0.727666 -1.80052 0
M  V30 7068 O 668.955 0.267419 -1.92653 0
M  V30 7069 C 669.238 -3.22553 -1.60099 0
M  V30 7070 C 669.091 -4.44901 -0.662048 0
M  V30 7071 C 670.41 -3.58003 -2.55973 0
M  V30 7072 H 667.529 -0.671215 -0.304366 0
M  V30 7073 H 670.171 -1.89705 -0.105821 0
M  V30 7074 H 668.321 -3.18272 -2.22789 0
M  V30 7075 H 669.993 -4.61278 -0.0448559 0
M  V30 7076 H 668.236 -4.33791 0.0272253 0
M  V30 7077 H 668.907 -5.3812 -1.23006 0
M  V30 7078 H 671.383 -3.63002 -2.03393 0
M  V30 7079 H 670.259 -4.55576 -3.06172 0
M  V30 7080 H 670.52 -2.84833 -3.38116 0
M  V30 7081 N 669.579 0.400081 -1.52437 0
M  V30 7082 C 670.542 1.4707 -1.75793 0
M  V30 7083 C 671.542 1.48036 -0.627856 0
M  V30 7084 O 672.732 1.49401 -0.895817 0
M  V30 7085 C 669.864 2.86427 -1.84858 0
M  V30 7086 H 671.057 1.27649 -2.71377 0
M  V30 7087 H 668.61 0.631141 -1.42991 0
M  V30 7088 H 669.345 3.11207 -0.912194 0
M  V30 7089 H 669.13 2.87128 -2.6702 0
M  V30 7090 H 670.62 3.64023 -2.04638 0
M  V30 7091 N 671.057 1.43213 0.657864 0
M  V30 7092 C 672.282 1.48227 1.45064 0
M  V30 7093 C 672.707 0.0999939 1.87834 0
M  V30 7094 O 672.065 -0.905269 1.57081 0
M  V30 7095 C 672.113 2.42931 2.6649 0
M  V30 7096 O 671.217 1.91237 3.6538 0
M  V30 7097 H 670.558 0.501551 0.435135 0
M  V30 7098 H 673.088 1.8808 0.805431 0
M  V30 7099 H 673.098 2.6008 3.1436 0
M  V30 7100 H 671.773 3.43348 2.34701 0
M  V30 7101 H 670.35 1.83726 3.24498 0
M  V30 7102 N 672.536 -0.895792 1.29666 0
M  V30 7103 C 673.784 -1.64339 1.17631 0
M  V30 7104 C 674.105 -1.93099 -0.271643 0
M  V30 7105 O 673.375 -1.55981 -1.18518 0
M  V30 7106 H 671.955 -0.609162 0.432354 0
M  V30 7107 H 674.617 -1.07389 1.62646 0
M  V30 7108 H 673.713 -2.59815 1.72924 0
M  V30 7109 N 674.014 -1.12206 -1.10668 0
M  V30 7110 C 674.944 -0.810086 -2.18997 0
M  V30 7111 C 675.925 0.225065 -1.68604 0
M  V30 7112 O 677.11 0.086783 -1.94006 0
M  V30 7113 C 674.24 -0.261262 -3.46316 0
M  V30 7114 C 673.194 -1.2292 -4.09969 0
M  V30 7115 C 672.52 -0.540713 -5.31959 0
M  V30 7116 C 673.82 -2.58295 -4.53962 0
M  V30 7117 H 675.514 -1.7159 -2.45352 0
M  V30 7118 H 673.06 -0.82646 -1.17922 0
M  V30 7119 H 675.013 -0.0307522 -4.21389 0
M  V30 7120 H 673.737 0.679879 -3.19445 0
M  V30 7121 H 672.396 -1.44548 -3.369 0
M  V30 7122 H 672.044 0.405492 -5.01363 0
M  V30 7123 H 671.744 -1.18637 -5.75499 0
M  V30 7124 H 673.268 -0.319184 -6.09765 0
M  V30 7125 H 674.682 -2.40709 -5.20319 0
M  V30 7126 H 673.079 -3.18916 -5.08343 0
M  V30 7127 H 674.149 -3.16918 -3.67002 0
M  V30 7128 N 675.492 1.28418 -0.913599 0
M  V30 7129 C 676.424 2.26368 -0.359169 0
M  V30 7130 C 677.437 1.54858 0.502285 0
M  V30 7131 O 678.626 1.75659 0.31719 0
M  V30 7132 C 675.726 3.35112 0.50526 0
M  V30 7133 C 674.899 4.36126 -0.333648 0
M  V30 7134 C 673.958 5.24134 0.465845 0
M  V30 7135 O 672.984 5.6907 -0.121538 0
M  V30 7136 N 674.186 5.52892 1.76891 0
M  V30 7137 H 676.951 2.74579 -1.2011 0
M  V30 7138 H 674.512 1.41898 -0.779532 0
M  V30 7139 H 676.504 3.90926 1.04684 0
M  V30 7140 H 675.074 2.86611 1.2479 0
M  V30 7141 H 674.294 3.79776 -1.0566 0
M  V30 7142 H 675.582 5.00638 -0.907669 0
M  V30 7143 H 674.98 5.18217 2.26865 0
M  V30 7144 H 673.537 6.11464 2.25732 0
M  V30 7145 N 676.97 0.677563 1.42291 0
M  V30 7146 C 678.195 0.207901 2.06355 0
M  V30 7147 C 678.62 -1.12723 1.50583 0
M  V30 7148 O 677.978 -1.70171 0.62543 0
M  V30 7149 C 678.026 0.156489 3.6026 0
M  V30 7150 O 677.13 -0.874162 4.03029 0
M  V30 7151 H 676.471 0.106056 0.655475 0
M  V30 7152 H 679.001 0.927354 1.82377 0
M  V30 7153 H 679.011 -0.0187258 4.07996 0
M  V30 7154 H 677.686 1.13101 4.00226 0
M  V30 7155 H 676.263 -0.669764 3.66836 0
M  V30 7156 N 678.448 -1.51871 0.421078 0
M  V30 7157 C 679.411 -2.25914 -0.386712 0
M  V30 7158 C 680.411 -1.28733 -0.963555 0
M  V30 7159 O 681.601 -1.52579 -0.840556 0
M  V30 7160 C 678.733 -3.03853 -1.54551 0
M  V30 7161 H 679.926 -2.98754 0.261978 0
M  V30 7162 H 677.479 -1.5533 0.173862 0
M  V30 7163 H 678.214 -2.35392 -2.23072 0
M  V30 7164 H 677.999 -3.75215 -1.13824 0
M  V30 7165 H 679.489 -3.59984 -2.11663 0
M  V30 7166 N 679.926 -0.151884 -1.56866 0
M  V30 7167 C 681.154 0.504813 -2.00647 0
M  V30 7168 C 681.569 1.58098 -1.03201 0
M  V30 7169 O 680.926 1.82476 -0.0297814 0
M  V30 7170 C 680.977 1.10099 -3.44326 0
M  V30 7171 O 680.698 0.0678021 -4.38048 0
M  V30 7172 C 682.199 1.83782 -4.03409 0
M  V30 7173 H 679.419 0.130989 -0.65809 0
M  V30 7174 H 681.963 -0.247903 -2.02992 0
M  V30 7175 H 680.118 1.8043 -3.42817 0
M  V30 7176 H 680.532 0.505237 -5.22061 0
M  V30 7177 H 682.006 2.2078 -5.05925 0
M  V30 7178 H 682.483 2.72557 -3.44397 0
M  V30 7179 H 683.089 1.18138 -4.08563 0
M  V30 7180 N 681.404 1.57128 0.121893 0
M  V30 7181 C 682.354 1.96556 1.15541 0
M  V30 7182 C 683.338 0.840147 1.37224 0
M  V30 7183 O 684.53 1.10382 1.38365 0
M  V30 7184 C 681.659 2.37097 2.48274 0
M  V30 7185 C 680.745 3.56265 2.30078 0
M  V30 7186 N 681.136 4.72041 1.81688 0
M  V30 7187 C 679.434 3.61841 2.60744 0
M  V30 7188 C 680.135 5.54075 1.77132 0
M  V30 7189 N 679.111 4.96483 2.21371 0
M  V30 7190 H 682.913 2.83531 0.77378 0
M  V30 7191 H 680.427 1.59019 0.329672 0
M  V30 7192 H 682.424 2.6356 3.2302 0
M  V30 7193 H 681.084 1.51486 2.87197 0
M  V30 7194 H 682.095 4.95313 1.51278 0
M  V30 7195 H 678.772 2.8683 3.03373 0
M  V30 7196 H 680.162 6.56939 1.40998 0
M  V30 7197 N 682.882 -0.391992 1.52647 0
M  V30 7198 C 684.293 -0.970064 1.5952 0
M  V30 7199 C 684.644 -1.91059 0.446207 0
M  V30 7200 O 683.769 -2.12062 -0.431125 0
M  V30 7201 C 684.364 -1.76614 2.89125 0
M  V30 7202 C 682.923 -2.29396 2.9842 0
M  V30 7203 C 682.07 -1.09864 2.54608 0
M  V30 7204 H 685.021 -0.171638 1.57769 0
M  V30 7205 H 685.042 -2.62511 2.75442 0
M  V30 7206 H 684.554 -1.08135 3.72731 0
M  V30 7207 H 682.655 -3.01196 2.19344 0
M  V30 7208 H 682.768 -2.59088 4.03002 0
M  V30 7209 H 681.132 -1.45777 2.08857 0
M  V30 7210 H 681.915 -0.429249 3.40606 0
M  V30 7211 N 684.36 -1.4356 -0.65026 0
M  V30 7212 C 685.771 -1.40324 -1.2315 0
M  V30 7213 C 686.122 -0.108812 -1.95898 0
M  V30 7214 O 685.247 0.79163 -2.01401 0
M  V30 7215 C 685.842 -2.54195 -2.23987 0
M  V30 7216 C 684.401 -2.54215 -2.77582 0
M  V30 7217 C 683.548 -2.31752 -1.5227 0
M  V30 7218 H 686.499 -1.52418 -0.442095 0
M  V30 7219 H 686.52 -2.25854 -3.0622 0
M  V30 7220 H 686.032 -3.48392 -1.71011 0
M  V30 7221 H 684.133 -1.63907 -3.34612 0
M  V30 7222 H 684.246 -3.52081 -3.24925 0
M  V30 7223 H 682.61 -1.80476 -1.79723 0
M  V30 7224 H 683.393 -3.28037 -1.01225 0
M  V30 7225 N 685.838 0.888903 -1.30139 0
M  V30 7226 C 687.086 1.63713 -1.18501 0
M  V30 7227 C 687.407 1.9324 0.261399 0
M  V30 7228 O 686.677 1.56608 1.17689 0
M  V30 7229 H 685.257 0.606861 -0.435579 0
M  V30 7230 H 687.919 1.06525 -1.63213 0
M  V30 7231 H 687.015 2.58894 -1.743 0
M  V30 7232 N 687.317 1.12792 1.10072 0
M  V30 7233 C 688.565 0.883796 1.81751 0
M  V30 7234 C 688.886 -0.591891 1.858 0
M  V30 7235 O 688.156 -1.43017 1.33876 0
M  V30 7236 H 686.736 0.323978 0.673088 0
M  V30 7237 H 689.398 1.42314 1.33164 0
M  V30 7238 H 688.494 1.26863 2.85153 0
M  V30 7239 N 688.795 -1.27931 0.920396 0
M  V30 7240 C 690.023 -1.98805 0.573087 0
M  V30 7241 C 690.438 -1.68724 -0.847201 0
M  V30 7242 O 689.795 -0.943699 -1.56207 0
M  V30 7243 C 689.846 -3.52971 0.780633 0
M  V30 7244 O 689.567 -3.81994 2.14504 0
M  V30 7245 C 691.068 -4.411 0.44105 0
M  V30 7246 H 688.288 -0.634651 0.21785 0
M  V30 7247 H 690.832 -1.62965 1.23542 0
M  V30 7248 H 688.987 -3.87048 0.165204 0
M  V30 7249 H 689.401 -4.76609 2.18962 0
M  V30 7250 H 690.875 -5.48312 0.637006 0
M  V30 7251 H 691.352 -4.34758 -0.62306 0
M  V30 7252 H 691.958 -4.12532 1.0343 0
M  V30 7253 N 690.273 -0.685099 -1.4193 0
M  V30 7254 C 691.183 -0.013404 -2.34596 0
M  V30 7255 C 692.199 0.777589 -1.55658 0
M  V30 7256 O 693.375 0.717553 -1.88184 0
M  V30 7257 C 690.44 0.919031 -3.34297 0
M  V30 7258 C 689.501 0.121417 -4.29128 0
M  V30 7259 C 688.734 1.00944 -5.24067 0
M  V30 7260 O 688.957 2.24898 -5.24192 0
M  V30 7261 O 687.891 0.464724 -6.00103 0
M  V30 7262 H 691.717 -0.776978 -2.93593 0
M  V30 7263 H 689.302 -0.445379 -1.42607 0
M  V30 7264 H 691.184 1.45402 -3.9552 0
M  V30 7265 H 689.859 1.66228 -2.77759 0
M  V30 7266 H 688.766 -0.45792 -3.71287 0
M  V30 7267 H 690.099 -0.582937 -4.88736 0
M  V30 7268 N 691.751 1.51645 -0.429126 0
M  V30 7269 C 693.162 1.86665 0.0359003 0
M  V30 7270 C 693.513 1.34677 1.42676 0
M  V30 7271 O 692.638 0.694195 2.04963 0
M  V30 7272 C 693.233 3.38724 0.0719221 0
M  V30 7273 C 691.792 3.7331 0.481336 0
M  V30 7274 C 690.939 2.75313 -0.331329 0
M  V30 7275 H 693.89 1.44987 -0.645333 0
M  V30 7276 H 693.911 3.7011 0.883118 0
M  V30 7277 H 693.423 3.76532 -0.940495 0
M  V30 7278 H 691.524 3.41088 1.49966 0
M  V30 7279 H 691.637 4.78631 0.211837 0
M  V30 7280 H 690.001 2.53839 0.209204 0
M  V30 7281 H 690.784 3.15963 -1.34247 0
M  V30 7282 N 693.229 0.160201 1.56784 0
M  V30 7283 C 694.64 -0.358417 1.83227 0
M  V30 7284 C 694.991 -1.63831 1.07952 0
M  V30 7285 O 694.116 -2.13885 0.328995 0
M  V30 7286 C 694.711 -0.657058 3.32368 0
M  V30 7287 C 693.27 -1.12015 3.59346 0
M  V30 7288 C 692.417 -0.15015 2.76893 0
M  V30 7289 H 695.368 0.384669 1.53967 0
M  V30 7290 H 695.389 -1.51033 3.49241 0
M  V30 7291 H 694.901 0.274647 3.87127 0
M  V30 7292 H 693.002 -2.06734 3.09987 0
M  V30 7293 H 693.115 -1.037 4.67743 0
M  V30 7294 H 691.479 -0.645361 2.46388 0
M  V30 7295 H 692.262 0.775379 3.34429 0
M  V30 7296 N 694.707 -1.5719 -0.113559 0
M  V30 7297 C 696.123 -1.52607 -0.467253 0
M  V30 7298 C 696.323 -0.874058 -1.81556 0
M  V30 7299 O 695.379 -0.458703 -2.48299 0
M  V30 7300 C 696.692 -2.97363 -0.446736 0
M  V30 7301 C 698.24 -3.08482 -0.529903 0
M  V30 7302 C 698.715 -4.54809 -0.539721 0
M  V30 7303 N 700.206 -4.59284 -0.601005 0
M  V30 7304 C 700.941 -5.69927 -0.630138 0
M  V30 7305 N 700.437 -6.90051 -0.616589 0
M  V30 7306 N 702.23 -5.5805 -0.673558 0
M  V30 7307 H 694.381 -1.97958 0.769819 0
M  V30 7308 H 696.644 -0.90428 0.284572 0
M  V30 7309 H 696.35 -3.48458 0.47643 0
M  V30 7310 H 696.224 -3.55086 -1.27254 0
M  V30 7311 H 698.611 -2.57386 -1.44349 0
M  V30 7312 H 698.692 -2.53744 0.323695 0
M  V30 7313 H 698.336 -5.06552 0.369843 0
M  V30 7314 H 698.266 -5.07364 -1.41028 0
M  V30 7315 H 700.757 -3.72822 -0.617419 0
M  V30 7316 H 701.07 -7.70132 -0.641592 0
M  V30 7317 H 699.415 -6.92543 -0.583927 0
M  V30 7318 H 702.606 -4.63112 -0.681544 0
M  V30 7319 H 702.779 -6.44286 -0.692794 0
M  V30 7320 N 696.185 0.383891 -1.52853 0
M  V30 7321 C 697.596 0.961591 -1.60032 0
M  V30 7322 C 697.947 1.90819 -0.456333 0
M  V30 7323 O 697.072 2.12288 0.419873 0
M  V30 7324 C 697.667 1.75078 -2.90057 0
M  V30 7325 C 696.226 2.2781 -2.99632 0
M  V30 7326 C 695.373 1.08512 -2.55187 0
M  V30 7327 H 698.324 0.163269 -1.57858 0
M  V30 7328 H 698.345 2.61046 -2.7683 0
M  V30 7329 H 697.857 1.06157 -3.73299 0
M  V30 7330 H 695.958 3.00028 -2.20939 0
M  V30 7331 H 696.071 2.56947 -4.0437 0
M  V30 7332 H 694.435 1.44667 -2.09627 0
M  V30 7333 H 695.218 0.41118 -3.40829 0
M  V30 7334 N 697.663 1.43903 0.642637 0
M  V30 7335 C 699.079 1.27536 0.959519 0
M  V30 7336 C 699.279 0.202751 2.00477 0
M  V30 7337 O 698.335 -0.415256 2.49062 0
M  V30 7338 C 699.648 2.6432 1.43372 0
M  V30 7339 C 701.196 2.71937 1.54981 0
M  V30 7340 C 701.671 4.09164 2.05789 0
M  V30 7341 N 703.162 4.11282 2.13076 0
M  V30 7342 C 703.897 5.14303 2.53534 0
M  V30 7343 N 703.393 6.27693 2.93212 0
M  V30 7344 N 705.186 5.01657 2.53567 0
M  V30 7345 H 697.337 2.12344 -0.0488376 0
M  V30 7346 H 699.6 0.947124 0.0407559 0
M  V30 7347 H 699.306 3.43826 0.740048 0
M  V30 7348 H 699.18 2.90432 2.40685 0
M  V30 7349 H 701.567 1.92757 2.23448 0
M  V30 7350 H 701.648 2.49578 0.560739 0
M  V30 7351 H 701.292 4.88815 1.37921 0
M  V30 7352 H 701.222 4.28893 3.05546 0
M  V30 7353 H 703.713 3.2944 1.85143 0
M  V30 7354 H 704.026 7.02125 3.22863 0
M  V30 7355 H 702.371 6.31149 2.90991 0
M  V30 7356 H 705.562 4.12134 2.21952 0
M  V30 7357 H 705.735 5.82072 2.84774 0
M  V30 7358 N 699.141 -0.881989 1.30609 0
M  V30 7359 C 700.104 -1.96957 1.1722 0
M  V30 7360 C 701.104 -1.60472 0.102598 0
M  V30 7361 O 702.294 -1.70628 0.350943 0
M  V30 7362 C 699.426 -3.31463 0.796572 0
M  V30 7363 H 700.619 -2.10262 2.13846 0
M  V30 7364 H 698.172 -1.06877 1.14048 0
M  V30 7365 H 698.907 -3.23859 -0.169053 0
M  V30 7366 H 698.692 -3.59314 1.56959 0
M  V30 7367 H 700.182 -4.11233 0.72645 0
M  V30 7368 N 700.619 -1.13374 -1.09472 0
M  V30 7369 C 701.867 -0.893422 -1.8128 0
M  V30 7370 C 702.188 0.582029 -1.86111 0
M  V30 7371 O 701.458 1.42305 -1.34633 0
M  V30 7372 H 700.038 -0.327543 -0.67136 0
M  V30 7373 H 702.7 -1.43018 -1.32408 0
M  V30 7374 H 701.796 -1.28374 -2.84476 0
M  V30 7375 N 702.098 1.27442 -0.927168 0
M  V30 7376 C 703.323 1.99036 -0.583042 0
M  V30 7377 C 703.748 1.68711 0.83176 0
M  V30 7378 O 703.106 0.927081 1.55804 0
M  V30 7379 C 703.154 3.51271 -0.814925 0
M  V30 7380 O 702.258 4.12226 0.119742 0
M  V30 7381 H 701.599 0.624883 -0.224538 0
M  V30 7382 H 704.129 1.62263 -1.24628 0
M  V30 7383 H 704.139 4.01411 -0.730282 0
M  V30 7384 H 702.814 3.72676 -1.84623 0
M  V30 7385 H 701.391 3.72897 -0.0147688 0
M  V30 7386 N 703.576 0.692616 1.41565 0
M  V30 7387 C 704.539 0.0344174 2.29174 0
M  V30 7388 C 705.539 -0.710961 1.44229 0
M  V30 7389 O 706.729 -0.546293 1.65412 0
M  V30 7390 C 703.861 -0.961682 3.27054 0
M  V30 7391 H 705.054 0.805755 2.88873 0
M  V30 7392 H 702.607 0.455947 1.49502 0
M  V30 7393 H 703.342 -1.76089 2.72329 0
M  V30 7394 H 703.127 -0.430375 3.89731 0
M  V30 7395 H 704.617 -1.4201 3.92712 0
M  V30 7396 N 705.054 -1.51416 0.437162 0
M  V30 7397 C 706.004 -2.24599 -0.392311 0
M  V30 7398 C 706.988 -1.2682 -0.990221 0
M  V30 7399 O 708.18 -1.51912 -0.908391 0
M  V30 7400 C 705.309 -3.09134 -1.49301 0
M  V30 7401 C 704.395 -4.14342 -0.904503 0
M  V30 7402 N 704.786 -5.0578 -0.0451511 0
M  V30 7403 C 703.084 -4.30323 -1.1721 0
M  V30 7404 C 703.785 -5.81 0.285344 0
M  V30 7405 N 702.761 -5.42591 -0.330993 0
M  V30 7406 H 706.563 -2.92655 0.270221 0
M  V30 7407 H 704.077 -1.60476 0.249226 0
M  V30 7408 H 706.074 -3.6014 -2.10011 0
M  V30 7409 H 704.734 -2.42622 -2.15788 0
M  V30 7410 H 705.745 -5.16903 0.321271 0
M  V30 7411 H 702.422 -3.75037 -1.83448 0
M  V30 7412 H 703.812 -6.64646 0.984626 0
M  V30 7413 N 706.532 -0.168513 -1.56696 0
M  V30 7414 C 707.778 0.477865 -1.9709 0
M  V30 7415 C 708.111 1.63084 -1.05438 0
M  V30 7416 O 707.386 1.94238 -0.10095 0
M  V30 7417 C 707.669 0.963521 -3.4697 0
M  V30 7418 C 707.522 -0.189443 -4.49401 0
M  V30 7419 C 708.841 1.83813 -3.99876 0
M  V30 7420 H 705.96 0.172229 -0.716593 0
M  V30 7421 H 708.602 -0.254083 -1.88293 0
M  V30 7422 H 706.752 1.58724 -3.54597 0
M  V30 7423 H 708.424 -0.826451 -4.53836 0
M  V30 7424 H 706.667 -0.845366 -4.25483 0
M  V30 7425 H 707.338 0.192446 -5.51664 0
M  V30 7426 H 709.814 1.31235 -3.94863 0
M  V30 7427 H 708.69 2.14697 -5.0517 0
M  V30 7428 H 708.951 2.78289 -3.43523 0
M  V30 7429 N 708.01 1.57248 0.105221 0
M  V30 7430 C 709.256 1.86719 0.806692 0
M  V30 7431 C 709.611 0.758061 1.76837 0
M  V30 7432 O 708.904 -0.240812 1.90081 0
M  V30 7433 C 709.098 3.20437 1.58287 0
M  V30 7434 C 708.927 4.44252 0.697864 0
M  V30 7435 C 707.697 5.04104 0.347444 0
M  V30 7436 C 709.895 5.14299 0.00933014 0
M  V30 7437 N 707.877 6.1146 -0.546786 0
M  V30 7438 C 709.248 6.15528 -0.74336 0
M  V30 7439 C 711.303 4.97857 -0.0656505 0
M  V30 7440 C 710.006 7.02091 -1.56401 0
M  V30 7441 C 712.032 5.84919 -0.873167 0
M  V30 7442 C 711.394 6.8566 -1.61401 0
M  V30 7443 H 707.493 0.73329 0.271679 0
M  V30 7444 H 710.077 1.94575 0.0697152 0
M  V30 7445 H 708.248 3.13651 2.29079 0
M  V30 7446 H 709.98 3.37668 2.23075 0
M  V30 7447 H 706.735 4.68505 0.692817 0
M  V30 7448 H 707.159 6.69779 -0.986157 0
M  V30 7449 H 711.801 4.19919 0.492768 0
M  V30 7450 H 709.519 7.79427 -2.13353 0
M  V30 7451 H 713.105 5.74259 -0.933724 0
M  V30 7452 H 711.985 7.5186 -2.2288 0
M  V30 7453 N 709.488 -0.375779 1.53054 0
M  V30 7454 C 710.904 -0.716764 1.426 0
M  V30 7455 C 711.104 -1.93651 0.556931 0
M  V30 7456 O 710.16 -2.52475 0.0354461 0
M  V30 7457 C 711.473 -0.939499 2.85646 0
M  V30 7458 C 713.021 -1.04015 2.95212 0
M  V30 7459 C 713.496 -1.29543 4.39298 0
M  V30 7460 N 714.987 -1.36335 4.42682 0
M  V30 7461 C 715.722 -1.57778 5.51266 0
M  V30 7462 N 715.218 -1.76604 6.69913 0
M  V30 7463 N 717.011 -1.60065 5.38828 0
M  V30 7464 H 709.162 0.42664 2.08071 0
M  V30 7465 H 711.425 0.128758 0.939215 0
M  V30 7466 H 711.131 -0.115189 3.51511 0
M  V30 7467 H 711.005 -1.85048 3.2869 0
M  V30 7468 H 713.392 -1.85501 2.29507 0
M  V30 7469 H 713.473 -0.106785 2.55577 0
M  V30 7470 H 713.117 -0.485611 5.05573 0
M  V30 7471 H 713.047 -2.24184 4.76497 0
M  V30 7472 H 715.538 -1.23441 3.5717 0
M  V30 7473 H 715.851 -1.9251 7.48438 0
M  V30 7474 H 714.196 -1.73802 6.72917 0
M  V30 7475 H 717.387 -1.44917 4.45103 0
M  V30 7476 H 717.56 -1.76435 6.23518 0
M  V30 7477 N 710.966 -1.44241 -0.634997 0
M  V30 7478 C 712.377 -1.41622 -1.21655 0
M  V30 7479 C 712.728 -0.129584 -1.95772 0
M  V30 7480 O 711.853 0.770225 -2.02229 0
M  V30 7481 C 712.448 -2.56557 -2.21278 0
M  V30 7482 C 711.007 -2.57145 -2.7487 0
M  V30 7483 C 710.154 -2.33354 -1.49804 0
M  V30 7484 H 713.105 -1.52878 -0.425905 0
M  V30 7485 H 713.126 -2.29089 -3.03807 0
M  V30 7486 H 712.638 -3.50186 -1.67306 0
M  V30 7487 H 710.739 -1.67447 -3.32855 0
M  V30 7488 H 710.852 -3.55507 -3.21172 0
M  V30 7489 H 709.216 -1.82372 -1.77799 0
M  V30 7490 H 709.999 -3.29092 -0.977402 0
M  V30 7491 N 712.444 0.87505 -1.31075 0
M  V30 7492 C 713.692 1.62447 -1.20231 0
M  V30 7493 C 714.013 1.93506 0.240888 0
M  V30 7494 O 713.283 1.57847 1.16022 0
M  V30 7495 H 711.863 0.602207 -0.441991 0
M  V30 7496 H 714.525 1.04788 -1.64334 0
M  V30 7497 H 713.621 2.57031 -1.77036 0
M  V30 7498 N 713.922 1.13953 1.08869 0
M  V30 7499 C 715.147 0.928559 1.85452 0
M  V30 7500 C 715.572 -0.517642 1.80837 0
M  V30 7501 O 714.93 -1.36779 1.19001 0
M  V30 7502 C 714.978 1.42814 3.31114 0
M  V30 7503 O 714.082 0.617129 4.07756 0
M  V30 7504 H 713.423 0.33235 0.574839 0
M  V30 7505 H 715.953 1.5156 1.37443 0
M  V30 7506 H 715.963 1.43425 3.8196 0
M  V30 7507 H 714.638 2.48109 3.33788 0
M  V30 7508 H 713.215 0.679365 3.66659 0
M  V30 7509 N 715.4 -1.26948 0.933913 0
M  V30 7510 C 716.816 -1.46419 0.635103 0
M  V30 7511 C 717.016 -1.84336 -0.813785 0
M  V30 7512 O 716.072 -1.96061 -1.59111 0
M  V30 7513 C 717.385 -2.55206 1.5903 0
M  V30 7514 C 718.933 -2.69062 1.5992 0
M  V30 7515 C 719.408 -3.81013 2.54152 0
M  V30 7516 N 720.899 -3.88395 2.52395 0
M  V30 7517 C 721.634 -4.74454 3.21996 0
M  V30 7518 N 721.13 -5.64954 4.00997 0
M  V30 7519 N 722.923 -4.68237 3.10983 0
M  V30 7520 H 715.074 -1.00622 1.87053 0
M  V30 7521 H 717.337 -0.503189 0.803433 0
M  V30 7522 H 717.043 -2.34153 2.62422 0
M  V30 7523 H 716.917 -3.52719 1.33677 0
M  V30 7524 H 719.304 -2.89492 0.572569 0
M  V30 7525 H 719.385 -1.72016 1.89325 0
M  V30 7526 H 719.029 -3.61336 3.5693 0
M  V30 7527 H 718.959 -4.77499 2.22041 0
M  V30 7528 H 721.45 -3.23687 1.95025 0
M  V30 7529 H 721.763 -6.27496 4.51074 0
M  V30 7530 H 720.108 -5.6473 4.05099 0
M  V30 7531 H 723.299 -3.96535 2.48753 0
M  V30 7532 H 723.472 -5.35087 3.65494 0
M  V30 7533 N 716.879 -0.700114 -1.41195 0
M  V30 7534 C 718.156 -0.160836 -1.94938 0
M  V30 7535 C 718.536 1.33014 -1.63922 0
M  V30 7536 O 717.884 2.07878 -0.948636 0
M  V30 7537 C 718.094 -0.456991 -3.45995 0
M  V30 7538 C 719.442 -0.387207 -4.22831 0
M  V30 7539 O 720.466 -0.392164 -3.54035 0
M  V30 7540 O 719.325 -0.351267 -5.4537 0
M  V30 7541 H 716.419 -0.0176304 -0.826812 0
M  V30 7542 H 718.965 -0.776586 -1.50888 0
M  V30 7543 H 717.737 -1.48884 -3.61869 0
M  V30 7544 H 717.36 0.189503 -3.97148 0
M  V30 7545 N 718.357 1.51182 -0.445186 0
M  V30 7546 C 719.289 2.25714 0.398206 0
M  V30 7547 C 720.302 1.30032 0.979562 0
M  V30 7548 O 721.491 1.55731 0.872368 0
M  V30 7549 C 718.591 3.00348 1.56985 0
M  V30 7550 C 717.764 4.23187 1.10596 0
M  V30 7551 C 716.823 4.80334 2.14863 0
M  V30 7552 O 715.849 5.4196 1.73977 0
M  V30 7553 N 717.051 4.65053 3.47427 0
M  V30 7554 H 719.816 2.98732 -0.240629 0
M  V30 7555 H 717.377 1.59556 -0.274507 0
M  V30 7556 H 719.369 3.35464 2.26376 0
M  V30 7557 H 717.939 2.30291 2.11387 0
M  V30 7558 H 717.159 3.93476 0.238832 0
M  V30 7559 H 718.447 5.02886 0.773537 0
M  V30 7560 H 717.845 4.15984 3.83372 0
M  V30 7561 H 716.402 5.04509 4.12691 0
M  V30 7562 N 719.835 0.176821 1.56605 0
M  V30 7563 C 721.083 -0.465793 1.96659 0
M  V30 7564 C 721.404 -1.63406 1.06412 0
M  V30 7565 O 720.674 -1.95457 0.131603 0
M  V30 7566 H 719.254 -0.175072 0.726195 0
M  V30 7567 H 721.916 0.25929 1.93168 0
M  V30 7568 H 721.012 -0.822138 3.01077 0
M  V30 7569 N 721.313 -1.57302 -0.09688 0
M  V30 7570 C 722.541 -1.90202 -0.814295 0
M  V30 7571 C 722.956 -0.770344 -1.72369 0
M  V30 7572 O 722.313 0.257764 -1.8067 0
M  V30 7573 C 722.364 -3.22708 -1.62916 0
M  V30 7574 O 722.085 -4.31522 -0.756343 0
M  V30 7575 C 723.586 -3.69459 -2.44979 0
M  V30 7576 H 720.806 -0.629275 -0.232925 0
M  V30 7577 H 723.35 -2.04364 -0.0746482 0
M  V30 7578 H 721.505 -3.1015 -2.32133 0
M  V30 7579 H 721.919 -5.07604 -1.32054 0
M  V30 7580 H 723.393 -4.64875 -2.9765 0
M  V30 7581 H 723.87 -2.97211 -3.23361 0
M  V30 7582 H 724.476 -3.84879 -1.80964 0
M  V30 7583 N 722.791 0.367657 -1.53252 0
M  V30 7584 C 724.031 1.11923 -1.71034 0
M  V30 7585 C 724.395 1.86618 -0.45143 0
M  V30 7586 O 725.596 2.63996 -0.505915 0
M  V30 7587 C 723.867 2.05461 -2.92439 0
M  V30 7588 S 725.426 2.88167 -3.30916 0
M  V30 7589 H 722.244 0.378549 -0.601848 0
M  V30 7590 H 724.846 0.400757 -1.91348 0
M  V30 7591 H 723.55 1.49346 -3.82262 0
M  V30 7592 H 723.081 2.81784 -2.7452 0
M  V30 7593 H 725.096 4.07746 -2.82767 0
M  V30 7594 N 724.269 1.44576 0.627338 0
M  V30 7595 C 725.68 1.42266 1.20902 0
M  V30 7596 C 726.031 0.139964 1.957 0
M  V30 7597 O 725.156 -0.759489 2.02634 0
M  V30 7598 C 725.751 2.57727 2.19914 0
M  V30 7599 C 724.31 2.58599 2.73502 0
M  V30 7600 C 723.457 2.34145 1.48564 0
M  V30 7601 H 726.408 1.53102 0.417791 0
M  V30 7602 H 726.429 2.30697 3.02588 0
M  V30 7603 H 725.941 3.51068 1.65447 0
M  V30 7604 H 724.042 1.6921 3.31962 0
M  V30 7605 H 724.155 3.57205 3.19282 0
M  V30 7606 H 722.519 1.83313 1.76829 0
M  V30 7607 H 723.302 3.29606 0.959935 0
M  V30 7608 N 725.747 -0.868086 1.31537 0
M  V30 7609 C 726.71 -1.95703 1.19302 0
M  V30 7610 C 727.71 -1.60355 0.119612 0
M  V30 7611 O 728.9 -1.70247 0.36902 0
M  V30 7612 C 726.032 -3.30599 0.831684 0
M  V30 7613 H 727.225 -2.07982 2.16064 0
M  V30 7614 H 724.778 -1.05661 1.15176 0
M  V30 7615 H 725.513 -3.2402 -0.134694 0
M  V30 7616 H 725.298 -3.57629 1.60761 0
M  V30 7617 H 726.788 -4.10439 0.770026 0
M  V30 7618 N 727.225 -1.14528 -1.08264 0
M  V30 7619 C 728.45 -0.938381 -1.84957 0
M  V30 7620 C 728.875 0.508044 -1.81109 0
M  V30 7621 O 728.233 1.36146 -1.19724 0
M  V30 7622 C 728.281 -1.44568 -3.30352 0
M  V30 7623 O 727.385 -0.638745 -4.07423 0
M  V30 7624 H 726.726 -0.335394 -0.573068 0
M  V30 7625 H 729.256 -1.52287 -1.36637 0
M  V30 7626 H 729.266 -1.45449 -3.81194 0
M  V30 7627 H 727.941 -2.49876 -3.32468 0
M  V30 7628 H 726.518 -0.698801 -3.66294 0
M  V30 7629 N 728.703 1.26451 -0.940633 0
M  V30 7630 C 729.949 1.94065 -0.58878 0
M  V30 7631 C 730.282 1.7363 0.869853 0
M  V30 7632 O 729.557 1.073 1.62225 0
M  V30 7633 C 729.84 3.47852 -0.931199 0
M  V30 7634 C 729.693 3.77575 -2.44453 0
M  V30 7635 C 731.012 4.37832 -0.446229 0
M  V30 7636 H 728.131 0.704827 -0.21538 0
M  V30 7637 H 730.773 1.4933 -1.17475 0
M  V30 7638 H 728.923 3.86085 -0.432539 0
M  V30 7639 H 730.595 3.49059 -3.01588 0
M  V30 7640 H 728.838 3.23671 -2.88825 0
M  V30 7641 H 729.509 4.85068 -2.63464 0
M  V30 7642 H 731.985 4.06822 -0.873778 0
M  V30 7643 H 730.861 5.44228 -0.714648 0
M  V30 7644 H 731.122 4.37239 0.653815 0
M  V30 7645 N 730.181 0.707592 1.40822 0
M  V30 7646 C 731.406 0.251626 2.05868 0
M  V30 7647 C 731.831 -1.09503 1.5294 0
M  V30 7648 O 731.189 -1.68806 0.661385 0
M  V30 7649 C 731.237 0.23287 3.59847 0
M  V30 7650 O 730.341 -0.788477 4.04792 0
M  V30 7651 H 729.682 0.119936 0.653078 0
M  V30 7652 H 732.212 0.96583 1.80369 0
M  V30 7653 H 732.222 0.0678204 4.07944 0
M  V30 7654 H 730.897 1.21565 3.97737 0
M  V30 7655 H 729.474 -0.591802 3.68174 0
M  V30 7656 N 731.66 -1.50943 0.453197 0
M  V30 7657 C 732.937 -1.94872 -0.168633 0
M  V30 7658 C 733.317 -1.39272 -1.5864 0
M  V30 7659 O 732.665 -0.586272 -2.20851 0
M  V30 7660 C 732.875 -3.48757 -0.130217 0
M  V30 7661 C 734.223 -4.23331 -0.327975 0
M  V30 7662 O 735.247 -3.55594 -0.207619 0
M  V30 7663 O 734.106 -5.43529 -0.569077 0
M  V30 7664 H 731.2 -0.818042 -0.121394 0
M  V30 7665 H 733.746 -1.61782 0.512316 0
M  V30 7666 H 732.518 -3.81725 0.860346 0
M  V30 7667 H 732.141 -3.88333 -0.853397 0
M  V30 7668 N 733.138 -0.185124 -1.56509 0
M  V30 7669 C 734.549 0.329221 -1.83774 0
M  V30 7670 C 734.9 1.62093 -1.10545 0
M  V30 7671 O 734.025 2.13334 -0.36298 0
M  V30 7672 C 734.62 0.604099 -3.33371 0
M  V30 7673 C 733.179 1.06284 -3.61083 0
M  V30 7674 C 732.326 0.10608 -2.77097 0
M  V30 7675 H 735.277 -0.409116 -1.53336 0
M  V30 7676 H 735.298 1.45458 -3.51599 0
M  V30 7677 H 734.81 -0.336201 -3.86641 0
M  V30 7678 H 732.911 2.01777 -3.13236 0
M  V30 7679 H 733.024 0.962453 -4.69333 0
M  V30 7680 H 731.388 0.606082 -2.47384 0
M  V30 7681 H 732.171 -0.828486 -3.33153 0
M  V30 7682 N 734.616 1.57351 0.0885366 0
M  V30 7683 C 735.841 1.91011 0.80805 0
M  V30 7684 C 736.266 0.780009 1.71165 0
M  V30 7685 O 735.624 -0.268083 1.79307 0
M  V30 7686 C 735.672 3.23562 1.59185 0
M  V30 7687 O 734.776 3.11615 2.7013 0
M  V30 7688 H 734.117 0.625943 0.221565 0
M  V30 7689 H 736.647 2.04507 0.0617954 0
M  V30 7690 H 736.657 3.5703 1.97468 0
M  V30 7691 H 735.332 4.05398 0.928741 0
M  V30 7692 H 733.909 2.89673 2.34827 0
M  V30 7693 N 736.094 -0.359525 1.53444 0
M  V30 7694 C 737.044 -1.441 1.7669 0
M  V30 7695 C 738.028 -1.48408 0.621599 0
M  V30 7696 O 739.22 -1.53547 0.880468 0
M  V30 7697 C 736.349 -2.81455 1.96566 0
M  V30 7698 C 735.435 -2.81601 3.17115 0
M  V30 7699 N 735.826 -2.51388 4.38905 0
M  V30 7700 C 734.124 -3.12758 3.1796 0
M  V30 7701 C 734.825 -2.59365 5.20677 0
M  V30 7702 N 733.801 -2.94328 4.57025 0
M  V30 7703 H 737.603 -1.19613 2.68458 0
M  V30 7704 H 735.117 -0.567761 1.52152 0
M  V30 7705 H 737.114 -3.59357 2.11348 0
M  V30 7706 H 735.774 -3.06901 1.06029 0
M  V30 7707 H 736.785 -2.24873 4.66533 0
M  V30 7708 H 733.462 -3.43479 2.37336 0
M  V30 7709 H 734.852 -2.39301 6.27841 0
M  V30 7710 N 737.572 -1.44907 -0.619662 0
M  V30 7711 C 738.983 -1.42905 -1.20146 0
M  V30 7712 C 739.334 -0.150341 -1.95623 0
M  V30 7713 O 738.459 0.748732 -2.03034 0
M  V30 7714 C 739.054 -2.58889 -2.18545 0
M  V30 7715 C 737.613 -2.60046 -2.72127 0
M  V30 7716 C 736.76 -2.3493 -1.4732 0
M  V30 7717 H 739.711 -1.53321 -0.409666 0
M  V30 7718 H 739.732 -2.32298 -3.0136 0
M  V30 7719 H 739.244 -3.51941 -1.63583 0
M  V30 7720 H 737.345 -1.70968 -3.3106 0
M  V30 7721 H 737.458 -3.58893 -3.17384 0
M  V30 7722 H 735.822 -1.84248 -1.75855 0
M  V30 7723 H 736.605 -3.3011 -0.942442 0
M  V30 7724 N 739.05 0.861098 -1.31996 0
M  V30 7725 C 739.98 1.98482 -1.22993 0
M  V30 7726 C 740.961 1.6971 -0.115168 0
M  V30 7727 O 742.146 1.91849 -0.30126 0
M  V30 7728 C 739.276 3.34179 -0.945615 0
M  V30 7729 C 738.23 3.77284 -2.02091 0
M  V30 7730 C 737.556 5.1054 -1.58912 0
M  V30 7731 C 738.856 3.93439 -3.43515 0
M  V30 7732 H 740.55 2.06271 -2.17008 0
M  V30 7733 H 738.096 0.991043 -1.04472 0
M  V30 7734 H 740.049 4.12338 -0.869206 0
M  V30 7735 H 738.773 3.26586 0.0301849 0
M  V30 7736 H 737.432 3.01371 -2.08737 0
M  V30 7737 H 737.08 4.99397 -0.600942 0
M  V30 7738 H 736.78 5.40352 -2.30854 0
M  V30 7739 H 738.304 5.91199 -1.52696 0
M  V30 7740 H 739.718 4.6197 -3.39495 0
M  V30 7741 H 738.115 4.34661 -4.13751 0
M  V30 7742 H 739.185 2.96548 -3.8365 0
M  V30 7743 N 740.528 1.15101 1.07655 0
M  V30 7744 C 741.458 0.867864 2.16773 0
M  V30 7745 C 742.439 -0.180283 1.69142 0
M  V30 7746 O 743.624 -0.0353152 1.94168 0
M  V30 7747 C 740.754 0.35299 3.45501 0
M  V30 7748 C 739.708 1.33746 4.06566 0
M  V30 7749 C 739.034 0.681562 5.30338 0
M  V30 7750 C 740.334 2.7024 4.46954 0
M  V30 7751 H 742.028 1.78034 2.40716 0
M  V30 7752 H 739.574 0.857435 1.15689 0
M  V30 7753 H 741.527 0.142465 4.21159 0
M  V30 7754 H 740.251 -0.594945 3.21135 0
M  V30 7755 H 738.91 1.53429 3.32949 0
M  V30 7756 H 738.558 -0.272422 5.02262 0
M  V30 7757 H 738.258 1.33853 5.72151 0
M  V30 7758 H 739.782 0.48074 6.08705 0
M  V30 7759 H 741.196 2.5442 5.13754 0
M  V30 7760 H 739.593 3.32282 4.99709 0
M  V30 7761 H 740.663 3.26537 3.58471 0
M  V30 7762 N 742.006 -1.2595 0.947325 0
M  V30 7763 C 743.231 -1.98083 0.614633 0
M  V30 7764 C 743.656 -1.70013 -0.804815 0
M  V30 7765 O 743.014 -0.95175 -1.54309 0
M  V30 7766 C 743.062 -3.4993 0.870706 0
M  V30 7767 O 742.166 -4.12364 -0.0541451 0
M  V30 7768 H 741.507 -0.621232 0.234451 0
M  V30 7769 H 744.037 -1.60259 1.27193 0
M  V30 7770 H 744.047 -4.00198 0.794051 0
M  V30 7771 H 742.722 -3.69691 1.90529 0
M  V30 7772 H 741.299 -3.72826 0.0740917 0
M  V30 7773 N 743.484 -0.715051 -1.40445 0
M  V30 7774 C 744.432 -0.0509974 -2.32544 0
M  V30 7775 C 745.426 0.747602 -1.52011 0
M  V30 7776 O 746.632 0.651031 -1.67814 0
M  V30 7777 H 743.007 0.00231113 -0.751996 0
M  V30 7778 H 744.978 -0.84449 -2.86201 0
M  V30 7779 C 743.727 0.857101 -3.3697 0
M  V30 7780 H 743.05 0.252 -3.99005 0
M  V30 7781 H 744.49 1.28971 -4.03909 0
M  V30 7782 C 742.949 1.98231 -2.72408 0
M  V30 7783 O 743.479 3.07309 -2.58697 0
M  V30 7784 N 741.685 1.76577 -2.308 0
M  V30 7785 H 741.232 0.878641 -2.42152 0
M  V30 7786 H 741.19 2.52043 -1.87941 0
M  V30 7787 N 744.962 1.50701 -0.461195 0
M  V30 7788 C 746.378 1.59187 -0.114786 0
M  V30 7789 C 746.578 1.4702 1.37794 0
M  V30 7790 O 745.634 1.32361 2.15027 0
M  V30 7791 C 746.947 2.93453 -0.656167 0
M  V30 7792 C 748.495 3.06824 -0.618715 0
M  V30 7793 C 748.97 4.4365 -1.13747 0
M  V30 7794 N 750.461 4.50035 -1.09646 0
M  V30 7795 C 751.196 5.54278 -1.46846 0
M  V30 7796 N 750.692 6.65822 -1.91448 0
M  V30 7797 N 752.485 5.44767 -1.38512 0
M  V30 7798 H 744.636 1.56853 -1.43216 0
M  V30 7799 H 746.899 0.740712 -0.59165 0
M  V30 7800 H 746.605 3.07802 -1.7015 0
M  V30 7801 H 746.479 3.77082 -0.0942261 0
M  V30 7802 H 748.866 2.92129 0.417685 0
M  V30 7803 H 748.947 2.24976 -1.21734 0
M  V30 7804 H 748.591 4.59093 -2.17245 0
M  V30 7805 H 748.521 5.24074 -0.515153 0
M  V30 7806 H 751.012 3.69988 -0.769217 0
M  V30 7807 H 751.325 7.41413 -2.18007 0
M  V30 7808 H 749.67 6.66968 -1.95393 0
M  V30 7809 H 752.861 4.56511 -1.03516 0
M  V30 7810 H 753.034 6.25889 -1.6783 0
M  V30 7811 N 746.441 0.193421 1.56409 0
M  V30 7812 C 747.689 -0.444908 1.97142 0
M  V30 7813 C 748.01 -1.62268 1.08139 0
M  V30 7814 O 747.28 -1.95307 0.152326 0
M  V30 7815 H 745.86 -0.16736 0.728011 0
M  V30 7816 H 748.522 0.279763 1.92882 0
M  V30 7817 H 747.618 -0.790159 3.01932 0
M  V30 7818 N 747.919 -1.57396 -0.0801906 0
M  V30 7819 C 749.144 -1.91437 -0.797909 0
M  V30 7820 C 749.569 -0.789075 -1.70749 0
M  V30 7821 O 748.927 0.25857 -1.79447 0
M  V30 7822 C 748.975 -3.24402 -1.57467 0
M  V30 7823 O 748.079 -3.13043 -2.68473 0
M  V30 7824 H 747.42 -0.627109 -0.218243 0
M  V30 7825 H 749.95 -2.04537 -0.050949 0
M  V30 7826 H 749.96 -3.58072 -1.95571 0
M  V30 7827 H 748.635 -4.05884 -0.907229 0
M  V30 7828 H 747.212 -2.90915 -2.33287 0
M  V30 7829 N 749.397 0.351382 -1.53633 0
M  V30 7830 C 750.622 1.11718 -1.74739 0
M  V30 7831 C 751.047 1.81829 -0.481657 0
M  V30 7832 O 750.405 1.72264 0.565233 0
M  V30 7833 C 750.453 2.11234 -2.92254 0
M  V30 7834 O 749.557 3.186 -2.61855 0
M  V30 7835 H 748.898 0.323482 -0.579875 0
M  V30 7836 H 751.428 0.404167 -2.00568 0
M  V30 7837 H 751.438 2.54591 -3.18822 0
M  V30 7838 H 750.113 1.59599 -3.84058 0
M  V30 7839 H 748.69 2.80115 -2.4615 0
M  V30 7840 N 750.875 1.45233 0.611969 0
M  V30 7841 C 752.123 1.48727 1.36838 0
M  V30 7842 C 752.444 0.128616 1.94575 0
M  V30 7843 O 751.714 -0.84149 1.76906 0
M  V30 7844 H 750.294 0.547695 0.507976 0
M  V30 7845 H 752.956 1.81156 0.718925 0
M  V30 7846 H 752.052 2.2236 2.19003 0
M  V30 7847 N 752.353 -0.854086 1.3245 0
M  V30 7848 C 753.63 -1.59188 1.1366 0
M  V30 7849 C 754.01 -2.08917 -0.302807 0
M  V30 7850 O 753.358 -1.8795 -1.29951 0
M  V30 7851 C 753.568 -2.73757 2.16467 0
M  V30 7852 C 754.916 -3.43323 2.49829 0
M  V30 7853 O 755.94 -2.83983 2.15017 0
M  V30 7854 O 754.799 -4.50409 3.09506 0
M  V30 7855 H 751.893 -0.701092 0.438633 0
M  V30 7856 H 754.439 -0.898165 1.43983 0
M  V30 7857 H 753.211 -2.3454 3.1322 0
M  V30 7858 H 752.834 -3.50804 1.87142 0
M  V30 7859 N 753.831 -1.1567 -1.07043 0
M  V30 7860 C 755.247 -0.900006 -1.31803 0
M  V30 7861 C 755.447 0.451293 -1.96381 0
M  V30 7862 O 754.503 1.19252 -2.22565 0
M  V30 7863 C 755.816 -2.04334 -2.20609 0
M  V30 7864 C 757.364 -2.07823 -2.34048 0
M  V30 7865 C 757.839 -3.21488 -3.26204 0
M  V30 7866 N 759.33 -3.21156 -3.33786 0
M  V30 7867 C 760.065 -4.05746 -4.05163 0
M  V30 7868 N 759.561 -5.00407 -4.79129 0
M  V30 7869 N 761.354 -3.93759 -4.01136 0
M  V30 7870 H 753.505 -2.02681 -0.635146 0
M  V30 7871 H 755.768 -0.883956 -0.342528 0
M  V30 7872 H 755.474 -3.01895 -1.80423 0
M  V30 7873 H 755.348 -1.97838 -3.21154 0
M  V30 7874 H 757.735 -1.1086 -2.73485 0
M  V30 7875 H 757.816 -2.18386 -1.33197 0
M  V30 7876 H 757.46 -4.18706 -2.87485 0
M  V30 7877 H 757.39 -3.08162 -4.27017 0
M  V30 7878 H 759.881 -2.52606 -2.81067 0
M  V30 7879 H 760.194 -5.61387 -5.31097 0
M  V30 7880 H 758.539 -5.04393 -4.78135 0
M  V30 7881 H 761.73 -3.19115 -3.42466 0
M  V30 7882 H 761.903 -4.59906 -4.56498 0
M  V30 7883 N 755.309 1.25446 -0.953992 0
M  V30 7884 C 756.72 1.75047 -0.649255 0
M  V30 7885 C 757.071 1.77527 0.835385 0
M  V30 7886 O 756.196 1.39569 1.65377 0
M  V30 7887 C 756.791 3.17889 -1.17183 0
M  V30 7888 C 755.35 3.65052 -0.917267 0
M  V30 7889 C 754.497 2.44124 -1.31525 0
M  V30 7890 H 757.448 1.11342 -1.13087 0
M  V30 7891 H 757.469 3.76768 -0.531616 0
M  V30 7892 H 756.981 3.16052 -2.25239 0
M  V30 7893 H 755.082 3.72305 0.148354 0
M  V30 7894 H 755.195 4.53222 -1.55328 0
M  V30 7895 H 753.559 2.43906 -0.733624 0
M  V30 7896 H 754.342 2.44979 -2.405 0
M  V30 7897 N 756.787 0.722489 1.40064 0
M  V30 7898 C 757.697 0.0755984 2.34478 0
M  V30 7899 C 758.713 -0.736046 1.57665 0
M  V30 7900 O 759.889 -0.667407 1.9002 0
M  V30 7901 C 756.954 -0.830075 3.36616 0
M  V30 7902 C 756.015 -0.00759884 4.29299 0
M  V30 7903 C 755.248 -0.870139 5.26559 0
M  V30 7904 O 755.471 -2.10921 5.2997 0
M  V30 7905 O 754.405 -0.305454 6.01124 0
M  V30 7906 H 758.231 0.854545 2.9143 0
M  V30 7907 H 755.816 0.483032 1.41376 0
M  V30 7908 H 757.698 -1.34864 3.99236 0
M  V30 7909 H 756.373 -1.58805 2.82069 0
M  V30 7910 H 755.28 0.556199 3.69942 0
M  V30 7911 H 756.613 0.712312 4.87018 0
M  V30 7912 N 758.265 -1.50454 0.469181 0
M  V30 7913 C 759.228 -2.2703 -0.314643 0
M  V30 7914 C 760.228 -1.31734 -0.922111 0
M  V30 7915 O 761.418 -1.55176 -0.791588 0
M  V30 7916 C 758.55 -3.08616 -1.44806 0
M  V30 7917 H 759.743 -2.97769 0.356892 0
M  V30 7918 H 757.296 -1.54698 0.223191 0
M  V30 7919 H 758.031 -2.42369 -2.1547 0
M  V30 7920 H 757.816 -3.78647 -1.01829 0
M  V30 7921 H 759.306 -3.66536 -2.00103 0
M  V30 7922 N 759.743 -0.201713 -1.56304 0
M  V30 7923 C 760.968 0.443815 -2.02596 0
M  V30 7924 C 761.393 1.53945 -1.08086 0
M  V30 7925 O 760.751 1.81182 -0.0655056 0
M  V30 7926 C 760.799 0.971066 -3.47279 0
M  V30 7927 O 759.903 2.0836 -3.55893 0
M  V30 7928 H 759.244 0.10294 -0.655972 0
M  V30 7929 H 761.774 -0.314533 -2.02168 0
M  V30 7930 H 761.784 1.28598 -3.87204 0
M  V30 7931 H 760.459 0.169048 -4.15556 0
M  V30 7932 H 759.036 1.77683 -3.27846 0
M  V30 7933 N 761.222 1.57436 0.0718424 0
M  V30 7934 C 762.155 1.98982 1.11721 0
M  V30 7935 C 763.133 0.866731 1.37574 0
M  V30 7936 O 764.317 1.12903 1.50948 0
M  V30 7937 C 761.444 2.32648 2.46155 0
M  V30 7938 C 760.49 3.54964 2.36437 0
M  V30 7939 S 761.323 5.05802 1.75854 0
M  V30 7940 C 762.479 5.42669 3.11867 0
M  V30 7941 H 762.712 2.87338 0.763154 0
M  V30 7942 H 760.245 1.51833 0.280372 0
M  V30 7943 H 762.203 2.52719 3.23486 0
M  V30 7944 H 760.864 1.44821 2.78722 0
M  V30 7945 H 760.057 3.76038 3.35577 0
M  V30 7946 H 759.659 3.34524 1.67242 0
M  V30 7947 H 761.951 5.40737 4.08178 0
M  V30 7948 H 762.894 6.43461 2.95573 0
M  V30 7949 H 763.302 4.70131 3.1247 0
M  V30 7950 N 762.7 -0.34323 1.53817 0
M  V30 7951 C 763.928 -1.10348 1.75017 0
M  V30 7952 C 764.343 -1.82345 0.489475 0
M  V30 7953 O 763.7 -1.74362 -0.538886 0
M  V30 7954 C 763.751 -2.11672 2.93048 0
M  V30 7955 O 763.472 -1.42603 4.14241 0
M  V30 7956 C 764.973 -3.0007 3.26301 0
M  V30 7957 H 762.193 -0.329056 0.584776 0
M  V30 7958 H 764.737 -0.395339 2.00642 0
M  V30 7959 H 762.892 -2.78051 2.69753 0
M  V30 7960 H 763.306 -2.10294 4.80496 0
M  V30 7961 H 764.78 -3.67101 4.12239 0
M  V30 7962 H 765.257 -3.66105 2.42618 0
M  V30 7963 H 765.863 -2.3928 3.51604 0
M  V30 7964 N 764.178 -1.45556 -0.604258 0
M  V30 7965 C 765.589 -1.44171 -1.18624 0
M  V30 7966 C 765.94 -0.171081 -1.95453 0
M  V30 7967 O 765.065 0.727156 -2.03817 0
M  V30 7968 C 765.66 -2.61193 -2.15786 0
M  V30 7969 C 764.219 -2.62918 -2.69353 0
M  V30 7970 C 763.366 -2.36479 -1.4482 0
M  V30 7971 H 766.317 -1.53747 -0.393381 0
M  V30 7972 H 766.338 -2.35481 -2.98879 0
M  V30 7973 H 765.85 -3.53656 -1.59841 0
M  V30 7974 H 763.951 -1.7447 -3.29228 0
M  V30 7975 H 764.064 -3.6224 -3.13559 0
M  V30 7976 H 762.428 -1.86103 -1.73891 0
M  V30 7977 H 763.211 -3.31091 -0.907376 0
M  V30 7978 N 765.656 0.84705 -1.32902 0
M  V30 7979 C 766.933 1.58583 -1.14503 0
M  V30 7980 C 767.313 2.09075 0.291724 0
M  V30 7981 O 766.661 1.88636 1.28952 0
M  V30 7982 C 766.871 2.72605 -2.17916 0
M  V30 7983 C 768.219 3.41993 -2.51646 0
M  V30 7984 O 769.243 2.82838 -2.1652 0
M  V30 7985 O 768.102 4.48761 -3.1189 0
M  V30 7986 H 765.196 0.698756 -0.442345 0
M  V30 7987 H 767.742 0.890516 -1.44457 0
M  V30 7988 H 766.514 2.32876 -3.14459 0
M  V30 7989 H 766.137 3.49807 -1.89 0
M  V30 7990 N 767.134 1.16236 1.06428 0
M  V30 7991 C 768.097 0.870163 2.1204 0
M  V30 7992 C 769.097 -0.134239 1.60239 0
M  V30 7993 O 770.287 0.0964932 1.73933 0
M  V30 7994 C 767.419 0.301033 3.39568 0
M  V30 7995 H 768.612 1.8064 2.39394 0
M  V30 7996 H 766.165 0.971116 1.2247 0
M  V30 7997 H 766.9 -0.642948 3.17863 0
M  V30 7998 H 766.685 1.02475 3.78472 0
M  V30 7999 H 768.175 0.114494 4.17443 0
M  V30 8000 N 768.612 -1.24939 0.960631 0
M  V30 8001 C 769.559 -2.25658 0.484459 0
M  V30 8002 C 770.529 -1.59422 -0.466242 0
M  V30 8003 O 771.714 -1.87015 -0.378169 0
M  V30 8004 C 768.854 -3.44359 -0.225958 0
M  V30 8005 C 767.967 -4.25214 0.762682 0
M  V30 8006 C 767.102 -5.31192 0.0290931 0
M  V30 8007 C 766.141 -6.03739 1.00827 0
M  V30 8008 N 765.278 -7.01437 0.305155 0
M  V30 8009 H 770.118 -2.65758 1.34821 0
M  V30 8010 H 767.655 -1.30648 0.675983 0
M  V30 8011 H 769.613 -4.12035 -0.654472 0
M  V30 8012 H 768.243 -3.05118 -1.05371 0
M  V30 8013 H 767.295 -3.57144 1.30966 0
M  V30 8014 H 768.607 -4.75406 1.50964 0
M  V30 8015 H 767.761 -6.04971 -0.457763 0
M  V30 8016 H 766.5 -4.81889 -0.750614 0
M  V30 8017 H 765.505 -5.2877 1.50607 0
M  V30 8018 H 766.73 -6.55131 1.7883 0
M  V30 8019 H 764.676 -6.54415 -0.455704 0
M  V30 8020 H 764.593 -7.49475 0.991104 0
M  V30 8021 H 765.861 -7.79336 -0.159966 0
M  V30 8022 N 770.09 -0.729906 -1.39679 0
M  V30 8023 C 771.04 -0.0627678 -2.27914 0
M  V30 8024 C 772.024 0.717867 -1.43998 0
M  V30 8025 O 773.216 0.587713 -1.66958 0
M  V30 8026 C 770.345 0.847564 -3.32673 0
M  V30 8027 C 769.431 0.0613515 -4.24056 0
M  V30 8028 N 769.822 -0.962863 -4.96551 0
M  V30 8029 C 768.12 0.291773 -4.45045 0
M  V30 8030 C 768.821 -1.43652 -5.63683 0
M  V30 8031 N 767.797 -0.756044 -5.38317 0
M  V30 8032 H 771.599 -0.847545 -2.81414 0
M  V30 8033 H 769.113 -0.563776 -1.523 0
M  V30 8034 H 771.11 1.34094 -3.94746 0
M  V30 8035 H 769.77 1.63156 -2.80732 0
M  V30 8036 H 770.781 -1.34409 -5.00154 0
M  V30 8037 H 767.458 1.05097 -4.04056 0
M  V30 8038 H 768.848 -2.28835 -6.31731 0
M  V30 8039 N 771.568 1.50203 -0.477153 0
M  V30 8040 C 772.498 2.31517 0.303646 0
M  V30 8041 C 773.479 1.38696 0.984753 0
M  V30 8042 O 774.664 1.67615 0.980758 0
M  V30 8043 C 771.794 3.18598 1.38249 0
M  V30 8044 C 770.748 4.2002 0.822645 0
M  V30 8045 C 770.074 4.95878 2.00024 0
M  V30 8046 C 771.374 5.22023 -0.170185 0
M  V30 8047 H 773.068 2.97042 -0.375027 0
M  V30 8048 H 770.614 1.42848 -0.181802 0
M  V30 8049 H 772.567 3.74282 1.93625 0
M  V30 8050 H 771.291 2.5097 2.09002 0
M  V30 8051 H 769.95 3.65445 0.290813 0
M  V30 8052 H 769.598 4.24717 2.69489 0
M  V30 8053 H 769.298 5.64487 1.63183 0
M  V30 8054 H 770.822 5.54399 2.55878 0
M  V30 8055 H 772.236 5.72543 0.294606 0
M  V30 8056 H 770.633 5.98386 -0.453181 0
M  V30 8057 H 771.703 4.72396 -1.09408 0
M  V30 8058 N 773.046 0.209999 1.56195 0
M  V30 8059 C 774.292 -0.418742 1.99043 0
M  V30 8060 C 774.647 -1.58201 1.095 0
M  V30 8061 O 773.94 -1.91069 0.1425 0
M  V30 8062 C 774.134 -0.91312 3.45539 0
M  V30 8063 C 773.963 0.200706 4.49252 0
M  V30 8064 C 772.733 0.663287 5.00928 0
M  V30 8065 C 774.931 1.01493 5.04186 0
M  V30 8066 N 772.913 1.75338 5.88328 0
M  V30 8067 C 774.284 1.95411 5.884 0
M  V30 8068 C 776.339 1.05567 4.8658 0
M  V30 8069 C 775.042 2.93069 6.56889 0
M  V30 8070 C 777.068 2.02037 5.55819 0
M  V30 8071 C 776.43 2.94697 6.39791 0
M  V30 8072 H 772.529 -0.120226 0.772703 0
M  V30 8073 H 775.113 0.319119 1.92067 0
M  V30 8074 H 773.284 -1.62038 3.52985 0
M  V30 8075 H 775.016 -1.51371 3.75325 0
M  V30 8076 H 771.771 0.253945 4.72919 0
M  V30 8077 H 772.195 2.30007 6.3673 0
M  V30 8078 H 776.837 0.353242 4.21322 0
M  V30 8079 H 774.555 3.6428 7.21336 0
M  V30 8080 H 778.141 2.05849 5.44167 0
M  V30 8081 H 777.021 3.68128 6.92425 0
M  V30 8082 N 774.524 -1.57472 -0.0634922 0
M  V30 8083 C 775.454 -2.07297 -1.07473 0
M  V30 8084 C 776.435 -0.968162 -1.39859 0
M  V30 8085 O 777.62 -1.24139 -1.49343 0
M  V30 8086 C 774.75 -2.52381 -2.38581 0
M  V30 8087 C 773.704 -3.66813 -2.20526 0
M  V30 8088 C 773.03 -3.97982 -3.57092 0
M  V30 8089 C 774.33 -4.96553 -1.61965 0
M  V30 8090 H 776.024 -2.92033 -0.660092 0
M  V30 8091 H 773.57 -1.40488 -0.316074 0
M  V30 8092 H 775.523 -2.85852 -3.09624 0
M  V30 8093 H 774.247 -1.64684 -2.8204 0
M  V30 8094 H 772.906 -3.33639 -1.51924 0
M  V30 8095 H 772.554 -3.07403 -3.98136 0
M  V30 8096 H 772.254 -4.7504 -3.45848 0
M  V30 8097 H 773.778 -4.33956 -4.29552 0
M  V30 8098 H 775.192 -5.28201 -2.22883 0
M  V30 8099 H 773.589 -5.7799 -1.61394 0
M  V30 8100 H 774.659 -4.81396 -0.581918 0
M  V30 8101 N 776.003 0.335068 -1.53997 0
M  V30 8102 C 776.913 1.43511 -1.85585 0
M  V30 8103 C 777.929 1.57162 -0.746726 0
M  V30 8104 O 779.105 1.72477 -1.03988 0
M  V30 8105 C 776.17 2.78386 -2.06646 0
M  V30 8106 C 775.231 2.74007 -3.30483 0
M  V30 8107 C 774.464 4.02449 -3.50529 0
M  V30 8108 O 774.687 5.00147 -2.74242 0
M  V30 8109 O 773.621 4.06405 -4.4398 0
M  V30 8110 H 777.447 1.19731 -2.79102 0
M  V30 8111 H 775.032 0.528033 -1.39758 0
M  V30 8112 H 776.914 3.58247 -2.21894 0
M  V30 8113 H 775.589 3.0208 -1.16317 0
M  V30 8114 H 774.496 1.92736 -3.2063 0
M  V30 8115 H 775.829 2.55267 -4.20832 0
M  V30 8116 N 777.481 1.45874 0.596531 0
M  V30 8117 C 778.728 1.50467 1.35521 0
M  V30 8118 C 779.056 0.150802 1.93915 0
M  V30 8119 O 778.311 -0.851913 1.76184 0
M  V30 8120 C 778.61 2.54034 2.51399 0
M  V30 8121 C 778.276 3.9844 2.11085 0
M  V30 8122 C 776.938 4.37758 1.99804 0
M  V30 8123 C 779.29 4.89209 1.79788 0
M  V30 8124 C 776.618 5.65727 1.55465 0
M  V30 8125 C 778.97 6.17602 1.36931 0
M  V30 8126 C 777.634 6.5584 1.24218 0
M  V30 8127 H 776.904 0.550597 0.495907 0
M  V30 8128 H 779.551 1.79279 0.673145 0
M  V30 8129 H 777.856 2.18832 3.24992 0
M  V30 8130 H 779.553 2.54822 3.09624 0
M  V30 8131 H 776.143 3.67353 2.20794 0
M  V30 8132 H 780.327 4.59562 1.87395 0
M  V30 8133 H 775.583 5.94139 1.44253 0
M  V30 8134 H 779.757 6.87373 1.11764 0
M  V30 8135 H 777.384 7.54897 0.896353 0
M  V30 8136 N 778.959 -0.83999 1.33349 0
M  V30 8137 C 780.184 -1.63249 1.27924 0
M  V30 8138 C 780.609 -1.87523 -0.147193 0
M  V30 8139 O 779.967 -1.43853 -1.10345 0
M  V30 8140 C 780.015 -2.96046 2.05886 0
M  V30 8141 O 779.119 -3.87303 1.4167 0
M  V30 8142 H 778.46 -0.49715 0.440157 0
M  V30 8143 H 780.99 -1.04512 1.75893 0
M  V30 8144 H 781 -3.45752 2.16609 0
M  V30 8145 H 779.675 -2.77701 3.09605 0
M  V30 8146 H 778.252 -3.45789 1.39585 0
M  V30 8147 N 780.437 -1.16799 -1.0581 0
M  V30 8148 C 781.387 -0.847231 -2.11674 0
M  V30 8149 C 782.371 0.175476 -1.5994 0
M  V30 8150 O 783.563 -0.0260602 -1.76981 0
M  V30 8151 C 780.692 -0.355446 -3.41455 0
M  V30 8152 C 779.778 -1.40922 -4.00002 0
M  V30 8153 N 780.169 -2.62096 -4.32596 0
M  V30 8154 C 778.467 -1.26562 -4.27666 0
M  V30 8155 C 779.168 -3.29759 -4.79201 0
M  V30 8156 N 778.144 -2.57138 -4.78938 0
M  V30 8157 H 781.946 -1.76862 -2.34727 0
M  V30 8158 H 779.46 -1.05577 -1.23399 0
M  V30 8159 H 781.457 -0.107231 -4.16762 0
M  V30 8160 H 780.117 0.559817 -3.19838 0
M  V30 8161 H 781.128 -2.99113 -4.22791 0
M  V30 8162 H 777.805 -0.411503 -4.15467 0
M  V30 8163 H 779.195 -4.33222 -5.13584 0
M  V30 8164 N 781.915 1.24427 -0.967243 0
M  V30 8165 C 783.326 1.74349 -0.667785 0
M  V30 8166 C 783.677 1.78403 0.816509 0
M  V30 8167 O 782.802 1.41315 1.63887 0
M  V30 8168 C 783.397 3.16628 -1.20548 0
M  V30 8169 C 781.956 3.64059 -0.955934 0
M  V30 8170 C 781.103 2.42715 -1.34106 0
M  V30 8171 H 784.054 1.10136 -1.14262 0
M  V30 8172 H 784.075 3.76183 -0.571547 0
M  V30 8173 H 783.587 3.13646 -2.28578 0
M  V30 8174 H 781.688 3.72441 0.108858 0
M  V30 8175 H 781.801 4.51549 -1.60126 0
M  V30 8176 H 780.165 2.43114 -0.759452 0
M  V30 8177 H 780.948 2.42414 -2.43085 0
M  V30 8178 N 783.393 0.737304 1.3929 0
M  V30 8179 C 784.639 0.286681 2.00763 0
M  V30 8180 C 784.972 -1.12388 1.58375 0
M  V30 8181 O 784.247 -1.76661 0.813699 0
M  V30 8182 C 784.53 0.391147 3.57969 0
M  V30 8183 C 784.383 1.84165 4.1037 0
M  V30 8184 C 785.702 -0.225072 4.39524 0
M  V30 8185 H 782.821 0.105642 0.729389 0
M  V30 8186 H 785.463 0.933892 1.65464 0
M  V30 8187 H 783.613 -0.159875 3.88171 0
M  V30 8188 H 785.285 2.44972 3.90879 0
M  V30 8189 H 783.528 2.3622 3.63844 0
M  V30 8190 H 784.199 1.866 5.19504 0
M  V30 8191 H 786.675 0.244677 4.1538 0
M  V30 8192 H 785.551 -0.121646 5.48765 0
M  V30 8193 H 785.812 -1.31141 4.22202 0
M  V30 8194 N 784.871 -1.49948 0.485112 0
M  V30 8195 C 785.781 -2.32587 -0.306697 0
M  V30 8196 C 786.797 -1.43598 -0.982632 0
M  V30 8197 O 787.973 -1.76638 -0.967519 0
M  V30 8198 C 785.038 -3.18638 -1.3664 0
M  V30 8199 C 784.099 -4.23462 -0.705589 0
M  V30 8200 C 783.332 -5.05401 -1.7148 0
M  V30 8201 O 783.555 -4.88618 -2.94293 0
M  V30 8202 O 782.489 -5.88157 -1.27889 0
M  V30 8203 H 786.315 -3.01447 0.369272 0
M  V30 8204 H 783.9 -1.47349 0.246709 0
M  V30 8205 H 785.782 -3.71992 -1.9799 0
M  V30 8206 H 784.457 -2.52491 -2.02559 0
M  V30 8207 H 783.364 -3.74063 -0.0527733 0
M  V30 8208 H 784.697 -4.92119 -0.0891187 0
M  V30 8209 N 786.349 -0.21828 -1.56081 0
M  V30 8210 C 787.574 0.422302 -2.03055 0
M  V30 8211 C 787.999 1.5279 -1.09713 0
M  V30 8212 O 787.357 1.81102 -0.0847187 0
M  V30 8213 C 787.405 0.934177 -3.48289 0
M  V30 8214 O 786.509 2.04574 -3.58083 0
M  V30 8215 H 785.85 0.0959764 -0.657027 0
M  V30 8216 H 788.38 -0.335958 -2.01823 0
M  V30 8217 H 788.39 1.24484 -3.88546 0
M  V30 8218 H 787.065 0.124963 -4.15712 0
M  V30 8219 H 785.642 1.74196 -3.29712 0
M  V30 8220 N 787.827 1.57504 0.0551401 0
M  V30 8221 C 788.757 2.07864 1.06372 0
M  V30 8222 C 789.738 0.975565 1.39344 0
M  V30 8223 O 790.923 1.24929 1.48682 0
M  V30 8224 C 788.053 2.53643 2.3724 0
M  V30 8225 C 787.007 3.67978 2.18578 0
M  V30 8226 C 786.333 3.9987 3.54976 0
M  V30 8227 C 787.633 4.97405 1.59329 0
M  V30 8228 H 789.327 2.92379 0.644595 0
M  V30 8229 H 786.873 1.40654 0.308619 0
M  V30 8230 H 788.826 2.8749 3.08103 0
M  V30 8231 H 787.55 1.66177 2.81163 0
M  V30 8232 H 786.209 3.3444 1.50152 0
M  V30 8233 H 785.857 3.0951 3.965 0
M  V30 8234 H 785.557 4.76867 3.43324 0
M  V30 8235 H 787.081 4.36228 4.27244 0
M  V30 8236 H 788.495 5.29375 2.20078 0
M  V30 8237 H 786.892 5.78837 1.58327 0
M  V30 8238 H 787.962 4.81697 0.55638 0
M  V30 8239 N 789.305 -0.326896 1.54172 0
M  V30 8240 C 790.268 -1.38515 1.8261 0
M  V30 8241 C 791.268 -1.44872 0.697771 0
M  V30 8242 O 792.458 -1.44957 0.966078 0
M  V30 8243 C 789.59 -2.77281 1.98313 0
M  V30 8244 H 790.783 -1.14556 2.77159 0
M  V30 8245 H 788.336 -0.562199 1.45839 0
M  V30 8246 H 789.071 -3.065 1.05964 0
M  V30 8247 H 788.856 -2.74061 2.80416 0
M  V30 8248 H 790.346 -3.53845 2.21773 0
M  V30 8249 N 790.784 -1.46188 -0.588786 0
M  V30 8250 C 791.714 -1.59148 -1.70863 0
M  V30 8251 C 792.695 -0.442083 -1.64255 0
M  V30 8252 O 793.88 -0.667575 -1.82365 0
M  V30 8253 C 791.01 -1.5757 -3.09498 0
M  V30 8254 C 789.964 -2.71418 -3.30932 0
M  V30 8255 C 789.29 -2.549 -4.70032 0
M  V30 8256 C 790.59 -4.1329 -3.19356 0
M  V30 8257 H 792.284 -2.52889 -1.60274 0
M  V30 8258 H 789.83 -1.21707 -0.769638 0
M  V30 8259 H 791.783 -1.65231 -3.87655 0
M  V30 8260 H 790.507 -0.603705 -3.20972 0
M  V30 8261 H 789.166 -2.63216 -2.55172 0
M  V30 8262 H 788.814 -1.55797 -4.78264 0
M  V30 8263 H 788.514 -3.31257 -4.85327 0
M  V30 8264 H 790.038 -2.64443 -5.50366 0
M  V30 8265 H 791.452 -4.22636 -3.87365 0
M  V30 8266 H 789.849 -4.90187 -3.46175 0
M  V30 8267 H 790.919 -4.33874 -2.16522 0
M  V30 8268 N 792.262 0.832906 -1.33792 0
M  V30 8269 C 793.49 1.62048 -1.28639 0
M  V30 8270 C 793.905 1.88269 0.141522 0
M  V30 8271 O 793.262 1.46706 1.08553 0
M  V30 8272 C 793.313 2.96722 -2.0649 0
M  V30 8273 O 793.034 2.7165 -3.43712 0
M  V30 8274 C 794.535 3.91144 -2.08617 0
M  V30 8275 H 791.755 0.504032 -0.442937 0
M  V30 8276 H 794.299 1.03704 -1.76255 0
M  V30 8277 H 792.454 3.51652 -1.62541 0
M  V30 8278 H 792.868 3.57453 -3.83833 0
M  V30 8279 H 794.342 4.82837 -2.67531 0
M  V30 8280 H 794.819 4.25766 -1.07796 0
M  V30 8281 H 795.425 3.42152 -2.52611 0
M  V30 8282 N 793.74 1.17359 1.05189 0
M  V30 8283 C 794.986 0.963413 1.78455 0
M  V30 8284 C 795.319 -0.506703 1.87473 0
M  V30 8285 O 794.594 -1.37611 1.37453 0
M  V30 8286 C 794.877 1.60519 3.22344 0
M  V30 8287 C 794.73 3.14741 3.21338 0
M  V30 8288 C 796.049 1.3091 4.20179 0
M  V30 8289 H 793.168 0.351412 0.647826 0
M  V30 8290 H 795.81 1.44858 1.22948 0
M  V30 8291 H 793.96 1.19265 3.69741 0
M  V30 8292 H 795.632 3.65053 2.82017 0
M  V30 8293 H 793.875 3.4749 2.59679 0
M  V30 8294 H 794.546 3.54775 4.22894 0
M  V30 8295 H 797.022 1.66635 3.81277 0
M  V30 8296 H 795.898 1.784 5.191 0
M  V30 8297 H 796.159 0.229908 4.41502 0
M  V30 8298 N 795.218 -1.23913 0.973828 0
M  V30 8299 C 796.128 -2.28838 0.516735 0
M  V30 8300 C 797.144 -1.68723 -0.425282 0
M  V30 8301 O 798.32 -1.99201 -0.296819 0
M  V30 8302 C 795.385 -3.46233 -0.179914 0
M  V30 8303 C 794.446 -4.21729 0.80269 0
M  V30 8304 C 793.679 -5.33518 0.139191 0
M  V30 8305 O 793.902 -5.60252 -1.07118 0
M  V30 8306 O 792.836 -5.96088 0.834447 0
M  V30 8307 H 796.662 -2.70067 1.38916 0
M  V30 8308 H 794.247 -1.2972 0.74115 0
M  V30 8309 H 796.129 -4.17514 -0.570991 0
M  V30 8310 H 794.804 -3.06969 -1.02721 0
M  V30 8311 H 793.711 -3.52799 1.24434 0
M  V30 8312 H 795.044 -4.64825 1.61859 0
M  V30 8313 N 796.696 -0.74468 -1.38897 0
M  V30 8314 C 797.606 -0.112892 -2.34328 0
M  V30 8315 C 798.622 0.71087 -1.58816 0
M  V30 8316 O 799.798 0.637092 -1.91058 0
M  V30 8317 C 796.863 0.776417 -3.37894 0
M  V30 8318 C 795.924 -0.0606999 -4.29257 0
M  V30 8319 C 795.157 0.786258 -5.27877 0
M  V30 8320 O 795.38 2.02463 -5.33259 0
M  V30 8321 O 794.314 0.209781 -6.01534 0
M  V30 8322 H 798.14 -0.900801 -2.90033 0
M  V30 8323 H 795.725 -0.505462 -1.4059 0
M  V30 8324 H 797.607 1.28496 -4.01331 0
M  V30 8325 H 796.282 1.54297 -2.84559 0
M  V30 8326 H 795.189 -0.614984 -3.69011 0
M  V30 8327 H 796.522 -0.789702 -4.85824 0
M  V30 8328 N 798.174 1.49689 -0.493057 0
M  V30 8329 C 799.42 2.02727 0.0543518 0
M  V30 8330 C 799.753 1.37264 1.37376 0
M  V30 8331 O 799.028 0.505644 1.87812 0
M  V30 8332 C 799.311 3.59456 0.215226 0
M  V30 8333 C 799.164 4.35459 -1.12675 0
M  V30 8334 C 800.483 4.29511 0.959586 0
M  V30 8335 H 797.602 0.736773 0.0182786 0
M  V30 8336 H 800.244 1.78792 -0.642924 0
M  V30 8337 H 798.394 3.79981 0.809122 0
M  V30 8338 H 800.066 4.2645 -1.75891 0
M  V30 8339 H 798.309 3.9833 -1.71801 0
M  V30 8340 H 798.98 5.43454 -0.967578 0
M  V30 8341 H 801.456 4.13594 0.455977 0
M  V30 8342 H 800.332 5.38939 1.04098 0
M  V30 8343 H 800.593 3.94202 2.00144 0
M  V30 8344 N 799.652 0.226554 1.55963 0
M  V30 8345 C 800.585 -0.721625 2.1649 0
M  V30 8346 C 801.563 -1.18745 1.11078 0
M  V30 8347 O 802.747 -1.26929 1.3936 0
M  V30 8348 C 799.874 -1.97828 2.74921 0
M  V30 8349 C 798.92 -1.65202 3.93206 0
M  V30 8350 S 799.753 -0.772419 5.299 0
M  V30 8351 C 800.909 -2.03853 5.91773 0
M  V30 8352 H 801.142 -0.207192 2.96577 0
M  V30 8353 H 798.675 0.0111976 1.54396 0
M  V30 8354 H 800.633 -2.69982 3.09225 0
M  V30 8355 H 799.294 -2.46384 1.94817 0
M  V30 8356 H 798.487 -2.58583 4.32609 0
M  V30 8357 H 798.089 -1.01108 3.60074 0
M  V30 8358 H 800.381 -2.98799 6.08051 0
M  V30 8359 H 801.324 -1.68831 6.87678 0
M  V30 8360 H 801.732 -2.18134 5.20651 0
M  V30 8361 N 801.13 -1.57531 -0.0467866 0
M  V30 8362 C 802.407 -1.79568 -0.775536 0
M  V30 8363 C 802.787 -0.820322 -1.94509 0
M  V30 8364 O 802.135 0.14134 -2.28062 0
M  V30 8365 C 802.345 -3.26789 -1.22516 0
M  V30 8366 C 803.693 -3.91299 -1.64835 0
M  V30 8367 O 804.717 -3.30831 -1.3202 0
M  V30 8368 O 803.576 -4.97727 -2.25677 0
M  V30 8369 H 800.67 -0.737817 -0.373572 0
M  V30 8370 H 803.216 -1.69682 -0.0249302 0
M  V30 8371 H 801.988 -3.89357 -0.389446 0
M  V30 8372 H 801.611 -3.41496 -2.03633 0
M  V30 8373 N 802.608 0.318715 -1.54344 0
M  V30 8374 C 803.854 1.05765 -1.73037 0
M  V30 8375 C 804.187 1.87514 -0.505181 0
M  V30 8376 O 803.462 1.88021 0.497838 0
M  V30 8377 C 803.745 1.97836 -3.00887 0
M  V30 8378 C 803.598 1.19384 -4.33668 0
M  V30 8379 C 804.917 2.97285 -3.24514 0
M  V30 8380 H 802.036 0.383104 -0.629603 0
M  V30 8381 H 804.678 0.333864 -1.87044 0
M  V30 8382 H 802.828 2.59552 -2.89076 0
M  V30 8383 H 804.5 0.600906 -4.57369 0
M  V30 8384 H 802.743 0.496198 -4.30953 0
M  V30 8385 H 803.414 1.87014 -5.19355 0
M  V30 8386 H 805.89 2.45693 -3.35819 0
M  V30 8387 H 804.766 3.58887 -4.15321 0
M  V30 8388 H 805.027 3.70003 -2.41971 0
M  V30 8389 N 804.086 1.46499 0.581025 0
M  V30 8390 C 805.502 1.31491 0.904563 0
M  V30 8391 C 805.702 0.287598 1.99437 0
M  V30 8392 O 804.758 -0.309247 2.50599 0
M  V30 8393 C 806.071 2.70163 1.32032 0
M  V30 8394 C 807.619 2.78266 1.43308 0
M  V30 8395 C 808.094 4.17524 1.8825 0
M  V30 8396 N 809.585 4.19949 1.9544 0
M  V30 8397 C 810.32 5.24594 2.31493 0
M  V30 8398 N 809.816 6.39564 2.66326 0
M  V30 8399 N 811.609 5.11961 2.32062 0
M  V30 8400 H 803.76 2.11946 -0.138856 0
M  V30 8401 H 806.023 0.948 0.000548528 0
M  V30 8402 H 805.729 3.46655 0.593554 0
M  V30 8403 H 805.603 3.00379 2.2815 0
M  V30 8404 H 807.99 2.02061 2.15071 0
M  V30 8405 H 808.071 2.51732 0.45438 0
M  V30 8406 H 807.715 4.94225 1.17065 0
M  V30 8407 H 807.645 4.41466 2.87081 0
M  V30 8408 H 810.136 3.36996 1.71004 0
M  V30 8409 H 810.449 7.15187 2.92793 0
M  V30 8410 H 808.794 6.42923 2.6396 0
M  V30 8411 H 811.985 4.21177 2.04272 0
M  V30 8412 H 812.158 5.93626 2.5983 0
M  V30 8413 N 805.565 -0.825799 1.34232 0
M  V30 8414 C 806.981 -1.11848 1.13851 0
M  V30 8415 C 807.181 -2.01405 -0.0619031 0
M  V30 8416 O 806.237 -2.41465 -0.738287 0
M  V30 8417 C 807.55 -1.76797 2.43235 0
M  V30 8418 C 809.098 -1.89304 2.49265 0
M  V30 8419 C 809.573 -2.57669 3.78643 0
M  V30 8420 N 811.064 -2.65171 3.79788 0
M  V30 8421 C 811.799 -3.1879 4.76614 0
M  V30 8422 N 811.295 -3.72995 5.83821 0
M  V30 8423 N 813.088 -3.17164 4.64073 0
M  V30 8424 H 805.239 -0.230049 2.11151 0
M  V30 8425 H 807.502 -0.164609 0.9336 0
M  V30 8426 H 807.208 -1.18455 3.31152 0
M  V30 8427 H 807.082 -2.76693 2.56361 0
M  V30 8428 H 809.469 -2.46796 1.6179 0
M  V30 8429 H 809.55 -0.883191 2.4007 0
M  V30 8430 H 809.194 -2.00833 4.66507 0
M  V30 8431 H 809.124 -3.59152 3.8512 0
M  V30 8432 H 811.615 -2.26746 3.02315 0
M  V30 8433 H 811.928 -4.12151 6.53721 0
M  V30 8434 H 810.273 -3.71246 5.87538 0
M  V30 8435 H 813.464 -2.74082 3.79469 0
M  V30 8436 H 813.637 -3.58647 5.397 0
M  V30 8437 N 807.043 -1.17915 -1.04565 0
M  V30 8438 C 808.289 -0.972863 -1.77942 0
M  V30 8439 C 808.622 0.496753 -1.87739 0
M  V30 8440 O 807.897 1.3688 -1.38181 0
M  V30 8441 C 808.18 -1.62227 -3.21488 0
M  V30 8442 C 808.033 -3.16441 -3.19664 0
M  V30 8443 C 809.352 -1.33137 -4.19479 0
M  V30 8444 H 806.471 -0.354843 -0.645953 0
M  V30 8445 H 809.113 -1.45508 -1.22178 0
M  V30 8446 H 807.263 -1.21224 -3.69103 0
M  V30 8447 H 808.935 -3.66544 -2.80077 0
M  V30 8448 H 807.178 -3.48863 -2.57832 0
M  V30 8449 H 807.849 -3.57012 -4.21006 0
M  V30 8450 H 810.325 -1.68654 -3.80388 0
M  V30 8451 H 809.201 -1.81151 -5.18146 0
M  V30 8452 H 809.462 -0.253319 -4.41374 0
M  V30 8453 N 808.521 1.23394 -0.980386 0
M  V30 8454 C 809.451 2.2717 -0.540024 0
M  V30 8455 C 810.432 1.64659 0.426787 0
M  V30 8456 O 811.617 1.91543 0.320153 0
M  V30 8457 C 808.747 3.46939 0.15836 0
M  V30 8458 C 807.701 4.21802 -0.725732 0
M  V30 8459 C 807.027 5.34597 0.104866 0
M  V30 8460 C 808.327 4.81802 -2.01654 0
M  V30 8461 H 810.021 2.64257 -1.40743 0
M  V30 8462 H 807.567 1.2703 -0.678193 0
M  V30 8463 H 809.52 4.18683 0.477737 0
M  V30 8464 H 808.244 3.08912 1.06022 0
M  V30 8465 H 806.903 3.51875 -1.02857 0
M  V30 8466 H 806.551 4.92812 1.00726 0
M  V30 8467 H 806.251 5.85607 -0.483557 0
M  V30 8468 H 807.775 6.09163 0.418624 0
M  V30 8469 H 809.189 5.45554 -1.76193 0
M  V30 8470 H 807.586 5.43098 -2.55273 0
M  V30 8471 H 808.656 4.02549 -2.70338 0
M  V30 8472 N 809.999 0.752036 1.385 0
M  V30 8473 C 811.245 0.307958 2.00448 0
M  V30 8474 C 811.578 -1.10702 1.59558 0
M  V30 8475 O 810.853 -1.75788 0.832391 0
M  V30 8476 C 811.136 0.429092 3.57534 0
M  V30 8477 C 810.989 1.88507 4.08393 0
M  V30 8478 C 812.308 -0.178442 4.39738 0
M  V30 8479 H 809.427 0.113373 0.728228 0
M  V30 8480 H 812.069 0.951389 1.64465 0
M  V30 8481 H 810.219 -0.118695 3.88319 0
M  V30 8482 H 811.891 2.49104 3.88259 0
M  V30 8483 H 810.134 2.40066 3.61318 0
M  V30 8484 H 810.805 1.92099 5.17496 0
M  V30 8485 H 813.281 0.28872 4.15097 0
M  V30 8486 H 812.157 -0.0634349 5.48863 0
M  V30 8487 H 812.418 -1.26655 4.23569 0
M  V30 8488 N 811.477 -1.49425 0.500989 0
M  V30 8489 C 812.424 -2.29126 -0.277443 0
M  V30 8490 C 813.394 -1.35522 -0.960363 0
M  V30 8491 O 814.579 -1.64479 -0.967027 0
M  V30 8492 C 811.719 -3.18193 -1.33593 0
M  V30 8493 C 810.832 -4.26854 -0.664791 0
M  V30 8494 C 809.967 -5.03137 -1.70372 0
M  V30 8495 C 809.006 -6.03635 -1.01445 0
M  V30 8496 N 808.143 -6.73083 -1.99758 0
M  V30 8497 H 812.983 -2.95187 0.408458 0
M  V30 8498 H 810.52 -1.45546 0.213275 0
M  V30 8499 H 812.478 -3.68207 -1.96161 0
M  V30 8500 H 811.108 -2.54116 -1.9906 0
M  V30 8501 H 810.16 -3.80328 0.0741708 0
M  V30 8502 H 811.472 -4.9865 -0.122197 0
M  V30 8503 H 810.626 -5.5702 -2.40445 0
M  V30 8504 H 809.365 -4.31114 -2.28017 0
M  V30 8505 H 808.37 -5.48984 -0.299496 0
M  V30 8506 H 809.595 -6.77644 -0.444497 0
M  V30 8507 H 807.541 -6.03832 -2.56365 0
M  V30 8508 H 807.458 -7.40855 -1.50565 0
M  V30 8509 H 808.726 -7.3157 -2.69119 0
M  V30 8510 N 812.955 -0.234822 -1.55841 0
M  V30 8511 C 813.918 0.656378 -2.196 0
M  V30 8512 C 814.918 1.11179 -1.16171 0
M  V30 8513 O 816.108 1.01845 -1.41326 0
M  V30 8514 C 813.24 1.90072 -2.82993 0
M  V30 8515 H 814.433 0.100281 -2.99732 0
M  V30 8516 H 811.986 0.0147613 -1.56293 0
M  V30 8517 H 812.721 2.49836 -2.06767 0
M  V30 8518 H 812.506 1.5825 -3.58747 0
M  V30 8519 H 813.996 2.53538 -3.31826 0
M  V30 8520 N 814.433 1.57553 0.0384317 0
M  V30 8521 C 815.343 2.09333 1.0591 0
M  V30 8522 C 816.359 1.0299 1.40247 0
M  V30 8523 O 817.535 1.34669 1.49754 0
M  V30 8524 C 814.6 2.55468 2.34386 0
M  V30 8525 C 813.661 3.76254 2.06716 0
M  V30 8526 C 812.894 4.20179 3.29067 0
M  V30 8527 O 813.117 3.637 4.39407 0
M  V30 8528 O 812.051 5.12697 3.15317 0
M  V30 8529 H 815.877 2.96683 0.649087 0
M  V30 8530 H 813.462 1.47211 0.254802 0
M  V30 8531 H 815.344 2.85514 3.09935 0
M  V30 8532 H 814.019 1.71234 2.74701 0
M  V30 8533 H 812.926 3.51241 1.28766 0
M  V30 8534 H 814.259 4.61443 1.71263 0
M  V30 8535 N 815.911 -0.310526 1.54511 0
M  V30 8536 C 816.844 -1.40693 1.79668 0
M  V30 8537 C 817.822 -1.49159 0.64734 0
M  V30 8538 O 819.006 -1.66367 0.886239 0
M  V30 8539 C 816.133 -2.78685 1.92491 0
M  V30 8540 C 815.179 -2.87688 3.14861 0
M  V30 8541 S 816.012 -2.50759 4.7316 0
M  V30 8542 C 817.168 -3.90797 4.88906 0
M  V30 8543 H 817.401 -1.19142 2.72383 0
M  V30 8544 H 814.934 -0.508103 1.458 0
M  V30 8545 H 816.892 -3.58168 2.00563 0
M  V30 8546 H 815.553 -2.9751 1.00731 0
M  V30 8547 H 814.746 -3.8888 3.20607 0
M  V30 8548 H 814.348 -2.16189 3.05186 0
M  V30 8549 H 816.64 -4.85693 4.72344 0
M  V30 8550 H 817.583 -3.90027 5.91003 0
M  V30 8551 H 817.991 -3.80357 4.1712 0
M  V30 8552 N 817.389 -1.46805 -0.573248 0
M  V30 8553 C 818.299 -1.60687 -1.70929 0
M  V30 8554 C 819.315 -0.490084 -1.66956 0
M  V30 8555 O 820.491 -0.755482 -1.86693 0
M  V30 8556 C 817.556 -1.60259 -3.07438 0
M  V30 8557 C 816.617 -2.83242 -3.22603 0
M  V30 8558 C 815.85 -2.82825 -4.52599 0
M  V30 8559 O 816.073 -1.92113 -5.37074 0
M  V30 8560 O 815.007 -3.74489 -4.71213 0
M  V30 8561 H 818.833 -2.56782 -1.62163 0
M  V30 8562 H 816.418 -1.29706 -0.741399 0
M  V30 8563 H 818.3 -1.6275 -3.88704 0
M  V30 8564 H 816.975 -0.673268 -3.16621 0
M  V30 8565 H 815.882 -2.86302 -2.40794 0
M  V30 8566 H 817.215 -3.75415 -3.18315 0
M  V30 8567 N 818.867 0.818669 -1.34668 0
M  V30 8568 C 819.814 1.92983 -1.26595 0
M  V30 8569 C 820.784 1.65506 -0.140315 0
M  V30 8570 O 821.969 1.88063 -0.322005 0
M  V30 8571 C 819.109 3.2932 -1.03163 0
M  V30 8572 C 818.222 3.69061 -2.24539 0
M  V30 8573 C 817.357 4.94368 -1.94355 0
M  V30 8574 C 816.396 5.26702 -3.11851 0
M  V30 8575 N 815.533 6.43187 -2.81522 0
M  V30 8576 H 820.373 1.99219 -2.2162 0
M  V30 8577 H 817.91 0.974612 -1.1018 0
M  V30 8578 H 819.868 4.07897 -0.87613 0
M  V30 8579 H 818.498 3.22584 -0.118045 0
M  V30 8580 H 817.55 2.85842 -2.50995 0
M  V30 8581 H 818.862 3.88924 -3.12313 0
M  V30 8582 H 818.016 5.80742 -1.75566 0
M  V30 8583 H 816.755 4.76515 -1.03848 0
M  V30 8584 H 815.76 4.38823 -3.31231 0
M  V30 8585 H 816.985 5.46492 -4.03142 0
M  V30 8586 H 814.931 6.26783 -1.93596 0
M  V30 8587 H 814.848 6.63243 -3.62829 0
M  V30 8588 H 816.116 7.32621 -2.66247 0
M  V30 8589 N 820.346 1.18468 1.03938 0
M  V30 8590 C 821.593 0.980833 1.77161 0
M  V30 8591 C 821.921 -0.489425 1.88242 0
M  V30 8592 O 821.176 -1.37961 1.388 0
M  V30 8593 C 821.475 1.58229 3.20466 0
M  V30 8594 C 821.141 3.07889 3.29416 0
M  V30 8595 C 819.803 3.48737 3.31566 0
M  V30 8596 C 822.155 4.03903 3.29411 0
M  V30 8597 C 819.483 4.84171 3.31355 0
M  V30 8598 C 821.835 5.39253 3.3074 0
M  V30 8599 C 820.499 5.79547 3.31182 0
M  V30 8600 H 819.769 0.358912 0.648277 0
M  V30 8601 H 822.416 1.47552 1.22069 0
M  V30 8602 H 820.721 1.00964 3.78568 0
M  V30 8603 H 822.418 1.39998 3.75768 0
M  V30 8604 H 819.008 2.75335 3.28464 0
M  V30 8605 H 823.192 3.73395 3.2694 0
M  V30 8606 H 818.448 5.14685 3.30015 0
M  V30 8607 H 822.622 6.13417 3.29686 0
M  V30 8608 H 820.249 6.84466 3.30772 0
M  V30 8609 N 821.824 -1.22873 0.986916 0
M  V30 8610 C 822.754 -2.2688 0.552064 0
M  V30 8611 C 823.735 -1.64883 -0.418048 0
M  V30 8612 O 824.92 -1.9171 -0.30999 0
M  V30 8613 C 822.05 -3.47018 -0.139959 0
M  V30 8614 C 821.004 -4.21411 0.748091 0
M  V30 8615 C 820.33 -5.34645 -0.0765132 0
M  V30 8616 C 821.63 -4.80726 2.04206 0
M  V30 8617 H 823.324 -2.63507 1.42143 0
M  V30 8618 H 820.87 -1.26668 0.68492 0
M  V30 8619 H 822.823 -4.18931 -0.455527 0
M  V30 8620 H 821.547 -3.0947 -1.04382 0
M  V30 8621 H 820.206 -3.51325 1.04721 0
M  V30 8622 H 819.854 -4.93339 -0.981109 0
M  V30 8623 H 819.554 -5.85342 0.514606 0
M  V30 8624 H 821.078 -6.09377 -0.386313 0
M  V30 8625 H 822.492 -5.44612 1.79083 0
M  V30 8626 H 820.889 -5.41737 2.5815 0
M  V30 8627 H 821.959 -4.01109 2.72469 0
M  V30 8628 N 823.302 -0.75937 -1.38099 0
M  V30 8629 C 824.234 -0.0956547 -2.29 0
M  V30 8630 C 825.247 0.677561 -1.4803 0
M  V30 8631 O 826.436 0.517696 -1.70828 0
M  V30 8632 C 823.536 0.88844 -3.27047 0
M  V30 8633 C 822.709 0.171652 -4.37063 0
M  V30 8634 C 821.768 1.06733 -5.15262 0
M  V30 8635 O 820.794 0.535698 -5.66674 0
M  V30 8636 N 821.996 2.39486 -5.28797 0
M  V30 8637 H 824.761 -0.876354 -2.86601 0
M  V30 8638 H 822.322 -0.61065 -1.49942 0
M  V30 8639 H 824.314 1.49079 -3.76241 0
M  V30 8640 H 822.884 1.57018 -2.70304 0
M  V30 8641 H 822.104 -0.611473 -3.89429 0
M  V30 8642 H 823.392 -0.324121 -5.07767 0
M  V30 8643 H 822.79 2.85127 -4.88589 0
M  V30 8644 H 821.347 2.94758 -5.81344 0
M  V30 8645 N 824.78 1.49157 -0.508906 0
M  V30 8646 C 825.728 2.30922 0.278906 0
M  V30 8647 C 826.722 1.39889 0.955382 0
M  V30 8648 O 827.928 1.56901 0.882169 0
M  V30 8649 H 824.303 0.744087 0.108805 0
M  V30 8650 H 826.274 2.95277 -0.430583 0
M  V30 8651 C 825.023 3.21432 1.32576 0
M  V30 8652 H 824.346 3.91413 0.814634 0
M  V30 8653 H 825.786 3.81568 1.84882 0
M  V30 8654 C 824.245 2.41583 2.34817 0
M  V30 8655 O 824.775 2.1256 3.40854 0
M  V30 8656 N 822.981 2.03462 2.07489 0
M  V30 8657 H 822.528 2.27265 1.21278 0
M  V30 8658 H 822.486 1.50345 2.76123 0
M  V30 8659 N 826.258 0.243083 1.55714 0
M  V30 8660 C 827.205 -0.658078 2.21219 0
M  V30 8661 C 828.175 -1.1742 1.17481 0
M  V30 8662 O 829.36 -1.22937 1.45915 0
M  V30 8663 C 826.5 -1.85104 2.91257 0
M  V30 8664 C 825.613 -1.3718 4.09641 0
M  V30 8665 C 824.748 -2.52403 4.67404 0
M  V30 8666 C 823.787 -2.01321 5.78045 0
M  V30 8667 N 822.924 -3.09896 6.30007 0
M  V30 8668 H 827.764 -0.0927854 2.97856 0
M  V30 8669 H 825.301 -0.0340375 1.47061 0
M  V30 8670 H 827.259 -2.55179 3.3006 0
M  V30 8671 H 825.889 -2.38887 2.17101 0
M  V30 8672 H 824.941 -0.565232 3.76177 0
M  V30 8673 H 826.253 -0.957409 4.89525 0
M  V30 8674 H 825.407 -3.30525 5.08761 0
M  V30 8675 H 824.146 -2.97142 3.86728 0
M  V30 8676 H 823.151 -1.21667 5.36169 0
M  V30 8677 H 824.376 -1.57556 6.6057 0
M  V30 8678 H 822.322 -3.54077 5.52237 0
M  V30 8679 H 822.239 -2.72776 7.05074 0
M  V30 8680 H 823.507 -3.8809 6.76023 0
M  V30 8681 N 827.736 -1.57571 -0.0300757 0
M  V30 8682 C 828.646 -2.09892 -1.04798 0
M  V30 8683 C 829.662 -1.03732 -1.39698 0
M  V30 8684 O 830.838 -1.35461 -1.49038 0
M  V30 8685 C 827.903 -2.56707 -2.33028 0
M  V30 8686 C 826.964 -3.77345 -2.04718 0
M  V30 8687 C 826.197 -4.21918 -3.26834 0
M  V30 8688 O 826.42 -3.66025 -4.37472 0
M  V30 8689 O 825.354 -5.14362 -3.12594 0
M  V30 8690 H 829.18 -2.97023 -0.633344 0
M  V30 8691 H 826.765 -1.47344 -0.246991 0
M  V30 8692 H 828.647 -2.87154 -3.08417 0
M  V30 8693 H 827.322 -1.72688 -2.73789 0
M  V30 8694 H 826.229 -3.51919 -1.26901 0
M  V30 8695 H 827.562 -4.62345 -1.68813 0
M  V30 8696 N 829.214 0.302327 -1.54673 0
M  V30 8697 C 830.144 1.37759 -1.88533 0
M  V30 8698 C 831.125 1.52961 -0.744113 0
M  V30 8699 O 832.31 1.6649 -0.999731 0
M  V30 8700 C 829.44 2.74201 -2.13146 0
M  V30 8701 C 828.394 2.73765 -3.28993 0
M  V30 8702 C 827.72 4.13483 -3.39022 0
M  V30 8703 C 829.02 2.35624 -4.66132 0
M  V30 8704 H 830.714 1.0967 -2.78591 0
M  V30 8705 H 828.26 0.52613 -1.34044 0
M  V30 8706 H 830.213 3.49508 -2.35419 0
M  V30 8707 H 828.937 3.03812 -1.19858 0
M  V30 8708 H 827.596 2.00914 -3.06642 0
M  V30 8709 H 827.244 4.40269 -2.43253 0
M  V30 8710 H 826.944 4.14093 -4.16894 0
M  V30 8711 H 828.468 4.90572 -3.63553 0
M  V30 8712 H 829.882 3.00647 -4.88143 0
M  V30 8713 H 828.279 2.47449 -5.46707 0
M  V30 8714 H 829.349 1.30753 -4.66939 0
M  V30 8715 N 830.692 1.47107 0.565454 0
M  V30 8716 C 831.939 1.53308 1.32299 0
M  V30 8717 C 832.267 0.1919 1.93551 0
M  V30 8718 O 831.522 -0.81435 1.77952 0
M  V30 8719 C 831.821 2.59309 2.45954 0
M  V30 8720 C 831.487 4.02827 2.02586 0
M  V30 8721 C 830.149 4.41897 1.90474 0
M  V30 8722 C 832.501 4.92913 1.6937 0
M  V30 8723 C 829.829 5.68898 1.4343 0
M  V30 8724 C 832.181 6.20368 1.238 0
M  V30 8725 C 830.845 6.58327 1.10278 0
M  V30 8726 H 830.115 0.560993 0.484116 0
M  V30 8727 H 832.762 1.80667 0.634965 0
M  V30 8728 H 831.067 2.25676 3.20277 0
M  V30 8729 H 832.764 2.61332 3.04149 0
M  V30 8730 H 829.354 3.71953 2.12952 0
M  V30 8731 H 833.538 4.63433 1.77605 0
M  V30 8732 H 828.794 5.97065 1.31618 0
M  V30 8733 H 832.968 6.89589 0.971586 0
M  V30 8734 H 830.595 7.56628 0.736027 0
M  V30 8735 N 832.17 -0.811516 1.35101 0
M  V30 8736 C 833.395 -1.60499 1.31358 0
M  V30 8737 C 833.82 -1.87793 -0.107383 0
M  V30 8738 O 833.178 -1.46161 -1.07268 0
M  V30 8739 C 833.226 -2.91612 2.12119 0
M  V30 8740 O 832.33 -3.84211 1.49853 0
M  V30 8741 H 831.671 -0.487702 0.450603 0
M  V30 8742 H 834.201 -1.00758 1.7807 0
M  V30 8743 H 834.211 -3.4108 2.23894 0
M  V30 8744 H 832.886 -2.71071 3.15426 0
M  V30 8745 H 831.463 -3.42751 1.46889 0
M  V30 8746 N 833.648 -1.19017 -1.03309 0
M  V30 8747 C 834.873 -1.01598 -1.80811 0
M  V30 8748 C 835.298 0.430773 -1.83101 0
M  V30 8749 O 834.656 1.30946 -1.25391 0
M  V30 8750 C 834.704 -1.5845 -3.23923 0
M  V30 8751 O 833.808 -0.810972 -4.04348 0
M  V30 8752 H 833.149 -0.359398 -0.558327 0
M  V30 8753 H 835.679 -1.57945 -1.30055 0
M  V30 8754 H 835.689 -1.61486 -3.74682 0
M  V30 8755 H 834.364 -2.63752 -3.21571 0
M  V30 8756 H 832.941 -0.85353 -3.63 0
M  V30 8757 N 835.127 1.22348 -0.993418 0
M  V30 8758 C 836.057 2.26584 -0.564088 0
M  V30 8759 C 837.038 1.65102 0.409298 0
M  V30 8760 O 838.223 1.91872 0.299819 0
M  V30 8761 C 835.353 3.47087 0.121554 0
M  V30 8762 C 834.307 4.21009 -0.770429 0
M  V30 8763 C 833.633 5.34678 0.0481586 0
M  V30 8764 C 834.933 4.79636 -2.06752 0
M  V30 8765 H 836.627 2.62749 -1.43538 0
M  V30 8766 H 834.173 1.26303 -0.691628 0
M  V30 8767 H 836.126 4.19166 0.433303 0
M  V30 8768 H 834.85 3.1002 1.0274 0
M  V30 8769 H 833.509 3.50764 -1.06583 0
M  V30 8770 H 833.157 4.93852 0.954933 0
M  V30 8771 H 832.857 5.85061 -0.545641 0
M  V30 8772 H 834.381 6.09573 0.353991 0
M  V30 8773 H 835.795 5.43654 -1.81969 0
M  V30 8774 H 834.192 5.4036 -2.61019 0
M  V30 8775 H 835.262 3.99659 -2.74592 0
M  V30 8776 N 836.605 0.766683 1.37694 0
M  V30 8777 C 837.552 0.147725 2.30327 0
M  V30 8778 C 838.522 -0.695366 1.50844 0
M  V30 8779 O 839.707 -0.64878 1.79431 0
M  V30 8780 C 836.847 -0.72935 3.37305 0
M  V30 8781 C 835.96 0.129795 4.31805 0
M  V30 8782 C 835.095 -0.751511 5.25857 0
M  V30 8783 C 834.134 0.110475 6.12 0
M  V30 8784 N 833.271 -0.728522 6.9831 0
M  V30 8785 H 838.111 0.943204 2.82679 0
M  V30 8786 H 835.648 0.476736 1.3916 0
M  V30 8787 H 837.606 -1.25263 3.97951 0
M  V30 8788 H 836.236 -1.49048 2.86329 0
M  V30 8789 H 835.288 0.770829 3.72508 0
M  V30 8790 H 836.6 0.794923 4.92425 0
M  V30 8791 H 835.754 -1.34146 5.91684 0
M  V30 8792 H 834.493 -1.45034 4.65636 0
M  V30 8793 H 833.498 0.712999 5.45157 0
M  V30 8794 H 834.723 0.806557 6.74293 0
M  V30 8795 H 832.669 -1.41206 6.40622 0
M  V30 8796 H 832.586 -0.12058 7.55904 0
M  V30 8797 H 833.854 -1.30303 7.68532 0
M  V30 8798 N 838.083 -1.48885 0.516809 0
M  V30 8799 C 839.03 -2.29408 -0.253125 0
M  V30 8800 C 840 -1.36533 -0.945935 0
M  V30 8801 O 841.185 -1.65495 -0.949527 0
M  V30 8802 C 838.325 -3.19592 -1.30211 0
M  V30 8803 C 837.438 -4.27535 -0.61948 0
M  V30 8804 C 836.573 -5.04916 -1.65026 0
M  V30 8805 C 835.612 -6.04677 -0.950368 0
M  V30 8806 N 834.749 -6.75164 -1.92608 0
M  V30 8807 H 839.589 -2.94738 0.439744 0
M  V30 8808 H 837.126 -1.45311 0.2287 0
M  V30 8809 H 839.084 -3.70267 -1.92245 0
M  V30 8810 H 837.714 -2.56213 -1.96353 0
M  V30 8811 H 836.766 -3.80228 0.114505 0
M  V30 8812 H 838.078 -4.98752 -0.0693016 0
M  V30 8813 H 837.232 -5.59539 -2.34523 0
M  V30 8814 H 835.971 -4.33508 -2.23432 0
M  V30 8815 H 834.976 -5.4927 -0.241252 0
M  V30 8816 H 836.201 -6.78077 -0.372599 0
M  V30 8817 H 834.147 -6.06517 -2.49946 0
M  V30 8818 H 834.064 -7.4241 -1.42699 0
M  V30 8819 H 835.332 -7.34384 -2.61345 0
M  V30 8820 N 839.561 -0.251338 -1.55583 0
M  V30 8821 C 840.809 0.371434 -1.98657 0
M  V30 8822 C 841.13 1.58143 -1.14087 0
M  V30 8823 O 840.4 1.94607 -0.224708 0
M  V30 8824 H 838.98 0.140225 -0.733721 0
M  V30 8825 H 841.642 -0.351157 -1.9171 0
M  V30 8826 H 840.738 0.677554 -3.04657 0
M  V30 8827 N 841.039 1.57585 0.0217189 0
M  V30 8828 C 841.986 2.07036 1.02004 0
M  V30 8829 C 842.956 0.96106 1.35473 0
M  V30 8830 O 844.141 1.23211 1.45684 0
M  V30 8831 C 841.281 2.56056 2.31364 0
M  V30 8832 C 840.394 3.80805 2.03989 0
M  V30 8833 C 839.529 4.18409 3.27272 0
M  V30 8834 C 838.568 5.36055 2.95486 0
M  V30 8835 N 837.705 5.69056 4.11242 0
M  V30 8836 H 842.545 2.92073 0.591396 0
M  V30 8837 H 840.082 1.44403 0.280384 0
M  V30 8838 H 842.04 2.82548 3.06957 0
M  V30 8839 H 840.67 1.73925 2.71937 0
M  V30 8840 H 839.722 3.61354 1.1886 0
M  V30 8841 H 841.034 4.66512 1.76546 0
M  V30 8842 H 840.188 4.46068 4.11228 0
M  V30 8843 H 838.927 3.31369 3.57835 0
M  V30 8844 H 837.932 5.08142 2.09933 0
M  V30 8845 H 839.157 6.24755 2.66193 0
M  V30 8846 H 837.103 4.84974 4.41742 0
M  V30 8847 H 837.02 6.49288 3.87247 0
M  V30 8848 H 838.288 6.01295 4.96049 0
M  V30 8849 N 842.517 -0.29412 1.54831 0
M  V30 8850 C 843.766 -1.02614 1.73647 0
M  V30 8851 C 844.079 -1.88193 0.533162 0
M  V30 8852 O 845.285 -2.64713 0.603275 0
M  V30 8853 C 843.741 -1.87417 3.07251 0
M  V30 8854 C 843.349 -1.06806 4.35082 0
M  V30 8855 C 845.093 -2.60176 3.35423 0
M  V30 8856 C 843 -1.90926 5.59733 0
M  V30 8857 H 841.93 -0.386834 0.647206 0
M  V30 8858 H 844.581 -0.282789 1.81308 0
M  V30 8859 H 842.963 -2.65765 2.93572 0
M  V30 8860 H 844.137 -0.330226 4.59615 0
M  V30 8861 H 842.452 -0.455979 4.13896 0
M  V30 8862 H 845.049 -3.23476 4.25755 0
M  V30 8863 H 845.392 -3.29365 2.54606 0
M  V30 8864 H 845.925 -1.88871 3.50103 0
M  V30 8865 H 842.664 -1.26194 6.43238 0
M  V30 8866 H 842.184 -2.62363 5.39375 0
M  V30 8867 H 843.863 -2.48807 5.97247 0
M  V30 8868 N 843.995 -1.47404 -0.557645 0
M  V30 8869 C 845.235 -1.55585 -1.32562 0
M  V30 8870 C 845.599 -0.212926 -1.90816 0
M  V30 8871 O 846.8 -0.169574 -2.68265 0
M  V30 8872 C 845.071 -2.64249 -2.40639 0
M  V30 8873 S 846.63 -2.9201 -3.2753 0
M  V30 8874 H 843.448 -0.549409 -0.451298 0
M  V30 8875 H 846.05 -1.84782 -0.638438 0
M  V30 8876 H 844.754 -3.60421 -1.96277 0
M  V30 8877 H 844.285 -2.36866 -3.14099 0
M  V30 8878 H 846.3 -2.29191 -4.40098 0
M  V30 8879 N 845.473 0.80434 -1.35529 0
M  V30 8880 C 846.713 1.57489 -1.30295 0
M  V30 8881 C 847.077 1.91621 0.120528 0
M  V30 8882 O 848.278 2.67151 0.297265 0
M  V30 8883 C 846.549 2.82741 -2.18615 0
M  V30 8884 S 848.108 3.73125 -2.30918 0
M  V30 8885 H 844.926 0.539573 -0.463014 0
M  V30 8886 H 847.528 0.948601 -1.70944 0
M  V30 8887 H 846.232 2.55692 -3.21014 0
M  V30 8888 H 845.763 3.50353 -1.78931 0
M  V30 8889 H 847.778 4.73122 -1.49566 0
M  V30 8890 N 846.951 1.19563 1.02676 0
M  V30 8891 C 848.191 1.01072 1.77662 0
M  V30 8892 C 848.555 -0.450344 1.86644 0
M  V30 8893 O 849.756 -0.755132 2.57975 0
M  V30 8894 C 848.027 1.66383 3.16309 0
M  V30 8895 S 849.586 1.62858 4.07459 0
M  V30 8896 H 846.404 0.362644 0.611564 0
M  V30 8897 H 849.006 1.51947 1.23014 0
M  V30 8898 H 847.71 2.71917 3.07391 0
M  V30 8899 H 847.241 1.15596 3.76033 0
M  V30 8900 H 849.256 0.654265 4.91868 0
M  V30 8901 N 848.429 -1.21819 0.999893 0
M  V30 8902 C 849.669 -1.92473 0.687996 0
M  V30 8903 C 850.033 -1.76033 -0.766569 0
M  V30 8904 O 851.234 -2.41013 -1.19021 0
M  V30 8905 C 849.505 -3.40332 1.09129 0
M  V30 8906 S 851.064 -4.29496 0.898822 0
M  V30 8907 H 847.882 -0.665097 0.251329 0
M  V30 8908 H 850.484 -1.47454 1.28364 0
M  V30 8909 H 849.188 -3.49812 2.14615 0
M  V30 8910 H 848.719 -3.90365 0.487724 0
M  V30 8911 H 850.734 -4.95769 -0.206873 0
M  V30 8912 N 849.908 -0.773975 -1.37286 0
M  V30 8913 C 851.324 -0.45386 -1.53011 0
M  V30 8914 C 851.524 1.03018 -1.73175 0
M  V30 8915 O 850.58 1.81597 -1.75438 0
M  V30 8916 C 851.893 -1.27087 -2.72524 0
M  V30 8917 C 853.441 -1.26299 -2.86387 0
M  V30 8918 C 853.916 -2.0634 -4.08886 0
M  V30 8919 N 855.407 -2.03706 -4.16003 0
M  V30 8920 C 856.142 -2.62418 -5.09828 0
M  V30 8921 N 855.638 -3.29926 -6.09197 0
M  V30 8922 N 857.431 -2.52236 -5.02328 0
M  V30 8923 H 849.582 -1.73551 -1.22449 0
M  V30 8924 H 851.845 -0.736874 -0.596423 0
M  V30 8925 H 851.551 -2.32263 -2.64096 0
M  V30 8926 H 851.425 -0.90157 -3.66267 0
M  V30 8927 H 853.812 -0.219213 -2.94285 0
M  V30 8928 H 853.893 -1.67195 -1.93596 0
M  V30 8929 H 853.537 -3.10741 -4.01749 0
M  V30 8930 H 853.467 -1.62825 -5.00795 0
M  V30 8931 H 855.958 -1.54559 -3.44848 0
M  V30 8932 H 856.271 -3.72095 -6.77322 0
M  V30 8933 H 854.616 -3.34026 -6.09469 0
M  V30 8934 H 857.807 -1.99108 -4.23643 0
M  V30 8935 H 857.98 -2.98286 -5.75265 0
M  V30 8936 N 851.386 1.48609 -0.524698 0
M  V30 8937 C 852.349 2.28041 0.230166 0
M  V30 8938 C 853.349 1.35065 0.872584 0
M  V30 8939 O 854.539 1.58007 0.73345 0
M  V30 8940 C 851.671 3.13778 1.33252 0
M  V30 8941 H 852.864 2.96239 -0.467161 0
M  V30 8942 H 850.417 1.53763 -0.280452 0
M  V30 8943 H 851.152 2.502 2.06327 0
M  V30 8944 H 850.937 3.82165 0.877058 0
M  V30 8945 H 852.427 3.7371 1.86362 0
M  V30 8946 N 852.864 0.259585 1.55447 0
M  V30 8947 C 853.811 -0.634578 2.21905 0
M  V30 8948 C 854.781 -1.16168 1.18719 0
M  V30 8949 O 855.966 -1.21383 1.4721 0
M  V30 8950 C 853.106 -1.82005 2.93203 0
M  V30 8951 C 852.219 -1.32828 4.11073 0
M  V30 8952 C 851.354 -2.47431 4.70055 0
M  V30 8953 C 850.393 -1.95179 5.80148 0
M  V30 8954 N 849.53 -3.03197 6.33258 0
M  V30 8955 H 854.37 -0.0611886 2.97937 0
M  V30 8956 H 851.907 -0.0184378 1.47088 0
M  V30 8957 H 853.865 -2.51664 3.32748 0
M  V30 8958 H 852.495 -2.36571 2.19622 0
M  V30 8959 H 851.547 -0.525301 3.76756 0
M  V30 8960 H 852.859 -0.905435 4.90513 0
M  V30 8961 H 852.013 -3.25111 5.12238 0
M  V30 8962 H 850.752 -2.93023 3.89857 0
M  V30 8963 H 849.757 -1.15974 5.37429 0
M  V30 8964 H 850.982 -1.50541 6.62204 0
M  V30 8965 H 848.928 -3.48199 5.55961 0
M  V30 8966 H 848.845 -2.65282 7.07928 0
M  V30 8967 H 850.113 -3.80898 6.80101 0
M  V30 8968 N 854.342 -1.57594 -0.0133615 0
M  V30 8969 C 855.589 -1.8998 -0.70098 0
M  V30 8970 C 855.917 -0.858802 -1.74513 0
M  V30 8971 O 855.172 0.138209 -1.95211 0
M  V30 8972 C 855.471 -3.29121 -1.39336 0
M  V30 8973 C 855.137 -4.48298 -0.483687 0
M  V30 8974 C 853.799 -4.80635 -0.233186 0
M  V30 8975 C 856.151 -5.21003 0.143426 0
M  V30 8976 C 853.479 -5.83055 0.652943 0
M  V30 8977 C 855.831 -6.24366 1.01735 0
M  V30 8978 C 854.495 -6.55168 1.27716 0
M  V30 8979 H 853.765 -0.695187 -0.256507 0
M  V30 8980 H 856.412 -1.9146 0.0392965 0
M  V30 8981 H 854.717 -3.23703 -2.20735 0
M  V30 8982 H 856.414 -3.51433 -1.93121 0
M  V30 8983 H 853.004 -4.23024 -0.689092 0
M  V30 8984 H 857.188 -4.96286 -0.0371139 0
M  V30 8985 H 852.444 -6.05288 0.862379 0
M  V30 8986 H 856.618 -6.79839 1.5097 0
M  V30 8987 H 854.245 -7.34351 1.9655 0
M  V30 8988 N 855.82 0.285905 -1.54985 0
M  V30 8989 C 857.231 0.857869 -1.65824 0
M  V30 8990 C 857.582 1.87531 -0.576763 0
M  V30 8991 O 856.707 2.14528 0.284016 0
M  V30 8992 C 857.302 1.56277 -3.00604 0
M  V30 8993 C 855.861 2.08294 -3.13513 0
M  V30 8994 C 855.008 0.920633 -2.61571 0
M  V30 8995 H 857.959 0.0625463 -1.58577 0
M  V30 8996 H 857.98 2.42912 -2.92872 0
M  V30 8997 H 857.492 0.822017 -3.79295 0
M  V30 8998 H 855.593 2.8537 -2.39572 0
M  V30 8999 H 855.706 2.3071 -4.19892 0
M  V30 9000 H 854.07 1.31043 -2.18403 0
M  V30 9001 H 854.853 0.193594 -3.42754 0
M  V30 9002 N 857.298 1.47698 0.54982 0
M  V30 9003 C 858.228 1.63622 1.66583 0
M  V30 9004 C 859.209 0.485477 1.63025 0
M  V30 9005 O 860.394 0.715692 1.80531 0
M  V30 9006 C 857.524 1.65721 3.05211 0
M  V30 9007 C 856.478 2.80097 3.2362 0
M  V30 9008 C 855.804 2.67272 4.63109 0
M  V30 9009 C 857.104 4.21612 3.08286 0
M  V30 9010 H 858.798 2.57049 1.53512 0
M  V30 9011 H 856.344 1.23705 0.737099 0
M  V30 9012 H 858.297 1.75451 3.83138 0
M  V30 9013 H 857.021 0.688593 3.19258 0
M  V30 9014 H 855.68 2.69889 2.48104 0
M  V30 9015 H 855.328 1.68422 4.73965 0
M  V30 9016 H 855.028 3.44008 4.76374 0
M  V30 9017 H 856.552 2.78942 5.43161 0
M  V30 9018 H 857.966 4.32758 3.76024 0
M  V30 9019 H 856.363 4.99193 3.33057 0
M  V30 9020 H 857.433 4.39462 2.04942 0
M  V30 9021 N 858.776 -0.797141 1.35954 0
M  V30 9022 C 860.023 -1.55468 1.29754 0
M  V30 9023 C 860.351 -1.94095 -0.125391 0
M  V30 9024 O 859.606 -1.62341 -1.09288 0
M  V30 9025 C 859.905 -2.84847 2.15863 0
M  V30 9026 C 859.571 -2.65394 3.64523 0
M  V30 9027 C 858.233 -2.59796 4.05042 0
M  V30 9028 C 860.585 -2.4727 4.58811 0
M  V30 9029 C 857.913 -2.3403 5.38002 0
M  V30 9030 C 860.265 -2.23032 5.91979 0
M  V30 9031 C 858.929 -2.15862 6.31633 0
M  V30 9032 H 858.199 -0.568897 0.474803 0
M  V30 9033 H 860.846 -0.920299 1.67937 0
M  V30 9034 H 859.151 -3.52712 1.70591 0
M  V30 9035 H 860.848 -3.42597 2.08395 0
M  V30 9036 H 857.438 -2.70602 3.32374 0
M  V30 9037 H 861.622 -2.506 4.28384 0
M  V30 9038 H 856.878 -2.26956 5.67715 0
M  V30 9039 H 861.052 -2.08001 6.64612 0
M  V30 9040 H 858.679 -1.9566 7.34589 0
M  V30 9041 N 860.254 -1.20106 -1.0204 0
M  V30 9042 C 861.479 -1.0351 -1.79723 0
M  V30 9043 C 861.904 0.411328 -1.83548 0
M  V30 9044 O 861.262 1.29608 -1.26773 0
M  V30 9045 C 861.31 -1.61876 -3.22224 0
M  V30 9046 O 860.414 -0.853813 -4.03465 0
M  V30 9047 H 859.755 -0.365299 -0.554484 0
M  V30 9048 H 862.285 -1.59316 -1.28373 0
M  V30 9049 H 862.295 -1.65451 -3.72948 0
M  V30 9050 H 860.97 -2.67148 -3.18755 0
M  V30 9051 H 859.547 -0.891983 -3.62075 0
M  V30 9052 N 861.732 1.21287 -1.00634 0
M  V30 9053 C 862.978 1.90957 -0.70051 0
M  V30 9054 C 863.333 1.76729 0.760567 0
M  V30 9055 O 862.626 1.13405 1.54434 0
M  V30 9056 C 862.82 3.41374 -1.05824 0
M  V30 9057 C 862.649 3.70237 -2.55254 0
M  V30 9058 C 861.419 3.89518 -3.21876 0
M  V30 9059 C 863.617 3.73633 -3.53417 0
M  V30 9060 N 861.599 4.05809 -4.60643 0
M  V30 9061 C 862.97 3.95225 -4.777 0
M  V30 9062 C 865.025 3.56545 -3.47534 0
M  V30 9063 C 863.728 4.01502 -5.96815 0
M  V30 9064 C 865.754 3.64089 -4.6604 0
M  V30 9065 C 865.116 3.86144 -5.89128 0
M  V30 9066 H 861.215 0.718861 -0.307835 0
M  V30 9067 H 863.799 1.45913 -1.28908 0
M  V30 9068 H 861.97 3.85193 -0.498106 0
M  V30 9069 H 863.702 3.98476 -0.707006 0
M  V30 9070 H 860.457 3.87479 -2.72318 0
M  V30 9071 H 860.881 4.17854 -5.32661 0
M  V30 9072 H 865.523 3.38469 -2.53375 0
M  V30 9073 H 863.241 4.18378 -6.91365 0
M  V30 9074 H 866.827 3.52188 -4.63092 0
M  V30 9075 H 865.707 3.91827 -6.79295 0
M  V30 9076 N 863.21 0.781244 1.36873 0
M  V30 9077 C 864.621 0.414093 1.8205 0
M  V30 9078 C 864.972 -1.06098 1.65039 0
M  V30 9079 O 864.097 -1.82251 1.16677 0
M  V30 9080 C 864.692 0.744837 3.30511 0
M  V30 9081 C 863.251 0.430621 3.73929 0
M  V30 9082 C 862.398 0.983746 2.59264 0
M  V30 9083 H 865.349 0.975091 1.2521 0
M  V30 9084 H 865.37 0.032936 3.80486 0
M  V30 9085 H 864.882 1.81847 3.42861 0
M  V30 9086 H 862.983 -0.635308 3.67144 0
M  V30 9087 H 863.096 0.945514 4.69677 0
M  V30 9088 H 861.46 0.407433 2.5142 0
M  V30 9089 H 862.243 2.06297 2.74402 0
M  V30 9090 N 864.689 -1.48329 0.532571 0
M  V30 9091 C 866.1 -1.86469 0.0927749 0
M  V30 9092 C 866.451 -1.44186 -1.3306 0
M  V30 9093 O 865.576 -0.833741 -1.99694 0
M  V30 9094 C 866.171 -3.38414 0.161588 0
M  V30 9095 C 864.73 -3.75739 -0.223028 0
M  V30 9096 C 863.877 -2.72377 0.520199 0
M  V30 9097 H 866.828 -1.40197 0.743678 0
M  V30 9098 H 866.849 -3.75314 -0.626059 0
M  V30 9099 H 866.361 -3.69159 1.19765 0
M  V30 9100 H 864.462 -3.50608 -1.26113 0
M  V30 9101 H 864.575 -4.78954 0.118385 0
M  V30 9102 H 862.939 -2.54678 -0.0338425 0
M  V30 9103 H 863.722 -3.05965 1.55694 0
M  V30 9104 N 866.167 -0.267825 -1.55308 0
M  V30 9105 C 867.392 0.357487 -2.04296 0
M  V30 9106 C 867.817 1.49222 -1.14518 0
M  V30 9107 O 867.175 1.80741 -0.142292 0
M  V30 9108 C 867.223 0.822899 -3.51085 0
M  V30 9109 O 866.327 1.93078 -3.6441 0
M  V30 9110 H 865.668 0.075025 -0.659748 0
M  V30 9111 H 868.198 -0.399996 -2.00652 0
M  V30 9112 H 868.208 1.12059 -3.92309 0
M  V30 9113 H 866.883 -0.0073562 -4.15899 0
M  V30 9114 H 865.46 1.63618 -3.35087 0
M  V30 9115 N 867.645 1.57599 0.00500368 0
M  V30 9116 C 868.885 1.92205 0.695456 0
M  V30 9117 C 869.249 0.868894 1.71214 0
M  V30 9118 O 870.45 1.10004 2.4526 0
M  V30 9119 C 868.721 3.31882 1.32625 0
M  V30 9120 S 870.28 3.88364 2.04252 0
M  V30 9121 H 867.098 0.672826 0.22984 0
M  V30 9122 H 869.7 1.95435 -0.0504824 0
M  V30 9123 H 868.404 4.06375 0.573396 0
M  V30 9124 H 867.935 3.32013 2.11023 0
M  V30 9125 H 869.95 3.69035 3.31704 0
M  V30 9126 N 869.123 -0.277682 1.55134 0
M  V30 9127 C 870.053 -1.34742 1.90701 0
M  V30 9128 C 871.034 -1.51757 0.768354 0
M  V30 9129 O 872.219 -1.64879 1.02609 0
M  V30 9130 C 869.349 -2.70775 2.17481 0
M  V30 9131 C 868.303 -2.68497 3.33307 0
M  V30 9132 C 867.629 -4.08037 3.45557 0
M  V30 9133 C 868.929 -2.28178 4.69821 0
M  V30 9134 H 870.623 -1.05224 2.803 0
M  V30 9135 H 868.169 -0.504738 1.34864 0
M  V30 9136 H 870.122 -3.45719 2.40949 0
M  V30 9137 H 868.846 -3.01867 1.24676 0
M  V30 9138 H 867.505 -1.9601 3.09799 0
M  V30 9139 H 867.153 -4.36344 2.50226 0
M  V30 9140 H 866.853 -4.07409 4.23429 0
M  V30 9141 H 868.377 -4.84726 3.71312 0
M  V30 9142 H 869.791 -2.92843 4.92865 0
M  V30 9143 H 868.188 -2.3872 5.50575 0
M  V30 9144 H 869.258 -1.23308 4.6896 0
M  V30 9145 N 870.601 -1.47988 -0.541979 0
M  V30 9146 C 871.848 -1.55393 -1.29843 0
M  V30 9147 C 872.176 -0.222668 -1.93221 0
M  V30 9148 O 871.431 0.785936 -1.79225 0
M  V30 9149 C 871.73 -2.63189 -2.41798 0
M  V30 9150 C 871.396 -4.05999 -1.96151 0
M  V30 9151 C 870.058 -4.44872 -1.83419 0
M  V30 9152 C 872.41 -4.95545 -1.61507 0
M  V30 9153 C 869.738 -5.71108 -1.34361 0
M  V30 9154 C 872.09 -6.22259 -1.13915 0
M  V30 9155 C 870.754 -6.59998 -0.997911 0
M  V30 9156 H 870.024 -0.568623 -0.47513 0
M  V30 9157 H 872.671 -1.81654 -0.606142 0
M  V30 9158 H 870.976 -2.30743 -3.16647 0
M  V30 9159 H 872.673 -2.66138 -2.99953 0
M  V30 9160 H 869.263 -3.75294 -2.07008 0
M  V30 9161 H 873.447 -4.662 -1.70209 0
M  V30 9162 H 868.703 -5.99083 -1.22103 0
M  V30 9163 H 872.877 -6.91048 -0.861755 0
M  V30 9164 H 870.504 -7.57704 -0.615561 0
M  V30 9165 N 872.079 0.78992 -1.36375 0
M  V30 9166 C 873.319 1.56098 -1.31958 0
M  V30 9167 C 873.683 1.91738 0.100197 0
M  V30 9168 O 874.884 2.67451 0.268913 0
M  V30 9169 C 873.155 2.80406 -2.21601 0
M  V30 9170 S 874.714 3.70655 -2.34863 0
M  V30 9171 H 871.532 0.534632 -0.46871 0
M  V30 9172 H 874.134 0.930417 -1.7194 0
M  V30 9173 H 872.838 2.52273 -3.23707 0
M  V30 9174 H 872.369 3.48436 -1.82637 0
M  V30 9175 H 874.384 4.71509 -1.54575 0
M  V30 9176 N 873.557 1.20646 1.01402 0
M  V30 9177 C 874.504 0.957618 2.09996 0
M  V30 9178 C 875.474 -0.113115 1.65714 0
M  V30 9179 O 876.659 0.032142 1.90773 0
M  V30 9180 C 873.799 0.5186 3.41181 0
M  V30 9181 C 872.912 1.65777 3.98926 0
M  V30 9182 C 872.047 1.16881 5.18182 0
M  V30 9183 C 871.086 2.2809 5.68015 0
M  V30 9184 N 870.223 1.80392 6.7853 0
M  V30 9185 H 875.063 1.88732 2.30617 0
M  V30 9186 H 872.6 0.940703 1.13089 0
M  V30 9187 H 874.558 0.245367 4.16478 0
M  V30 9188 H 873.188 -0.3741 3.20625 0
M  V30 9189 H 872.24 2.04586 3.207 0
M  V30 9190 H 873.552 2.49507 4.31912 0
M  V30 9191 H 872.706 0.851694 6.00692 0
M  V30 9192 H 871.445 0.301434 4.86768 0
M  V30 9193 H 870.45 2.60614 4.84108 0
M  V30 9194 H 871.675 3.15308 6.01463 0
M  V30 9195 H 869.621 0.959856 6.4894 0
M  V30 9196 H 869.538 2.57701 7.10722 0
M  V30 9197 H 870.806 1.51688 7.64598 0
M  V30 9198 N 875.035 -1.20752 1.01276 0
M  V30 9199 C 876.451 -1.42084 0.726934 0
M  V30 9200 C 876.651 -1.89138 -0.694907 0
M  V30 9201 O 875.707 -2.05783 -1.4632 0
M  V30 9202 C 877.02 -2.44575 1.74938 0
M  V30 9203 C 878.568 -2.58347 1.76708 0
M  V30 9204 C 879.043 -3.64078 2.77869 0
M  V30 9205 N 880.534 -3.71558 2.76585 0
M  V30 9206 C 881.269 -4.53016 3.51517 0
M  V30 9207 N 880.765 -5.38309 4.36114 0
M  V30 9208 N 882.558 -4.47512 3.40132 0
M  V30 9209 H 874.709 -0.885228 1.93074 0
M  V30 9210 H 876.972 -0.451075 0.833808 0
M  V30 9211 H 876.678 -2.1699 2.76782 0
M  V30 9212 H 876.552 -3.43503 1.55838 0
M  V30 9213 H 878.939 -2.85265 0.755516 0
M  V30 9214 H 879.02 -1.59628 1.99882 0
M  V30 9215 H 878.664 -3.37905 3.79187 0
M  V30 9216 H 878.594 -4.62412 2.51958 0
M  V30 9217 H 881.085 -3.10629 2.15216 0
M  V30 9218 H 881.398 -5.9754 4.90068 0
M  V30 9219 H 879.743 -5.37824 4.40194 0
M  V30 9220 H 882.934 -3.79912 2.73467 0
M  V30 9221 H 883.107 -5.10759 3.98784 0
M  V30 9222 N 876.513 -0.788492 -1.36457 0
M  V30 9223 C 877.476 -0.192209 -2.28393 0
M  V30 9224 C 878.476 0.609916 -1.48784 0
M  V30 9225 O 879.666 0.431046 -1.68783 0
M  V30 9226 C 876.798 0.734096 -3.32902 0
M  V30 9227 H 877.991 -1.00284 -2.82636 0
M  V30 9228 H 875.544 -0.557852 -1.46006 0
M  V30 9229 H 876.279 1.5691 -2.83813 0
M  V30 9230 H 876.064 0.160875 -3.9177 0
M  V30 9231 H 877.554 1.1462 -4.01562 0
M  V30 9232 N 877.991 1.48044 -0.54043 0
M  V30 9233 C 879.237 2.02797 -0.0101718 0
M  V30 9234 C 879.57 1.41565 1.32939 0
M  V30 9235 O 878.845 0.565139 1.86109 0
M  V30 9236 C 879.128 3.59959 0.100758 0
M  V30 9237 C 878.981 4.31654 -1.26471 0
M  V30 9238 C 880.3 4.32347 0.822455 0
M  V30 9239 H 877.419 0.736982 -0.00517052 0
M  V30 9240 H 880.061 1.76656 -0.69948 0
M  V30 9241 H 878.211 3.82363 0.687824 0
M  V30 9242 H 879.883 4.20639 -1.89369 0
M  V30 9243 H 878.126 3.92663 -1.84386 0
M  V30 9244 H 878.797 5.401 -1.13998 0
M  V30 9245 H 881.273 4.14835 0.324164 0
M  V30 9246 H 880.149 5.41978 0.868993 0
M  V30 9247 H 880.41 4.00369 1.87501 0
M  V30 9248 N 879.47 0.276058 1.55163 0
M  V30 9249 C 880.71 -0.341634 2.01525 0
M  V30 9250 C 881.074 -1.52979 1.16023 0
M  V30 9251 O 882.275 -2.21718 1.51968 0
M  V30 9252 C 880.546 -0.713294 3.5021 0
M  V30 9253 S 882.105 -1.31739 4.18558 0
M  V30 9254 H 878.923 -0.1062 0.703024 0
M  V30 9255 H 881.525 0.398112 1.91404 0
M  V30 9256 H 880.229 0.160311 4.10087 0
M  V30 9257 H 879.76 -1.48448 3.64317 0
M  V30 9258 H 881.775 -2.60595 4.22261 0
M  V30 9259 N 880.948 -1.576 0.00335426 0
M  V30 9260 C 882.176 -1.94996 -0.691685 0
M  V30 9261 C 882.591 -0.878405 -1.67121 0
M  V30 9262 O 881.948 0.142343 -1.81944 0
M  V30 9263 C 881.999 -3.32416 -1.42063 0
M  V30 9264 O 881.72 -4.35458 -0.48038 0
M  V30 9265 C 883.221 -3.84291 -2.20987 0
M  V30 9266 H 880.441 -0.642814 -0.192434 0
M  V30 9267 H 882.985 -2.04425 0.0554706 0
M  V30 9268 H 881.14 -3.24285 -2.11939 0
M  V30 9269 H 881.554 -5.14975 -0.995054 0
M  V30 9270 H 883.028 -4.82863 -2.67483 0
M  V30 9271 H 883.505 -3.17174 -3.03805 0
M  V30 9272 H 884.111 -3.95609 -1.56121 0
M  V30 9273 N 882.426 0.269451 -1.5528 0
M  V30 9274 C 883.651 1.02299 -1.80415 0
M  V30 9275 C 884.076 1.7902 -0.577363 0
M  V30 9276 O 883.434 1.75018 0.473125 0
M  V30 9277 C 883.482 1.95445 -3.0304 0
M  V30 9278 O 882.586 3.04271 -2.78375 0
M  V30 9279 H 881.927 0.292289 -0.596207 0
M  V30 9280 H 884.457 0.297282 -2.02429 0
M  V30 9281 H 884.467 2.37333 -3.31869 0
M  V30 9282 H 883.142 1.39017 -3.91978 0
M  V30 9283 H 881.719 2.66673 -2.60653 0
M  V30 9284 N 883.904 1.48273 0.534124 0
M  V30 9285 C 885.144 1.57674 1.3007 0
M  V30 9286 C 885.508 0.243256 1.90453 0
M  V30 9287 O 886.709 0.212231 2.67961 0
M  V30 9288 C 884.98 2.68044 2.36405 0
M  V30 9289 S 886.539 2.97183 3.22843 0
M  V30 9290 H 883.357 0.55652 0.442501 0
M  V30 9291 H 885.959 1.85774 0.60896 0
M  V30 9292 H 884.663 3.63498 1.90518 0
M  V30 9293 H 884.194 2.41833 3.10291 0
M  V30 9294 H 886.209 2.36164 4.36396 0
M  V30 9295 N 885.382 -0.782676 1.36792 0
M  V30 9296 C 886.607 -1.57676 1.34733 0
M  V30 9297 C 887.032 -1.87979 -0.0675253 0
M  V30 9298 O 886.39 -1.48404 -1.04144 0
M  V30 9299 C 886.438 -2.87047 2.18257 0
M  V30 9300 O 885.542 -3.80946 1.57969 0
M  V30 9301 H 884.883 -0.478034 0.460846 0
M  V30 9302 H 887.413 -0.969578 1.80168 0
M  V30 9303 H 887.423 -3.36254 2.31079 0
M  V30 9304 H 886.098 -2.64319 3.21104 0
M  V30 9305 H 884.675 -3.39558 1.54126 0
M  V30 9306 N 886.86 -1.21182 -1.00761 0
M  V30 9307 C 888.109 -1.02166 -1.73911 0
M  V30 9308 C 888.422 0.445638 -1.90456 0
M  V30 9309 O 889.628 0.755132 -2.60787 0
M  V30 9310 C 888.084 -1.77936 -3.12837 0
M  V30 9311 C 887.692 -3.28819 -3.04273 0
M  V30 9312 C 889.436 -1.67319 -3.90134 0
M  V30 9313 C 887.343 -3.97089 -4.38262 0
M  V30 9314 H 886.273 -0.378665 -0.652019 0
M  V30 9315 H 888.924 -1.44891 -1.12601 0
M  V30 9316 H 887.306 -1.28003 -3.74742 0
M  V30 9317 H 888.48 -3.86035 -2.51622 0
M  V30 9318 H 886.795 -3.39949 -2.40465 0
M  V30 9319 H 889.392 -2.15659 -4.8928 0
M  V30 9320 H 889.735 -0.630959 -4.11491 0
M  V30 9321 H 890.268 -2.14716 -3.34876 0
M  V30 9322 H 887.007 -5.01503 -4.22107 0
M  V30 9323 H 886.527 -3.44662 -4.90885 0
M  V30 9324 H 888.206 -4.01854 -5.07072 0
M  V30 9325 N 888.338 1.20213 -1.01915 0
M  V30 9326 C 889.285 2.2309 -0.591571 0
M  V30 9327 C 890.255 1.61465 0.389649 0
M  V30 9328 O 891.44 1.88606 0.288511 0
M  V30 9329 C 888.58 3.45045 0.0614028 0
M  V30 9330 C 887.693 4.21091 -0.964688 0
M  V30 9331 C 886.828 5.30448 -0.282499 0
M  V30 9332 C 885.867 5.98241 -1.29517 0
M  V30 9333 N 885.004 6.99182 -0.639472 0
M  V30 9334 H 889.844 2.59023 -1.47347 0
M  V30 9335 H 887.381 1.27274 -0.737547 0
M  V30 9336 H 889.339 4.14688 0.45714 0
M  V30 9337 H 887.969 3.09797 0.906937 0
M  V30 9338 H 887.021 3.50489 -1.47857 0
M  V30 9339 H 888.333 4.67662 -1.73475 0
M  V30 9340 H 887.487 6.06466 0.168603 0
M  V30 9341 H 886.226 4.84922 0.519843 0
M  V30 9342 H 885.231 5.20982 -1.75663 0
M  V30 9343 H 886.456 6.45853 -2.09884 0
M  V30 9344 H 884.402 6.55844 0.142955 0
M  V30 9345 H 884.319 7.43893 -1.34756 0
M  V30 9346 H 885.587 7.79212 -0.212047 0
M  V30 9347 N 889.816 0.795718 1.36037 0
M  V30 9348 C 890.749 0.144269 2.27744 0
M  V30 9349 C 891.727 -0.683351 1.47543 0
M  V30 9350 O 892.911 -0.652976 1.76829 0
M  V30 9351 C 890.038 -0.800944 3.29094 0
M  V30 9352 C 889.084 -0.0543234 4.26465 0
M  V30 9353 S 889.917 1.27426 5.20118 0
M  V30 9354 C 891.073 0.333213 6.25012 0
M  V30 9355 H 891.306 0.921827 2.82648 0
M  V30 9356 H 888.839 0.590241 1.42673 0
M  V30 9357 H 890.797 -1.34082 3.87985 0
M  V30 9358 H 889.458 -1.5518 2.7309 0
M  V30 9359 H 888.651 -0.771788 4.98056 0
M  V30 9360 H 888.253 0.415264 3.71687 0
M  V30 9361 H 890.545 -0.485604 6.75757 0
M  V30 9362 H 891.488 1.01798 7.00744 0
M  V30 9363 H 891.896 -0.066256 5.64461 0
M  V30 9364 N 891.294 -1.47756 0.548274 0
M  V30 9365 C 892.241 -2.29893 -0.204408 0
M  V30 9366 C 893.211 -1.38509 -0.916761 0
M  V30 9367 O 894.396 -1.67472 -0.91421 0
M  V30 9368 C 891.536 -3.22282 -1.23403 0
M  V30 9369 C 890.649 -4.28753 -0.528654 0
M  V30 9370 C 889.784 -5.08303 -1.54279 0
M  V30 9371 C 888.823 -6.06557 -0.821893 0
M  V30 9372 N 887.96 -6.79098 -1.78243 0
M  V30 9373 H 892.8 -2.93739 0.502163 0
M  V30 9374 H 890.337 -1.44793 0.259471 0
M  V30 9375 H 892.295 -3.74262 -1.84348 0
M  V30 9376 H 890.925 -2.6032 -1.90875 0
M  V30 9377 H 889.977 -3.79899 0.195132 0
M  V30 9378 H 891.289 -4.98787 0.0365066 0
M  V30 9379 H 890.443 -5.64388 -2.22602 0
M  V30 9380 H 889.182 -4.3815 -2.14186 0
M  V30 9381 H 888.187 -5.49659 -0.12469 0
M  V30 9382 H 889.412 -6.78715 -0.228685 0
M  V30 9383 H 887.358 -6.11682 -2.37025 0
M  V30 9384 H 887.275 -7.4527 -1.26919 0
M  V30 9385 H 888.543 -7.39762 -2.45709 0
M  V30 9386 N 892.772 -0.284283 -1.55015 0
M  V30 9387 C 893.705 0.640779 -2.19019 0
M  V30 9388 C 894.683 1.14541 -1.15409 0
M  V30 9389 O 895.867 1.21669 -1.43975 0
M  V30 9390 C 892.994 1.87488 -2.82074 0
M  V30 9391 C 892.04 1.50494 -3.99066 0
M  V30 9392 S 892.873 0.575218 -5.32402 0
M  V30 9393 C 894.029 1.81749 -5.98931 0
M  V30 9394 H 894.262 0.0969761 -2.97142 0
M  V30 9395 H 891.795 -0.0684929 -1.54248 0
M  V30 9396 H 893.753 2.58319 -3.19032 0
M  V30 9397 H 892.414 2.38984 -2.03828 0
M  V30 9398 H 891.607 2.42349 -4.41908 0
M  V30 9399 H 891.209 0.876741 -3.63578 0
M  V30 9400 H 893.501 2.76026 -6.18721 0
M  V30 9401 H 894.444 1.43192 -6.93471 0
M  V30 9402 H 894.852 1.98661 -5.28388 0
M  V30 9403 N 894.251 1.57596 -0.0117121 0
M  V30 9404 C 895.662 1.79033 0.529521 0
M  V30 9405 C 896.013 0.920299 1.73277 0
M  V30 9406 O 895.138 0.125934 2.16033 0
M  V30 9407 C 895.733 3.24695 0.967405 0
M  V30 9408 C 894.292 3.47188 1.45387 0
M  V30 9409 C 893.439 2.74245 0.410466 0
M  V30 9410 H 896.39 1.56908 -0.237836 0
M  V30 9411 H 896.411 3.33451 1.83278 0
M  V30 9412 H 895.923 3.87992 0.0914605 0
M  V30 9413 H 894.024 2.89121 2.35032 0
M  V30 9414 H 894.137 4.55886 1.47325 0
M  V30 9415 H 892.501 2.39209 0.874721 0
M  V30 9416 H 893.284 3.40248 -0.456713 0
M  V30 9417 N 895.729 -0.261212 1.5542 0
M  V30 9418 C 896.954 -1.01341 1.80955 0
M  V30 9419 C 897.379 -1.78711 0.586849 0
M  V30 9420 O 896.737 -1.75266 -0.463837 0
M  V30 9421 C 896.785 -1.93835 3.04073 0
M  V30 9422 O 895.889 -3.02791 2.79985 0
M  V30 9423 H 895.23 -0.289123 0.597749 0
M  V30 9424 H 897.76 -0.286543 2.02584 0
M  V30 9425 H 897.77 -2.3557 3.33123 0
M  V30 9426 H 896.445 -1.36936 3.9271 0
M  V30 9427 H 895.022 -2.65287 2.62063 0
M  V30 9428 N 897.207 -1.48554 -0.526253 0
M  V30 9429 C 898.154 -1.63354 -1.63046 0
M  V30 9430 C 899.124 -0.475509 -1.59148 0
M  V30 9431 O 900.309 -0.699453 -1.77517 0
M  V30 9432 C 897.449 -1.68271 -3.01295 0
M  V30 9433 C 896.562 -2.95207 -3.15399 0
M  V30 9434 C 895.697 -2.91262 -4.4423 0
M  V30 9435 C 894.736 -4.12886 -4.51876 0
M  V30 9436 N 893.873 -4.06996 -5.721 0
M  V30 9437 H 898.713 -2.57649 -1.49737 0
M  V30 9438 H 896.25 -1.27769 -0.728938 0
M  V30 9439 H 898.208 -1.69104 -3.81392 0
M  V30 9440 H 896.838 -0.774641 -3.13367 0
M  V30 9441 H 895.89 -3.04102 -2.2853 0
M  V30 9442 H 897.202 -3.85187 -3.1691 0
M  V30 9443 H 896.356 -2.90516 -5.32621 0
M  V30 9444 H 895.095 -1.99016 -4.45246 0
M  V30 9445 H 894.1 -4.13902 -3.61891 0
M  V30 9446 H 895.325 -5.06294 -4.52596 0
M  V30 9447 H 893.271 -3.17573 -5.74006 0
M  V30 9448 H 893.188 -4.90685 -5.75121 0
M  V30 9449 H 894.456 -4.10315 -6.62768 0
M  V30 9450 N 898.685 0.775411 -1.37205 0
M  V30 9451 C 899.632 1.88857 -1.32671 0
M  V30 9452 C 900.602 1.64976 -0.192899 0
M  V30 9453 O 901.787 1.86944 -0.381673 0
M  V30 9454 C 898.927 3.25871 -1.13588 0
M  V30 9455 C 898.04 3.61731 -2.36167 0
M  V30 9456 C 897.175 4.87934 -2.09985 0
M  V30 9457 C 896.214 5.16514 -3.2845 0
M  V30 9458 N 895.351 6.33905 -3.01842 0
M  V30 9459 H 900.191 1.92068 -2.27846 0
M  V30 9460 H 897.728 0.939066 -1.13225 0
M  V30 9461 H 899.686 4.04903 -1.00546 0
M  V30 9462 H 898.316 3.22045 -0.220613 0
M  V30 9463 H 897.368 2.77712 -2.59962 0
M  V30 9464 H 898.68 3.78792 -3.24528 0
M  V30 9465 H 897.834 5.74863 -1.93953 0
M  V30 9466 H 896.573 4.7297 -1.18956 0
M  V30 9467 H 895.578 4.28063 -3.45025 0
M  V30 9468 H 896.803 5.33389 -4.20325 0
M  V30 9469 H 894.749 6.20306 -2.13439 0
M  V30 9470 H 894.666 6.51364 -3.83746 0
M  V30 9471 H 895.934 7.23779 -2.8942 0
M  V30 9472 N 900.163 1.21714 1.00117 0
M  V30 9473 C 901.41 1.0367 1.73951 0
M  V30 9474 C 901.738 -0.429289 1.89703 0
M  V30 9475 O 900.993 -1.33475 1.43119 0
M  V30 9476 C 901.292 1.68345 3.15269 0
M  V30 9477 C 900.958 3.18214 3.19454 0
M  V30 9478 C 899.62 3.59109 3.20303 0
M  V30 9479 C 901.972 4.14179 3.16394 0
M  V30 9480 C 899.3 4.94467 3.15783 0
M  V30 9481 C 901.652 5.49502 3.13416 0
M  V30 9482 C 900.316 5.8979 3.12577 0
M  V30 9483 H 899.586 0.379355 0.63653 0
M  V30 9484 H 902.233 1.51361 1.17312 0
M  V30 9485 H 900.538 1.12957 3.75164 0
M  V30 9486 H 902.235 1.51882 3.71124 0
M  V30 9487 H 898.825 2.85646 3.19538 0
M  V30 9488 H 903.009 3.83607 3.14895 0
M  V30 9489 H 898.265 5.24923 3.13473 0
M  V30 9490 H 902.439 6.23595 3.10003 0
M  V30 9491 H 900.066 6.94643 3.08829 0
M  V30 9492 N 901.641 -1.19671 1.02551 0
M  V30 9493 C 902.889 -1.88894 0.71858 0
M  V30 9494 C 903.21 -1.79797 -0.754856 0
M  V30 9495 O 902.48 -1.20621 -1.54362 0
M  V30 9496 H 901.06 -0.699244 0.262806 0
M  V30 9497 H 903.722 -1.45298 1.29902 0
M  V30 9498 H 902.818 -2.95309 1.00989 0
M  V30 9499 N 903.119 -0.802921 -1.35613 0
M  V30 9500 C 904.069 -0.183492 -2.2726 0
M  V30 9501 C 905.053 0.640527 -1.47601 0
M  V30 9502 O 906.245 0.498386 -1.69838 0
M  V30 9503 C 903.374 0.67003 -3.36698 0
M  V30 9504 C 902.46 -0.163517 -4.23785 0
M  V30 9505 N 902.851 -1.22472 -4.90749 0
M  V30 9506 C 901.149 0.0554547 -4.45966 0
M  V30 9507 C 901.85 -1.73329 -5.55276 0
M  V30 9508 N 900.826 -1.04033 -5.33552 0
M  V30 9509 H 904.628 -0.995525 -2.76526 0
M  V30 9510 H 902.142 -0.643714 -1.49098 0
M  V30 9511 H 904.139 1.12981 -4.01299 0
M  V30 9512 H 902.799 1.48045 -2.88986 0
M  V30 9513 H 903.81 -1.60733 -4.92327 0
M  V30 9514 H 900.487 0.835312 -4.09058 0
M  V30 9515 H 901.877 -2.62 -6.18713 0
M  V30 9516 N 904.597 1.47463 -0.556102 0
M  V30 9517 C 905.846 2.01678 -0.029492 0
M  V30 9518 C 906.159 1.436 1.32809 0
M  V30 9519 O 907.365 1.89472 1.94455 0
M  V30 9520 C 905.821 3.599 -0.00223937 0
M  V30 9521 C 905.429 4.26969 -1.35651 0
M  V30 9522 C 907.173 4.2187 0.471822 0
M  V30 9523 C 905.08 5.77194 -1.28843 0
M  V30 9524 H 904.01 0.753965 -0.00725504 0
M  V30 9525 H 906.661 1.69467 -0.703789 0
M  V30 9526 H 905.043 3.89068 0.737682 0
M  V30 9527 H 906.217 4.09444 -2.11406 0
M  V30 9528 H 904.532 3.76983 -1.76842 0
M  V30 9529 H 907.129 5.31955 0.541139 0
M  V30 9530 H 907.472 3.88968 1.48356 0
M  V30 9531 H 908.005 3.97228 -0.213207 0
M  V30 9532 H 904.744 6.14713 -2.27613 0
M  V30 9533 H 904.264 5.9706 -0.572668 0
M  V30 9534 H 905.943 6.3938 -0.990031 0
M  V30 9535 N 906.075 0.2925 1.54862 0
M  V30 9536 C 907.486 -0.201841 1.85606 0
M  V30 9537 C 907.837 -1.54093 1.21449 0
M  V30 9538 O 906.962 -2.10327 0.509079 0
M  V30 9539 C 907.557 -0.373011 3.3674 0
M  V30 9540 C 906.116 -0.811574 3.67547 0
M  V30 9541 C 905.263 0.0850583 2.7717 0
M  V30 9542 H 908.214 0.513774 1.50153 0
M  V30 9543 H 908.235 -1.20892 3.60785 0
M  V30 9544 H 907.747 0.601751 3.83407 0
M  V30 9545 H 905.848 -1.79719 3.26392 0
M  V30 9546 H 905.961 -0.636853 4.74848 0
M  V30 9547 H 904.325 -0.434224 2.50971 0
M  V30 9548 H 905.108 1.05602 3.26654 0
M  V30 9549 N 907.553 -1.57587 0.0200696 0
M  V30 9550 C 908.799 -1.91708 -0.661503 0
M  V30 9551 C 909.132 -0.895968 -1.72296 0
M  V30 9552 O 908.407 0.082577 -1.94325 0
M  V30 9553 C 908.69 -3.36344 -1.28627 0
M  V30 9554 C 908.543 -4.49186 -0.234982 0
M  V30 9555 C 909.862 -3.80771 -2.20685 0
M  V30 9556 H 906.981 -0.69717 -0.239005 0
M  V30 9557 H 909.623 -1.8985 0.0754764 0
M  V30 9558 H 907.773 -3.38058 -1.91439 0
M  V30 9559 H 909.445 -4.59606 0.395011 0
M  V30 9560 H 907.688 -4.31557 0.440565 0
M  V30 9561 H 908.359 -5.47395 -0.711558 0
M  V30 9562 H 910.835 -3.80735 -1.67868 0
M  V30 9563 H 909.711 -4.82685 -2.61356 0
M  V30 9564 H 909.972 -3.15764 -3.09428 0
M  V30 9565 N 909.032 0.252966 -1.55557 0
M  V30 9566 C 910.262 0.998115 -1.8089 0
M  V30 9567 C 910.67 1.79679 -0.592623 0
M  V30 9568 O 910.013 1.78151 0.448093 0
M  V30 9569 C 910.075 1.98878 -2.99479 0
M  V30 9570 C 909.739 1.37761 -4.35742 0
M  V30 9571 C 910.736 0.783142 -5.13968 0
M  V30 9572 C 908.421 1.39879 -4.8243 0
M  V30 9573 C 910.415 0.218004 -6.37027 0
M  V30 9574 C 908.102 0.829801 -6.0544 0
M  V30 9575 C 909.1 0.240426 -6.82577 0
M  V30 9576 O 908.788 -0.319797 -8.03264 0
M  V30 9577 H 908.52 0.29963 -0.605969 0
M  V30 9578 H 911.074 0.282978 -2.03441 0
M  V30 9579 H 909.304 2.74206 -2.72669 0
M  V30 9580 H 910.993 2.59686 -3.11959 0
M  V30 9581 H 911.759 0.759326 -4.79019 0
M  V30 9582 H 907.638 1.84692 -4.22386 0
M  V30 9583 H 911.182 -0.242654 -6.97178 0
M  V30 9584 H 907.079 0.850924 -6.39867 0
M  V30 9585 H 907.847 -0.211078 -8.18228 0
M  V30 9586 N 910.51 1.48831 0.518367 0
M  V30 9587 C 911.738 1.6112 1.298 0
M  V30 9588 C 912.153 0.275872 1.86774 0
M  V30 9589 O 911.51 -0.736416 1.66983 0
M  V30 9590 C 911.561 2.66675 2.44063 0
M  V30 9591 O 911.282 3.95027 1.89434 0
M  V30 9592 C 912.783 2.8951 3.35706 0
M  V30 9593 H 910.003 0.542916 0.394314 0
M  V30 9594 H 912.547 1.94743 0.624142 0
M  V30 9595 H 910.702 2.35879 3.07311 0
M  V30 9596 H 911.116 4.53031 2.64316 0
M  V30 9597 H 912.59 3.67142 4.12202 0
M  V30 9598 H 913.067 1.98768 3.91648 0
M  V30 9599 H 913.673 3.21656 2.7824 0
M  V30 9600 N 911.988 -0.768124 1.37614 0
M  V30 9601 C 912.918 -1.89537 1.36374 0
M  V30 9602 C 913.899 -1.68513 0.231803 0
M  V30 9603 O 915.084 -1.89318 0.432705 0
M  V30 9604 C 912.214 -3.26871 1.17358 0
M  V30 9605 C 911.168 -3.62466 2.27602 0
M  V30 9606 C 910.494 -4.9838 1.93705 0
M  V30 9607 C 911.794 -3.68841 3.69802 0
M  V30 9608 H 913.488 -1.90832 2.30702 0
M  V30 9609 H 911.034 -0.91672 1.11051 0
M  V30 9610 H 912.987 -4.05371 1.15119 0
M  V30 9611 H 911.711 -3.26018 0.194865 0
M  V30 9612 H 910.37 -2.86276 2.29002 0
M  V30 9613 H 910.018 -4.94071 0.943539 0
M  V30 9614 H 909.718 -5.23165 2.6753 0
M  V30 9615 H 911.242 -5.79276 1.93059 0
M  V30 9616 H 912.656 -4.37485 3.70513 0
M  V30 9617 H 911.053 -4.05126 4.42711 0
M  V30 9618 H 912.123 -2.69415 4.03167 0
M  V30 9619 N 913.466 -1.22244 -0.994698 0
M  V30 9620 C 914.714 -1.04384 -1.73056 0
M  V30 9621 C 915.035 0.422204 -1.90374 0
M  V30 9622 O 914.305 1.30383 -1.46209 0
M  V30 9623 H 912.885 -0.383263 -0.641185 0
M  V30 9624 H 915.547 -1.53725 -1.1981 0
M  V30 9625 H 914.643 -1.52021 -2.72573 0
M  V30 9626 N 914.944 1.19125 -1.03184 0
M  V30 9627 C 916.191 1.88883 -0.730029 0
M  V30 9628 C 916.519 1.79807 0.741602 0
M  V30 9629 O 915.774 1.18686 1.55603 0
M  V30 9630 C 916.073 3.39052 -1.13041 0
M  V30 9631 C 915.739 3.68332 -2.60082 0
M  V30 9632 C 914.401 3.76033 -3.00254 0
M  V30 9633 C 916.753 3.81423 -3.55199 0
M  V30 9634 C 914.081 3.94296 -4.34451 0
M  V30 9635 C 916.433 4.012 -4.89103 0
M  V30 9636 C 915.097 4.07134 -5.28959 0
M  V30 9637 H 914.367 0.691172 -0.267137 0
M  V30 9638 H 917.014 1.41053 -1.29523 0
M  V30 9639 H 915.319 3.88801 -0.48386 0
M  V30 9640 H 917.016 3.91351 -0.874368 0
M  V30 9641 H 913.606 3.62948 -2.27961 0
M  V30 9642 H 917.79 3.74814 -3.25313 0
M  V30 9643 H 913.046 3.97131 -4.64863 0
M  V30 9644 H 917.22 4.10271 -5.62717 0
M  V30 9645 H 914.847 4.21038 -6.32954 0
M  V30 9646 N 916.422 0.810101 1.35185 0
M  V30 9647 C 917.332 0.224565 2.33523 0
M  V30 9648 C 918.348 -0.634287 1.62027 0
M  V30 9649 O 919.524 -0.545211 1.9388 0
M  V30 9650 C 916.589 -0.614319 3.41214 0
M  V30 9651 C 915.65 0.265435 4.28479 0
M  V30 9652 C 914.883 -0.533506 5.31027 0
M  V30 9653 O 915.106 -1.7679 5.42311 0
M  V30 9654 O 914.04 0.0774573 6.0185 0
M  V30 9655 H 917.866 1.03815 2.85405 0
M  V30 9656 H 915.451 0.571964 1.38018 0
M  V30 9657 H 917.333 -1.09201 4.07005 0
M  V30 9658 H 916.008 -1.40545 2.91597 0
M  V30 9659 H 914.915 0.790343 3.65656 0
M  V30 9660 H 916.248 1.0206 4.81503 0
M  V30 9661 N 917.9 -1.47166 0.563914 0
M  V30 9662 C 919.125 -2.0735 0.0454698 0
M  V30 9663 C 919.55 -1.41281 -1.24182 0
M  V30 9664 O 918.908 -0.490084 -1.7455 0
M  V30 9665 C 918.956 -3.60378 -0.126453 0
M  V30 9666 O 918.06 -3.94934 -1.18746 0
M  V30 9667 H 917.401 -0.661773 0.0543377 0
M  V30 9668 H 919.931 -1.89086 0.781508 0
M  V30 9669 H 919.941 -4.06593 -0.338554 0
M  V30 9670 H 918.616 -4.07862 0.81373 0
M  V30 9671 H 917.193 -3.60455 -0.955318 0
M  V30 9672 N 919.378 -0.300708 -1.54705 0
M  V30 9673 C 920.789 0.191995 -1.8571 0
M  V30 9674 C 921.14 1.53447 -1.22264 0
M  V30 9675 O 920.265 2.10054 -0.520226 0
M  V30 9676 C 920.86 0.355148 -3.36933 0
M  V30 9677 C 919.419 0.792071 -3.67972 0
M  V30 9678 C 918.566 -0.099756 -2.77121 0
M  V30 9679 H 921.517 -0.521729 -1.49879 0
M  V30 9680 H 921.538 1.18977 -3.61421 0
M  V30 9681 H 921.05 -0.622075 -3.83082 0
M  V30 9682 H 919.151 1.77986 -3.27341 0
M  V30 9683 H 919.264 0.611661 -4.75179 0
M  V30 9684 H 917.628 0.420909 -2.51198 0
M  V30 9685 H 918.411 -1.07333 -3.2609 0
M  V30 9686 N 920.856 1.57574 -0.0284266 0
M  V30 9687 C 921.788 2.07079 0.982391 0
M  V30 9688 C 922.801 0.994078 1.28926 0
M  V30 9689 O 923.99 1.27028 1.25404 0
M  V30 9690 C 921.09 2.47978 2.30998 0
M  V30 9691 C 920.263 3.7872 2.18838 0
M  V30 9692 C 919.322 4.06177 3.34524 0
M  V30 9693 O 918.348 4.76438 3.11441 0
M  V30 9694 N 919.55 3.56297 4.58293 0
M  V30 9695 H 922.315 2.94421 0.560011 0
M  V30 9696 H 919.876 1.61124 0.158347 0
M  V30 9697 H 921.868 2.63439 3.07216 0
M  V30 9698 H 920.438 1.66005 2.64879 0
M  V30 9699 H 919.658 3.73062 1.27351 0
M  V30 9700 H 920.946 4.6438 2.07915 0
M  V30 9701 H 920.344 2.99453 4.79942 0
M  V30 9702 H 918.901 3.77038 5.31682 0
M  V30 9703 N 922.334 -0.244713 1.55689 0
M  V30 9704 C 923.75 -0.593331 1.48161 0
M  V30 9705 C 923.95 -1.88234 0.719047 0
M  V30 9706 O 923.006 -2.51266 0.249292 0
M  V30 9707 C 924.319 -0.694032 2.92581 0
M  V30 9708 C 925.867 -0.786213 3.02965 0
M  V30 9709 C 926.342 -0.918457 4.48696 0
M  V30 9710 N 927.833 -0.983272 4.52643 0
M  V30 9711 C 928.568 -1.1049 5.62654 0
M  V30 9712 N 928.064 -1.19193 6.8247 0
M  V30 9713 N 929.857 -1.13823 5.50455 0
M  V30 9714 H 922.008 0.601446 2.03707 0
M  V30 9715 H 924.271 0.207894 0.924924 0
M  V30 9716 H 923.977 0.183133 3.51223 0
M  V30 9717 H 923.851 -1.56525 3.4319 0
M  V30 9718 H 926.238 -1.65383 2.44402 0
M  V30 9719 H 926.319 0.110202 2.55563 0
M  V30 9720 H 925.963 -0.0553881 5.0787 0
M  V30 9721 H 925.893 -1.82994 4.93782 0
M  V30 9722 H 928.384 -0.927269 3.66347 0
M  V30 9723 H 928.697 -1.28387 7.62061 0
M  V30 9724 H 927.042 -1.16147 6.85226 0
M  V30 9725 H 930.233 -1.06673 4.55783 0
M  V30 9726 H 930.406 -1.22957 6.36228 0
M  V30 9727 N 923.813 -1.49104 -0.510467 0
M  V30 9728 C 925.059 -1.58346 -1.26705 0
M  V30 9729 C 925.392 -0.265121 -1.92382 0
M  V30 9730 O 924.667 0.730558 -1.80258 0
M  V30 9731 C 924.95 -2.7359 -2.34137 0
M  V30 9732 C 924.803 -4.1519 -1.73024 0
M  V30 9733 C 926.122 -2.84511 -3.3577 0
M  V30 9734 H 923.241 -0.57637 -0.459311 0
M  V30 9735 H 925.883 -1.81353 -0.566658 0
M  V30 9736 H 924.033 -2.54105 -2.93876 0
M  V30 9737 H 925.705 -4.46167 -1.17186 0
M  V30 9738 H 923.948 -4.21279 -1.03473 0
M  V30 9739 H 924.619 -4.91683 -2.50903 0
M  V30 9740 H 927.095 -3.0222 -2.86011 0
M  V30 9741 H 925.971 -3.6684 -4.08313 0
M  V30 9742 H 926.232 -1.93471 -3.97519 0
M  V30 9743 N 925.291 0.760815 -1.38019 0
M  V30 9744 C 926.516 1.55513 -1.37224 0
M  V30 9745 C 926.941 1.88062 0.037611 0
M  V30 9746 O 926.299 1.50042 1.0177 0
M  V30 9747 C 926.347 2.83539 -2.22796 0
M  V30 9748 O 925.451 3.78384 -1.64009 0
M  V30 9749 H 924.792 0.470642 -0.468393 0
M  V30 9750 H 927.322 0.940792 -1.81687 0
M  V30 9751 H 927.332 3.32535 -2.36399 0
M  V30 9752 H 926.007 2.59178 -3.25269 0
M  V30 9753 H 924.584 3.37063 -1.59508 0
M  V30 9754 N 926.769 1.22769 0.988202 0
M  V30 9755 C 927.732 1.00325 2.06076 0
M  V30 9756 C 928.732 -0.0320618 1.60768 0
M  V30 9757 O 929.922 0.206912 1.72967 0
M  V30 9758 C 927.054 0.516376 3.36966 0
M  V30 9759 H 928.247 1.95499 2.27421 0
M  V30 9760 H 925.8 1.04704 1.16047 0
M  V30 9761 H 926.535 -0.439498 3.21308 0
M  V30 9762 H 926.32 1.26337 3.71189 0
M  V30 9763 H 927.81 0.37974 4.1587 0
M  V30 9764 N 928.247 -1.18576 1.03814 0
M  V30 9765 C 929.21 -2.2033 0.63146 0
M  V30 9766 C 930.21 -1.57787 -0.309816 0
M  V30 9767 O 931.4 -1.73938 -0.0955598 0
M  V30 9768 C 928.532 -3.40818 -0.0745963 0
M  V30 9769 H 929.725 -2.57824 1.53189 0
M  V30 9770 H 927.278 -1.32416 0.830398 0
M  V30 9771 H 928.013 -3.08853 -0.988947 0
M  V30 9772 H 927.798 -3.87453 0.6019 0
M  V30 9773 H 929.288 -4.16166 -0.345727 0
M  V30 9774 N 929.725 -0.817259 -1.34754 0
M  V30 9775 C 930.672 -0.233108 -2.2962 0
M  V30 9776 C 931.642 0.638902 -1.53321 0
M  V30 9777 O 932.827 0.581739 -1.81715 0
M  V30 9778 C 929.967 0.603659 -3.39779 0
M  V30 9779 C 929.08 -0.289967 -4.31026 0
M  V30 9780 C 928.215 0.555825 -5.28284 0
M  V30 9781 C 927.254 -0.337539 -6.11169 0
M  V30 9782 N 926.391 0.468847 -7.00533 0
M  V30 9783 H 931.231 -1.04747 -2.78984 0
M  V30 9784 H 928.768 -0.528056 -1.37295 0
M  V30 9785 H 930.726 1.10407 -4.02326 0
M  V30 9786 H 929.356 1.38319 -2.91664 0
M  V30 9787 H 928.408 -0.908552 -3.69391 0
M  V30 9788 H 929.72 -0.977136 -4.89135 0
M  V30 9789 H 928.874 1.12094 -5.96255 0
M  V30 9790 H 927.613 1.27652 -4.70698 0
M  V30 9791 H 926.618 -0.914839 -5.42135 0
M  V30 9792 H 927.843 -1.05626 -6.70835 0
M  V30 9793 H 925.789 1.17332 -6.45422 0
M  V30 9794 H 925.706 -0.160052 -7.55831 0
M  V30 9795 H 926.974 1.01689 -7.72839 0
M  V30 9796 N 931.203 1.46865 -0.571711 0
M  V30 9797 C 932.431 2.06818 -0.0583975 0
M  V30 9798 C 932.846 1.42218 1.24175 0
M  V30 9799 O 932.203 0.523655 1.74826 0
M  V30 9800 C 932.254 3.61281 0.125673 0
M  V30 9801 O 931.975 4.23462 -1.123 0
M  V30 9802 C 933.476 4.38137 0.674604 0
M  V30 9803 H 930.696 0.668948 -0.052438 0
M  V30 9804 H 933.24 1.88656 -0.789251 0
M  V30 9805 H 931.395 3.78908 0.806707 0
M  V30 9806 H 931.809 5.16192 -0.929869 0
M  V30 9807 H 933.283 5.46845 0.752626 0
M  V30 9808 H 933.76 4.05419 1.68915 0
M  V30 9809 H 934.366 4.2529 0.0287979 0
M  V30 9810 N 932.681 0.308908 1.54543 0
M  V30 9811 C 933.644 -0.550857 2.22482 0
M  V30 9812 C 934.644 -1.0551 1.21344 0
M  V30 9813 O 935.834 -0.949866 1.46025 0
M  V30 9814 C 932.966 -1.76354 2.9174 0
M  V30 9815 H 934.159 0.0428395 2.99869 0
M  V30 9816 H 931.712 0.059825 1.56185 0
M  V30 9817 H 932.447 -2.39686 2.18451 0
M  V30 9818 H 932.232 -1.40954 3.65889 0
M  V30 9819 H 933.722 -2.37417 3.43545 0
M  V30 9820 N 934.159 -1.57557 0.0367827 0
M  V30 9821 C 935.57 -1.79853 -0.500971 0
M  V30 9822 C 935.921 -0.947749 -1.71791 0
M  V30 9823 O 935.046 -0.160287 -2.15806 0
M  V30 9824 C 935.641 -3.26193 -0.915626 0
M  V30 9825 C 934.2 -3.49457 -1.39845 0
M  V30 9826 C 933.347 -2.74864 -0.366784 0
M  V30 9827 H 936.298 -1.56509 0.262768 0
M  V30 9828 H 936.319 -3.36324 -1.7795 0
M  V30 9829 H 935.831 -3.88089 -0.0297227 0
M  V30 9830 H 933.932 -2.92823 -2.30402 0
M  V30 9831 H 934.045 -4.58172 -1.40054 0
M  V30 9832 H 932.409 -2.4057 -0.836554 0
M  V30 9833 H 933.192 -3.39479 0.510785 0
M  V30 9834 N 935.637 0.236453 -1.55816 0
M  V30 9835 C 936.886 0.960981 -1.77336 0
M  V30 9836 C 937.199 1.86085 -0.602641 0
M  V30 9837 O 938.405 2.62291 -0.701106 0
M  V30 9838 C 936.861 1.75884 -3.13995 0
M  V30 9839 C 936.469 0.905849 -4.38746 0
M  V30 9840 C 938.213 2.47548 -3.44848 0
M  V30 9841 C 936.12 1.7002 -5.66434 0
M  V30 9842 H 935.05 0.362547 -0.661117 0
M  V30 9843 H 937.701 0.215303 -1.82233 0
M  V30 9844 H 936.083 2.54687 -3.03234 0
M  V30 9845 H 937.257 0.159415 -4.60524 0
M  V30 9846 H 935.572 0.30205 -4.15303 0
M  V30 9847 H 938.169 3.07452 -4.37467 0
M  V30 9848 H 938.512 3.19689 -2.66655 0
M  V30 9849 H 939.045 1.75747 -3.56872 0
M  V30 9850 H 935.784 1.02234 -6.47479 0
M  V30 9851 H 935.304 2.42164 -5.48741 0
M  V30 9852 H 936.983 2.26469 -6.0607 0
M  V30 9853 N 937.115 1.49373 0.502552 0
M  V30 9854 C 938.047 1.62045 1.62093 0
M  V30 9855 C 939.06 0.503221 1.54827 0
M  V30 9856 O 940.249 0.775208 1.60788 0
M  V30 9857 C 937.349 1.55971 3.00876 0
M  V30 9858 C 936.522 2.832 3.33341 0
M  V30 9859 C 935.581 2.702 4.51529 0
M  V30 9860 O 934.607 3.44132 4.53389 0
M  V30 9861 N 935.809 1.81642 5.5135 0
M  V30 9862 H 938.574 2.58501 1.51649 0
M  V30 9863 H 936.135 1.46442 0.690396 0
M  V30 9864 H 938.127 1.4493 3.77859 0
M  V30 9865 H 936.697 0.673795 3.05252 0
M  V30 9866 H 935.917 3.08604 2.4527 0
M  V30 9867 H 937.205 3.67551 3.51829 0
M  V30 9868 H 936.603 1.20829 5.52645 0
M  V30 9869 H 935.16 1.76524 6.27441 0
M  V30 9870 N 938.594 -0.753485 1.38421 0
M  V30 9871 C 940.01 -1.05656 1.1962 0
M  V30 9872 C 940.21 -2.0145 0.0449443 0
M  V30 9873 O 939.266 -2.45039 -0.609253 0
M  V30 9874 C 940.579 -1.63655 2.52265 0
M  V30 9875 C 942.127 -1.75825 2.58949 0
M  V30 9876 C 942.602 -2.37236 3.91769 0
M  V30 9877 N 944.093 -2.44666 3.9331 0
M  V30 9878 C 944.828 -2.93077 4.92842 0
M  V30 9879 N 944.324 -3.41523 6.02772 0
M  V30 9880 N 946.117 -2.92118 4.80232 0
M  V30 9881 H 938.268 -0.117799 2.12073 0
M  V30 9882 H 940.531 -0.114889 0.941012 0
M  V30 9883 H 940.237 -1.00734 3.36965 0
M  V30 9884 H 940.111 -2.62715 2.70667 0
M  V30 9885 H 942.498 -2.37873 1.74644 0
M  V30 9886 H 942.579 -0.754693 2.44414 0
M  V30 9887 H 942.223 -1.75822 4.76497 0
M  V30 9888 H 942.153 -3.38233 4.03616 0
M  V30 9889 H 944.644 -2.10403 3.1391 0
M  V30 9890 H 944.957 -3.76919 6.74649 0
M  V30 9891 H 943.302 -3.3958 6.06391 0
M  V30 9892 H 946.493 -2.53582 3.93464 0
M  V30 9893 H 946.666 -3.29535 5.57952 0
M  V30 9894 N 940.072 -1.23292 -0.981677 0
M  V30 9895 C 941.488 -0.995295 -1.24764 0
M  V30 9896 C 941.688 0.304379 -1.99188 0
M  V30 9897 O 940.744 1.02414 -2.30798 0
M  V30 9898 C 942.057 -2.20135 -2.04844 0
M  V30 9899 C 943.605 -2.24612 -2.17988 0
M  V30 9900 C 944.08 -3.448 -3.01458 0
M  V30 9901 N 945.571 -3.45031 -3.09044 0
M  V30 9902 C 946.306 -4.34683 -3.7395 0
M  V30 9903 N 945.802 -5.34569 -4.4069 0
M  V30 9904 N 947.595 -4.22429 -3.70823 0
M  V30 9905 H 939.746 -2.06834 -0.483052 0
M  V30 9906 H 942.009 -0.906929 -0.276014 0
M  V30 9907 H 941.715 -3.14446 -1.57532 0
M  V30 9908 H 941.589 -2.21115 -3.05594 0
M  V30 9909 H 943.976 -1.30841 -2.64508 0
M  V30 9910 H 944.057 -2.27664 -1.16631 0
M  V30 9911 H 943.701 -4.38877 -2.55635 0
M  V30 9912 H 943.631 -3.38988 -4.02982 0
M  V30 9913 H 946.122 -2.72759 -2.61555 0
M  V30 9914 H 946.435 -5.99236 -4.87991 0
M  V30 9915 H 944.78 -5.3847 -4.39403 0
M  V30 9916 H 947.971 -3.43639 -3.17851 0
M  V30 9917 H 948.144 -4.92501 -4.21126 0
M  V30 9918 N 941.55 1.18024 -1.04442 0
M  V30 9919 C 942.827 1.8398 -0.664125 0
M  V30 9920 C 943.207 1.92961 0.856116 0
M  V30 9921 O 942.555 1.45839 1.75907 0
M  V30 9922 C 942.765 3.22069 -1.34433 0
M  V30 9923 C 944.113 3.98063 -1.47754 0
M  V30 9924 O 945.137 3.31523 -1.30274 0
M  V30 9925 O 943.996 5.17291 -1.76272 0
M  V30 9926 H 941.09 0.793543 -0.23285 0
M  V30 9927 H 943.636 1.25385 -1.14354 0
M  V30 9928 H 942.408 3.10458 -2.38184 0
M  V30 9929 H 942.031 3.88325 -0.853782 0
M  V30 9930 N 943.028 0.824394 1.34319 0
M  V30 9931 C 944.277 0.40956 1.97498 0
M  V30 9932 C 944.59 -1.03323 1.66083 0
M  V30 9933 O 945.796 -1.55205 2.22764 0
M  V30 9934 C 944.252 0.681384 3.53391 0
M  V30 9935 C 943.86 2.1379 3.93698 0
M  V30 9936 C 945.604 0.332788 4.23194 0
M  V30 9937 C 943.511 2.35453 5.42509 0
M  V30 9938 H 942.441 0.149409 0.739049 0
M  V30 9939 H 945.092 1.01095 1.5314 0
M  V30 9940 H 943.474 0.00980375 3.95999 0
M  V30 9941 H 944.648 2.84876 3.62191 0
M  V30 9942 H 942.963 2.44807 3.36836 0
M  V30 9943 H 945.56 0.472463 5.32609 0
M  V30 9944 H 945.903 -0.722862 4.09976 0
M  V30 9945 H 946.436 0.959005 3.86067 0
M  V30 9946 H 943.175 3.39529 5.60714 0
M  V30 9947 H 942.695 1.68912 5.75525 0
M  V30 9948 H 944.374 2.17885 6.09209 0
M  V30 9949 N 944.506 -1.46559 0.579492 0
M  V30 9950 C 945.753 -2.02399 0.0638418 0
M  V30 9951 C 946.081 -1.45135 -1.29484 0
M  V30 9952 O 945.336 -0.605061 -1.86112 0
M  V30 9953 C 945.635 -3.57357 -0.0552803 0
M  V30 9954 C 945.301 -4.33646 1.23539 0
M  V30 9955 C 943.963 -4.54207 1.589 0
M  V30 9956 C 946.315 -4.77476 2.08965 0
M  V30 9957 C 943.643 -5.1585 2.79492 0
M  V30 9958 C 945.995 -5.4045 3.2878 0
M  V30 9959 C 944.659 -5.5924 3.64427 0
M  V30 9960 H 943.929 -0.740632 0.0233614 0
M  V30 9961 H 946.576 -1.75968 0.755482 0
M  V30 9962 H 944.881 -3.82907 -0.83003 0
M  V30 9963 H 946.578 -3.98237 -0.469964 0
M  V30 9964 H 943.168 -4.17937 0.9501 0
M  V30 9965 H 947.352 -4.61349 1.8295 0
M  V30 9966 H 942.608 -5.28589 3.07252 0
M  V30 9967 H 946.782 -5.73371 3.95245 0
M  V30 9968 H 944.409 -6.06775 4.57961 0
M  V30 9969 N 945.984 -0.3171 -1.54377 0
M  V30 9970 C 946.916 0.58571 -2.2159 0
M  V30 9971 C 947.929 1.08495 -1.21378 0
M  V30 9972 O 949.118 0.999638 -1.47883 0
M  V30 9973 C 946.218 1.8157 -2.86156 0
M  V30 9974 C 945.391 1.45625 -4.12447 0
M  V30 9975 C 944.45 2.54308 -4.60667 0
M  V30 9976 O 943.476 2.18724 -5.25498 0
M  V30 9977 N 944.678 3.85129 -4.34345 0
M  V30 9978 H 947.443 0.0102247 -2.99698 0
M  V30 9979 H 945.004 -0.140011 -1.61293 0
M  V30 9980 H 946.996 2.53657 -3.15341 0
M  V30 9981 H 945.566 2.29919 -2.11793 0
M  V30 9982 H 944.786 0.567294 -3.90097 0
M  V30 9983 H 946.074 1.19169 -4.94648 0
M  V30 9984 H 945.472 4.16841 -3.8244 0
M  V30 9985 H 944.029 4.53466 -4.68201 0
M  V30 9986 N 947.462 1.57535 -0.0451378 0
M  V30 9987 C 948.687 1.97172 0.64326 0
M  V30 9988 C 949.112 0.922266 1.63939 0
M  V30 9989 O 948.47 -0.115155 1.80934 0
M  V30 9990 C 948.518 3.35889 1.3119 0
M  V30 9991 O 947.622 3.33387 2.42748 0
M  V30 9992 H 946.963 0.642469 0.167719 0
M  V30 9993 H 949.493 2.04295 -0.111747 0
M  V30 9994 H 949.503 3.72481 1.66499 0
M  V30 9995 H 948.178 4.1181 0.581823 0
M  V30 9996 H 946.755 3.08533 2.09432 0
M  V30 9997 N 948.94 -0.228186 1.55939 0
M  V30 9998 C 949.87 -1.28607 1.94891 0
M  V30 9999 C 950.851 -1.49236 0.816245 0
M  V30 10000 O 952.036 -1.61531 1.07803 0
M  V30 10001 C 949.166 -2.63719 2.25986 0
M  V30 10002 C 948.12 -2.57757 3.4168 0
M  V30 10003 C 947.446 -3.96837 3.58364 0
M  V30 10004 C 948.746 -2.13116 4.76843 0
M  V30 10005 H 950.44 -0.962531 2.83506 0
M  V30 10006 H 947.986 -0.461577 1.36402 0
M  V30 10007 H 949.939 -3.37878 2.51826 0
M  V30 10008 H 948.663 -2.97747 1.34217 0
M  V30 10009 H 947.322 -1.86055 3.15878 0
M  V30 10010 H 946.97 -4.28162 2.63982 0
M  V30 10011 H 946.67 -3.93731 4.36176 0
M  V30 10012 H 948.194 -4.72668 3.86545 0
M  V30 10013 H 949.608 -2.77015 5.01932 0
M  V30 10014 H 948.005 -2.21083 5.57891 0
M  V30 10015 H 949.075 -1.08326 4.72645 0
M  V30 10016 N 950.418 -1.49637 -0.494624 0
M  V30 10017 C 951.35 -1.62902 -1.61231 0
M  V30 10018 C 952.363 -0.511425 -1.54558 0
M  V30 10019 O 953.552 -0.783724 -1.60375 0
M  V30 10020 C 950.652 -1.57564 -3.00045 0
M  V30 10021 C 949.825 -2.84964 -3.31835 0
M  V30 10022 C 948.884 -2.72591 -4.5009 0
M  V30 10023 O 947.91 -3.46532 -4.51558 0
M  V30 10024 N 949.112 -1.84563 -5.50379 0
M  V30 10025 H 951.877 -2.59301 -1.50276 0
M  V30 10026 H 949.438 -1.46806 -0.68262 0
M  V30 10027 H 951.43 -1.46932 -3.77085 0
M  V30 10028 H 950 -0.689974 -3.0489 0
M  V30 10029 H 949.22 -3.099 -2.4363 0
M  V30 10030 H 950.508 -3.69412 -3.49875 0
M  V30 10031 H 949.906 -1.23758 -5.51997 0
M  V30 10032 H 948.463 -1.79849 -6.26496 0
M  V30 10033 N 951.896 0.746133 -1.38819 0
M  V30 10034 C 953.144 1.50247 -1.35167 0
M  V30 10035 C 953.465 1.94921 0.0553531 0
M  V30 10036 O 952.735 1.68187 1.00449 0
M  V30 10037 H 951.315 0.557337 -0.497377 0
M  V30 10038 H 953.977 0.886472 -1.73573 0
M  V30 10039 H 953.073 2.38986 -2.00728 0
M  V30 10040 N 953.375 1.23811 0.975125 0
M  V30 10041 C 954.786 1.0675 1.53171 0
M  V30 10042 C 955.137 -0.363475 1.92804 0
M  V30 10043 O 954.262 -1.25089 1.76583 0
M  V30 10044 C 954.857 1.93161 2.78342 0
M  V30 10045 C 953.416 1.80346 3.30382 0
M  V30 10046 C 952.563 1.88544 2.03338 0
M  V30 10047 H 955.514 1.37396 0.79423 0
M  V30 10048 H 955.535 1.45951 3.51395 0
M  V30 10049 H 955.047 2.97302 2.49465 0
M  V30 10050 H 953.148 0.790077 3.64127 0
M  V30 10051 H 953.261 2.64026 3.99784 0
M  V30 10052 H 951.625 1.32186 2.17713 0
M  V30 10053 H 952.408 2.94252 1.76836 0
M  V30 10054 N 954.853 -1.17469 1.05066 0
M  V30 10055 C 955.785 -2.20974 0.608526 0
M  V30 10056 C 956.798 -1.59481 -0.327066 0
M  V30 10057 O 957.987 -1.78096 -0.12 0
M  V30 10058 C 955.087 -3.38652 -0.12969 0
M  V30 10059 C 954.26 -4.29716 0.816285 0
M  V30 10060 C 953.319 -5.26064 0.119556 0
M  V30 10061 O 952.345 -5.64194 0.753241 0
M  V30 10062 N 953.547 -5.69126 -1.14347 0
M  V30 10063 H 956.312 -2.59529 1.49882 0
M  V30 10064 H 953.873 -1.32355 0.932406 0
M  V30 10065 H 955.865 -4.00139 -0.605886 0
M  V30 10066 H 954.435 -2.98705 -0.921638 0
M  V30 10067 H 953.655 -3.6568 1.47213 0
M  V30 10068 H 954.943 -4.87449 1.45845 0
M  V30 10069 H 954.341 -5.4022 -1.67866 0
M  V30 10070 H 952.898 -6.32764 -1.56376 0
M  V30 10071 N 956.331 -0.831506 -1.3388 0
M  V30 10072 C 957.577 -0.433509 -1.98727 0
M  V30 10073 C 957.932 0.994508 -1.64704 0
M  V30 10074 O 957.225 1.68458 -0.912815 0
M  V30 10075 C 957.419 -0.582733 -3.52617 0
M  V30 10076 C 957.248 -2.0237 -4.01592 0
M  V30 10077 C 956.018 -2.6574 -4.29779 0
M  V30 10078 C 958.216 -2.99152 -4.18345 0
M  V30 10079 N 956.198 -4.00988 -4.64846 0
M  V30 10080 C 957.569 -4.19329 -4.56687 0
M  V30 10081 C 959.624 -2.95655 -4.00615 0
M  V30 10082 C 958.327 -5.36475 -4.79152 0
M  V30 10083 C 960.353 -4.12025 -4.24252 0
M  V30 10084 C 959.715 -5.30955 -4.62889 0
M  V30 10085 H 955.814 -0.20691 -0.75413 0
M  V30 10086 H 958.398 -1.07802 -1.62132 0
M  V30 10087 H 956.569 0.0319301 -3.88387 0
M  V30 10088 H 958.301 -0.156899 -4.04396 0
M  V30 10089 H 955.056 -2.16923 -4.21 0
M  V30 10090 H 955.48 -4.7069 -4.86601 0
M  V30 10091 H 960.122 -2.04842 -3.69864 0
M  V30 10092 H 957.84 -6.27839 -5.08767 0
M  V30 10093 H 961.426 -4.10728 -4.1206 0
M  V30 10094 H 960.306 -6.19504 -4.80817 0
M  V30 10095 N 957.809 1.4625 -0.587256 0
M  V30 10096 C 958.741 2.28482 0.181256 0
M  V30 10097 C 959.754 1.38777 0.851163 0
M  V30 10098 O 960.943 1.63336 0.719963 0
M  V30 10099 C 958.043 3.13944 1.27643 0
M  V30 10100 C 957.216 4.31802 0.697569 0
M  V30 10101 C 956.275 4.98626 1.68102 0
M  V30 10102 O 955.301 5.56075 1.21529 0
M  V30 10103 N 956.503 4.96051 3.0152 0
M  V30 10104 H 959.268 2.95079 -0.524267 0
M  V30 10105 H 956.829 1.56213 -0.425336 0
M  V30 10106 H 958.821 3.55513 1.93371 0
M  V30 10107 H 957.391 2.49391 1.88475 0
M  V30 10108 H 956.611 3.93961 -0.137293 0
M  V30 10109 H 957.899 5.07969 0.290696 0
M  V30 10110 H 957.297 4.5063 3.41978 0
M  V30 10111 H 955.854 5.41547 3.62725 0
M  V30 10112 N 959.287 0.325282 1.54207 0
M  V30 10113 C 960.512 -0.281418 2.05482 0
M  V30 10114 C 960.937 -1.44869 1.19977 0
M  V30 10115 O 960.295 -1.80088 0.209275 0
M  V30 10116 C 960.343 -0.692029 3.53897 0
M  V30 10117 O 959.447 -1.7942 3.71325 0
M  V30 10118 H 958.788 -0.0504872 0.662078 0
M  V30 10119 H 961.318 0.474191 1.99029 0
M  V30 10120 H 961.328 -0.974219 3.96198 0
M  V30 10121 H 960.003 0.161709 4.15586 0
M  V30 10122 H 958.58 -1.51069 3.40929 0
M  V30 10123 N 960.765 -1.57509 0.0534917 0
M  V30 10124 C 962.011 -1.93068 -0.62069 0
M  V30 10125 C 962.344 -0.932313 -1.70357 0
M  V30 10126 O 961.619 0.0413393 -1.94456 0
M  V30 10127 C 961.902 -3.38997 -1.21463 0
M  V30 10128 C 961.755 -4.49583 -0.13965 0
M  V30 10129 C 963.074 -3.85366 -2.12558 0
M  V30 10130 H 960.193 -0.702083 -0.224163 0
M  V30 10131 H 962.835 -1.89647 0.115729 0
M  V30 10132 H 960.985 -3.42043 -1.84226 0
M  V30 10133 H 962.657 -4.58664 0.492411 0
M  V30 10134 H 960.9 -4.30525 0.532006 0
M  V30 10135 H 961.571 -5.48781 -0.595287 0
M  V30 10136 H 964.047 -3.8421 -1.59755 0
M  V30 10137 H 962.923 -4.8812 -2.51058 0
M  V30 10138 H 963.184 -3.22256 -3.02661 0
M  V30 10139 N 962.243 0.219913 -1.56058 0
M  V30 10140 C 963.153 1.29349 -1.95719 0
M  V30 10141 C 964.169 1.5119 -0.861248 0
M  V30 10142 O 965.345 1.64289 -1.16495 0
M  V30 10143 C 962.41 2.6229 -2.26726 0
M  V30 10144 C 961.471 2.48738 -3.49897 0
M  V30 10145 C 960.704 3.75339 -3.79416 0
M  V30 10146 O 960.927 4.78427 -3.10586 0
M  V30 10147 O 959.861 3.72352 -4.72903 0
M  V30 10148 H 963.687 0.986979 -2.87215 0
M  V30 10149 H 961.272 0.42291 -1.43289 0
M  V30 10150 H 963.154 3.408 -2.47857 0
M  V30 10151 H 961.829 2.92619 -1.38404 0
M  V30 10152 H 960.736 1.68422 -3.34043 0
M  V30 10153 H 962.069 2.23347 -4.38608 0
M  V30 10154 N 963.721 1.49897 0.486681 0
M  V30 10155 C 964.631 1.70379 1.6127 0
M  V30 10156 C 965.647 0.58659 1.63814 0
M  V30 10157 O 966.823 0.863044 1.81971 0
M  V30 10158 C 963.888 1.77911 2.97571 0
M  V30 10159 C 962.949 3.01569 3.0554 0
M  V30 10160 C 962.182 3.08732 4.35339 0
M  V30 10161 O 962.405 2.23099 5.2496 0
M  V30 10162 O 961.339 4.01325 4.48578 0
M  V30 10163 H 965.165 2.65799 1.46916 0
M  V30 10164 H 962.75 1.33808 0.664516 0
M  V30 10165 H 964.632 1.85135 3.78554 0
M  V30 10166 H 963.307 0.856722 3.12157 0
M  V30 10167 H 962.214 2.99854 2.23693 0
M  V30 10168 H 963.547 3.93335 2.95886 0
M  V30 10169 N 965.199 -0.738761 1.39212 0
M  V30 10170 C 966.162 -1.83441 1.37412 0
M  V30 10171 C 967.162 -1.58484 0.271908 0
M  V30 10172 O 968.352 -1.65954 0.529609 0
M  V30 10173 C 965.484 -3.21167 1.143 0
M  V30 10174 H 966.677 -1.86441 2.34904 0
M  V30 10175 H 964.23 -0.942023 1.24722 0
M  V30 10176 H 964.965 -3.23829 0.174756 0
M  V30 10177 H 964.75 -3.40678 1.94116 0
M  V30 10178 H 966.24 -4.01231 1.15773 0
M  V30 10179 N 966.677 -1.24326 -0.968545 0
M  V30 10180 C 967.924 -1.08245 -1.71141 0
M  V30 10181 C 968.252 0.378842 -1.90775 0
M  V30 10182 O 967.507 1.29634 -1.46607 0
M  V30 10183 C 967.806 -1.76644 -3.10695 0
M  V30 10184 C 967.472 -3.26572 -3.10905 0
M  V30 10185 C 966.134 -3.67475 -3.10669 0
M  V30 10186 C 968.486 -4.22422 -3.05302 0
M  V30 10187 C 965.814 -5.02666 -3.02562 0
M  V30 10188 C 968.166 -5.57619 -2.98737 0
M  V30 10189 C 966.83 -5.9787 -2.9683 0
M  V30 10190 H 966.1 -0.396098 -0.626249 0
M  V30 10191 H 968.747 -1.54418 -1.13258 0
M  V30 10192 H 967.052 -1.22864 -3.72037 0
M  V30 10193 H 968.749 -1.61668 -3.66967 0
M  V30 10194 H 965.339 -2.94017 -3.11852 0
M  V30 10195 H 969.523 -3.91821 -3.04614 0
M  V30 10196 H 964.779 -5.3305 -2.99446 0
M  V30 10197 H 968.953 -6.31595 -2.93361 0
M  V30 10198 H 966.58 -7.02587 -2.90303 0
M  V30 10199 N 968.156 1.1691 -1.05688 0
M  V30 10200 C 969.567 1.68915 -0.795273 0
M  V30 10201 C 969.918 1.83968 0.681925 0
M  V30 10202 O 969.043 1.53083 1.52953 0
M  V30 10203 C 969.638 3.06814 -1.43703 0
M  V30 10204 C 968.197 3.55965 -1.22335 0
M  V30 10205 C 967.344 2.32099 -1.51741 0
M  V30 10206 H 970.295 1.01357 -1.22116 0
M  V30 10207 H 970.316 3.70907 -0.849016 0
M  V30 10208 H 969.828 2.95826 -2.51214 0
M  V30 10209 H 967.929 3.72222 -0.16771 0
M  V30 10210 H 968.042 4.38427 -1.9318 0
M  V30 10211 H 966.406 2.36811 -0.937696 0
M  V30 10212 H 967.189 2.23715 -2.60397 0
M  V30 10213 N 969.634 0.838594 1.33437 0
M  V30 10214 C 970.584 0.243681 2.26694 0
M  V30 10215 C 971.568 -0.601168 1.49247 0
M  V30 10216 O 972.76 -0.453181 1.711 0
M  V30 10217 C 969.889 -0.580525 3.38356 0
M  V30 10218 C 968.975 0.275819 4.23202 0
M  V30 10219 N 969.366 1.3544 4.87329 0
M  V30 10220 C 967.664 0.0628047 4.45956 0
M  V30 10221 C 968.365 1.87991 5.50486 0
M  V30 10222 N 967.341 1.18143 5.30607 0
M  V30 10223 H 971.143 1.06849 2.73789 0
M  V30 10224 H 968.657 0.683019 1.47338 0
M  V30 10225 H 970.654 -1.02301 4.04153 0
M  V30 10226 H 969.314 -1.40331 2.92809 0
M  V30 10227 H 970.325 1.73729 4.87892 0
M  V30 10228 H 967.002 -0.726563 4.11129 0
M  V30 10229 H 968.392 2.78312 6.11549 0
M  V30 10230 N 971.112 -1.45937 0.595003 0
M  V30 10231 C 972.361 -2.01529 0.0829531 0
M  V30 10232 C 972.674 -1.47071 -1.28955 0
M  V30 10233 O 973.88 -1.94561 -1.89363 0
M  V30 10234 C 972.336 -3.59767 0.0976597 0
M  V30 10235 C 971.944 -4.23223 1.46924 0
M  V30 10236 C 973.688 -4.22972 -0.359805 0
M  V30 10237 C 971.595 -5.73576 1.44101 0
M  V30 10238 H 970.525 -0.753508 0.0272425 0
M  V30 10239 H 973.176 -1.67541 0.748473 0
M  V30 10240 H 971.558 -3.90888 -0.634268 0
M  V30 10241 H 972.732 -4.03695 2.22187 0
M  V30 10242 H 971.047 -3.72161 1.86775 0
M  V30 10243 H 973.644 -5.33202 -0.39991 0
M  V30 10244 H 973.987 -3.92765 -1.37991 0
M  V30 10245 H 974.52 -3.96523 0.31845 0
M  V30 10246 H 971.259 -6.08462 2.43831 0
M  V30 10247 H 970.779 -5.95332 0.730767 0
M  V30 10248 H 972.458 -6.36531 1.1592 0
M  V30 10249 N 972.59 -0.333456 -1.54032 0
M  V30 10250 C 973.82 0.267425 -2.04862 0
M  V30 10251 C 974.228 1.45559 -1.20869 0
M  V30 10252 O 973.571 1.82197 -0.234478 0
M  V30 10253 C 973.633 0.755759 -3.51466 0
M  V30 10254 C 973.297 -0.311409 -4.55938 0
M  V30 10255 C 974.294 -1.15078 -5.07004 0
M  V30 10256 C 971.979 -0.462439 -5.00167 0
M  V30 10257 C 973.973 -2.12682 -6.0087 0
M  V30 10258 C 971.66 -1.44188 -5.93846 0
M  V30 10259 C 972.658 -2.27253 -6.44085 0
M  V30 10260 O 972.346 -3.23532 -7.35923 0
M  V30 10261 H 972.078 0.0572596 -0.673571 0
M  V30 10262 H 974.632 -0.480646 -1.99697 0
M  V30 10263 H 972.862 1.55491 -3.54062 0
M  V30 10264 H 974.551 1.27607 -3.8532 0
M  V30 10265 H 975.317 -1.04513 -4.73605 0
M  V30 10266 H 971.196 0.17424 -4.60671 0
M  V30 10267 H 974.74 -2.77555 -6.40007 0
M  V30 10268 H 970.637 -1.54813 -6.2666 0
M  V30 10269 H 971.405 -3.18886 -7.53826 0
M  V30 10270 N 974.068 1.57479 -0.061844 0
M  V30 10271 C 975.293 1.97843 0.622311 0
M  V30 10272 C 975.718 0.939602 1.62951 0
M  V30 10273 O 975.076 -0.095958 1.81046 0
M  V30 10274 C 975.124 3.37262 1.2762 0
M  V30 10275 O 974.228 3.35943 2.39199 0
M  V30 10276 H 973.569 0.644212 0.160896 0
M  V30 10277 H 976.099 2.04165 -0.133409 0
M  V30 10278 H 976.109 3.74226 1.62539 0
M  V30 10279 H 974.784 4.12404 0.538112 0
M  V30 10280 H 973.361 3.10737 2.06148 0
M  V30 10281 N 975.546 -0.211634 1.56173 0
M  V30 10282 C 976.496 -1.26602 1.8962 0
M  V30 10283 C 977.48 -1.41808 0.760222 0
M  V30 10284 O 978.672 -1.44456 1.02281 0
M  V30 10285 C 975.801 -2.61438 2.22497 0
M  V30 10286 C 974.887 -2.50094 3.42511 0
M  V30 10287 N 975.278 -2.0841 4.60868 0
M  V30 10288 C 973.576 -2.81028 3.46322 0
M  V30 10289 C 974.277 -2.08557 5.43028 0
M  V30 10290 N 973.253 -2.49427 4.82998 0
M  V30 10291 H 977.055 -0.934806 2.78637 0
M  V30 10292 H 974.569 -0.420154 1.56871 0
M  V30 10293 H 976.566 -3.37577 2.44638 0
M  V30 10294 H 975.226 -2.95397 1.34798 0
M  V30 10295 H 976.237 -1.79382 4.85842 0
M  V30 10296 H 972.914 -3.19294 2.68994 0
M  V30 10297 H 974.304 -1.7837 6.47791 0
M  V30 10298 N 977.024 -1.50153 -0.478725 0
M  V30 10299 C 978.272 -1.60443 -1.22892 0
M  V30 10300 C 978.593 -0.303276 -1.92627 0
M  V30 10301 O 977.863 0.678798 -1.83764 0
M  V30 10302 H 976.443 -0.591205 -0.456602 0
M  V30 10303 H 979.105 -1.86893 -0.552905 0
M  V30 10304 H 978.201 -2.41175 -1.98094 0
M  V30 10305 N 978.502 0.731368 -1.39602 0
M  V30 10306 C 979.742 1.5036 -1.3846 0
M  V30 10307 C 980.106 1.91991 0.018784 0
M  V30 10308 O 981.307 2.68351 0.155236 0
M  V30 10309 C 979.578 2.70755 -2.33295 0
M  V30 10310 S 981.137 3.6036 -2.50372 0
M  V30 10311 H 977.955 0.514271 -0.490964 0
M  V30 10312 H 980.557 0.856654 -1.75732 0
M  V30 10313 H 979.261 2.38316 -3.34116 0
M  V30 10314 H 978.792 3.40376 -1.97251 0
M  V30 10315 H 980.807 4.64529 -1.74435 0
M  V30 10316 N 979.98 1.24838 0.961938 0
M  V30 10317 C 981.226 1.09313 1.70817 0
M  V30 10318 C 981.559 -0.366244 1.90715 0
M  V30 10319 O 980.834 -1.27036 1.47282 0
M  V30 10320 C 981.117 1.83988 3.09549 0
M  V30 10321 C 980.97 3.3771 2.97106 0
M  V30 10322 C 982.289 1.61718 4.09311 0
M  V30 10323 H 979.408 0.398498 0.619974 0
M  V30 10324 H 982.05 1.53579 1.11864 0
M  V30 10325 H 980.2 1.46363 3.59875 0
M  V30 10326 H 981.872 3.84967 2.54161 0
M  V30 10327 H 980.115 3.65795 2.33187 0
M  V30 10328 H 980.786 3.85166 3.95412 0
M  V30 10329 H 983.262 1.94458 3.67866 0
M  V30 10330 H 982.138 2.16415 5.04436 0
M  V30 10331 H 982.399 0.55677 4.3858 0
M  V30 10332 N 981.458 -1.16348 1.06306 0
M  V30 10333 C 982.388 -2.2291 0.695234 0
M  V30 10334 C 983.369 -1.67208 -0.312343 0
M  V30 10335 O 984.554 -1.93293 -0.187442 0
M  V30 10336 C 981.684 -3.47205 0.0810149 0
M  V30 10337 C 980.638 -4.15801 1.01458 0
M  V30 10338 C 979.964 -5.3405 0.263656 0
M  V30 10339 C 981.264 -4.66766 2.34365 0
M  V30 10340 H 982.958 -2.53934 1.58613 0
M  V30 10341 H 980.504 -1.22056 0.76409 0
M  V30 10342 H 982.457 -4.2098 -0.18818 0
M  V30 10343 H 981.181 -3.15482 -0.844897 0
M  V30 10344 H 979.84 -3.43954 1.26852 0
M  V30 10345 H 979.488 -4.9858 -0.665378 0
M  V30 10346 H 979.188 -5.80885 0.88582 0
M  V30 10347 H 980.712 -6.106 0.00200994 0
M  V30 10348 H 982.126 -5.3212 2.13356 0
M  V30 10349 H 980.523 -5.24223 2.9208 0
M  V30 10350 H 981.593 -3.82969 2.97426 0
M  V30 10351 N 982.937 -0.845659 -1.3299 0
M  V30 10352 C 983.884 -0.281761 -2.29074 0
M  V30 10353 C 984.854 0.606237 -1.54641 0
M  V30 10354 O 986.039 0.543063 -1.82908 0
M  V30 10355 C 983.179 0.531451 -3.40983 0
M  V30 10356 C 982.292 -0.381328 -4.30314 0
M  V30 10357 C 981.427 0.443643 -5.29344 0
M  V30 10358 C 980.466 -0.467101 -6.10315 0
M  V30 10359 N 979.603 0.320148 -7.0137 0
M  V30 10360 H 984.443 -1.10641 -2.76699 0
M  V30 10361 H 981.98 -0.55706 -1.36144 0
M  V30 10362 H 983.938 1.01848 -4.04577 0
M  V30 10363 H 982.568 1.32101 -2.94532 0
M  V30 10364 H 981.62 -0.986701 -3.6738 0
M  V30 10365 H 982.932 -1.08067 -4.86953 0
M  V30 10366 H 982.086 0.994212 -5.98498 0
M  V30 10367 H 980.825 1.17639 -4.73299 0
M  V30 10368 H 979.83 -1.02963 -5.40073 0
M  V30 10369 H 981.055 -1.19832 -6.68444 0
M  V30 10370 H 979.001 1.03615 -6.47765 0
M  V30 10371 H 978.918 -0.320338 -7.55321 0
M  V30 10372 H 980.186 0.852735 -7.74822 0
M  V30 10373 N 984.415 1.45619 -0.602734 0
M  V30 10374 C 985.692 1.9558 -0.0282472 0
M  V30 10375 C 986.072 1.54523 1.43826 0
M  V30 10376 O 985.42 0.805456 2.13833 0
M  V30 10377 C 985.63 3.48298 -0.221263 0
M  V30 10378 C 986.978 4.24483 -0.0995249 0
M  V30 10379 O 988.002 3.55879 -0.151132 0
M  V30 10380 O 986.861 5.46497 0.0194454 0
M  V30 10381 H 983.955 0.826104 0.0384897 0
M  V30 10382 H 986.501 1.55808 -0.672456 0
M  V30 10383 H 985.273 3.71134 -1.23997 0
M  V30 10384 H 984.896 3.94948 0.458437 0
M  V30 10385 N 985.893 0.34162 1.53853 0
M  V30 10386 C 987.139 -0.255862 2.01179 0
M  V30 10387 C 987.472 -1.50356 1.22909 0
M  V30 10388 O 986.747 -1.91913 0.316198 0
M  V30 10389 C 987.03 -0.571934 3.55529 0
M  V30 10390 C 986.883 0.687727 4.44511 0
M  V30 10391 C 988.202 -1.38233 4.17827 0
M  V30 10392 H 985.321 -0.091521 0.731295 0
M  V30 10393 H 987.963 0.461775 1.84303 0
M  V30 10394 H 986.113 -1.18331 3.70041 0
M  V30 10395 H 987.785 1.32572 4.4184 0
M  V30 10396 H 986.028 1.313 4.13452 0
M  V30 10397 H 986.699 0.421858 5.50386 0
M  V30 10398 H 989.175 -0.865374 4.07002 0
M  V30 10399 H 988.051 -1.57223 5.25901 0
M  V30 10400 H 988.312 -2.38386 3.72323 0
M  V30 10401 N 987.371 -1.57444 0.0701946 0
M  V30 10402 C 988.611 -1.95304 -0.60296 0
M  V30 10403 C 988.975 -0.949592 -1.66873 0
M  V30 10404 O 990.176 -1.2158 -2.39733 0
M  V30 10405 C 988.447 -3.37831 -1.16639 0
M  V30 10406 S 990.006 -3.97667 -1.8549 0
M  V30 10407 H 986.824 -0.683026 -0.197476 0
M  V30 10408 H 989.426 -1.94971 0.143669 0
M  V30 10409 H 988.13 -4.08648 -0.378856 0
M  V30 10410 H 987.661 -3.41704 -1.94942 0
M  V30 10411 H 989.676 -3.84441 -3.13719 0
M  V30 10412 N 988.849 0.203349 -1.56283 0
M  V30 10413 C 990.074 0.945548 -1.84592 0
M  V30 10414 C 990.499 1.7641 -0.652772 0
M  V30 10415 O 989.857 1.76867 0.398468 0
M  V30 10416 C 989.905 1.82416 -3.11057 0
M  V30 10417 O 989.009 2.92191 -2.9103 0
M  V30 10418 H 988.35 0.266739 -0.608068 0
M  V30 10419 H 990.88 0.211158 -2.03507 0
M  V30 10420 H 990.89 2.23044 -3.41636 0
M  V30 10421 H 989.565 1.22267 -3.97522 0
M  V30 10422 H 988.142 2.55378 -2.71728 0
M  V30 10423 N 990.327 1.50405 0.470755 0
M  V30 10424 C 991.237 1.7208 1.59454 0
M  V30 10425 C 992.253 0.603932 1.63183 0
M  V30 10426 O 993.429 0.882296 1.81046 0
M  V30 10427 C 990.494 1.81057 2.95667 0
M  V30 10428 C 989.555 3.04792 3.02324 0
M  V30 10429 C 988.788 3.13332 4.3204 0
M  V30 10430 O 989.011 2.28655 5.22564 0
M  V30 10431 O 987.945 4.0606 4.44296 0
M  V30 10432 H 991.771 2.67343 1.44089 0
M  V30 10433 H 989.356 1.34505 0.650286 0
M  V30 10434 H 991.238 1.8914 3.76569 0
M  V30 10435 H 989.913 0.889782 3.11231 0
M  V30 10436 H 988.82 3.0221 2.205 0
M  V30 10437 H 990.153 3.96451 2.91698 0
M  V30 10438 N 991.805 -0.723954 1.39988 0
M  V30 10439 C 993.045 -1.49624 1.39255 0
M  V30 10440 C 993.409 -1.91998 -0.00860198 0
M  V30 10441 O 994.61 -2.6843 -0.141002 0
M  V30 10442 C 992.881 -2.69514 2.34728 0
M  V30 10443 S 994.44 -3.59027 2.5228 0
M  V30 10444 H 991.258 -0.511661 0.493685 0
M  V30 10445 H 993.86 -0.847322 1.76184 0
M  V30 10446 H 992.564 -2.36541 3.35375 0
M  V30 10447 H 992.095 -3.39325 1.99053 0
M  V30 10448 H 994.11 -4.63597 1.76896 0
M  V30 10449 N 993.283 -1.25346 -0.955304 0
M  V30 10450 C 994.511 -1.12793 -1.73451 0
M  V30 10451 C 994.926 0.318344 -1.86097 0
M  V30 10452 O 994.283 1.21897 -1.35821 0
M  V30 10453 C 994.334 -1.77603 -3.14864 0
M  V30 10454 O 994.055 -3.16577 -3.02837 0
M  V30 10455 C 995.556 -1.70821 -4.09066 0
M  V30 10456 H 992.776 -0.393457 -0.543537 0
M  V30 10457 H 995.32 -1.65696 -1.19855 0
M  V30 10458 H 993.475 -1.28673 -3.65407 0
M  V30 10459 H 993.889 -3.48433 -3.92039 0
M  V30 10460 H 995.363 -2.2083 -5.05903 0
M  V30 10461 H 995.84 -0.671858 -4.34031 0
M  V30 10462 H 996.446 -2.19237 -3.64438 0
M  V30 10463 N 994.761 1.15782 -1.06922 0
M  V30 10464 C 995.986 1.90896 -0.810771 0
M  V30 10465 C 996.411 1.77246 0.629714 0
M  V30 10466 O 995.769 1.10215 1.43953 0
M  V30 10467 C 995.817 3.39397 -1.21829 0
M  V30 10468 O 994.921 4.10818 -0.360934 0
M  V30 10469 H 994.262 0.594497 -0.295752 0
M  V30 10470 H 996.792 1.46652 -1.42669 0
M  V30 10471 H 996.802 3.90181 -1.19259 0
M  V30 10472 H 995.477 3.4865 -2.2675 0
M  V30 10473 H 994.054 3.7019 -0.448748 0
M  V30 10474 N 996.239 0.8527 1.3254 0
M  V30 10475 C 997.486 0.455123 1.97319 0
M  V30 10476 C 997.814 -0.988814 1.67489 0
M  V30 10477 O 997.069 -1.70845 0.954483 0
M  V30 10478 C 997.368 0.638757 3.51646 0
M  V30 10479 C 997.034 2.05287 4.01458 0
M  V30 10480 C 995.696 2.43963 4.14771 0
M  V30 10481 C 998.048 2.9759 4.27889 0
M  V30 10482 C 995.376 3.7422 4.51859 0
M  V30 10483 C 997.728 4.27343 4.66434 0
M  V30 10484 C 996.392 4.65957 4.77954 0
M  V30 10485 H 995.662 0.166541 0.722042 0
M  V30 10486 H 998.309 1.08238 1.57977 0
M  V30 10487 H 996.614 -0.0717394 3.91734 0
M  V30 10488 H 998.311 0.311219 3.9979 0
M  V30 10489 H 994.901 1.74253 3.91579 0
M  V30 10490 H 999.085 2.68942 4.17114 0
M  V30 10491 H 994.341 4.03923 4.58973 0
M  V30 10492 H 998.515 4.9893 4.85841 0
M  V30 10493 H 996.142 5.66934 5.06449 0
M  V30 10494 N 997.718 -1.45297 0.610449 0
M  V30 10495 C 998.964 -2.02518 0.106917 0
M  V30 10496 C 999.297 -1.47747 -1.26034 0
M  V30 10497 O 998.572 -0.65329 -1.832 0
M  V30 10498 C 998.855 -3.6003 0.0710975 0
M  V30 10499 C 998.708 -4.25128 1.46922 0
M  V30 10500 C 1000.03 -4.35778 -0.61524 0
M  V30 10501 H 997.146 -0.735896 0.040327 0
M  V30 10502 H 999.788 -1.73117 0.782968 0
M  V30 10503 H 997.938 -3.85209 -0.504611 0
M  V30 10504 H 999.61 -4.11125 2.09223 0
M  V30 10505 H 997.853 -3.83418 2.02911 0
M  V30 10506 H 998.524 -5.34046 1.39637 0
M  V30 10507 H 1001 -4.1591 -0.125871 0
M  V30 10508 H 999.876 -5.45506 -0.609419 0
M  V30 10509 H 1000.14 -4.08859 -1.68186 0
M  V30 10510 N 999.196 -0.349774 -1.5367 0
M  V30 10511 C 1000.16 0.491676 -2.23864 0
M  V30 10512 C 1001.16 1.02256 -1.24098 0
M  V30 10513 O 1002.35 0.910816 -1.48492 0
M  V30 10514 C 999.481 1.68557 -2.96313 0
M  V30 10515 H 1000.67 -0.12233 -2.9965 0
M  V30 10516 H 998.227 -0.101214 -1.55972 0
M  V30 10517 H 998.962 2.3381 -2.2473 0
M  V30 10518 H 998.747 1.31203 -3.69497 0
M  V30 10519 H 1000.24 2.28225 -3.49718 0
M  V30 10520 N 1000.67 1.57404 -0.0785433 0
M  V30 10521 C 1001.95 1.85163 0.630389 0
M  V30 10522 C 1002.33 0.972295 1.87376 0
M  V30 10523 O 1001.68 0.0403375 2.28464 0
M  V30 10524 C 1001.89 3.35491 0.961604 0
M  V30 10525 C 1003.24 4.0316 1.33219 0
M  V30 10526 O 1004.26 3.40276 1.05313 0
M  V30 10527 O 1003.12 5.14086 1.85412 0
M  V30 10528 H 1000.21 0.765169 0.31376 0
M  V30 10529 H 1002.76 1.69343 -0.109986 0
M  V30 10530 H 1001.53 3.91221 0.0788113 0
M  V30 10531 H 1001.15 3.56598 1.75852 0
M  V30 10532 N 1002.15 -0.195058 1.56388 0
M  V30 10533 C 1003.4 -0.9168 1.80894 0
M  V30 10534 C 1003.73 -1.82907 0.652592 0
M  V30 10535 O 1003.01 -1.91382 -0.346853 0
M  V30 10536 C 1003.29 -1.733 3.15657 0
M  V30 10537 C 1003.14 -0.845449 4.41783 0
M  V30 10538 C 1004.46 -2.70557 3.47112 0
M  V30 10539 H 1001.58 -0.331861 0.658056 0
M  V30 10540 H 1004.22 -0.184174 1.89105 0
M  V30 10541 H 1002.37 -2.3576 3.08787 0
M  V30 10542 H 1004.04 -0.235557 4.60698 0
M  V30 10543 H 1002.29 -0.152172 4.33533 0
M  V30 10544 H 1002.96 -1.45152 5.32574 0
M  V30 10545 H 1005.43 -2.1823 3.54281 0
M  V30 10546 H 1004.31 -3.24749 4.42526 0
M  V30 10547 H 1004.57 -3.49605 2.70608 0
M  V30 10548 N 1003.63 -1.50653 -0.462772 0
M  V30 10549 C 1004.88 -1.62297 -1.21603 0
M  V30 10550 C 1005.21 -0.326191 -1.91441 0
M  V30 10551 O 1004.48 0.67284 -1.82491 0
M  V30 10552 C 1004.77 -2.80901 -2.25315 0
M  V30 10553 C 1004.62 -4.20484 -1.59728 0
M  V30 10554 C 1005.94 -2.95049 -3.26549 0
M  V30 10555 H 1003.06 -0.590691 -0.440741 0
M  V30 10556 H 1005.7 -1.83064 -0.508675 0
M  V30 10557 H 1003.85 -2.63325 -2.85643 0
M  V30 10558 H 1005.52 -4.49669 -1.02932 0
M  V30 10559 H 1003.76 -4.24357 -0.900181 0
M  V30 10560 H 1004.44 -4.99416 -2.35133 0
M  V30 10561 H 1006.91 -3.11166 -2.76251 0
M  V30 10562 H 1005.79 -3.79645 -3.96435 0
M  V30 10563 H 1006.05 -2.06019 -3.91163 0
M  V30 10564 N 1005.11 0.71652 -1.4037 0
M  V30 10565 C 1006.52 1.02447 -1.22379 0
M  V30 10566 C 1006.72 2.0126 -0.0983394 0
M  V30 10567 O 1005.78 2.46569 0.544071 0
M  V30 10568 C 1007.09 1.56909 -2.56515 0
M  V30 10569 C 1008.64 1.68898 -2.6352 0
M  V30 10570 C 1009.12 2.26765 -3.97922 0
M  V30 10571 N 1010.61 2.34152 -3.99658 0
M  V30 10572 C 1011.34 2.79907 -5.00439 0
M  V30 10573 N 1010.84 3.25422 -6.11615 0
M  V30 10574 N 1012.63 2.79283 -4.87809 0
M  V30 10575 H 1004.78 0.0615306 -2.12311 0
M  V30 10576 H 1007.05 0.0898994 -0.943728 0
M  V30 10577 H 1006.75 0.917649 -3.39517 0
M  V30 10578 H 1006.63 2.55446 -2.77538 0
M  V30 10579 H 1009.01 2.33159 -1.8089 0
M  V30 10580 H 1009.09 0.689626 -2.46329 0
M  V30 10581 H 1008.74 1.63126 -4.80991 0
M  V30 10582 H 1008.67 3.27413 -4.12442 0
M  V30 10583 H 1011.16 2.02006 -3.19378 0
M  V30 10584 H 1011.47 3.58899 -6.84406 0
M  V30 10585 H 1009.82 3.23383 -6.15181 0
M  V30 10586 H 1013.01 2.43061 -4.00049 0
M  V30 10587 H 1013.18 3.14626 -5.66493 0
M  V30 10588 N 1006.59 1.25851 0.948643 0
M  V30 10589 C 1007.81 1.13813 1.73382 0
M  V30 10590 C 1008.24 -0.303615 1.85633 0
M  V30 10591 O 1007.59 -1.21997 1.34114 0
M  V30 10592 C 1007.64 1.80388 3.12238 0
M  V30 10593 O 1006.75 1.08759 3.978 0
M  V30 10594 H 1006.09 0.397006 0.532243 0
M  V30 10595 H 1008.62 1.66529 1.18866 0
M  V30 10596 H 1008.63 1.86913 3.62667 0
M  V30 10597 H 1007.3 2.85278 3.02637 0
M  V30 10598 H 1005.88 1.10157 3.56258 0
M  V30 10599 N 1008.06 -1.15214 1.07534 0
M  V30 10600 C 1009.29 -1.90463 0.820883 0
M  V30 10601 C 1009.71 -1.77578 -0.620305 0
M  V30 10602 O 1009.07 -1.10976 -1.43366 0
M  V30 10603 C 1009.12 -3.38746 1.23627 0
M  V30 10604 O 1008.22 -4.1062 0.382715 0
M  V30 10605 H 1007.57 -0.59292 0.298901 0
M  V30 10606 H 1010.1 -1.45893 1.43445 0
M  V30 10607 H 1010.11 -3.89543 1.21327 0
M  V30 10608 H 1008.78 -3.47443 2.28596 0
M  V30 10609 H 1007.36 -3.69947 0.468374 0
M  V30 10610 N 1009.54 -0.859717 -1.32086 0
M  V30 10611 C 1010.96 -0.55025 -1.49815 0
M  V30 10612 C 1011.16 0.917966 -1.79376 0
M  V30 10613 O 1010.21 1.70073 -1.86632 0
M  V30 10614 C 1011.53 -1.44161 -2.6389 0
M  V30 10615 C 1013.08 -1.44257 -2.77775 0
M  V30 10616 C 1013.55 -2.31926 -3.94936 0
M  V30 10617 N 1015.04 -2.2975 -4.02206 0
M  V30 10618 C 1015.78 -2.9431 -4.92107 0
M  V30 10619 N 1015.27 -3.68001 -5.86981 0
M  V30 10620 N 1017.07 -2.83671 -4.8527 0
M  V30 10621 H 1009.22 -1.80987 -1.11164 0
M  V30 10622 H 1011.48 -0.773313 -0.548353 0
M  V30 10623 H 1011.19 -2.48588 -2.4879 0
M  V30 10624 H 1011.06 -1.13268 -3.59792 0
M  V30 10625 H 1013.45 -0.405923 -2.92295 0
M  V30 10626 H 1013.53 -1.79169 -1.82571 0
M  V30 10627 H 1013.17 -3.35661 -3.81174 0
M  V30 10628 H 1013.1 -1.94344 -4.89426 0
M  V30 10629 H 1015.59 -1.76177 -3.3432 0
M  V30 10630 H 1015.91 -4.14417 -6.52287 0
M  V30 10631 H 1014.25 -3.72109 -5.86992 0
M  V30 10632 H 1017.44 -2.25647 -4.10123 0
M  V30 10633 H 1017.61 -3.34267 -5.5513 0
M  V30 10634 N 1011.02 1.44971 -0.618145 0
M  V30 10635 C 1011.97 2.30606 0.09449 0
M  V30 10636 C 1012.94 1.42725 0.849633 0
M  V30 10637 O 1014.12 1.71643 0.833266 0
M  V30 10638 C 1011.26 3.27803 1.07886 0
M  V30 10639 C 1010.38 4.30787 0.323488 0
M  V30 10640 C 1009.51 5.15085 1.29851 0
M  V30 10641 C 1008.55 6.09788 0.531561 0
M  V30 10642 N 1007.69 6.86829 1.4564 0
M  V30 10643 H 1012.53 2.91008 -0.641738 0
M  V30 10644 H 1010.06 1.43391 -0.328259 0
M  V30 10645 H 1012.02 3.82631 1.66281 0
M  V30 10646 H 1010.65 2.69131 1.78237 0
M  V30 10647 H 1009.7 3.78536 -0.376164 0
M  V30 10648 H 1011.02 4.98044 -0.274443 0
M  V30 10649 H 1010.17 5.74365 1.95421 0
M  V30 10650 H 1008.91 4.4787 1.93037 0
M  V30 10651 H 1007.91 5.49628 -0.137702 0
M  V30 10652 H 1009.14 6.79033 -0.0953993 0
M  V30 10653 H 1007.08 6.22295 2.07571 0
M  V30 10654 H 1007 7.50477 0.912167 0
M  V30 10655 H 1008.27 7.50642 2.10134 0
M  V30 10656 N 1012.5 0.357919 1.53482 0
M  V30 10657 C 1013.72 -0.237769 2.06033 0
M  V30 10658 C 1014.15 -1.42292 1.23023 0
M  V30 10659 O 1013.51 -1.79604 0.247427 0
M  V30 10660 C 1013.55 -0.616806 3.55286 0
M  V30 10661 O 1012.66 -1.71503 3.75047 0
M  V30 10662 H 1012 -0.0364322 0.663 0
M  V30 10663 H 1014.53 0.516301 1.97979 0
M  V30 10664 H 1014.54 -0.88996 3.98175 0
M  V30 10665 H 1013.21 0.249825 4.15149 0
M  V30 10666 H 1011.79 -1.43803 3.44057 0
M  V30 10667 N 1013.98 -1.5736 0.0868897 0
M  V30 10668 C 1015.22 -1.94341 -0.579598 0
M  V30 10669 C 1015.56 -0.968238 -1.68341 0
M  V30 10670 O 1014.83 8.29649e-05 -1.945 0
M  V30 10671 C 1015.11 -3.41497 -1.14245 0
M  V30 10672 C 1014.97 -4.49778 -0.044255 0
M  V30 10673 C 1016.29 -3.89788 -2.04336 0
M  V30 10674 H 1013.4 -0.70668 -0.20922 0
M  V30 10675 H 1016.05 -1.89359 0.15593 0
M  V30 10676 H 1014.2 -3.45873 -1.76929 0
M  V30 10677 H 1015.87 -4.57517 0.58959 0
M  V30 10678 H 1014.11 -4.293 0.623207 0
M  V30 10679 H 1014.78 -5.4992 -0.478749 0
M  V30 10680 H 1017.26 -3.87513 -1.51569 0
M  V30 10681 H 1016.13 -4.93335 -2.40648 0
M  V30 10682 H 1016.4 -3.28603 -2.95757 0
M  V30 10683 N 1015.45 0.186762 -1.56489 0
M  V30 10684 C 1016.73 0.932229 -1.71956 0
M  V30 10685 C 1017.11 2.01037 -0.644006 0
M  V30 10686 O 1016.46 2.259 0.343694 0
M  V30 10687 C 1016.67 1.51106 -3.14592 0
M  V30 10688 C 1018.02 1.98997 -3.75081 0
M  V30 10689 O 1019.04 1.60931 -3.17773 0
M  V30 10690 O 1017.9 2.69067 -4.75673 0
M  V30 10691 H 1014.99 0.437736 -0.701652 0
M  V30 10692 H 1017.54 0.175803 -1.68787 0
M  V30 10693 H 1016.31 0.734327 -3.84348 0
M  V30 10694 H 1015.94 2.33209 -3.22024 0
M  V30 10695 N 1016.93 1.50896 0.454776 0
M  V30 10696 C 1018.18 1.6294 1.20741 0
M  V30 10697 C 1018.51 0.336339 1.91265 0
M  V30 10698 O 1017.79 -0.663153 1.82846 0
M  V30 10699 C 1018.07 2.82092 2.23822 0
M  V30 10700 C 1017.92 4.21326 1.57495 0
M  V30 10701 C 1019.24 2.96777 3.24979 0
M  V30 10702 H 1016.36 0.59302 0.437603 0
M  V30 10703 H 1019 1.83331 0.498959 0
M  V30 10704 H 1017.15 2.64837 2.84243 0
M  V30 10705 H 1018.82 4.50209 1.00546 0
M  V30 10706 H 1017.07 4.24829 0.877664 0
M  V30 10707 H 1017.74 5.00656 2.32482 0
M  V30 10708 H 1020.21 3.12627 2.74597 0
M  V30 10709 H 1019.09 3.81742 3.94416 0
M  V30 10710 H 1019.35 2.08091 3.90065 0
M  V30 10711 N 1018.41 -0.709066 1.40748 0
M  V30 10712 C 1019.34 -1.83583 1.4429 0
M  V30 10713 C 1020.32 -1.67378 0.303067 0
M  V30 10714 O 1021.51 -1.87312 0.512612 0
M  V30 10715 C 1018.64 -3.21599 1.31116 0
M  V30 10716 C 1017.59 -3.52486 2.4277 0
M  V30 10717 C 1016.92 -4.89716 2.14668 0
M  V30 10718 C 1018.22 -3.52824 3.85113 0
M  V30 10719 H 1019.91 -1.80876 2.38588 0
M  V30 10720 H 1017.46 -0.868795 1.14839 0
M  V30 10721 H 1019.41 -4.00123 1.32209 0
M  V30 10722 H 1018.13 -3.24898 0.332965 0
M  V30 10723 H 1016.79 -2.76305 2.40937 0
M  V30 10724 H 1016.44 -4.89625 1.15224 0
M  V30 10725 H 1016.14 -5.11347 2.89478 0
M  V30 10726 H 1017.66 -5.70566 2.17455 0
M  V30 10727 H 1019.08 -4.21377 3.88734 0
M  V30 10728 H 1017.48 -3.85984 4.59496 0
M  V30 10729 H 1018.55 -2.52073 4.14231 0
M  V30 10730 N 1019.89 -1.26353 -0.941956 0
M  V30 10731 C 1020.84 -1.07654 -2.06188 0
M  V30 10732 C 1021.83 -0.00369741 -1.694 0
M  V30 10733 O 1023.04 -0.160316 -1.79285 0
M  V30 10734 H 1019.41 -0.331274 -0.675101 0
M  V30 10735 H 1021.38 -2.02566 -2.19111 0
M  V30 10736 C 1020.13 -0.725436 -3.40048 0
M  V30 10737 H 1019.46 -1.54283 -3.68832 0
M  V30 10738 H 1020.9 -0.634383 -4.19227 0
M  V30 10739 C 1019.35 0.569369 -3.32054 0
M  V30 10740 O 1019.88 1.60791 -3.68116 0
M  V30 10741 N 1018.09 0.559714 -2.85159 0
M  V30 10742 H 1017.64 -0.285817 -2.56009 0
M  V30 10743 H 1017.6 1.42617 -2.80193 0
M  V30 10744 N 1021.37 1.14642 -1.08144 0
M  V30 10745 C 1022.6 1.89484 -0.830864 0
M  V30 10746 C 1023.01 1.78443 0.616722 0
M  V30 10747 O 1022.37 1.14191 1.42361 0
M  V30 10748 C 1022.42 3.39554 -1.24039 0
M  V30 10749 O 1022.14 3.50286 -2.63119 0
M  V30 10750 C 1023.64 4.31399 -1.02029 0
M  V30 10751 H 1020.86 0.600283 -0.299835 0
M  V30 10752 H 1023.4 1.45204 -1.44001 0
M  V30 10753 H 1021.56 3.81467 -0.675407 0
M  V30 10754 H 1021.97 4.43481 -2.80045 0
M  V30 10755 H 1023.45 5.35079 -1.35625 0
M  V30 10756 H 1023.92 4.39179 0.0428697 0
M  V30 10757 H 1024.53 3.95238 -1.57057 0
M  V30 10758 N 1022.85 0.866709 1.31628 0
M  V30 10759 C 1024.07 0.49039 2.01004 0
M  V30 10760 C 1024.49 -0.916244 1.65077 0
M  V30 10761 O 1023.85 -1.59975 0.8783 0
M  V30 10762 C 1023.9 0.634011 3.55897 0
M  V30 10763 O 1023.62 1.98525 3.90537 0
M  V30 10764 C 1025.12 0.258277 4.42547 0
M  V30 10765 H 1022.34 0.191421 0.643117 0
M  V30 10766 H 1024.88 1.16698 1.67934 0
M  V30 10767 H 1023.04 0.00501801 3.874 0
M  V30 10768 H 1023.45 1.99067 4.85255 0
M  V30 10769 H 1024.93 0.409733 5.50477 0
M  V30 10770 H 1025.4 -0.802301 4.3181 0
M  V30 10771 H 1026.01 0.862837 4.16456 0
M  V30 10772 N 1024.32 -1.44642 0.625825 0
M  V30 10773 C 1025.73 -1.85502 0.211175 0
M  V30 10774 C 1026.09 -1.52356 -1.2362 0
M  V30 10775 O 1025.21 -0.959051 -1.93988 0
M  V30 10776 C 1025.81 -3.36702 0.37648 0
M  V30 10777 C 1024.36 -3.76396 0.0163795 0
M  V30 10778 C 1023.51 -2.68517 0.692368 0
M  V30 10779 H 1026.46 -1.35183 0.831333 0
M  V30 10780 H 1026.48 -3.78536 -0.386106 0
M  V30 10781 H 1026 -3.60795 1.42999 0
M  V30 10782 H 1024.1 -3.57919 -1.0356 0
M  V30 10783 H 1024.21 -4.77231 0.422742 0
M  V30 10784 H 1022.57 -2.54377 0.128191 0
M  V30 10785 H 1023.36 -2.95444 1.74837 0
M  V30 10786 N 1025.8 -0.366053 -1.5329 0
M  V30 10787 C 1027.22 -0.0150149 -1.59593 0
M  V30 10788 C 1027.42 1.46719 -1.38116 0
M  V30 10789 O 1026.47 2.22884 -1.18656 0
M  V30 10790 C 1027.79 -0.471374 -2.96982 0
M  V30 10791 C 1029.33 -0.425634 -3.10092 0
M  V30 10792 C 1029.81 -0.857812 -4.49895 0
M  V30 10793 N 1031.3 -0.81289 -4.56011 0
M  V30 10794 C 1032.04 -1.11898 -5.62376 0
M  V30 10795 N 1031.53 -1.49436 -6.76491 0
M  V30 10796 N 1033.32 -1.04174 -5.52362 0
M  V30 10797 H 1025.48 -1.33127 -1.65502 0
M  V30 10798 H 1027.74 -0.544172 -0.776261 0
M  V30 10799 H 1027.44 -1.50569 -3.1784 0
M  V30 10800 H 1027.32 0.141764 -3.76934 0
M  V30 10801 H 1029.71 0.599548 -2.88945 0
M  V30 10802 H 1029.79 -1.07427 -2.32149 0
M  V30 10803 H 1029.43 -1.88111 -4.7178 0
M  V30 10804 H 1029.36 -0.186419 -5.2627 0
M  V30 10805 H 1031.85 -0.536343 -3.74075 0
M  V30 10806 H 1032.16 -1.71217 -7.53594 0
M  V30 10807 H 1030.51 -1.53302 -6.77882 0
M  V30 10808 H 1033.7 -0.747654 -4.62091 0
M  V30 10809 H 1033.87 -1.28362 -6.35159 0
M  V30 10810 N 1027.28 1.57312 -0.0952337 0
M  V30 10811 C 1028.7 1.57445 0.261416 0
M  V30 10812 C 1028.9 1.10639 1.68408 0
M  V30 10813 O 1027.95 0.782912 2.40056 0
M  V30 10814 C 1029.26 3.00659 0.0497206 0
M  V30 10815 C 1030.81 3.1278 0.117459 0
M  V30 10816 C 1031.29 4.57952 -0.0662441 0
M  V30 10817 N 1032.78 4.63199 -0.0114146 0
M  V30 10818 C 1033.51 5.73255 -0.128799 0
M  V30 10819 N 1033.01 6.92146 -0.301026 0
M  V30 10820 N 1034.8 5.62056 -0.0700599 0
M  V30 10821 H 1026.95 1.86045 -1.02475 0
M  V30 10822 H 1029.22 0.858726 -0.401614 0
M  V30 10823 H 1028.92 3.39102 -0.932888 0
M  V30 10824 H 1028.8 3.68792 0.791975 0
M  V30 10825 H 1031.18 2.74209 1.09057 0
M  V30 10826 H 1031.26 2.47238 -0.656288 0
M  V30 10827 H 1030.91 4.97217 -1.03623 0
M  V30 10828 H 1030.84 5.21555 0.727198 0
M  V30 10829 H 1033.33 3.77712 0.119154 0
M  V30 10830 H 1033.64 7.71855 -0.382104 0
M  V30 10831 H 1031.99 6.94184 -0.336695 0
M  V30 10832 H 1035.18 4.68057 0.0633587 0
M  V30 10833 H 1035.35 6.4779 -0.164991 0
M  V30 10834 N 1028.76 -0.17846 1.56586 0
M  V30 10835 C 1029.98 -0.916061 1.86073 0
M  V30 10836 C 1030.41 -1.75349 0.680754 0
M  V30 10837 O 1029.77 -1.77479 -0.37028 0
M  V30 10838 C 1029.81 -1.77445 3.1392 0
M  V30 10839 O 1028.92 -2.87524 2.95641 0
M  V30 10840 H 1028.26 -0.257031 0.612234 0
M  V30 10841 H 1030.79 -0.178755 2.03818 0
M  V30 10842 H 1030.8 -2.1758 3.45142 0
M  V30 10843 H 1029.47 -1.15927 3.99417 0
M  V30 10844 H 1028.05 -2.51023 2.75757 0
M  V30 10845 N 1030.24 -1.51135 -0.446768 0
M  V30 10846 C 1031.65 -1.39101 -0.782504 0
M  V30 10847 C 1031.85 -0.46599 -1.96038 0
M  V30 10848 O 1030.91 0.0823679 -2.52366 0
M  V30 10849 C 1032.22 -2.80953 -1.07173 0
M  V30 10850 C 1033.77 -2.90038 -1.17673 0
M  V30 10851 C 1034.24 -4.32777 -1.49894 0
M  V30 10852 N 1035.73 -4.3584 -1.56837 0
M  V30 10853 C 1036.47 -5.43305 -1.83322 0
M  V30 10854 N 1035.97 -6.60945 -2.07662 0
M  V30 10855 N 1037.76 -5.30775 -1.85026 0
M  V30 10856 H 1029.91 -2.09835 0.329114 0
M  V30 10857 H 1032.17 -0.944199 0.0848054 0
M  V30 10858 H 1031.88 -3.50591 -0.279037 0
M  V30 10859 H 1031.75 -3.197 -2.00179 0
M  V30 10860 H 1034.14 -2.20603 -1.96005 0
M  V30 10861 H 1034.22 -2.54801 -0.225892 0
M  V30 10862 H 1033.86 -5.02757 -0.720924 0
M  V30 10863 H 1033.79 -4.6552 -2.46168 0
M  V30 10864 H 1036.29 -3.51023 -1.39968 0
M  V30 10865 H 1036.6 -7.38643 -2.27214 0
M  V30 10866 H 1034.94 -6.64077 -2.05003 0
M  V30 10867 H 1038.13 -4.37858 -1.65523 0
M  V30 10868 H 1038.31 -6.14609 -2.05329 0
M  V30 10869 N 1031.71 0.701592 -1.41122 0
M  V30 10870 C 1032.65 1.8268 -1.38422 0
M  V30 10871 C 1033.66 1.60244 -0.287342 0
M  V30 10872 O 1034.85 1.69859 -0.548658 0
M  V30 10873 C 1031.95 3.19338 -1.13475 0
M  V30 10874 C 1031.12 3.68853 -2.35088 0
M  V30 10875 C 1030.18 4.84163 -2.06089 0
M  V30 10876 O 1029.21 4.9609 -2.79077 0
M  V30 10877 N 1030.41 5.70972 -1.04743 0
M  V30 10878 H 1033.17 1.8549 -2.35401 0
M  V30 10879 H 1030.73 0.883682 -1.35656 0
M  V30 10880 H 1032.73 3.94095 -0.920377 0
M  V30 10881 H 1031.3 3.11589 -0.251152 0
M  V30 10882 H 1030.52 2.8507 -2.72266 0
M  V30 10883 H 1031.8 3.98673 -3.16129 0
M  V30 10884 H 1031.2 5.63961 -0.443221 0
M  V30 10885 H 1029.76 6.45654 -0.892949 0
M  V30 10886 N 1033.19 1.2685 0.935242 0
M  V30 10887 C 1034.42 1.15538 1.71635 0
M  V30 10888 C 1034.83 -0.288698 1.8658 0
M  V30 10889 O 1034.19 -1.19721 1.37743 0
M  V30 10890 C 1034.24 1.8259 3.11999 0
M  V30 10891 O 1033.96 3.21355 2.97763 0
M  V30 10892 C 1035.46 1.77307 4.06297 0
M  V30 10893 H 1032.68 0.402055 0.537208 0
M  V30 10894 H 1035.23 1.67582 1.17203 0
M  V30 10895 H 1033.38 1.3447 3.63313 0
M  V30 10896 H 1033.8 3.54626 3.86446 0
M  V30 10897 H 1035.27 2.28851 5.02326 0
M  V30 10898 H 1035.75 0.740823 4.32907 0
M  V30 10899 H 1036.35 2.25007 3.60904 0
M  V30 10900 N 1034.67 -1.14067 1.0875 0
M  V30 10901 C 1035.6 -2.18926 0.67852 0
M  V30 10902 C 1036.62 -1.60441 -0.276163 0
M  V30 10903 O 1037.8 -1.78388 -0.0632788 0
M  V30 10904 C 1034.9 -3.38893 -0.0218852 0
M  V30 10905 C 1034.08 -4.26901 0.952582 0
M  V30 10906 C 1033.14 -5.25418 0.286859 0
M  V30 10907 O 1032.16 -5.61512 0.932354 0
M  V30 10908 N 1033.36 -5.72476 -0.961831 0
M  V30 10909 H 1036.13 -2.54629 1.58063 0
M  V30 10910 H 1033.69 -1.29321 0.974042 0
M  V30 10911 H 1035.68 -4.01864 -0.478278 0
M  V30 10912 H 1034.25 -3.01486 -0.826141 0
M  V30 10913 H 1033.47 -3.60812 1.58772 0
M  V30 10914 H 1034.76 -4.82563 1.61279 0
M  V30 10915 H 1034.16 -5.45287 -1.50594 0
M  V30 10916 H 1032.72 -6.37418 -1.36166 0
M  V30 10917 N 1036.15 -0.873678 -1.31166 0
M  V30 10918 C 1037.37 -0.500242 -2.01277 0
M  V30 10919 C 1037.8 0.900811 -1.65127 0
M  V30 10920 O 1037.16 1.59504 -0.861862 0
M  V30 10921 C 1037.2 -0.668976 -3.5434 0
M  V30 10922 O 1036.31 0.290096 -4.11378 0
M  V30 10923 H 1035.65 -0.198507 -0.633633 0
M  V30 10924 H 1038.18 -1.17811 -1.67277 0
M  V30 10925 H 1038.19 -0.563673 -4.04088 0
M  V30 10926 H 1036.86 -1.69055 -3.79991 0
M  V30 10927 H 1035.44 0.139437 -3.72639 0
M  V30 10928 N 1037.63 1.44308 -0.633487 0
M  V30 10929 C 1038.56 2.33431 0.0568402 0
M  V30 10930 C 1039.54 1.48342 0.832386 0
M  V30 10931 O 1040.72 1.77056 0.797798 0
M  V30 10932 C 1037.85 3.31443 1.03743 0
M  V30 10933 C 1036.81 4.26368 0.373362 0
M  V30 10934 C 1036.13 5.14267 1.46403 0
M  V30 10935 C 1037.43 5.17287 -0.721876 0
M  V30 10936 H 1039.13 2.91402 -0.687388 0
M  V30 10937 H 1036.67 1.4012 -0.332009 0
M  V30 10938 H 1038.63 3.92677 1.52913 0
M  V30 10939 H 1037.35 2.71686 1.81258 0
M  V30 10940 H 1036.01 3.6647 -0.0977053 0
M  V30 10941 H 1035.66 4.50861 2.23011 0
M  V30 10942 H 1035.36 5.7859 1.02506 0
M  V30 10943 H 1036.88 5.78373 1.95748 0
M  V30 10944 H 1038.29 5.72444 -0.313181 0
M  V30 10945 H 1036.69 5.90226 -1.08413 0
M  V30 10946 H 1037.76 4.58159 -1.58804 0
M  V30 10947 N 1039.1 0.374177 1.53094 0
M  V30 10948 C 1040.33 -0.213015 2.05499 0
M  V30 10949 C 1040.74 -1.42303 1.24686 0
M  V30 10950 O 1040.09 -1.81512 0.282702 0
M  V30 10951 C 1040.15 -0.662308 3.53346 0
M  V30 10952 C 1039.81 0.432183 4.54952 0
M  V30 10953 C 1040.81 1.2848 5.03775 0
M  V30 10954 C 1038.49 0.594887 4.98765 0
M  V30 10955 C 1040.49 2.28538 5.9502 0
M  V30 10956 C 1038.17 1.59882 5.89814 0
M  V30 10957 C 1039.17 2.4425 6.37833 0
M  V30 10958 O 1038.86 3.4293 7.27086 0
M  V30 10959 H 1038.59 -0.0393809 0.674852 0
M  V30 10960 H 1041.15 0.533423 1.98353 0
M  V30 10961 H 1039.38 -1.46049 3.5806 0
M  V30 10962 H 1041.07 -1.17347 3.88567 0
M  V30 10963 H 1041.83 1.17033 4.70668 0
M  V30 10964 H 1037.71 -0.0520401 4.60971 0
M  V30 10965 H 1041.25 2.94426 6.32423 0
M  V30 10966 H 1037.15 1.71373 6.22335 0
M  V30 10967 H 1037.92 3.3876 7.45107 0
M  V30 10968 N 1040.58 -1.57259 0.103575 0
M  V30 10969 C 1041.83 -1.93832 -0.55786 0
M  V30 10970 C 1042.14 -0.988087 -1.68808 0
M  V30 10971 O 1043.35 -1.24786 -2.41124 0
M  V30 10972 C 1041.81 -3.44433 -1.04373 0
M  V30 10973 C 1041.41 -4.47963 0.0571971 0
M  V30 10974 C 1043.16 -3.89953 -1.67742 0
M  V30 10975 C 1041.07 -5.89727 -0.444505 0
M  V30 10976 H 1040 -0.723536 -0.212161 0
M  V30 10977 H 1042.65 -1.82606 0.180944 0
M  V30 10978 H 1041.03 -3.50841 -1.83648 0
M  V30 10979 H 1042.2 -4.53209 0.83298 0
M  V30 10980 H 1040.52 -4.12104 0.596588 0
M  V30 10981 H 1043.11 -4.93272 -2.06365 0
M  V30 10982 H 1043.46 -3.2907 -2.54988 0
M  V30 10983 H 1043.99 -3.86281 -0.950342 0
M  V30 10984 H 1040.73 -6.5433 0.391543 0
M  V30 10985 H 1040.25 -5.87935 -1.18711 0
M  V30 10986 H 1041.93 -6.40558 -0.910739 0
M  V30 10987 N 1042.06 0.170153 -1.56679 0
M  V30 10988 C 1043.47 0.732502 -1.7173 0
M  V30 10989 C 1043.82 1.82736 -0.71428 0
M  V30 10990 O 1042.95 2.16044 0.124102 0
M  V30 10991 C 1043.54 1.33548 -3.11368 0
M  V30 10992 C 1042.1 1.84464 -3.281 0
M  V30 10993 C 1041.25 0.724069 -2.6768 0
M  V30 10994 H 1044.2 -0.0552543 -1.58604 0
M  V30 10995 H 1044.22 2.20519 -3.10083 0
M  V30 10996 H 1043.73 0.5384 -3.84347 0
M  V30 10997 H 1041.83 2.66813 -2.6008 0
M  V30 10998 H 1041.95 1.98928 -4.35849 0
M  V30 10999 H 1040.31 1.14481 -2.27522 0
M  V30 11000 H 1041.09 -0.0611861 -3.43245 0
M  V30 11001 N 1043.54 1.5137 0.438746 0
M  V30 11002 C 1044.49 1.73154 1.55308 0
M  V30 11003 C 1045.48 0.597825 1.58501 0
M  V30 11004 O 1046.69 0.77917 1.62262 0
M  V30 11005 H 1043.06 0.547083 0.51595 0
M  V30 11006 H 1045.03 2.66566 1.34108 0
M  V30 11007 C 1043.78 1.87242 2.92977 0
M  V30 11008 H 1043.1 2.73884 2.91252 0
M  V30 11009 H 1044.54 2.06497 3.70317 0
M  V30 11010 C 1043 0.631887 3.30921 0
M  V30 11011 O 1043.53 -0.214099 4.01129 0
M  V30 11012 N 1041.74 0.47639 2.86669 0
M  V30 11013 H 1041.29 1.16589 2.29706 0
M  V30 11014 H 1041.24 -0.352403 3.12419 0
M  V30 11015 N 1045.02 -0.694098 1.41492 0
M  V30 11016 C 1046.24 -1.48286 1.44288 0
M  V30 11017 C 1046.66 -1.88737 0.0485783 0
M  V30 11018 O 1046.02 -1.56881 -0.932449 0
M  V30 11019 C 1046.07 -2.74446 2.3529 0
M  V30 11020 O 1045.79 -2.35698 3.69294 0
M  V30 11021 C 1047.29 -3.68175 2.46905 0
M  V30 11022 H 1044.51 -0.45692 0.491391 0
M  V30 11023 H 1047.05 -0.854477 1.85793 0
M  V30 11024 H 1045.21 -3.33518 1.9709 0
M  V30 11025 H 1045.62 -3.17029 4.17843 0
M  V30 11026 H 1047.1 -4.53476 3.14743 0
M  V30 11027 H 1047.57 -4.12763 1.50078 0
M  V30 11028 H 1048.18 -3.15006 2.85747 0
M  V30 11029 N 1046.49 -1.27344 -0.928501 0
M  V30 11030 C 1047.91 -1.04732 -1.2043 0
M  V30 11031 C 1048.11 0.219623 -2.003 0
M  V30 11032 O 1047.17 0.925333 -2.34934 0
M  V30 11033 C 1048.48 -2.28625 -1.95323 0
M  V30 11034 C 1050.03 -2.33655 -2.08265 0
M  V30 11035 C 1050.5 -3.57275 -2.86563 0
M  V30 11036 N 1051.99 -3.57828 -2.94132 0
M  V30 11037 C 1052.73 -4.50152 -3.55177 0
M  V30 11038 N 1052.22 -5.52779 -4.17621 0
M  V30 11039 N 1054.02 -4.37777 -3.52573 0
M  V30 11040 H 1046.17 -2.08697 -0.394892 0
M  V30 11041 H 1048.43 -0.91782 -0.2373 0
M  V30 11042 H 1048.14 -3.20845 -1.44054 0
M  V30 11043 H 1048.01 -2.33878 -2.95941 0
M  V30 11044 H 1050.4 -1.41942 -2.58721 0
M  V30 11045 H 1050.48 -2.32406 -1.0687 0
M  V30 11046 H 1050.12 -4.49325 -2.3679 0
M  V30 11047 H 1050.05 -3.55775 -3.88242 0
M  V30 11048 H 1052.54 -2.83607 -2.49751 0
M  V30 11049 H 1052.86 -6.19394 -4.62137 0
M  V30 11050 H 1051.2 -5.56622 -4.16169 0
M  V30 11051 H 1054.39 -3.56811 -3.02991 0
M  V30 11052 H 1054.57 -5.09919 -3.99858 0
M  V30 11053 N 1047.97 1.13488 -1.09353 0
M  V30 11054 C 1049.2 1.88592 -0.850915 0
M  V30 11055 C 1049.62 1.79087 0.597761 0
M  V30 11056 O 1048.97 1.15695 1.41142 0
M  V30 11057 C 1049.02 3.38219 -1.27633 0
M  V30 11058 O 1048.74 3.47476 -2.66819 0
M  V30 11059 C 1050.25 4.30293 -1.06598 0
M  V30 11060 H 1047.47 0.597069 -0.306185 0
M  V30 11061 H 1050.01 1.43668 -1.45533 0
M  V30 11062 H 1048.16 3.80729 -0.715828 0
M  V30 11063 H 1048.58 4.40485 -2.84733 0
M  V30 11064 H 1050.05 5.33611 -1.41293 0
M  V30 11065 H 1050.53 4.392 -0.0037135 0
M  V30 11066 H 1051.14 3.9355 -1.6124 0
M  V30 11067 N 1049.45 0.880621 1.30701 0
M  V30 11068 C 1050.38 0.360251 2.30704 0
M  V30 11069 C 1051.36 -0.554572 1.60806 0
M  V30 11070 O 1052.55 -0.469345 1.88443 0
M  V30 11071 C 1049.68 -0.429888 3.44629 0
M  V30 11072 C 1048.63 0.392786 4.26194 0
M  V30 11073 C 1047.96 -0.52369 5.32129 0
M  V30 11074 C 1049.26 1.63258 4.96129 0
M  V30 11075 H 1050.95 1.19591 2.74478 0
M  V30 11076 H 1048.5 0.576508 1.31956 0
M  V30 11077 H 1050.45 -0.804532 4.13649 0
M  V30 11078 H 1049.17 -1.29916 2.99649 0
M  V30 11079 H 1047.83 0.749514 3.58856 0
M  V30 11080 H 1047.48 -1.39054 4.83397 0
M  V30 11081 H 1047.18 0.0229272 5.87596 0
M  V30 11082 H 1048.71 -0.894946 6.04006 0
M  V30 11083 H 1050.12 1.32877 5.57689 0
M  V30 11084 H 1048.52 2.11906 5.61441 0
M  V30 11085 H 1049.59 2.37944 4.22505 0
M  V30 11086 N 1050.93 -1.4397 0.641131 0
M  V30 11087 C 1052.21 -1.95436 0.0800918 0
M  V30 11088 C 1052.59 -1.58282 -1.39678 0
M  V30 11089 O 1051.93 -0.861867 -2.11623 0
M  V30 11090 C 1052.14 -3.47589 0.313531 0
M  V30 11091 C 1053.49 -4.2407 0.212034 0
M  V30 11092 O 1054.52 -3.55353 0.245434 0
M  V30 11093 O 1053.38 -5.46356 0.125455 0
M  V30 11094 H 1050.47 -0.826834 -0.0165735 0
M  V30 11095 H 1053.02 -1.5397 0.71353 0
M  V30 11096 H 1051.79 -3.67716 1.33793 0
M  V30 11097 H 1051.41 -3.96025 -0.353563 0
M  V30 11098 N 1052.41 -0.382291 -1.52893 0
M  V30 11099 C 1053.65 0.202133 -2.01489 0
M  V30 11100 C 1053.98 1.47399 -1.26901 0
M  V30 11101 O 1053.24 1.92439 -0.355771 0
M  V30 11102 C 1053.54 0.523437 -3.53546 0
M  V30 11103 C 1053.2 -0.656042 -4.46102 0
M  V30 11104 C 1051.86 -0.979633 -4.71123 0
M  V30 11105 C 1054.22 -1.44545 -5.00756 0
M  V30 11106 C 1051.54 -2.0943 -5.48047 0
M  V30 11107 C 1053.9 -2.55066 -5.78899 0
M  V30 11108 C 1052.56 -2.87942 -6.02201 0
M  V30 11109 H 1051.83 0.0739659 -0.737299 0
M  V30 11110 H 1054.48 -0.518196 -1.84356 0
M  V30 11111 H 1052.78 1.325 -3.68715 0
M  V30 11112 H 1054.48 0.988148 -3.88634 0
M  V30 11113 H 1051.07 -0.393818 -4.26787 0
M  V30 11114 H 1055.25 -1.20869 -4.81357 0
M  V30 11115 H 1050.51 -2.3528 -5.64317 0
M  V30 11116 H 1054.68 -3.1664 -6.20252 0
M  V30 11117 H 1052.31 -3.74435 -6.61591 0
M  V30 11118 N 1053.89 1.57202 -0.111913 0
M  V30 11119 C 1054.83 2.14936 0.840908 0
M  V30 11120 C 1055.8 1.07242 1.2684 0
M  V30 11121 O 1056.99 1.35114 1.34718 0
M  V30 11122 C 1054.13 2.74743 2.0883 0
M  V30 11123 C 1053.24 3.96723 1.70982 0
M  V30 11124 C 1052.38 4.4464 2.90634 0
M  V30 11125 C 1051.41 5.59169 2.48992 0
M  V30 11126 N 1050.55 6.01862 3.61534 0
M  V30 11127 H 1055.39 2.96034 0.341735 0
M  V30 11128 H 1052.93 1.4626 0.156993 0
M  V30 11129 H 1054.89 3.07546 2.81907 0
M  V30 11130 H 1053.52 1.96346 2.56218 0
M  V30 11131 H 1052.57 3.70127 0.878072 0
M  V30 11132 H 1053.88 4.79795 1.36373 0
M  V30 11133 H 1053.03 4.79315 3.71944 0
M  V30 11134 H 1051.77 3.60503 3.28464 0
M  V30 11135 H 1050.78 5.24106 1.66113 0
M  V30 11136 H 1052 6.45067 2.12287 0
M  V30 11137 H 1049.95 5.20667 3.99051 0
M  V30 11138 H 1049.87 6.79772 3.30827 0
M  V30 11139 H 1051.13 6.41172 4.43305 0
M  V30 11140 O 1055.4 -0.0276682 1.61476 0
M  V30 11141 H 1056.09 -0.648033 1.82538 0
M  V30 END ATOM
M  V30 BEGIN BOND
M  V30 END BOND
M  V30 END CTAB
M  END
$$$$
