drugbank_target|Q8WXS5 Voltage-dependent calcium channel gamma-8 subunit (DB00153; DB00228; DB00421; DB11148; DB13746)
 OpenBabel12092120593D

  0  0  0     0  0            999 V3000
M  V30 BEGIN CTAB
M  V30 COUNTS 6075 6143 0 0 0
M  V30 BEGIN ATOM
M  V30 1 H -0.908 1.98254 -0.117106 0
M  V30 2 N 0 1.576 0 0
M  V30 3 C 0.933 2.03868 1.02534 0
M  V30 4 C 1.911 0.928543 1.3348 0
M  V30 5 O 3.095 1.19667 1.45644 0
M  V30 6 C 0.222 2.43627 2.35294 0
M  V30 7 C -0.732 3.65373 2.2001 0
M  V30 8 S 0.101 5.13292 1.52614 0
M  V30 9 C 1.257 5.56322 2.86805 0
M  V30 10 H 1.49 2.90518 0.631377 0
M  V30 11 H -0.977 1.52953 0.210867 0
M  V30 12 H 0.981 2.67203 3.11629 0
M  V30 13 H -0.358 1.57376 2.7183 0
M  V30 14 H -1.165 3.90944 3.18086 0
M  V30 15 H -1.563 3.418 1.51819 0
M  V30 16 H 0.729 5.58782 3.83104 0
M  V30 17 H 1.672 6.56266 2.65933 0
M  V30 18 H 2.08 4.83886 2.90714 0
M  V30 19 N 1.4781 -0.272755 1.55222 0
M  V30 20 C 2.3881 -1.35918 1.91216 0
M  V30 21 C 3.4041 -1.54026 0.809436 0
M  V30 22 O 4.5801 -1.68148 1.10852 0
M  V30 23 C 1.6451 -2.69834 2.17693 0
M  V30 24 C 0.7061 -2.6047 3.41253 0
M  V30 25 C -0.0609 -3.88 3.66458 0
M  V30 26 O 0.1621 -4.88693 2.94169 0
M  V30 27 O -0.9039 -3.88189 4.59992 0
M  V30 28 H 2.9221 -1.0839 2.83699 0
M  V30 29 H 0.5071 -0.471301 1.41771 0
M  V30 30 H 2.3891 -3.49017 2.36147 0
M  V30 31 H 1.0641 -2.97148 1.28392 0
M  V30 32 H -0.0289 -1.79663 3.28134 0
M  V30 33 H 1.3041 -2.38106 4.30774 0
M  V30 34 N 2.9562 -1.48159 -0.537278 0
M  V30 35 C 4.1812 -1.59707 -1.32319 0
M  V30 36 C 4.6062 -0.254859 -1.86365 0
M  V30 37 O 3.9642 0.772378 -1.64024 0
M  V30 38 C 4.0122 -2.6412 -2.45505 0
M  V30 39 O 3.1162 -2.20774 -3.48328 0
M  V30 40 H 2.4572 -0.535791 -0.392204 0
M  V30 41 H 4.9872 -1.94092 -0.647268 0
M  V30 42 H 4.9972 -2.85166 -2.91795 0
M  V30 43 H 3.6722 -3.61567 -2.05528 0
M  V30 44 H 2.2492 -2.09911 -3.08207 0
M  V30 45 N 4.4343 0.785586 -1.36625 0
M  V30 46 C 5.3643 1.91259 -1.33949 0
M  V30 47 C 6.3453 1.68795 -0.210325 0
M  V30 48 O 7.5303 1.89854 -0.408561 0
M  V30 49 C 4.6603 3.28339 -1.13186 0
M  V30 50 C 3.6143 3.65335 -2.22967 0
M  V30 51 C 2.9403 5.00806 -1.87342 0
M  V30 52 C 4.2403 3.7352 -3.65075 0
M  V30 53 H 5.9343 1.93755 -2.28253 0
M  V30 54 H 3.4803 0.930788 -1.09874 0
M  V30 55 H 5.4333 4.06804 -1.09948 0
M  V30 56 H 4.1573 3.2624 -0.153332 0
M  V30 57 H 2.8163 2.89169 -2.25337 0
M  V30 58 H 2.4643 4.95233 -0.880545 0
M  V30 59 H 2.1643 5.26529 -2.60846 0
M  V30 60 H 3.6883 5.81687 -1.85667 0
M  V30 61 H 5.1023 4.42168 -3.64911 0
M  V30 62 H 3.4993 4.10731 -4.37516 0
M  V30 63 H 4.5693 2.74527 -3.99703 0
M  V30 64 N 5.9124 1.20967 1.01018 0
M  V30 65 C 6.8594 0.964281 2.09691 0
M  V30 66 C 7.8294 -0.107853 1.65749 0
M  V30 67 O 9.0144 0.0381987 1.90762 0
M  V30 68 C 6.1544 0.52943 3.41015 0
M  V30 69 C 5.2674 1.67043 3.98398 0
M  V30 70 C 4.4024 1.18525 5.17808 0
M  V30 71 C 3.4414 2.29892 5.67288 0
M  V30 72 N 2.5784 1.82546 6.77954 0
M  V30 73 H 7.4184 1.89463 2.30017 0
M  V30 74 H 4.9554 0.944289 1.1279 0
M  V30 75 H 6.9134 0.258588 4.16398 0
M  V30 76 H 5.5434 -0.363919 3.20742 0
M  V30 77 H 4.5954 2.05603 3.20049 0
M  V30 78 H 5.9074 2.50877 4.31117 0
M  V30 79 H 5.0614 0.870762 6.00419 0
M  V30 80 H 3.8004 0.316887 4.86669 0
M  V30 81 H 2.8054 2.6215 4.83278 0
M  V30 82 H 4.0304 3.17216 6.00459 0
M  V30 83 H 1.9764 0.980454 6.48632 0
M  V30 84 H 1.8934 2.59956 7.09901 0
M  V30 85 H 3.1614 1.54115 7.64113 0
M  V30 86 N 7.3905 -1.2043 1.01659 0
M  V30 87 C 8.8065 -1.41852 0.731442 0
M  V30 88 C 9.0065 -1.89358 -0.688898 0
M  V30 89 O 8.0625 -2.06247 -1.45666 0
M  V30 90 C 9.3755 -2.44019 1.75714 0
M  V30 91 C 10.9235 -2.57785 1.77527 0
M  V30 92 C 11.3985 -3.63194 2.79023 0
M  V30 93 N 12.8895 -3.70678 2.77763 0
M  V30 94 C 13.6245 -4.51897 3.52954 0
M  V30 95 N 13.1205 -5.36921 4.37821 0
M  V30 96 N 14.9135 -4.4643 3.41551 0
M  V30 97 H 7.0645 -0.879093 1.93354 0
M  V30 98 H 9.3275 -0.448425 0.835236 0
M  V30 99 H 9.0335 -2.1611 2.77469 0
M  V30 100 H 8.9075 -3.43007 1.56927 0
M  V30 101 H 11.2945 -2.85023 0.764569 0
M  V30 102 H 11.3755 -1.58992 2.00387 0
M  V30 103 H 11.0195 -3.36699 3.80258 0
M  V30 104 H 10.9495 -4.61609 2.53425 0
M  V30 105 H 13.4405 -3.09944 2.16201 0
M  V30 106 H 13.7535 -5.95981 4.91962 0
M  V30 107 H 12.0985 -5.36424 4.41899 0
M  V30 108 H 15.2895 -3.79042 2.74672 0
M  V30 109 H 15.4625 -5.09491 4.00404 0
M  V30 110 N 8.8686 -0.792821 -1.36206 0
M  V30 111 C 10.1146 -0.376415 -1.99887 0
M  V30 112 C 10.4696 1.04127 -1.61788 0
M  V30 113 O 9.7626 1.71004 -0.864193 0
M  V30 114 C 9.9566 -0.481501 -3.54142 0
M  V30 115 C 9.7856 -1.90786 -4.07223 0
M  V30 116 C 8.5556 -2.53322 -4.37214 0
M  V30 117 C 10.7536 -2.87048 -4.26741 0
M  V30 118 N 8.7356 -3.8751 -4.7614 0
M  V30 119 C 10.1066 -4.06077 -4.6851 0
M  V30 120 C 12.1616 -2.8406 -4.08918 0
M  V30 121 C 10.8646 -5.22532 -4.94321 0
M  V30 122 C 12.8906 -3.99705 -4.35878 0
M  V30 123 C 12.2526 -5.1748 -4.77906 0
M  V30 124 H 8.3516 -0.185226 -0.759747 0
M  V30 125 H 10.9356 -1.03114 -1.65153 0
M  V30 126 H 9.1066 0.143154 -3.88136 0
M  V30 127 H 10.8386 -0.0410128 -4.04679 0
M  V30 128 H 7.5936 -2.04777 -4.2704 0
M  V30 129 H 8.0176 -4.5656 -4.99882 0
M  V30 130 H 12.6596 -1.94165 -3.75579 0
M  V30 131 H 10.3776 -6.1301 -5.2654 0
M  V30 132 H 13.9636 -3.98758 -4.23655 0
M  V30 133 H 12.8436 -6.05478 -4.98363 0
M  V30 134 N 10.3467 1.47872 -0.545128 0
M  V30 135 C 11.2947 2.31533 0.222512 0
M  V30 136 C 12.2887 1.42177 0.920985 0
M  V30 137 O 13.4947 1.59005 0.843645 0
M  V30 138 H 9.8697 0.746519 0.0906278 0
M  V30 139 H 11.8407 2.94139 -0.50246 0
M  V30 140 C 10.5897 3.2457 1.24699 0
M  V30 141 H 9.9127 3.93283 0.718944 0
M  V30 142 H 11.3527 3.85963 1.75523 0
M  V30 143 C 9.8117 2.47237 2.28856 0
M  V30 144 O 10.3417 2.20808 3.35569 0
M  V30 145 N 8.5477 2.08461 2.02466 0
M  V30 146 H 8.0947 2.30155 1.157 0
M  V30 147 H 8.0527 1.57033 2.72375 0
M  V30 148 N 11.8248 0.280983 1.55075 0
M  V30 149 C 12.7348 -0.61388 2.26426 0
M  V30 150 C 13.7508 -1.16521 1.29224 0
M  V30 151 O 14.9268 -1.19426 1.62171 0
M  V30 152 C 11.9918 -1.7788 2.9759 0
M  V30 153 C 11.0528 -1.26355 4.10284 0
M  V30 154 C 10.2858 -2.37295 4.78045 0
M  V30 155 O 10.5088 -3.56777 4.45047 0
M  V30 156 O 9.4428 -2.05119 5.65871 0
M  V30 157 H 13.2688 -0.0356932 3.03679 0
M  V30 158 H 10.8538 0.0481686 1.49322 0
M  V30 159 H 12.7358 -2.45791 3.42293 0
M  V30 160 H 11.4108 -2.34397 2.23249 0
M  V30 161 H 10.3178 -0.550735 3.70024 0
M  V30 162 H 11.6508 -0.744065 4.86543 0
M  V30 163 N 13.3029 -1.57598 0.00835791 0
M  V30 164 C 14.2129 -2.12385 -0.996487 0
M  V30 165 C 15.2289 -1.07108 -1.37127 0
M  V30 166 O 16.4049 -1.39055 -1.4569 0
M  V30 167 C 13.4699 -2.62314 -2.26699 0
M  V30 168 C 12.5309 -3.82225 -1.95456 0
M  V30 169 C 11.7639 -4.29763 -3.16449 0
M  V30 170 O 11.9869 -3.76584 -4.28416 0
M  V30 171 O 10.9209 -5.21832 -2.99958 0
M  V30 172 H 14.7469 -2.98479 -0.560725 0
M  V30 173 H 12.3319 -1.47903 -0.210987 0
M  V30 174 H 14.2139 -2.94589 -3.01322 0
M  V30 175 H 12.8889 -1.79313 -2.69497 0
M  V30 176 H 11.7959 -3.54909 -1.18282 0
M  V30 177 H 13.1289 -4.66324 -1.57489 0
M  V30 178 N 14.781 0.264519 -1.55364 0
M  V30 179 C 16.197 0.61215 -1.47394 0
M  V30 180 C 16.397 1.89134 -0.695018 0
M  V30 181 O 15.453 2.51563 -0.217275 0
M  V30 182 C 16.766 0.731235 -2.91674 0
M  V30 183 C 18.314 0.82473 -3.01939 0
M  V30 184 C 18.789 0.975522 -4.4749 0
M  V30 185 N 20.28 1.04083 -4.51354 0
M  V30 186 C 21.015 1.17646 -5.61201 0
M  V30 187 N 20.511 1.27874 -6.80896 0
M  V30 188 N 22.304 1.20823 -5.48961 0
M  V30 189 H 14.455 -0.575456 -2.04456 0
M  V30 190 H 16.718 -0.196099 -0.927496 0
M  V30 191 H 16.424 -0.138392 -3.51428 0
M  V30 192 H 16.298 1.60883 -3.41169 0
M  V30 193 H 18.685 1.68482 -2.42276 0
M  V30 194 H 18.766 -0.0776479 -2.55682 0
M  V30 195 H 18.41 0.120058 -5.07758 0
M  V30 196 H 18.34 1.89268 -4.91412 0
M  V30 197 H 20.831 0.973846 -3.65136 0
M  V30 198 H 21.144 1.38081 -7.60364 0
M  V30 199 H 19.489 1.24863 -6.83692 0
M  V30 200 H 22.68 1.12469 -4.54388 0
M  V30 201 H 22.853 1.31049 -6.3461 0
M  V30 202 N 16.2591 1.48442 0.529413 0
M  V30 203 C 17.5071 1.56179 1.28267 0
M  V30 204 C 17.8281 0.237721 1.93546 0
M  V30 205 O 17.0981 -0.740779 1.81354 0
M  V30 206 H 15.6781 0.575367 0.476405 0
M  V30 207 H 18.3401 1.84909 0.61602 0
M  V30 208 H 17.4361 2.34312 2.06165 0
M  V30 209 N 17.7372 -0.778329 1.37039 0
M  V30 210 C 18.6672 -1.90546 1.34962 0
M  V30 211 C 19.6482 -1.68681 0.219274 0
M  V30 212 O 20.8332 -1.89634 0.418624 0
M  V30 213 C 17.9632 -3.27734 1.14925 0
M  V30 214 C 16.9172 -3.64147 2.24902 0
M  V30 215 C 16.2432 -4.99806 1.89996 0
M  V30 216 C 17.5432 -3.71579 3.67051 0
M  V30 217 H 19.2372 -1.92541 2.29277 0
M  V30 218 H 16.7832 -0.924948 1.10366 0
M  V30 219 H 18.7362 -4.06215 1.12104 0
M  V30 220 H 17.4602 -3.26154 0.170631 0
M  V30 221 H 16.1192 -2.8797 2.26868 0
M  V30 222 H 15.7672 -4.94759 0.906796 0
M  V30 223 H 15.4672 -5.25139 2.63634 0
M  V30 224 H 16.9912 -5.80694 1.88749 0
M  V30 225 H 18.4052 -4.40227 3.67251 0
M  V30 226 H 16.8022 -4.08405 4.39688 0
M  V30 227 H 17.8722 -2.72404 4.01154 0
M  V30 228 N 19.2153 -1.21501 -1.00376 0
M  V30 229 C 20.4613 -1.04457 -1.74529 0
M  V30 230 C 20.8163 0.417386 -1.87818 0
M  V30 231 O 20.1093 1.30556 -1.40234 0
M  V30 232 C 20.3033 -1.67673 -3.15627 0
M  V30 233 C 20.1323 -3.19865 -3.16096 0
M  V30 234 C 18.9023 -3.88915 -3.22604 0
M  V30 235 C 21.1003 -4.16936 -3.01112 0
M  V30 236 N 19.0823 -5.28284 -3.12712 0
M  V30 237 C 20.4533 -5.43066 -2.99131 0
M  V30 238 C 22.5083 -4.07968 -2.85423 0
M  V30 239 C 21.2113 -6.6126 -2.83068 0
M  V30 240 C 23.2373 -5.258 -2.70718 0
M  V30 241 C 22.5993 -6.50842 -2.69414 0
M  V30 242 H 18.6983 -0.436584 -0.648782 0
M  V30 243 H 21.2823 -1.53875 -1.19293 0
M  V30 244 H 19.4533 -1.20822 -3.6913 0
M  V30 245 H 21.1853 -1.43824 -3.78281 0
M  V30 246 H 17.9403 -3.39847 -3.2985 0
M  V30 247 H 18.3643 -6.01284 -3.11105 0
M  V30 248 H 23.0063 -3.1209 -2.85236 0
M  V30 249 H 20.7243 -7.57298 -2.82002 0
M  V30 250 H 24.3103 -5.20683 -2.59577 0
M  V30 251 H 23.1903 -7.40485 -2.5817 0
M  V30 252 N 20.6934 1.19889 -1.02296 0
M  V30 253 C 21.9334 1.91125 -0.724602 0
M  V30 254 C 22.2974 1.77464 0.732835 0
M  V30 255 O 23.4984 2.43241 1.144 0
M  V30 256 C 21.7694 3.38187 -1.15604 0
M  V30 257 S 23.3284 4.27702 -0.980621 0
M  V30 258 H 20.1464 0.66018 -0.263976 0
M  V30 259 H 22.7484 1.44978 -1.31155 0
M  V30 260 H 21.4524 3.45653 -2.21251 0
M  V30 261 H 20.9834 3.89363 -0.562131 0
M  V30 262 H 22.9984 4.96073 0.112225 0
M  V30 263 N 22.1715 0.800033 1.35784 0
M  V30 264 C 23.0815 0.207204 2.33683 0
M  V30 265 C 24.0975 -0.64631 1.61551 0
M  V30 266 O 25.2735 -0.559604 1.93469 0
M  V30 267 C 22.3385 -0.639659 3.40748 0
M  V30 268 C 21.3995 0.233585 4.28664 0
M  V30 269 C 20.6325 -0.572954 5.30616 0
M  V30 270 O 20.8555 -1.80816 5.40982 0
M  V30 271 O 19.7895 0.0327285 6.01891 0
M  V30 272 H 23.6155 1.01692 2.86169 0
M  V30 273 H 21.2005 0.561691 1.38439 0
M  V30 274 H 23.0825 -1.12223 4.06182 0
M  V30 275 H 21.7575 -1.42708 2.90544 0
M  V30 276 H 20.6645 0.763147 3.66233 0
M  V30 277 H 21.9975 0.984784 4.82248 0
M  V30 278 N 23.6496 -1.47581 0.552962 0
M  V30 279 C 24.5966 -2.29957 -0.197108 0
M  V30 280 C 25.5666 -1.38799 -0.912359 0
M  V30 281 O 26.7516 -1.67761 -0.908888 0
M  V30 282 C 23.8916 -3.22672 -1.22379 0
M  V30 283 C 23.0046 -4.28919 -0.515038 0
M  V30 284 C 22.1396 -5.0879 -1.52664 0
M  V30 285 C 21.1786 -6.06815 -0.802631 0
M  V30 286 N 20.3156 -6.7966 -1.76086 0
M  V30 287 H 25.1556 -2.93578 0.511486 0
M  V30 288 H 22.6926 -1.4471 0.264067 0
M  V30 289 H 24.6506 -3.74845 -1.83159 0
M  V30 290 H 23.2806 -2.60925 -1.90047 0
M  V30 291 H 22.3326 -3.79835 0.207192 0
M  V30 292 H 23.6446 -4.98773 0.0523425 0
M  V30 293 H 22.7986 -5.65091 -2.20809 0
M  V30 294 H 21.5376 -4.38828 -2.12794 0
M  V30 295 H 20.5426 -5.49695 -0.107238 0
M  V30 296 H 21.7676 -6.78784 -0.207135 0
M  V30 297 H 19.7136 -6.12432 -2.35081 0
M  V30 298 H 19.6306 -7.45669 -1.24552 0
M  V30 299 H 20.8986 -7.40538 -2.43359 0
M  V30 300 N 25.1277 -0.289203 -1.54924 0
M  V30 301 C 26.3757 0.322879 -1.99504 0
M  V30 302 C 26.6967 1.55313 -1.1791 0
M  V30 303 O 25.9667 1.94001 -0.272097 0
M  V30 304 H 24.5467 0.122291 -0.736922 0
M  V30 305 H 27.2087 -0.397802 -1.90797 0
M  V30 306 H 26.3047 0.603061 -3.06218 0
M  V30 307 N 26.6058 1.57591 -0.0167156 0
M  V30 308 C 27.8518 1.91567 0.665582 0
M  V30 309 C 28.1848 0.892298 1.72487 0
M  V30 310 O 27.4598 -0.0867127 1.94307 0
M  V30 311 C 27.7428 3.36069 1.29342 0
M  V30 312 C 27.5958 4.49135 0.244541 0
M  V30 313 C 28.9148 3.803 2.21495 0
M  V30 314 H 26.0338 0.69666 0.240488 0
M  V30 315 H 28.6758 1.89866 -0.0714356 0
M  V30 316 H 26.8258 3.3765 1.92158 0
M  V30 317 H 28.4978 4.59689 -0.385228 0
M  V30 318 H 26.7408 4.3165 -0.431379 0
M  V30 319 H 27.4118 5.47242 0.723207 0
M  V30 320 H 29.8878 3.80377 1.68678 0
M  V30 321 H 28.7638 4.82127 2.62382 0
M  V30 322 H 29.0248 3.15104 3.101 0
M  V30 323 N 28.0839 -0.256276 1.55502 0
M  V30 324 C 29.0159 -1.33981 1.85962 0
M  V30 325 C 30.0289 -1.44743 0.745212 0
M  V30 326 O 31.2179 -1.4626 1.02324 0
M  V30 327 C 28.3179 -2.7194 2.02242 0
M  V30 328 C 27.4909 -2.83562 3.33033 0
M  V30 329 C 26.5499 -4.02304 3.39172 0
M  V30 330 O 25.5759 -3.92273 4.12444 0
M  V30 331 N 26.7779 -5.15045 2.67784 0
M  V30 332 H 29.5429 -1.08191 2.7949 0
M  V30 333 H 27.1039 -0.446388 1.55624 0
M  V30 334 H 29.0959 -3.49697 2.03701 0
M  V30 335 H 27.6659 -2.90479 1.15502 0
M  V30 336 H 26.8859 -1.92555 3.43971 0
M  V30 337 H 28.1739 -2.88271 4.19258 0
M  V30 338 H 27.5719 -5.26085 2.07968 0
M  V30 339 H 26.1289 -5.90972 2.74947 0
M  V30 340 N 29.562 -1.4872 -0.521534 0
M  V30 341 C 30.808 -1.574 -1.27879 0
M  V30 342 C 31.141 -0.250817 -1.92573 0
M  V30 343 O 30.416 0.743934 -1.79711 0
M  V30 344 C 30.699 -2.71843 -2.36164 0
M  V30 345 C 30.552 -4.13893 -1.76105 0
M  V30 346 C 31.871 -2.82008 -3.37875 0
M  V30 347 H 28.99 -0.572941 -0.463581 0
M  V30 348 H 31.632 -1.80927 -0.580119 0
M  V30 349 H 29.782 -2.51914 -2.95756 0
M  V30 350 H 31.454 -4.45284 -1.20499 0
M  V30 351 H 29.697 -4.20498 -1.06601 0
M  V30 352 H 30.368 -4.89804 -2.5455 0
M  V30 353 H 32.844 -3.00086 -2.88249 0
M  V30 354 H 31.72 -3.63796 -4.11028 0
M  V30 355 H 31.981 -1.90511 -3.98946 0
M  V30 356 N 31.0401 0.771051 -1.3745 0
M  V30 357 C 31.9701 1.89827 -1.3597 0
M  V30 358 C 32.9511 1.68562 -0.228216 0
M  V30 359 O 34.1361 1.8941 -0.428675 0
M  V30 360 C 31.2661 3.2712 -1.16662 0
M  V30 361 C 30.2201 3.6295 -2.2683 0
M  V30 362 C 29.5461 4.98791 -1.92644 0
M  V30 363 C 30.8461 3.69627 -3.69017 0
M  V30 364 H 32.5401 1.91323 -2.30295 0
M  V30 365 H 30.0861 0.919082 -1.10855 0
M  V30 366 H 32.0391 4.05615 -1.14256 0
M  V30 367 H 30.7631 3.26059 -0.187926 0
M  V30 368 H 29.4221 2.86763 -2.28392 0
M  V30 369 H 29.0701 4.94271 -0.933021 0
M  V30 370 H 28.7701 5.23733 -2.66416 0
M  V30 371 H 30.2941 5.79685 -1.91826 0
M  V30 372 H 31.7081 4.38273 -3.69581 0
M  V30 373 H 30.1051 4.06067 -4.41848 0
M  V30 374 H 31.1751 2.70273 -4.02592 0
M  V30 375 N 32.5182 1.22032 0.997298 0
M  V30 376 C 33.4482 1.01065 2.10495 0
M  V30 377 C 34.4292 -0.0669542 1.69968 0
M  V30 378 O 35.6142 0.0943987 1.9397 0
M  V30 379 C 32.7442 0.582874 3.42374 0
M  V30 380 C 31.6982 1.60592 3.96729 0
M  V30 381 C 31.0242 1.03412 5.24605 0
M  V30 382 C 32.3242 2.99478 4.27914 0
M  V30 383 H 34.0182 1.93708 2.28292 0
M  V30 384 H 31.5642 0.932761 1.09707 0
M  V30 385 H 33.5172 0.423332 4.19268 0
M  V30 386 H 32.2412 -0.379213 3.24391 0
M  V30 387 H 30.9002 1.75316 3.21963 0
M  V30 388 H 30.5482 0.063518 5.0296 0
M  V30 389 H 30.2482 1.71754 5.61938 0
M  V30 390 H 31.7722 0.886066 6.04137 0
M  V30 391 H 33.1862 2.88153 4.95622 0
M  V30 392 H 31.5832 3.64903 4.76409 0
M  V30 393 H 32.6532 3.49742 3.3587 0
M  V30 394 N 33.9963 -1.19345 1.0293 0
M  V30 395 C 35.2243 -1.92997 0.745644 0
M  V30 396 C 35.6393 -1.75519 -0.695589 0
M  V30 397 O 34.9963 -1.07737 -1.47306 0
M  V30 398 C 35.0473 -3.44741 1.08792 0
M  V30 399 O 34.7683 -3.61658 2.47256 0
M  V30 400 C 36.2693 -4.35515 0.827129 0
M  V30 401 H 33.4893 -0.613042 0.272801 0
M  V30 402 H 36.0333 -1.51473 1.3739 0
M  V30 403 H 34.1883 -3.84097 0.504832 0
M  V30 404 H 34.6023 -4.55514 2.60015 0
M  V30 405 H 36.0763 -5.40589 1.11658 0
M  V30 406 H 36.5533 -4.38552 -0.238436 0
M  V30 407 H 37.1593 -4.01841 1.39297 0
M  V30 408 N 35.4744 -0.807222 -1.35358 0
M  V30 409 C 36.7024 -0.400377 -2.02989 0
M  V30 410 C 37.1174 0.988859 -1.60832 0
M  V30 411 O 36.4744 1.63729 -0.806175 0
M  V30 412 C 36.5254 -0.474867 -3.58368 0
M  V30 413 O 36.2464 -1.80933 -3.98992 0
M  V30 414 C 37.7474 -0.0609112 -4.43258 0
M  V30 415 H 34.9674 -0.162587 -0.651004 0
M  V30 416 H 37.5114 -1.09102 -1.72965 0
M  V30 417 H 35.6664 0.167534 -3.87038 0
M  V30 418 H 36.0804 -1.77256 -4.9364 0
M  V30 419 H 37.5544 -0.164145 -5.51756 0
M  V30 420 H 38.0314 0.993831 -4.27808 0
M  V30 421 H 38.6374 -0.676492 -4.19885 0
M  V30 422 N 36.9525 1.47285 -0.560781 0
M  V30 423 C 38.1985 2.02764 -0.0381184 0
M  V30 424 C 38.5315 1.43384 1.30976 0
M  V30 425 O 37.8065 0.590733 1.85312 0
M  V30 426 C 38.0895 3.60064 0.0511427 0
M  V30 427 C 37.9425 4.2987 -1.32408 0
M  V30 428 C 39.2615 4.33439 0.762795 0
M  V30 429 H 36.3805 0.736841 -0.0153264 0
M  V30 430 H 39.0225 1.75675 -0.723759 0
M  V30 431 H 37.1725 3.83274 0.635065 0
M  V30 432 H 38.8445 4.17989 -1.95148 0
M  V30 433 H 37.0875 3.90085 -1.8978 0
M  V30 434 H 37.7585 5.38478 -1.21431 0
M  V30 435 H 40.2345 4.15243 0.266965 0
M  V30 436 H 39.1105 5.43124 0.794221 0
M  V30 437 H 39.3715 4.02915 1.81966 0
M  V30 438 N 38.4306 0.297415 1.54768 0
M  V30 439 C 39.6786 -0.312295 1.99673 0
M  V30 440 C 39.9996 -1.54686 1.18732 0
M  V30 441 O 39.2696 -1.93854 0.282382 0
M  V30 442 H 37.8496 -0.118381 0.73756 0
M  V30 443 H 40.5116 0.407915 1.90583 0
M  V30 444 H 39.6076 -0.586813 3.06534 0
M  V30 445 N 39.9087 -1.5758 0.0250728 0
M  V30 446 C 40.8717 -2.08896 -0.943139 0
M  V30 447 C 41.8717 -1.00321 -1.25668 0
M  V30 448 O 43.0617 -1.26495 -1.19769 0
M  V30 449 C 40.1937 -2.55143 -2.26086 0
M  V30 450 H 41.3867 -2.95723 -0.498775 0
M  V30 451 H 38.9397 -1.54703 -0.222888 0
M  V30 452 H 39.6747 -1.71633 -2.75159 0
M  V30 453 H 39.4597 -3.34461 -2.04641 0
M  V30 454 H 40.9497 -2.95083 -2.95492 0
M  V30 455 N 41.3868 0.248026 -1.55636 0
M  V30 456 C 42.6338 0.976224 -1.77415 0
M  V30 457 C 42.9618 1.85361 -0.589193 0
M  V30 458 O 42.2168 1.90973 0.427529 0
M  V30 459 C 42.5158 1.86819 -3.04686 0
M  V30 460 C 42.1818 1.14625 -4.36087 0
M  V30 461 C 40.8438 0.946723 -4.71795 0
M  V30 462 C 43.1958 0.634463 -5.17324 0
M  V30 463 C 40.5238 0.223091 -5.86276 0
M  V30 464 C 42.8758 -0.0756959 -6.32555 0
M  V30 465 C 41.5398 -0.286711 -6.66884 0
M  V30 466 H 40.8098 0.357226 -0.649208 0
M  V30 467 H 43.4568 0.246415 -1.89908 0
M  V30 468 H 41.7618 2.66502 -2.872 0
M  V30 469 H 43.4588 2.43329 -3.18735 0
M  V30 470 H 40.0488 1.3117 -4.08035 0
M  V30 471 H 44.2328 0.77616 -4.90193 0
M  V30 472 H 39.4888 0.0491185 -6.1138 0
M  V30 473 H 43.6628 -0.479899 -6.94745 0
M  V30 474 H 41.2898 -0.849389 -7.5544 0
M  V30 475 N 42.8649 1.48995 0.513639 0
M  V30 476 C 43.8279 1.64229 1.59879 0
M  V30 477 C 44.8279 0.514696 1.5234 0
M  V30 478 O 46.0179 0.78087 1.55718 0
M  V30 479 C 43.1499 1.62783 2.99524 0
M  V30 480 H 44.3429 2.61004 1.47705 0
M  V30 481 H 41.8959 1.37837 0.736936 0
M  V30 482 H 42.6309 0.675461 3.17188 0
M  V30 483 H 42.4159 2.4466 3.06404 0
M  V30 484 H 43.9059 1.76669 3.78388 0
M  V30 485 N 44.343 -0.763751 1.37857 0
M  V30 486 C 45.306 -1.85889 1.34081 0
M  V30 487 C 46.306 -1.58949 0.243277 0
M  V30 488 O 47.496 -1.66882 0.499589 0
M  V30 489 C 44.628 -3.23176 1.08489 0
M  V30 490 H 45.821 -1.90648 2.31502 0
M  V30 491 H 43.374 -0.964367 1.23003 0
M  V30 492 H 44.109 -3.24091 0.116318 0
M  V30 493 H 43.894 -3.44124 1.8794 0
M  V30 494 H 45.384 -4.03254 1.08517 0
M  V30 495 N 45.8211 -1.22559 -0.990812 0
M  V30 496 C 47.0681 -1.05141 -1.73065 0
M  V30 497 C 47.3961 0.413191 -1.9006 0
M  V30 498 O 46.6511 1.32257 -1.44245 0
M  V30 499 C 46.9501 -1.71011 -3.13831 0
M  V30 500 C 46.6161 -3.20911 -3.16745 0
M  V30 501 C 45.2781 -3.61812 -3.17247 0
M  V30 502 C 47.6301 -4.16846 -3.12872 0
M  V30 503 C 44.9581 -4.97127 -3.1158 0
M  V30 504 C 47.3101 -5.5214 -3.08746 0
M  V30 505 C 45.9741 -5.92419 -3.07565 0
M  V30 506 H 45.2441 -0.384738 -0.633291 0
M  V30 507 H 47.8911 -1.5235 -1.16025 0
M  V30 508 H 46.1961 -1.16133 -3.74193 0
M  V30 509 H 47.8931 -1.55023 -3.69823 0
M  V30 510 H 44.4831 -2.88344 -3.17105 0
M  V30 511 H 48.6671 -3.86263 -3.11632 0
M  V30 512 H 43.9231 -5.27562 -3.09012 0
M  V30 513 H 48.0971 -6.26201 -3.04705 0
M  V30 514 H 45.7241 -6.97236 -3.02929 0
M  V30 515 N 47.2992 1.18797 -1.03562 0
M  V30 516 C 48.5472 1.88278 -0.734569 0
M  V30 517 C 48.8682 1.8043 0.739586 0
M  V30 518 O 48.1382 1.21925 1.53333 0
M  V30 519 H 46.7182 0.696991 -0.268725 0
M  V30 520 H 49.3802 1.44192 -1.31129 0
M  V30 521 H 48.4762 2.94443 -1.03489 0
M  V30 522 N 48.7773 0.814389 1.34928 0
M  V30 523 C 49.7073 0.244827 2.32213 0
M  V30 524 C 50.6883 -0.634024 1.57842 0
M  V30 525 O 51.8733 -0.562676 1.8587 0
M  V30 526 C 49.0033 -0.601106 3.42058 0
M  V30 527 C 47.9573 0.179896 4.27622 0
M  V30 528 C 47.2833 -0.788237 5.28858 0
M  V30 529 C 48.5833 1.38329 5.03649 0
M  V30 530 H 50.2773 1.05763 2.80097 0
M  V30 531 H 47.8233 0.510029 1.34665 0
M  V30 532 H 49.7763 -1.00968 4.09125 0
M  V30 533 H 48.5003 -1.44688 2.92802 0
M  V30 534 H 47.1593 0.569739 3.62146 0
M  V30 535 H 46.8073 -1.62973 4.75866 0
M  V30 536 H 46.5073 -0.269942 5.8698 0
M  V30 537 H 48.0313 -1.19485 5.98795 0
M  V30 538 H 49.4453 1.04918 5.63618 0
M  V30 539 H 47.8423 1.83662 5.71304 0
M  V30 540 H 48.9123 2.16592 4.33839 0
M  V30 541 N 50.2554 -1.46986 0.568584 0
M  V30 542 C 51.1884 -2.27129 -0.220779 0
M  V30 543 C 52.1664 -1.34757 -0.909905 0
M  V30 544 O 53.3504 -1.64152 -0.926622 0
M  V30 545 C 50.4774 -3.12108 -1.31553 0
M  V30 546 C 49.5234 -4.20141 -0.733748 0
M  V30 547 S 50.3564 -5.33783 0.428479 0
M  V30 548 C 51.5124 -6.22327 -0.667811 0
M  V30 549 H 51.7454 -2.93731 0.459267 0
M  V30 550 H 49.2784 -1.5026 0.355154 0
M  V30 551 H 51.2364 -3.61636 -1.94241 0
M  V30 552 H 49.8974 -2.44847 -1.96746 0
M  V30 553 H 49.0904 -4.79373 -1.5562 0
M  V30 554 H 48.6924 -3.73553 -0.182812 0
M  V30 555 H 50.9844 -6.59364 -1.55708 0
M  V30 556 H 51.9274 -7.0801 -0.11258 0
M  V30 557 H 52.3354 -5.5618 -0.965601 0
M  V30 558 N 51.7335 -0.305618 -1.54608 0
M  V30 559 C 52.9615 0.304775 -2.04643 0
M  V30 560 C 53.3765 1.47167 -1.18268 0
M  V30 561 O 52.7335 1.81296 -0.209328 0
M  V30 562 C 52.7845 0.756564 -3.53495 0
M  V30 563 O 52.5055 -0.36389 -4.36586 0
M  V30 564 C 54.0065 1.43163 -4.19546 0
M  V30 565 H 51.2265 0.0655481 -0.667791 0
M  V30 566 H 53.7705 -0.446592 -1.99564 0
M  V30 567 H 51.9255 1.45794 -3.58919 0
M  V30 568 H 52.3395 -0.0113121 -5.24499 0
M  V30 569 H 53.8135 1.69886 -5.25207 0
M  V30 570 H 54.2905 2.37318 -3.69563 0
M  V30 571 H 54.8965 0.773307 -4.18211 0
M  V30 572 N 53.2116 1.57565 -0.0334293 0
M  V30 573 C 54.4606 1.91155 0.643639 0
M  V30 574 C 54.7736 0.91192 1.73042 0
M  V30 575 O 55.9796 1.13923 2.46442 0
M  V30 576 C 54.4356 3.39443 1.1961 0
M  V30 577 C 54.0436 4.47774 0.142381 0
M  V30 578 C 55.7876 3.82094 1.84944 0
M  V30 579 C 53.6946 5.87162 0.706727 0
M  V30 580 H 52.6246 0.713368 0.244176 0
M  V30 581 H 55.2756 1.8323 -0.0994323 0
M  V30 582 H 53.6576 3.42313 1.99092 0
M  V30 583 H 54.8316 4.56469 -0.630296 0
M  V30 584 H 53.1466 4.14352 -0.412446 0
M  V30 585 H 55.7436 4.83591 2.2813 0
M  V30 586 H 56.0866 3.17386 2.69392 0
M  V30 587 H 56.6196 3.81665 1.12145 0
M  V30 588 H 53.3586 6.55424 -0.0997178 0
M  V30 589 H 52.8786 5.82064 1.44779 0
M  V30 590 H 54.5576 6.35866 1.19514 0
M  V30 591 N 54.6897 -0.239769 1.55765 0
M  V30 592 C 55.6527 -1.28038 1.90103 0
M  V30 593 C 56.6527 -1.40723 0.778055 0
M  V30 594 O 57.8427 -1.39301 1.04599 0
M  V30 595 C 54.9747 -2.65702 2.13577 0
M  V30 596 H 56.1677 -0.988048 2.83157 0
M  V30 597 H 53.7207 -0.479382 1.48767 0
M  V30 598 H 54.4557 -3.00063 1.23015 0
M  V30 599 H 54.2407 -2.57875 2.95369 0
M  V30 600 H 55.7307 -3.40828 2.41301 0
M  V30 601 N 56.1678 -1.49265 -0.50573 0
M  V30 602 C 57.4168 -1.57761 -1.25675 0
M  V30 603 C 57.7298 -0.267371 -1.93764 0
M  V30 604 O 58.9358 -0.230827 -2.70517 0
M  V30 605 C 57.3918 -2.78332 -2.28165 0
M  V30 606 C 56.9998 -4.16096 -1.66037 0
M  V30 607 C 58.7438 -2.96155 -3.04125 0
M  V30 608 C 56.6508 -5.27895 -2.6661 0
M  V30 609 H 55.5808 -0.587391 -0.472745 0
M  V30 610 H 58.2318 -1.75644 -0.53118 0
M  V30 611 H 56.6138 -2.53934 -3.03865 0
M  V30 612 H 57.7878 -4.50612 -0.963622 0
M  V30 613 H 56.1028 -4.03591 -1.02484 0
M  V30 614 H 58.6998 -3.76849 -3.79327 0
M  V30 615 H 59.0428 -2.06534 -3.61455 0
M  V30 616 H 59.5758 -3.2057 -2.35541 0
M  V30 617 H 56.3148 -6.1956 -2.14068 0
M  V30 618 H 55.8348 -4.97839 -3.34539 0
M  V30 619 H 57.5138 -5.57031 -3.29129 0
M  V30 620 N 57.6459 0.756429 -1.3826 0
M  V30 621 C 58.8709 1.55077 -1.37717 0
M  V30 622 C 59.2959 1.88073 0.03164 0
M  V30 623 O 58.6539 1.50364 1.01293 0
M  V30 624 C 58.7019 2.8283 -2.23695 0
M  V30 625 O 57.8059 3.77862 -1.6521 0
M  V30 626 H 57.1469 0.469152 -0.469885 0
M  V30 627 H 59.6769 0.935019 -1.81985 0
M  V30 628 H 59.6869 3.31783 -2.37453 0
M  V30 629 H 58.3619 2.58144 -3.2609 0
M  V30 630 H 56.9389 3.36555 -1.60578 0
M  V30 631 N 59.124 1.23083 0.984299 0
M  V30 632 C 60.352 1.08714 1.76037 0
M  V30 633 C 60.767 -0.361691 1.85303 0
M  V30 634 O 60.124 -1.25034 1.32939 0
M  V30 635 C 60.175 1.70206 3.18923 0
M  V30 636 O 59.896 3.09423 3.10144 0
M  V30 637 C 61.397 1.61227 4.12941 0
M  V30 638 H 58.617 0.380664 0.552572 0
M  V30 639 H 61.161 1.62853 1.23689 0
M  V30 640 H 59.316 1.20109 3.6831 0
M  V30 641 H 59.73 3.39188 4.00065 0
M  V30 642 H 61.204 2.08962 5.10919 0
M  V30 643 H 61.681 0.570375 4.35481 0
M  V30 644 H 62.287 2.10671 3.69456 0
M  V30 645 N 60.6021 -1.18246 1.0419 0
M  V30 646 C 61.8791 -1.84121 0.660208 0
M  V30 647 C 62.2591 -1.92778 -0.860221 0
M  V30 648 O 61.6071 -1.45464 -1.76217 0
M  V30 649 C 61.8171 -3.22355 1.33747 0
M  V30 650 C 63.1651 -3.98376 1.46906 0
M  V30 651 O 64.1891 -3.31799 1.29568 0
M  V30 652 O 63.0481 -5.17665 1.75171 0
M  V30 653 H 60.1421 -0.794036 0.231161 0
M  V30 654 H 62.6881 -1.25628 1.14087 0
M  V30 655 H 61.4601 -3.10964 2.37522 0
M  V30 656 H 61.0831 -3.88506 0.845515 0
M  V30 657 N 62.0802 -0.821533 -1.34494 0
M  V30 658 C 63.3102 -0.421272 -2.02259 0
M  V30 659 C 63.7182 0.977047 -1.6202 0
M  V30 660 O 63.0612 1.64348 -0.820703 0
M  V30 661 C 63.1232 -0.44231 -3.56769 0
M  V30 662 C 62.7872 -1.79372 -4.20327 0
M  V30 663 C 63.7842 -2.75435 -4.40944 0
M  V30 664 C 61.4692 -2.08182 -4.57127 0
M  V30 665 C 63.4632 -3.98482 -4.97484 0
M  V30 666 C 61.1502 -3.31489 -5.13379 0
M  V30 667 C 62.1482 -4.26457 -5.33501 0
M  V30 668 O 61.8362 -5.47585 -5.88562 0
M  V30 669 H 61.5682 -0.167473 -0.654927 0
M  V30 670 H 64.1222 -1.11073 -1.72777 0
M  V30 671 H 62.3522 0.303836 -3.85505 0
M  V30 672 H 64.0412 -0.0622925 -4.05852 0
M  V30 673 H 64.8072 -2.54473 -4.12878 0
M  V30 674 H 60.6862 -1.35066 -4.4077 0
M  V30 675 H 64.2302 -4.72618 -5.13106 0
M  V30 676 H 60.1272 -3.52316 -5.40873 0
M  V30 677 H 60.8952 -5.49086 -6.06998 0
M  V30 678 N 63.5583 1.46682 -0.576371 0
M  V30 679 C 64.8043 2.03287 -0.0679305 0
M  V30 680 C 65.1593 1.44063 1.27529 0
M  V30 681 O 64.4523 0.593973 1.82161 0
M  V30 682 C 64.6463 3.57345 0.062886 0
M  V30 683 C 64.4753 4.31509 -1.26611 0
M  V30 684 C 63.2453 4.70664 -1.83856 0
M  V30 685 C 65.4433 4.65444 -2.18783 0
M  V30 686 N 63.4253 5.29552 -3.10561 0
M  V30 687 C 64.7963 5.24835 -3.30072 0
M  V30 688 C 66.8513 4.47375 -2.18542 0
M  V30 689 C 65.5543 5.68063 -4.41244 0
M  V30 690 C 67.5803 4.91614 -3.28739 0
M  V30 691 C 66.9423 5.51071 -4.38748 0
M  V30 692 H 63.0413 0.779083 -0.0674836 0
M  V30 693 H 65.6253 1.78918 -0.767877 0
M  V30 694 H 63.7963 3.8144 0.731988 0
M  V30 695 H 65.5283 4.00592 0.575134 0
M  V30 696 H 62.2833 4.53224 -1.37424 0
M  V30 697 H 62.7073 5.63523 -3.75195 0
M  V30 698 H 67.3493 4.00747 -1.34765 0
M  V30 699 H 65.0673 6.13672 -5.25768 0
M  V30 700 H 68.6533 4.79389 -3.29662 0
M  V30 701 H 67.5333 5.84678 -5.22611 0
M  V30 702 N 65.0364 0.313813 1.54444 0
M  V30 703 C 65.9664 -0.549454 2.26943 0
M  V30 704 C 66.9474 -1.12741 1.27372 0
M  V30 705 O 68.1324 -1.15436 1.56167 0
M  V30 706 C 65.2624 -1.71523 3.01989 0
M  V30 707 C 64.2164 -1.26703 4.08816 0
M  V30 708 C 63.5424 -2.51898 4.71647 0
M  V30 709 C 64.8424 -0.388962 5.2085 0
M  V30 710 H 66.5364 0.0552661 2.99349 0
M  V30 711 H 64.0824 0.0280207 1.43973 0
M  V30 712 H 66.0354 -2.32535 3.51433 0
M  V30 713 H 64.7594 -2.34639 2.27183 0
M  V30 714 H 63.4184 -0.679896 3.6024 0
M  V30 715 H 63.0664 -3.13356 3.93468 0
M  V30 716 H 62.7664 -2.22605 5.43802 0
M  V30 717 H 64.2904 -3.1369 5.23861 0
M  V30 718 H 65.7044 -0.905107 5.6611 0
M  V30 719 H 64.1014 -0.18924 5.99802 0
M  V30 720 H 65.1714 0.582699 4.81386 0
M  V30 721 N 66.5145 -1.57545 0.0417849 0
M  V30 722 C 67.7445 -1.96339 -0.642995 0
M  V30 723 C 68.1525 -0.917536 -1.65463 0
M  V30 724 O 67.4955 0.107747 -1.83384 0
M  V30 725 C 67.5575 -3.31333 -1.39494 0
M  V30 726 C 67.2215 -4.53796 -0.540204 0
M  V30 727 C 68.2185 -5.19553 0.189806 0
M  V30 728 C 65.9035 -5.0006 -0.473886 0
M  V30 729 C 67.8975 -6.29904 0.974674 0
M  V30 730 C 65.5845 -6.10289 0.314677 0
M  V30 731 C 66.5825 -6.75072 1.03765 0
M  V30 732 O 66.2705 -7.83183 1.81327 0
M  V30 733 H 66.0025 -0.651241 -0.181277 0
M  V30 734 H 68.5565 -2.05148 0.101665 0
M  V30 735 H 66.7865 -3.19052 -2.18502 0
M  V30 736 H 68.4755 -3.54942 -1.96904 0
M  V30 737 H 69.2415 -4.84774 0.147981 0
M  V30 738 H 65.1205 -4.49433 -1.0262 0
M  V30 739 H 68.6645 -6.80401 1.5395 0
M  V30 740 H 64.5615 -6.44506 0.358174 0
M  V30 741 H 65.3295 -7.99913 1.73438 0
M  V30 742 N 67.9926 0.231505 -1.5589 0
M  V30 743 C 69.2206 0.974505 -1.82513 0
M  V30 744 C 69.6356 1.78344 -0.619591 0
M  V30 745 O 68.9926 1.77792 0.411848 0
M  V30 746 C 69.0436 1.90007 -3.07538 0
M  V30 747 O 68.7646 1.12385 -4.2344 0
M  V30 748 C 70.2656 2.75779 -3.47075 0
M  V30 749 H 67.4856 0.286065 -0.606966 0
M  V30 750 H 70.0296 0.249739 -2.02969 0
M  V30 751 H 68.1846 2.57891 -2.89086 0
M  V30 752 H 68.5986 1.75125 -4.944 0
M  V30 753 H 70.0726 3.36443 -4.37619 0
M  V30 754 H 70.5496 3.47672 -2.68367 0
M  V30 755 H 71.1556 2.13323 -3.67931 0
M  V30 756 N 69.4707 1.49531 0.497807 0
M  V30 757 C 70.8867 1.36365 0.829266 0
M  V30 758 C 71.0867 0.399184 1.97506 0
M  V30 759 O 70.1427 -0.167977 2.51941 0
M  V30 760 C 71.4557 2.77153 1.16647 0
M  V30 761 C 73.0037 2.85877 1.27449 0
M  V30 762 C 73.4787 4.2744 1.64497 0
M  V30 763 N 74.9697 4.30265 1.7154 0
M  V30 764 C 75.7047 5.3677 2.01656 0
M  V30 765 N 75.2007 6.53516 2.29976 0
M  V30 766 N 76.9937 5.24189 2.02934 0
M  V30 767 H 69.1447 2.10831 -0.257703 0
M  V30 768 H 71.4077 0.946534 -0.0527091 0
M  V30 769 H 71.1137 3.49442 0.397872 0
M  V30 770 H 70.9877 3.12722 2.10915 0
M  V30 771 H 73.3747 2.13824 2.0338 0
M  V30 772 H 73.4557 2.53887 0.312244 0
M  V30 773 H 73.0997 5.00021 0.891151 0
M  V30 774 H 73.0297 4.56896 2.61827 0
M  V30 775 H 75.5207 3.4607 1.51802 0
M  V30 776 H 75.8337 7.30506 2.52153 0
M  V30 777 H 74.1787 6.56737 2.27425 0
M  V30 778 H 77.3697 4.31988 1.80289 0
M  V30 779 H 77.5427 6.07286 2.26071 0
M  V30 780 N 70.9488 -0.749086 1.3866 0
M  V30 781 C 71.9118 -1.84457 1.36045 0
M  V30 782 C 72.9118 -1.58682 0.260122 0
M  V30 783 O 74.1018 -1.66343 0.517261 0
M  V30 784 C 71.2338 -3.22008 1.11911 0
M  V30 785 H 72.4268 -1.88182 2.33512 0
M  V30 786 H 69.9798 -0.951266 1.24019 0
M  V30 787 H 70.7148 -3.2395 0.150686 0
M  V30 788 H 70.4998 -3.42111 1.91579 0
M  V30 789 H 71.9898 -4.0208 1.12788 0
M  V30 790 N 72.4269 -1.23603 -0.977757 0
M  V30 791 C 73.3569 -1.04401 -2.0886 0
M  V30 792 C 74.3379 0.0399052 -1.70053 0
M  V30 793 O 75.5229 -0.125246 -1.93796 0
M  V30 794 C 72.6529 -0.637269 -3.41403 0
M  V30 795 C 71.6069 -1.66883 -3.94124 0
M  V30 796 C 70.9329 -1.11745 -5.22893 0
M  V30 797 C 72.2329 -3.06247 -4.23096 0
M  V30 798 H 73.9269 -1.97316 -2.25182 0
M  V30 799 H 71.4729 -0.950096 -1.08209 0
M  V30 800 H 73.4259 -0.48998 -4.18542 0
M  V30 801 H 72.1499 0.327557 -3.24953 0
M  V30 802 H 70.8089 -1.80416 -3.19133 0
M  V30 803 H 70.4569 -0.143527 -5.02795 0
M  V30 804 H 70.1569 -1.80672 -5.59134 0
M  V30 805 H 71.6809 -0.982067 -6.02651 0
M  V30 806 H 73.0949 -2.96001 -4.90975 0
M  V30 807 H 71.4919 -3.72436 -4.70544 0
M  V30 808 H 72.5619 -3.55041 -3.30263 0
M  V30 809 N 73.905 1.17692 -1.04816 0
M  V30 810 C 75.154 1.87192 -0.751132 0
M  V30 811 C 75.467 1.8169 0.724441 0
M  V30 812 O 76.673 2.46625 1.13527 0
M  V30 813 C 75.129 3.35857 -1.29338 0
M  V30 814 C 74.737 3.4987 -2.79812 0
M  V30 815 C 76.481 4.10709 -1.07322 0
M  V30 816 C 74.388 4.92536 -3.27356 0
M  V30 817 H 73.318 0.701162 -0.277288 0
M  V30 818 H 75.969 1.32932 -1.26496 0
M  V30 819 H 74.351 3.89631 -0.707376 0
M  V30 820 H 75.525 3.06332 -3.44235 0
M  V30 821 H 73.84 2.88433 -3.00325 0
M  V30 822 H 76.437 5.15952 -1.4035 0
M  V30 823 H 76.78 4.16299 -0.0108001 0
M  V30 824 H 77.313 3.6313 -1.62423 0
M  V30 825 H 74.052 4.92119 -4.33012 0
M  V30 826 H 73.572 5.3676 -2.67673 0
M  V30 827 H 75.251 5.61288 -3.21815 0
M  V30 828 N 75.3831 0.828654 1.34056 0
M  V30 829 C 76.6231 0.425394 1.99924 0
M  V30 830 C 76.9871 -0.994294 1.64249 0
M  V30 831 O 78.1881 -1.50074 2.23005 0
M  V30 832 C 76.4591 0.628071 3.51838 0
M  V30 833 S 78.0181 0.318511 4.37642 0
M  V30 834 H 74.8361 0.160465 0.692656 0
M  V30 835 H 77.4381 1.07572 1.63244 0
M  V30 836 H 76.1421 1.66089 3.7529 0
M  V30 837 H 75.6731 -0.0367799 3.93383 0
M  V30 838 H 77.6881 -0.865632 4.88591 0
M  V30 839 N 76.8612 -1.46375 0.584142 0
M  V30 840 C 77.8092 -2.32042 -0.161047 0
M  V30 841 C 78.8032 -1.44569 -0.882966 0
M  V30 842 O 80.0092 -1.61186 -0.801191 0
M  V30 843 H 76.3842 -0.748659 -0.0708033 0
M  V30 844 H 78.3552 -2.92704 0.580269 0
M  V30 845 C 77.1042 -3.27762 -1.1605 0
M  V30 846 H 76.4272 -3.95051 -0.614419 0
M  V30 847 H 77.8672 -3.90481 -1.65228 0
M  V30 848 C 76.3262 -2.53218 -2.22221 0
M  V30 849 O 76.8562 -2.29628 -3.29597 0
M  V30 850 N 75.0622 -2.13756 -1.96868 0
M  V30 851 H 74.6092 -2.33142 -1.09557 0
M  V30 852 H 74.5672 -1.642 -2.68115 0
M  V30 853 N 78.3393 -0.321999 -1.54275 0
M  V30 854 C 79.5673 0.283052 -2.04955 0
M  V30 855 C 79.9823 1.45904 -1.19823 0
M  V30 856 O 79.3393 1.81063 -0.228545 0
M  V30 857 C 79.3903 0.719028 -3.54277 0
M  V30 858 O 79.1113 -0.410175 -4.36176 0
M  V30 859 C 80.6123 1.38705 -4.21041 0
M  V30 860 H 77.8323 0.0584616 -0.668448 0
M  V30 861 H 80.3763 -0.467734 -1.99079 0
M  V30 862 H 78.5313 1.41979 -3.60445 0
M  V30 863 H 78.9453 -0.0669416 -5.24457 0
M  V30 864 H 80.4193 1.64306 -5.2698 0
M  V30 865 H 80.8963 2.33385 -3.72059 0
M  V30 866 H 81.5023 0.728906 -4.19007 0
M  V30 867 N 79.8174 1.5752 -0.0501392 0
M  V30 868 C 81.0454 1.96963 0.633492 0
M  V30 869 C 81.4604 0.927631 1.6444 0
M  V30 870 O 80.8174 -0.0882665 1.82286 0
M  V30 871 C 80.8684 3.36487 1.32132 0
M  V30 872 O 80.5894 4.36693 0.350894 0
M  V30 873 C 82.0904 3.90682 2.09481 0
M  V30 874 H 79.3104 0.648244 0.173266 0
M  V30 875 H 81.8544 2.0417 -0.116134 0
M  V30 876 H 80.0094 3.30434 2.02218 0
M  V30 877 H 80.4234 5.17702 0.841735 0
M  V30 878 H 81.8974 4.90591 2.5303 0
M  V30 879 H 82.3744 3.26053 2.94255 0
M  V30 880 H 82.9804 4.00069 1.44307 0
M  V30 881 N 81.2955 -0.223234 1.56011 0
M  V30 882 C 82.2435 -1.29627 1.93131 0
M  V30 883 C 83.2375 -1.48608 0.813146 0
M  V30 884 O 84.4435 -1.49802 0.997966 0
M  V30 885 H 80.8185 -0.434563 0.613726 0
M  V30 886 H 82.7895 -0.955995 2.82672 0
M  V30 887 C 81.5385 -2.63983 2.26292 0
M  V30 888 H 80.8615 -2.50185 3.11846 0
M  V30 889 H 82.3015 -3.3788 2.56151 0
M  V30 890 C 80.7605 -3.18866 1.08747 0
M  V30 891 O 81.2905 -4.00192 0.347727 0
M  V30 892 N 79.4965 -2.77217 0.871743 0
M  V30 893 H 79.0435 -2.1119 1.47501 0
M  V30 894 H 79.0015 -3.1428 0.0869905 0
M  V30 895 N 82.7736 -1.49793 -0.48987 0
M  V30 896 C 83.7036 -1.70201 -1.59856 0
M  V30 897 C 84.6846 -0.55076 -1.60937 0
M  V30 898 O 85.8696 -0.787841 -1.77501 0
M  V30 899 C 82.9996 -1.77882 -2.98287 0
M  V30 900 C 81.9536 -2.92907 -3.12073 0
M  V30 901 C 81.2796 -2.85712 -4.51965 0
M  V30 902 C 82.5796 -4.3369 -2.91051 0
M  V30 903 H 84.2736 -2.63025 -1.43032 0
M  V30 904 H 81.8196 -1.26574 -0.686664 0
M  V30 905 H 83.7726 -1.90744 -3.75759 0
M  V30 906 H 82.4966 -0.816653 -3.16225 0
M  V30 907 H 81.1556 -2.79665 -2.37029 0
M  V30 908 H 80.8036 -1.8738 -4.66795 0
M  V30 909 H 80.5036 -3.62921 -4.62128 0
M  V30 910 H 82.0276 -3.00598 -5.31482 0
M  V30 911 H 83.4416 -4.47555 -3.58284 0
M  V30 912 H 81.8386 -5.12205 -3.12675 0
M  V30 913 H 82.9086 -4.47362 -1.87071 0
M  V30 914 N 84.2517 0.741722 -1.39055 0
M  V30 915 C 85.4797 1.53098 -1.39171 0
M  V30 916 C 85.8947 1.88794 0.0155099 0
M  V30 917 O 85.2517 1.53626 0.985159 0
M  V30 918 C 85.3027 2.82274 -2.2584 0
M  V30 919 O 85.0237 2.48097 -3.61081 0
M  V30 920 C 86.5247 3.76343 -2.34266 0
M  V30 921 H 83.7447 0.473335 -0.4756 0
M  V30 922 H 86.2887 0.917045 -1.82785 0
M  V30 923 H 84.4437 3.40015 -1.85656 0
M  V30 924 H 84.8577 3.31029 -4.06842 0
M  V30 925 H 86.3317 4.63898 -2.9917 0
M  V30 926 H 86.8087 4.17619 -1.35982 0
M  V30 927 H 87.4147 3.24523 -2.74891 0
M  V30 928 N 85.7298 1.2412 0.971189 0
M  V30 929 C 86.6928 1.03156 2.04674 0
M  V30 930 C 87.6928 -0.00990322 1.60797 0
M  V30 931 O 88.8828 0.230729 1.72665 0
M  V30 932 C 86.0148 0.562765 3.36223 0
M  V30 933 H 87.2078 1.98614 2.24705 0
M  V30 934 H 84.7608 1.06293 1.14593 0
M  V30 935 H 85.4958 -0.395176 3.21883 0
M  V30 936 H 85.2808 1.31441 3.69413 0
M  V30 937 H 86.7708 0.437015 4.15307 0
M  V30 938 N 87.2079 -1.17134 1.05439 0
M  V30 939 C 88.4559 -1.87085 0.764429 0
M  V30 940 C 88.7769 -1.81584 -0.710787 0
M  V30 941 O 88.0469 -1.24349 -1.51374 0
M  V30 942 H 86.6269 -0.692627 0.279779 0
M  V30 943 H 89.2889 -1.42087 1.33406 0
M  V30 944 H 88.3849 -2.92759 1.0816 0
M  V30 945 N 88.686 -0.835752 -1.33615 0
M  V30 946 C 89.934 -0.429109 -1.97492 0
M  V30 947 C 90.255 1.01433 -1.66543 0
M  V30 948 O 89.525 1.70611 -0.962744 0
M  V30 949 H 88.105 -0.155686 -0.730596 0
M  V30 950 H 90.767 -1.06802 -1.63031 0
M  V30 951 H 89.863 -0.55861 -3.0706 0
M  V30 952 N 90.1641 1.46063 -0.591896 0
M  V30 953 C 91.4411 1.95595 -0.0137119 0
M  V30 954 C 91.8211 1.5345 1.4497 0
M  V30 955 O 91.1691 0.789543 2.14426 0
M  V30 956 C 91.3791 3.48453 -0.195373 0
M  V30 957 C 92.7271 4.24546 -0.0679765 0
M  V30 958 O 93.7511 3.55982 -0.124681 0
M  V30 959 O 92.6101 5.46467 0.0600579 0
M  V30 960 H 89.7041 0.825795 0.0446279 0
M  V30 961 H 92.2501 1.56303 -0.660859 0
M  V30 962 H 91.0221 3.72045 -1.21235 0
M  V30 963 H 90.6451 3.94597 0.487775 0
M  V30 964 N 91.6422 0.330177 1.54103 0
M  V30 965 C 92.9192 -0.325007 1.92881 0
M  V30 966 C 93.2992 -1.6934 1.26045 0
M  V30 967 O 92.6472 -2.24855 0.406526 0
M  V30 968 C 92.8572 -0.410634 3.46576 0
M  V30 969 C 94.2052 -0.667801 4.19316 0
M  V30 970 O 95.2292 -0.49329 3.52768 0
M  V30 971 O 94.0882 -1.00491 5.37181 0
M  V30 972 H 91.1822 -0.186873 0.80561 0
M  V30 973 H 93.7282 0.380376 1.65382 0
M  V30 974 H 92.5002 0.550164 3.87413 0
M  V30 975 H 92.1232 -1.16333 3.802 0
M  V30 976 N 93.1203 -1.57491 0.0584922 0
M  V30 977 C 94.3683 -1.92597 -0.612436 0
M  V30 978 C 94.6893 -0.938162 -1.70949 0
M  V30 979 O 93.9593 0.0158301 -1.95894 0
M  V30 980 H 92.5393 -0.710964 -0.229214 0
M  V30 981 H 95.2013 -1.94571 0.113218 0
M  V30 982 H 94.2973 -2.94038 -1.04633 0
M  V30 983 N 94.5984 0.214957 -1.56127 0
M  V30 984 C 95.8264 0.955092 -1.83536 0
M  V30 985 C 96.2414 1.77677 -0.638472 0
M  V30 986 O 95.5984 1.78219 0.392968 0
M  V30 987 C 95.6494 1.86734 -3.09536 0
M  V30 988 O 95.3704 1.07887 -4.24608 0
M  V30 989 C 96.8714 2.72082 -3.4998 0
M  V30 990 H 94.0914 0.279611 -0.609966 0
M  V30 991 H 96.6354 0.228197 -2.03223 0
M  V30 992 H 94.7904 2.5481 -2.91806 0
M  V30 993 H 95.2044 1.69872 -4.9623 0
M  V30 994 H 96.6784 3.31782 -4.41163 0
M  V30 995 H 97.1554 3.44806 -2.7204 0
M  V30 996 H 97.7614 2.09409 -3.70173 0
M  V30 997 N 96.0765 1.50051 0.48192 0
M  V30 998 C 97.4875 1.5348 1.06305 0
M  V30 999 C 97.8385 0.331997 1.93371 0
M  V30 1000 O 96.9635 -0.556256 2.09129 0
M  V30 1001 C 97.5585 2.7813 1.93466 0
M  V30 1002 C 96.1175 2.84275 2.46707 0
M  V30 1003 C 95.2645 2.47637 1.24785 0
M  V30 1004 H 98.2155 1.56472 0.264995 0
M  V30 1005 H 98.2365 2.59372 2.78399 0
M  V30 1006 H 97.7485 3.65654 1.30072 0
M  V30 1007 H 95.8495 2.01077 3.13686 0
M  V30 1008 H 95.9625 3.8691 2.82555 0
M  V30 1009 H 94.3265 1.99835 1.57918 0
M  V30 1010 H 95.1095 3.37457 0.630694 0
M  V30 1011 N 97.5546 -0.734337 1.39446 0
M  V30 1012 C 98.5046 -1.83949 1.34709 0
M  V30 1013 C 99.4886 -1.59279 0.227851 0
M  V30 1014 O 100.681 -1.70771 0.465438 0
M  V30 1015 C 97.8096 -3.21884 1.19356 0
M  V30 1016 C 96.8956 -3.52381 2.35984 0
M  V30 1017 N 97.2866 -3.53811 3.61457 0
M  V30 1018 C 95.5846 -3.82747 2.28956 0
M  V30 1019 C 96.2856 -3.82122 4.38586 0
M  V30 1020 N 95.2616 -3.9993 3.68181 0
M  V30 1021 H 99.0636 -1.83361 2.29687 0
M  V30 1022 H 96.5776 -0.932609 1.32952 0
M  V30 1023 H 98.5746 -4.00998 1.14046 0
M  V30 1024 H 97.2346 -3.23711 0.253295 0
M  V30 1025 H 98.2456 -3.35107 3.94872 0
M  V30 1026 H 94.9226 -3.92175 1.43194 0
M  V30 1027 H 96.3126 -3.89691 5.47349 0
M  V30 1028 N 99.0327 -1.24633 -0.964593 0
M  V30 1029 C 100.449 -1.01239 -1.2338 0
M  V30 1030 C 100.649 0.2769 -1.99588 0
M  V30 1031 O 99.7047 0.992241 -2.32187 0
M  V30 1032 C 101.018 -2.22937 -2.01791 0
M  V30 1033 C 102.566 -2.27594 -2.14872 0
M  V30 1034 C 103.041 -3.48921 -2.96678 0
M  V30 1035 N 104.532 -3.49257 -3.04259 0
M  V30 1036 C 105.267 -4.39795 -3.67924 0
M  V30 1037 N 104.763 -5.40591 -4.33281 0
M  V30 1038 N 106.556 -4.275 -3.64966 0
M  V30 1039 H 98.7067 -2.0748 -0.454502 0
M  V30 1040 H 100.97 -0.910647 -0.26349 0
M  V30 1041 H 100.676 -3.16587 -1.53184 0
M  V30 1042 H 100.55 -2.25306 -3.02518 0
M  V30 1043 H 102.937 -1.34473 -2.6268 0
M  V30 1044 H 103.018 -2.2925 -1.13482 0
M  V30 1045 H 102.662 -4.42359 -2.49562 0
M  V30 1046 H 102.592 -3.4451 -3.98272 0
M  V30 1047 H 105.083 -2.76337 -2.57771 0
M  V30 1048 H 105.396 -6.05904 -4.79687 0
M  V30 1049 H 103.741 -5.44475 -4.3194 0
M  V30 1050 H 106.932 -3.47987 -3.13086 0
M  V30 1051 H 107.105 -4.98258 -4.14298 0
M  V30 1052 N 100.511 1.16574 -1.06058 0
M  V30 1053 C 101.759 1.86677 -0.77434 0
M  V30 1054 C 102.08 1.81959 0.701147 0
M  V30 1055 O 101.35 1.2515 1.50713 0
M  V30 1056 H 99.9298 0.691134 -0.283449 0
M  V30 1057 H 102.592 1.41378 -1.34158 0
M  V30 1058 H 101.688 2.92181 -1.09711 0
M  V30 1059 N 101.989 0.842826 1.3317 0
M  V30 1060 C 103.237 0.439577 1.97262 0
M  V30 1061 C 103.558 -1.00548 1.67078 0
M  V30 1062 O 102.828 -1.70098 0.971779 0
M  V30 1063 H 101.408 0.159558 0.72976 0
M  V30 1064 H 104.07 1.07665 1.62463 0
M  V30 1065 H 103.166 0.574886 3.0676 0
M  V30 1066 N 103.467 -1.45747 0.599634 0
M  V30 1067 C 104.715 -2.01893 0.0915472 0
M  V30 1068 C 105.036 -1.47155 -1.27946 0
M  V30 1069 O 104.306 -0.66273 -1.84349 0
M  V30 1070 H 102.886 -0.746363 0.0308524 0
M  V30 1071 H 105.548 -1.78645 0.779237 0
M  V30 1072 H 104.644 -3.1208 0.0353086 0
M  V30 1073 N 104.945 -0.338344 -1.53925 0
M  V30 1074 C 106.193 0.259245 -2.0043 0
M  V30 1075 C 106.514 1.51484 -1.22791 0
M  V30 1076 O 105.784 1.93037 -0.33368 0
M  V30 1077 H 104.364 0.0987845 -0.740439 0
M  V30 1078 H 107.026 -0.458302 -1.89435 0
M  V30 1079 H 106.122 0.505334 -3.07982 0
M  V30 1080 N 106.423 1.57458 -0.0668435 0
M  V30 1081 C 107.386 2.11323 0.887422 0
M  V30 1082 C 108.386 1.03618 1.22964 0
M  V30 1083 O 109.576 1.29626 1.16373 0
M  V30 1084 C 106.708 2.61048 2.19242 0
M  V30 1085 H 107.901 2.96942 0.420194 0
M  V30 1086 H 105.454 1.55239 0.181793 0
M  V30 1087 H 106.189 1.78868 2.70512 0
M  V30 1088 H 105.974 3.39769 1.95702 0
M  V30 1089 H 107.464 3.02814 2.87565 0
M  V30 1090 N 107.901 -0.206675 1.56239 0
M  V30 1091 C 109.126 -0.949474 1.8439 0
M  V30 1092 C 109.551 -1.76549 0.649016 0
M  V30 1093 O 108.909 -1.76782 -0.402231 0
M  V30 1094 C 108.957 -1.83078 3.10668 0
M  V30 1095 O 108.061 -2.9281 2.90407 0
M  V30 1096 H 107.402 -0.268033 0.607499 0
M  V30 1097 H 109.932 -0.215488 2.03462 0
M  V30 1098 H 109.942 -2.2377 3.41161 0
M  V30 1099 H 108.617 -1.23112 3.97261 0
M  V30 1100 H 107.194 -2.55956 2.71184 0
M  V30 1101 N 109.379 -1.50304 -0.473955 0
M  V30 1102 C 110.289 -1.7174 -1.5982 0
M  V30 1103 C 111.305 -0.600457 -1.63311 0
M  V30 1104 O 112.481 -0.878441 -1.81233 0
M  V30 1105 C 109.546 -1.80427 -2.96052 0
M  V30 1106 C 108.607 -3.04148 -3.02972 0
M  V30 1107 C 107.84 -3.12411 -4.32706 0
M  V30 1108 O 108.063 -2.27542 -5.23049 0
M  V30 1109 O 106.997 -4.05113 -4.45159 0
M  V30 1110 H 110.823 -2.67035 -1.44657 0
M  V30 1111 H 108.408 -1.34366 -0.653148 0
M  V30 1112 H 110.29 -1.88338 -3.7697 0
M  V30 1113 H 108.965 -0.883156 -3.11419 0
M  V30 1114 H 107.872 -3.0174 -2.21142 0
M  V30 1115 H 109.205 -3.95829 -2.92541 0
M  V30 1116 N 110.857 0.726932 -1.39834 0
M  V30 1117 C 111.804 1.841 -1.39197 0
M  V30 1118 C 112.774 1.642 -0.250502 0
M  V30 1119 O 113.959 1.85494 -0.446846 0
M  V30 1120 C 111.099 3.21697 -1.24919 0
M  V30 1121 C 110.212 3.53247 -2.48678 0
M  V30 1122 C 109.347 4.80289 -2.26928 0
M  V30 1123 C 108.386 5.04707 -3.4632 0
M  V30 1124 N 107.523 6.22956 -3.23836 0
M  V30 1125 H 112.363 1.83979 -2.34427 0
M  V30 1126 H 109.9 0.898876 -1.16442 0
M  V30 1127 H 111.858 4.01137 -1.1465 0
M  V30 1128 H 110.488 3.21076 -0.333153 0
M  V30 1129 H 109.54 2.68447 -2.69519 0
M  V30 1130 H 110.852 3.67205 -3.37582 0
M  V30 1131 H 110.006 5.67725 -2.13947 0
M  V30 1132 H 108.745 4.68519 -1.35431 0
M  V30 1133 H 107.75 4.1573 -3.5979 0
M  V30 1134 H 108.975 5.18357 -4.38729 0
M  V30 1135 H 106.921 6.12459 -2.35011 0
M  V30 1136 H 106.838 6.37539 -4.063 0
M  V30 1137 H 108.106 7.1321 -3.14566 0
M  V30 1138 N 112.336 1.25143 0.95797 0
M  V30 1139 C 113.283 1.05235 2.05412 0
M  V30 1140 C 114.253 -0.0374561 1.66058 0
M  V30 1141 O 115.438 0.119073 1.90428 0
M  V30 1142 C 112.578 0.673589 3.38462 0
M  V30 1143 C 111.691 1.8379 3.90954 0
M  V30 1144 C 110.826 1.40381 5.12315 0
M  V30 1145 C 109.865 2.53746 5.57027 0
M  V30 1146 N 109.002 2.11136 6.69601 0
M  V30 1147 H 113.842 1.99048 2.21774 0
M  V30 1148 H 111.379 0.991277 1.08683 0
M  V30 1149 H 113.337 0.434964 4.14926 0
M  V30 1150 H 111.967 -0.227554 3.21997 0
M  V30 1151 H 111.019 2.18992 3.11041 0
M  V30 1152 H 112.331 2.68937 4.20089 0
M  V30 1153 H 111.485 1.12464 5.96185 0
M  V30 1154 H 110.224 0.523015 4.84887 0
M  V30 1155 H 109.229 2.82412 4.71724 0
M  V30 1156 H 110.454 3.42398 5.86464 0
M  V30 1157 H 108.4 1.25468 6.4389 0
M  V30 1158 H 108.317 2.89832 6.98236 0
M  V30 1159 H 109.585 1.86385 7.56889 0
M  V30 1160 N 113.814 -1.1601 1.06675 0
M  V30 1161 C 115.091 -1.82679 0.699114 0
M  V30 1162 C 115.471 -1.94559 -0.819137 0
M  V30 1163 O 114.819 -1.49169 -1.73092 0
M  V30 1164 C 115.029 -3.19445 1.40555 0
M  V30 1165 C 116.377 -3.95171 1.55323 0
M  V30 1166 O 117.401 -3.28976 1.36577 0
M  V30 1167 O 116.26 -5.13833 1.86112 0
M  V30 1168 H 113.354 -0.788954 0.247951 0
M  V30 1169 H 115.9 -1.23179 1.16726 0
M  V30 1170 H 114.672 -3.05856 2.44065 0
M  V30 1171 H 114.295 -3.86625 0.927733 0
M  V30 1172 N 115.292 -0.849877 -1.32721 0
M  V30 1173 C 116.703 -0.506188 -1.79707 0
M  V30 1174 C 117.054 0.975627 -1.70223 0
M  V30 1175 O 116.179 1.76078 -1.25799 0
M  V30 1176 C 116.774 -0.912044 -3.26293 0
M  V30 1177 C 115.333 -0.620326 -3.71253 0
M  V30 1178 C 114.48 -1.11439 -2.53922 0
M  V30 1179 H 117.431 -1.03754 -1.20087 0
M  V30 1180 H 117.452 -0.226493 -3.79825 0
M  V30 1181 H 116.964 -1.99057 -3.33164 0
M  V30 1182 H 115.065 0.447674 -3.69901 0
M  V30 1183 H 115.178 -1.18327 -4.64258 0
M  V30 1184 H 113.542 -0.534834 -2.49021 0
M  V30 1185 H 114.325 -2.19992 -2.6355 0
M  V30 1186 N 116.77 1.45427 -0.607355 0
M  V30 1187 C 118.018 2.01841 -0.102253 0
M  V30 1188 C 118.339 1.47832 1.27164 0
M  V30 1189 O 117.609 0.672497 1.83995 0
M  V30 1190 H 116.189 0.746188 -0.0348101 0
M  V30 1191 H 118.851 1.78229 -0.7887 0
M  V30 1192 H 117.947 3.12057 -0.0518585 0
M  V30 1193 N 118.248 0.346503 1.53744 0
M  V30 1194 C 119.496 -0.248612 2.00565 0
M  V30 1195 C 119.817 -1.5083 1.23593 0
M  V30 1196 O 119.087 -1.92858 0.343912 0
M  V30 1197 H 117.667 -0.0948564 0.740953 0
M  V30 1198 H 120.329 0.468341 1.89189 0
M  V30 1199 H 119.425 -0.488994 3.08245 0
M  V30 1200 N 119.726 -1.57421 0.075193 0
M  V30 1201 C 120.656 -2.15942 -0.888324 0
M  V30 1202 C 121.637 -1.08737 -1.30806 0
M  V30 1203 O 122.822 -1.36787 -1.37851 0
M  V30 1204 C 119.952 -2.72379 -2.1547 0
M  V30 1205 C 118.906 -3.8478 -1.87425 0
M  V30 1206 C 118.232 -4.27834 -3.20721 0
M  V30 1207 C 119.532 -5.08869 -1.17684 0
M  V30 1208 H 121.226 -2.96705 -0.400799 0
M  V30 1209 H 118.772 -1.42723 -0.191342 0
M  V30 1210 H 120.725 -3.11965 -2.83295 0
M  V30 1211 H 119.449 -1.88841 -2.6647 0
M  V30 1212 H 118.108 -3.45703 -1.22004 0
M  V30 1213 H 117.756 -3.41214 -3.6957 0
M  V30 1214 H 117.456 -5.03605 -3.02746 0
M  V30 1215 H 118.98 -4.70039 -3.89738 0
M  V30 1216 H 120.394 -5.4575 -1.75584 0
M  V30 1217 H 118.791 -5.8994 -1.09956 0
M  V30 1218 H 119.861 -4.84648 -0.156453 0
M  V30 1219 N 121.204 0.198386 -1.56346 0
M  V30 1220 C 122.432 0.935572 -1.84539 0
M  V30 1221 C 122.847 1.76989 -0.657281 0
M  V30 1222 O 122.204 1.78626 0.374043 0
M  V30 1223 C 122.255 1.8344 -3.11499 0
M  V30 1224 O 121.976 1.03377 -4.25728 0
M  V30 1225 C 123.477 2.68355 -3.52846 0
M  V30 1226 H 120.697 0.273126 -0.612897 0
M  V30 1227 H 123.241 0.20663 -2.03453 0
M  V30 1228 H 121.396 2.51701 -2.94492 0
M  V30 1229 H 121.81 1.64599 -4.98003 0
M  V30 1230 H 123.284 3.27085 -4.44657 0
M  V30 1231 H 123.761 3.41901 -2.75681 0
M  V30 1232 H 124.367 2.05471 -3.72373 0
M  V30 1233 N 122.682 1.50554 0.465978 0
M  V30 1234 C 123.632 1.66177 1.56106 0
M  V30 1235 C 124.616 0.516265 1.52393 0
M  V30 1236 O 125.808 0.770906 1.5933 0
M  V30 1237 C 122.937 1.76396 2.94515 0
M  V30 1238 C 122.023 2.9664 3.03093 0
M  V30 1239 N 122.414 4.20245 2.81474 0
M  V30 1240 C 120.712 2.95304 3.34233 0
M  V30 1241 C 121.413 5.01259 2.95151 0
M  V30 1242 N 120.389 4.35318 3.25576 0
M  V30 1243 H 124.191 2.59434 1.38099 0
M  V30 1244 H 121.705 1.47808 0.6728 0
M  V30 1245 H 123.702 1.85694 3.73261 0
M  V30 1246 H 122.362 0.843017 3.13565 0
M  V30 1247 H 123.373 4.4966 2.56956 0
M  V30 1248 H 120.05 2.12729 3.59239 0
M  V30 1249 H 121.44 6.09564 2.82632 0
M  V30 1250 N 124.16 -0.719506 1.40217 0
M  V30 1251 C 125.385 -1.51371 1.4178 0
M  V30 1252 C 125.81 -1.88091 0.0182355 0
M  V30 1253 O 125.168 -1.52997 -0.972707 0
M  V30 1254 C 125.216 -2.768 2.31115 0
M  V30 1255 O 124.32 -3.73349 1.7517 0
M  V30 1256 H 123.661 -0.456529 0.482159 0
M  V30 1257 H 126.191 -0.88644 1.844 0
M  V30 1258 H 126.201 -3.25371 2.46167 0
M  V30 1259 H 124.876 -2.49407 3.3282 0
M  V30 1260 H 123.453 -3.32179 1.69444 0
M  V30 1261 N 125.638 -1.25649 -0.95132 0
M  V30 1262 C 126.886 -1.10375 -1.69298 0
M  V30 1263 C 127.207 0.355339 -1.91735 0
M  V30 1264 O 126.477 1.25188 -1.50681 0
M  V30 1265 H 125.057 -0.405461 -0.627384 0
M  V30 1266 H 127.719 -1.57823 -1.14358 0
M  V30 1267 H 126.815 -1.61465 -2.67087 0
M  V30 1268 N 127.117 1.15442 -1.07289 0
M  V30 1269 C 128.047 2.22312 -0.714107 0
M  V30 1270 C 129.028 1.67467 0.298155 0
M  V30 1271 O 130.213 1.93445 0.171048 0
M  V30 1272 C 127.343 3.47124 -0.110448 0
M  V30 1273 C 126.297 4.14926 -1.04979 0
M  V30 1274 C 125.623 5.33807 -0.308924 0
M  V30 1275 C 126.923 4.64762 -2.38314 0
M  V30 1276 H 128.617 2.5258 -1.6076 0
M  V30 1277 H 126.163 1.21404 -0.77441 0
M  V30 1278 H 128.116 4.21124 0.152482 0
M  V30 1279 H 126.84 3.16187 0.81812 0
M  V30 1280 H 125.499 3.42866 -1.29764 0
M  V30 1281 H 125.147 4.99126 0.623084 0
M  V30 1282 H 124.847 5.80113 -0.935036 0
M  V30 1283 H 126.371 6.10576 -0.0537771 0
M  V30 1284 H 127.785 5.30292 -2.1786 0
M  V30 1285 H 126.182 5.21728 -2.96514 0
M  V30 1286 H 127.252 3.80434 -3.00663 0
M  V30 1287 N 128.595 0.856903 1.32268 0
M  V30 1288 C 129.841 0.471355 1.97863 0
M  V30 1289 C 130.196 -0.962896 1.66572 0
M  V30 1290 O 129.489 -1.66686 0.944797 0
M  V30 1291 C 129.683 0.649919 3.51441 0
M  V30 1292 C 129.512 2.09997 3.97657 0
M  V30 1293 C 128.282 2.73893 4.2463 0
M  V30 1294 C 130.48 3.07081 4.1256 0
M  V30 1295 N 128.462 4.09786 4.57109 0
M  V30 1296 C 129.833 4.27968 4.48602 0
M  V30 1297 C 131.888 3.03247 3.949 0
M  V30 1298 C 130.591 5.45521 4.68827 0
M  V30 1299 C 132.617 4.20046 4.16311 0
M  V30 1300 C 131.979 5.39692 4.52672 0
M  V30 1301 H 128.078 0.221263 0.750044 0
M  V30 1302 H 130.662 1.10876 1.60045 0
M  V30 1303 H 128.833 0.0421938 3.88377 0
M  V30 1304 H 130.565 0.234044 4.04023 0
M  V30 1305 H 127.32 2.24918 4.16784 0
M  V30 1306 H 127.744 4.7989 4.7753 0
M  V30 1307 H 132.386 2.11863 3.65888 0
M  V30 1308 H 130.104 6.37434 4.96693 0
M  V30 1309 H 133.69 4.18517 4.04147 0
M  V30 1310 H 132.57 6.28566 4.68907 0
M  V30 1311 N 130.073 -1.45103 0.615059 0
M  V30 1312 C 131.489 -1.57137 0.279322 0
M  V30 1313 C 131.689 -1.60523 -1.21797 0
M  V30 1314 O 130.745 -1.53956 -2.00134 0
M  V30 1315 C 132.058 -2.85062 0.957083 0
M  V30 1316 C 133.606 -2.98749 0.933706 0
M  V30 1317 C 134.081 -4.29455 1.59162 0
M  V30 1318 N 135.572 -4.36231 1.55746 0
M  V30 1319 C 136.307 -5.36051 2.0356 0
M  V30 1320 N 135.803 -6.42367 2.59494 0
M  V30 1321 N 137.596 -5.27456 1.94284 0
M  V30 1322 H 129.747 -1.41148 1.58717 0
M  V30 1323 H 132.01 -0.675331 0.665306 0
M  V30 1324 H 131.716 -2.88488 2.01166 0
M  V30 1325 H 131.59 -3.7407 0.48494 0
M  V30 1326 H 133.977 -2.94886 -0.112347 0
M  V30 1327 H 134.058 -2.11132 1.44419 0
M  V30 1328 H 133.702 -4.34077 2.63704 0
M  V30 1329 H 133.632 -5.15901 1.0561 0
M  V30 1330 H 136.123 -3.60011 1.14893 0
M  V30 1331 H 136.436 -7.14793 2.93752 0
M  V30 1332 H 134.781 -6.43097 2.63537 0
M  V30 1333 H 137.972 -4.43308 1.5032 0
M  V30 1334 H 138.145 -6.05099 2.3186 0
M  V30 1335 N 131.551 -0.354651 -1.53558 0
M  V30 1336 C 132.8 0.239504 -2.00273 0
M  V30 1337 C 133.113 1.50759 -1.24623 0
M  V30 1338 O 134.319 2.17968 -1.61871 0
M  V30 1339 C 132.775 0.477341 -3.5672 0
M  V30 1340 C 132.383 -0.775488 -4.41237 0
M  V30 1341 C 134.127 1.02975 -4.11821 0
M  V30 1342 C 132.034 -0.507838 -5.89216 0
M  V30 1343 H 130.964 0.0932743 -0.748208 0
M  V30 1344 H 133.615 -0.471701 -1.77334 0
M  V30 1345 H 131.997 1.24953 -3.7577 0
M  V30 1346 H 133.171 -1.54963 -4.33962 0
M  V30 1347 H 131.486 -1.25033 -3.97185 0
M  V30 1348 H 134.083 1.24513 -5.2 0
M  V30 1349 H 134.426 1.98862 -3.65731 0
M  V30 1350 H 134.959 0.317994 -3.96527 0
M  V30 1351 H 131.698 -1.43674 -6.39561 0
M  V30 1352 H 131.218 0.228011 -5.99366 0
M  V30 1353 H 132.897 -0.129238 -6.46871 0
M  V30 1354 N 133.029 1.57378 -0.0835403 0
M  V30 1355 C 134.269 1.95808 0.586381 0
M  V30 1356 C 134.633 0.963706 1.66062 0
M  V30 1357 O 135.834 1.23608 2.38693 0
M  V30 1358 C 134.105 3.38808 1.13771 0
M  V30 1359 S 135.664 3.99225 1.82112 0
M  V30 1360 H 132.482 0.684675 0.191679 0
M  V30 1361 H 135.084 1.94843 -0.160194 0
M  V30 1362 H 133.788 4.08954 0.344197 0
M  V30 1363 H 133.319 3.43344 1.92038 0
M  V30 1364 H 135.334 3.87087 3.10449 0
M  V30 1365 N 134.507 -0.190092 1.56449 0
M  V30 1366 C 135.747 -0.916414 1.82705 0
M  V30 1367 C 136.111 -1.80235 0.661763 0
M  V30 1368 O 137.312 -2.56484 0.80433 0
M  V30 1369 C 135.583 -1.70691 3.14005 0
M  V30 1370 S 137.142 -2.48457 3.61683 0
M  V30 1371 H 133.96 -0.307281 0.64117 0
M  V30 1372 H 136.562 -0.179433 1.94675 0
M  V30 1373 H 135.266 -1.04677 3.96826 0
M  V30 1374 H 134.797 -2.48562 3.04927 0
M  V30 1375 H 136.812 -3.72756 3.27517 0
M  V30 1376 N 135.985 -1.50799 -0.457987 0
M  V30 1377 C 136.915 -1.73553 -1.5621 0
M  V30 1378 C 137.896 -0.584774 -1.59732 0
M  V30 1379 O 139.081 -0.825314 -1.7579 0
M  V30 1380 C 136.211 -1.84169 -2.94447 0
M  V30 1381 C 135.165 -2.99461 -3.0579 0
M  V30 1382 C 134.491 -2.95235 -4.45803 0
M  V30 1383 C 135.791 -4.39766 -2.81786 0
M  V30 1384 H 137.485 -2.66 -1.37421 0
M  V30 1385 H 135.031 -1.28002 -0.659662 0
M  V30 1386 H 136.984 -1.98672 -3.71628 0
M  V30 1387 H 135.708 -0.883545 -3.14422 0
M  V30 1388 H 134.367 -2.8463 -2.31044 0
M  V30 1389 H 134.015 -1.97239 -4.62715 0
M  V30 1390 H 133.715 -3.72642 -4.54326 0
M  V30 1391 H 135.239 -3.11803 -5.24987 0
M  V30 1392 H 136.653 -4.55054 -3.4871 0
M  V30 1393 H 135.05 -5.18722 -3.0174 0
M  V30 1394 H 136.12 -4.51229 -1.7754 0
M  V30 1395 N 137.463 0.71206 -1.40597 0
M  V30 1396 C 138.373 1.8562 -1.43466 0
M  V30 1397 C 139.389 1.70902 -0.326902 0
M  V30 1398 O 140.565 1.93105 -0.572043 0
M  V30 1399 C 137.63 3.21451 -1.29884 0
M  V30 1400 C 136.691 3.48398 -2.50833 0
M  V30 1401 C 135.924 4.77749 -2.3789 0
M  V30 1402 O 136.147 5.53089 -1.39459 0
M  V30 1403 O 135.081 5.05111 -3.27333 0
M  V30 1404 H 138.907 1.86155 -2.39958 0
M  V30 1405 H 136.492 0.86295 -1.21957 0
M  V30 1406 H 138.374 4.02579 -1.24531 0
M  V30 1407 H 137.049 3.21636 -0.364997 0
M  V30 1408 H 135.956 2.67265 -2.61763 0
M  V30 1409 H 137.289 3.53014 -3.4299 0
M  V30 1410 N 138.941 1.26152 0.944643 0
M  V30 1411 C 140.189 1.11271 1.6871 0
M  V30 1412 C 140.51 -0.345166 1.91921 0
M  V30 1413 O 139.78 -1.24387 1.51343 0
M  V30 1414 H 138.36 0.408783 0.625224 0
M  V30 1415 H 141.022 1.58427 1.1352 0
M  V30 1416 H 140.118 1.62879 2.66227 0
M  V30 1417 N 140.419 -1.14872 1.07899 0
M  V30 1418 C 141.349 -2.2193 0.725887 0
M  V30 1419 C 142.33 -1.67622 -0.28927 0
M  V30 1420 O 143.515 -1.93533 -0.160787 0
M  V30 1421 C 140.645 -3.47061 0.128856 0
M  V30 1422 C 139.599 -4.14363 1.07178 0
M  V30 1423 C 138.925 -5.33636 0.337229 0
M  V30 1424 C 140.225 -4.63492 2.40775 0
M  V30 1425 H 141.919 -2.51724 1.62097 0
M  V30 1426 H 139.465 -1.20991 0.780838 0
M  V30 1427 H 141.418 -4.21199 -0.130147 0
M  V30 1428 H 140.142 -3.16617 -0.80134 0
M  V30 1429 H 138.801 -3.42173 1.3158 0
M  V30 1430 H 138.449 -4.99449 -0.596606 0
M  V30 1431 H 138.149 -5.79609 0.965788 0
M  V30 1432 H 139.673 -6.10539 0.0861567 0
M  V30 1433 H 141.087 -5.2913 2.20669 0
M  V30 1434 H 139.484 -5.20148 2.99276 0
M  V30 1435 H 140.554 -3.78834 3.02676 0
M  V30 1436 N 141.898 -0.863906 -1.31812 0
M  V30 1437 C 142.845 -0.313303 -2.28664 0
M  V30 1438 C 143.815 0.584868 -1.55462 0
M  V30 1439 O 145 0.517805 -1.83639 0
M  V30 1440 C 142.14 0.48441 -3.41683 0
M  V30 1441 C 141.253 -0.440594 -4.29747 0
M  V30 1442 C 140.388 0.370652 -5.29905 0
M  V30 1443 C 139.427 -0.551164 -6.09613 0
M  V30 1444 N 138.564 0.223462 -7.01744 0
M  V30 1445 H 143.404 -1.14444 -2.75148 0
M  V30 1446 H 140.941 -0.575769 -1.35364 0
M  V30 1447 H 142.899 0.962627 -4.05943 0
M  V30 1448 H 141.529 1.28029 -2.96325 0
M  V30 1449 H 140.581 -1.03724 -3.65986 0
M  V30 1450 H 141.893 -1.14767 -4.85417 0
M  V30 1451 H 141.047 0.911638 -5.99812 0
M  V30 1452 H 139.786 1.11105 -4.74876 0
M  V30 1453 H 138.791 -1.10396 -5.38603 0
M  V30 1454 H 140.016 -1.29032 -6.66729 0
M  V30 1455 H 137.962 0.946787 -6.49132 0
M  V30 1456 H 137.879 -0.424399 -7.54808 0
M  V30 1457 H 139.147 0.745876 -7.75923 0
M  V30 1458 N 143.376 1.44774 -0.622745 0
M  V30 1459 C 144.792 1.56986 -0.287652 0
M  V30 1460 C 144.992 1.61167 1.20944 0
M  V30 1461 O 144.048 1.55015 1.99315 0
M  V30 1462 C 145.361 2.84551 -0.972188 0
M  V30 1463 C 146.909 2.9825 -0.949536 0
M  V30 1464 C 147.384 4.28605 -1.61437 0
M  V30 1465 N 148.875 4.35399 -1.58057 0
M  V30 1466 C 149.61 5.34964 -2.064 0
M  V30 1467 N 149.106 6.40981 -2.62897 0
M  V30 1468 N 150.899 5.26419 -1.97078 0
M  V30 1469 H 143.05 1.40304 -1.59463 0
M  V30 1470 H 145.313 0.671794 -0.668878 0
M  V30 1471 H 145.019 2.87417 -2.02693 0
M  V30 1472 H 144.893 3.73807 -0.504771 0
M  V30 1473 H 147.28 2.94941 0.0967067 0
M  V30 1474 H 147.361 2.10364 -1.45536 0
M  V30 1475 H 147.005 4.32672 -2.66002 0
M  V30 1476 H 146.935 5.15334 -1.08344 0
M  V30 1477 H 149.426 3.59397 -1.16801 0
M  V30 1478 H 149.739 7.13225 -2.97539 0
M  V30 1479 H 148.084 6.4169 -2.66943 0
M  V30 1480 H 151.275 4.42504 -1.52669 0
M  V30 1481 H 151.448 6.03861 -2.35066 0
M  V30 1482 N 144.854 0.36279 1.53368 0
M  V30 1483 C 146.102 -0.227326 2.00817 0
M  V30 1484 C 146.423 -1.49511 1.25186 0
M  V30 1485 O 145.693 -1.92482 0.364348 0
M  V30 1486 H 144.273 -0.0869923 0.741917 0
M  V30 1487 H 146.935 0.488381 1.88682 0
M  V30 1488 H 146.031 -0.456273 3.08747 0
M  V30 1489 N 146.332 -1.57332 0.0918853 0
M  V30 1490 C 147.578 -1.94524 -0.573425 0
M  V30 1491 C 147.911 -0.973578 -1.68033 0
M  V30 1492 O 147.186 -0.00609226 -1.94499 0
M  V30 1493 C 147.469 -3.41858 -1.13161 0
M  V30 1494 C 147.322 -4.4979 -0.0299747 0
M  V30 1495 C 148.641 -3.90435 -2.03098 0
M  V30 1496 H 145.76 -0.70734 -0.206975 0
M  V30 1497 H 148.402 -1.89309 0.161942 0
M  V30 1498 H 146.552 -3.46433 -1.7583 0
M  V30 1499 H 148.224 -4.57327 0.604112 0
M  V30 1500 H 146.467 -4.291 0.636833 0
M  V30 1501 H 147.138 -5.50069 -0.461287 0
M  V30 1502 H 149.614 -3.87992 -1.50338 0
M  V30 1503 H 148.49 -4.94097 -2.39081 0
M  V30 1504 H 148.751 -3.29541 -2.94712 0
M  V30 1505 N 147.81 0.181792 -1.56548 0
M  V30 1506 C 149.05 0.906711 -1.83189 0
M  V30 1507 C 149.414 1.79882 -0.671312 0
M  V30 1508 O 150.615 2.56054 -0.81792 0
M  V30 1509 C 148.886 1.69023 -3.14906 0
M  V30 1510 S 150.445 2.46535 -3.62996 0
M  V30 1511 H 147.263 0.303877 -0.642791 0
M  V30 1512 H 149.865 0.169107 -1.94767 0
M  V30 1513 H 148.569 1.02571 -3.97376 0
M  V30 1514 H 148.1 2.46941 -3.06241 0
M  V30 1515 H 150.115 3.71014 -3.29489 0
M  V30 1516 N 149.288 1.51039 0.449983 0
M  V30 1517 C 150.534 1.63322 1.20223 0
M  V30 1518 C 150.867 0.34241 1.91158 0
M  V30 1519 O 150.142 -0.657344 1.83055 0
M  V30 1520 C 150.425 2.82801 2.22925 0
M  V30 1521 C 150.278 4.21823 1.56157 0
M  V30 1522 C 151.597 2.97807 3.24035 0
M  V30 1523 H 148.716 0.594407 0.435718 0
M  V30 1524 H 151.358 1.83489 0.493136 0
M  V30 1525 H 149.508 2.65738 2.834 0
M  V30 1526 H 151.18 4.50526 0.991162 0
M  V30 1527 H 149.423 4.25105 0.864172 0
M  V30 1528 H 150.094 5.01391 2.30891 0
M  V30 1529 H 152.57 3.13497 2.73603 0
M  V30 1530 H 151.446 3.82992 3.93202 0
M  V30 1531 H 151.707 2.09328 3.89402 0
M  V30 1532 N 150.766 -0.704594 1.40972 0
M  V30 1533 C 151.713 -1.81862 1.42109 0
M  V30 1534 C 152.683 -1.63781 0.276593 0
M  V30 1535 O 153.868 -1.84759 0.4763 0
M  V30 1536 C 151.008 -3.19669 1.30022 0
M  V30 1537 C 150.121 -3.49246 2.54267 0
M  V30 1538 C 149.256 -4.76618 2.3454 0
M  V30 1539 C 148.295 -4.99133 3.54306 0
M  V30 1540 N 147.432 -6.17726 3.33706 0
M  V30 1541 H 152.272 -1.80226 2.37324 0
M  V30 1542 H 149.809 -0.880238 1.17857 0
M  V30 1543 H 151.767 -3.99263 1.21018 0
M  V30 1544 H 150.397 -3.20506 0.384192 0
M  V30 1545 H 149.449 -2.64125 2.73756 0
M  V30 1546 H 150.761 -3.61788 3.43381 0
M  V30 1547 H 149.915 -5.64249 2.22952 0
M  V30 1548 H 148.654 -4.66305 1.42867 0
M  V30 1549 H 147.659 -4.09953 3.66359 0
M  V30 1550 H 148.884 -5.11311 4.4692 0
M  V30 1551 H 146.83 -6.08642 2.44725 0
M  V30 1552 H 146.747 -6.30995 4.16391 0
M  V30 1553 H 148.015 -7.08115 3.25873 0
M  V30 1554 N 152.244 -1.26651 -0.937939 0
M  V30 1555 C 153.493 -1.11775 -1.67897 0
M  V30 1556 C 153.806 0.33794 -1.92659 0
M  V30 1557 O 155.012 0.607434 -2.64618 0
M  V30 1558 C 153.468 -1.9523 -3.02346 0
M  V30 1559 C 153.076 -3.45393 -2.8532 0
M  V30 1560 C 154.82 -1.88972 -3.80118 0
M  V30 1561 C 152.727 -4.21083 -4.15263 0
M  V30 1562 H 151.657 -0.414696 -0.629717 0
M  V30 1563 H 154.308 -1.50988 -1.04283 0
M  V30 1564 H 152.69 -1.48853 -3.66959 0
M  V30 1565 H 153.864 -3.99561 -2.29537 0
M  V30 1566 H 152.179 -3.52921 -2.20988 0
M  V30 1567 H 154.776 -2.42805 -4.76392 0
M  V30 1568 H 155.119 -0.86113 -4.07296 0
M  V30 1569 H 155.652 -2.33189 -3.22285 0
M  V30 1570 H 152.391 -5.24425 -3.93267 0
M  V30 1571 H 151.911 -3.71695 -4.70747 0
M  V30 1572 H 153.59 -4.29706 -4.83696 0
M  V30 1573 N 153.722 1.14298 -1.08507 0
M  V30 1574 C 154.67 2.21483 -0.710483 0
M  V30 1575 C 155.664 1.66998 0.284234 0
M  V30 1576 O 156.87 1.79401 0.146692 0
M  V30 1577 H 153.245 0.721578 -0.211729 0
M  V30 1578 H 155.216 2.50348 -1.62384 0
M  V30 1579 C 153.965 3.4743 -0.137007 0
M  V30 1580 H 153.288 3.89686 -0.893592 0
M  V30 1581 H 154.728 4.2391 0.0872789 0
M  V30 1582 C 153.187 3.17548 1.12538 0
M  V30 1583 O 153.717 3.35437 2.21009 0
M  V30 1584 N 151.923 2.71499 1.03617 0
M  V30 1585 H 151.47 2.57143 0.153403 0
M  V30 1586 H 151.428 2.51881 1.88158 0
M  V30 1587 N 155.201 0.870884 1.31352 0
M  V30 1588 C 156.151 0.298889 2.26032 0
M  V30 1589 C 157.135 -0.564595 1.50669 0
M  V30 1590 O 158.327 -0.411323 1.72154 0
M  V30 1591 C 155.456 -0.497842 3.39671 0
M  V30 1592 C 154.542 0.378937 4.22404 0
M  V30 1593 N 154.933 1.47284 4.83881 0
M  V30 1594 C 153.231 0.171535 4.4567 0
M  V30 1595 C 153.932 2.01359 5.45738 0
M  V30 1596 N 152.908 1.31047 5.27568 0
M  V30 1597 H 156.71 1.13494 2.71102 0
M  V30 1598 H 154.224 0.718745 1.45629 0
M  V30 1599 H 156.221 -0.924155 4.06528 0
M  V30 1600 H 154.881 -1.33149 2.96144 0
M  V30 1601 H 155.892 1.85575 4.8351 0
M  V30 1602 H 152.569 -0.626091 4.12779 0
M  V30 1603 H 153.959 2.93143 6.0458 0
M  V30 1604 N 156.679 -1.44442 0.630414 0
M  V30 1605 C 157.926 -2.02052 0.134617 0
M  V30 1606 C 158.254 -1.49576 -1.24327 0
M  V30 1607 O 157.509 -0.669806 -1.83881 0
M  V30 1608 C 157.808 -3.57332 0.0697835 0
M  V30 1609 C 157.474 -4.29058 1.38635 0
M  V30 1610 C 156.136 -4.4837 1.74694 0
M  V30 1611 C 158.488 -4.69872 2.25543 0
M  V30 1612 C 155.816 -5.05756 2.97369 0
M  V30 1613 C 158.168 -5.28616 3.47487 0
M  V30 1614 C 156.832 -5.46147 3.8377 0
M  V30 1615 H 156.102 -0.739361 0.0492598 0
M  V30 1616 H 158.749 -1.73217 0.816586 0
M  V30 1617 H 157.054 -3.85577 -0.695553 0
M  V30 1618 H 158.751 -3.99637 -0.330344 0
M  V30 1619 H 155.341 -4.14357 1.09574 0
M  V30 1620 H 159.525 -4.54666 1.98979 0
M  V30 1621 H 154.781 -5.17515 3.25558 0
M  V30 1622 H 158.955 -5.59192 4.15063 0
M  V30 1623 H 156.582 -5.9038 4.7891 0
M  V30 1624 N 158.157 -0.370918 -1.53173 0
M  V30 1625 C 159.568 0.107139 -1.86392 0
M  V30 1626 C 159.919 1.47714 -1.29132 0
M  V30 1627 O 159.044 2.07464 -0.615439 0
M  V30 1628 C 159.639 0.201187 -3.38202 0
M  V30 1629 C 158.198 0.623507 -3.712 0
M  V30 1630 C 157.345 -0.225978 -2.76378 0
M  V30 1631 H 160.296 -0.58951 -1.47345 0
M  V30 1632 H 160.317 1.02377 -3.66468 0
M  V30 1633 H 159.829 -0.796058 -3.79848 0
M  V30 1634 H 157.93 1.62879 -3.35114 0
M  V30 1635 H 158.043 0.394414 -4.77474 0
M  V30 1636 H 156.407 0.305962 -2.52856 0
M  V30 1637 H 157.19 -1.22086 -3.20858 0
M  V30 1638 N 159.635 1.57281 -0.100228 0
M  V30 1639 C 160.545 2.17833 0.870965 0
M  V30 1640 C 161.561 1.14921 1.30649 0
M  V30 1641 O 162.737 1.47313 1.37335 0
M  V30 1642 C 159.802 2.75085 2.1102 0
M  V30 1643 C 158.863 3.9297 1.72838 0
M  V30 1644 C 158.096 4.47482 2.90854 0
M  V30 1645 O 158.319 4.00922 4.05731 0
M  V30 1646 O 157.253 5.38433 2.69023 0
M  V30 1647 H 161.079 3.0124 0.38575 0
M  V30 1648 H 158.664 1.48881 0.124397 0
M  V30 1649 H 160.546 3.11656 2.83634 0
M  V30 1650 H 159.221 1.94721 2.58584 0
M  V30 1651 H 158.128 3.61201 0.973883 0
M  V30 1652 H 159.461 4.74713 1.30033 0
M  V30 1653 N 161.113 -0.173488 1.56642 0
M  V30 1654 C 162.39 -0.917617 1.7274 0
M  V30 1655 C 162.77 -2.00484 0.661027 0
M  V30 1656 O 162.118 -2.26184 -0.32453 0
M  V30 1657 C 162.328 -1.48433 3.15862 0
M  V30 1658 C 163.676 -1.95809 3.76754 0
M  V30 1659 O 164.7 -1.58231 3.19126 0
M  V30 1660 O 163.559 -2.65024 4.77938 0
M  V30 1661 H 160.653 -0.431772 0.705338 0
M  V30 1662 H 163.199 -0.161487 1.6893 0
M  V30 1663 H 161.971 -0.701715 3.84957 0
M  V30 1664 H 161.594 -2.30471 3.23989 0
M  V30 1665 N 162.591 -1.51276 -0.441967 0
M  V30 1666 C 163.819 -1.67516 -1.21434 0
M  V30 1667 C 164.234 -0.37055 -1.85128 0
M  V30 1668 O 163.591 0.650498 -1.70513 0
M  V30 1669 C 163.642 -2.78748 -2.30177 0
M  V30 1670 O 163.363 -4.04154 -1.69089 0
M  V30 1671 C 164.864 -3.06217 -3.20541 0
M  V30 1672 H 162.084 -0.562276 -0.366178 0
M  V30 1673 H 164.628 -1.97666 -0.524244 0
M  V30 1674 H 162.783 -2.5121 -2.94911 0
M  V30 1675 H 163.197 -4.65894 -2.40922 0
M  V30 1676 H 164.671 -3.8764 -3.92987 0
M  V30 1677 H 165.148 -2.18439 -3.81026 0
M  V30 1678 H 165.754 -3.35397 -2.61513 0
M  V30 1679 N 164.069 0.697108 -1.41344 0
M  V30 1680 C 165.346 1.45154 -1.31109 0
M  V30 1681 C 165.726 2.11009 0.0620449 0
M  V30 1682 O 165.074 2.01571 1.07618 0
M  V30 1683 C 165.284 2.47223 -2.46337 0
M  V30 1684 C 166.632 3.1252 -2.87431 0
M  V30 1685 O 167.656 2.57547 -2.46065 0
M  V30 1686 O 166.515 4.12083 -3.58957 0
M  V30 1687 H 163.609 0.646365 -0.515889 0
M  V30 1688 H 166.155 0.727716 -1.53305 0
M  V30 1689 H 164.927 1.97204 -3.37974 0
M  V30 1690 H 164.55 3.27116 -2.2601 0
M  V30 1691 N 165.547 1.27147 0.931209 0
M  V30 1692 C 166.777 1.15914 1.71019 0
M  V30 1693 C 167.185 -0.287112 1.87009 0
M  V30 1694 O 166.528 -1.20761 1.38429 0
M  V30 1695 C 166.59 1.76647 3.13107 0
M  V30 1696 C 166.254 3.25807 3.20467 0
M  V30 1697 C 167.251 4.22489 3.02983 0
M  V30 1698 C 164.936 3.66452 3.43538 0
M  V30 1699 C 166.93 5.57794 3.08454 0
M  V30 1700 C 164.617 5.01888 3.48643 0
M  V30 1701 C 165.615 5.97369 3.31119 0
M  V30 1702 O 165.303 7.30337 3.35952 0
M  V30 1703 H 165.035 0.404062 0.54195 0
M  V30 1704 H 167.589 1.68457 1.17521 0
M  V30 1705 H 165.819 1.18578 3.68071 0
M  V30 1706 H 167.508 1.60179 3.72958 0
M  V30 1707 H 168.274 3.92425 2.85004 0
M  V30 1708 H 164.153 2.92611 3.5623 0
M  V30 1709 H 167.697 6.32298 2.94694 0
M  V30 1710 H 163.594 5.31609 3.66145 0
M  V30 1711 H 164.362 7.38739 3.5243 0
M  V30 1712 N 167.025 -1.13721 1.09112 0
M  V30 1713 C 168.302 -1.81155 0.737706 0
M  V30 1714 C 168.682 -1.96253 -0.777683 0
M  V30 1715 O 168.03 -1.52807 -1.69889 0
M  V30 1716 C 168.24 -3.16392 1.47299 0
M  V30 1717 C 169.588 -3.91787 1.63671 0
M  V30 1718 O 170.612 -3.26005 1.43524 0
M  V30 1719 O 169.471 -5.0977 1.96969 0
M  V30 1720 H 166.565 -0.783518 0.26463 0
M  V30 1721 H 169.111 -1.20676 1.19312 0
M  V30 1722 H 167.883 -3.0061 2.50498 0
M  V30 1723 H 167.506 -3.8457 1.00953 0
M  V30 1724 N 168.503 -0.877838 -1.30888 0
M  V30 1725 C 169.453 -0.310872 -2.25871 0
M  V30 1726 C 170.437 0.556596 -1.50966 0
M  V30 1727 O 171.629 0.402187 -1.7237 0
M  V30 1728 C 168.758 0.479821 -3.3993 0
M  V30 1729 C 167.844 -0.401333 -4.22197 0
M  V30 1730 N 168.235 -1.49848 -4.83093 0
M  V30 1731 C 166.533 -0.195167 -4.45573 0
M  V30 1732 C 167.234 -2.0425 -5.44662 0
M  V30 1733 N 166.21 -1.33843 -5.26865 0
M  V30 1734 H 170.012 -1.1493 -2.70496 0
M  V30 1735 H 167.526 -0.726458 -1.45246 0
M  V30 1736 H 169.523 0.902582 -4.07012 0
M  V30 1737 H 168.183 1.31577 -2.96846 0
M  V30 1738 H 169.194 -1.88137 -4.82519 0
M  V30 1739 H 165.871 0.604192 -4.13105 0
M  V30 1740 H 167.261 -2.96345 -6.03017 0
M  V30 1741 N 169.982 1.44106 -0.638065 0
M  V30 1742 C 171.259 1.95453 -0.0759321 0
M  V30 1743 C 171.639 1.57984 1.40015 0
M  V30 1744 O 170.987 0.857361 2.11806 0
M  V30 1745 C 171.197 3.47655 -0.306132 0
M  V30 1746 C 172.545 4.24114 -0.203008 0
M  V30 1747 O 173.569 3.55405 -0.237871 0
M  V30 1748 O 172.428 5.46381 -0.113827 0
M  V30 1749 H 169.522 0.826797 0.0183332 0
M  V30 1750 H 172.068 1.54122 -0.710251 0
M  V30 1751 H 170.84 3.68 -1.3301 0
M  V30 1752 H 170.463 3.95949 0.361991 0
M  V30 1753 N 171.46 0.379036 1.52974 0
M  V30 1754 C 172.685 -0.209353 2.06341 0
M  V30 1755 C 173.11 -1.40583 1.24972 0
M  V30 1756 O 172.468 -1.79246 0.272155 0
M  V30 1757 C 172.516 -0.567786 3.56102 0
M  V30 1758 O 171.62 -1.66318 3.77375 0
M  V30 1759 H 170.961 -0.0272919 0.663439 0
M  V30 1760 H 173.491 0.543536 1.97248 0
M  V30 1761 H 173.501 -0.835003 3.99364 0
M  V30 1762 H 172.176 0.307013 4.14765 0
M  V30 1763 H 170.753 -1.39048 3.46006 0
M  V30 1764 N 172.938 -1.57226 0.108567 0
M  V30 1765 C 173.901 -2.13602 -0.831082 0
M  V30 1766 C 174.901 -1.06841 -1.20173 0
M  V30 1767 O 176.091 -1.32666 -1.12895 0
M  V30 1768 C 173.223 -2.66769 -2.12243 0
M  V30 1769 H 174.416 -2.97951 -0.341317 0
M  V30 1770 H 171.969 -1.55667 -0.14057 0
M  V30 1771 H 172.704 -1.85977 -2.65675 0
M  V30 1772 H 172.489 -3.44839 -1.86625 0
M  V30 1773 H 173.979 -3.10332 -2.79435 0
M  V30 1774 N 174.416 0.165178 -1.56732 0
M  V30 1775 C 175.326 1.22423 -2.00125 0
M  V30 1776 C 176.342 1.48084 -0.913619 0
M  V30 1777 O 177.518 1.60112 -1.22172 0
M  V30 1778 C 174.583 2.54197 -2.35764 0
M  V30 1779 C 173.644 2.36343 -3.58386 0
M  V30 1780 C 172.877 3.61834 -3.92316 0
M  V30 1781 O 173.1 4.67267 -3.27135 0
M  V30 1782 O 172.034 3.55579 -4.85641 0
M  V30 1783 H 175.86 0.885886 -2.90492 0
M  V30 1784 H 173.445 0.372518 -1.44681 0
M  V30 1785 H 175.327 3.3192 -2.59629 0
M  V30 1786 H 174.002 2.87598 -1.48557 0
M  V30 1787 H 172.909 1.56632 -3.39731 0
M  V30 1788 H 174.242 2.07865 -4.46154 0
M  V30 1789 N 175.894 1.51508 0.433938 0
M  V30 1790 C 177.124 1.67914 1.20369 0
M  V30 1791 C 177.532 0.377461 1.85397 0
M  V30 1792 O 176.875 -0.654255 1.71654 0
M  V30 1793 C 176.937 2.74045 2.32679 0
M  V30 1794 C 176.601 4.16543 1.87991 0
M  V30 1795 C 177.598 5.01211 1.38145 0
M  V30 1796 C 175.283 4.6266 1.95579 0
M  V30 1797 C 177.277 6.30056 0.964774 0
M  V30 1798 C 174.964 5.91501 1.53523 0
M  V30 1799 C 175.962 6.75027 1.04055 0
M  V30 1800 O 175.65 8.01459 0.625964 0
M  V30 1801 H 175.382 0.566578 0.368735 0
M  V30 1802 H 177.936 1.98709 0.51999 0
M  V30 1803 H 176.166 2.38572 3.04336 0
M  V30 1804 H 177.855 2.79295 2.94532 0
M  V30 1805 H 178.621 4.66783 1.31675 0
M  V30 1806 H 174.5 3.97767 2.33029 0
M  V30 1807 H 178.044 6.95202 0.57796 0
M  V30 1808 H 173.941 6.25442 1.59665 0
M  V30 1809 H 174.709 8.15043 0.751509 0
M  V30 1810 N 177.372 -0.689602 1.41712 0
M  V30 1811 C 178.302 -1.81577 1.46806 0
M  V30 1812 C 179.283 -1.66945 0.326105 0
M  V30 1813 O 180.468 -1.86588 0.538377 0
M  V30 1814 C 177.598 -3.19762 1.35535 0
M  V30 1815 C 176.552 -3.49107 2.47605 0
M  V30 1816 C 175.878 -4.86711 2.21397 0
M  V30 1817 C 177.178 -3.47483 3.89939 0
M  V30 1818 H 178.872 -1.7757 2.41058 0
M  V30 1819 H 176.418 -0.852887 1.16025 0
M  V30 1820 H 178.371 -3.98263 1.3771 0
M  V30 1821 H 177.095 -3.24409 0.377708 0
M  V30 1822 H 175.754 -2.72959 2.44722 0
M  V30 1823 H 175.402 -4.8799 1.21961 0
M  V30 1824 H 175.102 -5.0731 2.96497 0
M  V30 1825 H 176.626 -5.67515 2.25297 0
M  V30 1826 H 178.04 -4.1598 3.94505 0
M  V30 1827 H 176.437 -3.79615 4.64771 0
M  V30 1828 H 177.507 -2.46341 4.17665 0
M  V30 1829 N 178.85 -1.27639 -0.924453 0
M  V30 1830 C 179.78 -1.13166 -2.04244 0
M  V30 1831 C 180.761 -0.032256 -1.70069 0
M  V30 1832 O 181.946 -0.207328 -1.9309 0
M  V30 1833 C 179.076 -0.781496 -3.38393 0
M  V30 1834 C 178.03 -1.83449 -3.86692 0
M  V30 1835 C 177.356 -1.33822 -5.17683 0
M  V30 1836 C 178.656 -3.23917 -4.09726 0
M  V30 1837 H 180.35 -2.06689 -2.1661 0
M  V30 1838 H 177.896 -0.995136 -1.04082 0
M  V30 1839 H 179.849 -0.667057 -4.16087 0
M  V30 1840 H 178.573 0.189439 -3.2605 0
M  V30 1841 H 177.232 -1.93789 -3.11193 0
M  V30 1842 H 176.88 -0.35665 -5.01734 0
M  V30 1843 H 176.58 -2.04224 -5.50968 0
M  V30 1844 H 178.104 -1.23679 -5.97943 0
M  V30 1845 H 179.518 -3.16559 -4.77978 0
M  V30 1846 H 177.915 -3.92059 -4.54324 0
M  V30 1847 H 178.985 -3.68729 -3.14908 0
M  V30 1848 N 180.328 1.1314 -1.09713 0
M  V30 1849 C 181.744 1.36477 -0.827423 0
M  V30 1850 C 181.944 1.93654 0.556817 0
M  V30 1851 O 181 2.15791 1.31112 0
M  V30 1852 C 182.313 2.31334 -1.92106 0
M  V30 1853 C 183.861 2.44943 -1.94864 0
M  V30 1854 C 184.336 3.4311 -3.0338 0
M  V30 1855 N 185.827 3.50662 -3.02639 0
M  V30 1856 C 186.562 4.2651 -3.83246 0
M  V30 1857 N 186.058 5.05485 -4.73768 0
M  V30 1858 N 187.851 4.2184 -3.71493 0
M  V30 1859 H 180.002 0.743807 -1.9895 0
M  V30 1860 H 182.265 0.389823 -0.864143 0
M  V30 1861 H 181.971 1.96483 -2.91698 0
M  V30 1862 H 181.845 3.31381 -1.80184 0
M  V30 1863 H 184.232 2.79079 -0.959099 0
M  V30 1864 H 184.313 1.4481 -2.10864 0
M  V30 1865 H 183.957 3.09704 -4.02549 0
M  V30 1866 H 183.887 4.43055 -2.84622 0
M  V30 1867 H 186.378 2.94315 -2.37039 0
M  V30 1868 H 186.691 5.60675 -5.3185 0
M  V30 1869 H 185.036 5.04708 -4.77802 0
M  V30 1870 H 188.227 3.5922 -3.00131 0
M  V30 1871 H 188.4 4.80697 -4.3455 0
M  V30 1872 N 181.806 0.884767 1.30421 0
M  V30 1873 C 183.052 0.503851 1.96441 0
M  V30 1874 C 183.385 -0.944518 1.69684 0
M  V30 1875 O 182.66 -1.66737 1.00145 0
M  V30 1876 C 182.943 0.779085 3.51571 0
M  V30 1877 C 182.796 2.27807 3.87846 0
M  V30 1878 C 184.115 0.255452 4.39358 0
M  V30 1879 H 181.234 0.184533 0.713524 0
M  V30 1880 H 183.876 1.10872 1.54297 0
M  V30 1881 H 182.026 0.264274 3.876 0
M  V30 1882 H 183.698 2.86127 3.61841 0
M  V30 1883 H 181.941 2.74479 3.35922 0
M  V30 1884 H 182.612 2.42125 4.96064 0
M  V30 1885 H 185.088 0.696079 4.10236 0
M  V30 1886 H 183.964 0.477361 5.4682 0
M  V30 1887 H 184.225 -0.843293 4.33983 0
M  V30 1888 N 183.284 -1.43765 0.645699 0
M  V30 1889 C 184.53 -2.02197 0.156271 0
M  V30 1890 C 184.863 -1.50776 -1.22393 0
M  V30 1891 O 184.138 -0.697771 -1.81553 0
M  V30 1892 C 184.421 -3.59749 0.158872 0
M  V30 1893 C 184.274 -4.21419 1.57245 0
M  V30 1894 C 185.593 -4.37149 -0.50879 0
M  V30 1895 H 182.712 -0.734694 0.0582602 0
M  V30 1896 H 185.354 -1.71157 0.824951 0
M  V30 1897 H 183.504 -3.86325 -0.410525 0
M  V30 1898 H 185.176 -4.059 2.19186 0
M  V30 1899 H 183.419 -3.78356 2.122 0
M  V30 1900 H 184.09 -5.30482 1.52619 0
M  V30 1901 H 186.566 -4.16093 -0.024412 0
M  V30 1902 H 185.442 -5.4683 -0.476213 0
M  V30 1903 H 185.703 -4.12839 -1.58165 0
M  V30 1904 N 184.763 -0.387143 -1.52771 0
M  V30 1905 C 186.179 -0.037007 -1.59557 0
M  V30 1906 C 186.379 1.44801 -1.40124 0
M  V30 1907 O 185.435 2.21227 -1.21716 0
M  V30 1908 C 186.748 -0.512256 -2.96305 0
M  V30 1909 C 188.296 -0.468328 -3.09476 0
M  V30 1910 C 188.771 -0.919731 -4.4867 0
M  V30 1911 N 190.262 -0.875656 -4.54848 0
M  V30 1912 C 190.997 -1.19637 -5.6078 0
M  V30 1913 N 190.493 -1.58745 -6.74368 0
M  V30 1914 N 192.286 -1.11776 -5.50874 0
M  V30 1915 H 184.437 -1.35395 -1.63652 0
M  V30 1916 H 186.7 -0.554818 -0.768688 0
M  V30 1917 H 186.406 -1.54935 -3.15734 0
M  V30 1918 H 186.28 0.089805 -3.77093 0
M  V30 1919 H 188.667 0.559671 -2.89744 0
M  V30 1920 H 188.748 -1.10616 -2.30646 0
M  V30 1921 H 188.392 -1.94595 -4.69143 0
M  V30 1922 H 188.322 -0.258927 -5.25963 0
M  V30 1923 H 190.813 -0.587843 -3.733 0
M  V30 1924 H 191.126 -1.81586 -7.51163 0
M  V30 1925 H 189.471 -1.6263 -6.75705 0
M  V30 1926 H 192.662 -0.811264 -4.61016 0
M  V30 1927 H 192.835 -1.37103 -6.3333 0
M  V30 1928 N 186.241 1.57166 -0.116904 0
M  V30 1929 C 187.204 2.14039 0.819742 0
M  V30 1930 C 188.204 1.07477 1.19605 0
M  V30 1931 O 189.394 1.33263 1.1219 0
M  V30 1932 C 186.526 2.67891 2.10826 0
M  V30 1933 H 187.719 2.98128 0.325511 0
M  V30 1934 H 185.272 1.55739 0.132312 0
M  V30 1935 H 186.007 1.87384 2.64685 0
M  V30 1936 H 185.792 3.45823 1.84793 0
M  V30 1937 H 187.282 3.11809 2.77785 0
M  V30 1938 N 187.719 -0.156864 1.56817 0
M  V30 1939 C 188.944 -0.890331 1.87318 0
M  V30 1940 C 189.369 -1.74394 0.704855 0
M  V30 1941 O 188.727 -1.77972 -0.345786 0
M  V30 1942 C 188.775 -1.73102 3.16336 0
M  V30 1943 O 187.879 -2.83422 2.99576 0
M  V30 1944 H 187.22 -0.24857 0.615718 0
M  V30 1945 H 189.75 -0.150649 2.04045 0
M  V30 1946 H 189.76 -2.12803 3.48107 0
M  V30 1947 H 188.435 -1.10412 4.00976 0
M  V30 1948 H 187.012 -2.47199 2.7919 0
M  V30 1949 N 189.197 -1.51736 -0.425897 0
M  V30 1950 C 190.422 -1.69082 -1.20108 0
M  V30 1951 C 190.847 -0.392398 -1.83962 0
M  V30 1952 O 190.205 0.64858 -1.69302 0
M  V30 1953 C 190.253 -2.81604 -2.25237 0
M  V30 1954 O 189.357 -2.46004 -3.30992 0
M  V30 1955 H 188.698 -0.563408 -0.35138 0
M  V30 1956 H 191.228 -1.98358 -0.501512 0
M  V30 1957 H 191.238 -3.06025 -2.69838 0
M  V30 1958 H 189.913 -3.75817 -1.78142 0
M  V30 1959 H 188.49 -2.32195 -2.91787 0
M  V30 1960 N 190.675 0.682077 -1.42076 0
M  V30 1961 C 191.924 1.43786 -1.41451 0
M  V30 1962 C 192.237 1.95574 -0.0317074 0
M  V30 1963 O 193.443 2.71326 0.0971462 0
M  V30 1964 C 191.899 2.60071 -2.48779 0
M  V30 1965 C 191.507 2.15013 -3.93031 0
M  V30 1966 C 193.251 3.37626 -2.57311 0
M  V30 1967 C 191.158 3.28336 -4.91883 0
M  V30 1968 H 190.088 0.540143 -0.526082 0
M  V30 1969 H 192.739 0.739157 -1.67955 0
M  V30 1970 H 191.121 3.32275 -2.15429 0
M  V30 1971 H 192.295 1.5001 -4.35699 0
M  V30 1972 H 190.61 1.50416 -3.88284 0
M  V30 1973 H 193.207 4.22012 -3.28345 0
M  V30 1974 H 193.55 3.83727 -1.61429 0
M  V30 1975 H 194.083 2.72488 -2.89819 0
M  V30 1976 H 190.822 2.87234 -5.89217 0
M  V30 1977 H 190.342 3.92145 -4.53853 0
M  V30 1978 H 192.021 3.93913 -5.13265 0
M  V30 1979 N 192.153 1.28127 0.917671 0
M  V30 1980 C 193.4 1.15052 1.66641 0
M  V30 1981 C 193.728 -0.301677 1.92146 0
M  V30 1982 O 192.983 -1.23622 1.51711 0
M  V30 1983 C 193.282 1.89018 3.03327 0
M  V30 1984 C 192.948 3.38832 2.97496 0
M  V30 1985 C 191.61 3.79693 2.95613 0
M  V30 1986 C 193.962 4.34378 2.88036 0
M  V30 1987 C 191.29 5.14447 2.82066 0
M  V30 1988 C 193.642 5.69201 2.7603 0
M  V30 1989 C 192.306 6.09343 2.72502 0
M  V30 1990 H 191.576 0.421006 0.609783 0
M  V30 1991 H 194.223 1.58855 1.06945 0
M  V30 1992 H 192.528 1.37752 3.66785 0
M  V30 1993 H 194.225 1.76321 3.60156 0
M  V30 1994 H 190.815 3.06342 2.99754 0
M  V30 1995 H 194.999 4.03775 2.88581 0
M  V30 1996 H 190.255 5.44681 2.77728 0
M  V30 1997 H 194.429 6.42901 2.67678 0
M  V30 1998 H 192.056 7.13712 2.61762 0
M  V30 1999 N 193.631 -1.12557 1.10312 0
M  V30 2000 C 195.042 -1.65574 0.862678 0
M  V30 2001 C 195.393 -1.86566 -0.607256 0
M  V30 2002 O 194.518 -1.59121 -1.46662 0
M  V30 2003 C 195.113 -3.00776 1.55947 0
M  V30 2004 C 193.672 -3.50748 1.36576 0
M  V30 2005 C 192.819 -2.25797 1.60968 0
M  V30 2006 H 195.77 -0.963552 1.26101 0
M  V30 2007 H 195.791 -3.67185 0.997753 0
M  V30 2008 H 195.303 -2.85465 2.62928 0
M  V30 2009 H 193.404 -3.71245 0.317531 0
M  V30 2010 H 193.517 -4.30289 2.10686 0
M  V30 2011 H 191.881 -2.32841 1.03234 0
M  V30 2012 H 192.664 -2.13043 2.69198 0
M  V30 2013 N 195.109 -0.891671 -1.2995 0
M  V30 2014 C 196.358 -0.509521 -1.95158 0
M  V30 2015 C 196.671 0.947388 -1.71125 0
M  V30 2016 O 197.877 1.43669 -2.30372 0
M  V30 2017 C 196.333 -0.860315 -3.49466 0
M  V30 2018 C 195.941 -2.33545 -3.8231 0
M  V30 2019 C 197.685 -0.547687 -4.20952 0
M  V30 2020 C 195.592 -2.62752 -5.29826 0
M  V30 2021 H 194.522 -0.18682 -0.730489 0
M  V30 2022 H 197.173 -1.08756 -1.47798 0
M  V30 2023 H 195.555 -0.211285 -3.95436 0
M  V30 2024 H 196.729 -3.02936 -3.47227 0
M  V30 2025 H 195.044 -2.61629 -3.23944 0
M  V30 2026 H 197.641 -0.742854 -5.29515 0
M  V30 2027 H 197.984 0.51332 -4.13123 0
M  V30 2028 H 198.517 -1.1542 -3.80688 0
M  V30 2029 H 195.256 -3.6762 -5.42712 0
M  V30 2030 H 194.776 -1.97977 -5.66185 0
M  V30 2031 H 196.455 -2.48601 -5.97333 0
M  V30 2032 N 196.587 1.43421 -0.653314 0
M  V30 2033 C 197.517 2.33487 0.0246656 0
M  V30 2034 C 198.498 1.49475 0.811863 0
M  V30 2035 O 199.683 1.78139 0.773322 0
M  V30 2036 C 196.813 3.32841 0.99166 0
M  V30 2037 C 195.767 4.26842 0.314568 0
M  V30 2038 C 195.093 5.16236 1.39302 0
M  V30 2039 C 196.393 5.16243 -0.793095 0
M  V30 2040 H 198.087 2.90427 -0.727481 0
M  V30 2041 H 195.633 1.39649 -0.351287 0
M  V30 2042 H 197.586 3.94747 1.47487 0
M  V30 2043 H 196.31 2.74158 1.77497 0
M  V30 2044 H 194.969 3.663 -0.148199 0
M  V30 2045 H 194.617 4.53891 2.16776 0
M  V30 2046 H 194.317 5.79948 0.945223 0
M  V30 2047 H 195.841 5.81015 1.87759 0
M  V30 2048 H 197.255 5.71958 -0.392039 0
M  V30 2049 H 195.652 5.88676 -1.16536 0
M  V30 2050 H 196.722 4.55927 -1.65103 0
M  V30 2051 N 198.065 0.39524 1.52563 0
M  V30 2052 C 199.29 -0.187456 2.06551 0
M  V30 2053 C 199.715 -1.39249 1.26457 0
M  V30 2054 O 199.073 -1.78947 0.291151 0
M  V30 2055 C 199.121 -0.529985 3.56684 0
M  V30 2056 O 198.225 -1.62307 3.79118 0
M  V30 2057 H 197.566 -0.0202537 0.663691 0
M  V30 2058 H 200.096 0.564426 1.96661 0
M  V30 2059 H 200.106 -0.792598 4.00227 0
M  V30 2060 H 198.781 0.350987 4.14416 0
M  V30 2061 H 197.358 -1.3537 3.47461 0
M  V30 2062 N 199.544 -1.57102 0.125237 0
M  V30 2063 C 200.507 -2.14471 -0.80838 0
M  V30 2064 C 201.507 -1.0811 -1.19033 0
M  V30 2065 O 202.697 -1.33856 -1.11482 0
M  V30 2066 C 199.829 -2.69005 -2.09402 0
M  V30 2067 H 201.022 -2.98297 -0.309696 0
M  V30 2068 H 198.575 -1.55807 -0.124051 0
M  V30 2069 H 199.31 -1.88785 -2.63687 0
M  V30 2070 H 199.095 -3.46799 -1.82957 0
M  V30 2071 H 200.585 -3.13278 -2.76128 0
M  V30 2072 N 201.022 0.148545 -1.56898 0
M  V30 2073 C 202.271 0.85984 -1.82454 0
M  V30 2074 C 202.584 1.82406 -0.706229 0
M  V30 2075 O 203.79 2.57938 -0.847349 0
M  V30 2076 C 202.246 1.57967 -3.2338 0
M  V30 2077 C 201.854 0.65794 -4.43142 0
M  V30 2078 C 203.598 2.27784 -3.58211 0
M  V30 2079 C 201.505 1.3793 -5.75091 0
M  V30 2080 H 200.435 0.324834 -0.68044 0
M  V30 2081 H 203.086 0.112588 -1.83154 0
M  V30 2082 H 201.468 2.37249 -3.17063 0
M  V30 2083 H 202.642 -0.0995497 -4.60692 0
M  V30 2084 H 200.957 0.0682643 -4.16344 0
M  V30 2085 H 203.554 2.8239 -4.54048 0
M  V30 2086 H 203.897 3.04204 -2.84193 0
M  V30 2087 H 204.43 1.55421 -3.66182 0
M  V30 2088 H 201.169 0.656982 -6.52199 0
M  V30 2089 H 200.689 2.10954 -5.61479 0
M  V30 2090 H 202.368 1.92063 -6.17835 0
M  V30 2091 N 202.5 1.5196 0.417844 0
M  V30 2092 C 203.43 1.77634 1.51554 0
M  V30 2093 C 204.411 0.626918 1.58126 0
M  V30 2094 O 205.596 0.871632 1.7354 0
M  V30 2095 C 202.726 1.91911 2.8946 0
M  V30 2096 C 201.68 3.07463 2.97743 0
M  V30 2097 C 201.006 3.06951 4.37819 0
M  V30 2098 C 202.306 4.47082 2.70027 0
M  V30 2099 H 204 2.6955 1.3032 0
M  V30 2100 H 201.546 1.29706 0.625492 0
M  V30 2101 H 203.499 2.08455 3.6623 0
M  V30 2102 H 202.223 0.966598 3.11969 0
M  V30 2103 H 200.882 2.90656 2.23416 0
M  V30 2104 H 200.53 2.09438 4.57323 0
M  V30 2105 H 200.23 3.84556 4.44286 0
M  V30 2106 H 201.754 3.25613 5.16535 0
M  V30 2107 H 203.168 4.6414 3.36522 0
M  V30 2108 H 201.565 5.2654 2.87881 0
M  V30 2109 H 202.635 4.55777 1.65514 0
M  V30 2110 N 203.978 -0.674533 1.42435 0
M  V30 2111 C 204.908 -1.80009 1.48724 0
M  V30 2112 C 205.889 -1.6659 0.343793 0
M  V30 2113 O 207.074 -1.86007 0.558137 0
M  V30 2114 C 204.204 -3.18306 1.38919 0
M  V30 2115 C 203.158 -3.46461 2.51294 0
M  V30 2116 C 202.484 -4.84335 2.26547 0
M  V30 2117 C 203.784 -3.43328 3.93603 0
M  V30 2118 H 205.478 -1.75004 2.42928 0
M  V30 2119 H 203.024 -0.840533 1.16923 0
M  V30 2120 H 204.977 -3.9678 1.41927 0
M  V30 2121 H 203.701 -3.2399 0.412094 0
M  V30 2122 H 202.36 -2.70348 2.47604 0
M  V30 2123 H 202.008 -4.86669 1.2713 0
M  V30 2124 H 201.708 -5.04136 3.01861 0
M  V30 2125 H 203.232 -5.65094 2.31304 0
M  V30 2126 H 204.646 -4.11772 3.98894 0
M  V30 2127 H 203.043 -3.74664 4.68771 0
M  V30 2128 H 204.113 -2.41897 4.20255 0
M  V30 2129 N 205.456 -1.28612 -0.910864 0
M  V30 2130 C 206.386 -1.15326 -2.03032 0
M  V30 2131 C 207.367 -0.0502924 -1.70026 0
M  V30 2132 O 208.552 -0.227797 -1.92859 0
M  V30 2133 C 205.682 -0.817343 -3.37545 0
M  V30 2134 C 204.636 -1.8754 -3.84724 0
M  V30 2135 C 203.962 -1.39305 -5.16235 0
M  V30 2136 C 205.262 -3.28244 -4.06267 0
M  V30 2137 H 206.956 -2.08975 -2.14406 0
M  V30 2138 H 204.502 -1.00612 -1.03021 0
M  V30 2139 H 206.455 -0.711151 -4.15356 0
M  V30 2140 H 205.179 0.154846 -3.26233 0
M  V30 2141 H 203.838 -1.97079 -3.09121 0
M  V30 2142 H 203.486 -0.409846 -5.01328 0
M  V30 2143 H 203.186 -2.10057 -5.48771 0
M  V30 2144 H 204.71 -1.30014 -5.96598 0
M  V30 2145 H 206.124 -3.21611 -4.74594 0
M  V30 2146 H 204.521 -3.96855 -4.5014 0
M  V30 2147 H 205.591 -3.72048 -3.10979 0
M  V30 2148 N 206.934 1.1197 -1.10907 0
M  V30 2149 C 207.864 2.19928 -0.784473 0
M  V30 2150 C 208.845 1.6833 0.244726 0
M  V30 2151 O 210.03 1.93892 0.109418 0
M  V30 2152 C 207.16 3.46597 -0.220827 0
M  V30 2153 C 206.114 4.11376 -1.18127 0
M  V30 2154 C 205.44 5.32554 -0.478594 0
M  V30 2155 C 206.74 4.56945 -2.52979 0
M  V30 2156 H 208.434 2.47337 -1.68715 0
M  V30 2157 H 205.98 1.18879 -0.812642 0
M  V30 2158 H 207.933 4.21396 0.0184278 0
M  V30 2159 H 206.657 3.1863 0.717113 0
M  V30 2160 H 205.316 3.38564 -1.40606 0
M  V30 2161 H 204.964 5.00856 0.463976 0
M  V30 2162 H 204.664 5.76844 -1.11912 0
M  V30 2163 H 206.188 6.10096 -0.248 0
M  V30 2164 H 207.602 5.23093 -2.3462 0
M  V30 2165 H 205.999 5.1203 -3.12962 0
M  V30 2166 H 207.069 3.70676 -3.12614 0
M  V30 2167 N 208.412 0.89855 1.29475 0
M  V30 2168 C 209.66 0.522847 1.9522 0
M  V30 2169 C 209.981 -0.93371 1.71192 0
M  V30 2170 O 209.251 -1.65823 1.04305 0
M  V30 2171 H 207.831 0.190366 0.722336 0
M  V30 2172 H 210.493 1.14459 1.5775 0
M  V30 2173 H 209.589 0.704476 3.04045 0
M  V30 2174 N 209.89 -1.43072 0.660911 0
M  V30 2175 C 211.138 -2.01323 0.177094 0
M  V30 2176 C 211.459 -1.5245 -1.2159 0
M  V30 2177 O 210.729 -0.740322 -1.81373 0
M  V30 2178 H 209.309 -0.744382 0.0624804 0
M  V30 2179 H 211.971 -1.75179 0.854305 0
M  V30 2180 H 211.067 -3.11649 0.167641 0
M  V30 2181 N 211.368 -0.403325 -1.52352 0
M  V30 2182 C 212.614 0.174605 -2.02047 0
M  V30 2183 C 212.947 1.45282 -1.28867 0
M  V30 2184 O 212.222 1.90483 -0.393257 0
M  V30 2185 C 212.505 0.428238 -3.57545 0
M  V30 2186 C 212.358 -0.866248 -4.4138 0
M  V30 2187 C 213.677 1.21287 -4.23057 0
M  V30 2188 H 210.796 0.0619851 -0.734389 0
M  V30 2189 H 213.438 -0.53565 -1.82293 0
M  V30 2190 H 211.588 1.03327 -3.74507 0
M  V30 2191 H 213.26 -1.50265 -4.3614 0
M  V30 2192 H 211.503 -1.47851 -4.07827 0
M  V30 2193 H 212.174 -0.643249 -5.48239 0
M  V30 2194 H 214.65 0.700703 -4.10158 0
M  V30 2195 H 213.526 1.35909 -5.31808 0
M  V30 2196 H 213.787 2.23193 -3.81625 0
M  V30 2197 N 212.846 1.57033 -0.133567 0
M  V30 2198 C 214.086 1.97575 0.523789 0
M  V30 2199 C 214.45 1.01605 1.62912 0
M  V30 2200 O 215.651 1.3114 2.3464 0
M  V30 2201 C 213.922 3.42256 1.02935 0
M  V30 2202 S 215.481 4.04817 1.69319 0
M  V30 2203 H 212.299 0.690427 0.169799 0
M  V30 2204 H 214.901 1.94234 -0.222101 0
M  V30 2205 H 213.605 4.09842 0.213917 0
M  V30 2206 H 213.136 3.4928 1.81017 0
M  V30 2207 H 215.151 3.96767 2.97977 0
M  V30 2208 N 214.325 -0.140222 1.56975 0
M  V30 2209 C 215.571 -0.852949 1.83991 0
M  V30 2210 C 215.904 -1.80512 0.716187 0
M  V30 2211 O 215.179 -1.92479 -0.279681 0
M  V30 2212 C 215.462 -1.6215 3.21527 0
M  V30 2213 C 215.315 -0.690363 4.4447 0
M  V30 2214 C 216.634 -2.58247 3.56366 0
M  V30 2215 H 213.753 -0.308634 0.669264 0
M  V30 2216 H 216.395 -0.117898 1.89634 0
M  V30 2217 H 214.545 -2.24812 3.16847 0
M  V30 2218 H 216.217 -0.0742264 4.6124 0
M  V30 2219 H 214.46 -0.000396433 4.338 0
M  V30 2220 H 215.131 -1.2643 5.37326 0
M  V30 2221 H 217.607 -2.05701 3.61699 0
M  V30 2222 H 216.483 -3.09067 4.53617 0
M  V30 2223 H 216.744 -3.39923 2.82674 0
M  V30 2224 N 215.803 -1.52179 -0.40978 0
M  V30 2225 C 216.766 -1.74853 -1.48186 0
M  V30 2226 C 217.766 -0.618417 -1.48433 0
M  V30 2227 O 218.956 -0.886286 -1.49969 0
M  V30 2228 C 216.088 -1.8303 -2.87598 0
M  V30 2229 H 217.281 -2.70559 -1.29374 0
M  V30 2230 H 214.834 -1.42586 -0.640233 0
M  V30 2231 H 215.569 -0.89236 -3.11781 0
M  V30 2232 H 215.354 -2.65187 -2.88822 0
M  V30 2233 H 216.844 -2.02316 -3.65319 0
M  V30 2234 N 217.281 0.66697 -1.42791 0
M  V30 2235 C 218.244 1.76211 -1.46568 0
M  V30 2236 C 219.244 1.56896 -0.352196 0
M  V30 2237 O 220.434 1.63044 -0.613364 0
M  V30 2238 C 217.566 3.14935 -1.30494 0
M  V30 2239 H 218.759 1.74247 -2.44086 0
M  V30 2240 H 216.312 0.877342 -1.29354 0
M  V30 2241 H 217.047 3.2252 -0.339301 0
M  V30 2242 H 216.832 3.30359 -2.11199 0
M  V30 2243 H 218.322 3.94821 -1.36038 0
M  V30 2244 N 218.759 1.29093 0.90403 0
M  V30 2245 C 219.984 1.19809 1.69294 0
M  V30 2246 C 220.409 -0.238481 1.86582 0
M  V30 2247 O 219.767 -1.1723 1.383 0
M  V30 2248 C 219.815 1.91202 3.05736 0
M  V30 2249 O 218.919 1.22611 3.93752 0
M  V30 2250 H 218.26 0.415385 0.518027 0
M  V30 2251 H 220.79 1.70586 1.12967 0
M  V30 2252 H 220.8 1.99487 3.55906 0
M  V30 2253 H 219.475 2.95692 2.92471 0
M  V30 2254 H 218.052 1.22554 3.52186 0
M  V30 2255 N 220.237 -1.11381 1.11499 0
M  V30 2256 C 221.653 -1.35143 0.849031 0
M  V30 2257 C 221.853 -1.94515 -0.525938 0
M  V30 2258 O 220.909 -2.1785 -1.27662 0
M  V30 2259 C 222.222 -2.28249 1.95762 0
M  V30 2260 C 223.77 -2.41812 1.98736 0
M  V30 2261 C 224.245 -3.3824 3.088 0
M  V30 2262 N 225.736 -3.45803 3.08179 0
M  V30 2263 C 226.471 -4.20358 3.89982 0
M  V30 2264 N 225.967 -4.97884 4.8175 0
M  V30 2265 N 227.76 -4.15877 3.78157 0
M  V30 2266 H 219.911 -0.712062 2.00109 0
M  V30 2267 H 222.174 -0.376025 0.870235 0
M  V30 2268 H 221.88 -1.91817 2.94787 0
M  V30 2269 H 221.754 -3.28473 1.85433 0
M  V30 2270 H 224.141 -2.77518 1.00338 0
M  V30 2271 H 224.222 -1.41437 2.13141 0
M  V30 2272 H 223.866 -3.03261 4.07425 0
M  V30 2273 H 223.796 -4.38471 2.91635 0
M  V30 2274 H 226.287 -2.90506 2.41691 0
M  V30 2275 H 226.6 -5.52142 5.40702 0
M  V30 2276 H 224.945 -4.97043 4.85771 0
M  V30 2277 H 228.136 -3.544 3.05808 0
M  V30 2278 H 228.309 -4.73723 4.42143 0
M  V30 2279 N 221.715 -0.905404 -1.28997 0
M  V30 2280 C 222.961 -0.535039 -1.95615 0
M  V30 2281 C 223.294 0.917404 -1.71165 0
M  V30 2282 O 222.569 1.65123 -1.02785 0
M  V30 2283 C 222.852 -0.834918 -3.50287 0
M  V30 2284 C 222.705 -2.33948 -3.84172 0
M  V30 2285 C 224.024 -0.325318 -4.38896 0
M  V30 2286 H 221.143 -0.195861 -0.710498 0
M  V30 2287 H 223.785 -1.13313 -1.52513 0
M  V30 2288 H 221.935 -0.325904 -3.87131 0
M  V30 2289 H 223.607 -2.91847 -3.57243 0
M  V30 2290 H 221.85 -2.79789 -3.31513 0
M  V30 2291 H 222.521 -2.49987 -4.92149 0
M  V30 2292 H 224.997 -0.761256 -4.09077 0
M  V30 2293 H 223.873 -0.564295 -5.45992 0
M  V30 2294 H 224.134 0.774144 -4.35269 0
M  V30 2295 N 223.193 1.4272 -0.668489 0
M  V30 2296 C 224.423 2.05668 -0.196063 0
M  V30 2297 C 224.831 1.5028 1.14946 0
M  V30 2298 O 224.174 0.6348 1.72383 0
M  V30 2299 C 224.236 3.59469 -0.0468879 0
M  V30 2300 C 223.9 4.37518 -1.32012 0
M  V30 2301 C 224.897 4.68584 -2.25222 0
M  V30 2302 C 222.582 4.77266 -1.56596 0
M  V30 2303 C 224.576 5.38326 -3.41297 0
M  V30 2304 C 222.263 5.4675 -2.72962 0
M  V30 2305 C 223.261 5.77204 -3.65137 0
M  V30 2306 O 222.949 6.45264 -4.79468 0
M  V30 2307 H 222.681 0.669382 -0.0943599 0
M  V30 2308 H 225.235 1.83954 -0.913788 0
M  V30 2309 H 223.465 3.79817 0.726357 0
M  V30 2310 H 225.154 4.04071 0.384852 0
M  V30 2311 H 225.92 4.38382 -2.07477 0
M  V30 2312 H 221.799 4.52959 -0.857249 0
M  V30 2313 H 225.343 5.62014 -4.13263 0
M  V30 2314 H 221.24 5.76369 -2.90635 0
M  V30 2315 H 222.008 6.63753 -4.78931 0
M  V30 2316 N 224.671 0.411399 1.52136 0
M  V30 2317 C 225.618 -0.412975 2.27075 0
M  V30 2318 C 226.588 -1.03912 1.29582 0
M  V30 2319 O 227.773 -1.06296 1.58448 0
M  V30 2320 C 224.913 -1.52247 3.09701 0
M  V30 2321 C 224.026 -0.917021 4.22155 0
M  V30 2322 C 223.161 -1.9994 4.92135 0
M  V30 2323 C 222.2 -1.37101 5.96548 0
M  V30 2324 N 221.337 -2.39364 6.60038 0
M  V30 2325 H 226.177 0.232499 2.97092 0
M  V30 2326 H 223.714 0.126496 1.46555 0
M  V30 2327 H 225.672 -2.17674 3.55913 0
M  V30 2328 H 224.302 -2.13794 2.41851 0
M  V30 2329 H 223.354 -0.151742 3.80097 0
M  V30 2330 H 224.666 -0.418006 4.97045 0
M  V30 2331 H 223.82 -2.73088 5.41763 0
M  V30 2332 H 222.559 -2.53208 4.16818 0
M  V30 2333 H 221.564 -0.624873 5.46237 0
M  V30 2334 H 222.789 -0.845998 6.7381 0
M  V30 2335 H 220.735 -2.91759 5.87548 0
M  V30 2336 H 220.652 -1.9428 7.3061 0
M  V30 2337 H 221.92 -3.12074 7.14304 0
M  V30 2338 N 226.149 -1.5696 0.141893 0
M  V30 2339 C 227.374 -2.00754 -0.520838 0
M  V30 2340 C 227.799 -1.0213 -1.57959 0
M  V30 2341 O 227.157 0.00371324 -1.813 0
M  V30 2342 C 227.205 -3.43318 -1.10294 0
M  V30 2343 O 226.309 -3.47679 -2.21795 0
M  V30 2344 H 225.65 -0.651564 -0.127908 0
M  V30 2345 H 228.18 -2.03221 0.23712 0
M  V30 2346 H 228.19 -3.82012 -1.43287 0
M  V30 2347 H 226.865 -4.14608 -0.327574 0
M  V30 2348 H 225.442 -3.20824 -1.9007 0
M  V30 2349 N 227.627 0.131896 -1.57047 0
M  V30 2350 C 228.574 1.16236 -1.99393 0
M  V30 2351 C 229.544 1.41863 -0.863943 0
M  V30 2352 O 230.729 1.53946 -1.12718 0
M  V30 2353 C 227.869 2.48708 -2.39245 0
M  V30 2354 C 226.982 2.30127 -3.65603 0
M  V30 2355 C 226.117 3.55738 -3.94492 0
M  V30 2356 C 225.156 3.32259 -5.14073 0
M  V30 2357 N 224.293 4.50039 -5.38896 0
M  V30 2358 H 229.133 0.794251 -2.87221 0
M  V30 2359 H 226.67 0.380707 -1.42088 0
M  V30 2360 H 228.628 3.25969 -2.60384 0
M  V30 2361 H 227.258 2.83437 -1.54478 0
M  V30 2362 H 226.31 1.43845 -3.52154 0
M  V30 2363 H 227.622 2.08746 -4.5302 0
M  V30 2364 H 226.776 4.41423 -4.1621 0
M  V30 2365 H 225.515 3.80138 -3.05526 0
M  V30 2366 H 224.52 2.44963 -4.92212 0
M  V30 2367 H 225.745 3.09242 -6.04604 0
M  V30 2368 H 223.691 4.74584 -4.52886 0
M  V30 2369 H 223.608 4.31716 -6.2061 0
M  V30 2370 H 224.876 5.36895 -5.65123 0
M  V30 2371 N 229.106 1.52395 0.401703 0
M  V30 2372 C 230.522 1.41363 0.740864 0
M  V30 2373 C 230.722 0.523982 1.94568 0
M  V30 2374 O 229.778 -0.00741204 2.52499 0
M  V30 2375 C 231.091 2.84011 0.987847 0
M  V30 2376 C 232.639 2.93404 1.09011 0
M  V30 2377 C 233.114 4.37036 1.3698 0
M  V30 2378 N 234.605 4.40304 1.43829 0
M  V30 2379 C 235.34 5.48508 1.67112 0
M  V30 2380 N 234.836 6.66819 1.87949 0
M  V30 2381 N 236.629 5.36034 1.69187 0
M  V30 2382 H 228.78 2.08765 -0.391262 0
M  V30 2383 H 231.043 0.941265 -0.112798 0
M  V30 2384 H 230.749 3.51265 0.174835 0
M  V30 2385 H 230.623 3.25502 1.906 0
M  V30 2386 H 233.01 2.26325 1.8937 0
M  V30 2387 H 233.091 2.55359 0.15015 0
M  V30 2388 H 232.735 5.04676 0.571353 0
M  V30 2389 H 232.665 4.72623 2.3224 0
M  V30 2390 H 235.156 3.55024 1.29486 0
M  V30 2391 H 235.469 7.45063 2.05185 0
M  V30 2392 H 233.814 6.6987 1.85199 0
M  V30 2393 H 237.005 4.42579 1.52451 0
M  V30 2394 H 237.178 6.20434 1.86993 0
M  V30 2395 N 230.584 -0.659388 1.43143 0
M  V30 2396 C 231.532 -1.79374 1.4808 0
M  V30 2397 C 232.526 -1.65639 0.354988 0
M  V30 2398 O 233.732 -1.7206 0.528704 0
M  V30 2399 H 230.107 -0.591705 0.4641 0
M  V30 2400 H 232.078 -1.72329 2.43609 0
M  V30 2401 C 230.827 -3.17606 1.41499 0
M  V30 2402 H 230.15 -3.28809 2.27431 0
M  V30 2403 H 231.59 -3.96951 1.49015 0
M  V30 2404 C 230.049 -3.36642 0.131765 0
M  V30 2405 O 230.579 -3.93461 -0.809386 0
M  V30 2406 N 228.785 -2.90567 0.0439396 0
M  V30 2407 H 228.332 -2.44513 0.810619 0
M  V30 2408 H 228.29 -3.03681 -0.813969 0
M  V30 2409 N 232.062 -1.29571 -0.897171 0
M  V30 2410 C 233.311 -1.1706 -1.64256 0
M  V30 2411 C 233.624 0.276476 -1.93636 0
M  V30 2412 O 234.83 0.52294 -2.66416 0
M  V30 2413 C 233.286 -2.0475 -2.95982 0
M  V30 2414 C 232.894 -3.54295 -2.74187 0
M  V30 2415 C 234.638 -2.0097 -3.73914 0
M  V30 2416 C 232.545 -4.34081 -4.01656 0
M  V30 2417 H 231.475 -0.43452 -0.616205 0
M  V30 2418 H 234.126 -1.54229 -0.994268 0
M  V30 2419 H 232.508 -1.60452 -3.62038 0
M  V30 2420 H 233.682 -4.06662 -2.1671 0
M  V30 2421 H 231.997 -3.59773 -2.09648 0
M  V30 2422 H 234.594 -2.57838 -4.68427 0
M  V30 2423 H 234.937 -0.990273 -4.0435 0
M  V30 2424 H 235.47 -2.43325 -3.14703 0
M  V30 2425 H 232.209 -5.36671 -3.76384 0
M  V30 2426 H 231.729 -3.86483 -4.58684 0
M  V30 2427 H 233.408 -4.44877 -4.69781 0
M  V30 2428 N 233.54 1.10788 -1.12088 0
M  V30 2429 C 234.789 1.82036 -0.868659 0
M  V30 2430 C 235.102 1.85929 0.607426 0
M  V30 2431 O 236.308 2.53346 0.97613 0
M  V30 2432 C 234.764 3.26951 -1.50435 0
M  V30 2433 C 234.372 3.31367 -3.01496 0
M  V30 2434 C 236.116 4.03053 -1.33225 0
M  V30 2435 C 234.023 4.7072 -3.58017 0
M  V30 2436 H 232.953 0.682108 -0.321318 0
M  V30 2437 H 235.604 1.24618 -1.34694 0
M  V30 2438 H 233.986 3.84343 -0.953735 0
M  V30 2439 H 235.16 2.83819 -3.6302 0
M  V30 2440 H 233.475 2.6875 -3.18061 0
M  V30 2441 H 236.072 5.05981 -1.72878 0
M  V30 2442 H 236.415 4.15387 -0.275529 0
M  V30 2443 H 236.948 3.52066 -1.85188 0
M  V30 2444 H 233.687 4.63585 -4.63432 0
M  V30 2445 H 233.207 5.1865 -3.01268 0
M  V30 2446 H 234.886 5.39685 -3.56859 0
M  V30 2447 N 235.018 0.912232 1.28515 0
M  V30 2448 C 235.948 0.416403 2.29757 0
M  V30 2449 C 236.929 -0.515194 1.6211 0
M  V30 2450 O 238.114 -0.423253 1.89532 0
M  V30 2451 C 235.244 -0.34572 3.45575 0
M  V30 2452 C 234.198 0.496599 4.25109 0
M  V30 2453 C 233.524 -0.393771 5.33248 0
M  V30 2454 C 234.824 1.75307 4.92001 0
M  V30 2455 H 236.518 1.26249 2.7148 0
M  V30 2456 H 234.064 0.608515 1.30511 0
M  V30 2457 H 236.017 -0.703422 4.15488 0
M  V30 2458 H 234.741 -1.2257 3.02728 0
M  V30 2459 H 233.4 0.8368 3.56922 0
M  V30 2460 H 233.048 -1.27225 4.86644 0
M  V30 2461 H 232.748 0.166209 5.87365 0
M  V30 2462 H 234.272 -0.747389 6.06009 0
M  V30 2463 H 235.686 1.46437 5.54283 0
M  V30 2464 H 234.083 2.25534 5.56106 0
M  V30 2465 H 235.153 2.48176 4.16577 0
M  V30 2466 N 236.496 -1.42363 0.676048 0
M  V30 2467 C 237.744 -2.01123 0.198437 0
M  V30 2468 C 238.065 -1.53731 -1.19966 0
M  V30 2469 O 237.335 -0.759518 -1.80577 0
M  V30 2470 H 235.915 -0.743678 0.0703721 0
M  V30 2471 H 238.577 -1.74263 0.872837 0
M  V30 2472 H 237.673 -3.11454 0.200686 0
M  V30 2473 N 237.974 -0.419461 -1.51915 0
M  V30 2474 C 238.937 0.389116 -2.25873 0
M  V30 2475 C 239.937 0.964924 -1.28631 0
M  V30 2476 O 241.127 0.842179 -1.52489 0
M  V30 2477 C 238.259 1.54874 -3.03689 0
M  V30 2478 H 239.452 -0.258799 -2.98781 0
M  V30 2479 H 237.005 -0.172209 -1.55348 0
M  V30 2480 H 237.74 2.23323 -2.35154 0
M  V30 2481 H 237.525 1.14223 -3.75094 0
M  V30 2482 H 239.015 2.12046 -3.59759 0
M  V30 2483 N 239.452 1.56882 -0.150215 0
M  V30 2484 C 240.7 1.9584 0.499105 0
M  V30 2485 C 241.021 1.03623 1.65188 0
M  V30 2486 O 240.291 0.0984084 1.95653 0
M  V30 2487 H 238.871 0.723119 0.187373 0
M  V30 2488 H 241.533 1.9358 -0.226466 0
M  V30 2489 H 240.629 2.99638 0.873122 0
M  V30 2490 N 240.93 -0.123565 1.57115 0
M  V30 2491 C 242.179 -0.830704 1.83799 0
M  V30 2492 C 242.492 -1.81259 0.735158 0
M  V30 2493 O 243.698 -2.56558 0.888278 0
M  V30 2494 C 242.154 -1.52802 3.25852 0
M  V30 2495 C 241.762 -0.587356 4.44133 0
M  V30 2496 C 243.506 -2.22056 3.61789 0
M  V30 2497 C 241.413 -1.28764 5.77212 0
M  V30 2498 H 240.343 -0.313967 0.685522 0
M  V30 2499 H 242.994 -0.0834359 1.8331 0
M  V30 2500 H 241.376 -2.32175 3.20797 0
M  V30 2501 H 242.55 0.172829 4.60476 0
M  V30 2502 H 240.865 -0.00201892 4.164 0
M  V30 2503 H 243.462 -2.75131 4.58483 0
M  V30 2504 H 243.805 -2.99644 2.88997 0
M  V30 2505 H 244.338 -1.49576 3.68608 0
M  V30 2506 H 241.077 -0.55314 6.53162 0
M  V30 2507 H 240.597 -2.01995 5.64764 0
M  V30 2508 H 242.276 -1.8221 6.20813 0
M  V30 2509 N 242.408 -1.52605 -0.393616 0
M  V30 2510 C 243.338 -1.80022 -1.48709 0
M  V30 2511 C 244.319 -0.651995 -1.57108 0
M  V30 2512 O 245.504 -0.89913 -1.72132 0
M  V30 2513 C 242.634 -1.96492 -2.86371 0
M  V30 2514 C 241.588 -3.12161 -2.92813 0
M  V30 2515 C 240.914 -3.13877 -4.3288 0
M  V30 2516 C 242.214 -4.51322 -2.6288 0
M  V30 2517 H 243.908 -2.71589 -1.26015 0
M  V30 2518 H 241.454 -1.30684 -0.604778 0
M  V30 2519 H 243.407 -2.14255 -3.62867 0
M  V30 2520 H 242.131 -1.01611 -3.10391 0
M  V30 2521 H 240.79 -2.94173 -2.18764 0
M  V30 2522 H 240.438 -2.16687 -4.53933 0
M  V30 2523 H 240.138 -3.91576 -4.38112 0
M  V30 2524 H 241.662 -3.33789 -5.1129 0
M  V30 2525 H 243.076 -4.69435 -3.29096 0
M  V30 2526 H 241.473 -5.31053 -2.79468 0
M  V30 2527 H 242.543 -4.58353 -1.58242 0
M  V30 2528 N 243.887 0.651787 -1.4349 0
M  V30 2529 C 245.134 1.41167 -1.45183 0
M  V30 2530 C 245.462 1.94349 -0.0766601 0
M  V30 2531 O 244.717 1.72804 0.918555 0
M  V30 2532 C 245.016 2.60914 -2.44251 0
M  V30 2533 C 244.682 2.26142 -3.9009 0
M  V30 2534 C 243.344 2.16371 -4.2981 0
M  V30 2535 C 245.696 1.98334 -4.81989 0
M  V30 2536 C 243.024 1.7695 -5.5938 0
M  V30 2537 C 245.376 1.6041 -6.11924 0
M  V30 2538 C 244.04 1.49166 -6.5062 0
M  V30 2539 H 243.31 0.516566 -0.531263 0
M  V30 2540 H 245.957 0.741099 -1.76579 0
M  V30 2541 H 244.262 3.3311 -2.06265 0
M  V30 2542 H 245.959 3.19127 -2.42815 0
M  V30 2543 H 242.549 2.34658 -3.58655 0
M  V30 2544 H 246.733 2.04803 -4.52072 0
M  V30 2545 H 241.989 1.66831 -5.88198 0
M  V30 2546 H 246.163 1.37925 -6.82605 0
M  V30 2547 H 243.79 1.1839 -7.50925 0
M  V30 2548 N 245.365 1.30045 0.890287 0
M  V30 2549 C 246.611 1.18737 1.64406 0
M  V30 2550 C 246.944 -0.258525 1.92472 0
M  V30 2551 O 246.219 -1.18562 1.54186 0
M  V30 2552 C 246.502 2.01087 2.98724 0
M  V30 2553 C 246.355 3.53867 2.77665 0
M  V30 2554 C 247.674 1.84457 3.9958 0
M  V30 2555 H 244.793 0.432698 0.596608 0
M  V30 2556 H 247.435 1.5962 1.0306 0
M  V30 2557 H 245.585 1.66349 3.51084 0
M  V30 2558 H 247.257 3.98637 2.32133 0
M  V30 2559 H 245.5 3.78318 2.12269 0
M  V30 2560 H 246.171 4.06772 3.7315 0
M  V30 2561 H 248.647 2.14817 3.56361 0
M  V30 2562 H 247.523 2.44411 4.91482 0
M  V30 2563 H 247.784 0.802276 4.3476 0
M  V30 2564 N 246.843 -1.10192 1.12674 0
M  V30 2565 C 247.806 -2.14786 0.799979 0
M  V30 2566 C 248.806 -1.59711 -0.18685 0
M  V30 2567 O 249.996 -1.74156 0.0392558 0
M  V30 2568 C 247.128 -3.40374 0.189228 0
M  V30 2569 H 248.321 -2.45203 1.72671 0
M  V30 2570 H 245.874 -1.25597 0.930326 0
M  V30 2571 H 246.609 -3.15577 -0.747107 0
M  V30 2572 H 246.394 -3.81637 0.899766 0
M  V30 2573 H 247.884 -4.17594 -0.0228143 0
M  V30 2574 N 248.321 -0.919034 -1.28029 0
M  V30 2575 C 249.284 -0.416182 -2.2539 0
M  V30 2576 C 250.284 0.460438 -1.54067 0
M  V30 2577 O 251.474 0.262744 -1.72207 0
M  V30 2578 C 248.606 0.402707 -3.38513 0
M  V30 2579 H 249.799 -1.27629 -2.71387 0
M  V30 2580 H 247.352 -0.698919 -1.39803 0
M  V30 2581 H 248.087 1.282 -2.97885 0
M  V30 2582 H 247.872 -0.225698 -3.9145 0
M  V30 2583 H 249.362 0.745191 -4.10897 0
M  V30 2584 N 249.799 1.42003 -0.683588 0
M  V30 2585 C 251.047 2.01015 -0.209101 0
M  V30 2586 C 251.368 1.54365 1.19149 0
M  V30 2587 O 250.638 0.769083 1.80172 0
M  V30 2588 H 249.218 0.743294 -0.074315 0
M  V30 2589 H 251.88 1.73798 -0.882066 0
M  V30 2590 H 250.976 3.11343 -0.2172 0
M  V30 2591 N 251.277 0.427512 1.51691 0
M  V30 2592 C 252.207 -0.3796 2.30394 0
M  V30 2593 C 253.188 -1.02982 1.35384 0
M  V30 2594 O 254.373 -1.03534 1.643 0
M  V30 2595 C 251.503 -1.48649 3.1388 0
M  V30 2596 C 250.457 -0.960294 4.17088 0
M  V30 2597 C 249.783 -2.16219 4.89033 0
M  V30 2598 C 251.083 -0.00153679 5.223 0
M  V30 2599 H 252.777 0.277164 2.98114 0
M  V30 2600 H 250.323 0.134739 1.43368 0
M  V30 2601 H 252.276 -2.05826 3.67714 0
M  V30 2602 H 251 -2.1714 2.43962 0
M  V30 2603 H 249.659 -0.410806 3.64291 0
M  V30 2604 H 249.307 -2.83307 4.15628 0
M  V30 2605 H 249.007 -1.81654 5.58816 0
M  V30 2606 H 250.531 -2.73968 5.45687 0
M  V30 2607 H 251.945 -0.482687 5.71264 0
M  V30 2608 H 250.342 0.256199 5.99553 0
M  V30 2609 H 251.412 0.938174 4.75738 0
M  V30 2610 N 252.755 -1.56801 0.158532 0
M  V30 2611 C 253.98 -2.01295 -0.499516 0
M  V30 2612 C 254.405 -1.03799 -1.56867 0
M  V30 2613 O 253.763 -0.0155162 -1.81293 0
M  V30 2614 C 253.811 -3.44469 -1.06647 0
M  V30 2615 O 252.915 -3.50012 -2.18095 0
M  V30 2616 H 252.256 -0.652884 -0.12099 0
M  V30 2617 H 254.786 -2.02958 0.258661 0
M  V30 2618 H 254.796 -3.8351 -1.39227 0
M  V30 2619 H 253.471 -4.14932 -0.283581 0
M  V30 2620 H 252.048 -3.22822 -1.86656 0
M  V30 2621 N 254.233 0.115231 -1.57178 0
M  V30 2622 C 255.181 1.16014 -2.01602 0
M  V30 2623 C 256.175 1.42653 -0.913587 0
M  V30 2624 O 257.381 1.42571 -1.09879 0
M  V30 2625 H 253.756 0.391252 -0.642204 0
M  V30 2626 H 255.727 0.758998 -2.88586 0
M  V30 2627 C 254.476 2.47767 -2.4394 0
M  V30 2628 H 253.799 2.28108 -3.28339 0
M  V30 2629 H 255.239 3.19432 -2.78818 0
M  V30 2630 C 253.698 3.10617 -1.30455 0
M  V30 2631 O 254.228 3.96846 -0.622585 0
M  V30 2632 N 252.434 2.70553 -1.06064 0
M  V30 2633 H 251.981 2.00527 -1.61699 0
M  V30 2634 H 251.939 3.12934 -0.303284 0
M  V30 2635 N 255.711 1.52812 0.385517 0
M  V30 2636 C 256.96 1.67249 1.12741 0
M  V30 2637 C 257.273 0.4205 1.91027 0
M  V30 2638 O 258.479 0.445064 2.67827 0
M  V30 2639 C 256.935 2.95583 2.05326 0
M  V30 2640 C 256.543 4.27974 1.32447 0
M  V30 2641 C 258.287 3.19386 2.7963 0
M  V30 2642 C 256.194 5.47412 2.23818 0
M  V30 2643 H 255.124 0.6231 0.424573 0
M  V30 2644 H 257.775 1.79309 0.389924 0
M  V30 2645 H 256.157 2.77277 2.82725 0
M  V30 2646 H 257.331 4.56844 0.602495 0
M  V30 2647 H 255.646 4.10459 0.700885 0
M  V30 2648 H 258.243 4.05801 3.48181 0
M  V30 2649 H 258.586 2.34604 3.43899 0
M  V30 2650 H 259.119 3.38274 2.09322 0
M  V30 2651 H 255.858 6.34612 1.64157 0
M  V30 2652 H 255.378 5.22849 2.93921 0
M  V30 2653 H 257.057 5.81423 2.83824 0
M  V30 2654 N 257.189 -0.644168 1.43834 0
M  V30 2655 C 258.438 -1.39985 1.45214 0
M  V30 2656 C 258.751 -1.95421 0.0835494 0
M  V30 2657 O 259.957 -2.71488 -0.0251748 0
M  V30 2658 C 258.413 -2.53384 2.55587 0
M  V30 2659 C 258.021 -2.04517 3.98594 0
M  V30 2660 C 259.765 -3.30685 2.66172 0
M  V30 2661 C 257.672 -3.1518 5.00416 0
M  V30 2662 H 256.602 -0.526005 0.540218 0
M  V30 2663 H 259.253 -0.694367 1.69855 0
M  V30 2664 H 257.635 -3.26446 2.24163 0
M  V30 2665 H 258.809 -1.38405 4.39523 0
M  V30 2666 H 257.124 -1.40068 3.92135 0
M  V30 2667 H 259.721 -4.13158 3.39418 0
M  V30 2668 H 260.064 -3.79312 1.71546 0
M  V30 2669 H 260.597 -2.64708 2.96942 0
M  V30 2670 H 257.336 -2.71511 5.96625 0
M  V30 2671 H 256.856 -3.79974 4.64091 0
M  V30 2672 H 258.535 -3.80166 5.23529 0
M  V30 2673 N 258.668 -1.30515 -0.883378 0
M  V30 2674 C 259.916 -1.19194 -1.63209 0
M  V30 2675 C 260.237 0.253205 -1.93349 0
M  V30 2676 O 259.507 1.17025 -1.57105 0
M  V30 2677 H 258.087 -0.438148 -0.605009 0
M  V30 2678 H 260.749 -1.63663 -1.05832 0
M  V30 2679 H 259.845 -1.75396 -2.58153 0
M  V30 2680 N 260.146 1.09593 -1.13257 0
M  V30 2681 C 261.392 1.82003 -0.89458 0
M  V30 2682 C 261.725 1.85402 0.577906 0
M  V30 2683 O 261 1.32099 1.42759 0
M  V30 2684 C 261.283 3.28237 -1.48096 0
M  V30 2685 C 261.136 3.3312 -3.02244 0
M  V30 2686 C 262.455 4.24871 -1.14774 0
M  V30 2687 H 259.574 0.66077 -0.326424 0
M  V30 2688 H 262.216 1.28389 -1.40058 0
M  V30 2689 H 260.366 3.74024 -1.05062 0
M  V30 2690 H 262.038 2.95748 -3.54021 0
M  V30 2691 H 260.281 2.72756 -3.37323 0
M  V30 2692 H 260.952 4.3613 -3.38371 0
M  V30 2693 H 263.428 3.87361 -1.51957 0
M  V30 2694 H 262.304 5.25532 -1.58452 0
M  V30 2695 H 262.565 4.42058 -0.0611849 0
M  V30 2696 N 261.624 0.925811 1.2754 0
M  V30 2697 C 262.873 0.561084 1.93739 0
M  V30 2698 C 263.186 -0.901685 1.73577 0
M  V30 2699 O 264.392 -1.37511 2.34101 0
M  V30 2700 C 262.848 0.952668 3.47062 0
M  V30 2701 C 262.456 2.43599 3.75983 0
M  V30 2702 C 264.2 0.659103 4.19352 0
M  V30 2703 C 262.107 2.76707 5.22673 0
M  V30 2704 H 261.037 0.206122 0.725279 0
M  V30 2705 H 263.688 1.12637 1.44863 0
M  V30 2706 H 262.07 0.316053 3.94737 0
M  V30 2707 H 263.244 3.12035 3.39073 0
M  V30 2708 H 261.559 2.70125 3.16893 0
M  V30 2709 H 264.156 0.882985 5.27359 0
M  V30 2710 H 264.499 -0.403607 4.14339 0
M  V30 2711 H 265.032 1.25473 3.77494 0
M  V30 2712 H 261.771 3.8188 5.32774 0
M  V30 2713 H 261.291 2.12919 5.60737 0
M  V30 2714 H 262.97 2.6435 5.90532 0
M  V30 2715 N 263.102 -1.41638 0.69111 0
M  V30 2716 C 264.348 -2.01598 0.220519 0
M  V30 2717 C 264.681 -1.54594 -1.17535 0
M  V30 2718 O 263.956 -0.755177 -1.79241 0
M  V30 2719 C 264.239 -3.59062 0.273243 0
M  V30 2720 C 264.092 -4.16203 1.70573 0
M  V30 2721 C 265.411 -4.38546 -0.369457 0
M  V30 2722 H 262.53 -0.732468 0.0816045 0
M  V30 2723 H 265.172 -1.68445 0.878986 0
M  V30 2724 H 263.322 -3.87435 -0.287411 0
M  V30 2725 H 264.994 -3.98722 2.31989 0
M  V30 2726 H 263.237 -3.71414 2.2413 0
M  V30 2727 H 263.908 -5.25358 1.69419 0
M  V30 2728 H 266.384 -4.1596 0.107977 0
M  V30 2729 H 265.26 -5.48069 -0.302002 0
M  V30 2730 H 265.521 -4.17662 -1.44951 0
M  V30 2731 N 264.58 -0.43555 -1.51462 0
M  V30 2732 C 265.81 0.130053 -2.0619 0
M  V30 2733 C 266.218 1.37164 -1.30317 0
M  V30 2734 O 265.561 1.80225 -0.355598 0
M  V30 2735 C 265.623 0.519418 -3.55728 0
M  V30 2736 C 265.287 -0.615119 -4.52841 0
M  V30 2737 C 266.284 -1.48671 -4.9819 0
M  V30 2738 C 263.969 -0.795341 -4.95963 0
M  V30 2739 C 265.963 -2.52324 -5.8533 0
M  V30 2740 C 263.65 -1.83514 -5.82894 0
M  V30 2741 C 264.648 -2.69748 -6.27475 0
M  V30 2742 O 264.336 -3.71944 -7.1268 0
M  V30 2743 H 264.068 0.0121612 -0.675891 0
M  V30 2744 H 266.622 -0.6129 -1.96043 0
M  V30 2745 H 264.852 1.31505 -3.63653 0
M  V30 2746 H 266.541 1.01597 -3.92979 0
M  V30 2747 H 267.307 -1.359 -4.65571 0
M  V30 2748 H 263.186 -0.133713 -4.60806 0
M  V30 2749 H 266.73 -3.19665 -6.20048 0
M  V30 2750 H 262.627 -1.96306 -6.14926 0
M  V30 2751 H 263.395 -3.68503 -7.30854 0
M  V30 2752 N 266.058 1.56714 -0.166846 0
M  V30 2753 C 267.307 1.95922 0.479318 0
M  V30 2754 C 267.62 1.05529 1.6469 0
M  V30 2755 O 268.826 1.34399 2.35901 0
M  V30 2756 C 267.282 3.48359 0.90412 0
M  V30 2757 C 266.89 4.47369 -0.237621 0
M  V30 2758 C 268.634 3.96394 1.51896 0
M  V30 2759 C 266.541 5.91039 0.206561 0
M  V30 2760 H 265.471 0.731495 0.18284 0
M  V30 2761 H 268.122 1.81728 -0.254363 0
M  V30 2762 H 266.504 3.57955 1.69365 0
M  V30 2763 H 267.678 4.49485 -1.01489 0
M  V30 2764 H 265.993 4.09366 -0.762128 0
M  V30 2765 H 268.59 5.01186 1.86325 0
M  V30 2766 H 268.933 3.39075 2.41524 0
M  V30 2767 H 269.466 3.89796 0.79395 0
M  V30 2768 H 266.205 6.52221 -0.654834 0
M  V30 2769 H 265.725 5.9224 0.949282 0
M  V30 2770 H 267.404 6.43707 0.651939 0
M  V30 2771 N 267.536 -0.106894 1.57237 0
M  V30 2772 C 268.761 -0.830287 1.90055 0
M  V30 2773 C 269.186 -1.72064 0.75998 0
M  V30 2774 O 268.544 -1.78982 -0.288991 0
M  V30 2775 C 268.592 -1.6295 3.21683 0
M  V30 2776 O 267.696 -2.73748 3.08441 0
M  V30 2777 H 267.037 -0.228855 0.623315 0
M  V30 2778 H 269.567 -0.085658 2.04421 0
M  V30 2779 H 269.577 -2.01621 3.54701 0
M  V30 2780 H 268.252 -0.975989 4.04286 0
M  V30 2781 H 266.829 -2.38192 2.86913 0
M  V30 2782 N 269.014 -1.53014 -0.377408 0
M  V30 2783 C 269.977 -1.77957 -1.44444 0
M  V30 2784 C 270.977 -0.649763 -1.47087 0
M  V30 2785 O 272.167 -0.917897 -1.48055 0
M  V30 2786 C 269.299 -1.89089 -2.83651 0
M  V30 2787 H 270.492 -2.73243 -1.23606 0
M  V30 2788 H 268.045 -1.43912 -0.609844 0
M  V30 2789 H 268.78 -0.958293 -3.09818 0
M  V30 2790 H 268.565 -2.71254 -2.83132 0
M  V30 2791 H 270.055 -2.1002 -3.60945 0
M  V30 2792 N 270.492 0.636531 -1.44174 0
M  V30 2793 C 271.44 1.76995 -1.50915 0
M  V30 2794 C 272.434 1.65053 -0.381295 0
M  V30 2795 O 273.64 1.71197 -0.55601 0
M  V30 2796 H 270.015 0.584247 -0.473455 0
M  V30 2797 H 271.986 1.68432 -2.4632 0
M  V30 2798 C 270.735 3.15314 -1.46534 0
M  V30 2799 H 270.058 3.25149 -2.32633 0
M  V30 2800 H 271.498 3.9453 -1.55312 0
M  V30 2801 C 269.957 3.3639 -0.185305 0
M  V30 2802 O 270.487 3.94699 0.746688 0
M  V30 2803 N 268.693 2.9046 -0.0901606 0
M  V30 2804 H 268.24 2.43193 -0.849416 0
M  V30 2805 H 268.198 3.04937 0.765553 0
M  V30 2806 N 271.97 1.30982 0.876444 0
M  V30 2807 C 272.933 1.18054 1.96459 0
M  V30 2808 C 273.933 0.109399 1.60427 0
M  V30 2809 O 275.123 0.358173 1.70478 0
M  V30 2810 C 272.255 0.810616 3.31122 0
M  V30 2811 H 273.448 2.14735 2.09354 0
M  V30 2812 H 271.001 1.145 1.06392 0
M  V30 2813 H 271.736 -0.155322 3.23928 0
M  V30 2814 H 271.521 1.58481 3.58645 0
M  V30 2815 H 273.011 0.743876 4.10921 0
M  V30 2816 N 273.449 -1.08991 1.13837 0
M  V30 2817 C 274.697 -1.80899 0.901098 0
M  V30 2818 C 275.018 -1.86356 -0.574134 0
M  V30 2819 O 274.288 -1.35235 -1.41733 0
M  V30 2820 H 272.868 -0.669966 0.330386 0
M  V30 2821 H 275.53 -1.318 1.43578 0
M  V30 2822 H 274.626 -2.83929 1.29578 0
M  V30 2823 N 274.927 -0.932562 -1.27047 0
M  V30 2824 C 275.837 -0.441219 -2.30414 0
M  V30 2825 C 276.853 0.480525 -1.67233 0
M  V30 2826 O 278.029 0.362151 -1.98117 0
M  V30 2827 C 275.094 0.293651 -3.45454 0
M  V30 2828 C 274.155 -0.663601 -4.2414 0
M  V30 2829 C 273.388 0.0362932 -5.33688 0
M  V30 2830 O 273.611 1.2548 -5.56427 0
M  V30 2831 O 272.545 -0.638015 -5.98509 0
M  V30 2832 H 276.371 -1.29962 -2.74488 0
M  V30 2833 H 273.956 -0.6981 -1.32087 0
M  V30 2834 H 275.838 0.707951 -4.15411 0
M  V30 2835 H 274.513 1.12758 -3.03426 0
M  V30 2836 H 273.42 -1.12768 -3.56699 0
M  V30 2837 H 274.753 -1.46489 -4.69896 0
M  V30 2838 N 276.405 1.4127 -0.698611 0
M  V30 2839 C 277.816 1.84187 -0.305289 0
M  V30 2840 C 278.167 1.58449 1.15708 0
M  V30 2841 O 277.292 1.05651 1.88856 0
M  V30 2842 C 277.887 3.3435 -0.547314 0
M  V30 2843 C 276.446 3.75826 -0.207878 0
M  V30 2844 C 275.593 2.64647 -0.828099 0
M  V30 2845 H 278.544 1.30778 -0.89904 0
M  V30 2846 H 278.565 3.8001 0.192998 0
M  V30 2847 H 278.077 3.53051 -1.61172 0
M  V30 2848 H 276.178 3.62725 0.852143 0
M  V30 2849 H 276.291 4.74462 -0.665021 0
M  V30 2850 H 274.655 2.53395 -0.257458 0
M  V30 2851 H 275.438 2.86165 -1.89643 0
M  V30 2852 N 277.883 0.443576 1.51229 0
M  V30 2853 C 279.131 -0.120557 2.0174 0
M  V30 2854 C 279.452 -1.42665 1.32935 0
M  V30 2855 O 278.722 -1.9028 0.465866 0
M  V30 2856 H 277.302 -0.0475426 0.745486 0
M  V30 2857 H 279.964 0.587711 1.85828 0
M  V30 2858 H 279.06 -0.291972 3.10731 0
M  V30 2859 N 279.361 -1.56624 0.175154 0
M  V30 2860 C 280.772 -1.83561 -0.340916 0
M  V30 2861 C 281.123 -1.09511 -1.62794 0
M  V30 2862 O 280.248 -0.349389 -2.13561 0
M  V30 2863 C 280.843 -3.32979 -0.625313 0
M  V30 2864 C 279.402 -3.60399 -1.08581 0
M  V30 2865 C 278.549 -2.77024 -0.123722 0
M  V30 2866 H 281.5 -1.53593 0.399344 0
M  V30 2867 H 281.521 -3.50666 -1.47694 0
M  V30 2868 H 281.033 -3.86847 0.311575 0
M  V30 2869 H 279.134 -3.11945 -2.03767 0
M  V30 2870 H 279.247 -4.68711 -0.992317 0
M  V30 2871 H 277.611 -2.46993 -0.621821 0
M  V30 2872 H 278.394 -3.33674 0.807256 0
M  V30 2873 N 280.839 0.0985539 -1.57292 0
M  V30 2874 C 281.786 1.11981 -2.01814 0
M  V30 2875 C 282.756 1.39999 -0.89384 0
M  V30 2876 O 283.941 1.5152 -1.15958 0
M  V30 2877 C 281.081 2.43577 -2.44467 0
M  V30 2878 C 280.194 2.2232 -3.70402 0
M  V30 2879 C 279.329 3.4729 -4.01949 0
M  V30 2880 C 278.368 3.2128 -5.21005 0
M  V30 2881 N 277.505 4.38507 -5.48321 0
M  V30 2882 H 282.345 0.733149 -2.88841 0
M  V30 2883 H 279.882 0.350482 -1.42864 0
M  V30 2884 H 281.84 3.20373 -2.6724 0
M  V30 2885 H 280.47 2.80097 -1.60455 0
M  V30 2886 H 279.522 1.36343 -3.55126 0
M  V30 2887 H 280.834 1.99089 -4.57345 0
M  V30 2888 H 279.988 4.32495 -4.25479 0
M  V30 2889 H 278.727 3.73572 -3.13521 0
M  V30 2890 H 277.732 2.34468 -4.97298 0
M  V30 2891 H 278.957 2.96348 -6.11028 0
M  V30 2892 H 276.903 4.64871 -4.62851 0
M  V30 2893 H 276.82 4.18455 -6.29628 0
M  V30 2894 H 278.088 5.24787 -5.76385 0
M  V30 2895 N 282.317 1.53212 0.369288 0
M  V30 2896 C 283.733 1.42902 0.710712 0
M  V30 2897 C 283.933 0.565135 1.93413 0
M  V30 2898 O 282.989 0.0461484 2.52458 0
M  V30 2899 C 284.302 2.86042 0.927382 0
M  V30 2900 C 285.85 2.9565 1.02762 0
M  V30 2901 C 286.325 4.39843 1.27679 0
M  V30 2902 N 287.816 4.43256 1.34457 0
M  V30 2903 C 288.551 5.51929 1.55439 0
M  V30 2904 N 288.047 6.70655 1.73762 0
M  V30 2905 N 289.84 5.39502 1.57779 0
M  V30 2906 H 281.991 2.07888 -0.435457 0
M  V30 2907 H 284.254 0.938661 -0.132739 0
M  V30 2908 H 283.96 3.51557 0.100287 0
M  V30 2909 H 283.834 3.29472 1.83653 0
M  V30 2910 H 286.221 2.30291 1.84527 0
M  V30 2911 H 286.302 2.5562 0.0959504 0
M  V30 2912 H 285.946 5.05774 0.464175 0
M  V30 2913 H 285.876 4.77443 2.22162 0
M  V30 2914 H 288.367 3.5769 1.21926 0
M  V30 2915 H 288.68 7.49248 1.89335 0
M  V30 2916 H 287.025 6.73648 1.70948 0
M  V30 2917 H 290.216 4.45713 1.43029 0
M  V30 2918 H 290.389 6.2426 1.7379 0
M  V30 2919 N 283.795 -0.628877 1.44509 0
M  V30 2920 C 285.072 -1.38733 1.37886 0
M  V30 2921 C 285.452 -2.11065 0.0387008 0
M  V30 2922 O 284.8 -2.06476 -0.97878 0
M  V30 2923 C 285.01 -2.35188 2.57852 0
M  V30 2924 C 286.358 -2.9845 3.02014 0
M  V30 2925 O 287.382 -2.45513 2.58073 0
M  V30 2926 O 286.241 -3.94487 3.78209 0
M  V30 2927 H 283.335 -0.621015 0.54614 0
M  V30 2928 H 285.881 -0.653744 1.56602 0
M  V30 2929 H 284.653 -1.80855 3.46998 0
M  V30 2930 H 284.276 -3.1596 2.4136 0
M  V30 2931 N 285.273 -1.31445 -0.869486 0
M  V30 2932 C 286.183 -1.21097 -2.0093 0
M  V30 2933 C 287.199 -0.127584 -1.73532 0
M  V30 2934 O 288.375 -0.345477 -1.98415 0
M  V30 2935 C 285.44 -0.919378 -3.34288 0
M  V30 2936 C 284.501 -2.08971 -3.75006 0
M  V30 2937 C 283.734 -1.81194 -5.02001 0
M  V30 2938 O 283.957 -0.747296 -5.65484 0
M  V30 2939 O 282.891 -2.66883 -5.39497 0
M  V30 2940 H 286.717 -2.16883 -2.12592 0
M  V30 2941 H 284.302 -1.11189 -0.997868 0
M  V30 2942 H 286.184 -0.772625 -4.14257 0
M  V30 2943 H 284.859 0.00844772 -3.23699 0
M  V30 2944 H 283.766 -2.29187 -2.95676 0
M  V30 2945 H 285.099 -2.9998 -3.90221 0
M  V30 2946 N 286.751 1.08385 -1.14413 0
M  V30 2947 C 287.661 2.18856 -0.844951 0
M  V30 2948 C 288.677 1.73121 0.174668 0
M  V30 2949 O 289.853 2.014 0.00312857 0
M  V30 2950 C 286.918 3.45155 -0.32696 0
M  V30 2951 C 285.979 4.05513 -1.40916 0
M  V30 2952 C 285.212 5.25784 -0.915793 0
M  V30 2953 O 285.435 5.69884 0.242651 0
M  V30 2954 O 284.369 5.77545 -1.69487 0
M  V30 2955 H 288.195 2.46919 -1.76818 0
M  V30 2956 H 285.78 1.17524 -0.922411 0
M  V30 2957 H 287.662 4.21377 -0.0440211 0
M  V30 2958 H 286.337 3.18668 0.568539 0
M  V30 2959 H 285.244 3.30879 -1.74556 0
M  V30 2960 H 286.577 4.3625 -2.27919 0
M  V30 2961 N 288.23 0.939286 1.26551 0
M  V30 2962 C 289.177 0.446088 2.26448 0
M  V30 2963 C 290.147 -0.493234 1.58608 0
M  V30 2964 O 291.332 -0.409857 1.86346 0
M  V30 2965 C 288.472 -0.284375 3.43926 0
M  V30 2966 C 287.585 0.690399 4.26448 0
M  V30 2967 C 286.72 -0.0610712 5.31165 0
M  V30 2968 C 285.759 0.905649 6.05363 0
M  V30 2969 N 284.896 0.186055 7.01853 0
M  V30 2970 H 289.736 1.30291 2.68008 0
M  V30 2971 H 287.273 0.65371 1.31776 0
M  V30 2972 H 289.231 -0.724313 4.10864 0
M  V30 2973 H 287.861 -1.10535 3.03285 0
M  V30 2974 H 286.913 1.24885 3.59316 0
M  V30 2975 H 288.225 1.42873 4.779 0
M  V30 2976 H 287.379 -0.56038 6.04106 0
M  V30 2977 H 286.118 -0.832297 4.80546 0
M  V30 2978 H 285.123 1.4161 5.3125 0
M  V30 2979 H 286.348 1.67685 6.58072 0
M  V30 2980 H 284.294 -0.566714 6.53548 0
M  V30 2981 H 284.211 0.863752 7.51049 0
M  V30 2982 H 285.479 -0.292221 7.78952 0
M  V30 2983 N 289.708 -1.40897 0.706093 0
M  V30 2984 C 290.655 -2.30751 0.0474474 0
M  V30 2985 C 291.625 -1.47678 -0.76029 0
M  V30 2986 O 292.81 -1.76441 -0.726177 0
M  V30 2987 C 289.95 -3.33815 -0.875309 0
M  V30 2988 C 289.063 -4.31961 -0.0580623 0
M  V30 2989 C 288.198 -5.22093 -0.979425 0
M  V30 2990 C 287.237 -6.11902 -0.155706 0
M  V30 2991 N 286.374 -6.94482 -1.03144 0
M  V30 2992 H 291.214 -2.86513 0.819413 0
M  V30 2993 H 288.751 -1.41102 0.415783 0
M  V30 2994 H 290.709 -3.92129 -1.42446 0
M  V30 2995 H 289.339 -2.79579 -1.61356 0
M  V30 2996 H 288.391 -3.75507 0.608147 0
M  V30 2997 H 289.703 -4.95415 0.580082 0
M  V30 2998 H 288.857 -5.85292 -1.59744 0
M  V30 2999 H 287.596 -4.5889 -1.65141 0
M  V30 3000 H 286.601 -5.47742 0.475309 0
M  V30 3001 H 287.826 -6.77162 0.512635 0
M  V30 3002 H 285.772 -6.33877 -1.68924 0
M  V30 3003 H 285.689 -7.54665 -0.449108 0
M  V30 3004 H 286.957 -7.6214 -1.63593 0
M  V30 3005 N 291.186 -0.45159 -1.50991 0
M  V30 3006 C 292.134 0.366864 -2.29689 0
M  V30 3007 C 293.128 1.00809 -1.36139 0
M  V30 3008 O 294.334 0.941427 -1.53418 0
M  V30 3009 H 290.709 0.137133 -0.739391 0
M  V30 3010 H 292.68 -0.317538 -2.96706 0
M  V30 3011 C 291.429 1.44751 -3.16137 0
M  V30 3012 H 290.752 0.963473 -3.88017 0
M  V30 3013 H 292.192 1.99315 -3.74232 0
M  V30 3014 C 290.651 2.43869 -2.32442 0
M  V30 3015 O 291.181 3.4872 -1.99392 0
M  V30 3016 N 289.387 2.15105 -1.95392 0
M  V30 3017 H 288.934 1.29866 -2.22469 0
M  V30 3018 H 288.892 2.81661 -1.39693 0
M  V30 3019 N 292.664 1.56529 -0.183458 0
M  V30 3020 C 293.614 2.1515 0.754605 0
M  V30 3021 C 294.598 1.08904 1.18443 0
M  V30 3022 O 295.79 1.34997 1.14476 0
M  V30 3023 C 292.919 2.80531 1.97881 0
M  V30 3024 C 292.005 3.93952 1.57043 0
M  V30 3025 N 292.396 4.98221 0.87231 0
M  V30 3026 C 290.694 4.05338 1.86057 0
M  V30 3027 C 291.395 5.77836 0.669377 0
M  V30 3028 N 290.371 5.29858 1.21454 0
M  V30 3029 H 294.173 2.93132 0.212387 0
M  V30 3030 H 291.687 1.62391 0.0167725 0
M  V30 3031 H 293.684 3.20914 2.6612 0
M  V30 3032 H 292.344 2.04035 2.52586 0
M  V30 3033 H 293.355 5.15191 0.529033 0
M  V30 3034 H 290.032 3.39957 2.42354 0
M  V30 3035 H 291.422 6.71799 0.116422 0
M  V30 3036 N 294.142 -0.090211 1.57342 0
M  V30 3037 C 295.372 -0.805055 1.90269 0
M  V30 3038 C 295.78 -1.72561 0.775842 0
M  V30 3039 O 295.123 -1.81839 -0.260843 0
M  V30 3040 C 295.185 -1.66734 3.18497 0
M  V30 3041 C 294.849 -0.918092 4.47683 0
M  V30 3042 C 295.846 -0.245674 5.19319 0
M  V30 3043 C 293.531 -0.890724 4.94339 0
M  V30 3044 C 295.525 0.444088 6.35851 0
M  V30 3045 C 293.212 -0.197179 6.10782 0
M  V30 3046 C 294.21 0.469044 6.81388 0
M  V30 3047 O 293.898 1.15146 7.95611 0
M  V30 3048 H 293.63 -0.235143 0.633785 0
M  V30 3049 H 296.184 -0.0703805 2.05279 0
M  V30 3050 H 294.414 -2.44437 2.99646 0
M  V30 3051 H 296.103 -2.25919 3.37217 0
M  V30 3052 H 296.869 -0.258246 4.84312 0
M  V30 3053 H 292.748 -1.39873 4.39268 0
M  V30 3054 H 296.292 0.964667 6.90898 0
M  V30 3055 H 292.189 -0.18247 6.45242 0
M  V30 3056 H 292.957 1.05885 8.11622 0
M  V30 3057 N 295.62 -1.53406 -0.361157 0
M  V30 3058 C 296.845 -1.74024 -1.12829 0
M  V30 3059 C 297.27 -0.470069 -1.82132 0
M  V30 3060 O 296.628 0.57619 -1.719 0
M  V30 3061 C 296.676 -2.90903 -2.13091 0
M  V30 3062 O 295.78 -2.59821 -3.20261 0
M  V30 3063 H 295.121 -0.577804 -0.327168 0
M  V30 3064 H 297.651 -2.00307 -0.41693 0
M  V30 3065 H 297.661 -3.17194 -2.56616 0
M  V30 3066 H 296.336 -3.83034 -1.62042 0
M  V30 3067 H 294.913 -2.44362 -2.81677 0
M  V30 3068 N 297.098 0.621204 -1.44841 0
M  V30 3069 C 298.328 1.40548 -1.51426 0
M  V30 3070 C 298.736 1.88673 -0.141083 0
M  V30 3071 O 298.079 1.62053 0.865128 0
M  V30 3072 C 298.141 2.65325 -2.42576 0
M  V30 3073 C 297.805 2.3893 -3.89566 0
M  V30 3074 C 298.802 2.00138 -4.79834 0
M  V30 3075 C 296.487 2.52263 -4.3436 0
M  V30 3076 C 298.481 1.75021 -6.129 0
M  V30 3077 C 296.168 2.2676 -5.67471 0
M  V30 3078 C 297.166 1.88199 -6.56559 0
M  V30 3079 O 296.854 1.62986 -7.87204 0
M  V30 3080 H 296.586 0.437122 -0.515655 0
M  V30 3081 H 299.14 0.765987 -1.90583 0
M  V30 3082 H 297.37 3.31947 -1.98364 0
M  V30 3083 H 299.059 3.27347 -2.39998 0
M  V30 3084 H 299.825 1.89386 -4.46495 0
M  V30 3085 H 295.704 2.81246 -3.65269 0
M  V30 3086 H 299.248 1.44848 -6.82396 0
M  V30 3087 H 295.145 2.37125 -6.00368 0
M  V30 3088 H 295.913 1.7715 -7.991 0
M  V30 3089 N 298.576 1.31904 0.862503 0
M  V30 3090 C 299.824 1.21776 1.61292 0
M  V30 3091 C 300.145 -0.222413 1.93727 0
M  V30 3092 O 299.415 -1.1451 1.58947 0
M  V30 3093 H 297.995 0.447717 0.597962 0
M  V30 3094 H 300.657 1.65326 1.03215 0
M  V30 3095 H 299.753 1.7948 2.5533 0
M  V30 3096 N 300.054 -1.07777 1.14986 0
M  V30 3097 C 301.3 -1.80719 0.93339 0
M  V30 3098 C 301.655 -1.8484 -0.534019 0
M  V30 3099 O 300.948 -1.31795 -1.3907 0
M  V30 3100 C 301.142 -3.25495 1.47608 0
M  V30 3101 C 300.971 -3.3548 2.99472 0
M  V30 3102 C 299.741 -3.46293 3.6798 0
M  V30 3103 C 301.939 -3.26596 3.97291 0
M  V30 3104 N 299.921 -3.45136 5.07695 0
M  V30 3105 C 301.292 -3.32506 5.23297 0
M  V30 3106 C 303.347 -3.10376 3.89321 0
M  V30 3107 C 302.05 -3.23866 6.42264 0
M  V30 3108 C 304.076 -3.03069 5.07842 0
M  V30 3109 C 303.438 -3.09587 6.32721 0
M  V30 3110 H 299.537 -0.674814 0.395158 0
M  V30 3111 H 302.121 -1.28681 1.46114 0
M  V30 3112 H 300.292 -3.75963 0.975022 0
M  V30 3113 H 302.024 -3.86535 1.19887 0
M  V30 3114 H 298.779 -3.50456 3.18555 0
M  V30 3115 H 299.203 -3.48097 5.80653 0
M  V30 3116 H 303.845 -3.04194 2.93642 0
M  V30 3117 H 301.563 -3.28807 7.38181 0
M  V30 3118 H 305.149 -2.91629 5.03432 0
M  V30 3119 H 304.029 -3.0397 7.22891 0
M  V30 3120 N 301.532 -0.945985 -1.26051 0
M  V30 3121 C 302.757 -0.612525 -1.98149 0
M  V30 3122 C 303.182 0.806623 -1.69927 0
M  V30 3123 O 302.54 1.54411 -0.950108 0
M  V30 3124 C 302.588 -0.866981 -3.50023 0
M  V30 3125 O 301.692 0.0585333 -4.12358 0
M  V30 3126 H 301.033 -0.23379 -0.621481 0
M  V30 3127 H 303.563 -1.27023 -1.60395 0
M  V30 3128 H 303.573 -0.789792 -4.00283 0
M  V30 3129 H 302.248 -1.90135 -3.69894 0
M  V30 3130 H 300.825 -0.0701241 -3.72834 0
M  V30 3131 N 303.011 1.40521 -0.713556 0
M  V30 3132 C 304.258 2.00923 -0.25219 0
M  V30 3133 C 304.586 1.56571 1.15395 0
M  V30 3134 O 303.841 0.775874 1.79663 0
M  V30 3135 C 304.14 3.56317 -0.278 0
M  V30 3136 C 303.806 4.20246 -1.63415 0
M  V30 3137 C 302.468 4.37422 -2.00538 0
M  V30 3138 C 304.82 4.55923 -2.52554 0
M  V30 3139 C 302.148 4.87558 -3.2635 0
M  V30 3140 C 304.5 5.07458 -3.77716 0
M  V30 3141 C 303.164 5.22843 -4.14959 0
M  V30 3142 H 302.434 0.735231 -0.0922829 0
M  V30 3143 H 305.081 1.68161 -0.916188 0
M  V30 3144 H 303.386 3.88976 0.469567 0
M  V30 3145 H 305.083 4.00883 0.0967819 0
M  V30 3146 H 301.673 4.07263 -1.33546 0
M  V30 3147 H 305.857 4.42291 -2.25149 0
M  V30 3148 H 301.113 4.97654 -3.55176 0
M  V30 3149 H 305.287 5.34041 -4.4696 0
M  V30 3150 H 302.914 5.61454 -5.12516 0
M  V30 3151 N 304.489 0.459591 1.5075 0
M  V30 3152 C 305.719 -0.0972338 2.06371 0
M  V30 3153 C 306.127 -1.35074 1.32483 0
M  V30 3154 O 305.47 -1.79637 0.384226 0
M  V30 3155 C 305.532 -0.462759 3.56509 0
M  V30 3156 C 305.196 0.687084 4.51805 0
M  V30 3157 C 306.193 1.56578 4.95761 0
M  V30 3158 C 303.878 0.874144 4.94635 0
M  V30 3159 C 305.872 2.61604 5.81242 0
M  V30 3160 C 303.559 1.92765 5.79901 0
M  V30 3161 C 304.557 2.79697 6.23104 0
M  V30 3162 O 304.245 3.83235 7.06673 0
M  V30 3163 H 303.977 -0.00140687 0.675999 0
M  V30 3164 H 306.531 0.644011 1.95043 0
M  V30 3165 H 304.761 -1.25703 3.65699 0
M  V30 3166 H 306.45 -0.953323 3.94546 0
M  V30 3167 H 307.216 1.4329 4.6335 0
M  V30 3168 H 303.095 0.207006 4.60535 0
M  V30 3169 H 306.639 3.29489 6.14884 0
M  V30 3170 H 302.536 2.06064 6.11725 0
M  V30 3171 H 303.304 3.80084 7.24899 0
M  V30 3172 N 305.967 -1.56429 0.191757 0
M  V30 3173 C 307.214 -1.97485 -0.447891 0
M  V30 3174 C 307.542 -1.07852 -1.61859 0
M  V30 3175 O 306.797 -0.116903 -1.95351 0
M  V30 3176 C 307.096 -3.44449 -0.953384 0
M  V30 3177 C 306.762 -4.50781 0.103586 0
M  V30 3178 C 305.424 -4.79584 0.394023 0
M  V30 3179 C 307.776 -5.1471 0.819946 0
M  V30 3180 C 305.104 -5.69607 1.40585 0
M  V30 3181 C 307.456 -6.05827 1.8209 0
M  V30 3182 C 306.12 -6.32987 2.11857 0
M  V30 3183 H 305.39 -0.722648 -0.163895 0
M  V30 3184 H 308.037 -1.89322 0.28802 0
M  V30 3185 H 306.342 -3.49666 -1.76751 0
M  V30 3186 H 308.039 -3.73569 -1.45765 0
M  V30 3187 H 304.629 -4.28394 -0.132951 0
M  V30 3188 H 308.813 -4.92552 0.608789 0
M  V30 3189 H 304.069 -5.88926 1.64243 0
M  V30 3190 H 308.243 -6.54424 2.38123 0
M  V30 3191 H 305.87 -7.02544 2.90407 0
M  V30 3192 N 307.445 0.0818655 -1.57387 0
M  V30 3193 C 308.693 0.781368 -1.86384 0
M  V30 3194 C 309.014 1.78618 -0.782342 0
M  V30 3195 O 308.284 1.94976 0.190061 0
M  V30 3196 H 306.864 0.291562 -0.687751 0
M  V30 3197 H 309.526 0.060348 -1.94807 0
M  V30 3198 H 308.622 1.3038 -2.83562 0
M  V30 3199 N 308.923 1.53595 0.353017 0
M  V30 3200 C 310.171 1.70049 1.09215 0
M  V30 3201 C 310.492 0.461406 1.89463 0
M  V30 3202 O 309.762 -0.524633 1.88744 0
M  V30 3203 H 308.342 0.626912 0.40619 0
M  V30 3204 H 311.004 1.90822 0.396585 0
M  V30 3205 H 310.1 2.56718 1.77488 0
M  V30 3206 N 310.401 -0.613514 1.45168 0
M  V30 3207 C 311.331 -1.7354 1.56225 0
M  V30 3208 C 312.312 -1.64981 0.41414 0
M  V30 3209 O 313.497 -1.83472 0.636526 0
M  V30 3210 C 310.627 -3.12128 1.52295 0
M  V30 3211 C 309.581 -3.35491 2.65762 0
M  V30 3212 C 308.907 -4.74291 2.46885 0
M  V30 3213 C 310.207 -3.26325 4.0781 0
M  V30 3214 H 311.901 -1.64543 2.50132 0
M  V30 3215 H 309.447 -0.790185 1.20383 0
M  V30 3216 H 311.4 -3.90404 1.58628 0
M  V30 3217 H 310.124 -3.2195 0.549139 0
M  V30 3218 H 308.783 -2.59603 2.58847 0
M  V30 3219 H 308.431 -4.80839 1.47657 0
M  V30 3220 H 308.131 -4.9088 3.22972 0
M  V30 3221 H 309.655 -5.54775 2.55063 0
M  V30 3222 H 311.069 -3.94483 4.16 0
M  V30 3223 H 309.466 -3.54445 4.8424 0
M  V30 3224 H 310.536 -2.23855 4.30136 0
M  V30 3225 N 311.879 -1.3236 -0.855495 0
M  V30 3226 C 313.104 -1.2601 -1.64731 0
M  V30 3227 C 313.529 0.169068 -1.87339 0
M  V30 3228 O 312.887 1.12016 -1.42556 0
M  V30 3229 C 312.935 -2.02417 -2.98429 0
M  V30 3230 O 312.039 -1.3714 -3.8893 0
M  V30 3231 H 311.38 -0.434325 -0.502253 0
M  V30 3232 H 313.91 -1.74661 -1.06558 0
M  V30 3233 H 313.92 -2.12559 -3.48257 0
M  V30 3234 H 312.595 -3.06343 -2.81295 0
M  V30 3235 H 311.172 -1.3554 -3.47395 0
M  V30 3236 N 313.357 1.07166 -1.15556 0
M  V30 3237 C 314.604 1.79798 -0.931604 0
M  V30 3238 C 314.932 1.8682 0.54115 0
M  V30 3239 O 314.187 1.34942 1.41736 0
M  V30 3240 C 314.486 3.24707 -1.49332 0
M  V30 3241 C 314.152 3.37781 -2.98688 0
M  V30 3242 C 312.814 3.41057 -3.39461 0
M  V30 3243 C 315.166 3.40424 -3.94665 0
M  V30 3244 C 312.494 3.4458 -4.74849 0
M  V30 3245 C 314.846 3.45485 -5.29927 0
M  V30 3246 C 313.51 3.47039 -5.70193 0
M  V30 3247 H 312.78 0.657928 -0.340898 0
M  V30 3248 H 315.427 1.26091 -1.44129 0
M  V30 3249 H 313.732 3.81208 -0.904859 0
M  V30 3250 H 315.429 3.79486 -1.29582 0
M  V30 3251 H 312.019 3.35932 -2.66172 0
M  V30 3252 H 316.203 3.37113 -3.64237 0
M  V30 3253 H 311.459 3.44083 -5.05388 0
M  V30 3254 H 315.633 3.46476 -6.04092 0
M  V30 3255 H 313.26 3.49522 -6.75084 0
M  V30 3256 N 314.835 0.952656 1.25548 0
M  V30 3257 C 316.084 0.602053 1.92505 0
M  V30 3258 C 316.397 -0.864663 1.75451 0
M  V30 3259 O 317.603 -1.32514 2.36965 0
M  V30 3260 C 316.059 1.02607 3.44963 0
M  V30 3261 C 315.667 2.51519 3.70732 0
M  V30 3262 C 317.411 0.747905 4.1786 0
M  V30 3263 C 315.318 2.87732 5.16686 0
M  V30 3264 H 314.248 0.22146 0.720744 0
M  V30 3265 H 316.899 1.15684 1.42441 0
M  V30 3266 H 315.281 0.399712 3.93978 0
M  V30 3267 H 316.455 3.19157 3.32378 0
M  V30 3268 H 314.77 2.76786 3.11092 0
M  V30 3269 H 317.367 0.994647 5.25367 0
M  V30 3270 H 317.71 -0.315629 4.15102 0
M  V30 3271 H 318.243 1.33452 3.74747 0
M  V30 3272 H 314.982 3.93095 5.24554 0
M  V30 3273 H 314.502 2.24765 5.56094 0
M  V30 3274 H 316.181 2.76817 5.84792 0
M  V30 3275 N 316.313 -1.40141 0.720998 0
M  V30 3276 C 317.243 -2.33339 0.0867621 0
M  V30 3277 C 318.224 -1.53178 -0.739622 0
M  V30 3278 O 319.409 -1.81625 -0.687449 0
M  V30 3279 C 316.539 -3.37194 -0.831728 0
M  V30 3280 C 315.493 -4.27857 -0.110558 0
M  V30 3281 C 314.819 -5.22294 -1.14513 0
M  V30 3282 C 316.119 -5.11872 1.0385 0
M  V30 3283 H 317.813 -2.86626 0.865219 0
M  V30 3284 H 315.359 -1.37814 0.417516 0
M  V30 3285 H 317.312 -4.01335 -1.28485 0
M  V30 3286 H 316.036 -2.82314 -1.64214 0
M  V30 3287 H 314.695 -3.65176 0.322797 0
M  V30 3288 H 314.343 -4.63717 -1.94874 0
M  V30 3289 H 314.043 -5.83797 -0.667446 0
M  V30 3290 H 315.567 -5.89312 -1.59824 0
M  V30 3291 H 316.981 -5.69436 0.664482 0
M  V30 3292 H 315.378 -5.82445 1.4449 0
M  V30 3293 H 316.448 -4.4753 1.86668 0
M  V30 3294 N 317.792 -0.46758 -1.50504 0
M  V30 3295 C 318.755 0.317059 -2.26996 0
M  V30 3296 C 319.755 0.923513 -1.31635 0
M  V30 3297 O 320.945 0.793239 -1.55091 0
M  V30 3298 C 318.077 1.45134 -3.08462 0
M  V30 3299 H 319.27 -0.353723 -2.97807 0
M  V30 3300 H 316.823 -0.221545 -1.54722 0
M  V30 3301 H 317.558 2.15728 -2.4214 0
M  V30 3302 H 317.343 1.02232 -3.78538 0
M  V30 3303 H 318.833 2.00493 -3.66323 0
M  V30 3304 N 319.27 1.56325 -0.20005 0
M  V30 3305 C 320.18 2.22931 0.730668 0
M  V30 3306 C 321.196 1.22997 1.23076 0
M  V30 3307 O 322.372 1.55748 1.27689 0
M  V30 3308 C 319.437 2.87948 1.93098 0
M  V30 3309 C 318.498 4.03166 1.47497 0
M  V30 3310 C 317.731 4.65073 2.61807 0
M  V30 3311 O 317.954 4.25913 3.79413 0
M  V30 3312 O 316.888 5.54452 2.34237 0
M  V30 3313 H 320.714 3.03084 0.193391 0
M  V30 3314 H 318.299 1.49371 0.0294621 0
M  V30 3315 H 320.181 3.29063 2.6324 0
M  V30 3316 H 318.856 2.10771 2.45677 0
M  V30 3317 H 317.763 3.66664 0.742201 0
M  V30 3318 H 319.096 4.82022 0.995796 0
M  V30 3319 N 320.748 -0.0735177 1.57428 0
M  V30 3320 C 321.994 -0.774145 1.87443 0
M  V30 3321 C 322.327 -1.77311 0.792103 0
M  V30 3322 O 321.602 -1.93492 -0.197793 0
M  V30 3323 C 321.885 -1.48367 3.28115 0
M  V30 3324 C 321.738 -0.501227 4.46999 0
M  V30 3325 C 323.057 -2.429 3.66998 0
M  V30 3326 H 320.176 -0.279971 0.681752 0
M  V30 3327 H 322.818 -0.0373616 1.89963 0
M  V30 3328 H 320.968 -2.11171 3.26097 0
M  V30 3329 H 322.64 0.121468 4.6114 0
M  V30 3330 H 320.883 0.183593 4.33411 0
M  V30 3331 H 321.554 -1.03526 5.42205 0
M  V30 3332 H 324.03 -1.90175 3.70098 0
M  V30 3333 H 322.906 -2.89549 4.66318 0
M  V30 3334 H 323.167 -3.27628 2.96837 0
M  V30 3335 N 322.226 -1.5378 -0.344866 0
M  V30 3336 C 323.475 -1.7018 -1.08267 0
M  V30 3337 C 323.788 -0.471 -1.89845 0
M  V30 3338 O 324.994 -0.515917 -2.66553 0
M  V30 3339 C 323.45 -3.00923 -1.97417 0
M  V30 3340 C 323.058 -4.31335 -1.21053 0
M  V30 3341 C 324.802 -3.26688 -2.71063 0
M  V30 3342 C 322.709 -5.53153 -2.09225 0
M  V30 3343 H 321.639 -0.634138 -0.407903 0
M  V30 3344 H 324.29 -1.8028 -0.342246 0
M  V30 3345 H 322.672 -2.84676 -2.75274 0
M  V30 3346 H 323.846 -4.58281 -0.481159 0
M  V30 3347 H 322.161 -4.12173 -0.591813 0
M  V30 3348 H 324.758 -4.1489 -3.37299 0
M  V30 3349 H 325.101 -2.43639 -3.37558 0
M  V30 3350 H 325.634 -3.43705 -2.0028 0
M  V30 3351 H 322.373 -6.38741 -1.47274 0
M  V30 3352 H 321.893 -5.30458 -2.79955 0
M  V30 3353 H 323.572 -5.88744 -2.68308 0
M  V30 3354 N 323.704 0.605807 -1.45491 0
M  V30 3355 C 324.952 1.36207 -1.49305 0
M  V30 3356 C 325.273 1.94519 -0.136863 0
M  V30 3357 O 324.543 1.77261 0.833983 0
M  V30 3358 H 323.123 0.50565 -0.549843 0
M  V30 3359 H 325.785 0.711239 -1.81459 0
M  V30 3360 H 324.881 2.18058 -2.23287 0
M  V30 3361 N 325.182 1.32811 0.848464 0
M  V30 3362 C 326.428 1.23907 1.60546 0
M  V30 3363 C 326.761 -0.197161 1.93197 0
M  V30 3364 O 326.036 -1.13596 1.5788 0
M  V30 3365 C 326.319 2.10489 2.92175 0
M  V30 3366 C 326.172 3.62522 2.66266 0
M  V30 3367 C 327.491 1.97075 3.93509 0
M  V30 3368 H 324.61 0.451459 0.58254 0
M  V30 3369 H 327.252 1.62818 0.979296 0
M  V30 3370 H 325.402 1.77434 3.45614 0
M  V30 3371 H 327.074 4.05821 2.19334 0
M  V30 3372 H 325.317 3.84879 2.00126 0
M  V30 3373 H 325.988 4.18437 3.6002 0
M  V30 3374 H 328.464 2.26045 3.49346 0
M  V30 3375 H 327.34 2.59923 4.83457 0
M  V30 3376 H 327.601 0.940186 4.31987 0
M  V30 3377 N 326.66 -1.06551 1.16123 0
M  V30 3378 C 327.59 -2.15935 0.88851 0
M  V30 3379 C 328.571 -1.69306 -0.164135 0
M  V30 3380 O 329.756 -1.94193 -0.0167857 0
M  V30 3381 C 326.886 -3.45149 0.385942 0
M  V30 3382 C 325.84 -4.05271 1.3762 0
M  V30 3383 C 325.166 -5.29664 0.732137 0
M  V30 3384 C 326.466 -4.44355 2.74493 0
M  V30 3385 H 328.16 -2.39006 1.80323 0
M  V30 3386 H 325.706 -1.14866 0.868435 0
M  V30 3387 H 327.659 -4.21004 0.182647 0
M  V30 3388 H 326.383 -3.21689 -0.564274 0
M  V30 3389 H 325.042 -3.3147 1.56599 0
M  V30 3390 H 324.69 -5.02499 -0.224483 0
M  V30 3391 H 324.39 -5.70848 1.39307 0
M  V30 3392 H 325.914 -6.08218 0.538802 0
M  V30 3393 H 327.328 -5.11303 2.59311 0
M  V30 3394 H 325.725 -4.96515 3.37035 0
M  V30 3395 H 326.795 -3.55339 3.29943 0
M  V30 3396 N 328.138 -0.959301 -1.25041 0
M  V30 3397 C 329.101 -0.487677 -2.23952 0
M  V30 3398 C 330.101 0.41119 -1.55454 0
M  V30 3399 O 331.291 0.207825 -1.72956 0
M  V30 3400 C 328.423 0.294807 -3.39623 0
M  V30 3401 H 329.616 -1.36198 -2.67189 0
M  V30 3402 H 327.169 -0.743042 -1.37508 0
M  V30 3403 H 327.904 1.18658 -3.01813 0
M  V30 3404 H 327.689 -0.35012 -3.90534 0
M  V30 3405 H 329.179 0.614089 -4.1306 0
M  V30 3406 N 329.616 1.39756 -0.72842 0
M  V30 3407 C 330.862 2.00942 -0.273892 0
M  V30 3408 C 331.195 1.57656 1.13394 0
M  V30 3409 O 330.47 0.802434 1.77176 0
M  V30 3410 C 330.753 3.58211 -0.368346 0
M  V30 3411 C 330.606 4.11534 -1.81548 0
M  V30 3412 C 331.925 4.39372 0.253054 0
M  V30 3413 H 329.044 0.730047 -0.100996 0
M  V30 3414 H 331.686 1.66056 -0.923337 0
M  V30 3415 H 329.836 3.88061 0.184588 0
M  V30 3416 H 331.508 3.92431 -2.42478 0
M  V30 3417 H 329.751 3.65341 -2.33898 0
M  V30 3418 H 330.422 5.20682 -1.83288 0
M  V30 3419 H 332.898 4.15527 -0.218224 0
M  V30 3420 H 331.774 5.48677 0.156585 0
M  V30 3421 H 332.035 4.21358 1.33826 0
M  V30 3422 N 331.094 0.475555 1.50254 0
M  V30 3423 C 332.042 -0.330276 2.30243 0
M  V30 3424 C 333.036 -0.986306 1.37726 0
M  V30 3425 O 334.242 -0.9169 1.54897 0
M  V30 3426 H 330.617 -0.125353 0.741479 0
M  V30 3427 H 332.588 0.364702 2.96163 0
M  V30 3428 C 331.337 -1.39704 3.18399 0
M  V30 3429 H 330.66 -0.901621 3.89501 0
M  V30 3430 H 332.1 -1.93336 3.77355 0
M  V30 3431 C 330.559 -2.4014 2.36293 0
M  V30 3432 O 331.089 -3.45504 2.04914 0
M  V30 3433 N 329.295 -2.1197 1.98789 0
M  V30 3434 H 328.842 -1.2631 2.24507 0
M  V30 3435 H 328.8 -2.79403 1.44157 0
M  V30 3436 N 332.573 -1.56217 0.208337 0
M  V30 3437 C 333.822 -1.97124 -0.427204 0
M  V30 3438 C 334.135 -1.09859 -1.61835 0
M  V30 3439 O 335.341 -1.40606 -2.32255 0
M  V30 3440 C 333.797 -3.50633 -0.811442 0
M  V30 3441 C 333.405 -4.46582 0.35615 0
M  V30 3442 C 335.149 -4.00282 -1.41332 0
M  V30 3443 C 333.056 -5.91379 -0.0497852 0
M  V30 3444 H 331.986 -0.736086 -0.163381 0
M  V30 3445 H 334.637 -1.8099 0.302456 0
M  V30 3446 H 333.019 -3.62319 -1.59815 0
M  V30 3447 H 334.193 -4.46636 1.1337 0
M  V30 3448 H 332.508 -4.07202 0.870396 0
M  V30 3449 H 335.105 -5.0595 -1.72972 0
M  V30 3450 H 335.448 -3.45359 -2.32449 0
M  V30 3451 H 335.981 -3.91764 -0.690323 0
M  V30 3452 H 332.72 -6.50255 0.827529 0
M  V30 3453 H 332.24 -5.94549 -0.791926 0
M  V30 3454 H 333.919 -6.45209 -0.481042 0
M  V30 3455 N 334.051 0.0651679 -1.57465 0
M  V30 3456 C 335.281 0.774683 -1.91526 0
M  V30 3457 C 335.689 1.71305 -0.803196 0
M  V30 3458 O 335.032 1.82231 0.231881 0
M  V30 3459 C 335.094 1.61645 -3.21109 0
M  V30 3460 C 334.758 0.846753 -4.49087 0
M  V30 3461 C 335.755 0.163024 -5.19644 0
M  V30 3462 C 333.44 0.811966 -4.95694 0
M  V30 3463 C 335.434 -0.54519 -6.35064 0
M  V30 3464 C 333.121 0.0999836 -6.11018 0
M  V30 3465 C 334.119 -0.577388 -6.80555 0
M  V30 3466 O 333.807 -1.27789 -7.93678 0
M  V30 3467 H 333.539 0.225031 -0.637446 0
M  V30 3468 H 336.093 0.0377134 -2.05365 0
M  V30 3469 H 334.323 2.39638 -3.03497 0
M  V30 3470 H 336.012 2.20525 -3.40769 0
M  V30 3471 H 336.778 0.181163 -4.84662 0
M  V30 3472 H 332.657 1.32867 -4.41438 0
M  V30 3473 H 336.201 -1.07446 -6.89276 0
M  V30 3474 H 332.098 0.0797945 -6.45451 0
M  V30 3475 H 332.866 -1.18784 -8.09835 0
M  V30 3476 N 335.529 1.53961 0.336706 0
M  V30 3477 C 336.778 1.70751 1.07363 0
M  V30 3478 C 337.091 0.481061 1.89592 0
M  V30 3479 O 338.297 0.530046 2.66276 0
M  V30 3480 C 336.753 3.01965 1.95818 0
M  V30 3481 C 336.361 4.31971 1.18764 0
M  V30 3482 C 338.105 3.28121 2.69327 0
M  V30 3483 C 336.012 5.54255 2.06289 0
M  V30 3484 H 334.942 0.636292 0.404535 0
M  V30 3485 H 337.593 1.80459 0.332681 0
M  V30 3486 H 335.975 2.86132 2.7376 0
M  V30 3487 H 337.149 4.5853 0.456849 0
M  V30 3488 H 335.464 4.12481 0.569946 0
M  V30 3489 H 338.061 4.16673 3.35094 0
M  V30 3490 H 338.404 2.45426 3.36261 0
M  V30 3491 H 338.937 3.44762 1.98454 0
M  V30 3492 H 335.676 6.39513 1.43885 0
M  V30 3493 H 335.196 5.31935 2.77138 0
M  V30 3494 H 336.875 5.90159 2.65182 0
M  V30 3495 N 337.007 -0.598083 1.45811 0
M  V30 3496 C 337.917 -1.73632 1.57763 0
M  V30 3497 C 338.933 -1.67763 0.461676 0
M  V30 3498 O 340.109 -1.87949 0.723685 0
M  V30 3499 C 337.174 -3.10114 1.55018 0
M  V30 3500 C 336.235 -3.27364 2.77726 0
M  V30 3501 C 335.468 -4.57334 2.75102 0
M  V30 3502 O 335.691 -5.40258 1.8297 0
M  V30 3503 O 334.625 -4.77502 3.66437 0
M  V30 3504 H 338.451 -1.66498 2.53992 0
M  V30 3505 H 336.036 -0.763308 1.28429 0
M  V30 3506 H 337.918 -3.9141 1.56129 0
M  V30 3507 H 336.593 -3.17718 0.619431 0
M  V30 3508 H 335.5 -2.45619 2.82174 0
M  V30 3509 H 336.833 -3.24641 3.69958 0
M  V30 3510 N 338.485 -1.33259 -0.841409 0
M  V30 3511 C 339.901 -1.12538 -1.13169 0
M  V30 3512 C 340.101 0.0854037 -2.01319 0
M  V30 3513 O 339.157 0.766417 -2.40587 0
M  V30 3514 C 340.47 -2.41156 -1.79623 0
M  V30 3515 C 342.018 -2.47038 -1.922 0
M  V30 3516 C 342.493 -3.7561 -2.6207 0
M  V30 3517 N 343.984 -3.76667 -2.69585 0
M  V30 3518 C 344.719 -4.72861 -3.2433 0
M  V30 3519 N 344.215 -5.79428 -3.79783 0
M  V30 3520 N 346.008 -4.6034 -3.22558 0
M  V30 3521 H 338.159 -2.10868 -0.254676 0
M  V30 3522 H 340.422 -0.931615 -0.175493 0
M  V30 3523 H 340.128 -3.29747 -1.22311 0
M  V30 3524 H 340.002 -2.53114 -2.79666 0
M  V30 3525 H 342.389 -1.58898 -2.48667 0
M  V30 3526 H 342.47 -2.39022 -0.911148 0
M  V30 3527 H 342.114 -4.64131 -2.06263 0
M  V30 3528 H 342.044 -3.80902 -3.63622 0
M  V30 3529 H 344.535 -2.99648 -2.30259 0
M  V30 3530 H 344.848 -6.48867 -4.19752 0
M  V30 3531 H 343.193 -5.83166 -3.78078 0
M  V30 3532 H 346.384 -3.76244 -2.78492 0
M  V30 3533 H 346.557 -5.35478 -3.64921 0
M  V30 3534 N 339.963 1.05934 -1.16686 0
M  V30 3535 C 341.188 1.83029 -0.975455 0
M  V30 3536 C 341.613 1.82096 0.471452 0
M  V30 3537 O 340.971 1.22443 1.33706 0
M  V30 3538 C 341.019 3.27372 -1.51195 0
M  V30 3539 O 340.123 4.06054 -0.720701 0
M  V30 3540 H 339.464 0.566194 -0.346872 0
M  V30 3541 H 341.994 1.33541 -1.55009 0
M  V30 3542 H 342.004 3.78186 -1.53099 0
M  V30 3543 H 340.679 3.27366 -2.56523 0
M  V30 3544 H 339.256 3.64812 -0.772458 0
M  V30 3545 N 341.441 0.965919 1.2453 0
M  V30 3546 C 342.857 0.67216 1.44756 0
M  V30 3547 C 343.057 -0.766609 1.86347 0
M  V30 3548 O 342.113 -1.5407 2.00047 0
M  V30 3549 C 343.426 1.65473 2.51076 0
M  V30 3550 C 344.974 1.66716 2.64905 0
M  V30 3551 C 345.449 2.63766 3.74421 0
M  V30 3552 N 346.94 2.62198 3.81846 0
M  V30 3553 C 347.675 3.33966 4.66106 0
M  V30 3554 N 347.171 4.15245 5.54566 0
M  V30 3555 N 348.964 3.22799 4.60171 0
M  V30 3556 H 341.115 1.89553 0.958293 0
M  V30 3557 H 343.378 0.815979 0.482579 0
M  V30 3558 H 343.084 2.68296 2.27399 0
M  V30 3559 H 342.958 1.4261 3.49202 0
M  V30 3560 H 345.345 0.646057 2.87941 0
M  V30 3561 H 345.426 1.93642 1.67142 0
M  V30 3562 H 345.07 3.6601 3.52135 0
M  V30 3563 H 345 2.34121 4.71694 0
M  V30 3564 H 347.491 2.032 3.18619 0
M  V30 3565 H 347.804 4.66898 6.15814 0
M  V30 3566 H 346.149 4.1934 5.54237 0
M  V30 3567 H 349.34 2.58764 3.90075 0
M  V30 3568 H 349.513 3.78994 5.25612 0
M  V30 3569 N 342.919 -1.39368 0.735821 0
M  V30 3570 C 343.829 -2.34395 0.0979693 0
M  V30 3571 C 344.845 -1.58361 -0.720968 0
M  V30 3572 O 346.021 -1.90648 -0.649245 0
M  V30 3573 C 343.086 -3.37393 -0.797916 0
M  V30 3574 C 342.147 -4.29287 0.0333662 0
M  V30 3575 C 341.38 -5.27365 -0.819854 0
M  V30 3576 O 341.603 -5.31959 -2.05855 0
M  V30 3577 O 340.537 -6.01389 -0.248079 0
M  V30 3578 H 344.363 -2.90601 0.882315 0
M  V30 3579 H 341.948 -1.40909 0.4965 0
M  V30 3580 H 343.83 -4.00505 -1.31048 0
M  V30 3581 H 342.505 -2.83571 -1.56106 0
M  V30 3582 H 341.412 -3.69395 0.591475 0
M  V30 3583 H 342.745 -4.86317 0.758752 0
M  V30 3584 N 344.397 -0.483516 -1.5 0
M  V30 3585 C 345.36 0.292965 -2.2732 0
M  V30 3586 C 346.36 0.909499 -1.32608 0
M  V30 3587 O 347.55 0.776745 -1.55924 0
M  V30 3588 C 344.682 1.41854 -3.09984 0
M  V30 3589 H 345.875 -0.385289 -2.97415 0
M  V30 3590 H 343.428 -0.237942 -1.54478 0
M  V30 3591 H 344.163 2.13148 -2.44414 0
M  V30 3592 H 343.948 0.982114 -3.79601 0
M  V30 3593 H 345.438 1.96597 -3.68429 0
M  V30 3594 N 345.875 1.56104 -0.216619 0
M  V30 3595 C 346.825 2.16703 0.708798 0
M  V30 3596 C 347.809 1.11392 1.16106 0
M  V30 3597 O 349.001 1.37395 1.11587 0
M  V30 3598 C 346.13 2.84666 1.91886 0
M  V30 3599 C 345.216 3.97195 1.48651 0
M  V30 3600 N 345.607 4.99959 0.766434 0
M  V30 3601 C 343.905 4.09193 1.77418 0
M  V30 3602 C 344.606 5.79126 0.546659 0
M  V30 3603 N 343.582 5.32315 1.10188 0
M  V30 3604 H 347.384 2.93516 0.150162 0
M  V30 3605 H 344.898 1.6239 -0.0176768 0
M  V30 3606 H 346.895 3.26486 2.59253 0
M  V30 3607 H 345.555 2.09347 2.48202 0
M  V30 3608 H 346.566 5.16197 0.419634 0
M  V30 3609 H 343.243 3.45021 2.35088 0
M  V30 3610 H 344.633 6.71895 -0.026103 0
M  V30 3611 N 347.353 -0.0568162 1.57498 0
M  V30 3612 C 348.593 -0.758273 1.89815 0
M  V30 3613 C 348.957 -1.73978 0.812132 0
M  V30 3614 O 350.158 -2.48744 1.01881 0
M  V30 3615 C 348.429 -1.43465 3.27342 0
M  V30 3616 S 349.988 -2.1691 3.81439 0
M  V30 3617 H 346.806 -0.251836 0.664906 0
M  V30 3618 H 349.408 -0.0137997 1.95495 0
M  V30 3619 H 348.112 -0.706693 4.0427 0
M  V30 3620 H 347.643 -2.21825 3.24896 0
M  V30 3621 H 349.658 -3.43658 3.5793 0
M  V30 3622 N 348.832 -1.54138 -0.328536 0
M  V30 3623 C 349.764 -1.79509 -1.4251 0
M  V30 3624 C 350.777 -0.67688 -1.48061 0
M  V30 3625 O 351.966 -0.953898 -1.50874 0
M  V30 3626 C 349.066 -1.89337 -2.81078 0
M  V30 3627 C 348.239 -3.19443 -2.98789 0
M  V30 3628 C 347.298 -3.20036 -4.17688 0
M  V30 3629 O 346.324 -3.93697 -4.11086 0
M  V30 3630 N 347.526 -2.43467 -5.26976 0
M  V30 3631 H 350.291 -2.74139 -1.21111 0
M  V30 3632 H 347.852 -1.53373 -0.518499 0
M  V30 3633 H 349.844 -1.87167 -3.58818 0
M  V30 3634 H 348.414 -1.01826 -2.95551 0
M  V30 3635 H 347.634 -3.34614 -2.08391 0
M  V30 3636 H 348.922 -4.05354 -3.07515 0
M  V30 3637 H 348.32 -1.83201 -5.35214 0
M  V30 3638 H 346.877 -2.4708 -6.03154 0
M  V30 3639 N 350.31 0.590341 -1.46126 0
M  V30 3640 C 351.535 1.37991 -1.54833 0
M  V30 3641 C 351.96 1.87163 -0.187506 0
M  V30 3642 O 351.318 1.61133 0.831008 0
M  V30 3643 C 351.366 2.54867 -2.55098 0
M  V30 3644 O 350.47 3.56061 -2.08073 0
M  V30 3645 H 349.811 0.411265 -0.521303 0
M  V30 3646 H 352.341 0.716819 -1.91632 0
M  V30 3647 H 352.351 3.01886 -2.74461 0
M  V30 3648 H 351.026 2.18429 -3.53923 0
M  V30 3649 H 349.603 3.15574 -1.98664 0
M  V30 3650 N 351.788 1.33704 0.83433 0
M  V30 3651 C 353.204 1.13137 1.12571 0
M  V30 3652 C 353.404 -0.0747261 2.01361 0
M  V30 3653 O 352.46 -0.753647 2.4099 0
M  V30 3654 C 353.773 2.42105 1.78342 0
M  V30 3655 C 355.321 2.48054 1.90888 0
M  V30 3656 C 355.796 3.76995 2.60075 0
M  V30 3657 N 357.287 3.78092 2.67584 0
M  V30 3658 C 358.022 4.74574 3.21818 0
M  V30 3659 N 357.518 5.81434 3.76705 0
M  V30 3660 N 359.311 4.62044 3.20112 0
M  V30 3661 H 351.462 2.11 0.243489 0
M  V30 3662 H 353.725 0.932532 0.17055 0
M  V30 3663 H 353.431 3.30391 1.20561 0
M  V30 3664 H 353.305 2.54594 2.7832 0
M  V30 3665 H 355.692 1.60215 2.47821 0
M  V30 3666 H 355.773 2.39502 0.898459 0
M  V30 3667 H 355.417 4.65219 2.03799 0
M  V30 3668 H 355.347 3.82825 3.61597 0
M  V30 3669 H 357.838 3.00865 2.28667 0
M  V30 3670 H 358.151 6.51084 4.16305 0
M  V30 3671 H 356.496 5.85163 3.7498 0
M  V30 3672 H 359.687 3.77716 2.76493 0
M  V30 3673 H 359.86 5.37406 3.62076 0
M  V30 3674 N 353.266 -1.05314 1.17247 0
M  V30 3675 C 354.491 -1.82509 0.985148 0
M  V30 3676 C 354.916 -1.82343 -0.461788 0
M  V30 3677 O 354.274 -1.23151 -1.33055 0
M  V30 3678 C 354.322 -3.26566 1.52929 0
M  V30 3679 O 353.426 -4.05666 0.742225 0
M  V30 3680 H 352.767 -0.564347 0.349869 0
M  V30 3681 H 355.297 -1.32718 1.55715 0
M  V30 3682 H 355.307 -3.77369 1.55103 0
M  V30 3683 H 353.982 -3.26001 2.58256 0
M  V30 3684 H 352.559 -3.64397 0.791794 0
M  V30 3685 N 354.744 -0.972509 -1.24016 0
M  V30 3686 C 356.021 -0.553733 -1.87598 0
M  V30 3687 C 356.401 0.969158 -1.87538 0
M  V30 3688 O 355.749 1.84255 -1.35139 0
M  V30 3689 C 355.959 -1.15076 -3.29482 0
M  V30 3690 C 357.307 -1.23862 -4.06132 0
M  V30 3691 O 358.331 -1.10363 -3.38672 0
M  V30 3692 O 357.19 -1.45252 -5.26844 0
M  V30 3693 H 354.284 -0.185331 -0.805966 0
M  V30 3694 H 356.83 -1.06709 -1.31952 0
M  V30 3695 H 355.602 -2.19333 -3.2405 0
M  V30 3696 H 355.225 -0.621746 -3.92709 0
M  V30 3697 N 356.222 1.38976 -0.743202 0
M  V30 3698 C 357.152 2.33171 -0.123873 0
M  V30 3699 C 358.133 1.54336 0.71516 0
M  V30 3700 O 359.318 1.82696 0.658467 0
M  V30 3701 C 356.448 3.38474 0.777978 0
M  V30 3702 C 355.402 4.27979 0.0424758 0
M  V30 3703 C 354.728 5.2405 1.06189 0
M  V30 3704 C 356.028 5.10155 -1.1198 0
M  V30 3705 H 357.722 2.85213 -0.910709 0
M  V30 3706 H 355.268 1.37133 -0.439388 0
M  V30 3707 H 357.221 4.03328 1.22084 0
M  V30 3708 H 355.945 2.84891 1.59702 0
M  V30 3709 H 354.604 3.64616 -0.380853 0
M  V30 3710 H 354.252 4.66758 1.87472 0
M  V30 3711 H 353.952 5.84785 0.574485 0
M  V30 3712 H 355.476 5.9178 1.50428 0
M  V30 3713 H 356.89 5.68307 -0.75499 0
M  V30 3714 H 355.287 5.80073 -1.53738 0
M  V30 3715 H 356.357 4.44504 -1.93764 0
M  V30 3716 N 357.7 0.491464 1.49741 0
M  V30 3717 C 358.63 -0.28154 2.31796 0
M  V30 3718 C 359.611 -0.971473 1.3963 0
M  V30 3719 O 360.796 -0.964719 1.68543 0
M  V30 3720 C 357.926 -1.35203 3.19902 0
M  V30 3721 C 356.88 -0.782529 4.20786 0
M  V30 3722 C 356.206 -1.95283 4.97764 0
M  V30 3723 C 357.506 0.21999 5.21837 0
M  V30 3724 H 359.2 0.403355 2.96671 0
M  V30 3725 H 356.746 0.195425 1.42668 0
M  V30 3726 H 358.699 -1.90045 3.76113 0
M  V30 3727 H 357.423 -2.06598 2.52953 0
M  V30 3728 H 356.082 -0.255928 3.65706 0
M  V30 3729 H 355.73 -2.65423 4.2727 0
M  V30 3730 H 355.43 -1.57789 5.66018 0
M  V30 3731 H 356.954 -2.50577 5.56816 0
M  V30 3732 H 358.368 -0.23996 5.72798 0
M  V30 3733 H 356.765 0.51026 5.97927 0
M  V30 3734 H 357.835 1.13911 4.7133 0
M  V30 3735 N 359.178 -1.55987 0.224894 0
M  V30 3736 C 360.125 -2.20436 -0.68385 0
M  V30 3737 C 361.095 -1.16102 -1.18783 0
M  V30 3738 O 362.28 -1.4447 -1.24632 0
M  V30 3739 C 359.42 -2.89076 -1.88491 0
M  V30 3740 C 358.533 -4.08012 -1.41951 0
M  V30 3741 C 357.668 -4.64426 -2.5784 0
M  V30 3742 C 356.707 -5.75656 -2.08053 0
M  V30 3743 N 355.844 -6.26347 -3.17227 0
M  V30 3744 H 360.684 -2.97727 -0.12754 0
M  V30 3745 H 358.221 -1.47011 -0.0511978 0
M  V30 3746 H 360.179 -3.27059 -2.59014 0
M  V30 3747 H 358.809 -2.14298 -2.41405 0
M  V30 3748 H 357.861 -3.75492 -0.609095 0
M  V30 3749 H 359.173 -4.88375 -1.01447 0
M  V30 3750 H 358.327 -5.04869 -3.3644 0
M  V30 3751 H 357.066 -3.83233 -3.01635 0
M  V30 3752 H 356.071 -5.34712 -1.27916 0
M  V30 3753 H 357.296 -6.58686 -1.65255 0
M  V30 3754 H 355.242 -5.48067 -3.60497 0
M  V30 3755 H 355.159 -7.01843 -2.80986 0
M  V30 3756 H 356.427 -6.71447 -3.95953 0
M  V30 3757 N 360.656 0.0484629 -1.57525 0
M  V30 3758 C 361.619 1.03956 -2.04269 0
M  V30 3759 C 362.619 1.30211 -0.943496 0
M  V30 3760 O 363.809 1.25539 -1.20771 0
M  V30 3761 C 360.941 2.37742 -2.44319 0
M  V30 3762 H 362.134 0.636182 -2.93075 0
M  V30 3763 H 359.687 0.294811 -1.53494 0
M  V30 3764 H 360.422 2.82866 -1.5861 0
M  V30 3765 H 360.207 2.20021 -3.24551 0
M  V30 3766 H 361.697 3.08936 -2.80978 0
M  V30 3767 N 362.134 1.5431 0.320358 0
M  V30 3768 C 363.382 1.72327 1.05583 0
M  V30 3769 C 363.703 0.50149 1.88441 0
M  V30 3770 O 362.973 -0.48448 1.89815 0
M  V30 3771 H 361.553 0.635387 0.3928 0
M  V30 3772 H 364.215 1.91621 0.356019 0
M  V30 3773 H 363.311 2.60426 1.72003 0
M  V30 3774 N 363.613 -0.582584 1.46437 0
M  V30 3775 C 364.861 -1.33814 1.51453 0
M  V30 3776 C 365.182 -1.94277 0.167792 0
M  V30 3777 O 364.452 -1.78566 -0.805677 0
M  V30 3778 H 363.032 -0.496838 0.557818 0
M  V30 3779 H 365.694 -0.682281 1.82568 0
M  V30 3780 H 364.79 -2.14479 2.26728 0
M  V30 3781 N 365.091 -1.34144 -0.827227 0
M  V30 3782 C 366.339 -1.26009 -1.58007 0
M  V30 3783 C 366.66 0.170971 -1.94249 0
M  V30 3784 O 365.93 1.10256 -1.61927 0
M  V30 3785 H 364.51 -0.463414 -0.585881 0
M  V30 3786 H 367.172 -1.68005 -0.987951 0
M  V30 3787 H 366.268 -1.86187 -2.50481 0
M  V30 3788 N 366.569 1.04691 -1.17803 0
M  V30 3789 C 367.532 2.10724 -0.901545 0
M  V30 3790 C 368.532 1.6042 0.110437 0
M  V30 3791 O 369.722 1.7377 -0.122303 0
M  V30 3792 C 366.854 3.39084 -0.351409 0
M  V30 3793 H 368.047 2.36686 -1.84174 0
M  V30 3794 H 365.6 1.21015 -0.98919 0
M  V30 3795 H 366.335 3.18782 0.59569 0
M  V30 3796 H 366.12 3.76909 -1.08083 0
M  V30 3797 H 367.61 4.17227 -0.176451 0
M  V30 3798 N 368.047 0.979072 1.23499 0
M  V30 3799 C 369.295 0.645941 1.91499 0
M  V30 3800 C 369.616 -0.822948 1.76784 0
M  V30 3801 O 368.886 -1.58854 1.14639 0
M  V30 3802 H 367.466 0.235919 0.708767 0
M  V30 3803 H 370.128 1.2426 1.50152 0
M  V30 3804 H 369.224 0.896411 2.9895 0
M  V30 3805 N 369.525 -1.3858 0.750561 0
M  V30 3806 C 370.773 -1.99789 0.30477 0
M  V30 3807 C 371.094 -1.59874 -1.11649 0
M  V30 3808 O 370.364 -0.85417 -1.76297 0
M  V30 3809 H 368.944 -0.738902 0.109694 0
M  V30 3810 H 371.606 -1.69391 0.963983 0
M  V30 3811 H 370.702 -3.09952 0.365499 0
M  V30 3812 N 371.003 -0.499398 -1.49478 0
M  V30 3813 C 372.228 0.044722 -2.07352 0
M  V30 3814 C 372.653 1.30207 -1.35749 0
M  V30 3815 O 372.011 1.76516 -0.413732 0
M  V30 3816 C 372.059 0.283013 -3.59488 0
M  V30 3817 O 371.163 1.35804 -3.89398 0
M  V30 3818 H 370.504 -0.0255147 -0.66351 0
M  V30 3819 H 373.034 -0.698561 -1.92305 0
M  V30 3820 H 373.044 0.515007 -4.04737 0
M  V30 3821 H 371.719 -0.635636 -4.11014 0
M  V30 3822 H 370.296 1.11113 -3.55961 0
M  V30 3823 N 372.481 1.55866 -0.233164 0
M  V30 3824 C 373.729 1.9821 0.394593 0
M  V30 3825 C 374.05 1.12234 1.59463 0
M  V30 3826 O 373.32 0.201981 1.94856 0
M  V30 3827 H 371.9 0.732034 0.148778 0
M  V30 3828 H 374.562 1.92107 -0.32876 0
M  V30 3829 H 373.658 3.03845 0.713063 0
M  V30 3830 N 373.959 -0.0401083 1.57549 0
M  V30 3831 C 375.207 -0.731677 1.8839 0
M  V30 3832 C 375.528 -1.76481 0.829425 0
M  V30 3833 O 374.798 -1.95411 -0.1383 0
M  V30 3834 H 373.378 -0.273225 0.695239 0
M  V30 3835 H 376.04 -0.00867725 1.94898 0
M  V30 3836 H 375.136 -1.22816 2.86919 0
M  V30 3837 N 375.437 -1.54477 -0.31217 0
M  V30 3838 C 376.662 -1.77526 -1.07235 0
M  V30 3839 C 377.087 -0.527775 -1.80544 0
M  V30 3840 O 376.445 0.52121 -1.73646 0
M  V30 3841 C 376.493 -2.97535 -2.03728 0
M  V30 3842 O 375.597 -2.69878 -3.11833 0
M  V30 3843 H 374.938 -0.58792 -0.30862 0
M  V30 3844 H 377.468 -2.01532 -0.352993 0
M  V30 3845 H 377.478 -3.25198 -2.46395 0
M  V30 3846 H 376.153 -3.87996 -1.49774 0
M  V30 3847 H 374.73 -2.53199 -2.7376 0
M  V30 3848 N 376.915 0.57481 -1.46744 0
M  V30 3849 C 378.163 1.33009 -1.52161 0
M  V30 3850 C 378.484 1.94185 -0.178092 0
M  V30 3851 O 377.754 1.7899 0.796196 0
M  V30 3852 H 376.334 0.493873 -0.560445 0
M  V30 3853 H 378.996 0.672589 -1.82927 0
M  V30 3854 H 378.092 2.13273 -2.27862 0
M  V30 3855 N 378.394 1.34581 0.820102 0
M  V30 3856 C 379.805 1.24298 1.39309 0
M  V30 3857 C 380.156 -0.130351 1.95767 0
M  V30 3858 O 379.281 -1.0308 1.90272 0
M  V30 3859 C 379.876 2.25054 2.53251 0
M  V30 3860 C 378.435 2.18552 3.0645 0
M  V30 3861 C 377.582 2.11503 1.79337 0
M  V30 3862 H 380.533 1.45906 0.624262 0
M  V30 3863 H 380.554 1.86917 3.31425 0
M  V30 3864 H 380.066 3.24996 2.1213 0
M  V30 3865 H 378.167 1.21976 3.52069 0
M  V30 3866 H 378.28 3.0993 3.65349 0
M  V30 3867 H 376.644 1.57268 2.00347 0
M  V30 3868 H 377.427 3.13284 1.40386 0
M  V30 3869 N 379.872 -1.04064 1.18357 0
M  V30 3870 C 381.097 -1.81454 1.00445 0
M  V30 3871 C 381.522 -1.82823 -0.442423 0
M  V30 3872 O 380.88 -1.24555 -1.31741 0
M  V30 3873 C 380.928 -3.24925 1.56384 0
M  V30 3874 O 380.032 -4.04856 0.785209 0
M  V30 3875 H 379.373 -0.560604 0.355835 0
M  V30 3876 H 381.903 -1.31059 1.57114 0
M  V30 3877 H 381.913 -3.75702 1.59097 0
M  V30 3878 H 380.588 -3.23244 2.61699 0
M  V30 3879 H 379.165 -3.63537 0.830399 0
M  V30 3880 N 381.35 -0.985608 -1.22978 0
M  V30 3881 C 382.313 -0.535071 -2.22867 0
M  V30 3882 C 383.313 0.378123 -1.56291 0
M  V30 3883 O 384.503 0.171092 -1.73358 0
M  V30 3884 C 381.635 0.222702 -3.40172 0
M  V30 3885 H 382.828 -1.41835 -2.6424 0
M  V30 3886 H 380.381 -0.772042 -1.35901 0
M  V30 3887 H 381.116 1.12229 -3.04262 0
M  V30 3888 H 380.901 -0.43288 -3.89703 0
M  V30 3889 H 382.391 0.526335 -4.1427 0
M  V30 3890 N 382.828 1.3818 -0.7579 0
M  V30 3891 C 384.077 1.99261 -0.312744 0
M  V30 3892 C 384.39 1.60846 1.11301 0
M  V30 3893 O 385.596 2.14929 1.65885 0
M  V30 3894 C 384.052 3.56294 -0.50821 0
M  V30 3895 C 383.66 4.03657 -1.94333 0
M  V30 3896 C 385.404 4.24313 -0.125982 0
M  V30 3897 C 383.311 5.53347 -2.08712 0
M  V30 3898 H 382.241 0.745456 -0.113185 0
M  V30 3899 H 384.892 1.57889 -0.935056 0
M  V30 3900 H 383.274 3.95575 0.183353 0
M  V30 3901 H 384.448 3.75655 -2.66871 0
M  V30 3902 H 382.763 3.48376 -2.28086 0
M  V30 3903 H 385.36 5.34279 -0.212125 0
M  V30 3904 H 385.703 4.05962 0.921964 0
M  V30 3905 H 386.236 3.90285 -0.769563 0
M  V30 3906 H 382.975 5.76607 -3.11777 0
M  V30 3907 H 382.495 5.83078 -1.4064 0
M  V30 3908 H 384.174 6.19111 -1.87912 0
M  V30 3909 N 384.306 0.507319 1.49211 0
M  V30 3910 C 385.236 -0.256939 2.32082 0
M  V30 3911 C 386.217 -0.956609 1.40652 0
M  V30 3912 O 387.402 -0.946788 1.69557 0
M  V30 3913 C 384.532 -1.31802 3.21318 0
M  V30 3914 C 383.486 -0.737855 4.21592 0
M  V30 3915 C 382.812 -1.89992 4.99807 0
M  V30 3916 C 384.112 0.275325 5.21574 0
M  V30 3917 H 385.806 0.434798 2.96226 0
M  V30 3918 H 383.352 0.210546 1.42452 0
M  V30 3919 H 385.305 -1.86045 3.78107 0
M  V30 3920 H 384.029 -2.03903 2.5513 0
M  V30 3921 H 382.688 -0.217126 3.65956 0
M  V30 3922 H 382.336 -2.60877 4.30061 0
M  V30 3923 H 382.036 -1.51777 5.6766 0
M  V30 3924 H 383.56 -2.44657 5.59442 0
M  V30 3925 H 384.974 -0.179193 5.7302 0
M  V30 3926 H 383.371 0.573649 5.97352 0
M  V30 3927 H 384.441 1.18903 4.70096 0
M  V30 3928 N 385.784 -1.5574 0.241426 0
M  V30 3929 C 387.2 -1.59196 -0.113548 0
M  V30 3930 C 387.4 -1.25852 -1.57364 0
M  V30 3931 O 386.456 -1.00322 -2.31715 0
M  V30 3932 C 387.769 -2.99814 0.230695 0
M  V30 3933 C 389.317 -3.12513 0.174547 0
M  V30 3934 C 389.792 -4.55342 0.492744 0
M  V30 3935 N 391.283 -4.61076 0.443043 0
M  V30 3936 C 392.018 -5.6956 0.662484 0
M  V30 3937 N 391.514 -6.86328 0.944761 0
M  V30 3938 N 393.307 -5.58957 0.593564 0
M  V30 3939 H 385.458 -1.75685 1.19368 0
M  V30 3940 H 387.721 -0.81756 0.479896 0
M  V30 3941 H 387.427 -3.28932 1.24485 0
M  V30 3942 H 387.301 -3.74568 -0.444833 0
M  V30 3943 H 389.688 -2.83179 -0.830277 0
M  V30 3944 H 389.769 -2.40045 0.883845 0
M  V30 3945 H 389.413 -4.85396 1.4951 0
M  V30 3946 H 389.343 -5.26062 -0.23797 0
M  V30 3947 H 391.834 -3.77179 0.233374 0
M  V30 3948 H 392.147 -7.64935 1.09977 0
M  V30 3949 H 390.492 -6.88025 0.982175 0
M  V30 3950 H 393.683 -4.66611 0.373123 0
M  V30 3951 H 393.856 -6.43433 0.767981 0
M  V30 3952 N 387.262 0.0317525 -1.57568 0
M  V30 3953 C 388.192 1.03274 -2.0942 0
M  V30 3954 C 389.173 1.3788 -0.996143 0
M  V30 3955 O 390.358 1.46811 -1.27122 0
M  V30 3956 C 387.488 2.33448 -2.57137 0
M  V30 3957 C 386.442 2.13091 -3.71182 0
M  V30 3958 C 385.768 3.49001 -4.05095 0
M  V30 3959 C 387.068 1.51928 -4.99715 0
M  V30 3960 H 388.762 0.60112 -2.93303 0
M  V30 3961 H 386.308 0.287705 -1.41097 0
M  V30 3962 H 388.261 3.03802 -2.92032 0
M  V30 3963 H 386.985 2.78665 -1.70333 0
M  V30 3964 H 385.644 1.45171 -3.36632 0
M  V30 3965 H 385.292 3.91862 -3.15362 0
M  V30 3966 H 384.992 3.36207 -4.81911 0
M  V30 3967 H 386.516 4.20721 -4.42522 0
M  V30 3968 H 387.93 2.12196 -5.32584 0
M  V30 3969 H 386.327 1.49716 -5.81124 0
M  V30 3970 H 387.397 0.484811 -4.8247 0
M  V30 3971 N 388.74 1.54641 0.303973 0
M  V30 3972 C 390.151 1.64811 0.877163 0
M  V30 3973 C 390.502 0.554838 1.88191 0
M  V30 3974 O 389.627 -0.309033 2.14182 0
M  V30 3975 C 390.222 2.9876 1.59775 0
M  V30 3976 C 388.781 3.11061 2.11938 0
M  V30 3977 C 387.928 2.60479 0.951097 0
M  V30 3978 H 390.879 1.58493 0.0810486 0
M  V30 3979 H 390.9 2.90017 2.46314 0
M  V30 3980 H 390.412 3.7831 0.866226 0
M  V30 3981 H 388.513 2.36225 2.88146 0
M  V30 3982 H 388.626 4.17171 2.35595 0
M  V30 3983 H 386.99 2.16859 1.33583 0
M  V30 3984 H 387.773 3.42504 0.233581 0
M  V30 3985 N 390.218 -0.567019 1.47046 0
M  V30 3986 C 391.443 -1.3551 1.57009 0
M  V30 3987 C 391.868 -1.86841 0.217259 0
M  V30 3988 O 391.226 -1.62435 -0.805268 0
M  V30 3989 C 391.274 -2.50777 2.5912 0
M  V30 3990 O 390.378 -3.52706 2.13711 0
M  V30 3991 H 389.719 -0.402919 0.52778 0
M  V30 3992 H 392.249 -0.686241 1.92748 0
M  V30 3993 H 392.259 -2.97481 2.79229 0
M  V30 3994 H 390.934 -2.12771 3.57353 0
M  V30 3995 H 389.511 -3.12374 2.03659 0
M  V30 3996 N 391.696 -1.35014 -0.812953 0
M  V30 3997 C 392.926 -1.30841 -1.59888 0
M  V30 3998 C 393.334 0.117576 -1.88834 0
M  V30 3999 O 392.677 1.07807 -1.48739 0
M  V30 4000 C 392.739 -2.0412 -2.95931 0
M  V30 4001 C 392.403 -3.53336 -2.89832 0
M  V30 4002 C 393.4 -4.48052 -2.63714 0
M  V30 4003 C 391.085 -3.95894 -3.0915 0
M  V30 4004 C 393.079 -5.833 -2.56982 0
M  V30 4005 C 390.766 -5.31239 -3.0204 0
M  V30 4006 C 391.764 -6.24754 -2.75991 0
M  V30 4007 O 391.452 -7.57617 -2.68833 0
M  V30 4008 H 391.184 -0.451215 -0.50337 0
M  V30 4009 H 393.738 -1.78354 -1.01877 0
M  V30 4010 H 391.968 -1.51235 -3.559 0
M  V30 4011 H 393.657 -1.93107 -3.57022 0
M  V30 4012 H 394.423 -4.16492 -2.48515 0
M  V30 4013 H 390.302 -3.23495 -3.28438 0
M  V30 4014 H 393.846 -6.56263 -2.36569 0
M  V30 4015 H 389.743 -5.62415 -3.16796 0
M  V30 4016 H 390.511 -7.67469 -2.84487 0
M  V30 4017 N 393.175 1.03435 -1.18907 0
M  V30 4018 C 394.591 1.28973 -0.940111 0
M  V30 4019 C 394.791 1.97676 0.390691 0
M  V30 4020 O 393.847 2.26127 1.12352 0
M  V30 4021 C 395.16 2.14221 -2.11021 0
M  V30 4022 C 396.708 2.27547 -2.14922 0
M  V30 4023 C 397.183 3.16164 -3.31367 0
M  V30 4024 N 398.674 3.23752 -3.31269 0
M  V30 4025 C 399.409 3.92495 -4.18014 0
M  V30 4026 N 398.905 4.63515 -5.14904 0
M  V30 4027 N 400.698 3.88838 -4.05908 0
M  V30 4028 H 392.849 0.57252 -2.04538 0
M  V30 4029 H 395.112 0.315184 -0.894071 0
M  V30 4030 H 394.818 1.71054 -3.073 0
M  V30 4031 H 394.692 3.14919 -2.0762 0
M  V30 4032 H 397.079 2.69947 -1.19217 0
M  V30 4033 H 397.16 1.26418 -2.22378 0
M  V30 4034 H 396.804 2.74474 -4.27348 0
M  V30 4035 H 396.734 4.17339 -3.21148 0
M  V30 4036 H 399.225 2.73167 -2.61129 0
M  V30 4037 H 399.538 5.13583 -5.77453 0
M  V30 4038 H 397.883 4.62398 -5.18857 0
M  V30 4039 H 401.074 3.32491 -3.29495 0
M  V30 4040 H 401.247 4.4214 -4.73726 0
M  V30 4041 N 394.653 0.992116 1.22453 0
M  V30 4042 C 395.9 0.667534 1.91181 0
M  V30 4043 C 396.228 -0.800317 1.77271 0
M  V30 4044 O 395.483 -1.59421 1.13505 0
M  V30 4045 C 395.782 1.01832 3.42586 0
M  V30 4046 C 395.448 2.47831 3.76684 0
M  V30 4047 C 394.11 2.87729 3.85701 0
M  V30 4048 C 396.462 3.42466 3.92895 0
M  V30 4049 C 393.79 4.21252 4.08367 0
M  V30 4050 C 396.142 4.75648 4.17064 0
M  V30 4051 C 394.806 5.15288 4.24305 0
M  V30 4052 H 394.076 0.244268 0.699581 0
M  V30 4053 H 396.723 1.24816 1.45235 0
M  V30 4054 H 395.028 0.355769 3.90181 0
M  V30 4055 H 396.725 0.745228 3.94014 0
M  V30 4056 H 393.315 2.15905 3.70247 0
M  V30 4057 H 397.499 3.12814 3.85307 0
M  V30 4058 H 392.755 4.51554 4.122 0
M  V30 4059 H 396.929 5.48924 4.2855 0
M  V30 4060 H 394.556 6.18769 4.41621 0
M  V30 4061 N 396.131 -1.37776 0.765217 0
M  V30 4062 C 397.547 -1.53297 0.444108 0
M  V30 4063 C 397.747 -1.72515 -1.04119 0
M  V30 4064 O 396.803 -1.74278 -1.82711 0
M  V30 4065 C 398.116 -2.73328 1.25349 0
M  V30 4066 C 399.664 -2.87185 1.24473 0
M  V30 4067 C 400.139 -4.10191 2.03733 0
M  V30 4068 N 401.63 -4.17291 2.01053 0
M  V30 4069 C 402.365 -5.11488 2.59166 0
M  V30 4070 N 401.861 -6.11285 3.26041 0
M  V30 4071 N 403.654 -5.03924 2.49032 0
M  V30 4072 H 395.805 -1.23552 1.72768 0
M  V30 4073 H 398.068 -0.601103 0.733062 0
M  V30 4074 H 397.774 -2.6557 2.30577 0
M  V30 4075 H 397.648 -3.66834 0.87823 0
M  V30 4076 H 400.035 -2.94418 0.20047 0
M  V30 4077 H 400.116 -1.94657 1.65959 0
M  V30 4078 H 399.76 -4.0372 3.08176 0
M  V30 4079 H 399.69 -5.01821 1.59633 0
M  V30 4080 H 402.181 -3.45825 1.5236 0
M  V30 4081 H 402.494 -6.79678 3.67774 0
M  V30 4082 H 400.839 -6.11583 3.30138 0
M  V30 4083 H 404.03 -4.24902 1.96407 0
M  V30 4084 H 404.203 -5.77152 2.94617 0
M  V30 4085 N 397.609 -0.515225 -1.4894 0
M  V30 4086 C 398.839 0.0205735 -2.0659 0
M  V30 4087 C 399.247 1.30064 -1.37405 0
M  V30 4088 O 398.59 1.78087 -0.450632 0
M  V30 4089 C 398.652 0.330124 -3.57981 0
M  V30 4090 C 398.316 -0.854295 -4.48944 0
M  V30 4091 C 399.313 -1.7487 -4.89609 0
M  V30 4092 C 396.998 -1.05712 -4.9105 0
M  V30 4093 C 398.992 -2.82996 -5.71132 0
M  V30 4094 C 396.679 -2.14154 -5.72347 0
M  V30 4095 C 397.677 -3.0263 -6.12294 0
M  V30 4096 O 397.365 -4.09198 -6.91962 0
M  V30 4097 H 397.097 -0.0236833 -0.675585 0
M  V30 4098 H 399.651 -0.715956 -1.92518 0
M  V30 4099 H 397.881 1.12044 -3.70112 0
M  V30 4100 H 399.57 0.806233 -3.97812 0
M  V30 4101 H 400.336 -1.60388 -4.57712 0
M  V30 4102 H 396.215 -0.377788 -4.59449 0
M  V30 4103 H 399.759 -3.52083 -6.02232 0
M  V30 4104 H 395.656 -2.28626 -6.03656 0
M  V30 4105 H 396.424 -4.06726 -7.10293 0
M  V30 4106 N 399.087 1.5561 -0.249682 0
M  V30 4107 C 400.503 1.59254 0.105103 0
M  V30 4108 C 400.703 1.26685 1.56694 0
M  V30 4109 O 399.759 1.0155 2.31179 0
M  V30 4110 C 401.072 2.99687 -0.246592 0
M  V30 4111 C 402.62 3.12416 -0.191118 0
M  V30 4112 C 403.095 4.55074 -0.516885 0
M  V30 4113 N 404.586 4.60835 -0.467489 0
M  V30 4114 C 405.321 5.69201 -0.69268 0
M  V30 4115 N 404.817 6.85817 -0.981146 0
M  V30 4116 N 406.61 5.58635 -0.623198 0
M  V30 4117 H 398.761 1.75049 -1.20298 0
M  V30 4118 H 401.024 0.815003 -0.484225 0
M  V30 4119 H 400.73 3.28267 -1.26228 0
M  V30 4120 H 400.604 3.74798 0.424962 0
M  V30 4121 H 402.991 2.83615 0.815247 0
M  V30 4122 H 403.072 2.39573 -0.896563 0
M  V30 4123 H 402.716 4.84596 -1.52082 0
M  V30 4124 H 402.646 5.26181 0.210068 0
M  V30 4125 H 405.137 3.7705 -0.253373 0
M  V30 4126 H 405.45 7.64341 -1.14032 0
M  V30 4127 H 403.795 6.87494 -1.01865 0
M  V30 4128 H 406.986 4.66406 -0.397863 0
M  V30 4129 H 407.159 6.43017 -0.802093 0
M  V30 4130 N 400.565 -0.0233959 1.57583 0
M  V30 4131 C 401.981 -0.379134 1.55031 0
M  V30 4132 C 402.181 -1.76255 0.976548 0
M  V30 4133 O 401.237 -2.45266 0.600078 0
M  V30 4134 C 402.55 -0.275792 2.99433 0
M  V30 4135 C 404.098 -0.352458 3.11009 0
M  V30 4136 C 404.573 -0.278501 4.57152 0
M  V30 4137 N 406.064 -0.337123 4.61972 0
M  V30 4138 C 406.799 -0.302876 5.726 0
M  V30 4139 N 406.295 -0.220589 6.92449 0
M  V30 4140 N 408.088 -0.353023 5.6099 0
M  V30 4141 H 400.239 0.881869 1.93227 0
M  V30 4142 H 402.502 0.335867 0.886509 0
M  V30 4143 H 402.208 0.675108 3.4516 0
M  V30 4144 H 402.082 -1.06721 3.61788 0
M  V30 4145 H 404.469 -1.29379 2.65226 0
M  V30 4146 H 404.55 0.468409 2.51475 0
M  V30 4147 H 404.194 0.659189 5.03604 0
M  V30 4148 H 404.124 -1.11755 5.14605 0
M  V30 4149 H 406.615 -0.403002 3.75745 0
M  V30 4150 H 406.928 -0.199713 7.72542 0
M  V30 4151 H 405.273 -0.186555 6.9475 0
M  V30 4152 H 408.464 -0.415339 4.66254 0
M  V30 4153 H 408.637 -0.322866 6.47195 0
M  V30 4154 N 402.043 -1.548 -0.295768 0
M  V30 4155 C 403.459 -1.4613 -0.641722 0
M  V30 4156 C 403.659 -0.656771 -1.90496 0
M  V30 4157 O 402.715 -0.166547 -2.5195 0
M  V30 4158 C 404.028 -2.90141 -0.789852 0
M  V30 4159 C 405.576 -3.00216 -0.885396 0
M  V30 4160 C 406.051 -4.45434 -1.06548 0
M  V30 4161 N 407.542 -4.49166 -1.13156 0
M  V30 4162 C 408.277 -5.58717 -1.28929 0
M  V30 4163 N 407.773 -6.78182 -1.41567 0
M  V30 4164 N 409.566 -5.46415 -1.31859 0
M  V30 4165 H 401.717 -2.05574 0.534147 0
M  V30 4166 H 403.98 -0.931259 0.177372 0
M  V30 4167 H 403.686 -3.51635 0.0675598 0
M  V30 4168 H 403.56 -3.37859 -1.67724 0
M  V30 4169 H 405.947 -2.38833 -1.73329 0
M  V30 4170 H 406.028 -2.55787 0.0261185 0
M  V30 4171 H 405.672 -5.07413 -0.222335 0
M  V30 4172 H 405.602 -4.87499 -1.9913 0
M  V30 4173 H 408.093 -3.631 -1.04721 0
M  V30 4174 H 408.406 -7.57428 -1.53372 0
M  V30 4175 H 406.751 -6.81037 -1.38613 0
M  V30 4176 H 409.942 -4.5203 -1.21601 0
M  V30 4177 H 410.115 -6.31841 -1.43808 0
M  V30 4178 N 403.521 0.559213 -1.47345 0
M  V30 4179 C 404.746 1.34676 -1.57725 0
M  V30 4180 C 405.171 1.86723 -0.227164 0
M  V30 4181 O 404.529 1.6286 0.796642 0
M  V30 4182 C 404.577 2.49399 -2.60447 0
M  V30 4183 O 403.681 3.51567 -2.15578 0
M  V30 4184 H 403.022 0.400115 -0.52991 0
M  V30 4185 H 405.552 0.676009 -1.93109 0
M  V30 4186 H 405.562 2.95996 -2.80803 0
M  V30 4187 H 404.237 2.10873 -3.58477 0
M  V30 4188 H 402.814 3.11289 -2.05313 0
M  V30 4189 N 404.999 1.35443 0.805782 0
M  V30 4190 C 406.415 1.15499 1.10146 0
M  V30 4191 C 406.615 -0.0319975 2.01475 0
M  V30 4192 O 405.671 -0.70236 2.42535 0
M  V30 4193 C 406.984 2.45833 1.73166 0
M  V30 4194 C 408.532 2.52047 1.85583 0
M  V30 4195 C 409.007 3.82427 2.52019 0
M  V30 4196 N 410.498 3.83682 2.59504 0
M  V30 4197 C 411.233 4.81294 3.11679 0
M  V30 4198 N 410.729 5.89294 3.64287 0
M  V30 4199 N 412.522 4.6873 3.1024 0
M  V30 4200 H 404.673 2.11469 0.198678 0
M  V30 4201 H 406.936 0.93594 0.150731 0
M  V30 4202 H 406.642 3.32874 1.13526 0
M  V30 4203 H 406.516 2.6044 2.72857 0
M  V30 4204 H 408.903 1.65435 2.44367 0
M  V30 4205 H 408.984 2.41354 0.847455 0
M  V30 4206 H 408.628 4.69437 1.93885 0
M  V30 4207 H 408.558 3.90409 3.53395 0
M  V30 4208 H 411.049 3.05648 2.22234 0
M  V30 4209 H 411.362 6.59768 4.02401 0
M  V30 4210 H 409.707 5.92985 3.62483 0
M  V30 4211 H 412.898 3.83496 2.68419 0
M  V30 4212 H 413.071 5.44965 3.50596 0
M  V30 4213 N 406.477 -1.02803 1.19454 0
M  V30 4214 C 407.702 -1.80378 1.02364 0
M  V30 4215 C 408.127 -1.83282 -0.423007 0
M  V30 4216 O 407.485 -1.25945 -1.30413 0
M  V30 4217 C 407.533 -3.23248 1.59821 0
M  V30 4218 O 406.637 -4.04 0.828105 0
M  V30 4219 H 405.978 -0.556799 0.361761 0
M  V30 4220 H 408.508 -1.29385 1.58495 0
M  V30 4221 H 408.518 -3.73994 1.63073 0
M  V30 4222 H 407.193 -3.2045 2.65113 0
M  V30 4223 H 405.77 -3.62635 0.86891 0
M  V30 4224 N 407.956 -0.998596 -1.21925 0
M  V30 4225 C 409.181 -0.696015 -1.95372 0
M  V30 4226 C 409.606 0.733826 -1.73195 0
M  V30 4227 O 408.964 1.50242 -1.01474 0
M  V30 4228 C 409.012 -1.01466 -3.4603 0
M  V30 4229 O 408.116 -0.116415 -4.12236 0
M  V30 4230 H 407.457 -0.259938 -0.611006 0
M  V30 4231 H 409.987 -1.33711 -1.54863 0
M  V30 4232 H 409.997 -0.958855 -3.96573 0
M  V30 4233 H 408.672 -2.05653 -3.61497 0
M  V30 4234 H 407.249 -0.228193 -3.72201 0
M  V30 4235 N 409.434 1.37368 -0.772513 0
M  V30 4236 C 410.659 2.0447 -0.347386 0
M  V30 4237 C 411.084 1.57882 1.0225 0
M  V30 4238 O 410.442 0.73941 1.65537 0
M  V30 4239 C 410.49 3.58369 -0.400479 0
M  V30 4240 O 409.594 4.0803 0.598789 0
M  V30 4241 H 408.935 0.646773 -0.15027 0
M  V30 4242 H 411.465 1.75667 -1.04892 0
M  V30 4243 H 411.475 4.07183 -0.258045 0
M  V30 4244 H 410.15 3.91633 -1.39986 0
M  V30 4245 H 408.727 3.70534 0.419411 0
M  V30 4246 N 410.912 0.523116 1.48665 0
M  V30 4247 C 412.328 0.180511 1.58576 0
M  V30 4248 C 412.528 -1.31597 1.52592 0
M  V30 4249 O 411.584 -2.0937 1.4114 0
M  V30 4250 C 412.897 0.776949 2.90489 0
M  V30 4251 C 414.445 0.745058 3.04003 0
M  V30 4252 C 414.92 1.31995 4.38567 0
M  V30 4253 N 416.411 1.28162 4.45117 0
M  V30 4254 C 417.146 1.6964 5.47731 0
M  V30 4255 N 416.642 2.18816 6.57337 0
M  V30 4256 N 418.435 1.6092 5.38573 0
M  V30 4257 H 410.586 1.4958 1.50797 0
M  V30 4258 H 412.849 0.621772 0.715614 0
M  V30 4259 H 412.555 1.82732 3.00503 0
M  V30 4260 H 412.429 0.25007 3.7637 0
M  V30 4261 H 414.816 -0.296532 2.93606 0
M  V30 4262 H 414.897 1.30933 2.1975 0
M  V30 4263 H 414.541 2.36043 4.49718 0
M  V30 4264 H 414.471 0.731418 5.21496 0
M  V30 4265 H 416.962 0.92155 3.66491 0
M  V30 4266 H 417.275 2.48478 7.31764 0
M  V30 4267 H 415.62 2.22805 6.58318 0
M  V30 4268 H 418.811 1.22304 4.5184 0
M  V30 4269 H 418.984 1.93567 6.18414 0
M  V30 4270 N 412.39 -1.55475 0.257931 0
M  V30 4271 C 413.615 -2.04064 -0.370488 0
M  V30 4272 C 414.04 -1.13565 -1.49948 0
M  V30 4273 O 413.398 -0.130781 -1.80828 0
M  V30 4274 C 413.446 -3.50554 -0.845237 0
M  V30 4275 O 412.55 -3.63173 -1.95394 0
M  V30 4276 H 411.891 -0.659257 -0.0792243 0
M  V30 4277 H 414.421 -2.00903 0.387212 0
M  V30 4278 H 414.431 -3.91588 -1.14555 0
M  V30 4279 H 413.106 -4.15896 -0.0191259 0
M  V30 4280 H 411.683 -3.34039 -1.65748 0
M  V30 4281 N 413.868 0.0150385 -1.57593 0
M  V30 4282 C 415.093 0.718067 -1.94573 0
M  V30 4283 C 415.518 1.6734 -0.859005 0
M  V30 4284 O 414.876 1.80362 0.184147 0
M  V30 4285 C 414.924 1.43918 -3.30636 0
M  V30 4286 O 414.028 2.55299 -3.23876 0
M  V30 4287 H 413.369 0.192125 -0.635597 0
M  V30 4288 H 415.899 -0.0336708 -2.04572 0
M  V30 4289 H 415.909 1.80598 -3.65853 0
M  V30 4290 H 414.584 0.738619 -4.09289 0
M  V30 4291 H 413.161 2.21058 -3.00312 0
M  V30 4292 N 415.346 1.54954 0.287554 0
M  V30 4293 C 416.256 1.8991 1.37736 0
M  V30 4294 C 417.272 0.794701 1.54792 0
M  V30 4295 O 418.448 1.09243 1.69198 0
M  V30 4296 C 415.513 2.15108 2.71899 0
M  V30 4297 C 414.574 3.38752 2.63715 0
M  V30 4298 C 413.807 3.62739 3.91479 0
M  V30 4299 O 414.03 2.89492 4.91478 0
M  V30 4300 O 412.964 4.56267 3.92561 0
M  V30 4301 H 416.79 2.82652 1.11092 0
M  V30 4302 H 414.375 1.41315 0.484807 0
M  V30 4303 H 416.257 2.32806 3.51254 0
M  V30 4304 H 414.932 1.25551 2.9836 0
M  V30 4305 H 413.839 3.26405 1.82786 0
M  V30 4306 H 415.172 4.28483 2.42205 0
M  V30 4307 N 416.824 -0.551391 1.4764 0
M  V30 4308 C 418.235 -1.13349 1.48354 0
M  V30 4309 C 418.586 -1.94709 0.241432 0
M  V30 4310 O 417.711 -2.06306 -0.653205 0
M  V30 4311 C 418.306 -2.0623 2.68802 0
M  V30 4312 C 416.865 -2.597 2.72457 0
M  V30 4313 C 416.012 -1.36201 2.41546 0
M  V30 4314 H 418.963 -0.337698 1.55065 0
M  V30 4315 H 418.984 -2.90196 2.46103 0
M  V30 4316 H 418.496 -1.46987 3.59188 0
M  V30 4317 H 416.597 -3.22724 1.86225 0
M  V30 4318 H 416.71 -3.00296 3.73308 0
M  V30 4319 H 415.074 -1.67068 1.9225 0
M  V30 4320 H 415.857 -0.787425 3.34147 0
M  V30 4321 N 418.302 -1.35869 -0.798587 0
M  V30 4322 C 419.527 -1.32883 -1.59238 0
M  V30 4323 C 419.952 0.0894587 -1.87887 0
M  V30 4324 O 419.31 1.05869 -1.47178 0
M  V30 4325 C 419.358 -2.14892 -2.89575 0
M  V30 4326 O 418.462 -1.53512 -3.82763 0
M  V30 4327 H 417.803 -0.455236 -0.48338 0
M  V30 4328 H 420.333 -1.79024 -0.990539 0
M  V30 4329 H 420.343 -2.27139 -3.38928 0
M  V30 4330 H 419.018 -3.17998 -2.68049 0
M  V30 4331 H 417.595 -1.50153 -3.41334 0
M  V30 4332 N 419.78 1.02168 -1.19998 0
M  V30 4333 C 421.191 1.57135 -1.00825 0
M  V30 4334 C 421.542 1.91276 0.436818 0
M  V30 4335 O 420.667 1.71679 1.3174 0
M  V30 4336 C 421.262 2.85514 -1.82393 0
M  V30 4337 C 419.821 3.37027 -1.67601 0
M  V30 4338 C 418.968 2.10388 -1.80644 0
M  V30 4339 H 421.919 0.846106 -1.34264 0
M  V30 4340 H 421.94 3.56711 -1.32429 0
M  V30 4341 H 421.452 2.60634 -2.87561 0
M  V30 4342 H 419.553 3.66878 -0.650485 0
M  V30 4343 H 419.666 4.09572 -2.4857 0
M  V30 4344 H 418.03 2.22601 -1.23778 0
M  V30 4345 H 418.813 1.8794 -2.87286 0
M  V30 4346 N 421.258 1.00505 1.21394 0
M  V30 4347 C 422.483 0.706367 1.95001 0
M  V30 4348 C 422.908 -0.72463 1.73582 0
M  V30 4349 O 422.266 -1.49702 1.0227 0
M  V30 4350 C 422.314 1.03299 3.45487 0
M  V30 4351 O 421.418 0.138275 4.12168 0
M  V30 4352 H 420.759 0.263175 0.609619 0
M  V30 4353 H 423.289 1.34531 1.54151 0
M  V30 4354 H 423.299 0.979872 3.96059 0
M  V30 4355 H 421.974 2.07567 3.60401 0
M  V30 4356 H 420.551 0.247928 3.72075 0
M  V30 4357 N 422.737 -1.36956 0.779787 0
M  V30 4358 C 424.153 -1.52817 0.460342 0
M  V30 4359 C 424.353 -1.7361 -1.02283 0
M  V30 4360 O 423.409 -1.76207 -1.80852 0
M  V30 4361 C 424.722 -2.71983 1.28241 0
M  V30 4362 C 426.27 -2.85849 1.27512 0
M  V30 4363 C 426.745 -4.08008 2.08072 0
M  V30 4364 N 428.236 -4.15135 2.05467 0
M  V30 4365 C 428.971 -5.08711 2.64577 0
M  V30 4366 N 428.467 -6.07792 3.32506 0
M  V30 4367 N 430.26 -5.01254 2.54363 0
M  V30 4368 H 422.411 -1.21713 1.74068 0
M  V30 4369 H 424.674 -0.593294 0.739396 0
M  V30 4370 H 424.38 -2.63109 2.33381 0
M  V30 4371 H 424.254 -3.65882 0.917088 0
M  V30 4372 H 426.641 -2.94189 0.231686 0
M  V30 4373 H 426.722 -1.92886 1.68014 0
M  V30 4374 H 426.366 -4.00429 3.12441 0
M  V30 4375 H 426.296 -5.001 1.64947 0
M  V30 4376 H 428.787 -3.44189 1.5602 0
M  V30 4377 H 429.1 -6.75739 3.74963 0
M  V30 4378 H 427.445 -6.08047 3.36606 0
M  V30 4379 H 430.636 -4.22795 2.00902 0
M  V30 4380 H 430.809 -5.73995 3.00722 0
M  V30 4381 N 424.215 -0.530993 -1.48385 0
M  V30 4382 C 425.492 0.0671788 -1.95485 0
M  V30 4383 C 425.872 1.51191 -1.47324 0
M  V30 4384 O 425.22 2.17507 -0.700202 0
M  V30 4385 C 425.43 -0.0511206 -3.48963 0
M  V30 4386 C 426.778 0.107632 -4.24464 0
M  V30 4387 O 427.802 0.0226248 -3.56193 0
M  V30 4388 O 426.661 0.285972 -5.45751 0
M  V30 4389 H 423.755 0.0787365 -0.823243 0
M  V30 4390 H 426.301 -0.595662 -1.58902 0
M  V30 4391 H 425.073 -1.05747 -3.7674 0
M  V30 4392 H 424.696 0.650525 -3.92242 0
M  V30 4393 N 425.693 1.55336 -0.266172 0
M  V30 4394 C 426.656 2.20878 0.612001 0
M  V30 4395 C 427.656 1.18388 1.08816 0
M  V30 4396 O 428.846 1.4335 0.989774 0
M  V30 4397 C 425.978 2.86765 1.84332 0
M  V30 4398 H 427.171 2.99873 0.0398718 0
M  V30 4399 H 424.724 1.56291 -0.0167309 0
M  V30 4400 H 425.459 2.11759 2.45619 0
M  V30 4401 H 425.244 3.61862 1.5099 0
M  V30 4402 H 426.734 3.36867 2.46801 0
M  V30 4403 N 427.171 -0.0066808 1.57599 0
M  V30 4404 C 428.396 -0.707738 1.94951 0
M  V30 4405 C 428.821 -1.66882 0.867868 0
M  V30 4406 O 428.179 -1.80457 -0.17458 0
M  V30 4407 C 428.227 -1.42162 3.31394 0
M  V30 4408 O 427.331 -2.53578 3.25226 0
M  V30 4409 H 426.672 -0.188752 0.636607 0
M  V30 4410 H 429.202 0.0445193 2.04552 0
M  V30 4411 H 429.212 -1.78655 3.66806 0
M  V30 4412 H 427.887 -0.716903 4.09675 0
M  V30 4413 H 426.464 -2.19463 3.01481 0
M  V30 4414 N 428.649 -1.55105 -0.279332 0
M  V30 4415 C 430.06 -1.66186 -0.850832 0
M  V30 4416 C 430.411 -0.584707 -1.87285 0
M  V30 4417 O 429.536 0.274919 -2.14647 0
M  V30 4418 C 430.131 -3.01264 -1.55001 0
M  V30 4419 C 428.69 -3.14394 -2.06963 0
M  V30 4420 C 427.837 -2.61959 -0.909536 0
M  V30 4421 H 430.788 -1.58602 -0.0558235 0
M  V30 4422 H 430.809 -2.93899 -2.41669 0
M  V30 4423 H 430.321 -3.7964 -0.805931 0
M  V30 4424 H 428.422 -2.4078 -2.84352 0
M  V30 4425 H 428.535 -4.20867 -2.28928 0
M  V30 4426 H 426.899 -2.18957 -1.30116 0
M  V30 4427 H 427.682 -3.42833 -0.179062 0
M  V30 4428 N 430.127 0.543554 -1.4793 0
M  V30 4429 C 431.375 1.29752 -1.54948 0
M  V30 4430 C 431.696 1.93764 -0.219242 0
M  V30 4431 O 430.966 1.80639 0.75805 0
M  V30 4432 H 429.546 0.481874 -0.570795 0
M  V30 4433 H 432.208 0.633636 -1.84312 0
M  V30 4434 H 431.304 2.08392 -2.32334 0
M  V30 4435 N 431.605 1.3629 0.791371 0
M  V30 4436 C 432.853 1.30154 1.5461 0
M  V30 4437 C 433.174 -0.119409 1.94634 0
M  V30 4438 O 432.444 -1.05924 1.64794 0
M  V30 4439 H 431.024 0.478784 0.573389 0
M  V30 4440 H 433.686 1.70565 0.94306 0
M  V30 4441 H 432.782 1.92762 2.45457 0
M  V30 4442 N 433.083 -1.0153 1.20538 0
M  V30 4443 C 434.494 -1.56598 1.01657 0
M  V30 4444 C 434.845 -1.91505 -0.426668 0
M  V30 4445 O 433.97 -1.72375 -1.30827 0
M  V30 4446 C 434.565 -2.84542 1.83905 0
M  V30 4447 C 433.124 -3.36133 1.69386 0
M  V30 4448 C 432.271 -2.09427 1.81757 0
M  V30 4449 H 435.222 -0.838974 1.34711 0
M  V30 4450 H 435.243 -3.56004 1.34319 0
M  V30 4451 H 434.755 -2.59105 2.8894 0
M  V30 4452 H 432.856 -3.66528 0.669933 0
M  V30 4453 H 432.969 -4.08248 2.50739 0
M  V30 4454 H 431.333 -2.21941 1.24957 0
M  V30 4455 H 432.116 -1.86414 2.88279 0
M  V30 4456 N 434.561 -1.01147 -1.20859 0
M  V30 4457 C 435.809 -0.696486 -1.89719 0
M  V30 4458 C 436.13 0.775788 -1.78904 0
M  V30 4459 O 435.4 1.55759 -1.18811 0
M  V30 4460 H 433.98 -0.254628 -0.702263 0
M  V30 4461 H 436.642 -1.28197 -1.46804 0
M  V30 4462 H 435.738 -0.975357 -2.96468 0
M  V30 4463 N 436.039 1.36541 -0.78704 0
M  V30 4464 C 437.287 1.98911 -0.357633 0
M  V30 4465 C 437.608 1.62778 1.07371 0
M  V30 4466 O 436.878 0.900612 1.73971 0
M  V30 4467 H 435.458 0.735734 -0.129246 0
M  V30 4468 H 438.12 1.66776 -1.00855 0
M  V30 4469 H 437.216 3.08874 -0.447549 0
M  V30 4470 N 437.518 0.538854 1.48102 0
M  V30 4471 C 438.929 0.100679 1.86428 0
M  V30 4472 C 439.28 -1.32447 1.44749 0
M  V30 4473 O 438.405 -1.99339 0.842199 0
M  V30 4474 C 439 0.175933 3.38343 0
M  V30 4475 C 437.559 -0.207098 3.7583 0
M  V30 4476 C 436.706 0.531741 2.72154 0
M  V30 4477 H 439.657 0.749614 1.3988 0
M  V30 4478 H 439.678 -0.610144 3.75576 0
M  V30 4479 H 439.19 1.21328 3.68648 0
M  V30 4480 H 437.291 -1.24626 3.5114 0
M  V30 4481 H 437.404 0.138687 4.78899 0
M  V30 4482 H 435.768 -0.0230462 2.5469 0
M  V30 4483 H 436.551 1.56989 3.05302 0
M  V30 4484 N 438.996 -1.55193 0.274407 0
M  V30 4485 C 440.244 -1.99187 -0.341902 0
M  V30 4486 C 440.565 -1.16422 -1.56431 0
M  V30 4487 O 439.835 -0.253573 -1.94252 0
M  V30 4488 H 438.415 -0.735721 -0.129317 0
M  V30 4489 H 441.077 -1.91168 0.379578 0
M  V30 4490 H 440.173 -3.05629 -0.632253 0
M  V30 4491 N 440.474 -0.00167713 -1.576 0
M  V30 4492 C 441.721 0.68282 -1.90641 0
M  V30 4493 C 442.049 1.73686 -0.875415 0
M  V30 4494 O 441.304 1.95334 0.119575 0
M  V30 4495 C 441.603 1.36189 -3.30435 0
M  V30 4496 C 441.269 0.440887 -4.48739 0
M  V30 4497 C 439.931 0.187312 -4.80835 0
M  V30 4498 C 442.283 -0.193134 -5.20842 0
M  V30 4499 C 439.611 -0.70855 -5.82406 0
M  V30 4500 C 441.963 -1.07688 -6.23367 0
M  V30 4501 C 440.627 -1.33962 -6.53919 0
M  V30 4502 H 439.897 0.249862 -0.697603 0
M  V30 4503 H 442.544 -0.0575642 -1.91413 0
M  V30 4504 H 440.849 2.17636 -3.25794 0
M  V30 4505 H 442.546 1.89759 -3.5326 0
M  V30 4506 H 439.136 0.648694 -4.23663 0
M  V30 4507 H 443.32 -0.0102445 -4.96299 0
M  V30 4508 H 438.576 -0.920097 -6.04437 0
M  V30 4509 H 442.75 -1.57451 -6.78367 0
M  V30 4510 H 440.377 -2.03549 -7.32442 0
M  V30 4511 N 441.952 1.55251 0.271103 0
M  V30 4512 C 442.915 1.87484 1.31842 0
M  V30 4513 C 443.915 0.749545 1.42262 0
M  V30 4514 O 445.105 1.01771 1.4138 0
M  V30 4515 C 442.237 2.0818 2.69951 0
M  V30 4516 H 443.43 2.81108 1.0449 0
M  V30 4517 H 440.983 1.47771 0.509258 0
M  V30 4518 H 441.718 1.16944 3.02481 0
M  V30 4519 H 441.503 2.90114 2.63774 0
M  V30 4520 H 442.993 2.34385 3.4562 0
M  V30 4521 N 443.43 -0.535701 1.48216 0
M  V30 4522 C 444.655 -1.32149 1.59848 0
M  V30 4523 C 445.08 -1.86338 0.256842 0
M  V30 4524 O 444.438 -1.64107 -0.770632 0
M  V30 4525 C 444.486 -2.45224 2.64381 0
M  V30 4526 O 443.59 -3.48093 2.21144 0
M  V30 4527 H 442.931 -0.391634 0.536208 0
M  V30 4528 H 445.461 -0.645202 1.94161 0
M  V30 4529 H 445.471 -2.91491 2.85476 0
M  V30 4530 H 444.146 -2.05143 3.61786 0
M  V30 4531 H 442.723 -3.07984 2.10239 0
M  V30 4532 N 444.908 -1.36708 -0.784132 0
M  V30 4533 C 446.136 -1.34398 -1.57305 0
M  V30 4534 C 446.551 0.0735577 -1.88657 0
M  V30 4535 O 445.908 1.03193 -1.50524 0
M  V30 4536 C 445.959 -2.17053 -2.89085 0
M  V30 4537 O 445.68 -3.53281 -2.59083 0
M  V30 4538 C 447.181 -2.22583 -3.83369 0
M  V30 4539 H 444.401 -0.460819 -0.487736 0
M  V30 4540 H 446.945 -1.79879 -0.972819 0
M  V30 4541 H 445.1 -1.75113 -3.45564 0
M  V30 4542 H 445.514 -3.9647 -3.43383 0
M  V30 4543 H 446.988 -2.84763 -4.72878 0
M  V30 4544 H 447.465 -1.23075 -4.21603 0
M  V30 4545 H 448.071 -2.64781 -3.32823 0
M  V30 4546 N 446.386 1.0089 -1.21074 0
M  V30 4547 C 447.663 1.71834 -0.934469 0
M  V30 4548 C 448.043 2.0368 0.554753 0
M  V30 4549 O 447.391 1.70742 1.51854 0
M  V30 4550 C 447.601 2.98061 -1.8155 0
M  V30 4551 C 448.949 3.7117 -2.06199 0
M  V30 4552 O 449.973 3.08034 -1.78867 0
M  V30 4553 O 448.832 4.84721 -2.52404 0
M  V30 4554 H 445.926 0.749253 -0.35007 0
M  V30 4555 H 448.472 1.06668 -1.31985 0
M  V30 4556 H 447.244 2.70908 -2.82355 0
M  V30 4557 H 446.867 3.70968 -1.43068 0
M  V30 4558 N 447.864 1.01787 1.20321 0
M  V30 4559 C 449.113 0.703249 1.89043 0
M  V30 4560 C 449.426 -0.770445 1.79787 0
M  V30 4561 O 450.632 -1.19767 2.43656 0
M  V30 4562 C 449.088 1.20749 3.3904 0
M  V30 4563 C 448.696 2.70817 3.56878 0
M  V30 4564 C 450.44 0.968352 4.13308 0
M  V30 4565 C 448.347 3.14716 5.00708 0
M  V30 4566 H 447.277 0.259354 0.707991 0
M  V30 4567 H 449.928 1.23072 1.36108 0
M  V30 4568 H 448.31 0.607989 3.91305 0
M  V30 4569 H 449.484 3.36327 3.14993 0
M  V30 4570 H 447.799 2.92888 2.95983 0
M  V30 4571 H 450.396 1.27173 5.19356 0
M  V30 4572 H 450.739 -0.095149 4.16191 0
M  V30 4573 H 451.272 1.53129 3.67146 0
M  V30 4574 H 448.011 4.20347 5.02979 0
M  V30 4575 H 447.531 2.53927 5.43398 0
M  V30 4576 H 449.21 3.07426 5.69296 0
M  V30 4577 N 449.342 -1.36122 0.79427 0
M  V30 4578 C 450.567 -2.03891 0.379871 0
M  V30 4579 C 450.992 -1.59488 -0.997251 0
M  V30 4580 O 450.35 -0.765652 -1.64339 0
M  V30 4581 C 450.398 -3.57687 0.457442 0
M  V30 4582 O 449.502 -4.08931 -0.5338 0
M  V30 4583 H 448.843 -0.6443 0.160541 0
M  V30 4584 H 451.373 -1.73976 1.07673 0
M  V30 4585 H 451.383 -4.06721 0.322792 0
M  V30 4586 H 450.058 -3.89357 1.46199 0
M  V30 4587 H 448.635 -3.71154 -0.360409 0
M  V30 4588 N 450.82 -0.546701 -1.47814 0
M  V30 4589 C 451.753 0.254472 -2.26777 0
M  V30 4590 C 452.731 0.929809 -1.33392 0
M  V30 4591 O 453.915 0.950889 -1.62759 0
M  V30 4592 C 451.042 1.36171 -3.10121 0
M  V30 4593 C 450.088 0.796038 -4.19005 0
M  V30 4594 S 450.921 -0.349191 -5.3436 0
M  V30 4595 C 452.077 0.760122 -6.21267 0
M  V30 4596 H 452.31 -0.415612 -2.94381 0
M  V30 4597 H 449.843 -0.332809 -1.5077 0
M  V30 4598 H 451.801 1.99588 -3.58713 0
M  V30 4599 H 450.462 2.00359 -2.41899 0
M  V30 4600 H 449.655 1.62719 -4.7701 0
M  V30 4601 H 449.257 0.238246 -3.7324 0
M  V30 4602 H 451.549 1.65479 -6.5698 0
M  V30 4603 H 452.492 0.217673 -7.07765 0
M  V30 4604 H 452.9 1.04806 -5.54685 0
M  V30 4605 N 452.299 1.55045 -0.282633 0
M  V30 4606 C 453.529 2.03872 0.334635 0
M  V30 4607 C 453.937 1.16018 1.49454 0
M  V30 4608 O 453.28 0.174449 1.8287 0
M  V30 4609 C 453.342 3.48791 0.870905 0
M  V30 4610 C 453.006 4.56715 -0.161338 0
M  V30 4611 C 454.003 5.10513 -0.983466 0
M  V30 4612 C 451.688 5.01417 -0.297745 0
M  V30 4613 C 453.682 6.07538 -1.92811 0
M  V30 4614 C 451.369 5.98265 -1.24586 0
M  V30 4615 C 452.367 6.51208 -2.05954 0
M  V30 4616 O 452.055 7.46162 -2.99162 0
M  V30 4617 H 451.787 0.671324 0.0793742 0
M  V30 4618 H 454.341 2.01169 -0.41473 0
M  V30 4619 H 452.571 3.48758 1.67047 0
M  V30 4620 H 454.26 3.80916 1.40207 0
M  V30 4621 H 455.026 4.76785 -0.888856 0
M  V30 4622 H 450.905 4.59849 0.325604 0
M  V30 4623 H 454.449 6.48787 -2.56363 0
M  V30 4624 H 450.346 6.31412 -1.34126 0
M  V30 4625 H 451.114 7.63903 -2.93929 0
M  V30 4626 N 453.777 0.010035 1.57597 0
M  V30 4627 C 455.005 -0.683413 1.95287 0
M  V30 4628 C 455.42 -1.66747 0.885481 0
M  V30 4629 O 454.777 -1.82003 -0.134629 0
M  V30 4630 C 454.828 -1.40652 3.33015 0
M  V30 4631 O 454.549 -0.461916 4.35658 0
M  V30 4632 C 456.05 -2.19356 3.85225 0
M  V30 4633 H 453.27 -0.189708 0.643624 0
M  V30 4634 H 455.814 0.0641359 2.04399 0
M  V30 4635 H 453.969 -2.10562 3.2518 0
M  V30 4636 H 454.383 -0.973215 5.15392 0
M  V30 4637 H 455.857 -2.65433 4.83993 0
M  V30 4638 H 456.334 -3.02457 3.18459 0
M  V30 4639 H 456.94 -1.54442 3.96267 0
M  V30 4640 N 455.255 -1.55392 -0.262866 0
M  V30 4641 C 456.185 -1.91978 -1.32917 0
M  V30 4642 C 457.166 -0.7828 -1.51017 0
M  V30 4643 O 458.351 -1.04178 -1.63892 0
M  V30 4644 C 455.481 -2.20055 -2.68687 0
M  V30 4645 C 454.435 -3.35854 -2.65304 0
M  V30 4646 C 453.761 -3.49435 -4.04721 0
M  V30 4647 C 455.061 -4.71977 -2.23685 0
M  V30 4648 H 456.755 -2.81292 -1.02544 0
M  V30 4649 H 454.301 -1.3534 -0.491846 0
M  V30 4650 H 456.254 -2.44237 -3.43404 0
M  V30 4651 H 454.978 -1.27551 -3.00663 0
M  V30 4652 H 453.637 -3.11655 -1.93045 0
M  V30 4653 H 453.285 -2.54379 -4.33936 0
M  V30 4654 H 452.985 -4.27297 -4.0335 0
M  V30 4655 H 454.509 -3.7592 -4.81161 0
M  V30 4656 H 455.923 -4.95637 -2.88127 0
M  V30 4657 H 454.32 -5.52828 -2.33456 0
M  V30 4658 H 455.39 -4.70115 -1.18827 0
M  V30 4659 N 456.733 0.527833 -1.48498 0
M  V30 4660 C 457.958 1.313 -1.60546 0
M  V30 4661 C 458.383 1.86199 -0.26672 0
M  V30 4662 O 457.741 1.64513 0.761918 0
M  V30 4663 C 457.789 2.43818 -2.65678 0
M  V30 4664 O 456.893 3.46916 -2.22987 0
M  V30 4665 H 456.234 0.388784 -0.538277 0
M  V30 4666 H 458.764 0.634896 -1.945 0
M  V30 4667 H 458.774 2.89973 -2.87018 0
M  V30 4668 H 457.449 2.03222 -3.62869 0
M  V30 4669 H 456.026 3.06864 -2.11869 0
M  V30 4670 N 458.211 1.37122 0.776871 0
M  V30 4671 C 459.627 1.1781 1.07671 0
M  V30 4672 C 459.827 0.0107454 2.01497 0
M  V30 4673 O 458.883 -0.650756 2.4397 0
M  V30 4674 C 460.196 2.49451 1.67913 0
M  V30 4675 C 461.744 2.55927 1.80195 0
M  V30 4676 C 462.219 3.87686 2.43851 0
M  V30 4677 N 463.71 3.891 2.51307 0
M  V30 4678 C 464.445 4.87797 3.014 0
M  V30 4679 N 463.941 5.96888 3.51705 0
M  V30 4680 N 465.734 4.75205 3.00227 0
M  V30 4681 H 457.885 2.11843 0.153778 0
M  V30 4682 H 460.148 0.938927 0.130844 0
M  V30 4683 H 459.854 3.35207 1.06439 0
M  V30 4684 H 459.728 2.66169 2.67271 0
M  V30 4685 H 462.115 1.70582 2.40803 0
M  V30 4686 H 462.196 2.43097 0.796069 0
M  V30 4687 H 461.84 4.73444 1.83884 0
M  V30 4688 H 461.77 3.97817 3.45035 0
M  V30 4689 H 464.261 3.10293 2.157 0
M  V30 4690 H 464.574 6.68155 3.88316 0
M  V30 4691 H 462.919 6.0054 3.49824 0
M  V30 4692 H 466.11 3.89103 2.60224 0
M  V30 4693 H 466.283 5.52279 3.38957 0
M  V30 4694 N 459.689 -1.00246 1.21608 0
M  V30 4695 C 460.966 -1.71336 0.943568 0
M  V30 4696 C 461.346 -2.03972 -0.543943 0
M  V30 4697 O 460.694 -1.71545 -1.50946 0
M  V30 4698 C 460.904 -2.97094 1.83128 0
M  V30 4699 C 462.252 -3.70071 2.08165 0
M  V30 4700 O 463.276 -3.07081 1.80498 0
M  V30 4701 O 462.135 -4.83376 2.54971 0
M  V30 4702 H 459.229 -0.747386 0.354039 0
M  V30 4703 H 461.775 -1.05967 1.32549 0
M  V30 4704 H 460.547 -2.69407 2.83788 0
M  V30 4705 H 460.17 -3.70204 1.45034 0
M  V30 4706 N 461.167 -1.02423 -1.1978 0
M  V30 4707 C 462.578 -0.748389 -1.71044 0
M  V30 4708 C 462.929 0.732398 -1.82017 0
M  V30 4709 O 462.054 1.57116 -1.48807 0
M  V30 4710 C 462.649 -1.35187 -3.1066 0
M  V30 4711 C 461.208 -1.12472 -3.59203 0
M  V30 4712 C 460.355 -1.45283 -2.36195 0
M  V30 4713 H 463.306 -1.19275 -1.04686 0
M  V30 4714 H 463.327 -0.746408 -3.73107 0
M  V30 4715 H 462.839 -2.4296 -3.02642 0
M  V30 4716 H 460.94 -0.0649983 -3.72543 0
M  V30 4717 H 461.053 -1.81016 -4.43588 0
M  V30 4718 H 459.417 -0.872034 -2.39307 0
M  V30 4719 H 460.2 -2.54129 -2.30811 0
M  V30 4720 N 462.645 1.35699 -0.801477 0
M  V30 4721 C 463.87 2.03687 -0.390678 0
M  V30 4722 C 464.295 1.60015 0.988778 0
M  V30 4723 O 463.653 0.774357 1.63931 0
M  V30 4724 C 463.701 3.57439 -0.476404 0
M  V30 4725 O 462.805 4.09208 0.512106 0
M  V30 4726 H 462.146 0.64344 -0.163956 0
M  V30 4727 H 464.676 1.73403 -1.08594 0
M  V30 4728 H 464.686 4.06544 -0.344357 0
M  V30 4729 H 463.361 3.88576 -1.48262 0
M  V30 4730 H 461.938 3.7134 0.340721 0
M  V30 4731 N 464.123 0.554532 1.47522 0
M  V30 4732 C 465.07 -0.19466 2.29978 0
M  V30 4733 C 466.04 -0.910882 1.38896 0
M  V30 4734 O 467.225 -0.907102 1.67858 0
M  V30 4735 C 464.365 -1.22035 3.22802 0
M  V30 4736 C 463.478 -0.510474 4.28973 0
M  V30 4737 C 462.613 -1.52123 5.08952 0
M  V30 4738 C 461.652 -0.796173 6.069 0
M  V30 4739 N 460.789 -1.75363 6.79847 0
M  V30 4740 H 465.629 0.51461 2.93523 0
M  V30 4741 H 463.166 0.265607 1.44682 0
M  V30 4742 H 465.124 -1.8276 3.7504 0
M  V30 4743 H 463.754 -1.89769 2.61127 0
M  V30 4744 H 462.806 0.211234 3.79813 0
M  V30 4745 H 464.118 0.0576503 4.98767 0
M  V30 4746 H 463.272 -2.20207 5.65326 0
M  V30 4747 H 462.011 -2.12327 4.39054 0
M  V30 4748 H 461.016 -0.101388 5.49707 0
M  V30 4749 H 462.241 -0.199911 6.78806 0
M  V30 4750 H 460.187 -2.3443 6.12682 0
M  V30 4751 H 460.104 -1.23759 7.45801 0
M  V30 4752 H 461.372 -2.4257 7.40797 0
M  V30 4753 N 465.601 -1.54893 0.290851 0
M  V30 4754 C 466.849 -1.99538 -0.320756 0
M  V30 4755 C 467.17 -1.18075 -1.55188 0
M  V30 4756 O 466.44 -0.274162 -1.93972 0
M  V30 4757 H 465.02 -0.737052 -0.121507 0
M  V30 4758 H 467.682 -1.90755 0.399832 0
M  V30 4759 H 466.778 -3.06282 -0.599802 0
M  V30 4760 N 467.08 -0.0183926 -1.57589 0
M  V30 4761 C 468.305 0.676634 -1.96052 0
M  V30 4762 C 468.73 1.6548 -0.894307 0
M  V30 4763 O 468.088 1.80712 0.145849 0
M  V30 4764 C 468.136 1.36872 -3.33614 0
M  V30 4765 O 467.24 2.48372 -3.29219 0
M  V30 4766 H 466.581 0.1786 -0.63953 0
M  V30 4767 H 469.111 -0.077056 -2.04455 0
M  V30 4768 H 469.121 1.72797 -3.69601 0
M  V30 4769 H 467.796 0.651636 -4.10763 0
M  V30 4770 H 466.373 2.14639 -3.04934 0
M  V30 4771 N 468.558 1.5553 0.254621 0
M  V30 4772 C 469.804 1.77262 0.985193 0
M  V30 4773 C 470.137 0.582286 1.85265 0
M  V30 4774 O 469.412 -0.419666 1.89919 0
M  V30 4775 C 469.695 3.0881 1.85225 0
M  V30 4776 C 469.548 4.38233 1.0135 0
M  V30 4777 C 470.867 3.3653 2.83612 0
M  V30 4778 H 467.986 0.644906 0.356742 0
M  V30 4779 H 470.628 1.88264 0.256236 0
M  V30 4780 H 468.778 2.99562 2.47376 0
M  V30 4781 H 470.45 4.59463 0.411269 0
M  V30 4782 H 468.693 4.32636 0.317574 0
M  V30 4783 H 469.364 5.26644 1.65379 0
M  V30 4784 H 471.84 3.45691 2.31596 0
M  V30 4785 H 470.716 4.29805 3.41407 0
M  V30 4786 H 470.977 2.57064 3.59681 0
M  V30 4787 N 470.036 -0.519951 1.48776 0
M  V30 4788 C 470.999 -1.60574 1.6355 0
M  V30 4789 C 471.999 -1.52557 0.508234 0
M  V30 4790 O 473.189 -1.56047 0.774262 0
M  V30 4791 C 470.321 -3.00211 1.61512 0
M  V30 4792 H 471.514 -1.4881 2.60376 0
M  V30 4793 H 469.067 -0.742772 1.37523 0
M  V30 4794 H 469.802 -3.17471 0.662009 0
M  V30 4795 H 469.587 -3.07439 2.43359 0
M  V30 4796 H 471.077 -3.79134 1.75064 0
M  V30 4797 N 471.514 -1.37532 -0.769588 0
M  V30 4798 C 472.477 -1.33292 -1.86456 0
M  V30 4799 C 473.477 -0.236537 -1.59051 0
M  V30 4800 O 474.667 -0.492511 -1.67093 0
M  V30 4801 C 471.799 -1.07118 -3.23633 0
M  V30 4802 H 472.992 -2.30692 -1.91628 0
M  V30 4803 H 470.545 -1.22593 -0.969572 0
M  V30 4804 H 471.28 -0.102578 -3.24138 0
M  V30 4805 H 471.065 -1.86479 -3.44917 0
M  V30 4806 H 472.555 -1.06806 -4.03711 0
M  V30 4807 N 472.992 0.995999 -1.22138 0
M  V30 4808 C 474.24 1.73167 -1.042 0
M  V30 4809 C 474.561 1.90329 0.42423 0
M  V30 4810 O 473.831 1.4607 1.30539 0
M  V30 4811 H 472.411 0.641593 -0.38258 0
M  V30 4812 H 475.073 1.19974 -1.53598 0
M  V30 4813 H 474.169 2.72734 -1.51731 0
M  V30 4814 N 474.47 1.03057 1.19235 0
M  V30 4815 C 475.4 0.633497 2.24742 0
M  V30 4816 C 476.381 -0.358335 1.66283 0
M  V30 4817 O 477.566 -0.240676 1.92703 0
M  V30 4818 C 474.696 -0.0147648 3.47297 0
M  V30 4819 C 473.65 0.899527 4.18441 0
M  V30 4820 C 472.976 0.116281 5.34574 0
M  V30 4821 C 474.276 2.21404 4.73051 0
M  V30 4822 H 475.97 1.5155 2.58211 0
M  V30 4823 H 473.516 0.73014 1.24117 0
M  V30 4824 H 475.469 -0.304202 4.20301 0
M  V30 4825 H 474.193 -0.931577 3.13032 0
M  V30 4826 H 472.852 1.17319 3.47321 0
M  V30 4827 H 472.5 -0.802619 4.96555 0
M  V30 4828 H 472.2 0.725293 5.83107 0
M  V30 4829 H 473.724 -0.166376 6.10373 0
M  V30 4830 H 475.138 1.98601 5.37802 0
M  V30 4831 H 473.535 2.77512 5.32078 0
M  V30 4832 H 474.605 2.86752 3.91026 0
M  V30 4833 N 475.948 -1.35272 0.808662 0
M  V30 4834 C 476.911 -2.28082 0.226093 0
M  V30 4835 C 477.911 -1.49673 -0.587762 0
M  V30 4836 O 479.101 -1.69404 -0.405943 0
M  V30 4837 C 476.233 -3.33955 -0.684596 0
M  V30 4838 H 477.426 -2.81116 1.04469 0
M  V30 4839 H 474.979 -1.45162 0.579466 0
M  V30 4840 H 475.714 -2.86111 -1.5268 0
M  V30 4841 H 475.499 -3.91965 -0.102699 0
M  V30 4842 H 476.989 -4.03219 -1.08646 0
M  V30 4843 N 477.426 -0.562348 -1.47226 0
M  V30 4844 C 478.674 -0.0401371 -2.0206 0
M  V30 4845 C 478.995 1.3165 -1.43852 0
M  V30 4846 O 478.265 1.85976 -0.615599 0
M  V30 4847 H 476.845 -0.0118479 -0.746906 0
M  V30 4848 H 479.507 -0.73352 -1.8057 0
M  V30 4849 H 478.603 0.0441254 -3.12069 0
M  V30 4850 N 478.904 1.54736 -0.299062 0
M  V30 4851 C 479.867 2.22127 0.565012 0
M  V30 4852 C 480.867 1.20669 1.06281 0
M  V30 4853 O 482.057 1.45417 0.959145 0
M  V30 4854 C 479.189 2.90611 1.78208 0
M  V30 4855 H 480.382 2.99891 -0.0237448 0
M  V30 4856 H 477.935 1.5622 -0.0498788 0
M  V30 4857 H 478.67 2.16921 2.41072 0
M  V30 4858 H 478.455 3.64984 1.43281 0
M  V30 4859 H 479.945 3.42026 2.396 0
M  V30 4860 N 480.382 0.0267497 1.57577 0
M  V30 4861 C 481.63 -0.651116 1.91324 0
M  V30 4862 C 481.951 -1.72804 0.90353 0
M  V30 4863 O 481.221 -1.95822 -0.0552946 0
M  V30 4864 H 479.801 -0.243491 0.706202 0
M  V30 4865 H 482.463 0.0739935 1.94759 0
M  V30 4866 H 481.559 -1.10536 2.9187 0
M  V30 4867 N 481.861 -1.55662 -0.24637 0
M  V30 4868 C 483.109 -1.77168 -0.972411 0
M  V30 4869 C 483.43 -0.590827 -1.85834 0
M  V30 4870 O 482.7 0.393365 -1.9191 0
M  V30 4871 H 481.28 -0.653405 -0.362038 0
M  V30 4872 H 483.942 -1.93101 -0.264189 0
M  V30 4873 H 483.038 -2.68335 -1.59382 0
M  V30 4874 N 483.339 0.512053 -1.4905 0
M  V30 4875 C 484.587 1.26436 -1.57665 0
M  V30 4876 C 484.908 1.93255 -0.260293 0
M  V30 4877 O 484.178 1.82206 0.719564 0
M  V30 4878 H 482.758 0.469658 -0.580888 0
M  V30 4879 H 485.42 0.594398 -1.85615 0
M  V30 4880 H 484.516 2.03417 -2.36702 0
M  V30 4881 N 484.817 1.37938 0.762283 0
M  V30 4882 C 486.065 1.33404 1.51815 0
M  V30 4883 C 486.386 -0.0780975 1.94844 0
M  V30 4884 O 485.656 -1.02405 1.67003 0
M  V30 4885 H 484.236 0.490839 0.563104 0
M  V30 4886 H 486.898 1.72527 0.906669 0
M  V30 4887 H 485.994 1.97926 2.41313 0
M  V30 4888 N 486.295 -0.989507 1.22664 0
M  V30 4889 C 487.543 -1.72612 1.05117 0
M  V30 4890 C 487.864 -1.90552 -0.414131 0
M  V30 4891 O 487.134 -1.4676 -1.29762 0
M  V30 4892 H 485.714 -0.639555 0.385977 0
M  V30 4893 H 488.376 -1.19158 1.54232 0
M  V30 4894 H 487.472 -2.71926 1.53175 0
M  V30 4895 N 487.773 -1.03688 -1.18687 0
M  V30 4896 C 489.021 -0.736572 -1.88199 0
M  V30 4897 C 489.342 0.737665 -1.80509 0
M  V30 4898 O 488.612 1.53204 -1.22088 0
M  V30 4899 H 487.192 -0.269466 -0.696704 0
M  V30 4900 H 489.854 -1.31282 -1.44052 0
M  V30 4901 H 488.95 -1.03802 -2.94332 0
M  V30 4902 N 489.251 1.34841 -0.815825 0
M  V30 4903 C 490.214 2.27959 -0.238185 0
M  V30 4904 C 491.214 1.49983 0.579816 0
M  V30 4905 O 492.404 1.69617 0.396953 0
M  V30 4906 C 489.536 3.34314 0.666876 0
M  V30 4907 H 490.729 2.80558 -1.05958 0
M  V30 4908 H 488.282 1.44852 -0.587156 0
M  V30 4909 H 489.017 2.86916 1.5116 0
M  V30 4910 H 488.802 3.92014 0.0819106 0
M  V30 4911 H 490.292 4.0379 1.06506 0
M  V30 4912 N 490.729 0.570148 1.46925 0
M  V30 4913 C 491.975 0.0510284 2.02736 0
M  V30 4914 C 492.308 -1.3006 1.44215 0
M  V30 4915 O 491.583 -1.84932 0.602521 0
M  V30 4916 C 491.866 -0.028215 3.60089 0
M  V30 4917 C 491.719 1.35142 4.29018 0
M  V30 4918 C 493.038 -0.735181 4.33916 0
M  V30 4919 H 490.157 0.0200178 0.736728 0
M  V30 4920 H 492.799 0.73493 1.75211 0
M  V30 4921 H 490.949 -0.610648 3.83671 0
M  V30 4922 H 492.621 1.97806 4.16738 0
M  V30 4923 H 490.864 1.9226 3.88868 0
M  V30 4924 H 491.535 1.24857 5.37694 0
M  V30 4925 H 494.011 -0.240519 4.15404 0
M  V30 4926 H 492.887 -0.759622 5.43618 0
M  V30 4927 H 493.148 -1.79397 4.04066 0
M  V30 4928 N 492.207 -1.54576 0.307264 0
M  V30 4929 C 493.455 -1.99867 -0.299574 0
M  V30 4930 C 493.776 -1.19714 -1.53927 0
M  V30 4931 O 493.046 -0.29472 -1.9367 0
M  V30 4932 H 491.626 -0.738299 -0.113683 0
M  V30 4933 H 494.288 -1.9032 0.420042 0
M  V30 4934 H 493.384 -3.06901 -0.567283 0
M  V30 4935 N 493.685 -0.035106 -1.57561 0
M  V30 4936 C 494.648 0.929819 -2.09492 0
M  V30 4937 C 495.648 1.25026 -1.01119 0
M  V30 4938 O 496.838 1.18961 -1.27255 0
M  V30 4939 C 493.97 2.24457 -2.56577 0
M  V30 4940 H 495.163 0.479935 -2.96035 0
M  V30 4941 H 492.716 0.213033 -1.54841 0
M  V30 4942 H 493.451 2.74061 -1.73382 0
M  V30 4943 H 493.236 2.02508 -3.35757 0
M  V30 4944 H 494.726 2.93607 -2.96959 0
M  V30 4945 N 495.163 1.55791 0.238111 0
M  V30 4946 C 496.41 1.78033 0.964907 0
M  V30 4947 C 496.738 0.600984 1.84982 0
M  V30 4948 O 495.993 -0.41536 1.91241 0
M  V30 4949 C 496.292 3.05869 1.84875 0
M  V30 4950 C 495.958 4.36808 1.11846 0
M  V30 4951 C 494.62 4.72388 0.916662 0
M  V30 4952 C 496.972 5.17717 0.60151 0
M  V30 4953 C 494.3 5.86406 0.185756 0
M  V30 4954 C 496.652 6.32494 -0.115972 0
M  V30 4955 C 495.316 6.66688 -0.329168 0
M  V30 4956 H 494.586 0.651469 0.353085 0
M  V30 4957 H 497.233 1.90061 0.234318 0
M  V30 4958 H 495.538 2.88891 2.64668 0
M  V30 4959 H 497.235 3.20278 2.41294 0
M  V30 4960 H 493.825 4.08862 1.28569 0
M  V30 4961 H 498.009 4.90678 0.744932 0
M  V30 4962 H 493.265 6.11399 0.0101886 0
M  V30 4963 H 497.439 6.94425 -0.524127 0
M  V30 4964 H 495.066 7.54884 -0.897474 0
M  V30 4965 N 496.642 -0.504142 1.49319 0
M  V30 4966 C 497.89 -1.25598 1.58334 0
M  V30 4967 C 498.211 -1.93114 0.270538 0
M  V30 4968 O 497.481 -1.82585 -0.709891 0
M  V30 4969 H 496.061 -0.466571 0.58337 0
M  V30 4970 H 498.723 -0.584547 1.85928 0
M  V30 4971 H 497.819 -2.02159 2.37778 0
M  V30 4972 N 498.12 -1.38341 -0.754957 0
M  V30 4973 C 499.368 -1.34208 -1.51105 0
M  V30 4974 C 499.689 0.0677634 -1.94882 0
M  V30 4975 O 498.959 1.01517 -1.67544 0
M  V30 4976 H 497.539 -0.493819 -0.560493 0
M  V30 4977 H 500.201 -1.73005 -0.897507 0
M  V30 4978 H 499.297 -1.99203 -2.4026 0
M  V30 4979 N 499.598 0.982988 -1.23187 0
M  V30 4980 C 500.561 2.05649 -1.01198 0
M  V30 4981 C 501.561 1.6078 0.0252464 0
M  V30 4982 O 502.751 1.72878 -0.214243 0
M  V30 4983 C 499.883 3.36744 -0.530656 0
M  V30 4984 H 501.076 2.2659 -1.96461 0
M  V30 4985 H 498.629 1.15602 -1.05195 0
M  V30 4986 H 499.364 3.21492 0.425873 0
M  V30 4987 H 499.149 3.7065 -1.2791 0
M  V30 4988 H 500.639 4.15705 -0.397366 0
M  V30 4989 N 501.076 1.04316 1.18135 0
M  V30 4990 C 502.039 0.640794 2.2006 0
M  V30 4991 C 503.039 -0.303124 1.57917 0
M  V30 4992 O 504.229 -0.0881855 1.73977 0
M  V30 4993 C 501.361 -0.060148 3.40847 0
M  V30 4994 H 502.554 1.54281 2.57172 0
M  V30 4995 H 500.107 0.836004 1.32063 0
M  V30 4996 H 500.842 -0.975845 3.0927 0
M  V30 4997 H 500.627 0.618319 3.87194 0
M  V30 4998 H 502.117 -0.328082 4.16309 0
M  V30 4999 N 502.554 -1.34406 0.822964 0
M  V30 5000 C 503.802 -1.97892 0.410245 0
M  V30 5001 C 504.123 -1.65567 -1.03017 0
M  V30 5002 O 503.393 -0.94642 -1.71522 0
M  V30 5003 H 501.973 -0.732049 0.148707 0
M  V30 5004 H 504.635 -1.64043 1.05242 0
M  V30 5005 H 503.731 -3.07579 0.529284 0
M  V30 5006 N 504.032 -0.577932 -1.46621 0
M  V30 5007 C 505.28 -0.061566 -2.02006 0
M  V30 5008 C 505.601 1.30117 -1.4524 0
M  V30 5009 O 504.871 1.85313 -0.63529 0
M  V30 5010 H 503.451 -0.0197692 -0.746738 0
M  V30 5011 H 506.113 -0.752631 -1.79782 0
M  V30 5012 H 505.209 0.0110238 -3.12098 0
M  V30 5013 N 505.51 1.54411 -0.315457 0
M  V30 5014 C 506.473 2.22713 0.54142 0
M  V30 5015 C 507.473 1.2179 1.04995 0
M  V30 5016 O 508.663 1.46426 0.943667 0
M  V30 5017 C 505.795 2.92485 1.75116 0
M  V30 5018 H 506.988 2.99849 -0.0555508 0
M  V30 5019 H 504.541 1.56159 -0.0664453 0
M  V30 5020 H 505.276 2.19466 2.38758 0
M  V30 5021 H 505.061 3.66483 1.39401 0
M  V30 5022 H 506.551 3.44548 2.35959 0
M  V30 5023 N 506.988 0.0434614 1.5754 0
M  V30 5024 C 508.236 -0.630786 1.92004 0
M  V30 5025 C 508.557 -1.71836 0.921807 0
M  V30 5026 O 507.827 -1.9587 -0.034522 0
M  V30 5027 H 506.407 -0.235988 0.708745 0
M  V30 5028 H 509.069 0.0946462 1.9467 0
M  V30 5029 H 508.165 -1.07434 2.93026 0
M  V30 5030 N 508.466 -1.55915 -0.229846 0
M  V30 5031 C 509.714 -1.7819 -0.953565 0
M  V30 5032 C 510.035 -0.610504 -1.85197 0
M  V30 5033 O 509.305 0.372988 -1.92316 0
M  V30 5034 H 507.885 -0.657208 -0.355087 0
M  V30 5035 H 510.547 -1.9337 -0.243693 0
M  V30 5036 H 509.643 -2.70011 -1.56527 0
M  V30 5037 N 509.944 0.496216 -1.49584 0
M  V30 5038 C 511.192 1.24756 -1.58998 0
M  V30 5039 C 511.513 1.92968 -0.280775 0
M  V30 5040 O 510.783 1.82959 0.700198 0
M  V30 5041 H 509.363 0.463471 -0.585836 0
M  V30 5042 H 512.025 0.574678 -1.86235 0
M  V30 5043 H 511.121 2.00895 -2.38847 0
M  V30 5044 N 511.423 1.38739 0.74761 0
M  V30 5045 C 512.671 1.35007 1.50391 0
M  V30 5046 C 512.992 -0.0574274 1.94915 0
M  V30 5047 O 512.262 -1.00628 1.6808 0
M  V30 5048 H 510.842 0.496784 0.557866 0
M  V30 5049 H 513.504 1.73479 0.888319 0
M  V30 5050 H 512.6 2.00474 2.392 0
M  V30 5051 N 512.901 -0.976442 1.23707 0
M  V30 5052 C 514.149 -1.71487 1.06942 0
M  V30 5053 C 514.47 -1.9098 -0.393897 0
M  V30 5054 O 513.74 -1.48128 -1.28198 0
M  V30 5055 H 512.32 -0.635425 0.392739 0
M  V30 5056 H 514.982 -1.17515 1.55487 0
M  V30 5057 H 514.078 -2.70286 1.56051 0
M  V30 5058 N 514.379 -1.04941 -1.1758 0
M  V30 5059 C 515.627 -0.756492 -1.87408 0
M  V30 5060 C 515.948 0.718478 -1.81281 0
M  V30 5061 O 515.218 1.519 -1.23706 0
M  V30 5062 H 513.798 -0.276841 -0.693807 0
M  V30 5063 H 516.46 -1.32803 -1.42652 0
M  V30 5064 H 515.556 -1.06918 -2.93215 0
M  V30 5065 N 515.857 1.33968 -0.830081 0
M  V30 5066 C 517.105 1.97672 -0.420734 0
M  V30 5067 C 517.426 1.66111 1.02138 0
M  V30 5068 O 516.696 0.955503 1.71017 0
M  V30 5069 H 515.276 0.73125 -0.152587 0
M  V30 5070 H 517.938 1.63483 -1.0611 0
M  V30 5071 H 517.034 3.07294 -0.545588 0
M  V30 5072 N 517.335 0.585699 1.46312 0
M  V30 5073 C 518.583 0.072278 2.01971 0
M  V30 5074 C 518.904 -1.29345 1.45928 0
M  V30 5075 O 518.174 -1.84973 0.645109 0
M  V30 5076 H 516.754 0.023729 0.746623 0
M  V30 5077 H 519.416 0.762155 1.7938 0
M  V30 5078 H 518.512 0.00552767 3.121 0
M  V30 5079 N 518.813 -1.54241 0.323641 0
M  V30 5080 C 520.061 -2.00174 -0.278359 0
M  V30 5081 C 520.382 -1.2134 -1.52648 0
M  V30 5082 O 519.652 -0.315244 -1.93347 0
M  V30 5083 H 518.232 -0.739463 -0.105845 0
M  V30 5084 H 520.894 -1.89864 0.440204 0
M  V30 5085 H 519.99 -3.07486 -0.5347 0
M  V30 5086 N 520.291 -0.0518155 -1.57515 0
M  V30 5087 C 521.254 0.907547 -2.10467 0
M  V30 5088 C 522.254 1.23947 -1.02439 0
M  V30 5089 O 523.444 1.17604 -1.2851 0
M  V30 5090 C 520.576 2.21723 -2.58944 0
M  V30 5091 H 521.769 0.44851 -2.96527 0
M  V30 5092 H 519.322 0.196598 -1.55059 0
M  V30 5093 H 520.057 2.72206 -1.76279 0
M  V30 5094 H 519.842 1.98935 -3.37886 0
M  V30 5095 H 521.332 2.90441 -3.00056 0
M  V30 5096 N 521.769 1.56035 0.221574 0
M  V30 5097 C 523.017 1.78693 0.944102 0
M  V30 5098 C 523.338 0.620317 1.8487 0
M  V30 5099 O 522.608 -0.362784 1.92512 0
M  V30 5100 H 521.188 0.659082 0.351597 0
M  V30 5101 H 523.85 1.93497 0.233435 0
M  V30 5102 H 522.946 2.70837 1.55093 0
M  V30 5103 N 523.247 -0.488276 1.49845 0
M  V30 5104 C 524.21 -1.57069 1.66919 0
M  V30 5105 C 525.21 -1.51445 0.540479 0
M  V30 5106 O 526.4 -1.5437 0.807188 0
M  V30 5107 C 523.532 -2.96718 1.67844 0
M  V30 5108 H 524.725 -1.43254 2.63474 0
M  V30 5109 H 522.278 -0.713435 1.39068 0
M  V30 5110 H 523.013 -3.15996 0.7292 0
M  V30 5111 H 522.798 -3.02208 2.49826 0
M  V30 5112 H 524.288 -3.75335 1.83066 0
M  V30 5113 N 524.725 -1.39134 -0.740242 0
M  V30 5114 C 525.635 -1.39697 -1.88473 0
M  V30 5115 C 526.651 -0.292403 -1.71526 0
M  V30 5116 O 527.827 -0.533021 -1.94219 0
M  V30 5117 C 524.892 -1.23382 -3.24003 0
M  V30 5118 C 523.953 -2.43763 -3.53381 0
M  V30 5119 C 523.186 -2.28216 -4.82445 0
M  V30 5120 O 523.409 -1.28288 -5.55786 0
M  V30 5121 O 522.343 -3.1709 -5.11603 0
M  V30 5122 H 526.169 -2.36159 -1.90952 0
M  V30 5123 H 523.754 -1.20194 -0.887346 0
M  V30 5124 H 525.636 -1.16395 -4.05006 0
M  V30 5125 H 524.311 -0.300121 -3.22306 0
M  V30 5126 H 523.218 -2.56325 -2.72485 0
M  V30 5127 H 524.551 -3.35808 -3.59852 0
M  V30 5128 N 526.204 0.969867 -1.24223 0
M  V30 5129 C 527.62 1.23809 -1.00716 0
M  V30 5130 C 527.82 1.99469 0.285358 0
M  V30 5131 O 526.876 2.31764 1.00207 0
M  V30 5132 C 528.189 2.02734 -2.2208 0
M  V30 5133 C 529.737 2.15834 -2.26681 0
M  V30 5134 C 530.212 2.98154 -3.47661 0
M  V30 5135 N 531.703 3.05737 -3.47964 0
M  V30 5136 C 532.438 3.69785 -4.38231 0
M  V30 5137 N 531.934 4.35569 -5.3875 0
M  V30 5138 N 533.727 3.66775 -4.25949 0
M  V30 5139 H 525.878 0.463294 -2.07286 0
M  V30 5140 H 528.141 0.267348 -0.909521 0
M  V30 5141 H 527.847 1.54524 -3.15935 0
M  V30 5142 H 527.721 3.0347 -2.24021 0
M  V30 5143 H 530.108 2.63248 -1.33359 0
M  V30 5144 H 530.189 1.14453 -2.28767 0
M  V30 5145 H 529.833 2.51435 -4.41297 0
M  V30 5146 H 529.763 3.99729 -3.42818 0
M  V30 5147 H 532.254 2.58941 -2.75242 0
M  V30 5148 H 532.567 4.82251 -6.03866 0
M  V30 5149 H 530.912 4.34244 -5.42639 0
M  V30 5150 H 534.103 3.14558 -3.46657 0
M  V30 5151 H 534.276 4.16407 -4.96497 0
M  V30 5152 N 527.682 1.05563 1.17022 0
M  V30 5153 C 528.959 0.68165 1.83338 0
M  V30 5154 C 529.339 -0.837665 1.93769 0
M  V30 5155 O 528.687 -1.74507 1.47511 0
M  V30 5156 C 528.897 1.375 3.20772 0
M  V30 5157 C 530.245 1.51545 3.96635 0
M  V30 5158 O 531.269 1.33431 3.30264 0
M  V30 5159 O 530.128 1.812 5.15586 0
M  V30 5160 H 527.222 0.240412 0.791285 0
M  V30 5161 H 529.768 1.15545 1.24288 0
M  V30 5162 H 528.54 2.41135 3.08171 0
M  V30 5163 H 528.163 0.890798 3.87493 0
M  V30 5164 N 529.16 -1.33526 0.837174 0
M  V30 5165 C 530.576 -1.50727 0.524743 0
M  V30 5166 C 530.776 -1.77792 -0.948279 0
M  V30 5167 O 529.832 -1.83719 -1.73216 0
M  V30 5168 C 531.145 -2.66299 1.39661 0
M  V30 5169 C 532.693 -2.80183 1.39521 0
M  V30 5170 C 533.168 -3.98815 2.25189 0
M  V30 5171 N 534.659 -4.06047 2.2289 0
M  V30 5172 C 535.394 -4.97032 2.85915 0
M  V30 5173 N 534.89 -5.93143 3.57985 0
M  V30 5174 N 536.683 -4.90015 2.75394 0
M  V30 5175 H 528.834 -1.1422 1.79074 0
M  V30 5176 H 531.097 -0.561399 0.763894 0
M  V30 5177 H 530.803 -2.52974 2.4433 0
M  V30 5178 H 530.677 -3.61663 1.07145 0
M  V30 5179 H 533.064 -2.92942 0.356253 0
M  V30 5180 H 533.145 -1.85586 1.76044 0
M  V30 5181 H 532.789 -3.86817 3.29143 0
M  V30 5182 H 532.719 -4.92654 1.86009 0
M  V30 5183 H 535.21 -3.37262 1.70478 0
M  V30 5184 H 535.523 -6.59227 4.03286 0
M  V30 5185 H 533.868 -5.93223 3.62093 0
M  V30 5186 H 537.059 -4.13894 2.18654 0
M  V30 5187 H 537.232 -5.60724 3.24796 0
M  V30 5188 N 530.638 -0.59345 -1.46 0
M  V30 5189 C 531.886 -0.082988 -2.0193 0
M  V30 5190 C 532.207 1.28569 -1.46612 0
M  V30 5191 O 531.477 1.84629 -0.654909 0
M  V30 5192 H 530.057 -0.0276882 -0.746487 0
M  V30 5193 H 532.719 -0.771657 -1.78973 0
M  V30 5194 H 531.815 -0.022079 -3.12092 0
M  V30 5195 N 532.116 1.54067 -0.331816 0
M  V30 5196 C 533.364 2.00319 0.267739 0
M  V30 5197 C 533.685 1.22148 1.52003 0
M  V30 5198 O 532.955 0.325494 1.93177 0
M  V30 5199 H 531.535 0.740014 0.101922 0
M  V30 5200 H 534.197 1.89628 -0.450267 0
M  V30 5201 H 533.293 3.07765 0.518385 0
M  V30 5202 N 533.594 0.0601682 1.57485 0
M  V30 5203 C 534.557 -0.896373 2.10945 0
M  V30 5204 C 535.557 -1.23402 1.03095 0
M  V30 5205 O 536.747 -1.16921 1.29132 0
M  V30 5206 C 533.879 -2.20346 2.60116 0
M  V30 5207 H 535.072 -0.432778 2.96761 0
M  V30 5208 H 532.625 -0.188372 1.55161 0
M  V30 5209 H 533.36 -2.71268 1.7772 0
M  V30 5210 H 533.145 -1.9714 3.38937 0
M  V30 5211 H 534.635 -2.88846 3.01592 0
M  V30 5212 N 535.072 -1.5615 -0.213296 0
M  V30 5213 C 536.297 -1.83986 -0.957282 0
M  V30 5214 C 536.722 -0.641526 -1.76822 0
M  V30 5215 O 536.08 0.409722 -1.7661 0
M  V30 5216 C 536.128 -3.09889 -1.84393 0
M  V30 5217 O 535.232 -2.89163 -2.94038 0
M  V30 5218 H 534.573 -0.606357 -0.270605 0
M  V30 5219 H 537.103 -2.03369 -0.224111 0
M  V30 5220 H 537.113 -3.40209 -2.25215 0
M  V30 5221 H 535.788 -3.96735 -1.24795 0
M  V30 5222 H 534.365 -2.70097 -2.57103 0
M  V30 5223 N 536.55 0.480323 -1.50102 0
M  V30 5224 C 537.798 1.23063 -1.60312 0
M  V30 5225 C 538.119 1.92659 -0.301226 0
M  V30 5226 O 537.389 1.83691 0.680753 0
M  V30 5227 H 535.969 0.457231 -0.590719 0
M  V30 5228 H 538.631 0.554893 -1.86834 0
M  V30 5229 H 537.727 1.9835 -2.40964 0
M  V30 5230 N 538.028 1.39524 0.732853 0
M  V30 5231 C 539.275 1.36865 1.49246 0
M  V30 5232 C 539.603 -0.0347118 1.94469 0
M  V30 5233 O 538.858 -1.01596 1.67262 0
M  V30 5234 C 539.157 2.28916 2.74468 0
M  V30 5235 C 538.823 3.76506 2.481 0
M  V30 5236 C 537.485 4.16721 2.40619 0
M  V30 5237 C 539.837 4.69846 2.25598 0
M  V30 5238 C 537.165 5.48334 2.08679 0
M  V30 5239 C 539.517 6.01739 1.95174 0
M  V30 5240 C 538.181 6.41015 1.86163 0
M  V30 5241 H 537.451 0.500824 0.546129 0
M  V30 5242 H 540.098 1.72047 0.840958 0
M  V30 5243 H 538.403 1.86859 3.4437 0
M  V30 5244 H 540.1 2.2415 3.32502 0
M  V30 5245 H 536.69 3.44635 2.54803 0
M  V30 5246 H 540.874 4.39608 2.30344 0
M  V30 5247 H 536.13 5.77685 2.00226 0
M  V30 5248 H 540.304 6.73591 1.76771 0
M  V30 5249 H 537.931 7.42917 1.61179 0
M  V30 5250 N 539.506 -0.963266 1.24736 0
M  V30 5251 C 540.436 -2.07628 1.06832 0
M  V30 5252 C 541.417 -1.70088 -0.0200566 0
M  V30 5253 O 542.602 -1.93636 0.147854 0
M  V30 5254 C 539.732 -3.40636 0.677069 0
M  V30 5255 C 538.686 -3.9215 1.71471 0
M  V30 5256 C 538.012 -5.21553 1.1784 0
M  V30 5257 C 539.312 -4.19493 3.11164 0
M  V30 5258 H 541.006 -2.22864 1.9993 0
M  V30 5259 H 538.552 -1.07093 0.96266 0
M  V30 5260 H 540.505 -4.17941 0.538792 0
M  V30 5261 H 539.229 -3.25313 -0.289612 0
M  V30 5262 H 537.888 -3.17005 1.84128 0
M  V30 5263 H 537.536 -5.02593 0.202195 0
M  V30 5264 H 537.236 -5.56988 1.87185 0
M  V30 5265 H 538.76 -6.01463 1.05233 0
M  V30 5266 H 540.174 -4.87487 3.01711 0
M  V30 5267 H 538.571 -4.66165 3.77902 0
M  V30 5268 H 539.641 -3.26097 3.58871 0
M  V30 5269 N 540.985 -1.06182 -1.16461 0
M  V30 5270 C 542.213 -0.798583 -1.90867 0
M  V30 5271 C 542.628 0.646921 -1.77371 0
M  V30 5272 O 541.985 1.44279 -1.11758 0
M  V30 5273 C 542.036 -1.18258 -3.4161 0
M  V30 5274 O 541.757 -2.57135 -3.54701 0
M  V30 5275 C 543.258 -0.946917 -4.33069 0
M  V30 5276 H 540.478 -0.289603 -0.605286 0
M  V30 5277 H 543.022 -1.41515 -1.47627 0
M  V30 5278 H 541.177 -0.610562 -3.82558 0
M  V30 5279 H 541.591 -2.72477 -4.4817 0
M  V30 5280 H 543.065 -1.26523 -5.37304 0
M  V30 5281 H 543.542 0.117406 -4.39043 0
M  V30 5282 H 544.148 -1.50326 -3.97847 0
M  V30 5283 N 542.463 1.3308 -0.844243 0
M  V30 5284 C 543.393 2.3161 -0.296493 0
M  V30 5285 C 544.374 1.59215 0.598707 0
M  V30 5286 O 545.559 1.87077 0.521134 0
M  V30 5287 C 542.689 3.43313 0.524762 0
M  V30 5288 C 541.643 4.27115 -0.275106 0
M  V30 5289 C 540.969 5.30483 0.670236 0
M  V30 5290 C 542.269 5.00443 -1.49514 0
M  V30 5291 H 543.963 2.77672 -1.11976 0
M  V30 5292 H 541.509 1.33496 -0.539899 0
M  V30 5293 H 543.462 4.11273 0.918298 0
M  V30 5294 H 542.186 2.95952 1.3813 0
M  V30 5295 H 540.845 3.60787 -0.650267 0
M  V30 5296 H 540.493 4.79379 1.52332 0
M  V30 5297 H 540.193 5.87435 0.139123 0
M  V30 5298 H 541.717 6.01308 1.06117 0
M  V30 5299 H 543.131 5.61141 -1.17447 0
M  V30 5300 H 541.528 5.67071 -1.96343 0
M  V30 5301 H 542.598 4.28906 -2.26202 0
M  V30 5302 N 543.941 0.601185 1.45683 0
M  V30 5303 C 544.891 -0.142686 2.27553 0
M  V30 5304 C 545.875 -0.844598 1.3695 0
M  V30 5305 O 547.067 -0.735644 1.60988 0
M  V30 5306 C 544.196 -1.14364 3.23691 0
M  V30 5307 C 543.282 -0.442894 4.21781 0
M  V30 5308 N 543.673 0.51189 5.03203 0
M  V30 5309 C 541.971 -0.691277 4.4061 0
M  V30 5310 C 542.672 0.92318 5.74328 0
M  V30 5311 N 541.648 0.268308 5.42937 0
M  V30 5312 H 545.45 0.590736 2.87902 0
M  V30 5313 H 542.964 0.424365 1.56757 0
M  V30 5314 H 544.961 -1.6909 3.8107 0
M  V30 5315 H 543.621 -1.87768 2.64902 0
M  V30 5316 H 544.632 0.888329 5.10225 0
M  V30 5317 H 541.309 -1.41049 3.92952 0
M  V30 5318 H 542.699 1.71029 6.49768 0
M  V30 5319 N 545.419 -1.53889 0.339982 0
M  V30 5320 C 546.367 -2.26391 -0.533822 0
M  V30 5321 C 547.361 -1.28404 -1.10493 0
M  V30 5322 O 548.567 -1.46124 -1.05108 0
M  V30 5323 H 544.942 -0.727385 -0.190828 0
M  V30 5324 H 546.913 -2.98233 0.0997484 0
M  V30 5325 C 545.662 -3.04707 -1.67479 0
M  V30 5326 H 544.985 -3.79934 -1.2446 0
M  V30 5327 H 546.425 -3.58657 -2.26144 0
M  V30 5328 C 544.884 -2.13989 -2.60212 0
M  V30 5329 O 545.414 -1.73361 -3.62366 0
M  V30 5330 N 543.62 -1.79141 -2.28816 0
M  V30 5331 H 543.167 -2.12378 -1.45785 0
M  V30 5332 H 543.125 -1.18725 -2.91121 0
M  V30 5333 N 546.897 -0.0685191 -1.57451 0
M  V30 5334 C 547.86 0.885173 -2.11417 0
M  V30 5335 C 548.86 1.22853 -1.03748 0
M  V30 5336 O 550.05 1.16235 -1.2975 0
M  V30 5337 C 547.182 2.18964 -2.61281 0
M  V30 5338 H 548.375 0.417034 -2.96986 0
M  V30 5339 H 545.928 0.18014 -1.55258 0
M  V30 5340 H 546.663 2.70321 -1.79156 0
M  V30 5341 H 546.448 1.9534 -3.39977 0
M  V30 5342 H 547.938 2.87242 -3.0312 0
M  V30 5343 N 548.375 1.56261 0.205012 0
M  V30 5344 C 549.622 1.8004 0.926927 0
M  V30 5345 C 549.95 0.640086 1.83666 0
M  V30 5346 O 549.205 -0.374702 1.92079 0
M  V30 5347 C 549.504 3.09722 1.78345 0
M  V30 5348 C 549.17 4.39082 1.02555 0
M  V30 5349 C 547.832 4.74226 0.816256 0
M  V30 5350 C 550.184 5.18877 0.491559 0
M  V30 5351 C 547.512 5.86668 0.0613287 0
M  V30 5352 C 549.864 6.32105 -0.250107 0
M  V30 5353 C 548.528 6.6584 -0.470508 0
M  V30 5354 H 547.798 0.658812 0.339187 0
M  V30 5355 H 550.445 1.90515 0.19395 0
M  V30 5356 H 548.75 2.9444 2.5848 0
M  V30 5357 H 550.447 3.25324 2.34446 0
M  V30 5358 H 547.037 4.11497 1.19868 0
M  V30 5359 H 551.221 4.92147 0.640684 0
M  V30 5360 H 546.477 6.11283 -0.119501 0
M  V30 5361 H 550.651 6.93157 -0.671307 0
M  V30 5362 H 548.278 7.5281 -1.05739 0
M  V30 5363 N 549.853 -0.472356 1.50355 0
M  V30 5364 C 551.264 -1.05326 1.54154 0
M  V30 5365 C 551.615 -1.93155 0.344303 0
M  V30 5366 O 550.74 -2.09479 -0.542928 0
M  V30 5367 C 551.335 -1.91691 2.79356 0
M  V30 5368 C 549.894 -2.44892 2.8584 0
M  V30 5369 C 549.041 -1.23205 2.48426 0
M  V30 5370 H 551.992 -0.255027 1.56637 0
M  V30 5371 H 552.013 -2.76742 2.6114 0
M  V30 5372 H 551.525 -1.27741 3.66475 0
M  V30 5373 H 549.626 -3.12399 2.0307 0
M  V30 5374 H 549.739 -2.80086 3.88701 0
M  V30 5375 H 548.103 -1.56643 2.00836 0
M  V30 5376 H 548.886 -0.609194 3.37852 0
M  V30 5377 N 551.331 -1.39911 -0.725443 0
M  V30 5378 C 552.278 -1.39393 -1.83952 0
M  V30 5379 C 553.248 -0.252249 -1.64173 0
M  V30 5380 O 554.433 -0.44882 -1.85446 0
M  V30 5381 C 551.573 -1.25262 -3.21564 0
M  V30 5382 C 550.686 -2.49054 -3.52982 0
M  V30 5383 C 549.821 -2.27439 -4.80047 0
M  V30 5384 C 548.86 -3.46857 -5.04338 0
M  V30 5385 N 547.997 -3.24499 -6.22611 0
M  V30 5386 H 552.837 -2.34622 -1.83729 0
M  V30 5387 H 550.374 -1.16537 -0.897636 0
M  V30 5388 H 552.332 -1.15077 -4.01015 0
M  V30 5389 H 550.962 -0.33657 -3.21041 0
M  V30 5390 H 550.014 -2.69805 -2.6816 0
M  V30 5391 H 551.326 -3.37973 -3.66846 0
M  V30 5392 H 550.48 -2.14551 -5.67497 0
M  V30 5393 H 549.219 -1.35929 -4.68374 0
M  V30 5394 H 548.224 -3.60232 -4.15346 0
M  V30 5395 H 549.449 -4.3928 -5.17889 0
M  V30 5396 H 547.395 -2.35663 -6.12208 0
M  V30 5397 H 547.312 -4.06978 -6.37106 0
M  V30 5398 H 548.58 -3.15325 -7.12875 0
M  V30 5399 N 552.809 0.956637 -1.25245 0
M  V30 5400 C 553.719 2.0868 -1.0719 0
M  V30 5401 C 554.735 1.73997 -0.00959074 0
M  V30 5402 O 555.911 2.00301 -0.210104 0
M  V30 5403 C 552.976 3.39754 -0.690526 0
M  V30 5404 C 552.037 3.88316 -1.83055 0
M  V30 5405 C 551.27 5.13134 -1.46728 0
M  V30 5406 O 551.493 5.6925 -0.362029 0
M  V30 5407 O 550.427 5.56356 -2.29677 0
M  V30 5408 H 554.253 2.26813 -2.01965 0
M  V30 5409 H 551.838 1.07098 -1.04165 0
M  V30 5410 H 553.72 4.18543 -0.489871 0
M  V30 5411 H 552.395 3.22896 0.227981 0
M  V30 5412 H 551.302 3.1054 -2.08604 0
M  V30 5413 H 552.635 4.09669 -2.72822 0
M  V30 5414 N 554.287 1.06798 1.15896 0
M  V30 5415 C 555.25 0.687328 2.18651 0
M  V30 5416 C 556.25 -0.269559 1.58524 0
M  V30 5417 O 557.44 -0.0512627 1.74125 0
M  V30 5418 C 554.572 0.0121642 3.40898 0
M  V30 5419 H 555.765 1.59701 2.53842 0
M  V30 5420 H 553.318 0.863828 1.3026 0
M  V30 5421 H 554.053 -0.910025 3.1127 0
M  V30 5422 H 553.838 0.700309 3.85795 0
M  V30 5423 H 555.328 -0.239703 4.16911 0
M  V30 5424 N 555.766 -1.3263 0.851289 0
M  V30 5425 C 557.014 -1.96978 0.452128 0
M  V30 5426 C 557.335 -1.67715 -0.99482 0
M  V30 5427 O 556.605 -0.98259 -1.69476 0
M  V30 5428 H 555.185 -0.72873 0.164202 0
M  V30 5429 H 557.847 -1.61774 1.08698 0
M  V30 5430 H 556.943 -3.06387 0.594407 0
M  V30 5431 N 557.244 -0.608902 -1.45362 0
M  V30 5432 C 558.492 -0.104401 -2.0183 0
M  V30 5433 C 558.813 1.27007 -1.47967 0
M  V30 5434 O 558.083 1.83924 -0.674455 0
M  V30 5435 H 556.663 -0.0356042 -0.746151 0
M  V30 5436 H 559.325 -0.790596 -1.78145 0
M  V30 5437 H 558.421 -0.0551793 -3.12051 0
M  V30 5438 N 558.722 1.53707 -0.348139 0
M  V30 5439 C 559.97 2.00591 0.246478 0
M  V30 5440 C 560.291 1.23753 1.50699 0
M  V30 5441 O 559.561 0.345964 1.92821 0
M  V30 5442 H 558.141 0.741053 0.0940679 0
M  V30 5443 H 560.803 1.89139 -0.470354 0
M  V30 5444 H 559.899 3.08297 0.485714 0
M  V30 5445 N 560.2 0.0768682 1.57412 0
M  V30 5446 C 561.446 -0.591961 1.93968 0
M  V30 5447 C 561.779 -1.68954 0.9575 0
M  V30 5448 O 561.054 -1.94496 -0.0124675 0
M  V30 5449 C 561.337 -1.16418 3.40762 0
M  V30 5450 C 561.19 -0.0728933 4.49741 0
M  V30 5451 C 562.509 -2.06814 3.88479 0
M  V30 5452 H 559.628 -0.213716 0.705333 0
M  V30 5453 H 562.27 0.14387 1.89455 0
M  V30 5454 H 560.42 -1.79128 3.4474 0
M  V30 5455 H 562.092 0.560446 4.57883 0
M  V30 5456 H 560.335 0.595859 4.29688 0
M  V30 5457 H 561.006 -0.513755 5.49604 0
M  V30 5458 H 563.482 -1.54033 3.8654 0
M  V30 5459 H 562.358 -2.43785 4.91793 0
M  V30 5460 H 562.619 -2.97844 3.26713 0
M  V30 5461 N 561.678 -1.56367 -0.196722 0
M  V30 5462 C 562.906 -1.84639 -0.933608 0
M  V30 5463 C 563.321 -0.659164 -1.76919 0
M  V30 5464 O 562.678 0.372142 -1.78665 0
M  V30 5465 C 562.729 -3.11694 -1.83109 0
M  V30 5466 O 562.45 -4.25838 -1.02924 0
M  V30 5467 C 563.951 -3.53132 -2.67979 0
M  V30 5468 H 561.171 -0.613188 -0.272473 0
M  V30 5469 H 563.715 -2.03475 -0.204465 0
M  V30 5470 H 561.87 -2.94759 -2.51387 0
M  V30 5471 H 562.284 -4.98178 -1.64069 0
M  V30 5472 H 563.758 -4.45005 -3.26611 0
M  V30 5473 H 564.235 -2.76045 -3.41608 0
M  V30 5474 H 564.841 -3.72592 -2.05074 0
M  V30 5475 N 563.156 0.464375 -1.50603 0
M  V30 5476 C 564.402 1.21776 -1.62168 0
M  V30 5477 C 564.735 1.91476 -0.324154 0
M  V30 5478 O 564.01 1.8242 0.674782 0
M  V30 5479 C 564.293 2.25614 -2.80661 0
M  V30 5480 C 564.146 1.60175 -4.20314 0
M  V30 5481 C 565.465 3.26862 -2.94702 0
M  V30 5482 H 562.584 0.44137 -0.590222 0
M  V30 5483 H 565.226 0.510623 -1.8301 0
M  V30 5484 H 563.376 2.85923 -2.63021 0
M  V30 5485 H 565.048 1.03411 -4.4956 0
M  V30 5486 H 563.291 0.904697 -4.24261 0
M  V30 5487 H 563.962 2.35665 -4.99165 0
M  V30 5488 H 566.438 2.76582 -3.10872 0
M  V30 5489 H 565.314 3.96839 -3.79223 0
M  V30 5490 H 565.575 3.91382 -2.05603 0
M  V30 5491 N 564.634 1.40294 0.718013 0
M  V30 5492 C 565.862 1.4175 1.50714 0
M  V30 5493 C 566.277 0.0165366 1.88793 0
M  V30 5494 O 565.634 -0.958942 1.55276 0
M  V30 5495 C 565.685 2.30598 2.784 0
M  V30 5496 O 565.406 3.6524 2.41932 0
M  V30 5497 C 566.907 2.4062 3.72313 0
M  V30 5498 H 564.127 0.483565 0.465194 0
M  V30 5499 H 566.671 1.84316 0.885889 0
M  V30 5500 H 564.826 1.91401 3.36815 0
M  V30 5501 H 565.24 4.12402 3.24076 0
M  V30 5502 H 566.714 3.07001 4.58753 0
M  V30 5503 H 567.191 1.4305 4.15251 0
M  V30 5504 H 567.797 2.80359 3.19811 0
M  V30 5505 N 566.112 -0.949982 1.2575 0
M  V30 5506 C 567.358 -1.69766 1.10938 0
M  V30 5507 C 567.691 -1.91056 -0.348028 0
M  V30 5508 O 566.966 -1.48488 -1.25625 0
M  V30 5509 C 567.249 -3.07779 1.86933 0
M  V30 5510 C 567.102 -2.9387 3.4053 0
M  V30 5511 C 568.421 -4.07749 1.65616 0
M  V30 5512 H 565.54 -0.616144 0.404396 0
M  V30 5513 H 568.182 -1.10394 1.54639 0
M  V30 5514 H 566.332 -3.58462 1.4979 0
M  V30 5515 H 568.004 -2.50476 3.87375 0
M  V30 5516 H 566.247 -2.29686 3.68004 0
M  V30 5517 H 566.918 -3.91719 3.88922 0
M  V30 5518 H 569.394 -3.65994 1.97959 0
M  V30 5519 H 568.27 -5.02348 2.21218 0
M  V30 5520 H 568.531 -4.38029 0.598595 0
M  V30 5521 N 567.59 -1.07411 -1.15328 0
M  V30 5522 C 568.818 -0.818782 -1.90009 0
M  V30 5523 C 569.233 0.628072 -1.78047 0
M  V30 5524 O 568.59 1.43085 -1.13282 0
M  V30 5525 C 568.641 -1.21874 -3.40337 0
M  V30 5526 O 568.362 -2.60883 -3.51954 0
M  V30 5527 C 569.863 -0.992796 -4.3204 0
M  V30 5528 H 567.083 -0.296007 -0.60218 0
M  V30 5529 H 569.627 -1.43073 -1.46117 0
M  V30 5530 H 567.782 -0.651103 -3.81889 0
M  V30 5531 H 568.196 -2.77216 -4.45255 0
M  V30 5532 H 569.67 -1.32215 -5.35932 0
M  V30 5533 H 570.147 0.0708331 -4.39143 0
M  V30 5534 H 570.753 -1.54537 -3.9623 0
M  V30 5535 N 569.068 1.32177 -0.85831 0
M  V30 5536 C 570.316 1.96735 -0.462568 0
M  V30 5537 C 570.637 1.6824 0.985911 0
M  V30 5538 O 569.907 0.991564 1.68952 0
M  V30 5539 H 568.487 0.727849 -0.168064 0
M  V30 5540 H 571.149 1.61195 -1.09554 0
M  V30 5541 H 570.245 3.06068 -0.610647 0
M  V30 5542 N 570.547 0.616602 1.45037 0
M  V30 5543 C 571.958 0.199359 1.85633 0
M  V30 5544 C 572.309 -1.24588 1.51566 0
M  V30 5545 O 571.434 -1.94594 0.94668 0
M  V30 5546 C 572.029 0.355033 3.36935 0
M  V30 5547 C 570.588 -0.00758748 3.76399 0
M  V30 5548 C 569.735 0.675256 2.68953 0
M  V30 5549 H 572.686 0.822708 1.3571 0
M  V30 5550 H 572.707 -0.410201 3.78282 0
M  V30 5551 H 572.219 1.40699 3.61698 0
M  V30 5552 H 570.32 -1.05837 3.57252 0
M  V30 5553 H 570.433 0.392346 4.77491 0
M  V30 5554 H 568.797 0.111992 2.54454 0
M  V30 5555 H 569.58 1.72952 2.96551 0
M  V30 5556 N 572.025 -1.5352 0.356285 0
M  V30 5557 C 573.436 -1.86282 -0.12492 0
M  V30 5558 C 573.787 -1.27717 -1.48939 0
M  V30 5559 O 572.912 -0.595614 -2.08042 0
M  V30 5560 C 573.507 -3.37995 -0.23345 0
M  V30 5561 C 572.066 -3.70588 -0.658899 0
M  V30 5562 C 571.213 -2.76581 0.199596 0
M  V30 5563 H 574.164 -1.47901 0.575423 0
M  V30 5564 H 574.185 -3.65475 -1.0587 0
M  V30 5565 H 573.697 -3.8059 0.759776 0
M  V30 5566 H 571.798 -3.33544 -1.66069 0
M  V30 5567 H 571.911 -4.77076 -0.439957 0
M  V30 5568 H 570.275 -2.52552 -0.330076 0
M  V30 5569 H 571.058 -3.22008 1.19019 0
M  V30 5570 N 573.503 -0.0852151 -1.57369 0
M  V30 5571 C 574.466 0.8627 -2.12344 0
M  V30 5572 C 575.466 1.21746 -1.05046 0
M  V30 5573 O 576.656 1.14852 -1.30976 0
M  V30 5574 C 573.788 2.1618 -2.63589 0
M  V30 5575 H 574.981 0.385511 -2.97412 0
M  V30 5576 H 572.534 0.163663 -1.55441 0
M  V30 5577 H 573.269 2.68406 -1.82013 0
M  V30 5578 H 573.054 1.91723 -3.4203 0
M  V30 5579 H 574.544 2.84011 -3.06149 0
M  V30 5580 N 574.981 1.5647 0.188427 0
M  V30 5581 C 576.392 1.70864 0.752494 0
M  V30 5582 C 576.743 0.692905 1.83557 0
M  V30 5583 O 575.868 -0.149307 2.15884 0
M  V30 5584 C 576.463 3.09789 1.37173 0
M  V30 5585 C 575.022 3.25925 1.88281 0
M  V30 5586 C 574.169 2.66817 0.755259 0
M  V30 5587 H 577.12 1.58657 -0.0367408 0
M  V30 5588 H 577.141 3.07489 2.24122 0
M  V30 5589 H 576.653 3.83693 0.583219 0
M  V30 5590 H 574.754 2.56948 2.6983 0
M  V30 5591 H 574.867 4.33498 2.04001 0
M  V30 5592 H 573.231 2.2617 1.17128 0
M  V30 5593 H 574.014 3.43294 -0.0211237 0
M  V30 5594 N 576.459 -0.456382 1.50847 0
M  V30 5595 C 577.87 -1.03685 1.55262 0
M  V30 5596 C 578.221 -1.92779 0.364771 0
M  V30 5597 O 577.346 -2.10043 -0.52068 0
M  V30 5598 C 577.941 -1.88718 2.81374 0
M  V30 5599 C 576.5 -2.41847 2.88422 0
M  V30 5600 C 575.647 -1.20564 2.49719 0
M  V30 5601 H 578.598 -0.238399 1.56899 0
M  V30 5602 H 578.619 -2.73957 2.6406 0
M  V30 5603 H 578.131 -1.23847 3.67809 0
M  V30 5604 H 576.232 -3.10228 2.06372 0
M  V30 5605 H 576.345 -2.75947 3.9165 0
M  V30 5606 H 574.709 -1.54504 2.02486 0
M  V30 5607 H 575.492 -0.573326 3.38479 0
M  V30 5608 N 577.937 -1.40673 -0.710563 0
M  V30 5609 C 578.9 -1.4108 -1.80635 0
M  V30 5610 C 579.9 -0.303783 -1.57904 0
M  V30 5611 O 581.09 -0.562937 -1.64853 0
M  V30 5612 C 578.222 -1.20748 -3.18799 0
M  V30 5613 H 579.415 -2.38612 -1.81671 0
M  V30 5614 H 576.968 -1.26595 -0.916704 0
M  V30 5615 H 577.703 -0.239964 -3.23411 0
M  V30 5616 H 577.488 -2.00941 -3.36698 0
M  V30 5617 H 578.978 -1.23833 -3.98817 0
M  V30 5618 N 579.415 0.9433 -1.26252 0
M  V30 5619 C 580.826 1.50404 -1.10614 0
M  V30 5620 C 581.177 1.93666 0.31429 0
M  V30 5621 O 580.302 1.79709 1.20555 0
M  V30 5622 C 580.897 2.73336 -2.00182 0
M  V30 5623 C 579.456 3.25686 -1.88695 0
M  V30 5624 C 578.603 1.98474 -1.93658 0
M  V30 5625 H 581.554 0.759006 -1.39373 0
M  V30 5626 H 581.575 3.47567 -1.54847 0
M  V30 5627 H 581.087 2.41818 -3.03555 0
M  V30 5628 H 579.188 3.61998 -0.882489 0
M  V30 5629 H 579.301 3.92935 -2.74115 0
M  V30 5630 H 577.665 2.14278 -1.37684 0
M  V30 5631 H 578.448 1.6929 -2.98657 0
M  V30 5632 N 580.893 1.08022 1.14757 0
M  V30 5633 C 581.856 0.71048 2.1791 0
M  V30 5634 C 582.856 -0.252731 1.58801 0
M  V30 5635 O 584.046 -0.0327915 1.74169 0
M  V30 5636 C 581.178 0.0483203 3.40866 0
M  V30 5637 H 582.371 1.62384 2.52134 0
M  V30 5638 H 579.924 0.877595 1.29337 0
M  V30 5639 H 580.659 -0.876959 3.12218 0
M  V30 5640 H 580.444 0.741189 3.85031 0
M  V30 5641 H 581.934 -0.195471 4.17142 0
M  V30 5642 N 582.371 -1.3172 0.865308 0
M  V30 5643 C 583.782 -1.79104 0.527126 0
M  V30 5644 C 584.133 -1.7135 -0.955695 0
M  V30 5645 O 583.258 -1.27845 -1.74598 0
M  V30 5646 C 583.853 -3.25207 0.950061 0
M  V30 5647 C 582.412 -3.70504 0.663611 0
M  V30 5648 C 581.559 -2.52605 1.14395 0
M  V30 5649 H 584.51 -1.18868 1.05148 0
M  V30 5650 H 584.531 -3.79535 0.270805 0
M  V30 5651 H 584.043 -3.30818 2.02931 0
M  V30 5652 H 582.144 -3.70398 -0.404474 0
M  V30 5653 H 582.257 -4.62845 1.23737 0
M  V30 5654 H 580.621 -2.4838 0.563859 0
M  V30 5655 H 581.404 -2.60964 2.23053 0
M  V30 5656 N 583.85 -0.624285 -1.44708 0
M  V30 5657 C 585.26 -0.2092 -1.85524 0
M  V30 5658 C 585.611 1.23783 -1.52225 0
M  V30 5659 O 584.736 1.94089 -0.956986 0
M  V30 5660 C 585.332 -0.372897 -3.36742 0
M  V30 5661 C 583.891 -0.012374 -3.76398 0
M  V30 5662 C 583.038 -0.68951 -2.68591 0
M  V30 5663 H 585.989 -0.829894 -1.35272 0
M  V30 5664 H 586.01 0.390134 -3.78495 0
M  V30 5665 H 585.522 -1.42615 -3.60947 0
M  V30 5666 H 583.623 1.03941 -3.57809 0
M  V30 5667 H 583.736 -0.417663 -4.77276 0
M  V30 5668 H 582.1 -0.125484 -2.54391 0
M  V30 5669 H 582.883 -1.74522 -2.9563 0
M  V30 5670 N 585.328 1.53329 -0.364422 0
M  V30 5671 C 586.291 2.24323 0.470292 0
M  V30 5672 C 587.291 1.25068 1.01067 0
M  V30 5673 O 588.481 1.49354 0.896605 0
M  V30 5674 C 585.613 2.97908 1.65722 0
M  V30 5675 H 586.806 2.9952 -0.150917 0
M  V30 5676 H 584.359 1.55868 -0.116092 0
M  V30 5677 H 585.094 2.2695 2.31655 0
M  V30 5678 H 584.879 3.70732 1.27671 0
M  V30 5679 H 586.369 3.5188 2.24878 0
M  V30 5680 N 586.806 0.0935595 1.57322 0
M  V30 5681 C 588.217 -0.435807 1.81542 0
M  V30 5682 C 588.568 -1.68263 1.00907 0
M  V30 5683 O 587.693 -2.15087 0.237983 0
M  V30 5684 C 588.288 -0.797436 3.29282 0
M  V30 5685 C 586.847 -1.27155 3.54272 0
M  V30 5686 C 585.994 -0.267455 2.76007 0
M  V30 5687 H 588.945 0.31902 1.5546 0
M  V30 5688 H 588.966 -1.6571 3.42521 0
M  V30 5689 H 588.478 0.110206 3.87943 0
M  V30 5690 H 586.579 -2.19696 3.00939 0
M  V30 5691 H 586.692 -1.23445 4.62923 0
M  V30 5692 H 585.056 -0.749282 2.43429 0
M  V30 5693 H 585.839 0.632839 3.37417 0
M  V30 5694 N 588.284 -1.56567 -0.180126 0
M  V30 5695 C 589.509 -1.85975 -0.918041 0
M  V30 5696 C 589.934 -0.678888 -1.75422 0
M  V30 5697 O 589.292 0.372168 -1.77439 0
M  V30 5698 C 589.34 -3.13731 -1.77779 0
M  V30 5699 O 588.444 -2.95335 -2.87838 0
M  V30 5700 H 587.785 -0.61196 -0.257683 0
M  V30 5701 H 590.315 -2.03798 -0.180923 0
M  V30 5702 H 590.325 -3.4491 -2.17948 0
M  V30 5703 H 589 -3.99293 -1.16352 0
M  V30 5704 H 587.577 -2.7549 -2.51316 0
M  V30 5705 N 589.762 0.448376 -1.51087 0
M  V30 5706 C 590.725 1.52588 -1.71025 0
M  V30 5707 C 591.725 1.49958 -0.580442 0
M  V30 5708 O 592.915 1.52176 -0.847833 0
M  V30 5709 C 590.047 2.92163 -1.75652 0
M  V30 5710 H 591.24 1.36218 -2.67179 0
M  V30 5711 H 588.793 0.676313 -1.4091 0
M  V30 5712 H 589.528 3.13951 -0.812724 0
M  V30 5713 H 589.313 2.95478 -2.57751 0
M  V30 5714 H 590.803 3.70349 -1.92953 0
M  V30 5715 N 591.24 1.41047 0.703093 0
M  V30 5716 C 592.651 1.35657 1.28274 0
M  V30 5717 C 593.002 0.0360309 1.96167 0
M  V30 5718 O 592.127 -0.865833 1.98324 0
M  V30 5719 C 592.722 2.45707 2.33267 0
M  V30 5720 C 591.281 2.43738 2.86825 0
M  V30 5721 C 590.428 2.25941 1.60767 0
M  V30 5722 H 593.379 1.50672 0.49836 0
M  V30 5723 H 593.4 2.14333 3.14391 0
M  V30 5724 H 592.912 3.41805 1.83824 0
M  V30 5725 H 591.013 1.51375 3.40465 0
M  V30 5726 H 591.126 3.39779 3.37768 0
M  V30 5727 H 589.49 1.73681 1.86298 0
M  V30 5728 H 590.273 3.24054 1.1333 0
M  V30 5729 N 592.718 -0.936591 1.26751 0
M  V30 5730 C 593.681 -2.01752 1.08761 0
M  V30 5731 C 594.681 -1.60763 0.0344435 0
M  V30 5732 O 595.871 -1.71963 0.278258 0
M  V30 5733 C 593.003 -3.34543 0.655271 0
M  V30 5734 H 594.196 -2.19143 2.04735 0
M  V30 5735 H 591.749 -1.11618 1.09413 0
M  V30 5736 H 592.484 -3.22851 -0.30626 0
M  V30 5737 H 592.269 -3.65647 1.41578 0
M  V30 5738 H 593.759 -4.13944 0.551378 0
M  V30 5739 N 594.196 -1.08629 -1.14182 0
M  V30 5740 C 595.607 -0.838003 -1.66836 0
M  V30 5741 C 595.958 0.634885 -1.85644 0
M  V30 5742 O 595.083 1.49008 -1.56926 0
M  V30 5743 C 595.678 -1.51465 -3.03058 0
M  V30 5744 C 594.237 -1.31355 -3.52736 0
M  V30 5745 C 593.384 -1.57599 -2.28162 0
M  V30 5746 H 596.335 -1.24656 -0.982165 0
M  V30 5747 H 596.356 -0.943134 -3.68626 0
M  V30 5748 H 595.868 -2.58661 -2.89337 0
M  V30 5749 H 593.969 -0.262384 -3.71675 0
M  V30 5750 H 594.082 -2.04275 -4.33369 0
M  V30 5751 H 592.446 -0.997659 -2.34348 0
M  V30 5752 H 593.229 -2.66006 -2.17015 0
M  V30 5753 N 595.674 1.31259 -0.872281 0
M  V30 5754 C 596.922 1.96233 -0.483409 0
M  V30 5755 C 597.243 1.69276 0.968012 0
M  V30 5756 O 596.513 1.00943 1.67891 0
M  V30 5757 H 595.093 0.726025 -0.175774 0
M  V30 5758 H 597.755 1.60024 -1.11258 0
M  V30 5759 H 596.851 3.05403 -0.643075 0
M  V30 5760 N 597.152 0.631951 1.44375 0
M  V30 5761 C 598.38 0.143867 2.06399 0
M  V30 5762 C 598.795 -1.18188 1.47231 0
M  V30 5763 O 598.152 -1.72511 0.595498 0
M  V30 5764 C 598.203 0.0238253 3.61492 0
M  V30 5765 O 597.924 1.29715 4.18456 0
M  V30 5766 C 599.425 -0.492856 4.40552 0
M  V30 5767 H 596.645 0.0800542 0.666207 0
M  V30 5768 H 599.189 0.866586 1.85231 0
M  V30 5769 H 597.344 -0.649338 3.81919 0
M  V30 5770 H 597.758 1.14252 5.11905 0
M  V30 5771 H 599.232 -0.525861 5.49489 0
M  V30 5772 H 599.709 -1.52006 4.12057 0
M  V30 5773 H 600.315 0.147085 4.25046 0
M  V30 5774 N 598.631 -1.53133 0.372548 0
M  V30 5775 C 599.561 -2.28876 -0.462412 0
M  V30 5776 C 600.542 -1.31583 -1.07796 0
M  V30 5777 O 601.727 -1.60461 -1.09389 0
M  V30 5778 C 598.857 -3.08317 -1.59868 0
M  V30 5779 C 597.811 -4.13355 -1.11003 0
M  V30 5780 C 597.137 -4.8092 -2.33708 0
M  V30 5781 C 598.437 -5.21955 -0.18983 0
M  V30 5782 H 600.131 -2.9892 0.169511 0
M  V30 5783 H 597.677 -1.43761 0.0829658 0
M  V30 5784 H 599.63 -3.60055 -2.18949 0
M  V30 5785 H 598.354 -2.35976 -2.25794 0
M  V30 5786 H 597.013 -3.62573 -0.541869 0
M  V30 5787 H 596.661 -4.05144 -2.98106 0
M  V30 5788 H 596.361 -5.51904 -2.01682 0
M  V30 5789 H 597.885 -5.35455 -2.93462 0
M  V30 5790 H 599.299 -5.69153 -0.688319 0
M  V30 5791 H 597.696 -6.00087 0.0398887 0
M  V30 5792 H 598.766 -4.78811 0.766057 0
M  V30 5793 N 600.109 -0.101901 -1.5727 0
M  V30 5794 C 601.072 0.840129 -2.13247 0
M  V30 5795 C 602.072 1.20625 -1.06331 0
M  V30 5796 O 603.262 1.13456 -1.32186 0
M  V30 5797 C 600.394 2.13372 -2.65867 0
M  V30 5798 H 601.587 0.353945 -2.97804 0
M  V30 5799 H 599.14 0.147167 -1.55606 0
M  V30 5800 H 599.875 2.66461 -1.84849 0
M  V30 5801 H 599.66 1.88085 -3.44044 0
M  V30 5802 H 601.15 2.80748 -3.09145 0
M  V30 5803 N 601.587 1.56661 0.17182 0
M  V30 5804 C 602.534 1.96371 1.21273 0
M  V30 5805 C 603.504 0.82756 1.44016 0
M  V30 5806 O 604.689 1.08764 1.56764 0
M  V30 5807 C 601.829 2.32838 2.54716 0
M  V30 5808 C 600.942 3.59628 2.39356 0
M  V30 5809 C 600.077 3.85311 3.65662 0
M  V30 5810 C 599.116 5.0545 3.45234 0
M  V30 5811 N 598.253 5.27268 4.63608 0
M  V30 5812 H 603.093 2.85106 0.86709 0
M  V30 5813 H 600.63 1.41073 0.416744 0
M  V30 5814 H 602.588 2.52004 3.3249 0
M  V30 5815 H 601.218 1.47214 2.87277 0
M  V30 5816 H 600.27 3.4838 1.52761 0
M  V30 5817 H 601.582 4.4756 2.20207 0
M  V30 5818 H 600.736 4.04841 4.51872 0
M  V30 5819 H 599.475 2.95753 3.8779 0
M  V30 5820 H 598.48 4.85819 2.5741 0
M  V30 5821 H 599.705 5.96538 3.24529 0
M  V30 5822 H 597.651 4.40662 4.85956 0
M  V30 5823 H 597.568 6.09422 4.4737 0
M  V30 5824 H 598.836 5.51277 5.51103 0
M  V30 5825 N 603.065 -0.440357 1.51323 0
M  V30 5826 C 603.975 -1.55955 1.75258 0
M  V30 5827 C 604.991 -1.61933 0.636687 0
M  V30 5828 O 606.167 -1.79231 0.918593 0
M  V30 5829 C 603.232 -2.9196 1.86977 0
M  V30 5830 C 602.293 -2.96122 3.10822 0
M  V30 5831 C 601.526 -4.2564 3.21973 0
M  V30 5832 O 601.749 -5.17851 2.39137 0
M  V30 5833 O 600.683 -4.36025 4.14929 0
M  V30 5834 H 604.509 -1.38673 2.70191 0
M  V30 5835 H 602.094 -0.623055 1.35788 0
M  V30 5836 H 603.976 -3.72682 1.96688 0
M  V30 5837 H 602.651 -3.09375 0.952307 0
M  V30 5838 H 601.558 -2.14366 3.06591 0
M  V30 5839 H 602.891 -2.83651 4.02247 0
M  V30 5840 N 604.543 -1.41418 -0.695603 0
M  V30 5841 C 605.506 -1.42988 -1.79129 0
M  V30 5842 C 606.506 -0.320514 -1.57573 0
M  V30 5843 O 607.696 -0.58039 -1.64247 0
M  V30 5844 C 604.828 -1.24122 -3.175 0
M  V30 5845 H 606.021 -2.40526 -1.7913 0
M  V30 5846 H 603.574 -1.2756 -0.903225 0
M  V30 5847 H 604.309 -0.274253 -3.23138 0
M  V30 5848 H 604.094 -2.045 -3.34547 0
M  V30 5849 H 605.584 -1.28056 -3.97481 0
M  V30 5850 N 606.021 0.929856 -1.27246 0
M  V30 5851 C 606.984 2.01172 -1.09829 0
M  V30 5852 C 607.984 1.60743 -0.0429687 0
M  V30 5853 O 609.174 1.71813 -0.287373 0
M  V30 5854 C 606.306 3.34191 -0.673003 0
M  V30 5855 H 607.499 2.18054 -2.05895 0
M  V30 5856 H 605.052 1.11036 -1.10003 0
M  V30 5857 H 605.787 3.23009 0.289134 0
M  V30 5858 H 605.572 3.64892 -1.43515 0
M  V30 5859 H 607.062 4.13646 -0.573323 0
M  V30 5860 N 607.499 1.09233 1.13605 0
M  V30 5861 C 608.462 0.733553 2.17144 0
M  V30 5862 C 609.462 -0.235873 1.59061 0
M  V30 5863 O 610.652 -0.0143167 1.74194 0
M  V30 5864 C 607.784 0.084471 3.40795 0
M  V30 5865 H 608.977 1.65049 2.50397 0
M  V30 5866 H 606.53 0.891264 1.28399 0
M  V30 5867 H 607.265 -0.843795 3.1313 0
M  V30 5868 H 607.05 0.781985 3.84223 0
M  V30 5869 H 608.54 -0.151216 4.17326 0
M  V30 5870 N 608.977 -1.30795 0.87923 0
M  V30 5871 C 610.202 -2.01063 0.508769 0
M  V30 5872 C 610.627 -1.65508 -0.893803 0
M  V30 5873 O 609.985 -0.868616 -1.59138 0
M  V30 5874 C 610.033 -3.54054 0.683991 0
M  V30 5875 O 609.137 -4.11498 -0.272654 0
M  V30 5876 H 608.478 -0.632786 0.201191 0
M  V30 5877 H 611.008 -1.66776 1.18519 0
M  V30 5878 H 611.018 -4.03845 0.580798 0
M  V30 5879 H 609.693 -3.79271 1.70665 0
M  V30 5880 H 608.27 -3.72695 -0.12364 0
M  V30 5881 N 610.455 -0.639598 -1.44038 0
M  V30 5882 C 611.403 0.0723409 -2.32487 0
M  V30 5883 C 612.397 0.827129 -1.47834 0
M  V30 5884 O 613.603 0.73907 -1.64127 0
M  V30 5885 H 609.978 0.0421696 -0.750817 0
M  V30 5886 H 611.949 -0.691593 -2.90275 0
M  V30 5887 C 610.698 1.03452 -3.31953 0
M  V30 5888 H 610.021 0.46315 -3.97108 0
M  V30 5889 H 611.461 1.502 -3.96505 0
M  V30 5890 C 609.92 2.12392 -2.61518 0
M  V30 5891 O 610.45 3.2059 -2.42044 0
M  V30 5892 N 608.656 1.88563 -2.21116 0
M  V30 5893 H 608.203 1.00577 -2.37154 0
M  V30 5894 H 608.161 2.61651 -1.74316 0
M  V30 5895 N 611.933 1.52934 -0.380664 0
M  V30 5896 C 613.161 2.05886 0.204599 0
M  V30 5897 C 613.576 1.25305 1.41223 0
M  V30 5898 O 612.933 0.297504 1.80059 0
M  V30 5899 C 612.984 3.56764 0.583249 0
M  V30 5900 O 612.705 4.34292 -0.576398 0
M  V30 5901 C 614.206 4.2603 1.2253 0
M  V30 5902 H 611.426 0.670193 0.0328991 0
M  V30 5903 H 613.97 1.97148 -0.543397 0
M  V30 5904 H 612.125 3.65603 1.28115 0
M  V30 5905 H 612.539 5.23819 -0.267119 0
M  V30 5906 H 614.013 5.32868 1.44068 0
M  V30 5907 H 614.49 3.80698 2.19011 0
M  V30 5908 H 615.096 4.21485 0.568407 0
M  V30 5909 N 613.412 0.11024 1.57214 0
M  V30 5910 C 614.36 -0.860586 2.16094 0
M  V30 5911 C 615.354 -1.28156 1.1078 0
M  V30 5912 O 616.56 -1.25433 1.29099 0
M  V30 5913 H 612.935 -0.295606 0.691463 0
M  V30 5914 H 614.906 -0.33942 2.96463 0
M  V30 5915 C 613.655 -2.10421 2.768 0
M  V30 5916 H 612.978 -1.7892 3.5753 0
M  V30 5917 H 614.418 -2.76375 3.21547 0
M  V30 5918 C 612.877 -2.88823 1.73444 0
M  V30 5919 O 613.407 -3.839 1.18251 0
M  V30 5920 N 611.613 -2.52649 1.43586 0
M  V30 5921 H 611.16 -1.754 1.8866 0
M  V30 5922 H 611.118 -3.05403 0.746735 0
M  V30 5923 N 614.89 -1.56749 -0.16351 0
M  V30 5924 C 616.118 -1.86577 -0.894233 0
M  V30 5925 C 616.533 -0.696543 -1.75481 0
M  V30 5926 O 615.89 0.334161 -1.79415 0
M  V30 5927 C 615.941 -3.15508 -1.76456 0
M  V30 5928 O 615.662 -4.27926 -0.938685 0
M  V30 5929 C 617.163 -3.58737 -2.60428 0
M  V30 5930 H 614.383 -0.618829 -0.259405 0
M  V30 5931 H 616.927 -2.03863 -0.161259 0
M  V30 5932 H 615.082 -3.00025 -2.45079 0
M  V30 5933 H 615.496 -5.01546 -1.53465 0
M  V30 5934 H 616.97 -4.51832 -3.17099 0
M  V30 5935 H 617.447 -2.83229 -3.35675 0
M  V30 5936 H 618.053 -3.76858 -1.97125 0
M  V30 5937 N 616.368 0.432326 -1.51554 0
M  V30 5938 C 617.298 1.53242 -1.76179 0
M  V30 5939 C 618.279 1.58717 -0.611801 0
M  V30 5940 O 619.464 1.74364 -0.855033 0
M  V30 5941 C 616.594 2.91278 -1.89141 0
M  V30 5942 C 615.548 3.00663 -3.04608 0
M  V30 5943 C 614.874 4.40728 -3.02759 0
M  V30 5944 C 616.174 2.74281 -4.44485 0
M  V30 5945 H 617.868 1.32886 -2.68294 0
M  V30 5946 H 615.414 0.637841 -1.29103 0
M  V30 5947 H 617.367 3.68203 -2.04951 0
M  V30 5948 H 616.091 3.12877 -0.936785 0
M  V30 5949 H 614.75 2.26179 -2.88511 0
M  V30 5950 H 614.398 4.59301 -2.05065 0
M  V30 5951 H 614.098 4.47936 -3.80299 0
M  V30 5952 H 615.622 5.19619 -3.20669 0
M  V30 5953 H 617.036 3.40936 -4.60907 0
M  V30 5954 H 615.433 2.92893 -5.23769 0
M  V30 5955 H 616.503 1.69856 -4.54177 0
M  V30 5956 N 617.846 1.41785 0.688094 0
M  V30 5957 C 618.794 1.44436 1.82321 0
M  V30 5958 C 619.788 0.321544 1.6632 0
M  V30 5959 O 620.994 0.493931 1.73091 0
M  V30 5960 H 617.369 0.452084 0.600936 0
M  V30 5961 H 619.34 2.40087 1.77202 0
M  V30 5962 C 618.089 1.35071 3.20392 0
M  V30 5963 H 617.412 2.2076 3.33324 0
M  V30 5964 H 618.852 1.40988 3.99873 0
M  V30 5965 C 617.311 0.0639127 3.36839 0
M  V30 5966 O 617.841 -0.888495 3.91751 0
M  V30 5967 N 616.047 -0.0146114 2.90596 0
M  V30 5968 H 615.594 0.761191 2.46097 0
M  V30 5969 H 615.552 -0.874988 3.01979 0
M  V30 5970 N 619.324 -0.923095 1.27737 0
M  V30 5971 C 620.74 -1.19985 1.05241 0
M  V30 5972 C 620.94 -2.00391 -0.21113 0
M  V30 5973 O 619.996 -2.35324 -0.915366 0
M  V30 5974 C 621.309 -1.94352 2.29451 0
M  V30 5975 C 622.857 -2.07273 2.34536 0
M  V30 5976 C 623.332 -2.85046 3.58487 0
M  V30 5977 N 624.823 -2.92612 3.59072 0
M  V30 5978 C 625.558 -3.53266 4.51654 0
M  V30 5979 N 625.054 -4.15274 5.54545 0
M  V30 5980 N 626.847 -3.50714 4.39268 0
M  V30 5981 H 618.998 -0.386042 2.08862 0
M  V30 5982 H 621.261 -0.233407 0.918817 0
M  V30 5983 H 620.967 -1.42692 3.21453 0
M  V30 5984 H 620.841 -2.94947 2.3513 0
M  V30 5985 H 623.228 -2.58117 1.43037 0
M  V30 5986 H 623.309 -1.05884 2.32857 0
M  V30 5987 H 622.953 -2.34884 4.50324 0
M  V30 5988 H 622.883 -3.8673 3.57418 0
M  V30 5989 H 625.374 -2.48547 2.84663 0
M  V30 5990 H 625.687 -4.59507 6.21348 0
M  V30 5991 H 624.032 -4.13806 5.58382 0
M  V30 5992 H 627.223 -3.01475 3.58093 0
M  V30 5993 H 627.396 -3.97693 5.1161 0
M  V30 5994 N 620.802 -1.09834 -1.13024 0
M  V30 5995 C 621.749 -0.741522 -2.18564 0
M  V30 5996 C 622.719 0.279236 -1.63736 0
M  V30 5997 O 623.904 0.159923 -1.90129 0
M  V30 5998 C 621.044 -0.17277 -3.44667 0
M  V30 5999 C 620.157 -1.24808 -4.13578 0
M  V30 6000 C 619.292 -0.641631 -5.27311 0
M  V30 6001 C 618.331 -1.69795 -5.88078 0
M  V30 6002 N 617.468 -1.11223 -6.93234 0
M  V30 6003 H 622.308 -1.64576 -2.48432 0
M  V30 6004 H 619.845 -0.822174 -1.21978 0
M  V30 6005 H 621.803 0.17482 -4.16834 0
M  V30 6006 H 620.433 0.694725 -3.15235 0
M  V30 6007 H 619.485 -1.71288 -3.39653 0
M  V30 6008 H 620.797 -2.04795 -4.54819 0
M  V30 6009 H 619.951 -0.243128 -6.06213 0
M  V30 6010 H 618.69 0.189742 -4.87331 0
M  V30 6011 H 617.695 -2.10595 -5.07868 0
M  V30 6012 H 618.92 -2.53206 -6.3013 0
M  V30 6013 H 616.866 -0.302208 -6.55304 0
M  V30 6014 H 616.783 -1.84901 -7.3304 0
M  V30 6015 H 618.051 -0.740068 -7.75979 0
M  V30 6016 N 622.28 1.30327 -0.886154 0
M  V30 6017 C 623.508 2.00254 -0.520176 0
M  V30 6018 C 623.923 1.66419 0.891637 0
M  V30 6019 O 623.28 0.901951 1.58654 0
M  V30 6020 C 623.331 3.54916 -0.686775 0
M  V30 6021 O 623.052 3.87547 -2.04301 0
M  V30 6022 C 624.553 4.42115 -0.323945 0
M  V30 6023 H 621.773 0.640204 -0.200947 0
M  V30 6024 H 624.317 1.66183 -1.19178 0
M  V30 6025 H 622.472 3.8735 -0.0625273 0
M  V30 6026 H 622.886 4.82247 -2.06249 0
M  V30 6027 H 624.36 5.49808 -0.491407 0
M  V30 6028 H 624.837 4.32953 0.73811 0
M  V30 6029 H 625.443 4.15129 -0.924565 0
M  V30 6030 N 623.758 0.647228 1.43697 0
M  V30 6031 C 624.986 0.16575 2.06235 0
M  V30 6032 C 625.401 -1.1662 1.48476 0
M  V30 6033 O 624.758 -1.7187 0.613762 0
M  V30 6034 C 624.809 0.0621651 3.61447 0
M  V30 6035 O 624.53 1.34146 4.17057 0
M  V30 6036 C 626.031 -0.446102 4.4105 0
M  V30 6037 H 623.251 0.0871158 0.665321 0
M  V30 6038 H 625.795 0.886183 1.84301 0
M  V30 6039 H 623.95 -0.608794 3.82587 0
M  V30 6040 H 624.364 1.19675 5.10664 0
M  V30 6041 H 625.838 -0.46755 5.50016 0
M  V30 6042 H 626.315 -1.47627 4.13646 0
M  V30 6043 H 626.921 0.192159 4.24866 0
M  V30 6044 N 625.236 -1.5273 0.388769 0
M  V30 6045 C 626.647 -1.86505 -0.0853788 0
M  V30 6046 C 626.998 -1.30847 -1.46197 0
M  V30 6047 O 626.123 -0.639609 -2.06732 0
M  V30 6048 C 626.718 -3.38414 -0.161703 0
M  V30 6049 C 625.277 -3.71902 -0.580144 0
M  V30 6050 C 624.424 -2.76095 0.258218 0
M  V30 6051 H 627.375 -1.46647 0.606665 0
M  V30 6052 H 627.396 -3.67638 -0.980936 0
M  V30 6053 H 626.908 -3.78893 0.840333 0
M  V30 6054 H 625.009 -3.36992 -1.58957 0
M  V30 6055 H 625.122 -4.77902 -0.338663 0
M  V30 6056 H 623.486 -2.53195 -0.276432 0
M  V30 6057 H 624.269 -3.19411 1.25822 0
M  V30 6058 N 626.714 -0.118576 -1.57153 0
M  V30 6059 C 627.96 0.540326 -1.95469 0
M  V30 6060 C 628.293 1.66356 -1.00196 0
M  V30 6061 O 627.568 1.94461 -0.039104 0
M  V30 6062 C 627.851 1.07342 -3.43729 0
M  V30 6063 C 627.704 -0.0463732 -4.49776 0
M  V30 6064 C 629.023 1.96442 -3.93826 0
M  V30 6065 H 626.142 0.19494 -0.710751 0
M  V30 6066 H 628.784 -0.19405 -1.89006 0
M  V30 6067 H 626.934 1.69925 -3.49368 0
M  V30 6068 H 628.606 -0.681648 -4.56236 0
M  V30 6069 H 626.849 -0.709574 -4.27957 0
M  V30 6070 H 627.52 0.367856 -5.50773 0
M  V30 6071 H 629.996 1.43731 -3.90488 0
M  V30 6072 H 628.872 2.3066 -4.98084 0
M  V30 6073 H 629.133 2.89077 -3.34495 0
M  V30 6074 O 628.231 1.61487 0.0208228 0
M  V30 6075 H 628.922 1.82811 0.640289 0
M  V30 END ATOM
M  V30 BEGIN BOND
M  V30 END BOND
M  V30 END CTAB
M  END
$$$$
