drugbank_target|Q8WYK2 Jun dimerization protein 2 (DB00852)
 OpenBabel12092121013D

  0  0  0     0  0            999 V3000
M  V30 BEGIN CTAB
M  V30 COUNTS 2679 2695 0 0 0
M  V30 BEGIN ATOM
M  V30 1 H -0.908 1.98254 -0.117106 0
M  V30 2 N 0 1.576 0 0
M  V30 3 C 0.933 2.03868 1.02534 0
M  V30 4 C 1.911 0.928543 1.3348 0
M  V30 5 O 3.095 1.19667 1.45644 0
M  V30 6 C 0.222 2.43627 2.35294 0
M  V30 7 C -0.732 3.65373 2.2001 0
M  V30 8 S 0.101 5.13292 1.52614 0
M  V30 9 C 1.257 5.56322 2.86805 0
M  V30 10 H 1.49 2.90518 0.631377 0
M  V30 11 H -0.977 1.52953 0.210867 0
M  V30 12 H 0.981 2.67203 3.11629 0
M  V30 13 H -0.358 1.57376 2.7183 0
M  V30 14 H -1.165 3.90944 3.18086 0
M  V30 15 H -1.563 3.418 1.51819 0
M  V30 16 H 0.729 5.58782 3.83104 0
M  V30 17 H 1.672 6.56266 2.65933 0
M  V30 18 H 2.08 4.83886 2.90714 0
M  V30 19 N 1.4781 -0.272755 1.55222 0
M  V30 20 C 2.4111 -1.3627 1.83046 0
M  V30 21 C 3.3891 -1.47536 0.683521 0
M  V30 22 O 4.5731 -1.64157 0.926545 0
M  V30 23 C 1.7001 -2.73908 1.99229 0
M  V30 24 C 0.7461 -2.79925 3.21783 0
M  V30 25 S 1.5791 -2.39146 4.79134 0
M  V30 26 C 2.7351 -3.78758 4.9829 0
M  V30 27 H 2.9681 -1.12464 2.75207 0
M  V30 28 H 0.5011 -0.472398 1.46996 0
M  V30 29 H 2.4591 -3.53171 2.09238 0
M  V30 30 H 1.1201 -2.94965 1.07956 0
M  V30 31 H 0.3131 -3.80946 3.29994 0
M  V30 32 H -0.0849 -2.08683 3.10367 0
M  V30 33 H 2.2071 -4.7403 4.84047 0
M  V30 34 H 3.1501 -3.75499 6.00338 0
M  V30 35 H 3.5581 -3.70072 4.26271 0
M  V30 36 N 2.9562 -1.48159 -0.537278 0
M  V30 37 C 4.3672 -1.49429 -1.11928 0
M  V30 38 C 4.7182 -0.26 -1.9447 0
M  V30 39 O 3.8432 0.633489 -2.0692 0
M  V30 40 C 4.4382 -2.70758 -2.03656 0
M  V30 41 C 2.9972 -2.74923 -2.57088 0
M  V30 42 C 2.1442 -2.42835 -1.3389 0
M  V30 43 H 5.0952 -1.55381 -0.322886 0
M  V30 44 H 5.1162 -2.48861 -2.87834 0
M  V30 45 H 4.6282 -3.60575 -1.43553 0
M  V30 46 H 2.7292 -1.89296 -3.20933 0
M  V30 47 H 2.8422 -3.76157 -2.9672 0
M  V30 48 H 1.2062 -1.93836 -1.65226 0
M  V30 49 H 1.9892 -3.34884 -0.755504 0
M  V30 50 N 4.4343 0.785586 -1.36625 0
M  V30 51 C 5.6823 1.54057 -1.30808 0
M  V30 52 C 6.0033 1.94683 0.111157 0
M  V30 53 O 5.2733 1.65241 1.05224 0
M  V30 54 H 3.8533 0.571354 -0.481211 0
M  V30 55 H 6.5153 0.935821 -1.70963 0
M  V30 56 H 5.6113 2.44637 -1.93801 0
M  V30 57 N 5.9124 1.20967 1.01018 0
M  V30 58 C 6.8444 0.922059 2.09835 0
M  V30 59 C 7.8574 -0.0927106 1.62536 0
M  V30 60 O 9.0464 0.139127 1.77957 0
M  V30 61 C 6.1464 0.362004 3.36961 0
M  V30 62 C 5.3194 1.42986 4.13369 0
M  V30 63 C 4.3784 0.879976 5.1879 0
M  V30 64 O 3.4044 1.56219 5.47343 0
M  V30 65 N 4.6064 -0.307396 5.79686 0
M  V30 66 H 7.3714 1.8588 2.35093 0
M  V30 67 H 4.9324 1.11422 1.1746 0
M  V30 68 H 6.9244 -0.0201474 4.04695 0
M  V30 69 H 5.4944 -0.479437 3.08902 0
M  V30 70 H 4.7144 1.98608 3.40512 0
M  V30 71 H 6.0024 2.14885 4.61196 0
M  V30 72 H 5.4004 -0.878796 5.58832 0
M  V30 73 H 3.9574 -0.631115 6.48737 0
M  V30 74 N 7.3905 -1.2043 1.01659 0
M  V30 75 C 8.6395 -1.89118 0.701237 0
M  V30 76 C 8.9525 -1.79705 -0.772358 0
M  V30 77 O 10.1585 -2.43528 -1.20026 0
M  V30 78 C 8.6145 -3.39168 1.20388 0
M  V30 79 C 8.2225 -3.57166 2.70438 0
M  V30 80 C 9.9665 -4.1341 0.963953 0
M  V30 81 C 7.8735 -5.01042 3.14183 0
M  V30 82 H 6.8035 -0.708267 0.2586 0
M  V30 83 H 9.4545 -1.36239 1.22927 0
M  V30 84 H 7.8365 -3.91369 0.603824 0
M  V30 85 H 9.0105 -3.15351 3.35992 0
M  V30 86 H 7.3255 -2.96294 2.92572 0
M  V30 87 H 9.9225 -5.19491 1.26621 0
M  V30 88 H 10.2655 -4.16181 -0.099578 0
M  V30 89 H 10.7985 -3.67309 1.52738 0
M  V30 90 H 7.5375 -5.03426 4.19812 0
M  V30 91 H 7.0575 -5.43668 2.53348 0
M  V30 92 H 8.7365 -5.69623 3.0682 0
M  V30 93 N 8.8686 -0.792821 -1.36206 0
M  V30 94 C 10.2796 -0.429513 -1.81692 0
M  V30 95 C 10.6306 1.04695 -1.65932 0
M  V30 96 O 9.7556 1.81256 -1.18218 0
M  V30 97 C 10.3506 -0.772831 -3.29868 0
M  V30 98 C 8.9096 -0.462307 -3.7355 0
M  V30 99 C 8.0566 -1.00569 -2.5842 0
M  V30 100 H 11.0076 -0.985672 -1.24379 0
M  V30 101 H 11.0286 -0.0651928 -3.80444 0
M  V30 102 H 10.5406 -1.84747 -3.41307 0
M  V30 103 H 8.6416 0.604158 -3.67669 0
M  V30 104 H 8.7546 -0.985299 -4.68859 0
M  V30 105 H 7.1186 -0.428734 -2.51066 0
M  V30 106 H 7.9016 -2.08616 -2.72643 0
M  V30 107 N 10.3467 1.47872 -0.545128 0
M  V30 108 C 11.6237 1.9554 0.0485222 0
M  V30 109 C 12.0037 1.4876 1.49779 0
M  V30 110 O 11.3517 0.720925 2.16829 0
M  V30 111 C 11.5617 3.48898 -0.084417 0
M  V30 112 C 12.9097 4.24547 0.0671239 0
M  V30 113 O 13.9337 3.56198 -0.0113649 0
M  V30 114 O 12.7927 5.45999 0.233882 0
M  V30 115 H 9.8867 0.823957 0.0708773 0
M  V30 116 H 12.4327 1.58327 -0.610798 0
M  V30 117 H 11.2047 3.75714 -1.09337 0
M  V30 118 H 10.8277 3.92845 0.613066 0
M  V30 119 N 11.8248 0.280983 1.55075 0
M  V30 120 C 13.2358 -0.215629 1.85451 0
M  V30 121 C 13.5868 -1.54991 1.203 0
M  V30 122 O 12.7118 -2.10699 0.493435 0
M  V30 123 C 13.3068 -0.398026 3.36454 0
M  V30 124 C 11.8658 -0.838866 3.66933 0
M  V30 125 C 11.0128 0.064458 2.77225 0
M  V30 126 H 13.9638 0.502601 1.50531 0
M  V30 127 H 13.9848 -1.23569 3.59876 0
M  V30 128 H 13.4968 0.573241 3.83843 0
M  V30 129 H 11.5978 -1.8214 3.25048 0
M  V30 130 H 11.7108 -0.672123 4.74362 0
M  V30 131 H 10.0748 -0.452863 2.50642 0
M  V30 132 H 10.8578 1.03172 3.2743 0
M  V30 133 N 13.3029 -1.57598 0.00835791 0
M  V30 134 C 14.5279 -1.95617 -0.689103 0
M  V30 135 C 14.9529 -0.883753 -1.66046 0
M  V30 136 O 14.3109 0.157352 -1.80616 0
M  V30 137 C 14.3589 -3.32736 -1.38994 0
M  V30 138 O 13.4629 -3.27631 -2.50463 0
M  V30 139 H 12.8039 -0.638379 -0.182668 0
M  V30 140 H 15.3339 -2.045 0.064036 0
M  V30 141 H 15.3439 -3.68494 -1.75147 0
M  V30 142 H 14.0189 -4.1034 -0.677778 0
M  V30 143 H 12.5959 -3.03561 -2.16576 0
M  V30 144 N 14.781 0.264519 -1.55364 0
M  V30 145 C 16.027 0.99646 -1.76631 0
M  V30 146 C 16.36 1.85632 -0.570478 0
M  V30 147 O 15.635 1.89647 0.43175 0
M  V30 148 C 15.918 1.87187 -3.07625 0
M  V30 149 C 15.771 1.04138 -4.37579 0
M  V30 150 C 17.09 2.85749 -3.34717 0
M  V30 151 H 14.209 0.360841 -0.642622 0
M  V30 152 H 16.851 0.268218 -1.88097 0
M  V30 153 H 15.001 2.49279 -2.9798 0
M  V30 154 H 16.673 0.440517 -4.59192 0
M  V30 155 H 14.916 0.345115 -4.32425 0
M  V30 156 H 15.587 1.68729 -5.2558 0
M  V30 157 H 18.063 2.33793 -3.4421 0
M  V30 158 H 16.939 3.44136 -4.27623 0
M  V30 159 H 17.2 3.61311 -2.54768 0
M  V30 160 N 16.2591 1.48442 0.529413 0
M  V30 161 C 17.4871 1.60151 1.30994 0
M  V30 162 C 17.9021 0.261985 1.86973 0
M  V30 163 O 17.2591 -0.748805 1.66431 0
M  V30 164 C 17.3101 2.64854 2.46038 0
M  V30 165 O 17.0311 3.93608 1.92365 0
M  V30 166 C 18.5321 2.87007 3.37849 0
M  V30 167 H 15.7521 0.539971 0.398338 0
M  V30 168 H 18.2961 1.94273 0.638597 0
M  V30 169 H 16.4511 2.33589 3.09055 0
M  V30 170 H 16.8651 4.51055 2.67675 0
M  V30 171 H 18.3391 3.64068 4.14919 0
M  V30 172 H 18.8161 1.95852 3.93114 0
M  V30 173 H 19.4221 3.19579 2.80623 0
M  V30 174 N 17.7372 -0.778329 1.37039 0
M  V30 175 C 18.9652 -1.56734 1.35063 0
M  V30 176 C 19.3802 -1.88686 -0.0655597 0
M  V30 177 O 18.7372 -1.5096 -1.02554 0
M  V30 178 C 18.7882 -2.88163 2.18276 0
M  V30 179 O 18.5092 -2.57583 3.54376 0
M  V30 180 C 20.0102 -3.82422 2.24206 0
M  V30 181 H 17.2302 -0.485778 0.462883 0
M  V30 182 H 19.7742 -0.965185 1.8029 0
M  V30 183 H 17.9292 -3.44818 1.76576 0
M  V30 184 H 18.3432 -3.41699 3.97922 0
M  V30 185 H 19.8172 -4.71667 2.86765 0
M  V30 186 H 20.2942 -4.21078 1.24861 0
M  V30 187 H 20.9002 -3.31697 2.6619 0
M  V30 188 N 19.2153 -1.21501 -1.00376 0
M  V30 189 C 20.4633 -1.03095 -1.73827 0
M  V30 190 C 20.7843 0.436341 -1.90055 0
M  V30 191 O 20.0543 1.31466 -1.45236 0
M  V30 192 H 18.6343 -0.378487 -0.644016 0
M  V30 193 H 21.2963 -1.52831 -1.20949 0
M  V30 194 H 20.3923 -1.49991 -2.73695 0
M  V30 195 N 20.6934 1.19889 -1.02296 0
M  V30 196 C 21.9184 1.9393 -0.735237 0
M  V30 197 C 22.3434 1.74639 0.698782 0
M  V30 198 O 21.7014 1.04481 1.48167 0
M  V30 199 C 21.7494 3.43916 -1.08417 0
M  V30 200 O 20.8534 4.11917 -0.199446 0
M  V30 201 H 20.1944 0.605645 -0.272196 0
M  V30 202 H 22.7244 1.52137 -1.36804 0
M  V30 203 H 22.7344 3.9456 -1.03856 0
M  V30 204 H 21.4094 3.5728 -2.12894 0
M  V30 205 H 19.9864 3.71666 -0.303136 0
M  V30 206 N 22.1715 0.800033 1.35784 0
M  V30 207 C 23.1015 0.220184 2.3246 0
M  V30 208 C 24.0825 -0.65073 1.57161 0
M  V30 209 O 25.2675 -0.582359 1.85263 0
M  V30 210 C 22.3975 -0.637353 3.41402 0
M  V30 211 C 21.3515 0.134531 4.27789 0
M  V30 212 C 20.6775 -0.844285 5.27992 0
M  V30 213 C 21.9775 1.32979 5.05088 0
M  V30 214 H 23.6715 1.02787 2.81203 0
M  V30 215 H 21.2175 0.495717 1.35199 0
M  V30 216 H 23.1705 -1.05302 4.08031 0
M  V30 217 H 21.8945 -1.47785 2.91251 0
M  V30 218 H 20.5535 0.531296 3.6273 0
M  V30 219 H 20.2015 -1.68011 4.74111 0
M  V30 220 H 19.9015 -0.332184 5.8666 0
M  V30 221 H 21.4255 -1.2583 5.97494 0
M  V30 222 H 22.8395 0.98934 5.64699 0
M  V30 223 H 21.2365 1.77593 5.7322 0
M  V30 224 H 22.3065 2.11978 4.36111 0
M  V30 225 N 23.6496 -1.47581 0.552962 0
M  V30 226 C 25.0606 -1.86324 0.118463 0
M  V30 227 C 25.4116 -1.46006 -1.3106 0
M  V30 228 O 24.5366 -0.861182 -1.98526 0
M  V30 229 C 25.1316 -3.3816 0.20821 0
M  V30 230 C 23.6906 -3.7601 -0.171226 0
M  V30 231 C 22.8376 -2.71634 0.557686 0
M  V30 232 H 25.7886 -1.39159 0.762928 0
M  V30 233 H 25.8096 -3.76141 -0.574278 0
M  V30 234 H 25.3216 -3.67473 1.24841 0
M  V30 235 H 23.4226 -3.52313 -1.21269 0
M  V30 236 H 23.5356 -4.78745 0.184379 0
M  V30 237 H 21.8996 -2.547 0.00125792 0
M  V30 238 H 22.6826 -3.0379 1.59896 0
M  V30 239 N 25.1277 -0.289203 -1.54924 0
M  V30 240 C 26.3757 0.322879 -1.99504 0
M  V30 241 C 26.6967 1.55313 -1.1791 0
M  V30 242 O 25.9667 1.94001 -0.272097 0
M  V30 243 H 24.5467 0.122291 -0.736922 0
M  V30 244 H 27.2087 -0.397802 -1.90797 0
M  V30 245 H 26.3047 0.603061 -3.06218 0
M  V30 246 N 26.6058 1.57591 -0.0167156 0
M  V30 247 C 27.5358 2.12496 0.967858 0
M  V30 248 C 28.5168 1.03807 1.34752 0
M  V30 249 O 29.7018 1.31577 1.42833 0
M  V30 250 C 26.8318 2.64194 2.25431 0
M  V30 251 C 25.7858 3.77559 2.01576 0
M  V30 252 C 25.1118 4.15636 3.36379 0
M  V30 253 C 26.4118 5.04151 1.36489 0
M  V30 254 H 28.1058 2.95013 0.510643 0
M  V30 255 H 25.6518 1.41915 0.244181 0
M  V30 256 H 27.6048 3.01236 2.94678 0
M  V30 257 H 26.3288 1.78821 2.73296 0
M  V30 258 H 24.9878 3.40937 1.34751 0
M  V30 259 H 24.6358 3.27263 3.81979 0
M  V30 260 H 24.3358 4.92022 3.21229 0
M  V30 261 H 25.8598 4.5525 4.06915 0
M  V30 262 H 27.2738 5.38857 1.95718 0
M  V30 263 H 25.6708 5.85453 1.31776 0
M  V30 264 H 26.7408 4.83733 0.336219 0
M  V30 265 N 28.0839 -0.256276 1.55502 0
M  V30 266 C 29.3319 -0.983672 1.76545 0
M  V30 267 C 29.6529 -1.86206 0.578982 0
M  V30 268 O 28.9229 -1.91656 -0.405577 0
M  V30 269 H 27.5029 -0.366191 0.651086 0
M  V30 270 H 30.1649 -0.276479 1.92929 0
M  V30 271 H 29.2609 -1.61087 2.67315 0
M  V30 272 N 29.562 -1.4872 -0.521534 0
M  V30 273 C 30.973 -1.50607 -1.10337 0
M  V30 274 C 31.324 -0.280612 -1.94183 0
M  V30 275 O 30.449 0.611507 -2.0758 0
M  V30 276 C 31.044 -2.72903 -2.00772 0
M  V30 277 C 29.603 -2.77634 -2.54158 0
M  V30 278 C 28.75 -2.44241 -1.31307 0
M  V30 279 H 31.701 -1.55714 -0.306388 0
M  V30 280 H 31.722 -2.519 -2.85178 0
M  V30 281 H 31.234 -3.62077 -1.39721 0
M  V30 282 H 29.335 -1.92689 -3.18907 0
M  V30 283 H 29.448 -3.79283 -2.92714 0
M  V30 284 H 27.812 -1.95577 -1.63161 0
M  V30 285 H 28.595 -3.35666 -0.719943 0
M  V30 286 N 31.0401 0.771051 -1.3745 0
M  V30 287 C 31.9701 1.89827 -1.3597 0
M  V30 288 C 32.9511 1.68562 -0.228216 0
M  V30 289 O 34.1361 1.8941 -0.428675 0
M  V30 290 C 31.2661 3.2712 -1.16662 0
M  V30 291 C 30.2201 3.6295 -2.2683 0
M  V30 292 C 29.5461 4.98791 -1.92644 0
M  V30 293 C 30.8461 3.69627 -3.69017 0
M  V30 294 H 32.5401 1.91323 -2.30295 0
M  V30 295 H 30.0861 0.919082 -1.10855 0
M  V30 296 H 32.0391 4.05615 -1.14256 0
M  V30 297 H 30.7631 3.26059 -0.187926 0
M  V30 298 H 29.4221 2.86763 -2.28392 0
M  V30 299 H 29.0701 4.94271 -0.933021 0
M  V30 300 H 28.7701 5.23733 -2.66416 0
M  V30 301 H 30.2941 5.79685 -1.91826 0
M  V30 302 H 31.7081 4.38273 -3.69581 0
M  V30 303 H 30.1051 4.06067 -4.41848 0
M  V30 304 H 31.1751 2.70273 -4.02592 0
M  V30 305 N 32.5182 1.22032 0.997298 0
M  V30 306 C 33.7462 1.06841 1.7718 0
M  V30 307 C 34.1612 -0.381325 1.84909 0
M  V30 308 O 33.5182 -1.26437 1.31605 0
M  V30 309 C 33.5692 1.66814 3.20711 0
M  V30 310 O 33.2902 3.06116 3.13408 0
M  V30 311 C 34.7912 1.56838 4.14628 0
M  V30 312 H 32.0112 0.374782 0.556578 0
M  V30 313 H 34.5552 1.61532 1.2541 0
M  V30 314 H 32.7102 1.16196 3.69564 0
M  V30 315 H 33.1242 3.34926 4.0364 0
M  V30 316 H 34.5982 2.03532 5.13107 0
M  V30 317 H 35.0752 0.524155 4.36061 0
M  V30 318 H 35.6812 2.06741 3.7167 0
M  V30 319 N 33.9963 -1.19345 1.0293 0
M  V30 320 C 35.2443 -1.88665 0.724574 0
M  V30 321 C 35.5653 -1.80036 -0.749144 0
M  V30 322 O 34.8353 -1.2111 -1.53978 0
M  V30 323 H 33.4153 -0.698406 0.265025 0
M  V30 324 H 36.0773 -1.44885 1.30362 0
M  V30 325 H 35.1733 -2.94987 1.01926 0
M  V30 326 N 35.4744 -0.807222 -1.35358 0
M  V30 327 C 36.4044 -0.232509 -2.3234 0
M  V30 328 C 37.3854 0.642386 -1.57504 0
M  V30 329 O 38.5704 0.572526 -1.85569 0
M  V30 330 C 35.7004 0.619238 -3.41735 0
M  V30 331 C 34.6544 -0.157215 -4.27711 0
M  V30 332 C 33.9804 0.816273 -5.28433 0
M  V30 333 C 35.2804 -1.35656 -5.04376 0
M  V30 334 H 36.9744 -1.04276 -2.80654 0
M  V30 335 H 34.5204 -0.50288 -1.34934 0
M  V30 336 H 36.4734 1.03137 -4.08584 0
M  V30 337 H 35.1974 1.46239 -2.92031 0
M  V30 338 H 33.8564 -0.550525 -3.62443 0
M  V30 339 H 33.5044 1.65494 -4.74996 0
M  V30 340 H 33.2044 0.301067 -5.86828 0
M  V30 341 H 34.7284 1.22659 -5.98153 0
M  V30 342 H 36.1424 -1.01927 -5.64166 0
M  V30 343 H 34.5394 -1.8063 -5.7227 0
M  V30 344 H 35.6094 -2.14288 -4.34981 0
M  V30 345 N 36.9525 1.47285 -0.560781 0
M  V30 346 C 38.3635 1.86258 -0.128343 0
M  V30 347 C 38.7145 1.46699 1.30284 0
M  V30 348 O 37.8395 0.871698 1.98067 0
M  V30 349 C 38.4345 3.38044 -0.22614 0
M  V30 350 C 36.9935 3.76096 0.151283 0
M  V30 351 C 36.1405 2.71335 -0.572084 0
M  V30 352 H 39.0915 1.38752 -0.770297 0
M  V30 353 H 39.1125 3.76441 0.554322 0
M  V30 354 H 38.6245 3.66806 -1.26788 0
M  V30 355 H 36.7255 3.52951 1.19399 0
M  V30 356 H 36.8385 4.78641 -0.209765 0
M  V30 357 H 35.2025 2.54696 -0.0147653 0
M  V30 358 H 35.9855 3.02938 -1.61504 0
M  V30 359 N 38.4306 0.297415 1.54768 0
M  V30 360 C 39.6556 -0.318435 2.04941 0
M  V30 361 C 40.0806 -1.4701 1.17345 0
M  V30 362 O 39.4386 -1.80436 0.176758 0
M  V30 363 C 39.4866 -0.755749 3.52592 0
M  V30 364 O 38.5906 -1.86088 3.68028 0
M  V30 365 H 37.9316 -0.062421 0.661059 0
M  V30 366 H 40.4616 0.438215 1.99852 0
M  V30 367 H 40.4716 -1.04552 3.94376 0
M  V30 368 H 39.1466 0.0867233 4.1581 0
M  V30 369 H 37.7236 -1.57193 3.38149 0
M  V30 370 N 39.9087 -1.5758 0.0250728 0
M  V30 371 C 41.1337 -1.96337 -0.668317 0
M  V30 372 C 41.5587 -0.901314 -1.651 0
M  V30 373 O 40.9167 0.138187 -1.80773 0
M  V30 374 C 40.9647 -3.34191 -1.35457 0
M  V30 375 O 40.0687 -3.30269 -2.46974 0
M  V30 376 H 39.4097 -0.640281 -0.175887 0
M  V30 377 H 41.9397 -2.0442 0.0857224 0
M  V30 378 H 41.9497 -3.70331 -1.71228 0
M  V30 379 H 40.6247 -4.11036 -0.634218 0
M  V30 380 H 39.2017 -3.05841 -2.13344 0
M  V30 381 N 41.3868 0.248026 -1.55636 0
M  V30 382 C 42.3498 1.29044 -1.89421 0
M  V30 383 C 43.3498 1.41134 -0.770581 0
M  V30 384 O 44.5398 1.39854 -1.03858 0
M  V30 385 C 41.6718 2.66831 -2.12165 0
M  V30 386 H 42.8648 1.00305 -2.82629 0
M  V30 387 H 40.4178 0.487265 -1.48511 0
M  V30 388 H 41.1528 3.00711 -1.21422 0
M  V30 389 H 40.9378 2.59438 -2.93997 0
M  V30 390 H 42.4278 3.42103 -2.3949 0
M  V30 391 N 42.8649 1.48995 0.513639 0
M  V30 392 C 43.7949 1.67636 1.62544 0
M  V30 393 C 44.7759 0.525087 1.61793 0
M  V30 394 O 45.9609 0.759502 1.78732 0
M  V30 395 C 43.0909 1.73114 3.01079 0
M  V30 396 C 42.0449 2.87905 3.16693 0
M  V30 397 C 41.3709 2.78486 4.56453 0
M  V30 398 C 42.6709 4.29005 2.97913 0
M  V30 399 H 44.3649 2.60716 1.47198 0
M  V30 400 H 41.9109 1.25465 0.706714 0
M  V30 401 H 43.8639 1.84742 3.78746 0
M  V30 402 H 42.5879 0.766241 3.17484 0
M  V30 403 H 41.2469 2.75859 2.41448 0
M  V30 404 H 40.8949 1.7993 4.69717 0
M  V30 405 H 40.5949 3.55523 4.67843 0
M  V30 406 H 42.1189 2.92104 5.36197 0
M  V30 407 H 43.5329 4.41798 3.65359 0
M  V30 408 H 41.9299 5.07166 3.20785 0
M  V30 409 H 42.9999 4.44329 1.94165 0
M  V30 410 N 44.343 -0.763751 1.37857 0
M  V30 411 C 45.571 -1.55293 1.36718 0
M  V30 412 C 45.986 -1.88745 -0.0455434 0
M  V30 413 O 45.343 -1.52039 -1.00947 0
M  V30 414 C 45.394 -2.85831 2.2132 0
M  V30 415 O 45.115 -2.5381 3.57089 0
M  V30 416 C 46.616 -3.80023 2.28249 0
M  V30 417 H 43.836 -0.480841 0.468009 0
M  V30 418 H 46.38 -0.946009 1.81303 0
M  V30 419 H 44.535 -3.42926 1.80223 0
M  V30 420 H 44.949 -3.37459 4.01524 0
M  V30 421 H 46.423 -4.68599 2.91752 0
M  V30 422 H 46.9 -4.1973 1.2932 0
M  V30 423 H 47.506 -3.28855 2.69693 0
M  V30 424 N 45.8211 -1.22559 -0.990812 0
M  V30 425 C 47.0671 -1.05297 -1.73322 0
M  V30 426 C 47.4001 0.410655 -1.89808 0
M  V30 427 O 46.6751 1.30439 -1.44277 0
M  V30 428 C 46.9581 -1.76713 -3.13759 0
M  V30 429 C 46.8111 -3.30684 -3.04907 0
M  V30 430 C 48.1301 -1.52121 -4.12974 0
M  V30 431 H 45.2491 -0.38392 -0.629106 0
M  V30 432 H 47.8911 -1.50926 -1.15418 0
M  V30 433 H 46.0411 -1.37924 -3.63193 0
M  V30 434 H 47.7131 -3.7893 -2.63077 0
M  V30 435 H 45.9561 -3.60253 -2.41661 0
M  V30 436 H 46.6271 -3.75833 -4.04294 0
M  V30 437 H 49.1031 -1.85819 -3.72304 0
M  V30 438 H 47.9791 -2.04582 -5.0935 0
M  V30 439 H 48.2401 -0.454257 -4.3976 0
M  V30 440 N 47.2992 1.18797 -1.03562 0
M  V30 441 C 48.2092 2.25913 -0.632505 0
M  V30 442 C 49.2252 1.70668 0.338882 0
M  V30 443 O 50.4012 2.00453 0.195076 0
M  V30 444 C 47.4662 3.467 0.00350942 0
M  V30 445 C 46.5272 4.17098 -1.01624 0
M  V30 446 C 45.7602 5.32119 -0.410478 0
M  V30 447 O 45.9832 5.64976 0.784725 0
M  V30 448 O 44.9172 5.9107 -1.13667 0
M  V30 449 H 48.7432 2.62648 -1.52478 0
M  V30 450 H 46.3282 1.25781 -0.806195 0
M  V30 451 H 48.2102 4.19878 0.35781 0
M  V30 452 H 46.8852 3.11798 0.869686 0
M  V30 453 H 45.7922 3.4601 -1.42224 0
M  V30 454 H 47.1252 4.55987 -1.85301 0
M  V30 455 N 48.7773 0.814389 1.34928 0
M  V30 456 C 49.6873 0.231978 2.3345 0
M  V30 457 C 50.7033 -0.629139 1.62228 0
M  V30 458 O 51.8793 -0.539052 1.94052 0
M  V30 459 C 48.9443 -0.603482 3.41407 0
M  V30 460 C 48.0053 0.279037 4.28392 0
M  V30 461 C 47.2383 -0.516643 5.31193 0
M  V30 462 O 47.4613 -1.75068 5.4287 0
M  V30 463 O 46.3953 0.0965652 6.01823 0
M  V30 464 H 50.2213 1.04721 2.85074 0
M  V30 465 H 47.8063 0.576343 1.37836 0
M  V30 466 H 49.6883 -1.07908 4.0735 0
M  V30 467 H 48.3633 -1.39618 2.92042 0
M  V30 468 H 47.2703 0.801948 3.65403 0
M  V30 469 H 48.6033 1.03588 4.81176 0
M  V30 470 N 50.2554 -1.46986 0.568584 0
M  V30 471 C 51.1854 -2.32946 -0.160753 0
M  V30 472 C 52.1664 -1.44487 -0.897631 0
M  V30 473 O 53.3514 -1.73327 -0.875867 0
M  V30 474 C 50.4814 -3.26494 -1.18403 0
M  V30 475 C 49.4354 -4.24282 -0.562895 0
M  V30 476 C 48.7614 -5.07236 -1.69163 0
M  V30 477 C 50.0614 -5.19989 0.490761 0
M  V30 478 H 51.7554 -2.94175 0.556916 0
M  V30 479 H 49.3014 -1.4146 0.26927 0
M  V30 480 H 51.2544 -3.85477 -1.70251 0
M  V30 481 H 49.9784 -2.63343 -1.93179 0
M  V30 482 H 48.6374 -3.66541 -0.0656164 0
M  V30 483 H 48.2854 -4.4048 -2.42871 0
M  V30 484 H 47.9854 -5.7345 -1.28174 0
M  V30 485 H 49.5094 -5.6908 -2.21314 0
M  V30 486 H 50.9234 -5.73271 0.0579047 0
M  V30 487 H 49.3204 -5.94469 0.820165 0
M  V30 488 H 50.3904 -4.64777 1.3824 0
M  V30 489 N 51.7335 -0.305618 -1.54608 0
M  V30 490 C 52.6805 0.568421 -2.23691 0
M  V30 491 C 53.6505 1.12592 -1.22116 0
M  V30 492 O 54.8355 1.16959 -1.50749 0
M  V30 493 C 51.9755 1.7322 -2.98477 0
M  V30 494 C 51.0885 1.20566 -4.14835 0
M  V30 495 C 50.2235 2.33368 -4.77193 0
M  V30 496 C 49.2625 1.7787 -5.85686 0
M  V30 497 N 48.3995 2.84263 -6.4198 0
M  V30 498 H 53.2395 -0.0272867 -2.97988 0
M  V30 499 H 50.7765 -0.0252363 -1.47078 0
M  V30 500 H 52.7345 2.41675 -3.40072 0
M  V30 501 H 51.3645 2.29947 -2.26548 0
M  V30 502 H 50.4165 0.413223 -3.78149 0
M  V30 503 H 51.7285 0.759417 -4.92985 0
M  V30 504 H 50.8825 3.09761 -5.21664 0
M  V30 505 H 49.6215 2.8132 -3.98385 0
M  V30 506 H 48.6265 0.99968 -5.40635 0
M  V30 507 H 49.8515 1.30816 -6.66381 0
M  V30 508 H 47.7975 3.31541 -5.66053 0
M  V30 509 H 47.7145 2.44149 -7.15491 0
M  V30 510 H 48.9825 3.6054 -6.91109 0
M  V30 511 N 53.2116 1.57565 -0.0334293 0
M  V30 512 C 54.4416 1.95996 0.653398 0
M  V30 513 C 54.8496 0.908749 1.65947 0
M  V30 514 O 54.1926 -0.117471 1.83324 0
M  V30 515 C 54.2546 3.30589 1.41249 0
M  V30 516 C 53.9186 4.53503 0.564263 0
M  V30 517 C 54.9156 5.19647 -0.16225 0
M  V30 518 C 52.6006 4.99801 0.500398 0
M  V30 519 C 54.5946 6.30412 -0.941255 0
M  V30 520 C 52.2816 6.10448 -0.282308 0
M  V30 521 C 53.2796 6.75612 -1.00184 0
M  V30 522 O 52.9676 7.84134 -1.77171 0
M  V30 523 H 52.6996 0.65027 0.184728 0
M  V30 524 H 55.2536 2.05199 -0.0907841 0
M  V30 525 H 53.4836 3.17888 2.20191 0
M  V30 526 H 55.1726 3.53892 1.98784 0
M  V30 527 H 55.9386 4.84846 -0.12227 0
M  V30 528 H 51.8176 4.48883 1.05002 0
M  V30 529 H 55.3616 6.81208 -1.50339 0
M  V30 530 H 51.2586 6.44686 -0.323989 0
M  V30 531 H 52.0266 8.00822 -1.69194 0
M  V30 532 N 54.6897 -0.239769 1.55765 0
M  V30 533 C 55.6527 -1.28038 1.90103 0
M  V30 534 C 56.6527 -1.40723 0.778055 0
M  V30 535 O 57.8427 -1.39301 1.04599 0
M  V30 536 C 54.9747 -2.65702 2.13577 0
M  V30 537 H 56.1677 -0.988048 2.83157 0
M  V30 538 H 53.7207 -0.479382 1.48767 0
M  V30 539 H 54.4557 -3.00063 1.23015 0
M  V30 540 H 54.2407 -2.57875 2.95369 0
M  V30 541 H 55.7307 -3.40828 2.41301 0
M  V30 542 N 56.1678 -1.49265 -0.50573 0
M  V30 543 C 57.4448 -1.49012 -1.26707 0
M  V30 544 C 57.8248 -0.215205 -2.1 0
M  V30 545 O 57.1728 0.802547 -2.13943 0
M  V30 546 C 57.3828 -2.7663 -2.12783 0
M  V30 547 C 58.7308 -3.25932 -2.72127 0
M  V30 548 O 59.7548 -2.77715 -2.23054 0
M  V30 549 O 58.6138 -4.09897 -3.61451 0
M  V30 550 H 55.7078 -0.596197 -0.57313 0
M  V30 551 H 58.2538 -1.61524 -0.52039 0
M  V30 552 H 57.0258 -3.60916 -1.5118 0
M  V30 553 H 56.6488 -2.66956 -2.94653 0
M  V30 554 N 57.6459 0.756429 -1.3826 0
M  V30 555 C 58.8949 1.51082 -1.3363 0
M  V30 556 C 59.2079 1.95467 0.0720068 0
M  V30 557 O 60.4139 2.7043 0.240834 0
M  V30 558 C 58.8699 2.72893 -2.34644 0
M  V30 559 C 58.4779 2.35544 -3.81081 0
M  V30 560 C 60.2219 3.50791 -2.39052 0
M  V30 561 C 58.1289 3.53948 -4.73787 0
M  V30 562 H 57.0589 0.56727 -0.49671 0
M  V30 563 H 59.7099 0.827147 -1.638 0
M  V30 564 H 58.0919 3.43227 -1.97513 0
M  V30 565 H 59.2659 1.72894 -4.27135 0
M  V30 566 H 57.5809 1.70786 -3.79764 0
M  V30 567 H 60.1779 4.38823 -3.05513 0
M  V30 568 H 60.5209 3.91745 -1.40861 0
M  V30 569 H 61.0539 2.87467 -2.74968 0
M  V30 570 H 57.7929 3.18064 -5.73163 0
M  V30 571 H 57.3129 4.15651 -4.32428 0
M  V30 572 H 58.9919 4.20566 -4.91663 0
M  V30 573 N 59.124 1.23083 0.984299 0
M  V30 574 C 60.54 0.992637 1.24975 0
M  V30 575 C 60.74 -0.308618 1.99123 0
M  V30 576 O 59.796 -1.02905 2.30579 0
M  V30 577 C 61.109 2.19698 2.05312 0
M  V30 578 C 62.657 2.24147 2.18465 0
M  V30 579 C 63.132 3.44157 3.02192 0
M  V30 580 N 64.623 3.44372 3.09777 0
M  V30 581 C 65.358 4.33886 3.74874 0
M  V30 582 N 64.854 5.3363 4.41827 0
M  V30 583 N 66.647 4.21639 3.71721 0
M  V30 584 H 58.798 2.06731 0.487453 0
M  V30 585 H 61.061 0.906339 0.277944 0
M  V30 586 H 60.767 3.1411 1.58201 0
M  V30 587 H 60.641 2.20465 3.06064 0
M  V30 588 H 63.028 1.30277 2.64786 0
M  V30 589 H 63.109 2.27415 1.17115 0
M  V30 590 H 62.753 4.38332 2.56568 0
M  V30 591 H 62.683 3.3813 4.03702 0
M  V30 592 H 65.174 2.72201 2.62135 0
M  V30 593 H 65.487 5.98196 4.89266 0
M  V30 594 H 63.832 5.37534 4.40548 0
M  V30 595 H 67.023 3.42962 3.18582 0
M  V30 596 H 67.196 4.91604 4.22173 0
M  V30 597 N 60.6021 -1.18246 1.0419 0
M  V30 598 C 61.5501 -2.23968 0.627792 0
M  V30 599 C 62.5441 -1.65828 -0.346019 0
M  V30 600 O 63.7501 -1.78733 -0.213175 0
M  V30 601 H 60.1251 -0.728939 0.184802 0
M  V30 602 H 62.0961 -2.56202 1.52981 0
M  V30 603 C 60.8451 -3.47699 0.00796591 0
M  V30 604 H 60.1681 -3.92734 0.748347 0
M  V30 605 H 61.6081 -4.23294 -0.24455 0
M  V30 606 C 60.0671 -3.13153 -1.24246 0
M  V30 607 O 60.5971 -3.27003 -2.33307 0
M  V30 608 N 58.8031 -2.67467 -1.13622 0
M  V30 609 H 58.3501 -2.56396 -0.248734 0
M  V30 610 H 58.3081 -2.44724 -1.97377 0
M  V30 611 N 62.0802 -0.821533 -1.34494 0
M  V30 612 C 63.0102 -0.257138 -2.3208 0
M  V30 613 C 63.9912 0.625645 -1.58176 0
M  V30 614 O 65.1762 0.552811 -1.86166 0
M  V30 615 C 62.3062 0.582958 -3.42372 0
M  V30 616 C 61.2602 -0.202571 -4.2752 0
M  V30 617 C 60.5862 0.760179 -5.29269 0
M  V30 618 C 61.8862 -1.40998 -5.02908 0
M  V30 619 H 63.5802 -1.07247 -2.79532 0
M  V30 620 H 61.1262 -0.517163 -1.34393 0
M  V30 621 H 63.0792 0.987972 -4.09655 0
M  V30 622 H 61.8032 1.43133 -2.93565 0
M  V30 623 H 60.4622 -0.588936 -3.61838 0
M  V30 624 H 60.1102 1.60447 -4.76724 0
M  V30 625 H 59.8102 0.238809 -5.87115 0
M  V30 626 H 61.3342 1.16308 -5.9942 0
M  V30 627 H 62.7482 -1.07905 -5.63054 0
M  V30 628 H 61.1452 -1.86689 -5.70322 0
M  V30 629 H 62.2152 -2.1889 -4.32684 0
M  V30 630 N 63.5583 1.46682 -0.576371 0
M  V30 631 C 64.8063 2.02013 -0.0594163 0
M  V30 632 C 65.1273 1.45101 1.30271 0
M  V30 633 O 64.3973 0.633317 1.8538 0
M  V30 634 H 62.9773 0.746759 -0.0189745 0
M  V30 635 H 65.6393 1.79862 -0.750717 0
M  V30 636 H 64.7353 3.12097 0.014345 0
M  V30 637 N 65.0364 0.313813 1.54444 0
M  V30 638 C 65.9994 -0.54379 2.22656 0
M  V30 639 C 66.9994 -1.05124 1.21678 0
M  V30 640 O 68.1894 -0.945225 1.46325 0
M  V30 641 C 65.3214 -1.75427 2.92298 0
M  V30 642 H 66.5144 0.0523599 2.99854 0
M  V30 643 H 64.0674 0.0647834 1.56166 0
M  V30 644 H 64.8024 -2.38991 2.19211 0
M  V30 645 H 64.5874 -1.39791 3.66334 0
M  V30 646 H 66.0774 -2.36325 3.44297 0
M  V30 647 N 66.5145 -1.57545 0.0417849 0
M  V30 648 C 67.4475 -2.06514 -0.970928 0
M  V30 649 C 68.4255 -0.963607 -1.30971 0
M  V30 650 O 69.6095 -1.23486 -1.4242 0
M  V30 651 C 66.7365 -2.4978 -2.28752 0
M  V30 652 C 65.7825 -3.71078 -2.10246 0
M  V30 653 S 66.6155 -5.17158 -1.38952 0
M  V30 654 C 67.7715 -5.6373 -2.71954 0
M  V30 655 H 68.0045 -2.9209 -0.554129 0
M  V30 656 H 65.5375 -1.53459 -0.17024 0
M  V30 657 H 67.4955 -2.75371 -3.04435 0
M  V30 658 H 66.1565 -1.64527 -2.67562 0
M  V30 659 H 65.3495 -3.9924 -3.07609 0
M  V30 660 H 64.9515 -3.45705 -1.42704 0
M  V30 661 H 67.2435 -5.68743 -3.68154 0
M  V30 662 H 68.1865 -6.63086 -2.4844 0
M  V30 663 H 68.5945 -4.91424 -2.77782 0
M  V30 664 N 67.9926 0.231505 -1.5589 0
M  V30 665 C 69.2416 0.955346 -1.7764 0
M  V30 666 C 69.5546 1.85893 -0.608546 0
M  V30 667 O 70.7606 2.62067 -0.70943 0
M  V30 668 C 69.2166 1.74886 -3.14552 0
M  V30 669 C 68.8246 0.891915 -4.39032 0
M  V30 670 C 70.5686 2.46452 -3.45633 0
M  V30 671 C 68.4756 1.68221 -5.66971 0
M  V30 672 H 67.4056 0.360446 -0.662265 0
M  V30 673 H 70.0566 0.209516 -1.823 0
M  V30 674 H 68.4386 2.53723 -3.04041 0
M  V30 675 H 69.6126 0.144793 -4.60572 0
M  V30 676 H 67.9276 0.288863 -4.15397 0
M  V30 677 H 70.5246 3.06061 -4.38441 0
M  V30 678 H 70.8676 3.18841 -2.67668 0
M  V30 679 H 71.4006 1.74613 -3.57428 0
M  V30 680 H 68.1396 1.00178 -6.478 0
M  V30 681 H 67.6596 2.4042 -5.49507 0
M  V30 682 H 69.3386 2.24544 -6.06786 0
M  V30 683 N 69.4707 1.49531 0.497807 0
M  V30 684 C 70.4337 1.65916 1.58128 0
M  V30 685 C 71.4337 0.530825 1.51786 0
M  V30 686 O 72.6237 0.797342 1.54881 0
M  V30 687 C 69.7557 1.65951 2.9778 0
M  V30 688 H 70.9487 2.62556 1.44929 0
M  V30 689 H 68.5017 1.38611 0.722275 0
M  V30 690 H 69.2367 0.709065 3.16453 0
M  V30 691 H 69.0217 2.47897 3.03792 0
M  V30 692 H 70.5117 1.80673 3.76493 0
M  V30 693 N 70.9488 -0.749086 1.3866 0
M  V30 694 C 72.3598 -1.32664 1.31366 0
M  V30 695 C 72.7108 -1.96179 -0.028484 0
M  V30 696 O 71.8358 -1.9537 -0.93057 0
M  V30 697 C 72.4308 -2.41219 2.37905 0
M  V30 698 C 70.9898 -2.94684 2.34176 0
M  V30 699 C 70.1368 -1.68108 2.20533 0
M  V30 700 H 73.0878 -0.547628 1.48952 0
M  V30 701 H 73.1088 -3.21268 2.0388 0
M  V30 702 H 72.6208 -1.94962 3.35576 0
M  V30 703 H 70.7218 -3.45258 1.401 0
M  V30 704 H 70.8348 -3.48757 3.2849 0
M  V30 705 H 69.1988 -1.91907 1.67463 0
M  V30 706 H 69.9818 -1.23923 3.20153 0
M  V30 707 N 72.4269 -1.23603 -0.977757 0
M  V30 708 C 73.3569 -1.04401 -2.0886 0
M  V30 709 C 74.3379 0.0399052 -1.70053 0
M  V30 710 O 75.5229 -0.125246 -1.93796 0
M  V30 711 C 72.6529 -0.637269 -3.41403 0
M  V30 712 C 71.6069 -1.66883 -3.94124 0
M  V30 713 C 70.9329 -1.11745 -5.22893 0
M  V30 714 C 72.2329 -3.06247 -4.23096 0
M  V30 715 H 73.9269 -1.97316 -2.25182 0
M  V30 716 H 71.4729 -0.950096 -1.08209 0
M  V30 717 H 73.4259 -0.48998 -4.18542 0
M  V30 718 H 72.1499 0.327557 -3.24953 0
M  V30 719 H 70.8089 -1.80416 -3.19133 0
M  V30 720 H 70.4569 -0.143527 -5.02795 0
M  V30 721 H 70.1569 -1.80672 -5.59134 0
M  V30 722 H 71.6809 -0.982067 -6.02651 0
M  V30 723 H 73.0949 -2.96001 -4.90975 0
M  V30 724 H 71.4919 -3.72436 -4.70544 0
M  V30 725 H 72.5619 -3.55041 -3.30263 0
M  V30 726 N 73.905 1.17692 -1.04816 0
M  V30 727 C 74.855 2.1952 -0.616042 0
M  V30 728 C 75.839 1.57147 0.345485 0
M  V30 729 O 77.031 1.76245 0.163325 0
M  V30 730 C 74.16 3.43298 0.0116917 0
M  V30 731 C 73.246 4.12777 -0.973435 0
M  V30 732 N 73.637 4.5814 -2.14339 0
M  V30 733 C 71.935 4.38747 -0.80108 0
M  V30 734 C 72.636 5.11713 -2.7663 0
M  V30 735 N 71.612 5.03686 -2.04453 0
M  V30 736 H 75.414 2.52293 -1.5075 0
M  V30 737 H 72.928 1.3398 -0.917776 0
M  V30 738 H 74.925 4.15519 0.339006 0
M  V30 739 H 73.585 3.12018 0.898593 0
M  V30 740 H 74.596 4.52349 -2.52191 0
M  V30 741 H 71.273 4.17485 0.0350934 0
M  V30 742 H 72.663 5.56962 -3.75823 0
M  V30 743 N 75.3831 0.828654 1.34056 0
M  V30 744 C 76.6301 0.419458 1.98108 0
M  V30 745 C 76.9581 -1.01886 1.65679 0
M  V30 746 O 76.2131 -1.72539 0.923512 0
M  V30 747 C 76.5121 0.575226 3.52741 0
M  V30 748 C 76.1781 1.98012 4.05095 0
M  V30 749 C 74.8401 2.36442 4.19104 0
M  V30 750 C 77.1921 2.89824 4.33188 0
M  V30 751 C 74.5201 3.66009 4.58535 0
M  V30 752 C 76.8721 4.1886 4.74066 0
M  V30 753 C 75.5361 4.5726 4.86281 0
M  V30 754 H 74.8061 0.153491 0.724929 0
M  V30 755 H 77.4531 1.05371 1.59904 0
M  V30 756 H 75.7581 -0.142385 3.91541 0
M  V30 757 H 77.4551 0.239057 4.00287 0
M  V30 758 H 74.0451 1.67162 3.94658 0
M  V30 759 H 78.2291 2.61375 4.21897 0
M  V30 760 H 73.4851 3.95579 4.66184 0
M  V30 761 H 77.6591 4.90086 4.94761 0
M  V30 762 H 75.2861 5.57707 5.16592 0
M  V30 763 N 76.8612 -1.46375 0.584142 0
M  V30 764 C 77.7912 -2.33103 -0.136037 0
M  V30 765 C 78.7722 -1.45431 -0.882255 0
M  V30 766 O 79.9572 -1.74246 -0.857434 0
M  V30 767 C 77.0872 -3.27731 -1.14933 0
M  V30 768 C 76.0412 -4.24855 -0.517862 0
M  V30 769 C 75.3672 -5.09001 -1.63773 0
M  V30 770 C 76.6672 -5.19439 0.545886 0
M  V30 771 H 78.3612 -2.93568 0.588086 0
M  V30 772 H 75.9072 -1.41166 0.284259 0
M  V30 773 H 77.8602 -3.87261 -1.66153 0
M  V30 774 H 76.5842 -2.65377 -1.90375 0
M  V30 775 H 75.2432 -3.6659 -0.0267361 0
M  V30 776 H 74.8912 -4.43031 -2.38185 0
M  V30 777 H 74.5912 -5.74777 -1.22085 0
M  V30 778 H 76.1152 -5.71396 -2.15266 0
M  V30 779 H 77.5292 -5.73177 0.118704 0
M  V30 780 H 75.9262 -5.93566 0.88317 0
M  V30 781 H 76.9962 -4.63285 1.43162 0
M  V30 782 N 78.3393 -0.321999 -1.54275 0
M  V30 783 C 79.2493 0.553631 -2.27974 0
M  V30 784 C 80.2653 1.13054 -1.32268 0
M  V30 785 O 81.4413 1.15084 -1.6528 0
M  V30 786 C 78.5063 1.69927 -3.02201 0
M  V30 787 C 77.5673 1.15433 -4.1349 0
M  V30 788 C 76.8003 2.24537 -4.84168 0
M  V30 789 O 77.0233 3.44852 -4.5435 0
M  V30 790 O 75.9573 1.90044 -5.7111 0
M  V30 791 H 79.7833 -0.0448345 -3.03667 0
M  V30 792 H 77.3683 -0.0877418 -1.49142 0
M  V30 793 H 79.2503 2.3663 -3.48689 0
M  V30 794 H 77.9253 2.28395 -2.29385 0
M  V30 795 H 76.8323 0.452436 -3.71354 0
M  V30 796 H 78.1653 0.614805 -4.88345 0
M  V30 797 N 79.8174 1.5752 -0.0501392 0
M  V30 798 C 81.0634 1.92936 0.624798 0
M  V30 799 C 81.3964 0.928685 1.70555 0
M  V30 800 O 80.6714 -0.0454779 1.94447 0
M  V30 801 C 80.9544 3.38737 1.22185 0
M  V30 802 C 80.8074 4.49552 0.149218 0
M  V30 803 C 82.1264 3.84913 2.13378 0
M  V30 804 H 79.2454 0.701604 0.225657 0
M  V30 805 H 81.8874 1.89671 -0.111693 0
M  V30 806 H 80.0374 3.4165 1.84953 0
M  V30 807 H 81.7094 4.58768 -0.482648 0
M  V30 808 H 79.9524 4.30638 -0.522841 0
M  V30 809 H 80.6234 5.48653 0.606966 0
M  V30 810 H 83.0994 3.8387 1.60572 0
M  V30 811 H 81.9754 4.87584 2.52097 0
M  V30 812 H 82.2364 3.21611 3.03346 0
M  V30 813 N 81.2955 -0.223234 1.56011 0
M  V30 814 C 82.2425 -1.27664 1.92277 0
M  V30 815 C 83.2125 -1.46659 0.779763 0
M  V30 816 O 84.3975 -1.60256 1.03551 0
M  V30 817 C 81.5375 -2.62234 2.24338 0
M  V30 818 C 80.6505 -2.51051 3.51564 0
M  V30 819 C 79.7855 -3.78133 3.7308 0
M  V30 820 C 78.8245 -3.61665 4.93827 0
M  V30 821 N 77.9615 -4.80693 5.11741 0
M  V30 822 H 82.8015 -0.960358 2.82101 0
M  V30 823 H 80.3385 -0.462901 1.39627 0
M  V30 824 H 82.2965 -3.40596 2.40936 0
M  V30 825 H 80.9265 -2.91961 1.3769 0
M  V30 826 H 79.9785 -1.64132 3.43169 0
M  V30 827 H 81.2905 -2.34803 4.40079 0
M  V30 828 H 80.4445 -4.64938 3.89766 0
M  V30 829 H 79.1835 -3.97304 2.82844 0
M  V30 830 H 78.1885 -2.73244 4.77093 0
M  V30 831 H 79.4135 -3.43966 5.85546 0
M  V30 832 H 77.3595 -5.00181 4.24446 0
M  V30 833 H 77.2765 -4.67165 5.94384 0
M  V30 834 H 78.5445 -5.6893 5.3286 0
M  V30 835 N 82.7736 -1.49793 -0.48987 0
M  V30 836 C 83.7036 -1.70201 -1.59856 0
M  V30 837 C 84.6846 -0.55076 -1.60937 0
M  V30 838 O 85.8696 -0.787841 -1.77501 0
M  V30 839 C 82.9996 -1.77882 -2.98287 0
M  V30 840 C 81.9536 -2.92907 -3.12073 0
M  V30 841 C 81.2796 -2.85712 -4.51965 0
M  V30 842 C 82.5796 -4.3369 -2.91051 0
M  V30 843 H 84.2736 -2.63025 -1.43032 0
M  V30 844 H 81.8196 -1.26574 -0.686664 0
M  V30 845 H 83.7726 -1.90744 -3.75759 0
M  V30 846 H 82.4966 -0.816653 -3.16225 0
M  V30 847 H 81.1556 -2.79665 -2.37029 0
M  V30 848 H 80.8036 -1.8738 -4.66795 0
M  V30 849 H 80.5036 -3.62921 -4.62128 0
M  V30 850 H 82.0276 -3.00598 -5.31482 0
M  V30 851 H 83.4416 -4.47555 -3.58284 0
M  V30 852 H 81.8386 -5.12205 -3.12675 0
M  V30 853 H 82.9086 -4.47362 -1.87071 0
M  V30 854 N 84.2517 0.741722 -1.39055 0
M  V30 855 C 85.4997 1.49818 -1.35643 0
M  V30 856 C 85.8207 1.94938 0.0491642 0
M  V30 857 O 85.0907 1.68505 0.999141 0
M  V30 858 H 83.6707 0.555755 -0.499144 0
M  V30 859 H 86.3327 0.880957 -1.73854 0
M  V30 860 H 85.4287 2.38348 -2.01486 0
M  V30 861 N 85.7298 1.2412 0.971189 0
M  V30 862 C 86.6768 1.0305 2.06517 0
M  V30 863 C 87.6468 -0.0550666 1.66009 0
M  V30 864 O 88.8318 0.0988688 1.90544 0
M  V30 865 C 85.9718 0.637653 3.39158 0
M  V30 866 C 85.0848 1.79633 3.92882 0
M  V30 867 C 84.2198 1.34939 5.13775 0
M  V30 868 C 83.2588 2.47823 5.59687 0
M  V30 869 N 82.3958 2.04022 6.71803 0
M  V30 870 H 87.2358 1.96685 2.23873 0
M  V30 871 H 84.7728 0.979694 1.09729 0
M  V30 872 H 86.7308 0.390931 4.15364 0
M  V30 873 H 85.3608 -0.261693 3.21737 0
M  V30 874 H 84.4128 2.15681 3.13346 0
M  V30 875 H 85.7248 2.64466 4.22918 0
M  V30 876 H 84.8788 1.06134 5.97345 0
M  V30 877 H 83.6178 0.471557 4.85415 0
M  V30 878 H 82.6228 2.77392 4.74693 0
M  V30 879 H 83.8478 3.36158 5.90063 0
M  V30 880 H 81.7938 1.18632 6.45184 0
M  V30 881 H 81.7108 2.82409 7.01271 0
M  V30 882 H 82.9788 1.78347 7.58823 0
M  V30 883 N 87.2079 -1.17134 1.05439 0
M  V30 884 C 88.6239 -1.39454 0.776201 0
M  V30 885 C 88.8239 -1.91454 -0.628307 0
M  V30 886 O 87.8799 -2.10777 -1.39031 0
M  V30 887 C 89.1929 -2.38305 1.83388 0
M  V30 888 C 90.7409 -2.52006 1.85639 0
M  V30 889 C 91.2159 -3.54133 2.90437 0
M  V30 890 N 92.7069 -3.61653 2.89415 0
M  V30 891 C 93.4419 -4.4044 3.67152 0
M  V30 892 N 92.9379 -5.22721 4.54681 0
M  V30 893 N 94.7309 -4.35337 3.55581 0
M  V30 894 H 86.8819 -0.817134 1.96053 0
M  V30 895 H 89.1449 -0.421626 0.849079 0
M  V30 896 H 88.8509 -2.07173 2.84204 0
M  V30 897 H 88.7249 -3.37841 1.67761 0
M  V30 898 H 91.1119 -2.82447 0.85486 0
M  V30 899 H 91.1929 -1.52537 2.05344 0
M  V30 900 H 90.8369 -3.24431 3.90777 0
M  V30 901 H 90.7669 -4.53313 2.67983 0
M  V30 902 H 93.2579 -3.02909 2.25952 0
M  V30 903 H 93.5709 -5.80027 5.10674 0
M  V30 904 H 91.9159 -5.22093 4.58741 0
M  V30 905 H 95.1069 -3.70112 2.86592 0
M  V30 906 H 95.2799 -4.96494 4.1641 0
M  V30 907 N 88.686 -0.835752 -1.33615 0
M  V30 908 C 90.097 -0.487099 -1.80234 0
M  V30 909 C 90.448 0.993627 -1.69179 0
M  V30 910 O 89.573 1.77403 -1.23924 0
M  V30 911 C 90.168 -0.877385 -3.27242 0
M  V30 912 C 88.727 -0.580915 -3.7189 0
M  V30 913 C 87.874 -1.0874 -2.5509 0
M  V30 914 H 90.825 -1.02474 -1.2118 0
M  V30 915 H 90.846 -0.186195 -3.80044 0
M  V30 916 H 90.358 -1.95512 -3.35256 0
M  V30 917 H 88.459 0.486881 -3.69405 0
M  V30 918 H 88.572 -1.13396 -4.65487 0
M  V30 919 H 86.936 -0.508392 -2.49575 0
M  V30 920 H 87.719 -2.17184 -2.65868 0
M  V30 921 N 90.1641 1.46063 -0.591896 0
M  V30 922 C 91.0961 2.28539 0.174001 0
M  V30 923 C 92.1091 1.39047 0.846753 0
M  V30 924 O 93.2981 1.63564 0.714774 0
M  V30 925 C 90.3981 3.14347 1.26645 0
M  V30 926 C 89.5711 4.32021 0.683856 0
M  V30 927 C 88.6301 4.99157 1.66518 0
M  V30 928 O 87.6561 5.56458 1.19763 0
M  V30 929 N 88.8581 4.97005 2.99943 0
M  V30 930 H 91.6231 2.94911 -0.533633 0
M  V30 931 H 89.1841 1.56077 -0.430294 0
M  V30 932 H 91.1761 3.56125 1.92242 0
M  V30 933 H 89.7461 2.49988 1.87682 0
M  V30 934 H 88.9661 3.93915 -0.1498 0
M  V30 935 H 90.2541 5.08059 0.274567 0
M  V30 936 H 89.6521 4.51714 3.40545 0
M  V30 937 H 88.2091 5.42696 3.61004 0
M  V30 938 N 91.6422 0.330177 1.54103 0
M  V30 939 C 93.0532 -0.15652 1.86043 0
M  V30 940 C 93.4042 -1.51086 1.2517 0
M  V30 941 O 92.5292 -2.09023 0.560217 0
M  V30 942 C 93.1242 -0.290784 3.3755 0
M  V30 943 C 91.6832 -0.721705 3.69416 0
M  V30 944 C 90.8302 0.152622 2.7688 0
M  V30 945 H 93.7812 0.550237 1.48856 0
M  V30 946 H 93.8022 -1.12058 3.63625 0
M  V30 947 H 93.3142 0.695068 3.81825 0
M  V30 948 H 91.4152 -1.71706 3.30678 0
M  V30 949 H 91.5282 -0.520869 4.7626 0
M  V30 950 H 89.8922 -0.372894 2.51956 0
M  V30 951 H 90.6752 1.13536 3.23982 0
M  V30 952 N 93.1203 -1.57491 0.0584922 0
M  V30 953 C 94.3663 -1.93264 -0.614558 0
M  V30 954 C 94.6993 -0.937717 -1.7006 0
M  V30 955 O 93.9743 0.0351652 -1.94468 0
M  V30 956 C 94.2573 -3.3938 -1.20386 0
M  V30 957 C 94.1103 -4.49625 -0.125375 0
M  V30 958 C 95.4293 -3.86039 -2.11334 0
M  V30 959 H 92.5483 -0.702791 -0.221933 0
M  V30 960 H 95.1903 -1.8961 0.12175 0
M  V30 961 H 93.3403 -3.42626 -1.83139 0
M  V30 962 H 95.0123 -4.58506 0.506971 0
M  V30 963 H 93.2553 -4.30354 0.545672 0
M  V30 964 H 93.9263 -5.48967 -0.577861 0
M  V30 965 H 96.4023 -3.84716 -1.58534 0
M  V30 966 H 95.2783 -4.88914 -2.49507 0
M  V30 967 H 95.5393 -3.23215 -3.01636 0
M  V30 968 N 94.5984 0.214957 -1.56127 0
M  V30 969 C 95.5454 1.26642 -1.92952 0
M  V30 970 C 96.5154 1.46244 -0.78753 0
M  V30 971 O 97.7004 1.59704 -1.04399 0
M  V30 972 C 94.8404 2.6104 -2.25726 0
M  V30 973 C 93.9534 2.49183 -3.52891 0
M  V30 974 C 93.0884 3.76149 -3.7508 0
M  V30 975 C 92.1274 3.59041 -4.95738 0
M  V30 976 N 91.2644 4.77972 -5.14283 0
M  V30 977 H 96.1044 0.945384 -2.82607 0
M  V30 978 H 93.6414 0.455489 -1.3987 0
M  V30 979 H 95.5994 3.39313 -2.42739 0
M  V30 980 H 94.2294 2.91227 -1.39236 0
M  V30 981 H 93.2814 1.6231 -3.44034 0
M  V30 982 H 94.5934 2.32466 -4.41318 0
M  V30 983 H 93.7474 4.62865 -3.92226 0
M  V30 984 H 92.4864 3.95799 -2.84947 0
M  V30 985 H 91.4914 2.7071 -4.78535 0
M  V30 986 H 92.7164 3.40856 -5.87362 0
M  V30 987 H 90.6624 4.97923 -4.27093 0
M  V30 988 H 90.5794 4.64006 -5.96853 0
M  V30 989 H 91.8474 5.66096 -5.35869 0
M  V30 990 N 96.0765 1.50051 0.48192 0
M  V30 991 C 97.3015 1.64508 1.26301 0
M  V30 992 C 97.7265 0.323851 1.85291 0
M  V30 993 O 97.0845 -0.710969 1.66778 0
M  V30 994 C 97.1325 2.7305 2.35533 0
M  V30 995 O 96.2365 2.3355 3.39895 0
M  V30 996 H 95.5775 0.549978 0.372048 0
M  V30 997 H 98.1075 1.9636 0.574786 0
M  V30 998 H 98.1175 2.95799 2.8101 0
M  V30 999 H 96.7925 3.68946 1.91967 0
M  V30 1000 H 95.3695 2.21205 3.00204 0
M  V30 1001 N 97.5546 -0.734337 1.39446 0
M  V30 1002 C 98.4646 -1.87879 1.40495 0
M  V30 1003 C 99.4806 -1.714 0.299672 0
M  V30 1004 O 100.657 -1.93991 0.541249 0
M  V30 1005 C 97.7216 -3.23477 1.24754 0
M  V30 1006 C 96.7826 -3.52344 2.45259 0
M  V30 1007 C 96.0156 -4.81473 2.30259 0
M  V30 1008 O 96.2386 -5.55237 1.30643 0
M  V30 1009 O 95.1726 -5.10254 3.19256 0
M  V30 1010 H 98.9986 -1.89949 2.36966 0
M  V30 1011 H 96.5836 -0.882243 1.20569 0
M  V30 1012 H 98.4656 -4.04509 1.18111 0
M  V30 1013 H 97.1406 -3.22176 0.313781 0
M  V30 1014 H 96.0476 -2.71396 2.57478 0
M  V30 1015 H 97.3806 -3.58426 3.37331 0
M  V30 1016 N 99.0327 -1.24633 -0.964593 0
M  V30 1017 C 99.9627 -1.06611 -2.07741 0
M  V30 1018 C 100.944 0.0218666 -1.70086 0
M  V30 1019 O 102.129 -0.145793 -1.93652 0
M  V30 1020 C 99.2587 -0.673444 -3.40708 0
M  V30 1021 C 98.2127 -1.71054 -3.92332 0
M  V30 1022 C 97.5387 -1.17285 -5.21678 0
M  V30 1023 C 98.8387 -3.10718 -4.19824 0
M  V30 1024 H 100.533 -1.99693 -2.23076 0
M  V30 1025 H 98.0787 -0.96152 -1.07195 0
M  V30 1026 H 100.032 -0.534345 -4.17998 0
M  V30 1027 H 98.7557 0.293073 -3.25282 0
M  V30 1028 H 97.4147 -1.83791 -3.17201 0
M  V30 1029 H 97.0627 -0.196847 -5.02615 0
M  V30 1030 H 96.7627 -1.86592 -5.57187 0
M  V30 1031 H 98.2867 -1.04593 -6.01575 0
M  V30 1032 H 99.7007 -3.01192 -4.87808 0
M  V30 1033 H 98.0977 -3.77406 -4.66567 0
M  V30 1034 H 99.1677 -3.58524 -3.26479 0
M  V30 1035 N 100.511 1.16574 -1.06058 0
M  V30 1036 C 101.788 1.83048 -0.689416 0
M  V30 1037 C 102.168 1.94122 0.829443 0
M  V30 1038 O 101.516 1.48249 1.7388 0
M  V30 1039 C 101.726 3.20186 -1.38859 0
M  V30 1040 C 103.074 3.95989 -1.53226 0
M  V30 1041 O 104.098 3.29696 -1.3483 0
M  V30 1042 O 102.957 5.14813 -1.83384 0
M  V30 1043 H 100.051 0.790258 -0.243764 0
M  V30 1044 H 102.597 1.23797 -1.16071 0
M  V30 1045 H 101.369 3.07146 -2.4244 0
M  V30 1046 H 100.992 3.87112 -0.907216 0
M  V30 1047 N 101.989 0.842826 1.3317 0
M  V30 1048 C 102.899 0.281444 2.32906 0
M  V30 1049 C 103.915 -0.594587 1.63526 0
M  V30 1050 O 105.091 -0.49777 1.95152 0
M  V30 1051 C 102.156 -0.530929 3.42611 0
M  V30 1052 C 101.217 0.369843 4.27704 0
M  V30 1053 C 100.45 -0.403853 5.3217 0
M  V30 1054 O 100.673 -1.63513 5.46461 0
M  V30 1055 O 99.6069 0.224199 6.01482 0
M  V30 1056 H 103.433 1.10744 2.82789 0
M  V30 1057 H 101.018 0.60545 1.36582 0
M  V30 1058 H 102.9 -0.992437 4.09547 0
M  V30 1059 H 101.575 -1.33392 2.94938 0
M  V30 1060 H 100.482 0.879275 3.6362 0
M  V30 1061 H 101.815 1.13771 4.78871 0
M  V30 1062 N 103.467 -1.45747 0.599634 0
M  V30 1063 C 104.377 -2.34262 -0.125888 0
M  V30 1064 C 105.393 -1.50768 -0.868625 0
M  V30 1065 O 106.569 -1.83592 -0.828003 0
M  V30 1066 C 103.634 -3.28252 -1.11587 0
M  V30 1067 C 102.695 -4.27651 -0.375956 0
M  V30 1068 C 101.928 -5.1715 -1.31877 0
M  V30 1069 O 102.151 -5.09916 -2.55621 0
M  V30 1070 O 101.085 -5.96286 -0.820157 0
M  V30 1071 H 104.911 -2.97688 0.601315 0
M  V30 1072 H 102.496 -1.44999 0.359934 0
M  V30 1073 H 104.378 -3.86191 -1.68626 0
M  V30 1074 H 103.053 -2.67401 -1.82424 0
M  V30 1075 H 101.96 -3.7335 0.236698 0
M  V30 1076 H 103.293 -4.91334 0.29177 0
M  V30 1077 N 104.945 -0.338344 -1.53925 0
M  V30 1078 C 105.855 0.529421 -2.28548 0
M  V30 1079 C 106.871 1.11645 -1.3346 0
M  V30 1080 O 108.047 1.13325 -1.66492 0
M  V30 1081 C 105.112 1.66713 -3.03987 0
M  V30 1082 C 104.173 1.11041 -4.14691 0
M  V30 1083 C 103.406 2.19389 -4.86522 0
M  V30 1084 O 103.629 3.40013 -4.57982 0
M  V30 1085 O 102.563 1.83976 -5.73094 0
M  V30 1086 H 106.389 -0.0770399 -3.03602 0
M  V30 1087 H 103.974 -0.103555 -1.49041 0
M  V30 1088 H 105.856 2.32918 -3.5118 0
M  V30 1089 H 104.531 2.25949 -2.31794 0
M  V30 1090 H 103.438 0.413024 -3.71813 0
M  V30 1091 H 104.771 0.562975 -4.8897 0
M  V30 1092 N 106.423 1.57458 -0.0668435 0
M  V30 1093 C 107.333 2.15937 0.916975 0
M  V30 1094 C 108.349 1.12123 1.33058 0
M  V30 1095 O 109.525 1.44366 1.40429 0
M  V30 1096 C 106.59 2.70547 2.16807 0
M  V30 1097 C 105.651 3.89215 1.81135 0
M  V30 1098 C 104.884 4.41211 3.0028 0
M  V30 1099 O 105.107 3.92225 4.14144 0
M  V30 1100 O 104.041 5.32605 2.80384 0
M  V30 1101 H 107.867 3.00354 0.449561 0
M  V30 1102 H 105.452 1.48584 0.155949 0
M  V30 1103 H 107.334 3.0557 2.90181 0
M  V30 1104 H 106.009 1.89192 2.62656 0
M  V30 1105 H 104.916 3.59054 1.05028 0
M  V30 1106 H 106.249 4.71848 1.40073 0
M  V30 1107 N 107.901 -0.206675 1.56239 0
M  V30 1108 C 109.317 -0.557025 1.49564 0
M  V30 1109 C 109.517 -1.86424 0.764735 0
M  V30 1110 O 108.573 -2.50584 0.310491 0
M  V30 1111 C 109.886 -0.622478 2.94186 0
M  V30 1112 C 111.434 -0.712099 3.04792 0
M  V30 1113 C 111.909 -0.808767 4.50803 0
M  V30 1114 N 113.4 -0.8726 4.54907 0
M  V30 1115 C 114.135 -0.967365 5.65181 0
M  V30 1116 N 113.631 -1.02515 6.85173 0
M  V30 1117 N 115.424 -1.00366 5.53067 0
M  V30 1118 H 107.575 0.650943 2.02179 0
M  V30 1119 H 109.838 0.230387 0.919579 0
M  V30 1120 H 109.544 0.268727 3.50672 0
M  V30 1121 H 109.418 -1.4811 3.46905 0
M  V30 1122 H 111.805 -1.59374 2.48363 0
M  V30 1123 H 111.886 0.172489 2.55218 0
M  V30 1124 H 111.53 0.0684754 5.07854 0
M  V30 1125 H 111.46 -1.70899 4.98098 0
M  V30 1126 H 113.951 -0.837657 3.68499 0
M  V30 1127 H 114.264 -1.09765 7.64965 0
M  V30 1128 H 112.609 -0.994026 6.87855 0
M  V30 1129 H 115.8 -0.95527 4.58249 0
M  V30 1130 H 115.973 -1.07405 6.39037 0
M  V30 1131 N 109.379 -1.50304 -0.473955 0
M  V30 1132 C 110.795 -1.37667 -0.807466 0
M  V30 1133 C 110.995 -0.430555 -1.96846 0
M  V30 1134 O 110.051 0.127874 -2.52176 0
M  V30 1135 C 111.364 -2.78974 -1.12223 0
M  V30 1136 C 112.912 -2.87868 -1.22885 0
M  V30 1137 C 113.387 -4.30003 -1.57676 0
M  V30 1138 N 114.878 -4.3294 -1.64673 0
M  V30 1139 C 115.613 -5.3991 -1.93091 0
M  V30 1140 N 115.109 -6.57092 -2.1955 0
M  V30 1141 N 116.902 -5.27351 -1.94569 0
M  V30 1142 H 109.053 -2.10394 0.291212 0
M  V30 1143 H 111.316 -0.945575 0.0677609 0
M  V30 1144 H 111.022 -3.50031 -0.342229 0
M  V30 1145 H 110.896 -3.16038 -2.05913 0
M  V30 1146 H 113.283 -2.17032 -1.99953 0
M  V30 1147 H 113.364 -2.54352 -0.271814 0
M  V30 1148 H 113.008 -5.01375 -0.81149 0
M  V30 1149 H 112.938 -4.61004 -2.54525 0
M  V30 1150 H 115.429 -3.48441 -1.46277 0
M  V30 1151 H 115.742 -7.34425 -2.405 0
M  V30 1152 H 114.087 -6.60272 -2.16948 0
M  V30 1153 H 117.278 -4.34801 -1.73394 0
M  V30 1154 H 117.451 -6.10805 -2.16381 0
M  V30 1155 N 110.857 0.726932 -1.39834 0
M  V30 1156 C 111.804 1.841 -1.39197 0
M  V30 1157 C 112.774 1.642 -0.250502 0
M  V30 1158 O 113.959 1.85494 -0.446846 0
M  V30 1159 C 111.099 3.21697 -1.24919 0
M  V30 1160 C 110.212 3.53247 -2.48678 0
M  V30 1161 C 109.347 4.80289 -2.26928 0
M  V30 1162 C 108.386 5.04707 -3.4632 0
M  V30 1163 N 107.523 6.22956 -3.23836 0
M  V30 1164 H 112.363 1.83979 -2.34427 0
M  V30 1165 H 109.9 0.898876 -1.16442 0
M  V30 1166 H 111.858 4.01137 -1.1465 0
M  V30 1167 H 110.488 3.21076 -0.333153 0
M  V30 1168 H 109.54 2.68447 -2.69519 0
M  V30 1169 H 110.852 3.67205 -3.37582 0
M  V30 1170 H 110.006 5.67725 -2.13947 0
M  V30 1171 H 108.745 4.68519 -1.35431 0
M  V30 1172 H 107.75 4.1573 -3.5979 0
M  V30 1173 H 108.975 5.18357 -4.38729 0
M  V30 1174 H 106.921 6.12459 -2.35011 0
M  V30 1175 H 106.838 6.37539 -4.063 0
M  V30 1176 H 108.106 7.1321 -3.14566 0
M  V30 1177 N 112.336 1.25143 0.95797 0
M  V30 1178 C 113.752 1.01892 1.22842 0
M  V30 1179 C 113.952 -0.266311 1.99732 0
M  V30 1180 O 113.008 -0.979913 2.3271 0
M  V30 1181 C 114.321 2.24004 2.00606 0
M  V30 1182 C 115.869 2.28731 2.13662 0
M  V30 1183 C 116.344 3.5049 2.94823 0
M  V30 1184 N 117.835 3.50866 3.02403 0
M  V30 1185 C 118.57 4.4174 3.65586 0
M  V30 1186 N 118.066 5.42882 4.30408 0
M  V30 1187 N 119.859 4.29429 3.62694 0
M  V30 1188 H 112.01 2.07718 0.443493 0
M  V30 1189 H 114.273 0.912031 0.258657 0
M  V30 1190 H 113.979 3.17395 1.51503 0
M  V30 1191 H 113.853 2.26907 3.01319 0
M  V30 1192 H 116.24 1.35865 2.61963 0
M  V30 1193 H 116.321 2.29848 1.12265 0
M  V30 1194 H 115.965 4.43676 2.47213 0
M  V30 1195 H 115.895 3.46617 3.96439 0
M  V30 1196 H 118.386 2.777 2.56302 0
M  V30 1197 H 118.699 6.0844 4.76467 0
M  V30 1198 H 117.044 5.46758 4.29047 0
M  V30 1199 H 120.235 3.49643 3.11236 0
M  V30 1200 H 120.408 5.00448 4.1165 0
M  V30 1201 N 113.814 -1.1601 1.06675 0
M  V30 1202 C 115.23 -1.38622 0.790948 0
M  V30 1203 C 115.43 -1.92109 -0.607965 0
M  V30 1204 O 114.486 -2.12239 -1.36787 0
M  V30 1205 C 115.799 -2.36347 1.85905 0
M  V30 1206 C 117.347 -2.50023 1.88301 0
M  V30 1207 C 117.822 -3.51033 2.94176 0
M  V30 1208 N 119.313 -3.58563 2.93235 0
M  V30 1209 C 120.048 -4.36521 3.71803 0
M  V30 1210 N 119.544 -5.17869 4.602 0
M  V30 1211 N 121.337 -4.31541 3.60178 0
M  V30 1212 H 113.488 -0.796294 1.96908 0
M  V30 1213 H 115.751 -0.412597 0.853503 0
M  V30 1214 H 115.457 -2.04147 2.86386 0
M  V30 1215 H 115.331 -3.36042 1.71334 0
M  V30 1216 H 117.718 -2.81524 0.884769 0
M  V30 1217 H 117.799 -1.5035 2.06951 0
M  V30 1218 H 117.443 -3.20268 3.94196 0
M  V30 1219 H 117.373 -4.50445 2.72776 0
M  V30 1220 H 119.864 -3.00496 2.29152 0
M  V30 1221 H 120.177 -5.74578 5.16797 0
M  V30 1222 H 118.522 -5.17199 4.64253 0
M  V30 1223 H 121.713 -3.67051 2.90502 0
M  V30 1224 H 121.886 -4.9205 4.21653 0
M  V30 1225 N 115.292 -0.849877 -1.32721 0
M  V30 1226 C 116.708 -0.539102 -1.50219 0
M  V30 1227 C 116.908 0.931271 -1.78689 0
M  V30 1228 O 115.964 1.71455 -1.85363 0
M  V30 1229 C 117.277 -1.42196 -2.64954 0
M  V30 1230 C 118.825 -1.42189 -2.78839 0
M  V30 1231 C 119.3 -2.28985 -3.96648 0
M  V30 1232 N 120.791 -2.26754 -4.03902 0
M  V30 1233 C 121.526 -2.90644 -4.94281 0
M  V30 1234 N 121.022 -3.63629 -5.897 0
M  V30 1235 N 122.815 -2.80057 -4.87365 0
M  V30 1236 H 114.966 -1.80156 -1.12506 0
M  V30 1237 H 117.229 -0.769217 -0.554085 0
M  V30 1238 H 116.935 -2.46733 -2.50631 0
M  V30 1239 H 116.809 -1.10591 -3.60624 0
M  V30 1240 H 119.196 -0.38419 -2.92588 0
M  V30 1241 H 119.277 -1.77807 -1.83898 0
M  V30 1242 H 118.921 -3.32819 -3.83658 0
M  V30 1243 H 118.851 -1.90702 -4.90857 0
M  V30 1244 H 121.342 -1.73688 -3.3562 0
M  V30 1245 H 121.655 -4.09558 -6.55349 0
M  V30 1246 H 120 -3.67737 -5.89741 0
M  V30 1247 H 123.191 -2.22593 -4.11789 0
M  V30 1248 H 123.364 -3.30132 -5.57599 0
M  V30 1249 N 116.77 1.45427 -0.607355 0
M  V30 1250 C 117.68 2.34325 0.113463 0
M  V30 1251 C 118.696 1.51226 0.860617 0
M  V30 1252 O 119.872 1.84029 0.818255 0
M  V30 1253 C 116.937 3.28839 1.09844 0
M  V30 1254 C 115.998 4.27844 0.353271 0
M  V30 1255 C 115.231 5.17842 1.29133 0
M  V30 1256 O 115.454 5.11264 2.52913 0
M  V30 1257 O 114.388 5.96713 0.788523 0
M  V30 1258 H 118.214 2.97364 -0.617094 0
M  V30 1259 H 115.799 1.44807 -0.367619 0
M  V30 1260 H 117.681 3.8708 1.66575 0
M  V30 1261 H 116.356 2.68365 1.81003 0
M  V30 1262 H 115.263 3.7322 -0.256494 0
M  V30 1263 H 116.596 4.91173 -0.317822 0
M  V30 1264 N 118.248 0.346503 1.53744 0
M  V30 1265 C 119.195 -0.508914 2.25119 0
M  V30 1266 C 120.165 -1.09315 1.25058 0
M  V30 1267 O 121.35 -1.12921 1.53797 0
M  V30 1268 C 118.49 -1.65246 3.02965 0
M  V30 1269 C 117.603 -1.09525 4.17886 0
M  V30 1270 C 116.738 -2.20634 4.83212 0
M  V30 1271 C 115.777 -1.62279 5.90196 0
M  V30 1272 N 114.914 -2.67143 6.49291 0
M  V30 1273 H 119.754 0.106283 2.9781 0
M  V30 1274 H 117.291 0.0642227 1.4696 0
M  V30 1275 H 119.249 -2.32574 3.4636 0
M  V30 1276 H 117.879 -2.2386 2.32565 0
M  V30 1277 H 116.931 -0.312818 3.79112 0
M  V30 1278 H 118.243 -0.628444 4.94825 0
M  V30 1279 H 117.397 -2.95821 5.29693 0
M  V30 1280 H 116.136 -2.70659 4.05703 0
M  V30 1281 H 115.141 -0.855989 5.43096 0
M  V30 1282 H 116.366 -1.13102 6.69615 0
M  V30 1283 H 114.312 -3.16417 5.74645 0
M  V30 1284 H 114.229 -2.25093 7.21713 0
M  V30 1285 H 115.497 -3.4209 7.00425 0
M  V30 1286 N 119.726 -1.57421 0.075193 0
M  V30 1287 C 120.674 -2.14124 -0.908508 0
M  V30 1288 C 121.668 -1.07898 -1.30592 0
M  V30 1289 O 122.874 -1.26273 -1.28277 0
M  V30 1290 H 119.249 -0.684707 -0.310935 0
M  V30 1291 H 121.22 -2.95634 -0.405374 0
M  V30 1292 C 119.969 -2.72044 -2.16535 0
M  V30 1293 H 119.292 -3.53456 -1.86839 0
M  V30 1294 H 120.732 -3.15311 -2.83469 0
M  V30 1295 C 119.191 -1.66968 -2.92615 0
M  V30 1296 O 119.721 -1.0967 -3.86439 0
M  V30 1297 N 117.927 -1.37923 -2.55784 0
M  V30 1298 H 117.474 -1.84706 -1.79559 0
M  V30 1299 H 117.432 -0.67852 -3.06991 0
M  V30 1300 N 121.204 0.198386 -1.56346 0
M  V30 1301 C 122.151 1.24589 -1.94284 0
M  V30 1302 C 123.121 1.454 -0.802997 0
M  V30 1303 O 124.306 1.58588 -1.06087 0
M  V30 1304 C 121.446 2.58631 -2.28482 0
M  V30 1305 C 120.559 2.45426 -3.55514 0
M  V30 1306 C 119.694 3.7215 -3.79049 0
M  V30 1307 C 118.733 3.53763 -4.99518 0
M  V30 1308 N 117.87 4.72491 -5.19323 0
M  V30 1309 H 122.71 0.915356 -2.83593 0
M  V30 1310 H 120.247 0.440629 -1.40346 0
M  V30 1311 H 122.205 3.3672 -2.46324 0
M  V30 1312 H 120.835 2.89734 -1.42317 0
M  V30 1313 H 119.887 1.58652 -3.45737 0
M  V30 1314 H 121.199 2.27772 -4.43758 0
M  V30 1315 H 120.353 4.58679 -3.97113 0
M  V30 1316 H 119.092 3.92754 -2.89129 0
M  V30 1317 H 118.097 2.65619 -4.8138 0
M  V30 1318 H 119.322 3.34607 -5.90944 0
M  V30 1319 H 117.268 4.93365 -4.3235 0
M  V30 1320 H 117.185 4.5765 -6.01741 0
M  V30 1321 H 118.453 5.6038 -5.41843 0
M  V30 1322 N 122.682 1.50554 0.465978 0
M  V30 1323 C 123.928 1.62038 1.21949 0
M  V30 1324 C 124.261 0.322116 1.9151 0
M  V30 1325 O 123.536 -0.676723 1.82348 0
M  V30 1326 C 123.819 2.80421 2.25912 0
M  V30 1327 C 123.672 4.20144 1.60622 0
M  V30 1328 C 124.991 2.94354 3.27176 0
M  V30 1329 H 122.11 0.589752 0.441998 0
M  V30 1330 H 124.752 1.82956 0.51257 0
M  V30 1331 H 122.902 2.62717 2.86203 0
M  V30 1332 H 124.574 4.49449 1.03889 0
M  V30 1333 H 122.817 4.24165 0.909211 0
M  V30 1334 H 123.488 4.98914 2.36196 0
M  V30 1335 H 125.964 3.10578 2.76913 0
M  V30 1336 H 124.84 3.788 3.97242 0
M  V30 1337 H 125.101 2.05186 3.916 0
M  V30 1338 N 124.16 -0.719506 1.40217 0
M  V30 1339 C 125.123 -1.8153 1.39927 0
M  V30 1340 C 126.123 -1.58095 0.293723 0
M  V30 1341 O 127.313 -1.65209 0.552429 0
M  V30 1342 C 124.445 -3.19561 1.18716 0
M  V30 1343 H 125.638 -1.83186 2.37451 0
M  V30 1344 H 123.191 -0.924746 1.26008 0
M  V30 1345 H 123.926 -3.23557 0.219366 0
M  V30 1346 H 123.711 -3.3797 1.98793 0
M  V30 1347 H 125.201 -3.99598 1.21291 0
M  V30 1348 N 125.638 -1.25649 -0.95132 0
M  V30 1349 C 126.601 -1.06399 -2.03007 0
M  V30 1350 C 127.601 -0.0156794 -1.60792 0
M  V30 1351 O 128.791 -0.25817 -1.72276 0
M  V30 1352 C 125.923 -0.616184 -3.35285 0
M  V30 1353 H 127.116 -2.02164 -2.21517 0
M  V30 1354 H 124.669 -1.08103 -1.12887 0
M  V30 1355 H 125.404 0.343917 -3.22471 0
M  V30 1356 H 125.189 -1.37301 -3.67275 0
M  V30 1357 H 126.679 -0.503032 -4.14559 0
M  V30 1358 N 127.117 1.15442 -1.07289 0
M  V30 1359 C 128.08 2.18358 -0.696591 0
M  V30 1360 C 129.08 1.58637 0.262837 0
M  V30 1361 O 130.27 1.74145 0.0438809 0
M  V30 1362 C 127.402 3.4089 -0.0266151 0
M  V30 1363 H 128.595 2.53162 -1.60776 0
M  V30 1364 H 126.148 1.29893 -0.869342 0
M  V30 1365 H 126.883 3.11653 0.896822 0
M  V30 1366 H 126.668 3.85495 -0.716657 0
M  V30 1367 H 128.158 4.17009 0.222028 0
M  V30 1368 N 128.595 0.856903 1.32268 0
M  V30 1369 C 130.011 0.547061 1.49931 0
M  V30 1370 C 130.211 -0.921781 1.7918 0
M  V30 1371 O 129.267 -1.70469 1.8627 0
M  V30 1372 C 130.58 1.43599 2.64196 0
M  V30 1373 C 132.128 1.43665 2.78081 0
M  V30 1374 C 132.603 2.31085 3.95428 0
M  V30 1375 N 134.094 2.28893 4.02694 0
M  V30 1376 C 134.829 2.93262 4.92732 0
M  V30 1377 N 134.325 3.66751 5.87763 0
M  V30 1378 N 136.118 2.82638 4.85873 0
M  V30 1379 H 128.269 1.8075 1.11549 0
M  V30 1380 H 130.532 0.772144 0.549997 0
M  V30 1381 H 130.238 2.48058 2.49319 0
M  V30 1382 H 130.112 1.12502 3.60032 0
M  V30 1383 H 132.499 0.399701 2.92381 0
M  V30 1384 H 132.58 1.7878 1.82952 0
M  V30 1385 H 132.224 3.34849 3.81888 0
M  V30 1386 H 132.154 1.93302 4.89839 0
M  V30 1387 H 134.645 1.75466 3.34694 0
M  V30 1388 H 134.958 4.13027 6.53168 0
M  V30 1389 H 133.303 3.70859 5.87783 0
M  V30 1390 H 136.494 2.24774 4.10602 0
M  V30 1391 H 136.667 3.33084 5.55841 0
M  V30 1392 N 130.073 -1.45103 0.615059 0
M  V30 1393 C 131.313 -2.04069 0.116282 0
M  V30 1394 C 131.677 -1.4721 -1.2326 0
M  V30 1395 O 132.878 -1.97577 -1.82255 0
M  V30 1396 C 131.149 -3.57298 0.085482 0
M  V30 1397 S 132.708 -4.37394 -0.351015 0
M  V30 1398 H 129.526 -0.709006 0.0532183 0
M  V30 1399 H 132.128 -1.77709 0.81484 0
M  V30 1400 H 130.832 -3.9619 1.0706 0
M  V30 1401 H 130.363 -3.88244 -0.634835 0
M  V30 1402 H 132.378 -4.69734 -1.59889 0
M  V30 1403 N 131.551 -0.354651 -1.53558 0
M  V30 1404 C 132.967 -0.00315426 -1.596 0
M  V30 1405 C 133.167 1.47741 -1.37021 0
M  V30 1406 O 132.223 2.23759 -1.16996 0
M  V30 1407 C 133.536 -0.44929 -2.97325 0
M  V30 1408 C 135.084 -0.402578 -3.104 0
M  V30 1409 C 135.559 -0.824355 -4.5052 0
M  V30 1410 N 137.05 -0.778979 -4.56603 0
M  V30 1411 C 137.785 -1.07715 -5.63192 0
M  V30 1412 N 137.281 -1.44405 -6.77583 0
M  V30 1413 N 139.074 -1.00066 -5.53121 0
M  V30 1414 H 131.225 -1.31893 -1.66487 0
M  V30 1415 H 133.488 -0.538388 -0.780284 0
M  V30 1416 H 133.194 -1.48202 -3.1895 0
M  V30 1417 H 133.068 0.169772 -3.76818 0
M  V30 1418 H 135.455 0.621004 -2.88492 0
M  V30 1419 H 135.536 -1.05699 -2.32941 0
M  V30 1420 H 135.18 -1.846 -4.73165 0
M  V30 1421 H 135.11 -0.147304 -5.26394 0
M  V30 1422 H 137.601 -0.508528 -3.74463 0
M  V30 1423 H 137.914 -1.65612 -7.54846 0
M  V30 1424 H 136.259 -1.4826 -6.79002 0
M  V30 1425 H 139.45 -0.713293 -4.62633 0
M  V30 1426 H 139.623 -1.23638 -6.36096 0
M  V30 1427 N 133.029 1.57378 -0.0835403 0
M  V30 1428 C 133.977 2.14602 0.89714 0
M  V30 1429 C 134.971 1.08589 1.30018 0
M  V30 1430 O 136.177 1.26952 1.27606 0
M  V30 1431 H 132.552 0.686346 0.3073 0
M  V30 1432 H 134.523 2.95845 0.38969 0
M  V30 1433 C 133.272 2.73188 2.15089 0
M  V30 1434 H 132.595 3.54442 1.84962 0
M  V30 1435 H 134.035 3.1681 2.81793 0
M  V30 1436 C 132.494 1.68517 2.91725 0
M  V30 1437 O 133.024 1.11718 3.85852 0
M  V30 1438 N 131.23 1.39277 2.55049 0
M  V30 1439 H 130.777 1.85655 1.78577 0
M  V30 1440 H 130.735 0.694791 3.06627 0
M  V30 1441 N 134.507 -0.190092 1.56449 0
M  V30 1442 C 135.454 -1.23557 1.94942 0
M  V30 1443 C 136.424 -1.44972 0.810696 0
M  V30 1444 O 137.609 -1.58023 1.06927 0
M  V30 1445 C 134.749 -2.57416 2.2985 0
M  V30 1446 C 133.862 -2.43537 3.5681 0
M  V30 1447 C 132.997 -3.70134 3.81017 0
M  V30 1448 C 132.036 -3.51109 5.01387 0
M  V30 1449 N 131.173 -4.6973 5.21822 0
M  V30 1450 H 136.013 -0.900304 2.84075 0
M  V30 1451 H 133.55 -0.43318 1.40577 0
M  V30 1452 H 135.508 -3.35409 2.48106 0
M  V30 1453 H 134.138 -2.88975 1.43852 0
M  V30 1454 H 133.19 -1.56816 3.46573 0
M  V30 1455 H 134.502 -2.25415 4.4496 0
M  V30 1456 H 133.656 -4.56566 3.9954 0
M  V30 1457 H 132.395 -3.91215 2.91207 0
M  V30 1458 H 131.4 -2.63063 4.82782 0
M  V30 1459 H 132.625 -3.31468 5.9271 0
M  V30 1460 H 130.571 -4.91065 4.34961 0
M  V30 1461 H 130.488 -4.54452 6.0416 0
M  V30 1462 H 131.756 -5.57499 5.44808 0
M  V30 1463 N 135.985 -1.50799 -0.457987 0
M  V30 1464 C 136.932 -1.70617 -1.5543 0
M  V30 1465 C 137.902 -0.547562 -1.56815 0
M  V30 1466 O 139.087 -0.779647 -1.74144 0
M  V30 1467 C 136.227 -1.81831 -2.93311 0
M  V30 1468 C 135.34 -3.09278 -3.01615 0
M  V30 1469 C 134.475 -3.11209 -4.30491 0
M  V30 1470 C 133.514 -4.33055 -4.32585 0
M  V30 1471 N 132.651 -4.32652 -5.52952 0
M  V30 1472 H 137.491 -2.64207 -1.37836 0
M  V30 1473 H 135.028 -1.30959 -0.669937 0
M  V30 1474 H 136.986 -1.86314 -3.73287 0
M  V30 1475 H 135.616 -0.916685 -3.0951 0
M  V30 1476 H 134.668 -3.14203 -2.1443 0
M  V30 1477 H 135.98 -3.99233 -2.99022 0
M  V30 1478 H 135.134 -3.14494 -5.18824 0
M  V30 1479 H 133.873 -2.19106 -4.35711 0
M  V30 1480 H 132.878 -4.29969 -3.42647 0
M  V30 1481 H 134.103 -5.264 -4.29046 0
M  V30 1482 H 132.049 -3.43409 -5.58933 0
M  V30 1483 H 131.966 -5.16392 -5.52155 0
M  V30 1484 H 133.234 -4.40101 -6.43375 0
M  V30 1485 N 137.463 0.71206 -1.40597 0
M  V30 1486 C 138.41 1.82613 -1.41142 0
M  V30 1487 C 139.38 1.63925 -0.267903 0
M  V30 1488 O 140.565 1.85009 -0.466495 0
M  V30 1489 C 137.705 3.20354 -1.28324 0
M  V30 1490 C 136.818 3.50589 -2.52411 0
M  V30 1491 C 135.953 4.77855 -2.32009 0
M  V30 1492 C 134.992 5.01005 -3.51654 0
M  V30 1493 N 134.129 6.19487 -3.30425 0
M  V30 1494 H 138.969 1.81482 -2.36365 0
M  V30 1495 H 136.506 0.886475 -1.17388 0
M  V30 1496 H 138.464 3.99899 -1.18899 0
M  V30 1497 H 137.094 3.20705 -0.367189 0
M  V30 1498 H 136.146 2.65573 -2.72351 0
M  V30 1499 H 137.458 3.63604 -3.41458 0
M  V30 1500 H 136.612 5.65424 -2.19956 0
M  V30 1501 H 135.351 4.67056 -1.40392 0
M  V30 1502 H 134.356 4.1189 -3.64179 0
M  V30 1503 H 135.581 5.13674 -4.44202 0
M  V30 1504 H 133.527 6.09932 -2.41494 0
M  V30 1505 H 133.444 6.33194 -4.13039 0
M  V30 1506 H 134.712 7.09834 -3.22113 0
M  V30 1507 N 138.941 1.26152 0.944643 0
M  V30 1508 C 139.851 1.09176 2.07648 0
M  V30 1509 C 140.867 0.0261935 1.7398 0
M  V30 1510 O 142.043 0.229208 2.00091 0
M  V30 1511 C 139.108 0.722915 3.39079 0
M  V30 1512 C 138.169 1.86752 3.86552 0
M  V30 1513 C 137.402 1.51617 5.11711 0
M  V30 1514 O 137.625 0.416331 5.68879 0
M  V30 1515 O 136.559 2.34975 5.54139 0
M  V30 1516 H 140.385 2.0412 2.24875 0
M  V30 1517 H 137.97 1.05182 1.061 0
M  V30 1518 H 139.852 0.529787 4.18056 0
M  V30 1519 H 138.527 -0.197159 3.23099 0
M  V30 1520 H 137.434 2.11558 3.08535 0
M  V30 1521 H 138.767 2.76719 4.07047 0
M  V30 1522 N 140.419 -1.14872 1.07899 0
M  V30 1523 C 141.835 -1.37776 0.805606 0
M  V30 1524 C 142.035 -1.92743 -0.587555 0
M  V30 1525 O 141.091 -2.13678 -1.34528 0
M  V30 1526 C 142.404 -2.34361 1.88402 0
M  V30 1527 C 143.952 -2.48012 1.90942 0
M  V30 1528 C 144.427 -3.47893 2.97883 0
M  V30 1529 N 145.918 -3.55433 2.97021 0
M  V30 1530 C 146.653 -4.32553 3.76412 0
M  V30 1531 N 146.149 -5.12959 4.65666 0
M  V30 1532 N 147.942 -4.27697 3.64735 0
M  V30 1533 H 140.093 -0.775365 1.97742 0
M  V30 1534 H 142.356 -0.403521 0.857831 0
M  V30 1535 H 142.062 -2.01098 2.88535 0
M  V30 1536 H 141.936 -3.34206 1.74889 0
M  V30 1537 H 144.323 -2.8057 0.914579 0
M  V30 1538 H 144.404 -1.48147 2.08534 0
M  V30 1539 H 144.048 -3.16069 3.97571 0
M  V30 1540 H 143.978 -4.47527 2.77538 0
M  V30 1541 H 146.469 -2.98048 2.32326 0
M  V30 1542 H 146.782 -5.69065 5.22862 0
M  V30 1543 H 145.127 -5.12245 4.69712 0
M  V30 1544 H 148.318 -3.63949 2.94378 0
M  V30 1545 H 148.491 -4.8755 4.26848 0
M  V30 1546 N 141.898 -0.863906 -1.31812 0
M  V30 1547 C 143.126 -0.486111 -2.01108 0
M  V30 1548 C 143.541 0.919755 -1.64882 0
M  V30 1549 O 142.898 1.60162 -0.874893 0
M  V30 1550 C 142.949 -0.626435 -3.56031 0
M  V30 1551 O 142.67 -1.97693 -3.90959 0
M  V30 1552 C 144.171 -0.248857 -4.42601 0
M  V30 1553 H 141.391 -0.190052 -0.643523 0
M  V30 1554 H 143.935 -1.1634 -1.68182 0
M  V30 1555 H 142.09 0.00322717 -3.874 0
M  V30 1556 H 142.504 -1.98034 -4.85678 0
M  V30 1557 H 143.978 -0.398016 -5.50563 0
M  V30 1558 H 144.455 0.811489 -4.31638 0
M  V30 1559 H 145.061 -0.853971 -4.16638 0
M  V30 1560 N 143.376 1.44774 -0.622745 0
M  V30 1561 C 144.286 2.34433 0.0886031 0
M  V30 1562 C 145.302 1.52131 0.844529 0
M  V30 1563 O 146.478 1.84886 0.798691 0
M  V30 1564 C 143.543 3.29986 1.0635 0
M  V30 1565 C 142.604 4.28195 0.307873 0
M  V30 1566 C 141.837 5.19183 1.23633 0
M  V30 1567 O 142.06 5.13918 2.47476 0
M  V30 1568 O 140.994 5.97515 0.725189 0
M  V30 1569 H 144.82 2.96693 -0.648599 0
M  V30 1570 H 142.405 1.44408 -0.382957 0
M  V30 1571 H 144.287 3.88825 1.6246 0
M  V30 1572 H 142.962 2.70269 1.78146 0
M  V30 1573 H 141.869 3.72927 -0.296064 0
M  V30 1574 H 143.202 4.90808 -0.3699 0
M  V30 1575 N 144.854 0.36279 1.53368 0
M  V30 1576 C 146.101 -0.227776 2.01215 0
M  V30 1577 C 146.429 -1.49003 1.25014 0
M  V30 1578 O 145.684 -1.92876 0.331236 0
M  V30 1579 C 145.983 -0.568417 3.52851 0
M  V30 1580 C 145.649 0.59918 4.46901 0
M  V30 1581 C 144.311 0.919559 4.72332 0
M  V30 1582 C 146.663 1.38156 5.02556 0
M  V30 1583 C 143.991 2.02434 5.5067 0
M  V30 1584 C 146.343 2.47674 5.821 0
M  V30 1585 C 145.007 2.8025 6.05819 0
M  V30 1586 H 144.277 -0.083349 0.736297 0
M  V30 1587 H 146.924 0.494677 1.85001 0
M  V30 1588 H 145.229 -1.37185 3.66998 0
M  V30 1589 H 146.926 -1.03756 3.87344 0
M  V30 1590 H 143.516 0.339437 4.27254 0
M  V30 1591 H 147.7 1.14729 4.82857 0
M  V30 1592 H 142.956 2.28075 5.67267 0
M  V30 1593 H 147.13 3.08716 6.24234 0
M  V30 1594 H 144.757 3.65979 6.66306 0
M  V30 1595 N 146.332 -1.57332 0.0918853 0
M  V30 1596 C 147.262 -2.16872 -0.865371 0
M  V30 1597 C 148.243 -1.10118 -1.29646 0
M  V30 1598 O 149.428 -1.38242 -1.36392 0
M  V30 1599 C 146.558 -2.74649 -2.12569 0
M  V30 1600 C 145.512 -3.86747 -1.83333 0
M  V30 1601 C 144.838 -4.31212 -3.16166 0
M  V30 1602 C 146.138 -5.10089 -1.1228 0
M  V30 1603 H 147.832 -2.97114 -0.369307 0
M  V30 1604 H 145.378 -1.42918 -0.176194 0
M  V30 1605 H 147.331 -3.14952 -2.7997 0
M  V30 1606 H 146.055 -1.91657 -2.64452 0
M  V30 1607 H 144.714 -3.46978 -1.18331 0
M  V30 1608 H 144.362 -3.45115 -3.6593 0
M  V30 1609 H 144.062 -5.06788 -2.97388 0
M  V30 1610 H 145.586 -4.74146 -3.84731 0
M  V30 1611 H 147 -5.47582 -1.69785 0
M  V30 1612 H 145.397 -5.91073 -1.03693 0
M  V30 1613 H 146.467 -4.84786 -0.105041 0
M  V30 1614 N 147.81 0.181792 -1.56548 0
M  V30 1615 C 148.742 1.24956 -1.92142 0
M  V30 1616 C 149.755 1.41022 -0.813422 0
M  V30 1617 O 150.944 1.41212 -1.09186 0
M  V30 1618 C 148.044 2.61981 -2.14987 0
M  V30 1619 C 147.217 2.6735 -3.46183 0
M  V30 1620 C 146.276 3.85664 -3.5798 0
M  V30 1621 O 145.302 3.72148 -4.30691 0
M  V30 1622 N 146.504 5.01683 -2.92053 0
M  V30 1623 H 149.269 0.947329 -2.84334 0
M  V30 1624 H 146.83 0.371629 -1.57577 0
M  V30 1625 H 148.822 3.3958 -2.20154 0
M  V30 1626 H 147.392 2.84637 -1.2923 0
M  V30 1627 H 146.612 1.75925 -3.52766 0
M  V30 1628 H 147.9 2.67939 -4.32534 0
M  V30 1629 H 147.298 5.15564 -2.32832 0
M  V30 1630 H 145.855 5.77181 -3.0283 0
M  V30 1631 N 149.288 1.51039 0.449983 0
M  V30 1632 C 150.704 1.38934 0.785462 0
M  V30 1633 C 150.904 0.461817 1.96136 0
M  V30 1634 O 149.96 -0.0877389 2.52348 0
M  V30 1635 C 151.273 2.80724 1.0777 0
M  V30 1636 C 152.821 2.89787 1.1829 0
M  V30 1637 C 153.296 4.32457 1.50815 0
M  V30 1638 N 154.787 4.35505 1.57764 0
M  V30 1639 C 155.522 5.42914 1.84477 0
M  V30 1640 N 155.018 6.60502 2.09068 0
M  V30 1641 N 156.811 5.3038 1.86155 0
M  V30 1642 H 148.962 2.09904 -0.324647 0
M  V30 1643 H 151.225 0.944378 -0.0827957 0
M  V30 1644 H 150.931 3.50531 0.286498 0
M  V30 1645 H 150.805 3.19273 2.00859 0
M  V30 1646 H 153.192 2.20186 1.96474 0
M  V30 1647 H 153.273 2.54752 0.231314 0
M  V30 1648 H 152.917 5.02603 0.731622 0
M  V30 1649 H 152.847 4.64995 2.47158 0
M  V30 1650 H 155.338 3.50724 1.40715 0
M  V30 1651 H 155.651 7.38158 2.28785 0
M  V30 1652 H 153.996 6.63639 2.06416 0
M  V30 1653 H 157.187 4.37505 1.66454 0
M  V30 1654 H 157.36 6.1417 2.06637 0
M  V30 1655 N 150.766 -0.704594 1.40972 0
M  V30 1656 C 151.676 -1.84856 1.44448 0
M  V30 1657 C 152.692 -1.70726 0.335961 0
M  V30 1658 O 153.868 -1.92799 0.582276 0
M  V30 1659 C 150.933 -3.20758 1.31587 0
M  V30 1660 C 149.994 -3.47063 2.52677 0
M  V30 1661 C 149.227 -4.76481 2.4042 0
M  V30 1662 O 149.45 -5.52341 1.42391 0
M  V30 1663 O 148.384 -5.03367 3.30007 0
M  V30 1664 H 152.21 -1.8488 2.40942 0
M  V30 1665 H 149.795 -0.85647 1.22413 0
M  V30 1666 H 151.677 -4.01913 1.26665 0
M  V30 1667 H 150.352 -3.21438 0.382049 0
M  V30 1668 H 149.259 -2.65873 2.63177 0
M  V30 1669 H 150.592 -3.5119 3.44858 0
M  V30 1670 N 152.244 -1.26651 -0.937939 0
M  V30 1671 C 153.469 -1.15279 -1.72411 0
M  V30 1672 C 153.894 0.287866 -1.85884 0
M  V30 1673 O 153.252 1.20855 -1.35143 0
M  V30 1674 C 153.3 -1.83028 -3.10698 0
M  V30 1675 O 152.404 -1.12128 -3.96864 0
M  V30 1676 H 151.745 -0.401504 -0.528858 0
M  V30 1677 H 154.275 -1.67531 -1.1745 0
M  V30 1678 H 154.285 -1.89981 -3.6107 0
M  V30 1679 H 152.96 -2.87833 -3.00208 0
M  V30 1680 H 151.537 -1.13173 -3.55312 0
M  V30 1681 N 153.722 1.14298 -1.08507 0
M  V30 1682 C 154.632 2.23027 -0.727753 0
M  V30 1683 C 155.648 1.71952 0.26619 0
M  V30 1684 O 156.824 2.011 0.109882 0
M  V30 1685 C 153.889 3.46403 -0.143541 0
M  V30 1686 C 152.95 4.12413 -1.19223 0
M  V30 1687 C 152.183 5.29899 -0.635798 0
M  V30 1688 O 152.406 5.67796 0.544393 0
M  V30 1689 O 151.34 5.85717 -1.38634 0
M  V30 1690 H 155.166 2.55945 -1.63481 0
M  V30 1691 H 152.751 1.22248 -0.858817 0
M  V30 1692 H 154.633 4.21018 0.179404 0
M  V30 1693 H 153.308 3.15206 0.736659 0
M  V30 1694 H 152.215 3.39667 -1.56772 0
M  V30 1695 H 153.548 4.47718 -2.04474 0
M  V30 1696 N 155.201 0.870884 1.31352 0
M  V30 1697 C 156.617 0.562932 1.49343 0
M  V30 1698 C 156.817 -0.902725 1.80148 0
M  V30 1699 O 155.873 -1.68484 1.88067 0
M  V30 1700 C 157.186 1.46393 2.62659 0
M  V30 1701 C 158.734 1.46607 2.76542 0
M  V30 1702 C 159.209 2.35266 3.92955 0
M  V30 1703 N 160.7 2.33151 4.00243 0
M  V30 1704 C 161.435 2.98471 4.89594 0
M  V30 1705 N 160.931 3.72964 5.8384 0
M  V30 1706 N 162.724 2.87775 4.82848 0
M  V30 1707 H 154.875 1.81923 1.09626 0
M  V30 1708 H 157.138 0.777934 0.541777 0
M  V30 1709 H 156.844 2.50689 2.46674 0
M  V30 1710 H 156.718 1.16314 3.58819 0
M  V30 1711 H 159.105 0.43069 2.9194 0
M  V30 1712 H 159.186 1.8071 1.81046 0
M  V30 1713 H 158.83 3.38881 3.78315 0
M  V30 1714 H 158.76 1.98487 4.87761 0
M  V30 1715 H 161.251 1.79006 3.32814 0
M  V30 1716 H 161.564 4.19932 6.4875 0
M  V30 1717 H 159.909 3.77073 5.83816 0
M  V30 1718 H 163.1 2.29116 4.08195 0
M  V30 1719 H 163.273 3.38961 5.52277 0
M  V30 1720 N 156.679 -1.44442 0.630414 0
M  V30 1721 C 157.609 -2.33418 -0.0618083 0
M  V30 1722 C 158.59 -1.48165 -0.835541 0
M  V30 1723 O 159.775 -1.76886 -0.801564 0
M  V30 1724 C 156.905 -3.31222 -1.04449 0
M  V30 1725 C 155.859 -4.26288 -0.382436 0
M  V30 1726 C 155.185 -5.13954 -1.47497 0
M  V30 1727 C 156.485 -5.1744 0.710865 0
M  V30 1728 H 158.179 -2.91548 0.681184 0
M  V30 1729 H 155.725 -1.40191 0.329026 0
M  V30 1730 H 157.678 -3.92351 -1.53748 0
M  V30 1731 H 156.402 -2.71299 -1.81836 0
M  V30 1732 H 155.061 -3.6649 0.0899054 0
M  V30 1733 H 154.709 -4.50385 -2.2397 0
M  V30 1734 H 154.409 -5.7837 -1.03737 0
M  V30 1735 H 155.933 -5.77955 -1.96979 0
M  V30 1736 H 157.347 -5.72509 0.300996 0
M  V30 1737 H 155.744 -5.90455 1.07156 0
M  V30 1738 H 156.814 -4.58496 1.57829 0
M  V30 1739 N 158.157 -0.370918 -1.53173 0
M  V30 1740 C 159.067 0.480823 -2.2962 0
M  V30 1741 C 160.083 1.08789 -1.35798 0
M  V30 1742 O 161.259 1.09768 -1.68858 0
M  V30 1743 C 158.324 1.60227 -3.07454 0
M  V30 1744 C 157.385 1.0222 -4.16953 0
M  V30 1745 C 156.618 2.0902 -4.91066 0
M  V30 1746 O 156.841 3.30222 -4.65091 0
M  V30 1747 O 155.775 1.71778 -5.76867 0
M  V30 1748 H 159.601 -0.141421 -3.03371 0
M  V30 1749 H 157.186 -0.135146 -1.48787 0
M  V30 1750 H 159.068 2.25417 -3.56041 0
M  V30 1751 H 157.743 2.20982 -2.36535 0
M  V30 1752 H 156.65 0.334064 -3.72605 0
M  V30 1753 H 157.983 0.459131 -4.90054 0
M  V30 1754 N 159.635 1.57281 -0.100228 0
M  V30 1755 C 160.565 2.17328 0.853857 0
M  V30 1756 C 161.546 1.10804 1.2906 0
M  V30 1757 O 162.731 1.38963 1.35657 0
M  V30 1758 C 159.861 2.75772 2.11109 0
M  V30 1759 C 158.815 3.87713 1.81279 0
M  V30 1760 C 158.141 4.32882 3.13874 0
M  V30 1761 C 159.441 5.10677 1.09574 0
M  V30 1762 H 161.135 2.97305 0.353545 0
M  V30 1763 H 158.681 1.43009 0.168612 0
M  V30 1764 H 160.634 3.16433 2.78296 0
M  V30 1765 H 159.358 1.93057 2.63432 0
M  V30 1766 H 158.017 3.476 1.16489 0
M  V30 1767 H 157.665 3.47051 3.64095 0
M  V30 1768 H 157.365 5.08358 2.94696 0
M  V30 1769 H 158.889 4.7618 3.82211 0
M  V30 1770 H 160.303 5.48474 1.66879 0
M  V30 1771 H 158.7 5.91615 1.00557 0
M  V30 1772 H 159.77 4.84835 0.0793299 0
M  V30 1773 N 161.113 -0.173488 1.56642 0
M  V30 1774 C 162.046 -1.24353 1.91342 0
M  V30 1775 C 163.024 -1.4289 0.775965 0
M  V30 1776 O 164.208 -1.57932 1.02907 0
M  V30 1777 C 161.335 -2.60683 2.16245 0
M  V30 1778 C 160.381 -2.58894 3.38934 0
M  V30 1779 S 161.214 -2.0819 4.93373 0
M  V30 1780 C 162.37 -3.46302 5.21369 0
M  V30 1781 H 162.603 -0.947345 2.81803 0
M  V30 1782 H 160.136 -0.377958 1.49703 0
M  V30 1783 H 162.094 -3.39149 2.31275 0
M  V30 1784 H 160.755 -2.87502 1.26496 0
M  V30 1785 H 159.948 -3.59188 3.53553 0
M  V30 1786 H 159.55 -1.88522 3.2301 0
M  V30 1787 H 161.842 -4.42287 5.13214 0
M  V30 1788 H 162.785 -3.3656 6.23003 0
M  V30 1789 H 163.193 -3.42214 4.48943 0
M  V30 1790 N 162.591 -1.51276 -0.441967 0
M  V30 1791 C 163.539 -1.72823 -1.55676 0
M  V30 1792 C 164.533 -0.59445 -1.58627 0
M  V30 1793 O 165.739 -0.775715 -1.62427 0
M  V30 1794 H 162.114 -0.545983 -0.517113 0
M  V30 1795 H 164.085 -2.6628 -1.34675 0
M  V30 1796 C 162.834 -1.86619 -2.93375 0
M  V30 1797 H 162.157 -2.73264 -2.91834 0
M  V30 1798 H 163.597 -2.05709 -3.70756 0
M  V30 1799 C 162.056 -0.624842 -3.31055 0
M  V30 1800 O 162.586 0.222636 -4.01083 0
M  V30 1801 N 160.792 -0.470288 -2.86769 0
M  V30 1802 H 160.339 -1.161 -2.29953 0
M  V30 1803 H 160.297 0.359051 -3.12343 0
M  V30 1804 N 164.069 0.697108 -1.41344 0
M  V30 1805 C 165.032 1.79281 -1.42797 0
M  V30 1806 C 166.032 1.57607 -0.318837 0
M  V30 1807 O 167.222 1.64309 -0.578642 0
M  V30 1808 C 164.354 3.17632 -1.23785 0
M  V30 1809 H 165.547 1.79385 -2.40335 0
M  V30 1810 H 163.1 0.904582 -1.27464 0
M  V30 1811 H 163.835 3.23167 -0.270814 0
M  V30 1812 H 163.62 3.34765 -2.04144 0
M  V30 1813 H 165.11 3.97617 -1.27633 0
M  V30 1814 N 165.547 1.27147 0.931209 0
M  V30 1815 C 166.457 1.11372 2.06478 0
M  V30 1816 C 167.473 0.044645 1.73943 0
M  V30 1817 O 168.649 0.250417 1.99837 0
M  V30 1818 C 165.714 0.758838 3.38294 0
M  V30 1819 C 164.775 1.90841 3.84549 0
M  V30 1820 C 164.008 1.57036 5.10074 0
M  V30 1821 O 164.231 0.476645 5.68405 0
M  V30 1822 O 163.165 2.40839 5.51616 0
M  V30 1823 H 166.991 2.06493 2.22698 0
M  V30 1824 H 164.576 1.06301 1.04978 0
M  V30 1825 H 166.458 0.574098 4.17471 0
M  V30 1826 H 165.133 -0.162879 3.2329 0
M  V30 1827 H 164.04 2.14819 3.06274 0
M  V30 1828 H 165.373 2.81021 4.04089 0
M  V30 1829 N 167.025 -1.13721 1.09112 0
M  V30 1830 C 167.955 -2.21148 0.749385 0
M  V30 1831 C 168.936 -1.6792 -0.271475 0
M  V30 1832 O 170.121 -1.93693 -0.140251 0
M  V30 1833 C 167.251 -3.46905 0.165659 0
M  V30 1834 C 166.205 -4.13203 1.11567 0
M  V30 1835 C 165.531 -5.33248 0.393809 0
M  V30 1836 C 166.831 -4.60912 2.45678 0
M  V30 1837 H 168.525 -2.4999 1.64758 0
M  V30 1838 H 166.071 -1.20156 0.793626 0
M  V30 1839 H 168.024 -4.21313 -0.085466 0
M  V30 1840 H 166.748 -3.17449 -0.767714 0
M  V30 1841 H 165.407 -3.40758 1.35202 0
M  V30 1842 H 165.055 -5.00054 -0.543599 0
M  V30 1843 H 164.755 -5.78552 1.02721 0
M  V30 1844 H 166.279 -6.10413 0.150908 0
M  V30 1845 H 167.693 -5.26759 2.26269 0
M  V30 1846 H 166.09 -5.16944 3.04776 0
M  V30 1847 H 167.16 -3.75603 3.06677 0
M  V30 1848 N 168.503 -0.877838 -1.30888 0
M  V30 1849 C 169.45 -0.337538 -2.28318 0
M  V30 1850 C 170.42 0.568346 -1.56074 0
M  V30 1851 O 171.605 0.498298 -1.84178 0
M  V30 1852 C 168.745 0.448142 -3.42178 0
M  V30 1853 C 167.858 -0.48615 -4.29256 0
M  V30 1854 C 166.993 0.314427 -5.30269 0
M  V30 1855 C 166.032 -0.615791 -6.08995 0
M  V30 1856 N 165.169 0.14902 -7.01942 0
M  V30 1857 H 170.009 -1.17356 -2.73919 0
M  V30 1858 H 167.546 -0.590094 -1.34745 0
M  V30 1859 H 169.504 0.919517 -4.06941 0
M  V30 1860 H 168.134 1.24879 -2.97666 0
M  V30 1861 H 167.186 -1.076 -3.64865 0
M  V30 1862 H 168.498 -1.19909 -4.84173 0
M  V30 1863 H 167.652 0.847969 -6.00745 0
M  V30 1864 H 166.391 1.06062 -4.76027 0
M  V30 1865 H 165.396 -1.16102 -5.37401 0
M  V30 1866 H 166.621 -1.36097 -6.65323 0
M  V30 1867 H 164.567 0.877884 -6.50099 0
M  V30 1868 H 164.484 -0.504433 -7.54315 0
M  V30 1869 H 165.752 0.663537 -7.76671 0
M  V30 1870 N 169.982 1.44106 -0.638065 0
M  V30 1871 C 171.21 2.06336 -0.152615 0
M  V30 1872 C 171.625 1.47731 1.17563 0
M  V30 1873 O 170.982 0.602806 1.72257 0
M  V30 1874 C 171.033 3.61479 -0.0391491 0
M  V30 1875 O 170.754 4.17903 -1.31487 0
M  V30 1876 C 172.255 4.40757 0.474176 0
M  V30 1877 H 169.475 0.665862 -0.0828776 0
M  V30 1878 H 172.019 1.84862 -0.87443 0
M  V30 1879 H 170.174 3.82191 0.633142 0
M  V30 1880 H 170.588 5.11416 -1.16421 0
M  V30 1881 H 172.062 5.49707 0.502562 0
M  V30 1882 H 172.539 4.12697 1.50258 0
M  V30 1883 H 173.145 4.24979 -0.165102 0
M  V30 1884 N 171.46 0.379036 1.52974 0
M  V30 1885 C 172.392 -0.495963 2.2377 0
M  V30 1886 C 173.405 -1.03517 1.25651 0
M  V30 1887 O 174.594 -0.939249 1.51791 0
M  V30 1888 C 171.694 -1.69894 2.93239 0
M  V30 1889 C 170.867 -1.2889 4.17979 0
M  V30 1890 C 169.926 -2.35543 4.70538 0
M  V30 1891 O 168.952 -1.97375 5.33883 0
M  V30 1892 N 170.154 -3.67318 4.49508 0
M  V30 1893 H 172.919 0.110523 2.99496 0
M  V30 1894 H 170.48 0.204878 1.60598 0
M  V30 1895 H 172.472 -2.40747 3.25304 0
M  V30 1896 H 171.042 -2.212 2.20883 0
M  V30 1897 H 170.262 -0.409676 3.92065 0
M  V30 1898 H 171.55 -0.991443 4.99047 0
M  V30 1899 H 170.948 -4.01095 3.98923 0
M  V30 1900 H 169.505 -4.34235 4.8609 0
M  V30 1901 N 172.938 -1.57226 0.108567 0
M  V30 1902 C 174.187 -1.94008 -0.551703 0
M  V30 1903 C 174.5 -0.993442 -1.68494 0
M  V30 1904 O 175.706 -1.25551 -2.40726 0
M  V30 1905 C 174.162 -3.44763 -1.03279 0
M  V30 1906 C 173.77 -4.47943 0.0714193 0
M  V30 1907 C 175.514 -3.90483 -1.66503 0
M  V30 1908 C 173.421 -5.89865 -0.425779 0
M  V30 1909 H 172.351 -0.724206 -0.209863 0
M  V30 1910 H 175.002 -1.82547 0.186741 0
M  V30 1911 H 173.384 -3.51422 -1.82533 0
M  V30 1912 H 174.558 -4.52942 0.847365 0
M  V30 1913 H 172.873 -4.11913 0.609669 0
M  V30 1914 H 175.47 -4.93925 -2.04798 0
M  V30 1915 H 175.813 -3.29877 -2.53942 0
M  V30 1916 H 176.346 -3.86581 -0.938074 0
M  V30 1917 H 173.085 -6.54202 0.412316 0
M  V30 1918 H 172.605 -5.88309 -1.16843 0
M  V30 1919 H 174.284 -6.40844 -0.890397 0
M  V30 1920 N 174.416 0.165178 -1.56732 0
M  V30 1921 C 175.326 1.22423 -2.00125 0
M  V30 1922 C 176.342 1.48084 -0.913619 0
M  V30 1923 O 177.518 1.60112 -1.22172 0
M  V30 1924 C 174.583 2.54197 -2.35764 0
M  V30 1925 C 173.644 2.36343 -3.58386 0
M  V30 1926 C 172.877 3.61834 -3.92316 0
M  V30 1927 O 173.1 4.67267 -3.27135 0
M  V30 1928 O 172.034 3.55579 -4.85641 0
M  V30 1929 H 175.86 0.885886 -2.90492 0
M  V30 1930 H 173.445 0.372518 -1.44681 0
M  V30 1931 H 175.327 3.3192 -2.59629 0
M  V30 1932 H 174.002 2.87598 -1.48557 0
M  V30 1933 H 172.909 1.56632 -3.39731 0
M  V30 1934 H 174.242 2.07865 -4.46154 0
M  V30 1935 N 175.894 1.51508 0.433938 0
M  V30 1936 C 176.804 1.75917 1.5521 0
M  V30 1937 C 177.82 0.643545 1.61662 0
M  V30 1938 O 178.996 0.926183 1.7884 0
M  V30 1939 C 176.061 1.88213 2.91164 0
M  V30 1940 C 175.122 3.12074 2.94802 0
M  V30 1941 C 174.355 3.23774 4.24271 0
M  V30 1942 O 174.578 2.4133 5.16833 0
M  V30 1943 O 173.512 4.16774 4.34262 0
M  V30 1944 H 177.338 2.70777 1.37527 0
M  V30 1945 H 174.923 1.36051 0.617293 0
M  V30 1946 H 176.805 1.98267 3.71845 0
M  V30 1947 H 175.48 0.965413 3.08968 0
M  V30 1948 H 174.387 3.07497 2.13065 0
M  V30 1949 H 175.72 4.03446 2.81943 0
M  V30 1950 N 177.372 -0.689602 1.41712 0
M  V30 1951 C 178.302 -1.81577 1.46806 0
M  V30 1952 C 179.283 -1.66945 0.326105 0
M  V30 1953 O 180.468 -1.86588 0.538377 0
M  V30 1954 C 177.598 -3.19762 1.35535 0
M  V30 1955 C 176.552 -3.49107 2.47605 0
M  V30 1956 C 175.878 -4.86711 2.21397 0
M  V30 1957 C 177.178 -3.47483 3.89939 0
M  V30 1958 H 178.872 -1.7757 2.41058 0
M  V30 1959 H 176.418 -0.852887 1.16025 0
M  V30 1960 H 178.371 -3.98263 1.3771 0
M  V30 1961 H 177.095 -3.24409 0.377708 0
M  V30 1962 H 175.754 -2.72959 2.44722 0
M  V30 1963 H 175.402 -4.8799 1.21961 0
M  V30 1964 H 175.102 -5.0731 2.96497 0
M  V30 1965 H 176.626 -5.67515 2.25297 0
M  V30 1966 H 178.04 -4.1598 3.94505 0
M  V30 1967 H 176.437 -3.79615 4.64771 0
M  V30 1968 H 177.507 -2.46341 4.17665 0
M  V30 1969 N 178.85 -1.27639 -0.924453 0
M  V30 1970 C 179.797 -1.10644 -2.0255 0
M  V30 1971 C 180.767 -0.00658438 -1.66099 0
M  V30 1972 O 181.952 -0.16952 -1.90045 0
M  V30 1973 C 179.092 -0.76309 -3.36557 0
M  V30 1974 C 178.205 -1.94091 -3.85944 0
M  V30 1975 C 177.34 -1.53914 -5.08413 0
M  V30 1976 C 176.379 -2.68425 -5.50104 0
M  V30 1977 N 175.516 -2.28815 -6.63768 0
M  V30 1978 H 180.356 -2.04858 -2.16419 0
M  V30 1979 H 177.893 -1.01974 -1.06017 0
M  V30 1980 H 179.851 -0.544822 -4.13627 0
M  V30 1981 H 178.481 0.142102 -3.22487 0
M  V30 1982 H 177.533 -2.27162 -3.05125 0
M  V30 1983 H 178.845 -2.7998 -4.12811 0
M  V30 1984 H 177.999 -1.28231 -5.92994 0
M  V30 1985 H 176.738 -0.651391 -4.8333 0
M  V30 1986 H 175.743 -2.94819 -4.64071 0
M  V30 1987 H 176.968 -3.57826 -5.7718 0
M  V30 1988 H 174.914 -1.42495 -6.40337 0
M  V30 1989 H 174.831 -3.08242 -6.90306 0
M  V30 1990 H 176.099 -2.06387 -7.51681 0
M  V30 1991 N 180.328 1.1314 -1.09713 0
M  V30 1992 C 181.26 2.18343 -0.697056 0
M  V30 1993 C 182.273 1.60669 0.262551 0
M  V30 1994 O 183.462 1.78435 0.0481527 0
M  V30 1995 C 180.562 3.38899 -0.00684728 0
M  V30 1996 C 179.735 4.26078 -0.988741 0
M  V30 1997 C 178.794 5.25155 -0.331394 0
M  V30 1998 O 177.82 5.60701 -0.979926 0
M  V30 1999 N 179.022 5.73271 0.913261 0
M  V30 2000 H 181.787 2.5328 -1.60216 0
M  V30 2001 H 179.348 1.28491 -0.984971 0
M  V30 2002 H 181.34 4.02255 0.444191 0
M  V30 2003 H 179.91 3.02175 0.800551 0
M  V30 2004 H 179.13 3.59453 -1.61826 0
M  V30 2005 H 180.418 4.81178 -1.65364 0
M  V30 2006 H 179.816 5.46544 1.45966 0
M  V30 2007 H 178.373 6.3855 1.30757 0
M  V30 2008 N 181.806 0.884767 1.30421 0
M  V30 2009 C 182.716 0.355398 2.31892 0
M  V30 2010 C 183.732 -0.542261 1.65335 0
M  V30 2011 O 184.908 -0.435432 1.96637 0
M  V30 2012 C 181.973 -0.421661 3.44126 0
M  V30 2013 C 181.034 0.505727 4.26311 0
M  V30 2014 C 180.267 -0.234343 5.33185 0
M  V30 2015 O 180.49 -1.46045 5.51386 0
M  V30 2016 O 179.424 0.415443 6.00465 0
M  V30 2017 H 183.25 1.19685 2.79122 0
M  V30 2018 H 180.835 0.648596 1.34587 0
M  V30 2019 H 182.717 -0.861641 4.12497 0
M  V30 2020 H 181.392 -1.23942 2.99032 0
M  V30 2021 H 180.299 0.994513 3.60639 0
M  V30 2022 H 181.632 1.28948 4.75009 0
M  V30 2023 N 183.284 -1.43765 0.645699 0
M  V30 2024 C 184.7 -1.56509 0.312591 0
M  V30 2025 C 184.9 -1.6307 -1.18365 0
M  V30 2026 O 183.956 -1.58167 -1.96824 0
M  V30 2027 C 185.269 -2.82968 1.01733 0
M  V30 2028 C 186.817 -2.96701 0.996865 0
M  V30 2029 C 187.292 -4.25982 1.68236 0
M  V30 2030 N 188.783 -4.32829 1.64964 0
M  V30 2031 C 189.518 -5.31613 2.14885 0
M  V30 2032 N 189.014 -6.36718 2.73061 0
M  V30 2033 N 190.807 -5.23217 2.05428 0
M  V30 2034 H 182.958 -1.3775 1.61675 0
M  V30 2035 H 185.221 -0.661067 0.679481 0
M  V30 2036 H 184.927 -2.84156 2.0724 0
M  V30 2037 H 184.801 -3.72957 0.564177 0
M  V30 2038 H 187.188 -2.95058 -0.0497719 0
M  V30 2039 H 187.269 -2.08022 1.48865 0
M  V30 2040 H 186.913 -4.28386 2.72852 0
M  V30 2041 H 186.843 -5.13545 1.16529 0
M  V30 2042 H 189.334 -3.57493 1.22503 0
M  V30 2043 H 189.647 -7.08401 3.08848 0
M  V30 2044 H 187.992 -6.37362 2.77118 0
M  V30 2045 H 191.183 -4.40019 1.59689 0
M  V30 2046 H 191.356 -6.00045 2.44643 0
M  V30 2047 N 184.763 -0.387143 -1.52771 0
M  V30 2048 C 185.695 0.484089 -2.2403 0
M  V30 2049 C 186.708 1.02849 -1.26198 0
M  V30 2050 O 187.897 0.931186 -1.52286 0
M  V30 2051 C 184.997 1.68337 -2.94136 0
M  V30 2052 C 184.17 1.26672 -4.18656 0
M  V30 2053 C 183.229 2.33045 -4.7178 0
M  V30 2054 O 182.255 1.94541 -5.34923 0
M  V30 2055 N 183.457 3.64929 -4.5145 0
M  V30 2056 H 186.222 -0.126404 -2.99433 0
M  V30 2057 H 183.783 -0.213392 -1.60488 0
M  V30 2058 H 185.775 2.39019 -3.26577 0
M  V30 2059 H 184.345 2.20025 -2.22053 0
M  V30 2060 H 183.565 0.388878 -3.92277 0
M  V30 2061 H 184.853 0.964964 -4.99566 0
M  V30 2062 H 184.251 3.98974 -4.01044 0
M  V30 2063 H 182.808 4.31651 -4.88386 0
M  V30 2064 N 186.241 1.57166 -0.116904 0
M  V30 2065 C 187.173 2.12271 0.864507 0
M  V30 2066 C 188.186 1.06494 1.23138 0
M  V30 2067 O 189.375 1.33873 1.18069 0
M  V30 2068 C 186.475 2.60564 2.16702 0
M  V30 2069 C 185.648 3.90416 1.97216 0
M  V30 2070 C 184.707 4.24329 3.11178 0
M  V30 2071 O 183.733 4.93182 2.84184 0
M  V30 2072 N 184.935 3.8148 4.37554 0
M  V30 2073 H 187.7 2.97102 0.393726 0
M  V30 2074 H 185.261 1.61759 0.0675805 0
M  V30 2075 H 187.253 2.80282 2.91932 0
M  V30 2076 H 185.823 1.80623 2.55135 0
M  V30 2077 H 185.043 3.79627 1.06192 0
M  V30 2078 H 186.331 4.75327 1.81499 0
M  V30 2079 H 185.729 3.25943 4.62361 0
M  V30 2080 H 184.286 4.06311 5.09661 0
M  V30 2081 N 187.719 -0.156864 1.56817 0
M  V30 2082 C 188.649 -1.19589 2.00551 0
M  V30 2083 C 189.63 -1.4536 0.883426 0
M  V30 2084 O 190.815 -1.56449 1.15054 0
M  V30 2085 C 187.945 -2.53143 2.37773 0
M  V30 2086 C 186.899 -2.41913 3.53075 0
M  V30 2087 C 186.225 -3.80088 3.76081 0
M  V30 2088 C 187.525 -1.91157 4.86062 0
M  V30 2089 H 189.219 -0.832293 2.87599 0
M  V30 2090 H 186.765 -0.398918 1.38364 0
M  V30 2091 H 188.718 -3.26047 2.66967 0
M  V30 2092 H 187.442 -2.91319 1.4765 0
M  V30 2093 H 186.101 -1.71462 3.24031 0
M  V30 2094 H 185.749 -4.15683 2.83225 0
M  V30 2095 H 185.449 -3.73439 4.53671 0
M  V30 2096 H 186.973 -4.54556 4.0769 0
M  V30 2097 H 188.387 -2.53846 5.14038 0
M  V30 2098 H 186.784 -1.95422 5.67389 0
M  V30 2099 H 187.854 -0.866673 4.77092 0
M  V30 2100 N 189.197 -1.51736 -0.425897 0
M  V30 2101 C 190.446 -1.64201 -1.17136 0
M  V30 2102 C 190.759 -0.369705 -1.92074 0
M  V30 2103 O 191.965 -0.373898 -2.68913 0
M  V30 2104 C 190.421 -2.90035 -2.13091 0
M  V30 2105 C 190.029 -4.24312 -1.43747 0
M  V30 2106 C 191.773 -3.1186 -2.87999 0
M  V30 2107 C 189.68 -5.41285 -2.38253 0
M  V30 2108 H 188.61 -0.611624 -0.440944 0
M  V30 2109 H 191.261 -1.78212 -0.437328 0
M  V30 2110 H 189.643 -2.69684 -2.89977 0
M  V30 2111 H 190.817 -4.55086 -0.723408 0
M  V30 2112 H 189.132 -4.08456 -0.809465 0
M  V30 2113 H 191.729 -3.96427 -3.58817 0
M  V30 2114 H 192.072 -2.25403 -3.49999 0
M  V30 2115 H 192.605 -3.32605 -2.18217 0
M  V30 2116 H 189.344 -6.30037 -1.80925 0
M  V30 2117 H 188.864 -5.14872 -3.0768 0
M  V30 2118 H 190.543 -5.73694 -2.99139 0
M  V30 2119 N 190.675 0.682077 -1.42076 0
M  V30 2120 C 191.605 1.80796 -1.47767 0
M  V30 2121 C 192.586 1.6677 -0.334954 0
M  V30 2122 O 193.771 1.863 -0.548264 0
M  V30 2123 C 190.901 3.19038 -1.37229 0
M  V30 2124 C 189.855 3.47789 -2.49453 0
M  V30 2125 C 189.181 4.8553 -2.23975 0
M  V30 2126 C 190.481 3.45411 -3.91776 0
M  V30 2127 H 192.175 1.7629 -2.41997 0
M  V30 2128 H 189.721 0.846721 -1.16476 0
M  V30 2129 H 191.674 3.97528 -1.39821 0
M  V30 2130 H 190.398 3.24204 -0.394907 0
M  V30 2131 H 189.057 2.71657 -2.46166 0
M  V30 2132 H 188.705 4.87337 -1.24547 0
M  V30 2133 H 188.405 5.0573 -2.99184 0
M  V30 2134 H 189.929 5.66312 -2.28304 0
M  V30 2135 H 191.343 4.13882 -3.96705 0
M  V30 2136 H 189.74 3.77145 -4.66778 0
M  V30 2137 H 190.81 2.44122 -4.18966 0
M  V30 2138 N 192.153 1.28127 0.917671 0
M  V30 2139 C 193.086 1.06039 2.02067 0
M  V30 2140 C 194.064 -0.0223285 1.62585 0
M  V30 2141 O 195.248 0.124823 1.88086 0
M  V30 2142 C 192.375 0.610596 3.33151 0
M  V30 2143 C 191.421 1.68937 3.91615 0
M  V30 2144 S 192.254 3.28437 4.22953 0
M  V30 2145 C 193.41 2.85283 5.57103 0
M  V30 2146 H 193.643 1.99425 2.20493 0
M  V30 2147 H 191.176 1.12071 1.06205 0
M  V30 2148 H 193.134 0.357778 4.08938 0
M  V30 2149 H 191.795 -0.303364 3.12632 0
M  V30 2150 H 190.988 1.32619 4.86239 0
M  V30 2151 H 190.59 1.89478 3.2245 0
M  V30 2152 H 192.882 2.3121 6.36827 0
M  V30 2153 H 193.825 3.7869 5.98331 0
M  V30 2154 H 194.233 2.24118 5.18104 0
M  V30 2155 N 193.631 -1.12557 1.10312 0
M  V30 2156 C 194.561 -2.20341 0.772798 0
M  V30 2157 C 195.542 -1.68198 -0.25365 0
M  V30 2158 O 196.727 -1.93831 -0.119699 0
M  V30 2159 C 193.857 -3.46709 0.202443 0
M  V30 2160 C 192.811 -4.11996 1.15943 0
M  V30 2161 C 192.137 -5.328 0.450345 0
M  V30 2162 C 193.437 -4.5828 2.50552 0
M  V30 2163 H 195.131 -2.48229 1.674 0
M  V30 2164 H 192.677 -1.19308 0.806326 0
M  V30 2165 H 194.63 -4.2138 -0.0407752 0
M  V30 2166 H 193.354 -3.18245 -0.734001 0
M  V30 2167 H 192.013 -3.39305 1.38808 0
M  V30 2168 H 191.661 -5.00602 -0.490531 0
M  V30 2169 H 191.361 -5.7743 1.08851 0
M  V30 2170 H 192.885 -6.10219 0.215642 0
M  V30 2171 H 194.299 -5.2433 2.31843 0
M  V30 2172 H 192.696 -5.13683 3.10242 0
M  V30 2173 H 193.766 -3.72329 3.10643 0
M  V30 2174 N 195.109 -0.891671 -1.2995 0
M  V30 2175 C 196.057 -0.353066 -2.29905 0
M  V30 2176 C 197.051 0.543509 -1.60444 0
M  V30 2177 O 198.257 0.4272 -1.74857 0
M  V30 2178 H 194.632 -0.095531 -0.745907 0
M  V30 2179 H 196.603 -1.20961 -2.72784 0
M  V30 2180 C 195.352 0.411475 -3.45257 0
M  V30 2181 H 194.675 -0.269182 -3.98893 0
M  V30 2182 H 196.115 0.753328 -4.17254 0
M  V30 2183 C 194.574 1.6111 -2.9588 0
M  V30 2184 O 195.104 2.71045 -2.96475 0
M  V30 2185 N 193.31 1.45054 -2.51809 0
M  V30 2186 H 192.857 0.556175 -2.51524 0
M  V30 2187 H 192.815 2.25453 -2.1913 0
M  V30 2188 N 196.587 1.43421 -0.653314 0
M  V30 2189 C 198.003 1.56341 -0.320886 0
M  V30 2190 C 198.203 1.63696 1.17499 0
M  V30 2191 O 197.259 1.59208 1.95982 0
M  V30 2192 C 198.572 2.82424 -1.03233 0
M  V30 2193 C 200.12 2.96168 -1.01259 0
M  V30 2194 C 200.595 4.25084 -1.70492 0
M  V30 2195 N 202.086 4.31948 -1.67257 0
M  V30 2196 C 202.821 5.30466 -2.17701 0
M  V30 2197 N 202.317 6.35261 -2.76434 0
M  V30 2198 N 204.11 5.2212 -2.082 0
M  V30 2199 H 196.261 1.3689 -1.62403 0
M  V30 2200 H 198.524 0.657455 -0.682977 0
M  V30 2201 H 198.23 2.83053 -2.08744 0
M  V30 2202 H 198.104 3.72653 -0.583948 0
M  V30 2203 H 200.491 2.9508 0.0341235 0
M  V30 2204 H 200.572 2.07229 -1.49966 0
M  V30 2205 H 200.216 4.26932 -2.7512 0
M  V30 2206 H 200.146 5.1292 -1.19251 0
M  V30 2207 H 202.637 3.56838 -1.24398 0
M  V30 2208 H 202.95 7.06754 -3.12601 0
M  V30 2209 H 201.295 6.35884 -2.80495 0
M  V30 2210 H 204.486 4.39166 -1.62021 0
M  V30 2211 H 204.659 5.98739 -2.47822 0
M  V30 2212 N 198.065 0.39524 1.52563 0
M  V30 2213 C 199.015 -0.4541 2.23432 0
M  V30 2214 C 199.999 -1.02482 1.24042 0
M  V30 2215 O 201.191 -0.949938 1.49349 0
M  V30 2216 C 198.32 -1.57769 3.049 0
M  V30 2217 C 197.406 -1.01842 4.1169 0
M  V30 2218 N 197.797 -0.184613 5.05463 0
M  V30 2219 C 196.095 -1.29033 4.26927 0
M  V30 2220 C 196.796 0.125013 5.81566 0
M  V30 2221 N 195.772 -0.480498 5.41472 0
M  V30 2222 H 199.574 0.189413 2.93289 0
M  V30 2223 H 197.088 0.204877 1.61102 0
M  V30 2224 H 199.085 -2.19862 3.54212 0
M  V30 2225 H 197.745 -2.22397 2.36579 0
M  V30 2226 H 198.756 0.178602 5.17592 0
M  V30 2227 H 195.433 -1.93721 3.69836 0
M  V30 2228 H 196.823 0.800962 6.67109 0
M  V30 2229 N 199.544 -1.57102 0.125237 0
M  V30 2230 C 200.96 -1.57915 -0.231322 0
M  V30 2231 C 201.16 -1.13833 -1.66266 0
M  V30 2232 O 200.216 -0.828581 -2.38518 0
M  V30 2233 C 201.529 -3.00699 0.00766489 0
M  V30 2234 C 203.077 -3.12947 -0.0577483 0
M  V30 2235 C 203.552 -4.57742 0.153626 0
M  V30 2236 N 205.043 -4.63092 0.0998073 0
M  V30 2237 C 205.778 -5.72905 0.238174 0
M  V30 2238 N 205.274 -6.91445 0.433057 0
M  V30 2239 N 207.067 -5.6182 0.177308 0
M  V30 2240 H 199.218 -1.84055 1.06007 0
M  V30 2241 H 201.481 -0.850905 0.417929 0
M  V30 2242 H 201.187 -3.3726 0.997431 0
M  V30 2243 H 201.061 -3.70236 -0.721452 0
M  V30 2244 H 203.448 -2.7624 -1.03804 0
M  V30 2245 H 203.529 -2.4594 0.70335 0
M  V30 2246 H 203.173 -4.95149 1.13092 0
M  V30 2247 H 203.103 -5.22848 -0.627534 0
M  V30 2248 H 205.594 -3.77871 -0.047051 0
M  V30 2249 H 205.907 -7.70985 0.529332 0
M  V30 2250 H 204.252 -6.93415 0.469109 0
M  V30 2251 H 207.443 -4.68093 0.0259748 0
M  V30 2252 H 207.616 -6.47357 0.288582 0
M  V30 2253 N 201.022 0.148545 -1.56898 0
M  V30 2254 C 202.433 0.708766 -1.72723 0
M  V30 2255 C 202.784 1.81734 -0.739395 0
M  V30 2256 O 201.909 2.16194 0.0943169 0
M  V30 2257 C 202.504 1.29245 -3.13179 0
M  V30 2258 C 201.063 1.79925 -3.30611 0
M  V30 2259 C 200.21 0.687111 -2.68652 0
M  V30 2260 H 203.161 -0.0771063 -1.58513 0
M  V30 2261 H 203.182 2.16224 -3.13093 0
M  V30 2262 H 202.694 0.485382 -3.85053 0
M  V30 2263 H 200.795 2.63203 -2.63732 0
M  V30 2264 H 200.908 1.92903 -4.38549 0
M  V30 2265 H 199.272 1.11335 -2.29078 0
M  V30 2266 H 200.055 -0.108483 -3.43129 0
M  V30 2267 N 202.5 1.5196 0.417844 0
M  V30 2268 C 203.728 1.69426 1.18753 0
M  V30 2269 C 204.143 0.399955 1.84515 0
M  V30 2270 O 203.5 -0.623288 1.71527 0
M  V30 2271 C 203.551 2.82375 2.25714 0
M  V30 2272 O 203.272 4.06793 1.62638 0
M  V30 2273 C 204.773 3.11277 3.15628 0
M  V30 2274 H 201.993 0.568031 0.357186 0
M  V30 2275 H 204.537 1.98475 0.49273 0
M  V30 2276 H 202.692 2.5587 2.90877 0
M  V30 2277 H 203.106 4.69667 2.3348 0
M  V30 2278 H 204.58 3.93843 3.86771 0
M  V30 2279 H 205.057 2.24473 3.77503 0
M  V30 2280 H 205.663 3.39515 2.56144 0
M  V30 2281 N 203.978 -0.674533 1.42435 0
M  V30 2282 C 205.218 -1.4466 1.44405 0
M  V30 2283 C 205.582 -1.91911 0.0585784 0
M  V30 2284 O 206.783 -2.68759 -0.0469991 0
M  V30 2285 C 205.054 -2.61136 2.44013 0
M  V30 2286 S 206.613 -3.49981 2.64687 0
M  V30 2287 H 203.431 -0.494074 0.511284 0
M  V30 2288 H 206.033 -0.785162 1.7904 0
M  V30 2289 H 204.737 -2.24662 3.43446 0
M  V30 2290 H 204.268 -3.32153 2.10803 0
M  V30 2291 H 206.283 -4.57124 1.93007 0
M  V30 2292 N 205.456 -1.28612 -0.910864 0
M  V30 2293 C 206.705 -1.15311 -1.65488 0
M  V30 2294 C 207.018 0.296999 -1.93332 0
M  V30 2295 O 208.224 0.551168 -2.65847 0
M  V30 2296 C 206.68 -2.01599 -2.98137 0
M  V30 2297 C 206.288 -3.51367 -2.7793 0
M  V30 2298 C 208.032 -1.96993 -3.76024 0
M  V30 2299 C 205.939 -4.29797 -4.06237 0
M  V30 2300 H 204.869 -0.42796 -0.620779 0
M  V30 2301 H 207.52 -1.53166 -1.01057 0
M  V30 2302 H 205.902 -1.56603 -3.63719 0
M  V30 2303 H 207.076 -4.0434 -2.21011 0
M  V30 2304 H 205.391 -3.57529 -2.13452 0
M  V30 2305 H 207.988 -2.52856 -4.71135 0
M  V30 2306 H 208.331 -0.94733 -4.05378 0
M  V30 2307 H 208.864 -2.39973 -3.17266 0
M  V30 2308 H 205.603 -5.32648 -3.82055 0
M  V30 2309 H 205.123 -3.81596 -4.62757 0
M  V30 2310 H 206.802 -4.39869 -4.74473 0
M  V30 2311 N 206.934 1.1197 -1.10907 0
M  V30 2312 C 208.18 1.8386 -0.855773 0
M  V30 2313 C 208.513 1.84134 0.617103 0
M  V30 2314 O 207.788 1.29041 1.45529 0
M  V30 2315 C 208.071 3.31305 -1.411 0
M  V30 2316 C 207.924 3.39456 -2.9511 0
M  V30 2317 C 209.243 4.2721 -1.05736 0
M  V30 2318 H 206.362 0.667545 -0.312334 0
M  V30 2319 H 209.004 1.31331 -1.37303 0
M  V30 2320 H 207.154 3.76169 -0.97105 0
M  V30 2321 H 208.826 3.03191 -3.47668 0
M  V30 2322 H 207.069 2.79849 -3.31462 0
M  V30 2323 H 207.74 4.43209 -3.29044 0
M  V30 2324 H 210.216 3.90497 -1.43706 0
M  V30 2325 H 209.092 5.28775 -1.47269 0
M  V30 2326 H 209.353 4.42088 0.0325958 0
M  V30 2327 N 208.412 0.89855 1.29475 0
M  V30 2328 C 209.828 0.594483 1.48115 0
M  V30 2329 C 210.028 -0.86431 1.82022 0
M  V30 2330 O 209.084 -1.64457 1.91599 0
M  V30 2331 C 210.397 1.51932 2.59494 0
M  V30 2332 C 211.945 1.5244 2.7337 0
M  V30 2333 C 212.42 2.43548 3.87877 0
M  V30 2334 N 213.911 2.41589 3.95208 0
M  V30 2335 C 214.646 3.08789 4.83153 0
M  V30 2336 N 214.142 3.85265 5.75798 0
M  V30 2337 N 215.935 2.97952 4.76635 0
M  V30 2338 H 208.086 1.84207 1.05742 0
M  V30 2339 H 210.349 0.789251 0.525154 0
M  V30 2340 H 210.055 2.55865 2.41301 0
M  V30 2341 H 209.929 1.23899 3.56271 0
M  V30 2342 H 212.316 0.492518 2.90961 0
M  V30 2343 H 212.397 1.8451 1.77172 0
M  V30 2344 H 212.041 3.46829 3.71041 0
M  V30 2345 H 211.971 2.08788 4.83441 0
M  V30 2346 H 214.462 1.86025 3.28943 0
M  V30 2347 H 214.775 4.33598 6.39697 0
M  V30 2348 H 213.12 3.89371 5.75687 0
M  V30 2349 H 216.311 2.37723 4.03244 0
M  V30 2350 H 216.484 3.50599 5.44962 0
M  V30 2351 N 209.89 -1.43072 0.660911 0
M  V30 2352 C 211.118 -2.06067 0.185422 0
M  V30 2353 C 211.533 -1.49582 -1.15198 0
M  V30 2354 O 210.89 -0.630134 -1.71276 0
M  V30 2355 C 210.941 -3.61371 0.0966523 0
M  V30 2356 O 210.662 -4.15758 1.38119 0
M  V30 2357 C 212.163 -4.41455 -0.403996 0
M  V30 2358 H 209.383 -0.664459 0.0934604 0
M  V30 2359 H 211.927 -1.83447 0.90373 0
M  V30 2360 H 210.082 -3.8315 -0.572259 0
M  V30 2361 H 210.496 -5.09499 1.24542 0
M  V30 2362 H 211.97 -5.50437 -0.415045 0
M  V30 2363 H 212.447 -4.15036 -1.43674 0
M  V30 2364 H 213.053 -4.24663 0.232691 0
M  V30 2365 N 211.368 -0.403325 -1.52352 0
M  V30 2366 C 212.645 0.232611 -1.94212 0
M  V30 2367 C 213.025 1.63133 -1.33981 0
M  V30 2368 O 212.373 2.22659 -0.513344 0
M  V30 2369 C 212.583 0.244811 -3.4814 0
M  V30 2370 C 213.931 0.46698 -4.22024 0
M  V30 2371 O 214.955 0.324419 -3.5472 0
M  V30 2372 O 213.814 0.74747 -5.41364 0
M  V30 2373 H 210.908 0.148223 -0.813609 0
M  V30 2374 H 213.454 -0.458848 -1.63379 0
M  V30 2375 H 212.226 -0.734378 -3.84347 0
M  V30 2376 H 211.849 0.980611 -3.85318 0
M  V30 2377 N 212.846 1.57033 -0.133567 0
M  V30 2378 C 214.071 2.00475 0.531477 0
M  V30 2379 C 214.496 1.01291 1.58499 0
M  V30 2380 O 213.854 -0.0133279 1.81295 0
M  V30 2381 C 213.902 3.42729 1.12113 0
M  V30 2382 O 213.006 3.46498 2.23636 0
M  V30 2383 H 212.347 0.650876 0.131362 0
M  V30 2384 H 214.877 2.03344 -0.22634 0
M  V30 2385 H 214.887 3.81246 1.4531 0
M  V30 2386 H 213.562 4.14428 0.349557 0
M  V30 2387 H 212.139 3.19811 1.91769 0
M  V30 2388 N 214.325 -0.140222 1.56975 0
M  V30 2389 C 215.571 -0.852949 1.83991 0
M  V30 2390 C 215.904 -1.80512 0.716187 0
M  V30 2391 O 215.179 -1.92479 -0.279681 0
M  V30 2392 C 215.462 -1.6215 3.21527 0
M  V30 2393 C 215.315 -0.690363 4.4447 0
M  V30 2394 C 216.634 -2.58247 3.56366 0
M  V30 2395 H 213.753 -0.308634 0.669264 0
M  V30 2396 H 216.395 -0.117898 1.89634 0
M  V30 2397 H 214.545 -2.24812 3.16847 0
M  V30 2398 H 216.217 -0.0742264 4.6124 0
M  V30 2399 H 214.46 -0.000396433 4.338 0
M  V30 2400 H 215.131 -1.2643 5.37326 0
M  V30 2401 H 217.607 -2.05701 3.61699 0
M  V30 2402 H 216.483 -3.09067 4.53617 0
M  V30 2403 H 216.744 -3.39923 2.82674 0
M  V30 2404 N 215.803 -1.52179 -0.40978 0
M  V30 2405 C 216.75 -1.75475 -1.49924 0
M  V30 2406 C 217.72 -0.597175 -1.54994 0
M  V30 2407 O 218.905 -0.834655 -1.71575 0
M  V30 2408 C 216.045 -1.9107 -2.87378 0
M  V30 2409 C 215.158 -3.18717 -2.91622 0
M  V30 2410 C 214.293 -3.24747 -4.20372 0
M  V30 2411 C 213.332 -4.46598 -4.18588 0
M  V30 2412 N 212.469 -4.50025 -5.38908 0
M  V30 2413 H 217.309 -2.68458 -1.29361 0
M  V30 2414 H 214.846 -1.33024 -0.627934 0
M  V30 2415 H 216.804 -1.98096 -3.6717 0
M  V30 2416 H 215.434 -1.01469 -3.06437 0
M  V30 2417 H 214.486 -3.20866 -2.04326 0
M  V30 2418 H 215.798 -4.08544 -2.86169 0
M  V30 2419 H 214.952 -3.30841 -5.08556 0
M  V30 2420 H 213.691 -2.32857 -4.28519 0
M  V30 2421 H 212.696 -4.40652 -3.28794 0
M  V30 2422 H 213.921 -5.39783 -4.12081 0
M  V30 2423 H 211.867 -3.61017 -5.47725 0
M  V30 2424 H 211.784 -5.33697 -5.35447 0
M  V30 2425 H 213.052 -4.60347 -6.29048 0
M  V30 2426 N 217.281 0.66697 -1.42791 0
M  V30 2427 C 218.509 1.45505 -1.47091 0
M  V30 2428 C 218.924 1.8861 -0.0845873 0
M  V30 2429 O 218.281 1.58632 0.90234 0
M  V30 2430 C 218.332 2.69906 -2.40485 0
M  V30 2431 O 218.053 2.28608 -3.73725 0
M  V30 2432 C 219.554 3.63396 -2.53886 0
M  V30 2433 H 216.774 0.447459 -0.500022 0
M  V30 2434 H 219.318 0.818866 -1.8739 0
M  V30 2435 H 217.473 3.29696 -2.03419 0
M  V30 2436 H 217.887 3.08997 -4.23817 0
M  V30 2437 H 219.361 4.47387 -3.2334 0
M  V30 2438 H 219.838 4.09824 -1.57927 0
M  V30 2439 H 220.444 3.09495 -2.91706 0
M  V30 2440 N 218.759 1.29093 0.90403 0
M  V30 2441 C 220.17 1.15186 1.46932 0
M  V30 2442 C 220.521 -0.254587 1.94541 0
M  V30 2443 O 219.646 -1.14972 1.83332 0
M  V30 2444 C 220.241 2.08492 2.67051 0
M  V30 2445 C 218.8 1.98621 3.19729 0
M  V30 2446 C 217.947 1.9967 1.92425 0
M  V30 2447 H 220.898 1.41641 0.715789 0
M  V30 2448 H 220.919 1.65461 3.42641 0
M  V30 2449 H 220.431 3.10847 2.3237 0
M  V30 2450 H 218.532 0.993389 3.59114 0
M  V30 2451 H 218.645 2.86068 3.8432 0
M  V30 2452 H 217.009 1.44208 2.09943 0
M  V30 2453 H 217.792 3.03721 1.60026 0
M  V30 2454 N 220.237 -1.11381 1.11499 0
M  V30 2455 C 221.147 -2.21019 0.786628 0
M  V30 2456 C 222.163 -1.72597 -0.220507 0
M  V30 2457 O 223.339 -2.01321 -0.0565251 0
M  V30 2458 C 220.404 -3.459 0.235333 0
M  V30 2459 C 219.465 -4.09107 1.30115 0
M  V30 2460 C 218.698 -5.28027 0.776068 0
M  V30 2461 O 218.921 -5.6904 -0.393661 0
M  V30 2462 O 217.855 -5.81835 1.54114 0
M  V30 2463 H 221.681 -2.51521 1.70209 0
M  V30 2464 H 219.266 -1.19928 0.890928 0
M  V30 2465 H 221.148 -4.21346 -0.067715 0
M  V30 2466 H 219.823 -3.17049 -0.652828 0
M  V30 2467 H 218.73 -3.35391 1.65722 0
M  V30 2468 H 220.063 -4.42139 2.16273 0
M  V30 2469 N 221.715 -0.905404 -1.28997 0
M  V30 2470 C 222.94 -0.549175 -1.99997 0
M  V30 2471 C 223.365 0.860276 -1.67275 0
M  V30 2472 O 222.723 1.57355 -0.900502 0
M  V30 2473 C 222.771 -0.755185 -3.52604 0
M  V30 2474 O 221.875 0.189692 -4.11964 0
M  V30 2475 H 221.216 -0.213899 -0.628604 0
M  V30 2476 H 223.746 -1.21856 -1.64354 0
M  V30 2477 H 223.756 -0.662045 -4.02593 0
M  V30 2478 H 222.431 -1.78271 -3.75755 0
M  V30 2479 H 221.008 0.0485257 -3.72868 0
M  V30 2480 N 223.193 1.4272 -0.668489 0
M  V30 2481 C 224.103 2.34596 0.0139753 0
M  V30 2482 C 225.119 1.5474 0.795703 0
M  V30 2483 O 226.295 1.87334 0.739466 0
M  V30 2484 C 223.36 3.33202 0.957982 0
M  V30 2485 C 222.421 4.28957 0.17149 0
M  V30 2486 C 221.654 5.22853 1.07053 0
M  V30 2487 O 221.877 5.21531 2.31001 0
M  V30 2488 O 220.811 5.9952 0.534727 0
M  V30 2489 H 224.637 2.9448 -0.742661 0
M  V30 2490 H 222.222 1.43117 -0.428705 0
M  V30 2491 H 224.104 3.93796 1.50008 0
M  V30 2492 H 222.779 2.758 1.69458 0
M  V30 2493 H 221.686 3.71796 -0.414558 0
M  V30 2494 H 223.019 4.89383 -0.52586 0
M  V30 2495 N 224.671 0.411399 1.52136 0
M  V30 2496 C 225.919 -0.163322 2.01439 0
M  V30 2497 C 226.24 -1.45453 1.29879 0
M  V30 2498 O 225.51 -1.91225 0.4254 0
M  V30 2499 H 224.09 -0.0633447 0.744309 0
M  V30 2500 H 226.752 0.548161 1.87033 0
M  V30 2501 H 225.848 -0.357817 3.10042 0
M  V30 2502 N 226.149 -1.5696 0.141893 0
M  V30 2503 C 227.097 -2.17784 -0.816874 0
M  V30 2504 C 228.091 -1.1334 -1.25899 0
M  V30 2505 O 229.297 -1.316 -1.22806 0
M  V30 2506 H 225.672 -0.697278 -0.281615 0
M  V30 2507 H 227.643 -2.97087 -0.279621 0
M  V30 2508 C 226.392 -2.80983 -2.04802 0
M  V30 2509 H 225.715 -3.61062 -1.7168 0
M  V30 2510 H 227.155 -3.2705 -2.69841 0
M  V30 2511 C 225.614 -1.79228 -2.8527 0
M  V30 2512 O 226.144 -1.25962 -3.8144 0
M  V30 2513 N 224.35 -1.48647 -2.49704 0
M  V30 2514 H 223.897 -1.92155 -1.71564 0
M  V30 2515 H 223.855 -0.808115 -3.03837 0
M  V30 2516 N 227.627 0.131896 -1.57047 0
M  V30 2517 C 229.038 0.690407 -1.73465 0
M  V30 2518 C 229.389 1.8094 -0.758629 0
M  V30 2519 O 228.514 2.16282 0.0713813 0
M  V30 2520 C 229.109 1.25916 -3.14532 0
M  V30 2521 C 227.668 1.76409 -3.32501 0
M  V30 2522 C 226.815 0.658579 -2.69366 0
M  V30 2523 H 229.766 -0.0939144 -1.58422 0
M  V30 2524 H 229.787 2.12892 -3.15369 0
M  V30 2525 H 229.299 0.444515 -3.85546 0
M  V30 2526 H 227.4 2.60391 -2.66509 0
M  V30 2527 H 227.513 1.88241 -4.4057 0
M  V30 2528 H 225.877 1.08899 -2.30246 0
M  V30 2529 H 226.66 -0.14487 -3.42994 0
M  V30 2530 N 229.106 1.52395 0.401703 0
M  V30 2531 C 230.036 1.79231 1.49661 0
M  V30 2532 C 231.017 0.643654 1.57452 0
M  V30 2533 O 232.202 0.889989 1.72606 0
M  V30 2534 C 229.332 1.94971 2.87409 0
M  V30 2535 C 228.286 3.10604 2.94465 0
M  V30 2536 C 227.612 3.11577 4.34538 0
M  V30 2537 C 228.912 4.49921 2.6527 0
M  V30 2538 H 230.606 2.70917 1.27454 0
M  V30 2539 H 228.152 1.30362 0.6117 0
M  V30 2540 H 230.105 2.12328 3.63999 0
M  V30 2541 H 228.829 0.999632 3.10926 0
M  V30 2542 H 227.488 2.93009 2.20321 0
M  V30 2543 H 227.136 2.14277 4.55076 0
M  V30 2544 H 226.836 3.89247 4.40183 0
M  V30 2545 H 228.36 3.31073 5.13053 0
M  V30 2546 H 229.774 4.67683 3.31581 0
M  V30 2547 H 228.171 5.29564 2.82281 0
M  V30 2548 H 229.241 4.57507 1.60671 0
M  V30 2549 N 230.584 -0.659388 1.43143 0
M  V30 2550 C 231.514 -1.78422 1.50625 0
M  V30 2551 C 232.495 -1.66216 0.361443 0
M  V30 2552 O 233.68 -1.85404 0.577834 0
M  V30 2553 C 230.81 -3.16815 1.42287 0
M  V30 2554 C 229.764 -3.43777 2.54954 0
M  V30 2555 C 229.09 -4.81905 2.31671 0
M  V30 2556 C 230.39 -3.39134 3.97222 0
M  V30 2557 H 232.084 -1.72417 2.44771 0
M  V30 2558 H 229.63 -0.828084 1.17808 0
M  V30 2559 H 231.583 -3.95253 1.46127 0
M  V30 2560 H 230.307 -3.23534 0.446435 0
M  V30 2561 H 228.966 -2.67707 2.50457 0
M  V30 2562 H 228.614 -4.85294 1.32284 0
M  V30 2563 H 228.314 -5.00906 3.07192 0
M  V30 2564 H 229.838 -5.62609 2.37284 0
M  V30 2565 H 231.252 -4.07518 4.03239 0
M  V30 2566 H 229.649 -3.69671 4.72719 0
M  V30 2567 H 230.719 -2.37426 4.22797 0
M  V30 2568 N 232.062 -1.29571 -0.897171 0
M  V30 2569 C 232.972 -1.16808 -2.03453 0
M  V30 2570 C 233.988 -0.0907471 -1.73763 0
M  V30 2571 O 235.164 -0.303312 -1.99103 0
M  V30 2572 C 232.229 -0.848264 -3.36163 0
M  V30 2573 C 231.29 -2.0097 -3.79354 0
M  V30 2574 C 230.523 -1.70505 -5.05731 0
M  V30 2575 O 230.746 -0.62718 -5.66941 0
M  V30 2576 O 229.68 -2.5538 -5.45036 0
M  V30 2577 H 233.506 -2.12325 -2.17144 0
M  V30 2578 H 231.091 -1.09047 -1.02123 0
M  V30 2579 H 232.973 -0.684581 -4.15802 0
M  V30 2580 H 231.648 0.0771071 -3.23608 0
M  V30 2581 H 230.555 -2.22863 -3.00471 0
M  V30 2582 H 231.888 -2.91636 -3.96496 0
M  V30 2583 N 233.54 1.10788 -1.12088 0
M  V30 2584 C 234.472 2.16816 -0.743213 0
M  V30 2585 C 235.485 1.6119 0.228412 0
M  V30 2586 O 236.674 1.78497 0.0102931 0
M  V30 2587 C 233.774 3.38809 -0.0787313 0
M  V30 2588 C 232.947 4.23885 -1.0789 0
M  V30 2589 C 232.006 5.24334 -0.442713 0
M  V30 2590 O 231.032 5.58497 -1.09864 0
M  V30 2591 N 232.234 5.75079 0.791457 0
M  V30 2592 H 234.999 2.49825 -1.65552 0
M  V30 2593 H 232.56 1.26373 -1.012 0
M  V30 2594 H 234.552 4.03107 0.358766 0
M  V30 2595 H 233.122 3.03805 0.736275 0
M  V30 2596 H 232.342 3.55939 -1.69414 0
M  V30 2597 H 233.63 4.77562 -1.75533 0
M  V30 2598 H 233.028 5.49517 1.3434 0
M  V30 2599 H 231.585 6.4118 1.17183 0
M  V30 2600 N 235.018 0.912232 1.28515 0
M  V30 2601 C 235.948 0.416403 2.29757 0
M  V30 2602 C 236.929 -0.515194 1.6211 0
M  V30 2603 O 238.114 -0.423253 1.89532 0
M  V30 2604 C 235.244 -0.34572 3.45575 0
M  V30 2605 C 234.198 0.496599 4.25109 0
M  V30 2606 C 233.524 -0.393771 5.33248 0
M  V30 2607 C 234.824 1.75307 4.92001 0
M  V30 2608 H 236.518 1.26249 2.7148 0
M  V30 2609 H 234.064 0.608515 1.30511 0
M  V30 2610 H 236.017 -0.703422 4.15488 0
M  V30 2611 H 234.741 -1.2257 3.02728 0
M  V30 2612 H 233.4 0.8368 3.56922 0
M  V30 2613 H 233.048 -1.27225 4.86644 0
M  V30 2614 H 232.748 0.166209 5.87365 0
M  V30 2615 H 234.272 -0.747389 6.06009 0
M  V30 2616 H 235.686 1.46437 5.54283 0
M  V30 2617 H 234.083 2.25534 5.56106 0
M  V30 2618 H 235.153 2.48176 4.16577 0
M  V30 2619 N 236.496 -1.42363 0.676048 0
M  V30 2620 C 237.406 -2.346 -0.00153389 0
M  V30 2621 C 238.422 -1.5516 -0.787485 0
M  V30 2622 O 239.598 -1.87723 -0.729521 0
M  V30 2623 C 236.663 -3.33705 -0.940298 0
M  V30 2624 C 235.724 -4.29042 -0.148739 0
M  V30 2625 C 234.957 -5.23413 -1.04279 0
M  V30 2626 O 235.18 -5.22749 -2.28232 0
M  V30 2627 O 234.114 -5.99795 -0.502925 0
M  V30 2628 H 237.94 -2.94082 0.758268 0
M  V30 2629 H 235.525 -1.42888 0.436289 0
M  V30 2630 H 237.407 -3.94586 -1.47917 0
M  V30 2631 H 236.082 -2.76695 -1.67993 0
M  V30 2632 H 234.989 -3.71571 0.43427 0
M  V30 2633 H 236.322 -4.89097 0.551805 0
M  V30 2634 N 237.974 -0.419461 -1.51915 0
M  V30 2635 C 238.921 0.400927 -2.27291 0
M  V30 2636 C 239.891 1.03224 -1.30131 0
M  V30 2637 O 241.076 1.05455 -1.59009 0
M  V30 2638 C 238.216 1.50603 -3.10504 0
M  V30 2639 C 237.329 0.89462 -4.22635 0
M  V30 2640 C 236.464 1.97328 -4.93189 0
M  V30 2641 C 235.503 1.33935 -5.97267 0
M  V30 2642 N 234.64 2.3586 -6.61298 0
M  V30 2643 H 239.48 -0.248251 -2.96964 0
M  V30 2644 H 237.017 -0.134266 -1.46486 0
M  V30 2645 H 238.975 2.15783 -3.57062 0
M  V30 2646 H 237.605 2.12509 -2.42981 0
M  V30 2647 H 236.657 0.131583 -3.80172 0
M  V30 2648 H 237.969 0.391641 -4.9726 0
M  V30 2649 H 237.123 2.70211 -5.43204 0
M  V30 2650 H 235.862 2.50994 -4.18155 0
M  V30 2651 H 234.867 0.595896 -5.46561 0
M  V30 2652 H 236.092 0.810252 -6.74249 0
M  V30 2653 H 234.038 2.88639 -5.89087 0
M  V30 2654 H 233.955 1.90403 -7.3163 0
M  V30 2655 H 235.223 3.08282 -7.15949 0
M  V30 2656 N 239.452 1.56882 -0.150215 0
M  V30 2657 C 240.399 2.16922 0.788244 0
M  V30 2658 C 241.369 1.10303 1.24187 0
M  V30 2659 O 242.554 1.38359 1.31383 0
M  V30 2660 C 239.694 2.79754 2.02068 0
M  V30 2661 C 238.807 4.00775 1.61257 0
M  V30 2662 C 237.942 4.51595 2.79705 0
M  V30 2663 C 236.981 5.65074 2.35282 0
M  V30 2664 N 236.118 6.10499 3.4675 0
M  V30 2665 H 240.958 2.96779 0.269444 0
M  V30 2666 H 238.495 1.46599 0.12128 0
M  V30 2667 H 240.453 3.14329 2.74323 0
M  V30 2668 H 239.083 2.02536 2.51354 0
M  V30 2669 H 238.135 3.72158 0.787553 0
M  V30 2670 H 239.447 4.82978 1.24633 0
M  V30 2671 H 238.601 4.88242 3.60145 0
M  V30 2672 H 237.34 3.68406 3.19576 0
M  V30 2673 H 236.345 5.28 1.53283 0
M  V30 2674 H 237.57 6.50052 1.96493 0
M  V30 2675 H 235.516 5.30243 3.86236 0
M  V30 2676 H 235.433 6.87637 3.14152 0
M  V30 2677 H 236.701 6.51791 4.27537 0
M  V30 2678 O 240.969 0.011717 1.61496 0
M  V30 2679 H 241.66 -0.603327 1.84064 0
M  V30 END ATOM
M  V30 BEGIN BOND
M  V30 END BOND
M  V30 END CTAB
M  END
$$$$
