drugbank_target|Q8X444 Uracil-DNA glycosylase (DB03419)
 OpenBabel12092120023D

  0  0  0     0  0            999 V3000
M  V30 BEGIN CTAB
M  V30 COUNTS 9007 9652 0 0 0
M  V30 BEGIN ATOM
M  V30 1 H -1.547 9.37743 -1.21644 0
M  V30 2 O -1.44 8.89599 -0.40059 0
M  V30 3 P 0 8.91 0 0
M  V30 4 O 0.22 10.1746 0.733838 0
M  V30 5 O 0.79 8.73346 -1.23964 0
M  V30 6 O 0.25 7.66872 0.971405 0
M  V30 7 C -0.69 7.42405 2.04668 0
M  V30 8 C 0.04 6.86059 3.24661 0
M  V30 9 O 0.25 5.42934 3.03695 0
M  V30 10 C 1.44 7.41287 3.50796 0
M  V30 11 O 1.83 7.27073 4.86816 0
M  V30 12 C 2.32 6.5273 2.63741 0
M  V30 13 C 1.61 5.1842 2.73198 0
M  V30 14 N 1.66 4.38762 1.4784 0
M  V30 15 H -1.178 8.36899 2.3252 0
M  V30 16 H -1.45 6.70391 1.71179 0
M  V30 17 H -0.582 7.03638 4.13219 0
M  V30 18 H 2.073 4.59931 3.54016 0
M  V30 19 H 2.353 6.88995 1.59871 0
M  V30 20 H 3.344 6.4684 3.0373 0
M  V30 21 H 1.51 8.47002 3.20749 0
M  V30 22 P 3.37998 7.20834 5.23717 0
M  V30 23 O 3.59998 7.80006 6.57415 0
M  V30 24 O 4.16998 7.79416 4.13051 0
M  V30 25 O 3.62998 5.63315 5.29344 0
M  V30 26 C 2.68998 4.80318 6.01954 0
M  V30 27 C 3.41998 3.64202 6.65911 0
M  V30 28 O 3.62998 2.60736 5.64823 0
M  V30 29 C 4.81998 3.93521 7.19518 0
M  V30 30 O 5.20998 3.02071 8.21205 0
M  V30 31 C 5.69998 3.73047 5.97036 0
M  V30 32 C 4.98998 2.58828 5.25741 0
M  V30 33 N 5.03998 2.68068 3.77503 0
M  V30 34 C 4.95998 3.80474 2.99159 0
M  V30 35 N 5.02998 3.55622 1.71925 0
M  V30 36 C 5.17998 2.1832 1.65733 0
M  V30 37 C 5.30998 1.28842 0.572777 0
M  V30 38 N 5.31998 1.66875 -0.70098 0
M  V30 39 N 5.42998 -0.016788 0.859836 0
M  V30 40 C 5.41998 -0.398145 2.13316 0
M  V30 41 N 5.29998 0.328224 3.22333 0
M  V30 42 C 5.17998 1.62992 2.90383 0
M  V30 43 H 2.20198 5.40394 6.8003 0
M  V30 44 H 1.92998 4.41741 5.32532 0
M  V30 45 H 2.79798 3.26371 7.47889 0
M  V30 46 H 5.45298 1.64007 5.56746 0
M  V30 47 H 5.73298 4.63439 5.3432 0
M  V30 48 H 6.72398 3.44776 6.25925 0
M  V30 49 H 4.88998 4.96707 7.57347 0
M  V30 50 H 4.84898 4.8089 3.39924 0
M  V30 51 H 5.22998 2.66547 -0.941919 0
M  V30 52 H 5.41898 0.965341 -1.44766 0
M  V30 53 H 5.52698 -1.46427 2.29697 0
M  V30 54 P 6.75996 2.75334 8.47391 0
M  V30 55 O 6.97996 2.44571 9.90142 0
M  V30 56 O 7.54996 3.87688 7.92115 0
M  V30 57 O 7.00996 1.4459 7.59357 0
M  V30 58 C 6.06996 0.347608 7.69215 0
M  V30 59 C 6.79996 -0.96767 7.52806 0
M  V30 60 O 7.00996 -1.21036 6.1011 0
M  V30 61 C 8.19996 -1.04544 8.13308 0
M  V30 62 O 8.58996 -2.38311 8.41922 0
M  V30 63 C 9.07996 -0.491279 7.02284 0
M  V30 64 C 8.36996 -0.996264 5.77469 0
M  V30 65 N 8.41996 -0.0501916 4.62973 0
M  V30 66 H 5.58096 0.374722 8.67691 0
M  V30 67 H 5.31096 0.443485 6.90277 0
M  V30 68 H 6.17796 -1.75537 7.96793 0
M  V30 69 P 10.1399 -2.75334 8.47391 0
M  V30 70 O 10.3599 -3.84128 9.44797 0
M  V30 71 O 10.9299 -1.51947 8.68712 0
M  V30 72 O 10.3899 -3.29363 6.99321 0
M  V30 73 C 9.44994 -4.24011 6.4274 0
M  V30 74 C 10.1799 -5.20775 5.52155 0
M  V30 75 O 10.3899 -4.56534 4.22446 0
M  V30 76 C 11.5799 -5.62629 5.96531 0
M  V30 77 O 11.9699 -6.87667 5.41053 0
M  V30 78 C 12.4599 -4.52537 5.39283 0
M  V30 79 C 11.7499 -4.20027 4.08623 0
M  V30 80 N 11.7999 -2.76189 3.71603 0
M  V30 81 H 8.96094 -4.797 7.24003 0
M  V30 82 H 8.69094 -3.69856 5.84513 0
M  V30 83 H 9.55794 -6.10356 5.41441 0
M  V30 84 P 13.5199 -7.20834 5.23717 0
M  V30 85 O 13.7399 -8.66104 5.38572 0
M  V30 86 O 14.3099 -6.33544 6.1349 0
M  V30 87 O 13.7699 -6.7751 3.72168 0
M  V30 88 C 12.8299 -7.20825 2.7076 0
M  V30 89 C 13.5599 -7.45864 1.40599 0
M  V30 90 O 13.7699 -6.17651 0.734225 0
M  V30 91 C 14.9599 -8.05808 1.51899 0
M  V30 92 O 15.3499 -8.74358 0.335205 0
M  V30 93 C 15.8399 -6.83093 1.70294 0
M  V30 94 C 15.1299 -5.79992 0.836974 0
M  V30 95 N 15.1799 -4.41864 1.38293 0
M  V30 96 H 12.3409 -8.13644 3.0377 0
M  V30 97 H 12.0709 -6.42788 2.55485 0
M  V30 98 H 12.9379 -8.12039 0.792769 0
M  V30 99 P 16.8999 -8.91 1.09116e-15 0
M  V30 100 O 17.1199 -10.1736 -0.733766 0
M  V30 101 O 17.6899 -8.73247 1.2395 0
M  V30 102 O 17.1499 -7.66872 -0.971405 0
M  V30 103 C 16.2099 -7.42212 -2.04614 0
M  V30 104 C 16.9399 -6.86059 -3.24661 0
M  V30 105 O 17.1499 -5.42847 -3.03646 0
M  V30 106 C 18.3399 -7.41196 -3.50753 0
M  V30 107 O 18.7299 -7.27073 -4.86816 0
M  V30 108 C 19.2199 -6.5273 -2.63741 0
M  V30 109 C 18.5099 -5.1842 -2.73198 0
M  V30 110 N 18.5599 -4.38668 -1.47808 0
M  V30 111 C 18.7099 -3.02239 -1.60048 0
M  V30 112 O 18.7999 -2.46459 -2.67869 0
M  V30 113 N 18.7499 -2.32436 -0.408571 0
M  V30 114 C 18.6599 -2.85471 0.854993 0
M  V30 115 O 18.7099 -2.12566 1.8531 0
M  V30 116 C 18.5099 -4.28918 0.887335 0
M  V30 117 C 18.3999 -4.91066 2.24619 0
M  V30 118 C 18.4599 -5.00349 -0.255399 0
M  V30 119 H 15.7199 -8.36803 -2.32493 0
M  V30 120 H 15.4509 -6.701 -1.71105 0
M  V30 121 H 16.3179 -7.03551 -4.13168 0
M  V30 122 H 18.9729 -4.59773 -3.53894 0
M  V30 123 H 19.2519 -6.88995 -1.59871 0
M  V30 124 H 20.2439 -6.46749 -3.03687 0
M  V30 125 H 18.4099 -8.46908 -3.20714 0
M  V30 126 H 18.3389 -6.08548 -0.206986 0
M  V30 127 H 19.3689 -5.34836 2.53099 0
M  V30 128 H 17.6319 -5.69638 2.2291 0
M  V30 129 H 18.1199 -4.13971 2.98044 0
M  V30 130 H 18.8559 -1.33211 -0.474216 0
M  V30 131 P 20.2799 -7.20834 -5.23717 0
M  V30 132 O 20.4999 -7.80006 -6.57415 0
M  V30 133 O 21.0699 -7.79416 -4.13051 0
M  V30 134 O 20.5299 -5.63315 -5.29344 0
M  V30 135 C 19.5899 -4.80318 -6.01954 0
M  V30 136 C 20.3199 -3.64202 -6.65911 0
M  V30 137 O 20.5299 -2.60736 -5.64823 0
M  V30 138 C 21.7199 -3.93521 -7.19518 0
M  V30 139 O 22.1099 -3.02071 -8.21205 0
M  V30 140 C 22.5999 -3.73047 -5.97036 0
M  V30 141 C 21.8899 -2.58828 -5.25741 0
M  V30 142 N 21.9399 -2.68068 -3.77503 0
M  V30 143 H 19.1019 -5.40394 -6.8003 0
M  V30 144 H 18.8299 -4.41741 -5.32532 0
M  V30 145 H 19.6979 -3.26371 -7.47889 0
M  V30 146 H 22.3529 -1.64007 -5.56746 0
M  V30 147 H 22.6329 -4.63439 -5.3432 0
M  V30 148 H 23.6239 -3.44776 -6.25925 0
M  V30 149 H 21.7899 -4.96707 -7.57347 0
M  V30 150 P 23.6599 -2.75334 -8.47391 0
M  V30 151 O 23.8799 -2.44619 -9.90336 0
M  V30 152 O 24.4499 -3.87776 -7.92294 0
M  V30 153 O 23.9099 -1.4459 -7.59357 0
M  V30 154 C 22.9699 -0.347653 -7.69315 0
M  V30 155 C 23.6999 0.96767 -7.52806 0
M  V30 156 O 23.9099 1.21055 -6.10208 0
M  V30 157 C 25.0999 1.04557 -8.13408 0
M  V30 158 O 25.4899 2.38311 -8.41922 0
M  V30 159 C 25.9799 0.491279 -7.02284 0
M  V30 160 C 25.2699 0.996264 -5.77469 0
M  V30 161 N 25.3199 0.0501916 -4.62973 0
M  V30 162 H 22.4819 -0.374765 -8.67791 0
M  V30 163 H 22.2099 -0.443613 -6.90476 0
M  V30 164 H 23.0779 1.75559 -7.96891 0
M  V30 165 H 25.7329 1.94563 -5.46818 0
M  V30 166 H 26.0129 -0.608651 -7.04676 0
M  V30 167 H 27.0039 0.889796 -7.09039 0
M  V30 168 H 25.1699 0.433128 -9.04664 0
M  V30 169 P 27.0398 2.75334 -8.47391 0
M  V30 170 O 27.2598 3.84128 -9.44797 0
M  V30 171 O 27.8298 1.51947 -8.68712 0
M  V30 172 O 27.2898 3.29363 -6.99321 0
M  V30 173 C 26.3498 4.24011 -6.4274 0
M  V30 174 C 27.0798 5.20775 -5.52155 0
M  V30 175 O 27.2898 4.56534 -4.22446 0
M  V30 176 C 28.4798 5.62629 -5.96531 0
M  V30 177 O 28.8698 6.87667 -5.41053 0
M  V30 178 C 29.3598 4.52537 -5.39283 0
M  V30 179 C 28.6498 4.20027 -4.08623 0
M  V30 180 N 28.6998 2.76189 -3.71603 0
M  V30 181 H 25.8608 4.797 -7.24003 0
M  V30 182 H 25.5908 3.69856 -5.84513 0
M  V30 183 H 26.4578 6.10356 -5.41441 0
M  V30 184 P 30.4198 7.20834 -5.23717 0
M  V30 185 O 30.6398 8.66104 -5.38572 0
M  V30 186 O 31.2098 6.33544 -6.1349 0
M  V30 187 O 30.6698 6.7751 -3.72168 0
M  V30 188 C 29.7298 7.20825 -2.7076 0
M  V30 189 C 30.4598 7.45864 -1.40599 0
M  V30 190 O 30.6698 6.17651 -0.734225 0
M  V30 191 C 31.8598 8.05808 -1.51899 0
M  V30 192 O 32.2498 8.74358 -0.335205 0
M  V30 193 C 32.7398 6.83093 -1.70294 0
M  V30 194 C 32.0298 5.79992 -0.836974 0
M  V30 195 N 32.0798 4.41864 -1.38293 0
M  V30 196 H 29.2408 8.13644 -3.0377 0
M  V30 197 H 28.9708 6.42788 -2.55485 0
M  V30 198 H 29.8378 8.12039 -0.792769 0
M  V30 199 P 33.7998 8.91 -2.18232e-15 0
M  V30 200 O 34.0198 10.1726 0.733694 0
M  V30 201 O 34.5898 8.73148 -1.23936 0
M  V30 202 O 34.0498 7.66872 0.971405 0
M  V30 203 C 33.1098 7.42309 2.04641 0
M  V30 204 C 33.8398 6.86059 3.24661 0
M  V30 205 O 34.0498 5.42847 3.03646 0
M  V30 206 C 35.2398 7.41196 3.50753 0
M  V30 207 O 35.6298 7.27073 4.86816 0
M  V30 208 C 36.1198 6.5273 2.63741 0
M  V30 209 C 35.4098 5.1842 2.73198 0
M  V30 210 N 35.4598 4.38762 1.4784 0
M  V30 211 H 32.6208 8.36803 2.32493 0
M  V30 212 H 32.3508 6.70197 1.71129 0
M  V30 213 H 33.2178 7.03551 4.13168 0
M  V30 214 P 37.1798 7.20834 5.23717 0
M  V30 215 O 37.3998 7.80006 6.57415 0
M  V30 216 O 37.9698 7.79416 4.13051 0
M  V30 217 O 37.4298 5.63315 5.29344 0
M  V30 218 C 36.4898 4.80318 6.01954 0
M  V30 219 C 37.2198 3.64202 6.65911 0
M  V30 220 O 37.4298 2.60736 5.64823 0
M  V30 221 C 38.6198 3.93521 7.19518 0
M  V30 222 O 39.0098 3.02071 8.21205 0
M  V30 223 C 39.4998 3.73047 5.97036 0
M  V30 224 C 38.7898 2.58828 5.25741 0
M  V30 225 N 38.8398 2.68068 3.77503 0
M  V30 226 C 38.7598 3.80474 2.99159 0
M  V30 227 N 38.8298 3.55622 1.71925 0
M  V30 228 C 38.9798 2.1832 1.65733 0
M  V30 229 C 39.1098 1.28842 0.572777 0
M  V30 230 N 39.1198 1.66875 -0.70098 0
M  V30 231 N 39.2298 -0.016788 0.859836 0
M  V30 232 C 39.2198 -0.398145 2.13316 0
M  V30 233 N 39.0998 0.328224 3.22333 0
M  V30 234 C 38.9798 1.62992 2.90383 0
M  V30 235 H 36.0018 5.40394 6.8003 0
M  V30 236 H 35.7298 4.41741 5.32532 0
M  V30 237 H 36.5978 3.26371 7.47889 0
M  V30 238 H 39.2528 1.64007 5.56746 0
M  V30 239 H 39.5328 4.63439 5.3432 0
M  V30 240 H 40.5238 3.44776 6.25925 0
M  V30 241 H 38.6898 4.96707 7.57347 0
M  V30 242 H 38.6488 4.8089 3.39924 0
M  V30 243 H 39.0298 2.66547 -0.941919 0
M  V30 244 H 39.2188 0.965341 -1.44766 0
M  V30 245 H 39.3268 -1.46427 2.29697 0
M  V30 246 P 40.5598 2.75334 8.47391 0
M  V30 247 O 40.7798 2.44571 9.90142 0
M  V30 248 O 41.3498 3.87688 7.92115 0
M  V30 249 O 40.8098 1.4459 7.59357 0
M  V30 250 C 39.8698 0.347608 7.69215 0
M  V30 251 C 40.5998 -0.96767 7.52806 0
M  V30 252 O 40.8098 -1.21036 6.1011 0
M  V30 253 C 41.9998 -1.04544 8.13308 0
M  V30 254 O 42.3898 -2.38311 8.41922 0
M  V30 255 C 42.8798 -0.491279 7.02284 0
M  V30 256 C 42.1698 -0.996264 5.77469 0
M  V30 257 N 42.2198 -0.0501916 4.62973 0
M  V30 258 H 39.3808 0.374722 8.67691 0
M  V30 259 H 39.1108 0.443485 6.90277 0
M  V30 260 H 39.9778 -1.75537 7.96793 0
M  V30 261 P 43.9397 -2.75334 8.47391 0
M  V30 262 O 44.1597 -3.84128 9.44797 0
M  V30 263 O 44.7297 -1.51947 8.68712 0
M  V30 264 O 44.1897 -3.29363 6.99321 0
M  V30 265 C 43.2497 -4.24011 6.4274 0
M  V30 266 C 43.9797 -5.20775 5.52155 0
M  V30 267 O 44.1897 -4.56534 4.22446 0
M  V30 268 C 45.3797 -5.62629 5.96531 0
M  V30 269 O 45.7697 -6.87667 5.41053 0
M  V30 270 C 46.2597 -4.52537 5.39283 0
M  V30 271 C 45.5497 -4.20027 4.08623 0
M  V30 272 N 45.5997 -2.76189 3.71603 0
M  V30 273 H 42.7607 -4.797 7.24003 0
M  V30 274 H 42.4907 -3.69856 5.84513 0
M  V30 275 H 43.3577 -6.10356 5.41441 0
M  V30 276 P 47.3197 -7.20834 5.23717 0
M  V30 277 O 47.5397 -8.66104 5.38572 0
M  V30 278 O 48.1097 -6.33544 6.1349 0
M  V30 279 O 47.5697 -6.7751 3.72168 0
M  V30 280 C 46.6297 -7.20825 2.7076 0
M  V30 281 C 47.3597 -7.45864 1.40599 0
M  V30 282 O 47.5697 -6.17651 0.734225 0
M  V30 283 C 48.7597 -8.05808 1.51899 0
M  V30 284 O 49.1497 -8.74358 0.335205 0
M  V30 285 C 49.6397 -6.83093 1.70294 0
M  V30 286 C 48.9297 -5.79992 0.836974 0
M  V30 287 N 48.9797 -4.41864 1.38293 0
M  V30 288 H 46.1407 -8.13644 3.0377 0
M  V30 289 H 45.8707 -6.42788 2.55485 0
M  V30 290 H 46.7377 -8.12039 0.792769 0
M  V30 291 P 50.6997 -8.91 3.27348e-15 0
M  V30 292 O 50.9197 -10.1726 -0.733694 0
M  V30 293 O 51.4897 -8.73148 1.23936 0
M  V30 294 O 50.9497 -7.66872 -0.971405 0
M  V30 295 C 50.0097 -7.42309 -2.04641 0
M  V30 296 C 50.7397 -6.86059 -3.24661 0
M  V30 297 O 50.9497 -5.42847 -3.03646 0
M  V30 298 C 52.1397 -7.41196 -3.50753 0
M  V30 299 O 52.5297 -7.27073 -4.86816 0
M  V30 300 C 53.0197 -6.5273 -2.63741 0
M  V30 301 C 52.3097 -5.1842 -2.73198 0
M  V30 302 N 52.3597 -4.38762 -1.4784 0
M  V30 303 H 49.5207 -8.36803 -2.32493 0
M  V30 304 H 49.2507 -6.70197 -1.71129 0
M  V30 305 H 50.1177 -7.03551 -4.13168 0
M  V30 306 P 54.0797 -7.20834 -5.23717 0
M  V30 307 O 54.2997 -7.79853 -6.57286 0
M  V30 308 O 54.8697 -7.79239 -4.12957 0
M  V30 309 O 54.3297 -5.63315 -5.29344 0
M  V30 310 C 53.3897 -4.80255 -6.01876 0
M  V30 311 C 54.1197 -3.64202 -6.65911 0
M  V30 312 O 54.3297 -2.60694 -5.64732 0
M  V30 313 C 55.5197 -3.93473 -7.1943 0
M  V30 314 O 55.9097 -3.02071 -8.21205 0
M  V30 315 C 56.3997 -3.73047 -5.97036 0
M  V30 316 C 55.6897 -2.58828 -5.25741 0
M  V30 317 N 55.7397 -2.68068 -3.77503 0
M  V30 318 H 52.9007 -5.40332 -6.79951 0
M  V30 319 H 52.6307 -4.41613 -5.32378 0
M  V30 320 H 53.4977 -3.26331 -7.47797 0
M  V30 321 P 57.4597 -2.75334 -8.47391 0
M  V30 322 O 57.6797 -2.44571 -9.90142 0
M  V30 323 O 58.2497 -3.87688 -7.92115 0
M  V30 324 O 57.7097 -1.4459 -7.59357 0
M  V30 325 C 56.7697 -0.347608 -7.69215 0
M  V30 326 C 57.4997 0.96767 -7.52806 0
M  V30 327 O 57.7097 1.21036 -6.1011 0
M  V30 328 C 58.8997 1.04544 -8.13308 0
M  V30 329 O 59.2897 2.38311 -8.41922 0
M  V30 330 C 59.7797 0.491279 -7.02284 0
M  V30 331 C 59.0697 0.996264 -5.77469 0
M  V30 332 N 59.1197 0.0501916 -4.62973 0
M  V30 333 H 56.2807 -0.374722 -8.67691 0
M  V30 334 H 56.0107 -0.443485 -6.90277 0
M  V30 335 H 56.8777 1.75537 -7.96793 0
M  V30 336 P 60.8396 2.75334 -8.47391 0
M  V30 337 O 61.0596 3.84166 -9.4489 0
M  V30 338 O 61.6296 1.51964 -8.6881 0
M  V30 339 O 61.0896 3.29363 -6.99321 0
M  V30 340 C 60.1496 4.23956 -6.42656 0
M  V30 341 C 60.8796 5.20775 -5.52155 0
M  V30 342 O 61.0896 4.56534 -4.22446 0
M  V30 343 C 62.2796 5.62629 -5.96531 0
M  V30 344 O 62.6696 6.87667 -5.41053 0
M  V30 345 C 63.1596 4.52537 -5.39283 0
M  V30 346 C 62.4496 4.20027 -4.08623 0
M  V30 347 N 62.4996 2.7613 -3.71522 0
M  V30 348 C 62.6496 2.45612 -2.37989 0
M  V30 349 O 62.7396 3.30919 -1.51621 0
M  V30 350 N 62.6896 1.10684 -2.08435 0
M  V30 351 C 62.5996 0.0690084 -2.9792 0
M  V30 352 C 62.4496 0.481522 -4.35345 0
M  V30 353 C 62.3996 1.78906 -4.67968 0
M  V30 354 H 59.6596 4.797 -7.24003 0
M  V30 355 H 59.3906 3.69802 -5.84429 0
M  V30 356 H 60.2576 6.10356 -5.41441 0
M  V30 357 H 62.9126 4.78651 -3.27911 0
M  V30 358 H 63.1916 3.64957 -6.05871 0
M  V30 359 H 64.1836 4.8868 -5.2125 0
M  V30 360 H 62.3496 5.66726 -7.06352 0
M  V30 361 H 62.2786 2.07737 -5.72367 0
M  V30 362 P 64.2196 7.20834 -5.23717 0
M  V30 363 O 64.4396 8.66104 -5.38572 0
M  V30 364 O 65.0096 6.33544 -6.1349 0
M  V30 365 O 64.4696 6.7751 -3.72168 0
M  V30 366 C 63.5296 7.20825 -2.7076 0
M  V30 367 C 64.2596 7.45864 -1.40599 0
M  V30 368 O 64.4696 6.17651 -0.734225 0
M  V30 369 C 65.6596 8.05808 -1.51899 0
M  V30 370 O 66.0496 8.74358 -0.335205 0
M  V30 371 C 66.5396 6.83093 -1.70294 0
M  V30 372 C 65.8296 5.79992 -0.836974 0
M  V30 373 N 65.8796 4.41864 -1.38293 0
M  V30 374 H 63.0406 8.13644 -3.0377 0
M  V30 375 H 62.7706 6.42788 -2.55485 0
M  V30 376 H 63.6376 8.12039 -0.792769 0
M  V30 377 P 67.5996 8.91 -4.36464e-15 0
M  V30 378 O 67.8196 10.1726 0.733694 0
M  V30 379 O 68.3896 8.73148 -1.23936 0
M  V30 380 O 67.8496 7.66872 0.971405 0
M  V30 381 C 66.9096 7.42309 2.04641 0
M  V30 382 C 67.6396 6.86059 3.24661 0
M  V30 383 O 67.8496 5.42847 3.03646 0
M  V30 384 C 69.0396 7.41196 3.50753 0
M  V30 385 O 69.4296 7.27073 4.86816 0
M  V30 386 C 69.9196 6.5273 2.63741 0
M  V30 387 C 69.2096 5.1842 2.73198 0
M  V30 388 N 69.2596 4.38762 1.4784 0
M  V30 389 H 66.4206 8.36803 2.32493 0
M  V30 390 H 66.1506 6.70197 1.71129 0
M  V30 391 H 67.0176 7.03551 4.13168 0
M  V30 392 P 70.9796 7.20834 5.23717 0
M  V30 393 O 71.1996 7.79853 6.57286 0
M  V30 394 O 71.7696 7.79239 4.12957 0
M  V30 395 O 71.2296 5.63315 5.29344 0
M  V30 396 C 70.2896 4.80255 6.01876 0
M  V30 397 C 71.0196 3.64202 6.65911 0
M  V30 398 O 71.2296 2.60694 5.64732 0
M  V30 399 C 72.4196 3.93473 7.1943 0
M  V30 400 O 72.8096 3.02071 8.21205 0
M  V30 401 C 73.2996 3.73047 5.97036 0
M  V30 402 C 72.5896 2.58828 5.25741 0
M  V30 403 N 72.6396 2.68068 3.77503 0
M  V30 404 H 69.8006 5.40332 6.79951 0
M  V30 405 H 69.5306 4.41613 5.32378 0
M  V30 406 H 70.3976 3.26331 7.47797 0
M  V30 407 P 74.3596 2.75334 8.47391 0
M  V30 408 O 74.5796 2.44595 9.90239 0
M  V30 409 O 75.1496 3.87732 7.92204 0
M  V30 410 O 74.6096 1.4459 7.59357 0
M  V30 411 C 73.6696 0.347563 7.69115 0
M  V30 412 C 74.3996 -0.96767 7.52806 0
M  V30 413 O 74.6096 -1.21036 6.1011 0
M  V30 414 C 75.7996 -1.04544 8.13308 0
M  V30 415 O 76.1896 -2.38311 8.41922 0
M  V30 416 C 76.6796 -0.491279 7.02284 0
M  V30 417 C 75.9696 -0.996264 5.77469 0
M  V30 418 N 76.0196 -0.0501808 4.62873 0
M  V30 419 C 76.1696 -0.588177 3.36904 0
M  V30 420 O 76.2596 -1.78598 3.17173 0
M  V30 421 N 76.2096 0.329694 2.33686 0
M  V30 422 C 76.1196 1.6953 2.45079 0
M  V30 423 O 76.1696 2.41926 1.44899 0
M  V30 424 C 75.9696 2.16933 3.80505 0
M  V30 425 C 75.8596 3.65373 3.97621 0
M  V30 426 C 75.9196 1.30326 4.83752 0
M  V30 427 H 73.1796 0.374722 8.67691 0
M  V30 428 H 72.9106 0.443421 6.90177 0
M  V30 429 H 73.7776 -1.75537 7.96793 0
M  V30 430 H 76.4326 -1.94496 5.46629 0
M  V30 431 H 76.7116 0.608651 7.04676 0
M  V30 432 H 77.7036 -0.889672 7.08939 0
M  V30 433 H 75.8696 -0.43308 9.04564 0
M  V30 434 H 75.7986 1.68366 5.8516 0
M  V30 435 H 76.8286 4.05985 4.30448 0
M  V30 436 H 75.0916 3.88028 4.72875 0
M  V30 437 H 75.5796 4.11381 3.01609 0
M  V30 438 H 76.3156 -0.0393617 1.41345 0
M  V30 439 P 77.7395 -2.75334 8.47391 0
M  V30 440 O 77.9595 -3.84128 9.44797 0
M  V30 441 O 78.5295 -1.51947 8.68712 0
M  V30 442 O 77.9895 -3.29363 6.99321 0
M  V30 443 C 77.0495 -4.24011 6.4274 0
M  V30 444 C 77.7795 -5.20775 5.52155 0
M  V30 445 O 77.9895 -4.56534 4.22446 0
M  V30 446 C 79.1795 -5.62629 5.96531 0
M  V30 447 O 79.5695 -6.87667 5.41053 0
M  V30 448 C 80.0595 -4.52537 5.39283 0
M  V30 449 C 79.3495 -4.20027 4.08623 0
M  V30 450 N 79.3995 -2.76189 3.71603 0
M  V30 451 H 76.5605 -4.797 7.24003 0
M  V30 452 H 76.2905 -3.69856 5.84513 0
M  V30 453 H 77.1575 -6.10356 5.41441 0
M  V30 454 P 81.1195 -7.20834 5.23717 0
M  V30 455 O 81.3395 -8.66104 5.38572 0
M  V30 456 O 81.9095 -6.33544 6.1349 0
M  V30 457 O 81.3695 -6.7751 3.72168 0
M  V30 458 C 80.4295 -7.20825 2.7076 0
M  V30 459 C 81.1595 -7.45864 1.40599 0
M  V30 460 O 81.3695 -6.17651 0.734225 0
M  V30 461 C 82.5595 -8.05808 1.51899 0
M  V30 462 O 82.9495 -8.74358 0.335205 0
M  V30 463 C 83.4395 -6.83093 1.70294 0
M  V30 464 C 82.7295 -5.79992 0.836974 0
M  V30 465 N 82.7795 -4.41864 1.38293 0
M  V30 466 H 79.9405 -8.13644 3.0377 0
M  V30 467 H 79.6705 -6.42788 2.55485 0
M  V30 468 H 80.5375 -8.12039 0.792769 0
M  V30 469 P 84.4995 -8.91 5.4558e-15 0
M  V30 470 O 84.7195 -10.1736 -0.733766 0
M  V30 471 O 85.2895 -8.73247 1.2395 0
M  V30 472 O 84.7495 -7.66872 -0.971405 0
M  V30 473 C 83.8095 -7.42212 -2.04614 0
M  V30 474 C 84.5395 -6.86059 -3.24661 0
M  V30 475 O 84.7495 -5.42847 -3.03646 0
M  V30 476 C 85.9395 -7.41196 -3.50753 0
M  V30 477 O 86.3295 -7.27073 -4.86816 0
M  V30 478 C 86.8195 -6.5273 -2.63741 0
M  V30 479 C 86.1095 -5.1842 -2.73198 0
M  V30 480 N 86.1595 -4.38668 -1.47808 0
M  V30 481 C 86.3095 -3.02239 -1.60048 0
M  V30 482 O 86.3995 -2.46459 -2.67869 0
M  V30 483 N 86.3495 -2.32436 -0.408571 0
M  V30 484 C 86.2595 -2.85471 0.854993 0
M  V30 485 O 86.3095 -2.12566 1.8531 0
M  V30 486 C 86.1095 -4.28918 0.887335 0
M  V30 487 C 85.9995 -4.91066 2.24619 0
M  V30 488 C 86.0595 -5.00349 -0.255399 0
M  V30 489 H 83.3195 -8.36803 -2.32493 0
M  V30 490 H 83.0505 -6.701 -1.71105 0
M  V30 491 H 83.9175 -7.03551 -4.13168 0
M  V30 492 H 86.5725 -4.59773 -3.53894 0
M  V30 493 H 86.8515 -6.88995 -1.59871 0
M  V30 494 H 87.8435 -6.46749 -3.03687 0
M  V30 495 H 86.0095 -8.46908 -3.20714 0
M  V30 496 H 85.9385 -6.08548 -0.206986 0
M  V30 497 H 86.9685 -5.34836 2.53099 0
M  V30 498 H 85.2315 -5.69638 2.2291 0
M  V30 499 H 85.7195 -4.13971 2.98044 0
M  V30 500 H 86.4555 -1.33211 -0.474216 0
M  V30 501 P 87.8795 -7.20834 -5.23717 0
M  V30 502 O 88.0995 -7.79853 -6.57286 0
M  V30 503 O 88.6695 -7.79239 -4.12957 0
M  V30 504 O 88.1295 -5.63315 -5.29344 0
M  V30 505 C 87.1895 -4.80255 -6.01876 0
M  V30 506 C 87.9195 -3.64202 -6.65911 0
M  V30 507 O 88.1295 -2.60694 -5.64732 0
M  V30 508 C 89.3195 -3.93473 -7.1943 0
M  V30 509 O 89.7095 -3.02071 -8.21205 0
M  V30 510 C 90.1995 -3.73047 -5.97036 0
M  V30 511 C 89.4895 -2.58828 -5.25741 0
M  V30 512 N 89.5395 -2.68068 -3.77503 0
M  V30 513 H 86.7005 -5.40332 -6.79951 0
M  V30 514 H 86.4305 -4.41613 -5.32378 0
M  V30 515 H 87.2975 -3.26331 -7.47797 0
M  V30 516 P 91.2595 -2.75334 -8.47391 0
M  V30 517 O 91.4795 -2.44619 -9.90336 0
M  V30 518 O 92.0495 -3.87776 -7.92294 0
M  V30 519 O 91.5095 -1.4459 -7.59357 0
M  V30 520 C 90.5695 -0.347653 -7.69315 0
M  V30 521 C 91.2995 0.96767 -7.52806 0
M  V30 522 O 91.5095 1.21055 -6.10208 0
M  V30 523 C 92.6995 1.04557 -8.13408 0
M  V30 524 O 93.0895 2.38311 -8.41922 0
M  V30 525 C 93.5795 0.491279 -7.02284 0
M  V30 526 C 92.8695 0.996264 -5.77469 0
M  V30 527 N 92.9195 0.0501916 -4.62973 0
M  V30 528 C 92.8395 -1.31969 -4.65661 0
M  V30 529 N 92.9095 -1.86649 -3.48119 0
M  V30 530 C 93.0595 -0.792089 -2.62406 0
M  V30 531 C 93.1895 -0.705684 -1.2207 0
M  V30 532 N 93.1995 -1.76207 -0.413762 0
M  V30 533 N 93.3095 0.518981 -0.685754 0
M  V30 534 C 93.2995 1.57595 -1.49174 0
M  V30 535 N 93.1795 1.62909 -2.80066 0
M  V30 536 C 93.0595 0.388195 -3.3073 0
M  V30 537 H 90.0815 -0.374765 -8.67791 0
M  V30 538 H 89.8095 -0.443613 -6.90476 0
M  V30 539 H 90.6775 1.75559 -7.96891 0
M  V30 540 H 93.3325 1.94563 -5.46818 0
M  V30 541 H 93.6125 -0.608651 -7.04676 0
M  V30 542 H 94.6035 0.889796 -7.09039 0
M  V30 543 H 92.7695 0.433128 -9.04664 0
M  V30 544 H 92.7285 -1.89246 -5.57664 0
M  V30 545 H 93.1095 -2.71005 -0.804694 0
M  V30 546 H 93.2985 -1.63189 0.603768 0
M  V30 547 H 93.4065 2.53475 -0.997614 0
M  V30 548 P 94.6394 2.75334 -8.47391 0
M  V30 549 O 94.8594 3.84128 -9.44797 0
M  V30 550 O 95.4294 1.51947 -8.68712 0
M  V30 551 O 94.8894 3.29363 -6.99321 0
M  V30 552 C 93.9494 4.24011 -6.4274 0
M  V30 553 C 94.6794 5.20775 -5.52155 0
M  V30 554 O 94.8894 4.56534 -4.22446 0
M  V30 555 C 96.0794 5.62629 -5.96531 0
M  V30 556 O 96.4694 6.87667 -5.41053 0
M  V30 557 C 96.9594 4.52537 -5.39283 0
M  V30 558 C 96.2494 4.20027 -4.08623 0
M  V30 559 N 96.2994 2.76189 -3.71603 0
M  V30 560 H 93.4604 4.797 -7.24003 0
M  V30 561 H 93.1904 3.69856 -5.84513 0
M  V30 562 H 94.0574 6.10356 -5.41441 0
M  V30 563 P 98.0194 7.20834 -5.23717 0
M  V30 564 O 98.2394 8.66104 -5.38572 0
M  V30 565 O 98.8094 6.33544 -6.1349 0
M  V30 566 O 98.2694 6.7751 -3.72168 0
M  V30 567 C 97.3294 7.20825 -2.7076 0
M  V30 568 C 98.0594 7.45864 -1.40599 0
M  V30 569 O 98.2694 6.17651 -0.734225 0
M  V30 570 C 99.4594 8.05808 -1.51899 0
M  V30 571 O 99.8494 8.74358 -0.335205 0
M  V30 572 C 100.339 6.83093 -1.70294 0
M  V30 573 C 99.6294 5.79992 -0.836974 0
M  V30 574 N 99.6794 4.41864 -1.38293 0
M  V30 575 H 96.8404 8.13644 -3.0377 0
M  V30 576 H 96.5704 6.42788 -2.55485 0
M  V30 577 H 97.4374 8.12039 -0.792769 0
M  V30 578 P 101.399 8.91 -6.54696e-15 0
M  V30 579 O 101.619 10.1726 0.733694 0
M  V30 580 O 102.189 8.73148 -1.23936 0
M  V30 581 O 101.649 7.66872 0.971405 0
M  V30 582 C 100.709 7.42309 2.04641 0
M  V30 583 C 101.439 6.86059 3.24661 0
M  V30 584 O 101.649 5.42847 3.03646 0
M  V30 585 C 102.839 7.41196 3.50753 0
M  V30 586 O 103.229 7.27073 4.86816 0
M  V30 587 C 103.719 6.5273 2.63741 0
M  V30 588 C 103.009 5.1842 2.73198 0
M  V30 589 N 103.059 4.38762 1.4784 0
M  V30 590 C 102.979 4.81605 0.168631 0
M  V30 591 N 103.059 3.85454 -0.713363 0
M  V30 592 C 103.199 2.6994 0.0566958 0
M  V30 593 C 103.329 1.34815 -0.338502 0
M  V30 594 N 103.449 0.496304 0.77465 0
M  V30 595 C 103.449 0.908403 2.09122 0
M  V30 596 N 103.579 -0.0517805 3.00955 0
M  V30 597 N 103.319 2.17875 2.46519 0
M  V30 598 C 103.199 3.01988 1.4033 0
M  V30 599 H 100.22 8.36803 2.32493 0
M  V30 600 H 99.9504 6.70197 1.71129 0
M  V30 601 H 100.817 7.03551 4.13168 0
M  V30 602 P 104.779 7.20834 5.23717 0
M  V30 603 O 104.999 7.79853 6.57286 0
M  V30 604 O 105.569 7.79239 4.12957 0
M  V30 605 O 105.029 5.63315 5.29344 0
M  V30 606 C 104.089 4.80255 6.01876 0
M  V30 607 C 104.819 3.64202 6.65911 0
M  V30 608 O 105.029 2.60694 5.64732 0
M  V30 609 C 106.219 3.93473 7.1943 0
M  V30 610 O 106.609 3.02071 8.21205 0
M  V30 611 C 107.099 3.73047 5.97036 0
M  V30 612 C 106.389 2.58828 5.25741 0
M  V30 613 N 106.439 2.68068 3.77503 0
M  V30 614 H 103.6 5.40332 6.79951 0
M  V30 615 H 103.33 4.41613 5.32378 0
M  V30 616 H 104.197 3.26331 7.47797 0
M  V30 617 P 108.159 2.75334 8.47391 0
M  V30 618 O 108.379 2.44571 9.90142 0
M  V30 619 O 108.949 3.87688 7.92115 0
M  V30 620 O 108.409 1.4459 7.59357 0
M  V30 621 C 107.469 0.347608 7.69215 0
M  V30 622 C 108.199 -0.96767 7.52806 0
M  V30 623 O 108.409 -1.21036 6.1011 0
M  V30 624 C 109.599 -1.04544 8.13308 0
M  V30 625 O 109.989 -2.38311 8.41922 0
M  V30 626 C 110.479 -0.491279 7.02284 0
M  V30 627 C 109.769 -0.996264 5.77469 0
M  V30 628 N 109.819 -0.0501916 4.62973 0
M  V30 629 H 106.98 0.374722 8.67691 0
M  V30 630 H 106.71 0.443485 6.90277 0
M  V30 631 H 107.577 -1.75537 7.96793 0
M  V30 632 P 111.539 -2.75334 8.47391 0
M  V30 633 O 111.759 -3.84128 9.44797 0
M  V30 634 O 112.329 -1.51947 8.68712 0
M  V30 635 O 111.789 -3.29363 6.99321 0
M  V30 636 C 110.849 -4.24011 6.4274 0
M  V30 637 C 111.579 -5.20775 5.52155 0
M  V30 638 O 111.789 -4.56534 4.22446 0
M  V30 639 C 112.979 -5.62629 5.96531 0
M  V30 640 O 113.369 -6.87667 5.41053 0
M  V30 641 C 113.859 -4.52537 5.39283 0
M  V30 642 C 113.149 -4.20027 4.08623 0
M  V30 643 N 113.199 -2.76189 3.71603 0
M  V30 644 C 113.119 -1.64862 4.52822 0
M  V30 645 N 113.199 -0.512671 3.88633 0
M  V30 646 C 113.339 -0.888083 2.54977 0
M  V30 647 C 113.469 -0.094668 1.38677 0
M  V30 648 O 113.489 1.13053 1.28163 0
M  V30 649 N 113.589 -0.890102 0.232633 0
M  V30 650 C 113.589 -2.26958 0.21772 0
M  V30 651 N 113.719 -2.84626 -0.97925 0
M  V30 652 N 113.459 -3.0178 1.31033 0
M  V30 653 C 113.339 -2.26781 2.43843 0
M  V30 654 H 110.36 -4.797 7.24003 0
M  V30 655 H 110.09 -3.69856 5.84513 0
M  V30 656 H 110.957 -6.10356 5.41441 0
M  V30 657 H 113.612 -4.79061 3.27488 0
M  V30 658 H 113.891 -3.64906 6.05785 0
M  V30 659 H 114.883 -4.8868 5.2125 0
M  V30 660 H 113.049 -5.66726 7.06352 0
M  V30 661 H 113 -1.71169 5.60966 0
M  V30 662 H 113.682 -0.419134 -0.644739 0
M  V30 663 H 113.719 -3.87332 -1.06098 0
M  V30 664 H 113.82 -2.26417 -1.82483 0
M  V30 665 P 114.919 -7.20834 5.23717 0
M  V30 666 O 115.139 -8.66104 5.38572 0
M  V30 667 O 115.709 -6.33544 6.1349 0
M  V30 668 O 115.169 -6.7751 3.72168 0
M  V30 669 C 114.229 -7.20825 2.7076 0
M  V30 670 C 114.959 -7.45864 1.40599 0
M  V30 671 O 115.169 -6.17651 0.734225 0
M  V30 672 C 116.359 -8.05808 1.51899 0
M  V30 673 O 116.749 -8.74358 0.335205 0
M  V30 674 C 117.239 -6.83093 1.70294 0
M  V30 675 C 116.529 -5.79992 0.836974 0
M  V30 676 N 116.579 -4.41864 1.38293 0
M  V30 677 H 113.74 -8.13644 3.0377 0
M  V30 678 H 113.47 -6.42788 2.55485 0
M  V30 679 H 114.337 -8.12039 0.792769 0
M  V30 680 P 118.299 -8.91 7.63812e-15 0
M  V30 681 O 118.519 -10.1736 -0.733766 0
M  V30 682 O 119.089 -8.73247 1.2395 0
M  V30 683 O 118.549 -7.66872 -0.971405 0
M  V30 684 C 117.609 -7.42212 -2.04614 0
M  V30 685 C 118.339 -6.86059 -3.24661 0
M  V30 686 O 118.549 -5.42847 -3.03646 0
M  V30 687 C 119.739 -7.41196 -3.50753 0
M  V30 688 O 120.129 -7.27073 -4.86816 0
M  V30 689 C 120.619 -6.5273 -2.63741 0
M  V30 690 C 119.909 -5.1842 -2.73198 0
M  V30 691 N 119.959 -4.38668 -1.47808 0
M  V30 692 C 120.109 -3.02239 -1.60048 0
M  V30 693 O 120.199 -2.46459 -2.67869 0
M  V30 694 N 120.149 -2.32436 -0.408571 0
M  V30 695 C 120.059 -2.85471 0.854993 0
M  V30 696 O 120.109 -2.12566 1.8531 0
M  V30 697 C 119.909 -4.28918 0.887335 0
M  V30 698 C 119.799 -4.91066 2.24619 0
M  V30 699 C 119.859 -5.00349 -0.255399 0
M  V30 700 H 117.119 -8.36803 -2.32493 0
M  V30 701 H 116.85 -6.701 -1.71105 0
M  V30 702 H 117.717 -7.03551 -4.13168 0
M  V30 703 H 120.372 -4.59773 -3.53894 0
M  V30 704 H 120.651 -6.88995 -1.59871 0
M  V30 705 H 121.643 -6.46749 -3.03687 0
M  V30 706 H 119.809 -8.46908 -3.20714 0
M  V30 707 H 119.738 -6.08548 -0.206986 0
M  V30 708 H 120.768 -5.34836 2.53099 0
M  V30 709 H 119.031 -5.69638 2.2291 0
M  V30 710 H 119.519 -4.13971 2.98044 0
M  V30 711 H 120.255 -1.33211 -0.474216 0
M  V30 712 P 121.679 -7.20834 -5.23717 0
M  V30 713 O 121.899 -7.79853 -6.57286 0
M  V30 714 O 122.469 -7.79239 -4.12957 0
M  V30 715 O 121.929 -5.63315 -5.29344 0
M  V30 716 C 120.989 -4.80255 -6.01876 0
M  V30 717 C 121.719 -3.64202 -6.65911 0
M  V30 718 O 121.929 -2.60694 -5.64732 0
M  V30 719 C 123.119 -3.93473 -7.1943 0
M  V30 720 O 123.509 -3.02071 -8.21205 0
M  V30 721 C 123.999 -3.73047 -5.97036 0
M  V30 722 C 123.289 -2.58828 -5.25741 0
M  V30 723 N 123.339 -2.68068 -3.77503 0
M  V30 724 H 120.5 -5.40332 -6.79951 0
M  V30 725 H 120.23 -4.41613 -5.32378 0
M  V30 726 H 121.097 -3.26331 -7.47797 0
M  V30 727 P 125.059 -2.75334 -8.47391 0
M  V30 728 O 125.279 -2.44595 -9.90239 0
M  V30 729 O 125.849 -3.87732 -7.92204 0
M  V30 730 O 125.309 -1.4459 -7.59357 0
M  V30 731 C 124.369 -0.347563 -7.69115 0
M  V30 732 C 125.099 0.96767 -7.52806 0
M  V30 733 O 125.309 1.21036 -6.1011 0
M  V30 734 C 126.499 1.04544 -8.13308 0
M  V30 735 O 126.889 2.38311 -8.41922 0
M  V30 736 C 127.379 0.491279 -7.02284 0
M  V30 737 C 126.669 0.996264 -5.77469 0
M  V30 738 N 126.719 0.0501808 -4.62873 0
M  V30 739 C 126.869 0.588177 -3.36904 0
M  V30 740 O 126.959 1.78598 -3.17173 0
M  V30 741 N 126.909 -0.329694 -2.33686 0
M  V30 742 C 126.819 -1.6953 -2.45079 0
M  V30 743 C 126.669 -2.16933 -3.80505 0
M  V30 744 C 126.619 -1.30326 -4.83752 0
M  V30 745 H 123.879 -0.374722 -8.67691 0
M  V30 746 H 123.61 -0.443421 -6.90177 0
M  V30 747 H 124.477 1.75537 -7.96793 0
M  V30 748 H 127.132 1.94496 -5.46629 0
M  V30 749 H 127.411 -0.608651 -7.04676 0
M  V30 750 H 128.403 0.889672 -7.08939 0
M  V30 751 H 126.569 0.43308 -9.04564 0
M  V30 752 H 126.498 -1.68366 -5.8516 0
M  V30 753 P 128.439 2.75334 -8.47391 0
M  V30 754 O 128.659 3.84128 -9.44797 0
M  V30 755 O 129.229 1.51947 -8.68712 0
M  V30 756 O 128.689 3.29363 -6.99321 0
M  V30 757 C 127.749 4.24011 -6.4274 0
M  V30 758 C 128.479 5.20775 -5.52155 0
M  V30 759 O 128.689 4.56534 -4.22446 0
M  V30 760 C 129.879 5.62629 -5.96531 0
M  V30 761 O 130.269 6.87667 -5.41053 0
M  V30 762 C 130.759 4.52537 -5.39283 0
M  V30 763 C 130.049 4.20027 -4.08623 0
M  V30 764 N 130.099 2.76189 -3.71603 0
M  V30 765 H 127.26 4.797 -7.24003 0
M  V30 766 H 126.99 3.69856 -5.84513 0
M  V30 767 H 127.857 6.10356 -5.41441 0
M  V30 768 P 131.819 7.20834 -5.23717 0
M  V30 769 O 132.039 8.66104 -5.38572 0
M  V30 770 O 132.609 6.33544 -6.1349 0
M  V30 771 O 132.069 6.7751 -3.72168 0
M  V30 772 C 131.129 7.20825 -2.7076 0
M  V30 773 C 131.859 7.45864 -1.40599 0
M  V30 774 O 132.069 6.17651 -0.734225 0
M  V30 775 C 133.259 8.05808 -1.51899 0
M  V30 776 O 133.649 8.74358 -0.335205 0
M  V30 777 C 134.139 6.83093 -1.70294 0
M  V30 778 C 133.429 5.79992 -0.836974 0
M  V30 779 N 133.479 4.41864 -1.38293 0
M  V30 780 H 130.64 8.13644 -3.0377 0
M  V30 781 H 130.37 6.42788 -2.55485 0
M  V30 782 H 131.237 8.12039 -0.792769 0
M  V30 783 P 135.199 8.91 -8.72928e-15 0
M  V30 784 O 135.419 10.1726 0.733694 0
M  V30 785 O 135.989 8.73148 -1.23936 0
M  V30 786 O 135.449 7.66872 0.971405 0
M  V30 787 C 134.509 7.42309 2.04641 0
M  V30 788 C 135.239 6.86059 3.24661 0
M  V30 789 O 135.449 5.42847 3.03646 0
M  V30 790 C 136.639 7.41196 3.50753 0
M  V30 791 O 137.029 7.27073 4.86816 0
M  V30 792 C 137.519 6.5273 2.63741 0
M  V30 793 C 136.809 5.1842 2.73198 0
M  V30 794 N 136.859 4.38762 1.4784 0
M  V30 795 H 134.02 8.36803 2.32493 0
M  V30 796 H 133.75 6.70197 1.71129 0
M  V30 797 H 134.617 7.03551 4.13168 0
M  V30 798 P 138.579 7.20834 5.23717 0
M  V30 799 O 138.799 7.79853 6.57286 0
M  V30 800 O 139.369 7.79239 4.12957 0
M  V30 801 O 138.829 5.63315 5.29344 0
M  V30 802 C 137.889 4.80255 6.01876 0
M  V30 803 C 138.619 3.64202 6.65911 0
M  V30 804 O 138.829 2.60694 5.64732 0
M  V30 805 C 140.019 3.93473 7.1943 0
M  V30 806 O 140.409 3.02071 8.21205 0
M  V30 807 C 140.899 3.73047 5.97036 0
M  V30 808 C 140.189 2.58828 5.25741 0
M  V30 809 N 140.239 2.68068 3.77503 0
M  V30 810 H 137.4 5.40332 6.79951 0
M  V30 811 H 137.13 4.41613 5.32378 0
M  V30 812 H 137.997 3.26331 7.47797 0
M  V30 813 P 141.959 2.75334 8.47391 0
M  V30 814 O 142.179 2.44571 9.90142 0
M  V30 815 O 142.749 3.87688 7.92115 0
M  V30 816 O 142.209 1.4459 7.59357 0
M  V30 817 C 141.269 0.347608 7.69215 0
M  V30 818 C 141.999 -0.96767 7.52806 0
M  V30 819 O 142.209 -1.21036 6.1011 0
M  V30 820 C 143.399 -1.04544 8.13308 0
M  V30 821 O 143.789 -2.38311 8.41922 0
M  V30 822 C 144.279 -0.491279 7.02284 0
M  V30 823 C 143.569 -0.996264 5.77469 0
M  V30 824 N 143.619 -0.0501916 4.62973 0
M  V30 825 H 140.78 0.374722 8.67691 0
M  V30 826 H 140.51 0.443485 6.90277 0
M  V30 827 H 141.377 -1.75537 7.96793 0
M  V30 828 P 145.339 -2.75334 8.47391 0
M  V30 829 O 145.559 -3.84128 9.44797 0
M  V30 830 O 146.129 -1.51947 8.68712 0
M  V30 831 O 145.589 -3.29363 6.99321 0
M  V30 832 C 144.649 -4.24011 6.4274 0
M  V30 833 C 145.379 -5.20775 5.52155 0
M  V30 834 O 145.589 -4.56534 4.22446 0
M  V30 835 C 146.779 -5.62629 5.96531 0
M  V30 836 O 147.169 -6.87667 5.41053 0
M  V30 837 C 147.659 -4.52537 5.39283 0
M  V30 838 C 146.949 -4.20027 4.08623 0
M  V30 839 N 146.999 -2.76189 3.71603 0
M  V30 840 H 144.16 -4.797 7.24003 0
M  V30 841 H 143.89 -3.69856 5.84513 0
M  V30 842 H 144.757 -6.10356 5.41441 0
M  V30 843 P 148.719 -7.20834 5.23717 0
M  V30 844 O 148.939 -8.66104 5.38572 0
M  V30 845 O 149.509 -6.33544 6.1349 0
M  V30 846 O 148.969 -6.7751 3.72168 0
M  V30 847 C 148.029 -7.20825 2.7076 0
M  V30 848 C 148.759 -7.45864 1.40599 0
M  V30 849 O 148.969 -6.17651 0.734225 0
M  V30 850 C 150.159 -8.05808 1.51899 0
M  V30 851 O 150.549 -8.74358 0.335205 0
M  V30 852 C 151.039 -6.83093 1.70294 0
M  V30 853 C 150.329 -5.79992 0.836974 0
M  V30 854 N 150.379 -4.41864 1.38293 0
M  V30 855 H 147.54 -8.13644 3.0377 0
M  V30 856 H 147.27 -6.42788 2.55485 0
M  V30 857 H 148.137 -8.12039 0.792769 0
M  V30 858 P 152.099 -8.91 9.82044e-15 0
M  V30 859 O 152.319 -10.1726 -0.733694 0
M  V30 860 O 152.889 -8.73148 1.23936 0
M  V30 861 O 152.349 -7.66872 -0.971405 0
M  V30 862 C 151.409 -7.42309 -2.04641 0
M  V30 863 C 152.139 -6.86059 -3.24661 0
M  V30 864 O 152.349 -5.42847 -3.03646 0
M  V30 865 C 153.539 -7.41196 -3.50753 0
M  V30 866 O 153.929 -7.27073 -4.86816 0
M  V30 867 C 154.419 -6.5273 -2.63741 0
M  V30 868 C 153.709 -5.1842 -2.73198 0
M  V30 869 N 153.759 -4.38762 -1.4784 0
M  V30 870 H 150.92 -8.36803 -2.32493 0
M  V30 871 H 150.65 -6.70197 -1.71129 0
M  V30 872 H 151.517 -7.03551 -4.13168 0
M  V30 873 P 155.479 -7.20834 -5.23717 0
M  V30 874 O 155.699 -7.80006 -6.57415 0
M  V30 875 O 156.269 -7.79416 -4.13051 0
M  V30 876 O 155.729 -5.63315 -5.29344 0
M  V30 877 C 154.789 -4.80318 -6.01954 0
M  V30 878 C 155.519 -3.64202 -6.65911 0
M  V30 879 O 155.729 -2.60736 -5.64823 0
M  V30 880 C 156.919 -3.93521 -7.19518 0
M  V30 881 O 157.309 -3.02071 -8.21205 0
M  V30 882 C 157.799 -3.73047 -5.97036 0
M  V30 883 C 157.089 -2.58828 -5.25741 0
M  V30 884 N 157.139 -2.68068 -3.77503 0
M  V30 885 C 157.059 -3.80474 -2.99159 0
M  V30 886 N 157.129 -3.55622 -1.71925 0
M  V30 887 C 157.279 -2.1832 -1.65733 0
M  V30 888 C 157.409 -1.28842 -0.572777 0
M  V30 889 N 157.419 -1.66875 0.70098 0
M  V30 890 N 157.529 0.016788 -0.859836 0
M  V30 891 C 157.519 0.398145 -2.13316 0
M  V30 892 N 157.399 -0.328224 -3.22333 0
M  V30 893 C 157.279 -1.62992 -2.90383 0
M  V30 894 H 154.301 -5.40394 -6.8003 0
M  V30 895 H 154.029 -4.41741 -5.32532 0
M  V30 896 H 154.897 -3.26371 -7.47889 0
M  V30 897 H 157.552 -1.64007 -5.56746 0
M  V30 898 H 157.832 -4.63439 -5.3432 0
M  V30 899 H 158.823 -3.44776 -6.25925 0
M  V30 900 H 156.989 -4.96707 -7.57347 0
M  V30 901 H 156.948 -4.8089 -3.39924 0
M  V30 902 H 157.329 -2.66547 0.941919 0
M  V30 903 H 157.518 -0.965341 1.44766 0
M  V30 904 H 157.626 1.46427 -2.29697 0
M  V30 905 P 158.859 -2.75334 -8.47391 0
M  V30 906 O 159.079 -2.44571 -9.90142 0
M  V30 907 O 159.649 -3.87688 -7.92115 0
M  V30 908 O 159.109 -1.4459 -7.59357 0
M  V30 909 C 158.169 -0.347608 -7.69215 0
M  V30 910 C 158.899 0.96767 -7.52806 0
M  V30 911 O 159.109 1.21036 -6.1011 0
M  V30 912 C 160.299 1.04544 -8.13308 0
M  V30 913 O 160.689 2.38311 -8.41922 0
M  V30 914 C 161.179 0.491279 -7.02284 0
M  V30 915 C 160.469 0.996264 -5.77469 0
M  V30 916 N 160.519 0.0501916 -4.62973 0
M  V30 917 H 157.68 -0.374722 -8.67691 0
M  V30 918 H 157.41 -0.443485 -6.90277 0
M  V30 919 H 158.277 1.75537 -7.96793 0
M  V30 920 P 162.239 2.75334 -8.47391 0
M  V30 921 O 162.459 3.84128 -9.44797 0
M  V30 922 O 163.029 1.51947 -8.68712 0
M  V30 923 O 162.489 3.29363 -6.99321 0
M  V30 924 C 161.549 4.24011 -6.4274 0
M  V30 925 C 162.279 5.20775 -5.52155 0
M  V30 926 O 162.489 4.56534 -4.22446 0
M  V30 927 C 163.679 5.62629 -5.96531 0
M  V30 928 O 164.069 6.87667 -5.41053 0
M  V30 929 C 164.559 4.52537 -5.39283 0
M  V30 930 C 163.849 4.20027 -4.08623 0
M  V30 931 N 163.899 2.76189 -3.71603 0
M  V30 932 C 163.819 1.64862 -4.52822 0
M  V30 933 N 163.899 0.512671 -3.88633 0
M  V30 934 C 164.039 0.888083 -2.54977 0
M  V30 935 C 164.169 0.094668 -1.38677 0
M  V30 936 N 164.289 0.890102 -0.232633 0
M  V30 937 C 164.289 2.26958 -0.21772 0
M  V30 938 N 164.419 2.84626 0.97925 0
M  V30 939 N 164.159 3.0178 -1.31033 0
M  V30 940 C 164.039 2.26781 -2.43843 0
M  V30 941 H 161.06 4.797 -7.24003 0
M  V30 942 H 160.79 3.69856 -5.84513 0
M  V30 943 H 161.657 6.10356 -5.41441 0
M  V30 944 P 165.619 7.20834 -5.23717 0
M  V30 945 O 165.839 8.66104 -5.38572 0
M  V30 946 O 166.409 6.33544 -6.1349 0
M  V30 947 O 165.869 6.7751 -3.72168 0
M  V30 948 C 164.929 7.20825 -2.7076 0
M  V30 949 C 165.659 7.45864 -1.40599 0
M  V30 950 O 165.869 6.17651 -0.734225 0
M  V30 951 C 167.059 8.05808 -1.51899 0
M  V30 952 O 167.449 8.74358 -0.335205 0
M  V30 953 C 167.939 6.83093 -1.70294 0
M  V30 954 C 167.229 5.79992 -0.836974 0
M  V30 955 N 167.279 4.41864 -1.38293 0
M  V30 956 H 164.44 8.13644 -3.0377 0
M  V30 957 H 164.17 6.42788 -2.55485 0
M  V30 958 H 165.037 8.12039 -0.792769 0
M  V30 959 P 168.999 8.91 -1.09116e-14 0
M  V30 960 O 169.219 10.1736 0.733766 0
M  V30 961 O 169.789 8.73247 -1.2395 0
M  V30 962 O 169.249 7.66872 0.971405 0
M  V30 963 C 168.309 7.42212 2.04614 0
M  V30 964 C 169.039 6.86059 3.24661 0
M  V30 965 O 169.249 5.42847 3.03646 0
M  V30 966 C 170.439 7.41196 3.50753 0
M  V30 967 O 170.829 7.27073 4.86816 0
M  V30 968 C 171.319 6.5273 2.63741 0
M  V30 969 C 170.609 5.1842 2.73198 0
M  V30 970 N 170.659 4.38668 1.47808 0
M  V30 971 C 170.809 3.02239 1.60048 0
M  V30 972 O 170.899 2.46459 2.67869 0
M  V30 973 N 170.849 2.32436 0.408571 0
M  V30 974 C 170.759 2.85471 -0.854993 0
M  V30 975 O 170.809 2.12566 -1.8531 0
M  V30 976 C 170.609 4.28918 -0.887335 0
M  V30 977 C 170.499 4.91066 -2.24619 0
M  V30 978 C 170.559 5.00349 0.255399 0
M  V30 979 H 167.819 8.36803 2.32493 0
M  V30 980 H 167.55 6.701 1.71105 0
M  V30 981 H 168.417 7.03551 4.13168 0
M  V30 982 H 171.072 4.59773 3.53894 0
M  V30 983 H 171.351 6.88995 1.59871 0
M  V30 984 H 172.343 6.46749 3.03687 0
M  V30 985 H 170.509 8.46908 3.20714 0
M  V30 986 H 170.438 6.08548 0.206986 0
M  V30 987 H 171.468 5.34836 -2.53099 0
M  V30 988 H 169.731 5.69638 -2.2291 0
M  V30 989 H 170.219 4.13971 -2.98044 0
M  V30 990 H 170.955 1.33211 0.474216 0
M  V30 991 P 172.379 7.20834 5.23717 0
M  V30 992 O 172.599 7.79853 6.57286 0
M  V30 993 O 173.169 7.79239 4.12957 0
M  V30 994 O 172.629 5.63315 5.29344 0
M  V30 995 C 171.689 4.80255 6.01876 0
M  V30 996 C 172.419 3.64202 6.65911 0
M  V30 997 O 172.629 2.60694 5.64732 0
M  V30 998 C 173.819 3.93473 7.1943 0
M  V30 999 O 174.209 3.02071 8.21205 0
M  V30 1000 C 174.699 3.73047 5.97036 0
M  V30 1001 C 173.989 2.58828 5.25741 0
M  V30 1002 N 174.039 2.68068 3.77503 0
M  V30 1003 H 171.2 5.40332 6.79951 0
M  V30 1004 H 170.93 4.41613 5.32378 0
M  V30 1005 H 171.797 3.26331 7.47797 0
M  V30 1006 P 175.759 2.75334 8.47391 0
M  V30 1007 O 175.979 2.44571 9.90142 0
M  V30 1008 O 176.549 3.87688 7.92115 0
M  V30 1009 O 176.009 1.4459 7.59357 0
M  V30 1010 C 175.069 0.347608 7.69215 0
M  V30 1011 C 175.799 -0.96767 7.52806 0
M  V30 1012 O 176.009 -1.21036 6.1011 0
M  V30 1013 C 177.199 -1.04544 8.13308 0
M  V30 1014 O 177.589 -2.38311 8.41922 0
M  V30 1015 C 178.079 -0.491279 7.02284 0
M  V30 1016 C 177.369 -0.996264 5.77469 0
M  V30 1017 N 177.419 -0.0501916 4.62973 0
M  V30 1018 H 174.58 0.374722 8.67691 0
M  V30 1019 H 174.31 0.443485 6.90277 0
M  V30 1020 H 175.177 -1.75537 7.96793 0
M  V30 1021 P 179.139 -2.75334 8.47391 0
M  V30 1022 O 179.359 -3.84128 9.44797 0
M  V30 1023 O 179.929 -1.51947 8.68712 0
M  V30 1024 O 179.389 -3.29363 6.99321 0
M  V30 1025 C 178.449 -4.24011 6.4274 0
M  V30 1026 C 179.179 -5.20775 5.52155 0
M  V30 1027 O 179.389 -4.56534 4.22446 0
M  V30 1028 C 180.579 -5.62629 5.96531 0
M  V30 1029 O 180.969 -6.87667 5.41053 0
M  V30 1030 C 181.459 -4.52537 5.39283 0
M  V30 1031 C 180.749 -4.20027 4.08623 0
M  V30 1032 N 180.799 -2.76189 3.71603 0
M  V30 1033 C 180.719 -1.64862 4.52822 0
M  V30 1034 N 180.799 -0.512671 3.88633 0
M  V30 1035 C 180.939 -0.888083 2.54977 0
M  V30 1036 C 181.069 -0.094668 1.38677 0
M  V30 1037 O 181.089 1.13053 1.28163 0
M  V30 1038 N 181.189 -0.890102 0.232633 0
M  V30 1039 C 181.189 -2.26958 0.21772 0
M  V30 1040 N 181.319 -2.84626 -0.97925 0
M  V30 1041 N 181.059 -3.0178 1.31033 0
M  V30 1042 C 180.939 -2.26781 2.43843 0
M  V30 1043 H 177.96 -4.797 7.24003 0
M  V30 1044 H 177.69 -3.69856 5.84513 0
M  V30 1045 H 178.557 -6.10356 5.41441 0
M  V30 1046 H 181.212 -4.79061 3.27488 0
M  V30 1047 H 181.491 -3.64906 6.05785 0
M  V30 1048 H 182.483 -4.8868 5.2125 0
M  V30 1049 H 180.649 -5.66726 7.06352 0
M  V30 1050 H 180.6 -1.71169 5.60966 0
M  V30 1051 H 181.282 -0.419134 -0.644739 0
M  V30 1052 H 181.319 -3.87332 -1.06098 0
M  V30 1053 H 181.42 -2.26417 -1.82483 0
M  V30 1054 P 182.519 -7.20834 5.23717 0
M  V30 1055 O 182.739 -8.66104 5.38572 0
M  V30 1056 O 183.309 -6.33544 6.1349 0
M  V30 1057 O 182.769 -6.7751 3.72168 0
M  V30 1058 C 181.829 -7.20825 2.7076 0
M  V30 1059 C 182.559 -7.45864 1.40599 0
M  V30 1060 O 182.769 -6.17651 0.734225 0
M  V30 1061 C 183.959 -8.05808 1.51899 0
M  V30 1062 O 184.349 -8.74358 0.335205 0
M  V30 1063 C 184.839 -6.83093 1.70294 0
M  V30 1064 C 184.129 -5.79992 0.836974 0
M  V30 1065 N 184.179 -4.41864 1.38293 0
M  V30 1066 H 181.34 -8.13644 3.0377 0
M  V30 1067 H 181.07 -6.42788 2.55485 0
M  V30 1068 H 181.937 -8.12039 0.792769 0
M  V30 1069 P 185.899 -8.91 -8.29613e-14 0
M  V30 1070 O 186.119 -10.1726 -0.733694 0
M  V30 1071 O 186.689 -8.73148 1.23936 0
M  V30 1072 O 186.149 -7.66872 -0.971405 0
M  V30 1073 C 185.209 -7.42309 -2.04641 0
M  V30 1074 C 185.939 -6.86059 -3.24661 0
M  V30 1075 O 186.149 -5.42847 -3.03646 0
M  V30 1076 C 187.339 -7.41196 -3.50753 0
M  V30 1077 O 187.729 -7.27073 -4.86816 0
M  V30 1078 C 188.219 -6.5273 -2.63741 0
M  V30 1079 C 187.509 -5.1842 -2.73198 0
M  V30 1080 N 187.559 -4.38762 -1.4784 0
M  V30 1081 H 184.72 -8.36803 -2.32493 0
M  V30 1082 H 184.45 -6.70197 -1.71129 0
M  V30 1083 H 185.317 -7.03551 -4.13168 0
M  V30 1084 P 189.279 -7.20834 -5.23717 0
M  V30 1085 O 189.499 -7.79853 -6.57286 0
M  V30 1086 O 190.069 -7.79239 -4.12957 0
M  V30 1087 O 189.529 -5.63315 -5.29344 0
M  V30 1088 C 188.589 -4.80255 -6.01876 0
M  V30 1089 C 189.319 -3.64202 -6.65911 0
M  V30 1090 O 189.529 -2.60694 -5.64732 0
M  V30 1091 C 190.719 -3.93473 -7.1943 0
M  V30 1092 O 191.109 -3.02071 -8.21205 0
M  V30 1093 C 191.599 -3.73047 -5.97036 0
M  V30 1094 C 190.889 -2.58828 -5.25741 0
M  V30 1095 N 190.939 -2.68068 -3.77503 0
M  V30 1096 H 188.1 -5.40332 -6.79951 0
M  V30 1097 H 187.83 -4.41613 -5.32378 0
M  V30 1098 H 188.697 -3.26331 -7.47797 0
M  V30 1099 P 192.659 -2.75334 -8.47391 0
M  V30 1100 O 192.879 -2.44571 -9.90142 0
M  V30 1101 O 193.449 -3.87688 -7.92115 0
M  V30 1102 O 192.909 -1.4459 -7.59357 0
M  V30 1103 C 191.969 -0.347608 -7.69215 0
M  V30 1104 C 192.699 0.96767 -7.52806 0
M  V30 1105 O 192.909 1.21036 -6.1011 0
M  V30 1106 C 194.099 1.04544 -8.13308 0
M  V30 1107 O 194.489 2.38311 -8.41922 0
M  V30 1108 C 194.979 0.491279 -7.02284 0
M  V30 1109 C 194.269 0.996264 -5.77469 0
M  V30 1110 N 194.319 0.0501916 -4.62973 0
M  V30 1111 H 191.48 -0.374722 -8.67691 0
M  V30 1112 H 191.21 -0.443485 -6.90277 0
M  V30 1113 H 192.077 1.75537 -7.96793 0
M  V30 1114 P 196.039 2.75334 -8.47391 0
M  V30 1115 O 196.259 3.84128 -9.44797 0
M  V30 1116 O 196.829 1.51947 -8.68712 0
M  V30 1117 O 196.289 3.29363 -6.99321 0
M  V30 1118 C 195.349 4.24011 -6.4274 0
M  V30 1119 C 196.079 5.20775 -5.52155 0
M  V30 1120 O 196.289 4.56534 -4.22446 0
M  V30 1121 C 197.479 5.62629 -5.96531 0
M  V30 1122 O 197.869 6.87667 -5.41053 0
M  V30 1123 C 198.359 4.52537 -5.39283 0
M  V30 1124 C 197.649 4.20027 -4.08623 0
M  V30 1125 N 197.699 2.76189 -3.71603 0
M  V30 1126 H 194.86 4.797 -7.24003 0
M  V30 1127 H 194.59 3.69856 -5.84513 0
M  V30 1128 H 195.457 6.10356 -5.41441 0
M  V30 1129 P 199.419 7.20834 -5.23717 0
M  V30 1130 O 199.639 8.66104 -5.38572 0
M  V30 1131 O 200.209 6.33544 -6.1349 0
M  V30 1132 O 199.669 6.7751 -3.72168 0
M  V30 1133 C 198.729 7.20825 -2.7076 0
M  V30 1134 C 199.459 7.45864 -1.40599 0
M  V30 1135 O 199.669 6.17651 -0.734225 0
M  V30 1136 C 200.859 8.05808 -1.51899 0
M  V30 1137 O 201.249 8.74358 -0.335205 0
M  V30 1138 C 201.739 6.83093 -1.70294 0
M  V30 1139 C 201.029 5.79992 -0.836974 0
M  V30 1140 N 201.079 4.41864 -1.38293 0
M  V30 1141 H 198.24 8.13644 -3.0377 0
M  V30 1142 H 197.97 6.42788 -2.55485 0
M  V30 1143 H 198.837 8.12039 -0.792769 0
M  V30 1144 P 202.799 8.91 2.40144e-13 0
M  V30 1145 O 203.019 10.1726 0.733694 0
M  V30 1146 O 203.589 8.73148 -1.23936 0
M  V30 1147 O 203.049 7.66872 0.971405 0
M  V30 1148 C 202.109 7.42309 2.04641 0
M  V30 1149 C 202.839 6.86059 3.24661 0
M  V30 1150 O 203.049 5.42847 3.03646 0
M  V30 1151 C 204.239 7.41196 3.50753 0
M  V30 1152 O 204.629 7.27073 4.86816 0
M  V30 1153 C 205.119 6.5273 2.63741 0
M  V30 1154 C 204.409 5.1842 2.73198 0
M  V30 1155 N 204.459 4.38762 1.4784 0
M  V30 1156 H 201.62 8.36803 2.32493 0
M  V30 1157 H 201.35 6.70197 1.71129 0
M  V30 1158 H 202.217 7.03551 4.13168 0
M  V30 1159 P 206.179 7.20834 5.23717 0
M  V30 1160 O 206.399 7.79853 6.57286 0
M  V30 1161 O 206.969 7.79239 4.12957 0
M  V30 1162 O 206.429 5.63315 5.29344 0
M  V30 1163 C 205.489 4.80255 6.01876 0
M  V30 1164 C 206.219 3.64202 6.65911 0
M  V30 1165 O 206.429 2.60694 5.64732 0
M  V30 1166 C 207.619 3.93473 7.1943 0
M  V30 1167 O 208.009 3.02071 8.21205 0
M  V30 1168 C 208.499 3.73047 5.97036 0
M  V30 1169 C 207.789 2.58828 5.25741 0
M  V30 1170 N 207.839 2.68068 3.77503 0
M  V30 1171 C 207.759 3.79715 2.96723 0
M  V30 1172 N 207.839 3.5377 1.68852 0
M  V30 1173 C 207.979 2.15054 1.63254 0
M  V30 1174 C 208.109 1.28964 0.518571 0
M  V30 1175 O 208.129 1.56826 -0.679156 0
M  V30 1176 N 208.229 -0.0538097 0.918425 0
M  V30 1177 C 208.229 -0.494275 2.22578 0
M  V30 1178 N 208.359 -1.81086 2.40434 0
M  V30 1179 N 208.099 0.313645 3.27502 0
M  V30 1180 C 207.979 1.61829 2.91033 0
M  V30 1181 H 205 5.40332 6.79951 0
M  V30 1182 H 204.73 4.41613 5.32378 0
M  V30 1183 H 205.597 3.26331 7.47797 0
M  V30 1184 H 208.252 1.63422 5.56814 0
M  V30 1185 H 208.531 4.63374 5.34244 0
M  V30 1186 H 209.523 3.44728 6.25838 0
M  V30 1187 H 207.689 4.96652 7.57263 0
M  V30 1188 H 207.64 4.80617 3.3614 0
M  V30 1189 H 208.322 -0.742702 0.199384 0
M  V30 1190 H 208.359 -2.20598 3.35588 0
M  V30 1191 H 208.46 -2.43518 1.58945 0
M  V30 1192 P 209.559 2.75334 8.47391 0
M  V30 1193 O 209.779 2.44571 9.90142 0
M  V30 1194 O 210.349 3.87688 7.92115 0
M  V30 1195 O 209.809 1.4459 7.59357 0
M  V30 1196 C 208.869 0.347608 7.69215 0
M  V30 1197 C 209.599 -0.96767 7.52806 0
M  V30 1198 O 209.809 -1.21036 6.1011 0
M  V30 1199 C 210.999 -1.04544 8.13308 0
M  V30 1200 O 211.389 -2.38311 8.41922 0
M  V30 1201 C 211.879 -0.491279 7.02284 0
M  V30 1202 C 211.169 -0.996264 5.77469 0
M  V30 1203 N 211.219 -0.0501916 4.62973 0
M  V30 1204 H 208.38 0.374722 8.67691 0
M  V30 1205 H 208.11 0.443485 6.90277 0
M  V30 1206 H 208.977 -1.75537 7.96793 0
M  V30 1207 P 212.939 -2.75334 8.47391 0
M  V30 1208 O 213.159 -3.84128 9.44797 0
M  V30 1209 O 213.729 -1.51947 8.68712 0
M  V30 1210 O 213.189 -3.29363 6.99321 0
M  V30 1211 C 212.249 -4.24011 6.4274 0
M  V30 1212 C 212.979 -5.20775 5.52155 0
M  V30 1213 O 213.189 -4.56534 4.22446 0
M  V30 1214 C 214.379 -5.62629 5.96531 0
M  V30 1215 O 214.769 -6.87667 5.41053 0
M  V30 1216 C 215.259 -4.52537 5.39283 0
M  V30 1217 C 214.549 -4.20027 4.08623 0
M  V30 1218 N 214.599 -2.76189 3.71603 0
M  V30 1219 H 211.76 -4.797 7.24003 0
M  V30 1220 H 211.49 -3.69856 5.84513 0
M  V30 1221 H 212.357 -6.10356 5.41441 0
M  V30 1222 P 216.319 -7.20834 5.23717 0
M  V30 1223 O 216.539 -8.66104 5.38572 0
M  V30 1224 O 217.109 -6.33544 6.1349 0
M  V30 1225 O 216.569 -6.7751 3.72168 0
M  V30 1226 C 215.629 -7.20825 2.7076 0
M  V30 1227 C 216.359 -7.45864 1.40599 0
M  V30 1228 O 216.569 -6.17651 0.734225 0
M  V30 1229 C 217.759 -8.05808 1.51899 0
M  V30 1230 O 218.149 -8.74358 0.335205 0
M  V30 1231 C 218.639 -6.83093 1.70294 0
M  V30 1232 C 217.929 -5.79992 0.836974 0
M  V30 1233 N 217.979 -4.41864 1.38293 0
M  V30 1234 H 215.14 -8.13644 3.0377 0
M  V30 1235 H 214.87 -6.42788 2.55485 0
M  V30 1236 H 215.737 -8.12039 0.792769 0
M  V30 1237 P 219.699 -8.91 -3.97326e-13 0
M  V30 1238 O 219.919 -10.1736 -0.733766 0
M  V30 1239 O 220.489 -8.73247 1.2395 0
M  V30 1240 O 219.949 -7.66872 -0.971405 0
M  V30 1241 C 219.009 -7.42212 -2.04614 0
M  V30 1242 C 219.739 -6.86059 -3.24661 0
M  V30 1243 O 219.949 -5.42847 -3.03646 0
M  V30 1244 C 221.139 -7.41196 -3.50753 0
M  V30 1245 O 221.529 -7.27073 -4.86816 0
M  V30 1246 C 222.019 -6.5273 -2.63741 0
M  V30 1247 C 221.309 -5.1842 -2.73198 0
M  V30 1248 N 221.359 -4.38668 -1.47808 0
M  V30 1249 C 221.509 -3.02239 -1.60048 0
M  V30 1250 O 221.599 -2.46459 -2.67869 0
M  V30 1251 N 221.549 -2.32436 -0.408571 0
M  V30 1252 C 221.459 -2.85471 0.854993 0
M  V30 1253 C 221.309 -4.28918 0.887335 0
M  V30 1254 C 221.259 -5.00349 -0.255399 0
M  V30 1255 H 218.519 -8.36803 -2.32493 0
M  V30 1256 H 218.25 -6.701 -1.71105 0
M  V30 1257 H 219.117 -7.03551 -4.13168 0
M  V30 1258 H 221.772 -4.59773 -3.53894 0
M  V30 1259 H 222.051 -6.88995 -1.59871 0
M  V30 1260 H 223.043 -6.46749 -3.03687 0
M  V30 1261 H 221.209 -8.46908 -3.20714 0
M  V30 1262 H 221.138 -6.08548 -0.206986 0
M  V30 1263 P 223.079 -7.20834 -5.23717 0
M  V30 1264 O 223.299 -7.80006 -6.57415 0
M  V30 1265 O 223.869 -7.79416 -4.13051 0
M  V30 1266 O 223.329 -5.63315 -5.29344 0
M  V30 1267 C 222.389 -4.80318 -6.01954 0
M  V30 1268 C 223.119 -3.64202 -6.65911 0
M  V30 1269 O 223.329 -2.60736 -5.64823 0
M  V30 1270 C 224.519 -3.93521 -7.19518 0
M  V30 1271 O 224.909 -3.02071 -8.21205 0
M  V30 1272 C 225.399 -3.73047 -5.97036 0
M  V30 1273 C 224.689 -2.58828 -5.25741 0
M  V30 1274 N 224.739 -2.68068 -3.77503 0
M  V30 1275 H 221.901 -5.40394 -6.8003 0
M  V30 1276 H 221.629 -4.41741 -5.32532 0
M  V30 1277 H 222.497 -3.26371 -7.47889 0
M  V30 1278 H 225.152 -1.64007 -5.56746 0
M  V30 1279 H 225.432 -4.63439 -5.3432 0
M  V30 1280 H 226.423 -3.44776 -6.25925 0
M  V30 1281 H 224.589 -4.96707 -7.57347 0
M  V30 1282 P 226.459 -2.75334 -8.47391 0
M  V30 1283 O 226.679 -2.44571 -9.90142 0
M  V30 1284 O 227.249 -3.87688 -7.92115 0
M  V30 1285 O 226.709 -1.4459 -7.59357 0
M  V30 1286 C 225.769 -0.347608 -7.69215 0
M  V30 1287 C 226.499 0.96767 -7.52806 0
M  V30 1288 O 226.709 1.21036 -6.1011 0
M  V30 1289 C 227.899 1.04544 -8.13308 0
M  V30 1290 O 228.289 2.38311 -8.41922 0
M  V30 1291 C 228.779 0.491279 -7.02284 0
M  V30 1292 C 228.069 0.996264 -5.77469 0
M  V30 1293 N 228.119 0.0501916 -4.62973 0
M  V30 1294 C 228.039 -1.32786 -4.63244 0
M  V30 1295 N 228.119 -1.86957 -3.44545 0
M  V30 1296 C 228.259 -0.780241 -2.58481 0
M  V30 1297 C 228.389 -0.738536 -1.17757 0
M  V30 1298 O 228.409 -1.66794 -0.372349 0
M  V30 1299 N 228.509 0.58337 -0.711393 0
M  V30 1300 C 228.509 1.70816 -1.51017 0
M  V30 1301 N 228.639 2.87826 -0.880757 0
M  V30 1302 N 228.379 1.67126 -2.8339 0
M  V30 1303 C 228.259 0.401421 -3.30572 0
M  V30 1304 H 225.28 -0.374722 -8.67691 0
M  V30 1305 H 225.01 -0.443485 -6.90277 0
M  V30 1306 H 225.877 1.75537 -7.96793 0
M  V30 1307 H 228.532 1.95076 -5.46529 0
M  V30 1308 H 228.811 -0.608565 -7.04577 0
M  V30 1309 H 229.803 0.889672 -7.08939 0
M  V30 1310 H 227.969 0.43308 -9.04564 0
M  V30 1311 H 227.92 -1.91249 -5.54442 0
M  V30 1312 H 228.602 0.718054 0.275244 0
M  V30 1313 H 228.639 3.75721 -1.41832 0
M  V30 1314 H 228.74 2.90436 0.145468 0
M  V30 1315 P 229.839 2.75334 -8.47391 0
M  V30 1316 O 230.059 3.84128 -9.44797 0
M  V30 1317 O 230.629 1.51947 -8.68712 0
M  V30 1318 O 230.089 3.29363 -6.99321 0
M  V30 1319 C 229.149 4.24011 -6.4274 0
M  V30 1320 C 229.879 5.20775 -5.52155 0
M  V30 1321 O 230.089 4.56534 -4.22446 0
M  V30 1322 C 231.279 5.62629 -5.96531 0
M  V30 1323 O 231.669 6.87667 -5.41053 0
M  V30 1324 C 232.159 4.52537 -5.39283 0
M  V30 1325 C 231.449 4.20027 -4.08623 0
M  V30 1326 N 231.499 2.76189 -3.71603 0
M  V30 1327 H 228.66 4.797 -7.24003 0
M  V30 1328 H 228.39 3.69856 -5.84513 0
M  V30 1329 H 229.257 6.10356 -5.41441 0
M  V30 1330 P 233.219 7.20834 -5.23717 0
M  V30 1331 O 233.439 8.66104 -5.38572 0
M  V30 1332 O 234.009 6.33544 -6.1349 0
M  V30 1333 O 233.469 6.7751 -3.72168 0
M  V30 1334 C 232.529 7.20825 -2.7076 0
M  V30 1335 C 233.259 7.45864 -1.40599 0
M  V30 1336 O 233.469 6.17651 -0.734225 0
M  V30 1337 C 234.659 8.05808 -1.51899 0
M  V30 1338 O 235.049 8.74358 -0.335205 0
M  V30 1339 C 235.539 6.83093 -1.70294 0
M  V30 1340 C 234.829 5.79992 -0.836974 0
M  V30 1341 N 234.879 4.41864 -1.38293 0
M  V30 1342 C 234.799 3.99538 -2.69438 0
M  V30 1343 N 234.879 2.69909 -2.84277 0
M  V30 1344 C 235.019 2.21719 -1.5408 0
M  V30 1345 C 235.149 0.891712 -1.06628 0
M  V30 1346 O 235.169 -0.161298 -1.70137 0
M  V30 1347 N 235.269 0.856846 0.334985 0
M  V30 1348 C 235.269 1.9641 1.15789 0
M  V30 1349 N 235.399 1.72708 2.46522 0
M  V30 1350 N 235.139 3.21165 0.713741 0
M  V30 1351 C 235.019 3.26797 -0.639748 0
M  V30 1352 H 232.04 8.13644 -3.0377 0
M  V30 1353 H 231.77 6.42788 -2.55485 0
M  V30 1354 H 232.637 8.12039 -0.792769 0
M  V30 1355 H 235.292 5.80061 0.166416 0
M  V30 1356 H 235.571 6.51287 -2.75604 0
M  V30 1357 H 236.563 7.01734 -1.34462 0
M  V30 1358 H 234.729 8.73674 -2.38337 0
M  V30 1359 H 234.68 4.68207 -3.53221 0
M  V30 1360 H 235.362 -0.0398818 0.767965 0
M  V30 1361 H 235.399 2.50995 3.13503 0
M  V30 1362 H 235.5 0.759148 2.80716 0
M  V30 1363 P 236.599 8.91 5.54508e-13 0
M  V30 1364 O 236.819 10.1726 0.733694 0
M  V30 1365 O 237.389 8.73148 -1.23936 0
M  V30 1366 O 236.849 7.66872 0.971405 0
M  V30 1367 C 235.909 7.42309 2.04641 0
M  V30 1368 C 236.639 6.86059 3.24661 0
M  V30 1369 O 236.849 5.42847 3.03646 0
M  V30 1370 C 238.039 7.41196 3.50753 0
M  V30 1371 O 238.429 7.27073 4.86816 0
M  V30 1372 C 238.919 6.5273 2.63741 0
M  V30 1373 C 238.209 5.1842 2.73198 0
M  V30 1374 N 238.259 4.38762 1.4784 0
M  V30 1375 H 235.42 8.36803 2.32493 0
M  V30 1376 H 235.15 6.70197 1.71129 0
M  V30 1377 H 236.017 7.03551 4.13168 0
M  V30 1378 P 239.979 7.20834 5.23717 0
M  V30 1379 O 240.199 7.80006 6.57415 0
M  V30 1380 O 240.769 7.79416 4.13051 0
M  V30 1381 O 240.229 5.63315 5.29344 0
M  V30 1382 C 239.289 4.80318 6.01954 0
M  V30 1383 C 240.019 3.64202 6.65911 0
M  V30 1384 O 240.229 2.60736 5.64823 0
M  V30 1385 C 241.419 3.93521 7.19518 0
M  V30 1386 O 241.809 3.02071 8.21205 0
M  V30 1387 C 242.299 3.73047 5.97036 0
M  V30 1388 C 241.589 2.58828 5.25741 0
M  V30 1389 N 241.639 2.68068 3.77503 0
M  V30 1390 C 241.559 3.80474 2.99159 0
M  V30 1391 N 241.629 3.55622 1.71925 0
M  V30 1392 C 241.779 2.1832 1.65733 0
M  V30 1393 C 241.909 1.28842 0.572777 0
M  V30 1394 N 241.919 1.66875 -0.70098 0
M  V30 1395 N 242.029 -0.016788 0.859836 0
M  V30 1396 C 242.019 -0.398145 2.13316 0
M  V30 1397 N 241.899 0.328224 3.22333 0
M  V30 1398 C 241.779 1.62992 2.90383 0
M  V30 1399 H 238.801 5.40394 6.8003 0
M  V30 1400 H 238.529 4.41741 5.32532 0
M  V30 1401 H 239.397 3.26371 7.47889 0
M  V30 1402 H 242.052 1.64007 5.56746 0
M  V30 1403 H 242.332 4.63439 5.3432 0
M  V30 1404 H 243.323 3.44776 6.25925 0
M  V30 1405 H 241.489 4.96707 7.57347 0
M  V30 1406 H 241.448 4.8089 3.39924 0
M  V30 1407 H 241.829 2.66547 -0.941919 0
M  V30 1408 H 242.018 0.965341 -1.44766 0
M  V30 1409 H 242.126 -1.46427 2.29697 0
M  V30 1410 P 243.359 2.75334 8.47391 0
M  V30 1411 O 243.579 2.44619 9.90336 0
M  V30 1412 O 244.149 3.87776 7.92294 0
M  V30 1413 O 243.609 1.4459 7.59357 0
M  V30 1414 C 242.669 0.347653 7.69315 0
M  V30 1415 C 243.399 -0.96767 7.52806 0
M  V30 1416 O 243.609 -1.21055 6.10208 0
M  V30 1417 C 244.799 -1.04557 8.13408 0
M  V30 1418 O 245.189 -2.38311 8.41922 0
M  V30 1419 C 245.679 -0.491279 7.02284 0
M  V30 1420 C 244.969 -0.996264 5.77469 0
M  V30 1421 N 245.019 -0.0501916 4.62973 0
M  V30 1422 H 242.181 0.374765 8.67791 0
M  V30 1423 H 241.909 0.443613 6.90476 0
M  V30 1424 H 242.777 -1.75559 7.96891 0
M  V30 1425 H 245.432 -1.94563 5.46818 0
M  V30 1426 H 245.712 0.608651 7.04676 0
M  V30 1427 H 246.703 -0.889796 7.09039 0
M  V30 1428 H 244.869 -0.433128 9.04664 0
M  V30 1429 P 246.739 -2.75334 8.47391 0
M  V30 1430 O 246.959 -3.84128 9.44797 0
M  V30 1431 O 247.529 -1.51947 8.68712 0
M  V30 1432 O 246.989 -3.29363 6.99321 0
M  V30 1433 C 246.049 -4.24011 6.4274 0
M  V30 1434 C 246.779 -5.20775 5.52155 0
M  V30 1435 O 246.989 -4.56534 4.22446 0
M  V30 1436 C 248.179 -5.62629 5.96531 0
M  V30 1437 O 248.569 -6.87667 5.41053 0
M  V30 1438 C 249.059 -4.52537 5.39283 0
M  V30 1439 C 248.349 -4.20027 4.08623 0
M  V30 1440 N 248.399 -2.76189 3.71603 0
M  V30 1441 C 248.319 -1.64862 4.52822 0
M  V30 1442 N 248.399 -0.512671 3.88633 0
M  V30 1443 C 248.539 -0.888083 2.54977 0
M  V30 1444 C 248.669 -0.094668 1.38677 0
M  V30 1445 O 248.689 1.13053 1.28163 0
M  V30 1446 N 248.789 -0.890102 0.232633 0
M  V30 1447 C 248.789 -2.26958 0.21772 0
M  V30 1448 N 248.919 -2.84626 -0.97925 0
M  V30 1449 N 248.659 -3.0178 1.31033 0
M  V30 1450 C 248.539 -2.26781 2.43843 0
M  V30 1451 H 245.56 -4.797 7.24003 0
M  V30 1452 H 245.29 -3.69856 5.84513 0
M  V30 1453 H 246.157 -6.10356 5.41441 0
M  V30 1454 H 248.812 -4.79061 3.27488 0
M  V30 1455 H 249.091 -3.64906 6.05785 0
M  V30 1456 H 250.083 -4.8868 5.2125 0
M  V30 1457 H 248.249 -5.66726 7.06352 0
M  V30 1458 H 248.2 -1.71169 5.60966 0
M  V30 1459 H 248.882 -0.419134 -0.644739 0
M  V30 1460 H 248.919 -3.87332 -1.06098 0
M  V30 1461 H 249.02 -2.26417 -1.82483 0
M  V30 1462 P 250.119 -7.20834 5.23717 0
M  V30 1463 O 250.339 -8.66104 5.38572 0
M  V30 1464 O 250.909 -6.33544 6.1349 0
M  V30 1465 O 250.369 -6.7751 3.72168 0
M  V30 1466 C 249.429 -7.20825 2.7076 0
M  V30 1467 C 250.159 -7.45864 1.40599 0
M  V30 1468 O 250.369 -6.17651 0.734225 0
M  V30 1469 C 251.559 -8.05808 1.51899 0
M  V30 1470 O 251.949 -8.74358 0.335205 0
M  V30 1471 C 252.439 -6.83093 1.70294 0
M  V30 1472 C 251.729 -5.79992 0.836974 0
M  V30 1473 N 251.779 -4.41864 1.38293 0
M  V30 1474 H 248.94 -8.13644 3.0377 0
M  V30 1475 H 248.67 -6.42788 2.55485 0
M  V30 1476 H 249.537 -8.12039 0.792769 0
M  V30 1477 P 253.498 -8.91 -7.1169e-13 0
M  V30 1478 O 253.718 -10.1746 -0.733838 0
M  V30 1479 O 254.288 -8.73346 1.23964 0
M  V30 1480 O 253.748 -7.66872 -0.971405 0
M  V30 1481 C 252.808 -7.42405 -2.04668 0
M  V30 1482 C 253.538 -6.86059 -3.24661 0
M  V30 1483 O 253.748 -5.42934 -3.03695 0
M  V30 1484 C 254.938 -7.41287 -3.50796 0
M  V30 1485 O 255.328 -7.27073 -4.86816 0
M  V30 1486 C 255.818 -6.5273 -2.63741 0
M  V30 1487 C 255.108 -5.1842 -2.73198 0
M  V30 1488 N 255.158 -4.38762 -1.4784 0
M  V30 1489 C 255.078 -4.83651 -0.183876 0
M  V30 1490 N 255.148 -3.88759 0.699393 0
M  V30 1491 C 255.298 -2.7404 -0.0575568 0
M  V30 1492 C 255.428 -1.37902 0.293928 0
M  V30 1493 N 255.438 -0.938021 1.54797 0
M  V30 1494 N 255.548 -0.491817 -0.70549 0
M  V30 1495 C 255.538 -0.931735 -1.95979 0
M  V30 1496 N 255.418 -2.16017 -2.41481 0
M  V30 1497 C 255.298 -3.02547 -1.39121 0
M  V30 1498 H 252.32 -8.36899 -2.3252 0
M  V30 1499 H 252.048 -6.70391 -1.71179 0
M  V30 1500 H 252.916 -7.03638 -4.13219 0
M  V30 1501 H 255.571 -4.59931 -3.54016 0
M  V30 1502 H 255.851 -6.88995 -1.59871 0
M  V30 1503 H 256.842 -6.4684 -3.0373 0
M  V30 1504 H 255.008 -8.47002 -3.20749 0
M  V30 1505 H 254.967 -5.8885 0.0765548 0
M  V30 1506 H 255.348 -1.60276 2.32875 0
M  V30 1507 H 255.537 0.0699355 1.73859 0
M  V30 1508 H 255.645 -0.165507 -2.71897 0
M  V30 1509 P 256.878 -7.20834 -5.23717 0
M  V30 1510 O 257.098 -7.79853 -6.57286 0
M  V30 1511 O 257.668 -7.79239 -4.12957 0
M  V30 1512 O 257.128 -5.63315 -5.29344 0
M  V30 1513 C 256.188 -4.80255 -6.01876 0
M  V30 1514 C 256.918 -3.64202 -6.65911 0
M  V30 1515 O 257.128 -2.60694 -5.64732 0
M  V30 1516 C 258.318 -3.93473 -7.1943 0
M  V30 1517 O 258.708 -3.02071 -8.21205 0
M  V30 1518 C 259.198 -3.73047 -5.97036 0
M  V30 1519 C 258.488 -2.58828 -5.25741 0
M  V30 1520 N 258.538 -2.68068 -3.77503 0
M  V30 1521 H 255.699 -5.40332 -6.79951 0
M  V30 1522 H 255.429 -4.41613 -5.32378 0
M  V30 1523 H 256.296 -3.26331 -7.47797 0
M  V30 1524 P 260.258 -2.75334 -8.47391 0
M  V30 1525 O 260.478 -2.44571 -9.90142 0
M  V30 1526 O 261.048 -3.87688 -7.92115 0
M  V30 1527 O 260.508 -1.4459 -7.59357 0
M  V30 1528 C 259.568 -0.347608 -7.69215 0
M  V30 1529 C 260.298 0.96767 -7.52806 0
M  V30 1530 O 260.508 1.21036 -6.1011 0
M  V30 1531 C 261.698 1.04544 -8.13308 0
M  V30 1532 O 262.088 2.38311 -8.41922 0
M  V30 1533 C 262.578 0.491279 -7.02284 0
M  V30 1534 C 261.868 0.996264 -5.77469 0
M  V30 1535 N 261.918 0.0501916 -4.62973 0
M  V30 1536 H 259.079 -0.374722 -8.67691 0
M  V30 1537 H 258.809 -0.443485 -6.90277 0
M  V30 1538 H 259.676 1.75537 -7.96793 0
M  V30 1539 P 263.638 2.75334 -8.47391 0
M  V30 1540 O 263.858 3.84128 -9.44797 0
M  V30 1541 O 264.428 1.51947 -8.68712 0
M  V30 1542 O 263.888 3.29363 -6.99321 0
M  V30 1543 C 262.948 4.24011 -6.4274 0
M  V30 1544 C 263.678 5.20775 -5.52155 0
M  V30 1545 O 263.888 4.56534 -4.22446 0
M  V30 1546 C 265.078 5.62629 -5.96531 0
M  V30 1547 O 265.468 6.87667 -5.41053 0
M  V30 1548 C 265.958 4.52537 -5.39283 0
M  V30 1549 C 265.248 4.20027 -4.08623 0
M  V30 1550 N 265.298 2.76189 -3.71603 0
M  V30 1551 H 262.459 4.797 -7.24003 0
M  V30 1552 H 262.189 3.69856 -5.84513 0
M  V30 1553 H 263.056 6.10356 -5.41441 0
M  V30 1554 P 267.018 7.20834 -5.23717 0
M  V30 1555 O 267.238 8.66104 -5.38572 0
M  V30 1556 O 267.808 6.33544 -6.1349 0
M  V30 1557 O 267.268 6.7751 -3.72168 0
M  V30 1558 C 266.328 7.20825 -2.7076 0
M  V30 1559 C 267.058 7.45864 -1.40599 0
M  V30 1560 O 267.268 6.17651 -0.734225 0
M  V30 1561 C 268.458 8.05808 -1.51899 0
M  V30 1562 O 268.848 8.74358 -0.335205 0
M  V30 1563 C 269.338 6.83093 -1.70294 0
M  V30 1564 C 268.628 5.79992 -0.836974 0
M  V30 1565 N 268.678 4.41864 -1.38293 0
M  V30 1566 C 268.598 3.99538 -2.69438 0
M  V30 1567 N 268.678 2.69909 -2.84277 0
M  V30 1568 C 268.818 2.21719 -1.5408 0
M  V30 1569 C 268.948 0.891712 -1.06628 0
M  V30 1570 N 269.068 0.856846 0.334985 0
M  V30 1571 C 269.068 1.9641 1.15789 0
M  V30 1572 N 269.198 1.72708 2.46522 0
M  V30 1573 N 268.938 3.21165 0.713741 0
M  V30 1574 C 268.818 3.26797 -0.639748 0
M  V30 1575 H 265.839 8.13644 -3.0377 0
M  V30 1576 H 265.569 6.42788 -2.55485 0
M  V30 1577 H 266.436 8.12039 -0.792769 0
M  V30 1578 P 270.398 8.91 8.68872e-13 0
M  V30 1579 O 270.618 10.1726 0.733694 0
M  V30 1580 O 271.188 8.73148 -1.23936 0
M  V30 1581 O 270.648 7.66872 0.971405 0
M  V30 1582 C 269.708 7.42309 2.04641 0
M  V30 1583 C 270.438 6.86059 3.24661 0
M  V30 1584 O 270.648 5.42847 3.03646 0
M  V30 1585 C 271.838 7.41196 3.50753 0
M  V30 1586 O 272.228 7.27073 4.86816 0
M  V30 1587 C 272.718 6.5273 2.63741 0
M  V30 1588 C 272.008 5.1842 2.73198 0
M  V30 1589 N 272.058 4.38762 1.4784 0
M  V30 1590 H 269.219 8.36803 2.32493 0
M  V30 1591 H 268.949 6.70197 1.71129 0
M  V30 1592 H 269.816 7.03551 4.13168 0
M  V30 1593 P 273.778 7.20834 5.23717 0
M  V30 1594 O 273.998 7.79853 6.57286 0
M  V30 1595 O 274.568 7.79239 4.12957 0
M  V30 1596 O 274.028 5.63315 5.29344 0
M  V30 1597 C 273.088 4.80255 6.01876 0
M  V30 1598 C 273.818 3.64202 6.65911 0
M  V30 1599 O 274.028 2.60694 5.64732 0
M  V30 1600 C 275.218 3.93473 7.1943 0
M  V30 1601 O 275.608 3.02071 8.21205 0
M  V30 1602 C 276.098 3.73047 5.97036 0
M  V30 1603 C 275.388 2.58828 5.25741 0
M  V30 1604 N 275.438 2.68068 3.77503 0
M  V30 1605 C 275.358 3.79715 2.96723 0
M  V30 1606 N 275.438 3.5377 1.68852 0
M  V30 1607 C 275.578 2.15054 1.63254 0
M  V30 1608 C 275.708 1.28964 0.518571 0
M  V30 1609 O 275.728 1.56826 -0.679156 0
M  V30 1610 N 275.828 -0.0538097 0.918425 0
M  V30 1611 C 275.828 -0.494275 2.22578 0
M  V30 1612 N 275.958 -1.81086 2.40434 0
M  V30 1613 N 275.698 0.313645 3.27502 0
M  V30 1614 C 275.578 1.61829 2.91033 0
M  V30 1615 H 272.599 5.40332 6.79951 0
M  V30 1616 H 272.329 4.41613 5.32378 0
M  V30 1617 H 273.196 3.26331 7.47797 0
M  V30 1618 H 275.851 1.63422 5.56814 0
M  V30 1619 H 276.13 4.63374 5.34244 0
M  V30 1620 H 277.122 3.44728 6.25838 0
M  V30 1621 H 275.288 4.96652 7.57263 0
M  V30 1622 H 275.239 4.80617 3.3614 0
M  V30 1623 H 275.921 -0.742702 0.199384 0
M  V30 1624 H 275.958 -2.20598 3.35588 0
M  V30 1625 H 276.059 -2.43518 1.58945 0
M  V30 1626 P 277.158 2.75334 8.47391 0
M  V30 1627 O 277.378 2.44571 9.90142 0
M  V30 1628 O 277.948 3.87688 7.92115 0
M  V30 1629 O 277.408 1.4459 7.59357 0
M  V30 1630 C 276.468 0.347608 7.69215 0
M  V30 1631 C 277.198 -0.96767 7.52806 0
M  V30 1632 O 277.408 -1.21036 6.1011 0
M  V30 1633 C 278.598 -1.04544 8.13308 0
M  V30 1634 O 278.988 -2.38311 8.41922 0
M  V30 1635 C 279.478 -0.491279 7.02284 0
M  V30 1636 C 278.768 -0.996264 5.77469 0
M  V30 1637 N 278.818 -0.0501916 4.62973 0
M  V30 1638 H 275.979 0.374722 8.67691 0
M  V30 1639 H 275.709 0.443485 6.90277 0
M  V30 1640 H 276.576 -1.75537 7.96793 0
M  V30 1641 P 280.538 -2.75334 8.47391 0
M  V30 1642 O 280.758 -3.84204 9.44982 0
M  V30 1643 O 281.328 -1.51982 8.68909 0
M  V30 1644 O 280.788 -3.29363 6.99321 0
M  V30 1645 C 279.848 -4.24066 6.42823 0
M  V30 1646 C 280.578 -5.20775 5.52155 0
M  V30 1647 O 280.788 -4.56607 4.22514 0
M  V30 1648 C 281.978 -5.62697 5.96604 0
M  V30 1649 O 282.368 -6.87667 5.41053 0
M  V30 1650 C 282.858 -4.52537 5.39283 0
M  V30 1651 C 282.148 -4.20027 4.08623 0
M  V30 1652 N 282.198 -2.76189 3.71603 0
M  V30 1653 C 282.118 -1.66944 4.54297 0
M  V30 1654 N 282.188 -0.536169 3.91344 0
M  V30 1655 C 282.338 -0.901569 2.58849 0
M  V30 1656 C 282.468 -0.146599 1.40236 0
M  V30 1657 N 282.478 1.18234 1.37046 0
M  V30 1658 N 282.588 -0.822941 0.249738 0
M  V30 1659 C 282.578 -2.15179 0.280525 0
M  V30 1660 N 282.458 -2.96414 1.30822 0
M  V30 1661 C 282.338 -2.25804 2.44748 0
M  V30 1662 H 279.36 -4.79756 7.24086 0
M  V30 1663 H 279.088 -3.69963 5.84682 0
M  V30 1664 H 279.956 -6.10431 5.41508 0
M  V30 1665 H 282.611 -4.78816 3.28024 0
M  V30 1666 H 282.891 -3.64957 6.05871 0
M  V30 1667 H 283.882 -4.88748 5.21323 0
M  V30 1668 H 282.048 -5.66789 7.0643 0
M  V30 1669 H 282.007 -1.74684 5.62396 0
M  V30 1670 H 282.388 1.71949 2.24394 0
M  V30 1671 H 282.577 1.67511 0.470742 0
M  V30 1672 H 282.685 -2.63704 -0.6828 0
M  V30 1673 P 283.918 -7.20834 5.23717 0
M  V30 1674 O 284.138 -8.66189 5.38625 0
M  V30 1675 O 284.708 -6.33615 6.1356 0
M  V30 1676 O 284.168 -6.7751 3.72168 0
M  V30 1677 C 283.228 -7.20732 2.70725 0
M  V30 1678 C 283.958 -7.45864 1.40599 0
M  V30 1679 O 284.168 -6.17651 0.734225 0
M  V30 1680 C 285.358 -8.05808 1.51899 0
M  V30 1681 O 285.748 -8.74358 0.335205 0
M  V30 1682 C 286.238 -6.83093 1.70294 0
M  V30 1683 C 285.528 -5.79992 0.836974 0
M  V30 1684 N 285.578 -4.41769 1.38263 0
M  V30 1685 C 285.728 -3.38591 0.481702 0
M  V30 1686 O 285.818 -3.56839 -0.718452 0
M  V30 1687 N 285.768 -2.1206 1.03569 0
M  V30 1688 C 285.678 -1.80696 2.36966 0
M  V30 1689 O 285.728 -0.630473 2.74862 0
M  V30 1690 C 285.528 -2.94845 3.23898 0
M  V30 1691 C 285.418 -2.65253 4.70362 0
M  V30 1692 C 285.478 -4.19803 2.73435 0
M  V30 1693 H 282.738 -8.13644 3.0377 0
M  V30 1694 H 282.469 -6.42695 2.55448 0
M  V30 1695 H 283.336 -8.12039 0.792769 0
M  V30 1696 H 285.991 -5.79978 -0.160587 0
M  V30 1697 H 286.27 -6.51379 2.75643 0
M  V30 1698 H 287.262 -7.01734 1.34462 0
M  V30 1699 H 285.428 -8.73674 2.38337 0
M  V30 1700 H 285.357 -5.04492 3.4095 0
M  V30 1701 H 286.387 -2.83924 5.1913 0
M  V30 1702 H 284.65 -3.29824 5.15163 0
M  V30 1703 H 285.138 -1.59723 4.84449 0
M  V30 1704 H 285.874 -1.35644 0.399345 0
M  V30 1705 P 287.298 -8.91 -1.02605e-12 0
M  V30 1706 O 287.518 -10.1726 -0.733694 0
M  V30 1707 O 288.088 -8.73148 1.23936 0
M  V30 1708 O 287.548 -7.66872 -0.971405 0
M  V30 1709 C 286.608 -7.42309 -2.04641 0
M  V30 1710 C 287.338 -6.86059 -3.24661 0
M  V30 1711 O 287.548 -5.42847 -3.03646 0
M  V30 1712 C 288.738 -7.41196 -3.50753 0
M  V30 1713 O 289.128 -7.27073 -4.86816 0
M  V30 1714 C 289.618 -6.5273 -2.63741 0
M  V30 1715 C 288.908 -5.1842 -2.73198 0
M  V30 1716 N 288.958 -4.38762 -1.4784 0
M  V30 1717 H 286.119 -8.36803 -2.32493 0
M  V30 1718 H 285.849 -6.70197 -1.71129 0
M  V30 1719 H 286.716 -7.03551 -4.13168 0
M  V30 1720 P 290.678 -7.20834 -5.23717 0
M  V30 1721 O 290.898 -7.79853 -6.57286 0
M  V30 1722 O 291.468 -7.79239 -4.12957 0
M  V30 1723 O 290.928 -5.63315 -5.29344 0
M  V30 1724 C 289.988 -4.80255 -6.01876 0
M  V30 1725 C 290.718 -3.64202 -6.65911 0
M  V30 1726 O 290.928 -2.60694 -5.64732 0
M  V30 1727 C 292.118 -3.93473 -7.1943 0
M  V30 1728 O 292.508 -3.02071 -8.21205 0
M  V30 1729 C 292.998 -3.73047 -5.97036 0
M  V30 1730 C 292.288 -2.58828 -5.25741 0
M  V30 1731 N 292.338 -2.68068 -3.77503 0
M  V30 1732 H 289.499 -5.40332 -6.79951 0
M  V30 1733 H 289.229 -4.41613 -5.32378 0
M  V30 1734 H 290.096 -3.26331 -7.47797 0
M  V30 1735 P 294.058 -2.75334 -8.47391 0
M  V30 1736 O 294.278 -2.44571 -9.90142 0
M  V30 1737 O 294.848 -3.87688 -7.92115 0
M  V30 1738 O 294.308 -1.4459 -7.59357 0
M  V30 1739 C 293.368 -0.347608 -7.69215 0
M  V30 1740 C 294.098 0.96767 -7.52806 0
M  V30 1741 O 294.308 1.21036 -6.1011 0
M  V30 1742 C 295.498 1.04544 -8.13308 0
M  V30 1743 O 295.888 2.38311 -8.41922 0
M  V30 1744 C 296.378 0.491279 -7.02284 0
M  V30 1745 C 295.668 0.996264 -5.77469 0
M  V30 1746 N 295.718 0.0501916 -4.62973 0
M  V30 1747 H 292.879 -0.374722 -8.67691 0
M  V30 1748 H 292.609 -0.443485 -6.90277 0
M  V30 1749 H 293.476 1.75537 -7.96793 0
M  V30 1750 P 297.438 2.75334 -8.47391 0
M  V30 1751 O 297.658 3.84128 -9.44797 0
M  V30 1752 O 298.228 1.51947 -8.68712 0
M  V30 1753 O 297.688 3.29363 -6.99321 0
M  V30 1754 C 296.748 4.24011 -6.4274 0
M  V30 1755 C 297.478 5.20775 -5.52155 0
M  V30 1756 O 297.688 4.56534 -4.22446 0
M  V30 1757 C 298.878 5.62629 -5.96531 0
M  V30 1758 O 299.268 6.87667 -5.41053 0
M  V30 1759 C 299.758 4.52537 -5.39283 0
M  V30 1760 C 299.048 4.20027 -4.08623 0
M  V30 1761 N 299.098 2.76189 -3.71603 0
M  V30 1762 H 296.259 4.797 -7.24003 0
M  V30 1763 H 295.989 3.69856 -5.84513 0
M  V30 1764 H 296.856 6.10356 -5.41441 0
M  V30 1765 P 300.818 7.20834 -5.23717 0
M  V30 1766 O 301.038 8.66104 -5.38572 0
M  V30 1767 O 301.608 6.33544 -6.1349 0
M  V30 1768 O 301.068 6.7751 -3.72168 0
M  V30 1769 C 300.128 7.20825 -2.7076 0
M  V30 1770 C 300.858 7.45864 -1.40599 0
M  V30 1771 O 301.068 6.17651 -0.734225 0
M  V30 1772 C 302.258 8.05808 -1.51899 0
M  V30 1773 O 302.648 8.74358 -0.335205 0
M  V30 1774 C 303.138 6.83093 -1.70294 0
M  V30 1775 C 302.428 5.79992 -0.836974 0
M  V30 1776 N 302.478 4.41864 -1.38293 0
M  V30 1777 H 299.639 8.13644 -3.0377 0
M  V30 1778 H 299.369 6.42788 -2.55485 0
M  V30 1779 H 300.236 8.12039 -0.792769 0
M  V30 1780 P 304.198 8.91 1.18324e-12 0
M  V30 1781 O 304.418 10.1726 0.733694 0
M  V30 1782 O 304.988 8.73148 -1.23936 0
M  V30 1783 O 304.448 7.66872 0.971405 0
M  V30 1784 C 303.508 7.42309 2.04641 0
M  V30 1785 C 304.238 6.86059 3.24661 0
M  V30 1786 O 304.448 5.42847 3.03646 0
M  V30 1787 C 305.638 7.41196 3.50753 0
M  V30 1788 O 306.028 7.27073 4.86816 0
M  V30 1789 C 306.518 6.5273 2.63741 0
M  V30 1790 C 305.808 5.1842 2.73198 0
M  V30 1791 N 305.858 4.38762 1.4784 0
M  V30 1792 H 303.019 8.36803 2.32493 0
M  V30 1793 H 302.749 6.70197 1.71129 0
M  V30 1794 H 303.616 7.03551 4.13168 0
M  V30 1795 P 307.578 7.20834 5.23717 0
M  V30 1796 O 307.798 7.80006 6.57415 0
M  V30 1797 O 308.368 7.79416 4.13051 0
M  V30 1798 O 307.828 5.63315 5.29344 0
M  V30 1799 C 306.888 4.80318 6.01954 0
M  V30 1800 C 307.618 3.64202 6.65911 0
M  V30 1801 O 307.828 2.60736 5.64823 0
M  V30 1802 C 309.018 3.93521 7.19518 0
M  V30 1803 O 309.408 3.02071 8.21205 0
M  V30 1804 C 309.898 3.73047 5.97036 0
M  V30 1805 C 309.188 2.58828 5.25741 0
M  V30 1806 N 309.238 2.68068 3.77503 0
M  V30 1807 H 306.4 5.40394 6.8003 0
M  V30 1808 H 306.128 4.41741 5.32532 0
M  V30 1809 H 306.996 3.26371 7.47889 0
M  V30 1810 H 309.651 1.64007 5.56746 0
M  V30 1811 H 309.931 4.63439 5.3432 0
M  V30 1812 H 310.922 3.44776 6.25925 0
M  V30 1813 H 309.088 4.96707 7.57347 0
M  V30 1814 P 310.958 2.75334 8.47391 0
M  V30 1815 O 311.178 2.44595 9.90239 0
M  V30 1816 O 311.748 3.87732 7.92204 0
M  V30 1817 O 311.208 1.4459 7.59357 0
M  V30 1818 C 310.268 0.347563 7.69115 0
M  V30 1819 C 310.998 -0.96767 7.52806 0
M  V30 1820 O 311.208 -1.21036 6.1011 0
M  V30 1821 C 312.398 -1.04544 8.13308 0
M  V30 1822 O 312.788 -2.38311 8.41922 0
M  V30 1823 C 313.278 -0.491279 7.02284 0
M  V30 1824 C 312.568 -0.996264 5.77469 0
M  V30 1825 N 312.618 -0.0501808 4.62873 0
M  V30 1826 C 312.768 -0.588177 3.36904 0
M  V30 1827 O 312.858 -1.78598 3.17173 0
M  V30 1828 N 312.808 0.329694 2.33686 0
M  V30 1829 C 312.718 1.6953 2.45079 0
M  V30 1830 C 312.568 2.16933 3.80505 0
M  V30 1831 C 312.518 1.30326 4.83752 0
M  V30 1832 H 309.778 0.374722 8.67691 0
M  V30 1833 H 309.509 0.443421 6.90177 0
M  V30 1834 H 310.376 -1.75537 7.96793 0
M  V30 1835 H 313.031 -1.94496 5.46629 0
M  V30 1836 H 313.31 0.608651 7.04676 0
M  V30 1837 H 314.302 -0.889672 7.08939 0
M  V30 1838 H 312.468 -0.43308 9.04564 0
M  V30 1839 H 312.397 1.68366 5.8516 0
M  V30 1840 P 314.338 -2.75334 8.47391 0
M  V30 1841 O 314.558 -3.84128 9.44797 0
M  V30 1842 O 315.128 -1.51947 8.68712 0
M  V30 1843 O 314.588 -3.29363 6.99321 0
M  V30 1844 C 313.648 -4.24011 6.4274 0
M  V30 1845 C 314.378 -5.20775 5.52155 0
M  V30 1846 O 314.588 -4.56534 4.22446 0
M  V30 1847 C 315.778 -5.62629 5.96531 0
M  V30 1848 O 316.168 -6.87667 5.41053 0
M  V30 1849 C 316.658 -4.52537 5.39283 0
M  V30 1850 C 315.948 -4.20027 4.08623 0
M  V30 1851 N 315.998 -2.76189 3.71603 0
M  V30 1852 H 313.159 -4.797 7.24003 0
M  V30 1853 H 312.889 -3.69856 5.84513 0
M  V30 1854 H 313.756 -6.10356 5.41441 0
M  V30 1855 P 317.718 -7.20834 5.23717 0
M  V30 1856 O 317.938 -8.66104 5.38572 0
M  V30 1857 O 318.508 -6.33544 6.1349 0
M  V30 1858 O 317.968 -6.7751 3.72168 0
M  V30 1859 C 317.028 -7.20825 2.7076 0
M  V30 1860 C 317.758 -7.45864 1.40599 0
M  V30 1861 O 317.968 -6.17651 0.734225 0
M  V30 1862 C 319.158 -8.05808 1.51899 0
M  V30 1863 O 319.548 -8.74358 0.335205 0
M  V30 1864 C 320.038 -6.83093 1.70294 0
M  V30 1865 C 319.328 -5.79992 0.836974 0
M  V30 1866 N 319.378 -4.41864 1.38293 0
M  V30 1867 H 316.539 -8.13644 3.0377 0
M  V30 1868 H 316.269 -6.42788 2.55485 0
M  V30 1869 H 317.136 -8.12039 0.792769 0
M  V30 1870 P 321.098 -8.91 -1.34042e-12 0
M  V30 1871 O 321.318 -10.1726 -0.733694 0
M  V30 1872 O 321.888 -8.73148 1.23936 0
M  V30 1873 O 321.348 -7.66872 -0.971405 0
M  V30 1874 C 320.408 -7.42309 -2.04641 0
M  V30 1875 C 321.138 -6.86059 -3.24661 0
M  V30 1876 O 321.348 -5.42847 -3.03646 0
M  V30 1877 C 322.538 -7.41196 -3.50753 0
M  V30 1878 O 322.928 -7.27073 -4.86816 0
M  V30 1879 C 323.418 -6.5273 -2.63741 0
M  V30 1880 C 322.708 -5.1842 -2.73198 0
M  V30 1881 N 322.758 -4.38762 -1.4784 0
M  V30 1882 H 319.919 -8.36803 -2.32493 0
M  V30 1883 H 319.649 -6.70197 -1.71129 0
M  V30 1884 H 320.516 -7.03551 -4.13168 0
M  V30 1885 P 324.478 -7.20834 -5.23717 0
M  V30 1886 O 324.698 -7.79853 -6.57286 0
M  V30 1887 O 325.268 -7.79239 -4.12957 0
M  V30 1888 O 324.728 -5.63315 -5.29344 0
M  V30 1889 C 323.788 -4.80255 -6.01876 0
M  V30 1890 C 324.518 -3.64202 -6.65911 0
M  V30 1891 O 324.728 -2.60694 -5.64732 0
M  V30 1892 C 325.918 -3.93473 -7.1943 0
M  V30 1893 O 326.308 -3.02071 -8.21205 0
M  V30 1894 C 326.798 -3.73047 -5.97036 0
M  V30 1895 C 326.088 -2.58828 -5.25741 0
M  V30 1896 N 326.138 -2.68068 -3.77503 0
M  V30 1897 H 323.299 -5.40332 -6.79951 0
M  V30 1898 H 323.029 -4.41613 -5.32378 0
M  V30 1899 H 323.896 -3.26331 -7.47797 0
M  V30 1900 P 327.858 -2.75334 -8.47391 0
M  V30 1901 O 328.078 -2.44571 -9.90142 0
M  V30 1902 O 328.648 -3.87688 -7.92115 0
M  V30 1903 O 328.108 -1.4459 -7.59357 0
M  V30 1904 C 327.168 -0.347608 -7.69215 0
M  V30 1905 C 327.898 0.96767 -7.52806 0
M  V30 1906 O 328.108 1.21036 -6.1011 0
M  V30 1907 C 329.298 1.04544 -8.13308 0
M  V30 1908 O 329.688 2.38311 -8.41922 0
M  V30 1909 C 330.178 0.491279 -7.02284 0
M  V30 1910 C 329.468 0.996264 -5.77469 0
M  V30 1911 N 329.518 0.0501916 -4.62973 0
M  V30 1912 H 326.679 -0.374722 -8.67691 0
M  V30 1913 H 326.409 -0.443485 -6.90277 0
M  V30 1914 H 327.276 1.75537 -7.96793 0
M  V30 1915 P 331.238 2.75334 -8.47391 0
M  V30 1916 O 331.458 3.84166 -9.4489 0
M  V30 1917 O 332.028 1.51964 -8.6881 0
M  V30 1918 O 331.488 3.29363 -6.99321 0
M  V30 1919 C 330.548 4.23956 -6.42656 0
M  V30 1920 C 331.278 5.20775 -5.52155 0
M  V30 1921 O 331.488 4.56534 -4.22446 0
M  V30 1922 C 332.678 5.62629 -5.96531 0
M  V30 1923 O 333.068 6.87667 -5.41053 0
M  V30 1924 C 333.558 4.52537 -5.39283 0
M  V30 1925 C 332.848 4.20027 -4.08623 0
M  V30 1926 N 332.898 2.7613 -3.71522 0
M  V30 1927 C 333.048 2.45612 -2.37989 0
M  V30 1928 O 333.138 3.30919 -1.51621 0
M  V30 1929 N 333.088 1.10684 -2.08435 0
M  V30 1930 C 332.998 0.0690084 -2.9792 0
M  V30 1931 O 333.048 -1.10553 -2.59426 0
M  V30 1932 C 332.848 0.481522 -4.35345 0
M  V30 1933 C 332.738 -0.618778 -5.36443 0
M  V30 1934 C 332.798 1.78906 -4.67968 0
M  V30 1935 H 330.058 4.797 -7.24003 0
M  V30 1936 H 329.789 3.69802 -5.84429 0
M  V30 1937 H 330.656 6.10356 -5.41441 0
M  V30 1938 H 333.311 4.78651 -3.27911 0
M  V30 1939 H 333.59 3.64957 -6.05871 0
M  V30 1940 H 334.582 4.8868 -5.2125 0
M  V30 1941 H 332.748 5.66726 -7.06352 0
M  V30 1942 H 332.677 2.07737 -5.72367 0
M  V30 1943 H 333.707 -0.754375 -5.86871 0
M  V30 1944 H 331.97 -0.359721 -6.10641 0
M  V30 1945 H 332.458 -1.55533 -4.8581 0
M  V30 1946 H 333.194 0.862651 -1.12037 0
M  V30 1947 P 334.618 7.20834 -5.23717 0
M  V30 1948 O 334.838 8.66104 -5.38572 0
M  V30 1949 O 335.408 6.33544 -6.1349 0
M  V30 1950 O 334.868 6.7751 -3.72168 0
M  V30 1951 C 333.928 7.20825 -2.7076 0
M  V30 1952 C 334.658 7.45864 -1.40599 0
M  V30 1953 O 334.868 6.17651 -0.734225 0
M  V30 1954 C 336.058 8.05808 -1.51899 0
M  V30 1955 O 336.448 8.74358 -0.335205 0
M  V30 1956 C 336.938 6.83093 -1.70294 0
M  V30 1957 C 336.228 5.79992 -0.836974 0
M  V30 1958 N 336.278 4.41864 -1.38293 0
M  V30 1959 H 333.439 8.13644 -3.0377 0
M  V30 1960 H 333.169 6.42788 -2.55485 0
M  V30 1961 H 334.036 8.12039 -0.792769 0
M  V30 1962 P 337.998 8.91 1.4976e-12 0
M  V30 1963 O 338.218 10.1726 0.733694 0
M  V30 1964 O 338.788 8.73148 -1.23936 0
M  V30 1965 O 338.248 7.66872 0.971405 0
M  V30 1966 C 337.308 7.42309 2.04641 0
M  V30 1967 C 338.038 6.86059 3.24661 0
M  V30 1968 O 338.248 5.42847 3.03646 0
M  V30 1969 C 339.438 7.41196 3.50753 0
M  V30 1970 O 339.828 7.27073 4.86816 0
M  V30 1971 C 340.318 6.5273 2.63741 0
M  V30 1972 C 339.608 5.1842 2.73198 0
M  V30 1973 N 339.658 4.38762 1.4784 0
M  V30 1974 H 336.819 8.36803 2.32493 0
M  V30 1975 H 336.549 6.70197 1.71129 0
M  V30 1976 H 337.416 7.03551 4.13168 0
M  V30 1977 P 341.378 7.20834 5.23717 0
M  V30 1978 O 341.598 7.79853 6.57286 0
M  V30 1979 O 342.168 7.79239 4.12957 0
M  V30 1980 O 341.628 5.63315 5.29344 0
M  V30 1981 C 340.688 4.80255 6.01876 0
M  V30 1982 C 341.418 3.64202 6.65911 0
M  V30 1983 O 341.628 2.60694 5.64732 0
M  V30 1984 C 342.818 3.93473 7.1943 0
M  V30 1985 O 343.208 3.02071 8.21205 0
M  V30 1986 C 343.698 3.73047 5.97036 0
M  V30 1987 C 342.988 2.58828 5.25741 0
M  V30 1988 N 343.038 2.68068 3.77503 0
M  V30 1989 C 342.958 3.79715 2.96723 0
M  V30 1990 N 343.038 3.5377 1.68852 0
M  V30 1991 C 343.178 2.15054 1.63254 0
M  V30 1992 C 343.308 1.28964 0.518571 0
M  V30 1993 O 343.328 1.56826 -0.679156 0
M  V30 1994 N 343.428 -0.0538097 0.918425 0
M  V30 1995 C 343.428 -0.494275 2.22578 0
M  V30 1996 N 343.558 -1.81086 2.40434 0
M  V30 1997 N 343.298 0.313645 3.27502 0
M  V30 1998 C 343.178 1.61829 2.91033 0
M  V30 1999 H 340.199 5.40332 6.79951 0
M  V30 2000 H 339.929 4.41613 5.32378 0
M  V30 2001 H 340.796 3.26331 7.47797 0
M  V30 2002 H 343.451 1.63422 5.56814 0
M  V30 2003 H 343.73 4.63374 5.34244 0
M  V30 2004 H 344.722 3.44728 6.25838 0
M  V30 2005 H 342.888 4.96652 7.57263 0
M  V30 2006 H 342.839 4.80617 3.3614 0
M  V30 2007 H 343.521 -0.742702 0.199384 0
M  V30 2008 H 343.558 -2.20598 3.35588 0
M  V30 2009 H 343.659 -2.43518 1.58945 0
M  V30 2010 P 344.758 2.75334 8.47391 0
M  V30 2011 O 344.978 2.44571 9.90142 0
M  V30 2012 O 345.548 3.87688 7.92115 0
M  V30 2013 O 345.008 1.4459 7.59357 0
M  V30 2014 C 344.068 0.347608 7.69215 0
M  V30 2015 C 344.798 -0.96767 7.52806 0
M  V30 2016 O 345.008 -1.21036 6.1011 0
M  V30 2017 C 346.198 -1.04544 8.13308 0
M  V30 2018 O 346.588 -2.38311 8.41922 0
M  V30 2019 C 347.078 -0.491279 7.02284 0
M  V30 2020 C 346.368 -0.996264 5.77469 0
M  V30 2021 N 346.418 -0.0501916 4.62973 0
M  V30 2022 H 343.579 0.374722 8.67691 0
M  V30 2023 H 343.309 0.443485 6.90277 0
M  V30 2024 H 344.176 -1.75537 7.96793 0
M  V30 2025 P 348.138 -2.75334 8.47391 0
M  V30 2026 O 348.358 -3.84166 9.4489 0
M  V30 2027 O 348.928 -1.51964 8.6881 0
M  V30 2028 O 348.388 -3.29363 6.99321 0
M  V30 2029 C 347.448 -4.23956 6.42656 0
M  V30 2030 C 348.178 -5.20775 5.52155 0
M  V30 2031 O 348.388 -4.56534 4.22446 0
M  V30 2032 C 349.578 -5.62629 5.96531 0
M  V30 2033 O 349.968 -6.87667 5.41053 0
M  V30 2034 C 350.458 -4.52537 5.39283 0
M  V30 2035 C 349.748 -4.20027 4.08623 0
M  V30 2036 N 349.798 -2.7613 3.71522 0
M  V30 2037 C 349.948 -2.45612 2.37989 0
M  V30 2038 O 350.038 -3.30919 1.51621 0
M  V30 2039 N 349.988 -1.10684 2.08435 0
M  V30 2040 C 349.898 -0.0690084 2.9792 0
M  V30 2041 O 349.948 1.10553 2.59426 0
M  V30 2042 C 349.748 -0.481522 4.35345 0
M  V30 2043 C 349.638 0.618778 5.36443 0
M  V30 2044 C 349.698 -1.78906 4.67968 0
M  V30 2045 H 346.958 -4.797 7.24003 0
M  V30 2046 H 346.689 -3.69802 5.84429 0
M  V30 2047 H 347.556 -6.10356 5.41441 0
M  V30 2048 H 350.211 -4.78651 3.27911 0
M  V30 2049 H 350.49 -3.64957 6.05871 0
M  V30 2050 H 351.482 -4.8868 5.2125 0
M  V30 2051 H 349.648 -5.66726 7.06352 0
M  V30 2052 H 349.577 -2.07737 5.72367 0
M  V30 2053 H 350.607 0.754375 5.86871 0
M  V30 2054 H 348.87 0.359721 6.10641 0
M  V30 2055 H 349.358 1.55533 4.8581 0
M  V30 2056 H 350.094 -0.862651 1.12037 0
M  V30 2057 P 351.518 -7.20834 5.23717 0
M  V30 2058 O 351.738 -8.66104 5.38572 0
M  V30 2059 O 352.308 -6.33544 6.1349 0
M  V30 2060 O 351.768 -6.7751 3.72168 0
M  V30 2061 C 350.828 -7.20825 2.7076 0
M  V30 2062 C 351.558 -7.45864 1.40599 0
M  V30 2063 O 351.768 -6.17651 0.734225 0
M  V30 2064 C 352.958 -8.05808 1.51899 0
M  V30 2065 O 353.348 -8.74358 0.335205 0
M  V30 2066 C 353.838 -6.83093 1.70294 0
M  V30 2067 C 353.128 -5.79992 0.836974 0
M  V30 2068 N 353.178 -4.41864 1.38293 0
M  V30 2069 C 353.098 -3.99538 2.69438 0
M  V30 2070 N 353.178 -2.69909 2.84277 0
M  V30 2071 C 353.318 -2.21719 1.5408 0
M  V30 2072 C 353.448 -0.891712 1.06628 0
M  V30 2073 N 353.568 -0.856846 -0.334985 0
M  V30 2074 C 353.568 -1.9641 -1.15789 0
M  V30 2075 N 353.698 -1.72708 -2.46522 0
M  V30 2076 N 353.438 -3.21165 -0.713741 0
M  V30 2077 C 353.318 -3.26797 0.639748 0
M  V30 2078 H 350.339 -8.13644 3.0377 0
M  V30 2079 H 350.069 -6.42788 2.55485 0
M  V30 2080 H 350.936 -8.12039 0.792769 0
M  V30 2081 P 354.898 -8.91 -1.65478e-12 0
M  V30 2082 O 355.118 -10.1726 -0.733694 0
M  V30 2083 O 355.688 -8.73148 1.23936 0
M  V30 2084 O 355.148 -7.66872 -0.971405 0
M  V30 2085 C 354.208 -7.42309 -2.04641 0
M  V30 2086 C 354.938 -6.86059 -3.24661 0
M  V30 2087 O 355.148 -5.42847 -3.03646 0
M  V30 2088 C 356.338 -7.41196 -3.50753 0
M  V30 2089 O 356.728 -7.27073 -4.86816 0
M  V30 2090 C 357.218 -6.5273 -2.63741 0
M  V30 2091 C 356.508 -5.1842 -2.73198 0
M  V30 2092 N 356.558 -4.38762 -1.4784 0
M  V30 2093 H 353.719 -8.36803 -2.32493 0
M  V30 2094 H 353.449 -6.70197 -1.71129 0
M  V30 2095 H 354.316 -7.03551 -4.13168 0
M  V30 2096 P 358.278 -7.20834 -5.23717 0
M  V30 2097 O 358.498 -7.79853 -6.57286 0
M  V30 2098 O 359.068 -7.79239 -4.12957 0
M  V30 2099 O 358.528 -5.63315 -5.29344 0
M  V30 2100 C 357.588 -4.80255 -6.01876 0
M  V30 2101 C 358.318 -3.64202 -6.65911 0
M  V30 2102 O 358.528 -2.60694 -5.64732 0
M  V30 2103 C 359.718 -3.93473 -7.1943 0
M  V30 2104 O 360.108 -3.02071 -8.21205 0
M  V30 2105 C 360.598 -3.73047 -5.97036 0
M  V30 2106 C 359.888 -2.58828 -5.25741 0
M  V30 2107 N 359.938 -2.68068 -3.77503 0
M  V30 2108 H 357.099 -5.40332 -6.79951 0
M  V30 2109 H 356.829 -4.41613 -5.32378 0
M  V30 2110 H 357.696 -3.26331 -7.47797 0
M  V30 2111 P 361.658 -2.75334 -8.47391 0
M  V30 2112 O 361.878 -2.44619 -9.90336 0
M  V30 2113 O 362.448 -3.87776 -7.92294 0
M  V30 2114 O 361.908 -1.4459 -7.59357 0
M  V30 2115 C 360.968 -0.347653 -7.69315 0
M  V30 2116 C 361.698 0.96767 -7.52806 0
M  V30 2117 O 361.908 1.21055 -6.10208 0
M  V30 2118 C 363.098 1.04557 -8.13408 0
M  V30 2119 O 363.488 2.38311 -8.41922 0
M  V30 2120 C 363.978 0.491279 -7.02284 0
M  V30 2121 C 363.268 0.996264 -5.77469 0
M  V30 2122 N 363.318 0.0501916 -4.62973 0
M  V30 2123 H 360.48 -0.374765 -8.67791 0
M  V30 2124 H 360.208 -0.443613 -6.90476 0
M  V30 2125 H 361.076 1.75559 -7.96891 0
M  V30 2126 H 363.731 1.94563 -5.46818 0
M  V30 2127 H 364.011 -0.608651 -7.04676 0
M  V30 2128 H 365.002 0.889796 -7.09039 0
M  V30 2129 H 363.168 0.433128 -9.04664 0
M  V30 2130 P 365.038 2.75334 -8.47391 0
M  V30 2131 O 365.258 3.84128 -9.44797 0
M  V30 2132 O 365.828 1.51947 -8.68712 0
M  V30 2133 O 365.288 3.29363 -6.99321 0
M  V30 2134 C 364.348 4.24011 -6.4274 0
M  V30 2135 C 365.078 5.20775 -5.52155 0
M  V30 2136 O 365.288 4.56534 -4.22446 0
M  V30 2137 C 366.478 5.62629 -5.96531 0
M  V30 2138 O 366.868 6.87667 -5.41053 0
M  V30 2139 C 367.358 4.52537 -5.39283 0
M  V30 2140 C 366.648 4.20027 -4.08623 0
M  V30 2141 N 366.698 2.76189 -3.71603 0
M  V30 2142 C 366.618 1.64862 -4.52822 0
M  V30 2143 N 366.698 0.512671 -3.88633 0
M  V30 2144 C 366.838 0.888083 -2.54977 0
M  V30 2145 C 366.968 0.094668 -1.38677 0
M  V30 2146 O 366.988 -1.13053 -1.28163 0
M  V30 2147 N 367.088 0.890102 -0.232633 0
M  V30 2148 C 367.088 2.26958 -0.21772 0
M  V30 2149 N 367.218 2.84626 0.97925 0
M  V30 2150 N 366.958 3.0178 -1.31033 0
M  V30 2151 C 366.838 2.26781 -2.43843 0
M  V30 2152 H 363.859 4.797 -7.24003 0
M  V30 2153 H 363.589 3.69856 -5.84513 0
M  V30 2154 H 364.456 6.10356 -5.41441 0
M  V30 2155 H 367.111 4.79061 -3.27488 0
M  V30 2156 H 367.39 3.64906 -6.05785 0
M  V30 2157 H 368.382 4.8868 -5.2125 0
M  V30 2158 H 366.548 5.66726 -7.06352 0
M  V30 2159 H 366.499 1.71169 -5.60966 0
M  V30 2160 H 367.181 0.419134 0.644739 0
M  V30 2161 H 367.218 3.87332 1.06098 0
M  V30 2162 H 367.319 2.26417 1.82483 0
M  V30 2163 P 368.418 7.20834 -5.23717 0
M  V30 2164 O 368.638 8.66189 -5.38625 0
M  V30 2165 O 369.208 6.33615 -6.1356 0
M  V30 2166 O 368.668 6.7751 -3.72168 0
M  V30 2167 C 367.728 7.20732 -2.70725 0
M  V30 2168 C 368.458 7.45864 -1.40599 0
M  V30 2169 O 368.668 6.17651 -0.734225 0
M  V30 2170 C 369.858 8.05808 -1.51899 0
M  V30 2171 O 370.248 8.74358 -0.335205 0
M  V30 2172 C 370.738 6.83093 -1.70294 0
M  V30 2173 C 370.028 5.79992 -0.836974 0
M  V30 2174 N 370.078 4.41769 -1.38263 0
M  V30 2175 C 370.228 3.38591 -0.481702 0
M  V30 2176 O 370.318 3.56839 0.718452 0
M  V30 2177 N 370.268 2.1206 -1.03569 0
M  V30 2178 C 370.178 1.80696 -2.36966 0
M  V30 2179 C 370.028 2.94845 -3.23898 0
M  V30 2180 C 369.978 4.19803 -2.73435 0
M  V30 2181 H 367.238 8.13644 -3.0377 0
M  V30 2182 H 366.969 6.42695 -2.55448 0
M  V30 2183 H 367.836 8.12039 -0.792769 0
M  V30 2184 H 370.491 5.79978 0.160587 0
M  V30 2185 H 370.77 6.51379 -2.75643 0
M  V30 2186 H 371.762 7.01734 -1.34462 0
M  V30 2187 H 369.928 8.73674 -2.38337 0
M  V30 2188 H 369.857 5.04492 -3.4095 0
M  V30 2189 P 371.798 8.91 1.81197e-12 0
M  V30 2190 O 372.018 10.1726 0.733694 0
M  V30 2191 O 372.588 8.73148 -1.23936 0
M  V30 2192 O 372.048 7.66872 0.971405 0
M  V30 2193 C 371.108 7.42309 2.04641 0
M  V30 2194 C 371.838 6.86059 3.24661 0
M  V30 2195 O 372.048 5.42847 3.03646 0
M  V30 2196 C 373.238 7.41196 3.50753 0
M  V30 2197 O 373.628 7.27073 4.86816 0
M  V30 2198 C 374.118 6.5273 2.63741 0
M  V30 2199 C 373.408 5.1842 2.73198 0
M  V30 2200 N 373.458 4.38762 1.4784 0
M  V30 2201 H 370.619 8.36803 2.32493 0
M  V30 2202 H 370.349 6.70197 1.71129 0
M  V30 2203 H 371.216 7.03551 4.13168 0
M  V30 2204 P 375.178 7.20834 5.23717 0
M  V30 2205 O 375.398 7.79853 6.57286 0
M  V30 2206 O 375.968 7.79239 4.12957 0
M  V30 2207 O 375.428 5.63315 5.29344 0
M  V30 2208 C 374.488 4.80255 6.01876 0
M  V30 2209 C 375.218 3.64202 6.65911 0
M  V30 2210 O 375.428 2.60694 5.64732 0
M  V30 2211 C 376.618 3.93473 7.1943 0
M  V30 2212 O 377.008 3.02071 8.21205 0
M  V30 2213 C 377.498 3.73047 5.97036 0
M  V30 2214 C 376.788 2.58828 5.25741 0
M  V30 2215 N 376.838 2.68068 3.77503 0
M  V30 2216 H 373.999 5.40332 6.79951 0
M  V30 2217 H 373.729 4.41613 5.32378 0
M  V30 2218 H 374.596 3.26331 7.47797 0
M  V30 2219 P 378.558 2.75334 8.47391 0
M  V30 2220 O 378.778 2.44571 9.90142 0
M  V30 2221 O 379.348 3.87688 7.92115 0
M  V30 2222 O 378.808 1.4459 7.59357 0
M  V30 2223 C 377.868 0.347608 7.69215 0
M  V30 2224 C 378.598 -0.96767 7.52806 0
M  V30 2225 O 378.808 -1.21036 6.1011 0
M  V30 2226 C 379.998 -1.04544 8.13308 0
M  V30 2227 O 380.388 -2.38311 8.41922 0
M  V30 2228 C 380.878 -0.491279 7.02284 0
M  V30 2229 C 380.168 -0.996264 5.77469 0
M  V30 2230 N 380.218 -0.0501916 4.62973 0
M  V30 2231 H 377.379 0.374722 8.67691 0
M  V30 2232 H 377.109 0.443485 6.90277 0
M  V30 2233 H 377.976 -1.75537 7.96793 0
M  V30 2234 P 381.938 -2.75334 8.47391 0
M  V30 2235 O 382.158 -3.84204 9.44982 0
M  V30 2236 O 382.728 -1.51982 8.68909 0
M  V30 2237 O 382.188 -3.29363 6.99321 0
M  V30 2238 C 381.248 -4.24066 6.42823 0
M  V30 2239 C 381.978 -5.20775 5.52155 0
M  V30 2240 O 382.188 -4.56607 4.22514 0
M  V30 2241 C 383.378 -5.62697 5.96604 0
M  V30 2242 O 383.768 -6.87667 5.41053 0
M  V30 2243 C 384.258 -4.52537 5.39283 0
M  V30 2244 C 383.548 -4.20027 4.08623 0
M  V30 2245 N 383.598 -2.76189 3.71603 0
M  V30 2246 H 380.76 -4.79756 7.24086 0
M  V30 2247 H 380.488 -3.69963 5.84682 0
M  V30 2248 H 381.356 -6.10431 5.41508 0
M  V30 2249 H 384.011 -4.78816 3.28024 0
M  V30 2250 H 384.291 -3.64957 6.05871 0
M  V30 2251 H 385.282 -4.88748 5.21323 0
M  V30 2252 H 383.448 -5.66789 7.0643 0
M  V30 2253 P 385.318 -7.20834 5.23717 0
M  V30 2254 O 385.538 -8.66274 5.38678 0
M  V30 2255 O 386.108 -6.33687 6.13629 0
M  V30 2256 O 385.568 -6.7751 3.72168 0
M  V30 2257 C 384.628 -7.20919 2.70795 0
M  V30 2258 C 385.358 -7.45864 1.40599 0
M  V30 2259 O 385.568 -6.17751 0.734343 0
M  V30 2260 C 386.758 -8.05906 1.51917 0
M  V30 2261 O 387.148 -8.74358 0.335205 0
M  V30 2262 C 387.638 -6.83093 1.70294 0
M  V30 2263 C 386.928 -5.79992 0.836974 0
M  V30 2264 N 386.978 -4.41864 1.38293 0
M  V30 2265 C 386.898 -4.02089 2.69407 0
M  V30 2266 N 386.968 -2.73403 2.85089 0
M  V30 2267 C 387.118 -2.25086 1.5642 0
M  V30 2268 C 387.248 -0.942887 1.04836 0
M  V30 2269 N 387.258 0.150999 1.80369 0
M  V30 2270 N 387.368 -0.812565 -0.28167 0
M  V30 2271 C 387.358 -1.90572 -1.03784 0
M  V30 2272 N 387.238 -3.167 -0.683905 0
M  V30 2273 C 387.118 -3.26538 0.652815 0
M  V30 2274 H 384.14 -8.13738 3.03804 0
M  V30 2275 H 383.868 -6.42974 2.55559 0
M  V30 2276 H 384.736 -8.12139 0.792866 0
M  V30 2277 H 387.391 -5.80178 -0.160643 0
M  V30 2278 H 387.671 -6.51379 2.75643 0
M  V30 2279 H 388.662 -7.01832 1.3448 0
M  V30 2280 H 386.828 -8.73771 2.38364 0
M  V30 2281 H 386.787 -4.7189 3.52311 0
M  V30 2282 H 387.168 0.0721434 2.82608 0
M  V30 2283 H 387.357 1.0785 1.36544 0
M  V30 2284 H 387.465 -1.73207 -2.10241 0
M  V30 2285 P 388.698 -8.91 -1.96915e-12 0
M  V30 2286 O 388.918 -10.1726 -0.733694 0
M  V30 2287 O 389.488 -8.73148 1.23936 0
M  V30 2288 O 388.948 -7.66872 -0.971405 0
M  V30 2289 C 388.008 -7.42309 -2.04641 0
M  V30 2290 C 388.738 -6.86059 -3.24661 0
M  V30 2291 O 388.948 -5.42847 -3.03646 0
M  V30 2292 C 390.138 -7.41196 -3.50753 0
M  V30 2293 O 390.528 -7.27073 -4.86816 0
M  V30 2294 C 391.018 -6.5273 -2.63741 0
M  V30 2295 C 390.308 -5.1842 -2.73198 0
M  V30 2296 N 390.358 -4.38762 -1.4784 0
M  V30 2297 C 390.278 -4.81605 -0.168631 0
M  V30 2298 N 390.358 -3.85454 0.713363 0
M  V30 2299 C 390.498 -2.6994 -0.0566958 0
M  V30 2300 C 390.628 -1.34815 0.338502 0
M  V30 2301 N 390.748 -0.496304 -0.77465 0
M  V30 2302 C 390.748 -0.908403 -2.09122 0
M  V30 2303 N 390.878 0.0517805 -3.00955 0
M  V30 2304 N 390.618 -2.17875 -2.46519 0
M  V30 2305 C 390.498 -3.01988 -1.4033 0
M  V30 2306 H 387.519 -8.36803 -2.32493 0
M  V30 2307 H 387.249 -6.70197 -1.71129 0
M  V30 2308 H 388.116 -7.03551 -4.13168 0
M  V30 2309 P 392.078 -7.20834 -5.23717 0
M  V30 2310 O 392.298 -7.79853 -6.57286 0
M  V30 2311 O 392.868 -7.79239 -4.12957 0
M  V30 2312 O 392.328 -5.63315 -5.29344 0
M  V30 2313 C 391.388 -4.80255 -6.01876 0
M  V30 2314 C 392.118 -3.64202 -6.65911 0
M  V30 2315 O 392.328 -2.60694 -5.64732 0
M  V30 2316 C 393.518 -3.93473 -7.1943 0
M  V30 2317 O 393.908 -3.02071 -8.21205 0
M  V30 2318 C 394.398 -3.73047 -5.97036 0
M  V30 2319 C 393.688 -2.58828 -5.25741 0
M  V30 2320 N 393.738 -2.68068 -3.77503 0
M  V30 2321 H 390.899 -5.40332 -6.79951 0
M  V30 2322 H 390.629 -4.41613 -5.32378 0
M  V30 2323 H 391.496 -3.26331 -7.47797 0
M  V30 2324 P 395.458 -2.75334 -8.47391 0
M  V30 2325 O 395.678 -2.44571 -9.90142 0
M  V30 2326 O 396.248 -3.87688 -7.92115 0
M  V30 2327 O 395.708 -1.4459 -7.59357 0
M  V30 2328 C 394.768 -0.347608 -7.69215 0
M  V30 2329 C 395.498 0.96767 -7.52806 0
M  V30 2330 O 395.708 1.21036 -6.1011 0
M  V30 2331 C 396.898 1.04544 -8.13308 0
M  V30 2332 O 397.288 2.38311 -8.41922 0
M  V30 2333 C 397.778 0.491279 -7.02284 0
M  V30 2334 C 397.068 0.996264 -5.77469 0
M  V30 2335 N 397.118 0.0501916 -4.62973 0
M  V30 2336 C 397.038 -1.32786 -4.63244 0
M  V30 2337 N 397.118 -1.86957 -3.44545 0
M  V30 2338 C 397.258 -0.780241 -2.58481 0
M  V30 2339 C 397.388 -0.738536 -1.17757 0
M  V30 2340 O 397.408 -1.66794 -0.372349 0
M  V30 2341 N 397.508 0.58337 -0.711393 0
M  V30 2342 C 397.508 1.70816 -1.51017 0
M  V30 2343 N 397.638 2.87826 -0.880757 0
M  V30 2344 N 397.378 1.67126 -2.8339 0
M  V30 2345 C 397.258 0.401421 -3.30572 0
M  V30 2346 H 394.279 -0.374722 -8.67691 0
M  V30 2347 H 394.009 -0.443485 -6.90277 0
M  V30 2348 H 394.876 1.75537 -7.96793 0
M  V30 2349 H 397.531 1.95076 -5.46529 0
M  V30 2350 H 397.81 -0.608565 -7.04577 0
M  V30 2351 H 398.802 0.889672 -7.08939 0
M  V30 2352 H 396.968 0.43308 -9.04564 0
M  V30 2353 H 396.919 -1.91249 -5.54442 0
M  V30 2354 H 397.601 0.718054 0.275244 0
M  V30 2355 H 397.638 3.75721 -1.41832 0
M  V30 2356 H 397.739 2.90436 0.145468 0
M  V30 2357 P 398.838 2.75334 -8.47391 0
M  V30 2358 O 399.058 3.84128 -9.44797 0
M  V30 2359 O 399.628 1.51947 -8.68712 0
M  V30 2360 O 399.088 3.29363 -6.99321 0
M  V30 2361 C 398.148 4.24011 -6.4274 0
M  V30 2362 C 398.878 5.20775 -5.52155 0
M  V30 2363 O 399.088 4.56534 -4.22446 0
M  V30 2364 C 400.278 5.62629 -5.96531 0
M  V30 2365 O 400.668 6.87667 -5.41053 0
M  V30 2366 C 401.158 4.52537 -5.39283 0
M  V30 2367 C 400.448 4.20027 -4.08623 0
M  V30 2368 N 400.498 2.76189 -3.71603 0
M  V30 2369 H 397.659 4.797 -7.24003 0
M  V30 2370 H 397.389 3.69856 -5.84513 0
M  V30 2371 H 398.256 6.10356 -5.41441 0
M  V30 2372 P 402.218 7.20834 -5.23717 0
M  V30 2373 O 402.438 8.66104 -5.38572 0
M  V30 2374 O 403.008 6.33544 -6.1349 0
M  V30 2375 O 402.468 6.7751 -3.72168 0
M  V30 2376 C 401.528 7.20825 -2.7076 0
M  V30 2377 C 402.258 7.45864 -1.40599 0
M  V30 2378 O 402.468 6.17651 -0.734225 0
M  V30 2379 C 403.658 8.05808 -1.51899 0
M  V30 2380 O 404.048 8.74358 -0.335205 0
M  V30 2381 C 404.538 6.83093 -1.70294 0
M  V30 2382 C 403.828 5.79992 -0.836974 0
M  V30 2383 N 403.878 4.41864 -1.38293 0
M  V30 2384 H 401.039 8.13644 -3.0377 0
M  V30 2385 H 400.769 6.42788 -2.55485 0
M  V30 2386 H 401.636 8.12039 -0.792769 0
M  V30 2387 P 405.598 8.91 2.12633e-12 0
M  V30 2388 O 405.818 10.1726 0.733694 0
M  V30 2389 O 406.388 8.73148 -1.23936 0
M  V30 2390 O 405.848 7.66872 0.971405 0
M  V30 2391 C 404.908 7.42309 2.04641 0
M  V30 2392 C 405.638 6.86059 3.24661 0
M  V30 2393 O 405.848 5.42847 3.03646 0
M  V30 2394 C 407.038 7.41196 3.50753 0
M  V30 2395 O 407.428 7.27073 4.86816 0
M  V30 2396 C 407.918 6.5273 2.63741 0
M  V30 2397 C 407.208 5.1842 2.73198 0
M  V30 2398 N 407.258 4.38762 1.4784 0
M  V30 2399 H 404.419 8.36803 2.32493 0
M  V30 2400 H 404.149 6.70197 1.71129 0
M  V30 2401 H 405.016 7.03551 4.13168 0
M  V30 2402 P 408.978 7.20834 5.23717 0
M  V30 2403 O 409.198 7.79853 6.57286 0
M  V30 2404 O 409.768 7.79239 4.12957 0
M  V30 2405 O 409.228 5.63315 5.29344 0
M  V30 2406 C 408.288 4.80255 6.01876 0
M  V30 2407 C 409.018 3.64202 6.65911 0
M  V30 2408 O 409.228 2.60694 5.64732 0
M  V30 2409 C 410.418 3.93473 7.1943 0
M  V30 2410 O 410.808 3.02071 8.21205 0
M  V30 2411 C 411.298 3.73047 5.97036 0
M  V30 2412 C 410.588 2.58828 5.25741 0
M  V30 2413 N 410.638 2.68068 3.77503 0
M  V30 2414 H 407.799 5.40332 6.79951 0
M  V30 2415 H 407.529 4.41613 5.32378 0
M  V30 2416 H 408.396 3.26331 7.47797 0
M  V30 2417 P 412.358 2.75334 8.47391 0
M  V30 2418 O 412.578 2.44571 9.90142 0
M  V30 2419 O 413.148 3.87688 7.92115 0
M  V30 2420 O 412.608 1.4459 7.59357 0
M  V30 2421 C 411.668 0.347608 7.69215 0
M  V30 2422 C 412.398 -0.96767 7.52806 0
M  V30 2423 O 412.608 -1.21036 6.1011 0
M  V30 2424 C 413.798 -1.04544 8.13308 0
M  V30 2425 O 414.188 -2.38311 8.41922 0
M  V30 2426 C 414.678 -0.491279 7.02284 0
M  V30 2427 C 413.968 -0.996264 5.77469 0
M  V30 2428 N 414.018 -0.0501916 4.62973 0
M  V30 2429 H 411.179 0.374722 8.67691 0
M  V30 2430 H 410.909 0.443485 6.90277 0
M  V30 2431 H 411.776 -1.75537 7.96793 0
M  V30 2432 P 415.738 -2.75334 8.47391 0
M  V30 2433 O 415.958 -3.84166 9.4489 0
M  V30 2434 O 416.528 -1.51964 8.6881 0
M  V30 2435 O 415.988 -3.29363 6.99321 0
M  V30 2436 C 415.048 -4.23956 6.42656 0
M  V30 2437 C 415.778 -5.20775 5.52155 0
M  V30 2438 O 415.988 -4.56534 4.22446 0
M  V30 2439 C 417.178 -5.62629 5.96531 0
M  V30 2440 O 417.568 -6.87667 5.41053 0
M  V30 2441 C 418.058 -4.52537 5.39283 0
M  V30 2442 C 417.348 -4.20027 4.08623 0
M  V30 2443 N 417.398 -2.7613 3.71522 0
M  V30 2444 C 417.548 -2.45612 2.37989 0
M  V30 2445 O 417.638 -3.30919 1.51621 0
M  V30 2446 N 417.588 -1.10684 2.08435 0
M  V30 2447 C 417.498 -0.0690084 2.9792 0
M  V30 2448 O 417.548 1.10553 2.59426 0
M  V30 2449 C 417.348 -0.481522 4.35345 0
M  V30 2450 C 417.238 0.618778 5.36443 0
M  V30 2451 C 417.298 -1.78906 4.67968 0
M  V30 2452 H 414.558 -4.797 7.24003 0
M  V30 2453 H 414.289 -3.69802 5.84429 0
M  V30 2454 H 415.156 -6.10356 5.41441 0
M  V30 2455 H 417.811 -4.78651 3.27911 0
M  V30 2456 H 418.09 -3.64957 6.05871 0
M  V30 2457 H 419.082 -4.8868 5.2125 0
M  V30 2458 H 417.248 -5.66726 7.06352 0
M  V30 2459 H 417.177 -2.07737 5.72367 0
M  V30 2460 H 418.207 0.754375 5.86871 0
M  V30 2461 H 416.47 0.359721 6.10641 0
M  V30 2462 H 416.958 1.55533 4.8581 0
M  V30 2463 H 417.694 -0.862651 1.12037 0
M  V30 2464 P 419.118 -7.20834 5.23717 0
M  V30 2465 O 419.338 -8.66104 5.38572 0
M  V30 2466 O 419.908 -6.33544 6.1349 0
M  V30 2467 O 419.368 -6.7751 3.72168 0
M  V30 2468 C 418.428 -7.20825 2.7076 0
M  V30 2469 C 419.158 -7.45864 1.40599 0
M  V30 2470 O 419.368 -6.17651 0.734225 0
M  V30 2471 C 420.558 -8.05808 1.51899 0
M  V30 2472 O 420.948 -8.74358 0.335205 0
M  V30 2473 C 421.438 -6.83093 1.70294 0
M  V30 2474 C 420.728 -5.79992 0.836974 0
M  V30 2475 N 420.778 -4.41864 1.38293 0
M  V30 2476 H 417.939 -8.13644 3.0377 0
M  V30 2477 H 417.669 -6.42788 2.55485 0
M  V30 2478 H 418.536 -8.12039 0.792769 0
M  V30 2479 P 422.497 -8.91 -2.28351e-12 0
M  V30 2480 O 422.717 -10.1726 -0.733694 0
M  V30 2481 O 423.287 -8.73148 1.23936 0
M  V30 2482 O 422.747 -7.66872 -0.971405 0
M  V30 2483 C 421.807 -7.42309 -2.04641 0
M  V30 2484 C 422.537 -6.86059 -3.24661 0
M  V30 2485 O 422.747 -5.42847 -3.03646 0
M  V30 2486 C 423.937 -7.41196 -3.50753 0
M  V30 2487 O 424.327 -7.27073 -4.86816 0
M  V30 2488 C 424.817 -6.5273 -2.63741 0
M  V30 2489 C 424.107 -5.1842 -2.73198 0
M  V30 2490 N 424.157 -4.38762 -1.4784 0
M  V30 2491 H 421.318 -8.36803 -2.32493 0
M  V30 2492 H 421.048 -6.70197 -1.71129 0
M  V30 2493 H 421.915 -7.03551 -4.13168 0
M  V30 2494 P 425.877 -7.20834 -5.23717 0
M  V30 2495 O 426.097 -7.7993 -6.57351 0
M  V30 2496 O 426.667 -7.79328 -4.13004 0
M  V30 2497 O 426.127 -5.63315 -5.29344 0
M  V30 2498 C 425.187 -4.80193 -6.01798 0
M  V30 2499 C 425.917 -3.64202 -6.65911 0
M  V30 2500 O 426.127 -2.60694 -5.64732 0
M  V30 2501 C 427.317 -3.93473 -7.1943 0
M  V30 2502 O 427.707 -3.02071 -8.21205 0
M  V30 2503 C 428.197 -3.73047 -5.97036 0
M  V30 2504 C 427.487 -2.58828 -5.25741 0
M  V30 2505 N 427.537 -2.6801 -3.77422 0
M  V30 2506 C 427.687 -1.50443 -3.07133 0
M  V30 2507 O 427.777 -0.419406 -3.61576 0
M  V30 2508 N 427.727 -1.6403 -1.69677 0
M  V30 2509 C 427.637 -2.81206 -0.986255 0
M  V30 2510 O 427.687 -2.80892 0.249754 0
M  V30 2511 C 427.487 -3.99158 -1.80325 0
M  V30 2512 C 427.377 -5.29309 -1.06921 0
M  V30 2513 C 427.437 -3.89779 -3.1476 0
M  V30 2514 H 424.697 -5.40332 -6.79951 0
M  V30 2515 H 424.428 -4.41549 -5.32301 0
M  V30 2516 H 425.295 -3.26331 -7.47797 0
M  V30 2517 H 427.95 -1.6395 -5.56554 0
M  V30 2518 H 428.229 -4.63439 -5.3432 0
M  V30 2519 H 429.221 -3.44728 -6.25838 0
M  V30 2520 H 427.387 -4.96652 -7.57263 0
M  V30 2521 H 427.316 -4.80159 -3.74441 0
M  V30 2522 H 428.346 -5.81459 -1.09608 0
M  V30 2523 H 426.609 -5.9187 -1.54487 0
M  V30 2524 H 427.097 -5.10095 -0.0220288 0
M  V30 2525 H 427.833 -0.798962 -1.16664 0
M  V30 2526 P 429.257 -2.75334 -8.47391 0
M  V30 2527 O 429.477 -2.44571 -9.90142 0
M  V30 2528 O 430.047 -3.87688 -7.92115 0
M  V30 2529 O 429.507 -1.4459 -7.59357 0
M  V30 2530 C 428.567 -0.347608 -7.69215 0
M  V30 2531 C 429.297 0.96767 -7.52806 0
M  V30 2532 O 429.507 1.21036 -6.1011 0
M  V30 2533 C 430.697 1.04544 -8.13308 0
M  V30 2534 O 431.087 2.38311 -8.41922 0
M  V30 2535 C 431.577 0.491279 -7.02284 0
M  V30 2536 C 430.867 0.996264 -5.77469 0
M  V30 2537 N 430.917 0.0501916 -4.62973 0
M  V30 2538 H 428.078 -0.374722 -8.67691 0
M  V30 2539 H 427.808 -0.443485 -6.90277 0
M  V30 2540 H 428.675 1.75537 -7.96793 0
M  V30 2541 P 432.637 2.75334 -8.47391 0
M  V30 2542 O 432.857 3.84128 -9.44797 0
M  V30 2543 O 433.427 1.51947 -8.68712 0
M  V30 2544 O 432.887 3.29363 -6.99321 0
M  V30 2545 C 431.947 4.24011 -6.4274 0
M  V30 2546 C 432.677 5.20775 -5.52155 0
M  V30 2547 O 432.887 4.56534 -4.22446 0
M  V30 2548 C 434.077 5.62629 -5.96531 0
M  V30 2549 O 434.467 6.87667 -5.41053 0
M  V30 2550 C 434.957 4.52537 -5.39283 0
M  V30 2551 C 434.247 4.20027 -4.08623 0
M  V30 2552 N 434.297 2.76189 -3.71603 0
M  V30 2553 C 434.217 1.64862 -4.52822 0
M  V30 2554 N 434.297 0.512671 -3.88633 0
M  V30 2555 C 434.437 0.888083 -2.54977 0
M  V30 2556 C 434.567 0.094668 -1.38677 0
M  V30 2557 N 434.687 0.890102 -0.232633 0
M  V30 2558 C 434.687 2.26958 -0.21772 0
M  V30 2559 N 434.817 2.84626 0.97925 0
M  V30 2560 N 434.557 3.0178 -1.31033 0
M  V30 2561 C 434.437 2.26781 -2.43843 0
M  V30 2562 H 431.458 4.797 -7.24003 0
M  V30 2563 H 431.188 3.69856 -5.84513 0
M  V30 2564 H 432.055 6.10356 -5.41441 0
M  V30 2565 P 436.017 7.20834 -5.23717 0
M  V30 2566 O 436.237 8.66274 -5.38678 0
M  V30 2567 O 436.807 6.33687 -6.13629 0
M  V30 2568 O 436.267 6.7751 -3.72168 0
M  V30 2569 C 435.327 7.20919 -2.70795 0
M  V30 2570 C 436.057 7.45864 -1.40599 0
M  V30 2571 O 436.267 6.17751 -0.734343 0
M  V30 2572 C 437.457 8.05906 -1.51917 0
M  V30 2573 O 437.847 8.74358 -0.335205 0
M  V30 2574 C 438.337 6.83093 -1.70294 0
M  V30 2575 C 437.627 5.79992 -0.836974 0
M  V30 2576 N 437.677 4.41864 -1.38293 0
M  V30 2577 C 437.597 4.02089 -2.69407 0
M  V30 2578 N 437.667 2.73403 -2.85089 0
M  V30 2579 C 437.817 2.25086 -1.5642 0
M  V30 2580 C 437.947 0.942887 -1.04836 0
M  V30 2581 N 437.957 -0.150999 -1.80369 0
M  V30 2582 N 438.067 0.812565 0.28167 0
M  V30 2583 C 438.057 1.90572 1.03784 0
M  V30 2584 N 437.937 3.167 0.683905 0
M  V30 2585 C 437.817 3.26538 -0.652815 0
M  V30 2586 H 434.839 8.13738 -3.03804 0
M  V30 2587 H 434.567 6.42974 -2.55559 0
M  V30 2588 H 435.435 8.12139 -0.792866 0
M  V30 2589 H 438.09 5.80178 0.160643 0
M  V30 2590 H 438.37 6.51379 -2.75643 0
M  V30 2591 H 439.361 7.01832 -1.3448 0
M  V30 2592 H 437.527 8.73771 -2.38364 0
M  V30 2593 H 437.486 4.7189 -3.52311 0
M  V30 2594 H 437.867 -0.0721434 -2.82608 0
M  V30 2595 H 438.056 -1.0785 -1.36544 0
M  V30 2596 H 438.164 1.73207 2.10241 0
M  V30 2597 P 439.397 8.91 2.44069e-12 0
M  V30 2598 O 439.617 10.1726 0.733694 0
M  V30 2599 O 440.187 8.73148 -1.23936 0
M  V30 2600 O 439.647 7.66872 0.971405 0
M  V30 2601 C 438.707 7.42309 2.04641 0
M  V30 2602 C 439.437 6.86059 3.24661 0
M  V30 2603 O 439.647 5.42847 3.03646 0
M  V30 2604 C 440.837 7.41196 3.50753 0
M  V30 2605 O 441.227 7.27073 4.86816 0
M  V30 2606 C 441.717 6.5273 2.63741 0
M  V30 2607 C 441.007 5.1842 2.73198 0
M  V30 2608 N 441.057 4.38762 1.4784 0
M  V30 2609 C 440.977 4.81605 0.168631 0
M  V30 2610 N 441.057 3.85454 -0.713363 0
M  V30 2611 C 441.197 2.6994 0.0566958 0
M  V30 2612 C 441.327 1.34815 -0.338502 0
M  V30 2613 O 441.347 0.869548 -1.47125 0
M  V30 2614 N 441.447 0.496304 0.77465 0
M  V30 2615 C 441.447 0.908403 2.09122 0
M  V30 2616 N 441.577 -0.0517805 3.00955 0
M  V30 2617 N 441.317 2.17875 2.46519 0
M  V30 2618 C 441.197 3.01988 1.4033 0
M  V30 2619 H 438.218 8.36803 2.32493 0
M  V30 2620 H 437.948 6.70197 1.71129 0
M  V30 2621 H 438.815 7.03551 4.13168 0
M  V30 2622 H 441.47 4.59498 3.54415 0
M  V30 2623 H 441.749 6.88898 1.59848 0
M  V30 2624 H 442.741 6.46749 3.03687 0
M  V30 2625 H 440.907 8.46908 3.20714 0
M  V30 2626 H 440.858 5.86405 -0.105564 0
M  V30 2627 H 441.54 -0.483664 0.597855 0
M  V30 2628 H 441.577 0.187865 4.0116 0
M  V30 2629 H 441.678 -1.03585 2.71726 0
M  V30 2630 P 442.777 7.20834 5.23717 0
M  V30 2631 O 442.997 7.79853 6.57286 0
M  V30 2632 O 443.567 7.79239 4.12957 0
M  V30 2633 O 443.027 5.63315 5.29344 0
M  V30 2634 C 442.087 4.80255 6.01876 0
M  V30 2635 C 442.817 3.64202 6.65911 0
M  V30 2636 O 443.027 2.60694 5.64732 0
M  V30 2637 C 444.217 3.93473 7.1943 0
M  V30 2638 O 444.607 3.02071 8.21205 0
M  V30 2639 C 445.097 3.73047 5.97036 0
M  V30 2640 C 444.387 2.58828 5.25741 0
M  V30 2641 N 444.437 2.68068 3.77503 0
M  V30 2642 H 441.598 5.40332 6.79951 0
M  V30 2643 H 441.328 4.41613 5.32378 0
M  V30 2644 H 442.195 3.26331 7.47797 0
M  V30 2645 P 446.157 2.75334 8.47391 0
M  V30 2646 O 446.377 2.44619 9.90336 0
M  V30 2647 O 446.947 3.87776 7.92294 0
M  V30 2648 O 446.407 1.4459 7.59357 0
M  V30 2649 C 445.467 0.347653 7.69315 0
M  V30 2650 C 446.197 -0.96767 7.52806 0
M  V30 2651 O 446.407 -1.21055 6.10208 0
M  V30 2652 C 447.597 -1.04557 8.13408 0
M  V30 2653 O 447.987 -2.38311 8.41922 0
M  V30 2654 C 448.477 -0.491279 7.02284 0
M  V30 2655 C 447.767 -0.996264 5.77469 0
M  V30 2656 N 447.817 -0.0501916 4.62973 0
M  V30 2657 C 447.737 1.31969 4.65661 0
M  V30 2658 N 447.807 1.86649 3.48119 0
M  V30 2659 C 447.957 0.792089 2.62406 0
M  V30 2660 C 448.087 0.705684 1.2207 0
M  V30 2661 N 448.097 1.76207 0.413762 0
M  V30 2662 N 448.207 -0.518981 0.685754 0
M  V30 2663 C 448.197 -1.57595 1.49174 0
M  V30 2664 N 448.077 -1.62909 2.80066 0
M  V30 2665 C 447.957 -0.388195 3.3073 0
M  V30 2666 H 444.979 0.374765 8.67791 0
M  V30 2667 H 444.707 0.443613 6.90476 0
M  V30 2668 H 445.575 -1.75559 7.96891 0
M  V30 2669 H 448.23 -1.94563 5.46818 0
M  V30 2670 H 448.51 0.608651 7.04676 0
M  V30 2671 H 449.501 -0.889796 7.09039 0
M  V30 2672 H 447.667 -0.433128 9.04664 0
M  V30 2673 H 447.626 1.89246 5.57664 0
M  V30 2674 H 448.007 2.71005 0.804694 0
M  V30 2675 H 448.196 1.63189 -0.603768 0
M  V30 2676 H 448.304 -2.53475 0.997614 0
M  V30 2677 P 449.537 -2.75334 8.47391 0
M  V30 2678 O 449.757 -3.84204 9.44982 0
M  V30 2679 O 450.327 -1.51982 8.68909 0
M  V30 2680 O 449.787 -3.29363 6.99321 0
M  V30 2681 C 448.847 -4.24066 6.42823 0
M  V30 2682 C 449.577 -5.20775 5.52155 0
M  V30 2683 O 449.787 -4.56607 4.22514 0
M  V30 2684 C 450.977 -5.62697 5.96604 0
M  V30 2685 O 451.367 -6.87667 5.41053 0
M  V30 2686 C 451.857 -4.52537 5.39283 0
M  V30 2687 C 451.147 -4.20027 4.08623 0
M  V30 2688 N 451.197 -2.76189 3.71603 0
M  V30 2689 H 448.359 -4.79756 7.24086 0
M  V30 2690 H 448.087 -3.69963 5.84682 0
M  V30 2691 H 448.955 -6.10431 5.41508 0
M  V30 2692 H 451.61 -4.78816 3.28024 0
M  V30 2693 H 451.89 -3.64957 6.05871 0
M  V30 2694 H 452.881 -4.88748 5.21323 0
M  V30 2695 H 451.047 -5.66789 7.0643 0
M  V30 2696 P 452.917 -7.20834 5.23717 0
M  V30 2697 O 453.137 -8.66104 5.38572 0
M  V30 2698 O 453.707 -6.33544 6.1349 0
M  V30 2699 O 453.167 -6.7751 3.72168 0
M  V30 2700 C 452.227 -7.20825 2.7076 0
M  V30 2701 C 452.957 -7.45864 1.40599 0
M  V30 2702 O 453.167 -6.17651 0.734225 0
M  V30 2703 C 454.357 -8.05808 1.51899 0
M  V30 2704 O 454.747 -8.74358 0.335205 0
M  V30 2705 C 455.237 -6.83093 1.70294 0
M  V30 2706 C 454.527 -5.79992 0.836974 0
M  V30 2707 N 454.577 -4.41864 1.38293 0
M  V30 2708 H 451.738 -8.13644 3.0377 0
M  V30 2709 H 451.468 -6.42788 2.55485 0
M  V30 2710 H 452.335 -8.12039 0.792769 0
M  V30 2711 P 456.297 -8.91 -2.59788e-12 0
M  V30 2712 O 456.517 -10.1746 -0.733838 0
M  V30 2713 O 457.087 -8.73346 1.23964 0
M  V30 2714 O 456.547 -7.66872 -0.971405 0
M  V30 2715 C 455.607 -7.42405 -2.04668 0
M  V30 2716 C 456.337 -6.86059 -3.24661 0
M  V30 2717 O 456.547 -5.42934 -3.03695 0
M  V30 2718 C 457.737 -7.41287 -3.50796 0
M  V30 2719 O 458.127 -7.27073 -4.86816 0
M  V30 2720 C 458.617 -6.5273 -2.63741 0
M  V30 2721 C 457.907 -5.1842 -2.73198 0
M  V30 2722 N 457.957 -4.38762 -1.4784 0
M  V30 2723 H 455.119 -8.36899 -2.3252 0
M  V30 2724 H 454.847 -6.70391 -1.71179 0
M  V30 2725 H 455.715 -7.03638 -4.13219 0
M  V30 2726 H 458.37 -4.59931 -3.54016 0
M  V30 2727 H 458.65 -6.88995 -1.59871 0
M  V30 2728 H 459.641 -6.4684 -3.0373 0
M  V30 2729 H 457.807 -8.47002 -3.20749 0
M  V30 2730 P 459.677 -7.20834 -5.23717 0
M  V30 2731 O 459.897 -7.80006 -6.57415 0
M  V30 2732 O 460.467 -7.79416 -4.13051 0
M  V30 2733 O 459.927 -5.63315 -5.29344 0
M  V30 2734 C 458.987 -4.80318 -6.01954 0
M  V30 2735 C 459.717 -3.64202 -6.65911 0
M  V30 2736 O 459.927 -2.60736 -5.64823 0
M  V30 2737 C 461.117 -3.93521 -7.19518 0
M  V30 2738 O 461.507 -3.02071 -8.21205 0
M  V30 2739 C 461.997 -3.73047 -5.97036 0
M  V30 2740 C 461.287 -2.58828 -5.25741 0
M  V30 2741 N 461.337 -2.68068 -3.77503 0
M  V30 2742 C 461.257 -3.80474 -2.99159 0
M  V30 2743 N 461.327 -3.55622 -1.71925 0
M  V30 2744 C 461.477 -2.1832 -1.65733 0
M  V30 2745 C 461.607 -1.28842 -0.572777 0
M  V30 2746 N 461.617 -1.66875 0.70098 0
M  V30 2747 N 461.727 0.016788 -0.859836 0
M  V30 2748 C 461.717 0.398145 -2.13316 0
M  V30 2749 N 461.597 -0.328224 -3.22333 0
M  V30 2750 C 461.477 -1.62992 -2.90383 0
M  V30 2751 H 458.499 -5.40394 -6.8003 0
M  V30 2752 H 458.227 -4.41741 -5.32532 0
M  V30 2753 H 459.095 -3.26371 -7.47889 0
M  V30 2754 H 461.75 -1.64007 -5.56746 0
M  V30 2755 H 462.03 -4.63439 -5.3432 0
M  V30 2756 H 463.021 -3.44776 -6.25925 0
M  V30 2757 H 461.187 -4.96707 -7.57347 0
M  V30 2758 H 461.146 -4.8089 -3.39924 0
M  V30 2759 H 461.527 -2.66547 0.941919 0
M  V30 2760 H 461.716 -0.965341 1.44766 0
M  V30 2761 H 461.824 1.46427 -2.29697 0
M  V30 2762 P 463.057 -2.75334 -8.47391 0
M  V30 2763 O 463.277 -2.44571 -9.90142 0
M  V30 2764 O 463.847 -3.87688 -7.92115 0
M  V30 2765 O 463.307 -1.4459 -7.59357 0
M  V30 2766 C 462.367 -0.347608 -7.69215 0
M  V30 2767 C 463.097 0.96767 -7.52806 0
M  V30 2768 O 463.307 1.21036 -6.1011 0
M  V30 2769 C 464.497 1.04544 -8.13308 0
M  V30 2770 O 464.887 2.38311 -8.41922 0
M  V30 2771 C 465.377 0.491279 -7.02284 0
M  V30 2772 C 464.667 0.996264 -5.77469 0
M  V30 2773 N 464.717 0.0501916 -4.62973 0
M  V30 2774 H 461.878 -0.374722 -8.67691 0
M  V30 2775 H 461.608 -0.443485 -6.90277 0
M  V30 2776 H 462.475 1.75537 -7.96793 0
M  V30 2777 P 466.437 2.75334 -8.47391 0
M  V30 2778 O 466.657 3.84128 -9.44797 0
M  V30 2779 O 467.227 1.51947 -8.68712 0
M  V30 2780 O 466.687 3.29363 -6.99321 0
M  V30 2781 C 465.747 4.24011 -6.4274 0
M  V30 2782 C 466.477 5.20775 -5.52155 0
M  V30 2783 O 466.687 4.56534 -4.22446 0
M  V30 2784 C 467.877 5.62629 -5.96531 0
M  V30 2785 O 468.267 6.87667 -5.41053 0
M  V30 2786 C 468.757 4.52537 -5.39283 0
M  V30 2787 C 468.047 4.20027 -4.08623 0
M  V30 2788 N 468.097 2.76189 -3.71603 0
M  V30 2789 H 465.258 4.797 -7.24003 0
M  V30 2790 H 464.988 3.69856 -5.84513 0
M  V30 2791 H 465.855 6.10356 -5.41441 0
M  V30 2792 P 469.817 7.20834 -5.23717 0
M  V30 2793 O 470.037 8.66104 -5.38572 0
M  V30 2794 O 470.607 6.33544 -6.1349 0
M  V30 2795 O 470.067 6.7751 -3.72168 0
M  V30 2796 C 469.127 7.20825 -2.7076 0
M  V30 2797 C 469.857 7.45864 -1.40599 0
M  V30 2798 O 470.067 6.17651 -0.734225 0
M  V30 2799 C 471.257 8.05808 -1.51899 0
M  V30 2800 O 471.647 8.74358 -0.335205 0
M  V30 2801 C 472.137 6.83093 -1.70294 0
M  V30 2802 C 471.427 5.79992 -0.836974 0
M  V30 2803 N 471.477 4.41864 -1.38293 0
M  V30 2804 C 471.397 3.99538 -2.69438 0
M  V30 2805 N 471.477 2.69909 -2.84277 0
M  V30 2806 C 471.617 2.21719 -1.5408 0
M  V30 2807 C 471.747 0.891712 -1.06628 0
M  V30 2808 O 471.767 -0.161298 -1.70137 0
M  V30 2809 N 471.867 0.856846 0.334985 0
M  V30 2810 C 471.867 1.9641 1.15789 0
M  V30 2811 N 471.997 1.72708 2.46522 0
M  V30 2812 N 471.737 3.21165 0.713741 0
M  V30 2813 C 471.617 3.26797 -0.639748 0
M  V30 2814 H 468.638 8.13644 -3.0377 0
M  V30 2815 H 468.368 6.42788 -2.55485 0
M  V30 2816 H 469.235 8.12039 -0.792769 0
M  V30 2817 H 471.89 5.80061 0.166416 0
M  V30 2818 H 472.169 6.51287 -2.75604 0
M  V30 2819 H 473.161 7.01734 -1.34462 0
M  V30 2820 H 471.327 8.73674 -2.38337 0
M  V30 2821 H 471.278 4.68207 -3.53221 0
M  V30 2822 H 471.96 -0.0398818 0.767965 0
M  V30 2823 H 471.997 2.50995 3.13503 0
M  V30 2824 H 472.098 0.759148 2.80716 0
M  V30 2825 P 473.197 8.91 2.75506e-12 0
M  V30 2826 O 473.417 10.1746 0.733838 0
M  V30 2827 O 473.987 8.73346 -1.23964 0
M  V30 2828 O 473.447 7.66872 0.971405 0
M  V30 2829 C 472.507 7.42405 2.04668 0
M  V30 2830 C 473.237 6.86059 3.24661 0
M  V30 2831 O 473.447 5.42934 3.03695 0
M  V30 2832 C 474.637 7.41287 3.50796 0
M  V30 2833 O 475.027 7.27073 4.86816 0
M  V30 2834 C 475.517 6.5273 2.63741 0
M  V30 2835 C 474.807 5.1842 2.73198 0
M  V30 2836 N 474.857 4.38762 1.4784 0
M  V30 2837 H 472.019 8.36899 2.3252 0
M  V30 2838 H 471.747 6.70391 1.71179 0
M  V30 2839 H 472.615 7.03638 4.13219 0
M  V30 2840 H 475.27 4.59931 3.54016 0
M  V30 2841 H 475.55 6.88995 1.59871 0
M  V30 2842 H 476.541 6.4684 3.0373 0
M  V30 2843 H 474.707 8.47002 3.20749 0
M  V30 2844 P 476.577 7.20834 5.23717 0
M  V30 2845 O 476.797 7.79853 6.57286 0
M  V30 2846 O 477.367 7.79239 4.12957 0
M  V30 2847 O 476.827 5.63315 5.29344 0
M  V30 2848 C 475.887 4.80255 6.01876 0
M  V30 2849 C 476.617 3.64202 6.65911 0
M  V30 2850 O 476.827 2.60694 5.64732 0
M  V30 2851 C 478.017 3.93473 7.1943 0
M  V30 2852 O 478.407 3.02071 8.21205 0
M  V30 2853 C 478.897 3.73047 5.97036 0
M  V30 2854 C 478.187 2.58828 5.25741 0
M  V30 2855 N 478.237 2.68068 3.77503 0
M  V30 2856 H 475.398 5.40332 6.79951 0
M  V30 2857 H 475.128 4.41613 5.32378 0
M  V30 2858 H 475.995 3.26331 7.47797 0
M  V30 2859 P 479.957 2.75334 8.47391 0
M  V30 2860 O 480.177 2.44595 9.90239 0
M  V30 2861 O 480.747 3.87732 7.92204 0
M  V30 2862 O 480.207 1.4459 7.59357 0
M  V30 2863 C 479.267 0.347563 7.69115 0
M  V30 2864 C 479.997 -0.96767 7.52806 0
M  V30 2865 O 480.207 -1.21036 6.1011 0
M  V30 2866 C 481.397 -1.04544 8.13308 0
M  V30 2867 O 481.787 -2.38311 8.41922 0
M  V30 2868 C 482.277 -0.491279 7.02284 0
M  V30 2869 C 481.567 -0.996264 5.77469 0
M  V30 2870 N 481.617 -0.0501808 4.62873 0
M  V30 2871 C 481.767 -0.588177 3.36904 0
M  V30 2872 O 481.857 -1.78598 3.17173 0
M  V30 2873 N 481.807 0.329694 2.33686 0
M  V30 2874 C 481.717 1.6953 2.45079 0
M  V30 2875 O 481.767 2.41926 1.44899 0
M  V30 2876 C 481.567 2.16933 3.80505 0
M  V30 2877 C 481.457 3.65373 3.97621 0
M  V30 2878 C 481.517 1.30326 4.83752 0
M  V30 2879 H 478.777 0.374722 8.67691 0
M  V30 2880 H 478.508 0.443421 6.90177 0
M  V30 2881 H 479.375 -1.75537 7.96793 0
M  V30 2882 H 482.03 -1.94496 5.46629 0
M  V30 2883 H 482.309 0.608651 7.04676 0
M  V30 2884 H 483.301 -0.889672 7.08939 0
M  V30 2885 H 481.467 -0.43308 9.04564 0
M  V30 2886 H 481.396 1.68366 5.8516 0
M  V30 2887 H 482.426 4.05985 4.30448 0
M  V30 2888 H 480.689 3.88028 4.72875 0
M  V30 2889 H 481.177 4.11381 3.01609 0
M  V30 2890 H 481.913 -0.0393617 1.41345 0
M  V30 2891 P 483.337 -2.75334 8.47391 0
M  V30 2892 O 483.557 -3.84128 9.44797 0
M  V30 2893 O 484.127 -1.51947 8.68712 0
M  V30 2894 O 483.587 -3.29363 6.99321 0
M  V30 2895 C 482.647 -4.24011 6.4274 0
M  V30 2896 C 483.377 -5.20775 5.52155 0
M  V30 2897 O 483.587 -4.56534 4.22446 0
M  V30 2898 C 484.777 -5.62629 5.96531 0
M  V30 2899 O 485.167 -6.87667 5.41053 0
M  V30 2900 C 485.657 -4.52537 5.39283 0
M  V30 2901 C 484.947 -4.20027 4.08623 0
M  V30 2902 N 484.997 -2.76189 3.71603 0
M  V30 2903 H 482.158 -4.797 7.24003 0
M  V30 2904 H 481.888 -3.69856 5.84513 0
M  V30 2905 H 482.755 -6.10356 5.41441 0
M  V30 2906 P 486.717 -7.20834 5.23717 0
M  V30 2907 O 486.937 -8.66189 5.38625 0
M  V30 2908 O 487.507 -6.33615 6.1356 0
M  V30 2909 O 486.967 -6.7751 3.72168 0
M  V30 2910 C 486.027 -7.20732 2.70725 0
M  V30 2911 C 486.757 -7.45864 1.40599 0
M  V30 2912 O 486.967 -6.17651 0.734225 0
M  V30 2913 C 488.157 -8.05808 1.51899 0
M  V30 2914 O 488.547 -8.74358 0.335205 0
M  V30 2915 C 489.037 -6.83093 1.70294 0
M  V30 2916 C 488.327 -5.79992 0.836974 0
M  V30 2917 N 488.377 -4.41769 1.38263 0
M  V30 2918 C 488.527 -3.38591 0.481702 0
M  V30 2919 O 488.617 -3.56839 -0.718452 0
M  V30 2920 N 488.567 -2.1206 1.03569 0
M  V30 2921 C 488.477 -1.80696 2.36966 0
M  V30 2922 O 488.527 -0.630473 2.74862 0
M  V30 2923 C 488.327 -2.94845 3.23898 0
M  V30 2924 C 488.217 -2.65253 4.70362 0
M  V30 2925 C 488.277 -4.19803 2.73435 0
M  V30 2926 H 485.537 -8.13644 3.0377 0
M  V30 2927 H 485.268 -6.42695 2.55448 0
M  V30 2928 H 486.135 -8.12039 0.792769 0
M  V30 2929 H 488.79 -5.79978 -0.160587 0
M  V30 2930 H 489.069 -6.51379 2.75643 0
M  V30 2931 H 490.061 -7.01734 1.34462 0
M  V30 2932 H 488.227 -8.73674 2.38337 0
M  V30 2933 H 488.156 -5.04492 3.4095 0
M  V30 2934 H 489.186 -2.83924 5.1913 0
M  V30 2935 H 487.449 -3.29824 5.15163 0
M  V30 2936 H 487.937 -1.59723 4.84449 0
M  V30 2937 H 488.673 -1.35644 0.399345 0
M  V30 2938 P 490.097 -8.91 -2.91224e-12 0
M  V30 2939 O 490.317 -10.1726 -0.733694 0
M  V30 2940 O 490.887 -8.73148 1.23936 0
M  V30 2941 O 490.347 -7.66872 -0.971405 0
M  V30 2942 C 489.407 -7.42309 -2.04641 0
M  V30 2943 C 490.137 -6.86059 -3.24661 0
M  V30 2944 O 490.347 -5.42847 -3.03646 0
M  V30 2945 C 491.537 -7.41196 -3.50753 0
M  V30 2946 O 491.927 -7.27073 -4.86816 0
M  V30 2947 C 492.417 -6.5273 -2.63741 0
M  V30 2948 C 491.707 -5.1842 -2.73198 0
M  V30 2949 N 491.757 -4.38762 -1.4784 0
M  V30 2950 H 488.918 -8.36803 -2.32493 0
M  V30 2951 H 488.648 -6.70197 -1.71129 0
M  V30 2952 H 489.515 -7.03551 -4.13168 0
M  V30 2953 P 493.477 -7.20834 -5.23717 0
M  V30 2954 O 493.697 -7.79853 -6.57286 0
M  V30 2955 O 494.267 -7.79239 -4.12957 0
M  V30 2956 O 493.727 -5.63315 -5.29344 0
M  V30 2957 C 492.787 -4.80255 -6.01876 0
M  V30 2958 C 493.517 -3.64202 -6.65911 0
M  V30 2959 O 493.727 -2.60694 -5.64732 0
M  V30 2960 C 494.917 -3.93473 -7.1943 0
M  V30 2961 O 495.307 -3.02071 -8.21205 0
M  V30 2962 C 495.797 -3.73047 -5.97036 0
M  V30 2963 C 495.087 -2.58828 -5.25741 0
M  V30 2964 N 495.137 -2.68068 -3.77503 0
M  V30 2965 H 492.298 -5.40332 -6.79951 0
M  V30 2966 H 492.028 -4.41613 -5.32378 0
M  V30 2967 H 492.895 -3.26331 -7.47797 0
M  V30 2968 P 496.857 -2.75334 -8.47391 0
M  V30 2969 O 497.077 -2.44571 -9.90142 0
M  V30 2970 O 497.647 -3.87688 -7.92115 0
M  V30 2971 O 497.107 -1.4459 -7.59357 0
M  V30 2972 C 496.167 -0.347608 -7.69215 0
M  V30 2973 C 496.897 0.96767 -7.52806 0
M  V30 2974 O 497.107 1.21036 -6.1011 0
M  V30 2975 C 498.297 1.04544 -8.13308 0
M  V30 2976 O 498.687 2.38311 -8.41922 0
M  V30 2977 C 499.177 0.491279 -7.02284 0
M  V30 2978 C 498.467 0.996264 -5.77469 0
M  V30 2979 N 498.517 0.0501916 -4.62973 0
M  V30 2980 H 495.678 -0.374722 -8.67691 0
M  V30 2981 H 495.408 -0.443485 -6.90277 0
M  V30 2982 H 496.275 1.75537 -7.96793 0
M  V30 2983 P 500.237 2.75334 -8.47391 0
M  V30 2984 O 500.457 3.84128 -9.44797 0
M  V30 2985 O 501.027 1.51947 -8.68712 0
M  V30 2986 O 500.487 3.29363 -6.99321 0
M  V30 2987 C 499.547 4.24011 -6.4274 0
M  V30 2988 C 500.277 5.20775 -5.52155 0
M  V30 2989 O 500.487 4.56534 -4.22446 0
M  V30 2990 C 501.677 5.62629 -5.96531 0
M  V30 2991 O 502.067 6.87667 -5.41053 0
M  V30 2992 C 502.557 4.52537 -5.39283 0
M  V30 2993 C 501.847 4.20027 -4.08623 0
M  V30 2994 N 501.897 2.76189 -3.71603 0
M  V30 2995 H 499.058 4.797 -7.24003 0
M  V30 2996 H 498.788 3.69856 -5.84513 0
M  V30 2997 H 499.655 6.10356 -5.41441 0
M  V30 2998 P 503.617 7.20834 -5.23717 0
M  V30 2999 O 503.837 8.66104 -5.38572 0
M  V30 3000 O 504.407 6.33544 -6.1349 0
M  V30 3001 O 503.867 6.7751 -3.72168 0
M  V30 3002 C 502.927 7.20825 -2.7076 0
M  V30 3003 C 503.657 7.45864 -1.40599 0
M  V30 3004 O 503.867 6.17651 -0.734225 0
M  V30 3005 C 505.057 8.05808 -1.51899 0
M  V30 3006 O 505.447 8.74358 -0.335205 0
M  V30 3007 C 505.937 6.83093 -1.70294 0
M  V30 3008 C 505.227 5.79992 -0.836974 0
M  V30 3009 N 505.277 4.41864 -1.38293 0
M  V30 3010 H 502.438 8.13644 -3.0377 0
M  V30 3011 H 502.168 6.42788 -2.55485 0
M  V30 3012 H 503.035 8.12039 -0.792769 0
M  V30 3013 P 506.997 8.91 3.06942e-12 0
M  V30 3014 O 507.217 10.1726 0.733694 0
M  V30 3015 O 507.787 8.73148 -1.23936 0
M  V30 3016 O 507.247 7.66872 0.971405 0
M  V30 3017 C 506.307 7.42309 2.04641 0
M  V30 3018 C 507.037 6.86059 3.24661 0
M  V30 3019 O 507.247 5.42847 3.03646 0
M  V30 3020 C 508.437 7.41196 3.50753 0
M  V30 3021 O 508.827 7.27073 4.86816 0
M  V30 3022 C 509.317 6.5273 2.63741 0
M  V30 3023 C 508.607 5.1842 2.73198 0
M  V30 3024 N 508.657 4.38762 1.4784 0
M  V30 3025 H 505.818 8.36803 2.32493 0
M  V30 3026 H 505.548 6.70197 1.71129 0
M  V30 3027 H 506.415 7.03551 4.13168 0
M  V30 3028 P 510.377 7.20834 5.23717 0
M  V30 3029 O 510.597 7.79853 6.57286 0
M  V30 3030 O 511.167 7.79239 4.12957 0
M  V30 3031 O 510.627 5.63315 5.29344 0
M  V30 3032 C 509.687 4.80255 6.01876 0
M  V30 3033 C 510.417 3.64202 6.65911 0
M  V30 3034 O 510.627 2.60694 5.64732 0
M  V30 3035 C 511.817 3.93473 7.1943 0
M  V30 3036 O 512.207 3.02071 8.21205 0
M  V30 3037 C 512.697 3.73047 5.97036 0
M  V30 3038 C 511.987 2.58828 5.25741 0
M  V30 3039 N 512.037 2.68068 3.77503 0
M  V30 3040 H 509.198 5.40332 6.79951 0
M  V30 3041 H 508.928 4.41613 5.32378 0
M  V30 3042 H 509.795 3.26331 7.47797 0
M  V30 3043 P 513.757 2.75334 8.47391 0
M  V30 3044 O 513.977 2.44571 9.90142 0
M  V30 3045 O 514.547 3.87688 7.92115 0
M  V30 3046 O 514.007 1.4459 7.59357 0
M  V30 3047 C 513.067 0.347608 7.69215 0
M  V30 3048 C 513.797 -0.96767 7.52806 0
M  V30 3049 O 514.007 -1.21036 6.1011 0
M  V30 3050 C 515.197 -1.04544 8.13308 0
M  V30 3051 O 515.587 -2.38311 8.41922 0
M  V30 3052 C 516.077 -0.491279 7.02284 0
M  V30 3053 C 515.367 -0.996264 5.77469 0
M  V30 3054 N 515.417 -0.0501916 4.62973 0
M  V30 3055 H 512.578 0.374722 8.67691 0
M  V30 3056 H 512.308 0.443485 6.90277 0
M  V30 3057 H 513.175 -1.75537 7.96793 0
M  V30 3058 P 517.137 -2.75334 8.47391 0
M  V30 3059 O 517.357 -3.84128 9.44797 0
M  V30 3060 O 517.927 -1.51947 8.68712 0
M  V30 3061 O 517.387 -3.29363 6.99321 0
M  V30 3062 C 516.447 -4.24011 6.4274 0
M  V30 3063 C 517.177 -5.20775 5.52155 0
M  V30 3064 O 517.387 -4.56534 4.22446 0
M  V30 3065 C 518.577 -5.62629 5.96531 0
M  V30 3066 O 518.967 -6.87667 5.41053 0
M  V30 3067 C 519.457 -4.52537 5.39283 0
M  V30 3068 C 518.747 -4.20027 4.08623 0
M  V30 3069 N 518.797 -2.76189 3.71603 0
M  V30 3070 H 515.958 -4.797 7.24003 0
M  V30 3071 H 515.688 -3.69856 5.84513 0
M  V30 3072 H 516.555 -6.10356 5.41441 0
M  V30 3073 P 520.517 -7.20834 5.23717 0
M  V30 3074 O 520.737 -8.66274 5.38678 0
M  V30 3075 O 521.307 -6.33687 6.13629 0
M  V30 3076 O 520.767 -6.7751 3.72168 0
M  V30 3077 C 519.827 -7.20919 2.70795 0
M  V30 3078 C 520.557 -7.45864 1.40599 0
M  V30 3079 O 520.767 -6.17751 0.734343 0
M  V30 3080 C 521.957 -8.05906 1.51917 0
M  V30 3081 O 522.347 -8.74358 0.335205 0
M  V30 3082 C 522.837 -6.83093 1.70294 0
M  V30 3083 C 522.127 -5.79992 0.836974 0
M  V30 3084 N 522.177 -4.41864 1.38293 0
M  V30 3085 H 519.339 -8.13738 3.03804 0
M  V30 3086 H 519.067 -6.42974 2.55559 0
M  V30 3087 H 519.935 -8.12139 0.792866 0
M  V30 3088 H 522.59 -5.80178 -0.160643 0
M  V30 3089 H 522.87 -6.51379 2.75643 0
M  V30 3090 H 523.861 -7.01832 1.3448 0
M  V30 3091 H 522.027 -8.73771 2.38364 0
M  V30 3092 P 523.897 -8.91 -3.22661e-12 0
M  V30 3093 O 524.117 -10.1726 -0.733694 0
M  V30 3094 O 524.687 -8.73148 1.23936 0
M  V30 3095 O 524.147 -7.66872 -0.971405 0
M  V30 3096 C 523.207 -7.42309 -2.04641 0
M  V30 3097 C 523.937 -6.86059 -3.24661 0
M  V30 3098 O 524.147 -5.42847 -3.03646 0
M  V30 3099 C 525.337 -7.41196 -3.50753 0
M  V30 3100 O 525.727 -7.27073 -4.86816 0
M  V30 3101 C 526.217 -6.5273 -2.63741 0
M  V30 3102 C 525.507 -5.1842 -2.73198 0
M  V30 3103 N 525.557 -4.38762 -1.4784 0
M  V30 3104 C 525.477 -4.81605 -0.168631 0
M  V30 3105 N 525.557 -3.85454 0.713363 0
M  V30 3106 C 525.697 -2.6994 -0.0566958 0
M  V30 3107 C 525.827 -1.34815 0.338502 0
M  V30 3108 N 525.947 -0.496304 -0.77465 0
M  V30 3109 C 525.947 -0.908403 -2.09122 0
M  V30 3110 N 526.077 0.0517805 -3.00955 0
M  V30 3111 N 525.817 -2.17875 -2.46519 0
M  V30 3112 C 525.697 -3.01988 -1.4033 0
M  V30 3113 H 522.718 -8.36803 -2.32493 0
M  V30 3114 H 522.448 -6.70197 -1.71129 0
M  V30 3115 H 523.315 -7.03551 -4.13168 0
M  V30 3116 P 527.277 -7.20834 -5.23717 0
M  V30 3117 O 527.497 -7.79853 -6.57286 0
M  V30 3118 O 528.067 -7.79239 -4.12957 0
M  V30 3119 O 527.527 -5.63315 -5.29344 0
M  V30 3120 C 526.587 -4.80255 -6.01876 0
M  V30 3121 C 527.317 -3.64202 -6.65911 0
M  V30 3122 O 527.527 -2.60694 -5.64732 0
M  V30 3123 C 528.717 -3.93473 -7.1943 0
M  V30 3124 O 529.107 -3.02071 -8.21205 0
M  V30 3125 C 529.597 -3.73047 -5.97036 0
M  V30 3126 C 528.887 -2.58828 -5.25741 0
M  V30 3127 N 528.937 -2.68068 -3.77503 0
M  V30 3128 H 526.098 -5.40332 -6.79951 0
M  V30 3129 H 525.828 -4.41613 -5.32378 0
M  V30 3130 H 526.695 -3.26331 -7.47797 0
M  V30 3131 P 530.657 -2.75334 -8.47391 0
M  V30 3132 O 530.877 -2.44571 -9.90142 0
M  V30 3133 O 531.447 -3.87688 -7.92115 0
M  V30 3134 O 530.907 -1.4459 -7.59357 0
M  V30 3135 C 529.967 -0.347608 -7.69215 0
M  V30 3136 C 530.697 0.96767 -7.52806 0
M  V30 3137 O 530.907 1.21036 -6.1011 0
M  V30 3138 C 532.097 1.04544 -8.13308 0
M  V30 3139 O 532.487 2.38311 -8.41922 0
M  V30 3140 C 532.977 0.491279 -7.02284 0
M  V30 3141 C 532.267 0.996264 -5.77469 0
M  V30 3142 N 532.317 0.0501916 -4.62973 0
M  V30 3143 C 532.237 -1.32786 -4.63244 0
M  V30 3144 N 532.317 -1.86957 -3.44545 0
M  V30 3145 C 532.457 -0.780241 -2.58481 0
M  V30 3146 C 532.587 -0.738536 -1.17757 0
M  V30 3147 O 532.607 -1.66794 -0.372349 0
M  V30 3148 N 532.707 0.58337 -0.711393 0
M  V30 3149 C 532.707 1.70816 -1.51017 0
M  V30 3150 N 532.837 2.87826 -0.880757 0
M  V30 3151 N 532.577 1.67126 -2.8339 0
M  V30 3152 C 532.457 0.401421 -3.30572 0
M  V30 3153 H 529.478 -0.374722 -8.67691 0
M  V30 3154 H 529.208 -0.443485 -6.90277 0
M  V30 3155 H 530.075 1.75537 -7.96793 0
M  V30 3156 H 532.73 1.95076 -5.46529 0
M  V30 3157 H 533.009 -0.608565 -7.04577 0
M  V30 3158 H 534.001 0.889672 -7.08939 0
M  V30 3159 H 532.167 0.43308 -9.04564 0
M  V30 3160 H 532.118 -1.91249 -5.54442 0
M  V30 3161 H 532.8 0.718054 0.275244 0
M  V30 3162 H 532.837 3.75721 -1.41832 0
M  V30 3163 H 532.938 2.90436 0.145468 0
M  V30 3164 P 534.037 2.75334 -8.47391 0
M  V30 3165 O 534.257 3.84128 -9.44797 0
M  V30 3166 O 534.827 1.51947 -8.68712 0
M  V30 3167 O 534.287 3.29363 -6.99321 0
M  V30 3168 C 533.347 4.24011 -6.4274 0
M  V30 3169 C 534.077 5.20775 -5.52155 0
M  V30 3170 O 534.287 4.56534 -4.22446 0
M  V30 3171 C 535.477 5.62629 -5.96531 0
M  V30 3172 O 535.867 6.87667 -5.41053 0
M  V30 3173 C 536.357 4.52537 -5.39283 0
M  V30 3174 C 535.647 4.20027 -4.08623 0
M  V30 3175 N 535.697 2.76189 -3.71603 0
M  V30 3176 H 532.858 4.797 -7.24003 0
M  V30 3177 H 532.588 3.69856 -5.84513 0
M  V30 3178 H 533.455 6.10356 -5.41441 0
M  V30 3179 P 537.417 7.20834 -5.23717 0
M  V30 3180 O 537.637 8.66104 -5.38572 0
M  V30 3181 O 538.207 6.33544 -6.1349 0
M  V30 3182 O 537.667 6.7751 -3.72168 0
M  V30 3183 C 536.727 7.20825 -2.7076 0
M  V30 3184 C 537.457 7.45864 -1.40599 0
M  V30 3185 O 537.667 6.17651 -0.734225 0
M  V30 3186 C 538.857 8.05808 -1.51899 0
M  V30 3187 O 539.247 8.74358 -0.335205 0
M  V30 3188 C 539.737 6.83093 -1.70294 0
M  V30 3189 C 539.027 5.79992 -0.836974 0
M  V30 3190 N 539.077 4.41864 -1.38293 0
M  V30 3191 H 536.238 8.13644 -3.0377 0
M  V30 3192 H 535.968 6.42788 -2.55485 0
M  V30 3193 H 536.835 8.12039 -0.792769 0
M  V30 3194 P 540.797 8.91 3.38379e-12 0
M  V30 3195 O 541.017 10.1726 0.733694 0
M  V30 3196 O 541.587 8.73148 -1.23936 0
M  V30 3197 O 541.047 7.66872 0.971405 0
M  V30 3198 C 540.107 7.42309 2.04641 0
M  V30 3199 C 540.837 6.86059 3.24661 0
M  V30 3200 O 541.047 5.42847 3.03646 0
M  V30 3201 C 542.237 7.41196 3.50753 0
M  V30 3202 O 542.627 7.27073 4.86816 0
M  V30 3203 C 543.117 6.5273 2.63741 0
M  V30 3204 C 542.407 5.1842 2.73198 0
M  V30 3205 N 542.457 4.38762 1.4784 0
M  V30 3206 H 539.618 8.36803 2.32493 0
M  V30 3207 H 539.348 6.70197 1.71129 0
M  V30 3208 H 540.215 7.03551 4.13168 0
M  V30 3209 P 544.177 7.20834 5.23717 0
M  V30 3210 O 544.397 7.79853 6.57286 0
M  V30 3211 O 544.967 7.79239 4.12957 0
M  V30 3212 O 544.427 5.63315 5.29344 0
M  V30 3213 C 543.487 4.80255 6.01876 0
M  V30 3214 C 544.217 3.64202 6.65911 0
M  V30 3215 O 544.427 2.60694 5.64732 0
M  V30 3216 C 545.617 3.93473 7.1943 0
M  V30 3217 O 546.007 3.02071 8.21205 0
M  V30 3218 C 546.497 3.73047 5.97036 0
M  V30 3219 C 545.787 2.58828 5.25741 0
M  V30 3220 N 545.837 2.68068 3.77503 0
M  V30 3221 H 542.998 5.40332 6.79951 0
M  V30 3222 H 542.728 4.41613 5.32378 0
M  V30 3223 H 543.595 3.26331 7.47797 0
M  V30 3224 P 547.557 2.75334 8.47391 0
M  V30 3225 O 547.777 2.44571 9.90142 0
M  V30 3226 O 548.347 3.87688 7.92115 0
M  V30 3227 O 547.807 1.4459 7.59357 0
M  V30 3228 C 546.867 0.347608 7.69215 0
M  V30 3229 C 547.597 -0.96767 7.52806 0
M  V30 3230 O 547.807 -1.21036 6.1011 0
M  V30 3231 C 548.997 -1.04544 8.13308 0
M  V30 3232 O 549.387 -2.38311 8.41922 0
M  V30 3233 C 549.877 -0.491279 7.02284 0
M  V30 3234 C 549.167 -0.996264 5.77469 0
M  V30 3235 N 549.217 -0.0501916 4.62973 0
M  V30 3236 H 546.378 0.374722 8.67691 0
M  V30 3237 H 546.108 0.443485 6.90277 0
M  V30 3238 H 546.975 -1.75537 7.96793 0
M  V30 3239 P 550.937 -2.75334 8.47391 0
M  V30 3240 O 551.157 -3.84204 9.44982 0
M  V30 3241 O 551.727 -1.51982 8.68909 0
M  V30 3242 O 551.187 -3.29363 6.99321 0
M  V30 3243 C 550.247 -4.24066 6.42823 0
M  V30 3244 C 550.977 -5.20775 5.52155 0
M  V30 3245 O 551.187 -4.56607 4.22514 0
M  V30 3246 C 552.377 -5.62697 5.96604 0
M  V30 3247 O 552.767 -6.87667 5.41053 0
M  V30 3248 C 553.257 -4.52537 5.39283 0
M  V30 3249 C 552.547 -4.20027 4.08623 0
M  V30 3250 N 552.597 -2.76189 3.71603 0
M  V30 3251 H 549.759 -4.79756 7.24086 0
M  V30 3252 H 549.487 -3.69963 5.84682 0
M  V30 3253 H 550.355 -6.10431 5.41508 0
M  V30 3254 H 553.01 -4.78816 3.28024 0
M  V30 3255 H 553.29 -3.64957 6.05871 0
M  V30 3256 H 554.281 -4.88748 5.21323 0
M  V30 3257 H 552.447 -5.66789 7.0643 0
M  V30 3258 P 554.317 -7.20834 5.23717 0
M  V30 3259 O 554.537 -8.66104 5.38572 0
M  V30 3260 O 555.107 -6.33544 6.1349 0
M  V30 3261 O 554.567 -6.7751 3.72168 0
M  V30 3262 C 553.627 -7.20825 2.7076 0
M  V30 3263 C 554.357 -7.45864 1.40599 0
M  V30 3264 O 554.567 -6.17651 0.734225 0
M  V30 3265 C 555.757 -8.05808 1.51899 0
M  V30 3266 O 556.147 -8.74358 0.335205 0
M  V30 3267 C 556.637 -6.83093 1.70294 0
M  V30 3268 C 555.927 -5.79992 0.836974 0
M  V30 3269 N 555.977 -4.41864 1.38293 0
M  V30 3270 C 555.897 -3.99538 2.69438 0
M  V30 3271 N 555.977 -2.69909 2.84277 0
M  V30 3272 C 556.117 -2.21719 1.5408 0
M  V30 3273 C 556.247 -0.891712 1.06628 0
M  V30 3274 O 556.267 0.161298 1.70137 0
M  V30 3275 N 556.367 -0.856846 -0.334985 0
M  V30 3276 C 556.367 -1.9641 -1.15789 0
M  V30 3277 N 556.497 -1.72708 -2.46522 0
M  V30 3278 N 556.237 -3.21165 -0.713741 0
M  V30 3279 C 556.117 -3.26797 0.639748 0
M  V30 3280 H 553.138 -8.13644 3.0377 0
M  V30 3281 H 552.868 -6.42788 2.55485 0
M  V30 3282 H 553.735 -8.12039 0.792769 0
M  V30 3283 H 556.39 -5.80061 -0.166416 0
M  V30 3284 H 556.669 -6.51287 2.75604 0
M  V30 3285 H 557.661 -7.01734 1.34462 0
M  V30 3286 H 555.827 -8.73674 2.38337 0
M  V30 3287 H 555.778 -4.68207 3.53221 0
M  V30 3288 H 556.46 0.0398818 -0.767965 0
M  V30 3289 H 556.497 -2.50995 -3.13503 0
M  V30 3290 H 556.598 -0.759148 -2.80716 0
M  V30 3291 P 557.697 -8.91 -3.54097e-12 0
M  V30 3292 O 557.917 -10.1726 -0.733694 0
M  V30 3293 O 558.487 -8.73148 1.23936 0
M  V30 3294 O 557.947 -7.66872 -0.971405 0
M  V30 3295 C 557.007 -7.42309 -2.04641 0
M  V30 3296 C 557.737 -6.86059 -3.24661 0
M  V30 3297 O 557.947 -5.42847 -3.03646 0
M  V30 3298 C 559.137 -7.41196 -3.50753 0
M  V30 3299 O 559.527 -7.27073 -4.86816 0
M  V30 3300 C 560.017 -6.5273 -2.63741 0
M  V30 3301 C 559.307 -5.1842 -2.73198 0
M  V30 3302 N 559.357 -4.38762 -1.4784 0
M  V30 3303 H 556.518 -8.36803 -2.32493 0
M  V30 3304 H 556.248 -6.70197 -1.71129 0
M  V30 3305 H 557.115 -7.03551 -4.13168 0
M  V30 3306 P 561.077 -7.20834 -5.23717 0
M  V30 3307 O 561.297 -7.80006 -6.57415 0
M  V30 3308 O 561.867 -7.79416 -4.13051 0
M  V30 3309 O 561.327 -5.63315 -5.29344 0
M  V30 3310 C 560.387 -4.80318 -6.01954 0
M  V30 3311 C 561.117 -3.64202 -6.65911 0
M  V30 3312 O 561.327 -2.60736 -5.64823 0
M  V30 3313 C 562.517 -3.93521 -7.19518 0
M  V30 3314 O 562.907 -3.02071 -8.21205 0
M  V30 3315 C 563.397 -3.73047 -5.97036 0
M  V30 3316 C 562.687 -2.58828 -5.25741 0
M  V30 3317 N 562.737 -2.68068 -3.77503 0
M  V30 3318 H 559.899 -5.40394 -6.8003 0
M  V30 3319 H 559.627 -4.41741 -5.32532 0
M  V30 3320 H 560.495 -3.26371 -7.47889 0
M  V30 3321 H 563.15 -1.64007 -5.56746 0
M  V30 3322 H 563.43 -4.63439 -5.3432 0
M  V30 3323 H 564.421 -3.44776 -6.25925 0
M  V30 3324 H 562.587 -4.96707 -7.57347 0
M  V30 3325 P 564.457 -2.75334 -8.47391 0
M  V30 3326 O 564.677 -2.44619 -9.90336 0
M  V30 3327 O 565.247 -3.87776 -7.92294 0
M  V30 3328 O 564.707 -1.4459 -7.59357 0
M  V30 3329 C 563.767 -0.347653 -7.69315 0
M  V30 3330 C 564.497 0.96767 -7.52806 0
M  V30 3331 O 564.707 1.21055 -6.10208 0
M  V30 3332 C 565.897 1.04557 -8.13408 0
M  V30 3333 O 566.287 2.38311 -8.41922 0
M  V30 3334 C 566.777 0.491279 -7.02284 0
M  V30 3335 C 566.067 0.996264 -5.77469 0
M  V30 3336 N 566.117 0.0501916 -4.62973 0
M  V30 3337 C 566.037 -1.31969 -4.65661 0
M  V30 3338 N 566.107 -1.86649 -3.48119 0
M  V30 3339 C 566.257 -0.792089 -2.62406 0
M  V30 3340 C 566.387 -0.705684 -1.2207 0
M  V30 3341 N 566.397 -1.76207 -0.413762 0
M  V30 3342 N 566.507 0.518981 -0.685754 0
M  V30 3343 C 566.497 1.57595 -1.49174 0
M  V30 3344 N 566.377 1.62909 -2.80066 0
M  V30 3345 C 566.257 0.388195 -3.3073 0
M  V30 3346 H 563.279 -0.374765 -8.67791 0
M  V30 3347 H 563.007 -0.443613 -6.90476 0
M  V30 3348 H 563.875 1.75559 -7.96891 0
M  V30 3349 H 566.53 1.94563 -5.46818 0
M  V30 3350 H 566.81 -0.608651 -7.04676 0
M  V30 3351 H 567.801 0.889796 -7.09039 0
M  V30 3352 H 565.967 0.433128 -9.04664 0
M  V30 3353 H 565.926 -1.89246 -5.57664 0
M  V30 3354 H 566.307 -2.71005 -0.804694 0
M  V30 3355 H 566.496 -1.63189 0.603768 0
M  V30 3356 H 566.604 2.53475 -0.997614 0
M  V30 3357 P 567.837 2.75334 -8.47391 0
M  V30 3358 O 568.057 3.84128 -9.44797 0
M  V30 3359 O 568.627 1.51947 -8.68712 0
M  V30 3360 O 568.087 3.29363 -6.99321 0
M  V30 3361 C 567.147 4.24011 -6.4274 0
M  V30 3362 C 567.877 5.20775 -5.52155 0
M  V30 3363 O 568.087 4.56534 -4.22446 0
M  V30 3364 C 569.277 5.62629 -5.96531 0
M  V30 3365 O 569.667 6.87667 -5.41053 0
M  V30 3366 C 570.157 4.52537 -5.39283 0
M  V30 3367 C 569.447 4.20027 -4.08623 0
M  V30 3368 N 569.497 2.76189 -3.71603 0
M  V30 3369 H 566.658 4.797 -7.24003 0
M  V30 3370 H 566.388 3.69856 -5.84513 0
M  V30 3371 H 567.255 6.10356 -5.41441 0
M  V30 3372 P 571.217 7.20834 -5.23717 0
M  V30 3373 O 571.437 8.66104 -5.38572 0
M  V30 3374 O 572.007 6.33544 -6.1349 0
M  V30 3375 O 571.467 6.7751 -3.72168 0
M  V30 3376 C 570.527 7.20825 -2.7076 0
M  V30 3377 C 571.257 7.45864 -1.40599 0
M  V30 3378 O 571.467 6.17651 -0.734225 0
M  V30 3379 C 572.657 8.05808 -1.51899 0
M  V30 3380 O 573.047 8.74358 -0.335205 0
M  V30 3381 C 573.537 6.83093 -1.70294 0
M  V30 3382 C 572.827 5.79992 -0.836974 0
M  V30 3383 N 572.877 4.41864 -1.38293 0
M  V30 3384 H 570.038 8.13644 -3.0377 0
M  V30 3385 H 569.768 6.42788 -2.55485 0
M  V30 3386 H 570.635 8.12039 -0.792769 0
M  V30 3387 P 574.597 8.91 3.69815e-12 0
M  V30 3388 O 574.817 10.1726 0.733694 0
M  V30 3389 O 575.387 8.73148 -1.23936 0
M  V30 3390 O 574.847 7.66872 0.971405 0
M  V30 3391 C 573.907 7.42309 2.04641 0
M  V30 3392 C 574.637 6.86059 3.24661 0
M  V30 3393 O 574.847 5.42847 3.03646 0
M  V30 3394 C 576.037 7.41196 3.50753 0
M  V30 3395 O 576.427 7.27073 4.86816 0
M  V30 3396 C 576.917 6.5273 2.63741 0
M  V30 3397 C 576.207 5.1842 2.73198 0
M  V30 3398 N 576.257 4.38762 1.4784 0
M  V30 3399 H 573.418 8.36803 2.32493 0
M  V30 3400 H 573.148 6.70197 1.71129 0
M  V30 3401 H 574.015 7.03551 4.13168 0
M  V30 3402 P 577.977 7.20834 5.23717 0
M  V30 3403 O 578.197 7.79853 6.57286 0
M  V30 3404 O 578.767 7.79239 4.12957 0
M  V30 3405 O 578.227 5.63315 5.29344 0
M  V30 3406 C 577.287 4.80255 6.01876 0
M  V30 3407 C 578.017 3.64202 6.65911 0
M  V30 3408 O 578.227 2.60694 5.64732 0
M  V30 3409 C 579.417 3.93473 7.1943 0
M  V30 3410 O 579.807 3.02071 8.21205 0
M  V30 3411 C 580.297 3.73047 5.97036 0
M  V30 3412 C 579.587 2.58828 5.25741 0
M  V30 3413 N 579.637 2.68068 3.77503 0
M  V30 3414 C 579.557 3.79715 2.96723 0
M  V30 3415 N 579.637 3.5377 1.68852 0
M  V30 3416 C 579.777 2.15054 1.63254 0
M  V30 3417 C 579.907 1.28964 0.518571 0
M  V30 3418 O 579.927 1.56826 -0.679156 0
M  V30 3419 N 580.027 -0.0538097 0.918425 0
M  V30 3420 C 580.027 -0.494275 2.22578 0
M  V30 3421 N 580.157 -1.81086 2.40434 0
M  V30 3422 N 579.897 0.313645 3.27502 0
M  V30 3423 C 579.777 1.61829 2.91033 0
M  V30 3424 H 576.798 5.40332 6.79951 0
M  V30 3425 H 576.528 4.41613 5.32378 0
M  V30 3426 H 577.395 3.26331 7.47797 0
M  V30 3427 H 580.05 1.63422 5.56814 0
M  V30 3428 H 580.329 4.63374 5.34244 0
M  V30 3429 H 581.321 3.44728 6.25838 0
M  V30 3430 H 579.487 4.96652 7.57263 0
M  V30 3431 H 579.438 4.80617 3.3614 0
M  V30 3432 H 580.12 -0.742702 0.199384 0
M  V30 3433 H 580.157 -2.20598 3.35588 0
M  V30 3434 H 580.258 -2.43518 1.58945 0
M  V30 3435 P 581.357 2.75334 8.47391 0
M  V30 3436 O 581.577 2.44619 9.90336 0
M  V30 3437 O 582.147 3.87776 7.92294 0
M  V30 3438 O 581.607 1.4459 7.59357 0
M  V30 3439 C 580.667 0.347653 7.69315 0
M  V30 3440 C 581.397 -0.96767 7.52806 0
M  V30 3441 O 581.607 -1.21055 6.10208 0
M  V30 3442 C 582.797 -1.04557 8.13408 0
M  V30 3443 O 583.187 -2.38311 8.41922 0
M  V30 3444 C 583.677 -0.491279 7.02284 0
M  V30 3445 C 582.967 -0.996264 5.77469 0
M  V30 3446 N 583.017 -0.0501916 4.62973 0
M  V30 3447 C 582.937 1.31969 4.65661 0
M  V30 3448 N 583.007 1.86649 3.48119 0
M  V30 3449 C 583.157 0.792089 2.62406 0
M  V30 3450 C 583.287 0.705684 1.2207 0
M  V30 3451 N 583.297 1.76207 0.413762 0
M  V30 3452 N 583.407 -0.518981 0.685754 0
M  V30 3453 C 583.397 -1.57595 1.49174 0
M  V30 3454 N 583.277 -1.62909 2.80066 0
M  V30 3455 C 583.157 -0.388195 3.3073 0
M  V30 3456 H 580.179 0.374765 8.67791 0
M  V30 3457 H 579.907 0.443613 6.90476 0
M  V30 3458 H 580.775 -1.75559 7.96891 0
M  V30 3459 H 583.43 -1.94563 5.46818 0
M  V30 3460 H 583.71 0.608651 7.04676 0
M  V30 3461 H 584.701 -0.889796 7.09039 0
M  V30 3462 H 582.867 -0.433128 9.04664 0
M  V30 3463 H 582.826 1.89246 5.57664 0
M  V30 3464 H 583.207 2.71005 0.804694 0
M  V30 3465 H 583.396 1.63189 -0.603768 0
M  V30 3466 H 583.504 -2.53475 0.997614 0
M  V30 3467 P 584.737 -2.75334 8.47391 0
M  V30 3468 O 584.957 -3.84128 9.44797 0
M  V30 3469 O 585.527 -1.51947 8.68712 0
M  V30 3470 O 584.987 -3.29363 6.99321 0
M  V30 3471 C 584.047 -4.24011 6.4274 0
M  V30 3472 C 584.777 -5.20775 5.52155 0
M  V30 3473 O 584.987 -4.56534 4.22446 0
M  V30 3474 C 586.177 -5.62629 5.96531 0
M  V30 3475 O 586.567 -6.87667 5.41053 0
M  V30 3476 C 587.057 -4.52537 5.39283 0
M  V30 3477 C 586.347 -4.20027 4.08623 0
M  V30 3478 N 586.397 -2.76189 3.71603 0
M  V30 3479 H 583.558 -4.797 7.24003 0
M  V30 3480 H 583.288 -3.69856 5.84513 0
M  V30 3481 H 584.155 -6.10356 5.41441 0
M  V30 3482 P 588.117 -7.20834 5.23717 0
M  V30 3483 O 588.337 -8.66104 5.38572 0
M  V30 3484 O 588.907 -6.33544 6.1349 0
M  V30 3485 O 588.367 -6.7751 3.72168 0
M  V30 3486 C 587.427 -7.20825 2.7076 0
M  V30 3487 C 588.157 -7.45864 1.40599 0
M  V30 3488 O 588.367 -6.17651 0.734225 0
M  V30 3489 C 589.557 -8.05808 1.51899 0
M  V30 3490 O 589.947 -8.74358 0.335205 0
M  V30 3491 C 590.437 -6.83093 1.70294 0
M  V30 3492 C 589.727 -5.79992 0.836974 0
M  V30 3493 N 589.777 -4.41864 1.38293 0
M  V30 3494 H 586.938 -8.13644 3.0377 0
M  V30 3495 H 586.668 -6.42788 2.55485 0
M  V30 3496 H 587.535 -8.12039 0.792769 0
M  V30 3497 P 591.496 -8.91 -3.85533e-12 0
M  V30 3498 O 591.716 -10.1726 -0.733694 0
M  V30 3499 O 592.286 -8.73148 1.23936 0
M  V30 3500 O 591.746 -7.66872 -0.971405 0
M  V30 3501 C 590.806 -7.42309 -2.04641 0
M  V30 3502 C 591.536 -6.86059 -3.24661 0
M  V30 3503 O 591.746 -5.42847 -3.03646 0
M  V30 3504 C 592.937 -7.41196 -3.50753 0
M  V30 3505 O 593.327 -7.27073 -4.86816 0
M  V30 3506 C 593.817 -6.5273 -2.63741 0
M  V30 3507 C 593.106 -5.1842 -2.73198 0
M  V30 3508 N 593.156 -4.38762 -1.4784 0
M  V30 3509 H 590.317 -8.36803 -2.32493 0
M  V30 3510 H 590.048 -6.70197 -1.71129 0
M  V30 3511 H 590.914 -7.03551 -4.13168 0
M  V30 3512 P 594.876 -7.20834 -5.23717 0
M  V30 3513 O 595.096 -7.79853 -6.57286 0
M  V30 3514 O 595.666 -7.79239 -4.12957 0
M  V30 3515 O 595.126 -5.63315 -5.29344 0
M  V30 3516 C 594.186 -4.80255 -6.01876 0
M  V30 3517 C 594.916 -3.64202 -6.65911 0
M  V30 3518 O 595.126 -2.60694 -5.64732 0
M  V30 3519 C 596.316 -3.93473 -7.1943 0
M  V30 3520 O 596.706 -3.02071 -8.21205 0
M  V30 3521 C 597.196 -3.73047 -5.97036 0
M  V30 3522 C 596.486 -2.58828 -5.25741 0
M  V30 3523 N 596.536 -2.68068 -3.77503 0
M  V30 3524 H 593.697 -5.40332 -6.79951 0
M  V30 3525 H 593.427 -4.41613 -5.32378 0
M  V30 3526 H 594.294 -3.26331 -7.47797 0
M  V30 3527 P 598.256 -2.75334 -8.47391 0
M  V30 3528 O 598.476 -2.44571 -9.90142 0
M  V30 3529 O 599.046 -3.87688 -7.92115 0
M  V30 3530 O 598.506 -1.4459 -7.59357 0
M  V30 3531 C 597.566 -0.347608 -7.69215 0
M  V30 3532 C 598.296 0.96767 -7.52806 0
M  V30 3533 O 598.506 1.21036 -6.1011 0
M  V30 3534 C 599.696 1.04544 -8.13308 0
M  V30 3535 O 600.086 2.38311 -8.41922 0
M  V30 3536 C 600.576 0.491279 -7.02284 0
M  V30 3537 C 599.866 0.996264 -5.77469 0
M  V30 3538 N 599.916 0.0501916 -4.62973 0
M  V30 3539 H 597.077 -0.374722 -8.67691 0
M  V30 3540 H 596.807 -0.443485 -6.90277 0
M  V30 3541 H 597.674 1.75537 -7.96793 0
M  V30 3542 P 601.636 2.75334 -8.47391 0
M  V30 3543 O 601.856 3.84128 -9.44797 0
M  V30 3544 O 602.426 1.51947 -8.68712 0
M  V30 3545 O 601.886 3.29363 -6.99321 0
M  V30 3546 C 600.946 4.24011 -6.4274 0
M  V30 3547 C 601.676 5.20775 -5.52155 0
M  V30 3548 O 601.886 4.56534 -4.22446 0
M  V30 3549 C 603.076 5.62629 -5.96531 0
M  V30 3550 O 603.466 6.87667 -5.41053 0
M  V30 3551 C 603.956 4.52537 -5.39283 0
M  V30 3552 C 603.246 4.20027 -4.08623 0
M  V30 3553 N 603.296 2.76189 -3.71603 0
M  V30 3554 C 603.216 1.64862 -4.52822 0
M  V30 3555 N 603.296 0.512671 -3.88633 0
M  V30 3556 C 603.436 0.888083 -2.54977 0
M  V30 3557 C 603.566 0.094668 -1.38677 0
M  V30 3558 N 603.686 0.890102 -0.232633 0
M  V30 3559 C 603.686 2.26958 -0.21772 0
M  V30 3560 N 603.816 2.84626 0.97925 0
M  V30 3561 N 603.556 3.0178 -1.31033 0
M  V30 3562 C 603.436 2.26781 -2.43843 0
M  V30 3563 H 600.457 4.797 -7.24003 0
M  V30 3564 H 600.187 3.69856 -5.84513 0
M  V30 3565 H 601.054 6.10356 -5.41441 0
M  V30 3566 P 605.016 7.20834 -5.23717 0
M  V30 3567 O 605.236 8.66274 -5.38678 0
M  V30 3568 O 605.806 6.33687 -6.13629 0
M  V30 3569 O 605.266 6.7751 -3.72168 0
M  V30 3570 C 604.326 7.20919 -2.70795 0
M  V30 3571 C 605.056 7.45864 -1.40599 0
M  V30 3572 O 605.266 6.17751 -0.734343 0
M  V30 3573 C 606.456 8.05906 -1.51917 0
M  V30 3574 O 606.846 8.74358 -0.335205 0
M  V30 3575 C 607.336 6.83093 -1.70294 0
M  V30 3576 C 606.626 5.79992 -0.836974 0
M  V30 3577 N 606.676 4.41864 -1.38293 0
M  V30 3578 H 603.838 8.13738 -3.03804 0
M  V30 3579 H 603.566 6.42974 -2.55559 0
M  V30 3580 H 604.434 8.12139 -0.792866 0
M  V30 3581 H 607.089 5.80178 0.160643 0
M  V30 3582 H 607.369 6.51379 -2.75643 0
M  V30 3583 H 608.36 7.01832 -1.3448 0
M  V30 3584 H 606.526 8.73771 -2.38364 0
M  V30 3585 P 608.396 8.91 4.01252e-12 0
M  V30 3586 O 608.616 10.1746 0.733838 0
M  V30 3587 O 609.186 8.73346 -1.23964 0
M  V30 3588 O 608.646 7.66872 0.971405 0
M  V30 3589 C 607.706 7.42405 2.04668 0
M  V30 3590 C 608.436 6.86059 3.24661 0
M  V30 3591 O 608.646 5.42934 3.03695 0
M  V30 3592 C 609.836 7.41287 3.50796 0
M  V30 3593 O 610.226 7.27073 4.86816 0
M  V30 3594 C 610.716 6.5273 2.63741 0
M  V30 3595 C 610.006 5.1842 2.73198 0
M  V30 3596 N 610.056 4.38762 1.4784 0
M  V30 3597 H 607.218 8.36899 2.3252 0
M  V30 3598 H 606.946 6.70391 1.71179 0
M  V30 3599 H 607.814 7.03638 4.13219 0
M  V30 3600 H 610.469 4.59931 3.54016 0
M  V30 3601 H 610.749 6.88995 1.59871 0
M  V30 3602 H 611.74 6.4684 3.0373 0
M  V30 3603 H 609.906 8.47002 3.20749 0
M  V30 3604 P 611.776 7.20834 5.23717 0
M  V30 3605 O 611.996 7.79853 6.57286 0
M  V30 3606 O 612.566 7.79239 4.12957 0
M  V30 3607 O 612.026 5.63315 5.29344 0
M  V30 3608 C 611.086 4.80255 6.01876 0
M  V30 3609 C 611.816 3.64202 6.65911 0
M  V30 3610 O 612.026 2.60694 5.64732 0
M  V30 3611 C 613.216 3.93473 7.1943 0
M  V30 3612 O 613.606 3.02071 8.21205 0
M  V30 3613 C 614.096 3.73047 5.97036 0
M  V30 3614 C 613.386 2.58828 5.25741 0
M  V30 3615 N 613.436 2.68068 3.77503 0
M  V30 3616 H 610.597 5.40332 6.79951 0
M  V30 3617 H 610.327 4.41613 5.32378 0
M  V30 3618 H 611.194 3.26331 7.47797 0
M  V30 3619 P 615.156 2.75334 8.47391 0
M  V30 3620 O 615.376 2.44571 9.90142 0
M  V30 3621 O 615.946 3.87688 7.92115 0
M  V30 3622 O 615.406 1.4459 7.59357 0
M  V30 3623 C 614.466 0.347608 7.69215 0
M  V30 3624 C 615.196 -0.96767 7.52806 0
M  V30 3625 O 615.406 -1.21036 6.1011 0
M  V30 3626 C 616.596 -1.04544 8.13308 0
M  V30 3627 O 616.986 -2.38311 8.41922 0
M  V30 3628 C 617.476 -0.491279 7.02284 0
M  V30 3629 C 616.766 -0.996264 5.77469 0
M  V30 3630 N 616.816 -0.0501916 4.62973 0
M  V30 3631 H 613.977 0.374722 8.67691 0
M  V30 3632 H 613.707 0.443485 6.90277 0
M  V30 3633 H 614.574 -1.75537 7.96793 0
M  V30 3634 P 618.536 -2.75334 8.47391 0
M  V30 3635 O 618.756 -3.84128 9.44797 0
M  V30 3636 O 619.326 -1.51947 8.68712 0
M  V30 3637 O 618.786 -3.29363 6.99321 0
M  V30 3638 C 617.846 -4.24011 6.4274 0
M  V30 3639 C 618.576 -5.20775 5.52155 0
M  V30 3640 O 618.786 -4.56534 4.22446 0
M  V30 3641 C 619.976 -5.62629 5.96531 0
M  V30 3642 O 620.366 -6.87667 5.41053 0
M  V30 3643 C 620.856 -4.52537 5.39283 0
M  V30 3644 C 620.146 -4.20027 4.08623 0
M  V30 3645 N 620.196 -2.76189 3.71603 0
M  V30 3646 H 617.357 -4.797 7.24003 0
M  V30 3647 H 617.087 -3.69856 5.84513 0
M  V30 3648 H 617.954 -6.10356 5.41441 0
M  V30 3649 P 621.916 -7.20834 5.23717 0
M  V30 3650 O 622.136 -8.66274 5.38678 0
M  V30 3651 O 622.706 -6.33687 6.13629 0
M  V30 3652 O 622.166 -6.7751 3.72168 0
M  V30 3653 C 621.226 -7.20919 2.70795 0
M  V30 3654 C 621.956 -7.45864 1.40599 0
M  V30 3655 O 622.166 -6.17751 0.734343 0
M  V30 3656 C 623.356 -8.05906 1.51917 0
M  V30 3657 O 623.746 -8.74358 0.335205 0
M  V30 3658 C 624.236 -6.83093 1.70294 0
M  V30 3659 C 623.526 -5.79992 0.836974 0
M  V30 3660 N 623.576 -4.41864 1.38293 0
M  V30 3661 C 623.496 -4.02089 2.69407 0
M  V30 3662 N 623.566 -2.73403 2.85089 0
M  V30 3663 C 623.716 -2.25086 1.5642 0
M  V30 3664 C 623.846 -0.942887 1.04836 0
M  V30 3665 N 623.856 0.150999 1.80369 0
M  V30 3666 N 623.966 -0.812565 -0.28167 0
M  V30 3667 C 623.956 -1.90572 -1.03784 0
M  V30 3668 N 623.836 -3.167 -0.683905 0
M  V30 3669 C 623.716 -3.26538 0.652815 0
M  V30 3670 H 620.738 -8.13738 3.03804 0
M  V30 3671 H 620.466 -6.42974 2.55559 0
M  V30 3672 H 621.334 -8.12139 0.792866 0
M  V30 3673 H 623.989 -5.80178 -0.160643 0
M  V30 3674 H 624.269 -6.51379 2.75643 0
M  V30 3675 H 625.26 -7.01832 1.3448 0
M  V30 3676 H 623.426 -8.73771 2.38364 0
M  V30 3677 H 623.385 -4.7189 3.52311 0
M  V30 3678 H 623.766 0.0721434 2.82608 0
M  V30 3679 H 623.955 1.0785 1.36544 0
M  V30 3680 H 624.063 -1.73207 -2.10241 0
M  V30 3681 P 625.296 -8.91 -4.1697e-12 0
M  V30 3682 O 625.516 -10.1726 -0.733694 0
M  V30 3683 O 626.086 -8.73148 1.23936 0
M  V30 3684 O 625.546 -7.66872 -0.971405 0
M  V30 3685 C 624.606 -7.42309 -2.04641 0
M  V30 3686 C 625.336 -6.86059 -3.24661 0
M  V30 3687 O 625.546 -5.42847 -3.03646 0
M  V30 3688 C 626.736 -7.41196 -3.50753 0
M  V30 3689 O 627.126 -7.27073 -4.86816 0
M  V30 3690 C 627.616 -6.5273 -2.63741 0
M  V30 3691 C 626.906 -5.1842 -2.73198 0
M  V30 3692 N 626.956 -4.38762 -1.4784 0
M  V30 3693 H 624.117 -8.36803 -2.32493 0
M  V30 3694 H 623.847 -6.70197 -1.71129 0
M  V30 3695 H 624.714 -7.03551 -4.13168 0
M  V30 3696 P 628.676 -7.20834 -5.23717 0
M  V30 3697 O 628.896 -7.80006 -6.57415 0
M  V30 3698 O 629.466 -7.79416 -4.13051 0
M  V30 3699 O 628.926 -5.63315 -5.29344 0
M  V30 3700 C 627.986 -4.80318 -6.01954 0
M  V30 3701 C 628.716 -3.64202 -6.65911 0
M  V30 3702 O 628.926 -2.60736 -5.64823 0
M  V30 3703 C 630.116 -3.93521 -7.19518 0
M  V30 3704 O 630.506 -3.02071 -8.21205 0
M  V30 3705 C 630.996 -3.73047 -5.97036 0
M  V30 3706 C 630.286 -2.58828 -5.25741 0
M  V30 3707 N 630.336 -2.68068 -3.77503 0
M  V30 3708 H 627.498 -5.40394 -6.8003 0
M  V30 3709 H 627.226 -4.41741 -5.32532 0
M  V30 3710 H 628.094 -3.26371 -7.47889 0
M  V30 3711 H 630.749 -1.64007 -5.56746 0
M  V30 3712 H 631.029 -4.63439 -5.3432 0
M  V30 3713 H 632.02 -3.44776 -6.25925 0
M  V30 3714 H 630.186 -4.96707 -7.57347 0
M  V30 3715 P 632.056 -2.75334 -8.47391 0
M  V30 3716 O 632.276 -2.44571 -9.90142 0
M  V30 3717 O 632.846 -3.87688 -7.92115 0
M  V30 3718 O 632.306 -1.4459 -7.59357 0
M  V30 3719 C 631.366 -0.347608 -7.69215 0
M  V30 3720 C 632.096 0.96767 -7.52806 0
M  V30 3721 O 632.306 1.21036 -6.1011 0
M  V30 3722 C 633.496 1.04544 -8.13308 0
M  V30 3723 O 633.886 2.38311 -8.41922 0
M  V30 3724 C 634.376 0.491279 -7.02284 0
M  V30 3725 C 633.666 0.996264 -5.77469 0
M  V30 3726 N 633.716 0.0501916 -4.62973 0
M  V30 3727 H 630.877 -0.374722 -8.67691 0
M  V30 3728 H 630.607 -0.443485 -6.90277 0
M  V30 3729 H 631.474 1.75537 -7.96793 0
M  V30 3730 P 635.436 2.75334 -8.47391 0
M  V30 3731 O 635.656 3.84128 -9.44797 0
M  V30 3732 O 636.226 1.51947 -8.68712 0
M  V30 3733 O 635.686 3.29363 -6.99321 0
M  V30 3734 C 634.746 4.24011 -6.4274 0
M  V30 3735 C 635.476 5.20775 -5.52155 0
M  V30 3736 O 635.686 4.56534 -4.22446 0
M  V30 3737 C 636.876 5.62629 -5.96531 0
M  V30 3738 O 637.266 6.87667 -5.41053 0
M  V30 3739 C 637.756 4.52537 -5.39283 0
M  V30 3740 C 637.046 4.20027 -4.08623 0
M  V30 3741 N 637.096 2.76189 -3.71603 0
M  V30 3742 H 634.257 4.797 -7.24003 0
M  V30 3743 H 633.987 3.69856 -5.84513 0
M  V30 3744 H 634.854 6.10356 -5.41441 0
M  V30 3745 P 638.816 7.20834 -5.23717 0
M  V30 3746 O 639.036 8.66104 -5.38572 0
M  V30 3747 O 639.606 6.33544 -6.1349 0
M  V30 3748 O 639.066 6.7751 -3.72168 0
M  V30 3749 C 638.126 7.20825 -2.7076 0
M  V30 3750 C 638.856 7.45864 -1.40599 0
M  V30 3751 O 639.066 6.17651 -0.734225 0
M  V30 3752 C 640.256 8.05808 -1.51899 0
M  V30 3753 O 640.646 8.74358 -0.335205 0
M  V30 3754 C 641.136 6.83093 -1.70294 0
M  V30 3755 C 640.426 5.79992 -0.836974 0
M  V30 3756 N 640.476 4.41864 -1.38293 0
M  V30 3757 H 637.637 8.13644 -3.0377 0
M  V30 3758 H 637.367 6.42788 -2.55485 0
M  V30 3759 H 638.234 8.12039 -0.792769 0
M  V30 3760 P 642.196 8.91 4.32688e-12 0
M  V30 3761 O 642.416 10.1726 0.733694 0
M  V30 3762 O 642.986 8.73148 -1.23936 0
M  V30 3763 O 642.446 7.66872 0.971405 0
M  V30 3764 C 641.506 7.42309 2.04641 0
M  V30 3765 C 642.236 6.86059 3.24661 0
M  V30 3766 O 642.446 5.42847 3.03646 0
M  V30 3767 C 643.636 7.41196 3.50753 0
M  V30 3768 O 644.026 7.27073 4.86816 0
M  V30 3769 C 644.516 6.5273 2.63741 0
M  V30 3770 C 643.806 5.1842 2.73198 0
M  V30 3771 N 643.856 4.38762 1.4784 0
M  V30 3772 H 641.017 8.36803 2.32493 0
M  V30 3773 H 640.747 6.70197 1.71129 0
M  V30 3774 H 641.614 7.03551 4.13168 0
M  V30 3775 P 645.576 7.20834 5.23717 0
M  V30 3776 O 645.796 7.79853 6.57286 0
M  V30 3777 O 646.366 7.79239 4.12957 0
M  V30 3778 O 645.826 5.63315 5.29344 0
M  V30 3779 C 644.886 4.80255 6.01876 0
M  V30 3780 C 645.616 3.64202 6.65911 0
M  V30 3781 O 645.826 2.60694 5.64732 0
M  V30 3782 C 647.016 3.93473 7.1943 0
M  V30 3783 O 647.406 3.02071 8.21205 0
M  V30 3784 C 647.896 3.73047 5.97036 0
M  V30 3785 C 647.186 2.58828 5.25741 0
M  V30 3786 N 647.236 2.68068 3.77503 0
M  V30 3787 H 644.397 5.40332 6.79951 0
M  V30 3788 H 644.127 4.41613 5.32378 0
M  V30 3789 H 644.994 3.26331 7.47797 0
M  V30 3790 P 648.956 2.75334 8.47391 0
M  V30 3791 O 649.176 2.44619 9.90336 0
M  V30 3792 O 649.746 3.87776 7.92294 0
M  V30 3793 O 649.206 1.4459 7.59357 0
M  V30 3794 C 648.266 0.347653 7.69315 0
M  V30 3795 C 648.996 -0.96767 7.52806 0
M  V30 3796 O 649.206 -1.21055 6.10208 0
M  V30 3797 C 650.396 -1.04557 8.13408 0
M  V30 3798 O 650.786 -2.38311 8.41922 0
M  V30 3799 C 651.276 -0.491279 7.02284 0
M  V30 3800 C 650.566 -0.996264 5.77469 0
M  V30 3801 N 650.616 -0.0501916 4.62973 0
M  V30 3802 C 650.536 1.31969 4.65661 0
M  V30 3803 N 650.606 1.86649 3.48119 0
M  V30 3804 C 650.756 0.792089 2.62406 0
M  V30 3805 C 650.886 0.705684 1.2207 0
M  V30 3806 N 650.896 1.76207 0.413762 0
M  V30 3807 N 651.006 -0.518981 0.685754 0
M  V30 3808 C 650.996 -1.57595 1.49174 0
M  V30 3809 N 650.876 -1.62909 2.80066 0
M  V30 3810 C 650.756 -0.388195 3.3073 0
M  V30 3811 H 647.778 0.374765 8.67791 0
M  V30 3812 H 647.506 0.443613 6.90476 0
M  V30 3813 H 648.374 -1.75559 7.96891 0
M  V30 3814 H 651.029 -1.94563 5.46818 0
M  V30 3815 H 651.309 0.608651 7.04676 0
M  V30 3816 H 652.3 -0.889796 7.09039 0
M  V30 3817 H 650.466 -0.433128 9.04664 0
M  V30 3818 H 650.425 1.89246 5.57664 0
M  V30 3819 H 650.806 2.71005 0.804694 0
M  V30 3820 H 650.995 1.63189 -0.603768 0
M  V30 3821 H 651.103 -2.53475 0.997614 0
M  V30 3822 P 652.336 -2.75334 8.47391 0
M  V30 3823 O 652.556 -3.84204 9.44982 0
M  V30 3824 O 653.126 -1.51982 8.68909 0
M  V30 3825 O 652.586 -3.29363 6.99321 0
M  V30 3826 C 651.646 -4.24066 6.42823 0
M  V30 3827 C 652.376 -5.20775 5.52155 0
M  V30 3828 O 652.586 -4.56607 4.22514 0
M  V30 3829 C 653.776 -5.62697 5.96604 0
M  V30 3830 O 654.166 -6.87667 5.41053 0
M  V30 3831 C 654.656 -4.52537 5.39283 0
M  V30 3832 C 653.946 -4.20027 4.08623 0
M  V30 3833 N 653.996 -2.76189 3.71603 0
M  V30 3834 H 651.158 -4.79756 7.24086 0
M  V30 3835 H 650.886 -3.69963 5.84682 0
M  V30 3836 H 651.754 -6.10431 5.41508 0
M  V30 3837 H 654.409 -4.78816 3.28024 0
M  V30 3838 H 654.689 -3.64957 6.05871 0
M  V30 3839 H 655.68 -4.88748 5.21323 0
M  V30 3840 H 653.846 -5.66789 7.0643 0
M  V30 3841 P 655.716 -7.20834 5.23717 0
M  V30 3842 O 655.936 -8.66104 5.38572 0
M  V30 3843 O 656.506 -6.33544 6.1349 0
M  V30 3844 O 655.966 -6.7751 3.72168 0
M  V30 3845 C 655.026 -7.20825 2.7076 0
M  V30 3846 C 655.756 -7.45864 1.40599 0
M  V30 3847 O 655.966 -6.17651 0.734225 0
M  V30 3848 C 657.156 -8.05808 1.51899 0
M  V30 3849 O 657.546 -8.74358 0.335205 0
M  V30 3850 C 658.036 -6.83093 1.70294 0
M  V30 3851 C 657.326 -5.79992 0.836974 0
M  V30 3852 N 657.376 -4.41864 1.38293 0
M  V30 3853 C 657.296 -3.99538 2.69438 0
M  V30 3854 N 657.376 -2.69909 2.84277 0
M  V30 3855 C 657.516 -2.21719 1.5408 0
M  V30 3856 C 657.646 -0.891712 1.06628 0
M  V30 3857 N 657.766 -0.856846 -0.334985 0
M  V30 3858 C 657.766 -1.9641 -1.15789 0
M  V30 3859 N 657.896 -1.72708 -2.46522 0
M  V30 3860 N 657.636 -3.21165 -0.713741 0
M  V30 3861 C 657.516 -3.26797 0.639748 0
M  V30 3862 H 654.537 -8.13644 3.0377 0
M  V30 3863 H 654.267 -6.42788 2.55485 0
M  V30 3864 H 655.134 -8.12039 0.792769 0
M  V30 3865 P 659.096 -8.91 -4.48406e-12 0
M  V30 3866 O 659.316 -10.1726 -0.733694 0
M  V30 3867 O 659.886 -8.73148 1.23936 0
M  V30 3868 O 659.346 -7.66872 -0.971405 0
M  V30 3869 C 658.406 -7.42309 -2.04641 0
M  V30 3870 C 659.136 -6.86059 -3.24661 0
M  V30 3871 O 659.346 -5.42847 -3.03646 0
M  V30 3872 C 660.536 -7.41196 -3.50753 0
M  V30 3873 O 660.926 -7.27073 -4.86816 0
M  V30 3874 C 661.416 -6.5273 -2.63741 0
M  V30 3875 C 660.706 -5.1842 -2.73198 0
M  V30 3876 N 660.756 -4.38762 -1.4784 0
M  V30 3877 C 660.676 -4.81605 -0.168631 0
M  V30 3878 N 660.756 -3.85454 0.713363 0
M  V30 3879 C 660.896 -2.6994 -0.0566958 0
M  V30 3880 C 661.026 -1.34815 0.338502 0
M  V30 3881 O 661.046 -0.869548 1.47125 0
M  V30 3882 N 661.146 -0.496304 -0.77465 0
M  V30 3883 C 661.146 -0.908403 -2.09122 0
M  V30 3884 N 661.276 0.0517805 -3.00955 0
M  V30 3885 N 661.016 -2.17875 -2.46519 0
M  V30 3886 C 660.896 -3.01988 -1.4033 0
M  V30 3887 H 657.917 -8.36803 -2.32493 0
M  V30 3888 H 657.647 -6.70197 -1.71129 0
M  V30 3889 H 658.514 -7.03551 -4.13168 0
M  V30 3890 H 661.169 -4.59498 -3.54415 0
M  V30 3891 H 661.448 -6.88898 -1.59848 0
M  V30 3892 H 662.44 -6.46749 -3.03687 0
M  V30 3893 H 660.606 -8.46908 -3.20714 0
M  V30 3894 H 660.557 -5.86405 0.105564 0
M  V30 3895 H 661.239 0.483664 -0.597855 0
M  V30 3896 H 661.276 -0.187865 -4.0116 0
M  V30 3897 H 661.377 1.03585 -2.71726 0
M  V30 3898 P 662.476 -7.20834 -5.23717 0
M  V30 3899 O 662.696 -7.79853 -6.57286 0
M  V30 3900 O 663.266 -7.79239 -4.12957 0
M  V30 3901 O 662.726 -5.63315 -5.29344 0
M  V30 3902 C 661.786 -4.80255 -6.01876 0
M  V30 3903 C 662.516 -3.64202 -6.65911 0
M  V30 3904 O 662.726 -2.60694 -5.64732 0
M  V30 3905 C 663.916 -3.93473 -7.1943 0
M  V30 3906 O 664.306 -3.02071 -8.21205 0
M  V30 3907 C 664.796 -3.73047 -5.97036 0
M  V30 3908 C 664.086 -2.58828 -5.25741 0
M  V30 3909 N 664.136 -2.68068 -3.77503 0
M  V30 3910 H 661.297 -5.40332 -6.79951 0
M  V30 3911 H 661.027 -4.41613 -5.32378 0
M  V30 3912 H 661.894 -3.26331 -7.47797 0
M  V30 3913 P 665.856 -2.75334 -8.47391 0
M  V30 3914 O 666.076 -2.44571 -9.90142 0
M  V30 3915 O 666.646 -3.87688 -7.92115 0
M  V30 3916 O 666.106 -1.4459 -7.59357 0
M  V30 3917 C 665.166 -0.347608 -7.69215 0
M  V30 3918 C 665.896 0.96767 -7.52806 0
M  V30 3919 O 666.106 1.21036 -6.1011 0
M  V30 3920 C 667.296 1.04544 -8.13308 0
M  V30 3921 O 667.686 2.38311 -8.41922 0
M  V30 3922 C 668.176 0.491279 -7.02284 0
M  V30 3923 C 667.466 0.996264 -5.77469 0
M  V30 3924 N 667.516 0.0501916 -4.62973 0
M  V30 3925 H 664.677 -0.374722 -8.67691 0
M  V30 3926 H 664.407 -0.443485 -6.90277 0
M  V30 3927 H 665.274 1.75537 -7.96793 0
M  V30 3928 P 669.236 2.75334 -8.47391 0
M  V30 3929 O 669.456 3.84128 -9.44797 0
M  V30 3930 O 670.026 1.51947 -8.68712 0
M  V30 3931 O 669.486 3.29363 -6.99321 0
M  V30 3932 C 668.546 4.24011 -6.4274 0
M  V30 3933 C 669.276 5.20775 -5.52155 0
M  V30 3934 O 669.486 4.56534 -4.22446 0
M  V30 3935 C 670.676 5.62629 -5.96531 0
M  V30 3936 O 671.066 6.87667 -5.41053 0
M  V30 3937 C 671.556 4.52537 -5.39283 0
M  V30 3938 C 670.846 4.20027 -4.08623 0
M  V30 3939 N 670.896 2.76189 -3.71603 0
M  V30 3940 C 670.816 1.64862 -4.52822 0
M  V30 3941 N 670.896 0.512671 -3.88633 0
M  V30 3942 C 671.036 0.888083 -2.54977 0
M  V30 3943 C 671.166 0.094668 -1.38677 0
M  V30 3944 O 671.186 -1.13053 -1.28163 0
M  V30 3945 N 671.286 0.890102 -0.232633 0
M  V30 3946 C 671.286 2.26958 -0.21772 0
M  V30 3947 N 671.416 2.84626 0.97925 0
M  V30 3948 N 671.156 3.0178 -1.31033 0
M  V30 3949 C 671.036 2.26781 -2.43843 0
M  V30 3950 H 668.057 4.797 -7.24003 0
M  V30 3951 H 667.787 3.69856 -5.84513 0
M  V30 3952 H 668.654 6.10356 -5.41441 0
M  V30 3953 H 671.309 4.79061 -3.27488 0
M  V30 3954 H 671.588 3.64906 -6.05785 0
M  V30 3955 H 672.58 4.8868 -5.2125 0
M  V30 3956 H 670.746 5.66726 -7.06352 0
M  V30 3957 H 670.697 1.71169 -5.60966 0
M  V30 3958 H 671.379 0.419134 0.644739 0
M  V30 3959 H 671.416 3.87332 1.06098 0
M  V30 3960 H 671.517 2.26417 1.82483 0
M  V30 3961 P 672.616 7.20834 -5.23717 0
M  V30 3962 O 672.836 8.66189 -5.38625 0
M  V30 3963 O 673.406 6.33615 -6.1356 0
M  V30 3964 O 672.866 6.7751 -3.72168 0
M  V30 3965 C 671.926 7.20825 -2.7076 0
M  V30 3966 C 672.656 7.45864 -1.40599 0
M  V30 3967 O 672.866 6.17651 -0.734225 0
M  V30 3968 C 674.056 8.05808 -1.51899 0
M  V30 3969 O 674.446 8.74358 -0.335205 0
M  V30 3970 C 674.936 6.83093 -1.70294 0
M  V30 3971 C 674.226 5.79992 -0.836974 0
M  V30 3972 N 674.276 4.41769 -1.38263 0
M  V30 3973 C 674.426 3.36514 -0.485617 0
M  V30 3974 O 674.516 3.61814 0.724703 0
M  V30 3975 N 674.476 2.00746 -1.14492 0
M  V30 3976 C 674.376 1.85887 -2.27776 0
M  V30 3977 N 674.426 0.600907 -2.69379 0
M  V30 3978 C 674.226 2.92182 -3.22265 0
M  V30 3979 C 674.176 4.18399 -2.71925 0
M  V30 3980 H 671.436 8.1355 -3.03735 0
M  V30 3981 H 671.167 6.42695 -2.55448 0
M  V30 3982 H 672.034 8.12139 -0.792866 0
M  V30 3983 H 674.689 5.80078 0.160615 0
M  V30 3984 H 674.968 6.51379 -2.75643 0
M  V30 3985 H 675.96 7.01734 -1.34462 0
M  V30 3986 H 674.126 8.73674 -2.38337 0
M  V30 3987 H 674.054 5.02669 -3.39718 0
M  V30 3988 H 674.156 2.73001 -4.29239 0
M  V30 3989 H 674.544 -0.162318 -2.01146 0
M  V30 3990 H 674.347 0.387742 -3.69773 0
M  V30 3991 P 675.996 8.91 4.64125e-12 0
M  V30 3992 O 676.216 10.1726 0.733694 0
M  V30 3993 O 676.786 8.73148 -1.23936 0
M  V30 3994 O 676.246 7.66872 0.971405 0
M  V30 3995 C 675.306 7.42309 2.04641 0
M  V30 3996 C 676.036 6.86059 3.24661 0
M  V30 3997 O 676.246 5.42847 3.03646 0
M  V30 3998 C 677.436 7.41196 3.50753 0
M  V30 3999 O 677.826 7.27073 4.86816 0
M  V30 4000 C 678.316 6.5273 2.63741 0
M  V30 4001 C 677.606 5.1842 2.73198 0
M  V30 4002 N 677.656 4.38762 1.4784 0
M  V30 4003 H 674.817 8.36803 2.32493 0
M  V30 4004 H 674.547 6.70197 1.71129 0
M  V30 4005 H 675.414 7.03551 4.13168 0
M  V30 4006 P 679.376 7.20834 5.23717 0
M  V30 4007 O 679.596 7.80006 6.57415 0
M  V30 4008 O 680.166 7.79416 4.13051 0
M  V30 4009 O 679.626 5.63315 5.29344 0
M  V30 4010 C 678.686 4.80318 6.01954 0
M  V30 4011 C 679.416 3.64202 6.65911 0
M  V30 4012 O 679.626 2.60736 5.64823 0
M  V30 4013 C 680.816 3.93521 7.19518 0
M  V30 4014 O 681.206 3.02071 8.21205 0
M  V30 4015 C 681.696 3.73047 5.97036 0
M  V30 4016 C 680.986 2.58828 5.25741 0
M  V30 4017 N 681.036 2.68068 3.77503 0
M  V30 4018 H 678.198 5.40394 6.8003 0
M  V30 4019 H 677.926 4.41741 5.32532 0
M  V30 4020 H 678.794 3.26371 7.47889 0
M  V30 4021 H 681.449 1.64007 5.56746 0
M  V30 4022 H 681.729 4.63439 5.3432 0
M  V30 4023 H 682.72 3.44776 6.25925 0
M  V30 4024 H 680.886 4.96707 7.57347 0
M  V30 4025 P 682.756 2.75334 8.47391 0
M  V30 4026 O 682.976 2.44571 9.90142 0
M  V30 4027 O 683.546 3.87688 7.92115 0
M  V30 4028 O 683.006 1.4459 7.59357 0
M  V30 4029 C 682.066 0.347608 7.69215 0
M  V30 4030 C 682.796 -0.96767 7.52806 0
M  V30 4031 O 683.006 -1.21036 6.1011 0
M  V30 4032 C 684.196 -1.04544 8.13308 0
M  V30 4033 O 684.586 -2.38311 8.41922 0
M  V30 4034 C 685.076 -0.491279 7.02284 0
M  V30 4035 C 684.366 -0.996264 5.77469 0
M  V30 4036 N 684.416 -0.0501916 4.62973 0
M  V30 4037 H 681.577 0.374722 8.67691 0
M  V30 4038 H 681.307 0.443485 6.90277 0
M  V30 4039 H 682.174 -1.75537 7.96793 0
M  V30 4040 P 686.136 -2.75334 8.47391 0
M  V30 4041 O 686.356 -3.84128 9.44797 0
M  V30 4042 O 686.926 -1.51947 8.68712 0
M  V30 4043 O 686.386 -3.29363 6.99321 0
M  V30 4044 C 685.446 -4.24011 6.4274 0
M  V30 4045 C 686.176 -5.20775 5.52155 0
M  V30 4046 O 686.386 -4.56534 4.22446 0
M  V30 4047 C 687.576 -5.62629 5.96531 0
M  V30 4048 O 687.966 -6.87667 5.41053 0
M  V30 4049 C 688.456 -4.52537 5.39283 0
M  V30 4050 C 687.746 -4.20027 4.08623 0
M  V30 4051 N 687.796 -2.76189 3.71603 0
M  V30 4052 H 684.957 -4.797 7.24003 0
M  V30 4053 H 684.687 -3.69856 5.84513 0
M  V30 4054 H 685.554 -6.10356 5.41441 0
M  V30 4055 P 689.516 -7.20834 5.23717 0
M  V30 4056 O 689.736 -8.66104 5.38572 0
M  V30 4057 O 690.306 -6.33544 6.1349 0
M  V30 4058 O 689.766 -6.7751 3.72168 0
M  V30 4059 C 688.826 -7.20825 2.7076 0
M  V30 4060 C 689.556 -7.45864 1.40599 0
M  V30 4061 O 689.766 -6.17651 0.734225 0
M  V30 4062 C 690.956 -8.05808 1.51899 0
M  V30 4063 O 691.346 -8.74358 0.335205 0
M  V30 4064 C 691.836 -6.83093 1.70294 0
M  V30 4065 C 691.126 -5.79992 0.836974 0
M  V30 4066 N 691.176 -4.41864 1.38293 0
M  V30 4067 H 688.337 -8.13644 3.0377 0
M  V30 4068 H 688.067 -6.42788 2.55485 0
M  V30 4069 H 688.934 -8.12039 0.792769 0
M  V30 4070 P 692.896 -8.91 -4.67181e-12 0
M  V30 4071 O 693.116 -10.1746 -0.733838 0
M  V30 4072 O 693.686 -8.73346 1.23964 0
M  V30 4073 O 693.146 -7.66872 -0.971405 0
M  V30 4074 C 692.206 -7.42405 -2.04668 0
M  V30 4075 C 692.936 -6.86059 -3.24661 0
M  V30 4076 O 693.146 -5.42934 -3.03695 0
M  V30 4077 C 694.336 -7.41287 -3.50796 0
M  V30 4078 O 694.726 -7.27073 -4.86816 0
M  V30 4079 C 695.216 -6.5273 -2.63741 0
M  V30 4080 C 694.506 -5.1842 -2.73198 0
M  V30 4081 N 694.556 -4.38762 -1.4784 0
M  V30 4082 C 694.476 -4.83651 -0.183876 0
M  V30 4083 N 694.546 -3.88759 0.699393 0
M  V30 4084 C 694.696 -2.7404 -0.0575568 0
M  V30 4085 C 694.826 -1.37902 0.293928 0
M  V30 4086 N 694.836 -0.938021 1.54797 0
M  V30 4087 N 694.946 -0.491817 -0.70549 0
M  V30 4088 C 694.936 -0.931735 -1.95979 0
M  V30 4089 N 694.816 -2.16017 -2.41481 0
M  V30 4090 C 694.696 -3.02547 -1.39121 0
M  V30 4091 H 691.718 -8.36899 -2.3252 0
M  V30 4092 H 691.446 -6.70391 -1.71179 0
M  V30 4093 H 692.314 -7.03638 -4.13219 0
M  V30 4094 H 694.969 -4.59931 -3.54016 0
M  V30 4095 H 695.249 -6.88995 -1.59871 0
M  V30 4096 H 696.24 -6.4684 -3.0373 0
M  V30 4097 H 694.406 -8.47002 -3.20749 0
M  V30 4098 H 694.365 -5.8885 0.0765548 0
M  V30 4099 H 694.746 -1.60276 2.32875 0
M  V30 4100 H 694.935 0.0699355 1.73859 0
M  V30 4101 H 695.043 -0.165507 -2.71897 0
M  V30 4102 P 696.276 -7.20834 -5.23717 0
M  V30 4103 O 696.496 -7.79853 -6.57286 0
M  V30 4104 O 697.066 -7.79239 -4.12957 0
M  V30 4105 O 696.526 -5.63315 -5.29344 0
M  V30 4106 C 695.586 -4.80255 -6.01876 0
M  V30 4107 C 696.316 -3.64202 -6.65911 0
M  V30 4108 O 696.526 -2.60694 -5.64732 0
M  V30 4109 C 697.716 -3.93473 -7.1943 0
M  V30 4110 O 698.106 -3.02071 -8.21205 0
M  V30 4111 C 698.596 -3.73047 -5.97036 0
M  V30 4112 C 697.886 -2.58828 -5.25741 0
M  V30 4113 N 697.936 -2.68068 -3.77503 0
M  V30 4114 H 695.097 -5.40332 -6.79951 0
M  V30 4115 H 694.827 -4.41613 -5.32378 0
M  V30 4116 H 695.694 -3.26331 -7.47797 0
M  V30 4117 P 699.656 -2.75334 -8.47391 0
M  V30 4118 O 699.876 -2.44571 -9.90142 0
M  V30 4119 O 700.446 -3.87688 -7.92115 0
M  V30 4120 O 699.906 -1.4459 -7.59357 0
M  V30 4121 C 698.966 -0.347608 -7.69215 0
M  V30 4122 C 699.696 0.96767 -7.52806 0
M  V30 4123 O 699.906 1.21036 -6.1011 0
M  V30 4124 C 701.096 1.04544 -8.13308 0
M  V30 4125 O 701.486 2.38311 -8.41922 0
M  V30 4126 C 701.976 0.491279 -7.02284 0
M  V30 4127 C 701.266 0.996264 -5.77469 0
M  V30 4128 N 701.316 0.0501916 -4.62973 0
M  V30 4129 H 698.477 -0.374722 -8.67691 0
M  V30 4130 H 698.207 -0.443485 -6.90277 0
M  V30 4131 H 699.074 1.75537 -7.96793 0
M  V30 4132 P 703.036 2.75334 -8.47391 0
M  V30 4133 O 703.256 3.84204 -9.44982 0
M  V30 4134 O 703.826 1.51982 -8.68909 0
M  V30 4135 O 703.286 3.29363 -6.99321 0
M  V30 4136 C 702.346 4.24066 -6.42823 0
M  V30 4137 C 703.076 5.20775 -5.52155 0
M  V30 4138 O 703.286 4.56607 -4.22514 0
M  V30 4139 C 704.476 5.62697 -5.96604 0
M  V30 4140 O 704.866 6.87667 -5.41053 0
M  V30 4141 C 705.356 4.52537 -5.39283 0
M  V30 4142 C 704.646 4.20027 -4.08623 0
M  V30 4143 N 704.696 2.76189 -3.71603 0
M  V30 4144 H 701.858 4.79756 -7.24086 0
M  V30 4145 H 701.586 3.69963 -5.84682 0
M  V30 4146 H 702.454 6.10431 -5.41508 0
M  V30 4147 H 705.109 4.78816 -3.28024 0
M  V30 4148 H 705.389 3.64957 -6.05871 0
M  V30 4149 H 706.38 4.88748 -5.21323 0
M  V30 4150 H 704.546 5.66789 -7.0643 0
M  V30 4151 P 706.416 7.20834 -5.23717 0
M  V30 4152 O 706.636 8.66104 -5.38572 0
M  V30 4153 O 707.206 6.33544 -6.1349 0
M  V30 4154 O 706.666 6.7751 -3.72168 0
M  V30 4155 C 705.726 7.20825 -2.7076 0
M  V30 4156 C 706.456 7.45864 -1.40599 0
M  V30 4157 O 706.666 6.17651 -0.734225 0
M  V30 4158 C 707.856 8.05808 -1.51899 0
M  V30 4159 O 708.246 8.74358 -0.335205 0
M  V30 4160 C 708.736 6.83093 -1.70294 0
M  V30 4161 C 708.026 5.79992 -0.836974 0
M  V30 4162 N 708.076 4.41864 -1.38293 0
M  V30 4163 H 705.237 8.13644 -3.0377 0
M  V30 4164 H 704.967 6.42788 -2.55485 0
M  V30 4165 H 705.834 8.12039 -0.792769 0
M  V30 4166 P 709.796 8.91 4.82899e-12 0
M  V30 4167 O 710.016 10.1726 0.733694 0
M  V30 4168 O 710.586 8.73148 -1.23936 0
M  V30 4169 O 710.046 7.66872 0.971405 0
M  V30 4170 C 709.106 7.42309 2.04641 0
M  V30 4171 C 709.836 6.86059 3.24661 0
M  V30 4172 O 710.046 5.42847 3.03646 0
M  V30 4173 C 711.236 7.41196 3.50753 0
M  V30 4174 O 711.626 7.27073 4.86816 0
M  V30 4175 C 712.116 6.5273 2.63741 0
M  V30 4176 C 711.406 5.1842 2.73198 0
M  V30 4177 N 711.456 4.38762 1.4784 0
M  V30 4178 H 708.617 8.36803 2.32493 0
M  V30 4179 H 708.347 6.70197 1.71129 0
M  V30 4180 H 709.214 7.03551 4.13168 0
M  V30 4181 P 713.176 7.20834 5.23717 0
M  V30 4182 O 713.396 7.79853 6.57286 0
M  V30 4183 O 713.966 7.79239 4.12957 0
M  V30 4184 O 713.426 5.63315 5.29344 0
M  V30 4185 C 712.486 4.80255 6.01876 0
M  V30 4186 C 713.216 3.64202 6.65911 0
M  V30 4187 O 713.426 2.60694 5.64732 0
M  V30 4188 C 714.616 3.93473 7.1943 0
M  V30 4189 O 715.006 3.02071 8.21205 0
M  V30 4190 C 715.496 3.73047 5.97036 0
M  V30 4191 C 714.786 2.58828 5.25741 0
M  V30 4192 N 714.836 2.68068 3.77503 0
M  V30 4193 H 711.997 5.40332 6.79951 0
M  V30 4194 H 711.727 4.41613 5.32378 0
M  V30 4195 H 712.594 3.26331 7.47797 0
M  V30 4196 P 716.556 2.75334 8.47391 0
M  V30 4197 O 716.776 2.44619 9.90336 0
M  V30 4198 O 717.346 3.87776 7.92294 0
M  V30 4199 O 716.806 1.4459 7.59357 0
M  V30 4200 C 715.866 0.347653 7.69315 0
M  V30 4201 C 716.596 -0.96767 7.52806 0
M  V30 4202 O 716.806 -1.21055 6.10208 0
M  V30 4203 C 717.996 -1.04557 8.13408 0
M  V30 4204 O 718.386 -2.38311 8.41922 0
M  V30 4205 C 718.876 -0.491279 7.02284 0
M  V30 4206 C 718.166 -0.996264 5.77469 0
M  V30 4207 N 718.216 -0.0501916 4.62973 0
M  V30 4208 H 715.378 0.374765 8.67791 0
M  V30 4209 H 715.106 0.443613 6.90476 0
M  V30 4210 H 715.974 -1.75559 7.96891 0
M  V30 4211 H 718.629 -1.94563 5.46818 0
M  V30 4212 H 718.909 0.608651 7.04676 0
M  V30 4213 H 719.9 -0.889796 7.09039 0
M  V30 4214 H 718.066 -0.433128 9.04664 0
M  V30 4215 P 719.936 -2.75334 8.47391 0
M  V30 4216 O 720.156 -3.84128 9.44797 0
M  V30 4217 O 720.726 -1.51947 8.68712 0
M  V30 4218 O 720.186 -3.29363 6.99321 0
M  V30 4219 C 719.246 -4.24011 6.4274 0
M  V30 4220 C 719.976 -5.20775 5.52155 0
M  V30 4221 O 720.186 -4.56534 4.22446 0
M  V30 4222 C 721.376 -5.62629 5.96531 0
M  V30 4223 O 721.766 -6.87667 5.41053 0
M  V30 4224 C 722.256 -4.52537 5.39283 0
M  V30 4225 C 721.546 -4.20027 4.08623 0
M  V30 4226 N 721.596 -2.76189 3.71603 0
M  V30 4227 C 721.516 -1.64862 4.52822 0
M  V30 4228 N 721.596 -0.512671 3.88633 0
M  V30 4229 C 721.736 -0.888083 2.54977 0
M  V30 4230 C 721.866 -0.094668 1.38677 0
M  V30 4231 O 721.886 1.13053 1.28163 0
M  V30 4232 N 721.986 -0.890102 0.232633 0
M  V30 4233 C 721.986 -2.26958 0.21772 0
M  V30 4234 N 722.116 -2.84626 -0.97925 0
M  V30 4235 N 721.856 -3.0178 1.31033 0
M  V30 4236 C 721.736 -2.26781 2.43843 0
M  V30 4237 H 718.757 -4.797 7.24003 0
M  V30 4238 H 718.487 -3.69856 5.84513 0
M  V30 4239 H 719.354 -6.10356 5.41441 0
M  V30 4240 H 722.009 -4.79061 3.27488 0
M  V30 4241 H 722.288 -3.64906 6.05785 0
M  V30 4242 H 723.28 -4.8868 5.2125 0
M  V30 4243 H 721.446 -5.66726 7.06352 0
M  V30 4244 H 721.397 -1.71169 5.60966 0
M  V30 4245 H 722.079 -0.419134 -0.644739 0
M  V30 4246 H 722.116 -3.87332 -1.06098 0
M  V30 4247 H 722.217 -2.26417 -1.82483 0
M  V30 4248 P 723.316 -7.20834 5.23717 0
M  V30 4249 O 723.536 -8.66104 5.38572 0
M  V30 4250 O 724.106 -6.33544 6.1349 0
M  V30 4251 O 723.566 -6.7751 3.72168 0
M  V30 4252 C 722.626 -7.20825 2.7076 0
M  V30 4253 C 723.356 -7.45864 1.40599 0
M  V30 4254 O 723.566 -6.17651 0.734225 0
M  V30 4255 C 724.756 -8.05808 1.51899 0
M  V30 4256 O 725.146 -8.74358 0.335205 0
M  V30 4257 C 725.636 -6.83093 1.70294 0
M  V30 4258 C 724.926 -5.79992 0.836974 0
M  V30 4259 N 724.976 -4.41864 1.38293 0
M  V30 4260 H 722.137 -8.13644 3.0377 0
M  V30 4261 H 721.867 -6.42788 2.55485 0
M  V30 4262 H 722.734 -8.12039 0.792769 0
M  V30 4263 P 726.696 -8.91 -4.98617e-12 0
M  V30 4264 O 726.916 -10.1736 -0.733766 0
M  V30 4265 O 727.486 -8.73247 1.2395 0
M  V30 4266 O 726.946 -7.66872 -0.971405 0
M  V30 4267 C 726.006 -7.42212 -2.04614 0
M  V30 4268 C 726.736 -6.86059 -3.24661 0
M  V30 4269 O 726.946 -5.42847 -3.03646 0
M  V30 4270 C 728.136 -7.41196 -3.50753 0
M  V30 4271 O 728.526 -7.27073 -4.86816 0
M  V30 4272 C 729.016 -6.5273 -2.63741 0
M  V30 4273 C 728.306 -5.1842 -2.73198 0
M  V30 4274 N 728.356 -4.38668 -1.47808 0
M  V30 4275 C 728.506 -3.02239 -1.60048 0
M  V30 4276 O 728.596 -2.46459 -2.67869 0
M  V30 4277 N 728.546 -2.32436 -0.408571 0
M  V30 4278 C 728.456 -2.85471 0.854993 0
M  V30 4279 O 728.506 -2.12566 1.8531 0
M  V30 4280 C 728.306 -4.28918 0.887335 0
M  V30 4281 C 728.196 -4.91066 2.24619 0
M  V30 4282 C 728.256 -5.00349 -0.255399 0
M  V30 4283 H 725.516 -8.36803 -2.32493 0
M  V30 4284 H 725.247 -6.701 -1.71105 0
M  V30 4285 H 726.114 -7.03551 -4.13168 0
M  V30 4286 H 728.769 -4.59773 -3.53894 0
M  V30 4287 H 729.048 -6.88995 -1.59871 0
M  V30 4288 H 730.04 -6.46749 -3.03687 0
M  V30 4289 H 728.206 -8.46908 -3.20714 0
M  V30 4290 H 728.135 -6.08548 -0.206986 0
M  V30 4291 H 729.165 -5.34836 2.53099 0
M  V30 4292 H 727.428 -5.69638 2.2291 0
M  V30 4293 H 727.916 -4.13971 2.98044 0
M  V30 4294 H 728.652 -1.33211 -0.474216 0
M  V30 4295 P 730.076 -7.20834 -5.23717 0
M  V30 4296 O 730.296 -7.79853 -6.57286 0
M  V30 4297 O 730.866 -7.79239 -4.12957 0
M  V30 4298 O 730.326 -5.63315 -5.29344 0
M  V30 4299 C 729.386 -4.80255 -6.01876 0
M  V30 4300 C 730.116 -3.64202 -6.65911 0
M  V30 4301 O 730.326 -2.60694 -5.64732 0
M  V30 4302 C 731.516 -3.93473 -7.1943 0
M  V30 4303 O 731.906 -3.02071 -8.21205 0
M  V30 4304 C 732.396 -3.73047 -5.97036 0
M  V30 4305 C 731.686 -2.58828 -5.25741 0
M  V30 4306 N 731.736 -2.68068 -3.77503 0
M  V30 4307 H 728.897 -5.40332 -6.79951 0
M  V30 4308 H 728.627 -4.41613 -5.32378 0
M  V30 4309 H 729.494 -3.26331 -7.47797 0
M  V30 4310 P 733.456 -2.75334 -8.47391 0
M  V30 4311 O 733.676 -2.44571 -9.90142 0
M  V30 4312 O 734.246 -3.87688 -7.92115 0
M  V30 4313 O 733.706 -1.4459 -7.59357 0
M  V30 4314 C 732.766 -0.347608 -7.69215 0
M  V30 4315 C 733.496 0.96767 -7.52806 0
M  V30 4316 O 733.706 1.21036 -6.1011 0
M  V30 4317 C 734.896 1.04544 -8.13308 0
M  V30 4318 O 735.286 2.38311 -8.41922 0
M  V30 4319 C 735.776 0.491279 -7.02284 0
M  V30 4320 C 735.066 0.996264 -5.77469 0
M  V30 4321 N 735.116 0.0501916 -4.62973 0
M  V30 4322 H 732.277 -0.374722 -8.67691 0
M  V30 4323 H 732.007 -0.443485 -6.90277 0
M  V30 4324 H 732.874 1.75537 -7.96793 0
M  V30 4325 P 736.836 2.75334 -8.47391 0
M  V30 4326 O 737.056 3.84128 -9.44797 0
M  V30 4327 O 737.626 1.51947 -8.68712 0
M  V30 4328 O 737.086 3.29363 -6.99321 0
M  V30 4329 C 736.146 4.24011 -6.4274 0
M  V30 4330 C 736.876 5.20775 -5.52155 0
M  V30 4331 O 737.086 4.56534 -4.22446 0
M  V30 4332 C 738.276 5.62629 -5.96531 0
M  V30 4333 O 738.666 6.87667 -5.41053 0
M  V30 4334 C 739.156 4.52537 -5.39283 0
M  V30 4335 C 738.446 4.20027 -4.08623 0
M  V30 4336 N 738.496 2.76189 -3.71603 0
M  V30 4337 H 735.657 4.797 -7.24003 0
M  V30 4338 H 735.387 3.69856 -5.84513 0
M  V30 4339 H 736.254 6.10356 -5.41441 0
M  V30 4340 P 740.216 7.20834 -5.23717 0
M  V30 4341 O 740.436 8.66274 -5.38678 0
M  V30 4342 O 741.006 6.33687 -6.13629 0
M  V30 4343 O 740.466 6.7751 -3.72168 0
M  V30 4344 C 739.526 7.20919 -2.70795 0
M  V30 4345 C 740.256 7.45864 -1.40599 0
M  V30 4346 O 740.466 6.17751 -0.734343 0
M  V30 4347 C 741.656 8.05906 -1.51917 0
M  V30 4348 O 742.046 8.74358 -0.335205 0
M  V30 4349 C 742.536 6.83093 -1.70294 0
M  V30 4350 C 741.826 5.79992 -0.836974 0
M  V30 4351 N 741.876 4.41864 -1.38293 0
M  V30 4352 H 739.038 8.13738 -3.03804 0
M  V30 4353 H 738.766 6.42974 -2.55559 0
M  V30 4354 H 739.634 8.12139 -0.792866 0
M  V30 4355 H 742.289 5.80178 0.160643 0
M  V30 4356 H 742.569 6.51379 -2.75643 0
M  V30 4357 H 743.56 7.01832 -1.3448 0
M  V30 4358 H 741.726 8.73771 -2.38364 0
M  V30 4359 P 743.596 8.91 5.14336e-12 0
M  V30 4360 O 743.816 10.1746 0.733838 0
M  V30 4361 O 744.386 8.73346 -1.23964 0
M  V30 4362 O 743.846 7.66872 0.971405 0
M  V30 4363 C 742.906 7.42405 2.04668 0
M  V30 4364 C 743.636 6.86059 3.24661 0
M  V30 4365 O 743.846 5.42934 3.03695 0
M  V30 4366 C 745.036 7.41287 3.50796 0
M  V30 4367 O 745.426 7.27073 4.86816 0
M  V30 4368 C 745.916 6.5273 2.63741 0
M  V30 4369 C 745.206 5.1842 2.73198 0
M  V30 4370 N 745.256 4.38762 1.4784 0
M  V30 4371 H 742.418 8.36899 2.3252 0
M  V30 4372 H 742.146 6.70391 1.71179 0
M  V30 4373 H 743.014 7.03638 4.13219 0
M  V30 4374 H 745.669 4.59931 3.54016 0
M  V30 4375 H 745.949 6.88995 1.59871 0
M  V30 4376 H 746.94 6.4684 3.0373 0
M  V30 4377 H 745.106 8.47002 3.20749 0
M  V30 4378 P 746.976 7.20834 5.23717 0
M  V30 4379 O 747.196 7.79853 6.57286 0
M  V30 4380 O 747.766 7.79239 4.12957 0
M  V30 4381 O 747.226 5.63315 5.29344 0
M  V30 4382 C 746.286 4.80255 6.01876 0
M  V30 4383 C 747.016 3.64202 6.65911 0
M  V30 4384 O 747.226 2.60694 5.64732 0
M  V30 4385 C 748.416 3.93473 7.1943 0
M  V30 4386 O 748.806 3.02071 8.21205 0
M  V30 4387 C 749.296 3.73047 5.97036 0
M  V30 4388 C 748.586 2.58828 5.25741 0
M  V30 4389 N 748.636 2.68068 3.77503 0
M  V30 4390 H 745.797 5.40332 6.79951 0
M  V30 4391 H 745.527 4.41613 5.32378 0
M  V30 4392 H 746.394 3.26331 7.47797 0
M  V30 4393 P 750.356 2.75334 8.47391 0
M  V30 4394 O 750.576 2.44571 9.90142 0
M  V30 4395 O 751.146 3.87688 7.92115 0
M  V30 4396 O 750.606 1.4459 7.59357 0
M  V30 4397 C 749.666 0.347608 7.69215 0
M  V30 4398 C 750.396 -0.96767 7.52806 0
M  V30 4399 O 750.606 -1.21036 6.1011 0
M  V30 4400 C 751.796 -1.04544 8.13308 0
M  V30 4401 O 752.186 -2.38311 8.41922 0
M  V30 4402 C 752.676 -0.491279 7.02284 0
M  V30 4403 C 751.966 -0.996264 5.77469 0
M  V30 4404 N 752.016 -0.0501916 4.62973 0
M  V30 4405 H 749.177 0.374722 8.67691 0
M  V30 4406 H 748.907 0.443485 6.90277 0
M  V30 4407 H 749.774 -1.75537 7.96793 0
M  V30 4408 P 753.736 -2.75334 8.47391 0
M  V30 4409 O 753.956 -3.84128 9.44797 0
M  V30 4410 O 754.526 -1.51947 8.68712 0
M  V30 4411 O 753.986 -3.29363 6.99321 0
M  V30 4412 C 753.046 -4.24011 6.4274 0
M  V30 4413 C 753.776 -5.20775 5.52155 0
M  V30 4414 O 753.986 -4.56534 4.22446 0
M  V30 4415 C 755.176 -5.62629 5.96531 0
M  V30 4416 O 755.566 -6.87667 5.41053 0
M  V30 4417 C 756.056 -4.52537 5.39283 0
M  V30 4418 C 755.346 -4.20027 4.08623 0
M  V30 4419 N 755.396 -2.76189 3.71603 0
M  V30 4420 H 752.557 -4.797 7.24003 0
M  V30 4421 H 752.287 -3.69856 5.84513 0
M  V30 4422 H 753.154 -6.10356 5.41441 0
M  V30 4423 P 757.116 -7.20834 5.23717 0
M  V30 4424 O 757.336 -8.66104 5.38572 0
M  V30 4425 O 757.906 -6.33544 6.1349 0
M  V30 4426 O 757.366 -6.7751 3.72168 0
M  V30 4427 C 756.426 -7.20825 2.7076 0
M  V30 4428 C 757.156 -7.45864 1.40599 0
M  V30 4429 O 757.366 -6.17651 0.734225 0
M  V30 4430 C 758.556 -8.05808 1.51899 0
M  V30 4431 O 758.946 -8.74358 0.335205 0
M  V30 4432 C 759.436 -6.83093 1.70294 0
M  V30 4433 C 758.726 -5.79992 0.836974 0
M  V30 4434 N 758.776 -4.41864 1.38293 0
M  V30 4435 H 755.937 -8.13644 3.0377 0
M  V30 4436 H 755.667 -6.42788 2.55485 0
M  V30 4437 H 756.534 -8.12039 0.792769 0
M  V30 4438 P 760.496 -8.91 -5.30054e-12 0
M  V30 4439 O 760.716 -10.1746 -0.733838 0
M  V30 4440 O 761.286 -8.73346 1.23964 0
M  V30 4441 O 760.746 -7.66872 -0.971405 0
M  V30 4442 C 759.806 -7.42405 -2.04668 0
M  V30 4443 C 760.536 -6.86059 -3.24661 0
M  V30 4444 O 760.746 -5.42934 -3.03695 0
M  V30 4445 C 761.936 -7.41287 -3.50796 0
M  V30 4446 O 762.326 -7.27073 -4.86816 0
M  V30 4447 C 762.816 -6.5273 -2.63741 0
M  V30 4448 C 762.106 -5.1842 -2.73198 0
M  V30 4449 N 762.156 -4.38762 -1.4784 0
M  V30 4450 C 762.076 -4.83651 -0.183876 0
M  V30 4451 N 762.146 -3.88759 0.699393 0
M  V30 4452 C 762.296 -2.7404 -0.0575568 0
M  V30 4453 C 762.426 -1.37902 0.293928 0
M  V30 4454 N 762.436 -0.938021 1.54797 0
M  V30 4455 N 762.546 -0.491817 -0.70549 0
M  V30 4456 C 762.536 -0.931735 -1.95979 0
M  V30 4457 N 762.416 -2.16017 -2.41481 0
M  V30 4458 C 762.296 -3.02547 -1.39121 0
M  V30 4459 H 759.318 -8.36899 -2.3252 0
M  V30 4460 H 759.046 -6.70391 -1.71179 0
M  V30 4461 H 759.914 -7.03638 -4.13219 0
M  V30 4462 H 762.569 -4.59931 -3.54016 0
M  V30 4463 H 762.849 -6.88995 -1.59871 0
M  V30 4464 H 763.84 -6.4684 -3.0373 0
M  V30 4465 H 762.006 -8.47002 -3.20749 0
M  V30 4466 H 761.965 -5.8885 0.0765548 0
M  V30 4467 H 762.346 -1.60276 2.32875 0
M  V30 4468 H 762.535 0.0699355 1.73859 0
M  V30 4469 H 762.643 -0.165507 -2.71897 0
M  V30 4470 P 763.875 -7.20834 -5.23717 0
M  V30 4471 O 764.095 -7.79853 -6.57286 0
M  V30 4472 O 764.665 -7.79239 -4.12957 0
M  V30 4473 O 764.125 -5.63315 -5.29344 0
M  V30 4474 C 763.185 -4.80255 -6.01876 0
M  V30 4475 C 763.915 -3.64202 -6.65911 0
M  V30 4476 O 764.125 -2.60694 -5.64732 0
M  V30 4477 C 765.315 -3.93473 -7.1943 0
M  V30 4478 O 765.705 -3.02071 -8.21205 0
M  V30 4479 C 766.195 -3.73047 -5.97036 0
M  V30 4480 C 765.485 -2.58828 -5.25741 0
M  V30 4481 N 765.535 -2.68068 -3.77503 0
M  V30 4482 H 762.696 -5.40332 -6.79951 0
M  V30 4483 H 762.426 -4.41613 -5.32378 0
M  V30 4484 H 763.293 -3.26331 -7.47797 0
M  V30 4485 P 767.255 -2.75334 -8.47391 0
M  V30 4486 O 767.475 -2.44571 -9.90142 0
M  V30 4487 O 768.045 -3.87688 -7.92115 0
M  V30 4488 O 767.505 -1.4459 -7.59357 0
M  V30 4489 C 766.565 -0.347608 -7.69215 0
M  V30 4490 C 767.295 0.96767 -7.52806 0
M  V30 4491 O 767.505 1.21036 -6.1011 0
M  V30 4492 C 768.695 1.04544 -8.13308 0
M  V30 4493 O 769.085 2.38311 -8.41922 0
M  V30 4494 C 769.575 0.491279 -7.02284 0
M  V30 4495 C 768.865 0.996264 -5.77469 0
M  V30 4496 N 768.915 0.0501916 -4.62973 0
M  V30 4497 H 766.076 -0.374722 -8.67691 0
M  V30 4498 H 765.806 -0.443485 -6.90277 0
M  V30 4499 H 766.673 1.75537 -7.96793 0
M  V30 4500 P 770.635 2.75334 -8.47391 0
M  V30 4501 O 770.855 3.84128 -9.44797 0
M  V30 4502 O 771.425 1.51947 -8.68712 0
M  V30 4503 O 770.885 3.29363 -6.99321 0
M  V30 4504 C 769.945 4.24011 -6.4274 0
M  V30 4505 C 770.675 5.20775 -5.52155 0
M  V30 4506 O 770.885 4.56534 -4.22446 0
M  V30 4507 C 772.075 5.62629 -5.96531 0
M  V30 4508 O 772.465 6.87667 -5.41053 0
M  V30 4509 C 772.955 4.52537 -5.39283 0
M  V30 4510 C 772.245 4.20027 -4.08623 0
M  V30 4511 N 772.295 2.76189 -3.71603 0
M  V30 4512 H 769.456 4.797 -7.24003 0
M  V30 4513 H 769.186 3.69856 -5.84513 0
M  V30 4514 H 770.053 6.10356 -5.41441 0
M  V30 4515 H 772.334 6.85814 -4.46035 0
M  V30 4516 H 776.356 -5.51656 7.74769 0
M  V30 4517 O 776.236 -4.58361 7.63359 0
M  V30 4518 P 774.795 -4.23843 7.83734 0
M  V30 4519 O 774.575 -4.19407 9.29784 0
M  V30 4520 O 774.005 -5.24426 7.09156 0
M  V30 4521 O 774.545 -2.7935 7.20758 0
M  V30 4522 C 775.485 -1.7299 7.50419 0
M  V30 4523 C 774.755 -0.406376 7.57911 0
M  V30 4524 O 774.545 0.0897726 6.21935 0
M  V30 4525 C 773.355 -0.447224 8.1878 0
M  V30 4526 O 772.965 0.825065 8.71101 0
M  V30 4527 C 772.475 -0.783801 6.99623 0
M  V30 4528 C 773.185 -0.0619192 5.85967 0
M  V30 4529 N 773.135 -0.7859 4.56281 0
M  V30 4530 H 775.974 -1.93423 8.4679 0
M  V30 4531 H 776.246 -1.68181 6.71046 0
M  V30 4532 H 775.378 0.289041 8.15388 0
M  V30 4533 P 771.415 1.17771 8.83182 0
M  V30 4534 O 771.195 2.07206 9.98732 0
M  V30 4535 O 770.625 -0.0743816 8.81969 0
M  V30 4536 O 771.165 1.97652 7.47304 0
M  V30 4537 C 772.105 3.01133 7.08783 0
M  V30 4538 C 771.375 4.12613 6.37049 0
M  V30 4539 O 771.165 3.72827 4.97879 0
M  V30 4540 C 769.975 4.45085 6.88694 0
M  V30 4541 O 769.585 5.7877 6.5624 0
M  V30 4542 C 769.095 3.47817 6.12078 0
M  V30 4543 C 769.805 3.39414 4.77697 0
M  V30 4544 N 769.755 2.04199 4.15538 0
M  V30 4545 H 772.594 3.41248 7.98759 0
M  V30 4546 H 772.866 2.57728 6.42 0
M  V30 4547 H 771.998 5.02657 6.42673 0
M  V30 4548 H 769.343 4.11708 4.08956 0
M  V30 4549 H 769.063 2.49626 6.61679 0
M  V30 4550 H 768.072 3.8662 6.00862 0
M  V30 4551 H 769.906 4.29991 7.97006 0
M  V30 4552 P 768.035 6.144 6.45285 0
M  V30 4553 O 767.815 7.54673 6.86199 0
M  V30 4554 O 767.245 5.12391 7.179 0
M  V30 4555 O 767.785 5.99158 4.88404 0
M  V30 4556 C 768.725 6.60234 3.96415 0
M  V30 4557 C 767.995 7.08259 2.72856 0
M  V30 4558 O 767.785 5.9427 1.83651 0
M  V30 4559 C 766.595 7.64886 2.9555 0
M  V30 4560 O 766.205 8.53963 1.90717 0
M  V30 4561 C 765.715 6.4116 2.90739 0
M  V30 4562 C 766.425 5.55375 1.86963 0
M  V30 4563 N 766.375 4.09664 2.15742 0
M  V30 4564 H 769.214 7.45574 4.45629 0
M  V30 4565 H 769.486 5.86232 3.67314 0
M  V30 4566 H 768.618 7.84412 2.24479 0
M  V30 4567 P 764.656 8.7635 1.60911 0
M  V30 4568 O 764.436 10.1388 1.11561 0
M  V30 4569 O 763.866 8.36503 2.79617 0
M  V30 4570 O 764.406 7.71806 0.42951 0
M  V30 4571 C 765.346 7.66948 -0.673514 0
M  V30 4572 C 764.616 7.33374 -1.95559 0
M  V30 4573 O 764.406 5.88721 -2.00726 0
M  V30 4574 C 763.216 7.92218 -2.1125 0
M  V30 4575 O 762.826 8.02971 -3.47653 0
M  V30 4576 C 762.336 6.89504 -1.41631 0
M  V30 4577 C 763.046 5.59106 -1.75155 0
M  V30 4578 N 762.996 4.58136 -0.662409 0
M  V30 4579 C 762.846 3.26059 -1.02863 0
M  V30 4580 O 762.756 2.90743 -2.19009 0
M  V30 4581 N 762.806 2.35995 0.0155585 0
M  V30 4582 C 762.896 2.65248 1.35603 0
M  V30 4583 O 762.846 1.75605 2.20651 0
M  V30 4584 C 763.046 4.05747 1.64698 0
M  V30 4585 C 763.156 4.42345 3.09553 0
M  V30 4586 C 763.096 4.96734 0.652411 0
M  V30 4587 H 765.837 8.64917 -0.776982 0
M  V30 4588 H 766.106 6.89974 -0.474015 0
M  V30 4589 H 765.239 7.66548 -2.79458 0
M  V30 4590 H 762.584 5.16076 -2.65138 0
M  V30 4591 H 762.305 7.06433 -0.329384 0
M  V30 4592 H 761.313 6.90829 -1.81996 0
M  V30 4593 H 763.147 8.90774 -1.62639 0
M  V30 4594 H 763.218 6.02181 0.895285 0
M  V30 4595 H 762.188 4.80252 3.45468 0
M  V30 4596 H 763.925 5.20015 3.22119 0
M  V30 4597 H 763.437 3.53269 3.67833 0
M  V30 4598 H 762.701 1.39558 -0.227499 0
M  V30 4599 P 761.276 8.03563 -3.84925 0
M  V30 4600 O 761.056 8.85821 -5.0569 0
M  V30 4601 O 760.486 8.41101 -2.65469 0
M  V30 4602 O 761.026 6.4965 -4.18908 0
M  V30 4603 C 761.966 5.81037 -5.05421 0
M  V30 4604 C 761.236 4.78366 -5.89277 0
M  V30 4605 O 761.026 3.58302 -5.08433 0
M  V30 4606 C 759.836 5.17448 -6.36119 0
M  V30 4607 O 759.446 4.45271 -7.53232 0
M  V30 4608 C 758.956 4.74639 -5.19936 0
M  V30 4609 C 759.666 3.49432 -4.70418 0
M  V30 4610 N 759.616 3.31776 -3.22945 0
M  V30 4611 H 762.455 6.54213 -5.71376 0
M  V30 4612 H 762.727 5.30492 -4.44033 0
M  V30 4613 H 761.859 4.55889 -6.76652 0
M  V30 4614 P 757.896 4.23843 -7.83734 0
M  V30 4615 O 757.676 4.19407 -9.29784 0
M  V30 4616 O 757.106 5.24426 -7.09156 0
M  V30 4617 O 757.646 2.7935 -7.20758 0
M  V30 4618 C 758.586 1.7299 -7.50419 0
M  V30 4619 C 757.856 0.406376 -7.57911 0
M  V30 4620 O 757.646 -0.0897726 -6.21935 0
M  V30 4621 C 756.456 0.447224 -8.1878 0
M  V30 4622 O 756.066 -0.825065 -8.71101 0
M  V30 4623 C 755.576 0.783801 -6.99623 0
M  V30 4624 C 756.286 0.0619192 -5.85967 0
M  V30 4625 N 756.236 0.7859 -4.56281 0
M  V30 4626 H 759.075 1.93423 -8.4679 0
M  V30 4627 H 759.347 1.68181 -6.71046 0
M  V30 4628 H 758.479 -0.289041 -8.15388 0
M  V30 4629 P 754.516 -1.17771 -8.83182 0
M  V30 4630 O 754.296 -2.07206 -9.98732 0
M  V30 4631 O 753.726 0.0743816 -8.81969 0
M  V30 4632 O 754.266 -1.97652 -7.47304 0
M  V30 4633 C 755.206 -3.01133 -7.08783 0
M  V30 4634 C 754.476 -4.12613 -6.37049 0
M  V30 4635 O 754.266 -3.72827 -4.97879 0
M  V30 4636 C 753.076 -4.45085 -6.88694 0
M  V30 4637 O 752.686 -5.7877 -6.5624 0
M  V30 4638 C 752.196 -3.47817 -6.12078 0
M  V30 4639 C 752.906 -3.39414 -4.77697 0
M  V30 4640 N 752.856 -2.04615 -4.15333 0
M  V30 4641 H 755.695 -3.41248 -7.98759 0
M  V30 4642 H 755.967 -2.5837 -6.41742 0
M  V30 4643 H 755.099 -5.02657 -6.42673 0
M  V30 4644 P 751.136 -6.144 -6.45285 0
M  V30 4645 O 750.916 -7.54673 -6.86199 0
M  V30 4646 O 750.346 -5.12391 -7.179 0
M  V30 4647 O 750.886 -5.99158 -4.88404 0
M  V30 4648 C 751.826 -6.60234 -3.96415 0
M  V30 4649 C 751.096 -7.08259 -2.72856 0
M  V30 4650 O 750.886 -5.9427 -1.83651 0
M  V30 4651 C 749.696 -7.64886 -2.9555 0
M  V30 4652 O 749.306 -8.53963 -1.90717 0
M  V30 4653 C 748.816 -6.4116 -2.90739 0
M  V30 4654 C 749.526 -5.55375 -1.86963 0
M  V30 4655 N 749.476 -4.09664 -2.15742 0
M  V30 4656 H 752.315 -7.45574 -4.45629 0
M  V30 4657 H 752.587 -5.86232 -3.67314 0
M  V30 4658 H 751.719 -7.84412 -2.24479 0
M  V30 4659 P 747.756 -8.7635 -1.60911 0
M  V30 4660 O 747.536 -10.1388 -1.11561 0
M  V30 4661 O 746.966 -8.36503 -2.79617 0
M  V30 4662 O 747.506 -7.71806 -0.42951 0
M  V30 4663 C 748.446 -7.67148 0.673689 0
M  V30 4664 C 747.716 -7.33374 1.95559 0
M  V30 4665 O 747.506 -5.88721 2.00726 0
M  V30 4666 C 746.316 -7.92526 2.10483 0
M  V30 4667 O 745.926 -8.02971 3.47653 0
M  V30 4668 C 745.436 -6.89602 1.41652 0
M  V30 4669 C 746.146 -5.59201 1.75185 0
M  V30 4670 N 746.096 -4.58235 0.662552 0
M  V30 4671 H 748.935 -8.65116 0.777161 0
M  V30 4672 H 749.207 -6.90173 0.474152 0
M  V30 4673 H 748.339 -7.66548 2.79458 0
M  V30 4674 P 744.376 -8.03563 3.84925 0
M  V30 4675 O 744.156 -8.85821 5.0569 0
M  V30 4676 O 743.586 -8.41101 2.65469 0
M  V30 4677 O 744.126 -6.4965 4.18908 0
M  V30 4678 C 745.066 -5.81037 5.05421 0
M  V30 4679 C 744.336 -4.78366 5.89277 0
M  V30 4680 O 744.126 -3.58302 5.08433 0
M  V30 4681 C 742.936 -5.17448 6.36119 0
M  V30 4682 O 742.546 -4.45271 7.53232 0
M  V30 4683 C 742.056 -4.74639 5.19936 0
M  V30 4684 C 742.766 -3.49432 4.70418 0
M  V30 4685 N 742.716 -3.31776 3.22945 0
M  V30 4686 H 745.555 -6.54213 5.71376 0
M  V30 4687 H 745.827 -5.30492 4.44033 0
M  V30 4688 H 744.959 -4.55889 6.76652 0
M  V30 4689 P 740.996 -4.23843 7.83734 0
M  V30 4690 O 740.776 -4.19407 9.29784 0
M  V30 4691 O 740.206 -5.24426 7.09156 0
M  V30 4692 O 740.746 -2.7935 7.20758 0
M  V30 4693 C 741.686 -1.7299 7.50419 0
M  V30 4694 C 740.956 -0.406376 7.57911 0
M  V30 4695 O 740.746 0.0897726 6.21935 0
M  V30 4696 C 739.556 -0.447224 8.1878 0
M  V30 4697 O 739.166 0.825065 8.71101 0
M  V30 4698 C 738.676 -0.783801 6.99623 0
M  V30 4699 C 739.386 -0.0619192 5.85967 0
M  V30 4700 N 739.336 -0.790462 4.56202 0
M  V30 4701 H 742.175 -1.93423 8.4679 0
M  V30 4702 H 742.447 -1.68852 6.70877 0
M  V30 4703 H 741.579 0.289041 8.15388 0
M  V30 4704 H 738.924 0.927006 5.72848 0
M  V30 4705 H 738.644 -1.86973 6.82036 0
M  V30 4706 H 737.653 -0.403953 7.13357 0
M  V30 4707 H 739.487 -1.20599 8.97534 0
M  V30 4708 P 737.616 1.17771 8.83182 0
M  V30 4709 O 737.396 2.07206 9.98732 0
M  V30 4710 O 736.826 -0.0743816 8.81969 0
M  V30 4711 O 737.366 1.97652 7.47304 0
M  V30 4712 C 738.306 3.01133 7.08783 0
M  V30 4713 C 737.576 4.12613 6.37049 0
M  V30 4714 O 737.366 3.72827 4.97879 0
M  V30 4715 C 736.176 4.45085 6.88694 0
M  V30 4716 O 735.786 5.7877 6.5624 0
M  V30 4717 C 735.296 3.47817 6.12078 0
M  V30 4718 C 736.006 3.39414 4.77697 0
M  V30 4719 N 735.956 2.04615 4.15333 0
M  V30 4720 H 738.795 3.41248 7.98759 0
M  V30 4721 H 739.067 2.5837 6.41742 0
M  V30 4722 H 738.199 5.02657 6.42673 0
M  V30 4723 P 734.236 6.144 6.45285 0
M  V30 4724 O 734.016 7.54673 6.86199 0
M  V30 4725 O 733.446 5.12391 7.179 0
M  V30 4726 O 733.986 5.99158 4.88404 0
M  V30 4727 C 734.926 6.60234 3.96415 0
M  V30 4728 C 734.196 7.08259 2.72856 0
M  V30 4729 O 733.986 5.9427 1.83651 0
M  V30 4730 C 732.796 7.64886 2.9555 0
M  V30 4731 O 732.406 8.53963 1.90717 0
M  V30 4732 C 731.916 6.4116 2.90739 0
M  V30 4733 C 732.626 5.55375 1.86963 0
M  V30 4734 N 732.576 4.09664 2.15742 0
M  V30 4735 H 735.415 7.45574 4.45629 0
M  V30 4736 H 735.687 5.86232 3.67314 0
M  V30 4737 H 734.819 7.84412 2.24479 0
M  V30 4738 P 730.856 8.7635 1.60911 0
M  V30 4739 O 730.636 10.1388 1.11561 0
M  V30 4740 O 730.066 8.36503 2.79617 0
M  V30 4741 O 730.606 7.71806 0.42951 0
M  V30 4742 C 731.546 7.67148 -0.673689 0
M  V30 4743 C 730.816 7.33374 -1.95559 0
M  V30 4744 O 730.606 5.88721 -2.00726 0
M  V30 4745 C 729.416 7.92526 -2.10483 0
M  V30 4746 O 729.026 8.02971 -3.47653 0
M  V30 4747 C 728.536 6.89602 -1.41652 0
M  V30 4748 C 729.246 5.59201 -1.75185 0
M  V30 4749 N 729.196 4.58301 -0.657969 0
M  V30 4750 C 729.276 4.79019 0.692603 0
M  V30 4751 N 729.206 3.69736 1.38998 0
M  V30 4752 C 729.056 2.70474 0.438135 0
M  V30 4753 C 728.926 1.30327 0.538142 0
M  V30 4754 N 728.916 0.64304 1.69192 0
M  V30 4755 N 728.806 0.611027 -0.605183 0
M  V30 4756 C 728.816 1.27002 -1.75953 0
M  V30 4757 N 728.936 2.56038 -1.98546 0
M  V30 4758 C 729.056 3.22681 -0.822541 0
M  V30 4759 H 732.035 8.65116 -0.777161 0
M  V30 4760 H 732.307 6.9022 -0.46725 0
M  V30 4761 H 731.439 7.66548 -2.79458 0
M  V30 4762 H 728.784 5.16165 -2.65183 0
M  V30 4763 H 728.504 7.06433 -0.329384 0
M  V30 4764 H 727.513 6.90926 -1.82021 0
M  V30 4765 H 729.347 8.90873 -1.62657 0
M  V30 4766 H 729.388 5.77785 1.13874 0
M  V30 4767 H 729.007 1.15585 2.57991 0
M  V30 4768 H 728.818 -0.382989 1.69835 0
M  V30 4769 H 728.71 0.653331 -2.64449 0
M  V30 4770 P 727.476 8.03563 -3.84925 0
M  V30 4771 O 727.256 8.85821 -5.0569 0
M  V30 4772 O 726.686 8.41101 -2.65469 0
M  V30 4773 O 727.226 6.4965 -4.18908 0
M  V30 4774 C 728.166 5.81037 -5.05421 0
M  V30 4775 C 727.436 4.78366 -5.89277 0
M  V30 4776 O 727.226 3.58302 -5.08433 0
M  V30 4777 C 726.036 5.17448 -6.36119 0
M  V30 4778 O 725.646 4.45271 -7.53232 0
M  V30 4779 C 725.156 4.74639 -5.19936 0
M  V30 4780 C 725.866 3.49432 -4.70418 0
M  V30 4781 N 725.816 3.31776 -3.22945 0
M  V30 4782 H 728.655 6.54213 -5.71376 0
M  V30 4783 H 728.927 5.30492 -4.44033 0
M  V30 4784 H 728.059 4.55889 -6.76652 0
M  V30 4785 P 724.096 4.23843 -7.83734 0
M  V30 4786 O 723.876 4.19407 -9.29784 0
M  V30 4787 O 723.306 5.24426 -7.09156 0
M  V30 4788 O 723.846 2.79386 -7.20852 0
M  V30 4789 C 724.786 1.7299 -7.50419 0
M  V30 4790 C 724.056 0.41401 -7.5797 0
M  V30 4791 O 723.846 -0.089787 -6.22035 0
M  V30 4792 C 722.656 0.447224 -8.1878 0
M  V30 4793 O 722.266 -0.825159 -8.71201 0
M  V30 4794 C 721.776 0.783801 -6.99623 0
M  V30 4795 C 722.486 0.0619192 -5.85967 0
M  V30 4796 N 722.436 0.7859 -4.56281 0
M  V30 4797 C 722.286 0.0359258 -3.39981 0
M  V30 4798 O 722.196 -1.19723 -3.49038 0
M  V30 4799 N 722.236 0.869151 -2.14025 0
M  V30 4800 C 722.336 2.01207 -2.14363 0
M  V30 4801 N 722.286 2.58978 -0.954287 0
M  V30 4802 C 722.486 2.80817 -3.32215 0
M  V30 4803 C 722.536 2.13785 -4.50884 0
M  V30 4804 H 725.276 1.93401 -8.46693 0
M  V30 4805 H 725.546 1.68181 -6.71046 0
M  V30 4806 H 724.679 -0.289076 -8.15488 0
M  V30 4807 H 722.024 -0.927166 -5.72947 0
M  V30 4808 H 721.744 1.87 -6.82132 0
M  V30 4809 H 720.753 0.404009 -7.13457 0
M  V30 4810 H 722.587 1.20599 -8.97534 0
M  V30 4811 H 722.659 2.70295 -5.43162 0
M  V30 4812 H 722.557 3.89465 -3.27406 0
M  V30 4813 H 722.169 2.01616 -0.107046 0
M  V30 4814 H 722.365 3.61403 -0.873101 0
M  V30 4815 P 720.716 -1.17771 -8.83182 0
M  V30 4816 O 720.496 -2.07206 -9.98732 0
M  V30 4817 O 719.926 0.0743816 -8.81969 0
M  V30 4818 O 720.466 -1.97652 -7.47304 0
M  V30 4819 C 721.406 -3.01133 -7.08783 0
M  V30 4820 C 720.676 -4.12613 -6.37049 0
M  V30 4821 O 720.466 -3.72827 -4.97879 0
M  V30 4822 C 719.276 -4.45085 -6.88694 0
M  V30 4823 O 718.886 -5.7877 -6.5624 0
M  V30 4824 C 718.396 -3.47817 -6.12078 0
M  V30 4825 C 719.106 -3.39414 -4.77697 0
M  V30 4826 N 719.056 -2.04615 -4.15333 0
M  V30 4827 H 721.895 -3.41248 -7.98759 0
M  V30 4828 H 722.167 -2.5837 -6.41742 0
M  V30 4829 H 721.299 -5.02657 -6.42673 0
M  V30 4830 P 717.336 -6.144 -6.45285 0
M  V30 4831 O 717.116 -7.54673 -6.86199 0
M  V30 4832 O 716.546 -5.12391 -7.179 0
M  V30 4833 O 717.086 -5.99158 -4.88404 0
M  V30 4834 C 718.026 -6.60234 -3.96415 0
M  V30 4835 C 717.296 -7.08259 -2.72856 0
M  V30 4836 O 717.086 -5.9427 -1.83651 0
M  V30 4837 C 715.896 -7.64886 -2.9555 0
M  V30 4838 O 715.506 -8.53963 -1.90717 0
M  V30 4839 C 715.016 -6.4116 -2.90739 0
M  V30 4840 C 715.726 -5.55375 -1.86963 0
M  V30 4841 N 715.676 -4.09664 -2.15742 0
M  V30 4842 H 718.515 -7.45574 -4.45629 0
M  V30 4843 H 718.787 -5.86232 -3.67314 0
M  V30 4844 H 717.919 -7.84412 -2.24479 0
M  V30 4845 P 713.956 -8.7635 -1.60911 0
M  V30 4846 O 713.736 -10.1388 -1.11561 0
M  V30 4847 O 713.166 -8.36503 -2.79617 0
M  V30 4848 O 713.706 -7.71806 -0.42951 0
M  V30 4849 C 714.646 -7.67148 0.673689 0
M  V30 4850 C 713.916 -7.33374 1.95559 0
M  V30 4851 O 713.706 -5.88721 2.00726 0
M  V30 4852 C 712.516 -7.92526 2.10483 0
M  V30 4853 O 712.126 -8.02971 3.47653 0
M  V30 4854 C 711.636 -6.89602 1.41652 0
M  V30 4855 C 712.346 -5.59201 1.75185 0
M  V30 4856 N 712.296 -4.58235 0.662552 0
M  V30 4857 H 715.135 -8.65116 0.777161 0
M  V30 4858 H 715.407 -6.90173 0.474152 0
M  V30 4859 H 714.539 -7.66548 2.79458 0
M  V30 4860 P 710.576 -8.03563 3.84925 0
M  V30 4861 O 710.356 -8.85821 5.0569 0
M  V30 4862 O 709.786 -8.41101 2.65469 0
M  V30 4863 O 710.326 -6.4965 4.18908 0
M  V30 4864 C 711.266 -5.81037 5.05421 0
M  V30 4865 C 710.536 -4.78366 5.89277 0
M  V30 4866 O 710.326 -3.58302 5.08433 0
M  V30 4867 C 709.136 -5.17448 6.36119 0
M  V30 4868 O 708.746 -4.45271 7.53232 0
M  V30 4869 C 708.256 -4.74639 5.19936 0
M  V30 4870 C 708.966 -3.49432 4.70418 0
M  V30 4871 N 708.916 -3.31776 3.22945 0
M  V30 4872 H 711.755 -6.54213 5.71376 0
M  V30 4873 H 712.027 -5.30492 4.44033 0
M  V30 4874 H 711.159 -4.55889 6.76652 0
M  V30 4875 P 707.196 -4.23843 7.83734 0
M  V30 4876 O 706.976 -4.19407 9.29784 0
M  V30 4877 O 706.406 -5.24426 7.09156 0
M  V30 4878 O 706.946 -2.7935 7.20758 0
M  V30 4879 C 707.886 -1.7299 7.50419 0
M  V30 4880 C 707.156 -0.406376 7.57911 0
M  V30 4881 O 706.946 0.0897726 6.21935 0
M  V30 4882 C 705.756 -0.447224 8.1878 0
M  V30 4883 O 705.366 0.825065 8.71101 0
M  V30 4884 C 704.876 -0.783801 6.99623 0
M  V30 4885 C 705.586 -0.0619192 5.85967 0
M  V30 4886 N 705.536 -0.7859 4.56281 0
M  V30 4887 H 708.375 -1.93423 8.4679 0
M  V30 4888 H 708.647 -1.68181 6.71046 0
M  V30 4889 H 707.779 0.289041 8.15388 0
M  V30 4890 P 703.816 1.17771 8.83182 0
M  V30 4891 O 703.596 2.07206 9.98732 0
M  V30 4892 O 703.026 -0.0743816 8.81969 0
M  V30 4893 O 703.566 1.97652 7.47304 0
M  V30 4894 C 704.506 3.01133 7.08783 0
M  V30 4895 C 703.776 4.12613 6.37049 0
M  V30 4896 O 703.566 3.72827 4.97879 0
M  V30 4897 C 702.376 4.45085 6.88694 0
M  V30 4898 O 701.986 5.7877 6.5624 0
M  V30 4899 C 701.496 3.47817 6.12078 0
M  V30 4900 C 702.206 3.39414 4.77697 0
M  V30 4901 N 702.156 2.04615 4.15333 0
M  V30 4902 H 704.995 3.41248 7.98759 0
M  V30 4903 H 705.267 2.5837 6.41742 0
M  V30 4904 H 704.399 5.02657 6.42673 0
M  V30 4905 P 700.436 6.144 6.45285 0
M  V30 4906 O 700.216 7.54673 6.86199 0
M  V30 4907 O 699.646 5.12391 7.179 0
M  V30 4908 O 700.186 5.99158 4.88404 0
M  V30 4909 C 701.126 6.60234 3.96415 0
M  V30 4910 C 700.396 7.08259 2.72856 0
M  V30 4911 O 700.186 5.9427 1.83651 0
M  V30 4912 C 698.996 7.64886 2.9555 0
M  V30 4913 O 698.606 8.53963 1.90717 0
M  V30 4914 C 698.116 6.4116 2.90739 0
M  V30 4915 C 698.826 5.55375 1.86963 0
M  V30 4916 N 698.776 4.09664 2.15742 0
M  V30 4917 H 701.615 7.45574 4.45629 0
M  V30 4918 H 701.887 5.86232 3.67314 0
M  V30 4919 H 701.019 7.84412 2.24479 0
M  V30 4920 P 697.056 8.7635 1.60911 0
M  V30 4921 O 696.836 10.1388 1.11561 0
M  V30 4922 O 696.266 8.36503 2.79617 0
M  V30 4923 O 696.806 7.71806 0.42951 0
M  V30 4924 C 697.746 7.66948 -0.673514 0
M  V30 4925 C 697.016 7.33374 -1.95559 0
M  V30 4926 O 696.806 5.88721 -2.00726 0
M  V30 4927 C 695.616 7.92218 -2.1125 0
M  V30 4928 O 695.226 8.02971 -3.47653 0
M  V30 4929 C 694.736 6.89504 -1.41631 0
M  V30 4930 C 695.446 5.59106 -1.75155 0
M  V30 4931 N 695.396 4.58136 -0.662409 0
M  V30 4932 C 695.246 3.26059 -1.02863 0
M  V30 4933 O 695.156 2.90743 -2.19009 0
M  V30 4934 N 695.206 2.35995 0.0155585 0
M  V30 4935 C 695.296 2.65248 1.35603 0
M  V30 4936 O 695.246 1.75605 2.20651 0
M  V30 4937 C 695.446 4.05747 1.64698 0
M  V30 4938 C 695.556 4.42345 3.09553 0
M  V30 4939 C 695.496 4.96734 0.652411 0
M  V30 4940 H 698.237 8.64917 -0.776982 0
M  V30 4941 H 698.506 6.89974 -0.474015 0
M  V30 4942 H 697.639 7.66548 -2.79458 0
M  V30 4943 H 694.984 5.16076 -2.65138 0
M  V30 4944 H 694.705 7.06433 -0.329384 0
M  V30 4945 H 693.713 6.90829 -1.81996 0
M  V30 4946 H 695.547 8.90774 -1.62639 0
M  V30 4947 H 695.618 6.02181 0.895285 0
M  V30 4948 H 694.588 4.80252 3.45468 0
M  V30 4949 H 696.325 5.20015 3.22119 0
M  V30 4950 H 695.837 3.53269 3.67833 0
M  V30 4951 H 695.101 1.39558 -0.227499 0
M  V30 4952 P 693.676 8.03563 -3.84925 0
M  V30 4953 O 693.456 8.85821 -5.0569 0
M  V30 4954 O 692.886 8.41101 -2.65469 0
M  V30 4955 O 693.426 6.4965 -4.18908 0
M  V30 4956 C 694.366 5.81037 -5.05421 0
M  V30 4957 C 693.636 4.78366 -5.89277 0
M  V30 4958 O 693.426 3.58302 -5.08433 0
M  V30 4959 C 692.236 5.17448 -6.36119 0
M  V30 4960 O 691.846 4.45271 -7.53232 0
M  V30 4961 C 691.356 4.74639 -5.19936 0
M  V30 4962 C 692.066 3.49432 -4.70418 0
M  V30 4963 N 692.016 3.31776 -3.22945 0
M  V30 4964 H 694.855 6.54213 -5.71376 0
M  V30 4965 H 695.127 5.30492 -4.44033 0
M  V30 4966 H 694.259 4.55889 -6.76652 0
M  V30 4967 P 690.296 4.23843 -7.83734 0
M  V30 4968 O 690.076 4.19407 -9.29784 0
M  V30 4969 O 689.506 5.24426 -7.09156 0
M  V30 4970 O 690.046 2.7935 -7.20758 0
M  V30 4971 C 690.986 1.7299 -7.50419 0
M  V30 4972 C 690.256 0.406376 -7.57911 0
M  V30 4973 O 690.046 -0.0897726 -6.21935 0
M  V30 4974 C 688.856 0.447224 -8.1878 0
M  V30 4975 O 688.466 -0.825065 -8.71101 0
M  V30 4976 C 687.976 0.783801 -6.99623 0
M  V30 4977 C 688.686 0.0619192 -5.85967 0
M  V30 4978 N 688.636 0.7859 -4.56281 0
M  V30 4979 H 691.475 1.93423 -8.4679 0
M  V30 4980 H 691.747 1.68181 -6.71046 0
M  V30 4981 H 690.879 -0.289041 -8.15388 0
M  V30 4982 P 686.916 -1.17771 -8.83182 0
M  V30 4983 O 686.696 -2.07206 -9.98732 0
M  V30 4984 O 686.126 0.0743816 -8.81969 0
M  V30 4985 O 686.666 -1.97652 -7.47304 0
M  V30 4986 C 687.606 -3.01133 -7.08783 0
M  V30 4987 C 686.876 -4.12613 -6.37049 0
M  V30 4988 O 686.666 -3.72827 -4.97879 0
M  V30 4989 C 685.476 -4.45085 -6.88694 0
M  V30 4990 O 685.086 -5.7877 -6.5624 0
M  V30 4991 C 684.596 -3.47817 -6.12078 0
M  V30 4992 C 685.306 -3.39414 -4.77697 0
M  V30 4993 N 685.256 -2.04615 -4.15333 0
M  V30 4994 H 688.095 -3.41248 -7.98759 0
M  V30 4995 H 688.367 -2.5837 -6.41742 0
M  V30 4996 H 687.499 -5.02657 -6.42673 0
M  V30 4997 P 683.536 -6.144 -6.45285 0
M  V30 4998 O 683.316 -7.54673 -6.86199 0
M  V30 4999 O 682.746 -5.12391 -7.179 0
M  V30 5000 O 683.286 -5.99158 -4.88404 0
M  V30 5001 C 684.226 -6.60234 -3.96415 0
M  V30 5002 C 683.496 -7.08259 -2.72856 0
M  V30 5003 O 683.286 -5.9427 -1.83651 0
M  V30 5004 C 682.096 -7.64886 -2.9555 0
M  V30 5005 O 681.706 -8.53963 -1.90717 0
M  V30 5006 C 681.216 -6.4116 -2.90739 0
M  V30 5007 C 681.926 -5.55375 -1.86963 0
M  V30 5008 N 681.876 -4.09664 -2.15742 0
M  V30 5009 H 684.715 -7.45574 -4.45629 0
M  V30 5010 H 684.987 -5.86232 -3.67314 0
M  V30 5011 H 684.119 -7.84412 -2.24479 0
M  V30 5012 P 680.156 -8.7635 -1.60911 0
M  V30 5013 O 679.936 -10.1388 -1.11561 0
M  V30 5014 O 679.366 -8.36503 -2.79617 0
M  V30 5015 O 679.906 -7.71806 -0.42951 0
M  V30 5016 C 680.846 -7.67148 0.673689 0
M  V30 5017 C 680.116 -7.33374 1.95559 0
M  V30 5018 O 679.906 -5.88721 2.00726 0
M  V30 5019 C 678.716 -7.92526 2.10483 0
M  V30 5020 O 678.326 -8.02971 3.47653 0
M  V30 5021 C 677.836 -6.89602 1.41652 0
M  V30 5022 C 678.546 -5.59201 1.75185 0
M  V30 5023 N 678.496 -4.58235 0.662552 0
M  V30 5024 H 681.335 -8.65116 0.777161 0
M  V30 5025 H 681.607 -6.90173 0.474152 0
M  V30 5026 H 680.739 -7.66548 2.79458 0
M  V30 5027 P 676.776 -8.03563 3.84925 0
M  V30 5028 O 676.556 -8.85821 5.0569 0
M  V30 5029 O 675.986 -8.41101 2.65469 0
M  V30 5030 O 676.526 -6.4965 4.18908 0
M  V30 5031 C 677.466 -5.81037 5.05421 0
M  V30 5032 C 676.736 -4.78366 5.89277 0
M  V30 5033 O 676.526 -3.58302 5.08433 0
M  V30 5034 C 675.336 -5.17448 6.36119 0
M  V30 5035 O 674.946 -4.45271 7.53232 0
M  V30 5036 C 674.456 -4.74639 5.19936 0
M  V30 5037 C 675.166 -3.49432 4.70418 0
M  V30 5038 N 675.116 -3.31776 3.22945 0
M  V30 5039 C 675.196 -4.27147 2.23315 0
M  V30 5040 N 675.116 -3.78447 1.02186 0
M  V30 5041 C 674.976 -2.41001 1.21732 0
M  V30 5042 C 674.846 -1.36111 0.27694 0
M  V30 5043 O 674.826 -1.42065 -0.951767 0
M  V30 5044 N 674.726 -0.113683 0.912949 0
M  V30 5045 C 674.726 0.0846396 2.27943 0
M  V30 5046 N 674.596 1.34737 2.6916 0
M  V30 5047 N 674.856 -0.902521 3.16379 0
M  V30 5048 C 674.976 -2.11937 2.56849 0
M  V30 5049 H 677.955 -6.54213 5.71376 0
M  V30 5050 H 678.227 -5.30492 4.44033 0
M  V30 5051 H 677.359 -4.55889 6.76652 0
M  V30 5052 H 674.704 -2.6176 5.18021 0
M  V30 5053 H 674.424 -5.52233 4.41941 0
M  V30 5054 H 673.433 -4.52045 5.53452 0
M  V30 5055 H 675.267 -6.25193 6.55307 0
M  V30 5056 H 675.316 -5.3351 2.43857 0
M  V30 5057 H 674.634 0.69331 0.330371 0
M  V30 5058 H 674.597 1.56433 3.6988 0
M  V30 5059 H 674.496 2.10701 2.00133 0
M  V30 5060 P 673.396 -4.23843 7.83734 0
M  V30 5061 O 673.176 -4.19407 9.29784 0
M  V30 5062 O 672.606 -5.24426 7.09156 0
M  V30 5063 O 673.146 -2.79386 7.20852 0
M  V30 5064 C 674.086 -1.7299 7.50419 0
M  V30 5065 C 673.356 -0.41401 7.5797 0
M  V30 5066 O 673.146 0.089787 6.22035 0
M  V30 5067 C 671.956 -0.447224 8.1878 0
M  V30 5068 O 671.566 0.825159 8.71201 0
M  V30 5069 C 671.076 -0.783801 6.99623 0
M  V30 5070 C 671.786 -0.0619192 5.85967 0
M  V30 5071 N 671.736 -0.7859 4.56281 0
M  V30 5072 C 671.586 -0.0359258 3.39981 0
M  V30 5073 O 671.496 1.19723 3.49038 0
M  V30 5074 N 671.536 -0.869151 2.14025 0
M  V30 5075 C 671.636 -2.01207 2.14363 0
M  V30 5076 N 671.586 -2.58978 0.954287 0
M  V30 5077 C 671.786 -2.80817 3.32215 0
M  V30 5078 C 671.836 -2.13785 4.50884 0
M  V30 5079 H 674.576 -1.93401 8.46693 0
M  V30 5080 H 674.846 -1.68181 6.71046 0
M  V30 5081 H 673.979 0.289076 8.15488 0
M  V30 5082 H 671.324 0.927166 5.72947 0
M  V30 5083 H 671.044 -1.87 6.82132 0
M  V30 5084 H 670.053 -0.404009 7.13457 0
M  V30 5085 H 671.887 -1.20599 8.97534 0
M  V30 5086 H 671.959 -2.70295 5.43162 0
M  V30 5087 H 671.857 -3.89465 3.27406 0
M  V30 5088 H 671.469 -2.01616 0.107046 0
M  V30 5089 H 671.665 -3.61403 0.873101 0
M  V30 5090 P 670.016 1.17771 8.83182 0
M  V30 5091 O 669.796 2.07206 9.98732 0
M  V30 5092 O 669.226 -0.0743816 8.81969 0
M  V30 5093 O 669.766 1.97652 7.47304 0
M  V30 5094 C 670.706 3.01133 7.08783 0
M  V30 5095 C 669.976 4.12613 6.37049 0
M  V30 5096 O 669.766 3.72827 4.97879 0
M  V30 5097 C 668.576 4.45085 6.88694 0
M  V30 5098 O 668.186 5.7877 6.5624 0
M  V30 5099 C 667.696 3.47817 6.12078 0
M  V30 5100 C 668.406 3.39414 4.77697 0
M  V30 5101 N 668.356 2.04615 4.15333 0
M  V30 5102 H 671.195 3.41248 7.98759 0
M  V30 5103 H 671.467 2.5837 6.41742 0
M  V30 5104 H 670.599 5.02657 6.42673 0
M  V30 5105 P 666.636 6.144 6.45285 0
M  V30 5106 O 666.416 7.54673 6.86199 0
M  V30 5107 O 665.846 5.12391 7.179 0
M  V30 5108 O 666.386 5.99158 4.88404 0
M  V30 5109 C 667.326 6.60234 3.96415 0
M  V30 5110 C 666.596 7.08259 2.72856 0
M  V30 5111 O 666.386 5.9427 1.83651 0
M  V30 5112 C 665.196 7.64886 2.9555 0
M  V30 5113 O 664.806 8.53963 1.90717 0
M  V30 5114 C 664.316 6.4116 2.90739 0
M  V30 5115 C 665.026 5.55375 1.86963 0
M  V30 5116 N 664.976 4.09664 2.15742 0
M  V30 5117 H 667.815 7.45574 4.45629 0
M  V30 5118 H 668.087 5.86232 3.67314 0
M  V30 5119 H 667.219 7.84412 2.24479 0
M  V30 5120 P 663.256 8.7635 1.60911 0
M  V30 5121 O 663.036 10.1388 1.11561 0
M  V30 5122 O 662.466 8.36503 2.79617 0
M  V30 5123 O 663.006 7.71906 0.429565 0
M  V30 5124 C 663.946 7.67148 -0.673689 0
M  V30 5125 C 663.216 7.33666 -1.94851 0
M  V30 5126 O 663.006 5.88816 -2.00759 0
M  V30 5127 C 661.816 7.92526 -2.10483 0
M  V30 5128 O 661.426 8.03063 -3.47693 0
M  V30 5129 C 660.936 6.89602 -1.41652 0
M  V30 5130 C 661.646 5.59201 -1.75185 0
M  V30 5131 N 661.596 4.58235 -0.662552 0
M  V30 5132 C 661.446 3.24451 -1.01643 0
M  V30 5133 O 661.356 2.94958 -2.21722 0
M  V30 5134 N 661.396 2.30408 0.165238 0
M  V30 5135 C 661.496 2.66048 1.25118 0
M  V30 5136 N 661.446 1.70787 2.16813 0
M  V30 5137 C 661.646 4.02732 1.64413 0
M  V30 5138 C 661.696 4.9488 0.63991 0
M  V30 5139 H 664.436 8.65017 -0.777072 0
M  V30 5140 H 664.706 6.90173 -0.474152 0
M  V30 5141 H 663.839 7.66642 -2.79492 0
M  V30 5142 H 661.184 5.16254 -2.65229 0
M  V30 5143 H 660.904 7.06532 -0.329431 0
M  V30 5144 H 659.913 6.91023 -1.82047 0
M  V30 5145 H 661.747 8.90873 -1.62657 0
M  V30 5146 H 661.819 6.00104 0.892197 0
M  V30 5147 H 661.717 4.31733 2.69229 0
M  V30 5148 H 661.329 0.724835 1.8844 0
M  V30 5149 H 661.525 1.94716 3.16734 0
M  V30 5150 P 659.876 8.03563 -3.84925 0
M  V30 5151 O 659.656 8.85821 -5.0569 0
M  V30 5152 O 659.086 8.41101 -2.65469 0
M  V30 5153 O 659.626 6.4965 -4.18908 0
M  V30 5154 C 660.566 5.80886 -5.05289 0
M  V30 5155 C 659.836 4.78366 -5.89277 0
M  V30 5156 O 659.626 3.58302 -5.08433 0
M  V30 5157 C 658.436 5.16748 -6.36559 0
M  V30 5158 O 658.046 4.45271 -7.53232 0
M  V30 5159 C 657.556 4.74572 -5.19863 0
M  V30 5160 C 658.266 3.49373 -4.70338 0
M  V30 5161 N 658.216 3.31704 -3.22876 0
M  V30 5162 C 658.066 2.03326 -2.74871 0
M  V30 5163 O 657.976 1.06486 -3.48076 0
M  V30 5164 N 658.026 1.91838 -1.37456 0
M  V30 5165 C 658.116 2.94295 -0.462035 0
M  V30 5166 C 658.266 4.25064 -1.05249 0
M  V30 5167 C 658.316 4.40214 -2.39192 0
M  V30 5168 H 661.057 6.54063 -5.71245 0
M  V30 5169 H 661.326 5.30339 -4.43905 0
M  V30 5170 H 660.459 4.55889 -6.76652 0
M  V30 5171 H 657.804 2.6167 -5.17842 0
M  V30 5172 H 657.525 5.52155 -4.41878 0
M  V30 5173 H 656.533 4.51918 -5.53297 0
M  V30 5174 H 658.367 6.25055 -6.55162 0
M  V30 5175 H 658.438 5.39798 -2.81523 0
M  V30 5176 P 656.496 4.23843 -7.83734 0
M  V30 5177 O 656.276 4.19407 -9.29784 0
M  V30 5178 O 655.706 5.24426 -7.09156 0
M  V30 5179 O 656.246 2.7935 -7.20758 0
M  V30 5180 C 657.186 1.7299 -7.50419 0
M  V30 5181 C 656.456 0.406376 -7.57911 0
M  V30 5182 O 656.246 -0.0897726 -6.21935 0
M  V30 5183 C 655.056 0.447224 -8.1878 0
M  V30 5184 O 654.666 -0.825065 -8.71101 0
M  V30 5185 C 654.176 0.783801 -6.99623 0
M  V30 5186 C 654.886 0.0619192 -5.85967 0
M  V30 5187 N 654.836 0.7859 -4.56281 0
M  V30 5188 H 657.675 1.93423 -8.4679 0
M  V30 5189 H 657.947 1.68181 -6.71046 0
M  V30 5190 H 657.079 -0.289041 -8.15388 0
M  V30 5191 P 653.116 -1.17771 -8.83182 0
M  V30 5192 O 652.896 -2.07206 -9.98732 0
M  V30 5193 O 652.326 0.0743816 -8.81969 0
M  V30 5194 O 652.866 -1.97652 -7.47304 0
M  V30 5195 C 653.806 -3.01055 -7.08599 0
M  V30 5196 C 653.076 -4.12613 -6.37049 0
M  V30 5197 O 652.866 -3.72827 -4.97879 0
M  V30 5198 C 651.676 -4.45719 -6.88164 0
M  V30 5199 O 651.286 -5.7877 -6.5624 0
M  V30 5200 C 650.796 -3.47768 -6.11991 0
M  V30 5201 C 651.506 -3.39356 -4.77615 0
M  V30 5202 N 651.456 -2.04571 -4.15244 0
M  V30 5203 C 651.306 -1.98587 -2.78314 0
M  V30 5204 O 651.216 -2.98134 -2.08835 0
M  V30 5205 N 651.266 -0.714467 -2.24925 0
M  V30 5206 C 651.356 0.470001 -2.94169 0
M  V30 5207 O 651.306 1.55587 -2.35195 0
M  V30 5208 C 651.506 0.312541 -4.36783 0
M  V30 5209 C 651.616 1.57711 -5.16352 0
M  V30 5210 C 651.556 -0.914512 -4.92583 0
M  V30 5211 H 654.297 -3.41169 -7.98575 0
M  V30 5212 H 654.566 -2.58295 -6.41556 0
M  V30 5213 H 653.699 -5.02657 -6.42673 0
M  V30 5214 H 651.044 -4.11637 -4.08885 0
M  V30 5215 H 650.765 -2.49626 -6.61679 0
M  V30 5216 H 649.773 -3.86566 -6.00778 0
M  V30 5217 H 651.607 -4.29943 -7.96918 0
M  V30 5218 H 651.678 -1.00937 -6.00374 0
M  V30 5219 H 650.648 1.80153 -5.63503 0
M  V30 5220 H 652.385 1.4566 -5.94104 0
M  V30 5221 H 651.897 2.40664 -4.49645 0
M  V30 5222 H 651.161 -0.647622 -1.25697 0
M  V30 5223 P 649.736 -6.144 -6.45285 0
M  V30 5224 O 649.516 -7.54673 -6.86199 0
M  V30 5225 O 648.946 -5.12391 -7.179 0
M  V30 5226 O 649.486 -5.99158 -4.88404 0
M  V30 5227 C 650.426 -6.60234 -3.96415 0
M  V30 5228 C 649.696 -7.08259 -2.72856 0
M  V30 5229 O 649.486 -5.9427 -1.83651 0
M  V30 5230 C 648.296 -7.64886 -2.9555 0
M  V30 5231 O 647.906 -8.53963 -1.90717 0
M  V30 5232 C 647.416 -6.4116 -2.90739 0
M  V30 5233 C 648.126 -5.55375 -1.86963 0
M  V30 5234 N 648.076 -4.09448 -2.16152 0
M  V30 5235 H 650.915 -7.45574 -4.45629 0
M  V30 5236 H 651.187 -5.85864 -3.679 0
M  V30 5237 H 650.319 -7.84412 -2.24479 0
M  V30 5238 H 647.664 -5.73457 -0.888562 0
M  V30 5239 H 647.384 -5.90877 -3.88583 0
M  V30 5240 H 646.393 -6.6596 -2.58858 0
M  V30 5241 H 648.227 -8.16339 -3.92049 0
M  V30 5242 P 646.356 -8.7635 -1.60911 0
M  V30 5243 O 646.136 -10.1388 -1.11561 0
M  V30 5244 O 645.566 -8.36503 -2.79617 0
M  V30 5245 O 646.106 -7.71806 -0.42951 0
M  V30 5246 C 647.046 -7.67148 0.673689 0
M  V30 5247 C 646.316 -7.33374 1.95559 0
M  V30 5248 O 646.106 -5.88721 2.00726 0
M  V30 5249 C 644.916 -7.92526 2.10483 0
M  V30 5250 O 644.526 -8.02971 3.47653 0
M  V30 5251 C 644.036 -6.89602 1.41652 0
M  V30 5252 C 644.746 -5.59201 1.75185 0
M  V30 5253 N 644.696 -4.58235 0.662552 0
M  V30 5254 H 647.535 -8.65116 0.777161 0
M  V30 5255 H 647.807 -6.90173 0.474152 0
M  V30 5256 H 646.939 -7.66548 2.79458 0
M  V30 5257 P 642.976 -8.03563 3.84925 0
M  V30 5258 O 642.756 -8.85821 5.0569 0
M  V30 5259 O 642.186 -8.41101 2.65469 0
M  V30 5260 O 642.726 -6.4965 4.18908 0
M  V30 5261 C 643.666 -5.81037 5.05421 0
M  V30 5262 C 642.936 -4.78366 5.89277 0
M  V30 5263 O 642.726 -3.58302 5.08433 0
M  V30 5264 C 641.536 -5.17448 6.36119 0
M  V30 5265 O 641.146 -4.45271 7.53232 0
M  V30 5266 C 640.656 -4.74639 5.19936 0
M  V30 5267 C 641.366 -3.49432 4.70418 0
M  V30 5268 N 641.316 -3.31776 3.22945 0
M  V30 5269 H 644.155 -6.54213 5.71376 0
M  V30 5270 H 644.427 -5.30492 4.44033 0
M  V30 5271 H 643.559 -4.55889 6.76652 0
M  V30 5272 P 639.596 -4.23843 7.83734 0
M  V30 5273 O 639.376 -4.19407 9.29784 0
M  V30 5274 O 638.806 -5.24426 7.09156 0
M  V30 5275 O 639.346 -2.7935 7.20758 0
M  V30 5276 C 640.286 -1.7299 7.50419 0
M  V30 5277 C 639.556 -0.406376 7.57911 0
M  V30 5278 O 639.346 0.0897726 6.21935 0
M  V30 5279 C 638.156 -0.447224 8.1878 0
M  V30 5280 O 637.766 0.825065 8.71101 0
M  V30 5281 C 637.276 -0.783801 6.99623 0
M  V30 5282 C 637.986 -0.0619192 5.85967 0
M  V30 5283 N 637.936 -0.790462 4.56202 0
M  V30 5284 H 640.775 -1.93423 8.4679 0
M  V30 5285 H 641.047 -1.68852 6.70877 0
M  V30 5286 H 640.179 0.289041 8.15388 0
M  V30 5287 H 637.524 0.927006 5.72848 0
M  V30 5288 H 637.244 -1.86973 6.82036 0
M  V30 5289 H 636.253 -0.403953 7.13357 0
M  V30 5290 H 638.087 -1.20599 8.97534 0
M  V30 5291 P 636.216 1.17771 8.83182 0
M  V30 5292 O 635.996 2.07206 9.98732 0
M  V30 5293 O 635.426 -0.0743816 8.81969 0
M  V30 5294 O 635.966 1.97652 7.47304 0
M  V30 5295 C 636.906 3.01133 7.08783 0
M  V30 5296 C 636.176 4.12613 6.37049 0
M  V30 5297 O 635.966 3.72827 4.97879 0
M  V30 5298 C 634.776 4.45085 6.88694 0
M  V30 5299 O 634.386 5.7877 6.5624 0
M  V30 5300 C 633.896 3.47817 6.12078 0
M  V30 5301 C 634.606 3.39414 4.77697 0
M  V30 5302 N 634.556 2.04615 4.15333 0
M  V30 5303 H 637.395 3.41248 7.98759 0
M  V30 5304 H 637.667 2.5837 6.41742 0
M  V30 5305 H 636.799 5.02657 6.42673 0
M  V30 5306 P 632.836 6.144 6.45285 0
M  V30 5307 O 632.616 7.54673 6.86199 0
M  V30 5308 O 632.046 5.12391 7.179 0
M  V30 5309 O 632.586 5.99158 4.88404 0
M  V30 5310 C 633.526 6.60234 3.96415 0
M  V30 5311 C 632.796 7.08259 2.72856 0
M  V30 5312 O 632.586 5.9427 1.83651 0
M  V30 5313 C 631.396 7.64886 2.9555 0
M  V30 5314 O 631.006 8.53963 1.90717 0
M  V30 5315 C 630.516 6.4116 2.90739 0
M  V30 5316 C 631.226 5.55375 1.86963 0
M  V30 5317 N 631.176 4.09664 2.15742 0
M  V30 5318 H 634.015 7.45574 4.45629 0
M  V30 5319 H 634.287 5.86232 3.67314 0
M  V30 5320 H 633.419 7.84412 2.24479 0
M  V30 5321 P 629.456 8.7635 1.60911 0
M  V30 5322 O 629.236 10.1388 1.11561 0
M  V30 5323 O 628.666 8.36503 2.79617 0
M  V30 5324 O 629.206 7.71806 0.42951 0
M  V30 5325 C 630.146 7.67148 -0.673689 0
M  V30 5326 C 629.416 7.33374 -1.95559 0
M  V30 5327 O 629.206 5.88721 -2.00726 0
M  V30 5328 C 628.016 7.92526 -2.10483 0
M  V30 5329 O 627.626 8.02971 -3.47653 0
M  V30 5330 C 627.136 6.89602 -1.41652 0
M  V30 5331 C 627.846 5.59201 -1.75185 0
M  V30 5332 N 627.796 4.58235 -0.662552 0
M  V30 5333 H 630.635 8.65116 -0.777161 0
M  V30 5334 H 630.907 6.90173 -0.474152 0
M  V30 5335 H 630.039 7.66548 -2.79458 0
M  V30 5336 P 626.076 8.03563 -3.84925 0
M  V30 5337 O 625.856 8.85821 -5.0569 0
M  V30 5338 O 625.286 8.41101 -2.65469 0
M  V30 5339 O 625.826 6.4965 -4.18908 0
M  V30 5340 C 626.766 5.80886 -5.05289 0
M  V30 5341 C 626.036 4.78366 -5.89277 0
M  V30 5342 O 625.826 3.58302 -5.08433 0
M  V30 5343 C 624.636 5.16748 -6.36559 0
M  V30 5344 O 624.246 4.45271 -7.53232 0
M  V30 5345 C 623.756 4.74572 -5.19863 0
M  V30 5346 C 624.466 3.49373 -4.70338 0
M  V30 5347 N 624.416 3.31704 -3.22876 0
M  V30 5348 C 624.266 2.03326 -2.74871 0
M  V30 5349 O 624.176 1.06486 -3.48076 0
M  V30 5350 N 624.226 1.91838 -1.37456 0
M  V30 5351 C 624.316 2.94295 -0.462035 0
M  V30 5352 O 624.266 2.71763 0.752928 0
M  V30 5353 C 624.466 4.25064 -1.05249 0
M  V30 5354 C 624.576 5.39815 -0.095697 0
M  V30 5355 C 624.516 4.40214 -2.39192 0
M  V30 5356 H 627.257 6.54063 -5.71245 0
M  V30 5357 H 627.526 5.30339 -4.43905 0
M  V30 5358 H 626.659 4.55889 -6.76652 0
M  V30 5359 H 624.004 2.6167 -5.17842 0
M  V30 5360 H 623.725 5.52155 -4.41878 0
M  V30 5361 H 622.733 4.51918 -5.53297 0
M  V30 5362 H 624.567 6.25055 -6.55162 0
M  V30 5363 H 624.638 5.39798 -2.81523 0
M  V30 5364 H 623.608 5.91593 -0.0279582 0
M  V30 5365 H 625.345 6.10038 -0.450573 0
M  V30 5366 H 624.857 5.02007 0.89937 0
M  V30 5367 H 624.121 0.995326 -1.00435 0
M  V30 5368 P 622.696 4.23843 -7.83734 0
M  V30 5369 O 622.476 4.19407 -9.29784 0
M  V30 5370 O 621.906 5.24426 -7.09156 0
M  V30 5371 O 622.446 2.7935 -7.20758 0
M  V30 5372 C 623.386 1.7299 -7.50419 0
M  V30 5373 C 622.656 0.406376 -7.57911 0
M  V30 5374 O 622.446 -0.0897726 -6.21935 0
M  V30 5375 C 621.256 0.447224 -8.1878 0
M  V30 5376 O 620.866 -0.825065 -8.71101 0
M  V30 5377 C 620.376 0.783801 -6.99623 0
M  V30 5378 C 621.086 0.0619192 -5.85967 0
M  V30 5379 N 621.036 0.790462 -4.56202 0
M  V30 5380 H 623.875 1.93423 -8.4679 0
M  V30 5381 H 624.147 1.68852 -6.70877 0
M  V30 5382 H 623.279 -0.289041 -8.15388 0
M  V30 5383 H 620.624 -0.927006 -5.72848 0
M  V30 5384 H 620.344 1.86973 -6.82036 0
M  V30 5385 H 619.353 0.403953 -7.13357 0
M  V30 5386 H 621.187 1.20599 -8.97534 0
M  V30 5387 P 619.316 -1.17771 -8.83182 0
M  V30 5388 O 619.096 -2.07206 -9.98732 0
M  V30 5389 O 618.526 0.0743816 -8.81969 0
M  V30 5390 O 619.066 -1.97652 -7.47304 0
M  V30 5391 C 620.006 -3.01133 -7.08783 0
M  V30 5392 C 619.276 -4.12613 -6.37049 0
M  V30 5393 O 619.066 -3.72827 -4.97879 0
M  V30 5394 C 617.876 -4.45085 -6.88694 0
M  V30 5395 O 617.486 -5.7877 -6.5624 0
M  V30 5396 C 616.996 -3.47817 -6.12078 0
M  V30 5397 C 617.706 -3.39414 -4.77697 0
M  V30 5398 N 617.656 -2.04615 -4.15333 0
M  V30 5399 H 620.495 -3.41248 -7.98759 0
M  V30 5400 H 620.767 -2.5837 -6.41742 0
M  V30 5401 H 619.899 -5.02657 -6.42673 0
M  V30 5402 P 615.936 -6.144 -6.45285 0
M  V30 5403 O 615.716 -7.54673 -6.86199 0
M  V30 5404 O 615.146 -5.12391 -7.179 0
M  V30 5405 O 615.686 -5.99158 -4.88404 0
M  V30 5406 C 616.626 -6.60234 -3.96415 0
M  V30 5407 C 615.896 -7.08259 -2.72856 0
M  V30 5408 O 615.686 -5.9427 -1.83651 0
M  V30 5409 C 614.496 -7.64886 -2.9555 0
M  V30 5410 O 614.106 -8.53963 -1.90717 0
M  V30 5411 C 613.616 -6.4116 -2.90739 0
M  V30 5412 C 614.326 -5.55375 -1.86963 0
M  V30 5413 N 614.276 -4.09664 -2.15742 0
M  V30 5414 H 617.115 -7.45574 -4.45629 0
M  V30 5415 H 617.387 -5.86232 -3.67314 0
M  V30 5416 H 616.519 -7.84412 -2.24479 0
M  V30 5417 P 612.556 -8.7635 -1.60911 0
M  V30 5418 O 612.336 -10.1388 -1.11561 0
M  V30 5419 O 611.766 -8.36503 -2.79617 0
M  V30 5420 O 612.306 -7.71806 -0.42951 0
M  V30 5421 C 613.246 -7.67148 0.673689 0
M  V30 5422 C 612.516 -7.33374 1.95559 0
M  V30 5423 O 612.306 -5.88721 2.00726 0
M  V30 5424 C 611.116 -7.92526 2.10483 0
M  V30 5425 O 610.726 -8.02971 3.47653 0
M  V30 5426 C 610.236 -6.89602 1.41652 0
M  V30 5427 C 610.946 -5.59201 1.75185 0
M  V30 5428 N 610.896 -4.58235 0.662552 0
M  V30 5429 H 613.735 -8.65116 0.777161 0
M  V30 5430 H 614.007 -6.90173 0.474152 0
M  V30 5431 H 613.139 -7.66548 2.79458 0
M  V30 5432 P 609.176 -8.03563 3.84925 0
M  V30 5433 O 608.956 -8.85821 5.0569 0
M  V30 5434 O 608.386 -8.41101 2.65469 0
M  V30 5435 O 608.926 -6.4965 4.18908 0
M  V30 5436 C 609.866 -5.81037 5.05421 0
M  V30 5437 C 609.136 -4.78366 5.89277 0
M  V30 5438 O 608.926 -3.58302 5.08433 0
M  V30 5439 C 607.736 -5.17448 6.36119 0
M  V30 5440 O 607.346 -4.45271 7.53232 0
M  V30 5441 C 606.856 -4.74639 5.19936 0
M  V30 5442 C 607.566 -3.49432 4.70418 0
M  V30 5443 N 607.516 -3.31776 3.22945 0
M  V30 5444 H 610.355 -6.54213 5.71376 0
M  V30 5445 H 610.627 -5.30492 4.44033 0
M  V30 5446 H 609.759 -4.55889 6.76652 0
M  V30 5447 P 605.796 -4.23843 7.83734 0
M  V30 5448 O 605.576 -4.19407 9.29784 0
M  V30 5449 O 605.006 -5.24426 7.09156 0
M  V30 5450 O 605.546 -2.7935 7.20758 0
M  V30 5451 C 606.486 -1.72945 7.50224 0
M  V30 5452 C 605.756 -0.406376 7.57911 0
M  V30 5453 O 605.546 0.0897726 6.21935 0
M  V30 5454 C 604.356 -0.438983 8.18724 0
M  V30 5455 O 603.966 0.825065 8.71101 0
M  V30 5456 C 603.476 -0.783689 6.99524 0
M  V30 5457 C 604.186 -0.0619086 5.85867 0
M  V30 5458 N 604.136 -0.78573 4.56183 0
M  V30 5459 C 603.986 -0.0292889 3.41887 0
M  V30 5460 O 603.896 1.18445 3.4419 0
M  V30 5461 N 603.946 -0.744061 2.23964 0
M  V30 5462 C 604.036 -2.10932 2.10362 0
M  V30 5463 C 604.186 -2.8202 3.34994 0
M  V30 5464 C 604.236 -2.15547 4.52261 0
M  V30 5465 H 606.977 -1.93379 8.46595 0
M  V30 5466 H 607.246 -1.68132 6.70852 0
M  V30 5467 H 606.379 0.289041 8.15388 0
M  V30 5468 H 603.724 0.926847 5.72749 0
M  V30 5469 H 603.445 -1.86973 6.82036 0
M  V30 5470 H 602.453 -0.403896 7.13257 0
M  V30 5471 H 604.287 -1.20585 8.97435 0
M  V30 5472 H 604.358 -2.71231 5.45042 0
M  V30 5473 P 602.416 1.17771 8.83182 0
M  V30 5474 O 602.196 2.07206 9.98732 0
M  V30 5475 O 601.626 -0.0743816 8.81969 0
M  V30 5476 O 602.166 1.97652 7.47304 0
M  V30 5477 C 603.106 3.01133 7.08783 0
M  V30 5478 C 602.376 4.12613 6.37049 0
M  V30 5479 O 602.166 3.72827 4.97879 0
M  V30 5480 C 600.976 4.45085 6.88694 0
M  V30 5481 O 600.586 5.7877 6.5624 0
M  V30 5482 C 600.096 3.47817 6.12078 0
M  V30 5483 C 600.806 3.39414 4.77697 0
M  V30 5484 N 600.756 2.04615 4.15333 0
M  V30 5485 H 603.595 3.41248 7.98759 0
M  V30 5486 H 603.867 2.5837 6.41742 0
M  V30 5487 H 602.999 5.02657 6.42673 0
M  V30 5488 P 599.036 6.144 6.45285 0
M  V30 5489 O 598.816 7.54673 6.86199 0
M  V30 5490 O 598.246 5.12391 7.179 0
M  V30 5491 O 598.786 5.99158 4.88404 0
M  V30 5492 C 599.726 6.60234 3.96415 0
M  V30 5493 C 598.996 7.08259 2.72856 0
M  V30 5494 O 598.786 5.9427 1.83651 0
M  V30 5495 C 597.596 7.64886 2.9555 0
M  V30 5496 O 597.206 8.53963 1.90717 0
M  V30 5497 C 596.716 6.4116 2.90739 0
M  V30 5498 C 597.426 5.55375 1.86963 0
M  V30 5499 N 597.376 4.09448 2.16152 0
M  V30 5500 H 600.215 7.45574 4.45629 0
M  V30 5501 H 600.487 5.85864 3.679 0
M  V30 5502 H 599.619 7.84412 2.24479 0
M  V30 5503 H 596.964 5.73457 0.888562 0
M  V30 5504 H 596.684 5.90877 3.88583 0
M  V30 5505 H 595.693 6.6596 2.58858 0
M  V30 5506 H 597.527 8.16339 3.92049 0
M  V30 5507 P 595.656 8.7635 1.60911 0
M  V30 5508 O 595.437 10.1388 1.11561 0
M  V30 5509 O 594.866 8.36503 2.79617 0
M  V30 5510 O 595.406 7.71806 0.42951 0
M  V30 5511 C 596.346 7.67148 -0.673689 0
M  V30 5512 C 595.616 7.33374 -1.95559 0
M  V30 5513 O 595.406 5.88721 -2.00726 0
M  V30 5514 C 594.216 7.92526 -2.10483 0
M  V30 5515 O 593.827 8.02971 -3.47653 0
M  V30 5516 C 593.337 6.89602 -1.41652 0
M  V30 5517 C 594.046 5.59201 -1.75185 0
M  V30 5518 N 593.996 4.58301 -0.657969 0
M  V30 5519 H 596.836 8.65116 -0.777161 0
M  V30 5520 H 597.107 6.9022 -0.46725 0
M  V30 5521 H 596.24 7.66548 -2.79458 0
M  V30 5522 H 593.584 5.16165 -2.65183 0
M  V30 5523 H 593.304 7.06433 -0.329384 0
M  V30 5524 H 592.313 6.90926 -1.82021 0
M  V30 5525 H 594.147 8.90873 -1.62657 0
M  V30 5526 P 592.277 8.03563 -3.84925 0
M  V30 5527 O 592.057 8.85821 -5.0569 0
M  V30 5528 O 591.487 8.41101 -2.65469 0
M  V30 5529 O 592.027 6.4965 -4.18908 0
M  V30 5530 C 592.967 5.81037 -5.05421 0
M  V30 5531 C 592.237 4.78366 -5.89277 0
M  V30 5532 O 592.027 3.58302 -5.08433 0
M  V30 5533 C 590.837 5.17448 -6.36119 0
M  V30 5534 O 590.447 4.45271 -7.53232 0
M  V30 5535 C 589.957 4.74639 -5.19936 0
M  V30 5536 C 590.667 3.49432 -4.70418 0
M  V30 5537 N 590.617 3.31776 -3.22945 0
M  V30 5538 H 593.456 6.54213 -5.71376 0
M  V30 5539 H 593.728 5.30492 -4.44033 0
M  V30 5540 H 592.86 4.55889 -6.76652 0
M  V30 5541 P 588.897 4.23843 -7.83734 0
M  V30 5542 O 588.677 4.19407 -9.29784 0
M  V30 5543 O 588.107 5.24426 -7.09156 0
M  V30 5544 O 588.647 2.7935 -7.20758 0
M  V30 5545 C 589.587 1.7299 -7.50419 0
M  V30 5546 C 588.857 0.406376 -7.57911 0
M  V30 5547 O 588.647 -0.0897726 -6.21935 0
M  V30 5548 C 587.457 0.447224 -8.1878 0
M  V30 5549 O 587.067 -0.825065 -8.71101 0
M  V30 5550 C 586.577 0.783801 -6.99623 0
M  V30 5551 C 587.287 0.0619192 -5.85967 0
M  V30 5552 N 587.237 0.7859 -4.56281 0
M  V30 5553 H 590.076 1.93423 -8.4679 0
M  V30 5554 H 590.348 1.68181 -6.71046 0
M  V30 5555 H 589.48 -0.289041 -8.15388 0
M  V30 5556 P 585.517 -1.17771 -8.83182 0
M  V30 5557 O 585.297 -2.07206 -9.98732 0
M  V30 5558 O 584.727 0.0743816 -8.81969 0
M  V30 5559 O 585.267 -1.97652 -7.47304 0
M  V30 5560 C 586.207 -3.01055 -7.08599 0
M  V30 5561 C 585.477 -4.12613 -6.37049 0
M  V30 5562 O 585.267 -3.72827 -4.97879 0
M  V30 5563 C 584.077 -4.45719 -6.88164 0
M  V30 5564 O 583.687 -5.7877 -6.5624 0
M  V30 5565 C 583.197 -3.47768 -6.11991 0
M  V30 5566 C 583.907 -3.39356 -4.77615 0
M  V30 5567 N 583.857 -2.04571 -4.15244 0
M  V30 5568 C 583.707 -1.98587 -2.78314 0
M  V30 5569 O 583.617 -2.98134 -2.08835 0
M  V30 5570 N 583.667 -0.714467 -2.24925 0
M  V30 5571 C 583.757 0.470001 -2.94169 0
M  V30 5572 O 583.707 1.55587 -2.35195 0
M  V30 5573 C 583.907 0.312541 -4.36783 0
M  V30 5574 C 584.017 1.57711 -5.16352 0
M  V30 5575 C 583.957 -0.914512 -4.92583 0
M  V30 5576 H 586.698 -3.41169 -7.98575 0
M  V30 5577 H 586.967 -2.58295 -6.41556 0
M  V30 5578 H 586.1 -5.02657 -6.42673 0
M  V30 5579 H 583.445 -4.11637 -4.08885 0
M  V30 5580 H 583.166 -2.49626 -6.61679 0
M  V30 5581 H 582.174 -3.86566 -6.00778 0
M  V30 5582 H 584.008 -4.29943 -7.96918 0
M  V30 5583 H 584.079 -1.00937 -6.00374 0
M  V30 5584 H 583.049 1.80153 -5.63503 0
M  V30 5585 H 584.786 1.4566 -5.94104 0
M  V30 5586 H 584.298 2.40664 -4.49645 0
M  V30 5587 H 583.562 -0.647622 -1.25697 0
M  V30 5588 P 582.137 -6.144 -6.45285 0
M  V30 5589 O 581.917 -7.54673 -6.86199 0
M  V30 5590 O 581.347 -5.12391 -7.179 0
M  V30 5591 O 581.887 -5.99236 -4.88467 0
M  V30 5592 C 582.827 -6.60234 -3.96415 0
M  V30 5593 C 582.097 -7.08079 -2.736 0
M  V30 5594 O 581.887 -5.94365 -1.8368 0
M  V30 5595 C 580.697 -7.64886 -2.9555 0
M  V30 5596 O 580.307 -8.5406 -1.90739 0
M  V30 5597 C 579.817 -6.4116 -2.90739 0
M  V30 5598 C 580.527 -5.55375 -1.86963 0
M  V30 5599 N 580.477 -4.09664 -2.15742 0
M  V30 5600 C 580.327 -3.22231 -1.08477 0
M  V30 5601 O 580.237 -3.68951 0.0600489 0
M  V30 5602 N 580.277 -1.76692 -1.48799 0
M  V30 5603 C 580.377 -1.41695 -2.57602 0
M  V30 5604 N 580.327 -0.107296 -2.75791 0
M  V30 5605 C 580.527 -2.29178 -3.69733 0
M  V30 5606 C 580.577 -3.62753 -3.42653 0
M  V30 5607 H 583.317 -7.45488 -4.45578 0
M  V30 5608 H 583.587 -5.86232 -3.67314 0
M  V30 5609 H 582.72 -7.84508 -2.24507 0
M  V30 5610 H 580.065 -5.73556 -0.888715 0
M  V30 5611 H 579.785 -5.9096 -3.88638 0
M  V30 5612 H 578.794 -6.66053 -2.58894 0
M  V30 5613 H 580.628 -8.16339 -3.92049 0
M  V30 5614 H 580.7 -4.33052 -4.24913 0
M  V30 5615 H 580.598 -1.9103 -4.71577 0
M  V30 5616 H 580.21 0.521221 -1.95056 0
M  V30 5617 H 580.406 0.286429 -3.70695 0
M  V30 5618 P 578.757 -8.7635 -1.60911 0
M  V30 5619 O 578.537 -10.1388 -1.11561 0
M  V30 5620 O 577.967 -8.36503 -2.79617 0
M  V30 5621 O 578.507 -7.71806 -0.42951 0
M  V30 5622 C 579.447 -7.67148 0.673689 0
M  V30 5623 C 578.717 -7.33374 1.95559 0
M  V30 5624 O 578.507 -5.88721 2.00726 0
M  V30 5625 C 577.317 -7.92526 2.10483 0
M  V30 5626 O 576.927 -8.02971 3.47653 0
M  V30 5627 C 576.437 -6.89602 1.41652 0
M  V30 5628 C 577.147 -5.59201 1.75185 0
M  V30 5629 N 577.097 -4.58301 0.657969 0
M  V30 5630 H 579.936 -8.65116 0.777161 0
M  V30 5631 H 580.208 -6.9022 0.46725 0
M  V30 5632 H 579.34 -7.66548 2.79458 0
M  V30 5633 H 576.685 -5.16165 2.65183 0
M  V30 5634 H 576.405 -7.06433 0.329384 0
M  V30 5635 H 575.414 -6.90926 1.82021 0
M  V30 5636 H 577.248 -8.90873 1.62657 0
M  V30 5637 P 575.377 -8.03563 3.84925 0
M  V30 5638 O 575.157 -8.85821 5.0569 0
M  V30 5639 O 574.587 -8.41101 2.65469 0
M  V30 5640 O 575.127 -6.4965 4.18908 0
M  V30 5641 C 576.067 -5.81037 5.05421 0
M  V30 5642 C 575.337 -4.78366 5.89277 0
M  V30 5643 O 575.127 -3.58302 5.08433 0
M  V30 5644 C 573.937 -5.17448 6.36119 0
M  V30 5645 O 573.547 -4.45271 7.53232 0
M  V30 5646 C 573.057 -4.74639 5.19936 0
M  V30 5647 C 573.767 -3.49432 4.70418 0
M  V30 5648 N 573.717 -3.32099 3.22613 0
M  V30 5649 H 576.556 -6.54213 5.71376 0
M  V30 5650 H 576.828 -5.30936 4.43503 0
M  V30 5651 H 575.96 -4.55889 6.76652 0
M  V30 5652 H 573.305 -2.61715 5.17932 0
M  V30 5653 H 573.025 -5.52155 4.41878 0
M  V30 5654 H 572.034 -4.51981 5.53374 0
M  V30 5655 H 573.868 -6.25124 6.55234 0
M  V30 5656 P 571.997 -4.23843 7.83734 0
M  V30 5657 O 571.777 -4.19407 9.29784 0
M  V30 5658 O 571.207 -5.24426 7.09156 0
M  V30 5659 O 571.747 -2.7935 7.20758 0
M  V30 5660 C 572.687 -1.7299 7.50419 0
M  V30 5661 C 571.957 -0.406376 7.57911 0
M  V30 5662 O 571.747 0.0897726 6.21935 0
M  V30 5663 C 570.557 -0.447224 8.1878 0
M  V30 5664 O 570.167 0.825065 8.71101 0
M  V30 5665 C 569.677 -0.783801 6.99623 0
M  V30 5666 C 570.387 -0.0619192 5.85967 0
M  V30 5667 N 570.337 -0.7859 4.56281 0
M  V30 5668 H 573.176 -1.93423 8.4679 0
M  V30 5669 H 573.448 -1.68181 6.71046 0
M  V30 5670 H 572.58 0.289041 8.15388 0
M  V30 5671 P 568.617 1.17771 8.83182 0
M  V30 5672 O 568.397 2.07206 9.98732 0
M  V30 5673 O 567.827 -0.0743816 8.81969 0
M  V30 5674 O 568.367 1.97652 7.47304 0
M  V30 5675 C 569.307 3.01055 7.08599 0
M  V30 5676 C 568.577 4.12613 6.37049 0
M  V30 5677 O 568.367 3.72827 4.97879 0
M  V30 5678 C 567.177 4.45719 6.88164 0
M  V30 5679 O 566.787 5.7877 6.5624 0
M  V30 5680 C 566.297 3.47768 6.11991 0
M  V30 5681 C 567.007 3.39356 4.77615 0
M  V30 5682 N 566.957 2.04571 4.15244 0
M  V30 5683 C 566.807 1.98587 2.78314 0
M  V30 5684 O 566.717 2.98134 2.08835 0
M  V30 5685 N 566.767 0.714467 2.24925 0
M  V30 5686 C 566.857 -0.470001 2.94169 0
M  V30 5687 O 566.807 -1.55587 2.35195 0
M  V30 5688 C 567.007 -0.312541 4.36783 0
M  V30 5689 C 567.117 -1.57711 5.16352 0
M  V30 5690 C 567.057 0.914512 4.92583 0
M  V30 5691 H 569.798 3.41169 7.98575 0
M  V30 5692 H 570.067 2.58295 6.41556 0
M  V30 5693 H 569.2 5.02657 6.42673 0
M  V30 5694 H 566.545 4.11637 4.08885 0
M  V30 5695 H 566.266 2.49626 6.61679 0
M  V30 5696 H 565.274 3.86566 6.00778 0
M  V30 5697 H 567.108 4.29943 7.96918 0
M  V30 5698 H 567.179 1.00937 6.00374 0
M  V30 5699 H 566.149 -1.80153 5.63503 0
M  V30 5700 H 567.886 -1.4566 5.94104 0
M  V30 5701 H 567.398 -2.40664 4.49645 0
M  V30 5702 H 566.662 0.647622 1.25697 0
M  V30 5703 P 565.237 6.144 6.45285 0
M  V30 5704 O 565.017 7.54673 6.86199 0
M  V30 5705 O 564.447 5.12391 7.179 0
M  V30 5706 O 564.987 5.99158 4.88404 0
M  V30 5707 C 565.927 6.60234 3.96415 0
M  V30 5708 C 565.197 7.08259 2.72856 0
M  V30 5709 O 564.987 5.9427 1.83651 0
M  V30 5710 C 563.797 7.64886 2.9555 0
M  V30 5711 O 563.407 8.53963 1.90717 0
M  V30 5712 C 562.917 6.4116 2.90739 0
M  V30 5713 C 563.627 5.55375 1.86963 0
M  V30 5714 N 563.577 4.09664 2.15742 0
M  V30 5715 H 566.416 7.45574 4.45629 0
M  V30 5716 H 566.688 5.86232 3.67314 0
M  V30 5717 H 565.82 7.84412 2.24479 0
M  V30 5718 P 561.857 8.7635 1.60911 0
M  V30 5719 O 561.637 10.1388 1.11561 0
M  V30 5720 O 561.067 8.36503 2.79617 0
M  V30 5721 O 561.607 7.71806 0.42951 0
M  V30 5722 C 562.547 7.67148 -0.673689 0
M  V30 5723 C 561.817 7.33374 -1.95559 0
M  V30 5724 O 561.607 5.88721 -2.00726 0
M  V30 5725 C 560.417 7.92526 -2.10483 0
M  V30 5726 O 560.027 8.02971 -3.47653 0
M  V30 5727 C 559.537 6.89602 -1.41652 0
M  V30 5728 C 560.247 5.59201 -1.75185 0
M  V30 5729 N 560.197 4.58301 -0.657969 0
M  V30 5730 H 563.036 8.65116 -0.777161 0
M  V30 5731 H 563.308 6.9022 -0.46725 0
M  V30 5732 H 562.44 7.66548 -2.79458 0
M  V30 5733 H 559.785 5.16165 -2.65183 0
M  V30 5734 H 559.505 7.06433 -0.329384 0
M  V30 5735 H 558.514 6.90926 -1.82021 0
M  V30 5736 H 560.348 8.90873 -1.62657 0
M  V30 5737 P 558.477 8.03563 -3.84925 0
M  V30 5738 O 558.257 8.85821 -5.0569 0
M  V30 5739 O 557.687 8.41101 -2.65469 0
M  V30 5740 O 558.227 6.49734 -4.18962 0
M  V30 5741 C 559.167 5.81037 -5.05421 0
M  V30 5742 C 558.437 4.79018 -5.88876 0
M  V30 5743 O 558.227 3.58359 -5.08515 0
M  V30 5744 C 557.037 5.17448 -6.36119 0
M  V30 5745 O 556.647 4.45322 -7.53318 0
M  V30 5746 C 556.157 4.74639 -5.19936 0
M  V30 5747 C 556.867 3.49432 -4.70418 0
M  V30 5748 N 556.817 3.31776 -3.22945 0
M  V30 5749 C 556.667 2.02742 -2.72939 0
M  V30 5750 O 556.577 1.08301 -3.52749 0
M  V30 5751 N 556.617 1.96117 -1.22063 0
M  V30 5752 C 556.717 2.8878 -0.551566 0
M  V30 5753 N 556.667 2.65609 0.750198 0
M  V30 5754 C 556.867 4.22457 -1.03707 0
M  V30 5755 C 556.917 4.37979 -2.39113 0
M  V30 5756 H 559.657 6.54138 -5.7131 0
M  V30 5757 H 559.927 5.30492 -4.44033 0
M  V30 5758 H 559.06 4.55945 -6.76735 0
M  V30 5759 H 556.405 2.6176 -5.18021 0
M  V30 5760 H 556.125 5.52233 -4.41941 0
M  V30 5761 H 555.134 4.52045 -5.53452 0
M  V30 5762 H 556.968 6.25124 -6.55234 0
M  V30 5763 H 557.04 5.37936 -2.80552 0
M  V30 5764 H 556.938 5.07528 -0.359553 0
M  V30 5765 H 556.55 1.69403 1.09847 0
M  V30 5766 H 556.746 3.43701 1.41792 0
M  V30 5767 P 555.097 4.23843 -7.83734 0
M  V30 5768 O 554.877 4.19407 -9.29784 0
M  V30 5769 O 554.307 5.24426 -7.09156 0
M  V30 5770 O 554.847 2.7935 -7.20758 0
M  V30 5771 C 555.787 1.7299 -7.50419 0
M  V30 5772 C 555.057 0.406376 -7.57911 0
M  V30 5773 O 554.847 -0.0897726 -6.21935 0
M  V30 5774 C 553.657 0.447224 -8.1878 0
M  V30 5775 O 553.267 -0.825065 -8.71101 0
M  V30 5776 C 552.777 0.783801 -6.99623 0
M  V30 5777 C 553.487 0.0619192 -5.85967 0
M  V30 5778 N 553.437 0.7859 -4.56281 0
M  V30 5779 H 556.276 1.93423 -8.4679 0
M  V30 5780 H 556.548 1.68181 -6.71046 0
M  V30 5781 H 555.68 -0.289041 -8.15388 0
M  V30 5782 P 551.717 -1.17771 -8.83182 0
M  V30 5783 O 551.497 -2.07206 -9.98732 0
M  V30 5784 O 550.927 0.0743816 -8.81969 0
M  V30 5785 O 551.467 -1.97652 -7.47304 0
M  V30 5786 C 552.407 -3.01133 -7.08783 0
M  V30 5787 C 551.677 -4.12613 -6.37049 0
M  V30 5788 O 551.467 -3.72827 -4.97879 0
M  V30 5789 C 550.277 -4.45085 -6.88694 0
M  V30 5790 O 549.887 -5.7877 -6.5624 0
M  V30 5791 C 549.397 -3.47817 -6.12078 0
M  V30 5792 C 550.107 -3.39414 -4.77697 0
M  V30 5793 N 550.057 -2.04615 -4.15333 0
M  V30 5794 H 552.896 -3.41248 -7.98759 0
M  V30 5795 H 553.168 -2.5837 -6.41742 0
M  V30 5796 H 552.3 -5.02657 -6.42673 0
M  V30 5797 P 548.337 -6.144 -6.45285 0
M  V30 5798 O 548.117 -7.54673 -6.86199 0
M  V30 5799 O 547.547 -5.12391 -7.179 0
M  V30 5800 O 548.087 -5.99158 -4.88404 0
M  V30 5801 C 549.027 -6.60234 -3.96415 0
M  V30 5802 C 548.297 -7.08259 -2.72856 0
M  V30 5803 O 548.087 -5.9427 -1.83651 0
M  V30 5804 C 546.897 -7.64886 -2.9555 0
M  V30 5805 O 546.507 -8.53963 -1.90717 0
M  V30 5806 C 546.017 -6.4116 -2.90739 0
M  V30 5807 C 546.727 -5.55375 -1.86963 0
M  V30 5808 N 546.677 -4.09664 -2.15742 0
M  V30 5809 H 549.516 -7.45574 -4.45629 0
M  V30 5810 H 549.788 -5.86232 -3.67314 0
M  V30 5811 H 548.92 -7.84412 -2.24479 0
M  V30 5812 P 544.957 -8.7635 -1.60911 0
M  V30 5813 O 544.737 -10.1388 -1.11561 0
M  V30 5814 O 544.167 -8.36503 -2.79617 0
M  V30 5815 O 544.707 -7.71806 -0.42951 0
M  V30 5816 C 545.647 -7.67148 0.673689 0
M  V30 5817 C 544.917 -7.33374 1.95559 0
M  V30 5818 O 544.707 -5.88721 2.00726 0
M  V30 5819 C 543.517 -7.92526 2.10483 0
M  V30 5820 O 543.127 -8.02971 3.47653 0
M  V30 5821 C 542.637 -6.89602 1.41652 0
M  V30 5822 C 543.347 -5.59201 1.75185 0
M  V30 5823 N 543.297 -4.58235 0.662552 0
M  V30 5824 H 546.136 -8.65116 0.777161 0
M  V30 5825 H 546.408 -6.90173 0.474152 0
M  V30 5826 H 545.54 -7.66548 2.79458 0
M  V30 5827 P 541.577 -8.03563 3.84925 0
M  V30 5828 O 541.357 -8.85821 5.0569 0
M  V30 5829 O 540.787 -8.41101 2.65469 0
M  V30 5830 O 541.327 -6.4965 4.18908 0
M  V30 5831 C 542.267 -5.81037 5.05421 0
M  V30 5832 C 541.537 -4.78366 5.89277 0
M  V30 5833 O 541.327 -3.58302 5.08433 0
M  V30 5834 C 540.137 -5.17448 6.36119 0
M  V30 5835 O 539.747 -4.45271 7.53232 0
M  V30 5836 C 539.257 -4.74639 5.19936 0
M  V30 5837 C 539.967 -3.49432 4.70418 0
M  V30 5838 N 539.917 -3.31776 3.22945 0
M  V30 5839 H 542.756 -6.54213 5.71376 0
M  V30 5840 H 543.028 -5.30492 4.44033 0
M  V30 5841 H 542.16 -4.55889 6.76652 0
M  V30 5842 P 538.197 -4.23843 7.83734 0
M  V30 5843 O 537.977 -4.19407 9.29784 0
M  V30 5844 O 537.407 -5.24426 7.09156 0
M  V30 5845 O 537.947 -2.7935 7.20758 0
M  V30 5846 C 538.887 -1.7299 7.50419 0
M  V30 5847 C 538.157 -0.406376 7.57911 0
M  V30 5848 O 537.947 0.0897726 6.21935 0
M  V30 5849 C 536.757 -0.447224 8.1878 0
M  V30 5850 O 536.367 0.825065 8.71101 0
M  V30 5851 C 535.877 -0.783801 6.99623 0
M  V30 5852 C 536.587 -0.0619192 5.85967 0
M  V30 5853 N 536.537 -0.7859 4.56281 0
M  V30 5854 H 539.376 -1.93423 8.4679 0
M  V30 5855 H 539.648 -1.68181 6.71046 0
M  V30 5856 H 538.78 0.289041 8.15388 0
M  V30 5857 P 534.817 1.17771 8.83182 0
M  V30 5858 O 534.597 2.07206 9.98732 0
M  V30 5859 O 534.027 -0.0743816 8.81969 0
M  V30 5860 O 534.567 1.97678 7.474 0
M  V30 5861 C 535.507 3.01133 7.08783 0
M  V30 5862 C 534.777 4.1203 6.37546 0
M  V30 5863 O 534.567 3.72887 4.9796 0
M  V30 5864 C 533.377 4.45085 6.88694 0
M  V30 5865 O 532.987 5.78836 6.56315 0
M  V30 5866 C 532.497 3.47817 6.12078 0
M  V30 5867 C 533.207 3.39414 4.77697 0
M  V30 5868 N 533.157 2.04615 4.15333 0
M  V30 5869 C 533.007 1.96929 2.77162 0
M  V30 5870 O 532.917 3.02017 2.12006 0
M  V30 5871 N 532.957 0.55485 2.24237 0
M  V30 5872 C 533.057 -0.367808 2.9169 0
M  V30 5873 N 533.007 -1.53426 2.29427 0
M  V30 5874 C 533.207 -0.319148 4.33828 0
M  V30 5875 C 533.257 0.920672 4.90433 0
M  V30 5876 H 535.997 3.41209 7.98667 0
M  V30 5877 H 536.267 2.5837 6.41742 0
M  V30 5878 H 535.4 5.02718 6.42752 0
M  V30 5879 H 532.745 4.11779 4.09026 0
M  V30 5880 H 532.465 2.49661 6.61772 0
M  V30 5881 H 531.474 3.86674 6.00946 0
M  V30 5882 H 533.308 4.29991 7.97006 0
M  V30 5883 H 533.38 1.00589 5.98303 0
M  V30 5884 H 533.278 -1.22639 4.93799 0
M  V30 5885 H 532.89 -1.56819 1.27167 0
M  V30 5886 H 533.086 -2.41062 2.83063 0
M  V30 5887 P 531.437 6.144 6.45285 0
M  V30 5888 O 531.217 7.54673 6.86199 0
M  V30 5889 O 530.647 5.12391 7.179 0
M  V30 5890 O 531.187 5.99158 4.88404 0
M  V30 5891 C 532.127 6.60234 3.96415 0
M  V30 5892 C 531.397 7.08259 2.72856 0
M  V30 5893 O 531.187 5.9427 1.83651 0
M  V30 5894 C 529.997 7.64886 2.9555 0
M  V30 5895 O 529.607 8.53963 1.90717 0
M  V30 5896 C 529.117 6.4116 2.90739 0
M  V30 5897 C 529.827 5.55375 1.86963 0
M  V30 5898 N 529.777 4.09664 2.15742 0
M  V30 5899 H 532.616 7.45574 4.45629 0
M  V30 5900 H 532.888 5.86232 3.67314 0
M  V30 5901 H 532.02 7.84412 2.24479 0
M  V30 5902 P 528.057 8.7635 1.60911 0
M  V30 5903 O 527.837 10.1388 1.11561 0
M  V30 5904 O 527.267 8.36503 2.79617 0
M  V30 5905 O 527.807 7.71806 0.42951 0
M  V30 5906 C 528.747 7.66948 -0.673514 0
M  V30 5907 C 528.017 7.33374 -1.95559 0
M  V30 5908 O 527.807 5.88721 -2.00726 0
M  V30 5909 C 526.617 7.92218 -2.1125 0
M  V30 5910 O 526.227 8.02971 -3.47653 0
M  V30 5911 C 525.737 6.89504 -1.41631 0
M  V30 5912 C 526.447 5.59106 -1.75155 0
M  V30 5913 N 526.397 4.58136 -0.662409 0
M  V30 5914 C 526.247 3.26059 -1.02863 0
M  V30 5915 O 526.157 2.90743 -2.19009 0
M  V30 5916 N 526.207 2.35995 0.0155585 0
M  V30 5917 C 526.297 2.65248 1.35603 0
M  V30 5918 C 526.447 4.05747 1.64698 0
M  V30 5919 C 526.497 4.96734 0.652411 0
M  V30 5920 H 529.238 8.64917 -0.776982 0
M  V30 5921 H 529.507 6.89974 -0.474015 0
M  V30 5922 H 528.64 7.66548 -2.79458 0
M  V30 5923 H 525.985 5.16076 -2.65138 0
M  V30 5924 H 525.706 7.06433 -0.329384 0
M  V30 5925 H 524.714 6.90829 -1.81996 0
M  V30 5926 H 526.548 8.90774 -1.62639 0
M  V30 5927 H 526.619 6.02181 0.895285 0
M  V30 5928 P 524.677 8.03563 -3.84925 0
M  V30 5929 O 524.457 8.85821 -5.0569 0
M  V30 5930 O 523.887 8.41101 -2.65469 0
M  V30 5931 O 524.427 6.4965 -4.18908 0
M  V30 5932 C 525.367 5.81037 -5.05421 0
M  V30 5933 C 524.637 4.78366 -5.89277 0
M  V30 5934 O 524.427 3.58302 -5.08433 0
M  V30 5935 C 523.237 5.17448 -6.36119 0
M  V30 5936 O 522.847 4.45271 -7.53232 0
M  V30 5937 C 522.357 4.74639 -5.19936 0
M  V30 5938 C 523.067 3.49432 -4.70418 0
M  V30 5939 N 523.017 3.31776 -3.22945 0
M  V30 5940 H 525.856 6.54213 -5.71376 0
M  V30 5941 H 526.128 5.30492 -4.44033 0
M  V30 5942 H 525.26 4.55889 -6.76652 0
M  V30 5943 P 521.297 4.23843 -7.83734 0
M  V30 5944 O 521.077 4.19407 -9.29784 0
M  V30 5945 O 520.507 5.24426 -7.09156 0
M  V30 5946 O 521.047 2.7935 -7.20758 0
M  V30 5947 C 521.987 1.7299 -7.50419 0
M  V30 5948 C 521.257 0.406376 -7.57911 0
M  V30 5949 O 521.047 -0.0897726 -6.21935 0
M  V30 5950 C 519.857 0.447224 -8.1878 0
M  V30 5951 O 519.467 -0.825065 -8.71101 0
M  V30 5952 C 518.977 0.783801 -6.99623 0
M  V30 5953 C 519.687 0.0619192 -5.85967 0
M  V30 5954 N 519.637 0.7859 -4.56281 0
M  V30 5955 H 522.476 1.93423 -8.4679 0
M  V30 5956 H 522.748 1.68181 -6.71046 0
M  V30 5957 H 521.88 -0.289041 -8.15388 0
M  V30 5958 P 517.917 -1.17771 -8.83182 0
M  V30 5959 O 517.697 -2.07206 -9.98732 0
M  V30 5960 O 517.127 0.0743816 -8.81969 0
M  V30 5961 O 517.667 -1.97652 -7.47304 0
M  V30 5962 C 518.607 -3.01133 -7.08783 0
M  V30 5963 C 517.877 -4.12613 -6.37049 0
M  V30 5964 O 517.667 -3.72827 -4.97879 0
M  V30 5965 C 516.477 -4.45085 -6.88694 0
M  V30 5966 O 516.087 -5.7877 -6.5624 0
M  V30 5967 C 515.597 -3.47817 -6.12078 0
M  V30 5968 C 516.307 -3.39414 -4.77697 0
M  V30 5969 N 516.257 -2.04615 -4.15333 0
M  V30 5970 H 519.096 -3.41248 -7.98759 0
M  V30 5971 H 519.368 -2.5837 -6.41742 0
M  V30 5972 H 518.5 -5.02657 -6.42673 0
M  V30 5973 P 514.537 -6.144 -6.45285 0
M  V30 5974 O 514.317 -7.54673 -6.86199 0
M  V30 5975 O 513.747 -5.12391 -7.179 0
M  V30 5976 O 514.287 -5.99158 -4.88404 0
M  V30 5977 C 515.227 -6.60234 -3.96415 0
M  V30 5978 C 514.497 -7.08259 -2.72856 0
M  V30 5979 O 514.287 -5.9427 -1.83651 0
M  V30 5980 C 513.097 -7.64886 -2.9555 0
M  V30 5981 O 512.707 -8.53963 -1.90717 0
M  V30 5982 C 512.217 -6.4116 -2.90739 0
M  V30 5983 C 512.927 -5.55375 -1.86963 0
M  V30 5984 N 512.877 -4.09664 -2.15742 0
M  V30 5985 H 515.716 -7.45574 -4.45629 0
M  V30 5986 H 515.988 -5.86232 -3.67314 0
M  V30 5987 H 515.12 -7.84412 -2.24479 0
M  V30 5988 P 511.157 -8.7635 -1.60911 0
M  V30 5989 O 510.937 -10.1388 -1.11561 0
M  V30 5990 O 510.367 -8.36503 -2.79617 0
M  V30 5991 O 510.907 -7.71806 -0.42951 0
M  V30 5992 C 511.847 -7.67148 0.673689 0
M  V30 5993 C 511.117 -7.33374 1.95559 0
M  V30 5994 O 510.907 -5.88721 2.00726 0
M  V30 5995 C 509.717 -7.92526 2.10483 0
M  V30 5996 O 509.327 -8.02971 3.47653 0
M  V30 5997 C 508.837 -6.89602 1.41652 0
M  V30 5998 C 509.547 -5.59201 1.75185 0
M  V30 5999 N 509.497 -4.58235 0.662552 0
M  V30 6000 H 512.336 -8.65116 0.777161 0
M  V30 6001 H 512.608 -6.90173 0.474152 0
M  V30 6002 H 511.74 -7.66548 2.79458 0
M  V30 6003 P 507.777 -8.03563 3.84925 0
M  V30 6004 O 507.557 -8.85821 5.0569 0
M  V30 6005 O 506.987 -8.41101 2.65469 0
M  V30 6006 O 507.527 -6.4965 4.18908 0
M  V30 6007 C 508.467 -5.81037 5.05421 0
M  V30 6008 C 507.737 -4.78366 5.89277 0
M  V30 6009 O 507.527 -3.58302 5.08433 0
M  V30 6010 C 506.337 -5.17448 6.36119 0
M  V30 6011 O 505.947 -4.45271 7.53232 0
M  V30 6012 C 505.457 -4.74639 5.19936 0
M  V30 6013 C 506.167 -3.49432 4.70418 0
M  V30 6014 N 506.117 -3.32099 3.22613 0
M  V30 6015 H 508.956 -6.54213 5.71376 0
M  V30 6016 H 509.228 -5.30936 4.43503 0
M  V30 6017 H 508.36 -4.55889 6.76652 0
M  V30 6018 H 505.705 -2.61715 5.17932 0
M  V30 6019 H 505.425 -5.52155 4.41878 0
M  V30 6020 H 504.434 -4.51981 5.53374 0
M  V30 6021 H 506.268 -6.25124 6.55234 0
M  V30 6022 P 504.397 -4.23843 7.83734 0
M  V30 6023 O 504.177 -4.19407 9.29784 0
M  V30 6024 O 503.607 -5.24426 7.09156 0
M  V30 6025 O 504.147 -2.7935 7.20758 0
M  V30 6026 C 505.087 -1.7299 7.50419 0
M  V30 6027 C 504.357 -0.406376 7.57911 0
M  V30 6028 O 504.147 0.0897726 6.21935 0
M  V30 6029 C 502.957 -0.447224 8.1878 0
M  V30 6030 O 502.567 0.825065 8.71101 0
M  V30 6031 C 502.077 -0.783801 6.99623 0
M  V30 6032 C 502.787 -0.0619192 5.85967 0
M  V30 6033 N 502.737 -0.7859 4.56281 0
M  V30 6034 H 505.576 -1.93423 8.4679 0
M  V30 6035 H 505.848 -1.68181 6.71046 0
M  V30 6036 H 504.98 0.289041 8.15388 0
M  V30 6037 P 501.017 1.17771 8.83182 0
M  V30 6038 O 500.797 2.07206 9.98732 0
M  V30 6039 O 500.227 -0.0743816 8.81969 0
M  V30 6040 O 500.767 1.97652 7.47304 0
M  V30 6041 C 501.707 3.01133 7.08783 0
M  V30 6042 C 500.977 4.12613 6.37049 0
M  V30 6043 O 500.767 3.72827 4.97879 0
M  V30 6044 C 499.577 4.45085 6.88694 0
M  V30 6045 O 499.187 5.7877 6.5624 0
M  V30 6046 C 498.697 3.47817 6.12078 0
M  V30 6047 C 499.407 3.39414 4.77697 0
M  V30 6048 N 499.357 2.04615 4.15333 0
M  V30 6049 H 502.196 3.41248 7.98759 0
M  V30 6050 H 502.468 2.5837 6.41742 0
M  V30 6051 H 501.6 5.02657 6.42673 0
M  V30 6052 P 497.637 6.144 6.45285 0
M  V30 6053 O 497.417 7.54673 6.86199 0
M  V30 6054 O 496.847 5.12391 7.179 0
M  V30 6055 O 497.387 5.99158 4.88404 0
M  V30 6056 C 498.327 6.60234 3.96415 0
M  V30 6057 C 497.597 7.08259 2.72856 0
M  V30 6058 O 497.387 5.9427 1.83651 0
M  V30 6059 C 496.197 7.64886 2.9555 0
M  V30 6060 O 495.807 8.53963 1.90717 0
M  V30 6061 C 495.317 6.4116 2.90739 0
M  V30 6062 C 496.027 5.55375 1.86963 0
M  V30 6063 N 495.977 4.09448 2.16152 0
M  V30 6064 H 498.816 7.45574 4.45629 0
M  V30 6065 H 499.088 5.85864 3.679 0
M  V30 6066 H 498.22 7.84412 2.24479 0
M  V30 6067 H 495.565 5.73457 0.888562 0
M  V30 6068 H 495.285 5.90877 3.88583 0
M  V30 6069 H 494.294 6.6596 2.58858 0
M  V30 6070 H 496.128 8.16339 3.92049 0
M  V30 6071 P 494.257 8.7635 1.60911 0
M  V30 6072 O 494.037 10.1388 1.11561 0
M  V30 6073 O 493.467 8.36503 2.79617 0
M  V30 6074 O 494.007 7.71806 0.42951 0
M  V30 6075 C 494.947 7.67148 -0.673689 0
M  V30 6076 C 494.217 7.33374 -1.95559 0
M  V30 6077 O 494.007 5.88721 -2.00726 0
M  V30 6078 C 492.817 7.92526 -2.10483 0
M  V30 6079 O 492.427 8.02971 -3.47653 0
M  V30 6080 C 491.937 6.89602 -1.41652 0
M  V30 6081 C 492.647 5.59201 -1.75185 0
M  V30 6082 N 492.597 4.58301 -0.657969 0
M  V30 6083 H 495.436 8.65116 -0.777161 0
M  V30 6084 H 495.708 6.9022 -0.46725 0
M  V30 6085 H 494.84 7.66548 -2.79458 0
M  V30 6086 H 492.185 5.16165 -2.65183 0
M  V30 6087 H 491.905 7.06433 -0.329384 0
M  V30 6088 H 490.914 6.90926 -1.82021 0
M  V30 6089 H 492.748 8.90873 -1.62657 0
M  V30 6090 P 490.877 8.03563 -3.84925 0
M  V30 6091 O 490.657 8.85821 -5.0569 0
M  V30 6092 O 490.087 8.41101 -2.65469 0
M  V30 6093 O 490.627 6.4965 -4.18908 0
M  V30 6094 C 491.567 5.81037 -5.05421 0
M  V30 6095 C 490.837 4.78366 -5.89277 0
M  V30 6096 O 490.627 3.58302 -5.08433 0
M  V30 6097 C 489.437 5.17448 -6.36119 0
M  V30 6098 O 489.047 4.45271 -7.53232 0
M  V30 6099 C 488.557 4.74639 -5.19936 0
M  V30 6100 C 489.267 3.49432 -4.70418 0
M  V30 6101 N 489.217 3.32099 -3.22613 0
M  V30 6102 C 489.297 4.28245 -2.25527 0
M  V30 6103 N 489.227 3.80823 -1.04874 0
M  V30 6104 C 489.077 2.44571 -1.23535 0
M  V30 6105 C 488.947 1.37068 -0.330675 0
M  V30 6106 N 488.937 1.51472 0.990824 0
M  V30 6107 N 488.827 0.138614 -0.848756 0
M  V30 6108 C 488.837 -0.00675923 -2.16999 0
M  V30 6109 N 488.957 0.904372 -3.11122 0
M  V30 6110 C 489.077 2.12707 -2.56212 0
M  V30 6111 H 492.056 6.54213 -5.71376 0
M  V30 6112 H 492.328 5.30936 -4.43503 0
M  V30 6113 H 491.46 4.55889 -6.76652 0
M  V30 6114 H 488.805 2.61715 -5.17932 0
M  V30 6115 H 488.525 5.52155 -4.41878 0
M  V30 6116 H 487.534 4.51981 -5.53374 0
M  V30 6117 H 489.368 6.25124 -6.55234 0
M  V30 6118 H 489.409 5.34372 -2.47488 0
M  V30 6119 H 489.028 2.45153 1.4078 0
M  V30 6120 H 488.839 0.688422 1.59911 0
M  V30 6121 H 488.731 -1.02584 -2.52346 0
M  V30 6122 P 487.497 4.23843 -7.83734 0
M  V30 6123 O 487.277 4.19407 -9.29784 0
M  V30 6124 O 486.707 5.24426 -7.09156 0
M  V30 6125 O 487.247 2.7935 -7.20758 0
M  V30 6126 C 488.187 1.7299 -7.50419 0
M  V30 6127 C 487.457 0.406376 -7.57911 0
M  V30 6128 O 487.247 -0.0897726 -6.21935 0
M  V30 6129 C 486.057 0.447224 -8.1878 0
M  V30 6130 O 485.667 -0.825065 -8.71101 0
M  V30 6131 C 485.177 0.783801 -6.99623 0
M  V30 6132 C 485.887 0.0619192 -5.85967 0
M  V30 6133 N 485.837 0.7859 -4.56281 0
M  V30 6134 H 488.676 1.93423 -8.4679 0
M  V30 6135 H 488.948 1.68181 -6.71046 0
M  V30 6136 H 488.08 -0.289041 -8.15388 0
M  V30 6137 P 484.117 -1.17771 -8.83182 0
M  V30 6138 O 483.897 -2.07206 -9.98732 0
M  V30 6139 O 483.327 0.0743816 -8.81969 0
M  V30 6140 O 483.867 -1.97652 -7.47304 0
M  V30 6141 C 484.807 -3.01133 -7.08783 0
M  V30 6142 C 484.077 -4.12613 -6.37049 0
M  V30 6143 O 483.867 -3.72827 -4.97879 0
M  V30 6144 C 482.677 -4.45085 -6.88694 0
M  V30 6145 O 482.287 -5.7877 -6.5624 0
M  V30 6146 C 481.797 -3.47817 -6.12078 0
M  V30 6147 C 482.507 -3.39414 -4.77697 0
M  V30 6148 N 482.457 -2.04199 -4.15538 0
M  V30 6149 C 482.537 -0.821545 -4.76977 0
M  V30 6150 N 482.467 0.1794 -3.94592 0
M  V30 6151 C 482.317 -0.419121 -2.70776 0
M  V30 6152 C 482.187 0.109072 -1.40577 0
M  V30 6153 N 482.177 1.4104 -1.1344 0
M  V30 6154 N 482.067 -0.764381 -0.39411 0
M  V30 6155 C 482.077 -2.06587 -0.664135 0
M  V30 6156 N 482.197 -2.67948 -1.82153 0
M  V30 6157 C 482.317 -1.77942 -2.8147 0
M  V30 6158 H 485.296 -3.41248 -7.98759 0
M  V30 6159 H 485.568 -2.57728 -6.42 0
M  V30 6160 H 484.7 -5.02657 -6.42673 0
M  V30 6161 H 482.045 -4.11708 -4.08956 0
M  V30 6162 H 481.765 -2.49626 -6.61679 0
M  V30 6163 H 480.774 -3.8662 -6.00862 0
M  V30 6164 H 482.608 -4.29991 -7.97006 0
M  V30 6165 H 482.649 -0.702451 -5.84696 0
M  V30 6166 H 482.268 2.09647 -1.89651 0
M  V30 6167 H 482.079 1.73358 -0.160575 0
M  V30 6168 H 481.971 -2.71695 0.195838 0
M  V30 6169 P 480.737 -6.144 -6.45285 0
M  V30 6170 O 480.517 -7.54673 -6.86199 0
M  V30 6171 O 479.947 -5.12391 -7.179 0
M  V30 6172 O 480.487 -5.99158 -4.88404 0
M  V30 6173 C 481.427 -6.60234 -3.96415 0
M  V30 6174 C 480.697 -7.08259 -2.72856 0
M  V30 6175 O 480.487 -5.9427 -1.83651 0
M  V30 6176 C 479.297 -7.64886 -2.9555 0
M  V30 6177 O 478.907 -8.53963 -1.90717 0
M  V30 6178 C 478.417 -6.4116 -2.90739 0
M  V30 6179 C 479.127 -5.55375 -1.86963 0
M  V30 6180 N 479.077 -4.09664 -2.15742 0
M  V30 6181 H 481.916 -7.45574 -4.45629 0
M  V30 6182 H 482.188 -5.86232 -3.67314 0
M  V30 6183 H 481.32 -7.84412 -2.24479 0
M  V30 6184 P 477.357 -8.7635 -1.60911 0
M  V30 6185 O 477.137 -10.1388 -1.11561 0
M  V30 6186 O 476.567 -8.36503 -2.79617 0
M  V30 6187 O 477.107 -7.71806 -0.42951 0
M  V30 6188 C 478.047 -7.67148 0.673689 0
M  V30 6189 C 477.317 -7.33374 1.95559 0
M  V30 6190 O 477.107 -5.88721 2.00726 0
M  V30 6191 C 475.917 -7.92526 2.10483 0
M  V30 6192 O 475.527 -8.02971 3.47653 0
M  V30 6193 C 475.037 -6.89602 1.41652 0
M  V30 6194 C 475.747 -5.59201 1.75185 0
M  V30 6195 N 475.697 -4.58235 0.662552 0
M  V30 6196 H 478.536 -8.65116 0.777161 0
M  V30 6197 H 478.808 -6.90173 0.474152 0
M  V30 6198 H 477.94 -7.66548 2.79458 0
M  V30 6199 P 473.977 -8.03563 3.84925 0
M  V30 6200 O 473.757 -8.85821 5.0569 0
M  V30 6201 O 473.187 -8.41101 2.65469 0
M  V30 6202 O 473.727 -6.49734 4.18962 0
M  V30 6203 C 474.667 -5.81037 5.05421 0
M  V30 6204 C 473.937 -4.79018 5.88876 0
M  V30 6205 O 473.727 -3.58359 5.08515 0
M  V30 6206 C 472.537 -5.17448 6.36119 0
M  V30 6207 O 472.147 -4.45322 7.53318 0
M  V30 6208 C 471.657 -4.74639 5.19936 0
M  V30 6209 C 472.367 -3.49432 4.70418 0
M  V30 6210 N 472.317 -3.31776 3.22945 0
M  V30 6211 C 472.167 -2.02742 2.72939 0
M  V30 6212 O 472.077 -1.08301 3.52749 0
M  V30 6213 N 472.117 -1.96117 1.22063 0
M  V30 6214 C 472.217 -2.8878 0.551566 0
M  V30 6215 N 472.167 -2.65609 -0.750198 0
M  V30 6216 C 472.367 -4.22457 1.03707 0
M  V30 6217 C 472.417 -4.37979 2.39113 0
M  V30 6218 H 475.157 -6.54138 5.7131 0
M  V30 6219 H 475.427 -5.30492 4.44033 0
M  V30 6220 H 474.56 -4.55945 6.76735 0
M  V30 6221 H 471.905 -2.6176 5.18021 0
M  V30 6222 H 471.625 -5.52233 4.41941 0
M  V30 6223 H 470.634 -4.52045 5.53452 0
M  V30 6224 H 472.468 -6.25124 6.55234 0
M  V30 6225 H 472.54 -5.37936 2.80552 0
M  V30 6226 H 472.438 -5.07528 0.359553 0
M  V30 6227 H 472.05 -1.69403 -1.09847 0
M  V30 6228 H 472.246 -3.43701 -1.41792 0
M  V30 6229 P 470.597 -4.23843 7.83734 0
M  V30 6230 O 470.377 -4.19407 9.29784 0
M  V30 6231 O 469.807 -5.24426 7.09156 0
M  V30 6232 O 470.347 -2.7935 7.20758 0
M  V30 6233 C 471.287 -1.7299 7.50419 0
M  V30 6234 C 470.557 -0.406376 7.57911 0
M  V30 6235 O 470.347 0.0897726 6.21935 0
M  V30 6236 C 469.157 -0.447224 8.1878 0
M  V30 6237 O 468.767 0.825065 8.71101 0
M  V30 6238 C 468.277 -0.783801 6.99623 0
M  V30 6239 C 468.987 -0.0619192 5.85967 0
M  V30 6240 N 468.937 -0.7859 4.56281 0
M  V30 6241 H 471.776 -1.93423 8.4679 0
M  V30 6242 H 472.048 -1.68181 6.71046 0
M  V30 6243 H 471.18 0.289041 8.15388 0
M  V30 6244 P 467.217 1.17771 8.83182 0
M  V30 6245 O 466.997 2.07206 9.98732 0
M  V30 6246 O 466.427 -0.0743816 8.81969 0
M  V30 6247 O 466.967 1.97652 7.47304 0
M  V30 6248 C 467.907 3.01133 7.08783 0
M  V30 6249 C 467.177 4.12613 6.37049 0
M  V30 6250 O 466.967 3.72827 4.97879 0
M  V30 6251 C 465.777 4.45085 6.88694 0
M  V30 6252 O 465.387 5.7877 6.5624 0
M  V30 6253 C 464.897 3.47817 6.12078 0
M  V30 6254 C 465.607 3.39414 4.77697 0
M  V30 6255 N 465.557 2.04199 4.15538 0
M  V30 6256 H 468.396 3.41248 7.98759 0
M  V30 6257 H 468.668 2.57728 6.42 0
M  V30 6258 H 467.8 5.02657 6.42673 0
M  V30 6259 H 465.145 4.11708 4.08956 0
M  V30 6260 H 464.865 2.49626 6.61679 0
M  V30 6261 H 463.874 3.8662 6.00862 0
M  V30 6262 H 465.708 4.29991 7.97006 0
M  V30 6263 P 463.837 6.144 6.45285 0
M  V30 6264 O 463.617 7.54673 6.86199 0
M  V30 6265 O 463.047 5.12391 7.179 0
M  V30 6266 O 463.587 5.99158 4.88404 0
M  V30 6267 C 464.527 6.60062 3.96313 0
M  V30 6268 C 463.797 7.08259 2.72856 0
M  V30 6269 O 463.587 5.9427 1.83651 0
M  V30 6270 C 462.397 7.65087 2.94749 0
M  V30 6271 O 462.007 8.53963 1.90717 0
M  V30 6272 C 461.517 6.41069 2.90698 0
M  V30 6273 C 462.227 5.5528 1.86931 0
M  V30 6274 N 462.177 4.09575 2.15696 0
M  V30 6275 C 462.027 3.24249 1.08435 0
M  V30 6276 O 461.937 3.63946 -0.0628747 0
M  V30 6277 N 461.987 1.90009 1.39973 0
M  V30 6278 C 462.077 1.34884 2.65614 0
M  V30 6279 O 462.027 0.123716 2.81728 0
M  V30 6280 C 462.227 2.3145 3.71736 0
M  V30 6281 C 462.337 1.75913 5.10438 0
M  V30 6282 C 462.277 3.63518 3.44754 0
M  V30 6283 H 465.018 7.45402 4.45526 0
M  V30 6284 H 465.287 5.86062 3.67208 0
M  V30 6285 H 464.42 7.84412 2.24479 0
M  V30 6286 H 461.765 5.73358 0.888409 0
M  V30 6287 H 461.486 5.90877 3.88583 0
M  V30 6288 H 460.494 6.65867 2.58821 0
M  V30 6289 H 462.328 8.16248 3.92006 0
M  V30 6290 H 462.399 4.34551 4.26383 0
M  V30 6291 H 461.369 1.85471 5.61775 0
M  V30 6292 H 463.106 2.31364 5.66257 0
M  V30 6293 H 462.618 0.695936 5.05229 0
M  V30 6294 H 461.882 1.26277 0.63625 0
M  V30 6295 P 460.457 8.7635 1.60911 0
M  V30 6296 O 460.237 10.1388 1.11561 0
M  V30 6297 O 459.667 8.36503 2.79617 0
M  V30 6298 O 460.207 7.71806 0.42951 0
M  V30 6299 C 461.147 7.67148 -0.673689 0
M  V30 6300 C 460.417 7.33374 -1.95559 0
M  V30 6301 O 460.207 5.88721 -2.00726 0
M  V30 6302 C 459.017 7.92526 -2.10483 0
M  V30 6303 O 458.627 8.02971 -3.47653 0
M  V30 6304 C 458.137 6.89602 -1.41652 0
M  V30 6305 C 458.847 5.59201 -1.75185 0
M  V30 6306 N 458.797 4.58235 -0.662552 0
M  V30 6307 H 461.636 8.65116 -0.777161 0
M  V30 6308 H 461.908 6.90173 -0.474152 0
M  V30 6309 H 461.04 7.66548 -2.79458 0
M  V30 6310 P 457.077 8.03563 -3.84925 0
M  V30 6311 O 456.857 8.85821 -5.0569 0
M  V30 6312 O 456.287 8.41101 -2.65469 0
M  V30 6313 O 456.827 6.4965 -4.18908 0
M  V30 6314 C 457.767 5.81037 -5.05421 0
M  V30 6315 C 457.037 4.78366 -5.89277 0
M  V30 6316 O 456.827 3.58302 -5.08433 0
M  V30 6317 C 455.637 5.17448 -6.36119 0
M  V30 6318 O 455.247 4.45271 -7.53232 0
M  V30 6319 C 454.757 4.74639 -5.19936 0
M  V30 6320 C 455.467 3.49432 -4.70418 0
M  V30 6321 N 455.417 3.32099 -3.22613 0
M  V30 6322 H 458.256 6.54213 -5.71376 0
M  V30 6323 H 458.528 5.30936 -4.43503 0
M  V30 6324 H 457.66 4.55889 -6.76652 0
M  V30 6325 H 455.005 2.61715 -5.17932 0
M  V30 6326 H 454.725 5.52155 -4.41878 0
M  V30 6327 H 453.734 4.51981 -5.53374 0
M  V30 6328 H 455.568 6.25124 -6.55234 0
M  V30 6329 P 453.697 4.23843 -7.83734 0
M  V30 6330 O 453.477 4.19407 -9.29784 0
M  V30 6331 O 452.907 5.24426 -7.09156 0
M  V30 6332 O 453.447 2.7935 -7.20758 0
M  V30 6333 C 454.387 1.7299 -7.50419 0
M  V30 6334 C 453.657 0.406376 -7.57911 0
M  V30 6335 O 453.447 -0.0897726 -6.21935 0
M  V30 6336 C 452.257 0.447224 -8.1878 0
M  V30 6337 O 451.867 -0.825065 -8.71101 0
M  V30 6338 C 451.377 0.783801 -6.99623 0
M  V30 6339 C 452.087 0.0619192 -5.85967 0
M  V30 6340 N 452.037 0.7859 -4.56281 0
M  V30 6341 H 454.876 1.93423 -8.4679 0
M  V30 6342 H 455.148 1.68181 -6.71046 0
M  V30 6343 H 454.28 -0.289041 -8.15388 0
M  V30 6344 P 450.317 -1.17771 -8.83182 0
M  V30 6345 O 450.097 -2.07206 -9.98732 0
M  V30 6346 O 449.527 0.0743816 -8.81969 0
M  V30 6347 O 450.067 -1.97652 -7.47304 0
M  V30 6348 C 451.007 -3.01055 -7.08599 0
M  V30 6349 C 450.277 -4.12613 -6.37049 0
M  V30 6350 O 450.067 -3.72827 -4.97879 0
M  V30 6351 C 448.877 -4.45719 -6.88164 0
M  V30 6352 O 448.487 -5.7877 -6.5624 0
M  V30 6353 C 447.997 -3.47768 -6.11991 0
M  V30 6354 C 448.707 -3.39356 -4.77615 0
M  V30 6355 N 448.657 -2.04571 -4.15244 0
M  V30 6356 C 448.507 -1.98587 -2.78314 0
M  V30 6357 O 448.417 -2.98134 -2.08835 0
M  V30 6358 N 448.467 -0.714467 -2.24925 0
M  V30 6359 C 448.557 0.470001 -2.94169 0
M  V30 6360 O 448.507 1.55587 -2.35195 0
M  V30 6361 C 448.707 0.312541 -4.36783 0
M  V30 6362 C 448.817 1.57711 -5.16352 0
M  V30 6363 C 448.757 -0.914512 -4.92583 0
M  V30 6364 H 451.498 -3.41169 -7.98575 0
M  V30 6365 H 451.767 -2.58295 -6.41556 0
M  V30 6366 H 450.9 -5.02657 -6.42673 0
M  V30 6367 H 448.245 -4.11637 -4.08885 0
M  V30 6368 H 447.966 -2.49626 -6.61679 0
M  V30 6369 H 446.974 -3.86566 -6.00778 0
M  V30 6370 H 448.808 -4.29943 -7.96918 0
M  V30 6371 H 448.879 -1.00937 -6.00374 0
M  V30 6372 H 447.849 1.80153 -5.63503 0
M  V30 6373 H 449.586 1.4566 -5.94104 0
M  V30 6374 H 449.098 2.40664 -4.49645 0
M  V30 6375 H 448.362 -0.647622 -1.25697 0
M  V30 6376 P 446.937 -6.144 -6.45285 0
M  V30 6377 O 446.717 -7.54673 -6.86199 0
M  V30 6378 O 446.147 -5.12391 -7.179 0
M  V30 6379 O 446.687 -5.99158 -4.88404 0
M  V30 6380 C 447.627 -6.60234 -3.96415 0
M  V30 6381 C 446.897 -7.08259 -2.72856 0
M  V30 6382 O 446.687 -5.9427 -1.83651 0
M  V30 6383 C 445.497 -7.64886 -2.9555 0
M  V30 6384 O 445.107 -8.53963 -1.90717 0
M  V30 6385 C 444.617 -6.4116 -2.90739 0
M  V30 6386 C 445.327 -5.55375 -1.86963 0
M  V30 6387 N 445.277 -4.09664 -2.15742 0
M  V30 6388 H 448.116 -7.45574 -4.45629 0
M  V30 6389 H 448.388 -5.86232 -3.67314 0
M  V30 6390 H 447.52 -7.84412 -2.24479 0
M  V30 6391 P 443.557 -8.7635 -1.60911 0
M  V30 6392 O 443.337 -10.1388 -1.11561 0
M  V30 6393 O 442.767 -8.36503 -2.79617 0
M  V30 6394 O 443.307 -7.71906 -0.429565 0
M  V30 6395 C 444.247 -7.67148 0.673689 0
M  V30 6396 C 443.517 -7.33666 1.94851 0
M  V30 6397 O 443.307 -5.88816 2.00759 0
M  V30 6398 C 442.117 -7.92526 2.10483 0
M  V30 6399 O 441.727 -8.03063 3.47693 0
M  V30 6400 C 441.237 -6.89602 1.41652 0
M  V30 6401 C 441.947 -5.59201 1.75185 0
M  V30 6402 N 441.897 -4.58235 0.662552 0
M  V30 6403 C 441.747 -3.24451 1.01643 0
M  V30 6404 O 441.657 -2.94958 2.21722 0
M  V30 6405 N 441.697 -2.30408 -0.165238 0
M  V30 6406 C 441.797 -2.66048 -1.25118 0
M  V30 6407 N 441.747 -1.70787 -2.16813 0
M  V30 6408 C 441.947 -4.02732 -1.64413 0
M  V30 6409 C 441.997 -4.9488 -0.63991 0
M  V30 6410 H 444.737 -8.65017 0.777072 0
M  V30 6411 H 445.007 -6.90173 0.474152 0
M  V30 6412 H 444.14 -7.66642 2.79492 0
M  V30 6413 H 441.485 -5.16254 2.65229 0
M  V30 6414 H 441.205 -7.06532 0.329431 0
M  V30 6415 H 440.214 -6.91023 1.82047 0
M  V30 6416 H 442.048 -8.90873 1.62657 0
M  V30 6417 H 442.12 -6.00104 -0.892197 0
M  V30 6418 H 442.018 -4.31733 -2.69229 0
M  V30 6419 H 441.63 -0.724835 -1.8844 0
M  V30 6420 H 441.826 -1.94716 -3.16734 0
M  V30 6421 P 440.177 -8.03563 3.84925 0
M  V30 6422 O 439.957 -8.85821 5.0569 0
M  V30 6423 O 439.387 -8.41101 2.65469 0
M  V30 6424 O 439.927 -6.4965 4.18908 0
M  V30 6425 C 440.867 -5.80886 5.05289 0
M  V30 6426 C 440.137 -4.78366 5.89277 0
M  V30 6427 O 439.927 -3.58302 5.08433 0
M  V30 6428 C 438.737 -5.16748 6.36559 0
M  V30 6429 O 438.347 -4.45271 7.53232 0
M  V30 6430 C 437.857 -4.74572 5.19863 0
M  V30 6431 C 438.567 -3.49373 4.70338 0
M  V30 6432 N 438.517 -3.31704 3.22876 0
M  V30 6433 C 438.367 -2.03326 2.74871 0
M  V30 6434 O 438.277 -1.06486 3.48076 0
M  V30 6435 N 438.327 -1.91838 1.37456 0
M  V30 6436 C 438.417 -2.94295 0.462035 0
M  V30 6437 O 438.367 -2.71763 -0.752928 0
M  V30 6438 C 438.567 -4.25064 1.05249 0
M  V30 6439 C 438.677 -5.39815 0.095697 0
M  V30 6440 C 438.617 -4.40214 2.39192 0
M  V30 6441 H 441.358 -6.54063 5.71245 0
M  V30 6442 H 441.627 -5.30339 4.43905 0
M  V30 6443 H 440.76 -4.55889 6.76652 0
M  V30 6444 H 438.105 -2.6167 5.17842 0
M  V30 6445 H 437.826 -5.52155 4.41878 0
M  V30 6446 H 436.834 -4.51918 5.53297 0
M  V30 6447 H 438.668 -6.25055 6.55162 0
M  V30 6448 H 438.739 -5.39798 2.81523 0
M  V30 6449 H 437.709 -5.91593 0.0279582 0
M  V30 6450 H 439.446 -6.10038 0.450573 0
M  V30 6451 H 438.958 -5.02007 -0.89937 0
M  V30 6452 H 438.222 -0.995326 1.00435 0
M  V30 6453 P 436.797 -4.23843 7.83734 0
M  V30 6454 O 436.577 -4.19407 9.29784 0
M  V30 6455 O 436.007 -5.24426 7.09156 0
M  V30 6456 O 436.547 -2.7935 7.20758 0
M  V30 6457 C 437.487 -1.72945 7.50224 0
M  V30 6458 C 436.757 -0.406376 7.57911 0
M  V30 6459 O 436.547 0.0897726 6.21935 0
M  V30 6460 C 435.357 -0.438983 8.18724 0
M  V30 6461 O 434.967 0.825065 8.71101 0
M  V30 6462 C 434.477 -0.783689 6.99524 0
M  V30 6463 C 435.187 -0.0619086 5.85867 0
M  V30 6464 N 435.137 -0.78573 4.56183 0
M  V30 6465 C 434.987 -0.0292889 3.41887 0
M  V30 6466 O 434.897 1.18445 3.4419 0
M  V30 6467 N 434.947 -0.744061 2.23964 0
M  V30 6468 C 435.037 -2.10932 2.10362 0
M  V30 6469 C 435.187 -2.8202 3.34994 0
M  V30 6470 C 435.237 -2.15547 4.52261 0
M  V30 6471 H 437.978 -1.93379 8.46595 0
M  V30 6472 H 438.247 -1.68132 6.70852 0
M  V30 6473 H 437.38 0.289041 8.15388 0
M  V30 6474 H 434.725 0.926847 5.72749 0
M  V30 6475 H 434.446 -1.86973 6.82036 0
M  V30 6476 H 433.454 -0.403896 7.13257 0
M  V30 6477 H 435.288 -1.20585 8.97435 0
M  V30 6478 H 435.359 -2.71231 5.45042 0
M  V30 6479 P 433.417 1.17771 8.83182 0
M  V30 6480 O 433.197 2.07206 9.98732 0
M  V30 6481 O 432.627 -0.0743816 8.81969 0
M  V30 6482 O 433.167 1.97652 7.47304 0
M  V30 6483 C 434.107 3.01133 7.08783 0
M  V30 6484 C 433.377 4.12613 6.37049 0
M  V30 6485 O 433.167 3.72827 4.97879 0
M  V30 6486 C 431.977 4.45085 6.88694 0
M  V30 6487 O 431.587 5.7877 6.5624 0
M  V30 6488 C 431.097 3.47817 6.12078 0
M  V30 6489 C 431.807 3.39414 4.77697 0
M  V30 6490 N 431.757 2.04615 4.15333 0
M  V30 6491 H 434.596 3.41248 7.98759 0
M  V30 6492 H 434.868 2.5837 6.41742 0
M  V30 6493 H 434 5.02657 6.42673 0
M  V30 6494 P 430.037 6.144 6.45285 0
M  V30 6495 O 429.817 7.54673 6.86199 0
M  V30 6496 O 429.247 5.12391 7.179 0
M  V30 6497 O 429.787 5.99158 4.88404 0
M  V30 6498 C 430.727 6.60234 3.96415 0
M  V30 6499 C 429.997 7.08259 2.72856 0
M  V30 6500 O 429.787 5.9427 1.83651 0
M  V30 6501 C 428.597 7.64886 2.9555 0
M  V30 6502 O 428.207 8.53963 1.90717 0
M  V30 6503 C 427.717 6.4116 2.90739 0
M  V30 6504 C 428.427 5.55375 1.86963 0
M  V30 6505 N 428.377 4.09448 2.16152 0
M  V30 6506 C 428.457 3.46824 3.37593 0
M  V30 6507 N 428.387 2.17422 3.29777 0
M  V30 6508 C 428.237 1.93065 1.94427 0
M  V30 6509 C 428.107 0.738053 1.20141 0
M  V30 6510 N 428.097 -0.474256 1.74676 0
M  V30 6511 N 427.987 0.850049 -0.13045 0
M  V30 6512 C 427.997 2.06169 -0.676992 0
M  V30 6513 N 428.117 3.23842 -0.101312 0
M  V30 6514 C 428.237 3.09402 1.23122 0
M  V30 6515 H 431.216 7.45574 4.45629 0
M  V30 6516 H 431.488 5.85864 3.679 0
M  V30 6517 H 430.62 7.84412 2.24479 0
M  V30 6518 H 427.965 5.73457 0.888562 0
M  V30 6519 H 427.685 5.90877 3.88583 0
M  V30 6520 H 426.694 6.6596 2.58858 0
M  V30 6521 H 428.528 8.16339 3.92049 0
M  V30 6522 H 428.569 4.00505 4.3174 0
M  V30 6523 H 428.188 -0.581337 2.76658 0
M  V30 6524 H 427.999 -1.30811 1.14888 0
M  V30 6525 H 427.891 2.08295 -1.75542 0
M  V30 6526 P 426.657 8.7635 1.60911 0
M  V30 6527 O 426.437 10.1388 1.11561 0
M  V30 6528 O 425.867 8.36503 2.79617 0
M  V30 6529 O 426.407 7.71806 0.42951 0
M  V30 6530 C 427.347 7.67148 -0.673689 0
M  V30 6531 C 426.617 7.33374 -1.95559 0
M  V30 6532 O 426.407 5.88721 -2.00726 0
M  V30 6533 C 425.217 7.92526 -2.10483 0
M  V30 6534 O 424.827 8.02971 -3.47653 0
M  V30 6535 C 424.337 6.89602 -1.41652 0
M  V30 6536 C 425.047 5.59201 -1.75185 0
M  V30 6537 N 424.997 4.58235 -0.662552 0
M  V30 6538 H 427.836 8.65116 -0.777161 0
M  V30 6539 H 428.108 6.90173 -0.474152 0
M  V30 6540 H 427.24 7.66548 -2.79458 0
M  V30 6541 P 423.278 8.03563 -3.84925 0
M  V30 6542 O 423.058 8.85821 -5.0569 0
M  V30 6543 O 422.488 8.41101 -2.65469 0
M  V30 6544 O 423.028 6.4965 -4.18908 0
M  V30 6545 C 423.968 5.81037 -5.05421 0
M  V30 6546 C 423.238 4.78366 -5.89277 0
M  V30 6547 O 423.028 3.58302 -5.08433 0
M  V30 6548 C 421.838 5.17448 -6.36119 0
M  V30 6549 O 421.448 4.45271 -7.53232 0
M  V30 6550 C 420.958 4.74639 -5.19936 0
M  V30 6551 C 421.668 3.49432 -4.70418 0
M  V30 6552 N 421.618 3.31776 -3.22945 0
M  V30 6553 H 424.457 6.54213 -5.71376 0
M  V30 6554 H 424.729 5.30492 -4.44033 0
M  V30 6555 H 423.861 4.55889 -6.76652 0
M  V30 6556 P 419.898 4.23843 -7.83734 0
M  V30 6557 O 419.678 4.19407 -9.29784 0
M  V30 6558 O 419.108 5.24426 -7.09156 0
M  V30 6559 O 419.648 2.7935 -7.20758 0
M  V30 6560 C 420.588 1.7299 -7.50419 0
M  V30 6561 C 419.858 0.406376 -7.57911 0
M  V30 6562 O 419.648 -0.0897726 -6.21935 0
M  V30 6563 C 418.458 0.447224 -8.1878 0
M  V30 6564 O 418.068 -0.825065 -8.71101 0
M  V30 6565 C 417.578 0.783801 -6.99623 0
M  V30 6566 C 418.288 0.0619192 -5.85967 0
M  V30 6567 N 418.238 0.790462 -4.56202 0
M  V30 6568 C 418.318 2.13895 -4.34171 0
M  V30 6569 N 418.248 2.46449 -3.08687 0
M  V30 6570 C 418.098 1.2525 -2.43697 0
M  V30 6571 C 417.968 0.914535 -1.07318 0
M  V30 6572 N 417.958 1.80782 -0.0887348 0
M  V30 6573 N 417.848 -0.386745 -0.768133 0
M  V30 6574 C 417.858 -1.28096 -1.75159 0
M  V30 6575 N 417.978 -1.09708 -3.04861 0
M  V30 6576 C 418.098 0.214857 -3.32306 0
M  V30 6577 H 421.077 1.93423 -8.4679 0
M  V30 6578 H 421.349 1.68852 -6.70877 0
M  V30 6579 H 420.481 -0.289041 -8.15388 0
M  V30 6580 H 417.826 -0.927006 -5.72848 0
M  V30 6581 H 417.546 1.86973 -6.82036 0
M  V30 6582 H 416.555 0.403953 -7.13357 0
M  V30 6583 H 418.389 1.20599 -8.97534 0
M  V30 6584 H 418.43 2.86846 -5.14318 0
M  V30 6585 H 418.049 2.81082 -0.302037 0
M  V30 6586 H 417.86 1.49688 0.889064 0
M  V30 6587 H 417.752 -2.31317 -1.43855 0
M  V30 6588 P 416.518 -1.17771 -8.83182 0
M  V30 6589 O 416.298 -2.07206 -9.98732 0
M  V30 6590 O 415.728 0.0743816 -8.81969 0
M  V30 6591 O 416.268 -1.97652 -7.47304 0
M  V30 6592 C 417.208 -3.01133 -7.08783 0
M  V30 6593 C 416.478 -4.12613 -6.37049 0
M  V30 6594 O 416.268 -3.72827 -4.97879 0
M  V30 6595 C 415.078 -4.45085 -6.88694 0
M  V30 6596 O 414.688 -5.7877 -6.5624 0
M  V30 6597 C 414.198 -3.47817 -6.12078 0
M  V30 6598 C 414.908 -3.39414 -4.77697 0
M  V30 6599 N 414.858 -2.04615 -4.15333 0
M  V30 6600 H 417.697 -3.41248 -7.98759 0
M  V30 6601 H 417.969 -2.5837 -6.41742 0
M  V30 6602 H 417.101 -5.02657 -6.42673 0
M  V30 6603 P 413.138 -6.144 -6.45285 0
M  V30 6604 O 412.918 -7.54673 -6.86199 0
M  V30 6605 O 412.348 -5.12391 -7.179 0
M  V30 6606 O 412.888 -5.99158 -4.88404 0
M  V30 6607 C 413.828 -6.60234 -3.96415 0
M  V30 6608 C 413.098 -7.08259 -2.72856 0
M  V30 6609 O 412.888 -5.9427 -1.83651 0
M  V30 6610 C 411.698 -7.64886 -2.9555 0
M  V30 6611 O 411.308 -8.53963 -1.90717 0
M  V30 6612 C 410.818 -6.4116 -2.90739 0
M  V30 6613 C 411.528 -5.55375 -1.86963 0
M  V30 6614 N 411.478 -4.09664 -2.15742 0
M  V30 6615 H 414.317 -7.45574 -4.45629 0
M  V30 6616 H 414.589 -5.86232 -3.67314 0
M  V30 6617 H 413.721 -7.84412 -2.24479 0
M  V30 6618 P 409.758 -8.7635 -1.60911 0
M  V30 6619 O 409.538 -10.1388 -1.11561 0
M  V30 6620 O 408.968 -8.36503 -2.79617 0
M  V30 6621 O 409.508 -7.71806 -0.42951 0
M  V30 6622 C 410.448 -7.67148 0.673689 0
M  V30 6623 C 409.718 -7.33374 1.95559 0
M  V30 6624 O 409.508 -5.88721 2.00726 0
M  V30 6625 C 408.318 -7.92526 2.10483 0
M  V30 6626 O 407.928 -8.02971 3.47653 0
M  V30 6627 C 407.438 -6.89602 1.41652 0
M  V30 6628 C 408.148 -5.59201 1.75185 0
M  V30 6629 N 408.098 -4.58235 0.662552 0
M  V30 6630 H 410.937 -8.65116 0.777161 0
M  V30 6631 H 411.209 -6.90173 0.474152 0
M  V30 6632 H 410.341 -7.66548 2.79458 0
M  V30 6633 P 406.378 -8.03563 3.84925 0
M  V30 6634 O 406.158 -8.85821 5.0569 0
M  V30 6635 O 405.588 -8.41101 2.65469 0
M  V30 6636 O 406.128 -6.4965 4.18908 0
M  V30 6637 C 407.068 -5.81037 5.05421 0
M  V30 6638 C 406.338 -4.78366 5.89277 0
M  V30 6639 O 406.128 -3.58302 5.08433 0
M  V30 6640 C 404.938 -5.17448 6.36119 0
M  V30 6641 O 404.548 -4.45271 7.53232 0
M  V30 6642 C 404.058 -4.74639 5.19936 0
M  V30 6643 C 404.768 -3.49432 4.70418 0
M  V30 6644 N 404.718 -3.31776 3.22945 0
M  V30 6645 H 407.557 -6.54213 5.71376 0
M  V30 6646 H 407.829 -5.30492 4.44033 0
M  V30 6647 H 406.961 -4.55889 6.76652 0
M  V30 6648 P 402.998 -4.23843 7.83734 0
M  V30 6649 O 402.778 -4.19407 9.29784 0
M  V30 6650 O 402.208 -5.24426 7.09156 0
M  V30 6651 O 402.748 -2.7935 7.20758 0
M  V30 6652 C 403.688 -1.7299 7.50419 0
M  V30 6653 C 402.958 -0.406376 7.57911 0
M  V30 6654 O 402.748 0.0897726 6.21935 0
M  V30 6655 C 401.558 -0.447224 8.1878 0
M  V30 6656 O 401.168 0.825065 8.71101 0
M  V30 6657 C 400.678 -0.783801 6.99623 0
M  V30 6658 C 401.388 -0.0619192 5.85967 0
M  V30 6659 N 401.338 -0.7859 4.56281 0
M  V30 6660 H 404.177 -1.93423 8.4679 0
M  V30 6661 H 404.449 -1.68181 6.71046 0
M  V30 6662 H 403.581 0.289041 8.15388 0
M  V30 6663 P 399.618 1.17771 8.83182 0
M  V30 6664 O 399.398 2.07206 9.98732 0
M  V30 6665 O 398.828 -0.0743816 8.81969 0
M  V30 6666 O 399.368 1.97678 7.474 0
M  V30 6667 C 400.308 3.01133 7.08783 0
M  V30 6668 C 399.578 4.1203 6.37546 0
M  V30 6669 O 399.368 3.72887 4.9796 0
M  V30 6670 C 398.178 4.45085 6.88694 0
M  V30 6671 O 397.788 5.78836 6.56315 0
M  V30 6672 C 397.298 3.47817 6.12078 0
M  V30 6673 C 398.008 3.39414 4.77697 0
M  V30 6674 N 397.958 2.04615 4.15333 0
M  V30 6675 C 397.808 1.96929 2.77162 0
M  V30 6676 O 397.718 3.02017 2.12006 0
M  V30 6677 N 397.758 0.55485 2.24237 0
M  V30 6678 C 397.858 -0.367808 2.9169 0
M  V30 6679 N 397.808 -1.53426 2.29427 0
M  V30 6680 C 398.008 -0.319148 4.33828 0
M  V30 6681 C 398.058 0.920672 4.90433 0
M  V30 6682 H 400.798 3.41209 7.98667 0
M  V30 6683 H 401.068 2.5837 6.41742 0
M  V30 6684 H 400.201 5.02718 6.42752 0
M  V30 6685 H 397.546 4.11779 4.09026 0
M  V30 6686 H 397.266 2.49661 6.61772 0
M  V30 6687 H 396.275 3.86674 6.00946 0
M  V30 6688 H 398.109 4.29991 7.97006 0
M  V30 6689 H 398.181 1.00589 5.98303 0
M  V30 6690 H 398.079 -1.22639 4.93799 0
M  V30 6691 H 397.691 -1.56819 1.27167 0
M  V30 6692 H 397.887 -2.41062 2.83063 0
M  V30 6693 P 396.238 6.144 6.45285 0
M  V30 6694 O 396.018 7.54673 6.86199 0
M  V30 6695 O 395.448 5.12391 7.179 0
M  V30 6696 O 395.988 5.99158 4.88404 0
M  V30 6697 C 396.928 6.60234 3.96415 0
M  V30 6698 C 396.198 7.08259 2.72856 0
M  V30 6699 O 395.988 5.9427 1.83651 0
M  V30 6700 C 394.798 7.64886 2.9555 0
M  V30 6701 O 394.408 8.53963 1.90717 0
M  V30 6702 C 393.918 6.4116 2.90739 0
M  V30 6703 C 394.628 5.55375 1.86963 0
M  V30 6704 N 394.578 4.09664 2.15742 0
M  V30 6705 H 397.417 7.45574 4.45629 0
M  V30 6706 H 397.689 5.86232 3.67314 0
M  V30 6707 H 396.821 7.84412 2.24479 0
M  V30 6708 P 392.858 8.7635 1.60911 0
M  V30 6709 O 392.638 10.1388 1.11561 0
M  V30 6710 O 392.068 8.36503 2.79617 0
M  V30 6711 O 392.608 7.71806 0.42951 0
M  V30 6712 C 393.548 7.66948 -0.673514 0
M  V30 6713 C 392.818 7.33374 -1.95559 0
M  V30 6714 O 392.608 5.88721 -2.00726 0
M  V30 6715 C 391.418 7.92218 -2.1125 0
M  V30 6716 O 391.028 8.02971 -3.47653 0
M  V30 6717 C 390.538 6.89504 -1.41631 0
M  V30 6718 C 391.248 5.59106 -1.75155 0
M  V30 6719 N 391.198 4.58136 -0.662409 0
M  V30 6720 C 391.048 3.26059 -1.02863 0
M  V30 6721 O 390.958 2.90743 -2.19009 0
M  V30 6722 N 391.008 2.35995 0.0155585 0
M  V30 6723 C 391.098 2.65248 1.35603 0
M  V30 6724 C 391.248 4.05747 1.64698 0
M  V30 6725 C 391.298 4.96734 0.652411 0
M  V30 6726 H 394.039 8.64917 -0.776982 0
M  V30 6727 H 394.308 6.89974 -0.474015 0
M  V30 6728 H 393.441 7.66548 -2.79458 0
M  V30 6729 H 390.786 5.16076 -2.65138 0
M  V30 6730 H 390.507 7.06433 -0.329384 0
M  V30 6731 H 389.515 6.90829 -1.81996 0
M  V30 6732 H 391.349 8.90774 -1.62639 0
M  V30 6733 H 391.42 6.02181 0.895285 0
M  V30 6734 P 389.478 8.03563 -3.84925 0
M  V30 6735 O 389.258 8.85821 -5.0569 0
M  V30 6736 O 388.688 8.41101 -2.65469 0
M  V30 6737 O 389.228 6.4965 -4.18908 0
M  V30 6738 C 390.168 5.80886 -5.05289 0
M  V30 6739 C 389.438 4.78366 -5.89277 0
M  V30 6740 O 389.228 3.58302 -5.08433 0
M  V30 6741 C 388.038 5.16748 -6.36559 0
M  V30 6742 O 387.648 4.45271 -7.53232 0
M  V30 6743 C 387.158 4.74572 -5.19863 0
M  V30 6744 C 387.868 3.49373 -4.70338 0
M  V30 6745 N 387.818 3.31704 -3.22876 0
M  V30 6746 C 387.668 2.03326 -2.74871 0
M  V30 6747 O 387.578 1.06486 -3.48076 0
M  V30 6748 N 387.628 1.91838 -1.37456 0
M  V30 6749 C 387.718 2.94295 -0.462035 0
M  V30 6750 O 387.668 2.71763 0.752928 0
M  V30 6751 C 387.868 4.25064 -1.05249 0
M  V30 6752 C 387.978 5.39815 -0.095697 0
M  V30 6753 C 387.918 4.40214 -2.39192 0
M  V30 6754 H 390.659 6.54063 -5.71245 0
M  V30 6755 H 390.928 5.30339 -4.43905 0
M  V30 6756 H 390.061 4.55889 -6.76652 0
M  V30 6757 H 387.406 2.6167 -5.17842 0
M  V30 6758 H 387.127 5.52155 -4.41878 0
M  V30 6759 H 386.135 4.51918 -5.53297 0
M  V30 6760 H 387.969 6.25055 -6.55162 0
M  V30 6761 H 388.04 5.39798 -2.81523 0
M  V30 6762 H 387.01 5.91593 -0.0279582 0
M  V30 6763 H 388.747 6.10038 -0.450573 0
M  V30 6764 H 388.259 5.02007 0.89937 0
M  V30 6765 H 387.523 0.995326 -1.00435 0
M  V30 6766 P 386.098 4.23843 -7.83734 0
M  V30 6767 O 385.878 4.19407 -9.29784 0
M  V30 6768 O 385.308 5.24426 -7.09156 0
M  V30 6769 O 385.848 2.7935 -7.20758 0
M  V30 6770 C 386.788 1.7299 -7.50419 0
M  V30 6771 C 386.058 0.406376 -7.57911 0
M  V30 6772 O 385.848 -0.0897726 -6.21935 0
M  V30 6773 C 384.658 0.447224 -8.1878 0
M  V30 6774 O 384.268 -0.825065 -8.71101 0
M  V30 6775 C 383.778 0.783801 -6.99623 0
M  V30 6776 C 384.488 0.0619192 -5.85967 0
M  V30 6777 N 384.438 0.7859 -4.56281 0
M  V30 6778 H 387.277 1.93423 -8.4679 0
M  V30 6779 H 387.549 1.68181 -6.71046 0
M  V30 6780 H 386.681 -0.289041 -8.15388 0
M  V30 6781 P 382.718 -1.17771 -8.83182 0
M  V30 6782 O 382.498 -2.07206 -9.98732 0
M  V30 6783 O 381.928 0.0743816 -8.81969 0
M  V30 6784 O 382.468 -1.97652 -7.47304 0
M  V30 6785 C 383.408 -3.01133 -7.08783 0
M  V30 6786 C 382.678 -4.12613 -6.37049 0
M  V30 6787 O 382.468 -3.72827 -4.97879 0
M  V30 6788 C 381.278 -4.45085 -6.88694 0
M  V30 6789 O 380.888 -5.7877 -6.5624 0
M  V30 6790 C 380.398 -3.47817 -6.12078 0
M  V30 6791 C 381.108 -3.39414 -4.77697 0
M  V30 6792 N 381.058 -2.04199 -4.15538 0
M  V30 6793 H 383.897 -3.41248 -7.98759 0
M  V30 6794 H 384.169 -2.57728 -6.42 0
M  V30 6795 H 383.301 -5.02657 -6.42673 0
M  V30 6796 H 380.646 -4.11708 -4.08956 0
M  V30 6797 H 380.366 -2.49626 -6.61679 0
M  V30 6798 H 379.375 -3.8662 -6.00862 0
M  V30 6799 H 381.209 -4.29991 -7.97006 0
M  V30 6800 P 379.338 -6.144 -6.45285 0
M  V30 6801 O 379.118 -7.54673 -6.86199 0
M  V30 6802 O 378.548 -5.12391 -7.179 0
M  V30 6803 O 379.088 -5.99158 -4.88404 0
M  V30 6804 C 380.028 -6.60234 -3.96415 0
M  V30 6805 C 379.298 -7.08259 -2.72856 0
M  V30 6806 O 379.088 -5.9427 -1.83651 0
M  V30 6807 C 377.898 -7.64886 -2.9555 0
M  V30 6808 O 377.508 -8.53963 -1.90717 0
M  V30 6809 C 377.018 -6.4116 -2.90739 0
M  V30 6810 C 377.728 -5.55375 -1.86963 0
M  V30 6811 N 377.678 -4.09664 -2.15742 0
M  V30 6812 H 380.517 -7.45574 -4.45629 0
M  V30 6813 H 380.789 -5.86232 -3.67314 0
M  V30 6814 H 379.921 -7.84412 -2.24479 0
M  V30 6815 P 375.958 -8.7635 -1.60911 0
M  V30 6816 O 375.738 -10.1388 -1.11561 0
M  V30 6817 O 375.168 -8.36503 -2.79617 0
M  V30 6818 O 375.708 -7.71806 -0.42951 0
M  V30 6819 C 376.648 -7.67148 0.673689 0
M  V30 6820 C 375.918 -7.33374 1.95559 0
M  V30 6821 O 375.708 -5.88721 2.00726 0
M  V30 6822 C 374.518 -7.92526 2.10483 0
M  V30 6823 O 374.128 -8.02971 3.47653 0
M  V30 6824 C 373.638 -6.89602 1.41652 0
M  V30 6825 C 374.348 -5.59201 1.75185 0
M  V30 6826 N 374.298 -4.58235 0.662552 0
M  V30 6827 H 377.137 -8.65116 0.777161 0
M  V30 6828 H 377.409 -6.90173 0.474152 0
M  V30 6829 H 376.541 -7.66548 2.79458 0
M  V30 6830 P 372.578 -8.03563 3.84925 0
M  V30 6831 O 372.358 -8.85821 5.0569 0
M  V30 6832 O 371.788 -8.41101 2.65469 0
M  V30 6833 O 372.328 -6.4965 4.18908 0
M  V30 6834 C 373.268 -5.81037 5.05421 0
M  V30 6835 C 372.538 -4.78366 5.89277 0
M  V30 6836 O 372.328 -3.58302 5.08433 0
M  V30 6837 C 371.138 -5.17448 6.36119 0
M  V30 6838 O 370.748 -4.45271 7.53232 0
M  V30 6839 C 370.258 -4.74639 5.19936 0
M  V30 6840 C 370.968 -3.49432 4.70418 0
M  V30 6841 N 370.918 -3.31776 3.22945 0
M  V30 6842 C 370.998 -4.27147 2.23315 0
M  V30 6843 N 370.918 -3.78447 1.02186 0
M  V30 6844 C 370.778 -2.41001 1.21732 0
M  V30 6845 C 370.648 -1.36111 0.27694 0
M  V30 6846 N 370.528 -0.113683 0.912949 0
M  V30 6847 C 370.528 0.0846396 2.27943 0
M  V30 6848 N 370.398 1.34737 2.6916 0
M  V30 6849 N 370.658 -0.902521 3.16379 0
M  V30 6850 C 370.778 -2.11937 2.56849 0
M  V30 6851 H 373.757 -6.54213 5.71376 0
M  V30 6852 H 374.029 -5.30492 4.44033 0
M  V30 6853 H 373.161 -4.55889 6.76652 0
M  V30 6854 P 369.198 -4.23843 7.83734 0
M  V30 6855 O 368.978 -4.19407 9.29784 0
M  V30 6856 O 368.408 -5.24426 7.09156 0
M  V30 6857 O 368.948 -2.79386 7.20852 0
M  V30 6858 C 369.888 -1.7299 7.50419 0
M  V30 6859 C 369.158 -0.41401 7.5797 0
M  V30 6860 O 368.948 0.089787 6.22035 0
M  V30 6861 C 367.758 -0.447224 8.1878 0
M  V30 6862 O 367.368 0.825159 8.71201 0
M  V30 6863 C 366.878 -0.783801 6.99623 0
M  V30 6864 C 367.588 -0.0619192 5.85967 0
M  V30 6865 N 367.538 -0.7859 4.56281 0
M  V30 6866 C 367.388 -0.0359258 3.39981 0
M  V30 6867 O 367.298 1.19723 3.49038 0
M  V30 6868 N 367.338 -0.869151 2.14025 0
M  V30 6869 C 367.438 -2.01207 2.14363 0
M  V30 6870 N 367.388 -2.58978 0.954287 0
M  V30 6871 C 367.588 -2.80817 3.32215 0
M  V30 6872 C 367.638 -2.13785 4.50884 0
M  V30 6873 H 370.378 -1.93401 8.46693 0
M  V30 6874 H 370.648 -1.68181 6.71046 0
M  V30 6875 H 369.781 0.289076 8.15488 0
M  V30 6876 H 367.126 0.927166 5.72947 0
M  V30 6877 H 366.846 -1.87 6.82132 0
M  V30 6878 H 365.855 -0.404009 7.13457 0
M  V30 6879 H 367.689 -1.20599 8.97534 0
M  V30 6880 H 367.761 -2.70295 5.43162 0
M  V30 6881 H 367.659 -3.89465 3.27406 0
M  V30 6882 H 367.271 -2.01616 0.107046 0
M  V30 6883 H 367.467 -3.61403 0.873101 0
M  V30 6884 P 365.818 1.17771 8.83182 0
M  V30 6885 O 365.598 2.07206 9.98732 0
M  V30 6886 O 365.028 -0.0743816 8.81969 0
M  V30 6887 O 365.568 1.97652 7.47304 0
M  V30 6888 C 366.508 3.01133 7.08783 0
M  V30 6889 C 365.778 4.12613 6.37049 0
M  V30 6890 O 365.568 3.72827 4.97879 0
M  V30 6891 C 364.378 4.45085 6.88694 0
M  V30 6892 O 363.988 5.7877 6.5624 0
M  V30 6893 C 363.498 3.47817 6.12078 0
M  V30 6894 C 364.208 3.39414 4.77697 0
M  V30 6895 N 364.158 2.04615 4.15333 0
M  V30 6896 H 366.997 3.41248 7.98759 0
M  V30 6897 H 367.269 2.5837 6.41742 0
M  V30 6898 H 366.401 5.02657 6.42673 0
M  V30 6899 P 362.438 6.144 6.45285 0
M  V30 6900 O 362.218 7.54673 6.86199 0
M  V30 6901 O 361.648 5.12391 7.179 0
M  V30 6902 O 362.188 5.99158 4.88404 0
M  V30 6903 C 363.128 6.60234 3.96415 0
M  V30 6904 C 362.398 7.08259 2.72856 0
M  V30 6905 O 362.188 5.9427 1.83651 0
M  V30 6906 C 360.998 7.64886 2.9555 0
M  V30 6907 O 360.608 8.53963 1.90717 0
M  V30 6908 C 360.118 6.4116 2.90739 0
M  V30 6909 C 360.828 5.55375 1.86963 0
M  V30 6910 N 360.778 4.09664 2.15742 0
M  V30 6911 H 363.617 7.45574 4.45629 0
M  V30 6912 H 363.889 5.86232 3.67314 0
M  V30 6913 H 363.021 7.84412 2.24479 0
M  V30 6914 P 359.058 8.7635 1.60911 0
M  V30 6915 O 358.838 10.1388 1.11561 0
M  V30 6916 O 358.268 8.36503 2.79617 0
M  V30 6917 O 358.808 7.71806 0.42951 0
M  V30 6918 C 359.748 7.67148 -0.673689 0
M  V30 6919 C 359.018 7.33374 -1.95559 0
M  V30 6920 O 358.808 5.88721 -2.00726 0
M  V30 6921 C 357.618 7.92526 -2.10483 0
M  V30 6922 O 357.228 8.02971 -3.47653 0
M  V30 6923 C 356.738 6.89602 -1.41652 0
M  V30 6924 C 357.448 5.59201 -1.75185 0
M  V30 6925 N 357.398 4.58235 -0.662552 0
M  V30 6926 H 360.237 8.65116 -0.777161 0
M  V30 6927 H 360.509 6.90173 -0.474152 0
M  V30 6928 H 359.641 7.66548 -2.79458 0
M  V30 6929 P 355.678 8.03563 -3.84925 0
M  V30 6930 O 355.458 8.85821 -5.0569 0
M  V30 6931 O 354.888 8.41101 -2.65469 0
M  V30 6932 O 355.428 6.4965 -4.18908 0
M  V30 6933 C 356.368 5.80886 -5.05289 0
M  V30 6934 C 355.638 4.78366 -5.89277 0
M  V30 6935 O 355.428 3.58302 -5.08433 0
M  V30 6936 C 354.238 5.16748 -6.36559 0
M  V30 6937 O 353.848 4.45271 -7.53232 0
M  V30 6938 C 353.358 4.74572 -5.19863 0
M  V30 6939 C 354.068 3.49373 -4.70338 0
M  V30 6940 N 354.018 3.31704 -3.22876 0
M  V30 6941 C 353.868 2.03326 -2.74871 0
M  V30 6942 O 353.778 1.06486 -3.48076 0
M  V30 6943 N 353.828 1.91838 -1.37456 0
M  V30 6944 C 353.918 2.94295 -0.462035 0
M  V30 6945 C 354.068 4.25064 -1.05249 0
M  V30 6946 C 354.118 4.40214 -2.39192 0
M  V30 6947 H 356.859 6.54063 -5.71245 0
M  V30 6948 H 357.128 5.30339 -4.43905 0
M  V30 6949 H 356.261 4.55889 -6.76652 0
M  V30 6950 H 353.606 2.6167 -5.17842 0
M  V30 6951 H 353.327 5.52155 -4.41878 0
M  V30 6952 H 352.335 4.51918 -5.53297 0
M  V30 6953 H 354.169 6.25055 -6.55162 0
M  V30 6954 H 354.24 5.39798 -2.81523 0
M  V30 6955 P 352.298 4.23843 -7.83734 0
M  V30 6956 O 352.078 4.19407 -9.29784 0
M  V30 6957 O 351.508 5.24426 -7.09156 0
M  V30 6958 O 352.048 2.7935 -7.20758 0
M  V30 6959 C 352.988 1.7299 -7.50419 0
M  V30 6960 C 352.258 0.406376 -7.57911 0
M  V30 6961 O 352.048 -0.0897726 -6.21935 0
M  V30 6962 C 350.858 0.447224 -8.1878 0
M  V30 6963 O 350.468 -0.825065 -8.71101 0
M  V30 6964 C 349.978 0.783801 -6.99623 0
M  V30 6965 C 350.688 0.0619192 -5.85967 0
M  V30 6966 N 350.638 0.790462 -4.56202 0
M  V30 6967 C 350.718 2.13895 -4.34171 0
M  V30 6968 N 350.648 2.46449 -3.08687 0
M  V30 6969 C 350.498 1.2525 -2.43697 0
M  V30 6970 C 350.368 0.914535 -1.07318 0
M  V30 6971 N 350.358 1.80782 -0.0887348 0
M  V30 6972 N 350.248 -0.386745 -0.768133 0
M  V30 6973 C 350.258 -1.28096 -1.75159 0
M  V30 6974 N 350.378 -1.09708 -3.04861 0
M  V30 6975 C 350.498 0.214857 -3.32306 0
M  V30 6976 H 353.477 1.93423 -8.4679 0
M  V30 6977 H 353.749 1.68852 -6.70877 0
M  V30 6978 H 352.881 -0.289041 -8.15388 0
M  V30 6979 H 350.226 -0.927006 -5.72848 0
M  V30 6980 H 349.946 1.86973 -6.82036 0
M  V30 6981 H 348.955 0.403953 -7.13357 0
M  V30 6982 H 350.789 1.20599 -8.97534 0
M  V30 6983 H 350.83 2.86846 -5.14318 0
M  V30 6984 H 350.449 2.81082 -0.302037 0
M  V30 6985 H 350.26 1.49688 0.889064 0
M  V30 6986 H 350.152 -2.31317 -1.43855 0
M  V30 6987 P 348.918 -1.17771 -8.83182 0
M  V30 6988 O 348.698 -2.07206 -9.98732 0
M  V30 6989 O 348.128 0.0743816 -8.81969 0
M  V30 6990 O 348.668 -1.97652 -7.47304 0
M  V30 6991 C 349.608 -3.01133 -7.08783 0
M  V30 6992 C 348.878 -4.12613 -6.37049 0
M  V30 6993 O 348.668 -3.72827 -4.97879 0
M  V30 6994 C 347.478 -4.45085 -6.88694 0
M  V30 6995 O 347.088 -5.7877 -6.5624 0
M  V30 6996 C 346.598 -3.47817 -6.12078 0
M  V30 6997 C 347.308 -3.39414 -4.77697 0
M  V30 6998 N 347.258 -2.04615 -4.15333 0
M  V30 6999 H 350.097 -3.41248 -7.98759 0
M  V30 7000 H 350.369 -2.5837 -6.41742 0
M  V30 7001 H 349.501 -5.02657 -6.42673 0
M  V30 7002 P 345.538 -6.144 -6.45285 0
M  V30 7003 O 345.318 -7.54673 -6.86199 0
M  V30 7004 O 344.748 -5.12391 -7.179 0
M  V30 7005 O 345.288 -5.99236 -4.88467 0
M  V30 7006 C 346.228 -6.60234 -3.96415 0
M  V30 7007 C 345.498 -7.08079 -2.736 0
M  V30 7008 O 345.288 -5.94365 -1.8368 0
M  V30 7009 C 344.098 -7.64886 -2.9555 0
M  V30 7010 O 343.708 -8.5406 -1.90739 0
M  V30 7011 C 343.218 -6.4116 -2.90739 0
M  V30 7012 C 343.928 -5.55375 -1.86963 0
M  V30 7013 N 343.878 -4.09664 -2.15742 0
M  V30 7014 C 343.728 -3.22231 -1.08477 0
M  V30 7015 O 343.638 -3.68951 0.0600489 0
M  V30 7016 N 343.678 -1.76692 -1.48799 0
M  V30 7017 C 343.778 -1.41695 -2.57602 0
M  V30 7018 N 343.728 -0.107296 -2.75791 0
M  V30 7019 C 343.928 -2.29178 -3.69733 0
M  V30 7020 C 343.978 -3.62753 -3.42653 0
M  V30 7021 H 346.718 -7.45488 -4.45578 0
M  V30 7022 H 346.988 -5.86232 -3.67314 0
M  V30 7023 H 346.121 -7.84508 -2.24507 0
M  V30 7024 H 343.466 -5.73556 -0.888715 0
M  V30 7025 H 343.186 -5.9096 -3.88638 0
M  V30 7026 H 342.195 -6.66053 -2.58894 0
M  V30 7027 H 344.029 -8.16339 -3.92049 0
M  V30 7028 H 344.101 -4.33052 -4.24913 0
M  V30 7029 H 343.999 -1.9103 -4.71577 0
M  V30 7030 H 343.611 0.521221 -1.95056 0
M  V30 7031 H 343.807 0.286429 -3.70695 0
M  V30 7032 P 342.158 -8.7635 -1.60911 0
M  V30 7033 O 341.938 -10.1388 -1.11561 0
M  V30 7034 O 341.368 -8.36503 -2.79617 0
M  V30 7035 O 341.908 -7.71806 -0.42951 0
M  V30 7036 C 342.848 -7.67148 0.673689 0
M  V30 7037 C 342.118 -7.33374 1.95559 0
M  V30 7038 O 341.908 -5.88721 2.00726 0
M  V30 7039 C 340.718 -7.92526 2.10483 0
M  V30 7040 O 340.328 -8.02971 3.47653 0
M  V30 7041 C 339.838 -6.89602 1.41652 0
M  V30 7042 C 340.548 -5.59201 1.75185 0
M  V30 7043 N 340.498 -4.58235 0.662552 0
M  V30 7044 H 343.337 -8.65116 0.777161 0
M  V30 7045 H 343.609 -6.90173 0.474152 0
M  V30 7046 H 342.741 -7.66548 2.79458 0
M  V30 7047 P 338.778 -8.03563 3.84925 0
M  V30 7048 O 338.558 -8.85821 5.0569 0
M  V30 7049 O 337.988 -8.41101 2.65469 0
M  V30 7050 O 338.528 -6.4965 4.18908 0
M  V30 7051 C 339.468 -5.81037 5.05421 0
M  V30 7052 C 338.738 -4.78366 5.89277 0
M  V30 7053 O 338.528 -3.58302 5.08433 0
M  V30 7054 C 337.338 -5.17448 6.36119 0
M  V30 7055 O 336.948 -4.45271 7.53232 0
M  V30 7056 C 336.458 -4.74639 5.19936 0
M  V30 7057 C 337.168 -3.49432 4.70418 0
M  V30 7058 N 337.118 -3.31776 3.22945 0
M  V30 7059 H 339.957 -6.54213 5.71376 0
M  V30 7060 H 340.229 -5.30492 4.44033 0
M  V30 7061 H 339.361 -4.55889 6.76652 0
M  V30 7062 P 335.398 -4.23843 7.83734 0
M  V30 7063 O 335.178 -4.19407 9.29784 0
M  V30 7064 O 334.608 -5.24426 7.09156 0
M  V30 7065 O 335.148 -2.7935 7.20758 0
M  V30 7066 C 336.088 -1.7299 7.50419 0
M  V30 7067 C 335.358 -0.406376 7.57911 0
M  V30 7068 O 335.148 0.0897726 6.21935 0
M  V30 7069 C 333.958 -0.447224 8.1878 0
M  V30 7070 O 333.568 0.825065 8.71101 0
M  V30 7071 C 333.078 -0.783801 6.99623 0
M  V30 7072 C 333.788 -0.0619192 5.85967 0
M  V30 7073 N 333.738 -0.790462 4.56202 0
M  V30 7074 C 333.818 -2.13895 4.34171 0
M  V30 7075 N 333.748 -2.46449 3.08687 0
M  V30 7076 C 333.598 -1.2525 2.43697 0
M  V30 7077 C 333.468 -0.914535 1.07318 0
M  V30 7078 N 333.458 -1.80782 0.0887348 0
M  V30 7079 N 333.348 0.386745 0.768133 0
M  V30 7080 C 333.358 1.28096 1.75159 0
M  V30 7081 N 333.478 1.09708 3.04861 0
M  V30 7082 C 333.598 -0.214857 3.32306 0
M  V30 7083 H 336.577 -1.93423 8.4679 0
M  V30 7084 H 336.849 -1.68852 6.70877 0
M  V30 7085 H 335.981 0.289041 8.15388 0
M  V30 7086 H 333.326 0.927006 5.72848 0
M  V30 7087 H 333.046 -1.86973 6.82036 0
M  V30 7088 H 332.055 -0.403953 7.13357 0
M  V30 7089 H 333.889 -1.20599 8.97534 0
M  V30 7090 H 333.93 -2.86846 5.14318 0
M  V30 7091 H 333.549 -2.81082 0.302037 0
M  V30 7092 H 333.36 -1.49688 -0.889064 0
M  V30 7093 H 333.252 2.31317 1.43855 0
M  V30 7094 P 332.018 1.17771 8.83182 0
M  V30 7095 O 331.798 2.07206 9.98732 0
M  V30 7096 O 331.228 -0.0743816 8.81969 0
M  V30 7097 O 331.768 1.97652 7.47304 0
M  V30 7098 C 332.708 3.01133 7.08783 0
M  V30 7099 C 331.978 4.12613 6.37049 0
M  V30 7100 O 331.768 3.72827 4.97879 0
M  V30 7101 C 330.578 4.45085 6.88694 0
M  V30 7102 O 330.188 5.7877 6.5624 0
M  V30 7103 C 329.698 3.47817 6.12078 0
M  V30 7104 C 330.408 3.39414 4.77697 0
M  V30 7105 N 330.358 2.04615 4.15333 0
M  V30 7106 H 333.197 3.41248 7.98759 0
M  V30 7107 H 333.469 2.5837 6.41742 0
M  V30 7108 H 332.601 5.02657 6.42673 0
M  V30 7109 P 328.638 6.144 6.45285 0
M  V30 7110 O 328.418 7.54673 6.86199 0
M  V30 7111 O 327.848 5.12391 7.179 0
M  V30 7112 O 328.388 5.99158 4.88404 0
M  V30 7113 C 329.328 6.60234 3.96415 0
M  V30 7114 C 328.598 7.08259 2.72856 0
M  V30 7115 O 328.388 5.9427 1.83651 0
M  V30 7116 C 327.198 7.64886 2.9555 0
M  V30 7117 O 326.808 8.53963 1.90717 0
M  V30 7118 C 326.318 6.4116 2.90739 0
M  V30 7119 C 327.028 5.55375 1.86963 0
M  V30 7120 N 326.978 4.09664 2.15742 0
M  V30 7121 H 329.817 7.45574 4.45629 0
M  V30 7122 H 330.089 5.86232 3.67314 0
M  V30 7123 H 329.221 7.84412 2.24479 0
M  V30 7124 P 325.258 8.7635 1.60911 0
M  V30 7125 O 325.038 10.1388 1.11561 0
M  V30 7126 O 324.468 8.36503 2.79617 0
M  V30 7127 O 325.008 7.71806 0.42951 0
M  V30 7128 C 325.948 7.67148 -0.673689 0
M  V30 7129 C 325.218 7.33374 -1.95559 0
M  V30 7130 O 325.008 5.88721 -2.00726 0
M  V30 7131 C 323.818 7.92526 -2.10483 0
M  V30 7132 O 323.428 8.02971 -3.47653 0
M  V30 7133 C 322.938 6.89602 -1.41652 0
M  V30 7134 C 323.648 5.59201 -1.75185 0
M  V30 7135 N 323.598 4.58235 -0.662552 0
M  V30 7136 H 326.437 8.65116 -0.777161 0
M  V30 7137 H 326.709 6.90173 -0.474152 0
M  V30 7138 H 325.841 7.66548 -2.79458 0
M  V30 7139 P 321.878 8.03563 -3.84925 0
M  V30 7140 O 321.658 8.85821 -5.0569 0
M  V30 7141 O 321.088 8.41101 -2.65469 0
M  V30 7142 O 321.628 6.4965 -4.18908 0
M  V30 7143 C 322.568 5.81037 -5.05421 0
M  V30 7144 C 321.838 4.78366 -5.89277 0
M  V30 7145 O 321.628 3.58302 -5.08433 0
M  V30 7146 C 320.438 5.17448 -6.36119 0
M  V30 7147 O 320.048 4.45271 -7.53232 0
M  V30 7148 C 319.558 4.74639 -5.19936 0
M  V30 7149 C 320.268 3.49432 -4.70418 0
M  V30 7150 N 320.218 3.31776 -3.22945 0
M  V30 7151 H 323.057 6.54213 -5.71376 0
M  V30 7152 H 323.329 5.30492 -4.44033 0
M  V30 7153 H 322.461 4.55889 -6.76652 0
M  V30 7154 P 318.498 4.23843 -7.83734 0
M  V30 7155 O 318.278 4.19407 -9.29784 0
M  V30 7156 O 317.708 5.24426 -7.09156 0
M  V30 7157 O 318.248 2.7935 -7.20758 0
M  V30 7158 C 319.188 1.7299 -7.50419 0
M  V30 7159 C 318.458 0.406376 -7.57911 0
M  V30 7160 O 318.248 -0.0897726 -6.21935 0
M  V30 7161 C 317.058 0.447224 -8.1878 0
M  V30 7162 O 316.668 -0.825065 -8.71101 0
M  V30 7163 C 316.178 0.783801 -6.99623 0
M  V30 7164 C 316.888 0.0619192 -5.85967 0
M  V30 7165 N 316.838 0.790462 -4.56202 0
M  V30 7166 H 319.677 1.93423 -8.4679 0
M  V30 7167 H 319.949 1.68852 -6.70877 0
M  V30 7168 H 319.081 -0.289041 -8.15388 0
M  V30 7169 H 316.426 -0.927006 -5.72848 0
M  V30 7170 H 316.146 1.86973 -6.82036 0
M  V30 7171 H 315.155 0.403953 -7.13357 0
M  V30 7172 H 316.989 1.20599 -8.97534 0
M  V30 7173 P 315.118 -1.17771 -8.83182 0
M  V30 7174 O 314.898 -2.07206 -9.98732 0
M  V30 7175 O 314.328 0.0743816 -8.81969 0
M  V30 7176 O 314.868 -1.97652 -7.47304 0
M  V30 7177 C 315.808 -3.01133 -7.08783 0
M  V30 7178 C 315.078 -4.12613 -6.37049 0
M  V30 7179 O 314.868 -3.72827 -4.97879 0
M  V30 7180 C 313.678 -4.45085 -6.88694 0
M  V30 7181 O 313.288 -5.7877 -6.5624 0
M  V30 7182 C 312.798 -3.47817 -6.12078 0
M  V30 7183 C 313.508 -3.39414 -4.77697 0
M  V30 7184 N 313.458 -2.04615 -4.15333 0
M  V30 7185 C 313.538 -0.803897 -4.75249 0
M  V30 7186 N 313.458 0.197615 -3.91502 0
M  V30 7187 C 313.318 -0.413002 -2.66823 0
M  V30 7188 C 313.188 0.157221 -1.38007 0
M  V30 7189 N 313.068 -0.833136 -0.390236 0
M  V30 7190 C 313.068 -2.19402 -0.623885 0
M  V30 7191 N 312.938 -2.97622 0.449677 0
M  V30 7192 N 313.198 -2.73005 -1.83601 0
M  V30 7193 C 313.318 -1.78786 -2.80935 0
M  V30 7194 H 316.297 -3.41248 -7.98759 0
M  V30 7195 H 316.569 -2.5837 -6.41742 0
M  V30 7196 H 315.701 -5.02657 -6.42673 0
M  V30 7197 P 311.738 -6.144 -6.45285 0
M  V30 7198 O 311.518 -7.54673 -6.86199 0
M  V30 7199 O 310.948 -5.12391 -7.179 0
M  V30 7200 O 311.488 -5.99158 -4.88404 0
M  V30 7201 C 312.428 -6.60234 -3.96415 0
M  V30 7202 C 311.698 -7.08259 -2.72856 0
M  V30 7203 O 311.488 -5.9427 -1.83651 0
M  V30 7204 C 310.298 -7.64886 -2.9555 0
M  V30 7205 O 309.908 -8.53963 -1.90717 0
M  V30 7206 C 309.418 -6.4116 -2.90739 0
M  V30 7207 C 310.128 -5.55375 -1.86963 0
M  V30 7208 N 310.078 -4.09664 -2.15742 0
M  V30 7209 H 312.917 -7.45574 -4.45629 0
M  V30 7210 H 313.189 -5.86232 -3.67314 0
M  V30 7211 H 312.321 -7.84412 -2.24479 0
M  V30 7212 P 308.358 -8.7635 -1.60911 0
M  V30 7213 O 308.138 -10.1388 -1.11561 0
M  V30 7214 O 307.568 -8.36503 -2.79617 0
M  V30 7215 O 308.108 -7.71806 -0.42951 0
M  V30 7216 C 309.048 -7.67148 0.673689 0
M  V30 7217 C 308.318 -7.33374 1.95559 0
M  V30 7218 O 308.108 -5.88721 2.00726 0
M  V30 7219 C 306.918 -7.92526 2.10483 0
M  V30 7220 O 306.528 -8.02971 3.47653 0
M  V30 7221 C 306.038 -6.89602 1.41652 0
M  V30 7222 C 306.748 -5.59201 1.75185 0
M  V30 7223 N 306.698 -4.58235 0.662552 0
M  V30 7224 H 309.537 -8.65116 0.777161 0
M  V30 7225 H 309.809 -6.90173 0.474152 0
M  V30 7226 H 308.941 -7.66548 2.79458 0
M  V30 7227 P 304.978 -8.03563 3.84925 0
M  V30 7228 O 304.758 -8.85821 5.0569 0
M  V30 7229 O 304.188 -8.41101 2.65469 0
M  V30 7230 O 304.728 -6.4965 4.18908 0
M  V30 7231 C 305.668 -5.81037 5.05421 0
M  V30 7232 C 304.938 -4.78366 5.89277 0
M  V30 7233 O 304.728 -3.58302 5.08433 0
M  V30 7234 C 303.538 -5.17448 6.36119 0
M  V30 7235 O 303.148 -4.45271 7.53232 0
M  V30 7236 C 302.658 -4.74639 5.19936 0
M  V30 7237 C 303.368 -3.49432 4.70418 0
M  V30 7238 N 303.318 -3.31776 3.22945 0
M  V30 7239 H 306.157 -6.54213 5.71376 0
M  V30 7240 H 306.429 -5.30492 4.44033 0
M  V30 7241 H 305.561 -4.55889 6.76652 0
M  V30 7242 P 301.598 -4.23843 7.83734 0
M  V30 7243 O 301.378 -4.19407 9.29784 0
M  V30 7244 O 300.808 -5.24426 7.09156 0
M  V30 7245 O 301.348 -2.7935 7.20758 0
M  V30 7246 C 302.288 -1.7299 7.50419 0
M  V30 7247 C 301.558 -0.406376 7.57911 0
M  V30 7248 O 301.348 0.0897726 6.21935 0
M  V30 7249 C 300.158 -0.447224 8.1878 0
M  V30 7250 O 299.768 0.825065 8.71101 0
M  V30 7251 C 299.278 -0.783801 6.99623 0
M  V30 7252 C 299.988 -0.0619192 5.85967 0
M  V30 7253 N 299.938 -0.7859 4.56281 0
M  V30 7254 H 302.777 -1.93423 8.4679 0
M  V30 7255 H 303.049 -1.68181 6.71046 0
M  V30 7256 H 302.181 0.289041 8.15388 0
M  V30 7257 P 298.218 1.17771 8.83182 0
M  V30 7258 O 297.998 2.07206 9.98732 0
M  V30 7259 O 297.428 -0.0743816 8.81969 0
M  V30 7260 O 297.968 1.97652 7.47304 0
M  V30 7261 C 298.908 3.01133 7.08783 0
M  V30 7262 C 298.178 4.12613 6.37049 0
M  V30 7263 O 297.968 3.72827 4.97879 0
M  V30 7264 C 296.778 4.45085 6.88694 0
M  V30 7265 O 296.388 5.7877 6.5624 0
M  V30 7266 C 295.898 3.47817 6.12078 0
M  V30 7267 C 296.608 3.39414 4.77697 0
M  V30 7268 N 296.558 2.04199 4.15538 0
M  V30 7269 H 299.397 3.41248 7.98759 0
M  V30 7270 H 299.669 2.57728 6.42 0
M  V30 7271 H 298.801 5.02657 6.42673 0
M  V30 7272 H 296.146 4.11708 4.08956 0
M  V30 7273 H 295.866 2.49626 6.61679 0
M  V30 7274 H 294.875 3.8662 6.00862 0
M  V30 7275 H 296.709 4.29991 7.97006 0
M  V30 7276 P 294.838 6.144 6.45285 0
M  V30 7277 O 294.618 7.54673 6.86199 0
M  V30 7278 O 294.048 5.12391 7.179 0
M  V30 7279 O 294.588 5.99158 4.88404 0
M  V30 7280 C 295.528 6.60234 3.96415 0
M  V30 7281 C 294.798 7.08259 2.72856 0
M  V30 7282 O 294.588 5.9427 1.83651 0
M  V30 7283 C 293.398 7.64886 2.9555 0
M  V30 7284 O 293.008 8.53963 1.90717 0
M  V30 7285 C 292.518 6.4116 2.90739 0
M  V30 7286 C 293.228 5.55375 1.86963 0
M  V30 7287 N 293.178 4.09664 2.15742 0
M  V30 7288 H 296.017 7.45574 4.45629 0
M  V30 7289 H 296.289 5.86232 3.67314 0
M  V30 7290 H 295.421 7.84412 2.24479 0
M  V30 7291 P 291.458 8.7635 1.60911 0
M  V30 7292 O 291.238 10.1388 1.11561 0
M  V30 7293 O 290.668 8.36503 2.79617 0
M  V30 7294 O 291.208 7.71806 0.42951 0
M  V30 7295 C 292.148 7.67148 -0.673689 0
M  V30 7296 C 291.418 7.33374 -1.95559 0
M  V30 7297 O 291.208 5.88721 -2.00726 0
M  V30 7298 C 290.018 7.92526 -2.10483 0
M  V30 7299 O 289.628 8.02971 -3.47653 0
M  V30 7300 C 289.138 6.89602 -1.41652 0
M  V30 7301 C 289.848 5.59201 -1.75185 0
M  V30 7302 N 289.798 4.58235 -0.662552 0
M  V30 7303 H 292.637 8.65116 -0.777161 0
M  V30 7304 H 292.909 6.90173 -0.474152 0
M  V30 7305 H 292.041 7.66548 -2.79458 0
M  V30 7306 P 288.078 8.03563 -3.84925 0
M  V30 7307 O 287.858 8.85821 -5.0569 0
M  V30 7308 O 287.288 8.41101 -2.65469 0
M  V30 7309 O 287.828 6.4965 -4.18908 0
M  V30 7310 C 288.768 5.81037 -5.05421 0
M  V30 7311 C 288.038 4.78366 -5.89277 0
M  V30 7312 O 287.828 3.58302 -5.08433 0
M  V30 7313 C 286.638 5.17448 -6.36119 0
M  V30 7314 O 286.248 4.45271 -7.53232 0
M  V30 7315 C 285.758 4.74639 -5.19936 0
M  V30 7316 C 286.468 3.49432 -4.70418 0
M  V30 7317 N 286.418 3.32099 -3.22613 0
M  V30 7318 C 286.498 4.28245 -2.25527 0
M  V30 7319 N 286.428 3.80823 -1.04874 0
M  V30 7320 C 286.278 2.44571 -1.23535 0
M  V30 7321 C 286.148 1.37068 -0.330675 0
M  V30 7322 N 286.138 1.51472 0.990824 0
M  V30 7323 N 286.028 0.138614 -0.848756 0
M  V30 7324 C 286.038 -0.00675923 -2.16999 0
M  V30 7325 N 286.158 0.904372 -3.11122 0
M  V30 7326 C 286.278 2.12707 -2.56212 0
M  V30 7327 H 289.257 6.54213 -5.71376 0
M  V30 7328 H 289.529 5.30936 -4.43503 0
M  V30 7329 H 288.661 4.55889 -6.76652 0
M  V30 7330 H 286.006 2.61715 -5.17932 0
M  V30 7331 H 285.726 5.52155 -4.41878 0
M  V30 7332 H 284.735 4.51981 -5.53374 0
M  V30 7333 H 286.569 6.25124 -6.55234 0
M  V30 7334 H 286.61 5.34372 -2.47488 0
M  V30 7335 H 286.229 2.45153 1.4078 0
M  V30 7336 H 286.04 0.688422 1.59911 0
M  V30 7337 H 285.932 -1.02584 -2.52346 0
M  V30 7338 P 284.698 4.23843 -7.83734 0
M  V30 7339 O 284.478 4.19407 -9.29784 0
M  V30 7340 O 283.908 5.24426 -7.09156 0
M  V30 7341 O 284.448 2.7935 -7.20758 0
M  V30 7342 C 285.388 1.72945 -7.50224 0
M  V30 7343 C 284.658 0.406376 -7.57911 0
M  V30 7344 O 284.448 -0.0897726 -6.21935 0
M  V30 7345 C 283.258 0.438983 -8.18724 0
M  V30 7346 O 282.868 -0.825065 -8.71101 0
M  V30 7347 C 282.378 0.783689 -6.99524 0
M  V30 7348 C 283.088 0.0619086 -5.85867 0
M  V30 7349 N 283.038 0.78573 -4.56183 0
M  V30 7350 C 282.888 0.0292889 -3.41887 0
M  V30 7351 O 282.798 -1.18445 -3.4419 0
M  V30 7352 N 282.848 0.744061 -2.23964 0
M  V30 7353 C 282.938 2.10932 -2.10362 0
M  V30 7354 O 282.888 2.64117 -0.98825 0
M  V30 7355 C 283.088 2.8202 -3.34994 0
M  V30 7356 C 283.198 4.31095 -3.25037 0
M  V30 7357 C 283.138 2.15547 -4.52261 0
M  V30 7358 H 285.879 1.93379 -8.46595 0
M  V30 7359 H 286.148 1.68132 -6.70852 0
M  V30 7360 H 285.281 -0.289041 -8.15388 0
M  V30 7361 H 282.626 -0.926847 -5.72749 0
M  V30 7362 H 282.347 1.86973 -6.82036 0
M  V30 7363 H 281.355 0.403896 -7.13257 0
M  V30 7364 H 283.189 1.20585 -8.97435 0
M  V30 7365 H 283.26 2.71231 -5.45042 0
M  V30 7366 H 282.23 4.76966 -3.49992 0
M  V30 7367 H 283.967 4.67047 -3.95024 0
M  V30 7368 H 283.479 4.58996 -2.22312 0
M  V30 7369 H 282.743 0.214893 -1.39758 0
M  V30 7370 P 281.318 -1.17771 -8.83182 0
M  V30 7371 O 281.098 -2.07206 -9.98732 0
M  V30 7372 O 280.528 0.0743816 -8.81969 0
M  V30 7373 O 281.068 -1.97652 -7.47304 0
M  V30 7374 C 282.008 -3.01133 -7.08783 0
M  V30 7375 C 281.278 -4.12613 -6.37049 0
M  V30 7376 O 281.068 -3.72827 -4.97879 0
M  V30 7377 C 279.878 -4.45085 -6.88694 0
M  V30 7378 O 279.488 -5.7877 -6.5624 0
M  V30 7379 C 278.998 -3.47817 -6.12078 0
M  V30 7380 C 279.708 -3.39414 -4.77697 0
M  V30 7381 N 279.658 -2.04615 -4.15333 0
M  V30 7382 H 282.497 -3.41248 -7.98759 0
M  V30 7383 H 282.769 -2.5837 -6.41742 0
M  V30 7384 H 281.901 -5.02657 -6.42673 0
M  V30 7385 P 277.938 -6.144 -6.45285 0
M  V30 7386 O 277.718 -7.54673 -6.86199 0
M  V30 7387 O 277.148 -5.12391 -7.179 0
M  V30 7388 O 277.688 -5.99236 -4.88467 0
M  V30 7389 C 278.628 -6.60234 -3.96415 0
M  V30 7390 C 277.898 -7.08079 -2.736 0
M  V30 7391 O 277.688 -5.94365 -1.8368 0
M  V30 7392 C 276.498 -7.64886 -2.9555 0
M  V30 7393 O 276.108 -8.5406 -1.90739 0
M  V30 7394 C 275.618 -6.4116 -2.90739 0
M  V30 7395 C 276.328 -5.55375 -1.86963 0
M  V30 7396 N 276.278 -4.09664 -2.15742 0
M  V30 7397 C 276.128 -3.22231 -1.08477 0
M  V30 7398 O 276.038 -3.68951 0.0600489 0
M  V30 7399 N 276.078 -1.76692 -1.48799 0
M  V30 7400 C 276.178 -1.41695 -2.57602 0
M  V30 7401 N 276.128 -0.107296 -2.75791 0
M  V30 7402 C 276.328 -2.29178 -3.69733 0
M  V30 7403 C 276.378 -3.62753 -3.42653 0
M  V30 7404 H 279.118 -7.45488 -4.45578 0
M  V30 7405 H 279.388 -5.86232 -3.67314 0
M  V30 7406 H 278.521 -7.84508 -2.24507 0
M  V30 7407 H 275.866 -5.73556 -0.888715 0
M  V30 7408 H 275.586 -5.9096 -3.88638 0
M  V30 7409 H 274.595 -6.66053 -2.58894 0
M  V30 7410 H 276.429 -8.16339 -3.92049 0
M  V30 7411 H 276.501 -4.33052 -4.24913 0
M  V30 7412 H 276.399 -1.9103 -4.71577 0
M  V30 7413 H 276.011 0.521221 -1.95056 0
M  V30 7414 H 276.207 0.286429 -3.70695 0
M  V30 7415 P 274.558 -8.7635 -1.60911 0
M  V30 7416 O 274.338 -10.1388 -1.11561 0
M  V30 7417 O 273.768 -8.36503 -2.79617 0
M  V30 7418 O 274.308 -7.71806 -0.42951 0
M  V30 7419 C 275.248 -7.67148 0.673689 0
M  V30 7420 C 274.518 -7.33374 1.95559 0
M  V30 7421 O 274.308 -5.88721 2.00726 0
M  V30 7422 C 273.118 -7.92526 2.10483 0
M  V30 7423 O 272.728 -8.02971 3.47653 0
M  V30 7424 C 272.238 -6.89602 1.41652 0
M  V30 7425 C 272.948 -5.59201 1.75185 0
M  V30 7426 N 272.898 -4.58235 0.662552 0
M  V30 7427 H 275.737 -8.65116 0.777161 0
M  V30 7428 H 276.009 -6.90173 0.474152 0
M  V30 7429 H 275.141 -7.66548 2.79458 0
M  V30 7430 P 271.178 -8.03563 3.84925 0
M  V30 7431 O 270.958 -8.85821 5.0569 0
M  V30 7432 O 270.388 -8.41101 2.65469 0
M  V30 7433 O 270.928 -6.4965 4.18908 0
M  V30 7434 C 271.868 -5.80886 5.05289 0
M  V30 7435 C 271.138 -4.78366 5.89277 0
M  V30 7436 O 270.928 -3.58302 5.08433 0
M  V30 7437 C 269.738 -5.16748 6.36559 0
M  V30 7438 O 269.348 -4.45271 7.53232 0
M  V30 7439 C 268.858 -4.74572 5.19863 0
M  V30 7440 C 269.568 -3.49373 4.70338 0
M  V30 7441 N 269.518 -3.31704 3.22876 0
M  V30 7442 C 269.368 -2.03326 2.74871 0
M  V30 7443 O 269.278 -1.06486 3.48076 0
M  V30 7444 N 269.328 -1.91838 1.37456 0
M  V30 7445 C 269.418 -2.94295 0.462035 0
M  V30 7446 C 269.568 -4.25064 1.05249 0
M  V30 7447 C 269.618 -4.40214 2.39192 0
M  V30 7448 H 272.359 -6.54063 5.71245 0
M  V30 7449 H 272.628 -5.30339 4.43905 0
M  V30 7450 H 271.761 -4.55889 6.76652 0
M  V30 7451 H 269.106 -2.6167 5.17842 0
M  V30 7452 H 268.827 -5.52155 4.41878 0
M  V30 7453 H 267.835 -4.51918 5.53297 0
M  V30 7454 H 269.669 -6.25055 6.55162 0
M  V30 7455 H 269.74 -5.39798 2.81523 0
M  V30 7456 P 267.798 -4.23843 7.83734 0
M  V30 7457 O 267.578 -4.19407 9.29784 0
M  V30 7458 O 267.008 -5.24426 7.09156 0
M  V30 7459 O 267.548 -2.7935 7.20758 0
M  V30 7460 C 268.488 -1.7299 7.50419 0
M  V30 7461 C 267.758 -0.406376 7.57911 0
M  V30 7462 O 267.548 0.0897726 6.21935 0
M  V30 7463 C 266.358 -0.447224 8.1878 0
M  V30 7464 O 265.968 0.825065 8.71101 0
M  V30 7465 C 265.478 -0.783801 6.99623 0
M  V30 7466 C 266.188 -0.0619192 5.85967 0
M  V30 7467 N 266.138 -0.7859 4.56281 0
M  V30 7468 H 268.977 -1.93423 8.4679 0
M  V30 7469 H 269.249 -1.68181 6.71046 0
M  V30 7470 H 268.381 0.289041 8.15388 0
M  V30 7471 P 264.418 1.17771 8.83182 0
M  V30 7472 O 264.198 2.07206 9.98732 0
M  V30 7473 O 263.628 -0.0743816 8.81969 0
M  V30 7474 O 264.168 1.97652 7.47304 0
M  V30 7475 C 265.108 3.01133 7.08783 0
M  V30 7476 C 264.378 4.12613 6.37049 0
M  V30 7477 O 264.168 3.72827 4.97879 0
M  V30 7478 C 262.978 4.45085 6.88694 0
M  V30 7479 O 262.588 5.7877 6.5624 0
M  V30 7480 C 262.098 3.47817 6.12078 0
M  V30 7481 C 262.808 3.39414 4.77697 0
M  V30 7482 N 262.758 2.04199 4.15538 0
M  V30 7483 H 265.597 3.41248 7.98759 0
M  V30 7484 H 265.869 2.57728 6.42 0
M  V30 7485 H 265.001 5.02657 6.42673 0
M  V30 7486 H 262.346 4.11708 4.08956 0
M  V30 7487 H 262.066 2.49626 6.61679 0
M  V30 7488 H 261.075 3.8662 6.00862 0
M  V30 7489 H 262.909 4.29991 7.97006 0
M  V30 7490 P 261.038 6.144 6.45285 0
M  V30 7491 O 260.818 7.54673 6.86199 0
M  V30 7492 O 260.248 5.12391 7.179 0
M  V30 7493 O 260.788 5.99158 4.88404 0
M  V30 7494 C 261.728 6.60234 3.96415 0
M  V30 7495 C 260.998 7.08259 2.72856 0
M  V30 7496 O 260.788 5.9427 1.83651 0
M  V30 7497 C 259.598 7.64886 2.9555 0
M  V30 7498 O 259.208 8.53963 1.90717 0
M  V30 7499 C 258.718 6.4116 2.90739 0
M  V30 7500 C 259.428 5.55375 1.86963 0
M  V30 7501 N 259.378 4.09664 2.15742 0
M  V30 7502 H 262.217 7.45574 4.45629 0
M  V30 7503 H 262.489 5.86232 3.67314 0
M  V30 7504 H 261.621 7.84412 2.24479 0
M  V30 7505 P 257.658 8.7635 1.60911 0
M  V30 7506 O 257.438 10.1388 1.11561 0
M  V30 7507 O 256.868 8.36503 2.79617 0
M  V30 7508 O 257.408 7.71806 0.42951 0
M  V30 7509 C 258.348 7.66948 -0.673514 0
M  V30 7510 C 257.618 7.33374 -1.95559 0
M  V30 7511 O 257.408 5.88721 -2.00726 0
M  V30 7512 C 256.218 7.92218 -2.1125 0
M  V30 7513 O 255.828 8.02971 -3.47653 0
M  V30 7514 C 255.338 6.89504 -1.41631 0
M  V30 7515 C 256.048 5.59106 -1.75155 0
M  V30 7516 N 255.998 4.58136 -0.662409 0
M  V30 7517 C 255.848 3.26059 -1.02863 0
M  V30 7518 O 255.758 2.90743 -2.19009 0
M  V30 7519 N 255.808 2.35995 0.0155585 0
M  V30 7520 C 255.898 2.65248 1.35603 0
M  V30 7521 O 255.848 1.75605 2.20651 0
M  V30 7522 C 256.048 4.05747 1.64698 0
M  V30 7523 C 256.158 4.42345 3.09553 0
M  V30 7524 C 256.098 4.96734 0.652411 0
M  V30 7525 H 258.839 8.64917 -0.776982 0
M  V30 7526 H 259.108 6.89974 -0.474015 0
M  V30 7527 H 258.241 7.66548 -2.79458 0
M  V30 7528 H 255.586 5.16076 -2.65138 0
M  V30 7529 H 255.307 7.06433 -0.329384 0
M  V30 7530 H 254.315 6.90829 -1.81996 0
M  V30 7531 H 256.149 8.90774 -1.62639 0
M  V30 7532 H 256.22 6.02181 0.895285 0
M  V30 7533 H 255.19 4.80252 3.45468 0
M  V30 7534 H 256.927 5.20015 3.22119 0
M  V30 7535 H 256.439 3.53269 3.67833 0
M  V30 7536 H 255.703 1.39558 -0.227499 0
M  V30 7537 P 254.279 8.03563 -3.84925 0
M  V30 7538 O 254.059 8.85821 -5.0569 0
M  V30 7539 O 253.489 8.41101 -2.65469 0
M  V30 7540 O 254.029 6.4965 -4.18908 0
M  V30 7541 C 254.969 5.81037 -5.05421 0
M  V30 7542 C 254.239 4.78366 -5.89277 0
M  V30 7543 O 254.029 3.58302 -5.08433 0
M  V30 7544 C 252.839 5.17448 -6.36119 0
M  V30 7545 O 252.449 4.45271 -7.53232 0
M  V30 7546 C 251.959 4.74639 -5.19936 0
M  V30 7547 C 252.669 3.49432 -4.70418 0
M  V30 7548 N 252.619 3.31776 -3.22945 0
M  V30 7549 H 255.458 6.54213 -5.71376 0
M  V30 7550 H 255.73 5.30492 -4.44033 0
M  V30 7551 H 254.862 4.55889 -6.76652 0
M  V30 7552 P 250.899 4.23843 -7.83734 0
M  V30 7553 O 250.679 4.19407 -9.29784 0
M  V30 7554 O 250.109 5.24426 -7.09156 0
M  V30 7555 O 250.649 2.79386 -7.20852 0
M  V30 7556 C 251.589 1.7299 -7.50419 0
M  V30 7557 C 250.859 0.41401 -7.5797 0
M  V30 7558 O 250.649 -0.089787 -6.22035 0
M  V30 7559 C 249.459 0.447224 -8.1878 0
M  V30 7560 O 249.069 -0.825159 -8.71201 0
M  V30 7561 C 248.579 0.783801 -6.99623 0
M  V30 7562 C 249.289 0.0619192 -5.85967 0
M  V30 7563 N 249.239 0.7859 -4.56281 0
M  V30 7564 C 249.089 0.0359258 -3.39981 0
M  V30 7565 O 248.999 -1.19723 -3.49038 0
M  V30 7566 N 249.039 0.869151 -2.14025 0
M  V30 7567 C 249.139 2.01207 -2.14363 0
M  V30 7568 N 249.089 2.58978 -0.954287 0
M  V30 7569 C 249.289 2.80817 -3.32215 0
M  V30 7570 C 249.339 2.13785 -4.50884 0
M  V30 7571 H 252.079 1.93401 -8.46693 0
M  V30 7572 H 252.349 1.68181 -6.71046 0
M  V30 7573 H 251.482 -0.289076 -8.15488 0
M  V30 7574 H 248.827 -0.927166 -5.72947 0
M  V30 7575 H 248.547 1.87 -6.82132 0
M  V30 7576 H 247.556 0.404009 -7.13457 0
M  V30 7577 H 249.39 1.20599 -8.97534 0
M  V30 7578 H 249.462 2.70295 -5.43162 0
M  V30 7579 H 249.36 3.89465 -3.27406 0
M  V30 7580 H 248.972 2.01616 -0.107046 0
M  V30 7581 H 249.168 3.61403 -0.873101 0
M  V30 7582 P 247.519 -1.17771 -8.83182 0
M  V30 7583 O 247.299 -2.07206 -9.98732 0
M  V30 7584 O 246.729 0.0743816 -8.81969 0
M  V30 7585 O 247.269 -1.97652 -7.47304 0
M  V30 7586 C 248.209 -3.01133 -7.08783 0
M  V30 7587 C 247.479 -4.12613 -6.37049 0
M  V30 7588 O 247.269 -3.72827 -4.97879 0
M  V30 7589 C 246.079 -4.45085 -6.88694 0
M  V30 7590 O 245.689 -5.7877 -6.5624 0
M  V30 7591 C 245.199 -3.47817 -6.12078 0
M  V30 7592 C 245.909 -3.39414 -4.77697 0
M  V30 7593 N 245.859 -2.04615 -4.15333 0
M  V30 7594 H 248.698 -3.41248 -7.98759 0
M  V30 7595 H 248.97 -2.5837 -6.41742 0
M  V30 7596 H 248.102 -5.02657 -6.42673 0
M  V30 7597 P 244.139 -6.144 -6.45285 0
M  V30 7598 O 243.919 -7.54673 -6.86199 0
M  V30 7599 O 243.349 -5.12391 -7.179 0
M  V30 7600 O 243.889 -5.99158 -4.88404 0
M  V30 7601 C 244.829 -6.60062 -3.96313 0
M  V30 7602 C 244.099 -7.08259 -2.72856 0
M  V30 7603 O 243.889 -5.9427 -1.83651 0
M  V30 7604 C 242.699 -7.65087 -2.94749 0
M  V30 7605 O 242.309 -8.53963 -1.90717 0
M  V30 7606 C 241.819 -6.41069 -2.90698 0
M  V30 7607 C 242.529 -5.5528 -1.86931 0
M  V30 7608 N 242.479 -4.09575 -2.15696 0
M  V30 7609 C 242.329 -3.24249 -1.08435 0
M  V30 7610 O 242.239 -3.63946 0.0628747 0
M  V30 7611 N 242.289 -1.90009 -1.39973 0
M  V30 7612 C 242.379 -1.34884 -2.65614 0
M  V30 7613 O 242.329 -0.123716 -2.81728 0
M  V30 7614 C 242.529 -2.3145 -3.71736 0
M  V30 7615 C 242.639 -1.75913 -5.10438 0
M  V30 7616 C 242.579 -3.63518 -3.44754 0
M  V30 7617 H 245.32 -7.45402 -4.45526 0
M  V30 7618 H 245.589 -5.86062 -3.67208 0
M  V30 7619 H 244.722 -7.84412 -2.24479 0
M  V30 7620 H 242.067 -5.73358 -0.888409 0
M  V30 7621 H 241.788 -5.90877 -3.88583 0
M  V30 7622 H 240.796 -6.65867 -2.58821 0
M  V30 7623 H 242.63 -8.16248 -3.92006 0
M  V30 7624 H 242.701 -4.34551 -4.26383 0
M  V30 7625 H 241.671 -1.85471 -5.61775 0
M  V30 7626 H 243.408 -2.31364 -5.66257 0
M  V30 7627 H 242.92 -0.695936 -5.05229 0
M  V30 7628 H 242.184 -1.26277 -0.63625 0
M  V30 7629 P 240.759 -8.7635 -1.60911 0
M  V30 7630 O 240.539 -10.1388 -1.11561 0
M  V30 7631 O 239.969 -8.36503 -2.79617 0
M  V30 7632 O 240.509 -7.71806 -0.42951 0
M  V30 7633 C 241.449 -7.67148 0.673689 0
M  V30 7634 C 240.719 -7.33374 1.95559 0
M  V30 7635 O 240.509 -5.88721 2.00726 0
M  V30 7636 C 239.319 -7.92526 2.10483 0
M  V30 7637 O 238.929 -8.02971 3.47653 0
M  V30 7638 C 238.439 -6.89602 1.41652 0
M  V30 7639 C 239.149 -5.59201 1.75185 0
M  V30 7640 N 239.099 -4.58235 0.662552 0
M  V30 7641 H 241.938 -8.65116 0.777161 0
M  V30 7642 H 242.21 -6.90173 0.474152 0
M  V30 7643 H 241.342 -7.66548 2.79458 0
M  V30 7644 P 237.379 -8.03563 3.84925 0
M  V30 7645 O 237.159 -8.85821 5.0569 0
M  V30 7646 O 236.589 -8.41101 2.65469 0
M  V30 7647 O 237.129 -6.49734 4.18962 0
M  V30 7648 C 238.069 -5.81037 5.05421 0
M  V30 7649 C 237.339 -4.79018 5.88876 0
M  V30 7650 O 237.129 -3.58359 5.08515 0
M  V30 7651 C 235.939 -5.17448 6.36119 0
M  V30 7652 O 235.549 -4.45322 7.53318 0
M  V30 7653 C 235.059 -4.74639 5.19936 0
M  V30 7654 C 235.769 -3.49432 4.70418 0
M  V30 7655 N 235.719 -3.31776 3.22945 0
M  V30 7656 C 235.569 -2.02742 2.72939 0
M  V30 7657 O 235.479 -1.08301 3.52749 0
M  V30 7658 N 235.519 -1.96117 1.22063 0
M  V30 7659 C 235.619 -2.8878 0.551566 0
M  V30 7660 N 235.569 -2.65609 -0.750198 0
M  V30 7661 C 235.769 -4.22457 1.03707 0
M  V30 7662 C 235.819 -4.37979 2.39113 0
M  V30 7663 H 238.559 -6.54138 5.7131 0
M  V30 7664 H 238.829 -5.30492 4.44033 0
M  V30 7665 H 237.962 -4.55945 6.76735 0
M  V30 7666 H 235.307 -2.6176 5.18021 0
M  V30 7667 H 235.027 -5.52233 4.41941 0
M  V30 7668 H 234.036 -4.52045 5.53452 0
M  V30 7669 H 235.87 -6.25124 6.55234 0
M  V30 7670 H 235.942 -5.37936 2.80552 0
M  V30 7671 H 235.84 -5.07528 0.359553 0
M  V30 7672 H 235.452 -1.69403 -1.09847 0
M  V30 7673 H 235.648 -3.43701 -1.41792 0
M  V30 7674 P 233.999 -4.23843 7.83734 0
M  V30 7675 O 233.779 -4.19407 9.29784 0
M  V30 7676 O 233.209 -5.24426 7.09156 0
M  V30 7677 O 233.749 -2.7935 7.20758 0
M  V30 7678 C 234.689 -1.7299 7.50419 0
M  V30 7679 C 233.959 -0.406376 7.57911 0
M  V30 7680 O 233.749 0.0897726 6.21935 0
M  V30 7681 C 232.559 -0.447224 8.1878 0
M  V30 7682 O 232.169 0.825065 8.71101 0
M  V30 7683 C 231.679 -0.783801 6.99623 0
M  V30 7684 C 232.389 -0.0619192 5.85967 0
M  V30 7685 N 232.339 -0.7859 4.56281 0
M  V30 7686 H 235.178 -1.93423 8.4679 0
M  V30 7687 H 235.45 -1.68181 6.71046 0
M  V30 7688 H 234.582 0.289041 8.15388 0
M  V30 7689 P 230.619 1.17771 8.83182 0
M  V30 7690 O 230.399 2.07206 9.98732 0
M  V30 7691 O 229.829 -0.0743816 8.81969 0
M  V30 7692 O 230.369 1.97678 7.474 0
M  V30 7693 C 231.309 3.01133 7.08783 0
M  V30 7694 C 230.579 4.1203 6.37546 0
M  V30 7695 O 230.369 3.72887 4.9796 0
M  V30 7696 C 229.179 4.45085 6.88694 0
M  V30 7697 O 228.789 5.78836 6.56315 0
M  V30 7698 C 228.299 3.47817 6.12078 0
M  V30 7699 C 229.009 3.39414 4.77697 0
M  V30 7700 N 228.959 2.04615 4.15333 0
M  V30 7701 C 228.809 1.96929 2.77162 0
M  V30 7702 O 228.719 3.02017 2.12006 0
M  V30 7703 N 228.759 0.55485 2.24237 0
M  V30 7704 C 228.859 -0.367808 2.9169 0
M  V30 7705 N 228.809 -1.53426 2.29427 0
M  V30 7706 C 229.009 -0.319148 4.33828 0
M  V30 7707 C 229.059 0.920672 4.90433 0
M  V30 7708 H 231.799 3.41209 7.98667 0
M  V30 7709 H 232.069 2.5837 6.41742 0
M  V30 7710 H 231.202 5.02718 6.42752 0
M  V30 7711 H 228.547 4.11779 4.09026 0
M  V30 7712 H 228.267 2.49661 6.61772 0
M  V30 7713 H 227.276 3.86674 6.00946 0
M  V30 7714 H 229.11 4.29991 7.97006 0
M  V30 7715 H 229.182 1.00589 5.98303 0
M  V30 7716 H 229.08 -1.22639 4.93799 0
M  V30 7717 H 228.692 -1.56819 1.27167 0
M  V30 7718 H 228.888 -2.41062 2.83063 0
M  V30 7719 P 227.239 6.144 6.45285 0
M  V30 7720 O 227.019 7.54673 6.86199 0
M  V30 7721 O 226.449 5.12391 7.179 0
M  V30 7722 O 226.989 5.99158 4.88404 0
M  V30 7723 C 227.929 6.60234 3.96415 0
M  V30 7724 C 227.199 7.08259 2.72856 0
M  V30 7725 O 226.989 5.9427 1.83651 0
M  V30 7726 C 225.799 7.64886 2.9555 0
M  V30 7727 O 225.409 8.53963 1.90717 0
M  V30 7728 C 224.919 6.4116 2.90739 0
M  V30 7729 C 225.629 5.55375 1.86963 0
M  V30 7730 N 225.579 4.09664 2.15742 0
M  V30 7731 H 228.418 7.45574 4.45629 0
M  V30 7732 H 228.69 5.86232 3.67314 0
M  V30 7733 H 227.822 7.84412 2.24479 0
M  V30 7734 P 223.859 8.7635 1.60911 0
M  V30 7735 O 223.639 10.1388 1.11561 0
M  V30 7736 O 223.069 8.36503 2.79617 0
M  V30 7737 O 223.609 7.71806 0.42951 0
M  V30 7738 C 224.549 7.67148 -0.673689 0
M  V30 7739 C 223.819 7.33374 -1.95559 0
M  V30 7740 O 223.609 5.88721 -2.00726 0
M  V30 7741 C 222.419 7.92526 -2.10483 0
M  V30 7742 O 222.029 8.02971 -3.47653 0
M  V30 7743 C 221.539 6.89602 -1.41652 0
M  V30 7744 C 222.249 5.59201 -1.75185 0
M  V30 7745 N 222.199 4.58235 -0.662552 0
M  V30 7746 C 222.279 4.7683 0.704049 0
M  V30 7747 N 222.199 3.66233 1.39775 0
M  V30 7748 C 222.059 2.66526 0.431739 0
M  V30 7749 C 221.929 1.26394 0.575992 0
M  V30 7750 N 221.809 0.62859 -0.67177 0
M  V30 7751 C 221.809 1.27134 -1.89385 0
M  V30 7752 N 221.679 0.492035 -2.96951 0
M  V30 7753 N 221.939 2.58978 -2.02907 0
M  V30 7754 C 222.059 3.22433 -0.832218 0
M  V30 7755 H 225.038 8.65116 -0.777161 0
M  V30 7756 H 225.31 6.90173 -0.474152 0
M  V30 7757 H 224.442 7.66548 -2.79458 0
M  V30 7758 P 220.479 8.03563 -3.84925 0
M  V30 7759 O 220.259 8.85821 -5.0569 0
M  V30 7760 O 219.689 8.41101 -2.65469 0
M  V30 7761 O 220.229 6.4965 -4.18908 0
M  V30 7762 C 221.169 5.81037 -5.05421 0
M  V30 7763 C 220.439 4.78366 -5.89277 0
M  V30 7764 O 220.229 3.58302 -5.08433 0
M  V30 7765 C 219.039 5.17448 -6.36119 0
M  V30 7766 O 218.649 4.45271 -7.53232 0
M  V30 7767 C 218.159 4.74639 -5.19936 0
M  V30 7768 C 218.869 3.49432 -4.70418 0
M  V30 7769 N 218.819 3.31776 -3.22945 0
M  V30 7770 H 221.658 6.54213 -5.71376 0
M  V30 7771 H 221.93 5.30492 -4.44033 0
M  V30 7772 H 221.062 4.55889 -6.76652 0
M  V30 7773 P 217.099 4.23843 -7.83734 0
M  V30 7774 O 216.879 4.19407 -9.29784 0
M  V30 7775 O 216.309 5.24426 -7.09156 0
M  V30 7776 O 216.849 2.7935 -7.20758 0
M  V30 7777 C 217.789 1.7299 -7.50419 0
M  V30 7778 C 217.059 0.406376 -7.57911 0
M  V30 7779 O 216.849 -0.0897726 -6.21935 0
M  V30 7780 C 215.659 0.447224 -8.1878 0
M  V30 7781 O 215.269 -0.825065 -8.71101 0
M  V30 7782 C 214.779 0.783801 -6.99623 0
M  V30 7783 C 215.489 0.0619192 -5.85967 0
M  V30 7784 N 215.439 0.790462 -4.56202 0
M  V30 7785 H 218.278 1.93423 -8.4679 0
M  V30 7786 H 218.55 1.68852 -6.70877 0
M  V30 7787 H 217.682 -0.289041 -8.15388 0
M  V30 7788 H 215.027 -0.927006 -5.72848 0
M  V30 7789 H 214.747 1.86973 -6.82036 0
M  V30 7790 H 213.756 0.403953 -7.13357 0
M  V30 7791 H 215.59 1.20599 -8.97534 0
M  V30 7792 P 213.719 -1.17771 -8.83182 0
M  V30 7793 O 213.499 -2.07206 -9.98732 0
M  V30 7794 O 212.929 0.0743816 -8.81969 0
M  V30 7795 O 213.469 -1.97652 -7.47304 0
M  V30 7796 C 214.409 -3.01133 -7.08783 0
M  V30 7797 C 213.679 -4.12613 -6.37049 0
M  V30 7798 O 213.469 -3.72827 -4.97879 0
M  V30 7799 C 212.279 -4.45085 -6.88694 0
M  V30 7800 O 211.889 -5.7877 -6.5624 0
M  V30 7801 C 211.399 -3.47817 -6.12078 0
M  V30 7802 C 212.109 -3.39414 -4.77697 0
M  V30 7803 N 212.059 -2.04615 -4.15333 0
M  V30 7804 H 214.898 -3.41248 -7.98759 0
M  V30 7805 H 215.17 -2.5837 -6.41742 0
M  V30 7806 H 214.302 -5.02657 -6.42673 0
M  V30 7807 P 210.339 -6.144 -6.45285 0
M  V30 7808 O 210.119 -7.54673 -6.86199 0
M  V30 7809 O 209.549 -5.12391 -7.179 0
M  V30 7810 O 210.089 -5.99236 -4.88467 0
M  V30 7811 C 211.029 -6.60234 -3.96415 0
M  V30 7812 C 210.299 -7.08079 -2.736 0
M  V30 7813 O 210.089 -5.94365 -1.8368 0
M  V30 7814 C 208.899 -7.64886 -2.9555 0
M  V30 7815 O 208.509 -8.5406 -1.90739 0
M  V30 7816 C 208.019 -6.4116 -2.90739 0
M  V30 7817 C 208.729 -5.55375 -1.86963 0
M  V30 7818 N 208.679 -4.09664 -2.15742 0
M  V30 7819 C 208.529 -3.22231 -1.08477 0
M  V30 7820 O 208.439 -3.68951 0.0600489 0
M  V30 7821 N 208.479 -1.76692 -1.48799 0
M  V30 7822 C 208.579 -1.41695 -2.57602 0
M  V30 7823 N 208.529 -0.107296 -2.75791 0
M  V30 7824 C 208.729 -2.29178 -3.69733 0
M  V30 7825 C 208.779 -3.62753 -3.42653 0
M  V30 7826 H 211.519 -7.45488 -4.45578 0
M  V30 7827 H 211.789 -5.86232 -3.67314 0
M  V30 7828 H 210.922 -7.84508 -2.24507 0
M  V30 7829 H 208.267 -5.73556 -0.888715 0
M  V30 7830 H 207.987 -5.9096 -3.88638 0
M  V30 7831 H 206.996 -6.66053 -2.58894 0
M  V30 7832 H 208.83 -8.16339 -3.92049 0
M  V30 7833 H 208.902 -4.33052 -4.24913 0
M  V30 7834 H 208.8 -1.9103 -4.71577 0
M  V30 7835 H 208.412 0.521221 -1.95056 0
M  V30 7836 H 208.608 0.286429 -3.70695 0
M  V30 7837 P 206.959 -8.7635 -1.60911 0
M  V30 7838 O 206.739 -10.1388 -1.11561 0
M  V30 7839 O 206.169 -8.36503 -2.79617 0
M  V30 7840 O 206.709 -7.71806 -0.42951 0
M  V30 7841 C 207.649 -7.67148 0.673689 0
M  V30 7842 C 206.919 -7.33374 1.95559 0
M  V30 7843 O 206.709 -5.88721 2.00726 0
M  V30 7844 C 205.519 -7.92526 2.10483 0
M  V30 7845 O 205.129 -8.02971 3.47653 0
M  V30 7846 C 204.639 -6.89602 1.41652 0
M  V30 7847 C 205.349 -5.59201 1.75185 0
M  V30 7848 N 205.299 -4.58235 0.662552 0
M  V30 7849 H 208.138 -8.65116 0.777161 0
M  V30 7850 H 208.41 -6.90173 0.474152 0
M  V30 7851 H 207.542 -7.66548 2.79458 0
M  V30 7852 P 203.579 -8.03563 3.84925 0
M  V30 7853 O 203.359 -8.85821 5.0569 0
M  V30 7854 O 202.789 -8.41101 2.65469 0
M  V30 7855 O 203.329 -6.4965 4.18908 0
M  V30 7856 C 204.269 -5.81037 5.05421 0
M  V30 7857 C 203.539 -4.78366 5.89277 0
M  V30 7858 O 203.329 -3.58302 5.08433 0
M  V30 7859 C 202.139 -5.17448 6.36119 0
M  V30 7860 O 201.749 -4.45271 7.53232 0
M  V30 7861 C 201.259 -4.74639 5.19936 0
M  V30 7862 C 201.969 -3.49432 4.70418 0
M  V30 7863 N 201.919 -3.31776 3.22945 0
M  V30 7864 H 204.758 -6.54213 5.71376 0
M  V30 7865 H 205.03 -5.30492 4.44033 0
M  V30 7866 H 204.162 -4.55889 6.76652 0
M  V30 7867 P 200.199 -4.23843 7.83734 0
M  V30 7868 O 199.979 -4.19407 9.29784 0
M  V30 7869 O 199.409 -5.24426 7.09156 0
M  V30 7870 O 199.949 -2.7935 7.20758 0
M  V30 7871 C 200.889 -1.7299 7.50419 0
M  V30 7872 C 200.159 -0.406376 7.57911 0
M  V30 7873 O 199.949 0.0897726 6.21935 0
M  V30 7874 C 198.759 -0.447224 8.1878 0
M  V30 7875 O 198.369 0.825065 8.71101 0
M  V30 7876 C 197.879 -0.783801 6.99623 0
M  V30 7877 C 198.589 -0.0619192 5.85967 0
M  V30 7878 N 198.539 -0.7859 4.56281 0
M  V30 7879 H 201.378 -1.93423 8.4679 0
M  V30 7880 H 201.65 -1.68181 6.71046 0
M  V30 7881 H 200.782 0.289041 8.15388 0
M  V30 7882 P 196.819 1.17771 8.83182 0
M  V30 7883 O 196.599 2.07206 9.98732 0
M  V30 7884 O 196.029 -0.0743816 8.81969 0
M  V30 7885 O 196.569 1.97652 7.47304 0
M  V30 7886 C 197.509 3.01133 7.08783 0
M  V30 7887 C 196.779 4.12613 6.37049 0
M  V30 7888 O 196.569 3.72827 4.97879 0
M  V30 7889 C 195.379 4.45085 6.88694 0
M  V30 7890 O 194.989 5.7877 6.5624 0
M  V30 7891 C 194.499 3.47817 6.12078 0
M  V30 7892 C 195.209 3.39414 4.77697 0
M  V30 7893 N 195.159 2.04615 4.15333 0
M  V30 7894 H 197.998 3.41248 7.98759 0
M  V30 7895 H 198.27 2.5837 6.41742 0
M  V30 7896 H 197.402 5.02657 6.42673 0
M  V30 7897 P 193.439 6.144 6.45285 0
M  V30 7898 O 193.219 7.54673 6.86199 0
M  V30 7899 O 192.649 5.12391 7.179 0
M  V30 7900 O 193.189 5.99158 4.88404 0
M  V30 7901 C 194.129 6.60234 3.96415 0
M  V30 7902 C 193.399 7.08259 2.72856 0
M  V30 7903 O 193.189 5.9427 1.83651 0
M  V30 7904 C 191.999 7.64886 2.9555 0
M  V30 7905 O 191.609 8.53963 1.90717 0
M  V30 7906 C 191.119 6.4116 2.90739 0
M  V30 7907 C 191.829 5.55375 1.86963 0
M  V30 7908 N 191.779 4.09448 2.16152 0
M  V30 7909 H 194.618 7.45574 4.45629 0
M  V30 7910 H 194.89 5.85864 3.679 0
M  V30 7911 H 194.022 7.84412 2.24479 0
M  V30 7912 H 191.367 5.73457 0.888562 0
M  V30 7913 H 191.087 5.90877 3.88583 0
M  V30 7914 H 190.096 6.6596 2.58858 0
M  V30 7915 H 191.93 8.16339 3.92049 0
M  V30 7916 P 190.059 8.7635 1.60911 0
M  V30 7917 O 189.839 10.1388 1.11561 0
M  V30 7918 O 189.269 8.36503 2.79617 0
M  V30 7919 O 189.809 7.71806 0.42951 0
M  V30 7920 C 190.749 7.67148 -0.673689 0
M  V30 7921 C 190.019 7.33374 -1.95559 0
M  V30 7922 O 189.809 5.88721 -2.00726 0
M  V30 7923 C 188.619 7.92526 -2.10483 0
M  V30 7924 O 188.229 8.02971 -3.47653 0
M  V30 7925 C 187.739 6.89602 -1.41652 0
M  V30 7926 C 188.449 5.59201 -1.75185 0
M  V30 7927 N 188.399 4.58235 -0.662552 0
M  V30 7928 H 191.238 8.65116 -0.777161 0
M  V30 7929 H 191.51 6.90173 -0.474152 0
M  V30 7930 H 190.642 7.66548 -2.79458 0
M  V30 7931 P 186.679 8.03563 -3.84925 0
M  V30 7932 O 186.459 8.85821 -5.0569 0
M  V30 7933 O 185.889 8.41101 -2.65469 0
M  V30 7934 O 186.429 6.4965 -4.18908 0
M  V30 7935 C 187.369 5.81037 -5.05421 0
M  V30 7936 C 186.639 4.78366 -5.89277 0
M  V30 7937 O 186.429 3.58302 -5.08433 0
M  V30 7938 C 185.239 5.17448 -6.36119 0
M  V30 7939 O 184.849 4.45271 -7.53232 0
M  V30 7940 C 184.359 4.74639 -5.19936 0
M  V30 7941 C 185.069 3.49432 -4.70418 0
M  V30 7942 N 185.019 3.32099 -3.22613 0
M  V30 7943 H 187.858 6.54213 -5.71376 0
M  V30 7944 H 188.13 5.30936 -4.43503 0
M  V30 7945 H 187.262 4.55889 -6.76652 0
M  V30 7946 H 184.607 2.61715 -5.17932 0
M  V30 7947 H 184.327 5.52155 -4.41878 0
M  V30 7948 H 183.336 4.51981 -5.53374 0
M  V30 7949 H 185.17 6.25124 -6.55234 0
M  V30 7950 P 183.299 4.23843 -7.83734 0
M  V30 7951 O 183.079 4.19407 -9.29784 0
M  V30 7952 O 182.509 5.24426 -7.09156 0
M  V30 7953 O 183.049 2.79386 -7.20852 0
M  V30 7954 C 183.989 1.7299 -7.50419 0
M  V30 7955 C 183.259 0.41401 -7.5797 0
M  V30 7956 O 183.049 -0.089787 -6.22035 0
M  V30 7957 C 181.859 0.447224 -8.1878 0
M  V30 7958 O 181.469 -0.825159 -8.71201 0
M  V30 7959 C 180.979 0.783801 -6.99623 0
M  V30 7960 C 181.689 0.0619192 -5.85967 0
M  V30 7961 N 181.639 0.7859 -4.56281 0
M  V30 7962 C 181.489 0.0359258 -3.39981 0
M  V30 7963 O 181.399 -1.19723 -3.49038 0
M  V30 7964 N 181.439 0.869151 -2.14025 0
M  V30 7965 C 181.539 2.01207 -2.14363 0
M  V30 7966 N 181.489 2.58978 -0.954287 0
M  V30 7967 C 181.689 2.80817 -3.32215 0
M  V30 7968 C 181.739 2.13785 -4.50884 0
M  V30 7969 H 184.479 1.93401 -8.46693 0
M  V30 7970 H 184.749 1.68181 -6.71046 0
M  V30 7971 H 183.882 -0.289076 -8.15488 0
M  V30 7972 H 181.227 -0.927166 -5.72947 0
M  V30 7973 H 180.947 1.87 -6.82132 0
M  V30 7974 H 179.956 0.404009 -7.13457 0
M  V30 7975 H 181.79 1.20599 -8.97534 0
M  V30 7976 H 181.862 2.70295 -5.43162 0
M  V30 7977 H 181.76 3.89465 -3.27406 0
M  V30 7978 H 181.372 2.01616 -0.107046 0
M  V30 7979 H 181.568 3.61403 -0.873101 0
M  V30 7980 P 179.919 -1.17771 -8.83182 0
M  V30 7981 O 179.699 -2.07206 -9.98732 0
M  V30 7982 O 179.129 0.0743816 -8.81969 0
M  V30 7983 O 179.669 -1.97652 -7.47304 0
M  V30 7984 C 180.609 -3.01133 -7.08783 0
M  V30 7985 C 179.879 -4.12613 -6.37049 0
M  V30 7986 O 179.669 -3.72827 -4.97879 0
M  V30 7987 C 178.479 -4.45085 -6.88694 0
M  V30 7988 O 178.089 -5.7877 -6.5624 0
M  V30 7989 C 177.599 -3.47817 -6.12078 0
M  V30 7990 C 178.309 -3.39414 -4.77697 0
M  V30 7991 N 178.259 -2.04615 -4.15333 0
M  V30 7992 H 181.098 -3.41248 -7.98759 0
M  V30 7993 H 181.37 -2.5837 -6.41742 0
M  V30 7994 H 180.502 -5.02657 -6.42673 0
M  V30 7995 P 176.539 -6.144 -6.45285 0
M  V30 7996 O 176.319 -7.54673 -6.86199 0
M  V30 7997 O 175.749 -5.12391 -7.179 0
M  V30 7998 O 176.289 -5.99158 -4.88404 0
M  V30 7999 C 177.229 -6.60234 -3.96415 0
M  V30 8000 C 176.499 -7.08259 -2.72856 0
M  V30 8001 O 176.289 -5.9427 -1.83651 0
M  V30 8002 C 175.099 -7.64886 -2.9555 0
M  V30 8003 O 174.709 -8.53963 -1.90717 0
M  V30 8004 C 174.219 -6.4116 -2.90739 0
M  V30 8005 C 174.929 -5.55375 -1.86963 0
M  V30 8006 N 174.879 -4.09664 -2.15742 0
M  V30 8007 H 177.718 -7.45574 -4.45629 0
M  V30 8008 H 177.99 -5.86232 -3.67314 0
M  V30 8009 H 177.122 -7.84412 -2.24479 0
M  V30 8010 P 173.159 -8.7635 -1.60911 0
M  V30 8011 O 172.939 -10.1388 -1.11561 0
M  V30 8012 O 172.369 -8.36503 -2.79617 0
M  V30 8013 O 172.909 -7.71806 -0.42951 0
M  V30 8014 C 173.849 -7.67148 0.673689 0
M  V30 8015 C 173.119 -7.33374 1.95559 0
M  V30 8016 O 172.909 -5.88721 2.00726 0
M  V30 8017 C 171.719 -7.92526 2.10483 0
M  V30 8018 O 171.329 -8.02971 3.47653 0
M  V30 8019 C 170.839 -6.89602 1.41652 0
M  V30 8020 C 171.549 -5.59201 1.75185 0
M  V30 8021 N 171.499 -4.58301 0.657969 0
M  V30 8022 C 171.579 -4.79019 -0.692603 0
M  V30 8023 N 171.509 -3.69736 -1.38998 0
M  V30 8024 C 171.359 -2.70474 -0.438135 0
M  V30 8025 C 171.229 -1.30327 -0.538142 0
M  V30 8026 N 171.219 -0.64304 -1.69192 0
M  V30 8027 N 171.109 -0.611027 0.605183 0
M  V30 8028 C 171.119 -1.27002 1.75953 0
M  V30 8029 N 171.239 -2.56038 1.98546 0
M  V30 8030 C 171.359 -3.22681 0.822541 0
M  V30 8031 H 174.338 -8.65116 0.777161 0
M  V30 8032 H 174.61 -6.9022 0.46725 0
M  V30 8033 H 173.742 -7.66548 2.79458 0
M  V30 8034 H 171.087 -5.16165 2.65183 0
M  V30 8035 H 170.807 -7.06433 0.329384 0
M  V30 8036 H 169.816 -6.90926 1.82021 0
M  V30 8037 H 171.65 -8.90873 1.62657 0
M  V30 8038 H 171.691 -5.77785 -1.13874 0
M  V30 8039 H 171.31 -1.15585 -2.57991 0
M  V30 8040 H 171.121 0.382989 -1.69835 0
M  V30 8041 H 171.013 -0.653331 2.64449 0
M  V30 8042 P 169.779 -8.03563 3.84925 0
M  V30 8043 O 169.559 -8.85821 5.0569 0
M  V30 8044 O 168.989 -8.41101 2.65469 0
M  V30 8045 O 169.529 -6.4965 4.18908 0
M  V30 8046 C 170.469 -5.81037 5.05421 0
M  V30 8047 C 169.739 -4.78366 5.89277 0
M  V30 8048 O 169.529 -3.58302 5.08433 0
M  V30 8049 C 168.339 -5.17448 6.36119 0
M  V30 8050 O 167.949 -4.45271 7.53232 0
M  V30 8051 C 167.459 -4.74639 5.19936 0
M  V30 8052 C 168.169 -3.49432 4.70418 0
M  V30 8053 N 168.119 -3.31776 3.22945 0
M  V30 8054 H 170.958 -6.54213 5.71376 0
M  V30 8055 H 171.23 -5.30492 4.44033 0
M  V30 8056 H 170.362 -4.55889 6.76652 0
M  V30 8057 P 166.399 -4.23843 7.83734 0
M  V30 8058 O 166.179 -4.19407 9.29784 0
M  V30 8059 O 165.609 -5.24426 7.09156 0
M  V30 8060 O 166.149 -2.7935 7.20758 0
M  V30 8061 C 167.089 -1.72945 7.50224 0
M  V30 8062 C 166.359 -0.406376 7.57911 0
M  V30 8063 O 166.149 0.0897726 6.21935 0
M  V30 8064 C 164.959 -0.438983 8.18724 0
M  V30 8065 O 164.569 0.825065 8.71101 0
M  V30 8066 C 164.079 -0.783689 6.99524 0
M  V30 8067 C 164.789 -0.0619086 5.85867 0
M  V30 8068 N 164.739 -0.78573 4.56183 0
M  V30 8069 C 164.589 -0.0292889 3.41887 0
M  V30 8070 O 164.499 1.18445 3.4419 0
M  V30 8071 N 164.549 -0.744061 2.23964 0
M  V30 8072 C 164.639 -2.10932 2.10362 0
M  V30 8073 C 164.789 -2.8202 3.34994 0
M  V30 8074 C 164.839 -2.15547 4.52261 0
M  V30 8075 H 167.58 -1.93379 8.46595 0
M  V30 8076 H 167.849 -1.68132 6.70852 0
M  V30 8077 H 166.982 0.289041 8.15388 0
M  V30 8078 H 164.327 0.926847 5.72749 0
M  V30 8079 H 164.048 -1.86973 6.82036 0
M  V30 8080 H 163.056 -0.403896 7.13257 0
M  V30 8081 H 164.89 -1.20585 8.97435 0
M  V30 8082 H 164.961 -2.71231 5.45042 0
M  V30 8083 P 163.019 1.17771 8.83182 0
M  V30 8084 O 162.799 2.07206 9.98732 0
M  V30 8085 O 162.229 -0.0743816 8.81969 0
M  V30 8086 O 162.769 1.97652 7.47304 0
M  V30 8087 C 163.709 3.01133 7.08783 0
M  V30 8088 C 162.979 4.12613 6.37049 0
M  V30 8089 O 162.769 3.72827 4.97879 0
M  V30 8090 C 161.579 4.45085 6.88694 0
M  V30 8091 O 161.189 5.7877 6.5624 0
M  V30 8092 C 160.699 3.47817 6.12078 0
M  V30 8093 C 161.409 3.39414 4.77697 0
M  V30 8094 N 161.359 2.04615 4.15333 0
M  V30 8095 H 164.198 3.41248 7.98759 0
M  V30 8096 H 164.47 2.5837 6.41742 0
M  V30 8097 H 163.602 5.02657 6.42673 0
M  V30 8098 P 159.639 6.144 6.45285 0
M  V30 8099 O 159.419 7.54673 6.86199 0
M  V30 8100 O 158.849 5.12391 7.179 0
M  V30 8101 O 159.389 5.99158 4.88404 0
M  V30 8102 C 160.329 6.60062 3.96313 0
M  V30 8103 C 159.599 7.08259 2.72856 0
M  V30 8104 O 159.389 5.9427 1.83651 0
M  V30 8105 C 158.199 7.65087 2.94749 0
M  V30 8106 O 157.809 8.53963 1.90717 0
M  V30 8107 C 157.319 6.41069 2.90698 0
M  V30 8108 C 158.029 5.5528 1.86931 0
M  V30 8109 N 157.979 4.09575 2.15696 0
M  V30 8110 C 157.829 3.24249 1.08435 0
M  V30 8111 O 157.739 3.63946 -0.0628747 0
M  V30 8112 N 157.789 1.90009 1.39973 0
M  V30 8113 C 157.879 1.34884 2.65614 0
M  V30 8114 O 157.829 0.123716 2.81728 0
M  V30 8115 C 158.029 2.3145 3.71736 0
M  V30 8116 C 158.139 1.75913 5.10438 0
M  V30 8117 C 158.079 3.63518 3.44754 0
M  V30 8118 H 160.82 7.45402 4.45526 0
M  V30 8119 H 161.089 5.86062 3.67208 0
M  V30 8120 H 160.222 7.84412 2.24479 0
M  V30 8121 H 157.567 5.73358 0.888409 0
M  V30 8122 H 157.288 5.90877 3.88583 0
M  V30 8123 H 156.296 6.65867 2.58821 0
M  V30 8124 H 158.13 8.16248 3.92006 0
M  V30 8125 H 158.201 4.34551 4.26383 0
M  V30 8126 H 157.171 1.85471 5.61775 0
M  V30 8127 H 158.908 2.31364 5.66257 0
M  V30 8128 H 158.42 0.695936 5.05229 0
M  V30 8129 H 157.684 1.26277 0.63625 0
M  V30 8130 P 156.259 8.7635 1.60911 0
M  V30 8131 O 156.039 10.1388 1.11561 0
M  V30 8132 O 155.469 8.36503 2.79617 0
M  V30 8133 O 156.009 7.71806 0.42951 0
M  V30 8134 C 156.949 7.67148 -0.673689 0
M  V30 8135 C 156.219 7.33374 -1.95559 0
M  V30 8136 O 156.009 5.88721 -2.00726 0
M  V30 8137 C 154.819 7.92526 -2.10483 0
M  V30 8138 O 154.429 8.02971 -3.47653 0
M  V30 8139 C 153.939 6.89602 -1.41652 0
M  V30 8140 C 154.649 5.59201 -1.75185 0
M  V30 8141 N 154.599 4.58235 -0.662552 0
M  V30 8142 H 157.438 8.65116 -0.777161 0
M  V30 8143 H 157.71 6.90173 -0.474152 0
M  V30 8144 H 156.842 7.66548 -2.79458 0
M  V30 8145 P 152.879 8.03563 -3.84925 0
M  V30 8146 O 152.659 8.85821 -5.0569 0
M  V30 8147 O 152.089 8.41101 -2.65469 0
M  V30 8148 O 152.629 6.4965 -4.18908 0
M  V30 8149 C 153.569 5.81037 -5.05421 0
M  V30 8150 C 152.839 4.78366 -5.89277 0
M  V30 8151 O 152.629 3.58302 -5.08433 0
M  V30 8152 C 151.439 5.17448 -6.36119 0
M  V30 8153 O 151.049 4.45271 -7.53232 0
M  V30 8154 C 150.559 4.74639 -5.19936 0
M  V30 8155 C 151.269 3.49432 -4.70418 0
M  V30 8156 N 151.219 3.31776 -3.22945 0
M  V30 8157 H 154.058 6.54213 -5.71376 0
M  V30 8158 H 154.33 5.30492 -4.44033 0
M  V30 8159 H 153.462 4.55889 -6.76652 0
M  V30 8160 P 149.499 4.23843 -7.83734 0
M  V30 8161 O 149.279 4.19407 -9.29784 0
M  V30 8162 O 148.709 5.24426 -7.09156 0
M  V30 8163 O 149.249 2.7935 -7.20758 0
M  V30 8164 C 150.189 1.7299 -7.50419 0
M  V30 8165 C 149.459 0.406376 -7.57911 0
M  V30 8166 O 149.249 -0.0897726 -6.21935 0
M  V30 8167 C 148.059 0.447224 -8.1878 0
M  V30 8168 O 147.669 -0.825065 -8.71101 0
M  V30 8169 C 147.179 0.783801 -6.99623 0
M  V30 8170 C 147.889 0.0619192 -5.85967 0
M  V30 8171 N 147.839 0.7859 -4.56281 0
M  V30 8172 H 150.678 1.93423 -8.4679 0
M  V30 8173 H 150.95 1.68181 -6.71046 0
M  V30 8174 H 150.082 -0.289041 -8.15388 0
M  V30 8175 P 146.119 -1.17771 -8.83182 0
M  V30 8176 O 145.899 -2.07206 -9.98732 0
M  V30 8177 O 145.329 0.0743816 -8.81969 0
M  V30 8178 O 145.869 -1.97652 -7.47304 0
M  V30 8179 C 146.809 -3.01133 -7.08783 0
M  V30 8180 C 146.079 -4.12613 -6.37049 0
M  V30 8181 O 145.869 -3.72827 -4.97879 0
M  V30 8182 C 144.679 -4.45085 -6.88694 0
M  V30 8183 O 144.289 -5.7877 -6.5624 0
M  V30 8184 C 143.799 -3.47817 -6.12078 0
M  V30 8185 C 144.509 -3.39414 -4.77697 0
M  V30 8186 N 144.459 -2.04199 -4.15538 0
M  V30 8187 H 147.298 -3.41248 -7.98759 0
M  V30 8188 H 147.57 -2.57728 -6.42 0
M  V30 8189 H 146.702 -5.02657 -6.42673 0
M  V30 8190 H 144.047 -4.11708 -4.08956 0
M  V30 8191 H 143.767 -2.49626 -6.61679 0
M  V30 8192 H 142.776 -3.8662 -6.00862 0
M  V30 8193 H 144.61 -4.29991 -7.97006 0
M  V30 8194 P 142.739 -6.144 -6.45285 0
M  V30 8195 O 142.519 -7.54673 -6.86199 0
M  V30 8196 O 141.949 -5.12391 -7.179 0
M  V30 8197 O 142.489 -5.99158 -4.88404 0
M  V30 8198 C 143.429 -6.60234 -3.96415 0
M  V30 8199 C 142.699 -7.08259 -2.72856 0
M  V30 8200 O 142.489 -5.9427 -1.83651 0
M  V30 8201 C 141.299 -7.64886 -2.9555 0
M  V30 8202 O 140.909 -8.53963 -1.90717 0
M  V30 8203 C 140.419 -6.4116 -2.90739 0
M  V30 8204 C 141.129 -5.55375 -1.86963 0
M  V30 8205 N 141.079 -4.09448 -2.16152 0
M  V30 8206 H 143.918 -7.45574 -4.45629 0
M  V30 8207 H 144.19 -5.85864 -3.679 0
M  V30 8208 H 143.322 -7.84412 -2.24479 0
M  V30 8209 H 140.667 -5.73457 -0.888562 0
M  V30 8210 H 140.387 -5.90877 -3.88583 0
M  V30 8211 H 139.396 -6.6596 -2.58858 0
M  V30 8212 H 141.23 -8.16339 -3.92049 0
M  V30 8213 P 139.359 -8.7635 -1.60911 0
M  V30 8214 O 139.139 -10.1388 -1.11561 0
M  V30 8215 O 138.569 -8.36503 -2.79617 0
M  V30 8216 O 139.109 -7.71806 -0.42951 0
M  V30 8217 C 140.049 -7.67148 0.673689 0
M  V30 8218 C 139.319 -7.33374 1.95559 0
M  V30 8219 O 139.109 -5.88721 2.00726 0
M  V30 8220 C 137.919 -7.92526 2.10483 0
M  V30 8221 O 137.529 -8.02971 3.47653 0
M  V30 8222 C 137.039 -6.89602 1.41652 0
M  V30 8223 C 137.749 -5.59201 1.75185 0
M  V30 8224 N 137.699 -4.58235 0.662552 0
M  V30 8225 H 140.538 -8.65116 0.777161 0
M  V30 8226 H 140.81 -6.90173 0.474152 0
M  V30 8227 H 139.942 -7.66548 2.79458 0
M  V30 8228 P 135.979 -8.03563 3.84925 0
M  V30 8229 O 135.759 -8.85821 5.0569 0
M  V30 8230 O 135.189 -8.41101 2.65469 0
M  V30 8231 O 135.729 -6.4965 4.18908 0
M  V30 8232 C 136.669 -5.81037 5.05421 0
M  V30 8233 C 135.939 -4.78366 5.89277 0
M  V30 8234 O 135.729 -3.58302 5.08433 0
M  V30 8235 C 134.539 -5.17448 6.36119 0
M  V30 8236 O 134.149 -4.45271 7.53232 0
M  V30 8237 C 133.659 -4.74639 5.19936 0
M  V30 8238 C 134.369 -3.49432 4.70418 0
M  V30 8239 N 134.319 -3.31776 3.22945 0
M  V30 8240 H 137.158 -6.54213 5.71376 0
M  V30 8241 H 137.43 -5.30492 4.44033 0
M  V30 8242 H 136.562 -4.55889 6.76652 0
M  V30 8243 P 132.599 -4.23843 7.83734 0
M  V30 8244 O 132.379 -4.19407 9.29784 0
M  V30 8245 O 131.809 -5.24426 7.09156 0
M  V30 8246 O 132.349 -2.7935 7.20758 0
M  V30 8247 C 133.289 -1.7299 7.50419 0
M  V30 8248 C 132.559 -0.406376 7.57911 0
M  V30 8249 O 132.349 0.0897726 6.21935 0
M  V30 8250 C 131.159 -0.447224 8.1878 0
M  V30 8251 O 130.769 0.825065 8.71101 0
M  V30 8252 C 130.279 -0.783801 6.99623 0
M  V30 8253 C 130.989 -0.0619192 5.85967 0
M  V30 8254 N 130.939 -0.7859 4.56281 0
M  V30 8255 H 133.778 -1.93423 8.4679 0
M  V30 8256 H 134.05 -1.68181 6.71046 0
M  V30 8257 H 133.182 0.289041 8.15388 0
M  V30 8258 P 129.219 1.17771 8.83182 0
M  V30 8259 O 128.999 2.07206 9.98732 0
M  V30 8260 O 128.429 -0.0743816 8.81969 0
M  V30 8261 O 128.969 1.97652 7.47304 0
M  V30 8262 C 129.909 3.01133 7.08783 0
M  V30 8263 C 129.179 4.12613 6.37049 0
M  V30 8264 O 128.969 3.72827 4.97879 0
M  V30 8265 C 127.779 4.45085 6.88694 0
M  V30 8266 O 127.389 5.7877 6.5624 0
M  V30 8267 C 126.899 3.47817 6.12078 0
M  V30 8268 C 127.609 3.39414 4.77697 0
M  V30 8269 N 127.559 2.04615 4.15333 0
M  V30 8270 C 127.639 0.803897 4.75249 0
M  V30 8271 N 127.559 -0.197615 3.91502 0
M  V30 8272 C 127.419 0.413002 2.66823 0
M  V30 8273 C 127.289 -0.157221 1.38007 0
M  V30 8274 N 127.169 0.833136 0.390236 0
M  V30 8275 C 127.169 2.19402 0.623885 0
M  V30 8276 N 127.039 2.97622 -0.449677 0
M  V30 8277 N 127.299 2.73005 1.83601 0
M  V30 8278 C 127.419 1.78786 2.80935 0
M  V30 8279 H 130.398 3.41248 7.98759 0
M  V30 8280 H 130.67 2.5837 6.41742 0
M  V30 8281 H 129.802 5.02657 6.42673 0
M  V30 8282 P 125.839 6.144 6.45285 0
M  V30 8283 O 125.619 7.54673 6.86199 0
M  V30 8284 O 125.049 5.12391 7.179 0
M  V30 8285 O 125.589 5.99158 4.88404 0
M  V30 8286 C 126.529 6.60234 3.96415 0
M  V30 8287 C 125.799 7.08259 2.72856 0
M  V30 8288 O 125.589 5.9427 1.83651 0
M  V30 8289 C 124.399 7.64886 2.9555 0
M  V30 8290 O 124.009 8.53963 1.90717 0
M  V30 8291 C 123.519 6.4116 2.90739 0
M  V30 8292 C 124.229 5.55375 1.86963 0
M  V30 8293 N 124.179 4.09664 2.15742 0
M  V30 8294 H 127.018 7.45574 4.45629 0
M  V30 8295 H 127.29 5.86232 3.67314 0
M  V30 8296 H 126.422 7.84412 2.24479 0
M  V30 8297 P 122.459 8.7635 1.60911 0
M  V30 8298 O 122.239 10.1388 1.11561 0
M  V30 8299 O 121.669 8.36503 2.79617 0
M  V30 8300 O 122.209 7.71806 0.42951 0
M  V30 8301 C 123.149 7.67148 -0.673689 0
M  V30 8302 C 122.419 7.33374 -1.95559 0
M  V30 8303 O 122.209 5.88721 -2.00726 0
M  V30 8304 C 121.019 7.92526 -2.10483 0
M  V30 8305 O 120.629 8.02971 -3.47653 0
M  V30 8306 C 120.139 6.89602 -1.41652 0
M  V30 8307 C 120.849 5.59201 -1.75185 0
M  V30 8308 N 120.799 4.58301 -0.657969 0
M  V30 8309 C 120.879 4.79019 0.692603 0
M  V30 8310 N 120.809 3.69736 1.38998 0
M  V30 8311 C 120.659 2.70474 0.438135 0
M  V30 8312 C 120.529 1.30327 0.538142 0
M  V30 8313 N 120.519 0.64304 1.69192 0
M  V30 8314 N 120.409 0.611027 -0.605183 0
M  V30 8315 C 120.419 1.27002 -1.75953 0
M  V30 8316 N 120.539 2.56038 -1.98546 0
M  V30 8317 C 120.659 3.22681 -0.822541 0
M  V30 8318 H 123.638 8.65116 -0.777161 0
M  V30 8319 H 123.91 6.9022 -0.46725 0
M  V30 8320 H 123.042 7.66548 -2.79458 0
M  V30 8321 H 120.387 5.16165 -2.65183 0
M  V30 8322 H 120.107 7.06433 -0.329384 0
M  V30 8323 H 119.116 6.90926 -1.82021 0
M  V30 8324 H 120.95 8.90873 -1.62657 0
M  V30 8325 H 120.991 5.77785 1.13874 0
M  V30 8326 H 120.61 1.15585 2.57991 0
M  V30 8327 H 120.421 -0.382989 1.69835 0
M  V30 8328 H 120.313 0.653331 -2.64449 0
M  V30 8329 P 119.079 8.03563 -3.84925 0
M  V30 8330 O 118.859 8.85821 -5.0569 0
M  V30 8331 O 118.289 8.41101 -2.65469 0
M  V30 8332 O 118.829 6.4965 -4.18908 0
M  V30 8333 C 119.769 5.81037 -5.05421 0
M  V30 8334 C 119.039 4.78366 -5.89277 0
M  V30 8335 O 118.829 3.58302 -5.08433 0
M  V30 8336 C 117.639 5.17448 -6.36119 0
M  V30 8337 O 117.249 4.45271 -7.53232 0
M  V30 8338 C 116.759 4.74639 -5.19936 0
M  V30 8339 C 117.469 3.49432 -4.70418 0
M  V30 8340 N 117.419 3.31776 -3.22945 0
M  V30 8341 H 120.258 6.54213 -5.71376 0
M  V30 8342 H 120.53 5.30492 -4.44033 0
M  V30 8343 H 119.662 4.55889 -6.76652 0
M  V30 8344 P 115.699 4.23843 -7.83734 0
M  V30 8345 O 115.479 4.19407 -9.29784 0
M  V30 8346 O 114.909 5.24426 -7.09156 0
M  V30 8347 O 115.449 2.79386 -7.20852 0
M  V30 8348 C 116.389 1.7299 -7.50419 0
M  V30 8349 C 115.659 0.41401 -7.5797 0
M  V30 8350 O 115.449 -0.089787 -6.22035 0
M  V30 8351 C 114.259 0.447224 -8.1878 0
M  V30 8352 O 113.869 -0.825159 -8.71201 0
M  V30 8353 C 113.379 0.783801 -6.99623 0
M  V30 8354 C 114.089 0.0619192 -5.85967 0
M  V30 8355 N 114.039 0.7859 -4.56281 0
M  V30 8356 C 113.889 0.0359258 -3.39981 0
M  V30 8357 O 113.799 -1.19723 -3.49038 0
M  V30 8358 N 113.839 0.869151 -2.14025 0
M  V30 8359 C 113.939 2.01207 -2.14363 0
M  V30 8360 N 113.889 2.58978 -0.954287 0
M  V30 8361 C 114.089 2.80817 -3.32215 0
M  V30 8362 C 114.139 2.13785 -4.50884 0
M  V30 8363 H 116.879 1.93401 -8.46693 0
M  V30 8364 H 117.149 1.68181 -6.71046 0
M  V30 8365 H 116.282 -0.289076 -8.15488 0
M  V30 8366 H 113.627 -0.927166 -5.72947 0
M  V30 8367 H 113.347 1.87 -6.82132 0
M  V30 8368 H 112.356 0.404009 -7.13457 0
M  V30 8369 H 114.19 1.20599 -8.97534 0
M  V30 8370 H 114.262 2.70295 -5.43162 0
M  V30 8371 H 114.16 3.89465 -3.27406 0
M  V30 8372 H 113.772 2.01616 -0.107046 0
M  V30 8373 H 113.968 3.61403 -0.873101 0
M  V30 8374 P 112.319 -1.17771 -8.83182 0
M  V30 8375 O 112.099 -2.07206 -9.98732 0
M  V30 8376 O 111.529 0.0743816 -8.81969 0
M  V30 8377 O 112.069 -1.97652 -7.47304 0
M  V30 8378 C 113.009 -3.01133 -7.08783 0
M  V30 8379 C 112.279 -4.12613 -6.37049 0
M  V30 8380 O 112.069 -3.72827 -4.97879 0
M  V30 8381 C 110.879 -4.45085 -6.88694 0
M  V30 8382 O 110.489 -5.7877 -6.5624 0
M  V30 8383 C 109.999 -3.47817 -6.12078 0
M  V30 8384 C 110.709 -3.39414 -4.77697 0
M  V30 8385 N 110.659 -2.04199 -4.15538 0
M  V30 8386 H 113.498 -3.41248 -7.98759 0
M  V30 8387 H 113.77 -2.57728 -6.42 0
M  V30 8388 H 112.902 -5.02657 -6.42673 0
M  V30 8389 H 110.247 -4.11708 -4.08956 0
M  V30 8390 H 109.967 -2.49626 -6.61679 0
M  V30 8391 H 108.976 -3.8662 -6.00862 0
M  V30 8392 H 110.81 -4.29991 -7.97006 0
M  V30 8393 P 108.939 -6.144 -6.45285 0
M  V30 8394 O 108.719 -7.54673 -6.86199 0
M  V30 8395 O 108.149 -5.12391 -7.179 0
M  V30 8396 O 108.689 -5.99158 -4.88404 0
M  V30 8397 C 109.629 -6.60234 -3.96415 0
M  V30 8398 C 108.899 -7.08259 -2.72856 0
M  V30 8399 O 108.689 -5.9427 -1.83651 0
M  V30 8400 C 107.499 -7.64886 -2.9555 0
M  V30 8401 O 107.109 -8.53963 -1.90717 0
M  V30 8402 C 106.619 -6.4116 -2.90739 0
M  V30 8403 C 107.329 -5.55375 -1.86963 0
M  V30 8404 N 107.279 -4.09664 -2.15742 0
M  V30 8405 H 110.118 -7.45574 -4.45629 0
M  V30 8406 H 110.39 -5.86232 -3.67314 0
M  V30 8407 H 109.522 -7.84412 -2.24479 0
M  V30 8408 P 105.559 -8.7635 -1.60911 0
M  V30 8409 O 105.339 -10.1388 -1.11561 0
M  V30 8410 O 104.769 -8.36503 -2.79617 0
M  V30 8411 O 105.309 -7.71806 -0.42951 0
M  V30 8412 C 106.249 -7.66948 0.673514 0
M  V30 8413 C 105.519 -7.33374 1.95559 0
M  V30 8414 O 105.309 -5.88721 2.00726 0
M  V30 8415 C 104.119 -7.92218 2.1125 0
M  V30 8416 O 103.729 -8.02971 3.47653 0
M  V30 8417 C 103.239 -6.89504 1.41631 0
M  V30 8418 C 103.949 -5.59106 1.75155 0
M  V30 8419 N 103.899 -4.58136 0.662409 0
M  V30 8420 C 103.749 -3.26059 1.02863 0
M  V30 8421 O 103.659 -2.90743 2.19009 0
M  V30 8422 N 103.709 -2.35995 -0.0155585 0
M  V30 8423 C 103.799 -2.65248 -1.35603 0
M  V30 8424 C 103.949 -4.05747 -1.64698 0
M  V30 8425 C 103.999 -4.96734 -0.652411 0
M  V30 8426 H 106.74 -8.64917 0.776982 0
M  V30 8427 H 107.009 -6.89974 0.474015 0
M  V30 8428 H 106.142 -7.66548 2.79458 0
M  V30 8429 H 103.487 -5.16076 2.65138 0
M  V30 8430 H 103.208 -7.06433 0.329384 0
M  V30 8431 H 102.216 -6.90829 1.81996 0
M  V30 8432 H 104.05 -8.90774 1.62639 0
M  V30 8433 H 104.121 -6.02181 -0.895285 0
M  V30 8434 P 102.179 -8.03563 3.84925 0
M  V30 8435 O 101.959 -8.85821 5.0569 0
M  V30 8436 O 101.389 -8.41101 2.65469 0
M  V30 8437 O 101.929 -6.4965 4.18908 0
M  V30 8438 C 102.869 -5.81037 5.05421 0
M  V30 8439 C 102.139 -4.78366 5.89277 0
M  V30 8440 O 101.929 -3.58302 5.08433 0
M  V30 8441 C 100.739 -5.17448 6.36119 0
M  V30 8442 O 100.349 -4.45271 7.53232 0
M  V30 8443 C 99.8594 -4.74639 5.19936 0
M  V30 8444 C 100.569 -3.49432 4.70418 0
M  V30 8445 N 100.519 -3.31776 3.22945 0
M  V30 8446 H 103.358 -6.54213 5.71376 0
M  V30 8447 H 103.63 -5.30492 4.44033 0
M  V30 8448 H 102.762 -4.55889 6.76652 0
M  V30 8449 P 98.7994 -4.23843 7.83734 0
M  V30 8450 O 98.5794 -4.19407 9.29784 0
M  V30 8451 O 98.0094 -5.24426 7.09156 0
M  V30 8452 O 98.5494 -2.7935 7.20758 0
M  V30 8453 C 99.4894 -1.7299 7.50419 0
M  V30 8454 C 98.7594 -0.406376 7.57911 0
M  V30 8455 O 98.5494 0.0897726 6.21935 0
M  V30 8456 C 97.3594 -0.447224 8.1878 0
M  V30 8457 O 96.9694 0.825065 8.71101 0
M  V30 8458 C 96.4794 -0.783801 6.99623 0
M  V30 8459 C 97.1894 -0.0619192 5.85967 0
M  V30 8460 N 97.1394 -0.790462 4.56202 0
M  V30 8461 H 99.9784 -1.93423 8.4679 0
M  V30 8462 H 100.25 -1.68852 6.70877 0
M  V30 8463 H 99.3824 0.289041 8.15388 0
M  V30 8464 H 96.7274 0.927006 5.72848 0
M  V30 8465 H 96.4474 -1.86973 6.82036 0
M  V30 8466 H 95.4564 -0.403953 7.13357 0
M  V30 8467 H 97.2904 -1.20599 8.97534 0
M  V30 8468 P 95.4195 1.17771 8.83182 0
M  V30 8469 O 95.1995 2.07206 9.98732 0
M  V30 8470 O 94.6295 -0.0743816 8.81969 0
M  V30 8471 O 95.1695 1.97652 7.47304 0
M  V30 8472 C 96.1095 3.01055 7.08599 0
M  V30 8473 C 95.3795 4.12613 6.37049 0
M  V30 8474 O 95.1695 3.72827 4.97879 0
M  V30 8475 C 93.9795 4.45719 6.88164 0
M  V30 8476 O 93.5895 5.7877 6.5624 0
M  V30 8477 C 93.0995 3.47768 6.11991 0
M  V30 8478 C 93.8095 3.39356 4.77615 0
M  V30 8479 N 93.7595 2.04571 4.15244 0
M  V30 8480 C 93.6095 1.98587 2.78314 0
M  V30 8481 O 93.5195 2.98134 2.08835 0
M  V30 8482 N 93.5695 0.714467 2.24925 0
M  V30 8483 C 93.6595 -0.470001 2.94169 0
M  V30 8484 O 93.6095 -1.55587 2.35195 0
M  V30 8485 C 93.8095 -0.312541 4.36783 0
M  V30 8486 C 93.9195 -1.57711 5.16352 0
M  V30 8487 C 93.8595 0.914512 4.92583 0
M  V30 8488 H 96.6005 3.41169 7.98575 0
M  V30 8489 H 96.8695 2.58295 6.41556 0
M  V30 8490 H 96.0025 5.02657 6.42673 0
M  V30 8491 H 93.3475 4.11637 4.08885 0
M  V30 8492 H 93.0685 2.49626 6.61679 0
M  V30 8493 H 92.0765 3.86566 6.00778 0
M  V30 8494 H 93.9105 4.29943 7.96918 0
M  V30 8495 H 93.9815 1.00937 6.00374 0
M  V30 8496 H 92.9515 -1.80153 5.63503 0
M  V30 8497 H 94.6885 -1.4566 5.94104 0
M  V30 8498 H 94.2005 -2.40664 4.49645 0
M  V30 8499 H 93.4645 0.647622 1.25697 0
M  V30 8500 P 92.0395 6.144 6.45285 0
M  V30 8501 O 91.8195 7.54673 6.86199 0
M  V30 8502 O 91.2495 5.12391 7.179 0
M  V30 8503 O 91.7895 5.99158 4.88404 0
M  V30 8504 C 92.7295 6.60234 3.96415 0
M  V30 8505 C 91.9995 7.08259 2.72856 0
M  V30 8506 O 91.7895 5.9427 1.83651 0
M  V30 8507 C 90.5995 7.64886 2.9555 0
M  V30 8508 O 90.2095 8.53963 1.90717 0
M  V30 8509 C 89.7195 6.4116 2.90739 0
M  V30 8510 C 90.4295 5.55375 1.86963 0
M  V30 8511 N 90.3795 4.09664 2.15742 0
M  V30 8512 H 93.2185 7.45574 4.45629 0
M  V30 8513 H 93.4905 5.86232 3.67314 0
M  V30 8514 H 92.6225 7.84412 2.24479 0
M  V30 8515 P 88.6595 8.7635 1.60911 0
M  V30 8516 O 88.4395 10.1388 1.11561 0
M  V30 8517 O 87.8695 8.36503 2.79617 0
M  V30 8518 O 88.4095 7.71806 0.42951 0
M  V30 8519 C 89.3495 7.67148 -0.673689 0
M  V30 8520 C 88.6195 7.33374 -1.95559 0
M  V30 8521 O 88.4095 5.88721 -2.00726 0
M  V30 8522 C 87.2195 7.92526 -2.10483 0
M  V30 8523 O 86.8295 8.02971 -3.47653 0
M  V30 8524 C 86.3395 6.89602 -1.41652 0
M  V30 8525 C 87.0495 5.59201 -1.75185 0
M  V30 8526 N 86.9995 4.58301 -0.657969 0
M  V30 8527 C 87.0795 4.79019 0.692603 0
M  V30 8528 N 87.0095 3.69736 1.38998 0
M  V30 8529 C 86.8595 2.70474 0.438135 0
M  V30 8530 C 86.7295 1.30327 0.538142 0
M  V30 8531 N 86.7195 0.64304 1.69192 0
M  V30 8532 N 86.6095 0.611027 -0.605183 0
M  V30 8533 C 86.6195 1.27002 -1.75953 0
M  V30 8534 N 86.7395 2.56038 -1.98546 0
M  V30 8535 C 86.8595 3.22681 -0.822541 0
M  V30 8536 H 89.8385 8.65116 -0.777161 0
M  V30 8537 H 90.1105 6.9022 -0.46725 0
M  V30 8538 H 89.2425 7.66548 -2.79458 0
M  V30 8539 H 86.5875 5.16165 -2.65183 0
M  V30 8540 H 86.3075 7.06433 -0.329384 0
M  V30 8541 H 85.3165 6.90926 -1.82021 0
M  V30 8542 H 87.1505 8.90873 -1.62657 0
M  V30 8543 H 87.1915 5.77785 1.13874 0
M  V30 8544 H 86.8105 1.15585 2.57991 0
M  V30 8545 H 86.6215 -0.382989 1.69835 0
M  V30 8546 H 86.5135 0.653331 -2.64449 0
M  V30 8547 P 85.2795 8.03563 -3.84925 0
M  V30 8548 O 85.0595 8.85821 -5.0569 0
M  V30 8549 O 84.4895 8.41101 -2.65469 0
M  V30 8550 O 85.0295 6.4965 -4.18908 0
M  V30 8551 C 85.9695 5.81037 -5.05421 0
M  V30 8552 C 85.2395 4.78366 -5.89277 0
M  V30 8553 O 85.0295 3.58302 -5.08433 0
M  V30 8554 C 83.8395 5.17448 -6.36119 0
M  V30 8555 O 83.4495 4.45271 -7.53232 0
M  V30 8556 C 82.9595 4.74639 -5.19936 0
M  V30 8557 C 83.6695 3.49432 -4.70418 0
M  V30 8558 N 83.6195 3.31776 -3.22945 0
M  V30 8559 H 86.4585 6.54213 -5.71376 0
M  V30 8560 H 86.7305 5.30492 -4.44033 0
M  V30 8561 H 85.8625 4.55889 -6.76652 0
M  V30 8562 P 81.8995 4.23843 -7.83734 0
M  V30 8563 O 81.6795 4.19407 -9.29784 0
M  V30 8564 O 81.1095 5.24426 -7.09156 0
M  V30 8565 O 81.6495 2.7935 -7.20758 0
M  V30 8566 C 82.5895 1.7299 -7.50419 0
M  V30 8567 C 81.8595 0.406376 -7.57911 0
M  V30 8568 O 81.6495 -0.0897726 -6.21935 0
M  V30 8569 C 80.4595 0.447224 -8.1878 0
M  V30 8570 O 80.0695 -0.825065 -8.71101 0
M  V30 8571 C 79.5795 0.783801 -6.99623 0
M  V30 8572 C 80.2895 0.0619192 -5.85967 0
M  V30 8573 N 80.2395 0.7859 -4.56281 0
M  V30 8574 H 83.0785 1.93423 -8.4679 0
M  V30 8575 H 83.3505 1.68181 -6.71046 0
M  V30 8576 H 82.4825 -0.289041 -8.15388 0
M  V30 8577 P 78.5196 -1.17771 -8.83182 0
M  V30 8578 O 78.2996 -2.07206 -9.98732 0
M  V30 8579 O 77.7296 0.0743816 -8.81969 0
M  V30 8580 O 78.2696 -1.97652 -7.47304 0
M  V30 8581 C 79.2096 -3.01133 -7.08783 0
M  V30 8582 C 78.4796 -4.12613 -6.37049 0
M  V30 8583 O 78.2696 -3.72827 -4.97879 0
M  V30 8584 C 77.0796 -4.45085 -6.88694 0
M  V30 8585 O 76.6896 -5.7877 -6.5624 0
M  V30 8586 C 76.1996 -3.47817 -6.12078 0
M  V30 8587 C 76.9096 -3.39414 -4.77697 0
M  V30 8588 N 76.8596 -2.04199 -4.15538 0
M  V30 8589 C 76.9396 -0.821545 -4.76977 0
M  V30 8590 N 76.8696 0.1794 -3.94592 0
M  V30 8591 C 76.7196 -0.419121 -2.70776 0
M  V30 8592 C 76.5896 0.109072 -1.40577 0
M  V30 8593 N 76.5796 1.4104 -1.1344 0
M  V30 8594 N 76.4696 -0.764381 -0.39411 0
M  V30 8595 C 76.4796 -2.06587 -0.664135 0
M  V30 8596 N 76.5996 -2.67948 -1.82153 0
M  V30 8597 C 76.7196 -1.77942 -2.8147 0
M  V30 8598 H 79.6986 -3.41248 -7.98759 0
M  V30 8599 H 79.9706 -2.57728 -6.42 0
M  V30 8600 H 79.1026 -5.02657 -6.42673 0
M  V30 8601 H 76.4476 -4.11708 -4.08956 0
M  V30 8602 H 76.1676 -2.49626 -6.61679 0
M  V30 8603 H 75.1766 -3.8662 -6.00862 0
M  V30 8604 H 77.0106 -4.29991 -7.97006 0
M  V30 8605 H 77.0516 -0.702451 -5.84696 0
M  V30 8606 H 76.6706 2.09647 -1.89651 0
M  V30 8607 H 76.4816 1.73358 -0.160575 0
M  V30 8608 H 76.3736 -2.71695 0.195838 0
M  V30 8609 P 75.1396 -6.144 -6.45285 0
M  V30 8610 O 74.9196 -7.54673 -6.86199 0
M  V30 8611 O 74.3496 -5.12391 -7.179 0
M  V30 8612 O 74.8896 -5.99158 -4.88404 0
M  V30 8613 C 75.8296 -6.60234 -3.96415 0
M  V30 8614 C 75.0996 -7.08259 -2.72856 0
M  V30 8615 O 74.8896 -5.9427 -1.83651 0
M  V30 8616 C 73.6996 -7.64886 -2.9555 0
M  V30 8617 O 73.3096 -8.53963 -1.90717 0
M  V30 8618 C 72.8196 -6.4116 -2.90739 0
M  V30 8619 C 73.5296 -5.55375 -1.86963 0
M  V30 8620 N 73.4796 -4.09664 -2.15742 0
M  V30 8621 H 76.3186 -7.45574 -4.45629 0
M  V30 8622 H 76.5906 -5.86232 -3.67314 0
M  V30 8623 H 75.7226 -7.84412 -2.24479 0
M  V30 8624 P 71.7596 -8.7635 -1.60911 0
M  V30 8625 O 71.5396 -10.1388 -1.11561 0
M  V30 8626 O 70.9696 -8.36503 -2.79617 0
M  V30 8627 O 71.5096 -7.71806 -0.42951 0
M  V30 8628 C 72.4496 -7.67148 0.673689 0
M  V30 8629 C 71.7196 -7.33374 1.95559 0
M  V30 8630 O 71.5096 -5.88721 2.00726 0
M  V30 8631 C 70.3196 -7.92526 2.10483 0
M  V30 8632 O 69.9296 -8.02971 3.47653 0
M  V30 8633 C 69.4396 -6.89602 1.41652 0
M  V30 8634 C 70.1496 -5.59201 1.75185 0
M  V30 8635 N 70.0996 -4.58235 0.662552 0
M  V30 8636 H 72.9386 -8.65116 0.777161 0
M  V30 8637 H 73.2106 -6.90173 0.474152 0
M  V30 8638 H 72.3426 -7.66548 2.79458 0
M  V30 8639 P 68.3796 -8.03563 3.84925 0
M  V30 8640 O 68.1596 -8.85821 5.0569 0
M  V30 8641 O 67.5896 -8.41101 2.65469 0
M  V30 8642 O 68.1296 -6.4965 4.18908 0
M  V30 8643 C 69.0696 -5.81037 5.05421 0
M  V30 8644 C 68.3396 -4.78366 5.89277 0
M  V30 8645 O 68.1296 -3.58302 5.08433 0
M  V30 8646 C 66.9396 -5.17448 6.36119 0
M  V30 8647 O 66.5496 -4.45271 7.53232 0
M  V30 8648 C 66.0596 -4.74639 5.19936 0
M  V30 8649 C 66.7696 -3.49432 4.70418 0
M  V30 8650 N 66.7196 -3.31776 3.22945 0
M  V30 8651 H 69.5586 -6.54213 5.71376 0
M  V30 8652 H 69.8306 -5.30492 4.44033 0
M  V30 8653 H 68.9626 -4.55889 6.76652 0
M  V30 8654 P 64.9996 -4.23843 7.83734 0
M  V30 8655 O 64.7796 -4.19407 9.29784 0
M  V30 8656 O 64.2096 -5.24426 7.09156 0
M  V30 8657 O 64.7496 -2.7935 7.20758 0
M  V30 8658 C 65.6896 -1.7299 7.50419 0
M  V30 8659 C 64.9596 -0.406376 7.57911 0
M  V30 8660 O 64.7496 0.0897726 6.21935 0
M  V30 8661 C 63.5596 -0.447224 8.1878 0
M  V30 8662 O 63.1696 0.825065 8.71101 0
M  V30 8663 C 62.6796 -0.783801 6.99623 0
M  V30 8664 C 63.3896 -0.0619192 5.85967 0
M  V30 8665 N 63.3396 -0.7859 4.56281 0
M  V30 8666 C 63.4196 -2.14308 4.31736 0
M  V30 8667 N 63.3396 -2.46106 3.05116 0
M  V30 8668 C 63.1996 -1.23422 2.4014 0
M  V30 8669 C 63.0696 -0.938381 1.02409 0
M  V30 8670 N 62.9496 0.444647 0.805413 0
M  V30 8671 C 62.9496 1.40829 1.79435 0
M  V30 8672 N 62.8196 2.67213 1.38558 0
M  V30 8673 N 63.0796 1.12947 3.09005 0
M  V30 8674 C 63.1996 -0.204887 3.32369 0
M  V30 8675 H 66.1786 -1.93423 8.4679 0
M  V30 8676 H 66.4506 -1.68181 6.71046 0
M  V30 8677 H 65.5826 0.289041 8.15388 0
M  V30 8678 P 61.6197 1.17771 8.83182 0
M  V30 8679 O 61.3997 2.07206 9.98732 0
M  V30 8680 O 60.8297 -0.0743816 8.81969 0
M  V30 8681 O 61.3697 1.97652 7.47304 0
M  V30 8682 C 62.3097 3.01133 7.08783 0
M  V30 8683 C 61.5797 4.12613 6.37049 0
M  V30 8684 O 61.3697 3.72827 4.97879 0
M  V30 8685 C 60.1797 4.45085 6.88694 0
M  V30 8686 O 59.7897 5.7877 6.5624 0
M  V30 8687 C 59.2997 3.47817 6.12078 0
M  V30 8688 C 60.0097 3.39414 4.77697 0
M  V30 8689 N 59.9597 2.04615 4.15333 0
M  V30 8690 H 62.7987 3.41248 7.98759 0
M  V30 8691 H 63.0707 2.5837 6.41742 0
M  V30 8692 H 62.2027 5.02657 6.42673 0
M  V30 8693 P 58.2397 6.144 6.45285 0
M  V30 8694 O 58.0197 7.54673 6.86199 0
M  V30 8695 O 57.4497 5.12391 7.179 0
M  V30 8696 O 57.9897 5.99158 4.88404 0
M  V30 8697 C 58.9297 6.60234 3.96415 0
M  V30 8698 C 58.1997 7.08259 2.72856 0
M  V30 8699 O 57.9897 5.9427 1.83651 0
M  V30 8700 C 56.7997 7.64886 2.9555 0
M  V30 8701 O 56.4097 8.53963 1.90717 0
M  V30 8702 C 55.9197 6.4116 2.90739 0
M  V30 8703 C 56.6297 5.55375 1.86963 0
M  V30 8704 N 56.5797 4.09664 2.15742 0
M  V30 8705 H 59.4187 7.45574 4.45629 0
M  V30 8706 H 59.6907 5.86232 3.67314 0
M  V30 8707 H 58.8227 7.84412 2.24479 0
M  V30 8708 P 54.8597 8.7635 1.60911 0
M  V30 8709 O 54.6397 10.1388 1.11561 0
M  V30 8710 O 54.0697 8.36503 2.79617 0
M  V30 8711 O 54.6097 7.71806 0.42951 0
M  V30 8712 C 55.5497 7.67148 -0.673689 0
M  V30 8713 C 54.8197 7.33374 -1.95559 0
M  V30 8714 O 54.6097 5.88721 -2.00726 0
M  V30 8715 C 53.4197 7.92526 -2.10483 0
M  V30 8716 O 53.0297 8.02971 -3.47653 0
M  V30 8717 C 52.5397 6.89602 -1.41652 0
M  V30 8718 C 53.2497 5.59201 -1.75185 0
M  V30 8719 N 53.1997 4.58235 -0.662552 0
M  V30 8720 H 56.0387 8.65116 -0.777161 0
M  V30 8721 H 56.3107 6.90173 -0.474152 0
M  V30 8722 H 55.4427 7.66548 -2.79458 0
M  V30 8723 P 51.4797 8.03563 -3.84925 0
M  V30 8724 O 51.2597 8.85821 -5.0569 0
M  V30 8725 O 50.6897 8.41101 -2.65469 0
M  V30 8726 O 51.2297 6.4965 -4.18908 0
M  V30 8727 C 52.1697 5.81037 -5.05421 0
M  V30 8728 C 51.4397 4.78366 -5.89277 0
M  V30 8729 O 51.2297 3.58302 -5.08433 0
M  V30 8730 C 50.0397 5.17448 -6.36119 0
M  V30 8731 O 49.6497 4.45271 -7.53232 0
M  V30 8732 C 49.1597 4.74639 -5.19936 0
M  V30 8733 C 49.8697 3.49432 -4.70418 0
M  V30 8734 N 49.8197 3.32099 -3.22613 0
M  V30 8735 H 52.6587 6.54213 -5.71376 0
M  V30 8736 H 52.9307 5.30936 -4.43503 0
M  V30 8737 H 52.0627 4.55889 -6.76652 0
M  V30 8738 H 49.4077 2.61715 -5.17932 0
M  V30 8739 H 49.1277 5.52155 -4.41878 0
M  V30 8740 H 48.1367 4.51981 -5.53374 0
M  V30 8741 H 49.9707 6.25124 -6.55234 0
M  V30 8742 P 48.0997 4.23843 -7.83734 0
M  V30 8743 O 47.8797 4.19407 -9.29784 0
M  V30 8744 O 47.3097 5.24426 -7.09156 0
M  V30 8745 O 47.8497 2.7935 -7.20758 0
M  V30 8746 C 48.7897 1.7299 -7.50419 0
M  V30 8747 C 48.0597 0.406376 -7.57911 0
M  V30 8748 O 47.8497 -0.0897726 -6.21935 0
M  V30 8749 C 46.6597 0.447224 -8.1878 0
M  V30 8750 O 46.2697 -0.825065 -8.71101 0
M  V30 8751 C 45.7797 0.783801 -6.99623 0
M  V30 8752 C 46.4897 0.0619192 -5.85967 0
M  V30 8753 N 46.4397 0.7859 -4.56281 0
M  V30 8754 H 49.2787 1.93423 -8.4679 0
M  V30 8755 H 49.5507 1.68181 -6.71046 0
M  V30 8756 H 48.6827 -0.289041 -8.15388 0
M  V30 8757 P 44.7198 -1.17771 -8.83182 0
M  V30 8758 O 44.4998 -2.07206 -9.98732 0
M  V30 8759 O 43.9298 0.0743816 -8.81969 0
M  V30 8760 O 44.4698 -1.97652 -7.47304 0
M  V30 8761 C 45.4098 -3.01133 -7.08783 0
M  V30 8762 C 44.6798 -4.12613 -6.37049 0
M  V30 8763 O 44.4698 -3.72827 -4.97879 0
M  V30 8764 C 43.2798 -4.45085 -6.88694 0
M  V30 8765 O 42.8898 -5.7877 -6.5624 0
M  V30 8766 C 42.3998 -3.47817 -6.12078 0
M  V30 8767 C 43.1098 -3.39414 -4.77697 0
M  V30 8768 N 43.0598 -2.04615 -4.15333 0
M  V30 8769 H 45.8988 -3.41248 -7.98759 0
M  V30 8770 H 46.1708 -2.5837 -6.41742 0
M  V30 8771 H 45.3028 -5.02657 -6.42673 0
M  V30 8772 P 41.3398 -6.144 -6.45285 0
M  V30 8773 O 41.1198 -7.54673 -6.86199 0
M  V30 8774 O 40.5498 -5.12391 -7.179 0
M  V30 8775 O 41.0898 -5.99158 -4.88404 0
M  V30 8776 C 42.0298 -6.60062 -3.96313 0
M  V30 8777 C 41.2998 -7.08259 -2.72856 0
M  V30 8778 O 41.0898 -5.9427 -1.83651 0
M  V30 8779 C 39.8998 -7.65087 -2.94749 0
M  V30 8780 O 39.5098 -8.53963 -1.90717 0
M  V30 8781 C 39.0198 -6.41069 -2.90698 0
M  V30 8782 C 39.7298 -5.5528 -1.86931 0
M  V30 8783 N 39.6798 -4.09575 -2.15696 0
M  V30 8784 C 39.5298 -3.24249 -1.08435 0
M  V30 8785 O 39.4398 -3.63946 0.0628747 0
M  V30 8786 N 39.4898 -1.90009 -1.39973 0
M  V30 8787 C 39.5798 -1.34884 -2.65614 0
M  V30 8788 O 39.5298 -0.123716 -2.81728 0
M  V30 8789 C 39.7298 -2.3145 -3.71736 0
M  V30 8790 C 39.8398 -1.75913 -5.10438 0
M  V30 8791 C 39.7798 -3.63518 -3.44754 0
M  V30 8792 H 42.5208 -7.45402 -4.45526 0
M  V30 8793 H 42.7898 -5.86062 -3.67208 0
M  V30 8794 H 41.9228 -7.84412 -2.24479 0
M  V30 8795 H 39.2678 -5.73358 -0.888409 0
M  V30 8796 H 38.9888 -5.90877 -3.88583 0
M  V30 8797 H 37.9968 -6.65867 -2.58821 0
M  V30 8798 H 39.8308 -8.16248 -3.92006 0
M  V30 8799 H 39.9018 -4.34551 -4.26383 0
M  V30 8800 H 38.8718 -1.85471 -5.61775 0
M  V30 8801 H 40.6088 -2.31364 -5.66257 0
M  V30 8802 H 40.1208 -0.695936 -5.05229 0
M  V30 8803 H 39.3848 -1.26277 -0.63625 0
M  V30 8804 P 37.9598 -8.7635 -1.60911 0
M  V30 8805 O 37.7398 -10.1388 -1.11561 0
M  V30 8806 O 37.1698 -8.36503 -2.79617 0
M  V30 8807 O 37.7098 -7.71806 -0.42951 0
M  V30 8808 C 38.6498 -7.67148 0.673689 0
M  V30 8809 C 37.9198 -7.33374 1.95559 0
M  V30 8810 O 37.7098 -5.88721 2.00726 0
M  V30 8811 C 36.5198 -7.92526 2.10483 0
M  V30 8812 O 36.1298 -8.02971 3.47653 0
M  V30 8813 C 35.6398 -6.89602 1.41652 0
M  V30 8814 C 36.3498 -5.59201 1.75185 0
M  V30 8815 N 36.2998 -4.58235 0.662552 0
M  V30 8816 H 39.1388 -8.65116 0.777161 0
M  V30 8817 H 39.4108 -6.90173 0.474152 0
M  V30 8818 H 38.5428 -7.66548 2.79458 0
M  V30 8819 P 34.5798 -8.03563 3.84925 0
M  V30 8820 O 34.3598 -8.85821 5.0569 0
M  V30 8821 O 33.7898 -8.41101 2.65469 0
M  V30 8822 O 34.3298 -6.4965 4.18908 0
M  V30 8823 C 35.2698 -5.81037 5.05421 0
M  V30 8824 C 34.5398 -4.78366 5.89277 0
M  V30 8825 O 34.3298 -3.58302 5.08433 0
M  V30 8826 C 33.1398 -5.17448 6.36119 0
M  V30 8827 O 32.7498 -4.45271 7.53232 0
M  V30 8828 C 32.2598 -4.74639 5.19936 0
M  V30 8829 C 32.9698 -3.49432 4.70418 0
M  V30 8830 N 32.9198 -3.31776 3.22945 0
M  V30 8831 H 35.7588 -6.54213 5.71376 0
M  V30 8832 H 36.0308 -5.30492 4.44033 0
M  V30 8833 H 35.1628 -4.55889 6.76652 0
M  V30 8834 P 31.1998 -4.23843 7.83734 0
M  V30 8835 O 30.9798 -4.19407 9.29784 0
M  V30 8836 O 30.4098 -5.24426 7.09156 0
M  V30 8837 O 30.9498 -2.7935 7.20758 0
M  V30 8838 C 31.8898 -1.7299 7.50419 0
M  V30 8839 C 31.1598 -0.406376 7.57911 0
M  V30 8840 O 30.9498 0.0897726 6.21935 0
M  V30 8841 C 29.7598 -0.447224 8.1878 0
M  V30 8842 O 29.3698 0.825065 8.71101 0
M  V30 8843 C 28.8798 -0.783801 6.99623 0
M  V30 8844 C 29.5898 -0.0619192 5.85967 0
M  V30 8845 N 29.5398 -0.790462 4.56202 0
M  V30 8846 H 32.3788 -1.93423 8.4679 0
M  V30 8847 H 32.6508 -1.68852 6.70877 0
M  V30 8848 H 31.7828 0.289041 8.15388 0
M  V30 8849 H 29.1278 0.927006 5.72848 0
M  V30 8850 H 28.8478 -1.86973 6.82036 0
M  V30 8851 H 27.8568 -0.403953 7.13357 0
M  V30 8852 H 29.6908 -1.20599 8.97534 0
M  V30 8853 P 27.8199 1.17771 8.83182 0
M  V30 8854 O 27.5999 2.07206 9.98732 0
M  V30 8855 O 27.0299 -0.0743816 8.81969 0
M  V30 8856 O 27.5699 1.97652 7.47304 0
M  V30 8857 C 28.5099 3.01133 7.08783 0
M  V30 8858 C 27.7799 4.12613 6.37049 0
M  V30 8859 O 27.5699 3.72827 4.97879 0
M  V30 8860 C 26.3799 4.45085 6.88694 0
M  V30 8861 O 25.9899 5.7877 6.5624 0
M  V30 8862 C 25.4999 3.47817 6.12078 0
M  V30 8863 C 26.2099 3.39414 4.77697 0
M  V30 8864 N 26.1599 2.04615 4.15333 0
M  V30 8865 H 28.9989 3.41248 7.98759 0
M  V30 8866 H 29.2709 2.5837 6.41742 0
M  V30 8867 H 28.4029 5.02657 6.42673 0
M  V30 8868 P 24.4399 6.144 6.45285 0
M  V30 8869 O 24.2199 7.54673 6.86199 0
M  V30 8870 O 23.6499 5.12391 7.179 0
M  V30 8871 O 24.1899 5.99158 4.88404 0
M  V30 8872 C 25.1299 6.60234 3.96415 0
M  V30 8873 C 24.3999 7.08259 2.72856 0
M  V30 8874 O 24.1899 5.9427 1.83651 0
M  V30 8875 C 22.9999 7.64886 2.9555 0
M  V30 8876 O 22.6099 8.53963 1.90717 0
M  V30 8877 C 22.1199 6.4116 2.90739 0
M  V30 8878 C 22.8299 5.55375 1.86963 0
M  V30 8879 N 22.7799 4.09664 2.15742 0
M  V30 8880 H 25.6189 7.45574 4.45629 0
M  V30 8881 H 25.8909 5.86232 3.67314 0
M  V30 8882 H 25.0229 7.84412 2.24479 0
M  V30 8883 P 21.0599 8.7635 1.60911 0
M  V30 8884 O 20.8399 10.1388 1.11561 0
M  V30 8885 O 20.2699 8.36503 2.79617 0
M  V30 8886 O 20.8099 7.71806 0.42951 0
M  V30 8887 C 21.7499 7.67148 -0.673689 0
M  V30 8888 C 21.0199 7.33374 -1.95559 0
M  V30 8889 O 20.8099 5.88721 -2.00726 0
M  V30 8890 C 19.6199 7.92526 -2.10483 0
M  V30 8891 O 19.2299 8.02971 -3.47653 0
M  V30 8892 C 18.7399 6.89602 -1.41652 0
M  V30 8893 C 19.4499 5.59201 -1.75185 0
M  V30 8894 N 19.3999 4.58301 -0.657969 0
M  V30 8895 C 19.4799 4.79019 0.692603 0
M  V30 8896 N 19.4099 3.69736 1.38998 0
M  V30 8897 C 19.2599 2.70474 0.438135 0
M  V30 8898 C 19.1299 1.30327 0.538142 0
M  V30 8899 N 19.1199 0.64304 1.69192 0
M  V30 8900 N 19.0099 0.611027 -0.605183 0
M  V30 8901 C 19.0199 1.27002 -1.75953 0
M  V30 8902 N 19.1399 2.56038 -1.98546 0
M  V30 8903 C 19.2599 3.22681 -0.822541 0
M  V30 8904 H 22.2389 8.65116 -0.777161 0
M  V30 8905 H 22.5109 6.9022 -0.46725 0
M  V30 8906 H 21.6429 7.66548 -2.79458 0
M  V30 8907 H 18.9879 5.16165 -2.65183 0
M  V30 8908 H 18.7079 7.06433 -0.329384 0
M  V30 8909 H 17.7169 6.90926 -1.82021 0
M  V30 8910 H 19.5509 8.90873 -1.62657 0
M  V30 8911 H 19.5919 5.77785 1.13874 0
M  V30 8912 H 19.2109 1.15585 2.57991 0
M  V30 8913 H 19.0219 -0.382989 1.69835 0
M  V30 8914 H 18.9139 0.653331 -2.64449 0
M  V30 8915 P 17.6799 8.03563 -3.84925 0
M  V30 8916 O 17.4599 8.85821 -5.0569 0
M  V30 8917 O 16.8899 8.41101 -2.65469 0
M  V30 8918 O 17.4299 6.4965 -4.18908 0
M  V30 8919 C 18.3699 5.81037 -5.05421 0
M  V30 8920 C 17.6399 4.78366 -5.89277 0
M  V30 8921 O 17.4299 3.58302 -5.08433 0
M  V30 8922 C 16.2399 5.17448 -6.36119 0
M  V30 8923 O 15.8499 4.45271 -7.53232 0
M  V30 8924 C 15.3599 4.74639 -5.19936 0
M  V30 8925 C 16.0699 3.49432 -4.70418 0
M  V30 8926 N 16.0199 3.31776 -3.22945 0
M  V30 8927 H 18.8589 6.54213 -5.71376 0
M  V30 8928 H 19.1309 5.30492 -4.44033 0
M  V30 8929 H 18.2629 4.55889 -6.76652 0
M  V30 8930 P 14.2999 4.23843 -7.83734 0
M  V30 8931 O 14.0799 4.19407 -9.29784 0
M  V30 8932 O 13.5099 5.24426 -7.09156 0
M  V30 8933 O 14.0499 2.7935 -7.20758 0
M  V30 8934 C 14.9899 1.7299 -7.50419 0
M  V30 8935 C 14.2599 0.406376 -7.57911 0
M  V30 8936 O 14.0499 -0.0897726 -6.21935 0
M  V30 8937 C 12.8599 0.447224 -8.1878 0
M  V30 8938 O 12.4699 -0.825065 -8.71101 0
M  V30 8939 C 11.9799 0.783801 -6.99623 0
M  V30 8940 C 12.6899 0.0619192 -5.85967 0
M  V30 8941 N 12.6399 0.7859 -4.56281 0
M  V30 8942 H 15.4789 1.93423 -8.4679 0
M  V30 8943 H 15.7509 1.68181 -6.71046 0
M  V30 8944 H 14.8829 -0.289041 -8.15388 0
M  V30 8945 P 10.92 -1.17771 -8.83182 0
M  V30 8946 O 10.7 -2.07206 -9.98732 0
M  V30 8947 O 10.13 0.0743816 -8.81969 0
M  V30 8948 O 10.67 -1.97652 -7.47304 0
M  V30 8949 C 11.61 -3.01133 -7.08783 0
M  V30 8950 C 10.88 -4.12613 -6.37049 0
M  V30 8951 O 10.67 -3.72827 -4.97879 0
M  V30 8952 C 9.47996 -4.45085 -6.88694 0
M  V30 8953 O 9.08996 -5.7877 -6.5624 0
M  V30 8954 C 8.59996 -3.47817 -6.12078 0
M  V30 8955 C 9.30996 -3.39414 -4.77697 0
M  V30 8956 N 9.25996 -2.04615 -4.15333 0
M  V30 8957 H 12.099 -3.41248 -7.98759 0
M  V30 8958 H 12.371 -2.5837 -6.41742 0
M  V30 8959 H 11.503 -5.02657 -6.42673 0
M  V30 8960 P 7.53998 -6.144 -6.45285 0
M  V30 8961 O 7.31998 -7.54673 -6.86199 0
M  V30 8962 O 6.74998 -5.12391 -7.179 0
M  V30 8963 O 7.28998 -5.99158 -4.88404 0
M  V30 8964 C 8.22998 -6.60062 -3.96313 0
M  V30 8965 C 7.49998 -7.08259 -2.72856 0
M  V30 8966 O 7.28998 -5.9427 -1.83651 0
M  V30 8967 C 6.09998 -7.65087 -2.94749 0
M  V30 8968 O 5.70998 -8.53963 -1.90717 0
M  V30 8969 C 5.21998 -6.41069 -2.90698 0
M  V30 8970 C 5.92998 -5.5528 -1.86931 0
M  V30 8971 N 5.87998 -4.09575 -2.15696 0
M  V30 8972 C 5.72998 -3.24249 -1.08435 0
M  V30 8973 O 5.63998 -3.63946 0.0628747 0
M  V30 8974 N 5.68998 -1.90009 -1.39973 0
M  V30 8975 C 5.77998 -1.34884 -2.65614 0
M  V30 8976 O 5.72998 -0.123716 -2.81728 0
M  V30 8977 C 5.92998 -2.3145 -3.71736 0
M  V30 8978 C 6.03998 -1.75913 -5.10438 0
M  V30 8979 C 5.97998 -3.63518 -3.44754 0
M  V30 8980 H 8.72098 -7.45402 -4.45526 0
M  V30 8981 H 8.98998 -5.86062 -3.67208 0
M  V30 8982 H 8.12298 -7.84412 -2.24479 0
M  V30 8983 H 5.46798 -5.73358 -0.888409 0
M  V30 8984 H 5.18898 -5.90877 -3.88583 0
M  V30 8985 H 4.19698 -6.65867 -2.58821 0
M  V30 8986 H 6.03098 -8.16248 -3.92006 0
M  V30 8987 H 6.10198 -4.34551 -4.26383 0
M  V30 8988 H 5.07198 -1.85471 -5.61775 0
M  V30 8989 H 6.80898 -2.31364 -5.66257 0
M  V30 8990 H 6.32098 -0.695936 -5.05229 0
M  V30 8991 H 5.58498 -1.26277 -0.63625 0
M  V30 8992 P 4.16 -8.7635 -1.60911 0
M  V30 8993 O 3.94 -10.1388 -1.11561 0
M  V30 8994 O 3.37 -8.36503 -2.79617 0
M  V30 8995 O 3.91 -7.71806 -0.42951 0
M  V30 8996 C 4.85 -7.67148 0.673689 0
M  V30 8997 C 4.12 -7.33374 1.95559 0
M  V30 8998 O 3.91 -5.88721 2.00726 0
M  V30 8999 C 2.72 -7.92526 2.10483 0
M  V30 9000 O 2.33 -8.02971 3.47653 0
M  V30 9001 C 1.84 -6.89602 1.41652 0
M  V30 9002 C 2.55 -5.59201 1.75185 0
M  V30 9003 N 2.5 -4.58235 0.662552 0
M  V30 9004 H 5.339 -8.65116 0.777161 0
M  V30 9005 H 5.611 -6.90173 0.474152 0
M  V30 9006 H 4.743 -7.66548 2.79458 0
M  V30 9007 H 1.613 -8.66322 3.55694 0
M  V30 END ATOM
M  V30 BEGIN BOND
M  V30 END BOND
M  V30 END CTAB
M  END
$$$$
