drugbank_target|Q8XL08 O-GlcNAcase NagJ (DB04699)
 OpenBabel12092120303D

  0  0  0     0  0            999 V3000
M  V30 BEGIN CTAB
M  V30 COUNTS 15413 15560 0 0 0
M  V30 BEGIN ATOM
M  V30 1 H -0.908 1.98254 -0.117106 0
M  V30 2 N 0 1.576 0 0
M  V30 3 C 0.933 2.03868 1.02534 0
M  V30 4 C 1.911 0.928543 1.3348 0
M  V30 5 O 3.095 1.19667 1.45644 0
M  V30 6 C 0.222 2.43627 2.35294 0
M  V30 7 C -0.732 3.65373 2.2001 0
M  V30 8 S 0.101 5.13292 1.52614 0
M  V30 9 C 1.257 5.56322 2.86805 0
M  V30 10 H 1.49 2.90518 0.631377 0
M  V30 11 H -0.977 1.52953 0.210867 0
M  V30 12 H 0.981 2.67203 3.11629 0
M  V30 13 H -0.358 1.57376 2.7183 0
M  V30 14 H -1.165 3.90944 3.18086 0
M  V30 15 H -1.563 3.418 1.51819 0
M  V30 16 H 0.729 5.58782 3.83104 0
M  V30 17 H 1.672 6.56266 2.65933 0
M  V30 18 H 2.08 4.83886 2.90714 0
M  V30 19 N 1.4781 -0.272755 1.55222 0
M  V30 20 C 2.4251 -1.33716 1.88119 0
M  V30 21 C 3.3951 -1.49066 0.73271 0
M  V30 22 O 4.5801 -1.63469 0.984002 0
M  V30 23 C 1.7201 -2.69238 2.15882 0
M  V30 24 C 0.8331 -2.62108 3.43399 0
M  V30 25 C -0.0319 -3.89811 3.60861 0
M  V30 26 C -0.9929 -3.77193 4.8207 0
M  V30 27 N -1.8559 -4.9673 4.96189 0
M  V30 28 H 2.9841 -1.04962 2.78903 0
M  V30 29 H 0.5211 -0.507088 1.38083 0
M  V30 30 H 2.4791 -3.48089 2.29978 0
M  V30 31 H 1.1091 -2.96194 1.28331 0
M  V30 32 H 0.1611 -1.74967 3.37773 0
M  V30 33 H 1.4731 -2.48685 4.32386 0
M  V30 34 H 0.6271 -4.77103 3.74777 0
M  V30 35 H -0.6339 -4.06102 2.7006 0
M  V30 36 H -1.6289 -2.88284 4.68159 0
M  V30 37 H -0.4039 -3.62421 5.74307 0
M  V30 38 H -2.4579 -5.13431 4.08319 0
M  V30 39 H -2.5409 -4.85839 5.79221 0
M  V30 40 H -1.2729 -5.85594 5.1449 0
M  V30 41 N 2.9562 -1.48159 -0.537278 0
M  V30 42 C 4.3722 -1.34118 -0.865129 0
M  V30 43 C 4.5722 -0.346678 -1.98495 0
M  V30 44 O 3.6282 0.234715 -2.51407 0
M  V30 45 C 4.9412 -2.73963 -1.23954 0
M  V30 46 C 6.4892 -2.82397 -1.34984 0
M  V30 47 C 6.9642 -4.22928 -1.75772 0
M  V30 48 N 8.4552 -4.25566 -1.82887 0
M  V30 49 C 9.1902 -5.31235 -2.15817 0
M  V30 50 N 8.6862 -6.47189 -2.47222 0
M  V30 51 N 10.4792 -5.18624 -2.16761 0
M  V30 52 H 2.6302 -2.1144 0.201715 0
M  V30 53 H 4.8932 -0.947598 0.0275949 0
M  V30 54 H 4.5992 -3.48264 -0.490381 0
M  V30 55 H 4.4732 -3.0702 -2.19132 0
M  V30 56 H 6.8602 -2.08356 -2.08978 0
M  V30 57 H 6.9412 -2.5297 -0.379448 0
M  V30 58 H 6.5852 -4.97482 -1.02341 0
M  V30 59 H 6.5152 -4.49794 -2.73848 0
M  V30 60 H 9.0062 -3.41924 -1.60924 0
M  V30 61 H 9.3192 -7.23564 -2.71433 0
M  V30 62 H 7.6642 -6.50476 -2.44757 0
M  V30 63 H 10.8552 -4.27056 -1.91679 0
M  V30 64 H 11.0282 -6.01078 -2.42093 0
M  V30 65 N 4.4343 0.785586 -1.36625 0
M  V30 66 C 5.3813 1.89838 -1.31264 0
M  V30 67 C 6.3513 1.65115 -0.180633 0
M  V30 68 O 7.5363 1.87222 -0.36777 0
M  V30 69 C 4.6763 3.26706 -1.11163 0
M  V30 70 C 3.7893 3.63476 -2.33472 0
M  V30 71 C 2.9243 4.89481 -2.06353 0
M  V30 72 C 1.9633 5.18941 -3.24602 0
M  V30 73 N 1.1003 6.36131 -2.97123 0
M  V30 74 H 5.9403 1.93756 -2.26413 0
M  V30 75 H 3.4773 0.947454 -1.12524 0
M  V30 76 H 5.4353 4.05639 -0.975337 0
M  V30 77 H 4.0653 3.222 -0.196674 0
M  V30 78 H 3.1173 2.79636 -2.57891 0
M  V30 79 H 4.4293 3.81193 -3.21704 0
M  V30 80 H 3.5833 5.76288 -1.89675 0
M  V30 81 H 2.3223 4.73841 -1.15437 0
M  V30 82 H 1.3273 4.30615 -3.41834 0
M  V30 83 H 2.5523 5.36498 -4.16349 0
M  V30 84 H 0.4983 6.21875 -2.08823 0
M  V30 85 H 0.4153 6.54198 -3.78894 0
M  V30 86 H 1.6833 7.2591 -2.84033 0
M  V30 87 N 5.9124 1.20967 1.01018 0
M  V30 88 C 6.8454 0.907578 2.09376 0
M  V30 89 C 7.8234 -0.142868 1.61971 0
M  V30 90 O 9.0074 -0.0150391 1.88494 0
M  V30 91 C 6.1344 0.361791 3.36762 0
M  V30 92 C 5.1804 1.39423 4.03068 0
M  V30 93 S 6.0134 2.96159 4.4615 0
M  V30 94 C 7.1694 2.43173 5.7673 0
M  V30 95 H 7.4024 1.82519 2.34678 0
M  V30 96 H 4.9354 1.03884 1.14225 0
M  V30 97 H 6.8934 0.0534523 4.10465 0
M  V30 98 H 5.5544 -0.53443 3.0952 0
M  V30 99 H 4.7474 0.961853 4.94737 0
M  V30 100 H 4.3494 1.65038 3.35617 0
M  V30 101 H 6.6414 1.83335 6.52223 0
M  V30 102 H 7.5844 3.33264 6.24773 0
M  V30 103 H 7.9924 1.85069 5.33301 0
M  V30 104 N 7.3905 -1.2043 1.01659 0
M  V30 105 C 8.3205 -2.25466 0.607226 0
M  V30 106 C 9.3015 -1.65853 -0.377716 0
M  V30 107 O 10.4865 -1.92409 -0.263149 0
M  V30 108 C 7.6165 -3.47256 -0.0552949 0
M  V30 109 C 6.5705 -4.19462 0.850632 0
M  V30 110 C 5.8965 -5.34673 0.0538859 0
M  V30 111 C 7.1965 -4.75603 2.15868 0
M  V30 112 H 8.8905 -2.59962 1.48526 0
M  V30 113 H 6.4365 -1.2496 0.715605 0
M  V30 114 H 8.3895 -4.19917 -0.353233 0
M  V30 115 H 7.1135 -3.11924 -0.968045 0
M  V30 116 H 5.7725 -3.48667 1.13257 0
M  V30 117 H 5.4205 -4.95585 -0.860514 0
M  V30 118 H 5.1205 -5.83913 0.657192 0
M  V30 119 H 6.6445 -6.10138 -0.237598 0
M  V30 120 H 8.0585 -5.40083 1.92311 0
M  V30 121 H 6.4555 -5.3528 2.71284 0
M  V30 122 H 7.5255 -3.94346 2.82169 0
M  V30 123 N 8.8686 -0.792821 -1.36206 0
M  V30 124 C 9.8156 -0.191653 -2.30003 0
M  V30 125 C 10.7856 0.666453 -1.52143 0
M  V30 126 O 11.9706 0.61442 -1.80636 0
M  V30 127 C 9.1106 0.664848 -3.38635 0
M  V30 128 C 8.2236 -0.212175 -4.31479 0
M  V30 129 C 7.3586 0.651022 -5.27196 0
M  V30 130 C 6.3976 -0.227247 -6.11678 0
M  V30 131 N 5.5346 0.595127 -6.99573 0
M  V30 132 H 10.3746 -0.996978 -2.80828 0
M  V30 133 H 7.9116 -0.503206 -1.38225 0
M  V30 134 H 9.8696 1.17645 -4.00269 0
M  V30 135 H 8.4996 1.43557 -2.89122 0
M  V30 136 H 7.5516 -0.841777 -3.70969 0
M  V30 137 H 8.8636 -0.888751 -4.90818 0
M  V30 138 H 8.0176 1.2283 -5.94136 0
M  V30 139 H 6.7566 1.36121 -4.68319 0
M  V30 140 H 5.7616 -0.816904 -5.43697 0
M  V30 141 H 6.9866 -0.93509 -6.72631 0
M  V30 142 H 4.9326 1.28955 -6.432 0
M  V30 143 H 4.8496 -0.0236952 -7.55996 0
M  V30 144 H 6.1176 1.15613 -7.70879 0
M  V30 145 N 10.3467 1.47872 -0.545128 0
M  V30 146 C 11.7627 1.5829 -0.204032 0
M  V30 147 C 11.9627 1.54529 1.29317 0
M  V30 148 O 11.0187 1.44232 2.07252 0
M  V30 149 C 12.3317 2.89304 -0.819987 0
M  V30 150 C 13.8797 3.02864 -0.790105 0
M  V30 151 C 14.3547 4.3656 -1.38491 0
M  V30 152 N 15.8457 4.43165 -1.34755 0
M  V30 153 C 16.5807 5.45153 -1.77753 0
M  V30 154 N 16.0767 6.54016 -2.2855 0
M  V30 155 N 17.8697 5.36125 -1.68897 0
M  V30 156 H 10.0207 1.4856 -1.51802 0
M  V30 157 H 12.2837 0.706305 -0.632327 0
M  V30 158 H 11.9897 2.97757 -1.87173 0
M  V30 159 H 11.8637 3.75957 -0.305915 0
M  V30 160 H 14.2507 2.94014 0.252913 0
M  V30 161 H 14.3317 2.17782 -1.34181 0
M  V30 162 H 13.9757 4.46164 -2.42693 0
M  V30 163 H 13.9057 5.20353 -0.808754 0
M  V30 164 H 16.3967 3.65083 -0.975855 0
M  V30 165 H 16.7097 7.27994 -2.59314 0
M  V30 166 H 15.0547 6.54938 -2.32553 0
M  V30 167 H 18.2457 4.49975 -1.28998 0
M  V30 168 H 18.4187 6.15472 -2.02726 0
M  V30 169 N 11.8248 0.280983 1.55075 0
M  V30 170 C 12.7548 -0.597469 2.25727 0
M  V30 171 C 13.7358 -1.15417 1.24952 0
M  V30 172 O 14.9208 -1.18722 1.53684 0
M  V30 173 C 12.0508 -1.7789 2.98283 0
M  V30 174 C 11.0048 -1.35347 4.06036 0
M  V30 175 C 10.3308 -2.61846 4.66198 0
M  V30 176 C 11.6308 -0.499354 5.19907 0
M  V30 177 H 13.3248 -0.00824265 2.99399 0
M  V30 178 H 10.8708 -0.0025244 1.44 0
M  V30 179 H 12.8238 -2.39937 3.46422 0
M  V30 180 H 11.5478 -2.39405 2.22155 0
M  V30 181 H 10.2068 -0.756156 3.58717 0
M  V30 182 H 9.8548 -3.21632 3.86732 0
M  V30 183 H 9.5548 -2.3409 5.38958 0
M  V30 184 H 11.0788 -3.24732 5.1709 0
M  V30 185 H 12.4928 -1.02498 5.64063 0
M  V30 186 H 10.8898 -0.316424 5.99265 0
M  V30 187 H 11.9598 0.480459 4.82514 0
M  V30 188 N 13.3029 -1.57598 0.00835791 0
M  V30 189 C 14.2329 -2.1198 -0.979113 0
M  V30 190 C 15.2139 -1.03091 -1.35301 0
M  V30 191 O 16.3989 -1.30818 -1.43528 0
M  V30 192 C 13.5289 -2.62995 -2.26828 0
M  V30 193 C 12.4829 -3.76485 -2.03576 0
M  V30 194 C 11.8089 -4.13846 -3.38579 0
M  V30 195 C 13.1089 -5.0342 -1.39161 0
M  V30 196 H 14.8029 -2.94738 -0.526281 0
M  V30 197 H 12.3489 -1.41783 -0.251704 0
M  V30 198 H 14.3019 -2.99669 -2.96271 0
M  V30 199 H 13.0259 -1.7737 -2.7424 0
M  V30 200 H 11.6849 -3.40217 -1.36557 0
M  V30 201 H 11.3329 -3.25232 -3.83709 0
M  V30 202 H 11.0329 -4.90312 -3.23834 0
M  V30 203 H 12.5569 -4.53086 -4.09323 0
M  V30 204 H 13.9709 -5.37812 -1.98573 0
M  V30 205 H 12.3679 -5.84746 -1.34878 0
M  V30 206 H 13.4379 -4.83548 -0.361868 0
M  V30 207 N 14.781 0.264519 -1.55364 0
M  V30 208 C 16.009 1.013 -1.80405 0
M  V30 209 C 16.424 1.79618 -0.581622 0
M  V30 210 O 15.781 1.76879 0.449468 0
M  V30 211 C 15.832 1.96487 -3.03439 0
M  V30 212 O 15.553 1.21341 -4.20961 0
M  V30 213 C 17.054 2.83079 -3.41147 0
M  V30 214 H 14.274 0.298875 -0.600762 0
M  V30 215 H 16.818 0.292736 -2.02394 0
M  V30 216 H 14.973 2.63965 -2.83551 0
M  V30 217 H 15.387 1.85573 -4.90574 0
M  V30 218 H 16.861 3.4565 -4.30384 0
M  V30 219 H 17.338 3.53286 -2.60932 0
M  V30 220 H 17.944 2.2108 -3.63323 0
M  V30 221 N 16.2591 1.48442 0.529413 0
M  V30 222 C 17.4841 1.60406 1.31471 0
M  V30 223 C 17.9091 0.264738 1.86228 0
M  V30 224 O 17.2671 -0.763668 1.64432 0
M  V30 225 C 17.3151 2.65419 2.44101 0
M  V30 226 O 16.4191 2.22618 3.47153 0
M  V30 227 H 15.7601 0.537863 0.389357 0
M  V30 228 H 18.2901 1.94432 0.636965 0
M  V30 229 H 18.3001 2.86709 2.90279 0
M  V30 230 H 16.9751 3.62652 2.03608 0
M  V30 231 H 15.5521 2.11543 3.0709 0
M  V30 232 N 17.7372 -0.778329 1.37039 0
M  V30 233 C 18.7002 -1.87301 1.32102 0
M  V30 234 C 19.7002 -1.59198 0.226405 0
M  V30 235 O 20.8902 -1.67403 0.481861 0
M  V30 236 C 18.0222 -3.24309 1.05055 0
M  V30 237 H 19.2152 -1.93093 2.29467 0
M  V30 238 H 16.7682 -0.977358 1.21973 0
M  V30 239 H 17.5032 -3.24196 0.0819373 0
M  V30 240 H 17.2882 -3.46098 1.84279 0
M  V30 241 H 18.7782 -4.04382 1.04234 0
M  V30 242 N 19.2153 -1.21501 -1.00376 0
M  V30 243 C 20.4623 -1.03299 -1.74171 0
M  V30 244 C 20.7903 0.433326 -1.89612 0
M  V30 245 O 20.0453 1.33779 -1.42834 0
M  V30 246 C 20.3443 -1.67673 -3.15627 0
M  V30 247 C 20.0103 -3.17533 -3.2013 0
M  V30 248 C 18.6723 -3.58427 -3.21067 0
M  V30 249 C 21.0243 -4.13504 -3.17275 0
M  V30 250 C 18.3523 -4.93794 -3.16835 0
M  V30 251 C 20.7043 -5.48834 -3.14585 0
M  V30 252 C 19.3683 -5.89123 -3.13831 0
M  V30 253 H 18.6383 -0.377999 -0.637336 0
M  V30 254 H 21.2853 -1.51111 -1.17634 0
M  V30 255 H 19.5903 -1.12158 -3.75404 0
M  V30 256 H 21.2873 -1.51091 -3.71446 0
M  V30 257 H 17.8773 -2.84965 -3.20145 0
M  V30 258 H 22.0613 -3.82936 -3.15711 0
M  V30 259 H 17.3173 -5.24255 -3.1459 0
M  V30 260 H 21.4913 -6.22934 -3.1133 0
M  V30 261 H 19.1183 -6.93984 -3.10307 0
M  V30 262 N 20.6934 1.19889 -1.02296 0
M  V30 263 C 21.6564 2.21116 -0.603351 0
M  V30 264 C 22.6564 1.5738 0.329884 0
M  V30 265 O 23.8464 1.73802 0.117702 0
M  V30 266 C 20.9784 3.40696 0.117992 0
M  V30 267 H 22.1714 2.59754 -1.49893 0
M  V30 268 H 19.7244 1.33463 -0.813468 0
M  V30 269 H 20.4594 3.07569 1.0282 0
M  V30 270 H 20.2444 3.88188 -0.552511 0
M  V30 271 H 21.7344 4.15692 0.398696 0
M  V30 272 N 22.1715 0.800033 1.35784 0
M  V30 273 C 23.4115 0.382891 2.00782 0
M  V30 274 C 23.7755 -1.02891 1.62103 0
M  V30 275 O 24.9765 -1.54771 2.19771 0
M  V30 276 C 23.2475 0.553299 3.53091 0
M  V30 277 S 24.8065 0.225608 4.3822 0
M  V30 278 H 21.6245 0.145737 0.695904 0
M  V30 279 H 24.2265 1.04085 1.65489 0
M  V30 280 H 22.9305 1.58091 3.78729 0
M  V30 281 H 22.4615 -0.120214 3.93216 0
M  V30 282 H 24.4765 -0.969074 4.86645 0
M  V30 283 N 23.6496 -1.47581 0.552962 0
M  V30 284 C 24.5826 -2.26883 -0.244857 0
M  V30 285 C 25.5606 -1.33784 -0.924147 0
M  V30 286 O 26.7446 -1.6316 -0.943981 0
M  V30 287 C 23.8716 -3.10695 -1.34856 0
M  V30 288 C 22.9176 -4.19339 -0.778268 0
M  V30 289 S 23.7506 -5.34207 0.37184 0
M  V30 290 C 24.9066 -6.21584 -0.733779 0
M  V30 291 H 25.1396 -2.94202 0.428087 0
M  V30 292 H 22.6726 -1.50628 0.339197 0
M  V30 293 H 24.6306 -3.59555 -1.98066 0
M  V30 294 H 23.2916 -2.42746 -1.99332 0
M  V30 295 H 22.4846 -4.77695 -1.60696 0
M  V30 296 H 22.0866 -3.73338 -0.222422 0
M  V30 297 H 24.3786 -6.57676 -1.62692 0
M  V30 298 H 25.3216 -7.07851 -0.187668 0
M  V30 299 H 25.7296 -5.55125 -1.02454 0
M  V30 300 N 25.1277 -0.289203 -1.54924 0
M  V30 301 C 26.3747 0.323519 -1.99899 0
M  V30 302 C 26.7027 1.54797 -1.17762 0
M  V30 303 O 25.9577 1.94237 -0.238835 0
M  V30 304 C 26.2567 0.736119 -3.49737 0
M  V30 305 C 25.9227 -0.385276 -4.49251 0
M  V30 306 C 24.5847 -0.693156 -4.76181 0
M  V30 307 C 26.9367 -1.14021 -5.08575 0
M  V30 308 C 24.2647 -1.7593 -5.59701 0
M  V30 309 C 26.6167 -2.19619 -5.93254 0
M  V30 310 C 25.2807 -2.51026 -6.185 0
M  V30 311 H 24.5507 0.118384 -0.731482 0
M  V30 312 H 27.1977 -0.405847 -1.8715 0
M  V30 313 H 25.5027 1.54539 -3.60035 0
M  V30 314 H 27.1997 1.22118 -3.81953 0
M  V30 315 H 23.7897 -0.135202 -4.28387 0
M  V30 316 H 27.9737 -0.915611 -4.87781 0
M  V30 317 H 23.2297 -2.0075 -5.77503 0
M  V30 318 H 27.4037 -2.78581 -6.38252 0
M  V30 319 H 25.0307 -3.33772 -6.83008 0
M  V30 320 N 26.6058 1.57591 -0.0167156 0
M  V30 321 C 27.8548 1.90461 0.663877 0
M  V30 322 C 28.1678 0.893515 1.73999 0
M  V30 323 O 29.3738 1.11302 2.47637 0
M  V30 324 C 27.8298 3.38155 1.23204 0
M  V30 325 C 27.4378 4.47597 0.189866 0
M  V30 326 C 29.1818 3.80111 1.88986 0
M  V30 327 C 27.0888 5.86379 0.768964 0
M  V30 328 H 26.0188 0.710738 0.251729 0
M  V30 329 H 28.6698 1.83326 -0.0799926 0
M  V30 330 H 27.0518 3.40182 2.02712 0
M  V30 331 H 28.2258 4.57112 -0.581846 0
M  V30 332 H 26.5408 4.14766 -0.368475 0
M  V30 333 H 29.1378 4.81145 2.33247 0
M  V30 334 H 29.4808 3.14511 2.72743 0
M  V30 335 H 30.0138 3.80454 1.16187 0
M  V30 336 H 26.7528 6.55493 -0.0301957 0
M  V30 337 H 26.2728 5.80496 1.50945 0
M  V30 338 H 27.9518 6.34563 1.26251 0
M  V30 339 N 28.0839 -0.256276 1.55502 0
M  V30 340 C 29.0469 -1.30047 1.88734 0
M  V30 341 C 30.0469 -1.4154 0.763086 0
M  V30 342 O 31.2369 -1.40403 1.03115 0
M  V30 343 C 28.3689 -2.67953 2.10747 0
M  V30 344 H 29.5619 -1.01802 2.82093 0
M  V30 345 H 27.1149 -0.495134 1.4825 0
M  V30 346 H 27.8499 -3.01351 1.19825 0
M  V30 347 H 27.6349 -2.60993 2.92617 0
M  V30 348 H 29.1249 -3.43368 2.37673 0
M  V30 349 N 29.562 -1.4872 -0.521534 0
M  V30 350 C 30.51 -1.64328 -1.64618 0
M  V30 351 C 31.504 -0.50953 -1.61555 0
M  V30 352 O 32.71 -0.688525 -1.66311 0
M  V30 353 H 29.085 -0.517805 -0.545328 0
M  V30 354 H 31.056 -2.58767 -1.48601 0
M  V30 355 C 29.805 -1.70805 -3.02855 0
M  V30 356 H 29.128 -2.5741 -3.05909 0
M  V30 357 H 30.568 -1.85766 -3.81139 0
M  V30 358 C 29.027 -0.448479 -3.33902 0
M  V30 359 O 29.557 0.434928 -3.99339 0
M  V30 360 N 27.763 -0.317616 -2.88859 0
M  V30 361 H 27.31 -1.03748 -2.35784 0
M  V30 362 H 27.268 0.524113 -3.10001 0
M  V30 363 N 31.0401 0.771051 -1.3745 0
M  V30 364 C 32.2881 1.52661 -1.32435 0
M  V30 365 C 32.6091 1.9479 0.0905024 0
M  V30 366 O 31.8791 1.66348 1.03466 0
M  V30 367 H 30.4591 0.566218 -0.487244 0
M  V30 368 H 33.1211 0.917636 -1.71946 0
M  V30 369 H 32.2171 2.42568 -1.96385 0
M  V30 370 N 32.5182 1.22032 0.997298 0
M  V30 371 C 33.4482 1.01065 2.10495 0
M  V30 372 C 34.4292 -0.0669542 1.69968 0
M  V30 373 O 35.6142 0.0943987 1.9397 0
M  V30 374 C 32.7442 0.582874 3.42374 0
M  V30 375 C 31.6982 1.60592 3.96729 0
M  V30 376 C 31.0242 1.03412 5.24605 0
M  V30 377 C 32.3242 2.99478 4.27914 0
M  V30 378 H 34.0182 1.93708 2.28292 0
M  V30 379 H 31.5642 0.932761 1.09707 0
M  V30 380 H 33.5172 0.423332 4.19268 0
M  V30 381 H 32.2412 -0.379213 3.24391 0
M  V30 382 H 30.9002 1.75316 3.21963 0
M  V30 383 H 30.5482 0.063518 5.0296 0
M  V30 384 H 30.2482 1.71754 5.61938 0
M  V30 385 H 31.7722 0.886066 6.04137 0
M  V30 386 H 33.1862 2.88153 4.95622 0
M  V30 387 H 31.5832 3.64903 4.76409 0
M  V30 388 H 32.6532 3.49742 3.3587 0
M  V30 389 N 33.9963 -1.19345 1.0293 0
M  V30 390 C 35.2453 -1.88363 0.721256 0
M  V30 391 C 35.5583 -1.80514 -0.753254 0
M  V30 392 O 36.7643 -2.44788 -1.17436 0
M  V30 393 C 35.2203 -3.37872 1.23978 0
M  V30 394 C 34.8283 -3.54278 2.74211 0
M  V30 395 C 36.5723 -4.12365 1.00775 0
M  V30 396 C 34.4793 -4.97682 3.19479 0
M  V30 397 H 33.4093 -0.705484 0.266098 0
M  V30 398 H 36.0603 -1.34928 1.24365 0
M  V30 399 H 34.4423 -3.90707 0.6453 0
M  V30 400 H 35.6163 -3.11769 3.39318 0
M  V30 401 H 33.9313 -2.93174 2.95699 0
M  V30 402 H 36.5283 -5.18119 1.32123 0
M  V30 403 H 36.8713 -4.16263 -0.0554308 0
M  V30 404 H 37.4043 -3.65668 1.56625 0
M  V30 405 H 34.1433 -4.98945 4.25128 0
M  V30 406 H 33.6633 -5.4095 2.591 0
M  V30 407 H 35.3423 -5.66337 3.12845 0
M  V30 408 N 35.4744 -0.807222 -1.35358 0
M  V30 409 C 36.7024 -0.400377 -2.02989 0
M  V30 410 C 37.1174 0.988859 -1.60832 0
M  V30 411 O 36.4744 1.63729 -0.806175 0
M  V30 412 C 36.5254 -0.474867 -3.58368 0
M  V30 413 O 36.2464 -1.80933 -3.98992 0
M  V30 414 C 37.7474 -0.0609112 -4.43258 0
M  V30 415 H 34.9674 -0.162587 -0.651004 0
M  V30 416 H 37.5114 -1.09102 -1.72965 0
M  V30 417 H 35.6664 0.167534 -3.87038 0
M  V30 418 H 36.0804 -1.77256 -4.9364 0
M  V30 419 H 37.5544 -0.164145 -5.51756 0
M  V30 420 H 38.0314 0.993831 -4.27808 0
M  V30 421 H 38.6374 -0.676492 -4.19885 0
M  V30 422 N 36.9525 1.47285 -0.560781 0
M  V30 423 C 38.1805 2.06855 -0.0430262 0
M  V30 424 C 38.5955 1.41291 1.25229 0
M  V30 425 O 37.9525 0.510648 1.7521 0
M  V30 426 C 38.0035 3.61178 0.152518 0
M  V30 427 O 37.7245 4.24285 -1.0915 0
M  V30 428 C 39.2255 4.37624 0.707145 0
M  V30 429 H 36.4455 0.669319 -0.0474652 0
M  V30 430 H 38.9895 1.89237 -0.77521 0
M  V30 431 H 37.1445 3.78298 0.834843 0
M  V30 432 H 37.5585 5.16868 -0.891482 0
M  V30 433 H 39.0325 5.46271 0.793244 0
M  V30 434 H 39.5095 4.04152 1.71923 0
M  V30 435 H 40.1155 4.25257 0.0604027 0
M  V30 436 N 38.4306 0.297415 1.54768 0
M  V30 437 C 39.6586 -0.315623 2.04478 0
M  V30 438 C 40.0736 -1.47792 1.17486 0
M  V30 439 O 39.4306 -1.81404 0.19971 0
M  V30 440 C 39.4816 -0.7753 3.53088 0
M  V30 441 O 39.2026 0.340732 4.36773 0
M  V30 442 C 40.7036 -1.45386 4.18781 0
M  V30 443 H 37.9236 -0.0690887 0.667434 0
M  V30 444 H 40.4676 0.436003 1.99798 0
M  V30 445 H 38.6226 -1.47696 3.58141 0
M  V30 446 H 39.0366 -0.0165035 5.24497 0
M  V30 447 H 40.5106 -1.72669 5.24299 0
M  V30 448 H 40.9876 -2.39275 3.68299 0
M  V30 449 H 41.5936 -0.795475 4.17795 0
M  V30 450 N 39.9087 -1.5758 0.0250728 0
M  V30 451 C 41.1547 -1.91917 -0.655413 0
M  V30 452 C 41.4877 -0.901433 -1.72011 0
M  V30 453 O 40.7627 0.0764069 -1.9435 0
M  V30 454 C 41.0457 -3.36751 -1.27558 0
M  V30 455 C 40.8987 -4.49258 -0.220719 0
M  V30 456 C 42.2177 -3.81469 -2.19475 0
M  V30 457 H 39.3367 -0.697925 -0.23679 0
M  V30 458 H 41.9787 -1.89825 0.0815036 0
M  V30 459 H 40.1287 -3.38664 -1.90365 0
M  V30 460 H 41.8007 -4.59478 0.409601 0
M  V30 461 H 40.0437 -4.31415 0.454264 0
M  V30 462 H 40.7147 -5.47618 -0.694175 0
M  V30 463 H 43.1907 -3.81266 -1.66659 0
M  V30 464 H 42.0667 -4.83512 -2.59822 0
M  V30 465 H 42.3277 -3.16744 -3.08424 0
M  V30 466 N 41.3868 0.248026 -1.55636 0
M  V30 467 C 42.8028 0.596483 -1.48035 0
M  V30 468 C 43.0028 1.88386 -0.715039 0
M  V30 469 O 42.0588 2.51319 -0.243944 0
M  V30 470 C 43.3718 0.700258 -2.92433 0
M  V30 471 C 44.9198 0.792659 -3.02797 0
M  V30 472 C 45.3948 0.928005 -4.485 0
M  V30 473 N 46.8858 0.992903 -4.52433 0
M  V30 474 C 47.6208 1.11687 -5.62418 0
M  V30 475 N 47.1168 1.20645 -6.82214 0
M  V30 476 N 48.9098 1.14994 -5.50212 0
M  V30 477 H 41.0608 -0.597109 -2.03834 0
M  V30 478 H 43.3238 -0.205925 -0.925364 0
M  V30 479 H 43.0298 -0.175658 -3.51261 0
M  V30 480 H 42.9038 1.57255 -3.42857 0
M  V30 481 H 45.2908 1.65903 -2.4405 0
M  V30 482 H 45.3718 -0.104762 -2.55585 0
M  V30 483 H 45.0158 0.0661971 -5.07857 0
M  V30 484 H 44.9458 1.84045 -4.93391 0
M  V30 485 H 47.4368 0.935064 -3.66149 0
M  V30 486 H 47.7498 1.30008 -7.61786 0
M  V30 487 H 46.0948 1.17605 -6.84977 0
M  V30 488 H 49.2858 1.07643 -4.55555 0
M  V30 489 H 49.4588 1.24311 -6.35965 0
M  V30 490 N 42.8649 1.48995 0.513639 0
M  V30 491 C 43.8279 1.64229 1.59879 0
M  V30 492 C 44.8279 0.514696 1.5234 0
M  V30 493 O 46.0179 0.78087 1.55718 0
M  V30 494 C 43.1499 1.62783 2.99524 0
M  V30 495 H 44.3429 2.61004 1.47705 0
M  V30 496 H 41.8959 1.37837 0.736936 0
M  V30 497 H 42.6309 0.675461 3.17188 0
M  V30 498 H 42.4159 2.4466 3.06404 0
M  V30 499 H 43.9059 1.76669 3.78388 0
M  V30 500 N 44.343 -0.763751 1.37857 0
M  V30 501 C 45.589 -1.52483 1.33704 0
M  V30 502 C 45.922 -1.94051 -0.0759612 0
M  V30 503 O 45.197 -1.64675 -1.03501 0
M  V30 504 C 45.48 -2.78441 2.28348 0
M  V30 505 C 45.333 -2.43075 3.78463 0
M  V30 506 C 46.652 -3.80415 2.21298 0
M  V30 507 H 43.771 -0.553169 0.487005 0
M  V30 508 H 46.413 -0.875562 1.68624 0
M  V30 509 H 44.563 -3.33842 1.987 0
M  V30 510 H 46.235 -1.93527 4.18742 0
M  V30 511 H 44.478 -1.75666 3.96641 0
M  V30 512 H 45.149 -3.33149 4.40132 0
M  V30 513 H 47.625 -3.34527 2.47449 0
M  V30 514 H 46.501 -4.66257 2.89647 0
M  V30 515 H 46.762 -4.25262 1.20849 0
M  V30 516 N 45.8211 -1.22559 -0.990812 0
M  V30 517 C 47.0691 -1.04933 -1.72724 0
M  V30 518 C 47.3901 0.416158 -1.90508 0
M  V30 519 O 46.6601 1.29918 -1.46622 0
M  V30 520 H 45.2401 -0.385296 -0.639965 0
M  V30 521 H 47.9021 -1.54105 -1.19322 0
M  V30 522 H 46.9981 -1.52886 -2.72089 0
M  V30 523 N 47.2992 1.18797 -1.03562 0
M  V30 524 C 48.7102 1.70322 -0.764676 0
M  V30 525 C 49.0612 1.82708 0.714996 0
M  V30 526 O 48.1862 1.50299 1.55689 0
M  V30 527 C 48.7812 3.09356 -1.38145 0
M  V30 528 C 47.3402 3.58114 -1.15895 0
M  V30 529 C 46.4872 2.34798 -1.4753 0
M  V30 530 H 49.4382 1.03543 -1.20268 0
M  V30 531 H 49.4592 3.72378 -0.781977 0
M  V30 532 H 48.9712 3.00309 -2.45837 0
M  V30 533 H 47.0722 3.72464 -0.100544 0
M  V30 534 H 47.1852 4.4184 -1.8524 0
M  V30 535 H 45.5492 2.38464 -0.894829 0
M  V30 536 H 46.3322 2.28375 -2.56319 0
M  V30 537 N 48.7773 0.814389 1.34928 0
M  V30 538 C 49.7243 0.22822 2.29669 0
M  V30 539 C 50.6943 -0.642164 1.53184 0
M  V30 540 O 51.8793 -0.585605 1.81591 0
M  V30 541 C 49.0193 -0.61089 3.3965 0
M  V30 542 C 48.1323 0.280792 4.31086 0
M  V30 543 C 47.2673 -0.567067 5.28165 0
M  V30 544 C 46.3063 0.324531 6.11239 0
M  V30 545 N 45.4433 -0.483756 7.00431 0
M  V30 546 H 50.2833 1.04153 2.79206 0
M  V30 547 H 47.8203 0.525133 1.37407 0
M  V30 548 H 49.7783 -1.11263 4.0209 0
M  V30 549 H 48.4083 -1.38939 2.91369 0
M  V30 550 H 47.4603 0.900688 3.69583 0
M  V30 551 H 48.7723 0.966723 4.89342 0
M  V30 552 H 47.9263 -1.13363 5.96015 0
M  V30 553 H 46.6653 -1.28654 4.70425 0
M  V30 554 H 45.6703 0.903298 5.42329 0
M  V30 555 H 46.8953 1.04198 6.71059 0
M  V30 556 H 44.8413 -1.18706 6.45171 0
M  V30 557 H 44.7583 0.143965 7.55863 0
M  V30 558 H 46.0263 -1.03334 7.7262 0
M  V30 559 N 50.2554 -1.46986 0.568584 0
M  V30 560 C 51.4834 -2.0683 0.0539956 0
M  V30 561 C 51.8984 -1.41953 -1.24478 0
M  V30 562 O 51.2554 -0.519933 -1.74937 0
M  V30 563 C 51.3064 -3.61254 -0.133362 0
M  V30 564 O 51.0274 -4.237 1.11399 0
M  V30 565 C 52.5284 -4.37992 -0.683927 0
M  V30 566 H 49.7484 -0.669058 0.0510141 0
M  V30 567 H 52.2924 -1.88824 0.785234 0
M  V30 568 H 50.4474 -3.78735 -0.81477 0
M  V30 569 H 50.8614 -5.16388 0.91888 0
M  V30 570 H 52.3354 -5.46684 -0.764263 0
M  V30 571 H 52.8124 -4.05058 -1.69778 0
M  V30 572 H 53.4184 -4.25283 -0.0378494 0
M  V30 573 N 51.7335 -0.305618 -1.54608 0
M  V30 574 C 52.9815 0.301701 -1.99835 0
M  V30 575 C 53.3025 1.54054 -1.19551 0
M  V30 576 O 52.5725 1.93702 -0.292658 0
M  V30 577 H 51.1525 0.114468 -0.738178 0
M  V30 578 H 53.8145 -0.418016 -1.90364 0
M  V30 579 H 52.9105 0.570548 -3.06841 0
M  V30 580 N 53.2116 1.57565 -0.0334293 0
M  V30 581 C 54.1216 2.13943 0.962572 0
M  V30 582 C 55.1376 1.09276 1.35406 0
M  V30 583 O 56.3136 1.41355 1.4346 0
M  V30 584 C 53.3786 2.65887 2.22497 0
M  V30 585 C 52.4396 3.85286 1.8935 0
M  V30 586 C 51.6726 4.34743 3.09571 0
M  V30 587 O 51.8956 3.83352 4.22371 0
M  V30 588 O 50.8296 5.26538 2.91618 0
M  V30 589 H 54.6556 2.99333 0.513169 0
M  V30 590 H 52.2406 1.4822 0.18743 0
M  V30 591 H 54.1226 2.99346 2.96598 0
M  V30 592 H 52.7976 1.83578 2.6661 0
M  V30 593 H 51.7046 3.56746 1.1262 0
M  V30 594 H 53.0376 4.68771 1.5005 0
M  V30 595 N 54.6897 -0.239769 1.55765 0
M  V30 596 C 55.5997 -1.31831 1.94056 0
M  V30 597 C 56.6157 -1.52275 0.841925 0
M  V30 598 O 57.7917 -1.65759 1.14394 0
M  V30 599 C 54.8567 -2.65156 2.23368 0
M  V30 600 C 53.9177 -2.53173 3.46701 0
M  V30 601 C 53.1507 -3.8014 3.74606 0
M  V30 602 O 53.3737 -4.82343 3.04469 0
M  V30 603 O 52.3077 -3.78344 4.68123 0
M  V30 604 H 56.1337 -1.02347 2.85935 0
M  V30 605 H 53.7187 -0.441123 1.42739 0
M  V30 606 H 55.6007 -3.43929 2.43497 0
M  V30 607 H 54.2757 -2.94358 1.34666 0
M  V30 608 H 53.1827 -1.72662 3.31871 0
M  V30 609 H 54.5157 -2.28915 4.35728 0
M  V30 610 N 56.1678 -1.49265 -0.50573 0
M  V30 611 C 57.1158 -1.66065 -1.62866 0
M  V30 612 C 58.1098 -0.526636 -1.61006 0
M  V30 613 O 59.3158 -0.706126 -1.65571 0
M  V30 614 H 55.6908 -0.52356 -0.539805 0
M  V30 615 H 57.6618 -2.60329 -1.45848 0
M  V30 616 C 56.4108 -1.74008 -3.01026 0
M  V30 617 H 55.7338 -2.6064 -3.03161 0
M  V30 618 H 57.1738 -1.89798 -3.79147 0
M  V30 619 C 55.6328 -0.483868 -3.33407 0
M  V30 620 O 56.1628 0.392548 -3.99777 0
M  V30 621 N 54.3688 -0.348236 -2.88506 0
M  V30 622 H 53.9158 -1.06242 -2.34671 0
M  V30 623 H 53.8738 0.491204 -3.10539 0
M  V30 624 N 57.6459 0.756429 -1.3826 0
M  V30 625 C 58.5779 1.87971 -1.31147 0
M  V30 626 C 59.5909 1.61248 -0.224239 0
M  V30 627 O 60.7799 1.71881 -0.481581 0
M  V30 628 C 57.8799 3.23545 -1.00857 0
M  V30 629 C 57.0529 3.77794 -2.20432 0
M  V30 630 C 56.1119 4.91877 -1.86931 0
M  V30 631 O 55.1379 5.06659 -2.59395 0
M  V30 632 N 56.3399 5.74643 -0.822568 0
M  V30 633 H 59.1049 1.94585 -2.2794 0
M  V30 634 H 56.6659 0.936234 -1.32084 0
M  V30 635 H 58.6579 3.97403 -0.765021 0
M  V30 636 H 57.2279 3.12335 -0.128687 0
M  V30 637 H 56.4479 2.95534 -2.6087 0
M  V30 638 H 57.7359 4.10771 -3.00241 0
M  V30 639 H 57.1339 5.65266 -0.221575 0
M  V30 640 H 55.6909 6.48661 -0.638899 0
M  V30 641 N 59.124 1.23083 0.984299 0
M  V30 642 C 60.37 1.06214 1.72761 0
M  V30 643 C 60.703 -0.400584 1.90024 0
M  V30 644 O 59.978 -1.29672 1.44967 0
M  V30 645 C 60.261 1.78375 3.12817 0
M  V30 646 C 60.114 3.32296 3.03149 0
M  V30 647 C 61.433 1.54309 4.12161 0
M  V30 648 H 58.552 0.387251 0.627061 0
M  V30 649 H 61.194 1.51536 1.14616 0
M  V30 650 H 59.344 1.39848 3.62457 0
M  V30 651 H 61.016 3.8032 2.61064 0
M  V30 652 H 59.259 3.6153 2.39747 0
M  V30 653 H 59.93 3.77972 4.02295 0
M  V30 654 H 62.406 1.87791 3.71314 0
M  V30 655 H 61.282 2.07281 5.08258 0
M  V30 656 H 61.543 0.477572 4.39513 0
M  V30 657 N 60.6021 -1.18246 1.0419 0
M  V30 658 C 61.5321 -2.24127 0.654914 0
M  V30 659 C 62.5131 -1.66617 -0.342451 0
M  V30 660 O 63.6981 -1.92924 -0.222277 0
M  V30 661 C 60.8281 -3.47295 0.0183757 0
M  V30 662 C 59.7821 -4.17563 0.939414 0
M  V30 663 C 59.1081 -5.34438 0.167286 0
M  V30 664 C 60.4081 -4.70917 2.25908 0
M  V30 665 H 62.1021 -2.56753 1.54007 0
M  V30 666 H 59.6481 -1.23414 0.74195 0
M  V30 667 H 61.6011 -4.20572 -0.264082 0
M  V30 668 H 60.3251 -3.13907 -0.901664 0
M  V30 669 H 58.9841 -3.46186 1.20628 0
M  V30 670 H 58.6321 -4.97298 -0.7552 0
M  V30 671 H 58.3321 -5.82388 0.780901 0
M  V30 672 H 59.8561 -6.10504 -0.108125 0
M  V30 673 H 61.2701 -5.35882 2.03724 0
M  V30 674 H 59.6671 -5.29406 2.82577 0
M  V30 675 H 60.7371 -3.88272 2.9047 0
M  V30 676 N 62.0802 -0.821533 -1.34494 0
M  V30 677 C 63.3262 -0.409552 -1.98622 0
M  V30 678 C 63.6592 1.0244 -1.64984 0
M  V30 679 O 62.9342 1.71325 -0.920758 0
M  V30 680 C 63.2172 -0.610458 -3.54888 0
M  V30 681 C 63.0702 -2.09043 -3.98273 0
M  V30 682 C 64.3892 -0.0455379 -4.40076 0
M  V30 683 H 61.5082 -0.15028 -0.721516 0
M  V30 684 H 64.1502 -1.03384 -1.59411 0
M  V30 685 H 62.3002 -0.079044 -3.8842 0
M  V30 686 H 63.9722 -2.68537 -3.75081 0
M  V30 687 H 62.2152 -2.58139 -3.48635 0
M  V30 688 H 62.8862 -2.18182 -5.07051 0
M  V30 689 H 65.3622 -0.499557 -4.1309 0
M  V30 690 H 64.2382 -0.215922 -5.48475 0
M  V30 691 H 64.4992 1.04939 -4.29465 0
M  V30 692 N 63.5583 1.46682 -0.576371 0
M  V30 693 C 64.9693 1.86112 -0.148091 0
M  V30 694 C 65.3203 1.48073 1.2872 0
M  V30 695 O 64.4453 0.892656 1.97131 0
M  V30 696 C 65.0403 3.37786 -0.261982 0
M  V30 697 C 63.5993 3.76235 0.111384 0
M  V30 698 C 62.7463 2.70713 -0.60083 0
M  V30 699 H 65.6973 1.37927 -0.78497 0
M  V30 700 H 65.7183 3.77007 0.514364 0
M  V30 701 H 65.2303 3.6544 -1.30671 0
M  V30 702 H 63.3313 3.54198 1.15649 0
M  V30 703 H 63.4443 4.78391 -0.26052 0
M  V30 704 H 61.8083 2.54666 -0.0417783 0
M  V30 705 H 62.5913 3.01208 -1.64708 0
M  V30 706 N 65.0364 0.313813 1.54444 0
M  V30 707 C 65.9844 -0.572171 2.25453 0
M  V30 708 C 66.9784 -1.12657 1.2651 0
M  V30 709 O 68.1844 -1.07573 1.44319 0
M  V30 710 H 64.5594 -0.203146 0.724041 0
M  V30 711 H 66.5304 0.0491145 2.9836 0
M  V30 712 C 65.2794 -1.72626 3.0182 0
M  V30 713 H 64.6024 -1.30891 3.77767 0
M  V30 714 H 66.0424 -2.32199 3.54767 0
M  V30 715 C 64.5014 -2.63806 2.09542 0
M  V30 716 O 65.0314 -3.65256 1.67185 0
M  V30 717 N 63.2374 -2.31824 1.75232 0
M  V30 718 H 62.7844 -1.49368 2.09873 0
M  V30 719 H 62.7424 -2.93095 1.13767 0
M  V30 720 N 66.5145 -1.57545 0.0417849 0
M  V30 721 C 67.4445 -2.14009 -0.933929 0
M  V30 722 C 68.4255 -1.05938 -1.33083 0
M  V30 723 O 69.6105 -1.33833 -1.40721 0
M  V30 724 C 66.7405 -2.67747 -2.21199 0
M  V30 725 C 65.6945 -3.80718 -1.95544 0
M  V30 726 C 65.0205 -4.20935 -3.29724 0
M  V30 727 C 66.3205 -5.06258 -1.28452 0
M  V30 728 H 68.0145 -2.95788 -0.463645 0
M  V30 729 H 65.5605 -1.42285 -0.221573 0
M  V30 730 H 67.5135 -3.05886 -2.89848 0
M  V30 731 H 66.2375 -1.83147 -2.70416 0
M  V30 732 H 64.8965 -3.43037 -1.2931 0
M  V30 733 H 64.5445 -3.33298 -3.76724 0
M  V30 734 H 64.2445 -4.9707 -3.13361 0
M  V30 735 H 65.7685 -4.61666 -3.9962 0
M  V30 736 H 67.1825 -5.41903 -1.8712 0
M  V30 737 H 65.5795 -5.87475 -1.22445 0
M  V30 738 H 66.6495 -4.84207 -0.259219 0
M  V30 739 N 67.9926 0.231505 -1.5589 0
M  V30 740 C 68.9406 1.30649 -1.92441 0
M  V30 741 C 69.9346 1.49037 -0.805254 0
M  V30 742 O 71.1406 1.50329 -0.990007 0
M  V30 743 H 67.5156 0.437812 -0.611412 0
M  V30 744 H 69.4866 0.970973 -2.82161 0
M  V30 745 C 68.2356 2.65179 -2.24889 0
M  V30 746 H 67.5586 2.51835 -3.10514 0
M  V30 747 H 68.9986 3.39234 -2.54355 0
M  V30 748 C 67.4576 3.19439 -1.07054 0
M  V30 749 O 67.9876 4.00371 -0.326499 0
M  V30 750 N 66.1936 2.77675 -0.85703 0
M  V30 751 H 65.7406 2.11969 -1.46379 0
M  V30 752 H 65.6986 3.14321 -0.0703223 0
M  V30 753 N 69.4707 1.49531 0.497807 0
M  V30 754 C 70.8817 1.52344 1.07927 0
M  V30 755 C 71.2327 0.311469 1.93712 0
M  V30 756 O 70.3577 -0.578405 2.08527 0
M  V30 757 C 70.9527 2.76062 1.96405 0
M  V30 758 C 69.5117 2.81643 2.49709 0
M  V30 759 C 68.6587 2.46299 1.27404 0
M  V30 760 H 71.6097 1.56182 0.281576 0
M  V30 761 H 71.6307 2.56405 2.81135 0
M  V30 762 H 71.1427 3.64254 1.33943 0
M  V30 763 H 69.2437 1.97739 3.15801 0
M  V30 764 H 69.3567 3.83891 2.86643 0
M  V30 765 H 67.7207 1.98148 1.60029 0
M  V30 766 H 68.5037 3.36769 0.66645 0
M  V30 767 N 70.9488 -0.749086 1.3866 0
M  V30 768 C 72.1768 -1.53834 1.38358 0
M  V30 769 C 72.5918 -1.88783 -0.0255219 0
M  V30 770 O 71.9488 -1.53101 -0.993292 0
M  V30 771 C 71.9998 -2.83468 2.2434 0
M  V30 772 O 71.7208 -2.50008 3.5976 0
M  V30 773 C 73.2218 -3.7758 2.32267 0
M  V30 774 H 70.4418 -0.47585 0.473083 0
M  V30 775 H 72.9858 -0.926726 1.82297 0
M  V30 776 H 71.1408 -3.40995 1.83851 0
M  V30 777 H 71.5548 -3.33182 4.05081 0
M  V30 778 H 73.0288 -4.65478 2.96706 0
M  V30 779 H 73.5058 -4.18334 1.33765 0
M  V30 780 H 74.1118 -3.25976 2.73166 0
M  V30 781 N 72.4269 -1.23603 -0.977757 0
M  V30 782 C 73.8379 -1.06424 -1.53398 0
M  V30 783 C 74.1889 0.367578 -1.92726 0
M  V30 784 O 73.3139 1.25465 -1.76316 0
M  V30 785 C 73.9089 -1.92568 -2.78753 0
M  V30 786 C 72.4679 -1.79642 -3.30765 0
M  V30 787 C 71.6149 -1.88111 -2.03739 0
M  V30 788 H 74.5659 -1.37227 -0.797152 0
M  V30 789 H 74.5869 -1.45203 -3.51705 0
M  V30 790 H 74.0989 -2.96771 -2.50098 0
M  V30 791 H 72.1999 -0.782325 -3.64294 0
M  V30 792 H 72.3129 -2.63174 -4.00345 0
M  V30 793 H 70.6769 -1.31723 -2.17994 0
M  V30 794 H 71.4599 -2.93875 -1.77461 0
M  V30 795 N 73.905 1.17692 -1.04816 0
M  V30 796 C 74.815 2.25229 -0.65643 0
M  V30 797 C 75.831 1.71018 0.320761 0
M  V30 798 O 77.007 2.00649 0.173805 0
M  V30 799 C 74.072 3.46684 -0.0332629 0
M  V30 800 C 73.133 4.15997 -1.06042 0
M  V30 801 C 72.366 5.31654 -0.466893 0
M  V30 802 O 72.589 5.65777 0.724758 0
M  V30 803 O 71.523 5.89831 -1.1993 0
M  V30 804 H 75.349 2.61016 -1.55255 0
M  V30 805 H 72.934 1.24919 -0.81949 0
M  V30 806 H 74.816 4.20234 0.313256 0
M  V30 807 H 73.491 3.12703 0.836566 0
M  V30 808 H 72.398 3.44482 -1.45886 0
M  V30 809 H 73.731 4.53996 -1.90127 0
M  V30 810 N 75.3831 0.828654 1.34056 0
M  V30 811 C 76.3311 0.242973 2.31327 0
M  V30 812 C 77.3251 -0.61944 1.57668 0
M  V30 813 O 78.5311 -0.51014 1.7262 0
M  V30 814 H 74.9061 0.059834 0.749616 0
M  V30 815 H 76.8771 1.07809 2.78244 0
M  V30 816 C 75.6261 -0.575733 3.429 0
M  V30 817 H 74.9491 0.0785582 3.99723 0
M  V30 818 H 76.3891 -0.951547 4.13185 0
M  V30 819 C 74.8481 -1.75044 2.87856 0
M  V30 820 O 75.3781 -2.84882 2.83205 0
M  V30 821 N 73.5841 -1.56903 2.44602 0
M  V30 822 H 73.1311 -0.675547 2.48584 0
M  V30 823 H 73.0891 -2.35652 2.08124 0
M  V30 824 N 76.8612 -1.46375 0.584142 0
M  V30 825 C 77.7912 -2.33103 -0.136037 0
M  V30 826 C 78.7722 -1.45431 -0.882255 0
M  V30 827 O 79.9572 -1.74246 -0.857434 0
M  V30 828 C 77.0872 -3.27731 -1.14933 0
M  V30 829 C 76.0412 -4.24855 -0.517862 0
M  V30 830 C 75.3672 -5.09001 -1.63773 0
M  V30 831 C 76.6672 -5.19439 0.545886 0
M  V30 832 H 78.3612 -2.93568 0.588086 0
M  V30 833 H 75.9072 -1.41166 0.284259 0
M  V30 834 H 77.8602 -3.87261 -1.66153 0
M  V30 835 H 76.5842 -2.65377 -1.90375 0
M  V30 836 H 75.2432 -3.6659 -0.0267361 0
M  V30 837 H 74.8912 -4.43031 -2.38185 0
M  V30 838 H 74.5912 -5.74777 -1.22085 0
M  V30 839 H 76.1152 -5.71396 -2.15266 0
M  V30 840 H 77.5292 -5.73177 0.118704 0
M  V30 841 H 75.9262 -5.93566 0.88317 0
M  V30 842 H 76.9962 -4.63285 1.43162 0
M  V30 843 N 78.3393 -0.321999 -1.54275 0
M  V30 844 C 79.2493 0.553631 -2.27974 0
M  V30 845 C 80.2653 1.13054 -1.32268 0
M  V30 846 O 81.4413 1.15084 -1.6528 0
M  V30 847 C 78.5063 1.69927 -3.02201 0
M  V30 848 C 77.5673 1.15433 -4.1349 0
M  V30 849 C 76.8003 2.24537 -4.84168 0
M  V30 850 O 77.0233 3.44852 -4.5435 0
M  V30 851 O 75.9573 1.90044 -5.7111 0
M  V30 852 H 79.7833 -0.0448345 -3.03667 0
M  V30 853 H 77.3683 -0.0877418 -1.49142 0
M  V30 854 H 79.2503 2.3663 -3.48689 0
M  V30 855 H 77.9253 2.28395 -2.29385 0
M  V30 856 H 76.8323 0.452436 -3.71354 0
M  V30 857 H 78.1653 0.614805 -4.88345 0
M  V30 858 N 79.8174 1.5752 -0.0501392 0
M  V30 859 C 81.0634 1.92936 0.624798 0
M  V30 860 C 81.3964 0.928685 1.70555 0
M  V30 861 O 80.6714 -0.0454779 1.94447 0
M  V30 862 C 80.9544 3.38737 1.22185 0
M  V30 863 C 80.8074 4.49552 0.149218 0
M  V30 864 C 82.1264 3.84913 2.13378 0
M  V30 865 H 79.2454 0.701604 0.225657 0
M  V30 866 H 81.8874 1.89671 -0.111693 0
M  V30 867 H 80.0374 3.4165 1.84953 0
M  V30 868 H 81.7094 4.58768 -0.482648 0
M  V30 869 H 79.9524 4.30638 -0.522841 0
M  V30 870 H 80.6234 5.48653 0.606966 0
M  V30 871 H 83.0994 3.8387 1.60572 0
M  V30 872 H 81.9754 4.87584 2.52097 0
M  V30 873 H 82.2364 3.21611 3.03346 0
M  V30 874 N 81.2955 -0.223234 1.56011 0
M  V30 875 C 82.5415 -0.949279 1.79211 0
M  V30 876 C 82.8745 -1.84054 0.619494 0
M  V30 877 O 82.1495 -1.90726 -0.381317 0
M  V30 878 C 82.4325 -1.78965 3.12479 0
M  V30 879 C 82.2855 -0.924997 4.40186 0
M  V30 880 C 83.6045 -2.76774 3.42175 0
M  V30 881 H 80.7235 -0.343676 0.651963 0
M  V30 882 H 83.3655 -0.218253 1.88742 0
M  V30 883 H 81.5155 -2.41291 3.04485 0
M  V30 884 H 83.1875 -0.318615 4.60198 0
M  V30 885 H 81.4305 -0.230344 4.33188 0
M  V30 886 H 82.1015 -1.54735 5.29869 0
M  V30 887 H 84.5775 -2.24584 3.50287 0
M  V30 888 H 83.4535 -3.32678 4.36597 0
M  V30 889 H 83.7145 -3.54429 2.64258 0
M  V30 890 N 82.7736 -1.49793 -0.48987 0
M  V30 891 C 84.0216 -1.59525 -1.24081 0
M  V30 892 C 84.3426 -0.288953 -1.92847 0
M  V30 893 O 83.6126 0.692436 -1.83254 0
M  V30 894 H 82.1926 -0.587796 -0.460983 0
M  V30 895 H 84.8546 -1.86477 -0.566778 0
M  V30 896 H 83.9506 -2.39696 -1.99881 0
M  V30 897 N 84.2517 0.741722 -1.39055 0
M  V30 898 C 85.5287 1.49252 -1.26425 0
M  V30 899 C 85.9087 2.10705 0.129144 0
M  V30 900 O 85.2567 1.98045 1.13976 0
M  V30 901 C 85.4667 2.54934 -2.38347 0
M  V30 902 C 86.8147 3.21506 -2.77343 0
M  V30 903 O 87.8387 2.65245 -2.37747 0
M  V30 904 O 86.6977 4.23294 -3.45665 0
M  V30 905 H 83.7917 0.662451 -0.495064 0
M  V30 906 H 86.3377 0.776121 -1.50912 0
M  V30 907 H 85.1097 2.07857 -3.31529 0
M  V30 908 H 84.7327 3.34141 -2.15489 0
M  V30 909 N 85.7298 1.2412 0.971189 0
M  V30 910 C 86.9778 1.07668 1.71032 0
M  V30 911 C 87.2988 -0.385797 1.91146 0
M  V30 912 O 86.5688 -1.27569 1.4867 0
M  V30 913 H 85.1488 0.395429 0.633755 0
M  V30 914 H 87.8108 1.55984 1.16855 0
M  V30 915 H 86.9068 1.57195 2.69622 0
M  V30 916 N 87.2079 -1.17134 1.05439 0
M  V30 917 C 88.4549 -1.87456 0.765942 0
M  V30 918 C 88.7829 -1.81189 -0.707153 0
M  V30 919 O 88.0379 -1.21633 -1.5331 0
M  V30 920 C 88.3369 -3.36833 1.19491 0
M  V30 921 C 88.0029 -3.63301 2.67063 0
M  V30 922 C 86.6649 -3.70234 3.07376 0
M  V30 923 C 89.0169 -3.74575 3.62413 0
M  V30 924 C 86.3449 -3.85933 4.41896 0
M  V30 925 C 88.6969 -3.91793 4.9667 0
M  V30 926 C 87.3609 -3.96966 5.36633 0
M  V30 927 H 86.6309 -0.685948 0.280278 0
M  V30 928 H 89.2779 -1.38556 1.32192 0
M  V30 929 H 87.5829 -3.87807 0.557969 0
M  V30 930 H 89.2799 -3.89611 0.948893 0
M  V30 931 H 85.8699 -3.58532 2.34846 0
M  V30 932 H 90.0539 -3.68537 3.32406 0
M  V30 933 H 85.3099 -3.88187 4.72357 0
M  V30 934 H 89.4839 -3.99458 5.70444 0
M  V30 935 H 87.1109 -4.08883 6.40874 0
M  V30 936 N 88.686 -0.835752 -1.33615 0
M  V30 937 C 89.633 -0.26473 -2.29277 0
M  V30 938 C 90.603 0.617712 -1.54187 0
M  V30 939 O 91.788 0.556641 -1.825 0
M  V30 940 C 88.928 0.556777 -3.40579 0
M  V30 941 C 88.041 -0.349339 -4.30585 0
M  V30 942 C 87.176 0.482969 -5.29 0
M  V30 943 C 86.215 -0.421732 -6.10645 0
M  V30 944 N 85.352 0.372262 -7.01112 0
M  V30 945 H 90.192 -1.08582 -2.77514 0
M  V30 946 H 87.729 -0.546927 -1.36554 0
M  V30 947 H 89.687 1.04852 -4.03809 0
M  V30 948 H 88.317 1.34286 -2.93542 0
M  V30 949 H 87.369 -0.959372 -3.68104 0
M  V30 950 H 88.681 -1.04445 -4.87742 0
M  V30 951 H 87.835 1.03866 -5.97743 0
M  V30 952 H 86.574 1.21153 -4.72412 0
M  V30 953 H 85.579 -0.989464 -5.40823 0
M  V30 954 H 86.804 -1.14861 -6.69316 0
M  V30 955 H 84.75 1.08426 -6.46977 0
M  V30 956 H 84.667 -0.264198 -7.55538 0
M  V30 957 H 85.935 0.910293 -7.74167 0
M  V30 958 N 90.1641 1.46063 -0.591896 0
M  V30 959 C 91.4131 2.01547 -0.0786637 0
M  V30 960 C 91.7261 1.46796 1.29268 0
M  V30 961 O 92.9321 1.94157 1.89777 0
M  V30 962 C 91.3881 3.59787 -0.0900024 0
M  V30 963 C 90.9961 4.23534 -1.46023 0
M  V30 964 C 92.7401 4.22895 0.368806 0
M  V30 965 C 90.6471 5.73881 -1.4288 0
M  V30 966 H 89.5771 0.753564 -0.0256388 0
M  V30 967 H 92.2281 1.677 -0.744905 0
M  V30 968 H 90.6101 3.90752 0.642586 0
M  V30 969 H 91.7841 4.04167 -2.21328 0
M  V30 970 H 90.0991 3.72558 -1.85982 0
M  V30 971 H 92.6961 5.33116 0.411258 0
M  V30 972 H 93.0391 3.9247 1.38827 0
M  V30 973 H 93.5721 3.9659 -0.31001 0
M  V30 974 H 90.3111 6.0898 -2.42536 0
M  V30 975 H 89.8311 5.95486 -0.718095 0
M  V30 976 H 91.5101 6.36776 -1.14565 0
M  V30 977 N 91.6422 0.330177 1.54103 0
M  V30 978 C 92.8702 -0.272179 2.05102 0
M  V30 979 C 93.2852 -1.45267 1.20595 0
M  V30 980 O 92.6422 -1.8094 0.238144 0
M  V30 981 C 92.6932 -0.70023 3.54653 0
M  V30 982 O 92.4142 0.433301 4.35952 0
M  V30 983 C 93.9152 -1.3647 4.21771 0
M  V30 984 H 91.1352 -0.0549159 0.668749 0
M  V30 985 H 93.6792 0.478285 1.98828 0
M  V30 986 H 91.8342 -1.40066 3.61193 0
M  V30 987 H 92.2482 0.0947539 5.24414 0
M  V30 988 H 93.7222 -1.61509 5.27843 0
M  V30 989 H 94.1992 -2.31409 3.73292 0
M  V30 990 H 94.8052 -0.706675 4.19388 0
M  V30 991 N 93.1203 -1.57491 0.0584922 0
M  V30 992 C 94.3453 -1.97711 -0.62652 0
M  V30 993 C 94.7703 -0.936132 -1.63151 0
M  V30 994 O 94.1283 0.099811 -1.81025 0
M  V30 995 C 94.1763 -3.36989 -1.28338 0
M  V30 996 O 93.2803 -3.35433 -2.39913 0
M  V30 997 H 92.6213 -0.643868 -0.162266 0
M  V30 998 H 95.1513 -2.04193 0.129064 0
M  V30 999 H 95.1613 -3.73879 -1.63335 0
M  V30 1000 H 93.8363 -4.12289 -0.546889 0
M  V30 1001 H 92.4133 -3.10298 -2.06809 0
M  V30 1002 N 94.5984 0.214957 -1.56127 0
M  V30 1003 C 95.8234 0.95924 -1.83884 0
M  V30 1004 C 96.2484 1.7689 -0.639644 0
M  V30 1005 O 95.6064 1.76566 0.411601 0
M  V30 1006 C 95.6544 1.84723 -3.09693 0
M  V30 1007 O 94.7584 2.94346 -2.8885 0
M  V30 1008 H 94.0994 0.27125 -0.606069 0
M  V30 1009 H 96.6294 0.226276 -2.03345 0
M  V30 1010 H 96.6394 2.25576 -3.39969 0
M  V30 1011 H 95.3144 1.25218 -3.96602 0
M  V30 1012 H 93.8914 2.57391 -2.69823 0
M  V30 1013 N 96.0765 1.50051 0.48192 0
M  V30 1014 C 97.3255 1.59741 1.23149 0
M  V30 1015 C 97.6385 0.298163 1.93314 0
M  V30 1016 O 98.8445 0.273835 2.70116 0
M  V30 1017 C 97.3005 2.81926 2.23708 0
M  V30 1018 C 96.9085 4.18685 1.59396 0
M  V30 1019 C 98.6525 3.00956 2.99375 0
M  V30 1020 C 96.5595 5.3207 2.58178 0
M  V30 1021 H 95.4895 0.594838 0.46334 0
M  V30 1022 H 98.1405 1.76467 0.503169 0
M  V30 1023 H 96.5225 2.58736 2.99786 0
M  V30 1024 H 97.6965 4.52088 0.891811 0
M  V30 1025 H 96.0115 4.05171 0.960503 0
M  V30 1026 H 98.6085 3.82836 3.73283 0
M  V30 1027 H 98.9515 2.12258 3.58123 0
M  V30 1028 H 99.4845 3.24277 2.30411 0
M  V30 1029 H 96.2235 6.22888 2.04184 0
M  V30 1030 H 95.7435 5.03098 3.26577 0
M  V30 1031 H 97.4225 5.62196 3.20225 0
M  V30 1032 N 97.5546 -0.734337 1.39446 0
M  V30 1033 C 98.5026 -1.86971 1.38364 0
M  V30 1034 C 99.4966 -1.67288 0.266687 0
M  V30 1035 O 100.703 -1.74621 0.436755 0
M  V30 1036 H 97.0776 -0.615474 0.432082 0
M  V30 1037 H 99.0486 -1.85 2.34132 0
M  V30 1038 C 97.7976 -3.2466 1.24465 0
M  V30 1039 H 97.1206 -3.40402 2.09682 0
M  V30 1040 H 98.5606 -4.04292 1.27764 0
M  V30 1041 C 97.0196 -3.36867 -0.0468674 0
M  V30 1042 O 97.5496 -3.88618 -1.01681 0
M  V30 1043 N 95.7556 -2.90391 -0.110145 0
M  V30 1044 H 95.3026 -2.48466 0.679868 0
M  V30 1045 H 95.2606 -2.98939 -0.973799 0
M  V30 1046 N 99.0327 -1.24633 -0.964593 0
M  V30 1047 C 99.9627 -1.06611 -2.07741 0
M  V30 1048 C 100.944 0.0218666 -1.70086 0
M  V30 1049 O 102.129 -0.145793 -1.93652 0
M  V30 1050 C 99.2587 -0.673444 -3.40708 0
M  V30 1051 C 98.2127 -1.71054 -3.92332 0
M  V30 1052 C 97.5387 -1.17285 -5.21678 0
M  V30 1053 C 98.8387 -3.10718 -4.19824 0
M  V30 1054 H 100.533 -1.99693 -2.23076 0
M  V30 1055 H 98.0787 -0.96152 -1.07195 0
M  V30 1056 H 100.032 -0.534345 -4.17998 0
M  V30 1057 H 98.7557 0.293073 -3.25282 0
M  V30 1058 H 97.4147 -1.83791 -3.17201 0
M  V30 1059 H 97.0627 -0.196847 -5.02615 0
M  V30 1060 H 96.7627 -1.86592 -5.57187 0
M  V30 1061 H 98.2867 -1.04593 -6.01575 0
M  V30 1062 H 99.7007 -3.01192 -4.87808 0
M  V30 1063 H 98.0977 -3.77406 -4.66567 0
M  V30 1064 H 99.1677 -3.58524 -3.26479 0
M  V30 1065 N 100.511 1.16574 -1.06058 0
M  V30 1066 C 101.757 1.87324 -0.777022 0
M  V30 1067 C 102.09 1.81351 0.694645 0
M  V30 1068 O 101.365 1.22753 1.50871 0
M  V30 1069 C 101.648 3.36991 -1.26922 0
M  V30 1070 C 101.501 3.51667 -2.80447 0
M  V30 1071 C 102.82 4.3131 -0.87521 0
M  V30 1072 H 99.9388 0.680191 -0.28374 0
M  V30 1073 H 102.581 1.37036 -1.3161 0
M  V30 1074 H 100.731 3.79949 -0.81063 0
M  V30 1075 H 102.403 3.17664 -3.34495 0
M  V30 1076 H 100.646 2.93656 -3.19294 0
M  V30 1077 H 101.317 4.56766 -3.0995 0
M  V30 1078 H 103.793 3.9624 -1.27014 0
M  V30 1079 H 102.669 5.34545 -1.2471 0
M  V30 1080 H 102.93 4.41552 0.220071 0
M  V30 1081 N 101.989 0.842826 1.3317 0
M  V30 1082 C 103.237 0.439577 1.97262 0
M  V30 1083 C 103.558 -1.00548 1.67078 0
M  V30 1084 O 102.828 -1.70098 0.971779 0
M  V30 1085 H 101.408 0.159558 0.72976 0
M  V30 1086 H 104.07 1.07665 1.62463 0
M  V30 1087 H 103.166 0.574886 3.0676 0
M  V30 1088 N 103.467 -1.45747 0.599634 0
M  V30 1089 C 104.377 -2.34262 -0.125888 0
M  V30 1090 C 105.393 -1.50768 -0.868625 0
M  V30 1091 O 106.569 -1.83592 -0.828003 0
M  V30 1092 C 103.634 -3.28252 -1.11587 0
M  V30 1093 C 102.695 -4.27651 -0.375956 0
M  V30 1094 C 101.928 -5.1715 -1.31877 0
M  V30 1095 O 102.151 -5.09916 -2.55621 0
M  V30 1096 O 101.085 -5.96286 -0.820157 0
M  V30 1097 H 104.911 -2.97688 0.601315 0
M  V30 1098 H 102.496 -1.44999 0.359934 0
M  V30 1099 H 104.378 -3.86191 -1.68626 0
M  V30 1100 H 103.053 -2.67401 -1.82424 0
M  V30 1101 H 101.96 -3.7335 0.236698 0
M  V30 1102 H 103.293 -4.91334 0.29177 0
M  V30 1103 N 104.945 -0.338344 -1.53925 0
M  V30 1104 C 105.855 0.529421 -2.28548 0
M  V30 1105 C 106.871 1.11645 -1.3346 0
M  V30 1106 O 108.047 1.13325 -1.66492 0
M  V30 1107 C 105.112 1.66713 -3.03987 0
M  V30 1108 C 104.173 1.11041 -4.14691 0
M  V30 1109 C 103.406 2.19389 -4.86522 0
M  V30 1110 O 103.629 3.40013 -4.57982 0
M  V30 1111 O 102.563 1.83976 -5.73094 0
M  V30 1112 H 106.389 -0.0770399 -3.03602 0
M  V30 1113 H 103.974 -0.103555 -1.49041 0
M  V30 1114 H 105.856 2.32918 -3.5118 0
M  V30 1115 H 104.531 2.25949 -2.31794 0
M  V30 1116 H 103.438 0.413024 -3.71813 0
M  V30 1117 H 104.771 0.562975 -4.8897 0
M  V30 1118 N 106.423 1.57458 -0.0668435 0
M  V30 1119 C 107.333 2.15937 0.916975 0
M  V30 1120 C 108.349 1.12123 1.33058 0
M  V30 1121 O 109.525 1.44366 1.40429 0
M  V30 1122 C 106.59 2.70547 2.16807 0
M  V30 1123 C 105.651 3.89215 1.81135 0
M  V30 1124 C 104.884 4.41211 3.0028 0
M  V30 1125 O 105.107 3.92225 4.14144 0
M  V30 1126 O 104.041 5.32605 2.80384 0
M  V30 1127 H 107.867 3.00354 0.449561 0
M  V30 1128 H 105.452 1.48584 0.155949 0
M  V30 1129 H 107.334 3.0557 2.90181 0
M  V30 1130 H 106.009 1.89192 2.62656 0
M  V30 1131 H 104.916 3.59054 1.05028 0
M  V30 1132 H 106.249 4.71848 1.40073 0
M  V30 1133 N 107.901 -0.206675 1.56239 0
M  V30 1134 C 108.864 -1.23976 1.92776 0
M  V30 1135 C 109.864 -1.39041 0.807729 0
M  V30 1136 O 111.054 -1.37051 1.0753 0
M  V30 1137 C 108.186 -2.61112 2.19165 0
M  V30 1138 H 109.379 -0.927764 2.85189 0
M  V30 1139 H 106.932 -0.447718 1.4975 0
M  V30 1140 H 107.667 -2.97386 1.29352 0
M  V30 1141 H 107.452 -2.51552 3.00772 0
M  V30 1142 H 108.942 -3.35633 2.48476 0
M  V30 1143 N 109.379 -1.50304 -0.473955 0
M  V30 1144 C 110.656 -1.51667 -1.23518 0
M  V30 1145 C 111.036 -0.259701 -2.09496 0
M  V30 1146 O 110.384 0.756986 -2.15597 0
M  V30 1147 C 110.594 -2.81082 -2.06868 0
M  V30 1148 C 111.942 -3.31631 -2.65153 0
M  V30 1149 O 112.966 -2.82384 -2.17113 0
M  V30 1150 O 111.825 -4.17471 -3.52675 0
M  V30 1151 H 108.919 -0.60822 -0.560355 0
M  V30 1152 H 111.465 -1.62592 -0.486011 0
M  V30 1153 H 110.237 -3.64041 -1.4349 0
M  V30 1154 H 109.86 -2.73146 -2.88924 0
M  V30 1155 N 110.857 0.726932 -1.39834 0
M  V30 1156 C 111.767 1.87131 -1.41489 0
M  V30 1157 C 112.783 1.71239 -0.308757 0
M  V30 1158 O 113.959 1.93701 -0.551529 0
M  V30 1159 C 111.024 3.22811 -1.26468 0
M  V30 1160 C 110.085 3.51039 -2.47124 0
M  V30 1161 C 109.318 4.80245 -2.3281 0
M  V30 1162 O 109.541 5.54537 -1.33585 0
M  V30 1163 O 108.475 5.08554 -3.21957 0
M  V30 1164 H 112.301 1.8869 -2.3797 0
M  V30 1165 H 109.886 0.875837 -1.21035 0
M  V30 1166 H 111.768 4.03877 -1.20255 0
M  V30 1167 H 110.443 3.22005 -0.330862 0
M  V30 1168 H 109.35 2.70027 -2.58914 0
M  V30 1169 H 110.683 3.56632 -3.39227 0
M  V30 1170 N 112.336 1.25143 0.95797 0
M  V30 1171 C 113.284 1.05019 2.07542 0
M  V30 1172 C 114.278 -0.0178751 1.69391 0
M  V30 1173 O 115.484 0.137472 1.79474 0
M  V30 1174 H 111.859 0.32265 0.679265 0
M  V30 1175 H 113.83 1.99759 2.21673 0
M  V30 1176 C 112.579 0.682074 3.40944 0
M  V30 1177 H 111.902 1.49573 3.70767 0
M  V30 1178 H 113.342 0.580945 4.20001 0
M  V30 1179 C 111.801 -0.611608 3.31302 0
M  V30 1180 O 112.331 -1.65465 3.66038 0
M  V30 1181 N 110.537 -0.595982 2.84423 0
M  V30 1182 H 110.084 0.253192 2.56353 0
M  V30 1183 H 110.042 -1.46173 2.78354 0
M  V30 1184 N 113.814 -1.1601 1.06675 0
M  V30 1185 C 114.777 -2.18724 0.685001 0
M  V30 1186 C 115.777 -1.58496 -0.271246 0
M  V30 1187 O 116.967 -1.74119 -0.0531156 0
M  V30 1188 C 114.099 -3.40899 0.00853648 0
M  V30 1189 H 115.292 -2.54011 1.59431 0
M  V30 1190 H 112.845 -1.30352 0.862441 0
M  V30 1191 H 113.58 -3.11173 -0.913337 0
M  V30 1192 H 113.365 -3.8587 0.696204 0
M  V30 1193 H 114.855 -4.16886 -0.24414 0
M  V30 1194 N 115.292 -0.849877 -1.32721 0
M  V30 1195 C 116.538 -0.451591 -1.97708 0
M  V30 1196 C 116.871 0.989175 -1.6712 0
M  V30 1197 O 116.146 1.69334 -0.956891 0
M  V30 1198 C 116.429 -0.685598 -3.53513 0
M  V30 1199 C 116.282 -2.17444 -3.93749 0
M  V30 1200 C 117.601 -0.138874 -4.39881 0
M  V30 1201 H 114.72 -0.16555 -0.718166 0
M  V30 1202 H 117.362 -1.06742 -1.57182 0
M  V30 1203 H 115.512 -0.161416 -3.88165 0
M  V30 1204 H 117.184 -2.76433 -3.693 0
M  V30 1205 H 115.427 -2.65476 -3.43081 0
M  V30 1206 H 116.098 -2.28888 -5.02309 0
M  V30 1207 H 118.574 -0.587068 -4.11938 0
M  V30 1208 H 117.45 -0.332213 -5.47894 0
M  V30 1209 H 117.711 0.95806 -4.31594 0
M  V30 1210 N 116.77 1.45427 -0.607355 0
M  V30 1211 C 117.718 2.32269 0.12411 0
M  V30 1212 C 118.712 1.45955 0.859854 0
M  V30 1213 O 119.918 1.6244 0.775447 0
M  V30 1214 H 116.293 0.749691 0.0588839 0
M  V30 1215 H 118.264 2.91743 -0.626762 0
M  V30 1216 C 117.013 3.29567 1.1082 0
M  V30 1217 H 116.336 3.95978 0.551492 0
M  V30 1218 H 117.776 3.93061 1.58995 0
M  V30 1219 C 116.235 2.56722 2.18164 0
M  V30 1220 O 116.765 2.34842 3.25902 0
M  V30 1221 N 114.971 2.16861 1.93442 0
M  V30 1222 H 114.518 2.34855 1.05834 0
M  V30 1223 H 114.476 1.68444 2.65469 0
M  V30 1224 N 118.248 0.346503 1.53744 0
M  V30 1225 C 119.211 -0.496439 2.23759 0
M  V30 1226 C 120.211 -1.0252 1.2388 0
M  V30 1227 O 121.401 -0.913974 1.48297 0
M  V30 1228 C 118.533 -1.69187 2.95954 0
M  V30 1229 H 119.726 0.115952 2.99676 0
M  V30 1230 H 117.279 0.0978939 1.55993 0
M  V30 1231 H 118.014 -2.34288 2.24231 0
M  V30 1232 H 117.799 -1.31989 3.69217 0
M  V30 1233 H 119.289 -2.28969 3.49232 0
M  V30 1234 N 119.726 -1.57421 0.075193 0
M  V30 1235 C 120.656 -2.15942 -0.888324 0
M  V30 1236 C 121.637 -1.08737 -1.30806 0
M  V30 1237 O 122.822 -1.36787 -1.37851 0
M  V30 1238 C 119.952 -2.72379 -2.1547 0
M  V30 1239 C 118.906 -3.8478 -1.87425 0
M  V30 1240 C 118.232 -4.27834 -3.20721 0
M  V30 1241 C 119.532 -5.08869 -1.17684 0
M  V30 1242 H 121.226 -2.96705 -0.400799 0
M  V30 1243 H 118.772 -1.42723 -0.191342 0
M  V30 1244 H 120.725 -3.11965 -2.83295 0
M  V30 1245 H 119.449 -1.88841 -2.6647 0
M  V30 1246 H 118.108 -3.45703 -1.22004 0
M  V30 1247 H 117.756 -3.41214 -3.6957 0
M  V30 1248 H 117.456 -5.03605 -3.02746 0
M  V30 1249 H 118.98 -4.70039 -3.89738 0
M  V30 1250 H 120.394 -5.4575 -1.75584 0
M  V30 1251 H 118.791 -5.8994 -1.09956 0
M  V30 1252 H 119.861 -4.84648 -0.156453 0
M  V30 1253 N 121.204 0.198386 -1.56346 0
M  V30 1254 C 122.62 0.549085 -1.49857 0
M  V30 1255 C 122.82 1.86016 -0.774611 0
M  V30 1256 O 121.876 2.50416 -0.323776 0
M  V30 1257 C 123.189 0.606868 -2.94512 0
M  V30 1258 C 124.737 0.695925 -3.05165 0
M  V30 1259 C 125.212 0.784848 -4.51225 0
M  V30 1260 N 126.703 0.848463 -4.55363 0
M  V30 1261 C 127.438 0.937378 -5.65686 0
M  V30 1262 N 126.934 0.9888 -6.85707 0
M  V30 1263 N 128.727 0.974312 -5.53592 0
M  V30 1264 H 120.878 -0.661655 -2.01831 0
M  V30 1265 H 123.141 -0.235261 -0.918344 0
M  V30 1266 H 122.847 -0.28732 -3.50524 0
M  V30 1267 H 122.721 1.46268 -3.47686 0
M  V30 1268 H 125.108 1.58055 -2.49204 0
M  V30 1269 H 125.189 -0.186022 -2.55123 0
M  V30 1270 H 124.833 -0.0954072 -5.0781 0
M  V30 1271 H 124.763 1.68255 -4.98997 0
M  V30 1272 H 127.254 0.818103 -3.68938 0
M  V30 1273 H 127.567 1.05707 -7.65536 0
M  V30 1274 H 125.912 0.957534 -6.88372 0
M  V30 1275 H 129.103 0.930954 -4.58749 0
M  V30 1276 H 129.276 1.04015 -6.39597 0
M  V30 1277 N 122.682 1.50554 0.465978 0
M  V30 1278 C 123.592 1.72585 1.58907 0
M  V30 1279 C 124.608 0.60911 1.6299 0
M  V30 1280 O 125.784 0.88804 1.80765 0
M  V30 1281 C 122.849 1.81995 2.95091 0
M  V30 1282 C 121.91 3.05751 3.01355 0
M  V30 1283 C 121.143 3.14702 4.31043 0
M  V30 1284 O 121.366 2.30313 5.21835 0
M  V30 1285 O 120.3 4.07468 4.43005 0
M  V30 1286 H 124.126 2.67799 1.43239 0
M  V30 1287 H 121.711 1.34711 0.646013 0
M  V30 1288 H 123.593 1.90335 3.75966 0
M  V30 1289 H 122.268 0.899659 3.10947 0
M  V30 1290 H 121.175 3.02908 2.19539 0
M  V30 1291 H 122.508 3.97375 2.90437 0
M  V30 1292 N 124.16 -0.719506 1.40217 0
M  V30 1293 C 125.407 -1.47933 1.38283 0
M  V30 1294 C 125.735 -1.94493 -0.0161536 0
M  V30 1295 O 124.99 -1.68224 -0.999956 0
M  V30 1296 C 125.289 -2.72271 2.31524 0
M  V30 1297 C 124.955 -2.44496 3.78857 0
M  V30 1298 C 123.617 -2.36631 4.18998 0
M  V30 1299 C 125.969 -2.21104 4.71977 0
M  V30 1300 C 123.297 -2.03437 5.503 0
M  V30 1301 C 125.649 -1.89423 6.03574 0
M  V30 1302 C 124.313 -1.80038 6.42762 0
M  V30 1303 H 123.583 -0.541325 0.506012 0
M  V30 1304 H 126.23 -0.824502 1.72842 0
M  V30 1305 H 124.535 -3.42572 1.90137 0
M  V30 1306 H 126.232 -3.30348 2.27313 0
M  V30 1307 H 122.822 -2.51503 3.47051 0
M  V30 1308 H 127.006 -2.26139 4.41786 0
M  V30 1309 H 122.262 -1.94705 5.79569 0
M  V30 1310 H 126.436 -1.70336 6.75247 0
M  V30 1311 H 124.063 -1.54083 7.44421 0
M  V30 1312 N 125.638 -1.25649 -0.95132 0
M  V30 1313 C 126.568 -1.08808 -2.06599 0
M  V30 1314 C 127.549 0.00382547 -1.701 0
M  V30 1315 O 128.734 -0.166325 -1.93486 0
M  V30 1316 C 125.864 -0.709542 -3.39975 0
M  V30 1317 C 124.818 -1.75206 -3.90496 0
M  V30 1318 C 124.144 -1.22811 -5.20405 0
M  V30 1319 C 125.444 -3.15153 -4.16504 0
M  V30 1320 H 127.138 -2.02048 -2.20946 0
M  V30 1321 H 124.684 -0.972835 -1.06169 0
M  V30 1322 H 126.637 -0.578649 -4.17408 0
M  V30 1323 H 125.361 0.258556 -3.25575 0
M  V30 1324 H 124.02 -1.87145 -3.15234 0
M  V30 1325 H 123.668 -0.250145 -5.02378 0
M  V30 1326 H 123.368 -1.92492 -5.55176 0
M  V30 1327 H 124.892 -1.10968 -6.00432 0
M  V30 1328 H 126.306 -3.06349 -4.84586 0
M  V30 1329 H 124.703 -3.82333 -4.62538 0
M  V30 1330 H 125.773 -3.61966 -3.22658 0
M  V30 1331 N 127.117 1.15442 -1.07289 0
M  V30 1332 C 128.345 1.90096 -0.81676 0
M  V30 1333 C 128.76 1.7798 0.629966 0
M  V30 1334 O 128.117 1.1313 1.43206 0
M  V30 1335 C 128.168 3.40466 -1.21512 0
M  V30 1336 O 127.889 3.52232 -2.60508 0
M  V30 1337 C 129.39 4.32145 -0.988198 0
M  V30 1338 H 126.61 0.602495 -0.295366 0
M  V30 1339 H 129.154 1.4627 -1.42918 0
M  V30 1340 H 127.309 3.81958 -0.647039 0
M  V30 1341 H 127.723 4.45549 -2.76742 0
M  V30 1342 H 129.197 5.36072 -1.31645 0
M  V30 1343 H 129.674 4.39135 0.0755063 0
M  V30 1344 H 130.28 3.96395 -1.54115 0
M  V30 1345 N 128.595 0.856903 1.32268 0
M  V30 1346 C 129.558 0.308171 2.27119 0
M  V30 1347 C 130.558 -0.533421 1.51695 0
M  V30 1348 O 131.748 -0.344607 1.70757 0
M  V30 1349 C 128.88 -0.563757 3.36206 0
M  V30 1350 H 130.073 1.14535 2.77167 0
M  V30 1351 H 127.626 0.631421 1.42978 0
M  V30 1352 H 128.361 -1.42266 2.91429 0
M  V30 1353 H 128.146 0.0386749 3.92081 0
M  V30 1354 H 129.636 -0.940386 4.06874 0
M  V30 1355 N 130.073 -1.45103 0.615059 0
M  V30 1356 C 131.021 -2.32331 -0.111791 0
M  V30 1357 C 132.015 -1.46409 -0.852102 0
M  V30 1358 O 133.221 -1.62849 -0.766821 0
M  V30 1359 H 129.596 -0.749993 -0.0549072 0
M  V30 1360 H 131.567 -2.91407 0.642225 0
M  V30 1361 C 130.316 -3.3015 -1.09071 0
M  V30 1362 H 129.639 -3.96265 -0.530485 0
M  V30 1363 H 131.079 -3.93898 -1.56908 0
M  V30 1364 C 129.538 -2.57875 -2.168 0
M  V30 1365 O 130.068 -2.36567 -3.24652 0
M  V30 1366 N 128.274 -2.17884 -1.92289 0
M  V30 1367 H 127.821 -2.35413 -1.04587 0
M  V30 1368 H 127.779 -1.6985 -2.64572 0
M  V30 1369 N 131.551 -0.354651 -1.53558 0
M  V30 1370 C 132.499 0.512195 -2.26891 0
M  V30 1371 C 133.493 1.09263 -1.29452 0
M  V30 1372 O 134.699 1.03709 -1.47121 0
M  V30 1373 H 131.074 0.183878 -0.729173 0
M  V30 1374 H 133.045 -0.128202 -2.98124 0
M  V30 1375 C 131.794 1.64563 -3.06291 0
M  V30 1376 H 131.117 1.20829 -3.81104 0
M  V30 1377 H 132.557 2.22711 -3.60799 0
M  V30 1378 C 131.016 2.58158 -2.16462 0
M  V30 1379 O 131.546 3.60695 -1.76811 0
M  V30 1380 N 129.752 2.27096 -1.81317 0
M  V30 1381 H 129.299 1.43751 -2.1376 0
M  V30 1382 H 129.257 2.89975 -1.21498 0
M  V30 1383 N 133.029 1.57378 -0.0835403 0
M  V30 1384 C 134.278 1.93106 0.582498 0
M  V30 1385 C 134.591 0.96651 1.70053 0
M  V30 1386 O 135.797 1.21705 2.42693 0
M  V30 1387 C 134.253 3.43076 1.08751 0
M  V30 1388 C 133.861 4.48 -0.000146404 0
M  V30 1389 C 135.605 3.87785 1.72694 0
M  V30 1390 C 133.512 5.89113 0.519568 0
M  V30 1391 H 132.442 0.720775 0.221358 0
M  V30 1392 H 135.093 1.82821 -0.157675 0
M  V30 1393 H 133.475 3.48474 1.88101 0
M  V30 1394 H 134.649 4.54233 -0.775199 0
M  V30 1395 H 132.964 4.1283 -0.54406 0
M  V30 1396 H 135.561 4.90604 2.1263 0
M  V30 1397 H 135.904 3.25796 2.59158 0
M  V30 1398 H 136.437 3.8504 0.999457 0
M  V30 1399 H 133.176 6.54775 -0.308186 0
M  V30 1400 H 132.696 5.86376 1.26188 0
M  V30 1401 H 134.375 6.39346 0.992237 0
M  V30 1402 N 134.507 -0.190092 1.56449 0
M  V30 1403 C 135.417 -1.25591 1.98152 0
M  V30 1404 C 136.433 -1.49519 0.889944 0
M  V30 1405 O 137.609 -1.62036 1.19609 0
M  V30 1406 C 134.674 -2.57916 2.3169 0
M  V30 1407 C 133.735 -2.42015 3.5458 0
M  V30 1408 C 132.968 -3.6803 3.8651 0
M  V30 1409 O 133.191 -4.72413 3.1966 0
M  V30 1410 O 132.125 -3.6326 4.79923 0
M  V30 1411 H 135.951 -0.931988 2.89046 0
M  V30 1412 H 133.536 -0.395488 1.4407 0
M  V30 1413 H 135.418 -3.36008 2.54316 0
M  V30 1414 H 134.093 -2.89925 1.43963 0
M  V30 1415 H 133 -1.62017 3.37196 0
M  V30 1416 H 134.333 -2.14937 4.4279 0
M  V30 1417 N 135.985 -1.50799 -0.457987 0
M  V30 1418 C 137.234 -1.6168 -1.20593 0
M  V30 1419 C 137.547 -0.32888 -1.92815 0
M  V30 1420 O 138.753 -0.316773 -2.69646 0
M  V30 1421 C 137.209 -2.8545 -2.19195 0
M  V30 1422 C 136.817 -4.21168 -1.52715 0
M  V30 1423 C 138.561 -3.05681 -2.94549 0
M  V30 1424 C 136.468 -5.3611 -2.4968 0
M  V30 1425 H 135.398 -0.602134 -0.453818 0
M  V30 1426 H 138.049 -1.77245 -0.475031 0
M  V30 1427 H 136.431 -2.63472 -2.95632 0
M  V30 1428 H 137.605 -4.53449 -0.819775 0
M  V30 1429 H 135.92 -4.06648 -0.895922 0
M  V30 1430 H 138.517 -3.88727 -3.67145 0
M  V30 1431 H 138.86 -2.17929 -3.54701 0
M  V30 1432 H 139.393 -3.27901 -2.25223 0
M  V30 1433 H 136.132 -6.26057 -1.94249 0
M  V30 1434 H 135.652 -5.0823 -3.18532 0
M  V30 1435 H 137.331 -5.6722 -3.11241 0
M  V30 1436 N 137.463 0.71206 -1.40597 0
M  V30 1437 C 138.411 1.84746 -1.41321 0
M  V30 1438 C 139.405 1.66842 -0.293268 0
M  V30 1439 O 140.611 1.73904 -0.464481 0
M  V30 1440 H 136.986 0.608522 -0.441819 0
M  V30 1441 H 138.957 1.81252 -2.37045 0
M  V30 1442 C 137.706 3.22638 -1.29614 0
M  V30 1443 H 137.029 3.37023 -2.15071 0
M  V30 1444 H 138.469 4.02209 -1.3418 0
M  V30 1445 C 136.928 3.36899 -0.00673121 0
M  V30 1446 O 137.458 3.90186 0.954859 0
M  V30 1447 N 135.664 2.9053 0.0639327 0
M  V30 1448 H 135.211 2.47353 -0.719311 0
M  V30 1449 H 135.169 3.0045 0.926118 0
M  V30 1450 N 138.941 1.26152 0.944643 0
M  V30 1451 C 140.166 1.14363 1.7302 0
M  V30 1452 C 140.591 -0.29772 1.85729 0
M  V30 1453 O 139.949 -1.2157 1.34501 0
M  V30 1454 C 139.997 1.81378 3.11664 0
M  V30 1455 O 139.101 1.10022 3.97453 0
M  V30 1456 H 138.442 0.398694 0.53098 0
M  V30 1457 H 140.972 1.66906 1.18337 0
M  V30 1458 H 140.982 1.88064 3.62072 0
M  V30 1459 H 139.657 2.86237 3.0173 0
M  V30 1460 H 138.234 1.11287 3.55907 0
M  V30 1461 N 140.419 -1.14872 1.07899 0
M  V30 1462 C 141.329 -2.2341 0.715915 0
M  V30 1463 C 142.345 -1.71808 -0.275306 0
M  V30 1464 O 143.521 -2.01039 -0.120545 0
M  V30 1465 C 140.586 -3.46474 0.125168 0
M  V30 1466 C 139.647 -4.13039 1.17034 0
M  V30 1467 C 138.88 -5.30229 0.607688 0
M  V30 1468 O 139.103 -5.675 -0.574497 0
M  V30 1469 O 138.037 -5.86444 1.35526 0
M  V30 1470 H 141.863 -2.56808 1.62121 0
M  V30 1471 H 139.448 -1.22702 0.852322 0
M  V30 1472 H 141.33 -4.20917 -0.201729 0
M  V30 1473 H 140.005 -3.14811 -0.753364 0
M  V30 1474 H 138.912 -3.40493 1.54968 0
M  V30 1475 H 140.245 -4.48796 2.02097 0
M  V30 1476 N 141.898 -0.863906 -1.31812 0
M  V30 1477 C 142.846 -0.30422 -2.30602 0
M  V30 1478 C 143.84 0.577419 -1.59255 0
M  V30 1479 O 145.046 0.464194 -1.73912 0
M  V30 1480 H 141.421 -0.0796877 -0.747766 0
M  V30 1481 H 143.392 -1.15148 -2.75288 0
M  V30 1482 C 142.141 0.484617 -3.44306 0
M  V30 1483 H 141.464 -0.18451 -3.99374 0
M  V30 1484 H 142.904 0.841664 -4.15562 0
M  V30 1485 C 141.363 1.6735 -2.92396 0
M  V30 1486 O 141.893 2.77273 -2.90659 0
M  V30 1487 N 140.099 1.50362 -2.48676 0
M  V30 1488 H 139.646 0.609402 -2.50288 0
M  V30 1489 H 139.604 2.30051 -2.14299 0
M  V30 1490 N 143.376 1.44774 -0.622745 0
M  V30 1491 C 144.653 1.95522 -0.0551974 0
M  V30 1492 C 145.033 1.5649 1.41683 0
M  V30 1493 O 144.381 0.834848 2.12703 0
M  V30 1494 C 144.591 3.4796 -0.269242 0
M  V30 1495 C 145.939 4.24306 -0.158014 0
M  V30 1496 O 146.963 3.55637 -0.200162 0
M  V30 1497 O 145.822 5.46471 -0.0558693 0
M  V30 1498 H 142.916 0.826556 0.0271015 0
M  V30 1499 H 145.462 1.54866 -0.693864 0
M  V30 1500 H 144.234 3.6939 -1.29099 0
M  V30 1501 H 143.857 3.95543 0.403966 0
M  V30 1502 N 144.854 0.36279 1.53368 0
M  V30 1503 C 146.265 -0.117022 1.86333 0
M  V30 1504 C 146.616 -1.48397 1.28347 0
M  V30 1505 O 145.741 -2.07787 0.604428 0
M  V30 1506 C 146.336 -0.21912 3.38091 0
M  V30 1507 C 144.895 -0.643184 3.70864 0
M  V30 1508 C 144.042 0.211318 2.76494 0
M  V30 1509 H 146.993 0.581687 1.47655 0
M  V30 1510 H 147.014 -1.04319 3.6592 0
M  V30 1511 H 146.526 0.775902 3.80265 0
M  V30 1512 H 144.627 -1.64654 3.34245 0
M  V30 1513 H 144.74 -0.41973 4.77258 0
M  V30 1514 H 143.104 -0.319367 2.5269 0
M  V30 1515 H 143.887 1.20383 3.21501 0
M  V30 1516 N 146.332 -1.57332 0.0918853 0
M  V30 1517 C 147.28 -2.15075 -0.885747 0
M  V30 1518 C 148.274 -1.09277 -1.29441 0
M  V30 1519 O 149.48 -1.27627 -1.26931 0
M  V30 1520 H 145.855 -0.687966 -0.303656 0
M  V30 1521 H 147.826 -2.96047 -0.373995 0
M  V30 1522 C 146.575 -2.74325 -2.13638 0
M  V30 1523 H 145.898 -3.55418 -1.8308 0
M  V30 1524 H 147.338 -3.183 -2.80109 0
M  V30 1525 C 145.797 -1.70062 -2.90827 0
M  V30 1526 O 146.327 -1.13763 -3.85254 0
M  V30 1527 N 144.533 -1.40628 -2.54307 0
M  V30 1528 H 144.08 -1.866 -1.7759 0
M  V30 1529 H 144.038 -0.711043 -3.06254 0
M  V30 1530 N 147.81 0.181792 -1.56548 0
M  V30 1531 C 149.035 0.920019 -1.85877 0
M  V30 1532 C 149.46 1.75494 -0.677021 0
M  V30 1533 O 148.818 1.77399 0.374056 0
M  V30 1534 C 148.866 1.78112 -3.13542 0
M  V30 1535 O 147.97 2.88152 -2.95029 0
M  V30 1536 H 147.311 0.258334 -0.611686 0
M  V30 1537 H 149.841 0.183092 -2.03779 0
M  V30 1538 H 149.851 2.18314 -3.44678 0
M  V30 1539 H 148.526 1.16777 -3.99169 0
M  V30 1540 H 147.103 2.51609 -2.75222 0
M  V30 1541 N 149.288 1.51039 0.449983 0
M  V30 1542 C 150.516 1.66869 1.2232 0
M  V30 1543 C 150.931 0.360727 1.85322 0
M  V30 1544 O 150.288 -0.659531 1.70166 0
M  V30 1545 C 150.339 2.77524 2.31652 0
M  V30 1546 O 150.06 4.03252 1.7123 0
M  V30 1547 C 151.561 3.04512 3.2216 0
M  V30 1548 H 148.781 0.560326 0.369155 0
M  V30 1549 H 151.325 1.97385 0.534719 0
M  V30 1550 H 149.48 2.49642 2.96239 0
M  V30 1551 H 149.894 4.64609 2.43389 0
M  V30 1552 H 151.368 3.85551 3.95038 0
M  V30 1553 H 151.845 2.16415 3.8218 0
M  V30 1554 H 152.451 3.34005 2.63288 0
M  V30 1555 N 150.766 -0.704594 1.40972 0
M  V30 1556 C 151.994 -1.49354 1.43182 0
M  V30 1557 C 152.409 -1.88768 0.0345508 0
M  V30 1558 O 151.766 -1.56184 -0.944081 0
M  V30 1559 C 151.817 -2.76187 2.33244 0
M  V30 1560 O 151.538 -2.38436 3.67532 0
M  V30 1561 C 153.039 -3.7 2.44162 0
M  V30 1562 H 150.259 -0.460559 0.487982 0
M  V30 1563 H 152.803 -0.868261 1.85153 0
M  V30 1564 H 150.958 -3.34974 1.94606 0
M  V30 1565 H 151.372 -3.20126 4.15475 0
M  V30 1566 H 152.846 -4.55803 3.11364 0
M  V30 1567 H 153.323 -4.13867 1.47006 0
M  V30 1568 H 153.929 -3.17121 2.83398 0
M  V30 1569 N 152.244 -1.26651 -0.937939 0
M  V30 1570 C 153.174 -1.10993 -2.05433 0
M  V30 1571 C 154.155 -0.0142161 -1.70094 0
M  V30 1572 O 155.34 -0.186837 -1.93299 0
M  V30 1573 C 152.47 -0.745561 -3.39203 0
M  V30 1574 C 151.424 -1.79337 -3.88616 0
M  V30 1575 C 150.75 -1.28324 -5.19073 0
M  V30 1576 C 152.05 -3.19553 -4.13138 0
M  V30 1577 H 153.744 -2.0438 -2.1879 0
M  V30 1578 H 151.29 -0.984041 -1.05131 0
M  V30 1579 H 153.243 -0.622888 -4.16771 0
M  V30 1580 H 151.967 0.22401 -3.25831 0
M  V30 1581 H 150.626 -1.90477 -3.13231 0
M  V30 1582 H 150.274 -0.303414 -5.02084 0
M  V30 1583 H 149.974 -1.98369 -5.53103 0
M  V30 1584 H 151.498 -1.1733 -5.99221 0
M  V30 1585 H 152.912 -3.11471 -4.81309 0
M  V30 1586 H 151.309 -3.87218 -4.58457 0
M  V30 1587 H 152.379 -3.65368 -3.18801 0
M  V30 1588 N 153.722 1.14298 -1.08507 0
M  V30 1589 C 154.971 1.84708 -0.810305 0
M  V30 1590 C 155.284 1.83903 0.666271 0
M  V30 1591 O 156.49 2.50112 1.05624 0
M  V30 1592 C 154.946 3.31572 -1.39957 0
M  V30 1593 C 154.554 3.40791 -2.90801 0
M  V30 1594 C 156.298 4.07087 -1.20334 0
M  V30 1595 C 154.205 4.81872 -3.4286 0
M  V30 1596 H 153.135 0.691985 -0.299454 0
M  V30 1597 H 155.786 1.28841 -1.30661 0
M  V30 1598 H 154.168 3.87183 -0.830976 0
M  V30 1599 H 155.342 2.95225 -3.53806 0
M  V30 1600 H 153.657 2.78732 -3.0935 0
M  V30 1601 H 156.254 5.11225 -1.56693 0
M  V30 1602 H 156.597 4.16054 -0.143237 0
M  V30 1603 H 157.13 3.57779 -1.73893 0
M  V30 1604 H 153.869 4.78094 -4.48449 0
M  V30 1605 H 153.389 5.27972 -2.84615 0
M  V30 1606 H 155.068 5.50765 -3.39509 0
M  V30 1607 N 155.201 0.870884 1.31352 0
M  V30 1608 C 156.45 0.478408 1.95944 0
M  V30 1609 C 156.763 -0.974493 1.69597 0
M  V30 1610 O 157.969 -1.47316 2.28058 0
M  V30 1611 C 156.425 0.804609 3.50791 0
M  V30 1612 C 156.033 2.27433 3.85977 0
M  V30 1613 C 157.777 0.480648 4.2177 0
M  V30 1614 C 155.684 2.5429 5.33939 0
M  V30 1615 H 154.614 0.175175 0.733369 0
M  V30 1616 H 157.265 1.06391 1.4951 0
M  V30 1617 H 155.647 0.148347 3.95722 0
M  V30 1618 H 156.821 2.97373 3.52002 0
M  V30 1619 H 155.136 2.56442 3.28065 0
M  V30 1620 H 157.733 0.658519 5.30629 0
M  V30 1621 H 158.076 -0.578979 4.12254 0
M  V30 1622 H 158.609 1.09349 3.82476 0
M  V30 1623 H 155.348 3.58939 5.48491 0
M  V30 1624 H 154.868 1.88945 5.69263 0
M  V30 1625 H 156.547 2.39066 6.01212 0
M  V30 1626 N 156.679 -1.44442 0.630414 0
M  V30 1627 C 157.927 -2.01653 0.134351 0
M  V30 1628 C 158.248 -1.49836 -1.24796 0
M  V30 1629 O 157.518 -0.701684 -1.82902 0
M  V30 1630 H 156.098 -0.74554 0.0466769 0
M  V30 1631 H 158.76 -1.76952 0.816955 0
M  V30 1632 H 157.856 -3.11935 0.101498 0
M  V30 1633 N 158.157 -0.370918 -1.53173 0
M  V30 1634 C 159.067 0.480823 -2.2962 0
M  V30 1635 C 160.083 1.08789 -1.35798 0
M  V30 1636 O 161.259 1.09768 -1.68858 0
M  V30 1637 C 158.324 1.60227 -3.07454 0
M  V30 1638 C 157.385 1.0222 -4.16953 0
M  V30 1639 C 156.618 2.0902 -4.91066 0
M  V30 1640 O 156.841 3.30222 -4.65091 0
M  V30 1641 O 155.775 1.71778 -5.76867 0
M  V30 1642 H 159.601 -0.141421 -3.03371 0
M  V30 1643 H 157.186 -0.135146 -1.48787 0
M  V30 1644 H 159.068 2.25417 -3.56041 0
M  V30 1645 H 157.743 2.20982 -2.36535 0
M  V30 1646 H 156.65 0.334064 -3.72605 0
M  V30 1647 H 157.983 0.459131 -4.90054 0
M  V30 1648 N 159.635 1.57281 -0.100228 0
M  V30 1649 C 160.881 1.94826 0.563101 0
M  V30 1650 C 161.214 0.982475 1.67514 0
M  V30 1651 O 160.489 0.0164069 1.94493 0
M  V30 1652 C 160.772 3.42453 1.11346 0
M  V30 1653 C 160.625 4.498 0.00612081 0
M  V30 1654 C 161.944 3.91506 2.01024 0
M  V30 1655 H 159.063 0.708428 0.203221 0
M  V30 1656 H 161.705 1.8922 -0.171979 0
M  V30 1657 H 159.855 3.47361 1.7399 0
M  V30 1658 H 161.527 4.57 -0.628357 0
M  V30 1659 H 159.77 4.28756 -0.659581 0
M  V30 1660 H 160.441 5.50306 0.432109 0
M  V30 1661 H 162.917 3.88784 1.48278 0
M  V30 1662 H 161.793 4.95358 2.36457 0
M  V30 1663 H 162.054 3.31099 2.92961 0
M  V30 1664 N 161.113 -0.173488 1.56642 0
M  V30 1665 C 162.39 -0.917617 1.7274 0
M  V30 1666 C 162.77 -2.00484 0.661027 0
M  V30 1667 O 162.118 -2.26184 -0.32453 0
M  V30 1668 C 162.328 -1.48433 3.15862 0
M  V30 1669 C 163.676 -1.95809 3.76754 0
M  V30 1670 O 164.7 -1.58231 3.19126 0
M  V30 1671 O 163.559 -2.65024 4.77938 0
M  V30 1672 H 160.653 -0.431772 0.705338 0
M  V30 1673 H 163.199 -0.161487 1.6893 0
M  V30 1674 H 161.971 -0.701715 3.84957 0
M  V30 1675 H 161.594 -2.30471 3.23989 0
M  V30 1676 N 162.591 -1.51276 -0.441967 0
M  V30 1677 C 163.868 -1.54252 -1.20273 0
M  V30 1678 C 164.248 -0.30408 -2.08898 0
M  V30 1679 O 163.596 0.711084 -2.17154 0
M  V30 1680 C 163.806 -2.85406 -2.00859 0
M  V30 1681 C 165.154 -3.37181 -2.58059 0
M  V30 1682 O 166.178 -2.86925 -2.11074 0
M  V30 1683 O 165.037 -4.24858 -3.43741 0
M  V30 1684 H 162.131 -0.619969 -0.547328 0
M  V30 1685 H 164.677 -1.63586 -0.451413 0
M  V30 1686 H 163.449 -3.67003 -1.35736 0
M  V30 1687 H 163.072 -2.79213 -2.83065 0
M  V30 1688 N 164.069 0.697108 -1.41344 0
M  V30 1689 C 165.346 1.45154 -1.31109 0
M  V30 1690 C 165.726 2.11009 0.0620449 0
M  V30 1691 O 165.074 2.01571 1.07618 0
M  V30 1692 C 165.284 2.47223 -2.46337 0
M  V30 1693 C 166.632 3.1252 -2.87431 0
M  V30 1694 O 167.656 2.57547 -2.46065 0
M  V30 1695 O 166.515 4.12083 -3.58957 0
M  V30 1696 H 163.609 0.646365 -0.515889 0
M  V30 1697 H 166.155 0.727716 -1.53305 0
M  V30 1698 H 164.927 1.97204 -3.37974 0
M  V30 1699 H 164.55 3.27116 -2.2601 0
M  V30 1700 N 165.547 1.27147 0.931209 0
M  V30 1701 C 166.796 1.12664 1.67302 0
M  V30 1702 C 167.109 -0.327718 1.92835 0
M  V30 1703 O 168.315 -0.593392 2.64936 0
M  V30 1704 C 166.771 1.9683 3.01307 0
M  V30 1705 C 166.379 3.46901 2.83485 0
M  V30 1706 C 168.123 1.90985 3.79111 0
M  V30 1707 C 166.03 4.23279 4.13024 0
M  V30 1708 H 164.96 0.41803 0.627509 0
M  V30 1709 H 167.611 1.51539 1.03481 0
M  V30 1710 H 165.993 1.50797 3.66164 0
M  V30 1711 H 167.167 4.00773 2.27415 0
M  V30 1712 H 165.482 3.54088 2.19113 0
M  V30 1713 H 168.079 2.45328 4.75098 0
M  V30 1714 H 168.422 0.882718 4.06834 0
M  V30 1715 H 168.955 2.34895 3.21044 0
M  V30 1716 H 165.694 5.26503 3.90481 0
M  V30 1717 H 165.214 3.74186 4.6877 0
M  V30 1718 H 166.893 4.32265 4.81411 0
M  V30 1719 N 167.025 -1.13721 1.09112 0
M  V30 1720 C 168.436 -1.6648 0.845068 0
M  V30 1721 C 168.787 -1.85911 -0.62701 0
M  V30 1722 O 167.912 -1.57556 -1.48341 0
M  V30 1723 C 168.507 -3.02413 1.52748 0
M  V30 1724 C 167.066 -3.52176 1.32849 0
M  V30 1725 C 166.213 -2.27492 1.58564 0
M  V30 1726 H 169.164 -0.976872 1.25072 0
M  V30 1727 H 169.185 -3.68223 0.958752 0
M  V30 1728 H 168.697 -2.88238 2.59885 0
M  V30 1729 H 166.798 -3.7156 0.278137 0
M  V30 1730 H 166.911 -4.32499 2.0611 0
M  V30 1731 H 165.275 -2.33923 1.00758 0
M  V30 1732 H 166.058 -2.15886 2.66924 0
M  V30 1733 N 168.503 -0.877838 -1.30888 0
M  V30 1734 C 169.413 -0.343096 -2.32078 0
M  V30 1735 C 170.429 0.551022 -1.65045 0
M  V30 1736 O 171.605 0.445854 -1.96403 0
M  V30 1737 C 168.67 0.439905 -3.43898 0
M  V30 1738 C 167.731 -0.483111 -4.26573 0
M  V30 1739 C 166.964 0.262616 -5.33053 0
M  V30 1740 O 167.187 1.48967 -5.50604 0
M  V30 1741 O 166.121 -0.383593 -6.00676 0
M  V30 1742 H 169.947 -1.18203 -2.79753 0
M  V30 1743 H 167.532 -0.64145 -1.34929 0
M  V30 1744 H 169.414 0.883504 -4.12034 0
M  V30 1745 H 168.089 1.25526 -2.98371 0
M  V30 1746 H 166.996 -0.975374 -3.61161 0
M  V30 1747 H 168.329 -1.26427 -4.75686 0
M  V30 1748 N 169.982 1.44106 -0.638065 0
M  V30 1749 C 170.912 2.33448 0.0494287 0
M  V30 1750 C 171.893 1.48606 0.827672 0
M  V30 1751 O 173.078 1.77308 0.792173 0
M  V30 1752 C 170.208 3.31771 1.02691 0
M  V30 1753 C 169.162 4.26485 0.359823 0
M  V30 1754 C 168.488 5.14729 1.44769 0
M  V30 1755 C 169.788 5.17056 -0.738296 0
M  V30 1756 H 171.482 2.91183 -0.696636 0
M  V30 1757 H 169.028 1.40014 -0.336456 0
M  V30 1758 H 170.981 3.93161 1.51666 0
M  V30 1759 H 169.705 2.7226 1.80395 0
M  V30 1760 H 168.364 3.66437 -0.10934 0
M  V30 1761 H 168.012 4.51566 2.21578 0
M  V30 1762 H 167.712 5.78913 1.00668 0
M  V30 1763 H 169.236 5.78991 1.93911 0
M  V30 1764 H 170.65 5.72342 -0.331354 0
M  V30 1765 H 169.047 5.89879 -1.10286 0
M  V30 1766 H 170.117 4.57652 -1.60258 0
M  V30 1767 N 171.46 0.379036 1.52974 0
M  V30 1768 C 172.737 -0.263479 1.93817 0
M  V30 1769 C 173.117 -1.65244 1.31368 0
M  V30 1770 O 172.465 -2.23448 0.477856 0
M  V30 1771 C 172.675 -0.300166 3.47707 0
M  V30 1772 C 174.023 -0.534061 4.21228 0
M  V30 1773 O 175.047 -0.38081 3.54159 0
M  V30 1774 O 173.906 -0.833501 5.40106 0
M  V30 1775 H 171 -0.161149 0.811147 0
M  V30 1776 H 173.546 0.432798 1.64088 0
M  V30 1777 H 172.318 0.673138 3.85467 0
M  V30 1778 H 171.941 -1.04179 3.83709 0
M  V30 1779 N 172.938 -1.57226 0.108567 0
M  V30 1780 C 173.848 -2.18292 -0.859401 0
M  V30 1781 C 174.864 -1.15612 -1.30038 0
M  V30 1782 O 176.04 -1.48039 -1.36552 0
M  V30 1783 C 173.105 -2.762 -2.09558 0
M  V30 1784 C 172.166 -3.93881 -1.70752 0
M  V30 1785 C 171.399 -4.49018 -2.88477 0
M  V30 1786 O 171.622 -4.03068 -4.036 0
M  V30 1787 O 170.556 -5.39852 -2.66164 0
M  V30 1788 H 174.382 -3.01441 -0.369769 0
M  V30 1789 H 171.967 -1.48945 -0.1165 0
M  V30 1790 H 173.849 -3.13156 -2.81978 0
M  V30 1791 H 172.524 -1.96089 -2.57548 0
M  V30 1792 H 171.431 -3.61713 -0.954714 0
M  V30 1793 H 172.764 -4.75396 -1.27513 0
M  V30 1794 N 174.416 0.165178 -1.56732 0
M  V30 1795 C 175.379 1.18822 -1.95995 0
M  V30 1796 C 176.379 1.3685 -0.84431 0
M  V30 1797 O 177.569 1.34152 -1.11126 0
M  V30 1798 C 174.701 2.5521 -2.26011 0
M  V30 1799 H 175.894 0.851825 -2.87548 0
M  V30 1800 H 173.447 0.407857 -1.50885 0
M  V30 1801 H 174.182 2.93852 -1.37191 0
M  V30 1802 H 173.967 2.43489 -3.07336 0
M  V30 1803 H 175.457 3.28927 -2.57288 0
M  V30 1804 N 175.894 1.51508 0.433938 0
M  V30 1805 C 176.824 1.76016 1.53429 0
M  V30 1806 C 177.805 0.610112 1.58782 0
M  V30 1807 O 178.99 0.853177 1.74455 0
M  V30 1808 C 176.12 1.88831 2.9148 0
M  V30 1809 C 175.074 3.04288 3.00987 0
M  V30 1810 C 174.4 3.0229 4.4105 0
M  V30 1811 C 175.7 4.44193 2.74754 0
M  V30 1812 H 177.394 2.68152 1.33171 0
M  V30 1813 H 174.94 1.29035 0.639214 0
M  V30 1814 H 176.893 2.04559 3.6842 0
M  V30 1815 H 175.617 0.933455 3.12976 0
M  V30 1816 H 174.276 2.8827 2.26486 0
M  V30 1817 H 173.924 2.04576 4.59519 0
M  V30 1818 H 173.624 3.79822 4.4834 0
M  V30 1819 H 175.148 3.20116 5.1996 0
M  V30 1820 H 176.562 4.60544 3.41426 0
M  V30 1821 H 174.959 5.23457 2.9345 0
M  V30 1822 H 176.029 4.53996 1.70339 0
M  V30 1823 N 177.372 -0.689602 1.41712 0
M  V30 1824 C 178.32 -1.82475 1.44242 0
M  V30 1825 C 179.314 -1.66354 0.319774 0
M  V30 1826 O 180.52 -1.73143 0.492089 0
M  V30 1827 H 176.895 -0.601416 0.451445 0
M  V30 1828 H 178.866 -1.77458 2.39899 0
M  V30 1829 C 177.615 -3.20535 1.3473 0
M  V30 1830 H 176.938 -3.33559 2.20405 0
M  V30 1831 H 178.378 -4.00023 1.40562 0
M  V30 1832 C 176.837 -3.36846 0.0603281 0
M  V30 1833 O 177.367 -3.91656 -0.892663 0
M  V30 1834 N 175.573 -2.90595 -0.0177039 0
M  V30 1835 H 175.12 -2.46178 0.758572 0
M  V30 1836 H 175.078 -3.01886 -0.878201 0
M  V30 1837 N 178.85 -1.27639 -0.924453 0
M  V30 1838 C 180.098 -1.13941 -1.66918 0
M  V30 1839 C 180.419 0.314589 -1.92446 0
M  V30 1840 O 179.689 1.21964 -1.53303 0
M  V30 1841 H 178.269 -0.418678 -0.618642 0
M  V30 1842 H 180.931 -1.60213 -1.10985 0
M  V30 1843 H 180.027 -1.67094 -2.63602 0
M  V30 1844 N 180.328 1.1314 -1.09713 0
M  V30 1845 C 181.556 1.88321 -0.856898 0
M  V30 1846 C 181.971 1.79276 0.592073 0
M  V30 1847 O 181.328 1.16142 1.40774 0
M  V30 1848 C 181.379 3.37812 -1.28706 0
M  V30 1849 O 181.1 3.46627 -2.67921 0
M  V30 1850 C 182.601 4.29952 -1.07964 0
M  V30 1851 H 179.821 0.596094 -0.308079 0
M  V30 1852 H 182.365 1.43205 -1.45988 0
M  V30 1853 H 180.52 3.805 -0.727912 0
M  V30 1854 H 180.934 4.39579 -2.8613 0
M  V30 1855 H 182.408 5.33159 -1.42986 0
M  V30 1856 H 182.885 4.39196 -0.0176577 0
M  V30 1857 H 183.491 3.93036 -1.62489 0
M  V30 1858 N 181.806 0.884767 1.30421 0
M  V30 1859 C 183.034 0.518044 2.0031 0
M  V30 1860 C 183.449 -0.893408 1.66324 0
M  V30 1861 O 182.806 -1.5875 0.900262 0
M  V30 1862 C 182.857 0.682997 3.54989 0
M  V30 1863 O 182.578 2.03888 3.87764 0
M  V30 1864 C 184.079 0.31924 4.42149 0
M  V30 1865 H 181.299 0.200265 0.640418 0
M  V30 1866 H 183.843 1.19001 1.6631 0
M  V30 1867 H 181.998 0.0584052 3.87356 0
M  V30 1868 H 182.412 2.05735 4.82466 0
M  V30 1869 H 183.886 0.485555 5.4986 0
M  V30 1870 H 184.363 -0.742717 4.32875 0
M  V30 1871 H 184.969 0.920147 4.15227 0
M  V30 1872 N 183.284 -1.43765 0.645699 0
M  V30 1873 C 184.247 -2.29163 -0.0409488 0
M  V30 1874 C 185.247 -1.41813 -0.757996 0
M  V30 1875 O 186.437 -1.63527 -0.600382 0
M  V30 1876 C 183.569 -3.23716 -1.06869 0
M  V30 1877 H 184.762 -2.91366 0.710345 0
M  V30 1878 H 182.315 -1.5092 0.406547 0
M  V30 1879 H 183.05 -2.66393 -1.84947 0
M  V30 1880 H 182.835 -3.88105 -0.558277 0
M  V30 1881 H 184.325 -3.87831 -1.54845 0
M  V30 1882 N 184.763 -0.387143 -1.52771 0
M  V30 1883 C 185.673 0.456442 -2.30117 0
M  V30 1884 C 186.689 1.07342 -1.36944 0
M  V30 1885 O 187.865 1.07971 -1.70013 0
M  V30 1886 C 184.93 1.56957 -3.09136 0
M  V30 1887 C 183.991 0.977916 -4.18014 0
M  V30 1888 C 183.224 2.038 -4.93256 0
M  V30 1889 O 183.447 3.25271 -4.68567 0
M  V30 1890 O 182.381 1.6565 -5.78657 0
M  V30 1891 H 186.207 -0.17359 -3.03203 0
M  V30 1892 H 183.792 -0.150919 -1.48636 0
M  V30 1893 H 185.674 2.21628 -3.58412 0
M  V30 1894 H 184.349 2.18461 -2.38865 0
M  V30 1895 H 183.256 0.294525 -3.72939 0
M  V30 1896 H 184.589 0.407128 -4.90513 0
M  V30 1897 N 186.241 1.57166 -0.116904 0
M  V30 1898 C 187.189 2.16457 0.851418 0
M  V30 1899 C 188.183 1.11323 1.27686 0
M  V30 1900 O 189.389 1.2963 1.24884 0
M  V30 1901 H 185.764 0.69271 0.292672 0
M  V30 1902 H 187.735 2.96605 0.32685 0
M  V30 1903 C 186.484 2.77689 2.09246 0
M  V30 1904 H 185.807 3.58285 1.77402 0
M  V30 1905 H 187.247 3.22716 2.7501 0
M  V30 1906 C 185.706 1.74667 2.88085 0
M  V30 1907 O 186.236 1.19877 3.83396 0
M  V30 1908 N 184.442 1.44656 2.52038 0
M  V30 1909 H 183.989 1.89402 1.74599 0
M  V30 1910 H 183.947 0.759675 3.05084 0
M  V30 1911 N 187.719 -0.156864 1.56817 0
M  V30 1912 C 188.649 -1.19589 2.00551 0
M  V30 1913 C 189.63 -1.4536 0.883426 0
M  V30 1914 O 190.815 -1.56449 1.15054 0
M  V30 1915 C 187.945 -2.53143 2.37773 0
M  V30 1916 C 186.899 -2.41913 3.53075 0
M  V30 1917 C 186.225 -3.80088 3.76081 0
M  V30 1918 C 187.525 -1.91157 4.86062 0
M  V30 1919 H 189.219 -0.832293 2.87599 0
M  V30 1920 H 186.765 -0.398918 1.38364 0
M  V30 1921 H 188.718 -3.26047 2.66967 0
M  V30 1922 H 187.442 -2.91319 1.4765 0
M  V30 1923 H 186.101 -1.71462 3.24031 0
M  V30 1924 H 185.749 -4.15683 2.83225 0
M  V30 1925 H 185.449 -3.73439 4.53671 0
M  V30 1926 H 186.973 -4.54556 4.0769 0
M  V30 1927 H 188.387 -2.53846 5.14038 0
M  V30 1928 H 186.784 -1.95422 5.67389 0
M  V30 1929 H 187.854 -0.866673 4.77092 0
M  V30 1930 N 189.197 -1.51736 -0.425897 0
M  V30 1931 C 190.144 -1.73875 -1.51776 0
M  V30 1932 C 191.114 -0.580702 -1.55618 0
M  V30 1933 O 192.299 -0.81641 -1.72451 0
M  V30 1934 C 189.439 -1.88012 -2.89388 0
M  V30 1935 C 188.552 -3.15606 -2.94986 0
M  V30 1936 C 187.687 -3.20271 -4.23793 0
M  V30 1937 C 186.726 -4.42134 -4.23302 0
M  V30 1938 N 185.863 -4.44284 -5.43651 0
M  V30 1939 H 190.703 -2.67071 -1.32201 0
M  V30 1940 H 188.24 -1.32351 -0.642008 0
M  V30 1941 H 190.198 -1.9419 -3.69251 0
M  V30 1942 H 188.828 -0.98213 -3.07496 0
M  V30 1943 H 187.88 -3.18681 -2.07717 0
M  V30 1944 H 189.192 -4.05486 -2.90486 0
M  V30 1945 H 188.346 -3.25428 -5.12036 0
M  V30 1946 H 187.085 -2.28299 -4.30965 0
M  V30 1947 H 186.09 -4.3714 -3.3345 0
M  V30 1948 H 187.315 -5.35382 -4.17783 0
M  V30 1949 H 185.261 -3.55188 -5.51523 0
M  V30 1950 H 185.178 -5.27988 -5.41078 0
M  V30 1951 H 186.446 -4.53649 -6.33895 0
M  V30 1952 N 190.675 0.682077 -1.42076 0
M  V30 1953 C 191.585 1.82535 -1.47371 0
M  V30 1954 C 192.601 1.7017 -0.363079 0
M  V30 1955 O 193.777 1.91848 -0.612875 0
M  V30 1956 C 190.842 3.18624 -1.36674 0
M  V30 1957 C 189.903 3.42999 -2.58167 0
M  V30 1958 C 189.136 4.72595 -2.4797 0
M  V30 1959 O 189.359 5.50006 -1.5116 0
M  V30 1960 O 188.293 4.98054 -3.37974 0
M  V30 1961 H 192.119 1.81023 -2.43853 0
M  V30 1962 H 189.704 0.836887 -1.2376 0
M  V30 1963 H 191.586 3.99847 -1.33043 0
M  V30 1964 H 190.261 3.20789 -0.433138 0
M  V30 1965 H 189.168 2.61653 -2.67373 0
M  V30 1966 H 190.501 3.45659 -3.50401 0
M  V30 1967 N 192.153 1.28127 0.917671 0
M  V30 1968 C 193.063 1.13556 2.05286 0
M  V30 1969 C 194.079 0.0630914 1.73886 0
M  V30 1970 O 195.255 0.271598 1.9956 0
M  V30 1971 C 192.32 0.794676 3.3747 0
M  V30 1972 C 191.381 1.94909 3.82504 0
M  V30 1973 C 190.614 1.62437 5.0838 0
M  V30 1974 O 190.837 0.536905 5.67867 0
M  V30 1975 O 189.771 2.46677 5.4903 0
M  V30 1976 H 193.597 2.08844 2.20495 0
M  V30 1977 H 191.182 1.07409 1.03845 0
M  V30 1978 H 193.064 0.618344 4.16839 0
M  V30 1979 H 191.739 -0.128581 3.23445 0
M  V30 1980 H 190.646 2.18055 3.03978 0
M  V30 1981 H 191.979 2.85291 4.01086 0
M  V30 1982 N 193.631 -1.12557 1.10312 0
M  V30 1983 C 194.879 -1.83675 0.843091 0
M  V30 1984 C 195.2 -1.84435 -0.633131 0
M  V30 1985 O 194.47 -1.30657 -1.45964 0
M  V30 1986 H 193.05 -0.680138 0.308904 0
M  V30 1987 H 195.712 -1.36301 1.39313 0
M  V30 1988 H 194.808 -2.87908 1.2048 0
M  V30 1989 N 195.109 -0.891671 -1.2995 0
M  V30 1990 C 196.339 -0.527893 -1.99742 0
M  V30 1991 C 196.747 0.88979 -1.66971 0
M  V30 1992 O 196.09 1.59766 -0.906667 0
M  V30 1993 C 196.152 -0.630804 -3.53922 0
M  V30 1994 C 195.816 -2.01401 -4.10228 0
M  V30 1995 C 196.813 -2.98422 -4.25724 0
M  V30 1996 C 194.498 -2.32121 -4.45449 0
M  V30 1997 C 196.492 -4.24293 -4.75662 0
M  V30 1998 C 194.179 -3.58237 -4.95086 0
M  V30 1999 C 195.177 -4.54137 -5.10146 0
M  V30 2000 O 194.865 -5.78014 -5.58708 0
M  V30 2001 H 194.597 -0.201953 -0.645129 0
M  V30 2002 H 197.151 -1.20076 -1.66646 0
M  V30 2003 H 195.381 0.0990616 -3.86573 0
M  V30 2004 H 197.07 -0.277338 -4.04951 0
M  V30 2005 H 197.836 -2.76001 -3.98809 0
M  V30 2006 H 193.715 -1.5824 -4.32991 0
M  V30 2007 H 197.259 -4.99153 -4.87332 0
M  V30 2008 H 193.156 -3.80491 -5.21437 0
M  V30 2009 H 193.924 -5.8049 -5.77039 0
M  V30 2010 N 196.587 1.43421 -0.653314 0
M  V30 2011 C 197.55 2.29182 0.0287951 0
M  V30 2012 C 198.55 1.42213 0.750465 0
M  V30 2013 O 199.74 1.63843 0.591701 0
M  V30 2014 C 196.872 3.24278 1.05151 0
M  V30 2015 H 198.065 2.90985 -0.725786 0
M  V30 2016 H 195.618 1.50702 -0.414545 0
M  V30 2017 H 196.353 2.6737 1.83532 0
M  V30 2018 H 196.138 3.88396 0.537687 0
M  V30 2019 H 197.628 3.88647 1.52786 0
M  V30 2020 N 198.065 0.39524 1.52563 0
M  V30 2021 C 198.995 -0.428384 2.29537 0
M  V30 2022 C 199.976 -1.05831 1.33169 0
M  V30 2023 O 201.161 -1.06995 1.62067 0
M  V30 2024 C 198.291 -1.55274 3.10656 0
M  V30 2025 C 197.245 -1.04855 4.14957 0
M  V30 2026 C 196.571 -2.26543 4.84337 0
M  V30 2027 C 197.871 -0.112324 5.22179 0
M  V30 2028 H 199.565 0.213867 2.98635 0
M  V30 2029 H 197.111 0.104298 1.43622 0
M  V30 2030 H 199.064 -2.1358 3.63265 0
M  V30 2031 H 197.788 -2.22266 2.39302 0
M  V30 2032 H 196.447 -0.487985 3.63338 0
M  V30 2033 H 196.095 -2.92059 4.09525 0
M  V30 2034 H 195.795 -1.93466 5.54837 0
M  V30 2035 H 197.319 -2.85481 5.39753 0
M  V30 2036 H 198.733 -0.603752 5.70112 0
M  V30 2037 H 197.13 0.128968 5.99961 0
M  V30 2038 H 198.2 0.837052 4.77621 0
M  V30 2039 N 199.544 -1.57102 0.125237 0
M  V30 2040 C 200.79 -1.95697 -0.532035 0
M  V30 2041 C 201.123 -1.009 -1.6593 0
M  V30 2042 O 200.398 -0.047347 -1.94442 0
M  V30 2043 C 200.681 -3.44181 -1.05884 0
M  V30 2044 C 200.534 -4.49752 0.0654392 0
M  V30 2045 C 201.853 -3.94655 -1.9477 0
M  V30 2046 H 198.972 -0.711571 -0.191925 0
M  V30 2047 H 201.614 -1.88923 0.20206 0
M  V30 2048 H 199.764 -3.50085 -1.68442 0
M  V30 2049 H 201.436 -4.55943 0.700982 0
M  V30 2050 H 199.679 -4.27653 0.727709 0
M  V30 2051 H 200.35 -5.50924 -0.344505 0
M  V30 2052 H 202.826 -3.91094 -1.42074 0
M  V30 2053 H 201.702 -4.99057 -2.28546 0
M  V30 2054 H 201.963 -3.35718 -2.87656 0
M  V30 2055 N 201.022 0.148545 -1.56898 0
M  V30 2056 C 202.247 0.880385 -1.87787 0
M  V30 2057 C 202.672 1.74018 -0.714093 0
M  V30 2058 O 202.03 1.78153 0.336343 0
M  V30 2059 C 202.078 1.71422 -3.17249 0
M  V30 2060 O 201.182 2.8183 -3.01074 0
M  V30 2061 H 200.523 0.245301 -0.617028 0
M  V30 2062 H 203.053 0.139826 -2.04122 0
M  V30 2063 H 203.063 2.10954 -3.49231 0
M  V30 2064 H 201.738 1.08284 -4.01556 0
M  V30 2065 H 200.315 2.45715 -2.80497 0
M  V30 2066 N 202.5 1.5196 0.417844 0
M  V30 2067 C 203.448 1.75278 1.52907 0
M  V30 2068 C 204.442 0.619611 1.57662 0
M  V30 2069 O 205.648 0.801457 1.61173 0
M  V30 2070 H 202.023 0.554141 0.508362 0
M  V30 2071 H 203.994 2.68389 1.30422 0
M  V30 2072 C 202.743 1.91262 2.90369 0
M  V30 2073 H 202.066 2.77872 2.8745 0
M  V30 2074 H 203.506 2.11581 3.67436 0
M  V30 2075 C 201.965 0.677431 3.30019 0
M  V30 2076 O 202.495 -0.158799 4.01386 0
M  V30 2077 N 200.701 0.515851 2.85985 0
M  V30 2078 H 200.248 1.19744 2.28077 0
M  V30 2079 H 200.206 -0.309315 3.12875 0
M  V30 2080 N 203.978 -0.674533 1.42435 0
M  V30 2081 C 205.255 -1.4305 1.33402 0
M  V30 2082 C 205.635 -2.11081 -0.0284674 0
M  V30 2083 O 204.983 -2.03257 -1.04397 0
M  V30 2084 C 205.193 -2.43272 2.50239 0
M  V30 2085 C 206.541 -3.07907 2.92367 0
M  V30 2086 O 207.565 -2.53599 2.50132 0
M  V30 2087 O 206.424 -4.0632 3.65467 0
M  V30 2088 H 203.518 -0.638076 0.526106 0
M  V30 2089 H 206.064 -0.703235 1.54443 0
M  V30 2090 H 204.836 -1.91803 3.41068 0
M  V30 2091 H 204.459 -3.23479 2.31186 0
M  V30 2092 N 205.456 -1.28612 -0.910864 0
M  V30 2093 C 206.704 -1.15705 -1.65701 0
M  V30 2094 C 207.025 0.29416 -1.92769 0
M  V30 2095 O 206.295 1.20331 -1.54588 0
M  V30 2096 H 204.875 -0.425216 -0.614167 0
M  V30 2097 H 207.537 -1.61381 -1.0928 0
M  V30 2098 H 206.633 -1.6988 -2.61815 0
M  V30 2099 N 206.934 1.1197 -1.10907 0
M  V30 2100 C 207.881 2.17846 -0.762345 0
M  V30 2101 C 208.851 1.63995 0.263599 0
M  V30 2102 O 210.036 1.90273 0.141773 0
M  V30 2103 C 207.176 3.44487 -0.205651 0
M  V30 2104 C 206.289 4.12369 -1.28748 0
M  V30 2105 C 205.424 5.26674 -0.691919 0
M  V30 2106 C 204.463 5.86431 -1.75399 0
M  V30 2107 N 203.6 6.92142 -1.17833 0
M  V30 2108 H 208.44 2.46851 -1.6694 0
M  V30 2109 H 205.977 1.21188 -0.833776 0
M  V30 2110 H 207.935 4.16981 0.135037 0
M  V30 2111 H 206.565 3.15884 0.664613 0
M  V30 2112 H 205.617 3.38003 -1.74522 0
M  V30 2113 H 206.929 4.52844 -2.09125 0
M  V30 2114 H 206.083 6.05953 -0.300963 0
M  V30 2115 H 204.822 4.8749 0.143232 0
M  V30 2116 H 203.827 5.05835 -2.15432 0
M  V30 2117 H 205.052 6.27685 -2.59208 0
M  V30 2118 H 202.998 6.54985 -0.364725 0
M  V30 2119 H 202.915 7.31242 -1.91887 0
M  V30 2120 H 204.183 7.75237 -0.81408 0
M  V30 2121 N 208.412 0.89855 1.29475 0
M  V30 2122 C 209.661 0.519863 1.94885 0
M  V30 2123 C 209.974 -0.9383 1.71625 0
M  V30 2124 O 211.18 -1.42445 2.31131 0
M  V30 2125 C 209.636 0.878836 3.49005 0
M  V30 2126 C 209.244 2.35569 3.81066 0
M  V30 2127 C 210.988 0.570004 4.20656 0
M  V30 2128 C 208.895 2.65558 5.28425 0
M  V30 2129 H 207.825 0.190692 0.729488 0
M  V30 2130 H 210.476 1.09539 1.47219 0
M  V30 2131 H 208.858 0.232253 3.95318 0
M  V30 2132 H 210.032 3.04773 3.45616 0
M  V30 2133 H 208.347 2.63343 3.22552 0
M  V30 2134 H 210.944 0.770925 5.29113 0
M  V30 2135 H 211.287 -0.491404 4.1339 0
M  V30 2136 H 211.82 1.17438 3.8007 0
M  V30 2137 H 208.559 3.70493 5.40754 0
M  V30 2138 H 208.079 2.00977 5.65127 0
M  V30 2139 H 209.758 2.51765 5.96006 0
M  V30 2140 N 209.89 -1.43072 0.660911 0
M  V30 2141 C 210.853 -2.29194 -0.0166406 0
M  V30 2142 C 211.853 -1.42609 -0.742912 0
M  V30 2143 O 213.043 -1.64155 -0.583004 0
M  V30 2144 C 210.175 -3.24831 -1.0343 0
M  V30 2145 H 211.368 -2.90596 0.741208 0
M  V30 2146 H 208.921 -1.5048 0.422532 0
M  V30 2147 H 209.656 -2.68339 -1.82111 0
M  V30 2148 H 209.441 -3.88676 -0.517082 0
M  V30 2149 H 210.931 -3.89451 -1.50723 0
M  V30 2150 N 211.368 -0.403325 -1.52352 0
M  V30 2151 C 212.617 0.175668 -2.00934 0
M  V30 2152 C 212.93 1.46718 -1.29356 0
M  V30 2153 O 214.136 2.12708 -1.68724 0
M  V30 2154 C 212.592 0.363612 -3.58058 0
M  V30 2155 C 212.2 -0.915472 -4.38547 0
M  V30 2156 C 213.944 0.89821 -4.14888 0
M  V30 2157 C 211.851 -0.695035 -5.87302 0
M  V30 2158 H 210.781 0.0694234 -0.750797 0
M  V30 2159 H 213.432 -0.527879 -1.75743 0
M  V30 2160 H 211.814 1.12935 -3.79555 0
M  V30 2161 H 212.988 -1.68691 -4.28812 0
M  V30 2162 H 211.303 -1.37606 -3.93006 0
M  V30 2163 H 213.9 1.07907 -5.23699 0
M  V30 2164 H 214.243 1.87126 -3.71873 0
M  V30 2165 H 214.776 0.191681 -3.97338 0
M  V30 2166 H 211.515 -1.63948 -6.34666 0
M  V30 2167 H 211.035 0.0372116 -5.99788 0
M  V30 2168 H 212.714 -0.33497 -6.46132 0
M  V30 2169 N 212.846 1.57033 -0.133567 0
M  V30 2170 C 213.756 2.19632 0.824564 0
M  V30 2171 C 214.772 1.17666 1.28182 0
M  V30 2172 O 215.948 1.50193 1.3418 0
M  V30 2173 C 213.013 2.79499 2.05137 0
M  V30 2174 C 212.074 3.96548 1.64464 0
M  V30 2175 C 211.307 4.5355 2.81297 0
M  V30 2176 O 211.53 4.09438 3.97136 0
M  V30 2177 O 210.464 5.44018 2.57542 0
M  V30 2178 H 214.29 3.01991 0.321766 0
M  V30 2179 H 211.875 1.49112 0.0927889 0
M  V30 2180 H 213.757 3.17602 2.7696 0
M  V30 2181 H 212.432 2.00162 2.54395 0
M  V30 2182 H 211.339 3.63186 0.897048 0
M  V30 2183 H 212.672 4.77364 1.19934 0
M  V30 2184 N 214.325 -0.140222 1.56975 0
M  V30 2185 C 215.573 -0.850005 1.83356 0
M  V30 2186 C 215.894 -1.81399 0.71551 0
M  V30 2187 O 215.164 -1.94136 -0.262294 0
M  V30 2188 H 213.744 -0.316886 0.676456 0
M  V30 2189 H 216.406 -0.132608 1.94448 0
M  V30 2190 H 215.502 -1.40814 2.78528 0
M  V30 2191 N 215.803 -1.52179 -0.40978 0
M  V30 2192 C 216.75 -1.75475 -1.49924 0
M  V30 2193 C 217.72 -0.597175 -1.54994 0
M  V30 2194 O 218.905 -0.834655 -1.71575 0
M  V30 2195 C 216.045 -1.9107 -2.87378 0
M  V30 2196 C 215.158 -3.18717 -2.91622 0
M  V30 2197 C 214.293 -3.24747 -4.20372 0
M  V30 2198 C 213.332 -4.46598 -4.18588 0
M  V30 2199 N 212.469 -4.50025 -5.38908 0
M  V30 2200 H 217.309 -2.68458 -1.29361 0
M  V30 2201 H 214.846 -1.33024 -0.627934 0
M  V30 2202 H 216.804 -1.98096 -3.6717 0
M  V30 2203 H 215.434 -1.01469 -3.06437 0
M  V30 2204 H 214.486 -3.20866 -2.04326 0
M  V30 2205 H 215.798 -4.08544 -2.86169 0
M  V30 2206 H 214.952 -3.30841 -5.08556 0
M  V30 2207 H 213.691 -2.32857 -4.28519 0
M  V30 2208 H 212.696 -4.40652 -3.28794 0
M  V30 2209 H 213.921 -5.39783 -4.12081 0
M  V30 2210 H 211.867 -3.61017 -5.47725 0
M  V30 2211 H 211.784 -5.33697 -5.35447 0
M  V30 2212 H 213.052 -4.60347 -6.29048 0
M  V30 2213 N 217.281 0.66697 -1.42791 0
M  V30 2214 C 218.558 1.4234 -1.34159 0
M  V30 2215 C 218.938 2.11093 0.0172729 0
M  V30 2216 O 218.286 2.03808 1.03318 0
M  V30 2217 C 218.496 2.41942 -2.51526 0
M  V30 2218 C 219.844 3.06353 -2.93995 0
M  V30 2219 O 220.868 2.52269 -2.51473 0
M  V30 2220 O 219.727 4.04376 -3.67617 0
M  V30 2221 H 216.821 0.635277 -0.529483 0
M  V30 2222 H 219.367 0.695034 -1.54814 0
M  V30 2223 H 218.139 1.89991 -3.42081 0
M  V30 2224 H 217.762 3.22249 -2.32898 0
M  V30 2225 N 218.759 1.29093 0.90403 0
M  V30 2226 C 220.007 1.16583 1.65085 0
M  V30 2227 C 220.328 -0.283933 1.92922 0
M  V30 2228 O 219.598 -1.19509 1.55224 0
M  V30 2229 H 218.178 0.428467 0.611903 0
M  V30 2230 H 220.84 1.61959 1.08422 0
M  V30 2231 H 219.936 1.71266 2.6091 0
M  V30 2232 N 220.237 -1.11381 1.11499 0
M  V30 2233 C 221.514 -1.7955 0.775965 0
M  V30 2234 C 221.894 -1.97859 -0.73588 0
M  V30 2235 O 221.242 -1.56376 -1.66609 0
M  V30 2236 C 221.452 -3.13196 1.53977 0
M  V30 2237 C 222.8 -3.88227 1.71944 0
M  V30 2238 O 223.824 -3.22887 1.50407 0
M  V30 2239 O 222.683 -5.05477 2.07738 0
M  V30 2240 H 219.777 -0.777728 0.28119 0
M  V30 2241 H 222.323 -1.18118 1.21845 0
M  V30 2242 H 221.095 -2.95229 2.56818 0
M  V30 2243 H 220.718 -3.82342 1.09088 0
M  V30 2244 N 221.715 -0.905404 -1.28997 0
M  V30 2245 C 222.963 -0.533192 -1.9494 0
M  V30 2246 C 223.284 0.924618 -1.71685 0
M  V30 2247 O 222.554 1.65268 -1.05183 0
M  V30 2248 H 221.134 -0.194194 -0.721317 0
M  V30 2249 H 223.796 -1.15294 -1.57141 0
M  V30 2250 H 222.892 -0.72059 -3.03667 0
M  V30 2251 N 223.193 1.4272 -0.668489 0
M  V30 2252 C 224.421 2.05966 -0.196348 0
M  V30 2253 C 224.836 1.50191 1.14403 0
M  V30 2254 O 224.193 0.639208 1.7094 0
M  V30 2255 C 224.244 3.61314 -0.115815 0
M  V30 2256 O 223.965 4.1502 -1.40322 0
M  V30 2257 C 225.466 4.41663 0.380579 0
M  V30 2258 H 222.686 0.663954 -0.0969829 0
M  V30 2259 H 225.23 1.82966 -0.913446 0
M  V30 2260 H 223.385 3.83448 0.551931 0
M  V30 2261 H 223.799 5.08832 -1.27243 0
M  V30 2262 H 225.273 5.5065 0.385848 0
M  V30 2263 H 225.75 4.15792 1.41471 0
M  V30 2264 H 226.356 4.24534 -0.255209 0
M  V30 2265 N 224.671 0.411399 1.52136 0
M  V30 2266 C 225.918 -0.163645 2.01838 0
M  V30 2267 C 226.246 -1.4495 1.29691 0
M  V30 2268 O 225.501 -1.91725 0.392431 0
M  V30 2269 C 225.8 -0.455872 3.54481 0
M  V30 2270 C 225.466 0.741055 4.44769 0
M  V30 2271 C 224.128 1.06936 4.69167 0
M  V30 2272 C 226.48 1.54075 4.97906 0
M  V30 2273 C 223.808 2.19851 5.43951 0
M  V30 2274 C 226.16 2.66067 5.73926 0
M  V30 2275 C 224.824 2.99381 5.96596 0
M  V30 2276 H 224.094 -0.0598821 0.738576 0
M  V30 2277 H 226.741 0.553283 1.83333 0
M  V30 2278 H 225.046 -1.2544 3.71177 0
M  V30 2279 H 226.743 -0.913802 3.90449 0
M  V30 2280 H 223.333 0.475192 4.25958 0
M  V30 2281 H 227.517 1.30033 4.78963 0
M  V30 2282 H 222.773 2.46006 5.59724 0
M  V30 2283 H 226.947 3.28419 6.14096 0
M  V30 2284 H 224.574 3.86992 6.54325 0
M  V30 2285 N 226.149 -1.5696 0.141893 0
M  V30 2286 C 227.379 -2.00031 -0.516828 0
M  V30 2287 C 227.787 -1.02091 -1.59293 0
M  V30 2288 O 227.13 -0.00909657 -1.83698 0
M  V30 2289 C 227.192 -3.39534 -1.1814 0
M  V30 2290 C 226.856 -4.56313 -0.250513 0
M  V30 2291 C 227.853 -5.17295 0.519839 0
M  V30 2292 C 225.538 -5.02061 -0.154907 0
M  V30 2293 C 227.532 -6.2243 1.3733 0
M  V30 2294 C 225.219 -6.07053 0.702161 0
M  V30 2295 C 226.217 -6.67106 1.46487 0
M  V30 2296 O 225.905 -7.70066 2.30767 0
M  V30 2297 H 225.637 -0.661451 -0.139493 0
M  V30 2298 H 228.191 -2.04086 0.231926 0
M  V30 2299 H 226.421 -3.32302 -1.97769 0
M  V30 2300 H 228.11 -3.66745 -1.73933 0
M  V30 2301 H 228.876 -4.82852 0.45598 0
M  V30 2302 H 224.755 -4.5505 -0.7383 0
M  V30 2303 H 228.299 -6.69233 1.96909 0
M  V30 2304 H 224.196 -6.40923 0.76733 0
M  V30 2305 H 224.964 -7.87264 2.23959 0
M  V30 2306 N 227.627 0.131896 -1.57047 0
M  V30 2307 C 228.875 0.840269 -1.83804 0
M  V30 2308 C 229.196 1.81017 -0.72512 0
M  V30 2309 O 228.466 1.94272 0.251995 0
M  V30 2310 H 227.046 0.313294 -0.678127 0
M  V30 2311 H 229.708 0.122294 -1.94516 0
M  V30 2312 H 228.804 1.39335 -2.79271 0
M  V30 2313 N 229.106 1.52395 0.401703 0
M  V30 2314 C 230.352 1.67065 1.14966 0
M  V30 2315 C 230.685 0.403052 1.89971 0
M  V30 2316 O 229.96 -0.598774 1.85054 0
M  V30 2317 C 230.243 2.8975 2.13815 0
M  V30 2318 C 230.096 4.26578 1.42658 0
M  V30 2319 C 231.415 3.07965 3.14397 0
M  V30 2320 H 228.534 0.607968 0.416587 0
M  V30 2321 H 231.176 1.84965 0.434511 0
M  V30 2322 H 229.326 2.74619 2.74803 0
M  V30 2323 H 230.998 4.53451 0.847329 0
M  V30 2324 H 229.241 4.27639 0.72849 0
M  V30 2325 H 229.912 5.08483 2.14823 0
M  V30 2326 H 232.388 3.22043 2.63491 0
M  V30 2327 H 231.264 3.95308 3.80819 0
M  V30 2328 H 231.525 2.21611 3.82545 0
M  V30 2329 N 230.584 -0.659388 1.43143 0
M  V30 2330 C 231.516 -1.7849 1.43784 0
M  V30 2331 C 232.529 -1.5932 0.334787 0
M  V30 2332 O 233.718 -1.68155 0.598842 0
M  V30 2333 C 230.818 -3.15828 1.22906 0
M  V30 2334 C 229.991 -3.61711 2.45934 0
M  V30 2335 C 229.05 -4.77831 2.20371 0
M  V30 2336 O 228.076 -4.87586 2.93681 0
M  V30 2337 N 229.278 -5.67611 1.21647 0
M  V30 2338 H 232.043 -1.7842 2.40803 0
M  V30 2339 H 229.604 -0.84302 1.3822 0
M  V30 2340 H 231.596 -3.91189 1.03697 0
M  V30 2341 H 230.166 -3.10707 0.343542 0
M  V30 2342 H 229.386 -2.76861 2.80609 0
M  V30 2343 H 230.674 -3.89112 3.27825 0
M  V30 2344 H 230.072 -5.62397 0.610449 0
M  V30 2345 H 228.629 -6.42719 1.08423 0
M  V30 2346 N 232.062 -1.29571 -0.897171 0
M  V30 2347 C 233.29 -1.20583 -1.68129 0
M  V30 2348 C 233.705 0.233181 -1.87354 0
M  V30 2349 O 233.062 1.15579 -1.41236 0
M  V30 2350 C 233.113 -1.91772 -3.06441 0
M  V30 2351 O 232.834 -3.30053 -2.88091 0
M  V30 2352 C 234.335 -1.89291 -4.00854 0
M  V30 2353 H 231.555 -0.417826 -0.525036 0
M  V30 2354 H 234.099 -1.70987 -1.12177 0
M  V30 2355 H 232.254 -1.45196 -3.59161 0
M  V30 2356 H 232.668 -3.65942 -3.75748 0
M  V30 2357 H 234.142 -2.43662 -4.95311 0
M  V30 2358 H 234.619 -0.869014 -4.30517 0
M  V30 2359 H 235.225 -2.35622 -3.54066 0
M  V30 2360 N 233.54 1.10788 -1.12088 0
M  V30 2361 C 234.787 1.82671 -0.873931 0
M  V30 2362 C 235.115 1.85004 0.600311 0
M  V30 2363 O 234.37 1.30365 1.45957 0
M  V30 2364 C 234.669 3.29294 -1.38926 0
M  V30 2365 C 234.335 3.47113 -2.87791 0
M  V30 2366 C 232.997 3.51684 -3.28439 0
M  V30 2367 C 235.349 3.52808 -3.83635 0
M  V30 2368 C 232.677 3.59513 -4.63646 0
M  V30 2369 C 235.029 3.62169 -5.18668 0
M  V30 2370 C 233.693 3.65003 -5.58864 0
M  V30 2371 H 232.963 0.668441 -0.319794 0
M  V30 2372 H 235.61 1.30613 -1.40045 0
M  V30 2373 H 233.915 3.83894 -0.783122 0
M  V30 2374 H 235.612 3.83416 -1.17443 0
M  V30 2375 H 232.202 3.4423 -2.5535 0
M  V30 2376 H 236.386 3.4853 -3.53328 0
M  V30 2377 H 231.642 3.59987 -4.94185 0
M  V30 2378 H 235.816 3.6552 -5.92763 0
M  V30 2379 H 233.443 3.70822 -6.63623 0
M  V30 2380 N 235.018 0.912232 1.28515 0
M  V30 2381 C 235.965 0.397954 2.27343 0
M  V30 2382 C 236.935 -0.526766 1.57526 0
M  V30 2383 O 238.12 -0.449292 1.85435 0
M  V30 2384 C 235.26 -0.357263 3.43246 0
M  V30 2385 C 234.373 0.599788 4.27816 0
M  V30 2386 C 233.508 -0.173725 5.30916 0
M  V30 2387 C 232.547 0.777039 6.07148 0
M  V30 2388 N 231.684 0.0371398 7.0209 0
M  V30 2389 H 236.524 1.24577 2.70711 0
M  V30 2390 H 234.061 0.625612 1.33133 0
M  V30 2391 H 236.019 -0.8113 4.09236 0
M  V30 2392 H 234.649 -1.16943 3.00872 0
M  V30 2393 H 233.701 1.17235 3.61884 0
M  V30 2394 H 235.013 1.32704 4.80823 0
M  V30 2395 H 234.167 -0.688394 6.02782 0
M  V30 2396 H 232.906 -0.934041 4.78672 0
M  V30 2397 H 231.911 1.3031 5.34134 0
M  V30 2398 H 233.136 1.53689 6.61481 0
M  V30 2399 H 231.082 -0.705213 6.52198 0
M  V30 2400 H 230.999 0.704249 7.52713 0
M  V30 2401 H 232.267 -0.457383 7.78157 0
M  V30 2402 N 236.496 -1.42363 0.676048 0
M  V30 2403 C 237.428 -2.29164 -0.0404605 0
M  V30 2404 C 238.441 -1.43747 -0.764245 0
M  V30 2405 O 239.63 -1.67453 -0.618195 0
M  V30 2406 C 236.73 -3.21196 -1.08103 0
M  V30 2407 C 235.903 -4.35273 -0.430812 0
M  V30 2408 C 234.962 -5.08017 -1.37133 0
M  V30 2409 O 233.988 -5.62494 -0.87116 0
M  V30 2410 N 235.19 -5.13647 -2.70456 0
M  V30 2411 H 237.955 -2.91298 0.704667 0
M  V30 2412 H 235.516 -1.53303 0.520559 0
M  V30 2413 H 237.508 -3.66728 -1.71152 0
M  V30 2414 H 236.078 -2.60505 -1.72788 0
M  V30 2415 H 235.298 -3.92372 0.379209 0
M  V30 2416 H 236.586 -5.08795 0.0221132 0
M  V30 2417 H 235.984 -4.708 -3.1363 0
M  V30 2418 H 234.541 -5.62821 -3.28749 0
M  V30 2419 N 237.974 -0.419461 -1.51915 0
M  V30 2420 C 238.904 0.391813 -2.30189 0
M  V30 2421 C 239.885 1.03699 -1.34836 0
M  V30 2422 O 241.07 1.04403 -1.63748 0
M  V30 2423 C 238.2 1.50312 -3.13087 0
M  V30 2424 C 237.154 0.9824 -4.16573 0
M  V30 2425 C 236.48 2.18809 -4.8788 0
M  V30 2426 C 237.78 0.0292356 -5.22292 0
M  V30 2427 H 239.474 -0.26135 -2.98257 0
M  V30 2428 H 237.02 -0.127134 -1.43438 0
M  V30 2429 H 238.973 2.07773 -3.66617 0
M  V30 2430 H 237.697 2.18431 -2.42807 0
M  V30 2431 H 236.356 0.430119 -3.64068 0
M  V30 2432 H 236.004 2.85507 -4.14119 0
M  V30 2433 H 235.704 1.84615 -5.57845 0
M  V30 2434 H 237.228 2.76858 -5.44226 0
M  V30 2435 H 238.642 0.512976 -5.71 0
M  V30 2436 H 237.039 -0.2244 -5.9968 0
M  V30 2437 H 238.109 -0.912931 -4.76228 0
M  V30 2438 N 239.452 1.56882 -0.150215 0
M  V30 2439 C 240.698 1.96518 0.500834 0
M  V30 2440 C 241.031 1.03527 1.64304 0
M  V30 2441 O 240.306 0.0782751 1.94342 0
M  V30 2442 C 240.589 3.45822 1.00395 0
M  V30 2443 C 240.442 4.49591 -0.136983 0
M  V30 2444 C 241.761 3.97704 1.88467 0
M  V30 2445 H 238.88 0.714535 0.18058 0
M  V30 2446 H 241.522 1.88577 -0.232091 0
M  V30 2447 H 239.672 3.5272 1.62851 0
M  V30 2448 H 241.344 4.5477 -0.77343 0
M  V30 2449 H 239.587 4.26441 -0.795652 0
M  V30 2450 H 240.258 5.51402 0.256815 0
M  V30 2451 H 242.734 3.93304 1.35834 0
M  V30 2452 H 241.61 5.0263 2.20578 0
M  V30 2453 H 241.871 3.40252 2.82279 0
M  V30 2454 N 240.93 -0.123565 1.57115 0
M  V30 2455 C 241.877 -1.15177 2.00007 0
M  V30 2456 C 242.847 -1.41403 0.871454 0
M  V30 2457 O 244.032 -1.53346 1.13533 0
M  V30 2458 C 241.172 -2.47436 2.40561 0
M  V30 2459 C 240.285 -2.28184 3.66819 0
M  V30 2460 C 239.42 -3.53641 3.96373 0
M  V30 2461 C 238.459 -3.29528 5.15827 0
M  V30 2462 N 237.596 -4.47175 5.41275 0
M  V30 2463 H 242.436 -0.779008 2.87638 0
M  V30 2464 H 239.973 -0.373166 1.42288 0
M  V30 2465 H 241.931 -3.24584 2.62109 0
M  V30 2466 H 240.561 -2.82614 1.55978 0
M  V30 2467 H 239.613 -1.41976 3.52912 0
M  V30 2468 H 240.925 -2.0634 4.5412 0
M  V30 2469 H 240.079 -4.39209 4.18545 0
M  V30 2470 H 238.818 -3.78512 3.07538 0
M  V30 2471 H 237.823 -2.42349 4.93505 0
M  V30 2472 H 239.048 -3.06031 6.06236 0
M  V30 2473 H 236.994 -4.72175 4.55397 0
M  V30 2474 H 236.911 -4.28419 6.22891 0
M  V30 2475 H 238.179 -5.3389 5.67963 0
M  V30 2476 N 242.408 -1.52605 -0.393616 0
M  V30 2477 C 243.318 -1.79971 -1.50492 0
M  V30 2478 C 244.334 -0.686181 -1.59899 0
M  V30 2479 O 245.51 -0.973274 -1.76322 0
M  V30 2480 C 242.575 -1.95867 -2.86072 0
M  V30 2481 C 241.636 -3.19781 -2.86424 0
M  V30 2482 C 240.869 -3.34909 -4.15538 0
M  V30 2483 O 241.092 -2.54948 -5.10253 0
M  V30 2484 O 240.026 -4.28141 -4.23059 0
M  V30 2485 H 243.852 -2.74328 -1.30299 0
M  V30 2486 H 241.437 -1.3764 -0.581005 0
M  V30 2487 H 243.319 -2.08056 -3.66457 0
M  V30 2488 H 241.994 -1.04699 -3.063 0
M  V30 2489 H 240.901 -3.13038 -2.04837 0
M  V30 2490 H 242.234 -4.1078 -2.71147 0
M  V30 2491 N 243.887 0.651787 -1.4349 0
M  V30 2492 C 245.112 1.44434 -1.48841 0
M  V30 2493 C 245.537 1.8779 -0.107955 0
M  V30 2494 O 244.895 1.57464 0.898602 0
M  V30 2495 C 244.943 2.65458 -2.44059 0
M  V30 2496 O 244.047 3.64566 -1.92784 0
M  V30 2497 H 243.388 0.433005 -0.503391 0
M  V30 2498 H 245.918 0.797451 -1.88419 0
M  V30 2499 H 245.928 3.13255 -2.6141 0
M  V30 2500 H 244.603 2.33244 -3.4434 0
M  V30 2501 H 243.18 3.23716 -1.851 0
M  V30 2502 N 245.365 1.30045 0.890287 0
M  V30 2503 C 246.313 1.15873 2.01683 0
M  V30 2504 C 247.307 0.0719403 1.69247 0
M  V30 2505 O 248.513 0.232414 1.78493 0
M  V30 2506 H 244.888 0.358203 0.661207 0
M  V30 2507 H 246.859 2.11229 2.10772 0
M  V30 2508 C 245.608 0.861842 3.36849 0
M  V30 2509 H 244.931 1.69016 3.62317 0
M  V30 2510 H 246.371 0.802762 4.16331 0
M  V30 2511 C 244.83 -0.435132 3.34078 0
M  V30 2512 O 245.36 -1.4583 3.74295 0
M  V30 2513 N 243.566 -0.444377 2.87182 0
M  V30 2514 H 243.113 0.388723 2.5465 0
M  V30 2515 H 243.071 -1.31213 2.85711 0
M  V30 2516 N 246.843 -1.10192 1.12674 0
M  V30 2517 C 248.092 -1.81573 0.8783 0
M  V30 2518 C 248.405 -1.86249 -0.597557 0
M  V30 2519 O 249.611 -2.5386 -0.962681 0
M  V30 2520 C 248.067 -3.26149 1.52167 0
M  V30 2521 C 247.675 -3.29763 3.03249 0
M  V30 2522 C 249.419 -4.0234 1.3536 0
M  V30 2523 C 247.326 -4.68815 3.60508 0
M  V30 2524 H 246.256 -0.680394 0.324931 0
M  V30 2525 H 248.907 -1.23902 1.35353 0
M  V30 2526 H 247.289 -3.83832 0.974104 0
M  V30 2527 H 248.463 -2.8189 3.6452 0
M  V30 2528 H 246.778 -2.67059 3.19481 0
M  V30 2529 H 249.375 -5.05058 1.75559 0
M  V30 2530 H 249.718 -4.15235 0.297554 0
M  V30 2531 H 250.251 -3.51079 1.87052 0
M  V30 2532 H 246.99 -4.61121 4.65884 0
M  V30 2533 H 246.51 -5.17045 3.04014 0
M  V30 2534 H 248.189 -5.37785 3.59717 0
M  V30 2535 N 248.321 -0.919034 -1.28029 0
M  V30 2536 C 249.732 -0.600735 -1.76771 0
M  V30 2537 C 250.083 0.884024 -1.75156 0
M  V30 2538 O 249.208 1.69163 -1.34956 0
M  V30 2539 C 249.803 -1.08372 -3.21 0
M  V30 2540 C 248.362 -0.816248 -3.67443 0
M  V30 2541 C 247.509 -1.24742 -2.47658 0
M  V30 2542 H 250.46 -1.09974 -1.14418 0
M  V30 2543 H 250.481 -0.427512 -3.78091 0
M  V30 2544 H 249.993 -2.16437 -3.22144 0
M  V30 2545 H 248.094 0.250968 -3.71754 0
M  V30 2546 H 248.207 -1.4277 -4.57333 0
M  V30 2547 H 246.571 -0.666083 -2.45836 0
M  V30 2548 H 247.354 -2.33653 -2.51518 0
M  V30 2549 N 249.799 1.42003 -0.683588 0
M  V30 2550 C 250.709 2.34597 -0.0109075 0
M  V30 2551 C 251.725 1.55576 0.779245 0
M  V30 2552 O 252.901 1.88107 0.719555 0
M  V30 2553 C 249.966 3.34199 0.922588 0
M  V30 2554 C 249.027 4.29115 0.125984 0
M  V30 2555 C 248.26 5.23959 1.01502 0
M  V30 2556 O 248.483 5.23952 2.25456 0
M  V30 2557 O 247.417 6.00053 0.47111 0
M  V30 2558 H 251.243 2.93675 -0.773853 0
M  V30 2559 H 248.828 1.42654 -0.443861 0
M  V30 2560 H 250.71 3.95365 1.45823 0
M  V30 2561 H 249.385 2.77582 1.66523 0
M  V30 2562 H 248.292 3.71335 -0.453969 0
M  V30 2563 H 249.625 4.88798 -0.577736 0
M  V30 2564 N 251.277 0.427512 1.51691 0
M  V30 2565 C 252.523 -0.142439 2.02299 0
M  V30 2566 C 252.856 -1.43214 1.31162 0
M  V30 2567 O 252.131 -1.89833 0.423511 0
M  V30 2568 C 252.414 -0.371301 3.58181 0
M  V30 2569 C 252.267 0.936358 4.39946 0
M  V30 2570 C 253.586 -1.14542 4.24933 0
M  V30 2571 H 250.705 -0.0502937 0.735282 0
M  V30 2572 H 253.347 0.564584 1.81418 0
M  V30 2573 H 251.497 -0.973559 3.76104 0
M  V30 2574 H 253.169 1.57184 4.33694 0
M  V30 2575 H 251.412 1.5432 4.05423 0
M  V30 2576 H 252.083 0.730388 5.47147 0
M  V30 2577 H 254.559 -0.635362 4.11221 0
M  V30 2578 H 253.435 -1.27431 5.33903 0
M  V30 2579 H 253.696 -2.17093 3.85127 0
M  V30 2580 N 252.755 -1.56801 0.158532 0
M  V30 2581 C 253.703 -2.18638 -0.793729 0
M  V30 2582 C 254.697 -1.14669 -1.24689 0
M  V30 2583 O 255.903 -1.32895 -1.21403 0
M  V30 2584 H 252.278 -0.700226 -0.274204 0
M  V30 2585 H 254.249 -2.97367 -0.248095 0
M  V30 2586 C 252.998 -2.83139 -2.0181 0
M  V30 2587 H 252.321 -3.62863 -1.67841 0
M  V30 2588 H 253.761 -3.29894 -2.66357 0
M  V30 2589 C 252.22 -1.82244 -2.83353 0
M  V30 2590 O 252.75 -1.3 -3.80083 0
M  V30 2591 N 250.956 -1.51288 -2.48114 0
M  V30 2592 H 250.503 -1.93964 -1.69516 0
M  V30 2593 H 250.461 -0.840296 -3.02963 0
M  V30 2594 N 254.233 0.115231 -1.57178 0
M  V30 2595 C 255.482 0.820945 -1.84237 0
M  V30 2596 C 255.795 1.80866 -0.744761 0
M  V30 2597 O 257.001 2.56083 -0.901871 0
M  V30 2598 C 255.457 1.51072 -3.26658 0
M  V30 2599 C 255.065 0.563795 -4.44438 0
M  V30 2600 C 256.809 2.20134 -3.62962 0
M  V30 2601 C 254.716 1.25701 -5.77887 0
M  V30 2602 H 253.646 0.310328 -0.687177 0
M  V30 2603 H 256.297 0.0737134 -1.83352 0
M  V30 2604 H 254.679 2.30471 -3.22024 0
M  V30 2605 H 255.853 -0.197247 -4.60378 0
M  V30 2606 H 254.168 -0.0200638 -4.16395 0
M  V30 2607 H 256.765 2.72696 -4.59936 0
M  V30 2608 H 257.108 2.98107 -2.90582 0
M  V30 2609 H 257.641 1.47619 -3.69396 0
M  V30 2610 H 254.38 0.518493 -6.53446 0
M  V30 2611 H 253.9 1.98997 -5.65827 0
M  V30 2612 H 255.579 1.78915 -6.2177 0
M  V30 2613 N 255.711 1.52812 0.385517 0
M  V30 2614 C 256.939 1.71907 1.15133 0
M  V30 2615 C 257.354 0.439004 1.83625 0
M  V30 2616 O 256.711 -0.586765 1.7281 0
M  V30 2617 C 256.762 2.87099 2.19673 0
M  V30 2618 O 256.483 4.10151 1.53973 0
M  V30 2619 C 257.984 3.17902 3.08955 0
M  V30 2620 H 255.204 0.575479 0.345057 0
M  V30 2621 H 257.748 1.99476 0.45052 0
M  V30 2622 H 255.903 2.61982 2.85384 0
M  V30 2623 H 256.317 4.74514 2.23465 0
M  V30 2624 H 257.791 4.01959 3.7833 0
M  V30 2625 H 258.268 2.3243 3.72657 0
M  V30 2626 H 258.874 3.44871 2.48885 0
M  V30 2627 N 257.189 -0.644168 1.43834 0
M  V30 2628 C 258.466 -1.40188 1.36406 0
M  V30 2629 C 258.846 -2.11094 0.0163124 0
M  V30 2630 O 258.194 -2.05426 -1.00062 0
M  V30 2631 C 258.404 -2.3791 2.55343 0
M  V30 2632 C 259.752 -3.01637 2.98832 0
M  V30 2633 O 260.776 -2.48237 2.55455 0
M  V30 2634 O 259.635 -3.98477 3.74003 0
M  V30 2635 H 256.729 -0.626773 0.539523 0
M  V30 2636 H 259.275 -0.670317 1.559 0
M  V30 2637 H 258.047 -1.84525 3.4506 0
M  V30 2638 H 257.67 -3.18503 2.37995 0
M  V30 2639 N 258.668 -1.30515 -0.883378 0
M  V30 2640 C 259.898 -1.22182 -1.66599 0
M  V30 2641 C 260.306 0.217507 -1.87946 0
M  V30 2642 O 259.649 1.1554 -1.42815 0
M  V30 2643 C 259.711 -1.88146 -3.06335 0
M  V30 2644 C 259.375 -3.37476 -3.08154 0
M  V30 2645 C 260.372 -4.33443 -2.87094 0
M  V30 2646 C 258.057 -3.7895 -3.29701 0
M  V30 2647 C 260.051 -5.68858 -2.8754 0
M  V30 2648 C 257.738 -5.14482 -3.29776 0
M  V30 2649 C 258.736 -6.09246 -3.0872 0
M  V30 2650 O 258.424 -7.42302 -3.08615 0
M  V30 2651 H 258.156 -0.423898 -0.52658 0
M  V30 2652 H 260.71 -1.72703 -1.11188 0
M  V30 2653 H 258.94 -1.32157 -3.63416 0
M  V30 2654 H 260.629 -1.7391 -3.66756 0
M  V30 2655 H 261.395 -4.02733 -2.70243 0
M  V30 2656 H 257.274 -3.05631 -3.45124 0
M  V30 2657 H 260.818 -6.428 -2.71024 0
M  V30 2658 H 256.715 -5.44832 -3.46163 0
M  V30 2659 H 257.483 -7.5131 -3.24769 0
M  V30 2660 N 260.146 1.09593 -1.13257 0
M  V30 2661 C 261.557 1.63229 -0.906274 0
M  V30 2662 C 261.908 1.8811 0.557578 0
M  V30 2663 O 261.033 1.62953 1.42391 0
M  V30 2664 C 261.628 2.96535 -1.63867 0
M  V30 2665 C 260.187 3.47003 -1.45828 0
M  V30 2666 C 259.334 2.2145 -1.66898 0
M  V30 2667 H 262.285 0.92978 -1.28611 0
M  V30 2668 H 262.306 3.64411 -1.09476 0
M  V30 2669 H 261.818 2.78394 -2.70404 0
M  V30 2670 H 259.919 3.70272 -0.415848 0
M  V30 2671 H 260.032 4.24551 -2.2202 0
M  V30 2672 H 258.396 2.30022 -1.09371 0
M  V30 2673 H 259.179 2.0583 -2.74752 0
M  V30 2674 N 261.624 0.925811 1.2754 0
M  V30 2675 C 262.852 0.581509 1.9856 0
M  V30 2676 C 263.267 -0.840041 1.69082 0
M  V30 2677 O 262.624 -1.55805 0.950312 0
M  V30 2678 C 262.675 0.795589 3.52637 0
M  V30 2679 O 262.396 2.16121 3.81082 0
M  V30 2680 C 263.897 0.459744 4.4091 0
M  V30 2681 H 261.117 0.220538 0.633722 0
M  V30 2682 H 263.661 1.24232 1.6244 0
M  V30 2683 H 261.816 0.18161 3.86974 0
M  V30 2684 H 262.23 2.2098 4.75676 0
M  V30 2685 H 263.704 0.660244 5.48037 0
M  V30 2686 H 264.181 -0.604625 4.35018 0
M  V30 2687 H 264.787 1.05178 4.12089 0
M  V30 2688 N 263.102 -1.41638 0.69111 0
M  V30 2689 C 264.348 -2.01598 0.220519 0
M  V30 2690 C 264.681 -1.54594 -1.17535 0
M  V30 2691 O 263.956 -0.755177 -1.79241 0
M  V30 2692 C 264.239 -3.59062 0.273243 0
M  V30 2693 C 264.092 -4.16203 1.70573 0
M  V30 2694 C 265.411 -4.38546 -0.369457 0
M  V30 2695 H 262.53 -0.732468 0.0816045 0
M  V30 2696 H 265.172 -1.68445 0.878986 0
M  V30 2697 H 263.322 -3.87435 -0.287411 0
M  V30 2698 H 264.994 -3.98722 2.31989 0
M  V30 2699 H 263.237 -3.71414 2.2413 0
M  V30 2700 H 263.908 -5.25358 1.69419 0
M  V30 2701 H 266.384 -4.1596 0.107977 0
M  V30 2702 H 265.26 -5.48069 -0.302002 0
M  V30 2703 H 265.521 -4.17662 -1.44951 0
M  V30 2704 N 264.58 -0.43555 -1.51462 0
M  V30 2705 C 265.805 0.132627 -2.06976 0
M  V30 2706 C 266.23 1.35848 -1.30104 0
M  V30 2707 O 265.588 1.78112 -0.338493 0
M  V30 2708 C 265.636 0.43523 -3.57964 0
M  V30 2709 O 264.74 1.52198 -3.83288 0
M  V30 2710 H 264.081 0.00265 -0.663995 0
M  V30 2711 H 266.611 -0.616369 -1.95095 0
M  V30 2712 H 266.621 0.686206 -4.02188 0
M  V30 2713 H 265.296 -0.460739 -4.1334 0
M  V30 2714 H 263.873 1.2611 -3.50928 0
M  V30 2715 N 266.058 1.56714 -0.166846 0
M  V30 2716 C 267.021 2.16539 0.751232 0
M  V30 2717 C 268.021 1.11228 1.16125 0
M  V30 2718 O 269.211 1.36765 1.07894 0
M  V30 2719 C 266.343 2.74462 2.02196 0
M  V30 2720 H 267.536 2.99013 0.230499 0
M  V30 2721 H 265.089 1.56081 0.0826982 0
M  V30 2722 H 265.824 1.95709 2.58589 0
M  V30 2723 H 265.609 3.51527 1.73698 0
M  V30 2724 H 267.099 3.20489 2.67725 0
M  V30 2725 N 267.536 -0.106894 1.57237 0
M  V30 2726 C 268.952 -0.46078 1.52804 0
M  V30 2727 C 269.152 -1.81184 0.881746 0
M  V30 2728 O 268.208 -2.48102 0.469224 0
M  V30 2729 C 269.521 -0.434127 2.9755 0
M  V30 2730 C 271.069 -0.516821 3.08704 0
M  V30 2731 C 271.544 -0.520436 4.55033 0
M  V30 2732 N 273.035 -0.58153 4.59535 0
M  V30 2733 C 273.77 -0.605973 5.70189 0
M  V30 2734 N 273.266 -0.587331 6.90306 0
M  V30 2735 N 275.059 -0.649895 5.5833 0
M  V30 2736 H 267.21 0.778203 1.9763 0
M  V30 2737 H 269.473 0.288403 0.903066 0
M  V30 2738 H 269.179 0.491197 3.48253 0
M  V30 2739 H 269.053 -1.25748 3.55622 0
M  V30 2740 H 271.44 -1.43256 2.57995 0
M  V30 2741 H 271.521 0.334449 2.53604 0
M  V30 2742 H 271.165 0.391313 5.0639 0
M  V30 2743 H 271.095 -1.38876 5.07958 0
M  V30 2744 H 273.586 -0.60161 3.73081 0
M  V30 2745 H 273.899 -0.60894 7.70397 0
M  V30 2746 H 272.244 -0.554564 6.92784 0
M  V30 2747 H 275.435 -0.661907 4.63397 0
M  V30 2748 H 275.608 -0.665476 6.44574 0
M  V30 2749 N 269.014 -1.53014 -0.377408 0
M  V30 2750 C 270.262 -1.6829 -1.11906 0
M  V30 2751 C 270.583 -0.431206 -1.90173 0
M  V30 2752 O 269.853 0.554595 -1.87886 0
M  V30 2753 H 268.433 -0.620371 -0.416112 0
M  V30 2754 H 271.095 -1.90167 -0.426893 0
M  V30 2755 H 270.191 -2.53862 -1.8155 0
M  V30 2756 N 270.492 0.636531 -1.44174 0
M  V30 2757 C 271.741 1.39213 -1.45954 0
M  V30 2758 C 272.054 1.95374 -0.0939119 0
M  V30 2759 O 273.26 2.71498 0.0107767 0
M  V30 2760 C 271.716 2.52025 -2.56927 0
M  V30 2761 C 271.324 2.024 -3.99673 0
M  V30 2762 C 273.068 3.29269 -2.67922 0
M  V30 2763 C 270.975 3.12521 -5.0208 0
M  V30 2764 H 269.905 0.523132 -0.542999 0
M  V30 2765 H 272.556 0.685349 -1.70221 0
M  V30 2766 H 270.938 3.25253 -2.25891 0
M  V30 2767 H 272.112 1.36073 -4.40251 0
M  V30 2768 H 270.427 1.37987 -3.92872 0
M  V30 2769 H 273.024 4.11352 -3.41605 0
M  V30 2770 H 273.367 3.78397 -1.73555 0
M  V30 2771 H 273.9 2.63129 -2.98342 0
M  V30 2772 H 270.639 2.68343 -5.98057 0
M  V30 2773 H 270.159 3.77507 -4.66099 0
M  V30 2774 H 271.838 3.77385 -5.25538 0
M  V30 2775 N 271.97 1.30982 0.876444 0
M  V30 2776 C 273.216 1.20474 1.63138 0
M  V30 2777 C 273.549 -0.238096 1.92735 0
M  V30 2778 O 272.824 -1.1692 1.55435 0
M  V30 2779 C 273.107 2.04244 2.96574 0
M  V30 2780 C 272.96 3.56793 2.73896 0
M  V30 2781 C 274.279 1.88684 3.97601 0
M  V30 2782 H 271.398 0.439001 0.591985 0
M  V30 2783 H 274.04 1.60704 1.01361 0
M  V30 2784 H 272.19 1.70063 3.493 0
M  V30 2785 H 273.862 4.01077 2.27892 0
M  V30 2786 H 272.105 3.80548 2.08245 0
M  V30 2787 H 272.776 4.10706 3.68815 0
M  V30 2788 H 275.252 2.18584 3.54062 0
M  V30 2789 H 274.128 2.4961 4.88862 0
M  V30 2790 H 274.389 0.848343 4.33884 0
M  V30 2791 N 273.449 -1.08991 1.13837 0
M  V30 2792 C 274.359 -2.19301 0.833333 0
M  V30 2793 C 275.375 -1.73026 -0.183847 0
M  V30 2794 O 276.551 -2.01395 -0.0138092 0
M  V30 2795 C 273.616 -3.45323 0.308651 0
M  V30 2796 C 272.677 -4.06255 1.38764 0
M  V30 2797 C 271.91 -5.26262 0.887896 0
M  V30 2798 O 272.133 -5.69747 -0.27287 0
M  V30 2799 O 271.067 -5.78435 1.66421 0
M  V30 2800 H 274.893 -2.47854 1.75506 0
M  V30 2801 H 272.478 -1.18012 0.916166 0
M  V30 2802 H 274.36 -4.21394 0.0216739 0
M  V30 2803 H 273.035 -3.18362 -0.585431 0
M  V30 2804 H 271.942 -3.318 1.72799 0
M  V30 2805 H 273.275 -4.37452 2.25602 0
M  V30 2806 N 274.927 -0.932562 -1.27047 0
M  V30 2807 C 276.175 -0.574422 -1.93765 0
M  V30 2808 C 276.496 0.887993 -1.73608 0
M  V30 2809 O 275.766 1.62999 -1.08665 0
M  V30 2810 H 274.346 -0.209451 -0.717035 0
M  V30 2811 H 277.008 -1.18601 -1.5466 0
M  V30 2812 H 276.104 -0.784841 -3.02071 0
M  V30 2813 N 276.405 1.4127 -0.698611 0
M  V30 2814 C 277.652 2.0118 -0.230865 0
M  V30 2815 C 277.98 1.55338 1.17049 0
M  V30 2816 O 277.235 0.756775 1.80475 0
M  V30 2817 C 277.534 3.56592 -0.240192 0
M  V30 2818 C 277.2 4.21955 -1.58948 0
M  V30 2819 C 275.862 4.39524 -1.95887 0
M  V30 2820 C 278.214 4.58576 -2.47704 0
M  V30 2821 C 275.542 4.90992 -3.2116 0
M  V30 2822 C 277.894 5.11435 -3.72313 0
M  V30 2823 C 276.558 5.27215 -4.0939 0
M  V30 2824 H 275.828 0.736169 -0.0844796 0
M  V30 2825 H 278.475 1.69124 -0.8983 0
M  V30 2826 H 276.78 3.88456 0.510797 0
M  V30 2827 H 278.477 4.00758 0.139296 0
M  V30 2828 H 275.067 4.08657 -1.29219 0
M  V30 2829 H 279.251 4.44654 -2.20445 0
M  V30 2830 H 274.507 5.01393 -3.49878 0
M  V30 2831 H 278.681 5.38752 -4.4127 0
M  V30 2832 H 276.308 5.66859 -5.06533 0
M  V30 2833 N 277.883 0.443576 1.51229 0
M  V30 2834 C 279.113 -0.119117 2.06256 0
M  V30 2835 C 279.521 -1.36471 1.31043 0
M  V30 2836 O 278.864 -1.80034 0.365151 0
M  V30 2837 C 278.926 -0.500546 3.55998 0
M  V30 2838 C 278.59 0.639125 4.52509 0
M  V30 2839 C 279.587 1.51311 4.97394 0
M  V30 2840 C 277.272 0.821632 4.95535 0
M  V30 2841 C 279.266 2.55425 5.83984 0
M  V30 2842 C 276.953 1.86603 5.81913 0
M  V30 2843 C 277.951 2.73072 6.26036 0
M  V30 2844 O 277.639 3.75718 7.10698 0
M  V30 2845 H 277.371 -0.00857665 0.675946 0
M  V30 2846 H 279.925 0.623288 1.95715 0
M  V30 2847 H 278.155 -1.29575 3.64345 0
M  V30 2848 H 279.844 -0.995116 3.93513 0
M  V30 2849 H 280.61 1.38367 4.64844 0
M  V30 2850 H 276.489 0.158149 4.60729 0
M  V30 2851 H 280.033 3.22949 6.18344 0
M  V30 2852 H 275.93 1.99564 6.13876 0
M  V30 2853 H 276.698 3.72374 7.2889 0
M  V30 2854 N 279.361 -1.56624 0.175154 0
M  V30 2855 C 280.609 -1.96609 -0.467885 0
M  V30 2856 C 280.93 -1.06238 -1.63519 0
M  V30 2857 O 280.2 -0.129523 -1.95471 0
M  V30 2858 H 278.78 -0.726008 -0.175845 0
M  V30 2859 H 281.442 -1.93195 0.257234 0
M  V30 2860 H 280.538 -3.00989 -0.825342 0
M  V30 2861 N 280.839 0.0985539 -1.57292 0
M  V30 2862 C 282.067 0.816318 -1.90115 0
M  V30 2863 C 282.482 1.72451 -0.768509 0
M  V30 2864 O 281.839 1.80643 0.259687 0
M  V30 2865 C 281.89 1.63259 -3.22535 0
M  V30 2866 O 281.611 0.760934 -4.31441 0
M  V30 2867 C 283.112 2.45372 -3.69199 0
M  V30 2868 H 280.332 0.233595 -0.629027 0
M  V30 2869 H 282.876 0.0768229 -2.04356 0
M  V30 2870 H 281.031 2.32463 -3.09903 0
M  V30 2871 H 281.445 1.32595 -5.07463 0
M  V30 2872 H 282.919 2.98144 -4.64558 0
M  V30 2873 H 283.396 3.23677 -2.96867 0
M  V30 2874 H 284.002 1.81373 -3.84687 0
M  V30 2875 N 282.317 1.53212 0.369288 0
M  V30 2876 C 283.728 1.60943 0.946276 0
M  V30 2877 C 284.079 0.47452 1.90375 0
M  V30 2878 O 283.204 -0.399597 2.12679 0
M  V30 2879 C 283.799 2.91715 1.72302 0
M  V30 2880 C 282.358 3.01792 2.24941 0
M  V30 2881 C 281.505 2.56211 1.06072 0
M  V30 2882 H 284.456 1.58007 0.148198 0
M  V30 2883 H 284.477 2.79309 2.58393 0
M  V30 2884 H 283.989 3.74295 1.0259 0
M  V30 2885 H 282.09 2.23791 2.97906 0
M  V30 2886 H 282.203 4.06803 2.53077 0
M  V30 2887 H 280.567 2.10998 1.4266 0
M  V30 2888 H 281.35 3.41206 0.378639 0
M  V30 2889 N 283.795 -0.628877 1.44509 0
M  V30 2890 C 285.041 -1.38863 1.48623 0
M  V30 2891 C 285.396 -1.92038 0.117933 0
M  V30 2892 O 284.689 -1.70853 -0.86716 0
M  V30 2893 C 284.883 -2.56995 2.48371 0
M  V30 2894 C 284.712 -2.15385 3.94765 0
M  V30 2895 C 283.482 -2.02558 4.62924 0
M  V30 2896 C 285.68 -1.74158 4.83915 0
M  V30 2897 N 283.662 -1.54534 5.94132 0
M  V30 2898 C 285.033 -1.37396 6.04584 0
M  V30 2899 C 287.088 -1.61559 4.7096 0
M  V30 2900 C 285.791 -0.892948 7.13736 0
M  V30 2901 C 287.817 -1.14862 5.80139 0
M  V30 2902 C 287.179 -0.790516 6.9995 0
M  V30 2903 H 283.278 -0.502858 0.59888 0
M  V30 2904 H 285.862 -0.72121 1.8085 0
M  V30 2905 H 284.033 -3.21362 2.1813 0
M  V30 2906 H 285.765 -3.23801 2.42766 0
M  V30 2907 H 282.52 -2.23082 4.1777 0
M  V30 2908 H 282.944 -1.32815 6.63844 0
M  V30 2909 H 287.586 -1.87876 3.78764 0
M  V30 2910 H 285.304 -0.617291 8.05739 0
M  V30 2911 H 288.89 -1.05569 5.72142 0
M  V30 2912 H 287.77 -0.434713 7.82994 0
M  V30 2913 N 285.273 -1.31445 -0.869486 0
M  V30 2914 C 286.501 -1.24122 -1.65534 0
M  V30 2915 C 286.916 0.193387 -1.87807 0
M  V30 2916 O 286.273 1.12557 -1.43656 0
M  V30 2917 C 286.324 -1.98229 -3.02304 0
M  V30 2918 O 286.045 -3.3609 -2.81026 0
M  V30 2919 C 287.546 -1.97751 -3.96749 0
M  V30 2920 H 284.766 -0.428868 -0.516055 0
M  V30 2921 H 287.31 -1.73328 -1.08525 0
M  V30 2922 H 285.465 -1.52782 -3.56001 0
M  V30 2923 H 285.879 -3.7383 -3.67902 0
M  V30 2924 H 287.353 -2.54114 -4.90031 0
M  V30 2925 H 287.83 -0.960137 -4.28577 0
M  V30 2926 H 288.436 -2.43079 -3.48988 0
M  V30 2927 N 286.751 1.08385 -1.14413 0
M  V30 2928 C 287.701 2.13509 -0.79987 0
M  V30 2929 C 288.685 1.5951 0.211059 0
M  V30 2930 O 289.877 1.76995 0.0133694 0
M  V30 2931 C 287.006 3.42162 -0.279297 0
M  V30 2932 C 286.092 4.03042 -1.31976 0
M  V30 2933 N 286.483 4.38327 -2.52395 0
M  V30 2934 C 284.781 4.30379 -1.17004 0
M  V30 2935 C 285.482 4.86428 -3.19003 0
M  V30 2936 N 284.458 4.84547 -2.46405 0
M  V30 2937 H 288.26 2.38609 -1.7159 0
M  V30 2938 H 285.774 1.2572 -1.02802 0
M  V30 2939 H 287.771 4.16898 -0.0143688 0
M  V30 2940 H 286.431 3.18511 0.630923 0
M  V30 2941 H 287.442 4.29349 -2.89621 0
M  V30 2942 H 284.119 4.16281 -0.318854 0
M  V30 2943 H 285.509 5.23107 -4.21674 0
M  V30 2944 N 288.23 0.939286 1.26551 0
M  V30 2945 C 289.177 0.446088 2.26448 0
M  V30 2946 C 290.147 -0.493234 1.58608 0
M  V30 2947 O 291.332 -0.409857 1.86346 0
M  V30 2948 C 288.472 -0.284375 3.43926 0
M  V30 2949 C 287.585 0.690399 4.26448 0
M  V30 2950 C 286.72 -0.0610712 5.31165 0
M  V30 2951 C 285.759 0.905649 6.05363 0
M  V30 2952 N 284.896 0.186055 7.01853 0
M  V30 2953 H 289.736 1.30291 2.68008 0
M  V30 2954 H 287.273 0.65371 1.31776 0
M  V30 2955 H 289.231 -0.724313 4.10864 0
M  V30 2956 H 287.861 -1.10535 3.03285 0
M  V30 2957 H 286.913 1.24885 3.59316 0
M  V30 2958 H 288.225 1.42873 4.779 0
M  V30 2959 H 287.379 -0.56038 6.04106 0
M  V30 2960 H 286.118 -0.832297 4.80546 0
M  V30 2961 H 285.123 1.4161 5.3125 0
M  V30 2962 H 286.348 1.67685 6.58072 0
M  V30 2963 H 284.294 -0.566714 6.53548 0
M  V30 2964 H 284.211 0.863752 7.51049 0
M  V30 2965 H 285.479 -0.292221 7.78952 0
M  V30 2966 N 289.708 -1.40897 0.706093 0
M  V30 2967 C 290.985 -1.94868 0.169099 0
M  V30 2968 C 291.365 -1.64485 -1.32318 0
M  V30 2969 O 290.713 -0.95744 -2.07474 0
M  V30 2970 C 290.923 -3.45798 0.471654 0
M  V30 2971 C 292.271 -4.22663 0.405127 0
M  V30 2972 O 293.295 -3.53865 0.407168 0
M  V30 2973 O 292.154 -5.45216 0.374383 0
M  V30 2974 H 289.248 -0.82673 0.0211352 0
M  V30 2975 H 291.794 -1.50558 0.782976 0
M  V30 2976 H 290.566 -3.61235 1.50416 0
M  V30 2977 H 290.189 -3.97225 -0.172666 0
M  V30 2978 N 291.186 -0.45159 -1.50991 0
M  V30 2979 C 292.602 -0.104647 -1.59257 0
M  V30 2980 C 292.802 1.38728 -1.4614 0
M  V30 2981 O 291.858 2.15866 -1.30989 0
M  V30 2982 C 293.171 -0.637468 -2.93865 0
M  V30 2983 C 294.719 -0.599166 -3.07212 0
M  V30 2984 C 295.194 -1.1092 -4.44366 0
M  V30 2985 N 296.685 -1.06778 -4.50725 0
M  V30 2986 C 297.42 -1.43314 -5.55201 0
M  V30 2987 N 296.916 -1.87204 -6.67028 0
M  V30 2988 N 298.709 -1.3504 -5.45638 0
M  V30 2989 H 290.86 -1.42214 -1.57762 0
M  V30 2990 H 293.123 -0.586921 -0.744465 0
M  V30 2991 H 292.829 -1.68187 -3.08879 0
M  V30 2992 H 292.703 -0.0702139 -3.77135 0
M  V30 2993 H 295.09 0.436277 -2.91857 0
M  V30 2994 H 295.171 -1.20299 -2.25747 0
M  V30 2995 H 294.815 -2.14318 -4.60467 0
M  V30 2996 H 294.745 -0.481773 -5.24392 0
M  V30 2997 H 297.236 -0.745643 -3.70471 0
M  V30 2998 H 297.549 -2.13282 -7.42786 0
M  V30 2999 H 295.894 -1.91142 -6.68199 0
M  V30 3000 H 299.085 -1.00607 -4.57161 0
M  V30 3001 H 299.258 -1.63841 -6.26945 0
M  V30 3002 N 292.664 1.56529 -0.183458 0
M  V30 3003 C 293.594 2.21549 0.737456 0
M  V30 3004 C 294.575 1.17489 1.23005 0
M  V30 3005 O 295.76 1.45959 1.281 0
M  V30 3006 C 292.89 2.86575 1.96194 0
M  V30 3007 C 291.844 3.96778 1.60473 0
M  V30 3008 C 291.17 4.48911 2.90487 0
M  V30 3009 C 292.47 5.15767 0.823497 0
M  V30 3010 H 294.164 2.98761 0.195453 0
M  V30 3011 H 291.71 1.43702 0.0925686 0
M  V30 3012 H 293.663 3.30739 2.61131 0
M  V30 3013 H 292.387 2.06749 2.52828 0
M  V30 3014 H 291.046 3.53286 0.978997 0
M  V30 3015 H 290.694 3.65862 3.45186 0
M  V30 3016 H 290.394 5.23265 2.67335 0
M  V30 3017 H 291.918 4.95771 3.56432 0
M  V30 3018 H 293.332 5.56549 1.37571 0
M  V30 3019 H 291.729 5.96114 0.690551 0
M  V30 3020 H 292.799 4.84574 -0.177782 0
M  V30 3021 N 294.142 -0.090211 1.57342 0
M  V30 3022 C 295.419 -0.824761 1.77361 0
M  V30 3023 C 295.799 -1.96698 0.76637 0
M  V30 3024 O 295.147 -2.27586 -0.204179 0
M  V30 3025 C 295.357 -1.31481 3.23286 0
M  V30 3026 C 296.705 -1.75563 3.86604 0
M  V30 3027 O 297.729 -1.41093 3.27065 0
M  V30 3028 O 296.588 -2.39317 4.91314 0
M  V30 3029 H 293.682 -0.393776 0.727234 0
M  V30 3030 H 296.228 -0.0717138 1.69548 0
M  V30 3031 H 295 -0.496671 3.88135 0
M  V30 3032 H 294.623 -2.12973 3.35751 0
M  V30 3033 N 295.62 -1.53406 -0.361157 0
M  V30 3034 C 296.552 -1.76446 -1.46286 0
M  V30 3035 C 297.565 -0.645322 -1.49464 0
M  V30 3036 O 298.754 -0.921681 -1.52864 0
M  V30 3037 C 295.854 -1.83332 -2.85031 0
M  V30 3038 C 295.027 -3.13033 -3.05498 0
M  V30 3039 C 294.086 -3.11104 -4.24383 0
M  V30 3040 O 293.112 -3.84888 -4.19344 0
M  V30 3041 N 294.314 -2.32234 -5.32022 0
M  V30 3042 H 297.079 -2.71508 -1.26899 0
M  V30 3043 H 294.64 -1.52238 -0.550915 0
M  V30 3044 H 296.632 -1.79514 -3.62708 0
M  V30 3045 H 295.202 -0.955342 -2.97644 0
M  V30 3046 H 294.422 -3.30119 -2.15442 0
M  V30 3047 H 295.71 -3.9874 -3.16044 0
M  V30 3048 H 295.108 -1.71807 -5.38979 0
M  V30 3049 H 293.665 -2.3423 -6.08259 0
M  V30 3050 N 297.098 0.621204 -1.44841 0
M  V30 3051 C 298.347 1.37658 -1.47422 0
M  V30 3052 C 298.66 1.95264 -0.114629 0
M  V30 3053 O 299.866 2.71494 -0.0180199 0
M  V30 3054 C 298.322 2.49285 -2.59586 0
M  V30 3055 C 297.93 1.98149 -4.01797 0
M  V30 3056 C 299.674 3.26409 -2.71399 0
M  V30 3057 C 297.581 3.07178 -5.05367 0
M  V30 3058 H 296.511 0.517344 -0.548517 0
M  V30 3059 H 299.162 0.667257 -1.70938 0
M  V30 3060 H 297.544 3.22839 -2.29328 0
M  V30 3061 H 298.718 1.31395 -4.41669 0
M  V30 3062 H 297.033 1.33812 -3.94314 0
M  V30 3063 H 299.63 4.07706 -3.45948 0
M  V30 3064 H 299.973 3.76535 -1.77559 0
M  V30 3065 H 300.506 2.5995 -3.01116 0
M  V30 3066 H 297.245 2.61985 -6.00869 0
M  V30 3067 H 296.765 3.72542 -4.70077 0
M  V30 3068 H 298.444 3.71789 -5.29511 0
M  V30 3069 N 298.576 1.31904 0.862503 0
M  V30 3070 C 299.523 1.20182 1.9704 0
M  V30 3071 C 300.493 0.0858247 1.65878 0
M  V30 3072 O 301.678 0.26 1.8902 0
M  V30 3073 C 298.818 0.922797 3.32533 0
M  V30 3074 C 297.931 2.12284 3.76244 0
M  V30 3075 C 297.066 1.77996 5.00491 0
M  V30 3076 C 296.105 2.94366 5.36671 0
M  V30 3077 N 295.242 2.60223 6.52095 0
M  V30 3078 H 300.082 2.14951 2.06398 0
M  V30 3079 H 297.619 1.06917 1.01031 0
M  V30 3080 H 299.577 0.741548 4.10557 0
M  V30 3081 H 298.207 0.0119227 3.22798 0
M  V30 3082 H 297.259 2.41461 2.9394 0
M  V30 3083 H 298.571 2.99357 3.98982 0
M  V30 3084 H 297.725 1.56377 5.862 0
M  V30 3085 H 296.464 0.881252 4.79672 0
M  V30 3086 H 295.469 3.16625 4.49476 0
M  V30 3087 H 296.694 3.84957 5.59451 0
M  V30 3088 H 294.64 1.72884 6.32809 0
M  V30 3089 H 294.557 3.40827 6.74814 0
M  V30 3090 H 295.825 2.42016 7.40978 0
M  V30 3091 N 300.054 -1.07777 1.14986 0
M  V30 3092 C 301.301 -1.8029 0.922056 0
M  V30 3093 C 301.629 -1.86531 -0.55105 0
M  V30 3094 O 300.884 -1.34189 -1.42449 0
M  V30 3095 C 301.183 -3.25495 1.47608 0
M  V30 3096 C 300.849 -3.39361 2.96893 0
M  V30 3097 C 299.511 -3.42852 3.37647 0
M  V30 3098 C 301.863 -3.42512 3.92854 0
M  V30 3099 C 299.191 -3.47094 4.73015 0
M  V30 3100 C 301.543 -3.4829 5.28088 0
M  V30 3101 C 300.207 -3.50058 5.68345 0
M  V30 3102 H 299.477 -0.659727 0.337404 0
M  V30 3103 H 302.124 -1.26854 1.43459 0
M  V30 3104 H 300.429 -3.81683 0.88463 0
M  V30 3105 H 302.126 -3.80168 1.27568 0
M  V30 3106 H 298.716 -3.37339 2.64387 0
M  V30 3107 H 302.9 -3.3904 3.62444 0
M  V30 3108 H 298.156 -3.46758 5.03556 0
M  V30 3109 H 302.33 -3.49675 6.02246 0
M  V30 3110 H 299.957 -3.53097 6.73221 0
M  V30 3111 N 301.532 -0.945985 -1.26051 0
M  V30 3112 C 302.762 -0.612136 -1.97323 0
M  V30 3113 C 303.17 0.818171 -1.70595 0
M  V30 3114 O 302.513 1.55777 -0.973613 0
M  V30 3115 C 302.575 -0.780347 -3.50929 0
M  V30 3116 C 302.239 -2.18619 -4.01317 0
M  V30 3117 C 303.236 -3.16209 -4.12683 0
M  V30 3118 C 300.921 -2.50805 -4.35203 0
M  V30 3119 C 302.915 -4.44085 -4.57238 0
M  V30 3120 C 300.602 -3.78912 -4.79446 0
M  V30 3121 C 301.6 -4.75365 -4.90425 0
M  V30 3122 O 301.288 -6.01191 -5.3369 0
M  V30 3123 H 301.02 -0.229134 -0.635982 0
M  V30 3124 H 303.574 -1.27036 -1.61404 0
M  V30 3125 H 301.804 -0.0649864 -3.86645 0
M  V30 3126 H 303.493 -0.448842 -4.03411 0
M  V30 3127 H 304.259 -2.92668 -3.86744 0
M  V30 3128 H 300.138 -1.76463 -4.2589 0
M  V30 3129 H 303.682 -5.19373 -4.65723 0
M  V30 3130 H 299.579 -4.02265 -5.0483 0
M  V30 3131 H 300.347 -6.04442 -5.51899 0
M  V30 3132 N 303.011 1.40521 -0.713556 0
M  V30 3133 C 304.259 2.00527 -0.251692 0
M  V30 3134 C 304.58 1.56857 1.15848 0
M  V30 3135 O 303.85 0.807127 1.785 0
M  V30 3136 H 302.43 0.741551 -0.0900646 0
M  V30 3137 H 305.092 1.71887 -0.918733 0
M  V30 3138 H 304.188 3.10813 -0.283192 0
M  V30 3139 N 304.489 0.459591 1.5075 0
M  V30 3140 C 305.399 -0.34613 2.32033 0
M  V30 3141 C 306.415 -1.00686 1.41909 0
M  V30 3142 O 307.591 -0.997361 1.7497 0
M  V30 3143 C 304.656 -1.42029 3.16273 0
M  V30 3144 C 303.717 -0.777362 4.22203 0
M  V30 3145 C 302.95 -1.80034 5.02418 0
M  V30 3146 O 303.173 -3.02544 4.83553 0
M  V30 3147 O 302.107 -1.37853 5.85901 0
M  V30 3148 H 305.933 0.318054 3.0203 0
M  V30 3149 H 303.518 0.221663 1.47746 0
M  V30 3150 H 305.4 -2.04275 3.68578 0
M  V30 3151 H 304.075 -2.06815 2.49016 0
M  V30 3152 H 302.982 -0.116256 3.73919 0
M  V30 3153 H 304.315 -0.172634 4.91897 0
M  V30 3154 N 305.967 -1.56429 0.191757 0
M  V30 3155 C 306.915 -2.20273 -0.747174 0
M  V30 3156 C 307.909 -1.17288 -1.22229 0
M  V30 3157 O 309.115 -1.35441 -1.18557 0
M  V30 3158 H 305.49 -0.705885 -0.259289 0
M  V30 3159 H 307.461 -2.97826 -0.184963 0
M  V30 3160 C 306.21 -2.87356 -1.95759 0
M  V30 3161 H 305.533 -3.66341 -1.60106 0
M  V30 3162 H 306.973 -3.3547 -2.59299 0
M  V30 3163 C 305.432 -1.88213 -2.79423 0
M  V30 3164 O 305.962 -1.38033 -3.7724 0
M  V30 3165 N 304.168 -1.56516 -2.44849 0
M  V30 3166 H 303.715 -1.97516 -1.65364 0
M  V30 3167 H 303.673 -0.904369 -3.01112 0
M  V30 3168 N 307.445 0.0818655 -1.57387 0
M  V30 3169 C 308.392 1.09834 -2.0299 0
M  V30 3170 C 309.362 1.39043 -0.908639 0
M  V30 3171 O 310.547 1.50282 -1.17559 0
M  V30 3172 C 307.687 2.40971 -2.47037 0
M  V30 3173 C 306.8 2.18379 -3.7274 0
M  V30 3174 C 305.935 3.43008 -4.0561 0
M  V30 3175 C 304.974 3.15736 -5.24383 0
M  V30 3176 N 304.111 4.32667 -5.52941 0
M  V30 3177 H 308.951 0.702472 -2.89602 0
M  V30 3178 H 306.488 0.33531 -1.43227 0
M  V30 3179 H 308.446 3.1752 -2.70623 0
M  V30 3180 H 307.076 2.78379 -1.63417 0
M  V30 3181 H 306.128 1.32569 -3.56552 0
M  V30 3182 H 307.44 1.94227 -4.59431 0
M  V30 3183 H 306.594 4.27958 -4.30043 0
M  V30 3184 H 305.333 3.70225 -3.17466 0
M  V30 3185 H 304.338 2.2918 -4.99757 0
M  V30 3186 H 305.563 2.8985 -6.14136 0
M  V30 3187 H 303.509 4.59935 -4.67756 0
M  V30 3188 H 303.426 4.11753 -6.34031 0
M  V30 3189 H 304.694 5.18644 -5.81918 0
M  V30 3190 N 308.923 1.53595 0.353017 0
M  V30 3191 C 309.853 1.83902 1.43883 0
M  V30 3192 C 310.834 0.693421 1.55324 0
M  V30 3193 O 312.019 0.944452 1.69687 0
M  V30 3194 C 309.149 2.04016 2.8106 0
M  V30 3195 C 308.103 3.19814 2.84434 0
M  V30 3196 C 307.429 3.25244 4.24406 0
M  V30 3197 C 308.729 4.58133 2.50822 0
M  V30 3198 H 310.423 2.74835 1.1877 0
M  V30 3199 H 307.969 1.32242 0.569917 0
M  V30 3200 H 309.922 2.238 3.57059 0
M  V30 3201 H 308.646 1.09804 3.07588 0
M  V30 3202 H 307.305 2.9987 2.10887 0
M  V30 3203 H 306.953 2.28646 4.48029 0
M  V30 3204 H 306.653 4.03054 4.27576 0
M  V30 3205 H 308.177 3.47228 5.0226 0
M  V30 3206 H 309.591 4.77995 3.16534 0
M  V30 3207 H 307.988 5.38276 2.6529 0
M  V30 3208 H 309.058 4.62387 1.46034 0
M  V30 3209 N 310.401 -0.613514 1.45168 0
M  V30 3210 C 311.349 -1.74572 1.53712 0
M  V30 3211 C 312.343 -1.64426 0.407505 0
M  V30 3212 O 313.549 -1.70291 0.583176 0
M  V30 3213 H 309.924 -0.576641 0.48269 0
M  V30 3214 H 311.895 -1.64492 2.48968 0
M  V30 3215 C 310.644 -3.12943 1.51532 0
M  V30 3216 H 309.967 -3.21407 2.37776 0
M  V30 3217 H 311.407 -3.9201 1.61569 0
M  V30 3218 C 309.866 -3.36053 0.238798 0
M  V30 3219 O 310.396 -3.95837 -0.6838 0
M  V30 3220 N 308.602 -2.9028 0.136359 0
M  V30 3221 H 308.149 -2.41811 0.887999 0
M  V30 3222 H 308.107 -3.06116 -0.716944 0
M  V30 3223 N 311.879 -1.3236 -0.855495 0
M  V30 3224 C 313.107 -1.2587 -1.64208 0
M  V30 3225 C 313.522 0.173457 -1.88002 0
M  V30 3226 O 312.879 1.11027 -1.44842 0
M  V30 3227 C 312.93 -2.01424 -3.00184 0
M  V30 3228 O 312.651 -3.39051 -2.77445 0
M  V30 3229 C 314.152 -2.01948 -3.94629 0
M  V30 3230 H 311.372 -0.434318 -0.511477 0
M  V30 3231 H 313.916 -1.74469 -1.0668 0
M  V30 3232 H 312.071 -1.56549 -3.5436 0
M  V30 3233 H 312.485 -3.77711 -3.63916 0
M  V30 3234 H 313.959 -2.59297 -4.87308 0
M  V30 3235 H 314.436 -1.00554 -4.27534 0
M  V30 3236 H 315.042 -2.46767 -3.4639 0
M  V30 3237 N 313.357 1.07166 -1.15556 0
M  V30 3238 C 314.587 1.83248 -0.954133 0
M  V30 3239 C 314.995 1.82449 0.500911 0
M  V30 3240 O 314.338 1.23575 1.35923 0
M  V30 3241 C 314.4 3.31393 -1.39351 0
M  V30 3242 C 314.064 3.5591 -2.86666 0
M  V30 3243 C 315.061 3.49695 -3.8472 0
M  V30 3244 C 312.746 3.83515 -3.24379 0
M  V30 3245 C 314.74 3.70737 -5.18491 0
M  V30 3246 C 312.427 4.04209 -4.58321 0
M  V30 3247 C 313.425 3.97815 -5.55186 0
M  V30 3248 O 313.113 4.17954 -6.86709 0
M  V30 3249 H 312.845 0.584941 -0.338851 0
M  V30 3250 H 315.399 1.36169 -1.53777 0
M  V30 3251 H 313.629 3.79292 -0.75329 0
M  V30 3252 H 315.318 3.88945 -1.16089 0
M  V30 3253 H 316.084 3.28368 -3.56931 0
M  V30 3254 H 311.963 3.87605 -2.49567 0
M  V30 3255 H 315.507 3.65663 -5.94085 0
M  V30 3256 H 311.404 4.25023 -4.85825 0
M  V30 3257 H 312.172 4.35291 -6.93155 0
M  V30 3258 N 314.835 0.952656 1.25548 0
M  V30 3259 C 316.084 0.602053 1.92505 0
M  V30 3260 C 316.397 -0.864663 1.75451 0
M  V30 3261 O 317.603 -1.32514 2.36965 0
M  V30 3262 C 316.059 1.02607 3.44963 0
M  V30 3263 C 315.667 2.51519 3.70732 0
M  V30 3264 C 317.411 0.747905 4.1786 0
M  V30 3265 C 315.318 2.87732 5.16686 0
M  V30 3266 H 314.248 0.22146 0.720744 0
M  V30 3267 H 316.899 1.15684 1.42441 0
M  V30 3268 H 315.281 0.399712 3.93978 0
M  V30 3269 H 316.455 3.19157 3.32378 0
M  V30 3270 H 314.77 2.76786 3.11092 0
M  V30 3271 H 317.367 0.994647 5.25367 0
M  V30 3272 H 317.71 -0.315629 4.15102 0
M  V30 3273 H 318.243 1.33452 3.74747 0
M  V30 3274 H 314.982 3.93095 5.24554 0
M  V30 3275 H 314.502 2.24765 5.56094 0
M  V30 3276 H 316.181 2.76817 5.84792 0
M  V30 3277 N 316.313 -1.40141 0.720998 0
M  V30 3278 C 317.543 -2.04798 0.27226 0
M  V30 3279 C 317.951 -1.54442 -1.09289 0
M  V30 3280 O 317.294 -0.698342 -1.69908 0
M  V30 3281 C 317.356 -3.59048 0.18027 0
M  V30 3282 C 317.02 -4.32317 1.48159 0
M  V30 3283 C 318.017 -4.59902 2.42458 0
M  V30 3284 C 315.702 -4.71125 1.74202 0
M  V30 3285 C 317.696 -5.25288 3.61042 0
M  V30 3286 C 315.383 -5.36242 2.93066 0
M  V30 3287 C 316.381 -5.63254 3.86308 0
M  V30 3288 O 316.069 -6.27024 5.03086 0
M  V30 3289 H 315.801 -0.665419 0.119139 0
M  V30 3290 H 318.355 -1.80436 0.981432 0
M  V30 3291 H 316.585 -3.82251 -0.58489 0
M  V30 3292 H 318.274 -4.05221 -0.234618 0
M  V30 3293 H 319.04 -4.30379 2.23604 0
M  V30 3294 H 314.919 -4.49466 1.02477 0
M  V30 3295 H 318.463 -5.46289 4.33837 0
M  V30 3296 H 314.36 -5.65185 3.11826 0
M  V30 3297 H 315.128 -6.4552 5.03235 0
M  V30 3298 N 317.792 -0.46758 -1.50504 0
M  V30 3299 C 318.755 0.317059 -2.26996 0
M  V30 3300 C 319.755 0.923513 -1.31635 0
M  V30 3301 O 320.945 0.793239 -1.55091 0
M  V30 3302 C 318.077 1.45134 -3.08462 0
M  V30 3303 H 319.27 -0.353723 -2.97807 0
M  V30 3304 H 316.823 -0.221545 -1.54722 0
M  V30 3305 H 317.558 2.15728 -2.4214 0
M  V30 3306 H 317.343 1.02232 -3.78538 0
M  V30 3307 H 318.833 2.00493 -3.66323 0
M  V30 3308 N 319.27 1.56325 -0.20005 0
M  V30 3309 C 320.681 1.8408 0.31167 0
M  V30 3310 C 321.032 1.12087 1.61031 0
M  V30 3311 O 320.157 0.38332 2.12978 0
M  V30 3312 C 320.752 3.33932 0.57226 0
M  V30 3313 C 319.311 3.6208 1.02834 0
M  V30 3314 C 318.458 2.77186 0.079634 0
M  V30 3315 H 321.409 1.52939 -0.423729 0
M  V30 3316 H 321.43 3.52971 1.42096 0
M  V30 3317 H 320.942 3.86303 -0.37308 0
M  V30 3318 H 319.043 3.15147 1.98778 0
M  V30 3319 H 319.156 4.7023 0.917624 0
M  V30 3320 H 317.52 2.47951 0.582448 0
M  V30 3321 H 318.303 3.32347 -0.860238 0
M  V30 3322 N 320.748 -0.0735177 1.57428 0
M  V30 3323 C 321.695 -1.08756 2.0357 0
M  V30 3324 C 322.665 -1.38559 0.916 0
M  V30 3325 O 323.85 -1.49656 1.18354 0
M  V30 3326 C 320.99 -2.39657 2.48311 0
M  V30 3327 C 320.103 -2.16399 3.73892 0
M  V30 3328 C 319.238 -3.40852 4.07423 0
M  V30 3329 C 318.277 -3.1295 5.2605 0
M  V30 3330 N 317.414 -4.29729 5.55228 0
M  V30 3331 H 322.254 -0.687104 2.8997 0
M  V30 3332 H 319.791 -0.327709 1.43403 0
M  V30 3333 H 321.749 -3.16081 2.72303 0
M  V30 3334 H 320.379 -2.77508 1.64891 0
M  V30 3335 H 319.431 -1.30676 3.57251 0
M  V30 3336 H 320.743 -1.91788 4.60455 0
M  V30 3337 H 319.897 -4.25671 4.32306 0
M  V30 3338 H 318.636 -3.68537 3.19425 0
M  V30 3339 H 317.641 -2.26526 5.00965 0
M  V30 3340 H 318.866 -2.86589 6.15665 0
M  V30 3341 H 316.812 -4.57448 4.70188 0
M  V30 3342 H 316.729 -4.08385 6.36206 0
M  V30 3343 H 317.997 -5.1555 5.84661 0
M  V30 3344 N 322.226 -1.5378 -0.344866 0
M  V30 3345 C 323.503 -1.61589 -1.10219 0
M  V30 3346 C 323.883 -0.436316 -2.06542 0
M  V30 3347 O 323.231 0.571543 -2.21237 0
M  V30 3348 C 323.441 -2.97602 -1.82301 0
M  V30 3349 C 324.789 -3.5291 -2.36093 0
M  V30 3350 O 325.813 -2.99768 -1.924 0
M  V30 3351 O 324.672 -4.45859 -3.16026 0
M  V30 3352 H 321.766 -0.653522 -0.506792 0
M  V30 3353 H 324.312 -1.66126 -0.346465 0
M  V30 3354 H 323.084 -3.74893 -1.12121 0
M  V30 3355 H 322.707 -2.9665 -2.64735 0
M  V30 3356 N 323.704 0.605807 -1.45491 0
M  V30 3357 C 324.981 1.36522 -1.40075 0
M  V30 3358 C 325.361 2.10976 -0.0722744 0
M  V30 3359 O 324.709 2.08007 0.945808 0
M  V30 3360 C 324.919 2.31056 -2.61561 0
M  V30 3361 C 326.267 2.93608 -3.06724 0
M  V30 3362 O 327.291 2.41376 -2.61946 0
M  V30 3363 O 326.15 3.88421 -3.84437 0
M  V30 3364 H 323.244 0.612248 -0.555951 0
M  V30 3365 H 325.79 0.628747 -1.57623 0
M  V30 3366 H 324.562 1.75311 -3.49831 0
M  V30 3367 H 324.185 3.12081 -2.46356 0
M  V30 3368 N 325.182 1.32811 0.848464 0
M  V30 3369 C 326.593 1.21315 1.41914 0
M  V30 3370 C 326.944 -0.171847 1.95446 0
M  V30 3371 O 326.069 -1.07093 1.88043 0
M  V30 3372 C 326.664 2.19631 2.57968 0
M  V30 3373 C 325.223 2.12003 3.11017 0
M  V30 3374 C 324.37 2.07651 1.83783 0
M  V30 3375 H 327.321 1.44549 0.655071 0
M  V30 3376 H 327.342 1.79845 3.35315 0
M  V30 3377 H 326.854 3.20423 2.18976 0
M  V30 3378 H 324.955 1.14481 3.54577 0
M  V30 3379 H 325.068 3.02111 3.71841 0
M  V30 3380 H 323.432 1.52983 2.03638 0
M  V30 3381 H 324.215 3.10235 1.47 0
M  V30 3382 N 326.66 -1.06551 1.16123 0
M  V30 3383 C 327.89 -1.8274 0.963838 0
M  V30 3384 C 328.298 -1.82712 -0.491228 0
M  V30 3385 O 327.641 -1.24294 -1.35265 0
M  V30 3386 C 327.703 -3.3065 1.41106 0
M  V30 3387 C 327.367 -3.54384 2.88549 0
M  V30 3388 C 328.364 -3.4765 3.86569 0
M  V30 3389 C 326.049 -3.81789 3.26408 0
M  V30 3390 C 328.043 -3.67982 5.2045 0
M  V30 3391 C 325.73 -4.01772 4.60459 0
M  V30 3392 C 326.728 -3.94866 5.57288 0
M  V30 3393 O 326.416 -4.14306 6.88916 0
M  V30 3394 H 326.148 -0.583136 0.341948 0
M  V30 3395 H 328.702 -1.35351 1.54497 0
M  V30 3396 H 326.932 -3.78887 0.773394 0
M  V30 3397 H 328.621 -3.88324 1.1815 0
M  V30 3398 H 329.387 -3.2647 3.58667 0
M  V30 3399 H 325.266 -3.86276 2.51619 0
M  V30 3400 H 328.81 -3.62507 5.96015 0
M  V30 3401 H 324.707 -4.2244 4.88072 0
M  V30 3402 H 325.475 -4.31609 6.95454 0
M  V30 3403 N 328.138 -0.959301 -1.25041 0
M  V30 3404 C 329.088 -0.453888 -2.23436 0
M  V30 3405 C 330.072 0.459461 -1.542 0
M  V30 3406 O 331.264 0.291752 -1.74579 0
M  V30 3407 C 328.393 0.262667 -3.42294 0
M  V30 3408 C 327.479 -0.669022 -4.1879 0
M  V30 3409 N 327.87 -1.80267 -4.72586 0
M  V30 3410 C 326.168 -0.47814 -4.4343 0
M  V30 3411 C 326.869 -2.38475 -5.3057 0
M  V30 3412 N 325.845 -1.67078 -5.17287 0
M  V30 3413 H 329.647 -1.319 -2.6264 0
M  V30 3414 H 327.161 -0.817358 -1.40332 0
M  V30 3415 H 329.158 0.641911 -4.11929 0
M  V30 3416 H 327.818 1.12432 -3.04613 0
M  V30 3417 H 328.829 -2.18442 -4.69578 0
M  V30 3418 H 325.506 0.340249 -4.16111 0
M  V30 3419 H 326.896 -3.34094 -5.8295 0
M  V30 3420 N 329.616 1.39756 -0.72842 0
M  V30 3421 C 331.032 1.5442 -0.403308 0
M  V30 3422 C 331.232 1.69694 1.08656 0
M  V30 3423 O 330.288 1.69373 1.87267 0
M  V30 3424 C 331.601 2.76555 -1.18058 0
M  V30 3425 C 333.149 2.90384 -1.16815 0
M  V30 3426 C 333.624 4.15449 -1.92785 0
M  V30 3427 N 335.115 4.22475 -1.89918 0
M  V30 3428 C 335.85 5.1818 -2.45514 0
M  V30 3429 N 335.346 6.19714 -3.09719 0
M  V30 3430 N 337.139 5.1035 -2.35584 0
M  V30 3431 H 329.29 1.28089 -1.69431 0
M  V30 3432 H 331.553 0.620327 -0.716867 0
M  V30 3433 H 331.259 2.7159 -2.23455 0
M  V30 3434 H 331.133 3.69033 -0.780662 0
M  V30 3435 H 333.52 2.94846 -0.12234 0
M  V30 3436 H 333.601 1.98988 -1.6074 0
M  V30 3437 H 333.245 4.11749 -2.97364 0
M  V30 3438 H 333.175 5.05877 -1.46272 0
M  V30 3439 H 335.666 3.49743 -1.43138 0
M  V30 3440 H 335.979 6.8919 -3.49625 0
M  V30 3441 H 334.324 6.20121 -3.13807 0
M  V30 3442 H 337.515 4.2996 -1.85072 0
M  V30 3443 H 337.688 5.84761 -2.79211 0
M  V30 3444 N 331.094 0.475555 1.50254 0
M  V30 3445 C 332.004 -0.321501 2.32387 0
M  V30 3446 C 333.02 -0.991755 1.42969 0
M  V30 3447 O 334.196 -0.978747 1.76018 0
M  V30 3448 C 331.261 -1.38667 3.17762 0
M  V30 3449 C 330.322 -0.732538 4.23004 0
M  V30 3450 C 329.555 -1.74695 5.04299 0
M  V30 3451 O 329.778 -2.97399 4.86734 0
M  V30 3452 O 328.712 -1.31631 5.8733 0
M  V30 3453 H 332.538 0.350071 3.01676 0
M  V30 3454 H 330.123 0.237321 1.47503 0
M  V30 3455 H 332.005 -2.00354 3.70724 0
M  V30 3456 H 330.68 -2.04163 2.51196 0
M  V30 3457 H 329.587 -0.0765902 3.74022 0
M  V30 3458 H 330.92 -0.120452 4.92053 0
M  V30 3459 N 332.573 -1.56217 0.208337 0
M  V30 3460 C 333.52 -2.19699 -0.707192 0
M  V30 3461 C 334.49 -1.14836 -1.20008 0
M  V30 3462 O 335.675 -1.4314 -1.26157 0
M  V30 3463 C 332.815 -2.87061 -1.91546 0
M  V30 3464 C 331.928 -4.06483 -1.46271 0
M  V30 3465 C 331.063 -4.61665 -2.62752 0
M  V30 3466 C 330.102 -5.73417 -2.14147 0
M  V30 3467 N 329.239 -6.22948 -3.23853 0
M  V30 3468 H 334.079 -2.97575 -0.159111 0
M  V30 3469 H 331.616 -1.46948 -0.0667874 0
M  V30 3470 H 333.574 -3.24294 -2.62468 0
M  V30 3471 H 332.204 -2.11725 -2.43664 0
M  V30 3472 H 331.256 -3.74825 -0.648886 0
M  V30 3473 H 332.568 -4.87271 -1.06622 0
M  V30 3474 H 331.722 -5.01272 -3.41776 0
M  V30 3475 H 330.461 -3.80013 -3.05682 0
M  V30 3476 H 329.466 -5.33326 -1.33581 0
M  V30 3477 H 330.691 -6.56897 -1.72232 0
M  V30 3478 H 328.637 -5.44213 -3.6629 0
M  V30 3479 H 328.554 -6.98823 -2.88414 0
M  V30 3480 H 329.822 -6.6721 -4.03052 0
M  V30 3481 N 334.051 0.0651679 -1.57465 0
M  V30 3482 C 335.297 0.758912 -1.88712 0
M  V30 3483 C 335.652 1.7485 -0.802819 0
M  V30 3484 O 334.945 1.90632 0.192359 0
M  V30 3485 C 335.139 1.50081 -3.24362 0
M  V30 3486 C 334.968 0.584579 -4.45884 0
M  V30 3487 C 333.738 0.219039 -5.04825 0
M  V30 3488 C 335.936 -0.121559 -5.14156 0
M  V30 3489 N 333.918 -0.702222 -6.09871 0
M  V30 3490 C 335.289 -0.899767 -6.13436 0
M  V30 3491 C 337.344 -0.192331 -4.97528 0
M  V30 3492 C 336.047 -1.74218 -6.97883 0
M  V30 3493 C 338.073 -1.02174 -5.82507 0
M  V30 3494 C 337.435 -1.78798 -6.8133 0
M  V30 3495 H 333.534 0.25293 -0.739967 0
M  V30 3496 H 336.118 0.0201744 -1.9469 0
M  V30 3497 H 334.289 2.21023 -3.1938 0
M  V30 3498 H 336.021 2.14409 -3.43236 0
M  V30 3499 H 332.776 0.57336 -4.70117 0
M  V30 3500 H 333.2 -1.15629 -6.67052 0
M  V30 3501 H 337.842 0.385741 -4.21037 0
M  V30 3502 H 335.56 -2.3312 -7.73745 0
M  V30 3503 H 339.146 -1.07957 -5.71696 0
M  V30 3504 H 338.026 -2.41942 -7.45945 0
M  V30 3505 N 335.529 1.53961 0.336706 0
M  V30 3506 C 336.945 1.44378 0.680241 0
M  V30 3507 C 337.145 0.606034 1.9217 0
M  V30 3508 O 336.201 0.099688 2.52303 0
M  V30 3509 C 337.514 2.87945 0.8665 0
M  V30 3510 C 339.062 2.97763 0.964682 0
M  V30 3511 C 339.537 4.42453 1.18321 0
M  V30 3512 N 341.028 4.46008 1.25025 0
M  V30 3513 C 341.763 5.55102 1.43697 0
M  V30 3514 N 341.259 6.7419 1.59498 0
M  V30 3515 N 343.052 5.42727 1.463 0
M  V30 3516 H 335.203 2.06918 -0.479455 0
M  V30 3517 H 337.466 0.935634 -0.152619 0
M  V30 3518 H 337.172 3.51691 0.0256937 0
M  V30 3519 H 337.046 3.33293 1.76623 0
M  V30 3520 H 339.433 2.34153 1.796 0
M  V30 3521 H 339.514 2.55766 0.041708 0
M  V30 3522 H 339.158 5.06645 0.356788 0
M  V30 3523 H 339.088 4.82048 2.11985 0
M  V30 3524 H 341.579 3.60196 1.14312 0
M  V30 3525 H 341.892 7.53095 1.734 0
M  V30 3526 H 340.237 6.77123 1.56621 0
M  V30 3527 H 343.428 4.48647 1.33543 0
M  V30 3528 H 343.601 6.27806 1.6051 0
M  V30 3529 N 337.007 -0.598083 1.45811 0
M  V30 3530 C 337.917 -1.73632 1.57763 0
M  V30 3531 C 338.933 -1.67763 0.461676 0
M  V30 3532 O 340.109 -1.87949 0.723685 0
M  V30 3533 C 337.174 -3.10114 1.55018 0
M  V30 3534 C 336.235 -3.27364 2.77726 0
M  V30 3535 C 335.468 -4.57334 2.75102 0
M  V30 3536 O 335.691 -5.40258 1.8297 0
M  V30 3537 O 334.625 -4.77502 3.66437 0
M  V30 3538 H 338.451 -1.66498 2.53992 0
M  V30 3539 H 336.036 -0.763308 1.28429 0
M  V30 3540 H 337.918 -3.9141 1.56129 0
M  V30 3541 H 336.593 -3.17718 0.619431 0
M  V30 3542 H 335.5 -2.45619 2.82174 0
M  V30 3543 H 336.833 -3.24641 3.69958 0
M  V30 3544 N 338.485 -1.33259 -0.841409 0
M  V30 3545 C 339.896 -1.22066 -1.41269 0
M  V30 3546 C 340.247 0.161479 -1.95534 0
M  V30 3547 O 339.372 1.06094 -1.88608 0
M  V30 3548 C 339.967 -2.20996 -2.568 0
M  V30 3549 C 338.526 -2.13649 -3.09888 0
M  V30 3550 C 337.673 -2.08623 -1.82679 0
M  V30 3551 H 340.624 -1.44895 -0.647395 0
M  V30 3552 H 340.645 -1.81621 -3.34356 0
M  V30 3553 H 340.157 -3.2158 -2.17274 0
M  V30 3554 H 338.258 -1.16359 -3.53965 0
M  V30 3555 H 338.371 -3.04079 -3.70234 0
M  V30 3556 H 336.735 -1.54061 -2.02824 0
M  V30 3557 H 337.518 -3.1101 -1.45353 0
M  V30 3558 N 339.963 1.05934 -1.16686 0
M  V30 3559 C 341.193 1.82226 -0.973515 0
M  V30 3560 C 341.601 1.8297 0.481532 0
M  V30 3561 O 340.944 1.25009 1.34604 0
M  V30 3562 C 341.006 3.29897 -1.42858 0
M  V30 3563 C 340.67 3.52849 -2.90425 0
M  V30 3564 C 341.667 3.45595 -3.88407 0
M  V30 3565 C 339.352 3.80053 -3.28428 0
M  V30 3566 C 341.346 3.65217 -5.22394 0
M  V30 3567 C 339.033 3.99325 -4.62583 0
M  V30 3568 C 340.031 3.91905 -5.59374 0
M  V30 3569 O 339.719 4.10647 -6.91104 0
M  V30 3570 H 339.451 0.581314 -0.345036 0
M  V30 3571 H 342.005 1.3453 -1.55212 0
M  V30 3572 H 340.235 3.78472 -0.793477 0
M  V30 3573 H 341.924 3.87692 -1.20207 0
M  V30 3574 H 342.69 3.24564 -3.60393 0
M  V30 3575 H 338.569 3.84936 -2.53664 0
M  V30 3576 H 342.113 3.59341 -5.9793 0
M  V30 3577 H 338.01 4.19846 -4.90306 0
M  V30 3578 H 338.778 4.27915 -6.97733 0
M  V30 3579 N 341.441 0.965919 1.2453 0
M  V30 3580 C 342.852 0.665929 1.7442 0
M  V30 3581 C 343.203 -0.818407 1.78316 0
M  V30 3582 O 342.328 -1.64037 1.41141 0
M  V30 3583 C 342.923 1.20211 3.16757 0
M  V30 3584 C 341.482 0.952059 3.6416 0
M  V30 3585 C 340.629 1.33848 2.42858 0
M  V30 3586 H 343.58 1.14144 1.10258 0
M  V30 3587 H 343.601 0.567544 3.76244 0
M  V30 3588 H 343.113 2.28244 3.13889 0
M  V30 3589 H 341.214 -0.112821 3.72429 0
M  V30 3590 H 341.327 1.59645 4.51719 0
M  V30 3591 H 339.691 0.756864 2.43195 0
M  V30 3592 H 340.474 2.42827 2.42673 0
M  V30 3593 N 342.919 -1.39368 0.735821 0
M  V30 3594 C 343.829 -2.34395 0.0979693 0
M  V30 3595 C 344.845 -1.58361 -0.720968 0
M  V30 3596 O 346.021 -1.90648 -0.649245 0
M  V30 3597 C 343.086 -3.37393 -0.797916 0
M  V30 3598 C 342.147 -4.29287 0.0333662 0
M  V30 3599 C 341.38 -5.27365 -0.819854 0
M  V30 3600 O 341.603 -5.31959 -2.05855 0
M  V30 3601 O 340.537 -6.01389 -0.248079 0
M  V30 3602 H 344.363 -2.90601 0.882315 0
M  V30 3603 H 341.948 -1.40909 0.4965 0
M  V30 3604 H 343.83 -4.00505 -1.31048 0
M  V30 3605 H 342.505 -2.83571 -1.56106 0
M  V30 3606 H 341.412 -3.69395 0.591475 0
M  V30 3607 H 342.745 -4.86317 0.758752 0
M  V30 3608 N 344.397 -0.483516 -1.5 0
M  V30 3609 C 345.345 0.318061 -2.30415 0
M  V30 3610 C 346.339 0.978988 -1.38247 0
M  V30 3611 O 347.545 0.908673 -1.55381 0
M  V30 3612 H 343.92 0.121419 -0.742133 0
M  V30 3613 H 345.891 -0.380403 -2.95965 0
M  V30 3614 C 344.64 1.38013 -3.19136 0
M  V30 3615 H 343.963 0.880952 -3.89973 0
M  V30 3616 H 345.403 1.91332 -3.78375 0
M  V30 3617 C 343.862 2.38884 -2.37563 0
M  V30 3618 O 344.392 3.44412 -2.06744 0
M  V30 3619 N 342.598 2.10912 -1.99911 0
M  V30 3620 H 342.145 1.25118 -2.25174 0
M  V30 3621 H 342.103 2.78635 -1.45636 0
M  V30 3622 N 345.875 1.56104 -0.216619 0
M  V30 3623 C 346.785 2.23694 0.706982 0
M  V30 3624 C 347.801 1.24295 1.21765 0
M  V30 3625 O 348.977 1.57094 1.2603 0
M  V30 3626 C 346.042 2.8998 1.90033 0
M  V30 3627 C 345.103 4.04708 1.43213 0
M  V30 3628 C 344.336 4.67824 2.56859 0
M  V30 3629 O 344.559 4.29913 3.74874 0
M  V30 3630 O 343.493 5.56905 2.28343 0
M  V30 3631 H 347.319 3.03272 0.161235 0
M  V30 3632 H 344.904 1.49394 0.0136177 0
M  V30 3633 H 346.786 3.31837 2.59735 0
M  V30 3634 H 345.461 2.13365 2.43428 0
M  V30 3635 H 344.368 3.6743 0.70327 0
M  V30 3636 H 345.701 4.83051 0.944615 0
M  V30 3637 N 347.353 -0.0568162 1.57498 0
M  V30 3638 C 348.286 -1.09817 2.00039 0
M  V30 3639 C 349.264 -1.3674 0.879819 0
M  V30 3640 O 350.448 -1.49863 1.14338 0
M  V30 3641 C 347.575 -2.43924 2.34986 0
M  V30 3642 C 346.621 -2.33039 3.57204 0
M  V30 3643 S 347.454 -1.7102 5.07457 0
M  V30 3644 C 348.61 -3.06674 5.45621 0
M  V30 3645 H 348.843 -0.735701 2.88053 0
M  V30 3646 H 346.376 -0.265871 1.52094 0
M  V30 3647 H 348.334 -3.2106 2.55795 0
M  V30 3648 H 346.995 -2.77327 1.47474 0
M  V30 3649 H 346.188 -3.31973 3.79223 0
M  V30 3650 H 345.79 -1.64043 3.36104 0
M  V30 3651 H 348.082 -4.03 5.44608 0
M  V30 3652 H 349.025 -2.8942 6.46252 0
M  V30 3653 H 349.433 -3.07969 4.73091 0
M  V30 3654 N 348.832 -1.54138 -0.328536 0
M  V30 3655 C 349.764 -1.79509 -1.4251 0
M  V30 3656 C 350.777 -0.67688 -1.48061 0
M  V30 3657 O 351.966 -0.953898 -1.50874 0
M  V30 3658 C 349.066 -1.89337 -2.81078 0
M  V30 3659 C 348.239 -3.19443 -2.98789 0
M  V30 3660 C 347.298 -3.20036 -4.17688 0
M  V30 3661 O 346.324 -3.93697 -4.11086 0
M  V30 3662 N 347.526 -2.43467 -5.26976 0
M  V30 3663 H 350.291 -2.74139 -1.21111 0
M  V30 3664 H 347.852 -1.53373 -0.518499 0
M  V30 3665 H 349.844 -1.87167 -3.58818 0
M  V30 3666 H 348.414 -1.01826 -2.95551 0
M  V30 3667 H 347.634 -3.34614 -2.08391 0
M  V30 3668 H 348.922 -4.05354 -3.07515 0
M  V30 3669 H 348.32 -1.83201 -5.35214 0
M  V30 3670 H 346.877 -2.4708 -6.03154 0
M  V30 3671 N 350.31 0.590341 -1.46126 0
M  V30 3672 C 351.726 0.912917 -1.30912 0
M  V30 3673 C 351.926 1.99616 -0.274893 0
M  V30 3674 O 350.982 2.50397 0.325197 0
M  V30 3675 C 352.295 1.3375 -2.69317 0
M  V30 3676 C 353.843 1.45077 -2.77348 0
M  V30 3677 C 354.318 1.90904 -4.16317 0
M  V30 3678 N 355.809 1.9811 -4.18696 0
M  V30 3679 C 356.544 2.34828 -5.23109 0
M  V30 3680 N 356.04 2.70393 -6.37856 0
M  V30 3681 N 357.833 2.35317 -5.10473 0
M  V30 3682 H 349.984 -0.125358 -2.1203 0
M  V30 3683 H 352.247 0.00658481 -0.947977 0
M  V30 3684 H 351.953 0.615614 -3.4627 0
M  V30 3685 H 351.827 2.30058 -2.9892 0
M  V30 3686 H 354.214 2.16353 -2.00687 0
M  V30 3687 H 354.295 0.4704 -2.51438 0
M  V30 3688 H 353.939 1.20209 -4.9347 0
M  V30 3689 H 353.869 2.89886 -4.39629 0
M  V30 3690 H 356.36 1.73146 -3.359 0
M  V30 3691 H 356.673 2.97341 -7.13308 0
M  V30 3692 H 355.018 2.68048 -6.41229 0
M  V30 3693 H 358.209 2.0695 -4.19868 0
M  V30 3694 H 358.382 2.63605 -5.9196 0
M  V30 3695 N 351.788 1.33704 0.83433 0
M  V30 3696 C 352.721 1.18675 1.94914 0
M  V30 3697 C 353.699 0.0811145 1.62398 0
M  V30 3698 O 354.883 0.244186 1.86912 0
M  V30 3699 C 352.01 0.821231 3.28593 0
M  V30 3700 C 351.056 1.93501 3.80079 0
M  V30 3701 S 351.889 3.54671 4.01209 0
M  V30 3702 C 353.045 3.20136 5.37833 0
M  V30 3703 H 353.278 2.13043 2.07364 0
M  V30 3704 H 350.811 1.18598 0.988624 0
M  V30 3705 H 352.769 0.617123 4.05835 0
M  V30 3706 H 351.43 -0.103927 3.13928 0
M  V30 3707 H 350.623 1.63273 4.76821 0
M  V30 3708 H 350.225 2.09601 3.09747 0
M  V30 3709 H 352.517 2.71242 6.20833 0
M  V30 3710 H 353.46 4.15975 5.73036 0
M  V30 3711 H 353.868 2.56613 5.02802 0
M  V30 3712 N 353.266 -1.05314 1.17247 0
M  V30 3713 C 354.198 -2.13023 0.845812 0
M  V30 3714 C 355.211 -1.62096 -0.151246 0
M  V30 3715 O 356.4 -1.78343 0.0748818 0
M  V30 3716 C 353.5 -3.38047 0.240292 0
M  V30 3717 C 352.673 -4.18255 1.27991 0
M  V30 3718 C 351.732 -5.21625 0.692375 0
M  V30 3719 O 350.758 -5.52619 1.36385 0
M  V30 3720 N 351.96 -5.78201 -0.516178 0
M  V30 3721 H 354.725 -2.41642 1.77283 0
M  V30 3722 H 352.286 -1.21401 1.07115 0
M  V30 3723 H 354.278 -4.04359 -0.16603 0
M  V30 3724 H 352.848 -3.06972 -0.590487 0
M  V30 3725 H 352.068 -3.47451 1.86203 0
M  V30 3726 H 353.356 -4.68643 1.98119 0
M  V30 3727 H 352.754 -5.55301 -1.07969 0
M  V30 3728 H 351.311 -6.4604 -0.86458 0
M  V30 3729 N 354.744 -0.972509 -1.24016 0
M  V30 3730 C 355.654 -0.5143 -2.28893 0
M  V30 3731 C 356.67 0.427078 -1.68677 0
M  V30 3732 O 357.846 0.298939 -1.99169 0
M  V30 3733 C 354.911 0.183598 -3.46214 0
M  V30 3734 C 353.972 -0.798202 -4.21814 0
M  V30 3735 C 353.205 -0.133514 -5.33533 0
M  V30 3736 O 353.428 1.07714 -5.60137 0
M  V30 3737 O 352.362 -0.828103 -5.96176 0
M  V30 3738 H 356.188 -1.38629 -2.70214 0
M  V30 3739 H 353.773 -0.739769 -1.29799 0
M  V30 3740 H 355.655 0.575433 -4.17453 0
M  V30 3741 H 354.33 1.03048 -3.0686 0
M  V30 3742 H 353.237 -1.24059 -3.52931 0
M  V30 3743 H 354.57 -1.61364 -4.64997 0
M  V30 3744 N 356.222 1.38976 -0.743202 0
M  V30 3745 C 357.152 2.33171 -0.123873 0
M  V30 3746 C 358.133 1.54336 0.71516 0
M  V30 3747 O 359.318 1.82696 0.658467 0
M  V30 3748 C 356.448 3.38474 0.777978 0
M  V30 3749 C 355.402 4.27979 0.0424758 0
M  V30 3750 C 354.728 5.2405 1.06189 0
M  V30 3751 C 356.028 5.10155 -1.1198 0
M  V30 3752 H 357.722 2.85213 -0.910709 0
M  V30 3753 H 355.268 1.37133 -0.439388 0
M  V30 3754 H 357.221 4.03328 1.22084 0
M  V30 3755 H 355.945 2.84891 1.59702 0
M  V30 3756 H 354.604 3.64616 -0.380853 0
M  V30 3757 H 354.252 4.66758 1.87472 0
M  V30 3758 H 353.952 5.84785 0.574485 0
M  V30 3759 H 355.476 5.9178 1.50428 0
M  V30 3760 H 356.89 5.68307 -0.75499 0
M  V30 3761 H 355.287 5.80073 -1.53738 0
M  V30 3762 H 356.357 4.44504 -1.93764 0
M  V30 3763 N 357.7 0.491464 1.49741 0
M  V30 3764 C 358.949 -0.0582189 2.01616 0
M  V30 3765 C 359.262 -1.38927 1.3769 0
M  V30 3766 O 360.468 -2.02509 1.80838 0
M  V30 3767 C 358.924 -0.154235 3.59569 0
M  V30 3768 C 358.532 1.1696 4.32463 0
M  V30 3769 C 360.276 -0.65479 4.1942 0
M  V30 3770 C 358.183 1.03627 5.8225 0
M  V30 3771 H 357.113 -0.0255317 0.753568 0
M  V30 3772 H 359.764 0.629445 1.72367 0
M  V30 3773 H 358.146 -0.906138 3.85493 0
M  V30 3774 H 359.32 1.93405 4.18248 0
M  V30 3775 H 357.635 1.60285 3.84315 0
M  V30 3776 H 360.232 -0.771903 5.29099 0
M  V30 3777 H 360.575 -1.65127 3.8215 0
M  V30 3778 H 361.108 0.040304 3.9778 0
M  V30 3779 H 357.847 2.00672 6.24028 0
M  V30 3780 H 357.367 0.312546 5.98985 0
M  V30 3781 H 359.046 0.711114 6.4308 0
M  V30 3782 N 359.178 -1.55987 0.224894 0
M  V30 3783 C 360.455 -1.90232 -0.455083 0
M  V30 3784 C 360.835 -1.14269 -1.77499 0
M  V30 3785 O 360.183 -0.253079 -2.27094 0
M  V30 3786 C 360.393 -3.42993 -0.644758 0
M  V30 3787 C 361.741 -4.13821 -0.950669 0
M  V30 3788 O 362.765 -3.4861 -0.731423 0
M  V30 3789 O 361.624 -5.29128 -1.36695 0
M  V30 3790 H 358.718 -0.79108 -0.241084 0
M  V30 3791 H 361.264 -1.67581 0.267327 0
M  V30 3792 H 360.036 -3.90252 0.28613 0
M  V30 3793 H 359.659 -3.71434 -1.41853 0
M  V30 3794 N 360.656 0.0484629 -1.57525 0
M  V30 3795 C 361.619 1.03956 -2.04269 0
M  V30 3796 C 362.619 1.30211 -0.943496 0
M  V30 3797 O 363.809 1.25539 -1.20771 0
M  V30 3798 C 360.941 2.37742 -2.44319 0
M  V30 3799 H 362.134 0.636182 -2.93075 0
M  V30 3800 H 359.687 0.294811 -1.53494 0
M  V30 3801 H 360.422 2.82866 -1.5861 0
M  V30 3802 H 360.207 2.20021 -3.24551 0
M  V30 3803 H 361.697 3.08936 -2.80978 0
M  V30 3804 N 362.134 1.5431 0.320358 0
M  V30 3805 C 363.359 1.76954 1.08175 0
M  V30 3806 C 363.784 0.518193 1.80821 0
M  V30 3807 O 363.142 -0.530411 1.73368 0
M  V30 3808 C 363.19 2.96451 2.05303 0
M  V30 3809 O 362.294 2.68221 3.13259 0
M  V30 3810 H 361.635 0.586275 0.311733 0
M  V30 3811 H 364.165 2.01342 0.363676 0
M  V30 3812 H 364.175 3.23887 2.48116 0
M  V30 3813 H 362.85 3.87196 1.51829 0
M  V30 3814 H 361.427 2.51744 2.75099 0
M  V30 3815 N 363.613 -0.582584 1.46437 0
M  V30 3816 C 364.576 -1.67366 1.56592 0
M  V30 3817 C 365.576 -1.54575 0.443072 0
M  V30 3818 O 366.766 -1.59191 0.707381 0
M  V30 3819 C 363.898 -3.06791 1.48634 0
M  V30 3820 H 365.091 -1.5972 2.5383 0
M  V30 3821 H 362.644 -0.800432 1.34249 0
M  V30 3822 H 363.379 -3.19993 0.526763 0
M  V30 3823 H 363.164 -3.17484 2.30101 0
M  V30 3824 H 364.654 -3.86218 1.58826 0
M  V30 3825 N 365.091 -1.34144 -0.827227 0
M  V30 3826 C 366.001 -1.27428 -1.96975 0
M  V30 3827 C 367.017 -0.182728 -1.73038 0
M  V30 3828 O 368.193 -0.408426 -1.97215 0
M  V30 3829 C 365.258 -1.02526 -3.31194 0
M  V30 3830 C 364.319 -2.20796 -3.68168 0
M  V30 3831 C 363.552 -1.97073 -4.95982 0
M  V30 3832 O 363.775 -0.926822 -5.6282 0
M  V30 3833 O 362.709 -2.83912 -5.30733 0
M  V30 3834 H 366.535 -2.23537 -2.05584 0
M  V30 3835 H 364.12 -1.14307 -0.961989 0
M  V30 3836 H 366.002 -0.904026 -4.11589 0
M  V30 3837 H 364.677 -0.0945389 -3.23562 0
M  V30 3838 H 363.584 -2.38477 -2.88235 0
M  V30 3839 H 364.917 -3.12243 -3.8048 0
M  V30 3840 N 366.569 1.04691 -1.17803 0
M  V30 3841 C 367.517 2.14665 -0.895635 0
M  V30 3842 C 368.511 1.68806 0.141679 0
M  V30 3843 O 369.717 1.79999 -0.00587914 0
M  V30 3844 H 366.092 0.701038 -0.272121 0
M  V30 3845 H 368.063 2.35685 -1.83017 0
M  V30 3846 C 366.812 3.45019 -0.430962 0
M  V30 3847 H 366.135 3.8071 -1.22064 0
M  V30 3848 H 367.575 4.23125 -0.272301 0
M  V30 3849 C 366.034 3.25943 0.852207 0
M  V30 3850 O 366.564 3.5296 1.91786 0
M  V30 3851 N 364.77 2.79304 0.802346 0
M  V30 3852 H 364.317 2.57518 -0.0650788 0
M  V30 3853 H 364.275 2.66921 1.66134 0
M  V30 3854 N 368.047 0.979072 1.23499 0
M  V30 3855 C 368.994 0.517904 2.24914 0
M  V30 3856 C 369.964 -0.442525 1.60097 0
M  V30 3857 O 371.149 -0.350365 1.87556 0
M  V30 3858 C 368.289 -0.174813 3.44657 0
M  V30 3859 C 367.402 0.825721 4.24035 0
M  V30 3860 C 366.537 0.107946 5.3109 0
M  V30 3861 C 365.576 1.09778 6.02175 0
M  V30 3862 N 364.713 0.40925 7.00906 0
M  V30 3863 H 369.553 1.38751 2.63727 0
M  V30 3864 H 367.09 0.695303 1.2963 0
M  V30 3865 H 369.048 -0.593233 4.12961 0
M  V30 3866 H 367.678 -1.0083 3.06648 0
M  V30 3867 H 366.73 1.36253 3.55161 0
M  V30 3868 H 368.042 1.58005 4.73113 0
M  V30 3869 H 367.196 -0.367904 6.05583 0
M  V30 3870 H 365.935 -0.678994 4.8295 0
M  V30 3871 H 364.94 1.5844 5.26476 0
M  V30 3872 H 366.165 1.88536 6.52404 0
M  V30 3873 H 364.111 -0.358506 6.5502 0
M  V30 3874 H 364.028 1.10226 7.47921 0
M  V30 3875 H 365.296 -0.0442557 7.79487 0
M  V30 3876 N 369.525 -1.3858 0.750561 0
M  V30 3877 C 370.771 -2.00481 0.305825 0
M  V30 3878 C 371.104 -1.5944 -1.10872 0
M  V30 3879 O 370.379 -0.83052 -1.75877 0
M  V30 3880 C 370.662 -3.5758 0.425287 0
M  V30 3881 C 370.515 -4.08594 1.88072 0
M  V30 3882 C 371.834 -4.39719 -0.183122 0
M  V30 3883 H 368.953 -0.728348 0.112598 0
M  V30 3884 H 371.595 -1.64566 0.949638 0
M  V30 3885 H 369.745 -3.88306 -0.122828 0
M  V30 3886 H 371.417 -3.88523 2.48691 0
M  V30 3887 H 369.66 -3.61574 2.39681 0
M  V30 3888 H 370.331 -5.177 1.91548 0
M  V30 3889 H 372.807 -4.15128 0.284303 0
M  V30 3890 H 371.683 -5.48856 -0.0692757 0
M  V30 3891 H 371.944 -4.23434 -1.27106 0
M  V30 3892 N 371.003 -0.499398 -1.49478 0
M  V30 3893 C 372.28 0.108629 -1.95298 0
M  V30 3894 C 372.66 1.54282 -1.44084 0
M  V30 3895 O 372.008 2.18944 -0.653908 0
M  V30 3896 C 372.218 0.0229111 -3.48992 0
M  V30 3897 C 373.566 0.197643 -4.2414 0
M  V30 3898 O 374.59 0.0981735 -3.56065 0
M  V30 3899 O 373.449 0.401669 -5.45022 0
M  V30 3900 H 370.543 0.096181 -0.821388 0
M  V30 3901 H 373.089 -0.561822 -1.6013 0
M  V30 3902 H 371.861 -0.977321 -3.78899 0
M  V30 3903 H 371.484 0.733579 -3.90774 0
M  V30 3904 N 372.481 1.55866 -0.233164 0
M  V30 3905 C 373.728 1.98603 0.395374 0
M  V30 3906 C 374.056 1.12105 1.58942 0
M  V30 3907 O 373.311 0.168656 1.94972 0
M  V30 3908 C 373.61 3.46856 0.861724 0
M  V30 3909 C 373.276 4.50348 -0.223066 0
M  V30 3910 C 371.938 4.78371 -0.521038 0
M  V30 3911 C 374.29 5.12355 -0.956124 0
M  V30 3912 C 371.618 5.6568 -1.55638 0
M  V30 3913 C 373.97 6.00786 -1.98089 0
M  V30 3914 C 372.634 6.27148 -2.28565 0
M  V30 3915 H 371.904 0.726739 0.144677 0
M  V30 3916 H 374.551 1.88491 -0.338114 0
M  V30 3917 H 372.856 3.5423 1.67418 0
M  V30 3918 H 374.553 3.77302 1.35809 0
M  V30 3919 H 371.143 4.28596 0.0193234 0
M  V30 3920 H 375.327 4.90765 -0.739166 0
M  V30 3921 H 370.583 5.84365 -1.798 0
M  V30 3922 H 374.757 6.4788 -2.55391 0
M  V30 3923 H 372.384 6.94597 -3.08932 0
M  V30 3924 N 373.959 -0.0401083 1.57549 0
M  V30 3925 C 375.205 -0.734211 1.89043 0
M  V30 3926 C 375.538 -1.75591 0.829535 0
M  V30 3927 O 374.813 -1.93868 -0.156706 0
M  V30 3928 C 375.096 -1.41374 3.31188 0
M  V30 3929 C 374.949 -0.406299 4.47961 0
M  V30 3930 C 376.268 -2.35061 3.72068 0
M  V30 3931 H 373.387 -0.265447 0.687537 0
M  V30 3932 H 376.029 0.00294087 1.9 0
M  V30 3933 H 374.179 -2.04206 3.30503 0
M  V30 3934 H 375.851 0.219255 4.60779 0
M  V30 3935 H 374.094 0.275485 4.32924 0
M  V30 3936 H 374.765 -0.920022 5.44279 0
M  V30 3937 H 377.241 -1.82282 3.74049 0
M  V30 3938 H 376.117 -2.79593 4.72355 0
M  V30 3939 H 376.378 -3.21258 3.0372 0
M  V30 3940 N 375.437 -1.54477 -0.31217 0
M  V30 3941 C 376.684 -1.73227 -1.04875 0
M  V30 3942 C 377.012 -0.512042 -1.87639 0
M  V30 3943 O 376.267 0.506131 -1.89042 0
M  V30 3944 C 376.566 -2.967 -1.99258 0
M  V30 3945 C 376.232 -4.30974 -1.32559 0
M  V30 3946 C 374.894 -4.67477 -1.141 0
M  V30 3947 C 377.246 -5.14258 -0.847835 0
M  V30 3948 C 374.574 -5.84852 -0.465326 0
M  V30 3949 C 376.926 -6.32327 -0.185931 0
M  V30 3950 C 375.59 -6.67499 0.0107077 0
M  V30 3951 H 374.86 -0.633881 -0.383765 0
M  V30 3952 H 377.507 -1.88727 -0.324731 0
M  V30 3953 H 375.812 -2.75935 -2.7815 0
M  V30 3954 H 377.509 -3.08401 -2.563 0
M  V30 3955 H 374.099 -4.02262 -1.4793 0
M  V30 3956 H 378.283 -4.86565 -0.978192 0
M  V30 3957 H 373.539 -6.10654 -0.301883 0
M  V30 3958 H 377.713 -6.96135 0.192211 0
M  V30 3959 H 375.34 -7.58306 0.536287 0
M  V30 3960 N 376.915 0.57481 -1.46744 0
M  V30 3961 C 378.163 1.33009 -1.52161 0
M  V30 3962 C 378.484 1.94185 -0.178092 0
M  V30 3963 O 377.754 1.7899 0.796196 0
M  V30 3964 H 376.334 0.493873 -0.560445 0
M  V30 3965 H 378.996 0.672589 -1.82927 0
M  V30 3966 H 378.092 2.13273 -2.27862 0
M  V30 3967 N 378.394 1.34581 0.820102 0
M  V30 3968 C 379.643 1.26437 1.57151 0
M  V30 3969 C 379.956 -0.163111 1.94919 0
M  V30 3970 O 381.162 -0.366722 2.69012 0
M  V30 3971 C 379.618 2.21658 2.83541 0
M  V30 3972 C 379.226 3.69679 2.53065 0
M  V30 3973 C 380.97 2.22428 3.61561 0
M  V30 3974 C 378.877 4.56761 3.75664 0
M  V30 3975 H 377.807 0.469707 0.589823 0
M  V30 3976 H 380.458 1.59763 0.902656 0
M  V30 3977 H 378.84 1.81287 3.52067 0
M  V30 3978 H 380.014 4.18605 1.92631 0
M  V30 3979 H 378.329 3.71384 1.88316 0
M  V30 3980 H 380.926 2.8471 4.52597 0
M  V30 3981 H 381.269 1.22434 3.97889 0
M  V30 3982 H 381.802 2.61259 2.99981 0
M  V30 3983 H 378.541 5.57702 3.44454 0
M  V30 3984 H 378.061 4.12568 4.35371 0
M  V30 3985 H 379.74 4.71509 4.43044 0
M  V30 3986 N 379.872 -1.04064 1.18357 0
M  V30 3987 C 381.097 -1.81454 1.00445 0
M  V30 3988 C 381.522 -1.82823 -0.442423 0
M  V30 3989 O 380.88 -1.24555 -1.31741 0
M  V30 3990 C 380.928 -3.24925 1.56384 0
M  V30 3991 O 380.032 -4.04856 0.785209 0
M  V30 3992 H 379.373 -0.560604 0.355835 0
M  V30 3993 H 381.903 -1.31059 1.57114 0
M  V30 3994 H 381.913 -3.75702 1.59097 0
M  V30 3995 H 380.588 -3.23244 2.61699 0
M  V30 3996 H 379.165 -3.63537 0.830399 0
M  V30 3997 N 381.35 -0.985608 -1.22978 0
M  V30 3998 C 382.761 -0.693593 -1.73338 0
M  V30 3999 C 383.112 0.789935 -1.79595 0
M  V30 4000 O 382.237 1.61771 -1.43733 0
M  V30 4001 C 382.832 -1.25235 -3.14804 0
M  V30 4002 C 381.391 -1.00987 -3.626 0
M  V30 4003 C 380.538 -1.37695 -2.40698 0
M  V30 4004 H 383.489 -1.15884 -1.08428 0
M  V30 4005 H 383.51 -0.627329 -3.75293 0
M  V30 4006 H 383.022 -2.33209 -3.10218 0
M  V30 4007 H 381.123 0.0535565 -3.72562 0
M  V30 4008 H 381.236 -1.66812 -4.49122 0
M  V30 4009 H 379.6 -0.795459 -2.4196 0
M  V30 4010 H 380.383 -2.46657 -2.38779 0
M  V30 4011 N 382.828 1.3818 -0.7579 0
M  V30 4012 C 384.076 1.99624 -0.315361 0
M  V30 4013 C 384.397 1.60464 1.10799 0
M  V30 4014 O 383.667 0.863507 1.75842 0
M  V30 4015 H 382.247 0.73831 -0.113611 0
M  V30 4016 H 384.909 1.68878 -0.972952 0
M  V30 4017 H 384.005 3.09754 -0.381931 0
M  V30 4018 N 384.306 0.507319 1.49211 0
M  V30 4019 C 385.555 -0.0368315 2.01666 0
M  V30 4020 C 385.868 -1.37459 1.39156 0
M  V30 4021 O 387.074 -2.00579 1.82976 0
M  V30 4022 C 385.53 -0.116089 3.59713 0
M  V30 4023 C 385.138 1.2154 4.31198 0
M  V30 4024 C 386.882 -0.610268 4.2009 0
M  V30 4025 C 384.789 1.09796 5.81119 0
M  V30 4026 H 383.719 -0.0175376 0.753796 0
M  V30 4027 H 386.37 0.647691 1.71689 0
M  V30 4028 H 384.752 -0.8652 3.86433 0
M  V30 4029 H 385.926 1.9783 4.16173 0
M  V30 4030 H 384.241 1.64352 3.82593 0
M  V30 4031 H 386.838 -0.715742 5.29888 0
M  V30 4032 H 387.181 -1.61064 3.8388 0
M  V30 4033 H 387.714 0.0824916 3.97714 0
M  V30 4034 H 384.453 2.0728 6.21864 0
M  V30 4035 H 383.973 0.376058 5.9862 0
M  V30 4036 H 385.652 0.779281 6.4229 0
M  V30 4037 N 385.784 -1.5574 0.241426 0
M  V30 4038 C 387.061 -1.90704 -0.434881 0
M  V30 4039 C 387.441 -1.16145 -1.76277 0
M  V30 4040 O 386.789 -0.277152 -2.26813 0
M  V30 4041 C 386.999 -3.43657 -0.608343 0
M  V30 4042 C 388.347 -4.14806 -0.906725 0
M  V30 4043 O 389.371 -3.49366 -0.694408 0
M  V30 4044 O 388.23 -5.30548 -1.31075 0
M  V30 4045 H 385.324 -0.793592 -0.23268 0
M  V30 4046 H 387.87 -1.67288 0.285086 0
M  V30 4047 H 386.642 -3.89927 0.327505 0
M  V30 4048 H 386.265 -3.72918 -1.37906 0
M  V30 4049 N 387.262 0.0317525 -1.57568 0
M  V30 4050 C 388.511 0.722131 -1.8833 0
M  V30 4051 C 388.824 1.76664 -0.839587 0
M  V30 4052 O 390.03 2.50942 -1.03635 0
M  V30 4053 C 388.486 1.33544 -3.34207 0
M  V30 4054 C 388.094 0.327415 -4.46802 0
M  V30 4055 C 389.838 2.00585 -3.7412 0
M  V30 4056 C 387.745 0.948915 -5.83738 0
M  V30 4057 H 386.675 0.273466 -0.702661 0
M  V30 4058 H 389.326 -0.0235811 -1.83485 0
M  V30 4059 H 387.708 2.13077 -3.33788 0
M  V30 4060 H 388.882 -0.441006 -4.58685 0
M  V30 4061 H 387.197 -0.240758 -4.15703 0
M  V30 4062 H 389.794 2.47932 -4.73744 0
M  V30 4063 H 390.137 2.82285 -3.05975 0
M  V30 4064 H 390.67 1.27831 -3.76702 0
M  V30 4065 H 387.409 0.171387 -6.55276 0
M  V30 4066 H 386.929 1.68724 -5.7558 0
M  V30 4067 H 388.608 1.45705 -6.3038 0
M  V30 4068 N 388.74 1.54641 0.303973 0
M  V30 4069 C 390.156 1.45788 0.649463 0
M  V30 4070 C 390.356 0.64666 1.90842 0
M  V30 4071 O 389.412 0.153183 2.52035 0
M  V30 4072 C 390.725 2.89718 0.805227 0
M  V30 4073 C 392.273 2.99742 0.901305 0
M  V30 4074 C 392.748 4.44863 1.08909 0
M  V30 4075 N 394.239 4.48559 1.15536 0
M  V30 4076 C 394.974 5.58026 1.3189 0
M  V30 4077 N 394.47 6.77422 1.45161 0
M  V30 4078 N 396.263 5.45708 1.34755 0
M  V30 4079 H 388.414 2.05854 -0.523237 0
M  V30 4080 H 390.677 0.932186 -0.172431 0
M  V30 4081 H 390.383 3.51666 -0.0489108 0
M  V30 4082 H 390.257 3.36964 1.69513 0
M  V30 4083 H 392.644 2.3791 1.74593 0
M  V30 4084 H 392.725 2.55797 -0.0125531 0
M  V30 4085 H 392.369 5.07288 0.249241 0
M  V30 4086 H 392.299 4.86436 2.01713 0
M  V30 4087 H 394.79 3.6254 1.06646 0
M  V30 4088 H 395.103 7.56604 1.57387 0
M  V30 4089 H 393.448 6.80292 1.42223 0
M  V30 4090 H 396.639 4.51378 1.23996 0
M  V30 4091 H 396.812 6.3107 1.47157 0
M  V30 4092 N 390.218 -0.567019 1.47046 0
M  V30 4093 C 391.465 -1.32462 1.53167 0
M  V30 4094 C 391.793 -1.93571 0.189841 0
M  V30 4095 O 391.048 -1.77865 -0.816243 0
M  V30 4096 C 391.347 -2.4623 2.59047 0
M  V30 4097 C 391.013 -2.03014 4.02612 0
M  V30 4098 C 389.675 -1.90944 4.41694 0
M  V30 4099 C 392.027 -1.69895 4.92732 0
M  V30 4100 C 389.355 -1.44035 5.68745 0
M  V30 4101 C 391.707 -1.2446 6.20236 0
M  V30 4102 C 390.371 -1.10979 6.5821 0
M  V30 4103 H 389.641 -0.484713 0.560477 0
M  V30 4104 H 392.288 -0.636888 1.80599 0
M  V30 4105 H 390.593 -3.20517 2.25335 0
M  V30 4106 H 392.29 -3.04427 2.61008 0
M  V30 4107 H 388.88 -2.13348 3.71726 0
M  V30 4108 H 393.064 -1.78098 4.63244 0
M  V30 4109 H 388.32 -1.32254 5.96925 0
M  V30 4110 H 392.494 -0.978924 6.89485 0
M  V30 4111 H 390.121 -0.744078 7.5655 0
M  V30 4112 N 391.696 -1.35014 -0.812953 0
M  V30 4113 C 392.973 -1.18502 -1.55617 0
M  V30 4114 C 393.353 0.238421 -2.09749 0
M  V30 4115 O 392.701 1.2411 -1.91857 0
M  V30 4116 C 392.911 -2.24783 -2.66971 0
M  V30 4117 C 394.259 -2.60268 -3.35478 0
M  V30 4118 O 395.283 -2.23648 -2.77236 0
M  V30 4119 O 394.142 -3.2321 -4.40678 0
M  V30 4120 H 391.236 -0.459984 -0.687272 0
M  V30 4121 H 393.782 -1.46677 -0.853464 0
M  V30 4122 H 392.554 -3.20284 -2.24798 0
M  V30 4123 H 392.177 -1.97841 -3.44884 0
M  V30 4124 N 393.175 1.03435 -1.18907 0
M  V30 4125 C 394.423 1.76394 -0.986382 0
M  V30 4126 C 394.744 1.88883 0.484567 0
M  V30 4127 O 394.014 1.41843 1.3512 0
M  V30 4128 H 392.594 0.65344 -0.361975 0
M  V30 4129 H 395.256 1.248 -1.49703 0
M  V30 4130 H 394.352 2.77424 -1.42978 0
M  V30 4131 N 394.653 0.992116 1.22453 0
M  V30 4132 C 395.563 0.55065 2.28046 0
M  V30 4133 C 396.579 -0.400189 1.69335 0
M  V30 4134 O 397.755 -0.267215 1.99619 0
M  V30 4135 C 394.82 -0.128496 3.46462 0
M  V30 4136 C 393.881 0.865208 4.20491 0
M  V30 4137 C 393.114 0.218377 5.33253 0
M  V30 4138 O 393.337 -0.987894 5.6178 0
M  V30 4139 O 392.271 0.922845 5.94783 0
M  V30 4140 H 396.097 1.4291 2.67975 0
M  V30 4141 H 393.682 0.760326 1.28606 0
M  V30 4142 H 395.564 -0.508947 4.18315 0
M  V30 4143 H 394.239 -0.981526 3.0846 0
M  V30 4144 H 393.146 1.29658 3.50913 0
M  V30 4145 H 394.479 1.68741 4.62371 0
M  V30 4146 N 396.131 -1.37776 0.765217 0
M  V30 4147 C 397.094 -2.28686 0.153416 0
M  V30 4148 C 398.094 -1.47727 -0.635081 0
M  V30 4149 O 399.284 -1.68027 -0.459632 0
M  V30 4150 C 396.416 -3.31608 -0.790495 0
M  V30 4151 H 397.609 -2.84297 0.954723 0
M  V30 4152 H 395.162 -1.46932 0.53299 0
M  V30 4153 H 395.897 -2.81109 -1.61705 0
M  V30 4154 H 395.682 -3.9144 -0.227348 0
M  V30 4155 H 397.172 -3.99559 -1.21419 0
M  V30 4156 N 397.609 -0.515225 -1.4894 0
M  V30 4157 C 398.857 0.0241671 -2.02086 0
M  V30 4158 C 399.178 1.3616 -1.3959 0
M  V30 4159 O 398.448 1.87841 -0.556121 0
M  V30 4160 H 397.028 0.0119203 -0.746905 0
M  V30 4161 H 399.69 -0.675702 -1.82812 0
M  V30 4162 H 398.786 0.143385 -3.1177 0
M  V30 4163 N 399.087 1.5561 -0.249682 0
M  V30 4164 C 399.997 2.25143 0.659375 0
M  V30 4165 C 401.013 1.2685 1.19101 0
M  V30 4166 O 402.189 1.59732 1.22669 0
M  V30 4167 C 399.254 2.93945 1.8384 0
M  V30 4168 C 398.315 4.07655 1.34596 0
M  V30 4169 C 397.548 4.73167 2.46878 0
M  V30 4170 O 397.771 4.37768 3.65671 0
M  V30 4171 O 396.705 5.61623 2.16478 0
M  V30 4172 H 400.531 3.03545 0.0968698 0
M  V30 4173 H 398.116 1.49389 -0.018074 0
M  V30 4174 H 399.998 3.37271 2.52638 0
M  V30 4175 H 398.673 2.18481 2.38847 0
M  V30 4176 H 397.58 3.68839 0.625174 0
M  V30 4177 H 398.913 4.84946 0.841941 0
M  V30 4178 N 400.565 -0.0233959 1.57583 0
M  V30 4179 C 401.475 -1.03907 2.10334 0
M  V30 4180 C 402.491 -1.39257 1.04323 0
M  V30 4181 O 403.667 -1.48462 1.36091 0
M  V30 4182 C 400.732 -2.31938 2.57693 0
M  V30 4183 C 399.793 -2.03117 3.78209 0
M  V30 4184 C 399.026 -3.25043 4.233 0
M  V30 4185 O 399.249 -4.35916 3.67876 0
M  V30 4186 O 398.183 -3.10411 5.15683 0
M  V30 4187 H 402.009 -0.620748 2.97288 0
M  V30 4188 H 399.594 -0.240743 1.47448 0
M  V30 4189 H 401.476 -3.07196 2.88458 0
M  V30 4190 H 400.151 -2.73055 1.73847 0
M  V30 4191 H 399.058 -1.25408 3.52454 0
M  V30 4192 H 400.391 -1.66852 4.63056 0
M  V30 4193 N 402.043 -1.548 -0.295768 0
M  V30 4194 C 403.32 -1.65014 -1.05023 0
M  V30 4195 C 403.7 -0.501805 -2.05049 0
M  V30 4196 O 403.048 0.500869 -2.22943 0
M  V30 4197 C 403.258 -3.03252 -1.72741 0
M  V30 4198 C 404.606 -3.60242 -2.24746 0
M  V30 4199 O 405.63 -3.05737 -1.82765 0
M  V30 4200 O 404.489 -4.55687 -3.01681 0
M  V30 4201 H 401.583 -0.669314 -0.485744 0
M  V30 4202 H 404.129 -1.67144 -0.293438 0
M  V30 4203 H 402.901 -3.7827 -1.00138 0
M  V30 4204 H 402.524 -3.04922 -2.55163 0
M  V30 4205 N 403.521 0.559213 -1.47345 0
M  V30 4206 C 404.768 1.31648 -1.53867 0
M  V30 4207 C 405.096 1.93468 -0.200104 0
M  V30 4208 O 404.351 1.78295 0.806799 0
M  V30 4209 C 404.65 2.44853 -2.6035 0
M  V30 4210 C 404.316 2.00876 -4.03683 0
M  V30 4211 C 402.978 1.88599 -4.42701 0
M  V30 4212 C 405.33 1.67279 -4.93626 0
M  V30 4213 C 402.658 1.41017 -5.69501 0
M  V30 4214 C 405.01 1.21169 -6.20887 0
M  V30 4215 C 403.674 1.07487 -6.58789 0
M  V30 4216 H 402.944 0.481734 -0.56304 0
M  V30 4217 H 405.591 0.627301 -1.80934 0
M  V30 4218 H 403.896 3.19318 -2.27032 0
M  V30 4219 H 405.593 3.03039 -2.62619 0
M  V30 4220 H 402.183 2.11374 -3.72853 0
M  V30 4221 H 406.367 1.75638 -4.64182 0
M  V30 4222 H 401.623 1.29086 -5.97618 0
M  V30 4223 H 405.797 0.942345 -6.89995 0
M  V30 4224 H 403.424 0.703946 -7.56934 0
M  V30 4225 N 404.999 1.35443 0.805782 0
M  V30 4226 C 405.947 1.28465 1.93906 0
M  V30 4227 C 406.941 0.17943 1.68447 0
M  V30 4228 O 408.147 0.345459 1.76654 0
M  V30 4229 H 404.522 0.399528 0.637088 0
M  V30 4230 H 406.493 2.24206 1.96912 0
M  V30 4231 C 405.242 1.07432 3.30687 0
M  V30 4232 H 404.565 1.91716 3.50835 0
M  V30 4233 H 406.005 1.06591 4.10383 0
M  V30 4234 C 404.464 -0.22179 3.36169 0
M  V30 4235 O 404.994 -1.21731 3.82811 0
M  V30 4236 N 403.2 -0.260841 2.89427 0
M  V30 4237 H 402.747 0.549884 2.51663 0
M  V30 4238 H 402.705 -1.12777 2.93477 0
M  V30 4239 N 406.477 -1.02803 1.19454 0
M  V30 4240 C 407.427 -2.0945 0.900827 0
M  V30 4241 C 408.411 -1.60335 -0.134715 0
M  V30 4242 O 409.603 -1.76857 0.0710924 0
M  V30 4243 C 406.732 -3.4044 0.442229 0
M  V30 4244 C 405.818 -3.96286 1.51056 0
M  V30 4245 N 406.209 -4.25785 2.73021 0
M  V30 4246 C 404.507 -4.24307 1.37404 0
M  V30 4247 C 405.208 -4.70654 3.41848 0
M  V30 4248 N 404.184 -4.72238 2.69243 0
M  V30 4249 H 407.986 -2.3015 1.82779 0
M  V30 4250 H 405.5 -1.20672 1.08683 0
M  V30 4251 H 407.497 -4.16354 0.21326 0
M  V30 4252 H 406.157 -3.21159 -0.478238 0
M  V30 4253 H 407.168 -4.15041 3.09776 0
M  V30 4254 H 403.845 -4.14285 0.517103 0
M  V30 4255 H 405.235 -5.02392 4.46152 0
M  V30 4256 N 407.956 -0.998596 -1.21925 0
M  V30 4257 C 408.886 -0.573688 -2.26343 0
M  V30 4258 C 409.867 0.402296 -1.65274 0
M  V30 4259 O 411.052 0.291683 -1.91997 0
M  V30 4260 C 408.182 0.106839 -3.47136 0
M  V30 4261 C 407.136 -0.788269 -4.20678 0
M  V30 4262 C 406.462 0.0254927 -5.34694 0
M  V30 4263 C 407.762 -2.08784 -4.78755 0
M  V30 4264 H 409.456 -1.44651 -2.62138 0
M  V30 4265 H 407.002 -0.696975 -1.26009 0
M  V30 4266 H 408.955 0.415531 -4.19346 0
M  V30 4267 H 407.679 1.01424 -3.10452 0
M  V30 4268 H 406.338 -1.08069 -3.50309 0
M  V30 4269 H 405.986 0.933989 -4.94253 0
M  V30 4270 H 405.686 -0.570437 -5.84825 0
M  V30 4271 H 407.21 0.328147 -6.09718 0
M  V30 4272 H 408.624 -1.84272 -5.42878 0
M  V30 4273 H 407.021 -2.63307 -5.39249 0
M  V30 4274 H 408.091 -2.76284 -3.98491 0
M  V30 4275 N 409.434 1.37368 -0.772513 0
M  V30 4276 C 410.683 1.98918 -0.333861 0
M  V30 4277 C 410.996 1.62017 1.09589 0
M  V30 4278 O 412.202 2.16676 1.63596 0
M  V30 4279 C 410.658 3.55735 -0.545971 0
M  V30 4280 C 410.266 4.01573 -1.98603 0
M  V30 4281 C 412.01 4.24156 -0.170979 0
M  V30 4282 C 409.917 5.51102 -2.1457 0
M  V30 4283 H 408.847 0.744214 -0.121085 0
M  V30 4284 H 411.498 1.56888 -0.95175 0
M  V30 4285 H 409.88 3.95748 0.141387 0
M  V30 4286 H 411.054 3.72803 -2.7084 0
M  V30 4287 H 409.369 3.45937 -2.31769 0
M  V30 4288 H 411.966 5.34024 -0.26878 0
M  V30 4289 H 412.309 4.06917 0.878855 0
M  V30 4290 H 412.842 3.89447 -0.810914 0
M  V30 4291 H 409.581 5.73268 -3.17875 0
M  V30 4292 H 409.101 5.81554 -1.46817 0
M  V30 4293 H 410.78 6.17083 -1.94468 0
M  V30 4294 N 410.912 0.523116 1.48665 0
M  V30 4295 C 411.875 -0.232592 2.28017 0
M  V30 4296 C 412.875 -0.874021 1.34972 0
M  V30 4297 O 414.065 -0.735132 1.57929 0
M  V30 4298 C 411.197 -1.33586 3.13636 0
M  V30 4299 H 412.39 0.464008 2.96289 0
M  V30 4300 H 409.943 0.278816 1.53793 0
M  V30 4301 H 410.678 -2.06593 2.4998 0
M  V30 4302 H 410.463 -0.881125 3.82071 0
M  V30 4303 H 411.953 -1.86759 3.73511 0
M  V30 4304 N 412.39 -1.55475 0.257931 0
M  V30 4305 C 413.337 -2.21837 -0.636939 0
M  V30 4306 C 414.307 -1.18596 -1.16294 0
M  V30 4307 O 415.492 -1.47081 -1.21539 0
M  V30 4308 C 412.632 -2.9301 -1.82317 0
M  V30 4309 C 411.745 -4.10931 -1.33265 0
M  V30 4310 C 410.88 -4.69791 -2.47931 0
M  V30 4311 C 409.919 -5.7994 -1.95796 0
M  V30 4312 N 409.056 -6.32935 -3.0387 0
M  V30 4313 H 413.896 -2.9793 -0.0643591 0
M  V30 4314 H 411.433 -1.47086 -0.0200031 0
M  V30 4315 H 413.391 -3.3248 -2.52018 0
M  V30 4316 H 412.021 -2.1937 -2.36805 0
M  V30 4317 H 411.073 -3.76699 -0.52931 0
M  V30 4318 H 412.385 -4.90417 -0.910654 0
M  V30 4319 H 411.539 -5.11892 -3.25656 0
M  V30 4320 H 410.278 -3.89545 -2.93438 0
M  V30 4321 H 409.283 -5.37305 -1.16546 0
M  V30 4322 H 410.508 -6.62043 -1.51246 0
M  V30 4323 H 408.454 -5.55591 -3.48791 0
M  V30 4324 H 408.371 -7.07645 -2.66035 0
M  V30 4325 H 409.639 -6.79695 -3.81621 0
M  V30 4326 N 413.868 0.0150385 -1.57593 0
M  V30 4327 C 414.831 0.995996 -2.06428 0
M  V30 4328 C 415.831 1.2818 -0.970903 0
M  V30 4329 O 417.021 1.22949 -1.23406 0
M  V30 4330 C 414.153 2.32506 -2.49307 0
M  V30 4331 H 415.346 0.573873 -2.94358 0
M  V30 4332 H 412.899 0.262186 -1.54085 0
M  V30 4333 H 413.634 2.79438 -1.64575 0
M  V30 4334 H 413.419 2.13087 -3.29145 0
M  V30 4335 H 414.909 3.02906 -2.87468 0
M  V30 4336 N 415.346 1.54954 0.287554 0
M  V30 4337 C 416.256 1.8991 1.37736 0
M  V30 4338 C 417.272 0.794701 1.54792 0
M  V30 4339 O 418.448 1.09243 1.69198 0
M  V30 4340 C 415.513 2.15108 2.71899 0
M  V30 4341 C 414.574 3.38752 2.63715 0
M  V30 4342 C 413.807 3.62739 3.91479 0
M  V30 4343 O 414.03 2.89492 4.91478 0
M  V30 4344 O 412.964 4.56267 3.92561 0
M  V30 4345 H 416.79 2.82652 1.11092 0
M  V30 4346 H 414.375 1.41315 0.484807 0
M  V30 4347 H 416.257 2.32806 3.51254 0
M  V30 4348 H 414.932 1.25551 2.9836 0
M  V30 4349 H 413.839 3.26405 1.82786 0
M  V30 4350 H 415.172 4.28483 2.42205 0
M  V30 4351 N 416.824 -0.551391 1.4764 0
M  V30 4352 C 418.049 -1.33837 1.58437 0
M  V30 4353 C 418.474 -1.866 0.237063 0
M  V30 4354 O 417.832 -1.6328 -0.787994 0
M  V30 4355 C 417.88 -2.48014 2.61766 0
M  V30 4356 O 416.984 -3.50419 2.1744 0
M  V30 4357 H 416.325 -0.397299 0.532024 0
M  V30 4358 H 418.855 -0.665759 1.93465 0
M  V30 4359 H 418.865 -2.94503 2.82369 0
M  V30 4360 H 417.54 -2.08969 3.5959 0
M  V30 4361 H 416.117 -3.10196 2.06961 0
M  V30 4362 N 418.302 -1.35869 -0.798587 0
M  V30 4363 C 419.232 -1.32118 -1.92528 0
M  V30 4364 C 420.213 -0.194209 -1.68988 0
M  V30 4365 O 421.398 -0.390426 -1.90235 0
M  V30 4366 C 418.528 -1.10047 -3.29404 0
M  V30 4367 C 417.482 -2.19471 -3.67446 0
M  V30 4368 C 416.808 -1.82555 -5.02571 0
M  V30 4369 C 418.108 -3.61495 -3.76987 0
M  V30 4370 H 419.802 -2.26394 -1.95924 0
M  V30 4371 H 417.348 -1.08981 -0.94123 0
M  V30 4372 H 419.301 -1.06061 -4.07835 0
M  V30 4373 H 418.025 -0.122195 -3.26371 0
M  V30 4374 H 416.684 -2.22568 -2.91306 0
M  V30 4375 H 416.332 -0.833249 -4.9605 0
M  V30 4376 H 416.032 -2.5581 -5.28995 0
M  V30 4377 H 417.556 -1.80108 -5.83432 0
M  V30 4378 H 418.97 -3.60676 -4.4563 0
M  V30 4379 H 417.367 -4.33577 -4.14887 0
M  V30 4380 H 418.437 -3.97065 -2.78329 0
M  V30 4381 N 419.78 1.02168 -1.19998 0
M  V30 4382 C 421.01 1.79036 -1.031 0
M  V30 4383 C 421.418 1.84409 0.423078 0
M  V30 4384 O 420.761 1.29228 1.30559 0
M  V30 4385 C 420.823 3.25185 -1.53281 0
M  V30 4386 C 420.487 3.43431 -3.01503 0
M  V30 4387 C 421.484 3.33063 -3.99206 0
M  V30 4388 C 419.169 3.69412 -3.40353 0
M  V30 4389 C 421.163 3.48413 -5.33748 0
M  V30 4390 C 418.85 3.84406 -4.75053 0
M  V30 4391 C 419.848 3.7391 -5.71559 0
M  V30 4392 O 419.536 3.88452 -7.03818 0
M  V30 4393 H 419.268 0.570043 -0.363355 0
M  V30 4394 H 421.822 1.29524 -1.59414 0
M  V30 4395 H 420.052 3.75756 -0.913483 0
M  V30 4396 H 421.741 3.83671 -1.32481 0
M  V30 4397 H 422.507 3.12934 -3.70537 0
M  V30 4398 H 418.386 3.76671 -2.65782 0
M  V30 4399 H 421.93 3.40137 -6.09059 0
M  V30 4400 H 417.827 4.04035 -5.03415 0
M  V30 4401 H 418.595 4.055 -7.10993 0
M  V30 4402 N 421.258 1.00505 1.21394 0
M  V30 4403 C 422.535 0.603277 1.86064 0
M  V30 4404 C 422.915 -0.919095 1.90042 0
M  V30 4405 O 422.263 -1.80607 1.39977 0
M  V30 4406 C 422.473 1.23772 3.26315 0
M  V30 4407 C 423.821 1.34586 4.02705 0
M  V30 4408 O 424.845 1.19304 3.35626 0
M  V30 4409 O 423.704 1.59169 5.22807 0
M  V30 4410 H 420.798 0.206634 0.800769 0
M  V30 4411 H 423.344 1.1017 1.29076 0
M  V30 4412 H 422.116 2.27848 3.18121 0
M  V30 4413 H 421.739 0.725648 3.90922 0
M  V30 4414 N 422.737 -1.36956 0.779787 0
M  V30 4415 C 423.67 -2.27896 0.117681 0
M  V30 4416 C 424.648 -1.46736 -0.700523 0
M  V30 4417 O 425.832 -1.76055 -0.673568 0
M  V30 4418 C 422.959 -3.28136 -0.839296 0
M  V30 4419 C 422.005 -4.26373 -0.10409 0
M  V30 4420 S 422.838 -5.2157 1.21348 0
M  V30 4421 C 423.994 -6.25359 0.260249 0
M  V30 4422 H 424.227 -2.83704 0.888778 0
M  V30 4423 H 421.76 -1.43352 0.57355 0
M  V30 4424 H 423.718 -3.86394 -1.38601 0
M  V30 4425 H 422.379 -2.7126 -1.58356 0
M  V30 4426 H 421.572 -4.97121 -0.82986 0
M  V30 4427 H 421.174 -3.72147 0.371858 0
M  V30 4428 H 423.466 -6.75145 -0.564435 0
M  V30 4429 H 424.409 -7.01885 0.936135 0
M  V30 4430 H 424.817 -5.64345 -0.132127 0
M  V30 4431 N 424.215 -0.530993 -1.48385 0
M  V30 4432 C 425.463 0.00273189 -2.021 0
M  V30 4433 C 425.784 1.34672 -1.41027 0
M  V30 4434 O 425.054 1.8724 -0.576012 0
M  V30 4435 H 423.634 0.00399774 -0.746989 0
M  V30 4436 H 426.296 -0.695054 -1.82085 0
M  V30 4437 H 425.392 0.11031 -3.11905 0
M  V30 4438 N 425.693 1.55336 -0.266172 0
M  V30 4439 C 426.939 1.99692 0.353681 0
M  V30 4440 C 427.272 1.1543 1.56172 0
M  V30 4441 O 426.547 0.222218 1.93226 0
M  V30 4442 C 426.83 3.52316 0.74466 0
M  V30 4443 C 426.683 4.47337 -0.470101 0
M  V30 4444 C 428.002 4.10588 1.58447 0
M  V30 4445 H 425.121 0.725961 0.12708 0
M  V30 4446 H 427.763 1.86336 -0.371333 0
M  V30 4447 H 425.913 3.63829 1.36239 0
M  V30 4448 H 427.585 4.4778 -1.10864 0
M  V30 4449 H 425.828 4.19364 -1.10978 0
M  V30 4450 H 426.499 5.51788 -0.15291 0
M  V30 4451 H 428.975 4.02297 1.06286 0
M  V30 4452 H 427.851 5.17607 1.82686 0
M  V30 4453 H 428.112 3.60253 2.56262 0
M  V30 4454 N 427.171 -0.0066808 1.57599 0
M  V30 4455 C 428.587 -0.36267 1.55425 0
M  V30 4456 C 428.787 -1.75209 0.995187 0
M  V30 4457 O 427.843 -2.44616 0.626058 0
M  V30 4458 C 429.156 -0.244017 2.99708 0
M  V30 4459 C 430.704 -0.319451 3.11366 0
M  V30 4460 C 431.179 -0.229998 4.57422 0
M  V30 4461 N 432.67 -0.288105 4.62303 0
M  V30 4462 C 433.405 -0.242127 5.72889 0
M  V30 4463 N 432.901 -0.147133 6.92644 0
M  V30 4464 N 434.694 -0.293502 5.61333 0
M  V30 4465 H 426.845 0.902314 1.92281 0
M  V30 4466 H 429.108 0.34525 0.882896 0
M  V30 4467 H 428.814 0.711678 3.44424 0
M  V30 4468 H 428.688 -1.02877 3.629 0
M  V30 4469 H 431.075 -1.26559 2.66584 0
M  V30 4470 H 431.156 0.495055 2.50964 0
M  V30 4471 H 430.8 0.712566 5.02877 0
M  V30 4472 H 430.73 -1.0629 5.15761 0
M  V30 4473 H 433.221 -0.363126 3.76151 0
M  V30 4474 H 433.534 -0.117763 7.7271 0
M  V30 4475 H 431.879 -0.112857 6.94908 0
M  V30 4476 H 435.07 -0.365864 4.66668 0
M  V30 4477 H 435.243 -0.254204 6.47501 0
M  V30 4478 N 428.649 -1.55105 -0.279332 0
M  V30 4479 C 429.874 -1.7976 -1.03446 0
M  V30 4480 C 430.299 -0.565952 -1.79384 0
M  V30 4481 O 429.657 0.484259 -1.74713 0
M  V30 4482 C 429.705 -3.0179 -1.97371 0
M  V30 4483 O 428.809 -2.76432 -3.06038 0
M  V30 4484 H 428.15 -0.594334 -0.29608 0
M  V30 4485 H 430.68 -2.02235 -0.310165 0
M  V30 4486 H 430.69 -3.30351 -2.39441 0
M  V30 4487 H 429.365 -3.91085 -1.4151 0
M  V30 4488 H 427.942 -2.58949 -2.68328 0
M  V30 4489 N 430.127 0.543554 -1.4793 0
M  V30 4490 C 431.374 1.30008 -1.55255 0
M  V30 4491 C 431.702 1.93245 -0.220612 0
M  V30 4492 O 430.957 1.79141 0.787843 0
M  V30 4493 C 431.256 2.42078 -2.62932 0
M  V30 4494 C 430.922 1.96583 -4.0579 0
M  V30 4495 C 429.584 1.83893 -4.44676 0
M  V30 4496 C 431.936 1.62034 -4.95373 0
M  V30 4497 C 429.264 1.34969 -5.70964 0
M  V30 4498 C 431.616 1.14577 -6.22137 0
M  V30 4499 C 430.28 1.00493 -6.59892 0
M  V30 4500 H 429.55 0.475735 -0.568117 0
M  V30 4501 H 432.197 0.608075 -1.81589 0
M  V30 4502 H 430.502 3.16892 -2.30406 0
M  V30 4503 H 432.199 3.00236 -2.65818 0
M  V30 4504 H 428.789 2.07407 -3.75074 0
M  V30 4505 H 432.973 1.70705 -4.66019 0
M  V30 4506 H 428.229 1.2274 -5.98953 0
M  V30 4507 H 432.403 0.869109 -6.90955 0
M  V30 4508 H 430.03 0.623624 -7.57638 0
M  V30 4509 N 431.605 1.3629 0.791371 0
M  V30 4510 C 432.568 1.30309 1.88553 0
M  V30 4511 C 433.568 0.211204 1.59407 0
M  V30 4512 O 434.758 0.465865 1.67855 0
M  V30 4513 C 431.89 1.01956 3.25297 0
M  V30 4514 H 433.083 2.27614 1.95273 0
M  V30 4515 H 430.636 1.21035 0.988953 0
M  V30 4516 H 431.371 0.050998 3.2426 0
M  V30 4517 H 431.156 1.80968 3.4784 0
M  V30 4518 H 432.646 1.0037 4.05359 0
M  V30 4519 N 433.083 -1.0153 1.20538 0
M  V30 4520 C 434.332 -1.74558 1.01057 0
M  V30 4521 C 434.645 -1.90168 -0.457756 0
M  V30 4522 O 435.851 -2.60301 -0.771722 0
M  V30 4523 C 434.307 -3.13963 1.75941 0
M  V30 4524 C 433.915 -3.06361 3.26875 0
M  V30 4525 C 435.659 -3.91191 1.64832 0
M  V30 4526 C 433.566 -4.40782 3.94291 0
M  V30 4527 H 432.496 -0.654417 0.374505 0
M  V30 4528 H 435.147 -1.13521 1.44171 0
M  V30 4529 H 433.529 -3.75549 1.25614 0
M  V30 4530 H 434.703 -2.54074 3.84425 0
M  V30 4531 H 433.018 -2.42625 3.38411 0
M  V30 4532 H 435.615 -4.90644 2.12539 0
M  V30 4533 H 435.958 -4.11884 0.604745 0
M  V30 4534 H 436.491 -3.36236 2.12579 0
M  V30 4535 H 433.23 -4.25292 4.98805 0
M  V30 4536 H 432.75 -4.9307 3.41529 0
M  V30 4537 H 434.429 -5.09621 3.98617 0
M  V30 4538 N 434.561 -1.01147 -1.20859 0
M  V30 4539 C 435.791 -0.715872 -1.93801 0
M  V30 4540 C 436.199 0.726592 -1.74692 0
M  V30 4541 O 435.542 1.50397 -1.05482 0
M  V30 4542 C 435.604 -0.965269 -3.46299 0
M  V30 4543 C 435.268 -2.39584 -3.89164 0
M  V30 4544 C 436.265 -3.3764 -3.95342 0
M  V30 4545 C 433.95 -2.73522 -4.21297 0
M  V30 4546 C 435.944 -4.67698 -4.33056 0
M  V30 4547 C 433.631 -4.03794 -4.58687 0
M  V30 4548 C 434.629 -5.00693 -4.64538 0
M  V30 4549 O 434.317 -6.28635 -5.01072 0
M  V30 4550 H 434.049 -0.262524 -0.622942 0
M  V30 4551 H 436.603 -1.35413 -1.54443 0
M  V30 4552 H 434.833 -0.269847 -3.85757 0
M  V30 4553 H 436.522 -0.662051 -4.00464 0
M  V30 4554 H 437.288 -3.12757 -3.70686 0
M  V30 4555 H 433.167 -1.9879 -4.15937 0
M  V30 4556 H 436.711 -5.4333 -4.37537 0
M  V30 4557 H 432.608 -4.28459 -4.82797 0
M  V30 4558 H 433.376 -6.32847 -5.19083 0
M  V30 4559 N 436.039 1.36541 -0.78704 0
M  V30 4560 C 437.285 2.00044 -0.367938 0
M  V30 4561 C 437.64 1.61345 1.04812 0
M  V30 4562 O 436.933 0.856936 1.71368 0
M  V30 4563 C 437.127 3.54343 -0.466485 0
M  V30 4564 C 436.956 4.08029 -1.89058 0
M  V30 4565 C 435.726 4.38284 -2.51466 0
M  V30 4566 C 437.924 4.27954 -2.85236 0
M  V30 4567 N 435.906 4.77778 -3.85488 0
M  V30 4568 C 437.277 4.70227 -4.04088 0
M  V30 4569 C 439.332 4.10119 -2.82324 0
M  V30 4570 C 438.035 4.96532 -5.20432 0
M  V30 4571 C 440.061 4.37569 -3.97854 0
M  V30 4572 C 439.423 4.80095 -5.15449 0
M  V30 4573 H 435.522 0.760525 -0.182004 0
M  V30 4574 H 438.106 1.65589 -1.02413 0
M  V30 4575 H 436.277 3.88072 0.159606 0
M  V30 4576 H 438.009 4.04693 -0.0238577 0
M  V30 4577 H 434.764 4.27905 -2.02965 0
M  V30 4578 H 435.188 5.01813 -4.54437 0
M  V30 4579 H 439.83 3.76399 -1.92571 0
M  V30 4580 H 437.548 5.29134 -6.10773 0
M  V30 4581 H 441.134 4.25341 -3.96958 0
M  V30 4582 H 440.014 5.00925 -6.0336 0
M  V30 4583 N 437.518 0.538854 1.48102 0
M  V30 4584 C 438.795 -0.0568108 1.95517 0
M  V30 4585 C 439.175 -1.50408 1.48124 0
M  V30 4586 O 438.523 -2.17133 0.711727 0
M  V30 4587 C 438.733 0.0696262 3.48931 0
M  V30 4588 C 440.081 -0.0851202 4.24515 0
M  V30 4589 O 441.105 -0.0037347 3.562 0
M  V30 4590 O 439.964 -0.257025 5.45895 0
M  V30 4591 H 437.058 -0.0743695 0.823649 0
M  V30 4592 H 439.604 0.604081 1.58584 0
M  V30 4593 H 438.376 1.07744 3.76174 0
M  V30 4594 H 437.999 -0.629714 3.92582 0
M  V30 4595 N 438.996 -1.55193 0.274407 0
M  V30 4596 C 440.273 -1.91584 -0.394331 0
M  V30 4597 C 440.653 -1.19858 -1.73774 0
M  V30 4598 O 440.001 -0.3252 -2.26174 0
M  V30 4599 C 440.211 -3.4487 -0.535311 0
M  V30 4600 C 441.559 -4.16636 -0.818534 0
M  V30 4601 O 442.583 -3.5076 -0.620146 0
M  V30 4602 O 441.442 -5.33209 -1.19792 0
M  V30 4603 H 438.536 -0.798349 -0.215794 0
M  V30 4604 H 441.082 -1.66646 0.320507 0
M  V30 4605 H 439.854 -3.89145 0.410141 0
M  V30 4606 H 439.477 -3.75759 -1.29964 0
M  V30 4607 N 440.474 -0.00167713 -1.576 0
M  V30 4608 C 441.723 0.682021 -1.89819 0
M  V30 4609 C 442.036 1.74844 -0.876871 0
M  V30 4610 O 443.242 2.48688 -1.08934 0
M  V30 4611 C 441.698 1.26425 -3.36964 0
M  V30 4612 C 441.306 0.232568 -4.47396 0
M  V30 4613 C 443.05 1.92604 -3.78291 0
M  V30 4614 C 440.957 0.824882 -5.85619 0
M  V30 4615 H 439.887 0.258499 -0.708304 0
M  V30 4616 H 442.538 -0.0624957 -1.83394 0
M  V30 4617 H 440.92 2.05949 -3.38232 0
M  V30 4618 H 442.094 -0.5382 -4.57646 0
M  V30 4619 H 440.409 -0.32888 -4.15099 0
M  V30 4620 H 443.006 2.37827 -4.78897 0
M  V30 4621 H 443.349 2.75732 -3.11894 0
M  V30 4622 H 443.882 1.19812 -3.79328 0
M  V30 4623 H 440.621 0.0323542 -6.55492 0
M  V30 4624 H 440.141 1.56477 -5.79029 0
M  V30 4625 H 441.82 1.32301 -6.33329 0
M  V30 4626 N 441.952 1.55251 0.271103 0
M  V30 4627 C 442.884 1.84675 1.35749 0
M  V30 4628 C 443.897 0.731366 1.45447 0
M  V30 4629 O 445.086 1.00924 1.4723 0
M  V30 4630 C 442.186 1.99638 2.73857 0
M  V30 4631 C 441.359 3.30312 2.86727 0
M  V30 4632 C 440.418 3.35318 4.05522 0
M  V30 4633 O 439.444 4.08682 3.96191 0
M  V30 4634 N 440.646 2.62857 5.17577 0
M  V30 4635 H 443.411 2.78445 1.10853 0
M  V30 4636 H 440.972 1.55191 0.461218 0
M  V30 4637 H 442.964 2.00355 3.51625 0
M  V30 4638 H 441.534 1.12725 2.91568 0
M  V30 4639 H 440.754 3.42118 1.95829 0
M  V30 4640 H 442.042 4.16488 2.92258 0
M  V30 4641 H 441.44 2.02939 5.28046 0
M  V30 4642 H 439.997 2.69295 5.93568 0
M  V30 4643 N 443.43 -0.535701 1.48216 0
M  V30 4644 C 444.707 -1.29683 1.46429 0
M  V30 4645 C 445.087 -2.10391 0.172852 0
M  V30 4646 O 444.435 -2.12282 -0.845488 0
M  V30 4647 C 444.645 -2.18313 2.72287 0
M  V30 4648 C 445.993 -2.78639 3.20383 0
M  V30 4649 O 447.017 -2.28604 2.73164 0
M  V30 4650 O 445.876 -3.69636 4.02531 0
M  V30 4651 H 442.97 -0.585026 0.584529 0
M  V30 4652 H 445.516 -0.552827 1.60443 0
M  V30 4653 H 444.288 -1.58421 3.57797 0
M  V30 4654 H 443.911 -2.99971 2.60966 0
M  V30 4655 N 444.908 -1.36708 -0.784132 0
M  V30 4656 C 445.855 -1.31466 -1.89698 0
M  V30 4657 C 446.825 -0.18239 -1.65096 0
M  V30 4658 O 448.01 -0.369762 -1.87183 0
M  V30 4659 C 445.15 -1.1151 -3.26588 0
M  V30 4660 C 444.263 -2.33859 -3.63227 0
M  V30 4661 C 443.398 -2.06873 -4.89262 0
M  V30 4662 C 442.437 -3.25154 -5.18595 0
M  V30 4663 N 441.574 -2.978 -6.35814 0
M  V30 4664 H 446.414 -2.26619 -1.93515 0
M  V30 4665 H 443.951 -1.12625 -0.946256 0
M  V30 4666 H 445.909 -0.979653 -4.05535 0
M  V30 4667 H 444.539 -0.200103 -3.22179 0
M  V30 4668 H 443.591 -2.58188 -2.79362 0
M  V30 4669 H 444.903 -3.22109 -3.8085 0
M  V30 4670 H 444.057 -1.90289 -5.76086 0
M  V30 4671 H 442.796 -1.15942 -4.73718 0
M  V30 4672 H 441.801 -3.42292 -4.30251 0
M  V30 4673 H 443.026 -4.1692 -5.36055 0
M  V30 4674 H 440.972 -2.09485 -6.21653 0
M  V30 4675 H 440.889 -3.7959 -6.53794 0
M  V30 4676 H 442.157 -2.84805 -7.25607 0
M  V30 4677 N 446.386 1.0089 -1.21074 0
M  V30 4678 C 447.611 1.78727 -1.05221 0
M  V30 4679 C 448.036 1.83932 0.393795 0
M  V30 4680 O 447.394 1.28004 1.28393 0
M  V30 4681 C 447.442 3.20665 -1.64944 0
M  V30 4682 O 446.546 4.02632 -0.892273 0
M  V30 4683 H 445.887 0.550973 -0.370574 0
M  V30 4684 H 448.417 1.26847 -1.60534 0
M  V30 4685 H 448.427 3.71352 -1.69002 0
M  V30 4686 H 447.102 3.16191 -2.70177 0
M  V30 4687 H 445.679 3.61207 -0.926492 0
M  V30 4688 N 447.864 1.01787 1.20321 0
M  V30 4689 C 448.827 0.593972 2.2137 0
M  V30 4690 C 449.827 -0.336553 1.57239 0
M  V30 4691 O 451.017 -0.125069 1.7375 0
M  V30 4692 C 448.149 -0.132433 3.40643 0
M  V30 4693 H 449.342 1.48791 2.60387 0
M  V30 4694 H 446.895 0.807803 1.33807 0
M  V30 4695 H 447.63 -1.04123 3.0713 0
M  V30 4696 H 447.415 0.53605 3.88418 0
M  V30 4697 H 448.905 -0.416314 4.1552 0
M  V30 4698 N 449.342 -1.36122 0.79427 0
M  V30 4699 C 450.305 -2.28309 0.201889 0
M  V30 4700 C 451.305 -1.49041 -0.603603 0
M  V30 4701 O 452.495 -1.68964 -0.423888 0
M  V30 4702 C 449.627 -3.3321 -0.719978 0
M  V30 4703 H 450.82 -2.82208 1.01481 0
M  V30 4704 H 448.373 -1.45768 0.564037 0
M  V30 4705 H 449.108 -2.84475 -1.55706 0
M  V30 4706 H 448.893 -3.91835 -0.144266 0
M  V30 4707 H 450.383 -4.02044 -1.12916 0
M  V30 4708 N 450.82 -0.546701 -1.47814 0
M  V30 4709 C 451.767 0.206854 -2.29871 0
M  V30 4710 C 452.737 0.918235 -1.38411 0
M  V30 4711 O 453.922 0.915991 -1.67375 0
M  V30 4712 C 451.062 1.23746 -3.22151 0
M  V30 4713 C 450.175 0.533216 -4.28697 0
M  V30 4714 C 449.31 1.5482 -5.08138 0
M  V30 4715 C 448.349 0.828347 -6.06469 0
M  V30 4716 N 447.486 1.78966 -6.78908 0
M  V30 4717 H 452.326 -0.499037 -2.93792 0
M  V30 4718 H 449.863 -0.25793 -1.44821 0
M  V30 4719 H 451.821 1.84746 -3.74065 0
M  V30 4720 H 450.451 1.91151 -2.60117 0
M  V30 4721 H 449.503 -0.191089 -3.7992 0
M  V30 4722 H 450.815 -0.0311987 -4.9879 0
M  V30 4723 H 449.969 2.23202 -5.6415 0
M  V30 4724 H 448.708 2.14652 -4.37922 0
M  V30 4725 H 447.713 0.130539 -5.49645 0
M  V30 4726 H 448.938 0.235907 -6.7869 0
M  V30 4727 H 446.884 2.37675 -6.1143 0
M  V30 4728 H 446.801 1.27712 -7.45135 0
M  V30 4729 H 448.069 2.46496 -7.395 0
M  V30 4730 N 452.299 1.55045 -0.282633 0
M  V30 4731 C 453.249 2.19514 0.616249 0
M  V30 4732 C 454.233 1.16216 1.11277 0
M  V30 4733 O 455.425 1.42004 1.05659 0
M  V30 4734 C 452.554 2.92548 1.7964 0
M  V30 4735 C 451.64 4.03142 1.31671 0
M  V30 4736 N 452.031 5.0276 0.553695 0
M  V30 4737 C 450.329 4.1635 1.59903 0
M  V30 4738 C 451.03 5.80923 0.30054 0
M  V30 4739 N 450.006 5.3651 0.875116 0
M  V30 4740 H 453.808 2.93889 0.0255363 0
M  V30 4741 H 451.322 1.62169 -0.0865362 0
M  V30 4742 H 453.319 3.37188 2.45173 0
M  V30 4743 H 451.979 2.19685 2.39099 0
M  V30 4744 H 452.99 5.17512 0.20032 0
M  V30 4745 H 449.667 3.54682 2.20243 0
M  V30 4746 H 451.057 6.7118 -0.311053 0
M  V30 4747 N 453.777 0.010035 1.57597 0
M  V30 4748 C 454.74 -0.963029 2.07986 0
M  V30 4749 C 455.74 -1.26619 0.991173 0
M  V30 4750 O 456.93 -1.2097 1.25347 0
M  V30 4751 C 454.062 -2.2851 2.52974 0
M  V30 4752 H 455.255 -0.526971 2.95234 0
M  V30 4753 H 452.808 -0.237639 1.54483 0
M  V30 4754 H 453.543 -2.76784 1.69 0
M  V30 4755 H 453.328 -2.07824 3.32493 0
M  V30 4756 H 454.818 -2.98294 2.9225 0
M  V30 4757 N 455.255 -1.55392 -0.262866 0
M  V30 4758 C 456.187 -1.85392 -1.34768 0
M  V30 4759 C 457.2 -0.739069 -1.45057 0
M  V30 4760 O 458.389 -1.01703 -1.46693 0
M  V30 4761 C 455.489 -2.01088 -2.72795 0
M  V30 4762 C 454.662 -3.31828 -2.84972 0
M  V30 4763 C 453.721 -3.37464 -4.03738 0
M  V30 4764 O 452.747 -4.10778 -3.94018 0
M  V30 4765 N 453.949 -2.65599 -5.16176 0
M  V30 4766 H 456.714 -2.79029 -1.09375 0
M  V30 4767 H 454.275 -1.55434 -0.452981 0
M  V30 4768 H 456.267 -2.02217 -3.50557 0
M  V30 4769 H 454.837 -1.1427 -2.90966 0
M  V30 4770 H 454.057 -3.43152 -1.94012 0
M  V30 4771 H 455.345 -4.18032 -2.90045 0
M  V30 4772 H 454.743 -2.05736 -5.26962 0
M  V30 4773 H 453.3 -2.72439 -5.92132 0
M  V30 4774 N 456.733 0.527833 -1.48498 0
M  V30 4775 C 457.979 1.28545 -1.56857 0
M  V30 4776 C 458.312 1.92678 -0.242651 0
M  V30 4777 O 457.587 1.79394 0.751545 0
M  V30 4778 C 457.87 2.37314 -2.70839 0
M  V30 4779 C 457.723 1.77858 -4.13142 0
M  V30 4780 C 459.042 3.39068 -2.80573 0
M  V30 4781 H 456.161 0.466006 -0.570971 0
M  V30 4782 H 458.803 0.587784 -1.8068 0
M  V30 4783 H 456.953 2.96821 -2.50658 0
M  V30 4784 H 458.625 1.22385 -4.44769 0
M  V30 4785 H 456.868 1.08383 -4.20042 0
M  V30 4786 H 457.539 2.56624 -4.88721 0
M  V30 4787 H 460.015 2.89518 -2.98862 0
M  V30 4788 H 458.891 4.12566 -3.6205 0
M  V30 4789 H 459.152 3.9975 -1.88818 0
M  V30 4790 N 458.211 1.37122 0.776871 0
M  V30 4791 C 459.141 1.35164 1.90402 0
M  V30 4792 C 460.122 0.221069 1.68657 0
M  V30 4793 O 461.307 0.420642 1.8959 0
M  V30 4794 C 458.437 1.15274 3.27611 0
M  V30 4795 C 457.391 2.25289 3.63908 0
M  V30 4796 C 456.717 1.90527 4.99603 0
M  V30 4797 C 458.017 3.67446 3.71188 0
M  V30 4798 H 459.711 2.29482 1.92297 0
M  V30 4799 H 457.257 1.10465 0.923773 0
M  V30 4800 H 459.21 1.12536 4.06096 0
M  V30 4801 H 457.934 0.174102 3.26136 0
M  V30 4802 H 456.593 2.27174 2.87728 0
M  V30 4803 H 456.241 0.91206 4.94662 0
M  V30 4804 H 455.941 2.64193 5.24858 0
M  V30 4805 H 457.465 1.89367 5.80493 0
M  V30 4806 H 458.879 3.67719 4.39836 0
M  V30 4807 H 457.276 4.40123 4.07936 0
M  V30 4808 H 458.346 4.01443 2.71977 0
M  V30 4809 N 459.689 -1.00246 1.21608 0
M  V30 4810 C 460.637 -2.11193 0.97469 0
M  V30 4811 C 461.631 -1.69216 -0.0789303 0
M  V30 4812 O 462.837 -1.79853 0.0726806 0
M  V30 4813 H 459.212 -0.690455 0.297953 0
M  V30 4814 H 461.183 -2.2873 1.91638 0
M  V30 4815 C 459.932 -3.43182 0.558717 0
M  V30 4816 H 459.255 -3.75918 1.3611 0
M  V30 4817 H 460.695 -4.21823 0.429154 0
M  V30 4818 C 459.154 -3.28882 -0.730648 0
M  V30 4819 O 459.684 -3.59835 -1.78554 0
M  V30 4820 N 457.89 -2.8209 -0.698131 0
M  V30 4821 H 457.437 -2.57099 0.16061 0
M  V30 4822 H 457.395 -2.72903 -1.56113 0
M  V30 4823 N 461.167 -1.02423 -1.1978 0
M  V30 4824 C 462.583 -0.740459 -1.41384 0
M  V30 4825 C 462.783 0.676827 -1.89793 0
M  V30 4826 O 461.839 1.4435 -2.0717 0
M  V30 4827 C 463.152 -1.77264 -2.42895 0
M  V30 4828 C 464.7 -1.79165 -2.56649 0
M  V30 4829 C 465.175 -2.8133 -3.6141 0
M  V30 4830 N 466.666 -2.80118 -3.68901 0
M  V30 4831 C 467.401 -3.55824 -4.49641 0
M  V30 4832 N 466.897 -4.41231 -5.34123 0
M  V30 4833 N 468.69 -3.44387 -4.44246 0
M  V30 4834 H 460.841 -1.9391 -0.866764 0
M  V30 4835 H 463.104 -0.838074 -0.443098 0
M  V30 4836 H 462.81 -2.7884 -2.14339 0
M  V30 4837 H 462.684 -1.59108 -3.42001 0
M  V30 4838 H 465.071 -0.782702 -2.84531 0
M  V30 4839 H 465.152 -2.01396 -1.57713 0
M  V30 4840 H 464.796 -3.82394 -3.34271 0
M  V30 4841 H 464.726 -2.56359 -4.59986 0
M  V30 4842 H 467.217 -2.1817 -3.08562 0
M  V30 4843 H 467.53 -4.95747 -5.92836 0
M  V30 4844 H 465.875 -4.45306 -5.33599 0
M  V30 4845 H 469.066 -2.7708 -3.77285 0
M  V30 4846 H 469.239 -4.0364 -5.06931 0
M  V30 4847 N 462.645 1.35699 -0.801477 0
M  V30 4848 C 463.892 1.98913 -0.379459 0
M  V30 4849 C 464.22 1.63592 1.05204 0
M  V30 4850 O 463.475 0.888563 1.74365 0
M  V30 4851 C 463.774 3.53828 -0.504041 0
M  V30 4852 C 463.44 4.09002 -1.8981 0
M  V30 4853 C 462.102 4.23783 -2.27951 0
M  V30 4854 C 464.454 4.38939 -2.81038 0
M  V30 4855 C 461.782 4.65816 -3.56696 0
M  V30 4856 C 464.134 4.82409 -4.09224 0
M  V30 4857 C 462.798 4.95395 -4.4737 0
M  V30 4858 H 462.068 0.727874 -0.138854 0
M  V30 4859 H 464.715 1.61994 -1.02128 0
M  V30 4860 H 463.02 3.91175 0.221242 0
M  V30 4861 H 464.717 4.00687 -0.158361 0
M  V30 4862 H 461.307 3.97946 -1.59176 0
M  V30 4863 H 465.491 4.27077 -2.52821 0
M  V30 4864 H 460.747 4.74059 -3.86106 0
M  V30 4865 H 464.921 5.04535 -4.80018 0
M  V30 4866 H 462.548 5.27724 -5.47185 0
M  V30 4867 N 464.123 0.554532 1.47522 0
M  V30 4868 C 465.071 -0.207765 2.3167 0
M  V30 4869 C 466.065 -0.911914 1.4276 0
M  V30 4870 O 467.271 -0.833504 1.59539 0
M  V30 4871 H 463.646 -0.0858726 0.747081 0
M  V30 4872 H 465.617 0.521178 2.93813 0
M  V30 4873 C 464.366 -1.2263 3.25357 0
M  V30 4874 H 463.689 -0.693887 3.93732 0
M  V30 4875 H 465.129 -1.73062 3.87073 0
M  V30 4876 C 463.588 -2.27278 2.4869 0
M  V30 4877 O 464.118 -3.34156 2.22941 0
M  V30 4878 N 462.324 -2.01134 2.09746 0
M  V30 4879 H 461.871 -1.14232 2.30887 0
M  V30 4880 H 461.829 -2.71369 1.58765 0
M  V30 4881 N 465.601 -1.54893 0.290851 0
M  V30 4882 C 466.511 -2.26812 -0.59945 0
M  V30 4883 C 467.527 -1.29963 -1.15696 0
M  V30 4884 O 468.703 -1.62928 -1.18391 0
M  V30 4885 C 465.768 -2.98716 -1.75982 0
M  V30 4886 C 464.829 -4.1108 -1.2374 0
M  V30 4887 C 464.062 -4.79546 -2.34246 0
M  V30 4888 O 464.285 -4.47309 -3.53936 0
M  V30 4889 O 463.219 -5.67165 -2.01512 0
M  V30 4890 H 467.045 -3.03696 -0.0163561 0
M  V30 4891 H 464.63 -1.49289 0.0576755 0
M  V30 4892 H 466.512 -3.43851 -2.43607 0
M  V30 4893 H 465.187 -2.24737 -2.3297 0
M  V30 4894 H 464.094 -3.70367 -0.527163 0
M  V30 4895 H 465.427 -4.87007 -0.71307 0
M  V30 4896 N 467.08 -0.0183926 -1.57589 0
M  V30 4897 C 467.99 0.982943 -2.13015 0
M  V30 4898 C 469.006 1.36443 -1.07979 0
M  V30 4899 O 470.182 1.44802 -1.3998 0
M  V30 4900 C 467.247 2.25024 -2.63752 0
M  V30 4901 C 466.308 1.93018 -3.83461 0
M  V30 4902 C 465.541 3.13706 -4.31769 0
M  V30 4903 O 465.764 4.2601 -3.79305 0
M  V30 4904 O 464.698 2.96629 -5.23732 0
M  V30 4905 H 468.524 0.541709 -2.9883 0
M  V30 4906 H 466.109 0.201565 -1.48034 0
M  V30 4907 H 467.991 2.99441 -2.96502 0
M  V30 4908 H 466.666 2.68349 -1.81026 0
M  V30 4909 H 465.573 1.16019 -3.55655 0
M  V30 4910 H 466.906 1.54516 -4.67317 0
M  V30 4911 N 468.558 1.5553 0.254621 0
M  V30 4912 C 469.805 1.77 0.983736 0
M  V30 4913 C 470.133 0.58133 1.85609 0
M  V30 4914 O 469.388 -0.435621 1.9079 0
M  V30 4915 C 469.687 3.03891 1.88109 0
M  V30 4916 C 469.353 4.35597 1.16472 0
M  V30 4917 C 468.015 4.7139 0.966714 0
M  V30 4918 C 470.367 5.1705 0.656387 0
M  V30 4919 C 467.695 5.86176 0.247942 0
M  V30 4920 C 470.047 6.32581 -0.0488807 0
M  V30 4921 C 468.711 6.67 -0.258438 0
M  V30 4922 H 467.981 0.647688 0.359974 0
M  V30 4923 H 470.628 1.89802 0.254463 0
M  V30 4924 H 468.933 2.86068 2.67717 0
M  V30 4925 H 470.63 3.17701 2.44677 0
M  V30 4926 H 467.22 4.07475 1.32899 0
M  V30 4927 H 471.404 4.8986 0.796933 0
M  V30 4928 H 466.66 6.11354 0.075035 0
M  V30 4929 H 470.834 6.94942 -0.450444 0
M  V30 4930 H 468.461 7.55793 -0.817358 0
M  V30 4931 N 470.036 -0.519951 1.48776 0
M  V30 4932 C 471.282 -1.27711 1.57536 0
M  V30 4933 C 471.615 -1.92547 0.252866 0
M  V30 4934 O 470.89 -1.7979 -0.742021 0
M  V30 4935 C 471.173 -2.35875 2.72094 0
M  V30 4936 C 471.026 -1.75664 4.1408 0
M  V30 4937 C 472.345 -3.37575 2.82367 0
M  V30 4938 H 469.464 -0.462971 0.573434 0
M  V30 4939 H 472.106 -0.578194 1.80989 0
M  V30 4940 H 470.256 -2.95488 2.52228 0
M  V30 4941 H 471.928 -1.20025 4.45412 0
M  V30 4942 H 470.171 -1.06154 4.20611 0
M  V30 4943 H 470.842 -2.54029 4.90075 0
M  V30 4944 H 473.318 -2.87929 3.00393 0
M  V30 4945 H 472.194 -4.1064 3.64233 0
M  V30 4946 H 472.455 -3.98743 1.90936 0
M  V30 4947 N 471.514 -1.37532 -0.769588 0
M  V30 4948 C 472.461 -1.3347 -1.88293 0
M  V30 4949 C 473.431 -0.199891 -1.64893 0
M  V30 4950 O 474.616 -0.389594 -1.8678 0
M  V30 4951 C 471.756 -1.14968 -3.25387 0
M  V30 4952 C 470.869 -2.37698 -3.60727 0
M  V30 4953 C 470.004 -2.12051 -4.8704 0
M  V30 4954 C 469.043 -3.30636 -5.15117 0
M  V30 4955 N 468.18 -3.04527 -6.3262 0
M  V30 4956 H 473.02 -2.28658 -1.911 0
M  V30 4957 H 470.557 -1.13622 -0.934257 0
M  V30 4958 H 472.515 -1.02261 -4.04473 0
M  V30 4959 H 471.145 -0.234263 -3.21949 0
M  V30 4960 H 470.197 -2.61137 -2.76608 0
M  V30 4961 H 471.509 -3.26131 -3.77413 0
M  V30 4962 H 470.663 -1.96388 -5.74035 0
M  V30 4963 H 469.402 -1.20959 -4.72462 0
M  V30 4964 H 468.407 -3.46836 -4.26597 0
M  V30 4965 H 469.632 -4.22582 -5.31603 0
M  V30 4966 H 467.578 -2.16067 -6.19396 0
M  V30 4967 H 467.495 -3.86503 -6.49732 0
M  V30 4968 H 468.763 -2.92485 -7.22546 0
M  V30 4969 N 472.992 0.995999 -1.22138 0
M  V30 4970 C 473.955 2.06711 -0.990109 0
M  V30 4971 C 474.955 1.60744 0.0422978 0
M  V30 4972 O 476.145 1.73095 -0.195895 0
M  V30 4973 C 473.277 3.37288 -0.49491 0
M  V30 4974 H 474.47 2.28661 -1.94047 0
M  V30 4975 H 472.023 1.16711 -1.03963 0
M  V30 4976 H 472.758 3.21022 0.459948 0
M  V30 4977 H 472.543 3.71986 -1.23971 0
M  V30 4978 H 474.033 4.16103 -0.353253 0
M  V30 4979 N 474.47 1.03057 1.19235 0
M  V30 4980 C 475.417 0.612832 2.22515 0
M  V30 4981 C 476.387 -0.374224 1.61829 0
M  V30 4982 O 477.572 -0.270501 1.88873 0
M  V30 4983 C 474.712 -0.028475 3.45088 0
M  V30 4984 C 473.825 1.00483 4.20151 0
M  V30 4985 C 472.96 0.333102 5.30155 0
M  V30 4986 C 471.999 1.3522 5.96977 0
M  V30 4987 N 471.136 0.70616 6.9854 0
M  V30 4988 H 475.976 1.49812 2.57605 0
M  V30 4989 H 473.513 0.749658 1.26564 0
M  V30 4990 H 475.471 -0.417548 4.15105 0
M  V30 4991 H 474.101 -0.877334 3.10649 0
M  V30 4992 H 473.153 1.51194 3.49062 0
M  V30 4993 H 474.465 1.77929 4.65986 0
M  V30 4994 H 473.619 -0.110725 6.06599 0
M  V30 4995 H 472.358 -0.473547 4.85396 0
M  V30 4996 H 471.363 1.80627 5.19282 0
M  V30 4997 H 472.588 2.16037 6.4382 0
M  V30 4998 H 470.534 -0.0803667 6.55951 0
M  V30 4999 H 470.451 1.41848 7.42573 0
M  V30 5000 H 471.719 0.286391 7.78974 0
M  V30 5001 N 475.948 -1.35272 0.808662 0
M  V30 5002 C 477.196 -1.98316 0.389233 0
M  V30 5003 C 477.517 -1.64465 -1.04767 0
M  V30 5004 O 476.787 -0.928175 -1.72516 0
M  V30 5005 H 475.367 -0.733585 0.140935 0
M  V30 5006 H 478.029 -1.6515 1.03496 0
M  V30 5007 H 477.125 -3.08123 0.496631 0
M  V30 5008 N 477.426 -0.562348 -1.47226 0
M  V30 5009 C 478.703 0.0256985 -1.95583 0
M  V30 5010 C 479.083 1.48032 -1.50498 0
M  V30 5011 O 478.431 2.15973 -0.746181 0
M  V30 5012 C 478.641 -0.125129 -3.48776 0
M  V30 5013 C 479.989 0.0175728 -4.24596 0
M  V30 5014 O 481.013 -0.0529341 -3.56161 0
M  V30 5015 O 479.872 0.170145 -5.46235 0
M  V30 5016 H 476.966 0.0612565 -0.824728 0
M  V30 5017 H 479.512 -0.629233 -1.57603 0
M  V30 5018 H 478.284 -1.13715 -3.74412 0
M  V30 5019 H 477.907 0.567178 -3.93534 0
M  V30 5020 N 478.904 1.54736 -0.299062 0
M  V30 5021 C 480.15 2.00397 0.311244 0
M  V30 5022 C 480.483 1.18716 1.53688 0
M  V30 5023 O 479.758 0.263154 1.92712 0
M  V30 5024 C 480.041 3.53817 0.669761 0
M  V30 5025 C 479.894 4.46239 -0.564882 0
M  V30 5026 C 481.213 4.13856 1.49702 0
M  V30 5027 H 478.332 0.728493 0.111653 0
M  V30 5028 H 480.974 1.85506 -0.410774 0
M  V30 5029 H 479.124 3.66637 1.28491 0
M  V30 5030 H 480.796 4.45328 -1.20337 0
M  V30 5031 H 479.039 4.16916 -1.19849 0
M  V30 5032 H 479.71 5.5134 -0.269918 0
M  V30 5033 H 482.186 4.04461 0.977284 0
M  V30 5034 H 481.062 5.21365 1.71666 0
M  V30 5035 H 481.323 3.65608 2.48563 0
M  V30 5036 N 480.382 0.0267497 1.57577 0
M  V30 5037 C 481.329 -0.955894 2.10075 0
M  V30 5038 C 482.299 -1.32453 1.00226 0
M  V30 5039 O 483.484 -1.41826 1.27632 0
M  V30 5040 C 480.624 -2.2338 2.6305 0
M  V30 5041 C 479.737 -1.92183 3.86898 0
M  V30 5042 C 478.872 -3.14251 4.28275 0
M  V30 5043 C 477.911 -2.78862 5.44888 0
M  V30 5044 N 477.048 -3.93548 5.81433 0
M  V30 5045 H 481.888 -0.501303 2.93753 0
M  V30 5046 H 479.425 -0.235847 1.45197 0
M  V30 5047 H 481.383 -2.98124 2.91853 0
M  V30 5048 H 480.013 -2.6646 1.82205 0
M  V30 5049 H 479.065 -1.07692 3.64838 0
M  V30 5050 H 480.377 -1.62117 4.7172 0
M  V30 5051 H 479.531 -3.97317 4.58502 0
M  V30 5052 H 478.27 -3.47476 3.42215 0
M  V30 5053 H 477.275 -1.94208 5.14357 0
M  V30 5054 H 478.5 -2.46855 6.32645 0
M  V30 5055 H 476.446 -4.2662 4.98328 0
M  V30 5056 H 476.363 -3.67098 6.6089 0
M  V30 5057 H 477.631 -4.77325 6.16264 0
M  V30 5058 N 481.861 -1.55662 -0.24637 0
M  V30 5059 C 483.272 -1.67953 -0.81539 0
M  V30 5060 C 483.623 -0.624302 -1.86002 0
M  V30 5061 O 482.748 0.229328 -2.15181 0
M  V30 5062 C 483.343 -3.04484 -1.48576 0
M  V30 5063 C 481.902 -3.18713 -2.00248 0
M  V30 5064 C 481.049 -2.6383 -0.853766 0
M  V30 5065 H 484 -1.58685 -0.0221692 0
M  V30 5066 H 484.021 -2.98959 -2.3538 0
M  V30 5067 H 483.533 -3.81264 -0.725222 0
M  V30 5068 H 481.634 -2.46757 -2.79181 0
M  V30 5069 H 481.747 -4.25628 -2.1995 0
M  V30 5070 H 480.111 -2.21667 -1.25442 0
M  V30 5071 H 480.894 -3.43135 -0.106302 0
M  V30 5072 N 483.339 0.512053 -1.4905 0
M  V30 5073 C 484.269 1.62365 -1.67809 0
M  V30 5074 C 485.25 1.61737 -0.526809 0
M  V30 5075 O 486.435 1.78651 -0.761404 0
M  V30 5076 C 483.565 3.00895 -1.73435 0
M  V30 5077 C 482.519 3.16387 -2.88242 0
M  V30 5078 C 481.845 4.56157 -2.78971 0
M  V30 5079 C 483.145 2.97457 -4.29321 0
M  V30 5080 H 484.839 1.46921 -2.60873 0
M  V30 5081 H 482.385 0.705379 -1.2554 0
M  V30 5082 H 484.338 3.78549 -1.85145 0
M  V30 5083 H 483.062 3.17403 -0.769619 0
M  V30 5084 H 481.721 2.41155 -2.76116 0
M  V30 5085 H 481.369 4.69525 -1.8043 0
M  V30 5086 H 481.069 4.67465 -3.5602 0
M  V30 5087 H 482.593 5.35886 -2.92675 0
M  V30 5088 H 484.007 3.64888 -4.42187 0
M  V30 5089 H 482.404 3.20245 -5.07507 0
M  V30 5090 H 483.474 1.93692 -4.44535 0
M  V30 5091 N 484.817 1.37938 0.762283 0
M  V30 5092 C 486.066 1.32989 1.51647 0
M  V30 5093 C 486.379 -0.0802922 1.95435 0
M  V30 5094 O 487.585 -0.252295 2.70325 0
M  V30 5095 C 486.041 2.33485 2.73885 0
M  V30 5096 C 485.649 3.80079 2.37157 0
M  V30 5097 C 487.393 2.37563 3.51801 0
M  V30 5098 C 485.3 4.72283 3.55954 0
M  V30 5099 H 484.23 0.494301 0.56937 0
M  V30 5100 H 486.881 1.63448 0.834083 0
M  V30 5101 H 485.263 1.96056 3.44061 0
M  V30 5102 H 486.437 4.26398 1.74704 0
M  V30 5103 H 484.752 3.79037 1.72395 0
M  V30 5104 H 487.349 3.0365 4.40114 0
M  V30 5105 H 487.692 1.39199 3.92338 0
M  V30 5106 H 488.225 2.73747 2.8863 0
M  V30 5107 H 484.964 5.7181 3.2049 0
M  V30 5108 H 484.484 4.30663 4.1748 0
M  V30 5109 H 486.163 4.89876 4.22647 0
M  V30 5110 N 486.295 -0.989507 1.22664 0
M  V30 5111 C 487.523 -1.76496 1.07967 0
M  V30 5112 C 487.938 -1.85148 -0.369543 0
M  V30 5113 O 487.295 -1.32408 -1.25596 0
M  V30 5114 C 487.346 -3.19642 1.68853 0
M  V30 5115 O 487.067 -3.11453 3.08105 0
M  V30 5116 C 488.568 -4.13621 1.59475 0
M  V30 5117 H 485.788 -0.55418 0.378319 0
M  V30 5118 H 488.332 -1.24378 1.62328 0
M  V30 5119 H 486.487 -3.68816 1.18547 0
M  V30 5120 H 486.901 -4.01499 3.37489 0
M  V30 5121 H 488.375 -5.11801 2.06795 0
M  V30 5122 H 488.852 -4.35718 0.55191 0
M  V30 5123 H 489.458 -3.70346 2.09103 0
M  V30 5124 N 487.773 -1.03688 -1.18687 0
M  V30 5125 C 489.019 -0.739123 -1.88851 0
M  V30 5126 C 489.352 0.731042 -1.79915 0
M  V30 5127 O 488.627 1.53313 -1.19688 0
M  V30 5128 C 488.91 -1.20106 -3.3948 0
M  V30 5129 C 488.763 -2.73304 -3.57246 0
M  V30 5130 C 490.082 -0.788134 -4.32986 0
M  V30 5131 H 487.201 -0.269978 -0.68577 0
M  V30 5132 H 489.843 -1.28822 -1.3966 0
M  V30 5133 H 487.993 -0.733915 -3.81505 0
M  V30 5134 H 489.665 -3.28027 -3.24339 0
M  V30 5135 H 487.908 -3.13313 -3.00029 0
M  V30 5136 H 488.579 -3.00684 -4.62918 0
M  V30 5137 H 491.055 -1.19005 -3.98719 0
M  V30 5138 H 489.931 -1.13915 -5.36949 0
M  V30 5139 H 490.192 0.308988 -4.41019 0
M  V30 5140 N 489.251 1.34841 -0.815825 0
M  V30 5141 C 490.662 1.80937 -0.46029 0
M  V30 5142 C 491.013 1.67685 1.01863 0
M  V30 5143 O 490.138 1.21277 1.79223 0
M  V30 5144 C 490.733 3.28509 -0.828708 0
M  V30 5145 C 489.292 3.72712 -0.525644 0
M  V30 5146 C 488.439 2.56676 -1.04941 0
M  V30 5147 H 491.39 1.22688 -1.00664 0
M  V30 5148 H 491.411 3.80279 -0.129757 0
M  V30 5149 H 490.923 3.38122 -1.90513 0
M  V30 5150 H 489.024 3.68642 0.541666 0
M  V30 5151 H 489.137 4.67119 -1.06474 0
M  V30 5152 H 487.501 2.50302 -0.471286 0
M  V30 5153 H 488.284 2.69063 -2.13214 0
M  V30 5154 N 490.729 0.570148 1.46925 0
M  V30 5155 C 491.957 0.0561966 2.06824 0
M  V30 5156 C 492.372 -1.24326 1.42086 0
M  V30 5157 O 491.729 -1.74882 0.521794 0
M  V30 5158 C 491.78 -0.129517 3.61268 0
M  V30 5159 O 491.501 1.1185 4.23581 0
M  V30 5160 C 493.002 -0.679266 4.38065 0
M  V30 5161 H 490.222 0.0517261 0.669003 0
M  V30 5162 H 492.766 0.787243 1.8874 0
M  V30 5163 H 490.921 -0.810739 3.78822 0
M  V30 5164 H 491.335 0.924375 5.1629 0
M  V30 5165 H 492.809 -0.758445 5.46765 0
M  V30 5166 H 493.286 -1.69346 4.05239 0
M  V30 5167 H 493.892 -0.0333237 4.25287 0
M  V30 5168 N 492.207 -1.54576 0.307264 0
M  V30 5169 C 493.117 -2.27435 -0.57536 0
M  V30 5170 C 494.133 -1.31183 -1.14311 0
M  V30 5171 O 495.309 -1.64175 -1.16656 0
M  V30 5172 C 492.374 -3.00566 -1.72803 0
M  V30 5173 C 491.435 -4.12369 -1.19373 0
M  V30 5174 C 490.668 -4.82003 -2.29147 0
M  V30 5175 O 490.891 -4.51038 -3.49171 0
M  V30 5176 O 489.825 -5.69271 -1.95485 0
M  V30 5177 H 493.651 -3.03696 0.0158558 0
M  V30 5178 H 491.236 -1.49219 0.0735064 0
M  V30 5179 H 493.118 -3.46416 -2.39946 0
M  V30 5180 H 491.793 -2.27195 -2.30574 0
M  V30 5181 H 490.7 -3.70905 -0.487851 0
M  V30 5182 H 492.033 -4.87736 -0.661376 0
M  V30 5183 N 493.685 -0.035106 -1.57561 0
M  V30 5184 C 494.915 0.651312 -1.96065 0
M  V30 5185 C 495.323 1.6585 -0.910514 0
M  V30 5186 O 494.666 1.83336 0.11552 0
M  V30 5187 C 494.728 1.40897 -3.30739 0
M  V30 5188 C 494.392 0.559436 -4.53563 0
M  V30 5189 C 495.389 -0.16778 -5.19629 0
M  V30 5190 C 493.074 0.495079 -4.99854 0
M  V30 5191 C 495.068 -0.947963 -6.30311 0
M  V30 5192 C 492.755 -0.288804 -6.10417 0
M  V30 5193 C 493.753 -1.00903 -6.75505 0
M  V30 5194 O 493.441 -1.78005 -7.83945 0
M  V30 5195 H 493.173 0.184036 -0.650467 0
M  V30 5196 H 495.727 -0.0929677 -2.05189 0
M  V30 5197 H 493.957 2.19852 -3.18123 0
M  V30 5198 H 495.646 1.98407 -3.54104 0
M  V30 5199 H 496.412 -0.12743 -4.84833 0
M  V30 5200 H 492.291 1.04524 -4.48994 0
M  V30 5201 H 495.835 -1.51064 -6.81047 0
M  V30 5202 H 491.732 -0.33085 -6.44652 0
M  V30 5203 H 492.5 -1.70046 -8.00641 0
M  V30 5204 N 495.163 1.55791 0.238111 0
M  V30 5205 C 496.44 1.68798 0.98826 0
M  V30 5206 C 496.82 0.577562 2.03045 0
M  V30 5207 O 496.168 -0.41778 2.24648 0
M  V30 5208 C 496.378 3.09454 1.61367 0
M  V30 5209 C 497.726 3.68335 2.11221 0
M  V30 5210 O 498.75 3.1231 1.71292 0
M  V30 5211 O 497.609 4.6657 2.84561 0
M  V30 5212 H 494.703 0.686881 0.460568 0
M  V30 5213 H 497.249 1.68118 0.231202 0
M  V30 5214 H 496.021 3.81726 0.860295 0
M  V30 5215 H 495.644 3.14182 2.4367 0
M  V30 5216 N 496.642 -0.504142 1.49319 0
M  V30 5217 C 497.87 -1.28256 1.62351 0
M  V30 5218 C 498.285 -1.86502 0.293682 0
M  V30 5219 O 497.642 -1.67678 -0.720449 0
M  V30 5220 C 497.693 -2.41507 2.68992 0
M  V30 5221 O 497.414 -1.85656 3.96817 0
M  V30 5222 C 498.915 -3.32929 2.927 0
M  V30 5223 H 496.135 -0.389115 0.546654 0
M  V30 5224 H 498.679 -0.605531 1.95329 0
M  V30 5225 H 496.834 -3.05046 2.38801 0
M  V30 5226 H 497.248 -2.59981 4.55533 0
M  V30 5227 H 498.722 -4.0868 3.71058 0
M  V30 5228 H 499.199 -3.89733 2.02496 0
M  V30 5229 H 499.805 -2.75158 3.24296 0
M  V30 5230 N 498.12 -1.38341 -0.754957 0
M  V30 5231 C 499.368 -1.34208 -1.51105 0
M  V30 5232 C 499.689 0.0677634 -1.94882 0
M  V30 5233 O 498.959 1.01517 -1.67544 0
M  V30 5234 H 497.539 -0.493819 -0.560493 0
M  V30 5235 H 500.201 -1.73005 -0.897507 0
M  V30 5236 H 499.297 -1.99203 -2.4026 0
M  V30 5237 N 499.598 0.982988 -1.23187 0
M  V30 5238 C 500.561 2.05649 -1.01198 0
M  V30 5239 C 501.561 1.6078 0.0252464 0
M  V30 5240 O 502.751 1.72878 -0.214243 0
M  V30 5241 C 499.883 3.36744 -0.530656 0
M  V30 5242 H 501.076 2.2659 -1.96461 0
M  V30 5243 H 498.629 1.15602 -1.05195 0
M  V30 5244 H 499.364 3.21492 0.425873 0
M  V30 5245 H 499.149 3.7065 -1.2791 0
M  V30 5246 H 500.639 4.15705 -0.397366 0
M  V30 5247 N 501.076 1.04316 1.18135 0
M  V30 5248 C 502.009 0.580823 2.20685 0
M  V30 5249 C 502.987 -0.385943 1.57953 0
M  V30 5250 O 504.171 -0.299654 1.86103 0
M  V30 5251 C 501.298 -0.151162 3.38363 0
M  V30 5252 C 500.344 0.769247 4.19505 0
M  V30 5253 S 501.177 2.25352 4.85774 0
M  V30 5254 C 502.333 1.53246 6.0685 0
M  V30 5255 H 502.566 1.44968 2.5956 0
M  V30 5256 H 500.099 0.85434 1.28609 0
M  V30 5257 H 502.057 -0.567315 4.06561 0
M  V30 5258 H 500.718 -0.995936 2.97892 0
M  V30 5259 H 499.911 0.203335 5.0359 0
M  V30 5260 H 499.513 1.12436 3.56699 0
M  V30 5261 H 501.805 0.82689 6.72435 0
M  V30 5262 H 502.748 2.35044 6.67952 0
M  V30 5263 H 503.156 1.0237 5.5514 0
M  V30 5264 N 502.554 -1.34406 0.822964 0
M  V30 5265 C 503.8 -1.98578 0.411666 0
M  V30 5266 C 504.133 -1.65093 -1.02264 0
M  V30 5267 O 503.408 -0.92258 -1.71227 0
M  V30 5268 C 503.691 -3.54823 0.614235 0
M  V30 5269 C 503.544 -3.9805 2.09466 0
M  V30 5270 C 504.863 -4.40071 0.050221 0
M  V30 5271 H 501.982 -0.721355 0.151047 0
M  V30 5272 H 504.624 -1.59301 1.03554 0
M  V30 5273 H 502.774 -3.88411 0.0831774 0
M  V30 5274 H 504.446 -3.74795 2.68936 0
M  V30 5275 H 502.689 -3.4836 2.5851 0
M  V30 5276 H 503.36 -5.06819 2.18721 0
M  V30 5277 H 505.836 -4.13037 0.503953 0
M  V30 5278 H 504.712 -5.48452 0.221759 0
M  V30 5279 H 504.973 -4.29576 -1.04482 0
M  V30 5280 N 504.032 -0.577932 -1.46621 0
M  V30 5281 C 505.257 -0.0652536 -2.07297 0
M  V30 5282 C 505.682 1.22828 -1.4246 0
M  V30 5283 O 505.04 1.74075 -0.506718 0
M  V30 5284 C 505.088 0.0920589 -3.60482 0
M  V30 5285 O 504.192 1.14972 -3.96049 0
M  V30 5286 H 503.533 -0.06065 -0.661224 0
M  V30 5287 H 506.063 -0.799515 -1.88332 0
M  V30 5288 H 506.073 0.299741 -4.06897 0
M  V30 5289 H 504.748 -0.852612 -4.07067 0
M  V30 5290 H 503.325 0.920879 -3.61351 0
M  V30 5291 N 505.51 1.54411 -0.315457 0
M  V30 5292 C 506.458 2.25514 0.569771 0
M  V30 5293 C 507.452 1.2663 1.12522 0
M  V30 5294 O 508.658 1.44434 1.07419 0
M  V30 5295 H 505.033 0.724257 0.202376 0
M  V30 5296 H 507.004 2.98354 -0.0522895 0
M  V30 5297 C 505.753 3.02004 1.72305 0
M  V30 5298 H 505.076 3.77906 1.30488 0
M  V30 5299 H 506.516 3.55014 2.31821 0
M  V30 5300 C 504.975 2.09822 2.63583 0
M  V30 5301 O 505.505 1.67574 3.65078 0
M  V30 5302 N 503.711 1.75478 2.31637 0
M  V30 5303 H 503.258 2.10032 1.49145 0
M  V30 5304 H 503.216 1.14079 2.92973 0
M  V30 5305 N 506.988 0.0434614 1.5754 0
M  V30 5306 C 508.236 -0.630786 1.92004 0
M  V30 5307 C 508.557 -1.71836 0.921807 0
M  V30 5308 O 507.827 -1.9587 -0.034522 0
M  V30 5309 H 506.407 -0.235988 0.708745 0
M  V30 5310 H 509.069 0.0946462 1.9467 0
M  V30 5311 H 508.165 -1.07434 2.93026 0
M  V30 5312 N 508.466 -1.55915 -0.229846 0
M  V30 5313 C 509.398 -1.88209 -1.30805 0
M  V30 5314 C 510.411 -0.769672 -1.43457 0
M  V30 5315 O 511.6 -1.04792 -1.44502 0
M  V30 5316 C 508.7 -2.06829 -2.68468 0
M  V30 5317 C 507.873 -3.37798 -2.77869 0
M  V30 5318 C 506.932 -3.45952 -3.96489 0
M  V30 5319 O 505.958 -4.19043 -3.85216 0
M  V30 5320 N 507.16 -2.76488 -5.10426 0
M  V30 5321 H 509.925 -2.81286 -1.03431 0
M  V30 5322 H 507.486 -1.5636 -0.41991 0
M  V30 5323 H 509.478 -2.09608 -3.46189 0
M  V30 5324 H 508.048 -1.20416 -2.88477 0
M  V30 5325 H 507.268 -3.4719 -1.86689 0
M  V30 5326 H 508.556 -4.24091 -2.81113 0
M  V30 5327 H 507.954 -2.16868 -5.2248 0
M  V30 5328 H 506.511 -2.84938 -5.8622 0
M  V30 5329 N 509.944 0.496216 -1.49584 0
M  V30 5330 C 511.355 1.07765 -1.52459 0
M  V30 5331 C 511.706 1.93679 -0.31353 0
M  V30 5332 O 510.831 2.08588 0.576186 0
M  V30 5333 C 511.426 1.96111 -2.76271 0
M  V30 5334 C 509.985 2.49409 -2.81908 0
M  V30 5335 C 509.132 1.27142 -2.46435 0
M  V30 5336 H 512.083 0.279914 -1.56212 0
M  V30 5337 H 512.104 2.80862 -2.56704 0
M  V30 5338 H 511.616 1.33555 -3.64396 0
M  V30 5339 H 509.717 3.1559 -1.98074 0
M  V30 5340 H 509.83 2.86234 -3.84196 0
M  V30 5341 H 508.194 1.59818 -1.98319 0
M  V30 5342 H 508.977 0.662866 -3.3684 0
M  V30 5343 N 511.423 1.38739 0.74761 0
M  V30 5344 C 512.839 1.20067 1.05148 0
M  V30 5345 C 513.039 0.0534835 2.01429 0
M  V30 5346 O 512.095 -0.59886 2.45296 0
M  V30 5347 C 513.408 2.52957 1.62584 0
M  V30 5348 C 514.956 2.59692 1.74726 0
M  V30 5349 C 515.431 3.92772 2.35573 0
M  V30 5350 N 516.922 3.94343 2.42997 0
M  V30 5351 C 517.657 4.9408 2.90985 0
M  V30 5352 N 517.153 6.04214 3.38965 0
M  V30 5353 N 518.946 4.81466 2.9008 0
M  V30 5354 H 511.097 2.12121 0.108808 0
M  V30 5355 H 513.36 0.941491 0.110899 0
M  V30 5356 H 513.066 3.37389 0.993051 0
M  V30 5357 H 512.94 2.71779 2.61565 0
M  V30 5358 H 515.327 1.75651 2.3713 0
M  V30 5359 H 515.408 2.44731 0.744326 0
M  V30 5360 H 515.052 4.77238 1.738 0
M  V30 5361 H 514.982 4.05046 3.36519 0
M  V30 5362 H 517.473 3.14799 2.0907 0
M  V30 5363 H 517.786 6.76241 3.74056 0
M  V30 5364 H 516.131 6.07825 3.37007 0
M  V30 5365 H 519.322 3.94535 2.51912 0
M  V30 5366 H 519.495 5.59344 3.27166 0
M  V30 5367 N 512.901 -0.976442 1.23707 0
M  V30 5368 C 514.129 -1.75341 1.09833 0
M  V30 5369 C 514.544 -1.8553 -0.349885 0
M  V30 5370 O 513.901 -1.33732 -1.24185 0
M  V30 5371 C 513.952 -3.17833 1.72233 0
M  V30 5372 O 513.673 -3.08167 3.11391 0
M  V30 5373 C 515.174 -4.11906 1.63853 0
M  V30 5374 H 512.394 -0.550137 0.384175 0
M  V30 5375 H 514.938 -1.2265 1.63638 0
M  V30 5376 H 513.093 -3.67538 1.22452 0
M  V30 5377 H 513.507 -3.97897 3.41729 0
M  V30 5378 H 514.981 -5.09579 2.12211 0
M  V30 5379 H 515.458 -4.35109 0.598092 0
M  V30 5380 H 516.064 -3.68107 2.13019 0
M  V30 5381 N 514.379 -1.04941 -1.1758 0
M  V30 5382 C 515.609 -0.777166 -1.91425 0
M  V30 5383 C 516.017 0.670647 -1.76915 0
M  V30 5384 O 515.36 1.46965 -1.10213 0
M  V30 5385 C 515.422 -1.07495 -3.43052 0
M  V30 5386 C 515.086 -2.51844 -3.81345 0
M  V30 5387 C 516.083 -3.50047 -3.844 0
M  V30 5388 C 513.768 -2.86787 -4.12382 0
M  V30 5389 C 515.762 -4.81239 -4.17957 0
M  V30 5390 C 513.449 -4.18182 -4.45608 0
M  V30 5391 C 514.447 -5.15219 -4.48373 0
M  V30 5392 O 514.135 -6.44258 -4.80819 0
M  V30 5393 H 513.867 -0.282209 -0.614275 0
M  V30 5394 H 516.421 -1.40258 -1.50056 0
M  V30 5395 H 514.651 -0.392437 -3.84704 0
M  V30 5396 H 516.34 -0.78912 -3.98155 0
M  V30 5397 H 517.106 -3.24391 -3.60548 0
M  V30 5398 H 512.985 -2.11922 -4.09402 0
M  V30 5399 H 516.529 -5.56974 -4.2003 0
M  V30 5400 H 512.426 -4.43602 -4.68922 0
M  V30 5401 H 513.194 -6.49041 -4.98686 0
M  V30 5402 N 515.857 1.33968 -0.830081 0
M  V30 5403 C 517.085 2.0228 -0.434773 0
M  V30 5404 C 517.5 1.62487 0.961419 0
M  V30 5405 O 516.857 0.833849 1.62337 0
M  V30 5406 C 516.908 3.5751 -0.535625 0
M  V30 5407 O 516.629 3.95864 -1.87679 0
M  V30 5408 C 518.13 4.43091 -0.136137 0
M  V30 5409 H 515.35 0.648151 -0.173613 0
M  V30 5410 H 517.894 1.71089 -1.12022 0
M  V30 5411 H 516.049 3.87266 0.101817 0
M  V30 5412 H 516.463 4.9056 -1.85609 0
M  V30 5413 H 517.937 5.51398 -0.257772 0
M  V30 5414 H 518.414 4.29433 0.921076 0
M  V30 5415 H 519.02 4.18677 -0.747662 0
M  V30 5416 N 517.335 0.585699 1.46312 0
M  V30 5417 C 518.751 0.247607 1.57668 0
M  V30 5418 C 518.951 -1.25007 1.58037 0
M  V30 5419 O 518.007 -2.03196 1.49893 0
M  V30 5420 C 519.32 0.899456 2.86933 0
M  V30 5421 C 520.868 0.873326 3.00569 0
M  V30 5422 C 521.343 1.50477 4.32574 0
M  V30 5423 N 522.834 1.46925 4.3928 0
M  V30 5424 C 523.569 1.92719 5.40044 0
M  V30 5425 N 523.065 2.46499 6.47464 0
M  V30 5426 N 524.858 1.83617 5.31264 0
M  V30 5427 H 517.009 1.55841 1.44317 0
M  V30 5428 H 519.272 0.651564 0.688599 0
M  V30 5429 H 518.978 1.95313 2.92482 0
M  V30 5430 H 518.852 0.409476 3.74971 0
M  V30 5431 H 521.239 -0.171736 2.946 0
M  V30 5432 H 521.32 1.40136 2.13999 0
M  V30 5433 H 520.964 2.54905 4.39302 0
M  V30 5434 H 520.894 0.951944 5.17924 0
M  V30 5435 H 523.385 1.07616 3.62253 0
M  V30 5436 H 523.698 2.79291 7.20567 0
M  V30 5437 H 522.043 2.50526 6.48276 0
M  V30 5438 H 525.234 1.41358 4.46246 0
M  V30 5439 H 525.407 2.19622 6.09648 0
M  V30 5440 N 518.813 -1.54241 0.323641 0
M  V30 5441 C 520.062 -1.9975 -0.279806 0
M  V30 5442 C 520.375 -1.2156 -1.5324 0
M  V30 5443 O 521.581 -1.57447 -2.21185 0
M  V30 5444 C 520.037 -3.55686 -0.549115 0
M  V30 5445 C 519.645 -4.4271 0.686432 0
M  V30 5446 C 521.389 -4.09663 -1.11251 0
M  V30 5447 C 519.296 -5.90119 0.389022 0
M  V30 5448 H 518.226 -0.746177 -0.10833 0
M  V30 5449 H 520.877 -1.78248 0.435877 0
M  V30 5450 H 519.259 -3.73176 -1.32499 0
M  V30 5451 H 520.433 -4.36996 1.46188 0
M  V30 5452 H 518.748 -3.99623 1.17005 0
M  V30 5453 H 521.345 -5.17386 -1.34965 0
M  V30 5454 H 521.688 -3.61651 -2.06191 0
M  V30 5455 H 522.221 -3.95806 -0.39782 0
M  V30 5456 H 518.96 -6.42326 1.30759 0
M  V30 5457 H 518.48 -5.98785 -0.348722 0
M  V30 5458 H 520.159 -6.47 -0.0011164 0
M  V30 5459 N 520.291 -0.0518155 -1.57515 0
M  V30 5460 C 521.538 0.621823 -1.92716 0
M  V30 5461 C 521.866 1.70813 -0.930229 0
M  V30 5462 O 521.121 1.95616 0.0573708 0
M  V30 5463 C 521.42 1.25607 -3.34601 0
M  V30 5464 C 521.086 0.297901 -4.49915 0
M  V30 5465 C 519.748 0.034243 -4.81188 0
M  V30 5466 C 522.1 -0.358738 -5.19964 0
M  V30 5467 C 519.428 -0.893479 -5.79857 0
M  V30 5468 C 521.78 -1.27466 -6.19625 0
M  V30 5469 C 520.444 -1.54698 -6.49326 0
M  V30 5470 H 519.714 0.227541 -0.705199 0
M  V30 5471 H 522.361 -0.118432 -1.91133 0
M  V30 5472 H 520.666 2.07161 -3.32553 0
M  V30 5473 H 522.363 1.78424 -3.59118 0
M  V30 5474 H 518.953 0.513581 -4.25512 0
M  V30 5475 H 523.137 -0.168133 -4.96015 0
M  V30 5476 H 518.393 -1.11193 -6.01204 0
M  V30 5477 H 522.567 -1.78953 -6.73015 0
M  V30 5478 H 520.194 -2.26748 -7.25596 0
M  V30 5479 N 521.769 1.56035 0.221574 0
M  V30 5480 C 522.732 1.91584 1.2581 0
M  V30 5481 C 523.732 0.794425 1.39805 0
M  V30 5482 O 524.922 1.06217 1.38071 0
M  V30 5483 C 522.054 2.16663 2.63192 0
M  V30 5484 H 523.247 2.8429 0.954935 0
M  V30 5485 H 520.8 1.49316 0.461988 0
M  V30 5486 H 521.535 1.26508 2.98607 0
M  V30 5487 H 521.32 2.98358 2.5441 0
M  V30 5488 H 522.81 2.45262 3.37988 0
M  V30 5489 N 523.247 -0.488276 1.49845 0
M  V30 5490 C 524.157 -1.61451 1.70207 0
M  V30 5491 C 525.173 -1.63877 0.584846 0
M  V30 5492 O 526.349 -1.82063 0.861107 0
M  V30 5493 C 523.414 -2.9776 1.77594 0
M  V30 5494 C 522.475 -3.05861 3.01243 0
M  V30 5495 C 521.708 -4.35668 3.08268 0
M  V30 5496 O 521.931 -5.25197 2.22541 0
M  V30 5497 O 520.865 -4.49005 4.00847 0
M  V30 5498 H 524.691 -1.47199 2.65643 0
M  V30 5499 H 522.276 -0.665939 1.33737 0
M  V30 5500 H 524.158 -3.7875 1.84732 0
M  V30 5501 H 522.833 -3.12248 0.8534 0
M  V30 5502 H 521.74 -2.24012 2.99616 0
M  V30 5503 H 523.073 -2.96304 3.9302 0
M  V30 5504 N 524.725 -1.39134 -0.740242 0
M  V30 5505 C 525.953 -1.39334 -1.5295 0
M  V30 5506 C 526.368 0.0135008 -1.88795 0
M  V30 5507 O 525.725 0.983524 -1.5373 0
M  V30 5508 C 525.776 -2.2614 -2.82034 0
M  V30 5509 O 525.497 -3.61345 -2.47712 0
M  V30 5510 C 526.998 -2.34666 -3.76094 0
M  V30 5511 H 524.218 -0.476103 -0.472828 0
M  V30 5512 H 526.762 -1.82883 -0.9151 0
M  V30 5513 H 524.917 -1.86018 -3.39818 0
M  V30 5514 H 525.331 -4.07194 -3.30595 0
M  V30 5515 H 526.805 -2.99663 -4.63579 0
M  V30 5516 H 527.282 -1.36426 -4.17474 0
M  V30 5517 H 527.888 -2.75236 -3.2423 0
M  V30 5518 N 526.204 0.969867 -1.24223 0
M  V30 5519 C 527.45 1.7151 -1.08223 0
M  V30 5520 C 527.783 1.90478 0.37838 0
M  V30 5521 O 527.058 1.4647 1.27971 0
M  V30 5522 C 527.341 3.10714 -1.82013 0
M  V30 5523 C 527.194 2.9925 -3.35811 0
M  V30 5524 C 528.513 4.10332 -1.59108 0
M  V30 5525 H 525.632 0.622499 -0.394543 0
M  V30 5526 H 528.274 1.1284 -1.52863 0
M  V30 5527 H 526.424 3.608 -1.44068 0
M  V30 5528 H 528.096 2.56608 -3.83341 0
M  V30 5529 H 526.339 2.35512 -3.64303 0
M  V30 5530 H 527.01 3.97857 -3.82641 0
M  V30 5531 H 529.486 3.69097 -1.92111 0
M  V30 5532 H 528.362 5.05804 -2.13198 0
M  V30 5533 H 528.623 4.38926 -0.528832 0
M  V30 5534 N 527.682 1.05563 1.17022 0
M  V30 5535 C 528.959 0.68165 1.83338 0
M  V30 5536 C 529.339 -0.837665 1.93769 0
M  V30 5537 O 528.687 -1.74507 1.47511 0
M  V30 5538 C 528.897 1.375 3.20772 0
M  V30 5539 C 530.245 1.51545 3.96635 0
M  V30 5540 O 531.269 1.33431 3.30264 0
M  V30 5541 O 530.128 1.812 5.15586 0
M  V30 5542 H 527.222 0.240412 0.791285 0
M  V30 5543 H 529.768 1.15545 1.24288 0
M  V30 5544 H 528.54 2.41135 3.08171 0
M  V30 5545 H 528.163 0.890798 3.87493 0
M  V30 5546 N 529.16 -1.33526 0.837174 0
M  V30 5547 C 530.571 -1.80182 0.489017 0
M  V30 5548 C 530.922 -1.69285 -0.991826 0
M  V30 5549 O 530.047 -1.24113 -1.77271 0
M  V30 5550 C 530.642 -3.27149 0.880866 0
M  V30 5551 C 529.201 -3.71828 0.584872 0
M  V30 5552 C 528.348 -2.54974 1.09011 0
M  V30 5553 H 531.299 -1.21071 1.02603 0
M  V30 5554 H 531.32 -3.80024 0.190239 0
M  V30 5555 H 530.832 -3.35048 1.95869 0
M  V30 5556 H 528.933 -3.69457 -0.48295 0
M  V30 5557 H 529.046 -4.65366 1.13892 0
M  V30 5558 H 527.41 -2.4952 0.511047 0
M  V30 5559 H 528.193 -2.65637 2.17467 0
M  V30 5560 N 530.638 -0.59345 -1.46 0
M  V30 5561 C 531.863 -0.0872365 -2.07216 0
M  V30 5562 C 532.288 1.2131 -1.43755 0
M  V30 5563 O 531.646 1.73528 -0.525152 0
M  V30 5564 C 531.694 0.0538197 -3.6056 0
M  V30 5565 O 530.798 1.10765 -3.97247 0
M  V30 5566 H 530.139 -0.0676598 -0.660544 0
M  V30 5567 H 532.669 -0.819445 -1.87473 0
M  V30 5568 H 532.679 0.256567 -4.07193 0
M  V30 5569 H 531.354 -0.895739 -4.0614 0
M  V30 5570 H 529.931 0.882501 -3.62307 0
M  V30 5571 N 532.116 1.54067 -0.331816 0
M  V30 5572 C 533.365 1.99895 0.269209 0
M  V30 5573 C 533.678 1.22371 1.52593 0
M  V30 5574 O 534.884 1.58618 2.20347 0
M  V30 5575 C 533.34 3.55972 0.530244 0
M  V30 5576 C 532.948 4.4234 -0.709901 0
M  V30 5577 C 534.692 4.10247 1.09077 0
M  V30 5578 C 532.599 5.89905 -0.420312 0
M  V30 5579 H 531.529 0.746741 0.104371 0
M  V30 5580 H 534.18 1.78014 -0.445324 0
M  V30 5581 H 532.562 3.73873 1.30518 0
M  V30 5582 H 533.736 4.36215 -1.48504 0
M  V30 5583 H 532.051 3.98997 -1.19123 0
M  V30 5584 H 534.648 5.18095 1.32219 0
M  V30 5585 H 534.991 3.62739 2.0427 0
M  V30 5586 H 535.524 3.96011 0.376824 0
M  V30 5587 H 532.263 6.41623 -1.34164 0
M  V30 5588 H 531.783 5.98962 0.316962 0
M  V30 5589 H 533.462 6.46991 -0.0331956 0
M  V30 5590 N 533.594 0.0601682 1.57485 0
M  V30 5591 C 534.504 -0.926121 2.15546 0
M  V30 5592 C 535.52 -1.33532 1.11558 0
M  V30 5593 O 536.696 -1.4104 1.4377 0
M  V30 5594 C 533.761 -2.17952 2.69625 0
M  V30 5595 C 532.822 -1.82783 3.88444 0
M  V30 5596 C 532.055 -3.02148 4.39935 0
M  V30 5597 O 532.278 -4.15803 3.90466 0
M  V30 5598 O 531.212 -2.82639 5.31412 0
M  V30 5599 H 535.038 -0.462289 3.00161 0
M  V30 5600 H 532.623 -0.162246 1.48516 0
M  V30 5601 H 534.505 -2.91474 3.04337 0
M  V30 5602 H 533.18 -2.63456 1.88077 0
M  V30 5603 H 532.087 -1.06549 3.58606 0
M  V30 5604 H 533.42 -1.42072 4.7125 0
M  V30 5605 N 535.072 -1.5615 -0.213296 0
M  V30 5606 C 536.318 -1.79812 -0.937849 0
M  V30 5607 C 536.651 -0.631201 -1.83656 0
M  V30 5608 O 535.926 0.369165 -1.90964 0
M  V30 5609 C 536.209 -3.13613 -1.76972 0
M  V30 5610 C 536.062 -4.40766 -0.89695 0
M  V30 5611 C 537.381 -3.43931 -2.7459 0
M  V30 5612 H 534.5 -0.654138 -0.339518 0
M  V30 5613 H 537.142 -1.88877 -0.20623 0
M  V30 5614 H 535.292 -3.06015 -2.39347 0
M  V30 5615 H 536.964 -4.60392 -0.289306 0
M  V30 5616 H 535.207 -4.33326 -0.202756 0
M  V30 5617 H 535.878 -5.30843 -1.51358 0
M  V30 5618 H 538.354 -3.5171 -2.22349 0
M  V30 5619 H 537.23 -4.38706 -3.29891 0
M  V30 5620 H 537.491 -2.6651 -3.52739 0
M  V30 5621 N 536.55 0.480323 -1.50102 0
M  V30 5622 C 537.483 1.59789 -1.62919 0
M  V30 5623 C 538.461 1.55429 -0.477557 0
M  V30 5624 O 539.645 1.75186 -0.695851 0
M  V30 5625 C 536.772 2.98351 -1.60325 0
M  V30 5626 C 535.818 3.20899 -2.80938 0
M  V30 5627 S 536.651 3.01791 -4.4236 0
M  V30 5628 C 537.807 4.42712 -4.42444 0
M  V30 5629 H 538.04 1.48676 -2.57454 0
M  V30 5630 H 535.573 0.666996 -1.3925 0
M  V30 5631 H 537.531 3.7824 -1.59514 0
M  V30 5632 H 536.192 3.06862 -0.670419 0
M  V30 5633 H 535.385 4.22102 -2.75401 0
M  V30 5634 H 534.987 2.48768 -2.79268 0
M  V30 5635 H 537.279 5.3518 -4.15438 0
M  V30 5636 H 538.222 4.53294 -5.43995 0
M  V30 5637 H 538.63 4.24359 -3.72263 0
M  V30 5638 N 538.028 1.39524 0.732853 0
M  V30 5639 C 539.274 1.38072 1.49358 0
M  V30 5640 C 539.629 -0.0227943 1.92386 0
M  V30 5641 O 538.922 -0.98976 1.64056 0
M  V30 5642 C 539.116 2.28916 2.74468 0
M  V30 5643 C 538.945 3.7796 2.43673 0
M  V30 5644 C 537.715 4.46874 2.35863 0
M  V30 5645 C 539.913 4.69886 2.09074 0
M  V30 5646 N 537.895 5.81242 1.97561 0
M  V30 5647 C 539.266 5.9292 1.81234 0
M  V30 5648 C 541.321 4.57887 1.95561 0
M  V30 5649 C 540.024 7.05297 1.41242 0
M  V30 5650 C 542.05 5.70187 1.56972 0
M  V30 5651 C 541.412 6.92297 1.30018 0
M  V30 5652 H 537.511 0.56051 0.5453 0
M  V30 5653 H 540.095 1.75093 0.85151 0
M  V30 5654 H 538.266 1.9405 3.36451 0
M  V30 5655 H 539.998 2.18441 3.40684 0
M  V30 5656 H 536.753 4.00341 2.5303 0
M  V30 5657 H 537.177 6.52356 1.80997 0
M  V30 5658 H 541.819 3.64014 2.15067 0
M  V30 5659 H 539.537 7.99069 1.20476 0
M  V30 5660 H 543.123 5.62892 1.47119 0
M  V30 5661 H 542.003 7.7772 1.00605 0
M  V30 5662 N 539.506 -0.963266 1.24736 0
M  V30 5663 C 540.734 -1.74166 1.11686 0
M  V30 5664 C 541.149 -1.8589 -0.330187 0
M  V30 5665 O 540.506 -1.35042 -1.2276 0
M  V30 5666 C 540.557 -3.15989 1.75595 0
M  V30 5667 O 540.278 -3.04847 3.14642 0
M  V30 5668 C 541.779 -4.10145 1.68213 0
M  V30 5669 H 538.999 -0.546031 0.389989 0
M  V30 5670 H 541.543 -1.20907 1.64929 0
M  V30 5671 H 539.698 -3.66219 1.26343 0
M  V30 5672 H 540.112 -3.9425 3.4593 0
M  V30 5673 H 541.586 -5.07299 2.17604 0
M  V30 5674 H 542.063 -4.3445 0.644208 0
M  V30 5675 H 542.669 -3.65827 2.16912 0
M  V30 5676 N 540.985 -1.06182 -1.16461 0
M  V30 5677 C 542.233 -0.776326 -1.86595 0
M  V30 5678 C 542.554 0.69921 -1.82033 0
M  V30 5679 O 541.824 1.50579 -1.2531 0
M  V30 5680 H 540.404 -0.284184 -0.690832 0
M  V30 5681 H 543.066 -1.34308 -1.41235 0
M  V30 5682 H 542.162 -1.10022 -2.92064 0
M  V30 5683 N 542.463 1.3308 -0.844243 0
M  V30 5684 C 543.874 1.7992 -0.498566 0
M  V30 5685 C 544.225 1.69808 0.982834 0
M  V30 5686 O 543.35 1.25051 1.7661 0
M  V30 5687 C 543.945 3.26677 -0.898204 0
M  V30 5688 C 542.504 3.71513 -0.604583 0
M  V30 5689 C 541.651 2.54393 -1.10362 0
M  V30 5690 H 544.602 1.20526 -1.03244 0
M  V30 5691 H 544.623 3.79918 -0.21039 0
M  V30 5692 H 544.135 3.34004 -1.97643 0
M  V30 5693 H 542.236 3.69708 0.46335 0
M  V30 5694 H 542.349 4.64755 -1.16358 0
M  V30 5695 H 540.713 2.49246 -0.524273 0
M  V30 5696 H 541.496 2.6448 -2.18873 0
M  V30 5697 N 543.941 0.601185 1.45683 0
M  V30 5698 C 545.189 0.0936957 2.01883 0
M  V30 5699 C 545.51 -1.2779 1.47291 0
M  V30 5700 O 544.78 -1.84279 0.664691 0
M  V30 5701 H 543.36 0.0316466 0.746329 0
M  V30 5702 H 546.022 0.781137 1.78562 0
M  V30 5703 H 545.118 0.0386297 3.12076 0
M  V30 5704 N 545.419 -1.53889 0.339982 0
M  V30 5705 C 546.665 -2.01152 -0.258003 0
M  V30 5706 C 546.998 -1.22749 -1.50487 0
M  V30 5707 O 546.273 -0.314156 -1.91946 0
M  V30 5708 C 546.556 -3.55468 -0.575717 0
M  V30 5709 C 546.409 -4.44584 0.682996 0
M  V30 5710 C 547.728 -4.1768 -1.38677 0
M  V30 5711 H 544.847 -0.731198 -0.0922992 0
M  V30 5712 H 547.489 -1.84352 0.459814 0
M  V30 5713 H 545.639 -3.69914 -1.18725 0
M  V30 5714 H 547.311 -4.41981 1.32102 0
M  V30 5715 H 545.554 -4.13592 1.3086 0
M  V30 5716 H 546.225 -5.5043 0.416001 0
M  V30 5717 H 548.701 -4.0691 -0.869705 0
M  V30 5718 H 547.577 -5.25734 -1.57783 0
M  V30 5719 H 547.838 -3.72069 -2.38782 0
M  V30 5720 N 546.897 -0.0685191 -1.57451 0
M  V30 5721 C 548.143 0.602239 -1.93652 0
M  V30 5722 C 548.476 1.6946 -0.948526 0
M  V30 5723 O 547.751 1.94487 0.022782 0
M  V30 5724 C 548.034 1.18223 -3.4014 0
M  V30 5725 C 547.887 0.0967431 -4.49696 0
M  V30 5726 C 549.206 2.08872 -3.87377 0
M  V30 5727 H 546.325 0.217453 -0.70419 0
M  V30 5728 H 548.967 -0.133821 -1.89528 0
M  V30 5729 H 547.117 1.80953 -3.43785 0
M  V30 5730 H 548.789 -0.536155 -4.58174 0
M  V30 5731 H 547.032 -0.573063 -4.29998 0
M  V30 5732 H 547.703 0.542894 -5.49324 0
M  V30 5733 H 550.179 1.56081 -3.85717 0
M  V30 5734 H 549.055 2.46389 -4.90493 0
M  V30 5735 H 549.316 2.99572 -3.25129 0
M  V30 5736 N 548.375 1.56261 0.205012 0
M  V30 5737 C 549.603 1.84141 0.943386 0
M  V30 5738 C 550.018 0.649772 1.77266 0
M  V30 5739 O 549.375 -0.381612 1.78466 0
M  V30 5740 C 549.426 3.10719 1.84759 0
M  V30 5741 O 549.147 4.25286 1.05181 0
M  V30 5742 C 550.648 3.51706 2.69848 0
M  V30 5743 H 547.868 0.611734 0.275721 0
M  V30 5744 H 550.412 2.03364 0.215253 0
M  V30 5745 H 548.567 2.93422 2.52947 0
M  V30 5746 H 548.981 4.97301 1.66709 0
M  V30 5747 H 550.455 4.43266 3.28967 0
M  V30 5748 H 550.932 2.7423 3.43067 0
M  V30 5749 H 551.538 3.71499 2.07047 0
M  V30 5750 N 549.853 -0.472356 1.50355 0
M  V30 5751 C 550.801 -1.59126 1.69651 0
M  V30 5752 C 551.795 -1.59793 0.56237 0
M  V30 5753 O 553.001 -1.63957 0.742832 0
M  V30 5754 H 549.376 -0.528008 0.535454 0
M  V30 5755 H 551.347 -1.40013 2.63513 0
M  V30 5756 C 550.096 -2.97075 1.8067 0
M  V30 5757 H 549.419 -2.9728 2.67329 0
M  V30 5758 H 550.859 -3.74825 1.98197 0
M  V30 5759 C 549.318 -3.32247 0.558016 0
M  V30 5760 O 549.848 -4.00553 -0.303399 0
M  V30 5761 N 548.054 -2.87659 0.412415 0
M  V30 5762 H 547.601 -2.32246 1.11443 0
M  V30 5763 H 547.559 -3.11556 -0.421908 0
M  V30 5764 N 551.331 -1.39911 -0.725443 0
M  V30 5765 C 552.241 -1.41688 -1.8698 0
M  V30 5766 C 553.257 -0.310579 -1.71206 0
M  V30 5767 O 554.433 -0.55359 -1.93642 0
M  V30 5768 C 551.498 -1.26811 -3.22676 0
M  V30 5769 C 550.559 -2.47497 -3.50776 0
M  V30 5770 C 549.792 -2.3332 -4.79997 0
M  V30 5771 O 550.015 -1.34175 -5.54394 0
M  V30 5772 O 548.949 -3.22498 -5.08211 0
M  V30 5773 H 552.775 -2.38171 -1.88436 0
M  V30 5774 H 550.36 -1.21128 -0.874548 0
M  V30 5775 H 552.242 -1.20684 -4.03749 0
M  V30 5776 H 550.917 -0.334289 -3.21969 0
M  V30 5777 H 549.824 -2.59201 -2.69751 0
M  V30 5778 H 551.157 -3.39606 -3.5627 0
M  V30 5779 N 552.809 0.956637 -1.25245 0
M  V30 5780 C 554.058 1.69537 -1.0927 0
M  V30 5781 C 554.371 1.92136 0.366503 0
M  V30 5782 O 555.577 2.63687 0.64665 0
M  V30 5783 C 554.033 3.05211 -1.9072 0
M  V30 5784 C 553.641 2.90416 -3.41119 0
M  V30 5785 C 555.385 3.82882 -1.83308 0
M  V30 5786 C 553.292 4.21468 -4.14872 0
M  V30 5787 H 552.222 0.635804 -0.405302 0
M  V30 5788 H 554.873 1.06513 -1.49423 0
M  V30 5789 H 553.255 3.69128 -1.43389 0
M  V30 5790 H 554.429 2.35444 -3.9611 0
M  V30 5791 H 552.744 2.26203 -3.49602 0
M  V30 5792 H 555.341 4.79944 -2.35706 0
M  V30 5793 H 555.684 4.0853 -0.800572 0
M  V30 5794 H 556.217 3.25711 -2.28379 0
M  V30 5795 H 552.956 4.01009 -5.18529 0
M  V30 5796 H 552.476 4.76213 -3.64665 0
M  V30 5797 H 554.155 4.90022 -4.22478 0
M  V30 5798 N 554.287 1.06798 1.15896 0
M  V30 5799 C 555.698 0.811355 1.68149 0
M  V30 5800 C 556.049 -0.664339 1.8461 0
M  V30 5801 O 555.174 -1.51485 1.54535 0
M  V30 5802 C 555.769 1.46624 3.05429 0
M  V30 5803 C 554.328 1.25726 3.54781 0
M  V30 5804 C 553.475 1.53949 2.3064 0
M  V30 5805 H 556.426 1.23078 1.00187 0
M  V30 5806 H 556.447 0.88437 3.7008 0
M  V30 5807 H 555.959 2.54025 2.93416 0
M  V30 5808 H 554.06 0.20322 3.72045 0
M  V30 5809 H 554.173 1.97354 4.36564 0
M  V30 5810 H 552.537 0.96025 2.35905 0
M  V30 5811 H 553.32 2.6252 2.2122 0
M  V30 5812 N 555.766 -1.3263 0.851289 0
M  V30 5813 C 556.696 -2.31449 0.308771 0
M  V30 5814 C 557.677 -1.59531 -0.590255 0
M  V30 5815 O 558.862 -1.87351 -0.511205 0
M  V30 5816 C 555.992 -3.43586 -0.506548 0
M  V30 5817 C 554.946 -4.26963 0.297753 0
M  V30 5818 C 554.272 -5.30831 -0.642094 0
M  V30 5819 C 555.572 -4.99643 1.52166 0
M  V30 5820 H 557.266 -2.77074 1.13447 0
M  V30 5821 H 554.812 -1.33207 0.546971 0
M  V30 5822 H 556.765 -4.11754 -0.896474 0
M  V30 5823 H 555.489 -2.96681 -1.36558 0
M  V30 5824 H 554.148 -3.60437 0.669391 0
M  V30 5825 H 553.796 -4.8018 -1.49788 0
M  V30 5826 H 553.496 -5.87501 -0.107968 0
M  V30 5827 H 555.02 -6.01862 -1.02927 0
M  V30 5828 H 556.434 -5.6051 1.20421 0
M  V30 5829 H 554.831 -5.66022 1.99347 0
M  V30 5830 H 555.901 -4.27701 2.28474 0
M  V30 5831 N 557.244 -0.608902 -1.45362 0
M  V30 5832 C 558.469 -0.10921 -2.07112 0
M  V30 5833 C 558.894 1.19779 -1.45033 0
M  V30 5834 O 558.252 1.72961 -0.543527 0
M  V30 5835 C 558.3 0.0155745 -3.60597 0
M  V30 5836 O 557.404 1.06546 -3.98399 0
M  V30 5837 H 556.745 -0.0746619 -0.659789 0
M  V30 5838 H 559.275 -0.839283 -1.86594 0
M  V30 5839 H 559.285 0.213364 -4.07442 0
M  V30 5840 H 557.96 -0.938765 -4.05167 0
M  V30 5841 H 556.537 0.844024 -3.63223 0
M  V30 5842 N 558.722 1.53707 -0.348139 0
M  V30 5843 C 559.999 1.93247 0.302475 0
M  V30 5844 C 560.379 1.28012 1.67857 0
M  V30 5845 O 559.727 0.43274 2.24365 0
M  V30 5846 C 559.937 3.47031 0.370159 0
M  V30 5847 C 561.285 4.20066 0.61882 0
M  V30 5848 O 562.309 3.53319 0.452087 0
M  V30 5849 O 561.168 5.38318 0.94215 0
M  V30 5850 H 558.262 0.807736 0.177458 0
M  V30 5851 H 560.808 1.64927 -0.399651 0
M  V30 5852 H 559.58 3.86745 -0.59534 0
M  V30 5853 H 559.203 3.81532 1.11888 0
M  V30 5854 N 560.2 0.0768682 1.57412 0
M  V30 5855 C 561.163 -0.873949 2.11884 0
M  V30 5856 C 562.163 -1.22301 1.04398 0
M  V30 5857 O 563.353 -1.15545 1.30365 0
M  V30 5858 C 560.485 -2.17575 2.62438 0
M  V30 5859 H 561.678 -0.401278 2.97203 0
M  V30 5860 H 559.231 -0.171904 1.55352 0
M  V30 5861 H 559.966 -2.69368 1.80587 0
M  V30 5862 H 559.751 -1.93534 3.41009 0
M  V30 5863 H 561.241 -2.85631 3.04639 0
M  V30 5864 N 561.678 -1.56367 -0.196722 0
M  V30 5865 C 562.61 -1.90941 -1.26784 0
M  V30 5866 C 563.623 -0.799928 -1.41792 0
M  V30 5867 O 564.812 -1.07833 -1.42247 0
M  V30 5868 C 561.912 -2.12477 -2.6402 0
M  V30 5869 C 561.085 -3.43616 -2.70641 0
M  V30 5870 C 560.144 -3.54284 -3.89062 0
M  V30 5871 O 559.17 -4.2712 -3.76241 0
M  V30 5872 N 560.372 -2.87252 -5.04447 0
M  V30 5873 H 563.137 -2.83417 -0.974417 0
M  V30 5874 H 560.698 -1.57215 -0.386649 0
M  V30 5875 H 562.69 -2.16904 -3.41665 0
M  V30 5876 H 561.26 -1.26508 -2.85857 0
M  V30 5877 H 560.48 -3.51072 -1.79283 0
M  V30 5878 H 561.768 -4.29958 -2.72054 0
M  V30 5879 H 561.166 -2.27901 -5.17762 0
M  V30 5880 H 559.723 -2.97308 -5.80044 0
M  V30 5881 N 563.156 0.464375 -1.50603 0
M  V30 5882 C 564.086 1.56944 -1.72889 0
M  V30 5883 C 565.067 1.59979 -0.577997 0
M  V30 5884 O 566.252 1.76138 -0.817855 0
M  V30 5885 C 563.382 2.95225 -1.8292 0
M  V30 5886 C 562.336 3.07056 -2.98162 0
M  V30 5887 C 561.662 4.47051 -2.93343 0
M  V30 5888 C 562.962 2.83648 -4.38567 0
M  V30 5889 H 564.656 1.38547 -2.65415 0
M  V30 5890 H 562.202 0.665082 -1.27721 0
M  V30 5891 H 564.155 3.72467 -1.97095 0
M  V30 5892 H 562.879 3.14793 -0.870209 0
M  V30 5893 H 561.538 2.32248 -2.83648 0
M  V30 5894 H 561.186 4.63547 -1.95276 0
M  V30 5895 H 560.886 4.55902 -3.70712 0
M  V30 5896 H 562.41 5.26304 -3.09575 0
M  V30 5897 H 563.824 3.50636 -4.53572 0
M  V30 5898 H 562.221 3.03937 -5.17438 0
M  V30 5899 H 563.291 1.79451 -4.50472 0
M  V30 5900 N 564.634 1.40294 0.718013 0
M  V30 5901 C 565.883 1.37746 1.4734 0
M  V30 5902 C 566.196 -0.0180754 1.95592 0
M  V30 5903 O 567.402 -0.166166 2.70991 0
M  V30 5904 C 565.858 2.4208 2.66318 0
M  V30 5905 C 565.466 3.87432 2.24945 0
M  V30 5906 C 567.21 2.48635 3.44065 0
M  V30 5907 C 565.117 4.83368 3.40748 0
M  V30 5908 H 564.047 0.512165 0.553356 0
M  V30 5909 H 566.698 1.66019 0.781661 0
M  V30 5910 H 565.08 2.06903 3.3765 0
M  V30 5911 H 566.254 4.3174 1.6105 0
M  V30 5912 H 564.569 3.8433 1.60249 0
M  V30 5913 H 567.166 3.17499 4.30231 0
M  V30 5914 H 567.509 1.51611 3.87711 0
M  V30 5915 H 568.042 2.82791 2.79775 0
M  V30 5916 H 564.781 5.81716 3.02136 0
M  V30 5917 H 564.301 4.43726 4.03568 0
M  V30 5918 H 565.98 5.03074 4.06848 0
M  V30 5919 N 566.112 -0.949982 1.2575 0
M  V30 5920 C 567.337 -1.73503 1.13628 0
M  V30 5921 C 567.762 -1.85601 -0.30559 0
M  V30 5922 O 567.12 -1.33984 -1.22139 0
M  V30 5923 C 567.168 -3.1243 1.80055 0
M  V30 5924 O 566.272 -3.97916 1.08336 0
M  V30 5925 H 565.613 -0.532665 0.396439 0
M  V30 5926 H 568.143 -1.19043 1.66403 0
M  V30 5927 H 568.153 -3.62866 1.86527 0
M  V30 5928 H 566.828 -3.02941 2.84956 0
M  V30 5929 H 565.405 -3.56375 1.09777 0
M  V30 5930 N 567.59 -1.07411 -1.15328 0
M  V30 5931 C 568.838 -0.796073 -1.85761 0
M  V30 5932 C 569.159 0.679864 -1.82764 0
M  V30 5933 O 568.429 1.49242 -1.269 0
M  V30 5934 H 567.009 -0.291495 -0.687779 0
M  V30 5935 H 569.671 -1.35799 -1.39802 0
M  V30 5936 H 568.767 -1.13114 -2.90881 0
M  V30 5937 N 569.068 1.32177 -0.85831 0
M  V30 5938 C 570.317 1.96392 -0.459689 0
M  V30 5939 C 570.63 1.68659 0.990632 0
M  V30 5940 O 571.836 2.26641 1.49485 0
M  V30 5941 C 570.292 3.51542 -0.7711 0
M  V30 5942 C 569.9 3.8813 -2.2374 0
M  V30 5943 C 571.644 4.2221 -0.44038 0
M  V30 5944 C 569.551 5.36341 -2.49183 0
M  V30 5945 H 568.481 0.735007 -0.168169 0
M  V30 5946 H 571.132 1.50518 -1.0496 0
M  V30 5947 H 569.514 3.95846 -0.11058 0
M  V30 5948 H 570.688 3.54824 -2.94001 0
M  V30 5949 H 569.003 3.30497 -2.533 0
M  V30 5950 H 571.6 5.31234 -0.607855 0
M  V30 5951 H 571.943 4.11683 0.618291 0
M  V30 5952 H 572.476 3.83502 -1.05695 0
M  V30 5953 H 569.215 5.51892 -3.53689 0
M  V30 5954 H 568.735 5.7104 -1.83504 0
M  V30 5955 H 570.414 6.03466 -2.33318 0
M  V30 5956 N 570.547 0.616602 1.45037 0
M  V30 5957 C 571.777 0.121791 2.06241 0
M  V30 5958 C 572.185 -1.20289 1.46038 0
M  V30 5959 O 571.528 -1.7456 0.572242 0
M  V30 5960 C 571.59 -0.0827345 3.59405 0
M  V30 5961 C 571.254 1.16153 4.41993 0
M  V30 5962 C 572.251 2.08183 4.76399 0
M  V30 5963 C 569.936 1.39288 4.82601 0
M  V30 5964 C 571.93 3.21668 5.5028 0
M  V30 5965 C 569.617 2.53073 5.56235 0
M  V30 5966 C 570.615 3.44091 5.89992 0
M  V30 5967 O 570.303 4.55894 6.6213 0
M  V30 5968 H 570.035 0.0701667 0.672349 0
M  V30 5969 H 572.589 0.846877 1.87129 0
M  V30 5970 H 570.819 -0.862812 3.76952 0
M  V30 5971 H 572.508 -0.530273 4.02421 0
M  V30 5972 H 573.274 1.91538 4.45576 0
M  V30 5973 H 569.153 0.693396 4.55755 0
M  V30 5974 H 572.697 3.92733 5.76547 0
M  V30 5975 H 568.594 2.69667 5.86472 0
M  V30 5976 H 569.362 4.5469 6.80587 0
M  V30 5977 N 572.025 -1.5352 0.356285 0
M  V30 5978 C 572.973 -2.26945 -0.50978 0
M  V30 5979 C 573.967 -1.29569 -1.09125 0
M  V30 5980 O 575.173 -1.47231 -1.03552 0
M  V30 5981 H 571.548 -0.729368 -0.183102 0
M  V30 5982 H 573.519 -2.98111 0.131374 0
M  V30 5983 C 572.268 -3.06466 -1.64237 0
M  V30 5984 H 571.591 -3.81233 -1.20423 0
M  V30 5985 H 573.031 -3.61035 -2.22327 0
M  V30 5986 C 571.49 -2.16737 -2.57928 0
M  V30 5987 O 572.02 -1.77195 -3.60507 0
M  V30 5988 N 570.226 -1.81558 -2.26903 0
M  V30 5989 H 569.773 -2.13913 -1.43524 0
M  V30 5990 H 569.731 -1.21806 -2.89846 0
M  V30 5991 N 573.503 -0.0852151 -1.57369 0
M  V30 5992 C 574.919 0.271436 -1.57275 0
M  V30 5993 C 575.119 1.69109 -1.09565 0
M  V30 5994 O 574.175 2.40549 -0.767611 0
M  V30 5995 C 575.488 0.0688638 -3.00621 0
M  V30 5996 C 577.036 0.137373 -3.12698 0
M  V30 5997 C 577.511 -0.0370832 -4.57985 0
M  V30 5998 N 579.002 0.0180794 -4.63196 0
M  V30 5999 C 579.737 -0.0922953 -5.73326 0
M  V30 6000 N 579.233 -0.256948 -6.92323 0
M  V30 6001 N 581.026 -0.0342702 -5.6209 0
M  V30 6002 H 573.177 -1.01288 -1.86693 0
M  V30 6003 H 575.44 -0.396138 -0.861266 0
M  V30 6004 H 575.146 -0.911277 -3.39689 0
M  V30 6005 H 575.02 0.815442 -3.6828 0
M  V30 6006 H 577.407 1.10801 -2.73509 0
M  V30 6007 H 577.488 -0.640532 -2.47651 0
M  V30 6008 H 577.132 -1.00455 -4.97867 0
M  V30 6009 H 577.062 0.760392 -5.21081 0
M  V30 6010 H 579.553 0.143202 -3.77629 0
M  V30 6011 H 579.866 -0.332949 -7.72082 0
M  V30 6012 H 578.211 -0.292487 -6.94384 0
M  V30 6013 H 581.402 0.0931605 -4.68007 0
M  V30 6014 H 581.575 -0.12374 -6.47882 0
M  V30 6015 N 574.981 1.5647 0.188427 0
M  V30 6016 C 575.929 1.95971 1.25293 0
M  V30 6017 C 576.923 0.846047 1.4676 0
M  V30 6018 O 578.129 1.03109 1.47542 0
M  V30 6019 H 574.504 0.623253 0.420784 0
M  V30 6020 H 576.475 2.84731 0.892792 0
M  V30 6021 C 575.224 2.32116 2.58877 0
M  V30 6022 H 574.547 3.17341 2.43176 0
M  V30 6023 H 575.987 2.63613 3.3209 0
M  V30 6024 C 574.446 1.15823 3.16365 0
M  V30 6025 O 574.976 0.436785 3.99318 0
M  V30 6026 N 573.182 0.933278 2.75206 0
M  V30 6027 H 572.729 1.52169 2.07852 0
M  V30 6028 H 572.687 0.156976 3.14008 0
M  V30 6029 N 576.459 -0.456382 1.50847 0
M  V30 6030 C 577.392 -1.57177 1.65441 0
M  V30 6031 C 578.37 -1.54649 0.502224 0
M  V30 6032 O 579.554 -1.74057 0.723633 0
M  V30 6033 C 576.681 -2.95763 1.65052 0
M  V30 6034 C 575.727 -3.16389 2.86007 0
M  V30 6035 S 576.56 -2.94716 4.47105 0
M  V30 6036 C 577.716 -4.35617 4.49432 0
M  V30 6037 H 577.949 -1.44561 2.59787 0
M  V30 6038 H 575.482 -0.644758 1.40293 0
M  V30 6039 H 577.44 -3.75654 1.65512 0
M  V30 6040 H 576.101 -3.05756 0.719153 0
M  V30 6041 H 575.294 -4.17667 2.82081 0
M  V30 6042 H 574.896 -2.44293 2.8319 0
M  V30 6043 H 577.188 -5.28503 4.239 0
M  V30 6044 H 578.131 -4.44582 5.51137 0
M  V30 6045 H 578.539 -4.18382 3.78967 0
M  V30 6046 N 577.937 -1.40673 -0.710563 0
M  V30 6047 C 578.9 -1.4108 -1.80635 0
M  V30 6048 C 579.9 -0.303783 -1.57904 0
M  V30 6049 O 581.09 -0.562937 -1.64853 0
M  V30 6050 C 578.222 -1.20748 -3.18799 0
M  V30 6051 H 579.415 -2.38612 -1.81671 0
M  V30 6052 H 576.968 -1.26595 -0.916704 0
M  V30 6053 H 577.703 -0.239964 -3.23411 0
M  V30 6054 H 577.488 -2.00941 -3.36698 0
M  V30 6055 H 578.978 -1.23833 -3.98817 0
M  V30 6056 N 579.415 0.9433 -1.26252 0
M  V30 6057 C 580.661 1.69175 -1.11837 0
M  V30 6058 C 580.994 1.91238 0.337891 0
M  V30 6059 O 580.269 1.49152 1.24836 0
M  V30 6060 C 580.552 3.06783 -1.88563 0
M  V30 6061 C 580.405 2.9206 -3.42083 0
M  V30 6062 C 581.724 4.06865 -1.67776 0
M  V30 6063 H 578.843 0.61399 -0.407658 0
M  V30 6064 H 581.485 1.09572 -1.55222 0
M  V30 6065 H 579.635 3.57663 -1.51689 0
M  V30 6066 H 581.307 2.48419 -3.88698 0
M  V30 6067 H 579.55 2.27731 -3.69217 0
M  V30 6068 H 580.221 3.89651 -3.90994 0
M  V30 6069 H 582.697 3.64939 -1.99897 0
M  V30 6070 H 581.573 5.01168 -2.23879 0
M  V30 6071 H 581.834 4.37705 -0.621816 0
M  V30 6072 N 580.893 1.08022 1.14757 0
M  V30 6073 C 582.139 0.818552 1.86202 0
M  V30 6074 C 582.494 -0.648563 1.81139 0
M  V30 6075 O 581.787 -1.4704 1.22841 0
M  V30 6076 C 581.981 1.26964 3.34088 0
M  V30 6077 C 581.81 2.77907 3.5355 0
M  V30 6078 C 580.58 3.45604 3.68627 0
M  V30 6079 C 582.778 3.7609 3.50801 0
M  V30 6080 N 580.76 4.85119 3.76209 0
M  V30 6081 C 582.131 5.0148 3.64579 0
M  V30 6082 C 584.186 3.6915 3.34115 0
M  V30 6083 C 582.889 6.20755 3.63395 0
M  V30 6084 C 584.915 4.87896 3.34233 0
M  V30 6085 C 584.277 6.12123 3.48547 0
M  V30 6086 H 580.376 0.352186 0.698204 0
M  V30 6087 H 582.96 1.37781 1.37567 0
M  V30 6088 H 581.131 0.738008 3.81324 0
M  V30 6089 H 582.863 0.954806 3.93275 0
M  V30 6090 H 579.618 2.96016 3.69691 0
M  V30 6091 H 580.042 5.57748 3.83726 0
M  V30 6092 H 584.684 2.74045 3.21961 0
M  V30 6093 H 582.402 7.16175 3.74326 0
M  V30 6094 H 585.988 4.8421 3.2254 0
M  V30 6095 H 584.868 7.02468 3.48581 0
M  V30 6096 N 582.371 -1.3172 0.865308 0
M  V30 6097 C 583.617 -1.97559 0.483944 0
M  V30 6098 C 583.972 -1.67181 -0.95227 0
M  V30 6099 O 583.265 -0.955392 -1.66081 0
M  V30 6100 C 583.459 -3.5102 0.672283 0
M  V30 6101 C 583.288 -3.96312 2.12525 0
M  V30 6102 C 582.058 -4.22877 2.76591 0
M  V30 6103 C 584.256 -4.10596 3.09702 0
M  V30 6104 N 582.238 -4.5449 4.12689 0
M  V30 6105 C 583.609 -4.45867 4.30816 0
M  V30 6106 C 585.664 -3.92961 3.05755 0
M  V30 6107 C 584.367 -4.65344 5.48495 0
M  V30 6108 C 586.393 -4.13628 4.22688 0
M  V30 6109 C 585.755 -4.49227 5.42563 0
M  V30 6110 H 581.854 -0.74862 0.226035 0
M  V30 6111 H 584.438 -1.59336 1.11893 0
M  V30 6112 H 582.609 -3.88342 0.0669224 0
M  V30 6113 H 584.341 -4.03865 0.259765 0
M  V30 6114 H 581.096 -4.15343 2.27567 0
M  V30 6115 H 581.52 -4.74464 4.82921 0
M  V30 6116 H 586.162 -3.64531 2.14188 0
M  V30 6117 H 583.88 -4.92624 6.40584 0
M  V30 6118 H 587.466 -4.01474 4.21082 0
M  V30 6119 H 586.346 -4.64895 6.31539 0
M  V30 6120 N 583.85 -0.624285 -1.44708 0
M  V30 6121 C 584.798 0.0969952 -2.32398 0
M  V30 6122 C 585.792 0.842762 -1.46949 0
M  V30 6123 O 586.998 0.756436 -1.63334 0
M  V30 6124 H 583.373 0.0501306 -0.750327 0
M  V30 6125 H 585.344 -0.660767 -2.90992 0
M  V30 6126 C 584.093 1.06967 -3.30837 0
M  V30 6127 H 583.416 0.505242 -3.96595 0
M  V30 6128 H 584.856 1.54397 -3.94889 0
M  V30 6129 C 583.315 2.15153 -2.5925 0
M  V30 6130 O 583.845 3.23139 -2.3863 0
M  V30 6131 N 582.051 1.90898 -2.19103 0
M  V30 6132 H 581.598 1.03086 -2.36074 0
M  V30 6133 H 581.556 2.63485 -1.71531 0
M  V30 6134 N 585.328 1.53329 -0.364422 0
M  V30 6135 C 586.558 2.05359 0.226096 0
M  V30 6136 C 586.966 1.23777 1.43094 0
M  V30 6137 O 586.309 0.271139 1.81688 0
M  V30 6138 C 586.371 3.52918 0.684794 0
M  V30 6139 C 586.035 4.55218 -0.403206 0
M  V30 6140 C 587.032 5.04583 -1.2527 0
M  V30 6141 C 584.717 4.99134 -0.563117 0
M  V30 6142 C 586.711 5.96463 -2.24745 0
M  V30 6143 C 584.398 5.9082 -1.56124 0
M  V30 6144 C 585.396 6.39375 -2.40184 0
M  V30 6145 O 585.084 7.29255 -3.38293 0
M  V30 6146 H 584.816 0.674588 0.0436772 0
M  V30 6147 H 587.37 1.98688 -0.520782 0
M  V30 6148 H 585.6 3.57122 1.48326 0
M  V30 6149 H 587.289 3.87812 1.19818 0
M  V30 6150 H 588.055 4.71403 -1.14034 0
M  V30 6151 H 583.934 4.60928 0.0813909 0
M  V30 6152 H 587.478 6.34285 -2.90393 0
M  V30 6153 H 583.375 6.23414 -1.67407 0
M  V30 6154 H 584.143 7.47249 -3.34009 0
M  V30 6155 N 586.806 0.0935595 1.57322 0
M  V30 6156 C 588.217 -0.435807 1.81542 0
M  V30 6157 C 588.568 -1.68263 1.00907 0
M  V30 6158 O 587.693 -2.15087 0.237983 0
M  V30 6159 C 588.288 -0.797436 3.29282 0
M  V30 6160 C 586.847 -1.27155 3.54272 0
M  V30 6161 C 585.994 -0.267455 2.76007 0
M  V30 6162 H 588.945 0.31902 1.5546 0
M  V30 6163 H 588.966 -1.6571 3.42521 0
M  V30 6164 H 588.478 0.110206 3.87943 0
M  V30 6165 H 586.579 -2.19696 3.00939 0
M  V30 6166 H 586.692 -1.23445 4.62923 0
M  V30 6167 H 585.056 -0.749282 2.43429 0
M  V30 6168 H 585.839 0.632839 3.37417 0
M  V30 6169 N 588.284 -1.56567 -0.180126 0
M  V30 6170 C 589.53 -1.81761 -0.899497 0
M  V30 6171 C 589.863 -0.670015 -1.82276 0
M  V30 6172 O 589.138 0.328575 -1.91705 0
M  V30 6173 C 589.421 -3.17296 -1.7028 0
M  V30 6174 C 589.274 -4.4257 -0.803255 0
M  V30 6175 C 590.593 -3.49678 -2.67233 0
M  V30 6176 H 587.712 -0.661192 -0.325567 0
M  V30 6177 H 590.354 -1.89272 -0.16612 0
M  V30 6178 H 588.504 -3.11023 -2.32802 0
M  V30 6179 H 590.176 -4.60902 -0.191585 0
M  V30 6180 H 588.419 -4.33658 -0.110796 0
M  V30 6181 H 589.09 -5.33935 -1.40064 0
M  V30 6182 H 591.566 -3.56347 -2.14839 0
M  V30 6183 H 590.442 -4.45605 -3.20511 0
M  V30 6184 H 590.703 -2.73932 -3.47007 0
M  V30 6185 N 589.762 0.448376 -1.51087 0
M  V30 6186 C 590.99 1.22143 -1.66999 0
M  V30 6187 C 591.405 1.85283 -0.362699 0
M  V30 6188 O 590.762 1.70236 0.65772 0
M  V30 6189 C 590.813 2.31357 -2.7777 0
M  V30 6190 O 590.534 1.70801 -4.03434 0
M  V30 6191 C 592.035 3.21836 -3.04855 0
M  V30 6192 H 589.255 0.368558 -0.560719 0
M  V30 6193 H 591.799 0.532618 -1.97442 0
M  V30 6194 H 589.954 2.95973 -2.49958 0
M  V30 6195 H 590.368 2.42895 -4.64868 0
M  V30 6196 H 591.842 3.94627 -3.85971 0
M  V30 6197 H 592.319 3.81949 -2.16821 0
M  V30 6198 H 592.925 2.62933 -3.34285 0
M  V30 6199 N 591.24 1.41047 0.703093 0
M  V30 6200 C 592.517 1.30493 1.45708 0
M  V30 6201 C 592.897 -0.0709892 2.10981 0
M  V30 6202 O 592.245 -1.08471 2.01113 0
M  V30 6203 C 592.455 2.45287 2.48265 0
M  V30 6204 C 593.803 2.86104 3.13735 0
M  V30 6205 O 594.827 2.44971 2.58587 0
M  V30 6206 O 593.686 3.57206 4.13601 0
M  V30 6207 H 590.78 0.513144 0.648546 0
M  V30 6208 H 593.326 1.52995 0.734208 0
M  V30 6209 H 592.098 3.37135 1.98635 0
M  V30 6210 H 591.721 2.24622 3.28071 0
M  V30 6211 N 592.718 -0.936591 1.26751 0
M  V30 6212 C 593.948 -1.71509 1.15188 0
M  V30 6213 C 594.356 -1.86885 -0.295037 0
M  V30 6214 O 593.699 -1.37915 -1.21347 0
M  V30 6215 C 593.761 -3.13853 1.75318 0
M  V30 6216 C 593.425 -3.21845 3.24445 0
M  V30 6217 C 594.422 -3.04771 4.21201 0
M  V30 6218 C 592.107 -3.45088 3.64992 0
M  V30 6219 C 594.101 -3.10816 5.56482 0
M  V30 6220 C 591.788 -3.50767 5.00405 0
M  V30 6221 C 592.786 -3.33648 5.9596 0
M  V30 6222 O 592.474 -3.39045 7.28906 0
M  V30 6223 H 592.206 -0.543658 0.401761 0
M  V30 6224 H 594.76 -1.18234 1.67958 0
M  V30 6225 H 592.99 -3.6857 1.17016 0
M  V30 6226 H 594.679 -3.73634 1.58596 0
M  V30 6227 H 595.445 -2.86665 3.91214 0
M  V30 6228 H 591.324 -3.57467 2.91098 0
M  V30 6229 H 594.868 -2.97372 6.31043 0
M  V30 6230 H 590.765 -3.68396 5.30052 0
M  V30 6231 H 591.533 -3.55558 7.37238 0
M  V30 6232 N 594.196 -1.08629 -1.14182 0
M  V30 6233 C 595.443 -0.817345 -1.85272 0
M  V30 6234 C 595.771 0.656917 -1.83071 0
M  V30 6235 O 595.026 1.49897 -1.25815 0
M  V30 6236 C 595.325 -1.28734 -3.3341 0
M  V30 6237 C 594.991 -2.76981 -3.55798 0
M  V30 6238 C 593.653 -3.17469 -3.61617 0
M  V30 6239 C 596.005 -3.72605 -3.64438 0
M  V30 6240 C 593.333 -4.52371 -3.736 0
M  V30 6241 C 595.685 -5.07286 -3.77947 0
M  V30 6242 C 594.349 -5.47376 -3.82016 0
M  V30 6243 H 593.619 -0.299088 -0.677958 0
M  V30 6244 H 596.266 -1.35962 -1.34857 0
M  V30 6245 H 594.571 -0.664702 -3.8612 0
M  V30 6246 H 596.268 -1.05598 -3.86846 0
M  V30 6247 H 592.858 -2.44644 -3.51919 0
M  V30 6248 H 597.042 -3.42443 -3.5923 0
M  V30 6249 H 592.298 -4.82882 -3.75013 0
M  V30 6250 H 596.472 -5.81243 -3.83575 0
M  V30 6251 H 594.099 -6.51906 -3.91054 0
M  V30 6252 N 595.674 1.31259 -0.872281 0
M  V30 6253 C 596.621 2.28459 -0.327857 0
M  V30 6254 C 597.591 1.55831 0.574957 0
M  V30 6255 O 598.776 1.83965 0.506101 0
M  V30 6256 C 595.916 3.41985 0.462644 0
M  V30 6257 C 595.029 4.29458 -0.467949 0
M  V30 6258 C 594.164 5.30131 0.336903 0
M  V30 6259 C 593.203 6.0925 -0.58997 0
M  V30 6260 N 592.34 7.01872 0.178775 0
M  V30 6261 H 597.18 2.74414 -1.16193 0
M  V30 6262 H 594.717 1.34994 -0.584376 0
M  V30 6263 H 596.675 4.06547 0.936759 0
M  V30 6264 H 595.305 2.97134 1.2614 0
M  V30 6265 H 594.357 3.65318 -1.06052 0
M  V30 6266 H 595.669 4.84677 -1.17856 0
M  V30 6267 H 594.823 6.0038 0.873427 0
M  V30 6268 H 593.562 4.75573 1.08079 0
M  V30 6269 H 592.567 5.37889 -1.13823 0
M  V30 6270 H 593.792 6.65894 -1.33275 0
M  V30 6271 H 591.738 6.49721 0.905435 0
M  V30 6272 H 591.655 7.54522 -0.472452 0
M  V30 6273 H 592.923 7.76382 0.696454 0
M  V30 6274 N 597.152 0.631951 1.44375 0
M  V30 6275 C 598.4 0.136497 2.01639 0
M  V30 6276 C 598.721 -1.24637 1.49969 0
M  V30 6277 O 597.991 -1.82827 0.70363 0
M  V30 6278 H 596.571 0.0474703 0.74549 0
M  V30 6279 H 599.233 0.818837 1.76865 0
M  V30 6280 H 598.329 0.104817 3.11924 0
M  V30 6281 N 598.631 -1.53133 0.372548 0
M  V30 6282 C 599.578 -2.25951 -0.470631 0
M  V30 6283 C 600.548 -1.26895 -1.07176 0
M  V30 6284 O 601.733 -1.55691 -1.10294 0
M  V30 6285 C 598.873 -3.05726 -1.6008 0
M  V30 6286 C 597.986 -4.19684 -1.02416 0
M  V30 6287 C 597.121 -4.86888 -2.124 0
M  V30 6288 C 596.16 -5.92866 -1.52238 0
M  V30 6289 N 595.297 -6.53732 -2.56084 0
M  V30 6290 H 600.137 -2.97587 0.156816 0
M  V30 6291 H 597.674 -1.4683 0.0891571 0
M  V30 6292 H 599.632 -3.50258 -2.26661 0
M  V30 6293 H 598.262 -2.36331 -2.1988 0
M  V30 6294 H 597.314 -3.79588 -0.248426 0
M  V30 6295 H 598.626 -4.95821 -0.544366 0
M  V30 6296 H 597.78 -5.34638 -2.86787 0
M  V30 6297 H 596.519 -4.10239 -2.63734 0
M  V30 6298 H 595.524 -5.4447 -0.763685 0
M  V30 6299 H 596.749 -6.71439 -1.0172 0
M  V30 6300 H 594.695 -5.79932 -3.06618 0
M  V30 6301 H 594.612 -7.25429 -2.12811 0
M  V30 6302 H 595.88 -7.0613 -3.30152 0
M  V30 6303 N 600.109 -0.101901 -1.5727 0
M  V30 6304 C 601.039 0.851544 -2.17419 0
M  V30 6305 C 602.02 1.28942 -1.10941 0
M  V30 6306 O 603.205 1.35509 -1.39107 0
M  V30 6307 C 600.335 2.10816 -2.75996 0
M  V30 6308 C 599.289 1.80867 -3.87906 0
M  V30 6309 C 598.615 3.13413 -4.33216 0
M  V30 6310 C 599.915 1.0903 -5.10793 0
M  V30 6311 H 601.609 0.350381 -2.97343 0
M  V30 6312 H 599.155 0.16709 -1.43027 0
M  V30 6313 H 601.108 2.77959 -3.16729 0
M  V30 6314 H 599.832 2.63227 -1.93337 0
M  V30 6315 H 598.491 1.16119 -3.47724 0
M  V30 6316 H 598.139 3.63725 -3.47438 0
M  V30 6317 H 597.839 2.94155 -5.08671 0
M  V30 6318 H 599.363 3.81704 -4.76586 0
M  V30 6319 H 600.777 1.66295 -5.48652 0
M  V30 6320 H 599.174 0.99927 -5.91722 0
M  V30 6321 H 600.244 0.0741704 -4.84843 0
M  V30 6322 N 601.587 1.56661 0.17182 0
M  V30 6323 C 602.55 1.9549 1.19651 0
M  V30 6324 C 603.55 0.838501 1.37207 0
M  V30 6325 O 604.74 1.10556 1.34622 0
M  V30 6326 C 601.872 2.24927 2.56166 0
M  V30 6327 H 603.065 2.87184 0.864007 0
M  V30 6328 H 600.618 1.50711 0.41425 0
M  V30 6329 H 601.353 1.35944 2.94431 0
M  V30 6330 H 601.138 3.06301 2.4479 0
M  V30 6331 H 602.628 2.55891 3.30014 0
M  V30 6332 N 603.065 -0.440357 1.51323 0
M  V30 6333 C 603.995 -1.54174 1.75364 0
M  V30 6334 C 604.976 -1.59039 0.603375 0
M  V30 6335 O 606.161 -1.74815 0.845774 0
M  V30 6336 C 603.291 -2.92277 1.87593 0
M  V30 6337 C 602.245 -3.02274 3.03009 0
M  V30 6338 C 601.571 -4.42327 3.00418 0
M  V30 6339 C 602.871 -2.76634 4.43024 0
M  V30 6340 H 604.565 -1.34307 2.67585 0
M  V30 6341 H 602.111 -0.644678 1.28763 0
M  V30 6342 H 604.064 -3.69284 2.02995 0
M  V30 6343 H 602.788 -3.13369 0.920179 0
M  V30 6344 H 601.447 -2.27706 2.87307 0
M  V30 6345 H 601.095 -4.60382 2.02626 0
M  V30 6346 H 600.795 -4.49946 3.77918 0
M  V30 6347 H 602.319 -5.21312 3.17909 0
M  V30 6348 H 603.733 -3.43376 4.59093 0
M  V30 6349 H 602.13 -2.95666 5.22208 0
M  V30 6350 H 603.2 -1.72262 4.5327 0
M  V30 6351 N 604.543 -1.41418 -0.695603 0
M  V30 6352 C 605.791 -1.40496 -1.45277 0
M  V30 6353 C 606.112 -0.0149538 -1.94994 0
M  V30 6354 O 605.382 0.9432 -1.71699 0
M  V30 6355 H 603.962 -0.517147 -0.539044 0
M  V30 6356 H 606.624 -1.76656 -0.823321 0
M  V30 6357 H 605.72 -2.09214 -2.31595 0
M  V30 6358 N 606.021 0.929856 -1.27246 0
M  V30 6359 C 607.432 1.49223 -1.12203 0
M  V30 6360 C 607.783 1.93989 0.293731 0
M  V30 6361 O 606.908 1.80978 1.18642 0
M  V30 6362 C 607.503 2.71198 -2.0307 0
M  V30 6363 C 606.062 3.23666 -1.92139 0
M  V30 6364 C 605.209 1.96409 -1.95752 0
M  V30 6365 H 608.16 0.744181 -1.4017 0
M  V30 6366 H 608.181 3.45905 -1.58524 0
M  V30 6367 H 607.693 2.38585 -3.06102 0
M  V30 6368 H 605.794 3.61042 -0.920834 0
M  V30 6369 H 605.907 3.90006 -2.78267 0
M  V30 6370 H 604.271 2.12806 -1.39949 0
M  V30 6371 H 605.054 1.66113 -3.00436 0
M  V30 6372 N 607.499 1.09233 1.13605 0
M  V30 6373 C 608.432 0.6739 2.18023 0
M  V30 6374 C 609.41 -0.318603 1.59448 0
M  V30 6375 O 610.594 -0.220452 1.87206 0
M  V30 6376 C 607.721 -0.00751458 3.38699 0
M  V30 6377 C 606.767 0.946481 4.15865 0
M  V30 6378 S 607.6 2.45753 4.75779 0
M  V30 6379 C 608.756 1.78846 5.99804 0
M  V30 6380 H 608.989 1.55846 2.53178 0
M  V30 6381 H 606.522 0.908118 1.2487 0
M  V30 6382 H 608.48 -0.394368 4.08601 0
M  V30 6383 H 607.141 -0.868693 3.01849 0
M  V30 6384 H 606.334 0.416742 5.02274 0
M  V30 6385 H 605.936 1.27464 3.51609 0
M  V30 6386 H 608.228 1.11135 6.68323 0
M  V30 6387 H 609.171 2.63163 6.57382 0
M  V30 6388 H 609.579 1.25823 5.50299 0
M  V30 6389 N 608.977 -1.30795 0.87923 0
M  V30 6390 C 609.927 -2.25838 0.313276 0
M  V30 6391 C 610.911 -1.51025 -0.55499 0
M  V30 6392 O 612.103 -1.72413 -0.400353 0
M  V30 6393 C 609.232 -3.39981 -0.476204 0
M  V30 6394 C 608.318 -4.22154 0.405826 0
M  V30 6395 N 608.709 -4.82934 1.50362 0
M  V30 6396 C 607.007 -4.45552 0.199909 0
M  V30 6397 C 607.708 -5.44444 2.0483 0
M  V30 6398 N 606.684 -5.26723 1.34403 0
M  V30 6399 H 610.486 -2.70374 1.15218 0
M  V30 6400 H 608 -1.45168 0.728003 0
M  V30 6401 H 609.997 -4.07108 -0.898251 0
M  V30 6402 H 608.657 -2.96986 -1.31261 0
M  V30 6403 H 609.668 -4.82319 1.8865 0
M  V30 6404 H 606.345 -4.13169 -0.599795 0
M  V30 6405 H 607.735 -6.02701 2.96986 0
M  V30 6406 N 610.455 -0.639598 -1.44038 0
M  V30 6407 C 611.703 -0.147188 -2.01563 0
M  V30 6408 C 612.024 1.2384 -1.50628 0
M  V30 6409 O 611.294 1.82452 -0.713316 0
M  V30 6410 H 609.874 -0.0514231 -0.745228 0
M  V30 6411 H 612.536 -0.828205 -1.76428 0
M  V30 6412 H 611.632 -0.121358 -3.11864 0
M  V30 6413 N 611.933 1.52934 -0.380664 0
M  V30 6414 C 612.863 2.29118 0.450268 0
M  V30 6415 C 613.844 1.32153 1.07096 0
M  V30 6416 O 615.029 1.61038 1.08537 0
M  V30 6417 C 612.159 3.09161 1.58231 0
M  V30 6418 C 611.113 4.13938 1.0881 0
M  V30 6419 C 610.439 4.82153 2.31155 0
M  V30 6420 C 611.739 5.22048 0.162146 0
M  V30 6421 H 613.433 2.98826 -0.185361 0
M  V30 6422 H 610.979 1.43715 -0.0905886 0
M  V30 6423 H 612.932 3.61211 2.17036 0
M  V30 6424 H 611.656 2.3717 2.2454 0
M  V30 6425 H 610.315 3.62855 0.522633 0
M  V30 6426 H 609.963 4.06719 2.95953 0
M  V30 6427 H 609.663 5.52966 1.98752 0
M  V30 6428 H 611.187 5.37004 2.90618 0
M  V30 6429 H 612.601 5.6951 0.658126 0
M  V30 6430 H 610.998 6.00057 -0.0717122 0
M  V30 6431 H 612.068 4.78398 -0.791438 0
M  V30 6432 N 613.412 0.11024 1.57214 0
M  V30 6433 C 614.689 -0.592956 1.86396 0
M  V30 6434 C 615.069 -1.85379 1.00985 0
M  V30 6435 O 614.417 -2.28337 0.0863592 0
M  V30 6436 C 614.627 -0.893816 3.3736 0
M  V30 6437 C 615.975 -1.25069 4.05762 0
M  V30 6438 O 616.999 -0.984356 3.42329 0
M  V30 6439 O 615.858 -1.75017 5.17718 0
M  V30 6440 H 612.952 -0.29828 0.771335 0
M  V30 6441 H 615.498 0.144083 1.69087 0
M  V30 6442 H 614.27 2.6031e-05 3.913 0
M  V30 6443 H 613.893 -1.68631 3.60068 0
M  V30 6444 N 614.89 -1.56749 -0.16351 0
M  V30 6445 C 615.837 -1.97011 -1.2023 0
M  V30 6446 C 616.807 -0.835186 -1.43575 0
M  V30 6447 O 617.992 -1.09594 -1.56185 0
M  V30 6448 C 615.132 -2.34186 -2.53478 0
M  V30 6449 C 614.245 -3.60893 -2.37446 0
M  V30 6450 C 613.38 -3.87245 -3.63614 0
M  V30 6451 C 612.419 -5.07274 -3.42548 0
M  V30 6452 N 611.556 -5.29719 -4.60806 0
M  V30 6453 H 616.396 -2.85562 -0.851958 0
M  V30 6454 H 613.933 -1.41292 -0.409257 0
M  V30 6455 H 615.891 -2.53764 -3.31149 0
M  V30 6456 H 614.521 -1.48736 -2.86492 0
M  V30 6457 H 613.573 -3.49185 -1.50911 0
M  V30 6458 H 614.885 -4.48722 -2.1783 0
M  V30 6459 H 614.039 -4.07232 -4.49719 0
M  V30 6460 H 612.778 -2.97806 -3.86216 0
M  V30 6461 H 611.783 -4.87177 -2.5483 0
M  V30 6462 H 613.008 -5.98251 -3.2136 0
M  V30 6463 H 610.954 -4.43233 -4.83612 0
M  V30 6464 H 610.871 -6.11786 -4.44132 0
M  V30 6465 H 612.139 -5.54192 -5.48171 0
M  V30 6466 N 616.368 0.432326 -1.51554 0
M  V30 6467 C 617.616 1.17901 -1.64146 0
M  V30 6468 C 617.937 1.91604 -0.362367 0
M  V30 6469 O 617.207 1.85764 0.621968 0
M  V30 6470 H 615.787 0.438206 -0.604966 0
M  V30 6471 H 618.449 0.495172 -1.88505 0
M  V30 6472 H 617.545 1.90584 -2.47152 0
M  V30 6473 N 617.846 1.41785 0.688094 0
M  V30 6474 C 618.776 1.47 1.8142 0
M  V30 6475 C 619.757 0.327881 1.6691 0
M  V30 6476 O 620.942 0.540362 1.86531 0
M  V30 6477 C 618.072 1.35876 3.19617 0
M  V30 6478 C 617.026 2.47976 3.48844 0
M  V30 6479 C 616.352 2.21915 4.86475 0
M  V30 6480 C 617.652 3.90309 3.47068 0
M  V30 6481 H 619.346 2.41247 1.77314 0
M  V30 6482 H 616.892 1.16116 0.851651 0
M  V30 6483 H 618.845 1.38134 3.98117 0
M  V30 6484 H 617.569 0.38116 3.24368 0
M  V30 6485 H 616.228 2.45013 2.72698 0
M  V30 6486 H 615.876 1.2248 4.8786 0
M  V30 6487 H 615.576 2.97037 5.06994 0
M  V30 6488 H 617.1 2.25901 5.67275 0
M  V30 6489 H 618.514 3.94947 4.1556 0
M  V30 6490 H 616.911 4.65175 3.7912 0
M  V30 6491 H 617.981 4.17927 2.45896 0
M  V30 6492 N 619.324 -0.923095 1.27737 0
M  V30 6493 C 620.272 -2.04567 1.10703 0
M  V30 6494 C 621.266 -1.69375 0.0288445 0
M  V30 6495 O 622.472 -1.79027 0.186913 0
M  V30 6496 H 618.847 -0.670109 0.34126 0
M  V30 6497 H 620.818 -2.1608 2.05796 0
M  V30 6498 C 619.567 -3.38934 0.775837 0
M  V30 6499 H 618.89 -3.66501 1.59741 0
M  V30 6500 H 620.33 -4.18239 0.696548 0
M  V30 6501 C 618.789 -3.32863 -0.520012 0
M  V30 6502 O 619.319 -3.70462 -1.55308 0
M  V30 6503 N 617.525 -2.85958 -0.51732 0
M  V30 6504 H 617.072 -2.55557 0.32379 0
M  V30 6505 H 617.03 -2.82279 -1.38441 0
M  V30 6506 N 620.802 -1.09834 -1.13024 0
M  V30 6507 C 621.734 -0.699379 -2.18269 0
M  V30 6508 C 622.747 0.260841 -1.60697 0
M  V30 6509 O 623.936 0.0462538 -1.7844 0
M  V30 6510 C 621.036 -0.0104537 -3.38898 0
M  V30 6511 C 620.209 -0.993275 -4.25973 0
M  V30 6512 C 619.268 -0.336982 -5.2512 0
M  V30 6513 O 618.294 -0.985892 -5.60597 0
M  V30 6514 N 619.496 0.90716 -5.73368 0
M  V30 6515 H 622.261 -1.60486 -2.5311 0
M  V30 6516 H 619.822 -0.986337 -1.28386 0
M  V30 6517 H 621.814 0.43991 -4.02302 0
M  V30 6518 H 620.384 0.797335 -3.0226 0
M  V30 6519 H 619.604 -1.62208 -3.5928 0
M  V30 6520 H 620.892 -1.65876 -4.81002 0
M  V30 6521 H 620.29 1.45384 -5.46699 0
M  V30 6522 H 618.847 1.30077 -6.38689 0
M  V30 6523 N 622.28 1.30327 -0.886154 0
M  V30 6524 C 623.51 1.99964 -0.519421 0
M  V30 6525 C 623.918 1.66593 0.89686 0
M  V30 6526 O 623.261 0.899886 1.60149 0
M  V30 6527 C 623.323 3.54187 -0.615795 0
M  V30 6528 C 622.987 4.11078 -1.9966 0
M  V30 6529 C 623.984 4.26985 -2.96614 0
M  V30 6530 C 621.669 4.46429 -2.30231 0
M  V30 6531 C 623.663 4.77456 -4.22273 0
M  V30 6532 C 621.35 4.966 -3.56135 0
M  V30 6533 C 622.348 5.12066 -4.5197 0
M  V30 6534 O 622.036 5.61154 -5.7564 0
M  V30 6535 H 621.768 0.645979 -0.199217 0
M  V30 6536 H 624.322 1.67154 -1.19368 0
M  V30 6537 H 622.552 3.86528 0.115448 0
M  V30 6538 H 624.241 4.05065 -0.26017 0
M  V30 6539 H 625.007 3.99975 -2.74308 0
M  V30 6540 H 620.886 4.33658 -1.56404 0
M  V30 6541 H 624.43 4.89444 -4.97082 0
M  V30 6542 H 620.327 5.23045 -3.78277 0
M  V30 6543 H 621.095 5.79494 -5.78039 0
M  V30 6544 N 623.758 0.647228 1.43697 0
M  V30 6545 C 625.004 0.158422 2.0218 0
M  V30 6546 C 625.337 -1.22233 1.50907 0
M  V30 6547 O 624.612 -1.81478 0.699702 0
M  V30 6548 C 624.895 0.1627 3.59732 0
M  V30 6549 C 624.748 1.57694 4.21251 0
M  V30 6550 C 626.067 -0.504138 4.37203 0
M  V30 6551 H 623.186 0.059042 0.734631 0
M  V30 6552 H 625.828 0.826772 1.71069 0
M  V30 6553 H 623.978 -0.406414 3.86368 0
M  V30 6554 H 625.65 2.19618 4.05667 0
M  V30 6555 H 623.893 2.12603 3.7813 0
M  V30 6556 H 624.564 1.53183 5.3032 0
M  V30 6557 H 627.04 -0.0199841 4.16095 0
M  V30 6558 H 625.916 -0.470394 5.46881 0
M  V30 6559 H 626.177 -1.57726 4.13007 0
M  V30 6560 N 625.236 -1.5273 0.388769 0
M  V30 6561 C 626.513 -1.93981 -0.251133 0
M  V30 6562 C 626.893 -1.32418 -1.64404 0
M  V30 6563 O 626.241 -0.492074 -2.23139 0
M  V30 6564 C 626.451 -3.47891 -0.27802 0
M  V30 6565 C 627.799 -4.21559 -0.507229 0
M  V30 6566 O 628.823 -3.54394 -0.358252 0
M  V30 6567 O 627.682 -5.40626 -0.799094 0
M  V30 6568 H 624.776 -0.812157 -0.15598 0
M  V30 6569 H 627.322 -1.63809 0.443237 0
M  V30 6570 H 626.094 -3.8503 0.697669 0
M  V30 6571 H 625.717 -3.84364 -1.01733 0
M  V30 6572 N 626.714 -0.118576 -1.57153 0
M  V30 6573 C 627.961 0.539526 -1.9518 0
M  V30 6574 C 628.289 1.66714 -1.00184 0
M  V30 6575 O 627.544 1.95683 -0.0256482 0
M  V30 6576 C 627.843 1.11303 -3.39627 0
M  V30 6577 C 627.509 0.106809 -4.50773 0
M  V30 6578 C 626.171 -0.169876 -4.809 0
M  V30 6579 C 628.523 -0.57895 -5.17975 0
M  V30 6580 C 625.851 -1.13861 -5.75545 0
M  V30 6581 C 628.203 -1.53631 -6.13661 0
M  V30 6582 C 626.867 -1.82099 -6.42181 0
M  V30 6583 H 626.137 0.197427 -0.714215 0
M  V30 6584 H 628.784 -0.199391 -1.90459 0
M  V30 6585 H 627.089 1.92869 -3.4104 0
M  V30 6586 H 628.786 1.63032 -3.66363 0
M  V30 6587 H 625.376 0.332645 -4.27307 0
M  V30 6588 H 629.56 -0.378359 -4.94856 0
M  V30 6589 H 624.816 -1.36592 -5.95947 0
M  V30 6590 H 628.99 -2.07337 -6.64819 0
M  V30 6591 H 626.617 -2.57319 -7.15326 0
M  V30 6592 N 628.193 1.56834 0.155195 0
M  V30 6593 C 629.44 1.82898 0.869179 0
M  V30 6594 C 629.768 0.698194 1.81537 0
M  V30 6595 O 629.023 -0.313404 1.93174 0
M  V30 6596 C 629.322 3.15239 1.68402 0
M  V30 6597 C 628.988 4.42123 0.885341 0
M  V30 6598 C 627.65 4.76583 0.664971 0
M  V30 6599 C 630.002 5.20178 0.326234 0
M  V30 6600 C 627.33 5.86566 -0.125346 0
M  V30 6601 C 629.682 6.3099 -0.45108 0
M  V30 6602 C 628.346 6.64006 -0.682102 0
M  V30 6603 H 627.616 0.66927 0.318055 0
M  V30 6604 H 630.263 1.91036 0.133241 0
M  V30 6605 H 628.568 3.02515 2.48982 0
M  V30 6606 H 630.265 3.32618 2.23978 0
M  V30 6607 H 626.855 4.15102 1.06716 0
M  V30 6608 H 631.039 4.93936 0.483787 0
M  V30 6609 H 626.295 6.10594 -0.313915 0
M  V30 6610 H 630.469 6.9067 -0.89149 0
M  V30 6611 H 628.096 7.49065 -1.29636 0
M  V30 6612 N 629.671 -0.424282 1.51781 0
M  V30 6613 C 630.899 -1.1947 1.68921 0
M  V30 6614 C 631.314 -1.84683 0.39213 0
M  V30 6615 O 630.671 -1.71261 -0.630554 0
M  V30 6616 C 630.722 -2.26909 2.81416 0
M  V30 6617 O 630.443 -1.64361 4.061 0
M  V30 6618 C 631.944 -3.16945 3.09937 0
M  V30 6619 H 629.164 -0.359591 0.566511 0
M  V30 6620 H 631.708 -0.501139 1.98265 0
M  V30 6621 H 629.863 -2.91959 2.54635 0
M  V30 6622 H 630.277 -2.35468 4.68674 0
M  V30 6623 H 631.751 -3.88437 3.922 0
M  V30 6624 H 632.228 -3.78451 2.22871 0
M  V30 6625 H 632.834 -2.57581 3.38426 0
M  V30 6626 N 631.149 -1.42148 -0.680565 0
M  V30 6627 C 632.395 -1.42521 -1.44277 0
M  V30 6628 C 632.728 -0.0393718 -1.9416 0
M  V30 6629 O 632.003 0.935425 -1.70529 0
M  V30 6630 C 632.286 -2.44475 -2.64394 0
M  V30 6631 C 632.139 -3.92226 -2.20179 0
M  V30 6632 C 633.458 -2.43491 -3.66606 0
M  V30 6633 H 630.577 -0.518985 -0.523282 0
M  V30 6634 H 633.219 -1.73524 -0.773914 0
M  V30 6635 H 631.369 -2.18168 -3.21458 0
M  V30 6636 H 633.041 -4.29493 -1.68327 0
M  V30 6637 H 631.284 -4.0637 -1.5181 0
M  V30 6638 H 631.955 -4.59133 -3.06433 0
M  V30 6639 H 634.431 -2.66872 -3.19247 0
M  V30 6640 H 633.307 -3.16816 -4.4824 0
M  V30 6641 H 633.568 -1.45881 -4.17338 0
M  V30 6642 N 632.627 0.916307 -1.28225 0
M  V30 6643 C 633.575 2.03977 -1.11786 0
M  V30 6644 C 634.569 1.69358 -0.0378265 0
M  V30 6645 O 635.775 1.78925 -0.196405 0
M  V30 6646 H 632.15 0.66829 -0.344809 0
M  V30 6647 H 634.121 2.14985 -2.06939 0
M  V30 6648 C 632.87 3.38518 -0.7938 0
M  V30 6649 H 632.193 3.65649 -1.61682 0
M  V30 6650 H 633.633 4.17864 -0.718719 0
M  V30 6651 C 632.092 3.33134 0.502353 0
M  V30 6652 O 632.622 3.71281 1.53341 0
M  V30 6653 N 630.828 2.86229 0.502147 0
M  V30 6654 H 630.375 2.55382 -0.337338 0
M  V30 6655 H 630.333 2.83009 1.36942 0
M  V30 6656 N 634.105 1.10431 1.1244 0
M  V30 6657 C 635.516 0.864439 1.65482 0
M  V30 6658 C 635.867 -0.60527 1.8663 0
M  V30 6659 O 634.992 -1.46492 1.59276 0
M  V30 6660 C 635.587 1.56267 3.0061 0
M  V30 6661 C 634.146 1.3695 3.50602 0
M  V30 6662 C 633.293 1.61209 2.25626 0
M  V30 6663 H 636.244 1.26203 0.962209 0
M  V30 6664 H 636.265 1.00166 3.67079 0
M  V30 6665 H 635.777 2.63231 2.85186 0
M  V30 6666 H 633.878 0.321481 3.71211 0
M  V30 6667 H 633.991 2.11143 4.30064 0
M  V30 6668 H 632.355 1.03482 2.32731 0
M  V30 6669 H 633.138 2.69425 2.12756 0
M  V30 6670 N 635.583 -1.29855 0.893053 0
M  V30 6671 C 636.516 -2.26079 0.3104 0
M  V30 6672 C 637.494 -1.52145 -0.573644 0
M  V30 6673 O 638.678 -1.8113 -0.521937 0
M  V30 6674 C 635.805 -3.34069 -0.558179 0
M  V30 6675 C 634.851 -4.25721 0.257638 0
M  V30 6676 S 635.684 -5.09409 1.65114 0
M  V30 6677 C 636.84 -6.20903 0.789307 0
M  V30 6678 H 637.073 -2.75151 1.12602 0
M  V30 6679 H 634.606 -1.37975 0.692978 0
M  V30 6680 H 636.564 -3.9675 -1.05355 0
M  V30 6681 H 635.225 -2.83705 -1.34797 0
M  V30 6682 H 634.418 -5.02366 -0.405562 0
M  V30 6683 H 634.02 -3.67656 0.685917 0
M  V30 6684 H 636.312 -6.77499 0.00978451 0
M  V30 6685 H 637.255 -6.91426 1.52762 0
M  V30 6686 H 637.663 -5.63435 0.346634 0
M  V30 6687 N 637.061 -0.65484 -1.43351 0
M  V30 6688 C 637.971 0.0363603 -2.34572 0
M  V30 6689 C 638.987 0.810432 -1.53974 0
M  V30 6690 O 640.163 0.757308 -1.86619 0
M  V30 6691 C 637.228 0.989733 -3.32273 0
M  V30 6692 C 636.289 0.212414 -4.28774 0
M  V30 6693 C 635.522 1.12038 -5.21808 0
M  V30 6694 O 635.745 2.35967 -5.19303 0
M  V30 6695 O 634.679 0.59191 -5.98982 0
M  V30 6696 H 638.505 -0.714527 -2.95175 0
M  V30 6697 H 636.09 -0.415029 -1.4352 0
M  V30 6698 H 637.972 1.53759 -3.92347 0
M  V30 6699 H 636.647 1.72082 -2.74171 0
M  V30 6700 H 635.554 -0.379062 -3.72175 0
M  V30 6701 H 636.887 -0.479138 -4.89862 0
M  V30 6702 N 638.539 1.52521 -0.396863 0
M  V30 6703 C 639.489 2.2348 0.451722 0
M  V30 6704 C 640.473 1.2415 1.0235 0
M  V30 6705 O 641.665 1.4945 0.948348 0
M  V30 6706 C 638.794 3.05067 1.57445 0
M  V30 6707 C 637.88 4.11799 1.01404 0
M  V30 6708 N 638.271 5.05482 0.179234 0
M  V30 6709 C 636.569 4.27064 1.28578 0
M  V30 6710 C 637.27 5.81552 -0.131202 0
M  V30 6711 N 636.246 5.41523 0.474735 0
M  V30 6712 H 640.048 2.93269 -0.192534 0
M  V30 6713 H 637.562 1.61081 -0.206591 0
M  V30 6714 H 639.559 3.54446 2.19485 0
M  V30 6715 H 638.219 2.36816 2.22145 0
M  V30 6716 H 639.23 5.17573 -0.18411 0
M  V30 6717 H 635.907 3.70042 1.93327 0
M  V30 6718 H 637.297 6.67023 -0.808061 0
M  V30 6719 N 640.017 0.126909 1.57088 0
M  V30 6720 C 640.98 -0.806097 2.14557 0
M  V30 6721 C 641.98 -1.18918 1.08236 0
M  V30 6722 O 643.17 -1.11339 1.33975 0
M  V30 6723 C 640.302 -2.09116 2.69227 0
M  V30 6724 H 641.495 -0.306522 2.98329 0
M  V30 6725 H 639.048 -0.122393 1.5582 0
M  V30 6726 H 639.783 -2.63486 1.89065 0
M  V30 6727 H 639.568 -1.82588 3.46993 0
M  V30 6728 H 641.058 -2.75794 3.13572 0
M  V30 6729 N 641.495 -1.56914 -0.146875 0
M  V30 6730 C 642.405 -2.0154 -1.20079 0
M  V30 6731 C 643.421 -0.930838 -1.47008 0
M  V30 6732 O 644.597 -1.24032 -1.58676 0
M  V30 6733 C 641.662 -2.38715 -2.51428 0
M  V30 6734 C 640.723 -3.6112 -2.32145 0
M  V30 6735 C 639.956 -3.96512 -3.57231 0
M  V30 6736 O 640.179 -3.32566 -4.63418 0
M  V30 6737 O 639.113 -4.89758 -3.49887 0
M  V30 6738 H 642.939 -2.91506 -0.851924 0
M  V30 6739 H 640.524 -1.45106 -0.355607 0
M  V30 6740 H 642.406 -2.63485 -3.28867 0
M  V30 6741 H 641.081 -1.51903 -2.85845 0
M  V30 6742 H 639.988 -3.41536 -1.52656 0
M  V30 6743 H 641.321 -4.48549 -2.02644 0
M  V30 6744 N 642.974 0.416227 -1.52004 0
M  V30 6745 C 643.904 1.51365 -1.77795 0
M  V30 6746 C 644.885 1.58059 -0.628601 0
M  V30 6747 O 646.07 1.73447 -0.873478 0
M  V30 6748 C 643.2 2.89256 -1.92219 0
M  V30 6749 C 642.154 2.97415 -3.0778 0
M  V30 6750 C 641.48 4.37492 -3.07417 0
M  V30 6751 C 642.78 2.69551 -4.47369 0
M  V30 6752 H 644.474 1.30033 -2.69688 0
M  V30 6753 H 642.02 0.624112 -1.29772 0
M  V30 6754 H 643.973 3.66008 -2.08845 0
M  V30 6755 H 642.697 3.11866 -0.969917 0
M  V30 6756 H 641.356 2.23107 -2.90893 0
M  V30 6757 H 641.004 4.571 -2.09925 0
M  V30 6758 H 640.704 4.43877 -3.85029 0
M  V30 6759 H 642.228 5.16188 -3.26162 0
M  V30 6760 H 643.642 3.36028 -4.64497 0
M  V30 6761 H 642.039 2.87321 -5.26846 0
M  V30 6762 H 643.109 1.65029 -4.55953 0
M  V30 6763 N 644.452 1.42507 0.673017 0
M  V30 6764 C 645.677 1.4668 1.46627 0
M  V30 6765 C 646.102 0.080066 1.8793 0
M  V30 6766 O 645.46 -0.921879 1.56112 0
M  V30 6767 C 645.508 2.40091 2.69051 0
M  V30 6768 O 644.612 1.8735 3.67387 0
M  V30 6769 H 643.953 0.496908 0.44043 0
M  V30 6770 H 646.483 1.87215 0.825334 0
M  V30 6771 H 646.493 2.56731 3.17101 0
M  V30 6772 H 645.168 3.4084 2.3833 0
M  V30 6773 H 643.745 1.80274 3.26429 0
M  V30 6774 N 645.93 -0.909495 1.28709 0
M  V30 6775 C 646.877 -2.01245 1.13 0
M  V30 6776 C 647.847 -1.6608 0.0259684 0
M  V30 6777 O 649.032 -1.89835 0.191687 0
M  V30 6778 C 646.172 -3.35644 0.802315 0
M  V30 6779 C 645.285 -3.83653 1.98582 0
M  V30 6780 C 644.42 -5.06582 1.59837 0
M  V30 6781 C 643.459 -5.46934 2.74827 0
M  V30 6782 N 642.596 -6.61053 2.36546 0
M  V30 6783 H 647.436 -2.14013 2.0737 0
M  V30 6784 H 644.973 -1.0482 1.03205 0
M  V30 6785 H 646.931 -4.12963 0.593057 0
M  V30 6786 H 645.561 -3.22631 -0.104457 0
M  V30 6787 H 644.613 -3.02454 2.30708 0
M  V30 6788 H 645.925 -4.09515 2.84779 0
M  V30 6789 H 645.079 -5.91457 1.35143 0
M  V30 6790 H 643.818 -4.82537 0.707753 0
M  V30 6791 H 642.823 -4.60599 3.00215 0
M  V30 6792 H 644.048 -5.72965 3.64538 0
M  V30 6793 H 641.994 -6.3863 1.49959 0
M  V30 6794 H 641.911 -6.86662 3.16277 0
M  V30 6795 H 643.179 -7.49221 2.15146 0
M  V30 6796 N 647.408 -1.11026 -1.11852 0
M  V30 6797 C 648.657 -0.851249 -1.82857 0
M  V30 6798 C 648.97 0.62514 -1.85341 0
M  V30 6799 O 650.176 1.00026 -2.52403 0
M  V30 6800 C 648.632 -1.47309 -3.28372 0
M  V30 6801 C 648.24 -2.9832 -3.34229 0
M  V30 6802 C 649.984 -1.29373 -4.04306 0
M  V30 6803 C 647.891 -3.53509 -4.74115 0
M  V30 6804 H 646.821 -0.314794 -0.685143 0
M  V30 6805 H 649.472 -1.33499 -1.25898 0
M  V30 6806 H 647.854 -0.917017 -3.85236 0
M  V30 6807 H 649.028 -3.60295 -2.87271 0
M  V30 6808 H 647.343 -3.15482 -2.71772 0
M  V30 6809 H 649.94 -1.68042 -5.07608 0
M  V30 6810 H 650.283 -0.235879 -4.15631 0
M  V30 6811 H 650.816 -1.8182 -3.53817 0
M  V30 6812 H 647.555 -4.58987 -4.67986 0
M  V30 6813 H 647.075 -2.96305 -5.21501 0
M  V30 6814 H 648.754 -3.51693 -5.43066 0
M  V30 6815 N 648.886 1.2938 -0.899927 0
M  V30 6816 C 650.111 2.00228 -0.540692 0
M  V30 6817 C 650.536 1.66909 0.867359 0
M  V30 6818 O 649.894 0.893824 1.57735 0
M  V30 6819 C 649.942 3.52921 -0.740232 0
M  V30 6820 O 649.046 4.11879 0.207154 0
M  V30 6821 H 648.387 0.629505 -0.211233 0
M  V30 6822 H 650.917 1.6487 -1.21158 0
M  V30 6823 H 650.927 4.0287 -0.644973 0
M  V30 6824 H 649.602 3.76508 -1.76677 0
M  V30 6825 H 648.179 3.72845 0.0643315 0
M  V30 6826 N 650.364 0.662433 1.43002 0
M  V30 6827 C 651.613 0.176873 2.00923 0
M  V30 6828 C 651.926 -1.21954 1.52927 0
M  V30 6829 O 653.132 -1.80081 2.03182 0
M  V30 6830 C 651.588 0.265379 3.5892 0
M  V30 6831 C 651.196 1.66507 4.15908 0
M  V30 6832 C 652.94 -0.162103 4.2419 0
M  V30 6833 C 650.847 1.707 5.66229 0
M  V30 6834 H 649.777 0.0623627 0.751417 0
M  V30 6835 H 652.428 0.825813 1.63868 0
M  V30 6836 H 650.81 -0.451235 3.93421 0
M  V30 6837 H 651.984 2.40777 3.92891 0
M  V30 6838 H 650.299 2.03932 3.63044 0
M  V30 6839 H 652.896 -0.150745 5.34487 0
M  V30 6840 H 653.239 -1.19519 3.98774 0
M  V30 6841 H 653.772 0.503075 3.94606 0
M  V30 6842 H 650.511 2.7195 5.96426 0
M  V30 6843 H 650.031 1.00768 5.91275 0
M  V30 6844 H 651.71 1.45487 6.3043 0
M  V30 6845 N 651.842 -1.52309 0.404946 0
M  V30 6846 C 652.792 -2.23717 -0.439864 0
M  V30 6847 C 653.776 -1.24692 -1.0169 0
M  V30 6848 O 654.968 -1.49951 -0.940409 0
M  V30 6849 C 652.097 -3.05898 -1.55825 0
M  V30 6850 C 651.183 -4.12331 -0.992188 0
M  V30 6851 N 651.574 -5.0557 -0.152424 0
M  V30 6852 C 649.872 -4.2774 -1.26312 0
M  V30 6853 C 650.573 -5.81474 0.162041 0
M  V30 6854 N 649.549 -5.41767 -0.44601 0
M  V30 6855 H 653.351 -2.93162 0.208084 0
M  V30 6856 H 650.865 -1.60969 0.215131 0
M  V30 6857 H 652.862 -3.55605 -2.17603 0
M  V30 6858 H 651.522 -2.37991 -2.20886 0
M  V30 6859 H 652.533 -5.17468 0.211556 0
M  V30 6860 H 649.21 -3.71062 -1.91362 0
M  V30 6861 H 650.6 -6.66585 0.843423 0
M  V30 6862 N 653.32 -0.135238 -1.57019 0
M  V30 6863 C 654.548 0.526066 -2.001 0
M  V30 6864 C 654.963 1.59184 -1.01519 0
M  V30 6865 O 654.32 1.82497 -0.0104258 0
M  V30 6866 C 654.371 1.13744 -3.43139 0
M  V30 6867 O 654.092 0.114259 -4.37951 0
M  V30 6868 C 655.593 1.8805 -4.01438 0
M  V30 6869 H 652.813 0.137962 -0.656664 0
M  V30 6870 H 655.357 -0.226359 -2.03243 0
M  V30 6871 H 653.512 1.84056 -3.40885 0
M  V30 6872 H 653.926 0.56058 -5.21496 0
M  V30 6873 H 655.4 2.26133 -5.03555 0
M  V30 6874 H 655.877 2.76194 -3.41487 0
M  V30 6875 H 656.483 1.22464 -4.07287 0
M  V30 6876 N 654.798 1.5699 0.138552 0
M  V30 6877 C 655.761 1.97984 1.15478 0
M  V30 6878 C 656.761 0.867416 1.35398 0
M  V30 6879 O 657.951 1.13387 1.32246 0
M  V30 6880 C 655.083 2.3031 2.51337 0
M  V30 6881 H 656.276 2.88953 0.802896 0
M  V30 6882 H 653.829 1.51555 0.382189 0
M  V30 6883 H 654.564 1.42159 2.91481 0
M  V30 6884 H 654.349 3.11425 2.38237 0
M  V30 6885 H 655.839 2.62834 3.24512 0
M  V30 6886 N 656.276 -0.40816 1.52223 0
M  V30 6887 C 657.239 -1.48 1.7501 0
M  V30 6888 C 658.239 -1.48367 0.619996 0
M  V30 6889 O 659.429 -1.49874 0.887881 0
M  V30 6890 C 656.561 -2.87403 1.83336 0
M  V30 6891 H 657.754 -1.29086 2.70697 0
M  V30 6892 H 655.307 -0.638715 1.42654 0
M  V30 6893 H 656.042 -3.11686 0.895677 0
M  V30 6894 H 655.827 -2.8854 2.65494 0
M  V30 6895 H 657.317 -3.65103 2.02705 0
M  V30 6896 N 657.755 -1.42862 -0.66545 0
M  V30 6897 C 659.032 -1.3431 -1.42197 0
M  V30 6898 C 659.412 0.0150265 -2.11095 0
M  V30 6899 O 658.76 1.03101 -2.03918 0
M  V30 6900 C 658.97 -2.51783 -2.41674 0
M  V30 6901 C 660.318 -2.94321 -3.0604 0
M  V30 6902 O 661.342 -2.51741 -2.52001 0
M  V30 6903 O 660.201 -3.68047 -4.03985 0
M  V30 6904 H 657.295 -0.530159 -0.634713 0
M  V30 6905 H 659.841 -1.54888 -0.693386 0
M  V30 6906 H 658.613 -3.42282 -1.89627 0
M  V30 6907 H 658.236 -2.33241 -3.22001 0
M  V30 6908 N 659.233 0.902656 -1.29189 0
M  V30 6909 C 660.463 1.68394 -1.19695 0
M  V30 6910 C 660.871 1.87602 0.245384 0
M  V30 6911 O 660.214 1.41084 1.17648 0
M  V30 6912 C 660.276 3.09094 -1.83578 0
M  V30 6913 C 659.94 3.1313 -3.32864 0
M  V30 6914 C 660.937 2.93497 -4.29134 0
M  V30 6915 C 658.622 3.3529 -3.74013 0
M  V30 6916 C 660.616 2.95953 -5.64527 0
M  V30 6917 C 658.303 3.37377 -5.09529 0
M  V30 6918 C 659.301 3.1773 -6.04596 0
M  V30 6919 O 658.989 3.196 -7.37639 0
M  V30 6920 H 658.721 0.532815 -0.416034 0
M  V30 6921 H 661.275 1.1374 -1.71033 0
M  V30 6922 H 659.505 3.65338 -1.26747 0
M  V30 6923 H 661.194 3.69297 -1.68447 0
M  V30 6924 H 661.96 2.76192 -3.98677 0
M  V30 6925 H 657.839 3.49623 -3.00474 0
M  V30 6926 H 661.383 2.80536 -6.38706 0
M  V30 6927 H 657.28 3.54213 -5.39633 0
M  V30 6928 H 658.048 3.35887 -7.46406 0
M  V30 6929 N 660.711 1.11618 1.11262 0
M  V30 6930 C 661.936 0.889013 1.8738 0
M  V30 6931 C 662.361 -0.555884 1.79698 0
M  V30 6932 O 661.719 -1.39272 1.16073 0
M  V30 6933 C 661.767 1.35759 3.34069 0
M  V30 6934 O 660.871 0.530499 4.08974 0
M  V30 6935 H 660.212 0.320082 0.581759 0
M  V30 6936 H 662.742 1.48611 1.40627 0
M  V30 6937 H 662.752 1.35291 3.84916 0
M  V30 6938 H 661.427 2.40973 3.38976 0
M  V30 6939 H 660.004 0.601439 3.68018 0
M  V30 6940 N 662.189 -1.289 0.906776 0
M  V30 6941 C 663.435 -1.95919 0.546551 0
M  V30 6942 C 663.79 -1.70126 -0.8986 0
M  V30 6943 O 663.083 -1.00775 -1.62957 0
M  V30 6944 C 663.277 -3.48704 0.783617 0
M  V30 6945 C 663.106 -3.8935 2.25026 0
M  V30 6946 C 661.876 -4.13864 2.89905 0
M  V30 6947 C 664.074 -4.00535 3.22608 0
M  V30 6948 N 662.056 -4.41131 4.26939 0
M  V30 6949 C 663.427 -4.31936 4.44783 0
M  V30 6950 C 665.482 -3.83035 3.18102 0
M  V30 6951 C 664.185 -4.47659 5.63022 0
M  V30 6952 C 666.211 -3.99971 4.35634 0
M  V30 6953 C 665.573 -4.31738 5.5658 0
M  V30 6954 H 661.672 -0.74105 0.249737 0
M  V30 6955 H 664.256 -1.55696 1.16906 0
M  V30 6956 H 662.427 -3.87933 0.190437 0
M  V30 6957 H 664.159 -4.02835 0.38812 0
M  V30 6958 H 660.914 -4.07893 2.40666 0
M  V30 6959 H 661.338 -4.5886 4.97771 0
M  V30 6960 H 665.98 -3.57533 2.25677 0
M  V30 6961 H 663.698 -4.71995 6.55932 0
M  V30 6962 H 667.284 -3.87874 4.33641 0
M  V30 6963 H 666.164 -4.44568 6.4601 0
M  V30 6964 N 663.667 -0.670007 -1.42649 0
M  V30 6965 C 664.615 0.0230106 -2.32589 0
M  V30 6966 C 665.609 0.795585 -1.49555 0
M  V30 6967 O 666.815 0.70409 -1.65658 0
M  V30 6968 H 663.19 0.0262342 -0.751542 0
M  V30 6969 H 665.161 -0.753009 -2.88743 0
M  V30 6970 C 663.91 0.963872 -3.34073 0
M  V30 6971 H 663.233 0.378813 -3.98001 0
M  V30 6972 H 664.673 1.41755 -3.99602 0
M  V30 6973 C 663.132 2.06797 -2.65964 0
M  V30 6974 O 663.662 3.15383 -2.48789 0
M  V30 6975 N 661.868 1.83831 -2.25066 0
M  V30 6976 H 661.415 0.955235 -2.39234 0
M  V30 6977 H 661.373 2.57895 -1.79827 0
M  V30 6978 N 665.145 1.52092 -0.413018 0
M  V30 6979 C 666.078 2.23613 0.455234 0
M  V30 6980 C 667.056 1.2459 1.04481 0
M  V30 6981 O 668.24 1.53653 1.09193 0
M  V30 6982 C 665.367 2.96775 1.63224 0
M  V30 6983 C 664.413 4.10261 1.16568 0
M  V30 6984 S 665.246 5.35348 0.127633 0
M  V30 6985 C 666.402 6.1204 1.30987 0
M  V30 6986 H 666.635 2.96911 -0.152042 0
M  V30 6987 H 664.168 1.53134 -0.197343 0
M  V30 6988 H 666.126 3.39532 2.30713 0
M  V30 6989 H 664.787 2.23113 2.21087 0
M  V30 6990 H 663.98 4.6064 2.04515 0
M  V30 6991 H 663.582 3.6964 0.569386 0
M  V30 6992 H 665.874 6.39651 2.23276 0
M  V30 6993 H 666.817 7.03022 0.846533 0
M  V30 6994 H 667.225 5.43161 1.53743 0
M  V30 6995 N 666.623 0.143563 1.56945 0
M  V30 6996 C 667.9 -0.553285 1.87612 0
M  V30 6997 C 668.28 -1.83195 1.04894 0
M  V30 6998 O 667.628 -2.28102 0.134773 0
M  V30 6999 C 667.838 -0.822055 3.3918 0
M  V30 7000 C 669.186 -1.16435 4.08324 0
M  V30 7001 O 670.21 -0.911522 3.4434 0
M  V30 7002 O 669.069 -1.63996 5.21313 0
M  V30 7003 H 666.163 -0.281851 0.777489 0
M  V30 7004 H 668.709 0.179916 1.68744 0
M  V30 7005 H 667.481 0.0830265 3.91212 0
M  V30 7006 H 667.104 -1.60956 3.63564 0
M  V30 7007 N 668.101 -1.57061 -0.130224 0
M  V30 7008 C 669.049 -2.00486 -1.17933 0
M  V30 7009 C 670.043 -0.899933 -1.43519 0
M  V30 7010 O 671.249 -1.08514 -1.43613 0
M  V30 7011 H 667.624 -0.638441 -0.397363 0
M  V30 7012 H 669.595 -2.87848 -0.786501 0
M  V30 7013 C 668.344 -2.41565 -2.50084 0
M  V30 7014 H 667.667 -3.26148 -2.31231 0
M  V30 7015 H 669.107 -2.75757 -3.22078 0
M  V30 7016 C 667.566 -1.27485 -3.11848 0
M  V30 7017 O 668.096 -0.584688 -3.97422 0
M  V30 7018 N 666.302 -1.03478 -2.71552 0
M  V30 7019 H 665.849 -1.59779 -2.02061 0
M  V30 7020 H 665.807 -0.27341 -3.13209 0
M  V30 7021 N 669.579 0.400081 -1.52437 0
M  V30 7022 C 670.809 1.16598 -1.70553 0
M  V30 7023 C 671.217 1.8451 -0.418665 0
M  V30 7024 O 670.56 1.73069 0.615855 0
M  V30 7025 C 670.622 2.26517 -2.7916 0
M  V30 7026 C 670.286 1.78666 -4.20628 0
M  V30 7027 C 671.283 1.26946 -5.04163 0
M  V30 7028 C 668.968 1.85225 -4.66902 0
M  V30 7029 C 670.962 0.824187 -6.32049 0
M  V30 7030 C 668.649 1.40309 -5.94774 0
M  V30 7031 C 669.647 0.889922 -6.77178 0
M  V30 7032 O 669.335 0.447281 -8.02655 0
M  V30 7033 H 669.067 0.356023 -0.574651 0
M  V30 7034 H 671.621 0.475598 -1.99818 0
M  V30 7035 H 669.851 2.98946 -2.45292 0
M  V30 7036 H 671.54 2.88237 -2.85787 0
M  V30 7037 H 672.306 1.21244 -4.69601 0
M  V30 7038 H 668.185 2.24111 -4.02859 0
M  V30 7039 H 671.729 0.422958 -6.96317 0
M  V30 7040 H 667.626 1.45693 -6.28843 0
M  V30 7041 H 668.394 0.569768 -8.16514 0
M  V30 7042 N 671.057 1.43213 0.657864 0
M  V30 7043 C 672.334 1.35063 1.41483 0
M  V30 7044 C 672.714 -0.0038314 2.111 0
M  V30 7045 O 672.062 -1.02018 2.04462 0
M  V30 7046 C 672.272 2.53061 2.40335 0
M  V30 7047 C 673.62 2.9594 3.04474 0
M  V30 7048 O 674.644 2.53074 2.50663 0
M  V30 7049 O 673.503 3.70184 4.02027 0
M  V30 7050 H 670.597 0.533517 0.631893 0
M  V30 7051 H 673.143 1.55253 0.685162 0
M  V30 7052 H 671.915 3.43283 1.87809 0
M  V30 7053 H 671.538 2.34945 3.20759 0
M  V30 7054 N 672.536 -0.895792 1.29666 0
M  V30 7055 C 673.766 -1.67757 1.20586 0
M  V30 7056 C 674.174 -1.87729 -0.235432 0
M  V30 7057 O 673.517 -1.41706 -1.16898 0
M  V30 7058 C 673.579 -3.08117 1.85215 0
M  V30 7059 C 673.243 -3.1136 3.3452 0
M  V30 7060 C 674.24 -2.91217 4.30684 0
M  V30 7061 C 671.925 -3.33302 3.75786 0
M  V30 7062 C 673.919 -2.92955 5.66089 0
M  V30 7063 C 671.606 -3.3467 5.11311 0
M  V30 7064 C 672.604 -3.14519 6.06273 0
M  V30 7065 O 672.292 -3.15684 7.39323 0
M  V30 7066 H 672.024 -0.530601 0.418854 0
M  V30 7067 H 674.578 -1.12831 1.71634 0
M  V30 7068 H 672.808 -3.64661 1.28683 0
M  V30 7069 H 674.497 -3.68399 1.70403 0
M  V30 7070 H 675.263 -2.74074 4.00136 0
M  V30 7071 H 671.142 -3.48025 3.02324 0
M  V30 7072 H 674.686 -2.77145 6.40185 0
M  V30 7073 H 670.583 -3.51346 5.41504 0
M  V30 7074 H 671.351 -3.31924 7.48177 0
M  V30 7075 N 674.014 -1.12206 -1.10668 0
M  V30 7076 C 675.291 -0.787382 -1.79052 0
M  V30 7077 C 675.671 0.723267 -1.98323 0
M  V30 7078 O 675.019 1.6561 -1.57434 0
M  V30 7079 C 675.229 -1.55968 -3.1221 0
M  V30 7080 C 676.577 -1.74413 -3.87125 0
M  V30 7081 O 677.601 -1.5246 -3.21923 0
M  V30 7082 O 676.46 -2.10952 -5.04144 0
M  V30 7083 H 673.554 -0.286137 -0.775922 0
M  V30 7084 H 676.1 -1.22595 -1.1734 0
M  V30 7085 H 674.872 -2.58692 -2.93588 0
M  V30 7086 H 674.495 -1.1152 -3.8164 0
M  V30 7087 N 675.492 1.28418 -0.913599 0
M  V30 7088 C 676.439 2.27301 -0.400373 0
M  V30 7089 C 677.409 1.57582 0.52509 0
M  V30 7090 O 678.594 1.85482 0.447318 0
M  V30 7091 C 675.734 3.43284 0.35361 0
M  V30 7092 C 674.847 4.27752 -0.604341 0
M  V30 7093 C 673.982 5.30934 0.168075 0
M  V30 7094 C 673.021 6.07065 -0.783499 0
M  V30 7095 N 672.158 7.02086 -0.0446112 0
M  V30 7096 H 676.998 2.70579 -1.24865 0
M  V30 7097 H 674.535 1.33067 -0.627028 0
M  V30 7098 H 676.493 4.09322 0.806945 0
M  V30 7099 H 675.123 3.00997 1.16623 0
M  V30 7100 H 674.175 3.61759 -1.17621 0
M  V30 7101 H 675.487 4.80682 -1.33216 0
M  V30 7102 H 674.641 6.02855 0.681979 0
M  V30 7103 H 673.38 4.78771 0.928947 0
M  V30 7104 H 672.385 5.33995 -1.30878 0
M  V30 7105 H 673.61 6.61317 -1.54392 0
M  V30 7106 H 671.556 6.52273 0.698272 0
M  V30 7107 H 671.473 7.52637 -0.712258 0
M  V30 7108 H 672.741 7.78205 0.449102 0
M  V30 7109 N 676.97 0.677563 1.42291 0
M  V30 7110 C 677.933 0.0101085 2.29198 0
M  V30 7111 C 678.933 -0.726219 1.43467 0
M  V30 7112 O 680.123 -0.563807 1.64824 0
M  V30 7113 C 677.255 -0.996316 3.26016 0
M  V30 7114 H 678.448 0.775071 2.89711 0
M  V30 7115 H 676.001 0.440065 1.49977 0
M  V30 7116 H 676.736 -1.78967 2.70446 0
M  V30 7117 H 676.521 -0.471687 3.89253 0
M  V30 7118 H 678.011 -1.46167 3.91184 0
M  V30 7119 N 678.448 -1.51871 0.421078 0
M  V30 7120 C 679.694 -2.02894 -0.143346 0
M  V30 7121 C 680.049 -1.30054 -1.41787 0
M  V30 7122 O 679.342 -0.401776 -1.8734 0
M  V30 7123 C 679.536 -3.54764 -0.433292 0
M  V30 7124 C 679.365 -4.42316 0.811584 0
M  V30 7125 C 678.135 -4.872 1.34033 0
M  V30 7126 C 680.333 -4.85631 1.69313 0
M  V30 7127 N 678.315 -5.58915 2.53944 0
M  V30 7128 C 679.686 -5.56248 2.7384 0
M  V30 7129 C 681.741 -4.67634 1.70947 0
M  V30 7130 C 680.444 -6.10777 3.79927 0
M  V30 7131 C 682.47 -5.23068 2.7596 0
M  V30 7132 C 681.832 -5.93617 3.79207 0
M  V30 7133 H 677.931 -0.78188 -0.0137104 0
M  V30 7134 H 680.515 -1.85919 0.578105 0
M  V30 7135 H 678.686 -3.71787 -1.12378 0
M  V30 7136 H 680.418 -3.92464 -0.987644 0
M  V30 7137 H 677.173 -4.65035 0.896606 0
M  V30 7138 H 677.597 -5.99408 3.14704 0
M  V30 7139 H 682.239 -4.12566 0.9246 0
M  V30 7140 H 679.957 -6.64909 4.59262 0
M  V30 7141 H 683.543 -5.11005 2.78147 0
M  V30 7142 H 682.423 -6.35743 4.5913 0
M  V30 7143 N 679.926 -0.151884 -1.56866 0
M  V30 7144 C 680.874 0.80299 -2.183 0
M  V30 7145 C 681.868 1.25174 -1.14139 0
M  V30 7146 O 683.074 1.21966 -1.3238 0
M  V30 7147 H 679.449 0.277169 -0.699057 0
M  V30 7148 H 681.42 0.260699 -2.97259 0
M  V30 7149 C 680.169 2.03009 -2.82281 0
M  V30 7150 H 679.492 1.69377 -3.62148 0
M  V30 7151 H 680.932 2.67753 -3.28762 0
M  V30 7152 C 679.391 2.84123 -1.81041 0
M  V30 7153 O 679.921 3.8063 -1.28388 0
M  V30 7154 N 678.127 2.48753 -1.50234 0
M  V30 7155 H 677.674 1.70337 -1.93244 0
M  V30 7156 H 677.632 3.03316 -0.827445 0
M  V30 7157 N 681.404 1.57128 0.121893 0
M  V30 7158 C 682.82 1.52357 0.47534 0
M  V30 7159 C 683.02 0.864417 1.82017 0
M  V30 7160 O 682.076 0.445529 2.48538 0
M  V30 7161 C 683.389 2.97122 0.4625 0
M  V30 7162 C 684.937 3.08196 0.546255 0
M  V30 7163 C 685.412 4.54516 0.563833 0
M  V30 7164 N 686.903 4.58959 0.625353 0
M  V30 7165 C 687.638 5.69585 0.660354 0
M  V30 7166 N 687.134 6.89714 0.653175 0
M  V30 7167 N 688.927 5.57685 0.703143 0
M  V30 7168 H 681.078 1.98364 -0.75931 0
M  V30 7169 H 683.341 0.905777 -0.279772 0
M  V30 7170 H 683.047 3.48706 -0.457943 0
M  V30 7171 H 682.921 3.54406 1.29136 0
M  V30 7172 H 685.308 2.56617 1.45712 0
M  V30 7173 H 685.389 2.53912 -0.310234 0
M  V30 7174 H 685.033 5.06741 -0.342974 0
M  V30 7175 H 684.963 5.06609 1.43716 0
M  V30 7176 H 687.454 3.72489 0.637182 0
M  V30 7177 H 687.767 7.69781 0.682425 0
M  V30 7178 H 686.112 6.92223 0.620646 0
M  V30 7179 H 689.303 4.62744 0.706095 0
M  V30 7180 H 689.476 6.43909 0.726952 0
M  V30 7181 N 682.882 -0.391992 1.52647 0
M  V30 7182 C 683.845 -1.46135 1.7657 0
M  V30 7183 C 684.845 -1.47701 0.635698 0
M  V30 7184 O 686.035 -1.48924 0.903728 0
M  V30 7185 C 683.167 -2.85443 1.86374 0
M  V30 7186 H 684.36 -1.26208 2.72051 0
M  V30 7187 H 681.913 -0.623549 1.43323 0
M  V30 7188 H 682.648 -3.10718 0.928685 0
M  V30 7189 H 682.433 -2.85708 2.68539 0
M  V30 7190 H 683.923 -3.62933 2.06566 0
M  V30 7191 N 684.36 -1.4356 -0.65026 0
M  V30 7192 C 685.609 -1.44619 -1.406 0
M  V30 7193 C 685.922 -0.0752645 -1.95455 0
M  V30 7194 O 687.128 0.0366832 -2.71475 0
M  V30 7195 C 685.584 -2.54511 -2.54465 0
M  V30 7196 C 685.192 -3.97723 -2.06204 0
M  V30 7197 C 686.936 -2.64768 -3.31811 0
M  V30 7198 C 684.843 -4.99075 -3.17298 0
M  V30 7199 H 683.773 -0.537983 -0.52829 0
M  V30 7200 H 686.424 -1.69559 -0.701561 0
M  V30 7201 H 684.806 -2.22777 -3.27393 0
M  V30 7202 H 685.98 -4.38932 -1.40267 0
M  V30 7203 H 684.295 -3.91538 -1.41729 0
M  V30 7204 H 686.892 -3.37664 -4.14593 0
M  V30 7205 H 687.235 -1.69936 -3.80036 0
M  V30 7206 H 687.768 -2.95817 -2.65964 0
M  V30 7207 H 684.507 -5.95469 -2.74038 0
M  V30 7208 H 684.027 -4.62476 -3.81937 0
M  V30 7209 H 685.706 -5.21913 -3.82382 0
M  V30 7210 N 685.838 0.888903 -1.30139 0
M  V30 7211 C 687.115 1.62145 -1.094 0
M  V30 7212 C 687.495 2.08041 0.358091 0
M  V30 7213 O 686.843 1.84438 1.34888 0
M  V30 7214 C 687.053 2.794 -2.09133 0
M  V30 7215 C 688.401 3.49826 -2.40638 0
M  V30 7216 O 689.425 2.89583 -2.07412 0
M  V30 7217 O 688.284 4.58457 -2.97455 0
M  V30 7218 H 685.378 0.712475 -0.41989 0
M  V30 7219 H 687.924 0.936023 -1.41551 0
M  V30 7220 H 686.696 2.42762 -3.06891 0
M  V30 7221 H 686.319 3.55643 -1.77776 0
M  V30 7222 N 687.317 1.12792 1.10072 0
M  V30 7223 C 688.25 0.742921 2.15768 0
M  V30 7224 C 689.228 -0.267714 1.60381 0
M  V30 7225 O 690.412 -0.160782 1.87813 0
M  V30 7226 C 687.539 0.100244 3.38552 0
M  V30 7227 C 686.585 1.07831 4.12644 0
M  V30 7228 S 687.418 2.60765 4.6772 0
M  V30 7229 C 688.574 1.97838 5.9381 0
M  V30 7230 H 688.807 1.63822 2.48092 0
M  V30 7231 H 686.34 0.947385 1.21918 0
M  V30 7232 H 688.298 -0.264175 4.09649 0
M  V30 7233 H 686.959 -0.772223 3.04459 0
M  V30 7234 H 686.152 0.576325 5.00694 0
M  V30 7235 H 685.754 1.38586 3.47376 0
M  V30 7236 H 688.046 1.32341 6.64449 0
M  V30 7237 H 688.989 2.83943 6.48677 0
M  V30 7238 H 689.397 1.43267 5.46017 0
M  V30 7239 N 688.795 -1.27931 0.920396 0
M  V30 7240 C 689.725 -2.29487 0.431024 0
M  V30 7241 C 690.706 -1.62435 -0.504861 0
M  V30 7242 O 691.891 -1.89797 -0.411176 0
M  V30 7243 C 689.021 -3.45788 -0.323709 0
M  V30 7244 C 687.975 -4.24784 0.523658 0
M  V30 7245 C 687.301 -5.33488 -0.359809 0
M  V30 7246 C 688.601 -4.90874 1.78437 0
M  V30 7247 H 690.295 -2.70671 1.27975 0
M  V30 7248 H 687.841 -1.30121 0.616813 0
M  V30 7249 H 689.794 -4.15927 -0.676952 0
M  V30 7250 H 688.518 -3.03502 -1.2064 0
M  V30 7251 H 687.177 -3.56382 0.85951 0
M  V30 7252 H 686.825 -4.87445 -1.24124 0
M  V30 7253 H 686.525 -5.87247 0.203605 0
M  V30 7254 H 688.049 -6.06472 -0.708787 0
M  V30 7255 H 689.463 -5.53339 1.49963 0
M  V30 7256 H 687.86 -5.54659 2.29071 0
M  V30 7257 H 688.93 -4.14988 2.50824 0
M  V30 7258 N 690.273 -0.685099 -1.4193 0
M  V30 7259 C 691.503 -0.220052 -2.05425 0
M  V30 7260 C 691.911 1.13185 -1.51611 0
M  V30 7261 O 691.254 1.71631 -0.654875 0
M  V30 7262 C 691.316 -0.0888364 -3.5939 0
M  V30 7263 C 690.98 -1.37109 -4.35947 0
M  V30 7264 C 691.977 -2.30675 -4.65924 0
M  V30 7265 C 689.662 -1.62155 -4.75406 0
M  V30 7266 C 691.656 -3.47556 -5.34306 0
M  V30 7267 C 689.343 -2.79324 -5.43527 0
M  V30 7268 C 690.341 -3.71848 -5.72903 0
M  V30 7269 O 690.029 -4.86966 -6.39624 0
M  V30 7270 H 689.761 -0.102165 -0.668235 0
M  V30 7271 H 692.315 -0.935194 -1.82875 0
M  V30 7272 H 690.545 0.681981 -3.80639 0
M  V30 7273 H 692.234 0.337669 -4.04493 0
M  V30 7274 H 693 -2.12579 -4.3593 0
M  V30 7275 H 688.879 -0.910053 -4.51928 0
M  V30 7276 H 692.423 -4.19794 -5.57153 0
M  V30 7277 H 688.32 -2.97342 -5.72938 0
M  V30 7278 H 689.088 -4.86644 -6.58118 0
M  V30 7279 N 691.751 1.51645 -0.429126 0
M  V30 7280 C 692.999 2.01616 0.139802 0
M  V30 7281 C 693.32 1.31568 1.43927 0
M  V30 7282 O 692.59 0.447688 1.90716 0
M  V30 7283 H 691.17 0.744998 0.054654 0
M  V30 7284 H 693.832 1.8638 -0.569952 0
M  V30 7285 H 692.928 3.10439 0.321609 0
M  V30 7286 N 693.229 0.160201 1.56784 0
M  V30 7287 C 694.506 -0.533355 1.88188 0
M  V30 7288 C 694.886 -1.82072 1.06831 0
M  V30 7289 O 694.234 -2.27946 0.158959 0
M  V30 7290 C 694.444 -0.786034 3.40033 0
M  V30 7291 C 695.792 -1.12097 4.09536 0
M  V30 7292 O 696.816 -0.874949 3.45287 0
M  V30 7293 O 695.675 -1.58457 5.23023 0
M  V30 7294 H 692.769 -0.273589 0.780434 0
M  V30 7295 H 695.315 0.197803 1.68543 0
M  V30 7296 H 694.087 0.124515 3.91102 0
M  V30 7297 H 693.71 -1.57091 3.65251 0
M  V30 7298 N 694.707 -1.5719 -0.113559 0
M  V30 7299 C 695.637 -2.03772 -1.14013 0
M  V30 7300 C 696.618 -0.923176 -1.42869 0
M  V30 7301 O 697.803 -1.19325 -1.53216 0
M  V30 7302 C 694.933 -2.44663 -2.4649 0
M  V30 7303 C 693.887 -3.59612 -2.32085 0
M  V30 7304 C 693.213 -3.8642 -3.69573 0
M  V30 7305 C 694.513 -4.91149 -1.7768 0
M  V30 7306 H 696.207 -2.89785 -0.752665 0
M  V30 7307 H 693.753 -1.39412 -0.360609 0
M  V30 7308 H 695.706 -2.75857 -3.18561 0
M  V30 7309 H 694.43 -1.55628 -2.87137 0
M  V30 7310 H 693.089 -3.28636 -1.62461 0
M  V30 7311 H 692.737 -2.94581 -4.07715 0
M  V30 7312 H 692.437 -4.63797 -3.60786 0
M  V30 7313 H 693.961 -4.2007 -4.4314 0
M  V30 7314 H 695.375 -5.20843 -2.39574 0
M  V30 7315 H 693.772 -5.72562 -1.79701 0
M  V30 7316 H 694.842 -4.79301 -0.734776 0
M  V30 7317 N 696.185 0.383891 -1.52853 0
M  V30 7318 C 697.148 1.45197 -1.77343 0
M  V30 7319 C 698.148 1.47362 -0.643522 0
M  V30 7320 O 699.338 1.48443 -0.911613 0
M  V30 7321 C 696.47 2.8445 -1.87885 0
M  V30 7322 H 697.663 1.24764 -2.72716 0
M  V30 7323 H 695.216 0.615939 -1.43652 0
M  V30 7324 H 695.951 3.10222 -0.94515 0
M  V30 7325 H 695.736 2.8428 -2.70051 0
M  V30 7326 H 697.226 3.61832 -2.08488 0
M  V30 7327 N 697.663 1.43903 0.642637 0
M  V30 7328 C 698.573 1.52349 1.78401 0
M  V30 7329 C 699.589 0.409869 1.69104 0
M  V30 7330 O 700.765 0.665548 1.90085 0
M  V30 7331 C 697.83 1.45408 3.14734 0
M  V30 7332 C 696.891 2.67528 3.35749 0
M  V30 7333 C 696.124 2.60909 4.65577 0
M  V30 7334 O 696.347 1.6627 5.45628 0
M  V30 7335 O 695.281 3.5158 4.88544 0
M  V30 7336 H 699.107 2.48752 1.7423 0
M  V30 7337 H 696.692 1.26021 0.802439 0
M  V30 7338 H 698.574 1.44019 3.96026 0
M  V30 7339 H 697.249 0.521437 3.19473 0
M  V30 7340 H 696.156 2.74487 2.5418 0
M  V30 7341 H 697.489 3.598 3.35864 0
M  V30 7342 N 699.141 -0.881989 1.30609 0
M  V30 7343 C 700.418 -1.61563 1.10258 0
M  V30 7344 C 700.798 -2.08228 -0.347053 0
M  V30 7345 O 700.146 -1.85151 -1.33908 0
M  V30 7346 C 700.356 -2.78287 2.10612 0
M  V30 7347 C 701.704 -3.48545 2.4249 0
M  V30 7348 O 702.728 -2.88479 2.08945 0
M  V30 7349 O 701.587 -4.56873 2.99883 0
M  V30 7350 H 698.681 -0.710238 0.423663 0
M  V30 7351 H 701.227 -0.928503 1.42045 0
M  V30 7352 H 699.999 -2.41131 3.08174 0
M  V30 7353 H 699.622 -3.54695 1.79659 0
M  V30 7354 N 700.619 -1.13374 -1.09472 0
M  V30 7355 C 701.552 -0.754354 -2.15371 0
M  V30 7356 C 702.53 0.259205 -1.60521 0
M  V30 7357 O 703.714 0.150819 -1.87896 0
M  V30 7358 C 700.841 -0.118197 -3.38494 0
M  V30 7359 C 699.887 -1.10017 -4.12066 0
M  V30 7360 S 700.72 -2.63242 -4.6633 0
M  V30 7361 C 701.876 -2.00984 -5.92753 0
M  V30 7362 H 702.109 -1.65135 -2.4722 0
M  V30 7363 H 699.642 -0.953838 -1.21414 0
M  V30 7364 H 701.6 0.242447 -4.09783 0
M  V30 7365 H 700.261 0.756065 -3.04865 0
M  V30 7366 H 699.454 -0.60287 -5.00381 0
M  V30 7367 H 699.056 -1.40426 -3.46636 0
M  V30 7368 H 701.348 -1.35863 -6.63738 0
M  V30 7369 H 702.291 -2.8738 -6.47162 0
M  V30 7370 H 702.699 -1.46161 -5.4525 0
M  V30 7371 N 702.098 1.27442 -0.927168 0
M  V30 7372 C 703.045 2.26863 -0.424459 0
M  V30 7373 C 704.015 1.5813 0.508346 0
M  V30 7374 O 705.2 1.85946 0.42762 0
M  V30 7375 C 702.34 3.43639 0.31718 0
M  V30 7376 C 701.453 4.27087 -0.649675 0
M  V30 7377 C 700.588 5.31082 0.111753 0
M  V30 7378 C 699.627 6.062 -0.847843 0
M  V30 7379 N 698.764 7.01999 -0.119074 0
M  V30 7380 H 703.604 2.69239 -1.27728 0
M  V30 7381 H 701.141 1.32394 -0.641106 0
M  V30 7382 H 703.099 4.10155 0.763486 0
M  V30 7383 H 701.729 3.02217 1.13424 0
M  V30 7384 H 700.781 3.60491 -1.21451 0
M  V30 7385 H 702.093 4.79242 -1.38307 0
M  V30 7386 H 701.247 6.03544 0.618 0
M  V30 7387 H 699.986 4.7973 0.878114 0
M  V30 7388 H 698.991 5.32577 -1.36534 0
M  V30 7389 H 700.216 6.59642 -1.61398 0
M  V30 7390 H 698.162 6.52977 0.629051 0
M  V30 7391 H 698.079 7.5184 -0.792046 0
M  V30 7392 H 699.347 7.78638 0.366537 0
M  V30 7393 N 703.576 0.692616 1.41565 0
M  V30 7394 C 704.822 0.222664 2.01574 0
M  V30 7395 C 705.155 -1.1737 1.54719 0
M  V30 7396 O 704.43 -1.79161 0.757084 0
M  V30 7397 C 704.713 0.277064 3.59033 0
M  V30 7398 C 704.566 1.71016 4.16021 0
M  V30 7399 C 705.885 -0.36479 4.38586 0
M  V30 7400 H 703.004 0.0823839 0.732381 0
M  V30 7401 H 705.646 0.880778 1.68352 0
M  V30 7402 H 703.796 -0.283288 3.87466 0
M  V30 7403 H 705.468 2.32413 3.98475 0
M  V30 7404 H 703.711 2.24525 3.71175 0
M  V30 7405 H 704.382 1.69978 5.25178 0
M  V30 7406 H 706.858 0.112404 4.15948 0
M  V30 7407 H 705.734 -0.296169 5.481 0
M  V30 7408 H 705.995 -1.44506 4.17816 0
M  V30 7409 N 705.054 -1.51416 0.437162 0
M  V30 7410 C 706.301 -2.02086 -0.129364 0
M  V30 7411 C 706.629 -1.32133 -1.42728 0
M  V30 7412 O 705.884 -0.424916 -1.91031 0
M  V30 7413 C 706.183 -3.55203 -0.39564 0
M  V30 7414 C 705.849 -4.43447 0.81644 0
M  V30 7415 C 704.511 -4.67285 1.14884 0
M  V30 7416 C 706.863 -4.95219 1.62503 0
M  V30 7417 C 704.191 -5.40141 2.29052 0
M  V30 7418 C 706.543 -5.69327 2.7577 0
M  V30 7419 C 705.207 -5.91429 3.09464 0
M  V30 7420 H 704.477 -0.739486 -0.0473375 0
M  V30 7421 H 707.124 -1.82368 0.584321 0
M  V30 7422 H 705.429 -3.73252 -1.19121 0
M  V30 7423 H 707.126 -3.91944 -0.847399 0
M  V30 7424 H 703.716 -4.2509 0.547422 0
M  V30 7425 H 707.9 -4.76686 1.38144 0
M  V30 7426 H 703.156 -5.55468 2.55471 0
M  V30 7427 H 707.33 -6.08433 3.38795 0
M  V30 7428 H 704.957 -6.47662 3.98042 0
M  V30 7429 N 706.532 -0.168513 -1.56696 0
M  V30 7430 C 707.495 0.748928 -2.16619 0
M  V30 7431 C 708.495 1.16007 -1.11351 0
M  V30 7432 O 709.685 1.07748 -1.3688 0
M  V30 7433 C 706.817 2.01904 -2.74677 0
M  V30 7434 H 708.01 0.227317 -2.99037 0
M  V30 7435 H 705.563 0.0810372 -1.5609 0
M  V30 7436 H 706.298 2.58381 -1.95985 0
M  V30 7437 H 706.083 1.73323 -3.51712 0
M  V30 7438 H 707.573 2.67383 -3.20774 0
M  V30 7439 N 708.01 1.57248 0.105221 0
M  V30 7440 C 708.958 2.02337 1.14728 0
M  V30 7441 C 709.952 0.922652 1.42069 0
M  V30 7442 O 711.158 1.10785 1.41869 0
M  V30 7443 H 707.533 0.644682 0.387155 0
M  V30 7444 H 709.504 2.89063 0.740607 0
M  V30 7445 C 708.253 2.45513 2.46209 0
M  V30 7446 H 707.576 3.29785 2.26013 0
M  V30 7447 H 709.016 2.80846 3.1765 0
M  V30 7448 C 707.475 1.3243 3.09781 0
M  V30 7449 O 708.005 0.647841 3.96442 0
M  V30 7450 N 706.211 1.07785 2.69872 0
M  V30 7451 H 705.758 1.62973 1.99493 0
M  V30 7452 H 705.716 0.323204 3.12734 0
M  V30 7453 N 709.488 -0.375779 1.53054 0
M  V30 7454 C 710.438 -1.45965 1.75152 0
M  V30 7455 C 711.422 -1.49059 0.605823 0
M  V30 7456 O 712.614 -1.54472 0.864133 0
M  V30 7457 C 709.743 -2.83524 1.93569 0
M  V30 7458 C 708.829 -2.84949 3.1411 0
M  V30 7459 N 709.22 -2.56029 4.36214 0
M  V30 7460 C 707.518 -3.16113 3.14625 0
M  V30 7461 C 708.219 -2.64873 5.17897 0
M  V30 7462 N 707.195 -2.99159 4.53878 0
M  V30 7463 H 710.997 -1.22454 2.67175 0
M  V30 7464 H 708.511 -0.583867 1.51541 0
M  V30 7465 H 710.508 -3.61578 2.07525 0
M  V30 7466 H 709.168 -3.08008 1.02768 0
M  V30 7467 H 710.179 -2.29808 4.64121 0
M  V30 7468 H 706.856 -3.45977 2.3368 0
M  V30 7469 H 708.246 -2.45947 6.25268 0
M  V30 7470 N 710.966 -1.44241 -0.634997 0
M  V30 7471 C 712.191 -1.50516 -1.42687 0
M  V30 7472 C 712.616 -0.129864 -1.87651 0
M  V30 7473 O 711.974 0.880164 -1.58502 0
M  V30 7474 C 712.022 -2.4714 -2.62591 0
M  V30 7475 O 711.126 -1.97025 -3.62291 0
M  V30 7476 H 710.467 -0.50841 -0.427101 0
M  V30 7477 H 712.997 -1.89337 -0.775408 0
M  V30 7478 H 713.007 -2.65048 -3.10183 0
M  V30 7479 H 711.682 -3.47039 -2.29209 0
M  V30 7480 H 710.259 -1.88866 -3.21534 0
M  V30 7481 N 712.444 0.87505 -1.31075 0
M  V30 7482 C 713.672 1.66058 -1.23419 0
M  V30 7483 C 714.087 1.87723 0.201347 0
M  V30 7484 O 713.444 1.43178 1.13165 0
M  V30 7485 C 713.495 3.03142 -1.96945 0
M  V30 7486 O 713.216 2.82448 -3.34895 0
M  V30 7487 C 714.717 3.97583 -1.96067 0
M  V30 7488 H 711.937 0.517868 -0.426677 0
M  V30 7489 H 714.481 1.09258 -1.72867 0
M  V30 7490 H 712.636 3.56645 -1.51271 0
M  V30 7491 H 713.05 3.69483 -3.72267 0
M  V30 7492 H 714.524 4.91104 -2.52034 0
M  V30 7493 H 715.001 4.2898 -0.941961 0
M  V30 7494 H 715.607 3.50015 -2.41597 0
M  V30 7495 N 713.922 1.13953 1.08869 0
M  V30 7496 C 715.338 0.878924 1.33218 0
M  V30 7497 C 715.538 -0.482478 1.95638 0
M  V30 7498 O 714.594 -1.22778 2.2064 0
M  V30 7499 C 715.907 2.00798 2.23832 0
M  V30 7500 C 717.455 2.04073 2.37325 0
M  V30 7501 C 717.93 3.16258 3.31278 0
M  V30 7502 N 719.421 3.15805 3.38853 0
M  V30 7503 C 720.156 3.99249 4.11567 0
M  V30 7504 N 719.652 4.92721 4.87029 0
M  V30 7505 N 721.445 3.87327 4.0735 0
M  V30 7506 H 713.596 2.01645 0.66731 0
M  V30 7507 H 715.859 0.878395 0.356547 0
M  V30 7508 H 715.565 2.98986 1.85203 0
M  V30 7509 H 715.439 1.92704 3.24261 0
M  V30 7510 H 717.826 1.06495 2.75214 0
M  V30 7511 H 717.907 2.16239 1.36654 0
M  V30 7512 H 717.551 4.14079 2.9411 0
M  V30 7513 H 717.481 3.0133 4.31866 0
M  V30 7514 H 719.972 2.48102 2.8505 0
M  V30 7515 H 720.285 5.52867 5.39961 0
M  V30 7516 H 718.63 4.96723 4.86098 0
M  V30 7517 H 721.821 3.13627 3.475 0
M  V30 7518 H 721.994 4.52585 4.63757 0
M  V30 7519 N 715.4 -1.26948 0.933913 0
M  V30 7520 C 716.333 -2.24977 0.382169 0
M  V30 7521 C 717.311 -1.53893 -0.524949 0
M  V30 7522 O 718.495 -1.82699 -0.464048 0
M  V30 7523 C 715.622 -3.35676 -0.451615 0
M  V30 7524 C 714.668 -4.24686 0.392947 0
M  V30 7525 S 715.501 -5.03898 1.81237 0
M  V30 7526 C 716.657 -6.18078 0.986443 0
M  V30 7527 H 716.89 -2.71429 1.21299 0
M  V30 7528 H 714.423 -1.35701 0.736523 0
M  V30 7529 H 716.381 -3.99901 -0.926797 0
M  V30 7530 H 715.042 -2.8785 -1.25703 0
M  V30 7531 H 714.235 -5.03402 -0.245533 0
M  V30 7532 H 713.837 -3.65288 0.802537 0
M  V30 7533 H 716.129 -6.77125 0.225321 0
M  V30 7534 H 717.072 -6.86216 1.74682 0
M  V30 7535 H 717.48 -5.62047 0.525711 0
M  V30 7536 N 716.879 -0.700114 -1.41195 0
M  V30 7537 C 718.156 -0.160836 -1.94938 0
M  V30 7538 C 718.536 1.33014 -1.63922 0
M  V30 7539 O 717.884 2.07878 -0.948636 0
M  V30 7540 C 718.094 -0.456991 -3.45995 0
M  V30 7541 C 719.442 -0.387207 -4.22831 0
M  V30 7542 O 720.466 -0.392164 -3.54035 0
M  V30 7543 O 719.325 -0.351267 -5.4537 0
M  V30 7544 H 716.419 -0.0176304 -0.826812 0
M  V30 7545 H 718.965 -0.776586 -1.50888 0
M  V30 7546 H 717.737 -1.48884 -3.61869 0
M  V30 7547 H 717.36 0.189503 -3.97148 0
M  V30 7548 N 718.357 1.51182 -0.445186 0
M  V30 7549 C 719.305 2.29531 0.376597 0
M  V30 7550 C 720.299 1.35711 1.01385 0
M  V30 7551 O 721.505 1.53018 0.947922 0
M  V30 7552 H 717.88 0.738803 0.140267 0
M  V30 7553 H 719.851 2.96838 -0.304958 0
M  V30 7554 C 718.6 3.1552 1.4609 0
M  V30 7555 H 717.923 3.87605 0.979912 0
M  V30 7556 H 719.363 3.73384 2.009 0
M  V30 7557 C 717.822 2.31406 2.44852 0
M  V30 7558 O 718.352 1.97912 3.49562 0
M  V30 7559 N 716.558 1.94478 2.15932 0
M  V30 7560 H 716.105 2.21917 1.30808 0
M  V30 7561 H 716.063 1.38498 2.82251 0
M  V30 7562 N 719.835 0.176821 1.56605 0
M  V30 7563 C 720.782 -0.751312 2.18229 0
M  V30 7564 C 721.752 -1.22297 1.12395 0
M  V30 7565 O 722.937 -1.29015 1.40569 0
M  V30 7566 C 720.077 -1.97291 2.83143 0
M  V30 7567 C 719.19 -1.54431 4.03454 0
M  V30 7568 C 718.325 -2.72 4.56278 0
M  V30 7569 C 717.364 -2.25657 5.68986 0
M  V30 7570 N 716.501 -3.36338 6.16296 0
M  V30 7571 H 721.341 -0.219033 2.97194 0
M  V30 7572 H 718.878 -0.0963803 1.46784 0
M  V30 7573 H 720.836 -2.68949 3.1894 0
M  V30 7574 H 719.466 -2.4788 2.06773 0
M  V30 7575 H 718.518 -0.724273 3.73441 0
M  V30 7576 H 719.83 -1.16417 4.85024 0
M  V30 7577 H 718.984 -3.51806 4.94285 0
M  V30 7578 H 717.723 -3.13277 3.73777 0
M  V30 7579 H 716.728 -1.44299 5.30526 0
M  V30 7580 H 717.953 -1.85432 6.53293 0
M  V30 7581 H 715.899 -3.7718 5.36723 0
M  V30 7582 H 715.816 -3.02435 6.9287 0
M  V30 7583 H 717.084 -4.16413 6.58954 0
M  V30 7584 N 721.313 -1.57302 -0.09688 0
M  V30 7585 C 722.541 -1.90202 -0.814295 0
M  V30 7586 C 722.956 -0.770344 -1.72369 0
M  V30 7587 O 722.313 0.257764 -1.8067 0
M  V30 7588 C 722.364 -3.22708 -1.62916 0
M  V30 7589 O 722.085 -4.31522 -0.756343 0
M  V30 7590 C 723.586 -3.69459 -2.44979 0
M  V30 7591 H 720.806 -0.629275 -0.232925 0
M  V30 7592 H 723.35 -2.04364 -0.0746482 0
M  V30 7593 H 721.505 -3.1015 -2.32133 0
M  V30 7594 H 721.919 -5.07604 -1.32054 0
M  V30 7595 H 723.393 -4.64875 -2.9765 0
M  V30 7596 H 723.87 -2.97211 -3.23361 0
M  V30 7597 H 724.476 -3.84879 -1.80964 0
M  V30 7598 N 722.791 0.367657 -1.53252 0
M  V30 7599 C 724.037 1.10864 -1.70531 0
M  V30 7600 C 724.392 1.87051 -0.4505 0
M  V30 7601 O 723.685 1.83342 0.556431 0
M  V30 7602 C 723.879 2.09825 -2.89324 0
M  V30 7603 C 723.708 1.43361 -4.26237 0
M  V30 7604 C 722.478 1.18861 -4.91121 0
M  V30 7605 C 724.676 0.872409 -5.06847 0
M  V30 7606 N 722.658 0.487258 -6.11963 0
M  V30 7607 C 724.029 0.300301 -6.19272 0
M  V30 7608 C 726.084 0.770895 -4.91896 0
M  V30 7609 C 724.787 -0.363419 -7.18381 0
M  V30 7610 C 726.813 0.12096 -5.91276 0
M  V30 7611 C 726.175 -0.440283 -7.03023 0
M  V30 7612 H 722.274 0.390902 -0.677288 0
M  V30 7613 H 724.858 0.395305 -1.90645 0
M  V30 7614 H 723.029 2.78473 -2.70753 0
M  V30 7615 H 724.761 2.76585 -2.95436 0
M  V30 7616 H 721.516 1.46934 -4.5023 0
M  V30 7617 H 721.94 0.152005 -6.76829 0
M  V30 7618 H 726.582 1.19058 -4.05691 0
M  V30 7619 H 724.3 -0.795057 -8.04179 0
M  V30 7620 H 727.886 0.0433702 -5.81784 0
M  V30 7621 H 726.766 -0.935244 -7.78603 0
M  V30 7622 N 724.269 1.44576 0.627338 0
M  V30 7623 C 725.232 1.51372 1.72102 0
M  V30 7624 C 726.232 0.395329 1.55865 0
M  V30 7625 O 727.422 0.658094 1.61291 0
M  V30 7626 C 724.554 1.39129 3.11217 0
M  V30 7627 H 725.747 2.48798 1.6745 0
M  V30 7628 H 723.3 1.31724 0.841336 0
M  V30 7629 H 724.035 0.428114 3.21462 0
M  V30 7630 H 723.82 2.20229 3.24409 0
M  V30 7631 H 725.31 1.46874 3.90919 0
M  V30 7632 N 725.747 -0.868086 1.31537 0
M  V30 7633 C 726.694 -1.97548 1.19346 0
M  V30 7634 C 727.664 -1.65913 0.0787922 0
M  V30 7635 O 728.849 -1.89129 0.251985 0
M  V30 7636 C 725.989 -3.32922 0.908692 0
M  V30 7637 C 725.102 -3.77141 2.10687 0
M  V30 7638 C 724.237 -5.01241 1.75873 0
M  V30 7639 C 723.276 -5.37914 2.92088 0
M  V30 7640 N 722.413 -6.53192 2.57457 0
M  V30 7641 H 727.253 -2.07307 2.14074 0
M  V30 7642 H 724.79 -1.01483 1.06487 0
M  V30 7643 H 726.748 -4.10867 0.724138 0
M  V30 7644 H 725.378 -3.228 -0.0017611 0
M  V30 7645 H 724.43 -2.94961 2.40213 0
M  V30 7646 H 725.742 -4.00248 2.97663 0
M  V30 7647 H 724.896 -5.86858 1.53891 0
M  V30 7648 H 723.635 -4.80041 0.86091 0
M  V30 7649 H 722.64 -4.50814 3.14717 0
M  V30 7650 H 723.865 -5.61077 3.82582 0
M  V30 7651 H 721.811 -6.33536 1.702 0
M  V30 7652 H 721.728 -6.76252 3.37963 0
M  V30 7653 H 722.996 -7.41997 2.38873 0
M  V30 7654 N 727.225 -1.14528 -1.08264 0
M  V30 7655 C 728.45 -0.938381 -1.84957 0
M  V30 7656 C 728.875 0.508044 -1.81109 0
M  V30 7657 O 728.233 1.36146 -1.19724 0
M  V30 7658 C 728.281 -1.44568 -3.30352 0
M  V30 7659 O 727.385 -0.638745 -4.07423 0
M  V30 7660 H 726.726 -0.335394 -0.573068 0
M  V30 7661 H 729.256 -1.52287 -1.36637 0
M  V30 7662 H 729.266 -1.45449 -3.81194 0
M  V30 7663 H 727.941 -2.49876 -3.32468 0
M  V30 7664 H 726.518 -0.698801 -3.66294 0
M  V30 7665 N 728.703 1.26451 -0.940633 0
M  V30 7666 C 729.951 1.93395 -0.586748 0
M  V30 7667 C 730.272 1.7417 0.876921 0
M  V30 7668 O 729.542 1.097 1.62304 0
M  V30 7669 H 728.122 0.715687 -0.214012 0
M  V30 7670 H 730.784 1.53902 -1.19584 0
M  V30 7671 H 729.88 3.01565 -0.804059 0
M  V30 7672 N 730.181 0.707592 1.40822 0
M  V30 7673 C 731.597 0.38034 1.55002 0
M  V30 7674 C 731.797 -1.11163 1.68062 0
M  V30 7675 O 730.853 -1.89761 1.66574 0
M  V30 7676 C 732.166 1.1394 2.78277 0
M  V30 7677 C 733.714 1.12492 2.92087 0
M  V30 7678 C 734.189 1.86597 4.18265 0
M  V30 7679 N 735.68 1.83626 4.25248 0
M  V30 7680 C 736.415 2.37794 5.21768 0
M  V30 7681 N 735.911 3.00485 6.24244 0
M  V30 7682 N 737.704 2.27982 5.13791 0
M  V30 7683 H 729.855 1.67511 1.3059 0
M  V30 7684 H 732.118 0.707579 0.630901 0
M  V30 7685 H 731.824 2.19398 2.74877 0
M  V30 7686 H 731.698 0.725793 3.70151 0
M  V30 7687 H 734.085 0.0785564 2.94995 0
M  V30 7688 H 734.166 1.57768 2.01353 0
M  V30 7689 H 733.81 2.91219 4.16118 0
M  V30 7690 H 733.74 1.38746 5.07993 0
M  V30 7691 H 736.231 1.3793 3.51829 0
M  V30 7692 H 736.544 3.39355 6.94304 0
M  V30 7693 H 734.889 3.04567 6.24711 0
M  V30 7694 H 738.08 1.78669 4.3266 0
M  V30 7695 H 738.253 2.70499 5.88841 0
M  V30 7696 N 731.66 -1.50943 0.453197 0
M  V30 7697 C 732.57 -2.31884 -0.355963 0
M  V30 7698 C 733.586 -1.41481 -1.01287 0
M  V30 7699 O 734.762 -1.74546 -1.00477 0
M  V30 7700 C 731.827 -3.15668 -1.43369 0
M  V30 7701 C 730.888 -4.2187 -0.795253 0
M  V30 7702 C 730.121 -5.0165 -1.82162 0
M  V30 7703 O 730.344 -4.82266 -3.04592 0
M  V30 7704 O 729.278 -5.85311 -1.40336 0
M  V30 7705 H 733.104 -3.02162 0.305248 0
M  V30 7706 H 730.689 -1.47839 0.215398 0
M  V30 7707 H 732.571 -3.67709 -2.05836 0
M  V30 7708 H 731.246 -2.48137 -2.07869 0
M  V30 7709 H 730.153 -3.73867 -0.132106 0
M  V30 7710 H 731.486 -4.9182 -0.193484 0
M  V30 7711 N 733.138 -0.185124 -1.56509 0
M  V30 7712 C 734.415 0.503348 -1.89013 0
M  V30 7713 C 734.795 1.80349 -1.09715 0
M  V30 7714 O 734.143 2.27665 -0.195203 0
M  V30 7715 C 734.353 0.731839 -3.41241 0
M  V30 7716 C 735.701 1.05568 -4.11267 0
M  V30 7717 O 736.725 0.819906 -3.46635 0
M  V30 7718 O 735.584 1.50116 -5.25478 0
M  V30 7719 H 732.678 0.261139 -0.784688 0
M  V30 7720 H 735.224 -0.224592 -1.68207 0
M  V30 7721 H 733.996 -0.18672 -3.90854 0
M  V30 7722 H 733.619 1.5126 -3.67704 0
M  V30 7723 N 734.616 1.57351 0.0885366 0
M  V30 7724 C 735.579 2.01557 1.09121 0
M  V30 7725 C 736.579 0.910052 1.3257 0
M  V30 7726 O 737.769 1.17537 1.28572 0
M  V30 7727 C 734.901 2.38189 2.43883 0
M  V30 7728 H 736.094 2.91361 0.710562 0
M  V30 7729 H 733.647 1.52694 0.333779 0
M  V30 7730 H 734.382 1.5136 2.86811 0
M  V30 7731 H 734.167 3.18846 2.28209 0
M  V30 7732 H 735.657 2.73025 3.15986 0
M  V30 7733 N 736.094 -0.359525 1.53444 0
M  V30 7734 C 737.505 -0.936009 1.61542 0
M  V30 7735 C 737.856 -1.90069 0.486633 0
M  V30 7736 O 736.981 -2.12929 -0.386047 0
M  V30 7737 C 737.576 -1.70441 2.92806 0
M  V30 7738 C 736.135 -2.23015 3.03218 0
M  V30 7739 C 735.282 -1.04438 2.56881 0
M  V30 7740 H 738.233 -0.138134 1.58098 0
M  V30 7741 H 738.254 -2.56609 2.80948 0
M  V30 7742 H 737.766 -1.00205 3.74941 0
M  V30 7743 H 735.867 -2.96475 2.25684 0
M  V30 7744 H 735.98 -2.50481 4.08407 0
M  V30 7745 H 734.344 -1.41314 2.11902 0
M  V30 7746 H 735.127 -0.356905 3.4144 0
M  V30 7747 N 737.572 -1.44907 -0.619662 0
M  V30 7748 C 738.482 -1.55168 -1.75955 0
M  V30 7749 C 739.498 -0.43672 -1.6843 0
M  V30 7750 O 740.674 -0.695704 -1.89002 0
M  V30 7751 C 737.739 -1.50397 -3.12381 0
M  V30 7752 C 736.8 -2.72835 -3.31451 0
M  V30 7753 C 736.033 -2.68283 -4.61368 0
M  V30 7754 O 736.256 -1.74929 -5.42914 0
M  V30 7755 O 735.19 -3.59308 -4.82889 0
M  V30 7756 H 739.016 -2.51493 -1.7025 0
M  V30 7757 H 736.601 -1.27282 -0.782289 0
M  V30 7758 H 738.483 -1.50301 -3.93685 0
M  V30 7759 H 737.158 -0.572197 -3.18603 0
M  V30 7760 H 736.065 -2.78496 -2.49781 0
M  V30 7761 H 737.398 -3.65098 -3.30098 0
M  V30 7762 N 739.05 0.861098 -1.31996 0
M  V30 7763 C 739.98 1.98482 -1.22993 0
M  V30 7764 C 740.961 1.6971 -0.115168 0
M  V30 7765 O 742.146 1.91849 -0.30126 0
M  V30 7766 C 739.276 3.34179 -0.945615 0
M  V30 7767 C 738.23 3.77284 -2.02091 0
M  V30 7768 C 737.556 5.1054 -1.58912 0
M  V30 7769 C 738.856 3.93439 -3.43515 0
M  V30 7770 H 740.55 2.06271 -2.17008 0
M  V30 7771 H 738.096 0.991043 -1.04472 0
M  V30 7772 H 740.049 4.12338 -0.869206 0
M  V30 7773 H 738.773 3.26586 0.0301849 0
M  V30 7774 H 737.432 3.01371 -2.08737 0
M  V30 7775 H 737.08 4.99397 -0.600942 0
M  V30 7776 H 736.78 5.40352 -2.30854 0
M  V30 7777 H 738.304 5.91199 -1.52696 0
M  V30 7778 H 739.718 4.6197 -3.39495 0
M  V30 7779 H 738.115 4.34661 -4.13751 0
M  V30 7780 H 739.185 2.96548 -3.8365 0
M  V30 7781 N 740.528 1.15101 1.07655 0
M  V30 7782 C 741.944 0.893004 1.32279 0
M  V30 7783 C 742.144 -0.461701 1.96139 0
M  V30 7784 O 741.2 -1.20431 2.21929 0
M  V30 7785 C 742.513 2.03161 2.21689 0
M  V30 7786 C 744.061 2.06579 2.35147 0
M  V30 7787 C 744.536 3.19754 3.27905 0
M  V30 7788 N 746.027 3.19382 3.35484 0
M  V30 7789 C 746.762 4.03592 4.07309 0
M  V30 7790 N 746.258 4.97859 4.81776 0
M  V30 7791 N 748.051 3.91626 4.03219 0
M  V30 7792 H 740.202 2.02341 0.645886 0
M  V30 7793 H 742.465 0.882127 0.347211 0
M  V30 7794 H 742.171 3.00934 1.82021 0
M  V30 7795 H 742.045 1.96132 3.22199 0
M  V30 7796 H 744.432 1.09408 2.74069 0
M  V30 7797 H 744.513 2.17676 1.34353 0
M  V30 7798 H 744.157 4.17175 2.89702 0
M  V30 7799 H 744.087 3.05893 4.28645 0
M  V30 7800 H 746.578 2.51112 2.82403 0
M  V30 7801 H 746.891 5.58563 5.34067 0
M  V30 7802 H 745.236 5.0185 4.80803 0
M  V30 7803 H 748.427 3.17295 3.44154 0
M  V30 7804 H 748.6 4.57479 4.5893 0
M  V30 7805 N 742.006 -1.2595 0.947325 0
M  V30 7806 C 742.969 -2.24407 0.466285 0
M  V30 7807 C 743.969 -1.55054 -0.426005 0
M  V30 7808 O 745.159 -1.7275 -0.224319 0
M  V30 7809 C 742.291 -3.39326 -0.327201 0
M  V30 7810 H 743.484 -2.68477 1.33642 0
M  V30 7811 H 741.037 -1.38211 0.729887 0
M  V30 7812 H 741.772 -3.00667 -1.21532 0
M  V30 7813 H 741.557 -3.9085 0.312839 0
M  V30 7814 H 743.047 -4.12455 -0.653477 0
M  V30 7815 N 743.484 -0.715051 -1.40445 0
M  V30 7816 C 744.431 -0.0621393 -2.30716 0
M  V30 7817 C 745.401 0.750871 -1.48159 0
M  V30 7818 O 746.586 0.714928 -1.76899 0
M  V30 7819 C 743.726 0.854036 -3.34365 0
M  V30 7820 C 742.839 0.0305565 -4.31989 0
M  V30 7821 C 741.974 0.946162 -5.22706 0
M  V30 7822 C 741.013 0.116741 -6.11989 0
M  V30 7823 N 740.15 0.987194 -6.95125 0
M  V30 7824 H 744.99 -0.83764 -2.85985 0
M  V30 7825 H 742.527 -0.424759 -1.40834 0
M  V30 7826 H 744.485 1.39946 -3.93028 0
M  V30 7827 H 743.115 1.59572 -2.806 0
M  V30 7828 H 742.167 -0.632044 -3.75112 0
M  V30 7829 H 743.479 -0.611615 -4.95036 0
M  V30 7830 H 742.633 1.56014 -5.86297 0
M  V30 7831 H 741.372 1.62216 -4.59932 0
M  V30 7832 H 740.377 -0.510176 -5.47428 0
M  V30 7833 H 741.602 -0.555742 -6.76822 0
M  V30 7834 H 739.548 1.64885 -6.3494 0
M  V30 7835 H 739.465 0.401046 -7.54936 0
M  V30 7836 H 740.733 1.58737 -7.63166 0
M  V30 7837 N 744.962 1.50701 -0.461195 0
M  V30 7838 C 745.895 2.24948 0.383863 0
M  V30 7839 C 746.873 1.27851 1.00464 0
M  V30 7840 O 748.057 1.57049 1.04249 0
M  V30 7841 C 745.184 3.01818 1.537 0
M  V30 7842 C 744.23 4.13762 1.03457 0
M  V30 7843 S 745.063 5.35483 -0.0427485 0
M  V30 7844 C 746.219 6.15898 1.11449 0
M  V30 7845 H 746.452 2.96277 -0.246425 0
M  V30 7846 H 743.985 1.52428 -0.245961 0
M  V30 7847 H 745.943 3.467 2.19794 0
M  V30 7848 H 744.604 2.30034 2.13877 0
M  V30 7849 H 743.797 4.66914 1.89757 0
M  V30 7850 H 743.399 3.71265 0.4515 0
M  V30 7851 H 745.691 6.46431 2.02813 0
M  V30 7852 H 746.634 7.05359 0.622444 0
M  V30 7853 H 747.042 5.47777 1.36385 0
M  V30 7854 N 746.441 0.193421 1.56409 0
M  V30 7855 C 747.718 -0.493318 1.89277 0
M  V30 7856 C 748.098 -1.79765 1.10669 0
M  V30 7857 O 747.446 -2.27558 0.207274 0
M  V30 7858 C 747.656 -0.713732 3.41624 0
M  V30 7859 C 749.004 -1.03385 4.11821 0
M  V30 7860 O 750.028 -0.801511 3.47065 0
M  V30 7861 O 748.887 -1.47327 5.26267 0
M  V30 7862 H 745.981 -0.256973 0.786062 0
M  V30 7863 H 748.527 0.23351 1.68086 0
M  V30 7864 H 747.299 0.207446 3.9075 0
M  V30 7865 H 746.922 -1.49308 3.68501 0
M  V30 7866 N 747.919 -1.57396 -0.0801906 0
M  V30 7867 C 748.829 -2.06451 -1.11423 0
M  V30 7868 C 749.845 -0.992352 -1.42928 0
M  V30 7869 O 751.021 -1.30651 -1.53272 0
M  V30 7870 C 748.086 -2.49164 -2.41077 0
M  V30 7871 C 747.147 -3.70641 -2.16619 0
M  V30 7872 C 746.38 -4.11307 -3.40092 0
M  V30 7873 O 746.603 -3.51922 -4.48895 0
M  V30 7874 O 745.537 -5.04157 -3.288 0
M  V30 7875 H 749.363 -2.94857 -0.727519 0
M  V30 7876 H 746.948 -1.46484 -0.293743 0
M  V30 7877 H 748.83 -2.77196 -3.17396 0
M  V30 7878 H 747.505 -1.6389 -2.79145 0
M  V30 7879 H 746.412 -3.47703 -1.38033 0
M  V30 7880 H 747.745 -4.5674 -1.83437 0
M  V30 7881 N 749.397 0.351382 -1.53633 0
M  V30 7882 C 750.327 1.43688 -1.84055 0
M  V30 7883 C 751.308 1.55251 -0.695073 0
M  V30 7884 O 752.493 1.69587 -0.946257 0
M  V30 7885 C 749.623 2.80843 -2.04315 0
M  V30 7886 C 748.577 2.84094 -3.20117 0
M  V30 7887 C 747.903 4.2406 -3.25696 0
M  V30 7888 C 749.203 2.50334 -4.58399 0
M  V30 7889 H 750.897 1.18478 -2.74961 0
M  V30 7890 H 748.443 0.568509 -1.32303 0
M  V30 7891 H 750.396 3.56821 -2.2418 0
M  V30 7892 H 749.12 3.07471 -1.10132 0
M  V30 7893 H 747.779 2.10568 -3.00094 0
M  V30 7894 H 747.427 4.47785 -2.29123 0
M  V30 7895 H 747.127 4.27147 -4.03509 0
M  V30 7896 H 748.651 5.0189 -3.47762 0
M  V30 7897 H 750.065 3.16025 -4.78332 0
M  V30 7898 H 748.462 2.64717 -5.38558 0
M  V30 7899 H 749.532 1.45542 -4.62543 0
M  V30 7900 N 750.875 1.45233 0.611969 0
M  V30 7901 C 752.121 1.50233 1.37119 0
M  V30 7902 C 752.476 0.140336 1.91888 0
M  V30 7903 O 751.769 -0.847161 1.71854 0
M  V30 7904 C 751.963 2.51353 2.54079 0
M  V30 7905 C 751.792 3.97251 2.10764 0
M  V30 7906 C 750.562 4.65256 1.97141 0
M  V30 7907 C 752.76 4.85914 1.68499 0
M  V30 7908 N 750.742 5.95895 1.4759 0
M  V30 7909 C 752.113 6.06147 1.30331 0
M  V30 7910 C 754.168 4.72813 1.56051 0
M  V30 7911 C 752.871 7.14729 0.809591 0
M  V30 7912 C 754.897 5.8144 1.08083 0
M  V30 7913 C 754.259 7.00825 0.708775 0
M  V30 7914 H 750.358 0.604708 0.495835 0
M  V30 7915 H 752.942 1.81679 0.700055 0
M  V30 7916 H 751.113 2.21866 3.18795 0
M  V30 7917 H 752.845 2.46528 3.20945 0
M  V30 7918 H 749.6 4.20345 2.18191 0
M  V30 7919 H 750.024 6.65349 1.25059 0
M  V30 7920 H 754.666 3.80931 1.83443 0
M  V30 7921 H 752.384 8.06404 0.523215 0
M  V30 7922 H 755.97 5.73335 0.988842 0
M  V30 7923 H 754.85 7.83448 0.343305 0
M  V30 7924 N 752.353 -0.854086 1.3245 0
M  V30 7925 C 753.301 -1.98411 1.21391 0
M  V30 7926 C 754.295 -1.68984 0.118586 0
M  V30 7927 O 755.501 -1.77784 0.281549 0
M  V30 7928 H 751.876 -0.651077 0.376301 0
M  V30 7929 H 753.847 -2.04867 2.16961 0
M  V30 7930 C 752.596 -3.34345 0.954407 0
M  V30 7931 H 751.919 -3.57518 1.78944 0
M  V30 7932 H 753.359 -4.13959 0.917269 0
M  V30 7933 C 751.818 -3.35151 -0.342838 0
M  V30 7934 O 752.348 -3.78174 -1.35452 0
M  V30 7935 N 750.554 -2.88298 -0.365012 0
M  V30 7936 H 750.101 -2.53481 0.4588 0
M  V30 7937 H 750.059 -2.8922 -1.23284 0
M  V30 7938 N 753.831 -1.1567 -1.07043 0
M  V30 7939 C 754.778 -0.856336 -2.14326 0
M  V30 7940 C 755.748 0.192051 -1.64986 0
M  V30 7941 O 756.933 0.0589148 -1.90709 0
M  V30 7942 C 754.073 -0.355227 -3.43267 0
M  V30 7943 C 753.186 -1.46555 -4.06381 0
M  V30 7944 C 752.321 -0.920245 -5.23168 0
M  V30 7945 C 751.36 -2.00729 -5.78251 0
M  V30 7946 N 750.497 -1.47813 -6.86364 0
M  V30 7947 H 755.337 -1.77514 -2.39359 0
M  V30 7948 H 752.874 -0.885676 -1.17449 0
M  V30 7949 H 754.832 -0.0463804 -4.17174 0
M  V30 7950 H 753.462 0.526649 -3.18475 0
M  V30 7951 H 752.514 -1.89052 -3.30096 0
M  V30 7952 H 753.826 -2.28616 -4.43324 0
M  V30 7953 H 752.98 -0.564127 -6.04072 0
M  V30 7954 H 751.719 -0.0688477 -4.87651 0
M  V30 7955 H 750.724 -2.3722 -4.95991 0
M  V30 7956 H 751.949 -2.86252 -6.15822 0
M  V30 7957 H 749.895 -0.649145 -6.5278 0
M  V30 7958 H 749.812 -2.23498 -7.22208 0
M  V30 7959 H 751.08 -1.15036 -7.70965 0
M  V30 7960 N 755.309 1.25446 -0.953992 0
M  V30 7961 C 756.239 2.28264 -0.491717 0
M  V30 7962 C 757.22 1.63717 0.461617 0
M  V30 7963 O 758.405 1.90821 0.36071 0
M  V30 7964 C 755.535 3.46525 0.231915 0
M  V30 7965 C 754.489 4.23247 -0.636098 0
M  V30 7966 C 753.815 5.34254 0.218238 0
M  V30 7967 C 755.115 4.85971 -1.91389 0
M  V30 7968 H 756.809 2.67183 -1.35106 0
M  V30 7969 H 754.355 1.2844 -0.651095 0
M  V30 7970 H 756.308 4.17576 0.566439 0
M  V30 7971 H 755.032 3.06594 1.12551 0
M  V30 7972 H 753.691 3.53978 -0.953696 0
M  V30 7973 H 753.339 4.90564 1.11156 0
M  V30 7974 H 753.039 5.86501 -0.359232 0
M  V30 7975 H 754.563 6.08138 0.547743 0
M  V30 7976 H 755.977 5.49168 -1.64581 0
M  V30 7977 H 754.374 5.48391 -2.43696 0
M  V30 7978 H 755.444 4.08192 -2.61738 0
M  V30 7979 N 756.787 0.722489 1.40064 0
M  V30 7980 C 758.012 0.273446 2.05589 0
M  V30 7981 C 758.437 -1.07875 1.54093 0
M  V30 7982 O 757.795 -1.68095 0.679252 0
M  V30 7983 C 757.843 0.271023 3.5958 0
M  V30 7984 O 756.947 -0.745499 4.05606 0
M  V30 7985 H 756.288 0.126856 0.65177 0
M  V30 7986 H 758.818 0.984906 1.79334 0
M  V30 7987 H 758.828 0.111084 4.07849 0
M  V30 7988 H 757.503 1.25776 3.96425 0
M  V30 7989 H 756.08 -0.552719 3.68781 0
M  V30 7990 N 758.265 -1.50454 0.469181 0
M  V30 7991 C 759.49 -2.0722 -0.0864892 0
M  V30 7992 C 759.915 -1.33098 -1.32916 0
M  V30 7993 O 759.273 -0.378084 -1.77314 0
M  V30 7994 C 759.321 -3.58845 -0.355384 0
M  V30 7995 O 758.425 -3.86583 -1.43622 0
M  V30 7996 H 757.766 -0.663889 0.0121414 0
M  V30 7997 H 760.296 -1.93674 0.659674 0
M  V30 7998 H 760.306 -4.03617 -0.596447 0
M  V30 7999 H 758.981 -4.12211 0.552698 0
M  V30 8000 H 757.558 -3.5365 -1.18262 0
M  V30 8001 N 759.743 -0.201713 -1.56304 0
M  V30 8002 C 760.69 0.716499 -2.19397 0
M  V30 8003 C 761.66 1.20494 -1.14326 0
M  V30 8004 O 762.845 1.26763 -1.42604 0
M  V30 8005 C 759.985 1.92762 -2.86246 0
M  V30 8006 C 759.098 1.47993 -4.0586 0
M  V30 8007 C 758.233 2.64706 -4.60547 0
M  V30 8008 C 757.272 2.16576 -5.72504 0
M  V30 8009 N 756.409 3.26491 -6.21569 0
M  V30 8010 H 761.249 0.171724 -2.97505 0
M  V30 8011 H 758.786 0.073016 -1.46919 0
M  V30 8012 H 760.744 2.6384 -3.23178 0
M  V30 8013 H 759.374 2.44559 -2.10691 0
M  V30 8014 H 758.426 0.66477 -3.74546 0
M  V30 8015 H 759.738 1.08686 -4.86815 0
M  V30 8016 H 758.892 3.43898 -4.99819 0
M  V30 8017 H 757.631 3.0729 -3.78713 0
M  V30 8018 H 756.636 1.3584 -5.32755 0
M  V30 8019 H 757.861 1.75015 -6.56161 0
M  V30 8020 H 755.807 3.68594 -5.42655 0
M  V30 8021 H 755.724 2.91374 -6.97594 0
M  V30 8022 H 756.992 4.05877 -6.65495 0
M  V30 8023 N 761.222 1.57436 0.0718424 0
M  V30 8024 C 762.132 2.07039 1.10326 0
M  V30 8025 C 763.148 0.999918 1.424 0
M  V30 8026 O 764.324 1.31462 1.52577 0
M  V30 8027 C 761.389 2.50439 2.39752 0
M  V30 8028 C 760.45 3.71784 2.14651 0
M  V30 8029 C 759.683 4.13104 3.37906 0
M  V30 8030 O 759.906 3.54298 4.47023 0
M  V30 8031 O 758.84 5.05894 3.26121 0
M  V30 8032 H 762.666 2.95239 0.711872 0
M  V30 8033 H 760.251 1.46638 0.28597 0
M  V30 8034 H 762.133 2.78876 3.15921 0
M  V30 8035 H 760.808 1.65368 2.78271 0
M  V30 8036 H 759.715 3.48431 1.36187 0
M  V30 8037 H 761.048 4.57707 1.81012 0
M  V30 8038 N 762.7 -0.34323 1.53817 0
M  V30 8039 C 763.977 -1.10047 1.61706 0
M  V30 8040 C 764.357 -2.06495 0.438514 0
M  V30 8041 O 763.705 -2.21297 -0.569188 0
M  V30 8042 C 763.915 -1.81985 2.97796 0
M  V30 8043 C 765.263 -2.35717 3.53161 0
M  V30 8044 O 766.287 -1.9208 2.99973 0
M  V30 8045 O 765.146 -3.15551 4.46195 0
M  V30 8046 H 762.24 -0.506096 0.654061 0
M  V30 8047 H 764.786 -0.344697 1.66162 0
M  V30 8048 H 763.558 -1.11722 3.75012 0
M  V30 8049 H 763.181 -2.64419 2.96931 0
M  V30 8050 N 764.178 -1.45556 -0.604258 0
M  V30 8051 C 765.141 -1.54091 -1.69672 0
M  V30 8052 C 766.141 -0.420076 -1.55216 0
M  V30 8053 O 767.331 -0.683671 -1.60224 0
M  V30 8054 C 764.463 -1.44063 -3.08964 0
M  V30 8055 H 765.656 -2.51431 -1.6347 0
M  V30 8056 H 763.209 -1.33046 -0.820273 0
M  V30 8057 H 763.944 -0.479201 -3.2074 0
M  V30 8058 H 763.729 -2.25362 -3.20865 0
M  V30 8059 H 765.219 -1.53075 -3.88533 0
M  V30 8060 N 765.656 0.84705 -1.32902 0
M  V30 8061 C 766.881 1.63925 -1.27056 0
M  V30 8062 C 767.306 1.87443 0.157136 0
M  V30 8063 O 766.664 1.43266 1.11106 0
M  V30 8064 C 766.712 2.97134 -2.04313 0
M  V30 8065 O 765.816 3.88049 -1.39614 0
M  V30 8066 H 765.157 0.499477 -0.437514 0
M  V30 8067 H 767.687 1.05443 -1.75336 0
M  V30 8068 H 767.697 3.46896 -2.14772 0
M  V30 8069 H 766.372 2.79339 -3.08128 0
M  V30 8070 H 764.949 3.46525 -1.3775 0
M  V30 8071 N 767.134 1.16236 1.06428 0
M  V30 8072 C 768.097 0.870163 2.1204 0
M  V30 8073 C 769.097 -0.134239 1.60239 0
M  V30 8074 O 770.287 0.0964932 1.73933 0
M  V30 8075 C 767.419 0.301033 3.39568 0
M  V30 8076 H 768.612 1.8064 2.39394 0
M  V30 8077 H 766.165 0.971116 1.2247 0
M  V30 8078 H 766.9 -0.642948 3.17863 0
M  V30 8079 H 766.685 1.02475 3.78472 0
M  V30 8080 H 768.175 0.114494 4.17443 0
M  V30 8081 N 768.612 -1.24939 0.960631 0
M  V30 8082 C 769.542 -2.28 0.503815 0
M  V30 8083 C 770.523 -1.63959 -0.452928 0
M  V30 8084 O 771.708 -1.91009 -0.350585 0
M  V30 8085 C 768.838 -3.46643 -0.213535 0
M  V30 8086 C 767.792 -4.22903 0.658535 0
M  V30 8087 C 767.118 -5.34363 -0.189902 0
M  V30 8088 C 768.418 -4.84949 1.93963 0
M  V30 8089 H 770.112 -2.66462 1.36521 0
M  V30 8090 H 767.658 -1.28093 0.657897 0
M  V30 8091 H 769.611 -4.1787 -0.544286 0
M  V30 8092 H 768.335 -3.07187 -1.10923 0
M  V30 8093 H 766.994 -3.53467 0.972455 0
M  V30 8094 H 766.642 -4.91147 -1.08553 0
M  V30 8095 H 766.342 -5.86302 0.390331 0
M  V30 8096 H 767.866 -6.0842 -0.515484 0
M  V30 8097 H 769.28 -5.48288 1.67491 0
M  V30 8098 H 767.677 -5.47091 2.46601 0
M  V30 8099 H 768.747 -4.06799 2.639 0
M  V30 8100 N 770.09 -0.729906 -1.39679 0
M  V30 8101 C 771.339 -0.272534 -1.9985 0
M  V30 8102 C 771.652 1.14519 -1.58571 0
M  V30 8103 O 772.858 1.70182 -2.11543 0
M  V30 8104 C 771.314 -0.436322 -3.57245 0
M  V30 8105 C 770.922 -1.86161 -4.0749 0
M  V30 8106 C 772.666 -0.0404679 -4.24481 0
M  V30 8107 C 770.573 -1.97522 -5.5744 0
M  V30 8108 H 769.503 -0.0981428 -0.747585 0
M  V30 8109 H 772.154 -0.903056 -1.59741 0
M  V30 8110 H 770.536 0.263015 -3.95126 0
M  V30 8111 H 771.71 -2.59248 -3.80955 0
M  V30 8112 H 770.025 -2.21021 -3.529 0
M  V30 8113 H 772.622 -0.104437 -5.34598 0
M  V30 8114 H 772.965 1.00357 -4.04023 0
M  V30 8115 H 773.498 -0.690774 -3.91757 0
M  V30 8116 H 770.237 -3.00096 -5.82771 0
M  V30 8117 H 769.757 -1.28864 -5.85794 0
M  V30 8118 H 771.436 -1.754 -6.22771 0
M  V30 8119 N 771.568 1.50203 -0.477153 0
M  V30 8120 C 772.478 2.32421 0.319027 0
M  V30 8121 C 773.494 1.43075 0.990233 0
M  V30 8122 O 774.67 1.76123 0.976873 0
M  V30 8123 C 771.735 3.17909 1.38328 0
M  V30 8124 C 770.796 4.23082 0.728036 0
M  V30 8125 C 770.029 5.04484 1.74158 0
M  V30 8126 O 770.252 4.8705 2.96881 0
M  V30 8127 O 769.186 5.8747 1.31006 0
M  V30 8128 H 773.012 3.01638 -0.353281 0
M  V30 8129 H 770.597 1.47478 -0.238891 0
M  V30 8130 H 772.479 3.70937 1.9996 0
M  V30 8131 H 771.154 2.51413 2.03895 0
M  V30 8132 H 770.061 3.7403 0.07261 0
M  V30 8133 H 771.394 4.92065 0.115216 0
M  V30 8134 N 773.046 0.209999 1.56195 0
M  V30 8135 C 773.956 -0.716459 2.23392 0
M  V30 8136 C 774.972 -1.22291 1.23778 0
M  V30 8137 O 776.148 -1.26694 1.56558 0
M  V30 8138 C 773.213 -1.91261 2.89172 0
M  V30 8139 C 772.274 -1.44927 4.04097 0
M  V30 8140 C 771.507 -2.5884 4.66731 0
M  V30 8141 O 771.73 -3.76693 4.2832 0
M  V30 8142 O 770.664 -2.30701 5.55932 0
M  V30 8143 H 774.49 -0.174089 3.03201 0
M  V30 8144 H 772.075 -0.0199505 1.49387 0
M  V30 8145 H 773.957 -2.6114 3.30733 0
M  V30 8146 H 772.632 -2.4433 2.12331 0
M  V30 8147 H 771.539 -0.718839 3.67129 0
M  V30 8148 H 772.872 -0.965084 4.82646 0
M  V30 8149 N 774.524 -1.57472 -0.0634922 0
M  V30 8150 C 775.454 -2.07297 -1.07473 0
M  V30 8151 C 776.435 -0.968162 -1.39859 0
M  V30 8152 O 777.62 -1.24139 -1.49343 0
M  V30 8153 C 774.75 -2.52381 -2.38581 0
M  V30 8154 C 773.704 -3.66813 -2.20526 0
M  V30 8155 C 773.03 -3.97982 -3.57092 0
M  V30 8156 C 774.33 -4.96553 -1.61965 0
M  V30 8157 H 776.024 -2.92033 -0.660092 0
M  V30 8158 H 773.57 -1.40488 -0.316074 0
M  V30 8159 H 775.523 -2.85852 -3.09624 0
M  V30 8160 H 774.247 -1.64684 -2.8204 0
M  V30 8161 H 772.906 -3.33639 -1.51924 0
M  V30 8162 H 772.554 -3.07403 -3.98136 0
M  V30 8163 H 772.254 -4.7504 -3.45848 0
M  V30 8164 H 773.778 -4.33956 -4.29552 0
M  V30 8165 H 775.192 -5.28201 -2.22883 0
M  V30 8166 H 773.589 -5.7799 -1.61394 0
M  V30 8167 H 774.659 -4.81396 -0.581918 0
M  V30 8168 N 776.003 0.335068 -1.53997 0
M  V30 8169 C 777.233 1.0926 -1.75345 0
M  V30 8170 C 777.641 1.82568 -0.496545 0
M  V30 8171 O 776.984 1.75525 0.541897 0
M  V30 8172 C 777.046 2.14473 -2.88516 0
M  V30 8173 C 776.71 1.60665 -4.27827 0
M  V30 8174 C 777.707 1.05448 -5.09094 0
M  V30 8175 C 775.392 1.65255 -4.74337 0
M  V30 8176 C 777.386 0.555372 -6.34976 0
M  V30 8177 C 775.073 1.14956 -6.0019 0
M  V30 8178 C 776.071 0.601907 -6.80343 0
M  V30 8179 O 775.759 0.106445 -8.0383 0
M  V30 8180 H 775.491 0.331329 -0.589234 0
M  V30 8181 H 778.045 0.39042 -2.01655 0
M  V30 8182 H 776.275 2.88274 -2.5775 0
M  V30 8183 H 777.964 2.75857 -2.97755 0
M  V30 8184 H 778.73 1.01218 -4.74321 0
M  V30 8185 H 774.609 2.06822 -4.12002 0
M  V30 8186 H 778.153 0.127245 -6.97484 0
M  V30 8187 H 774.05 1.18891 -6.34457 0
M  V30 8188 H 774.818 0.222944 -8.18196 0
M  V30 8189 N 777.481 1.45874 0.596531 0
M  V30 8190 C 778.729 1.5017 1.35253 0
M  V30 8191 C 779.05 0.149246 1.94428 0
M  V30 8192 O 778.32 -0.82268 1.77789 0
M  V30 8193 H 776.9 0.553052 0.502138 0
M  V30 8194 H 779.562 1.81908 0.699671 0
M  V30 8195 H 778.658 2.24671 2.16632 0
M  V30 8196 N 778.959 -0.83999 1.33349 0
M  V30 8197 C 779.869 -1.98182 1.25543 0
M  V30 8198 C 780.885 -1.73204 0.166208 0
M  V30 8199 O 782.061 -1.97596 0.389589 0
M  V30 8200 C 779.126 -3.32157 0.993614 0
M  V30 8201 C 778.187 -3.70258 2.17273 0
M  V30 8202 C 777.42 -4.9784 1.92331 0
M  V30 8203 O 777.643 -5.63679 0.873074 0
M  V30 8204 O 776.577 -5.33418 2.78835 0
M  V30 8205 H 780.403 -2.07708 2.21565 0
M  V30 8206 H 777.988 -0.972852 1.13384 0
M  V30 8207 H 779.87 -4.12433 0.864711 0
M  V30 8208 H 778.545 -3.23637 0.0636596 0
M  V30 8209 H 777.452 -2.90497 2.35716 0
M  V30 8210 H 778.785 -3.83442 3.08598 0
M  V30 8211 N 780.437 -1.16799 -1.0581 0
M  V30 8212 C 781.684 -0.952524 -1.78699 0
M  V30 8213 C 782.012 0.51931 -1.87439 0
M  V30 8214 O 781.267 1.40151 -1.36587 0
M  V30 8215 C 781.566 -1.53111 -3.22942 0
M  V30 8216 C 781.232 -3.0261 -3.34273 0
M  V30 8217 C 779.894 -3.43418 -3.37072 0
M  V30 8218 C 782.246 -3.98611 -3.35795 0
M  V30 8219 C 779.574 -4.78838 -3.39015 0
M  V30 8220 C 781.926 -5.33923 -3.39277 0
M  V30 8221 C 780.59 -5.74205 -3.40361 0
M  V30 8222 H 779.86 -0.348553 -0.653905 0
M  V30 8223 H 782.507 -1.45591 -1.244 0
M  V30 8224 H 780.812 -0.949286 -3.80126 0
M  V30 8225 H 782.509 -1.34002 -3.77948 0
M  V30 8226 H 779.099 -2.70075 -3.32803 0
M  V30 8227 H 783.283 -3.68146 -3.32839 0
M  V30 8228 H 778.539 -5.09369 -3.38161 0
M  V30 8229 H 782.713 -6.08094 -3.39403 0
M  V30 8230 H 780.34 -6.79117 -3.4162 0
M  V30 8231 N 781.915 1.24427 -0.967243 0
M  V30 8232 C 782.878 2.23637 -0.501927 0
M  V30 8233 C 783.878 1.55712 0.401283 0
M  V30 8234 O 785.068 1.73085 0.196808 0
M  V30 8235 C 782.2 3.39804 0.273176 0
M  V30 8236 H 783.393 2.66317 -1.37897 0
M  V30 8237 H 780.946 1.37033 -0.751783 0
M  V30 8238 H 781.681 3.02562 1.16733 0
M  V30 8239 H 781.466 3.90303 -0.37498 0
M  V30 8240 H 782.956 4.13443 0.587776 0
M  V30 8241 N 783.393 0.737304 1.3929 0
M  V30 8242 C 784.809 0.413132 1.5416 0
M  V30 8243 C 785.009 -1.07574 1.70382 0
M  V30 8244 O 784.065 -1.86185 1.70562 0
M  V30 8245 C 785.378 1.19817 2.75798 0
M  V30 8246 C 786.926 1.18662 2.89635 0
M  V30 8247 C 787.401 1.95427 4.14213 0
M  V30 8248 N 788.892 1.92605 4.21257 0
M  V30 8249 C 789.627 2.48808 5.16606 0
M  V30 8250 N 789.123 3.13659 6.1773 0
M  V30 8251 N 790.916 2.38829 5.08839 0
M  V30 8252 H 783.067 1.70243 1.27008 0
M  V30 8253 H 785.33 0.720802 0.61575 0
M  V30 8254 H 785.036 2.25179 2.70161 0
M  V30 8255 H 784.91 0.804144 3.68529 0
M  V30 8256 H 787.297 0.141112 2.94762 0
M  V30 8257 H 787.378 1.62003 1.97961 0
M  V30 8258 H 787.022 2.9998 4.09847 0
M  V30 8259 H 786.952 1.4949 5.04936 0
M  V30 8260 H 789.443 1.45362 3.48824 0
M  V30 8261 H 789.756 3.54006 6.8695 0
M  V30 8262 H 788.101 3.17749 6.1811 0
M  V30 8263 H 791.292 1.87806 4.28773 0
M  V30 8264 H 791.465 2.82929 5.82971 0
M  V30 8265 N 784.871 -1.49948 0.485112 0
M  V30 8266 C 785.804 -2.25531 -0.348027 0
M  V30 8267 C 786.782 -1.29433 -0.984172 0
M  V30 8268 O 787.966 -1.58687 -1.01738 0
M  V30 8269 C 785.093 -3.04225 -1.48878 0
M  V30 8270 C 784.139 -4.15355 -0.968616 0
M  V30 8271 S 784.972 -5.35347 0.127934 0
M  V30 8272 C 786.128 -6.17593 -1.01637 0
M  V30 8273 H 786.361 -2.95847 0.293529 0
M  V30 8274 H 783.894 -1.52018 0.27018 0
M  V30 8275 H 785.852 -3.50153 -2.14251 0
M  V30 8276 H 784.513 -2.33407 -2.1019 0
M  V30 8277 H 783.706 -4.69873 -1.82305 0
M  V30 8278 H 783.308 -3.71936 -0.392377 0
M  V30 8279 H 785.6 -6.49576 -1.92503 0
M  V30 8280 H 786.543 -7.0626 -0.510149 0
M  V30 8281 H 786.951 -5.49877 -1.27653 0
M  V30 8282 N 786.349 -0.21828 -1.56081 0
M  V30 8283 C 787.259 0.704602 -2.23769 0
M  V30 8284 C 788.275 1.21633 -1.24425 0
M  V30 8285 O 789.451 1.25862 -1.57228 0
M  V30 8286 C 786.516 1.89725 -2.90182 0
M  V30 8287 C 785.577 1.42782 -4.0486 0
M  V30 8288 C 784.81 2.56361 -4.68097 0
M  V30 8289 O 785.033 3.74417 -4.30312 0
M  V30 8290 O 783.967 2.2775 -5.57148 0
M  V30 8291 H 787.793 0.158007 -3.03289 0
M  V30 8292 H 785.378 0.0120279 -1.49395 0
M  V30 8293 H 787.26 2.59382 -3.32113 0
M  V30 8294 H 785.935 2.432 -2.13624 0
M  V30 8295 H 784.842 0.699359 -3.67505 0
M  V30 8296 H 786.175 0.939474 -4.83151 0
M  V30 8297 N 787.827 1.57504 0.0551401 0
M  V30 8298 C 788.737 2.08198 1.08124 0
M  V30 8299 C 789.753 1.01496 1.41331 0
M  V30 8300 O 790.929 1.33073 1.51174 0
M  V30 8301 C 787.994 2.52968 2.37083 0
M  V30 8302 C 787.055 3.7404 2.10696 0
M  V30 8303 C 786.288 4.16665 3.33505 0
M  V30 8304 O 786.511 3.59019 4.4324 0
M  V30 8305 O 785.445 5.09324 3.20737 0
M  V30 8306 H 789.271 2.95977 0.680518 0
M  V30 8307 H 786.856 1.46933 0.270401 0
M  V30 8308 H 788.738 2.82211 3.12946 0
M  V30 8309 H 787.413 1.6831 2.76502 0
M  V30 8310 H 786.32 3.49855 1.32484 0
M  V30 8311 H 787.653 4.59601 1.76148 0
M  V30 8312 N 789.305 -0.326896 1.54172 0
M  V30 8313 C 790.268 -1.38515 1.8261 0
M  V30 8314 C 791.268 -1.44872 0.697771 0
M  V30 8315 O 792.458 -1.44957 0.966078 0
M  V30 8316 C 789.59 -2.77281 1.98313 0
M  V30 8317 H 790.783 -1.14556 2.77159 0
M  V30 8318 H 788.336 -0.562199 1.45839 0
M  V30 8319 H 789.071 -3.065 1.05964 0
M  V30 8320 H 788.856 -2.74061 2.80416 0
M  V30 8321 H 790.346 -3.53845 2.21773 0
M  V30 8322 N 790.784 -1.46188 -0.588786 0
M  V30 8323 C 792.024 -1.52738 -1.35833 0
M  V30 8324 C 792.388 -0.172403 -1.91224 0
M  V30 8325 O 793.589 -0.112633 -2.68564 0
M  V30 8326 C 791.86 -2.59085 -2.4619 0
M  V30 8327 S 793.419 -2.84997 -3.3365 0
M  V30 8328 H 790.237 -0.539713 -0.462851 0
M  V30 8329 H 792.839 -1.83386 -0.677489 0
M  V30 8330 H 791.543 -3.56177 -2.03878 0
M  V30 8331 H 791.074 -2.3015 -3.19053 0
M  V30 8332 H 793.089 -2.19804 -4.4486 0
M  V30 8333 N 792.262 0.832906 -1.33792 0
M  V30 8334 C 793.21 1.96455 -1.24532 0
M  V30 8335 C 794.204 1.68774 -0.145455 0
M  V30 8336 O 795.41 1.77314 -0.309797 0
M  V30 8337 H 791.785 0.645008 -0.386611 0
M  V30 8338 H 793.756 2.01389 -2.20193 0
M  V30 8339 C 792.505 3.32784 -1.00748 0
M  V30 8340 H 791.828 3.54626 -1.84609 0
M  V30 8341 H 793.268 4.12447 -0.98301 0
M  V30 8342 C 791.727 3.35654 0.289475 0
M  V30 8343 O 792.257 3.80281 1.29419 0
M  V30 8344 N 790.463 2.88843 0.3191 0
M  V30 8345 H 790.01 2.52719 -0.499069 0
M  V30 8346 H 789.968 2.91145 1.18667 0
M  V30 8347 N 793.74 1.17359 1.05189 0
M  V30 8348 C 794.688 0.886527 2.15043 0
M  V30 8349 C 795.682 -0.148834 1.68745 0
M  V30 8350 O 796.888 -0.00175123 1.8 0
M  V30 8351 H 793.263 0.269147 0.702185 0
M  V30 8352 H 795.234 1.82016 2.36459 0
M  V30 8353 C 793.983 0.416333 3.45198 0
M  V30 8354 H 793.306 1.20449 3.81225 0
M  V30 8355 H 794.746 0.254362 4.23236 0
M  V30 8356 C 793.205 -0.866016 3.25579 0
M  V30 8357 O 793.735 -1.9328 3.52144 0
M  V30 8358 N 791.941 -0.814179 2.78961 0
M  V30 8359 H 791.488 0.0541618 2.57543 0
M  V30 8360 H 791.446 -1.67264 2.66214 0
M  V30 8361 N 795.218 -1.23913 0.973828 0
M  V30 8362 C 796.148 -2.27453 0.527969 0
M  V30 8363 C 797.129 -1.6443 -0.435513 0
M  V30 8364 O 798.314 -1.9137 -0.330306 0
M  V30 8365 C 795.444 -3.4685 -0.176757 0
M  V30 8366 C 794.398 -4.22181 0.703352 0
M  V30 8367 C 793.724 -5.34534 -0.133215 0
M  V30 8368 C 795.024 -4.82865 1.99096 0
M  V30 8369 H 796.718 -2.65 1.3934 0
M  V30 8370 H 794.264 -1.27388 0.671446 0
M  V30 8371 H 796.217 -4.18424 -0.499934 0
M  V30 8372 H 794.941 -3.08346 -1.07659 0
M  V30 8373 H 793.6 -3.52416 1.00989 0
M  V30 8374 H 793.248 -4.92271 -1.03338 0
M  V30 8375 H 792.948 -5.85855 0.452494 0
M  V30 8376 H 794.472 -6.08933 -0.450924 0
M  V30 8377 H 795.886 -5.46481 1.73297 0
M  V30 8378 H 794.283 -5.44444 2.52389 0
M  V30 8379 H 795.353 -4.03977 2.68199 0
M  V30 8380 N 796.696 -0.74468 -1.38897 0
M  V30 8381 C 797.643 -0.111064 -2.30533 0
M  V30 8382 C 798.613 0.719276 -1.49719 0
M  V30 8383 O 799.798 0.677244 -1.78376 0
M  V30 8384 C 796.938 0.78292 -3.36102 0
M  V30 8385 C 796.051 -0.0610817 -4.31957 0
M  V30 8386 C 795.186 0.835075 -5.24595 0
M  V30 8387 C 794.225 -0.0130974 -6.12099 0
M  V30 8388 N 793.362 0.839525 -6.97063 0
M  V30 8389 H 798.202 -0.898113 -2.84144 0
M  V30 8390 H 795.739 -0.454537 -1.39901 0
M  V30 8391 H 797.697 1.31578 -3.95908 0
M  V30 8392 H 796.327 1.53585 -2.83922 0
M  V30 8393 H 795.379 -0.711469 -3.73687 0
M  V30 8394 H 796.691 -0.716482 -4.93627 0
M  V30 8395 H 795.845 1.43542 -5.89475 0
M  V30 8396 H 794.584 1.52423 -4.63269 0
M  V30 8397 H 793.589 -0.626179 -5.46223 0
M  V30 8398 H 794.814 -0.699181 -6.75491 0
M  V30 8399 H 792.76 1.5138 -6.38295 0
M  V30 8400 H 792.677 0.240823 -7.55616 0
M  V30 8401 H 793.945 1.42513 -7.66362 0
M  V30 8402 N 798.174 1.49689 -0.493057 0
M  V30 8403 C 799.137 2.27502 0.278485 0
M  V30 8404 C 800.137 1.33184 0.901037 0
M  V30 8405 O 801.327 1.56415 0.766801 0
M  V30 8406 C 798.459 3.10881 1.39878 0
M  V30 8407 H 799.652 2.97163 -0.404219 0
M  V30 8408 H 797.205 1.54324 -0.247774 0
M  V30 8409 H 797.94 2.45767 2.11587 0
M  V30 8410 H 797.725 3.80219 0.957924 0
M  V30 8411 H 799.215 3.69673 1.94247 0
M  V30 8412 N 799.652 0.226554 1.55963 0
M  V30 8413 C 800.6 -0.697922 2.21882 0
M  V30 8414 C 801.594 -1.19586 1.19981 0
M  V30 8415 O 802.8 -1.15511 1.38048 0
M  V30 8416 H 799.175 -0.243501 0.711485 0
M  V30 8417 H 801.146 -0.118576 2.98164 0
M  V30 8418 C 799.895 -1.89309 2.91646 0
M  V30 8419 H 799.218 -1.51906 3.69817 0
M  V30 8420 H 800.658 -2.51762 3.41162 0
M  V30 8421 C 799.117 -2.75162 1.94391 0
M  V30 8422 O 799.647 -3.74071 1.46402 0
M  V30 8423 N 797.853 -2.41302 1.61932 0
M  V30 8424 H 797.4 -1.60923 2.01151 0
M  V30 8425 H 797.358 -2.99023 0.971219 0
M  V30 8426 N 801.13 -1.57531 -0.0467866 0
M  V30 8427 C 802.06 -2.08425 -1.05268 0
M  V30 8428 C 803.041 -0.982941 -1.38825 0
M  V30 8429 O 804.226 -1.25716 -1.48018 0
M  V30 8430 C 801.356 -2.54897 -2.35891 0
M  V30 8431 C 800.31 -3.69132 -2.16623 0
M  V30 8432 C 799.636 -4.01747 -3.52851 0
M  V30 8433 C 800.936 -4.98243 -1.56689 0
M  V30 8434 H 802.63 -2.92716 -0.62908 0
M  V30 8435 H 800.176 -1.40816 -0.301156 0
M  V30 8436 H 802.129 -2.8912 -3.06574 0
M  V30 8437 H 800.853 -1.67666 -2.80278 0
M  V30 8438 H 799.512 -3.35231 -1.48377 0
M  V30 8439 H 799.16 -3.11608 -3.94853 0
M  V30 8440 H 798.86 -4.78681 -3.4079 0
M  V30 8441 H 800.384 -4.38487 -4.24925 0
M  V30 8442 H 801.798 -5.30535 -2.17268 0
M  V30 8443 H 800.195 -5.79669 -1.55255 0
M  V30 8444 H 801.265 -4.81986 -0.530827 0
M  V30 8445 N 802.608 0.318715 -1.54344 0
M  V30 8446 C 804.019 0.89285 -1.63967 0
M  V30 8447 C 804.37 1.88712 -0.536855 0
M  V30 8448 O 803.495 2.13877 0.329457 0
M  V30 8449 C 804.09 1.62618 -2.97222 0
M  V30 8450 C 802.649 2.14897 -3.09025 0
M  V30 8451 C 801.796 0.975909 -2.5956 0
M  V30 8452 H 804.747 0.0961687 -1.58408 0
M  V30 8453 H 804.768 2.4907 -2.87653 0
M  V30 8454 H 804.28 0.902286 -3.77466 0
M  V30 8455 H 802.381 2.90387 -2.33465 0
M  V30 8456 H 802.494 2.39565 -4.14904 0
M  V30 8457 H 800.858 1.35646 -2.15574 0
M  V30 8458 H 801.641 0.266253 -3.42266 0
M  V30 8459 N 804.086 1.46499 0.581025 0
M  V30 8460 C 804.996 1.59778 1.71779 0
M  V30 8461 C 806.012 0.481223 1.67213 0
M  V30 8462 O 807.188 0.74557 1.87091 0
M  V30 8463 C 804.253 1.58626 3.08283 0
M  V30 8464 C 803.314 2.81527 3.241 0
M  V30 8465 C 802.547 2.80421 4.54092 0
M  V30 8466 O 802.77 1.89262 5.38085 0
M  V30 8467 O 801.704 3.71984 4.73193 0
M  V30 8468 H 805.53 2.55918 1.63523 0
M  V30 8469 H 803.115 1.29311 0.748267 0
M  V30 8470 H 804.997 1.60686 3.89561 0
M  V30 8471 H 803.672 0.656467 3.16973 0
M  V30 8472 H 802.579 2.85021 2.42309 0
M  V30 8473 H 803.912 3.73721 3.20302 0
M  V30 8474 N 805.565 -0.825799 1.34232 0
M  V30 8475 C 806.811 -1.58419 1.26614 0
M  V30 8476 C 807.144 -1.93503 -0.164341 0
M  V30 8477 O 806.419 -1.59785 -1.109 0
M  V30 8478 C 806.702 -2.8856 2.15418 0
M  V30 8479 C 806.555 -2.60075 3.66989 0
M  V30 8480 C 807.874 -3.90107 2.03726 0
M  V30 8481 H 804.993 -0.574794 0.461282 0
M  V30 8482 H 807.635 -0.951519 1.64457 0
M  V30 8483 H 805.785 -3.42553 1.83275 0
M  V30 8484 H 807.457 -2.12414 4.09485 0
M  V30 8485 H 805.7 -1.93565 3.88221 0
M  V30 8486 H 806.371 -3.52866 4.24488 0
M  V30 8487 H 808.847 -3.45459 2.31942 0
M  V30 8488 H 807.723 -4.78976 2.68092 0
M  V30 8489 H 807.984 -4.30329 1.01337 0
M  V30 8490 N 807.043 -1.17915 -1.04565 0
M  V30 8491 C 808.006 -0.903787 -2.10628 0
M  V30 8492 C 809.006 0.10873 -1.60432 0
M  V30 8493 O 810.196 -0.124152 -1.73757 0
M  V30 8494 C 807.328 -0.355017 -3.39046 0
M  V30 8495 H 808.521 -1.84425 -2.3649 0
M  V30 8496 H 806.074 -0.990477 -1.2091 0
M  V30 8497 H 806.809 0.592297 -3.18845 0
M  V30 8498 H 806.594 -1.08484 -3.76794 0
M  V30 8499 H 808.084 -0.180891 -4.17208 0
M  V30 8500 N 808.521 1.23394 -0.980386 0
M  V30 8501 C 809.451 2.2717 -0.540024 0
M  V30 8502 C 810.432 1.64659 0.426787 0
M  V30 8503 O 811.617 1.91543 0.320153 0
M  V30 8504 C 808.747 3.46939 0.15836 0
M  V30 8505 C 807.701 4.21802 -0.725732 0
M  V30 8506 C 807.027 5.34597 0.104866 0
M  V30 8507 C 808.327 4.81802 -2.01654 0
M  V30 8508 H 810.021 2.64257 -1.40743 0
M  V30 8509 H 807.567 1.2703 -0.678193 0
M  V30 8510 H 809.52 4.18683 0.477737 0
M  V30 8511 H 808.244 3.08912 1.06022 0
M  V30 8512 H 806.903 3.51875 -1.02857 0
M  V30 8513 H 806.551 4.92812 1.00726 0
M  V30 8514 H 806.251 5.85607 -0.483557 0
M  V30 8515 H 807.775 6.09163 0.418624 0
M  V30 8516 H 809.189 5.45554 -1.76193 0
M  V30 8517 H 807.586 5.43098 -2.55273 0
M  V30 8518 H 808.656 4.02549 -2.70338 0
M  V30 8519 N 809.999 0.752036 1.385 0
M  V30 8520 C 810.909 0.125318 2.34265 0
M  V30 8521 C 811.925 -0.702437 1.59191 0
M  V30 8522 O 813.101 -0.626951 1.91393 0
M  V30 8523 C 810.166 -0.758486 3.38301 0
M  V30 8524 C 809.227 0.0834636 4.29219 0
M  V30 8525 C 808.46 -0.758252 5.28286 0
M  V30 8526 O 808.683 -1.99632 5.34325 0
M  V30 8527 O 807.617 -0.177878 6.01637 0
M  V30 8528 H 811.443 0.91617 2.89551 0
M  V30 8529 H 809.028 0.512911 1.4032 0
M  V30 8530 H 810.91 -1.26365 4.02007 0
M  V30 8531 H 809.585 -1.52786 2.85374 0
M  V30 8532 H 808.492 0.634545 3.68679 0
M  V30 8533 H 809.825 0.815455 4.85398 0
M  V30 8534 N 811.477 -1.49425 0.500989 0
M  V30 8535 C 812.387 -2.32899 -0.282011 0
M  V30 8536 C 813.403 -1.44632 -0.967346 0
M  V30 8537 O 814.579 -1.77654 -0.94873 0
M  V30 8538 C 811.644 -3.20069 -1.33253 0
M  V30 8539 C 810.705 -4.24186 -0.660636 0
M  V30 8540 C 809.938 -5.07191 -1.6611 0
M  V30 8541 O 810.161 -4.91712 -2.89094 0
M  V30 8542 O 809.095 -5.8948 -1.21643 0
M  V30 8543 H 812.921 -3.01038 0.401224 0
M  V30 8544 H 810.506 -1.47079 0.262323 0
M  V30 8545 H 812.388 -3.74071 -1.94033 0
M  V30 8546 H 811.063 -2.54625 -1.9987 0
M  V30 8547 H 809.97 -3.74098 -0.0130959 0
M  V30 8548 H 811.303 -4.92186 -0.0369179 0
M  V30 8549 N 812.955 -0.234822 -1.55841 0
M  V30 8550 C 814.195 0.394944 -2.00548 0
M  V30 8551 C 814.559 1.56002 -1.11926 0
M  V30 8552 O 815.76 2.2567 -1.46037 0
M  V30 8553 C 814.031 0.805896 -3.48195 0
M  V30 8554 S 815.59 1.4279 -4.14918 0
M  V30 8555 H 812.408 0.124802 -0.699961 0
M  V30 8556 H 815.01 -0.347224 -1.92392 0
M  V30 8557 H 813.714 -0.0515271 -4.10368 0
M  V30 8558 H 813.245 1.58055 -3.60253 0
M  V30 8559 H 815.26 2.71699 -4.15204 0
M  V30 8560 N 814.433 1.57553 0.0384317 0
M  V30 8561 C 815.658 1.93485 0.746872 0
M  V30 8562 C 816.083 0.834069 1.68597 0
M  V30 8563 O 815.441 -0.210902 1.80069 0
M  V30 8564 C 815.489 3.28463 1.4881 0
M  V30 8565 O 814.593 3.20051 2.60079 0
M  V30 8566 H 813.934 0.632675 0.201539 0
M  V30 8567 H 816.464 2.046 -0.00329815 0
M  V30 8568 H 816.474 3.63132 1.86009 0
M  V30 8569 H 815.149 4.08147 0.799297 0
M  V30 8570 H 813.726 2.96998 2.25492 0
M  V30 8571 N 815.911 -0.310526 1.54511 0
M  V30 8572 C 817.327 -0.655637 1.45511 0
M  V30 8573 C 817.527 -1.91114 0.638564 0
M  V30 8574 O 816.583 -2.52098 0.142497 0
M  V30 8575 C 817.896 -0.817501 2.89374 0
M  V30 8576 C 819.444 -0.914003 2.99358 0
M  V30 8577 C 819.919 -1.10794 4.44397 0
M  V30 8578 N 821.41 -1.17437 4.48066 0
M  V30 8579 C 822.145 -1.34255 5.57461 0
M  V30 8580 N 821.641 -1.48032 6.768 0
M  V30 8581 N 823.434 -1.37067 5.45132 0
M  V30 8582 H 815.585 0.514506 2.06074 0
M  V30 8583 H 817.848 0.168478 0.932909 0
M  V30 8584 H 817.554 0.034003 3.51684 0
M  V30 8585 H 817.428 -1.7094 3.36243 0
M  V30 8586 H 819.815 -1.756 2.37168 0
M  V30 8587 H 819.896 0.00170958 2.558 0
M  V30 8588 H 819.54 -0.270743 5.07178 0
M  V30 8589 H 819.47 -2.03773 4.85576 0
M  V30 8590 H 821.961 -1.08181 3.62084 0
M  V30 8591 H 822.274 -1.60593 7.5593 0
M  V30 8592 H 820.619 -1.45105 6.79683 0
M  V30 8593 H 823.81 -1.25909 4.50849 0
M  V30 8594 H 823.983 -1.49831 6.3044 0
M  V30 8595 N 817.389 -1.46805 -0.573248 0
M  V30 8596 C 818.321 -1.54127 -1.6964 0
M  V30 8597 C 819.334 -0.428778 -1.57052 0
M  V30 8598 O 820.523 -0.697612 -1.64303 0
M  V30 8599 C 817.623 -1.41438 -3.07975 0
M  V30 8600 C 816.796 -2.66974 -3.46474 0
M  V30 8601 C 815.855 -2.48349 -4.63906 0
M  V30 8602 O 814.881 -3.22109 -4.69292 0
M  V30 8603 N 816.083 -1.55129 -5.59388 0
M  V30 8604 H 818.848 -2.50971 -1.6381 0
M  V30 8605 H 816.409 -1.42981 -0.759479 0
M  V30 8606 H 818.401 -1.26737 -3.84343 0
M  V30 8607 H 816.971 -0.527388 -3.08119 0
M  V30 8608 H 816.191 -2.9655 -2.59715 0
M  V30 8609 H 817.479 -3.50347 -3.68964 0
M  V30 8610 H 816.877 -0.94324 -5.57781 0
M  V30 8611 H 815.434 -1.46387 -6.35149 0
M  V30 8612 N 818.867 0.818669 -1.34668 0
M  V30 8613 C 819.797 1.94468 -1.29245 0
M  V30 8614 C 820.778 1.69257 -0.169101 0
M  V30 8615 O 821.963 1.90794 -0.362143 0
M  V30 8616 C 819.093 3.31001 -1.05145 0
M  V30 8617 C 818.047 3.70663 -2.13992 0
M  V30 8618 C 817.373 5.05226 -1.75074 0
M  V30 8619 C 818.673 3.82312 -3.55858 0
M  V30 8620 H 820.367 1.99263 -2.2346 0
M  V30 8621 H 817.913 0.957304 -1.07572 0
M  V30 8622 H 819.866 4.09364 -0.999949 0
M  V30 8623 H 818.59 3.26517 -0.0737312 0
M  V30 8624 H 817.249 2.94578 -2.18219 0
M  V30 8625 H 816.897 4.97233 -0.759518 0
M  V30 8626 H 816.597 5.32734 -2.47928 0
M  V30 8627 H 818.121 5.86042 -1.71427 0
M  V30 8628 H 819.535 4.50935 -3.5402 0
M  V30 8629 H 817.932 4.21278 -4.2737 0
M  V30 8630 H 819.002 2.84193 -3.9289 0
M  V30 8631 N 820.346 1.18468 1.03938 0
M  V30 8632 C 821.623 0.890435 1.74157 0
M  V30 8633 C 822.003 -0.606409 2.02203 0
M  V30 8634 O 821.351 -1.5615 1.66822 0
M  V30 8635 C 821.561 1.73906 3.02585 0
M  V30 8636 C 822.909 1.96686 3.76297 0
M  V30 8637 O 823.933 1.70969 3.12487 0
M  V30 8638 O 822.792 2.39986 4.90988 0
M  V30 8639 H 819.886 0.330889 0.757919 0
M  V30 8640 H 822.432 1.29228 1.09992 0
M  V30 8641 H 821.204 2.75369 2.78006 0
M  V30 8642 H 820.827 1.33581 3.74489 0
M  V30 8643 N 821.824 -1.22873 0.986916 0
M  V30 8644 C 822.734 -2.28277 0.540978 0
M  V30 8645 C 823.75 -1.69164 -0.407363 0
M  V30 8646 O 824.926 -1.99504 -0.275674 0
M  V30 8647 C 821.991 -3.46404 -0.143181 0
M  V30 8648 C 821.052 -4.20854 0.847375 0
M  V30 8649 C 820.285 -5.33341 0.19577 0
M  V30 8650 O 820.508 -5.61356 -1.0117 0
M  V30 8651 O 819.442 -5.95169 0.897623 0
M  V30 8652 H 823.268 -2.68578 1.41773 0
M  V30 8653 H 820.853 -1.28927 0.754867 0
M  V30 8654 H 822.735 -4.18096 -0.526676 0
M  V30 8655 H 821.41 -3.08041 -0.994593 0
M  V30 8656 H 820.317 -3.51459 1.28169 0
M  V30 8657 H 821.65 -4.63082 1.6678 0
M  V30 8658 N 823.302 -0.75937 -1.38099 0
M  V30 8659 C 824.232 -0.151077 -2.33011 0
M  V30 8660 C 825.213 0.697099 -1.5516 0
M  V30 8661 O 826.398 0.637101 -1.83452 0
M  V30 8662 C 823.528 0.738423 -3.39359 0
M  V30 8663 C 822.482 -0.0074741 -4.27999 0
M  V30 8664 C 821.808 1.00066 -5.25253 0
M  V30 8665 C 823.108 -1.17926 -5.08813 0
M  V30 8666 H 824.802 -0.943933 -2.84131 0
M  V30 8667 H 822.348 -0.455362 -1.36611 0
M  V30 8668 H 824.301 1.17369 -4.04725 0
M  V30 8669 H 823.025 1.56366 -2.86735 0
M  V30 8670 H 821.684 -0.423379 -3.64147 0
M  V30 8671 H 821.332 1.82012 -4.68914 0
M  V30 8672 H 821.032 0.506199 -5.85416 0
M  V30 8673 H 822.556 1.43512 -5.93495 0
M  V30 8674 H 823.97 -0.821262 -5.67387 0
M  V30 8675 H 822.367 -1.60497 -5.78239 0
M  V30 8676 H 823.437 -1.98938 -4.42212 0
M  V30 8677 N 824.78 1.49157 -0.508906 0
M  V30 8678 C 826.029 2.0167 0.0346854 0
M  V30 8679 C 826.342 1.39302 1.37311 0
M  V30 8680 O 827.548 1.83189 2.00385 0
M  V30 8681 C 826.004 3.59725 0.112261 0
M  V30 8682 C 825.612 4.31069 -1.21999 0
M  V30 8683 C 827.356 4.20155 0.605798 0
M  V30 8684 C 825.263 5.81001 -1.10415 0
M  V30 8685 H 824.193 0.753814 0.0167355 0
M  V30 8686 H 826.844 1.7162 -0.649518 0
M  V30 8687 H 825.226 3.86525 0.861087 0
M  V30 8688 H 826.4 4.15962 -1.98273 0
M  V30 8689 H 824.715 3.82418 -1.64759 0
M  V30 8690 H 827.312 5.29964 0.710102 0
M  V30 8691 H 827.655 3.84051 1.60656 0
M  V30 8692 H 828.188 3.97705 -0.0867239 0
M  V30 8693 H 824.927 6.21643 -2.07941 0
M  V30 8694 H 824.447 5.9858 -0.382428 0
M  V30 8695 H 826.126 6.42207 -0.786116 0
M  V30 8696 N 826.258 0.243083 1.55714 0
M  V30 8697 C 827.486 -0.386971 2.03249 0
M  V30 8698 C 827.901 -1.51812 1.12243 0
M  V30 8699 O 827.258 -1.81992 0.136119 0
M  V30 8700 C 827.309 -0.898361 3.5016 0
M  V30 8701 O 827.03 0.187708 4.37698 0
M  V30 8702 C 828.531 -1.59949 4.13438 0
M  V30 8703 H 825.751 -0.0923981 0.664608 0
M  V30 8704 H 828.295 0.365832 2.01201 0
M  V30 8705 H 826.45 -1.60136 3.52754 0
M  V30 8706 H 826.864 -0.200001 5.24119 0
M  V30 8707 H 828.338 -1.90907 5.17937 0
M  V30 8708 H 828.815 -2.52014 3.59702 0
M  V30 8709 H 829.421 -0.941163 4.14756 0
M  V30 8710 N 827.736 -1.57571 -0.0300757 0
M  V30 8711 C 828.666 -2.0953 -1.03051 0
M  V30 8712 C 829.647 -0.99761 -1.37774 0
M  V30 8713 O 830.832 -1.27279 -1.46676 0
M  V30 8714 C 827.962 -2.57385 -2.33174 0
M  V30 8715 C 826.916 -3.71409 -2.12696 0
M  V30 8716 C 826.242 -4.05467 -3.4857 0
M  V30 8717 C 827.542 -4.99877 -1.51396 0
M  V30 8718 H 829.236 -2.93367 -0.597999 0
M  V30 8719 H 826.782 -1.41127 -0.286203 0
M  V30 8720 H 828.735 -2.92355 -3.03491 0
M  V30 8721 H 827.459 -1.70629 -2.78484 0
M  V30 8722 H 826.118 -3.36786 -1.44813 0
M  V30 8723 H 825.766 -3.15779 -3.91526 0
M  V30 8724 H 825.466 -4.82269 -3.35694 0
M  V30 8725 H 826.99 -4.4297 -4.2025 0
M  V30 8726 H 828.404 -5.3281 -2.11629 0
M  V30 8727 H 826.801 -5.81283 -1.49098 0
M  V30 8728 H 827.871 -4.82522 -0.479676 0
M  V30 8729 N 829.214 0.302327 -1.54673 0
M  V30 8730 C 830.177 1.35592 -1.8479 0
M  V30 8731 C 831.177 1.43743 -0.72073 0
M  V30 8732 O 832.367 1.43402 -0.989017 0
M  V30 8733 C 829.499 2.74091 -2.02699 0
M  V30 8734 H 830.692 1.10132 -2.78946 0
M  V30 8735 H 828.245 0.538926 -1.46715 0
M  V30 8736 H 828.98 3.04775 -1.10826 0
M  V30 8737 H 828.765 2.69565 -2.8474 0
M  V30 8738 H 830.255 3.50272 -2.27374 0
M  V30 8739 N 830.692 1.47107 0.565454 0
M  V30 8740 C 831.624 1.55024 1.6882 0
M  V30 8741 C 832.637 0.4371 1.56822 0
M  V30 8742 O 833.826 0.706315 1.63931 0
M  V30 8743 C 830.926 1.43069 3.0722 0
M  V30 8744 C 830.099 2.68807 3.45053 0
M  V30 8745 C 829.158 2.50806 4.62583 0
M  V30 8746 O 828.184 3.24593 4.67577 0
M  V30 8747 N 829.386 1.58093 5.58558 0
M  V30 8748 H 832.151 2.51836 1.62477 0
M  V30 8749 H 829.712 1.43382 0.751885 0
M  V30 8750 H 831.704 1.28773 3.83666 0
M  V30 8751 H 830.274 0.543721 3.07835 0
M  V30 8752 H 829.494 2.97923 2.58138 0
M  V30 8753 H 830.782 3.52298 3.67101 0
M  V30 8754 H 830.18 0.972807 5.57273 0
M  V30 8755 H 828.737 1.49753 6.34364 0
M  V30 8756 N 832.17 -0.811516 1.35101 0
M  V30 8757 C 833.418 -1.56525 1.27845 0
M  V30 8758 C 833.739 -1.94435 -0.14829 0
M  V30 8759 O 833.009 -1.63203 -1.08359 0
M  V30 8760 H 831.589 -0.580433 0.47022 0
M  V30 8761 H 834.251 -0.968277 1.69146 0
M  V30 8762 H 833.347 -2.48291 1.89097 0
M  V30 8763 N 833.648 -1.19017 -1.03309 0
M  V30 8764 C 834.925 -0.899659 -1.73682 0
M  V30 8765 C 835.305 0.595677 -2.02521 0
M  V30 8766 O 834.653 1.55263 -1.67648 0
M  V30 8767 C 834.863 -1.75508 -3.01659 0
M  V30 8768 C 836.211 -1.98679 -3.75249 0
M  V30 8769 O 837.235 -1.72624 -3.11576 0
M  V30 8770 O 836.094 -2.42587 -4.89708 0
M  V30 8771 H 833.188 -0.334903 -0.756154 0
M  V30 8772 H 835.734 -1.29809 -1.09305 0
M  V30 8773 H 834.506 -2.7684 -2.76542 0
M  V30 8774 H 834.129 -1.35565 -3.73775 0
M  V30 8775 N 835.127 1.22348 -0.993418 0
M  V30 8776 C 836.074 2.24294 -0.544118 0
M  V30 8777 C 837.044 1.60602 0.42381 0
M  V30 8778 O 838.229 1.87952 0.328453 0
M  V30 8779 C 835.369 3.44837 0.134578 0
M  V30 8780 C 834.482 4.23043 -0.875151 0
M  V30 8781 C 833.617 5.30928 -0.169919 0
M  V30 8782 C 832.656 6.00853 -1.16798 0
M  V30 8783 N 831.793 7.00381 -0.491021 0
M  V30 8784 H 836.633 2.6209 -1.4182 0
M  V30 8785 H 834.17 1.2881 -0.710384 0
M  V30 8786 H 836.128 4.13625 0.544998 0
M  V30 8787 H 834.758 3.07804 0.972446 0
M  V30 8788 H 833.81 3.53546 -1.40389 0
M  V30 8789 H 835.122 4.71237 -1.63516 0
M  V30 8790 H 834.276 6.05972 0.297205 0
M  V30 8791 H 833.015 4.8371 0.622586 0
M  V30 8792 H 832.02 5.24591 -1.64573 0
M  V30 8793 H 833.245 6.50159 -1.96137 0
M  V30 8794 H 831.191 6.55393 0.282037 0
M  V30 8795 H 831.108 7.46584 -1.18947 0
M  V30 8796 H 832.376 7.79486 -0.0467169 0
M  V30 8797 N 836.605 0.766683 1.37694 0
M  V30 8798 C 837.568 0.155849 2.2867 0
M  V30 8799 C 838.568 -0.633509 1.47795 0
M  V30 8800 O 839.758 -0.457844 1.68076 0
M  V30 8801 C 836.89 -0.786965 3.31692 0
M  V30 8802 H 838.083 0.957748 2.84196 0
M  V30 8803 H 835.636 0.534554 1.46875 0
M  V30 8804 H 836.371 -1.61406 2.8128 0
M  V30 8805 H 836.156 -0.223182 3.91464 0
M  V30 8806 H 837.646 -1.20994 3.99688 0
M  V30 8807 N 838.083 -1.48885 0.516809 0
M  V30 8808 C 839.308 -2.0739 -0.0205201 0
M  V30 8809 C 839.733 -1.37259 -1.28614 0
M  V30 8810 O 839.091 -0.434304 -1.76021 0
M  V30 8811 C 839.139 -3.59793 -0.24104 0
M  V30 8812 O 838.243 -3.90957 -1.31251 0
M  V30 8813 H 837.584 -0.663167 0.0332564 0
M  V30 8814 H 840.114 -1.91477 0.720956 0
M  V30 8815 H 840.124 -4.0531 -0.467737 0
M  V30 8816 H 838.799 -4.10244 0.68356 0
M  V30 8817 H 837.376 -3.57234 -1.06951 0
M  V30 8818 N 839.561 -0.251338 -1.55583 0
M  V30 8819 C 840.491 0.640437 -2.24545 0
M  V30 8820 C 841.472 1.17781 -1.22726 0
M  V30 8821 O 842.657 1.21633 -1.5139 0
M  V30 8822 C 839.787 1.8355 -2.94834 0
M  V30 8823 C 838.741 1.4307 -4.03379 0
M  V30 8824 C 838.067 2.70695 -4.61116 0
M  V30 8825 C 839.367 0.59848 -5.1886 0
M  V30 8826 H 841.061 0.0653772 -2.99329 0
M  V30 8827 H 838.607 0.0300042 -1.43969 0
M  V30 8828 H 840.56 2.46505 -3.4178 0
M  V30 8829 H 839.284 2.43601 -2.17546 0
M  V30 8830 H 837.943 0.824474 -3.57209 0
M  V30 8831 H 837.591 3.28954 -3.80524 0
M  V30 8832 H 837.291 2.44332 -5.34393 0
M  V30 8833 H 838.815 3.34541 -5.10798 0
M  V30 8834 H 840.229 1.13244 -5.62004 0
M  V30 8835 H 838.626 0.430728 -5.98552 0
M  V30 8836 H 839.696 -0.38829 -4.83343 0
M  V30 8837 N 841.039 1.57585 0.0217189 0
M  V30 8838 C 842.316 1.80779 0.74687 0
M  V30 8839 C 842.696 0.851163 1.9318 0
M  V30 8840 O 842.044 -0.105039 2.28258 0
M  V30 8841 C 842.254 3.28696 1.17302 0
M  V30 8842 C 843.602 3.93871 1.58589 0
M  V30 8843 O 844.626 3.3289 1.2674 0
M  V30 8844 O 843.485 5.01254 2.1773 0
M  V30 8845 H 840.579 0.743666 0.361786 0
M  V30 8846 H 843.125 1.697 -0.00206785 0
M  V30 8847 H 841.897 3.89927 0.327453 0
M  V30 8848 H 841.52 3.44692 1.98174 0
M  V30 8849 N 842.517 -0.29412 1.54831 0
M  V30 8850 C 843.45 -1.38779 1.81151 0
M  V30 8851 C 844.428 -1.48464 0.663124 0
M  V30 8852 O 845.612 -1.65418 0.903835 0
M  V30 8853 C 842.739 -2.76627 1.95436 0
M  V30 8854 C 841.785 -2.84333 3.17895 0
M  V30 8855 S 842.618 -2.45726 4.75793 0
M  V30 8856 C 843.774 -3.85589 4.93023 0
M  V30 8857 H 844.007 -1.16246 2.73631 0
M  V30 8858 H 841.54 -0.492611 1.46331 0
M  V30 8859 H 843.498 -3.56021 2.04351 0
M  V30 8860 H 842.159 -2.96425 1.03881 0
M  V30 8861 H 841.352 -3.85457 3.24713 0
M  V30 8862 H 840.954 -2.1294 3.07461 0
M  V30 8863 H 843.246 -4.80656 4.77468 0
M  V30 8864 H 844.189 -3.83737 5.95107 0
M  V30 8865 H 844.597 -3.75911 4.21131 0
M  V30 8866 N 843.995 -1.47404 -0.557645 0
M  V30 8867 C 845.244 -1.53268 -1.31118 0
M  V30 8868 C 845.557 -0.199414 -1.94581 0
M  V30 8869 O 846.763 -0.136039 -2.71159 0
M  V30 8870 C 845.219 -2.70178 -2.37764 0
M  V30 8871 C 844.827 -4.10032 -1.80493 0
M  V30 8872 C 846.571 -2.85334 -3.14301 0
M  V30 8873 C 844.478 -5.18244 -2.84916 0
M  V30 8874 H 843.408 -0.570491 -0.493007 0
M  V30 8875 H 846.059 -1.73678 -0.592308 0
M  V30 8876 H 844.441 -2.43147 -3.12563 0
M  V30 8877 H 845.615 -4.46964 -1.12069 0
M  V30 8878 H 843.93 -3.99759 -1.16542 0
M  V30 8879 H 846.527 -3.63347 -3.92279 0
M  V30 8880 H 846.87 -1.93761 -3.68459 0
M  V30 8881 H 847.403 -3.12133 -2.46613 0
M  V30 8882 H 844.142 -6.11691 -2.35614 0
M  V30 8883 H 843.662 -4.85829 -3.51753 0
M  V30 8884 H 845.341 -5.45174 -3.48417 0
M  V30 8885 N 845.473 0.80434 -1.35529 0
M  V30 8886 C 846.719 1.56385 -1.29118 0
M  V30 8887 C 847.052 1.9374 0.133536 0
M  V30 8888 O 846.327 1.6153 1.08344 0
M  V30 8889 C 846.61 2.85097 -2.19981 0
M  V30 8890 C 846.463 2.54204 -3.7108 0
M  V30 8891 C 847.782 3.86817 -2.09907 0
M  V30 8892 H 844.901 0.567382 -0.470368 0
M  V30 8893 H 847.543 0.925235 -1.6595 0
M  V30 8894 H 845.693 3.39594 -1.88701 0
M  V30 8895 H 847.365 2.05872 -4.12813 0
M  V30 8896 H 845.608 1.87364 -3.91251 0
M  V30 8897 H 846.279 3.46068 -4.30048 0
M  V30 8898 H 848.755 3.41725 -2.37409 0
M  V30 8899 H 847.631 4.7465 -2.75678 0
M  V30 8900 H 847.892 4.28663 -1.08171 0
M  V30 8901 N 846.951 1.19563 1.02676 0
M  V30 8902 C 847.914 0.937182 2.09164 0
M  V30 8903 C 848.914 -0.0831927 1.60585 0
M  V30 8904 O 850.104 0.15178 1.73538 0
M  V30 8905 C 847.236 0.408912 3.38439 0
M  V30 8906 H 848.429 1.88164 2.33526 0
M  V30 8907 H 845.982 1.00959 1.19319 0
M  V30 8908 H 846.717 -0.541497 3.19747 0
M  V30 8909 H 846.502 1.14464 3.7502 0
M  V30 8910 H 847.992 0.247242 4.16867 0
M  V30 8911 N 848.429 -1.21819 0.999893 0
M  V30 8912 C 849.361 -2.23356 0.514256 0
M  V30 8913 C 850.374 -1.5795 -0.394413 0
M  V30 8914 O 851.563 -1.77427 -0.195428 0
M  V30 8915 C 848.663 -3.37797 -0.273207 0
M  V30 8916 C 847.836 -4.32791 0.633293 0
M  V30 8917 C 846.895 -5.26098 -0.103673 0
M  V30 8918 O 845.921 -5.66881 0.513269 0
M  V30 8919 N 847.123 -5.63764 -1.38383 0
M  V30 8920 H 849.888 -2.65653 1.3874 0
M  V30 8921 H 847.449 -1.3619 0.875431 0
M  V30 8922 H 849.441 -3.97209 -0.775053 0
M  V30 8923 H 848.011 -2.94527 -1.0475 0
M  V30 8924 H 847.231 -3.71595 1.31571 0
M  V30 8925 H 848.519 -4.93196 1.25039 0
M  V30 8926 H 847.917 -5.32614 -1.90627 0
M  V30 8927 H 846.474 -6.25562 -1.83073 0
M  V30 8928 N 849.908 -0.773975 -1.37286 0
M  V30 8929 C 850.838 -0.175782 -2.32837 0
M  V30 8930 C 851.819 0.680603 -1.5589 0
M  V30 8931 O 853.004 0.617607 -1.84117 0
M  V30 8932 C 850.134 0.702388 -3.40123 0
M  V30 8933 C 849.088 -0.0528687 -4.27967 0
M  V30 8934 C 848.414 0.944891 -5.26285 0
M  V30 8935 C 849.714 -1.23316 -5.07534 0
M  V30 8936 H 851.408 -0.974016 -2.83114 0
M  V30 8937 H 848.954 -0.469826 -1.3612 0
M  V30 8938 H 850.907 1.13069 -4.05947 0
M  V30 8939 H 849.631 1.53316 -2.88378 0
M  V30 8940 H 848.29 -0.461978 -3.63678 0
M  V30 8941 H 847.938 1.77028 -4.70819 0
M  V30 8942 H 847.638 0.444079 -5.8592 0
M  V30 8943 H 849.162 1.37209 -5.94984 0
M  V30 8944 H 850.576 -0.881395 -5.66484 0
M  V30 8945 H 848.973 -1.66621 -5.76504 0
M  V30 8946 H 850.043 -2.03617 -4.40077 0
M  V30 8947 N 851.386 1.48609 -0.524698 0
M  V30 8948 C 852.334 2.31205 0.254398 0
M  V30 8949 C 853.328 1.40894 0.940491 0
M  V30 8950 O 854.534 1.57827 0.865478 0
M  V30 8951 H 850.909 0.745199 0.100907 0
M  V30 8952 H 852.88 2.94804 -0.461876 0
M  V30 8953 C 851.629 3.2282 1.2916 0
M  V30 8954 H 850.952 3.92255 0.773074 0
M  V30 8955 H 852.392 3.83508 1.80825 0
M  V30 8956 C 850.851 2.4406 2.32242 0
M  V30 8957 O 851.381 2.16163 3.3858 0
M  V30 8958 N 849.587 2.05651 2.05319 0
M  V30 8959 H 849.134 2.28539 1.18861 0
M  V30 8960 H 849.092 1.53265 2.74513 0
M  V30 8961 N 852.864 0.259585 1.55447 0
M  V30 8962 C 853.774 -0.645026 2.25558 0
M  V30 8963 C 854.79 -1.18291 1.27606 0
M  V30 8964 O 855.966 -1.21649 1.6051 0
M  V30 8965 C 853.031 -1.81964 2.9511 0
M  V30 8966 C 852.092 -1.31997 4.08504 0
M  V30 8967 C 851.325 -2.43861 4.74729 0
M  V30 8968 O 851.548 -3.62876 4.40088 0
M  V30 8969 O 850.482 -2.12898 5.6299 0
M  V30 8970 H 854.308 -0.0775399 3.03601 0
M  V30 8971 H 851.893 0.0275859 1.49375 0
M  V30 8972 H 853.775 -2.50485 3.38873 0
M  V30 8973 H 852.45 -2.37451 2.19997 0
M  V30 8974 H 851.357 -0.601676 3.6923 0
M  V30 8975 H 852.69 -0.811045 4.85472 0
M  V30 8976 N 854.342 -1.57594 -0.0133615 0
M  V30 8977 C 855.619 -1.81173 -0.737273 0
M  V30 8978 C 855.999 -0.861395 -1.92726 0
M  V30 8979 O 855.347 0.0929324 -2.28311 0
M  V30 8980 C 855.557 -3.29314 -1.15557 0
M  V30 8981 C 856.905 -3.94707 -1.56498 0
M  V30 8982 O 857.929 -3.33557 -1.24973 0
M  V30 8983 O 856.788 -5.02402 -2.15069 0
M  V30 8984 H 853.882 -0.745575 -0.357837 0
M  V30 8985 H 856.428 -1.69696 0.0110674 0
M  V30 8986 H 855.2 -3.90096 -0.30677 0
M  V30 8987 H 854.823 -3.45739 -1.96343 0
M  V30 8988 N 855.82 0.285905 -1.54985 0
M  V30 8989 C 857.048 1.03776 -1.78992 0
M  V30 8990 C 857.463 1.80402 -0.556814 0
M  V30 8991 O 856.82 1.76242 0.473801 0
M  V30 8992 C 856.871 2.0065 -3.00702 0
M  V30 8993 O 856.592 1.27131 -4.19249 0
M  V30 8994 C 858.093 2.87753 -3.37214 0
M  V30 8995 H 855.313 0.307126 -0.596586 0
M  V30 8996 H 857.857 0.3206 -2.01971 0
M  V30 8997 H 856.012 2.67847 -2.79887 0
M  V30 8998 H 856.426 1.92316 -4.8797 0
M  V30 8999 H 857.9 3.51548 -4.2558 0
M  V30 9000 H 858.377 3.56848 -2.56039 0
M  V30 9001 H 858.983 2.26065 -3.60242 0
M  V30 9002 N 857.298 1.47698 0.54982 0
M  V30 9003 C 858.208 1.63386 1.68351 0
M  V30 9004 C 859.224 0.516583 1.66155 0
M  V30 9005 O 860.4 0.785088 1.85468 0
M  V30 9006 C 857.465 1.6513 3.04849 0
M  V30 9007 C 856.526 2.88338 3.18056 0
M  V30 9008 C 855.759 2.8999 4.48042 0
M  V30 9009 O 855.982 2.00633 5.3395 0
M  V30 9010 O 854.916 3.81938 4.65196 0
M  V30 9011 H 858.742 2.59329 1.58057 0
M  V30 9012 H 856.327 1.30869 0.72067 0
M  V30 9013 H 858.209 1.68913 3.86065 0
M  V30 9014 H 856.884 0.723555 3.1551 0
M  V30 9015 H 855.791 2.90097 2.36209 0
M  V30 9016 H 857.124 3.80431 3.12302 0
M  V30 9017 N 858.776 -0.797141 1.35954 0
M  V30 9018 C 859.739 -1.89104 1.29508 0
M  V30 9019 C 860.739 -1.59495 0.204444 0
M  V30 9020 O 861.929 -1.68051 0.458746 0
M  V30 9021 C 859.061 -3.25726 1.00576 0
M  V30 9022 H 860.254 -1.96237 2.26785 0
M  V30 9023 H 857.807 -0.994075 1.20614 0
M  V30 9024 H 858.542 -3.24279 0.0372519 0
M  V30 9025 H 858.327 -3.48604 1.79492 0
M  V30 9026 H 859.817 -4.0578 0.986508 0
M  V30 9027 N 860.254 -1.20106 -1.0204 0
M  V30 9028 C 861.484 -1.0329 -1.78927 0
M  V30 9029 C 861.892 0.421115 -1.84454 0
M  V30 9030 O 861.235 1.30422 -1.29367 0
M  V30 9031 C 861.297 -1.53627 -3.25021 0
M  V30 9032 C 860.961 -3.01869 -3.4311 0
M  V30 9033 C 861.958 -3.9956 -3.32638 0
M  V30 9034 C 859.643 -3.40746 -3.6905 0
M  V30 9035 C 861.637 -5.34119 -3.47844 0
M  V30 9036 C 859.324 -4.75462 -3.839 0
M  V30 9037 C 860.322 -5.71957 -3.73302 0
M  V30 9038 O 860.01 -7.04231 -3.87703 0
M  V30 9039 H 859.742 -0.363962 -0.569656 0
M  V30 9040 H 862.296 -1.59551 -1.29354 0
M  V30 9041 H 860.526 -0.917481 -3.75658 0
M  V30 9042 H 862.215 -1.32889 -3.8353 0
M  V30 9043 H 862.981 -3.70869 -3.12539 0
M  V30 9044 H 858.86 -2.66182 -3.76388 0
M  V30 9045 H 862.404 -6.09421 -3.39488 0
M  V30 9046 H 858.301 -5.03844 -4.03499 0
M  V30 9047 H 859.069 -7.11425 -4.04744 0
M  V30 9048 N 861.732 1.21287 -1.00634 0
M  V30 9049 C 862.642 2.27388 -0.577226 0
M  V30 9050 C 863.658 1.69791 0.380399 0
M  V30 9051 O 864.834 1.99918 0.2439 0
M  V30 9052 C 861.899 3.46588 0.0880532 0
M  V30 9053 C 860.96 4.19453 -0.914222 0
M  V30 9054 C 860.193 5.32962 -0.280596 0
M  V30 9055 O 860.416 5.62895 0.922265 0
M  V30 9056 O 859.35 5.93666 -0.992196 0
M  V30 9057 H 863.176 2.66289 -1.46028 0
M  V30 9058 H 860.761 1.2771 -0.775283 0
M  V30 9059 H 862.643 4.18881 0.460094 0
M  V30 9060 H 861.318 3.09585 0.945461 0
M  V30 9061 H 860.225 3.49376 -1.33744 0
M  V30 9062 H 861.558 4.6037 -1.74126 0
M  V30 9063 N 863.21 0.781244 1.36873 0
M  V30 9064 C 864.435 0.360398 2.04245 0
M  V30 9065 C 864.86 -1.01242 1.58529 0
M  V30 9066 O 864.218 -1.65063 0.749936 0
M  V30 9067 C 864.266 0.42329 3.58107 0
M  V30 9068 O 863.37 -0.572796 4.08403 0
M  V30 9069 H 862.711 0.154386 0.645803 0
M  V30 9070 H 865.241 1.06008 1.74996 0
M  V30 9071 H 865.251 0.283967 4.07011 0
M  V30 9072 H 863.926 1.42477 3.90734 0
M  V30 9073 H 862.503 -0.395809 3.70793 0
M  V30 9074 N 864.689 -1.48329 0.532571 0
M  V30 9075 C 865.652 -2.2816 -0.218069 0
M  V30 9076 C 866.652 -1.35526 -0.865409 0
M  V30 9077 O 867.842 -1.58394 -0.725061 0
M  V30 9078 C 864.974 -3.1448 -1.31586 0
M  V30 9079 H 866.167 -2.95987 0.482865 0
M  V30 9080 H 863.72 -1.53612 0.288603 0
M  V30 9081 H 864.455 -2.5129 -2.04997 0
M  V30 9082 H 864.24 -3.82625 -0.856779 0
M  V30 9083 H 865.73 -3.74693 -1.84377 0
M  V30 9084 N 866.167 -0.267825 -1.55308 0
M  V30 9085 C 867.114 0.6228 -2.22238 0
M  V30 9086 C 868.084 1.15536 -1.19334 0
M  V30 9087 O 869.269 1.206 -1.47852 0
M  V30 9088 C 866.409 1.80447 -2.94164 0
M  V30 9089 C 865.522 1.30646 -4.11771 0
M  V30 9090 C 864.657 2.44935 -4.7136 0
M  V30 9091 C 863.696 1.92099 -5.81175 0
M  V30 9092 N 862.833 2.99834 -6.34857 0
M  V30 9093 H 867.673 0.0453874 -2.97965 0
M  V30 9094 H 865.21 0.0106371 -1.47096 0
M  V30 9095 H 867.168 2.49896 -3.34078 0
M  V30 9096 H 865.798 2.35403 -2.20874 0
M  V30 9097 H 864.85 0.505314 -3.77029 0
M  V30 9098 H 866.162 0.879409 -4.90987 0
M  V30 9099 H 865.316 3.2239 -5.13955 0
M  V30 9100 H 864.055 2.90951 -3.91406 0
M  V30 9101 H 863.06 1.13122 -5.38037 0
M  V30 9102 H 864.285 1.47027 -6.62993 0
M  V30 9103 H 862.231 3.45246 -5.578 0
M  V30 9104 H 862.148 2.61524 -7.09324 0
M  V30 9105 H 863.416 3.77286 -6.82111 0
M  V30 9106 N 867.645 1.57599 0.00500368 0
M  V30 9107 C 868.555 2.11532 1.01446 0
M  V30 9108 C 869.571 1.05941 1.3803 0
M  V30 9109 O 870.747 1.37815 1.46864 0
M  V30 9110 C 867.812 2.60382 2.28915 0
M  V30 9111 C 866.873 3.80554 1.98689 0
M  V30 9112 C 866.106 4.27064 3.20081 0
M  V30 9113 O 866.329 3.72939 4.31593 0
M  V30 9114 O 865.263 5.1927 3.04371 0
M  V30 9115 H 869.089 2.97993 0.586011 0
M  V30 9116 H 866.674 1.47718 0.223519 0
M  V30 9117 H 868.556 2.92024 3.03809 0
M  V30 9118 H 867.231 1.77022 2.71007 0
M  V30 9119 H 866.138 3.53893 1.21286 0
M  V30 9120 H 867.471 4.64972 1.61437 0
M  V30 9121 N 869.123 -0.277682 1.55134 0
M  V30 9122 C 870.372 -1.00766 1.74726 0
M  V30 9123 C 870.685 -1.87617 0.553092 0
M  V30 9124 O 871.891 -2.64058 0.631318 0
M  V30 9125 C 870.347 -1.84147 3.09221 0
M  V30 9126 C 869.955 -1.02186 4.3619 0
M  V30 9127 C 871.699 -2.56604 3.38164 0
M  V30 9128 C 869.606 -1.84978 5.61727 0
M  V30 9129 H 868.536 -0.379948 0.651273 0
M  V30 9130 H 871.187 -0.263543 1.81598 0
M  V30 9131 H 869.569 -2.62637 2.96375 0
M  V30 9132 H 870.743 -0.281459 4.5994 0
M  V30 9133 H 869.058 -0.412054 4.14356 0
M  V30 9134 H 871.655 -3.18942 4.29162 0
M  V30 9135 H 871.998 -3.26647 2.58085 0
M  V30 9136 H 872.531 -1.85147 3.52087 0
M  V30 9137 H 869.27 -1.19365 6.4454 0
M  V30 9138 H 868.79 -2.56628 5.42128 0
M  V30 9139 H 870.469 -2.42458 5.99853 0
M  V30 9140 N 870.601 -1.47988 -0.541979 0
M  V30 9141 C 871.564 -1.61148 -1.62984 0
M  V30 9142 C 872.564 -0.48553 -1.53295 0
M  V30 9143 O 873.754 -0.751012 -1.5718 0
M  V30 9144 C 870.886 -1.57038 -3.02576 0
M  V30 9145 H 872.079 -2.58138 -1.52659 0
M  V30 9146 H 869.632 -1.36405 -0.763106 0
M  V30 9147 H 870.367 -0.614807 -3.18419 0
M  V30 9148 H 870.152 -2.38769 -3.11018 0
M  V30 9149 H 871.642 -1.69416 -3.81691 0
M  V30 9150 N 872.079 0.78992 -1.36375 0
M  V30 9151 C 873.011 1.91113 -1.26524 0
M  V30 9152 C 874.024 1.61747 -0.184851 0
M  V30 9153 O 875.213 1.73004 -0.439524 0
M  V30 9154 C 872.313 3.25908 -0.92937 0
M  V30 9155 C 871.486 3.83057 -2.11154 0
M  V30 9156 C 870.545 4.96289 -1.74881 0
M  V30 9157 O 869.571 5.12834 -2.46962 0
M  V30 9158 N 870.773 5.76478 -0.682193 0
M  V30 9159 H 873.538 2.00085 -2.23128 0
M  V30 9160 H 871.099 0.968165 -1.29762 0
M  V30 9161 H 873.091 3.99151 -0.667884 0
M  V30 9162 H 871.661 3.12556 -0.0524843 0
M  V30 9163 H 870.881 3.01808 -2.53586 0
M  V30 9164 H 872.169 4.1797 -2.90135 0
M  V30 9165 H 871.567 5.65638 -0.0836661 0
M  V30 9166 H 870.124 6.50026 -0.480529 0
M  V30 9167 N 873.557 1.20646 1.01402 0
M  V30 9168 C 874.505 0.954493 2.12114 0
M  V30 9169 C 875.499 -0.0950737 1.69133 0
M  V30 9170 O 876.705 0.0555153 1.79914 0
M  V30 9171 H 873.08 0.29135 0.693267 0
M  V30 9172 H 875.051 1.89447 2.30548 0
M  V30 9173 C 873.8 0.525944 3.43699 0
M  V30 9174 H 873.123 1.32516 3.772 0
M  V30 9175 H 874.563 0.388883 4.22213 0
M  V30 9176 C 873.022 -0.761997 3.28169 0
M  V30 9177 O 873.552 -1.81979 3.58115 0
M  V30 9178 N 871.758 -0.725017 2.8141 0
M  V30 9179 H 871.305 0.13607 2.5724 0
M  V30 9180 H 871.263 -1.5871 2.71401 0
M  V30 9181 N 875.035 -1.20752 1.01276 0
M  V30 9182 C 875.982 -2.234 0.579732 0
M  V30 9183 C 876.952 -1.61256 -0.398206 0
M  V30 9184 O 878.137 -1.8845 -0.29851 0
M  V30 9185 C 875.277 -3.45008 -0.0797006 0
M  V30 9186 C 874.39 -4.21597 0.942343 0
M  V30 9187 C 873.525 -5.30591 0.254364 0
M  V30 9188 C 872.564 -5.98919 1.26343 0
M  V30 9189 N 871.701 -6.99511 0.602384 0
M  V30 9190 H 876.541 -2.59801 1.45971 0
M  V30 9191 H 874.078 -1.27663 0.730787 0
M  V30 9192 H 876.036 -4.1444 -0.479125 0
M  V30 9193 H 874.666 -3.09312 -0.923354 0
M  V30 9194 H 873.718 -3.51268 1.45996 0
M  V30 9195 H 875.03 -4.68576 1.70992 0
M  V30 9196 H 874.184 -6.06368 -0.200763 0
M  V30 9197 H 872.923 -4.84639 -0.545553 0
M  V30 9198 H 871.928 -5.21906 1.72898 0
M  V30 9199 H 873.153 -6.46957 2.06456 0
M  V30 9200 H 871.099 -6.55759 -0.177734 0
M  V30 9201 H 871.016 -7.44597 1.30809 0
M  V30 9202 H 872.284 -7.79313 0.17072 0
M  V30 9203 N 876.513 -0.788492 -1.36457 0
M  V30 9204 C 877.443 -0.200468 -2.32638 0
M  V30 9205 C 878.424 0.664031 -1.56603 0
M  V30 9206 O 879.609 0.598045 -1.84762 0
M  V30 9207 C 876.739 0.666274 -3.40849 0
M  V30 9208 C 875.693 -0.0982574 -4.27887 0
M  V30 9209 C 875.019 0.889018 -5.27258 0
M  V30 9210 C 876.319 -1.28692 -5.06197 0
M  V30 9211 H 878.013 -1.00399 -2.82065 0
M  V30 9212 H 875.559 -0.484237 -1.35614 0
M  V30 9213 H 877.512 1.08757 -4.07124 0
M  V30 9214 H 876.236 1.50249 -2.89987 0
M  V30 9215 H 874.895 -0.500525 -3.63167 0
M  V30 9216 H 874.543 1.72024 -4.7267 0
M  V30 9217 H 874.243 0.381909 -5.86358 0
M  V30 9218 H 875.767 1.30891 -5.96406 0
M  V30 9219 H 877.181 -0.941429 -5.65517 0
M  V30 9220 H 875.578 -1.72726 -5.74705 0
M  V30 9221 H 876.648 -2.08273 -4.37893 0
M  V30 9222 N 877.991 1.48044 -0.54043 0
M  V30 9223 C 878.939 2.31461 0.229862 0
M  V30 9224 C 879.933 1.41884 0.925495 0
M  V30 9225 O 881.139 1.58736 0.848689 0
M  V30 9226 H 877.514 0.746227 0.0929975 0
M  V30 9227 H 879.485 2.94297 -0.493118 0
M  V30 9228 C 878.234 3.24172 1.25729 0
M  V30 9229 H 877.557 3.93052 0.731426 0
M  V30 9230 H 878.997 3.85404 1.76747 0
M  V30 9231 C 877.456 2.4651 2.2964 0
M  V30 9232 O 877.986 2.19742 3.36268 0
M  V30 9233 N 876.192 2.07817 2.03127 0
M  V30 9234 H 875.739 2.29786 1.1643 0
M  V30 9235 H 875.697 1.56168 2.72872 0
M  V30 9236 N 879.47 0.276058 1.55163 0
M  V30 9237 C 880.698 -0.343772 2.04024 0
M  V30 9238 C 881.113 -1.49397 1.15438 0
M  V30 9239 O 880.47 -1.81662 0.174692 0
M  V30 9240 C 880.521 -0.823885 3.51986 0
M  V30 9241 O 880.242 0.280507 4.37201 0
M  V30 9242 C 881.743 -1.51143 4.16738 0
M  V30 9243 H 878.963 -0.07828 0.666418 0
M  V30 9244 H 881.507 0.408427 2.0038 0
M  V30 9245 H 879.662 -1.52617 3.56071 0
M  V30 9246 H 880.076 -0.0887831 5.24425 0
M  V30 9247 H 881.55 -1.79878 5.2187 0
M  V30 9248 H 882.027 -2.44327 3.64967 0
M  V30 9249 H 882.633 -0.852975 4.16659 0
M  V30 9250 N 880.948 -1.576 0.00335426 0
M  V30 9251 C 881.911 -2.07576 -0.971838 0
M  V30 9252 C 882.911 -0.985796 -1.27038 0
M  V30 9253 O 884.101 -1.24833 -1.21501 0
M  V30 9254 C 881.233 -2.52003 -2.29581 0
M  V30 9255 H 882.426 -2.95008 -0.539481 0
M  V30 9256 H 879.979 -1.54381 -0.244186 0
M  V30 9257 H 880.714 -1.67825 -2.77498 0
M  V30 9258 H 880.499 -3.31609 -2.09231 0
M  V30 9259 H 881.989 -2.90983 -2.99531 0
M  V30 9260 N 882.426 0.269451 -1.5528 0
M  V30 9261 C 883.356 1.33729 -1.91413 0
M  V30 9262 C 884.337 1.51348 -0.776391 0
M  V30 9263 O 885.522 1.64332 -1.03482 0
M  V30 9264 C 882.652 2.69618 -2.18914 0
M  V30 9265 C 881.606 2.66725 -3.34726 0
M  V30 9266 C 880.932 4.06199 -3.47716 0
M  V30 9267 C 882.232 2.25684 -4.71025 0
M  V30 9268 H 883.926 1.03736 -2.80854 0
M  V30 9269 H 881.472 0.497579 -1.3513 0
M  V30 9270 H 883.425 3.44436 -2.42779 0
M  V30 9271 H 882.149 3.01201 -1.26275 0
M  V30 9272 H 880.808 1.94365 -3.10834 0
M  V30 9273 H 880.456 4.3501 -2.52537 0
M  V30 9274 H 880.156 4.05157 -4.25583 0
M  V30 9275 H 881.68 4.8275 -3.73877 0
M  V30 9276 H 883.094 2.90225 -4.94411 0
M  V30 9277 H 881.491 2.35797 -5.51833 0
M  V30 9278 H 882.561 1.20819 -4.69607 0
M  V30 9279 N 883.904 1.48273 0.534124 0
M  V30 9280 C 885.129 1.59988 1.31979 0
M  V30 9281 C 885.554 0.258824 1.86311 0
M  V30 9282 O 884.912 -0.768885 1.64188 0
M  V30 9283 C 884.96 2.64642 2.44943 0
M  V30 9284 O 884.064 2.21515 3.47858 0
M  V30 9285 H 883.405 0.536625 0.391063 0
M  V30 9286 H 885.935 1.94229 0.643135 0
M  V30 9287 H 885.945 2.85786 2.91187 0
M  V30 9288 H 884.62 3.62004 2.04758 0
M  V30 9289 H 883.197 2.10567 3.0776 0
M  V30 9290 N 885.382 -0.782676 1.36792 0
M  V30 9291 C 886.607 -1.57676 1.34733 0
M  V30 9292 C 887.032 -1.87979 -0.0675253 0
M  V30 9293 O 886.39 -1.48404 -1.04144 0
M  V30 9294 C 886.438 -2.87047 2.18257 0
M  V30 9295 O 885.542 -3.80946 1.57969 0
M  V30 9296 H 884.883 -0.478034 0.460846 0
M  V30 9297 H 887.413 -0.969578 1.80168 0
M  V30 9298 H 887.423 -3.36254 2.31079 0
M  V30 9299 H 886.098 -2.64319 3.21104 0
M  V30 9300 H 884.675 -3.39558 1.54126 0
M  V30 9301 N 886.86 -1.21182 -1.00761 0
M  V30 9302 C 888.107 -1.02746 -1.74498 0
M  V30 9303 C 888.435 0.439344 -1.89473 0
M  V30 9304 O 887.69 1.34232 -1.42409 0
M  V30 9305 C 887.989 -1.6667 -3.16158 0
M  V30 9306 C 887.655 -3.16515 -3.21137 0
M  V30 9307 C 886.317 -3.57405 -3.22203 0
M  V30 9308 C 888.669 -4.12495 -3.18587 0
M  V30 9309 C 885.997 -4.92786 -3.18401 0
M  V30 9310 C 888.349 -5.47833 -3.16326 0
M  V30 9311 C 887.013 -5.88124 -3.157 0
M  V30 9312 H 886.283 -0.375974 -0.638533 0
M  V30 9313 H 888.93 -1.50736 -1.18114 0
M  V30 9314 H 887.235 -1.10966 -3.75758 0
M  V30 9315 H 888.932 -1.49911 -3.71924 0
M  V30 9316 H 885.522 -2.83947 -3.21048 0
M  V30 9317 H 889.706 -3.81932 -3.16925 0
M  V30 9318 H 884.962 -5.23253 -3.16253 0
M  V30 9319 H 889.136 -6.21942 -3.13306 0
M  V30 9320 H 886.763 -6.92995 -3.12508 0
M  V30 9321 N 888.338 1.20213 -1.01915 0
M  V30 9322 C 889.301 2.21307 -0.596327 0
M  V30 9323 C 890.301 1.57274 0.334879 0
M  V30 9324 O 891.491 1.73764 0.12322 0
M  V30 9325 C 888.623 3.40657 0.128808 0
M  V30 9326 H 889.816 2.60228 -1.49068 0
M  V30 9327 H 887.369 1.33721 -0.809226 0
M  V30 9328 H 888.104 3.07241 1.03796 0
M  V30 9329 H 887.889 3.88361 -0.540183 0
M  V30 9330 H 889.379 4.15564 0.411892 0
M  V30 9331 N 889.816 0.795718 1.36037 0
M  V30 9332 C 891.062 0.371574 1.99367 0
M  V30 9333 C 891.395 -1.0557 1.62999 0
M  V30 9334 O 890.67 -1.73051 0.887895 0
M  V30 9335 C 890.953 0.542622 3.55988 0
M  V30 9336 C 890.806 2.01404 4.0219 0
M  V30 9337 C 892.125 -0.0384527 4.40083 0
M  V30 9338 H 889.244 0.136483 0.724252 0
M  V30 9339 H 891.886 1.00323 1.61355 0
M  V30 9340 H 890.036 0.0049053 3.885 0
M  V30 9341 H 891.708 2.6133 3.80137 0
M  V30 9342 H 889.951 2.51439 3.53498 0
M  V30 9343 H 890.622 2.08466 5.11122 0
M  V30 9344 H 893.098 0.420634 4.13968 0
M  V30 9345 H 891.974 0.111214 5.48787 0
M  V30 9346 H 892.235 -1.13116 4.27384 0
M  V30 9347 N 891.294 -1.47756 0.548274 0
M  V30 9348 C 892.543 -2.01691 0.0187961 0
M  V30 9349 C 892.856 -1.42894 -1.33569 0
M  V30 9350 O 894.062 -1.88438 -1.95457 0
M  V30 9351 C 892.518 -3.59896 -0.016847 0
M  V30 9352 C 892.126 -4.27683 1.33385 0
M  V30 9353 C 893.87 -4.21614 -0.494188 0
M  V30 9354 C 891.777 -5.7787 1.2578 0
M  V30 9355 H 890.707 -0.753993 0.00325648 0
M  V30 9356 H 893.358 -1.69838 0.694792 0
M  V30 9357 H 891.74 -3.88672 -0.758304 0
M  V30 9358 H 892.914 -4.10559 2.09232 0
M  V30 9359 H 891.229 -3.77915 1.7484 0
M  V30 9360 H 893.826 -5.3166 -0.569342 0
M  V30 9361 H 894.169 -3.88176 -1.50417 0
M  V30 9362 H 894.702 -3.97336 0.192138 0
M  V30 9363 H 891.441 -6.15912 2.2435 0
M  V30 9364 H 890.961 -5.97355 0.540997 0
M  V30 9365 H 892.64 -6.39897 0.956109 0
M  V30 9366 N 892.772 -0.284283 -1.55015 0
M  V30 9367 C 893.997 0.335799 -2.04664 0
M  V30 9368 C 894.422 1.47999 -1.16094 0
M  V30 9369 O 893.78 1.8058 -0.161454 0
M  V30 9370 C 893.828 0.785615 -3.51938 0
M  V30 9371 O 892.932 1.89202 -3.66437 0
M  V30 9372 H 892.273 0.0680233 -0.660506 0
M  V30 9373 H 894.803 -0.421255 -2.00216 0
M  V30 9374 H 894.813 1.07892 -3.93476 0
M  V30 9375 H 893.488 -0.0514675 -4.15868 0
M  V30 9376 H 892.065 1.60055 -3.36804 0
M  V30 9377 N 894.251 1.57596 -0.0117121 0
M  V30 9378 C 895.161 2.12596 0.991964 0
M  V30 9379 C 896.177 1.07399 1.36899 0
M  V30 9380 O 897.353 1.39365 1.45394 0
M  V30 9381 C 894.418 2.62796 2.2614 0
M  V30 9382 C 893.479 3.8264 1.94642 0
M  V30 9383 C 892.712 4.30435 3.15533 0
M  V30 9384 O 892.935 3.77495 4.27614 0
M  V30 9385 O 891.869 5.22469 2.98847 0
M  V30 9386 H 895.695 2.98597 0.554371 0
M  V30 9387 H 893.28 1.47947 0.207839 0
M  V30 9388 H 895.162 2.9523 3.00695 0
M  V30 9389 H 893.837 1.79886 2.69114 0
M  V30 9390 H 892.744 3.5516 1.17526 0
M  V30 9391 H 894.077 4.66658 1.56496 0
M  V30 9392 N 895.729 -0.261212 1.5542 0
M  V30 9393 C 896.676 -1.32315 1.89107 0
M  V30 9394 C 897.646 -1.48517 0.743767 0
M  V30 9395 O 898.831 -1.62733 0.996123 0
M  V30 9396 C 895.971 -2.67626 2.17877 0
M  V30 9397 C 895.084 -2.59549 3.45338 0
M  V30 9398 C 894.219 -3.87118 3.63748 0
M  V30 9399 C 893.258 -3.736 4.8486 0
M  V30 9400 N 892.395 -4.93029 4.99867 0
M  V30 9401 H 897.235 -1.02886 2.79675 0
M  V30 9402 H 894.772 -0.496812 1.38456 0
M  V30 9403 H 896.73 -3.4637 2.32559 0
M  V30 9404 H 895.36 -2.95232 1.30529 0
M  V30 9405 H 894.412 -1.72452 3.39064 0
M  V30 9406 H 895.724 -2.45465 4.34222 0
M  V30 9407 H 894.878 -4.74305 3.78312 0
M  V30 9408 H 893.617 -4.04084 2.73071 0
M  V30 9409 H 892.622 -2.84797 4.70288 0
M  V30 9410 H 893.847 -3.58143 5.76984 0
M  V30 9411 H 891.793 -5.10383 4.12123 0
M  V30 9412 H 891.71 -4.81521 5.82815 0
M  V30 9413 H 892.978 -5.81754 5.18828 0
M  V30 9414 N 897.207 -1.48554 -0.526253 0
M  V30 9415 C 898.453 -1.56994 -1.28378 0
M  V30 9416 C 898.786 -0.244701 -1.92652 0
M  V30 9417 O 898.061 0.749636 -1.79473 0
M  V30 9418 C 898.344 -2.71092 -2.37026 0
M  V30 9419 C 898.197 -4.13331 -1.77418 0
M  V30 9420 C 899.516 -2.80934 -3.38769 0
M  V30 9421 H 896.635 -0.571466 -0.465398 0
M  V30 9422 H 899.277 -1.80742 -0.585861 0
M  V30 9423 H 897.427 -2.50973 -2.96555 0
M  V30 9424 H 899.099 -4.44899 -1.21912 0
M  V30 9425 H 897.342 -4.20158 -1.07936 0
M  V30 9426 H 898.013 -4.88994 -2.56104 0
M  V30 9427 H 900.489 -2.9917 -2.892 0
M  V30 9428 H 899.365 -3.62489 -4.12181 0
M  V30 9429 H 899.626 -1.89244 -3.99549 0
M  V30 9430 N 898.685 0.775411 -1.37205 0
M  V30 9431 C 899.648 1.8702 -1.325 0
M  V30 9432 C 900.648 1.5915 -0.229793 0
M  V30 9433 O 901.838 1.673 -0.485423 0
M  V30 9434 C 898.97 3.24085 -1.05745 0
M  V30 9435 H 900.163 1.92604 -2.29878 0
M  V30 9436 H 897.716 0.97476 -1.22181 0
M  V30 9437 H 898.451 3.24178 -0.0888371 0
M  V30 9438 H 898.236 3.45705 -1.85016 0
M  V30 9439 H 899.726 4.0416 -1.05094 0
M  V30 9440 N 900.163 1.21714 1.00117 0
M  V30 9441 C 901.095 0.937627 2.09144 0
M  V30 9442 C 902.108 -0.0806291 1.626 0
M  V30 9443 O 903.297 0.152348 1.77849 0
M  V30 9444 C 900.397 0.387036 3.36683 0
M  V30 9445 C 899.57 1.46054 4.12295 0
M  V30 9446 C 898.629 0.918505 5.18122 0
M  V30 9447 O 897.655 1.60282 5.46167 0
M  V30 9448 N 898.857 -0.264308 5.79898 0
M  V30 9449 H 901.622 1.87622 2.33705 0
M  V30 9450 H 899.183 1.12291 1.16629 0
M  V30 9451 H 901.175 0.00992825 4.04699 0
M  V30 9452 H 899.745 -0.456467 3.09249 0
M  V30 9453 H 898.965 2.01133 3.39027 0
M  V30 9454 H 900.253 2.18306 4.59587 0
M  V30 9455 H 899.651 -0.837242 5.5947 0
M  V30 9456 H 898.208 -0.582886 6.49188 0
M  V30 9457 N 901.641 -1.19671 1.02551 0
M  V30 9458 C 902.866 -1.93774 0.739363 0
M  V30 9459 C 903.291 -1.74787 -0.695064 0
M  V30 9460 O 902.649 -1.04796 -1.47944 0
M  V30 9461 C 902.697 -3.43684 1.09149 0
M  V30 9462 O 901.801 -4.11874 0.208213 0
M  V30 9463 H 901.142 -0.605064 0.273484 0
M  V30 9464 H 903.672 -1.51846 1.37128 0
M  V30 9465 H 903.682 -3.94339 1.04695 0
M  V30 9466 H 902.357 -3.56826 2.13654 0
M  V30 9467 H 900.934 -3.716 0.311045 0
M  V30 9468 N 903.119 -0.802921 -1.35613 0
M  V30 9469 C 904.366 -0.381576 -1.98872 0
M  V30 9470 C 904.694 1.0503 -1.63704 0
M  V30 9471 O 903.949 1.7427 -0.890418 0
M  V30 9472 C 904.248 -0.507806 -3.53774 0
M  V30 9473 C 903.914 -1.90245 -4.088 0
M  V30 9474 C 902.576 -2.28401 -4.2354 0
M  V30 9475 C 904.928 -2.81504 -4.3864 0
M  V30 9476 C 902.256 -3.57192 -4.65436 0
M  V30 9477 C 904.608 -4.09737 -4.81973 0
M  V30 9478 C 903.272 -4.47897 -4.94919 0
M  V30 9479 H 902.542 -0.139629 -0.727726 0
M  V30 9480 H 905.189 -1.023 -1.61886 0
M  V30 9481 H 903.494 0.21708 -3.91198 0
M  V30 9482 H 905.191 -0.162625 -4.0067 0
M  V30 9483 H 901.781 -1.596 -3.97776 0
M  V30 9484 H 905.965 -2.53276 -4.26808 0
M  V30 9485 H 901.221 -3.86611 -4.73648 0
M  V30 9486 H 905.395 -4.80555 -5.04024 0
M  V30 9487 H 903.022 -5.47747 -5.27141 0
M  V30 9488 N 904.597 1.47463 -0.556102 0
M  V30 9489 C 905.846 2.01678 -0.029492 0
M  V30 9490 C 906.159 1.436 1.32809 0
M  V30 9491 O 907.365 1.89472 1.94455 0
M  V30 9492 C 905.821 3.599 -0.00223937 0
M  V30 9493 C 905.429 4.26969 -1.35651 0
M  V30 9494 C 907.173 4.2187 0.471822 0
M  V30 9495 C 905.08 5.77194 -1.28843 0
M  V30 9496 H 904.01 0.753965 -0.00725504 0
M  V30 9497 H 906.661 1.69467 -0.703789 0
M  V30 9498 H 905.043 3.89068 0.737682 0
M  V30 9499 H 906.217 4.09444 -2.11406 0
M  V30 9500 H 904.532 3.76983 -1.76842 0
M  V30 9501 H 907.129 5.31955 0.541139 0
M  V30 9502 H 907.472 3.88968 1.48356 0
M  V30 9503 H 908.005 3.97228 -0.213207 0
M  V30 9504 H 904.744 6.14713 -2.27613 0
M  V30 9505 H 904.264 5.9706 -0.572668 0
M  V30 9506 H 905.943 6.3938 -0.990031 0
M  V30 9507 N 906.075 0.2925 1.54862 0
M  V30 9508 C 907.007 -0.620889 2.2063 0
M  V30 9509 C 908.02 -1.10412 1.19637 0
M  V30 9510 O 909.209 -1.02304 1.46274 0
M  V30 9511 C 906.309 -1.861 2.83232 0
M  V30 9512 C 905.482 -1.52168 4.10078 0
M  V30 9513 C 904.541 -2.61605 4.56562 0
M  V30 9514 O 903.567 -2.27056 5.21952 0
M  V30 9515 N 904.769 -3.9199 4.28163 0
M  V30 9516 H 907.534 -0.0579028 2.99644 0
M  V30 9517 H 905.095 0.114333 1.61496 0
M  V30 9518 H 907.087 -2.58642 3.11266 0
M  V30 9519 H 905.657 -2.33259 2.08108 0
M  V30 9520 H 904.877 -0.629283 3.89145 0
M  V30 9521 H 906.165 -1.27023 4.92689 0
M  V30 9522 H 905.563 -4.22872 3.7576 0
M  V30 9523 H 904.12 -4.60857 4.60928 0
M  V30 9524 N 907.553 -1.57587 0.0200696 0
M  V30 9525 C 908.463 -2.13119 -0.980676 0
M  V30 9526 C 909.479 -1.08124 -1.36328 0
M  V30 9527 O 910.655 -1.40134 -1.44653 0
M  V30 9528 C 907.72 -2.63991 -2.24743 0
M  V30 9529 C 906.781 -3.83667 -1.9261 0
M  V30 9530 C 906.014 -4.32103 -3.13246 0
M  V30 9531 O 906.237 -3.79758 -4.25606 0
M  V30 9532 O 905.171 -5.24047 -2.96072 0
M  V30 9533 H 908.997 -2.98887 -0.538528 0
M  V30 9534 H 906.582 -1.48055 -0.19999 0
M  V30 9535 H 908.464 -2.9682 -2.99125 0
M  V30 9536 H 907.139 -1.81311 -2.68157 0
M  V30 9537 H 906.046 -3.55778 -1.15641 0
M  V30 9538 H 907.379 -4.67482 -1.54019 0
M  V30 9539 N 909.032 0.252966 -1.55557 0
M  V30 9540 C 909.995 1.29645 -1.8901 0
M  V30 9541 C 910.995 1.41378 -0.766096 0
M  V30 9542 O 912.185 1.40183 -1.03414 0
M  V30 9543 C 909.317 2.67504 -2.11316 0
M  V30 9544 H 910.51 1.01202 -2.82309 0
M  V30 9545 H 908.063 0.491977 -1.48355 0
M  V30 9546 H 908.798 3.01095 -1.20466 0
M  V30 9547 H 908.583 2.6037 -2.93172 0
M  V30 9548 H 910.073 3.42861 -2.38403 0
M  V30 9549 N 910.51 1.48831 0.518367 0
M  V30 9550 C 911.44 1.67119 1.63075 0
M  V30 9551 C 912.421 0.519948 1.61958 0
M  V30 9552 O 913.606 0.753824 1.78972 0
M  V30 9553 C 910.736 1.72158 3.01627 0
M  V30 9554 C 909.69 2.86898 3.17606 0
M  V30 9555 C 909.016 2.77035 4.57335 0
M  V30 9556 C 910.316 4.28057 2.99274 0
M  V30 9557 H 912.01 2.60248 1.48025 0
M  V30 9558 H 909.556 1.2524 0.710694 0
M  V30 9559 H 911.509 1.83539 3.7933 0
M  V30 9560 H 910.233 0.756157 3.17726 0
M  V30 9561 H 908.892 2.75091 2.42323 0
M  V30 9562 H 908.54 1.78438 4.70286 0
M  V30 9563 H 908.24 3.54036 4.6897 0
M  V30 9564 H 909.764 2.904 5.37122 0
M  V30 9565 H 911.178 4.40636 3.6676 0
M  V30 9566 H 909.575 5.06145 3.22393 0
M  V30 9567 H 910.645 4.4371 1.95574 0
M  V30 9568 N 911.988 -0.768124 1.37614 0
M  V30 9569 C 913.213 -1.56239 1.36397 0
M  V30 9570 C 913.638 -1.8804 -0.0475839 0
M  V30 9571 O 912.996 -1.495 -1.02564 0
M  V30 9572 C 913.044 -2.84716 2.21289 0
M  V30 9573 O 912.148 -3.79249 1.62001 0
M  V30 9574 H 911.489 -0.473119 0.465891 0
M  V30 9575 H 914.019 -0.950415 1.81186 0
M  V30 9576 H 914.029 -3.33784 2.34632 0
M  V30 9577 H 912.704 -2.60899 3.2389 0
M  V30 9578 H 911.281 -3.37904 1.57719 0
M  V30 9579 N 913.466 -1.22244 -0.994698 0
M  V30 9580 C 914.713 -1.04591 -1.73398 0
M  V30 9581 C 915.041 0.419223 -1.89928 0
M  V30 9582 O 914.296 1.32714 -1.43824 0
M  V30 9583 C 914.595 -1.70014 -3.14372 0
M  V30 9584 C 914.261 -3.19903 -3.17762 0
M  V30 9585 C 912.923 -3.60803 -3.18394 0
M  V30 9586 C 915.275 -4.15851 -3.14194 0
M  V30 9587 C 912.603 -4.96135 -3.13157 0
M  V30 9588 C 914.955 -5.51157 -3.10498 0
M  V30 9589 C 913.619 -5.91439 -3.09445 0
M  V30 9590 H 912.889 -0.382725 -0.63451 0
M  V30 9591 H 915.536 -1.51981 -1.16508 0
M  V30 9592 H 913.841 -1.14945 -3.7456 0
M  V30 9593 H 915.538 -1.53848 -3.70313 0
M  V30 9594 H 912.128 -2.87336 -3.18019 0
M  V30 9595 H 916.312 -3.85272 -3.12857 0
M  V30 9596 H 911.568 -5.26578 -3.10685 0
M  V30 9597 H 915.742 -6.2523 -3.06692 0
M  V30 9598 H 913.369 -6.96271 -3.05141 0
M  V30 9599 N 914.944 1.19125 -1.03184 0
M  V30 9600 C 916.221 1.84674 -0.644574 0
M  V30 9601 C 916.601 1.92042 0.876534 0
M  V30 9602 O 915.949 1.43965 1.77444 0
M  V30 9603 C 916.159 3.23477 -1.3101 0
M  V30 9604 C 917.507 3.99608 -1.43524 0
M  V30 9605 O 918.531 3.32886 -1.2675 0
M  V30 9606 O 917.39 5.19132 -1.70776 0
M  V30 9607 H 914.484 0.795968 -0.22442 0
M  V30 9608 H 917.03 1.2659 -1.13018 0
M  V30 9609 H 915.802 3.12967 -2.34878 0
M  V30 9610 H 915.425 3.89209 -0.812547 0
M  V30 9611 N 916.422 0.810101 1.35185 0
M  V30 9612 C 917.352 0.237453 2.32289 0
M  V30 9613 C 918.333 -0.639032 1.5764 0
M  V30 9614 O 919.518 -0.568575 1.8569 0
M  V30 9615 C 916.648 -0.611964 3.41866 0
M  V30 9616 C 915.602 0.166318 4.27677 0
M  V30 9617 C 914.928 -0.805024 5.28605 0
M  V30 9618 C 916.228 1.36729 5.04086 0
M  V30 9619 H 917.922 1.04874 2.80432 0
M  V30 9620 H 915.468 0.505751 1.34826 0
M  V30 9621 H 917.421 -1.02267 4.08802 0
M  V30 9622 H 916.145 -1.45617 2.92341 0
M  V30 9623 H 914.804 0.558238 3.62325 0
M  V30 9624 H 914.452 -1.64483 4.75347 0
M  V30 9625 H 914.152 -0.288577 5.86891 0
M  V30 9626 H 915.676 -1.21386 5.98413 0
M  V30 9627 H 917.09 1.03128 5.63948 0
M  V30 9628 H 915.487 1.81848 5.71884 0
M  V30 9629 H 916.557 2.15214 4.34524 0
M  V30 9630 N 917.9 -1.47166 0.563914 0
M  V30 9631 C 919.128 -2.06846 0.0474287 0
M  V30 9632 C 919.543 -1.41557 -1.24928 0
M  V30 9633 O 918.9 -0.514376 -1.75101 0
M  V30 9634 C 918.951 -3.6121 -0.144831 0
M  V30 9635 O 918.672 -4.24052 1.10053 0
M  V30 9636 C 920.173 -4.37773 -0.69783 0
M  V30 9637 H 917.393 -0.669217 0.0488896 0
M  V30 9638 H 919.937 -1.89072 0.779235 0
M  V30 9639 H 918.092 -3.78474 -0.82679 0
M  V30 9640 H 918.506 -5.16677 0.902481 0
M  V30 9641 H 919.98 -5.46438 -0.781616 0
M  V30 9642 H 920.457 -4.04517 -1.71063 0
M  V30 9643 H 921.063 -4.25269 -0.0513516 0
M  V30 9644 N 919.378 -0.300708 -1.54705 0
M  V30 9645 C 920.308 0.568675 -2.26469 0
M  V30 9646 C 921.289 1.13817 -1.26411 0
M  V30 9647 O 922.474 1.16756 -1.55183 0
M  V30 9648 C 919.604 1.74077 -3.00524 0
M  V30 9649 C 918.558 1.30165 -4.07727 0
M  V30 9650 C 917.884 2.55888 -4.69495 0
M  V30 9651 C 919.184 0.433106 -5.20501 0
M  V30 9652 H 920.878 -0.0298851 -2.99385 0
M  V30 9653 H 918.424 -0.0158135 -1.43991 0
M  V30 9654 H 920.377 2.35506 -3.49449 0
M  V30 9655 H 919.101 2.36556 -2.25186 0
M  V30 9656 H 917.76 0.710414 -3.59651 0
M  V30 9657 H 917.408 3.16681 -3.90797 0
M  V30 9658 H 917.108 2.27207 -5.41895 0
M  V30 9659 H 918.632 3.18121 -5.21183 0
M  V30 9660 H 920.046 0.95307 -5.65322 0
M  V30 9661 H 918.443 0.240085 -5.9962 0
M  V30 9662 H 919.513 -0.541866 -4.81863 0
M  V30 9663 N 920.856 1.57574 -0.0284266 0
M  V30 9664 C 922.105 1.9095 0.649704 0
M  V30 9665 C 922.418 0.906421 1.7333 0
M  V30 9666 O 923.624 1.1314 2.46803 0
M  V30 9667 C 922.08 3.39061 1.20687 0
M  V30 9668 C 921.688 4.47726 0.156597 0
M  V30 9669 C 923.432 3.81505 1.86156 0
M  V30 9670 C 921.339 5.86935 0.725365 0
M  V30 9671 H 920.269 0.712589 0.24644 0
M  V30 9672 H 922.92 1.83261 -0.0936143 0
M  V30 9673 H 921.302 3.41679 2.00178 0
M  V30 9674 H 922.476 4.56667 -0.6158 0
M  V30 9675 H 920.791 4.14481 -0.399288 0
M  V30 9676 H 923.388 4.82865 2.29665 0
M  V30 9677 H 923.731 3.16529 2.70398 0
M  V30 9678 H 924.264 3.81307 1.13356 0
M  V30 9679 H 921.003 6.55453 -0.0789081 0
M  V30 9680 H 920.523 5.81602 1.46627 0
M  V30 9681 H 922.202 6.35483 1.21532 0
M  V30 9682 N 922.334 -0.244713 1.55689 0
M  V30 9683 C 923.282 -1.32276 1.91326 0
M  V30 9684 C 924.276 -1.49714 0.792589 0
M  V30 9685 O 925.482 -1.51163 0.977227 0
M  V30 9686 H 921.857 -0.442979 0.607679 0
M  V30 9687 H 923.828 -0.99486 2.81327 0
M  V30 9688 C 922.577 -2.67077 2.22633 0
M  V30 9689 H 921.9 -2.54458 3.08368 0
M  V30 9690 H 923.34 -3.41378 2.5147 0
M  V30 9691 C 921.799 -3.20335 1.04342 0
M  V30 9692 O 922.329 -4.00633 0.292543 0
M  V30 9693 N 920.535 -2.78392 0.833457 0
M  V30 9694 H 920.082 -2.13202 1.44577 0
M  V30 9695 H 920.04 -3.1437 0.0436713 0
M  V30 9696 N 923.813 -1.49104 -0.510467 0
M  V30 9697 C 925.224 -1.51423 -1.09215 0
M  V30 9698 C 925.575 -0.295035 -1.93969 0
M  V30 9699 O 924.7 0.596064 -2.08029 0
M  V30 9700 C 925.295 -2.74387 -1.98739 0
M  V30 9701 C 923.854 -2.79515 -2.52088 0
M  V30 9702 C 923.001 -2.4521 -1.29488 0
M  V30 9703 H 925.952 -1.55938 -0.294807 0
M  V30 9704 H 925.973 -2.54012 -2.83298 0
M  V30 9705 H 925.485 -3.63105 -1.37026 0
M  V30 9706 H 923.586 -1.95054 -3.17466 0
M  V30 9707 H 923.699 -3.81447 -2.89887 0
M  V30 9708 H 922.063 -1.96785 -1.61703 0
M  V30 9709 H 922.846 -3.36192 -0.694978 0
M  V30 9710 N 925.291 0.760815 -1.38019 0
M  V30 9711 C 926.707 1.06289 -1.19058 0
M  V30 9712 C 926.907 2.01471 -0.0342603 0
M  V30 9713 O 925.963 2.44713 0.62224 0
M  V30 9714 C 927.276 1.6499 -2.51394 0
M  V30 9715 C 928.824 1.77196 -2.58013 0
M  V30 9716 C 929.299 2.3931 -3.90506 0
M  V30 9717 N 930.79 2.46749 -3.92007 0
M  V30 9718 C 931.525 2.95687 -4.91281 0
M  V30 9719 N 931.021 3.44715 -6.00952 0
M  V30 9720 N 932.814 2.94661 -4.78677 0
M  V30 9721 H 924.965 0.129045 -2.12008 0
M  V30 9722 H 927.228 0.119878 -0.94039 0
M  V30 9723 H 926.934 1.0252 -3.36426 0
M  V30 9724 H 926.808 2.64146 -2.6927 0
M  V30 9725 H 929.195 2.38796 -1.7338 0
M  V30 9726 H 929.276 0.767645 -2.4401 0
M  V30 9727 H 928.92 1.78346 -4.75558 0
M  V30 9728 H 928.85 3.40369 -4.01817 0
M  V30 9729 H 931.341 2.12064 -3.12789 0
M  V30 9730 H 931.654 3.80492 -6.72641 0
M  V30 9731 H 929.999 3.42791 -6.04582 0
M  V30 9732 H 933.19 2.55665 -3.92113 0
M  V30 9733 H 933.363 3.32489 -5.56197 0
M  V30 9734 N 926.769 1.22769 0.988202 0
M  V30 9735 C 927.997 1.08155 1.76381 0
M  V30 9736 C 928.412 -0.367573 1.85187 0
M  V30 9737 O 927.769 -1.25455 1.32541 0
M  V30 9738 C 927.82 1.69193 3.19462 0
M  V30 9739 O 927.541 3.08437 3.11125 0
M  V30 9740 C 929.042 1.59915 4.13451 0
M  V30 9741 H 926.262 0.378908 0.553778 0
M  V30 9742 H 928.806 1.6246 1.24206 0
M  V30 9743 H 926.961 1.18939 3.6869 0
M  V30 9744 H 927.375 3.37916 4.0114 0
M  V30 9745 H 928.849 2.07339 5.1158 0
M  V30 9746 H 929.326 0.556546 4.3566 0
M  V30 9747 H 929.932 2.09497 3.70123 0
M  V30 9748 N 928.247 -1.18576 1.03814 0
M  V30 9749 C 929.493 -1.88773 0.741132 0
M  V30 9750 C 929.826 -1.79993 -0.729127 0
M  V30 9751 O 929.101 -1.19851 -1.53186 0
M  V30 9752 C 929.384 -3.39352 1.20468 0
M  V30 9753 C 929.237 -3.56955 2.73684 0
M  V30 9754 C 930.556 -4.32901 0.792741 0
M  V30 9755 H 927.675 -0.685482 0.270708 0
M  V30 9756 H 930.317 -1.39523 1.2897 0
M  V30 9757 H 928.467 -3.81427 0.737974 0
M  V30 9758 H 930.139 -3.2399 3.28372 0
M  V30 9759 H 928.382 -2.99696 3.13632 0
M  V30 9760 H 929.053 -4.62598 3.01176 0
M  V30 9761 H 931.529 -3.98592 1.1943 0
M  V30 9762 H 930.405 -5.36828 1.14486 0
M  V30 9763 H 930.666 -4.41052 -0.304295 0
M  V30 9764 N 929.725 -0.817259 -1.34754 0
M  V30 9765 C 930.672 -0.233108 -2.2962 0
M  V30 9766 C 931.642 0.638902 -1.53321 0
M  V30 9767 O 932.827 0.581739 -1.81715 0
M  V30 9768 C 929.967 0.603659 -3.39779 0
M  V30 9769 C 929.08 -0.289967 -4.31026 0
M  V30 9770 C 928.215 0.555825 -5.28284 0
M  V30 9771 C 927.254 -0.337539 -6.11169 0
M  V30 9772 N 926.391 0.468847 -7.00533 0
M  V30 9773 H 931.231 -1.04747 -2.78984 0
M  V30 9774 H 928.768 -0.528056 -1.37295 0
M  V30 9775 H 930.726 1.10407 -4.02326 0
M  V30 9776 H 929.356 1.38319 -2.91664 0
M  V30 9777 H 928.408 -0.908552 -3.69391 0
M  V30 9778 H 929.72 -0.977136 -4.89135 0
M  V30 9779 H 928.874 1.12094 -5.96255 0
M  V30 9780 H 927.613 1.27652 -4.70698 0
M  V30 9781 H 926.618 -0.914839 -5.42135 0
M  V30 9782 H 927.843 -1.05626 -6.70835 0
M  V30 9783 H 925.789 1.17332 -6.45422 0
M  V30 9784 H 925.706 -0.160052 -7.55831 0
M  V30 9785 H 926.974 1.01689 -7.72839 0
M  V30 9786 N 931.203 1.46865 -0.571711 0
M  V30 9787 C 932.452 2.01636 -0.050881 0
M  V30 9788 C 932.765 1.45001 1.31279 0
M  V30 9789 O 933.971 1.91523 1.92435 0
M  V30 9790 C 932.427 3.59877 -0.0404114 0
M  V30 9791 C 932.035 4.25506 -1.40172 0
M  V30 9792 C 933.779 4.22346 0.42705 0
M  V30 9793 C 931.686 5.75795 -1.34958 0
M  V30 9794 H 930.616 0.753846 -0.0152514 0
M  V30 9795 H 933.267 1.68711 -0.721723 0
M  V30 9796 H 931.649 3.89829 0.696374 0
M  V30 9797 H 932.823 4.07178 -2.15737 0
M  V30 9798 H 931.138 3.75086 -1.8083 0
M  V30 9799 H 933.735 5.32499 0.484688 0
M  V30 9800 H 934.078 3.9052 1.44222 0
M  V30 9801 H 934.611 3.9698 -0.255326 0
M  V30 9802 H 931.35 6.12265 -2.3412 0
M  V30 9803 H 930.87 5.96419 -0.635962 0
M  V30 9804 H 932.549 6.38294 -1.05779 0
M  V30 9805 N 932.681 0.308908 1.54543 0
M  V30 9806 C 933.909 -0.300418 2.04707 0
M  V30 9807 C 934.324 -1.46915 1.18581 0
M  V30 9808 O 933.681 -1.81251 0.213186 0
M  V30 9809 C 933.732 -0.749038 3.53655 0
M  V30 9810 O 933.453 0.373181 4.36508 0
M  V30 9811 C 934.954 -1.4227 4.1985 0
M  V30 9812 H 932.174 -0.0641267 0.667929 0
M  V30 9813 H 934.718 0.450839 1.99469 0
M  V30 9814 H 932.873 -1.4503 3.59228 0
M  V30 9815 H 933.287 0.0224752 5.24495 0
M  V30 9816 H 934.761 -1.68768 5.25568 0
M  V30 9817 H 935.238 -2.36531 3.70067 0
M  V30 9818 H 935.844 -0.764404 4.18374 0
M  V30 9819 N 934.159 -1.57557 0.0367827 0
M  V30 9820 C 935.122 -2.09591 -0.927589 0
M  V30 9821 C 936.122 -1.01252 -1.24919 0
M  V30 9822 O 937.312 -1.27382 -1.18825 0
M  V30 9823 C 934.444 -2.56816 -2.24184 0
M  V30 9824 H 935.637 -2.96086 -0.476784 0
M  V30 9825 H 933.19 -1.54864 -0.211385 0
M  V30 9826 H 933.925 -1.73673 -2.73876 0
M  V30 9827 H 933.71 -3.35973 -2.0215 0
M  V30 9828 H 935.2 -2.97271 -2.93291 0
M  V30 9829 N 935.637 0.236453 -1.55816 0
M  V30 9830 C 936.862 0.98449 -1.82545 0
M  V30 9831 C 937.287 1.77755 -0.615206 0
M  V30 9832 O 936.645 1.75982 0.435895 0
M  V30 9833 C 936.693 1.88973 -3.07118 0
M  V30 9834 O 935.797 2.98298 -2.84766 0
M  V30 9835 H 935.138 0.279577 -0.602273 0
M  V30 9836 H 937.668 0.254277 -2.03014 0
M  V30 9837 H 937.678 2.3024 -3.36829 0
M  V30 9838 H 936.353 1.30671 -3.94839 0
M  V30 9839 H 934.93 2.61085 -2.6625 0
M  V30 9840 N 937.115 1.49373 0.502552 0
M  V30 9841 C 938.34 1.62752 1.28556 0
M  V30 9842 C 938.765 0.298285 1.8572 0
M  V30 9843 O 938.123 -0.733885 1.65782 0
M  V30 9844 C 938.171 2.69778 2.39274 0
M  V30 9845 O 937.275 2.28843 3.43081 0
M  V30 9846 H 936.616 0.544799 0.379592 0
M  V30 9847 H 939.146 1.9555 0.601792 0
M  V30 9848 H 939.156 2.91899 2.8506 0
M  V30 9849 H 937.831 3.66266 1.97033 0
M  V30 9850 H 936.408 2.17047 3.03224 0
M  V30 9851 N 938.594 -0.753485 1.38421 0
M  V30 9852 C 939.504 -1.89797 1.37892 0
M  V30 9853 C 940.52 -1.71797 0.276023 0
M  V30 9854 O 941.696 -1.94718 0.514464 0
M  V30 9855 C 938.761 -3.25166 1.20284 0
M  V30 9856 C 937.822 -3.55691 2.4038 0
M  V30 9857 C 937.055 -4.84601 2.23602 0
M  V30 9858 O 937.278 -5.56985 1.22979 0
M  V30 9859 O 936.212 -5.14605 3.12194 0
M  V30 9860 H 940.038 -1.93197 2.34326 0
M  V30 9861 H 937.623 -0.898775 1.19342 0
M  V30 9862 H 939.505 -4.06099 1.12525 0
M  V30 9863 H 938.18 -3.22577 0.269352 0
M  V30 9864 H 937.087 -2.74919 2.53714 0
M  V30 9865 H 938.42 -3.6304 3.32359 0
M  V30 9866 N 940.072 -1.23292 -0.981677 0
M  V30 9867 C 940.982 -1.02964 -2.10798 0
M  V30 9868 C 941.998 0.0254674 -1.73981 0
M  V30 9869 O 943.174 -0.169706 -2.00684 0
M  V30 9870 C 940.239 -0.621934 -3.41076 0
M  V30 9871 C 939.3 -1.75194 -3.91926 0
M  V30 9872 C 938.533 -1.36359 -5.15986 0
M  V30 9873 O 938.756 -0.247265 -5.69864 0
M  V30 9874 O 937.69 -2.18421 -5.60871 0
M  V30 9875 H 941.516 -1.97354 -2.30836 0
M  V30 9876 H 939.101 -1.01986 -1.09175 0
M  V30 9877 H 940.983 -0.405446 -4.19445 0
M  V30 9878 H 939.658 0.29299 -3.22371 0
M  V30 9879 H 938.565 -2.02305 -3.1468 0
M  V30 9880 H 939.898 -2.64513 -4.15083 0
M  V30 9881 N 941.55 1.18024 -1.04442 0
M  V30 9882 C 942.778 1.92032 -0.770161 0
M  V30 9883 C 943.193 1.76391 0.673181 0
M  V30 9884 O 942.55 1.09604 1.45922 0
M  V30 9885 C 942.601 3.43328 -1.13173 0
M  V30 9886 O 942.322 3.5848 -2.51841 0
M  V30 9887 C 943.823 4.34427 -0.882523 0
M  V30 9888 H 941.043 0.609518 -0.280586 0
M  V30 9889 H 943.587 1.49711 -1.39308 0
M  V30 9890 H 941.742 3.83423 -0.553704 0
M  V30 9891 H 942.156 4.52166 -2.65794 0
M  V30 9892 H 943.63 5.39123 -1.18533 0
M  V30 9893 H 944.107 4.3882 0.18257 0
M  V30 9894 H 944.713 4.00035 -1.44403 0
M  V30 9895 N 943.028 0.824394 1.34319 0
M  V30 9896 C 944.253 0.425194 2.02995 0
M  V30 9897 C 944.678 -0.961476 1.6167 0
M  V30 9898 O 944.036 -1.62593 0.80207 0
M  V30 9899 C 944.084 0.537004 3.56579 0
M  V30 9900 O 943.188 -0.442576 4.10018 0
M  V30 9901 H 942.529 0.174853 0.640564 0
M  V30 9902 H 945.059 1.11522 1.71534 0
M  V30 9903 H 945.069 0.413311 4.05901 0
M  V30 9904 H 943.744 1.54836 3.86004 0
M  V30 9905 H 942.321 -0.277644 3.71865 0
M  V30 9906 N 944.506 -1.46559 0.579492 0
M  V30 9907 C 945.754 -2.02 0.0637157 0
M  V30 9908 C 946.075 -1.45378 -1.29962 0
M  V30 9909 O 945.345 -0.637262 -1.85245 0
M  V30 9910 H 943.925 -0.746717 0.0205638 0
M  V30 9911 H 946.587 -1.79702 0.754544 0
M  V30 9912 H 945.683 -3.12099 -0.00770254 0
M  V30 9913 N 945.984 -0.3171 -1.54377 0
M  V30 9914 C 946.894 0.560867 -2.27797 0
M  V30 9915 C 947.91 1.13473 -1.31908 0
M  V30 9916 O 949.086 1.15608 -1.64914 0
M  V30 9917 C 946.151 1.70886 -3.0166 0
M  V30 9918 C 945.212 1.16745 -4.13121 0
M  V30 9919 C 944.445 2.26073 -4.83453 0
M  V30 9920 O 944.668 3.46292 -4.53252 0
M  V30 9921 O 943.602 1.91856 -5.70504 0
M  V30 9922 H 947.428 -0.035193 -3.0368 0
M  V30 9923 H 945.013 -0.0830062 -1.49169 0
M  V30 9924 H 946.895 2.37736 -3.47936 0
M  V30 9925 H 945.57 2.29122 -2.28658 0
M  V30 9926 H 944.477 0.464224 -3.71209 0
M  V30 9927 H 945.81 0.630307 -4.88147 0
M  V30 9928 N 947.462 1.57535 -0.0451378 0
M  V30 9929 C 948.41 2.12351 0.949205 0
M  V30 9930 C 949.404 1.05386 1.32628 0
M  V30 9931 O 950.61 1.23802 1.30664 0
M  V30 9932 H 946.985 0.678648 0.323945 0
M  V30 9933 H 948.956 2.94806 0.461718 0
M  V30 9934 C 947.705 2.67862 2.21687 0
M  V30 9935 H 947.028 3.49826 1.93551 0
M  V30 9936 H 948.468 3.09844 2.89435 0
M  V30 9937 C 946.927 1.61353 2.95748 0
M  V30 9938 O 947.457 1.02276 3.88462 0
M  V30 9939 N 945.663 1.33017 2.5837 0
M  V30 9940 H 945.21 1.81246 1.83051 0
M  V30 9941 H 945.168 0.619812 3.0823 0
M  V30 9942 N 948.94 -0.228186 1.55939 0
M  V30 9943 C 949.903 -1.26621 1.91049 0
M  V30 9944 C 950.903 -1.40141 0.788491 0
M  V30 9945 O 952.093 -1.3852 1.05631 0
M  V30 9946 C 949.225 -2.64108 2.15545 0
M  V30 9947 H 950.418 -0.966978 2.83883 0
M  V30 9948 H 947.971 -0.468313 1.49119 0
M  V30 9949 H 948.706 -2.99141 1.25241 0
M  V30 9950 H 948.491 -2.55673 2.97277 0
M  V30 9951 H 949.981 -3.39025 2.43827 0
M  V30 9952 N 950.418 -1.49637 -0.494624 0
M  V30 9953 C 951.829 -1.52573 -1.07603 0
M  V30 9954 C 952.18 -0.315591 -1.93645 0
M  V30 9955 O 951.305 0.573966 -2.08649 0
M  V30 9956 C 951.9 -2.7648 -1.95817 0
M  V30 9957 C 950.459 -2.82173 -2.49109 0
M  V30 9958 C 949.606 -2.4657 -1.2688 0
M  V30 9959 H 952.557 -1.56242 -0.278251 0
M  V30 9960 H 952.578 -2.57003 -2.80588 0
M  V30 9961 H 952.09 -3.64538 -1.33167 0
M  V30 9962 H 950.191 -1.9841 -3.15379 0
M  V30 9963 H 950.304 -3.84501 -2.85825 0
M  V30 9964 H 948.668 -1.98489 -1.59607 0
M  V30 9965 H 949.451 -3.3691 -0.659281 0
M  V30 9966 N 951.896 0.746133 -1.38819 0
M  V30 9967 C 952.859 1.84167 -1.36437 0
M  V30 9968 C 953.859 1.58626 -0.263499 0
M  V30 9969 O 955.049 1.66233 -0.520801 0
M  V30 9970 C 952.181 3.21769 -1.12596 0
M  V30 9971 H 953.374 1.87684 -2.33912 0
M  V30 9972 H 950.927 0.948625 -1.24221 0
M  V30 9973 H 951.662 3.23917 -0.15758 0
M  V30 9974 H 951.447 3.41702 -1.92307 0
M  V30 9975 H 952.937 4.0184 -1.13643 0
M  V30 9976 N 953.375 1.23811 0.975125 0
M  V30 9977 C 954.6 1.10109 1.75757 0
M  V30 9978 C 955.025 -0.342922 1.84948 0
M  V30 9979 O 954.383 -1.24814 1.31496 0
M  V30 9980 C 954.431 1.73724 3.15994 0
M  V30 9981 O 953.535 1.00297 4.00018 0
M  V30 9982 H 952.876 0.385627 0.540544 0
M  V30 9983 H 955.406 1.63971 1.22372 0
M  V30 9984 H 955.416 1.79178 3.6655 0
M  V30 9985 H 954.091 2.78794 3.0862 0
M  V30 9986 H 952.668 1.02575 3.58515 0
M  V30 9987 N 954.853 -1.17469 1.05066 0
M  V30 9988 C 956.1 -1.87698 0.759987 0
M  V30 9989 C 956.428 -1.80964 -0.712902 0
M  V30 9990 O 955.683 -1.21146 -1.53695 0
M  V30 9991 C 955.982 -3.37211 1.18421 0
M  V30 9992 C 955.648 -3.64148 2.65909 0
M  V30 9993 C 954.31 -3.71209 3.06199 0
M  V30 9994 C 956.662 -3.75724 3.61222 0
M  V30 9995 C 953.99 -3.87334 4.40669 0
M  V30 9996 C 956.342 -3.93368 4.95424 0
M  V30 9997 C 955.006 -3.98667 5.3537 0
M  V30 9998 H 954.276 -0.686835 0.278099 0
M  V30 9999 H 956.923 -1.38975 1.31751 0
M  V30 10000 H 955.228 -3.87982 0.545654 0
M  V30 10001 H 956.925 -3.89911 0.936518 0
M  V30 10002 H 953.515 -3.59276 2.33707 0
M  V30 10003 H 957.699 -3.69591 3.31235 0
M  V30 10004 H 952.955 -3.89685 4.71122 0
M  V30 10005 H 957.129 -4.01267 5.69173 0
M  V30 10006 H 954.756 -4.10915 6.39572 0
M  V30 10007 N 956.331 -0.831506 -1.3388 0
M  V30 10008 C 957.294 -0.264773 -2.27666 0
M  V30 10009 C 958.294 0.562273 -1.50649 0
M  V30 10010 O 959.484 0.377131 -1.70069 0
M  V30 10011 C 956.616 0.627814 -3.35069 0
M  V30 10012 H 957.809 -1.09225 -2.79303 0
M  V30 10013 H 955.362 -0.604021 -1.44157 0
M  V30 10014 H 956.097 1.47802 -2.88661 0
M  V30 10015 H 955.882 0.0361552 -3.92083 0
M  V30 10016 H 957.372 1.01786 -4.05005 0
M  V30 10017 N 957.809 1.4625 -0.587256 0
M  V30 10018 C 959.034 2.07252 -0.0784517 0
M  V30 10019 C 959.459 1.43239 1.21919 0
M  V30 10020 O 958.817 0.517791 1.73749 0
M  V30 10021 C 958.865 3.60534 0.0691037 0
M  V30 10022 O 957.969 3.96773 1.12448 0
M  V30 10023 H 957.31 0.660825 -0.064859 0
M  V30 10024 H 959.84 1.87819 -0.811491 0
M  V30 10025 H 959.85 4.0708 0.273826 0
M  V30 10026 H 958.525 4.06516 -0.878514 0
M  V30 10027 H 957.102 3.6193 0.897852 0
M  V30 10028 N 959.287 0.325282 1.54207 0
M  V30 10029 C 960.564 -0.33113 1.92777 0
M  V30 10030 C 960.944 -1.69739 1.25506 0
M  V30 10031 O 960.292 -2.24983 0.399385 0
M  V30 10032 C 960.502 -0.421636 3.46444 0
M  V30 10033 C 961.85 -0.681111 4.19101 0
M  V30 10034 O 962.874 -0.504488 3.52609 0
M  V30 10035 O 961.733 -1.02196 5.3686 0
M  V30 10036 H 958.827 -0.18943 0.805013 0
M  V30 10037 H 961.373 0.375123 1.65502 0
M  V30 10038 H 960.145 0.537862 3.87586 0
M  V30 10039 H 959.768 -1.1754 3.79829 0
M  V30 10040 N 960.765 -1.57509 0.0534917 0
M  V30 10041 C 962.013 -1.92402 -0.618548 0
M  V30 10042 C 962.334 -0.93273 -1.71246 0
M  V30 10043 O 961.604 0.0220495 -1.95888 0
M  V30 10044 H 960.184 -0.710233 -0.23147 0
M  V30 10045 H 962.846 -1.94606 0.10704 0
M  V30 10046 H 961.942 -2.93704 -1.05566 0
M  V30 10047 N 962.243 0.219913 -1.56058 0
M  V30 10048 C 963.52 0.968493 -1.6994 0
M  V30 10049 C 963.9 2.02358 -0.601219 0
M  V30 10050 O 963.248 2.25121 0.391534 0
M  V30 10051 C 963.458 1.57745 -3.11316 0
M  V30 10052 C 964.806 2.06908 -3.70775 0
M  V30 10053 O 965.83 1.67636 -3.14288 0
M  V30 10054 O 964.689 2.79096 -4.69859 0
M  V30 10055 H 961.783 0.452521 -0.692209 0
M  V30 10056 H 964.329 0.211566 -1.68376 0
M  V30 10057 H 963.101 0.815687 -3.82704 0
M  V30 10058 H 962.724 2.39987 -3.17005 0
M  V30 10059 N 963.721 1.49897 0.486681 0
M  V30 10060 C 964.654 1.6224 1.60479 0
M  V30 10061 C 965.632 0.470964 1.5563 0
M  V30 10062 O 966.816 0.688418 1.75479 0
M  V30 10063 C 963.943 1.59059 2.99028 0
M  V30 10064 C 962.989 2.79575 3.22087 0
M  V30 10065 S 963.822 4.41077 3.03664 0
M  V30 10066 C 964.978 4.40564 4.44583 0
M  V30 10067 H 965.211 2.56822 1.49766 0
M  V30 10068 H 962.744 1.38966 0.672893 0
M  V30 10069 H 964.702 1.5791 3.78913 0
M  V30 10070 H 963.363 0.657405 3.07143 0
M  V30 10071 H 962.556 2.73609 4.23266 0
M  V30 10072 H 962.158 2.78211 2.49949 0
M  V30 10073 H 964.45 4.13166 5.36936 0
M  V30 10074 H 965.393 5.42068 4.55596 0
M  V30 10075 H 965.801 3.70461 4.25933 0
M  V30 10076 N 965.199 -0.738761 1.39212 0
M  V30 10077 C 966.147 -1.8741 1.3777 0
M  V30 10078 C 967.141 -1.67371 0.261375 0
M  V30 10079 O 968.347 -1.74759 0.431209 0
M  V30 10080 H 964.722 -0.616843 0.430126 0
M  V30 10081 H 966.693 -1.85742 2.33543 0
M  V30 10082 C 965.442 -3.25053 1.23433 0
M  V30 10083 H 964.765 -3.41066 2.086 0
M  V30 10084 H 966.205 -4.04696 1.2648 0
M  V30 10085 C 964.664 -3.36851 -0.0575624 0
M  V30 10086 O 965.194 -3.88293 -1.02915 0
M  V30 10087 N 963.4 -2.90355 -0.119364 0
M  V30 10088 H 962.947 -2.48681 0.671976 0
M  V30 10089 H 962.905 -2.98628 -0.983286 0
M  V30 10090 N 966.677 -1.24326 -0.968545 0
M  V30 10091 C 967.905 -1.10947 -1.74638 0
M  V30 10092 C 968.32 0.338064 -1.85749 0
M  V30 10093 O 967.677 1.23331 -1.3452 0
M  V30 10094 C 967.728 -1.74254 -3.1673 0
M  V30 10095 O 967.449 -3.13347 -3.06178 0
M  V30 10096 C 968.95 -1.66473 -4.10855 0
M  V30 10097 H 966.17 -0.38767 -0.547679 0
M  V30 10098 H 968.714 -1.64415 -1.21605 0
M  V30 10099 H 966.869 -1.2479 -3.66751 0
M  V30 10100 H 967.283 -3.44255 -3.95713 0
M  V30 10101 H 968.757 -2.15452 -5.08217 0
M  V30 10102 H 969.234 -0.625785 -4.34719 0
M  V30 10103 H 969.84 -2.15359 -3.66743 0
M  V30 10104 N 968.156 1.1691 -1.05688 0
M  V30 10105 C 969.403 1.87292 -0.76993 0
M  V30 10106 C 969.731 1.81339 0.703295 0
M  V30 10107 O 968.986 1.21959 1.5305 0
M  V30 10108 C 969.285 3.36578 -1.20207 0
M  V30 10109 C 968.951 3.62732 -2.67836 0
M  V30 10110 C 967.613 3.69579 -3.08163 0
M  V30 10111 C 969.965 3.73803 -3.63209 0
M  V30 10112 C 967.293 3.84992 -4.42717 0
M  V30 10113 C 969.645 3.90735 -4.97503 0
M  V30 10114 C 968.309 3.95823 -5.37476 0
M  V30 10115 H 967.579 0.68535 -0.281737 0
M  V30 10116 H 970.226 1.38274 -1.32486 0
M  V30 10117 H 968.531 3.87687 -0.566222 0
M  V30 10118 H 970.228 3.89409 -0.957183 0
M  V30 10119 H 966.818 3.58031 -2.35609 0
M  V30 10120 H 971.002 3.67829 -3.3319 0
M  V30 10121 H 966.258 3.87181 -4.73182 0
M  V30 10122 H 970.432 3.98243 -5.71293 0
M  V30 10123 H 968.059 4.07518 -6.41742 0
M  V30 10124 N 969.634 0.838594 1.33437 0
M  V30 10125 C 970.88 0.444042 1.98494 0
M  V30 10126 C 971.235 -0.985759 1.65229 0
M  V30 10127 O 970.528 -1.67972 0.921736 0
M  V30 10128 C 970.722 0.601425 3.52303 0
M  V30 10129 C 970.551 2.04497 4.00513 0
M  V30 10130 C 969.321 2.68015 4.28364 0
M  V30 10131 C 971.519 3.01367 4.16752 0
M  V30 10132 N 969.501 4.03448 4.62713 0
M  V30 10133 C 970.872 4.21745 4.54457 0
M  V30 10134 C 972.927 2.97776 3.99041 0
M  V30 10135 C 971.63 5.39009 4.76301 0
M  V30 10136 C 973.656 4.14269 4.22061 0
M  V30 10137 C 973.018 5.33402 4.60067 0
M  V30 10138 H 969.117 0.210906 0.753022 0
M  V30 10139 H 971.701 1.0866 1.61558 0
M  V30 10140 H 969.872 -0.0113326 3.88398 0
M  V30 10141 H 971.604 0.178343 4.04307 0
M  V30 10142 H 968.359 2.19153 4.19844 0
M  V30 10143 H 968.783 4.73264 4.84098 0
M  V30 10144 H 973.425 2.06801 3.68773 0
M  V30 10145 H 971.143 6.30529 5.0543 0
M  V30 10146 H 974.729 4.12908 4.09876 0
M  V30 10147 H 973.609 6.22045 4.77525 0
M  V30 10148 N 971.112 -1.45937 0.595003 0
M  V30 10149 C 972.062 -2.27491 -0.152331 0
M  V30 10150 C 973.046 -1.36591 -0.850396 0
M  V30 10151 O 974.238 -1.60675 -0.742462 0
M  V30 10152 C 971.367 -3.23203 -1.15735 0
M  V30 10153 C 970.453 -4.2159 -0.46077 0
M  V30 10154 N 970.844 -5.03416 0.490555 0
M  V30 10155 C 969.142 -4.40313 -0.709949 0
M  V30 10156 C 969.843 -5.74714 0.898825 0
M  V30 10157 N 968.819 -5.43046 0.24529 0
M  V30 10158 H 972.621 -2.8815 0.578526 0
M  V30 10159 H 970.135 -1.56936 0.417716 0
M  V30 10160 H 972.132 -3.8035 -1.70704 0
M  V30 10161 H 970.792 -2.64104 -1.8889 0
M  V30 10162 H 971.803 -5.10597 0.866692 0
M  V30 10163 H 968.48 -3.92351 -1.42713 0
M  V30 10164 H 969.87 -6.50487 1.68273 0
M  V30 10165 N 972.59 -0.333456 -1.54032 0
M  V30 10166 C 973.815 0.270517 -2.05628 0
M  V30 10167 C 974.24 1.44231 -1.20744 0
M  V30 10168 O 973.598 1.79975 -0.218822 0
M  V30 10169 C 973.646 0.673251 -3.54259 0
M  V30 10170 O 972.75 1.77448 -3.72271 0
M  V30 10171 H 972.091 0.0469753 -0.662336 0
M  V30 10172 H 974.621 -0.484739 -1.98775 0
M  V30 10173 H 974.631 0.953194 -3.96709 0
M  V30 10174 H 973.306 -0.183747 -4.15494 0
M  V30 10175 H 971.883 1.49259 -3.41725 0
M  V30 10176 N 974.068 1.57479 -0.061844 0
M  V30 10177 C 975.015 2.12152 0.908862 0
M  V30 10178 C 975.985 1.03152 1.30188 0
M  V30 10179 O 977.17 1.3076 1.38948 0
M  V30 10180 C 974.31 2.6796 2.17465 0
M  V30 10181 C 973.423 3.91083 1.83517 0
M  V30 10182 C 972.558 4.35169 3.04633 0
M  V30 10183 C 971.597 5.50964 2.66655 0
M  V30 10184 N 970.734 5.90055 3.80499 0
M  V30 10185 H 975.574 2.94797 0.435743 0
M  V30 10186 H 973.111 1.45686 0.203445 0
M  V30 10187 H 975.069 2.98421 2.91548 0
M  V30 10188 H 973.699 1.88096 2.62335 0
M  V30 10189 H 972.751 3.67146 0.995381 0
M  V30 10190 H 974.063 4.75214 1.51569 0
M  V30 10191 H 973.217 4.67239 3.87005 0
M  V30 10192 H 971.956 3.49871 3.39767 0
M  V30 10193 H 970.961 5.18556 1.82703 0
M  V30 10194 H 972.186 6.37986 2.32702 0
M  V30 10195 H 970.132 5.07708 4.15414 0
M  V30 10196 H 970.049 6.68903 3.52285 0
M  V30 10197 H 971.317 6.26744 4.63479 0
M  V30 10198 N 975.546 -0.211634 1.56173 0
M  V30 10199 C 976.792 -0.931479 1.80818 0
M  V30 10200 C 977.147 -1.81571 0.636373 0
M  V30 10201 O 976.44 -1.8801 -0.369182 0
M  V30 10202 C 976.634 -1.79657 3.08963 0
M  V30 10203 C 976.463 -0.997577 4.38496 0
M  V30 10204 C 975.233 -0.688558 5.00587 0
M  V30 10205 C 977.431 -0.358138 5.13052 0
M  V30 10206 N 975.413 0.130797 6.13761 0
M  V30 10207 C 976.784 0.324159 6.19152 0
M  V30 10208 C 978.839 -0.272178 4.97156 0
M  V30 10209 C 977.542 1.08421 7.11082 0
M  V30 10210 C 979.568 0.474428 5.89494 0
M  V30 10211 C 978.93 1.14523 6.95028 0
M  V30 10212 H 975.029 -0.32079 0.713174 0
M  V30 10213 H 977.613 -0.201528 1.93654 0
M  V30 10214 H 975.784 -2.49826 2.97392 0
M  V30 10215 H 977.516 -2.45464 3.2176 0
M  V30 10216 H 974.271 -1.00899 4.62727 0
M  V30 10217 H 974.695 0.5296 6.74925 0
M  V30 10218 H 979.337 -0.776448 4.15609 0
M  V30 10219 H 977.055 1.59996 7.92103 0
M  V30 10220 H 980.641 0.542076 5.79269 0
M  V30 10221 H 979.521 1.71371 7.65246 0
M  V30 10222 N 977.024 -1.50153 -0.478725 0
M  V30 10223 C 978.249 -1.64776 -1.2595 0
M  V30 10224 C 978.674 -0.327794 -1.85222 0
M  V30 10225 O 978.032 0.707418 -1.66929 0
M  V30 10226 C 978.08 -2.73551 -2.34952 0
M  V30 10227 O 977.184 -2.34273 -3.39397 0
M  V30 10228 H 976.525 -0.550769 -0.370877 0
M  V30 10229 H 979.055 -1.96482 -0.570605 0
M  V30 10230 H 979.065 -2.96397 -2.8038 0
M  V30 10231 H 977.74 -3.69354 -1.91181 0
M  V30 10232 H 976.317 -2.21844 -2.99733 0
M  V30 10233 N 978.502 0.731368 -1.39602 0
M  V30 10234 C 979.727 1.52567 -1.40492 0
M  V30 10235 C 980.152 1.881 -0.00228828 0
M  V30 10236 O 979.51 1.52167 0.985643 0
M  V30 10237 C 979.558 2.78749 -2.2876 0
M  V30 10238 O 978.662 3.7482 -1.71999 0
M  V30 10239 H 978.003 0.460601 -0.478271 0
M  V30 10240 H 980.533 0.902042 -1.83642 0
M  V30 10241 H 980.543 3.27446 -2.43399 0
M  V30 10242 H 979.218 2.5222 -3.30693 0
M  V30 10243 H 977.795 3.33604 -1.66622 0
M  V30 10244 N 979.98 1.24838 0.961938 0
M  V30 10245 C 981.391 1.08369 1.5203 0
M  V30 10246 C 981.742 -0.343005 1.93178 0
M  V30 10247 O 980.867 -1.2321 1.779 0
M  V30 10248 C 981.462 1.96102 2.76278 0
M  V30 10249 C 980.021 1.8384 3.28451 0
M  V30 10250 C 979.168 1.9069 2.01327 0
M  V30 10251 H 982.119 1.38231 0.779613 0
M  V30 10252 H 982.14 1.4967 3.49827 0
M  V30 10253 H 981.652 2.99931 2.46298 0
M  V30 10254 H 979.753 0.828653 3.63269 0
M  V30 10255 H 979.866 2.68251 3.96961 0
M  V30 10256 H 978.23 1.34488 2.16299 0
M  V30 10257 H 979.013 2.96111 1.73705 0
M  V30 10258 N 981.458 -1.16348 1.06306 0
M  V30 10259 C 982.421 -2.18941 0.678053 0
M  V30 10260 C 983.421 -1.58409 -0.276277 0
M  V30 10261 O 984.611 -1.74101 -0.0586435 0
M  V30 10262 C 981.743 -3.409 -0.00228684 0
M  V30 10263 H 982.936 -2.54516 1.58624 0
M  V30 10264 H 980.489 -1.30625 0.858298 0
M  V30 10265 H 981.224 -3.10881 -0.923212 0
M  V30 10266 H 981.009 -3.86089 0.683949 0
M  V30 10267 H 982.499 -4.16806 -0.257374 0
M  V30 10268 N 982.937 -0.845659 -1.3299 0
M  V30 10269 C 983.887 -0.2557 -2.26562 0
M  V30 10270 C 984.871 0.593245 -1.49564 0
M  V30 10271 O 986.063 0.444101 -1.71338 0
M  V30 10272 C 983.192 0.562573 -3.38659 0
M  V30 10273 C 982.278 -0.298259 -4.2305 0
M  V30 10274 N 982.669 -1.38023 -4.86604 0
M  V30 10275 C 980.967 -0.0864539 -4.45916 0
M  V30 10276 C 981.668 -1.90907 -5.49481 0
M  V30 10277 N 980.644 -1.20955 -5.29973 0
M  V30 10278 H 984.446 -1.083 -2.73219 0
M  V30 10279 H 981.96 -0.690823 -1.46974 0
M  V30 10280 H 983.957 1.00157 -4.0469 0
M  V30 10281 H 982.617 1.38777 -2.93549 0
M  V30 10282 H 983.628 -1.76314 -4.86964 0
M  V30 10283 H 980.305 0.70475 -4.11509 0
M  V30 10284 H 981.695 -2.81552 -6.10064 0
M  V30 10285 N 984.415 1.45619 -0.602734 0
M  V30 10286 C 985.325 2.34288 0.120902 0
M  V30 10287 C 986.341 1.50952 0.865414 0
M  V30 10288 O 987.517 1.83768 0.824094 0
M  V30 10289 C 984.582 3.28489 1.10888 0
M  V30 10290 C 983.643 4.2773 0.366853 0
M  V30 10291 C 982.876 5.17429 1.30776 0
M  V30 10292 O 983.099 5.10459 2.54535 0
M  V30 10293 O 982.033 5.96459 0.807464 0
M  V30 10294 H 985.859 2.97559 -0.60765 0
M  V30 10295 H 983.444 1.44922 -0.363019 0
M  V30 10296 H 985.326 3.86549 1.67803 0
M  V30 10297 H 984.001 2.67789 1.81854 0
M  V30 10298 H 982.908 3.73299 -0.244643 0
M  V30 10299 H 984.241 4.91271 -0.302226 0
M  V30 10300 N 985.893 0.34162 1.53853 0
M  V30 10301 C 987.141 -0.254979 2.00485 0
M  V30 10302 C 987.462 -1.51222 1.23114 0
M  V30 10303 O 986.732 -1.92966 0.337787 0
M  V30 10304 H 985.312 -0.0972084 0.740648 0
M  V30 10305 H 987.974 0.462332 1.89337 0
M  V30 10306 H 987.07 -0.498778 3.08089 0
M  V30 10307 N 987.371 -1.57444 0.0701946 0
M  V30 10308 C 988.782 -1.80875 -0.462709 0
M  V30 10309 C 989.133 -0.983975 -1.69742 0
M  V30 10310 O 988.258 -0.206027 -2.15417 0
M  V30 10311 C 988.853 -3.28062 -0.84623 0
M  V30 10312 C 987.412 -3.52345 -1.32401 0
M  V30 10313 C 986.559 -2.7558 -0.308399 0
M  V30 10314 H 989.51 -1.55917 0.295907 0
M  V30 10315 H 989.531 -3.40023 -1.70776 0
M  V30 10316 H 989.043 -3.88064 0.0526033 0
M  V30 10317 H 987.144 -2.97645 -2.24139 0
M  V30 10318 H 987.257 -4.6104 -1.30304 0
M  V30 10319 H 985.621 -2.4229 -0.785337 0
M  V30 10320 H 986.404 -3.38319 0.582679 0
M  V30 10321 N 988.849 0.203349 -1.56283 0
M  V30 10322 C 989.799 1.25595 -1.90289 0
M  V30 10323 C 990.783 1.41403 -0.767732 0
M  V30 10324 O 991.975 1.43912 -1.03046 0
M  V30 10325 C 989.104 2.60255 -2.23881 0
M  V30 10326 C 988.19 2.48274 -3.43833 0
M  V30 10327 N 988.581 2.05963 -4.61966 0
M  V30 10328 C 986.879 2.79188 -3.47808 0
M  V30 10329 C 987.58 2.05674 -5.44126 0
M  V30 10330 N 986.556 2.46862 -4.84314 0
M  V30 10331 H 990.358 0.920016 -2.79129 0
M  V30 10332 H 987.872 0.411829 -1.57091 0
M  V30 10333 H 989.869 3.36274 -2.46425 0
M  V30 10334 H 988.529 2.94678 -1.36363 0
M  V30 10335 H 989.54 1.76803 -4.86787 0
M  V30 10336 H 986.217 3.17863 -2.70684 0
M  V30 10337 H 987.607 1.74932 -6.48728 0
M  V30 10338 N 990.327 1.50405 0.470755 0
M  V30 10339 C 991.277 1.65681 1.56633 0
M  V30 10340 C 992.261 0.511424 1.52556 0
M  V30 10341 O 993.453 0.765844 1.59574 0
M  V30 10342 C 990.582 1.7546 2.95074 0
M  V30 10343 C 989.668 2.95676 3.04034 0
M  V30 10344 N 990.059 4.1935 2.82807 0
M  V30 10345 C 988.357 2.94241 3.35169 0
M  V30 10346 C 989.058 5.0032 2.96741 0
M  V30 10347 N 988.034 4.34282 3.26956 0
M  V30 10348 H 991.836 2.58994 1.38922 0
M  V30 10349 H 989.35 1.47593 0.67749 0
M  V30 10350 H 991.347 1.84508 3.73848 0
M  V30 10351 H 990.007 0.833057 3.13832 0
M  V30 10352 H 991.018 4.48842 2.58382 0
M  V30 10353 H 987.695 2.11587 3.59913 0
M  V30 10354 H 989.085 6.08664 2.84566 0
M  V30 10355 N 991.805 -0.723954 1.39988 0
M  V30 10356 C 992.735 -1.85103 1.42335 0
M  V30 10357 C 993.716 -1.6769 0.285297 0
M  V30 10358 O 994.901 -1.87846 0.492716 0
M  V30 10359 C 992.031 -3.22972 1.27697 0
M  V30 10360 C 990.985 -3.55041 2.39018 0
M  V30 10361 C 990.311 -4.91965 2.09462 0
M  V30 10362 C 991.611 -3.56889 3.8135 0
M  V30 10363 H 993.305 -1.83396 2.36656 0
M  V30 10364 H 990.851 -0.880926 1.13911 0
M  V30 10365 H 992.804 -4.01503 1.27958 0
M  V30 10366 H 991.528 -3.25233 0.298487 0
M  V30 10367 H 990.187 -2.78845 2.37993 0
M  V30 10368 H 989.835 -4.90819 1.10025 0
M  V30 10369 H 989.535 -5.14389 2.84038 0
M  V30 10370 H 991.059 -5.7284 2.11391 0
M  V30 10371 H 992.473 -4.25476 3.84243 0
M  V30 10372 H 990.87 -3.90836 4.55376 0
M  V30 10373 H 991.94 -2.56452 4.11534 0
M  V30 10374 N 993.283 -1.25346 -0.955304 0
M  V30 10375 C 994.511 -1.12793 -1.73451 0
M  V30 10376 C 994.926 0.318344 -1.86097 0
M  V30 10377 O 994.283 1.21897 -1.35821 0
M  V30 10378 C 994.334 -1.77603 -3.14864 0
M  V30 10379 O 994.055 -3.16577 -3.02837 0
M  V30 10380 C 995.556 -1.70821 -4.09066 0
M  V30 10381 H 992.776 -0.393457 -0.543537 0
M  V30 10382 H 995.32 -1.65696 -1.19855 0
M  V30 10383 H 993.475 -1.28673 -3.65407 0
M  V30 10384 H 993.889 -3.48433 -3.92039 0
M  V30 10385 H 995.363 -2.2083 -5.05903 0
M  V30 10386 H 995.84 -0.671858 -4.34031 0
M  V30 10387 H 996.446 -2.19237 -3.64438 0
M  V30 10388 N 994.761 1.15782 -1.06922 0
M  V30 10389 C 995.691 2.22538 -0.707045 0
M  V30 10390 C 996.672 1.67371 0.303471 0
M  V30 10391 O 997.857 1.9339 0.177189 0
M  V30 10392 C 994.987 3.47158 -0.0994269 0
M  V30 10393 C 993.941 4.15257 -1.03661 0
M  V30 10394 C 993.267 5.33902 -0.291974 0
M  V30 10395 C 994.567 4.65516 -2.36837 0
M  V30 10396 H 996.261 2.53089 -1.59958 0
M  V30 10397 H 993.807 1.21649 -0.770552 0
M  V30 10398 H 995.76 4.21073 0.165852 0
M  V30 10399 H 994.484 3.15926 0.828155 0
M  V30 10400 H 993.143 3.43276 -1.28674 0
M  V30 10401 H 992.791 4.98926 0.638928 0
M  V30 10402 H 992.491 5.80407 -0.916613 0
M  V30 10403 H 994.015 6.1059 -0.0343915 0
M  V30 10404 H 995.429 5.30981 -2.16175 0
M  V30 10405 H 993.826 5.22666 -2.94856 0
M  V30 10406 H 994.896 3.81387 -2.99453 0
M  V30 10407 N 996.239 0.8527 1.3254 0
M  V30 10408 C 997.149 0.298744 2.3269 0
M  V30 10409 C 998.165 -0.582418 1.63963 0
M  V30 10410 O 999.341 -0.483253 1.95516 0
M  V30 10411 C 996.406 -0.505453 3.42996 0
M  V30 10412 C 995.467 0.401618 4.27417 0
M  V30 10413 C 994.7 -0.364294 5.32455 0
M  V30 10414 O 994.923 -1.59448 5.47661 0
M  V30 10415 O 993.857 0.268892 6.01299 0
M  V30 10416 H 997.683 1.12843 2.81958 0
M  V30 10417 H 995.268 0.615584 1.36128 0
M  V30 10418 H 997.15 -0.961974 4.10273 0
M  V30 10419 H 995.825 -1.31197 2.95921 0
M  V30 10420 H 994.732 0.906274 3.62957 0
M  V30 10421 H 996.065 1.17327 4.78012 0
M  V30 10422 N 997.718 -1.45297 0.610449 0
M  V30 10423 C 998.648 -2.33311 -0.0939698 0
M  V30 10424 C 999.629 -1.46999 -0.85588 0
M  V30 10425 O 1000.81 -1.75764 -0.825865 0
M  V30 10426 C 997.944 -3.29751 -1.09003 0
M  V30 10427 C 996.898 -4.2572 -0.441146 0
M  V30 10428 C 996.224 -5.11873 -1.54566 0
M  V30 10429 C 997.524 -5.1837 0.639489 0
M  V30 10430 H 999.218 -2.92459 0.640941 0
M  V30 10431 H 996.764 -1.40631 0.309675 0
M  V30 10432 H 998.717 -3.90195 -1.59141 0
M  V30 10433 H 997.441 -2.68768 -1.85557 0
M  V30 10434 H 996.1 -3.66579 0.0393908 0
M  V30 10435 H 995.748 -4.47256 -2.30155 0
M  V30 10436 H 995.448 -5.76886 -1.11698 0
M  V30 10437 H 996.972 -5.75185 -2.04925 0
M  V30 10438 H 998.386 -5.7287 0.22207 0
M  V30 10439 H 996.783 -5.91876 0.990089 0
M  V30 10440 H 997.853 -4.60627 1.51495 0
M  V30 10441 N 999.196 -0.349774 -1.5367 0
M  V30 10442 C 1000.47 0.300419 -1.93279 0
M  V30 10443 C 1000.85 1.67721 -1.28191 0
M  V30 10444 O 1000.2 2.24319 -0.435127 0
M  V30 10445 C 1000.41 0.366466 -3.47071 0
M  V30 10446 C 1001.76 0.614349 -4.20132 0
M  V30 10447 O 1002.78 0.448327 -3.53367 0
M  V30 10448 O 1001.64 0.936421 -5.38417 0
M  V30 10449 H 998.736 0.176599 -0.807924 0
M  V30 10450 H 1001.28 -0.401405 -1.64884 0
M  V30 10451 H 1000.05 -0.599455 -3.86681 0
M  V30 10452 H 999.677 1.11482 -3.81651 0
M  V30 10453 N 1000.67 1.57404 -0.0785433 0
M  V30 10454 C 1001.62 2.14316 0.903949 0
M  V30 10455 C 1002.62 1.08176 1.30362 0
M  V30 10456 O 1003.82 1.26546 1.28008 0
M  V30 10457 H 1000.2 0.685367 0.309477 0
M  V30 10458 H 1002.17 2.95719 0.399081 0
M  V30 10459 C 1000.92 2.72504 2.15956 0
M  V30 10460 H 1000.24 3.53853 1.86087 0
M  V30 10461 H 1001.68 3.15914 2.82798 0
M  V30 10462 C 1000.14 1.6759 2.92259 0
M  V30 10463 O 1000.67 1.10492 3.86205 0
M  V30 10464 N 998.875 1.38467 2.5549 0
M  V30 10465 H 998.422 1.85088 1.79166 0
M  V30 10466 H 998.38 0.685053 3.06846 0
M  V30 10467 N 1002.15 -0.195058 1.56388 0
M  V30 10468 C 1003.4 -0.9168 1.80894 0
M  V30 10469 C 1003.73 -1.82907 0.652592 0
M  V30 10470 O 1003.01 -1.91382 -0.346853 0
M  V30 10471 C 1003.29 -1.733 3.15657 0
M  V30 10472 C 1003.14 -0.845449 4.41783 0
M  V30 10473 C 1004.46 -2.70557 3.47112 0
M  V30 10474 H 1001.58 -0.331861 0.658056 0
M  V30 10475 H 1004.22 -0.184174 1.89105 0
M  V30 10476 H 1002.37 -2.3576 3.08787 0
M  V30 10477 H 1004.04 -0.235557 4.60698 0
M  V30 10478 H 1002.29 -0.152172 4.33533 0
M  V30 10479 H 1002.96 -1.45152 5.32574 0
M  V30 10480 H 1005.43 -2.1823 3.54281 0
M  V30 10481 H 1004.31 -3.24749 4.42526 0
M  V30 10482 H 1004.57 -3.49605 2.70608 0
M  V30 10483 N 1003.63 -1.50653 -0.462772 0
M  V30 10484 C 1004.86 -1.65586 -1.23551 0
M  V30 10485 C 1005.27 -0.342012 -1.86083 0
M  V30 10486 O 1004.61 0.686893 -1.70374 0
M  V30 10487 C 1004.67 -2.69555 -2.37867 0
M  V30 10488 C 1004.34 -4.1288 -1.95906 0
M  V30 10489 C 1005.33 -4.98483 -1.47685 0
M  V30 10490 C 1003.02 -4.58843 -2.04373 0
M  V30 10491 C 1005.01 -6.281 -1.08484 0
M  V30 10492 C 1002.7 -5.88464 -1.64783 0
M  V30 10493 C 1003.7 -6.72918 -1.16918 0
M  V30 10494 O 1003.39 -8.00119 -0.778798 0
M  V30 10495 H 1003.12 -0.559438 -0.37948 0
M  V30 10496 H 1005.67 -1.9768 -0.557816 0
M  V30 10497 H 1003.9 -2.3272 -3.08834 0
M  V30 10498 H 1005.59 -2.73624 -2.99808 0
M  V30 10499 H 1006.36 -4.64186 -1.40558 0
M  V30 10500 H 1002.24 -3.93247 -2.40577 0
M  V30 10501 H 1005.78 -6.93972 -0.710524 0
M  V30 10502 H 1001.68 -6.22281 -1.71571 0
M  V30 10503 H 1002.44 -8.1346 -0.906911 0
M  V30 10504 N 1005.11 0.71652 -1.4037 0
M  V30 10505 C 1006.02 1.86074 -1.42876 0
M  V30 10506 C 1007.03 1.71005 -0.321475 0
M  V30 10507 O 1008.21 1.93286 -0.565909 0
M  V30 10508 C 1005.28 3.21862 -1.28863 0
M  V30 10509 C 1004.34 3.49193 -2.49726 0
M  V30 10510 C 1003.57 4.78502 -2.36372 0
M  V30 10511 O 1003.79 5.53529 -1.37703 0
M  V30 10512 O 1002.73 5.06147 -3.25728 0
M  V30 10513 H 1006.55 1.86916 -2.39366 0
M  V30 10514 H 1004.14 0.866818 -1.21683 0
M  V30 10515 H 1006.02 4.02972 -1.23253 0
M  V30 10516 H 1004.69 3.2175 -0.354783 0
M  V30 10517 H 1003.6 2.68095 -2.60913 0
M  V30 10518 H 1004.93 3.54101 -3.41868 0
M  V30 10519 N 1006.59 1.25851 0.948643 0
M  V30 10520 C 1007.84 1.10347 1.68838 0
M  V30 10521 C 1008.15 -0.354262 1.92365 0
M  V30 10522 O 1009.35 -0.629847 2.64093 0
M  V30 10523 C 1007.81 1.92659 3.03991 0
M  V30 10524 C 1007.42 3.42962 2.88238 0
M  V30 10525 C 1009.16 1.85743 3.81707 0
M  V30 10526 C 1007.07 4.17547 4.18818 0
M  V30 10527 H 1006 0.409342 0.63321 0
M  V30 10528 H 1008.65 1.50098 1.05559 0
M  V30 10529 H 1007.03 1.45736 3.68208 0
M  V30 10530 H 1008.21 3.97601 2.32917 0
M  V30 10531 H 1006.52 3.51035 2.23972 0
M  V30 10532 H 1009.12 2.38758 4.78434 0
M  V30 10533 H 1009.46 0.826568 4.08012 0
M  V30 10534 H 1009.99 2.30449 3.2425 0
M  V30 10535 H 1006.73 5.21072 3.97699 0
M  V30 10536 H 1006.25 3.6769 4.73882 0
M  V30 10537 H 1007.93 4.25589 4.87322 0
M  V30 10538 N 1008.06 -1.15214 1.07534 0
M  V30 10539 C 1009.01 -2.22078 0.69168 0
M  V30 10540 C 1010.01 -1.66751 -0.298382 0
M  V30 10541 O 1011.21 -1.7927 -0.161897 0
M  V30 10542 H 1007.59 -0.723347 0.205604 0
M  V30 10543 H 1009.56 -2.51716 1.60256 0
M  V30 10544 C 1008.31 -3.47534 0.107546 0
M  V30 10545 H 1007.63 -3.90429 0.860522 0
M  V30 10546 H 1009.07 -4.23821 -0.123215 0
M  V30 10547 C 1007.53 -3.16583 -1.15226 0
M  V30 10548 O 1008.06 -3.33551 -2.23845 0
M  V30 10549 N 1006.27 -2.70611 -1.05915 0
M  V30 10550 H 1005.81 -2.57004 -0.175198 0
M  V30 10551 H 1005.77 -2.50277 -1.90287 0
M  V30 10552 N 1009.54 -0.859717 -1.32086 0
M  V30 10553 C 1010.49 -0.306042 -2.28762 0
M  V30 10554 C 1011.46 0.589801 -1.55276 0
M  V30 10555 O 1012.64 0.523633 -1.83474 0
M  V30 10556 C 1009.78 0.495256 -3.41528 0
M  V30 10557 C 1008.9 -0.426947 -4.29885 0
M  V30 10558 C 1008.03 0.387474 -5.29785 0
M  V30 10559 C 1007.07 -0.531807 -6.09785 0
M  V30 10560 N 1006.21 0.245741 -7.0167 0
M  V30 10561 H 1011.05 -1.1357 -2.7551 0
M  V30 10562 H 1008.59 -0.571468 -1.35546 0
M  V30 10563 H 1010.54 0.97551 -4.05635 0
M  V30 10564 H 1009.17 1.28969 -2.95917 0
M  V30 10565 H 1008.23 -1.02561 -3.66313 0
M  V30 10566 H 1009.54 -1.13226 -4.85779 0
M  V30 10567 H 1008.69 0.930677 -5.99519 0
M  V30 10568 H 1007.43 1.12612 -4.74521 0
M  V30 10569 H 1006.44 -1.08685 -5.3895 0
M  V30 10570 H 1007.66 -1.26915 -6.67135 0
M  V30 10571 H 1005.61 0.967391 -6.48828 0
M  V30 10572 H 1005.52 -0.400432 -7.54939 0
M  V30 10573 H 1006.79 0.770507 -7.75683 0
M  V30 10574 N 1011.02 1.44971 -0.618145 0
M  V30 10575 C 1012.27 2.02458 -0.117656 0
M  V30 10576 C 1012.6 1.48413 1.25248 0
M  V30 10577 O 1011.87 0.662997 1.82851 0
M  V30 10578 C 1012.16 3.59987 -0.0901897 0
M  V30 10579 C 1012.01 4.24343 -1.49175 0
M  V30 10580 C 1013.33 4.36099 0.592121 0
M  V30 10581 H 1010.45 0.735672 -0.0442291 0
M  V30 10582 H 1013.09 1.727 -0.792138 0
M  V30 10583 H 1011.24 3.85471 0.484175 0
M  V30 10584 H 1012.91 4.10009 -2.114 0
M  V30 10585 H 1011.16 3.82337 -2.04941 0
M  V30 10586 H 1011.83 5.33298 -1.42468 0
M  V30 10587 H 1014.3 4.1597 0.103813 0
M  V30 10588 H 1013.18 5.45822 0.580481 0
M  V30 10589 H 1013.44 4.09746 1.66015 0
M  V30 10590 N 1012.5 0.357919 1.53482 0
M  V30 10591 C 1013.45 -0.49217 2.25491 0
M  V30 10592 C 1014.42 -1.08382 1.25867 0
M  V30 10593 O 1015.6 -1.11775 1.54632 0
M  V30 10594 C 1012.74 -1.6299 3.04185 0
M  V30 10595 C 1011.85 -1.06416 4.18688 0
M  V30 10596 C 1010.99 -2.17037 4.84839 0
M  V30 10597 C 1010.03 -1.57889 5.91386 0
M  V30 10598 N 1009.16 -2.6231 6.51259 0
M  V30 10599 H 1014 0.128412 2.97723 0
M  V30 10600 H 1011.54 0.0751423 1.46908 0
M  V30 10601 H 1013.5 -2.29993 3.48079 0
M  V30 10602 H 1012.13 -2.22125 2.34223 0
M  V30 10603 H 1011.18 -0.284635 3.79334 0
M  V30 10604 H 1012.49 -0.591654 4.95279 0
M  V30 10605 H 1011.65 -2.91876 5.31877 0
M  V30 10606 H 1010.39 -2.67636 4.07703 0
M  V30 10607 H 1009.39 -0.815605 5.43717 0
M  V30 10608 H 1010.62 -1.08123 6.70437 0
M  V30 10609 H 1008.56 -3.12137 5.7698 0
M  V30 10610 H 1008.48 -2.19724 7.23365 0
M  V30 10611 H 1009.75 -3.36875 7.02948 0
M  V30 10612 N 1013.98 -1.5736 0.0868897 0
M  V30 10613 C 1015.21 -1.981 -0.586498 0
M  V30 10614 C 1015.61 -0.96455 -1.62767 0
M  V30 10615 O 1014.96 0.0551801 -1.83617 0
M  V30 10616 C 1015.02 -3.35193 -1.29947 0
M  V30 10617 C 1014.68 -4.55157 -0.410012 0
M  V30 10618 C 1015.68 -5.18797 0.338532 0
M  V30 10619 C 1013.37 -5.01212 -0.33047 0
M  V30 10620 C 1015.36 -6.26854 1.15468 0
M  V30 10621 C 1013.05 -6.09138 0.48934 0
M  V30 10622 C 1014.04 -6.71823 1.23057 0
M  V30 10623 O 1013.73 -7.77669 2.03683 0
M  V30 10624 H 1013.46 -0.656166 -0.16255 0
M  V30 10625 H 1016.02 -2.04773 0.160379 0
M  V30 10626 H 1014.25 -3.25179 -2.09274 0
M  V30 10627 H 1015.94 -3.60435 -1.86658 0
M  V30 10628 H 1016.7 -4.84151 0.286764 0
M  V30 10629 H 1012.58 -4.52188 -0.897058 0
M  V30 10630 H 1016.13 -6.75712 1.73374 0
M  V30 10631 H 1012.02 -6.43215 0.542618 0
M  V30 10632 H 1012.79 -7.94618 1.96277 0
M  V30 10633 N 1015.45 0.186762 -1.56489 0
M  V30 10634 C 1016.42 1.21511 -1.94339 0
M  V30 10635 C 1017.42 1.38001 -0.82537 0
M  V30 10636 O 1018.61 1.3567 -1.09266 0
M  V30 10637 C 1015.74 2.583 -2.22472 0
M  V30 10638 H 1016.93 0.891371 -2.86347 0
M  V30 10639 H 1014.49 0.428612 -1.50308 0
M  V30 10640 H 1015.22 2.95715 -1.33129 0
M  V30 10641 H 1015.01 2.47701 -3.03951 0
M  V30 10642 H 1016.5 3.32441 -2.5273 0
M  V30 10643 N 1016.93 1.50896 0.454776 0
M  V30 10644 C 1018.34 1.55372 1.0352 0
M  V30 10645 C 1018.69 0.366822 1.9274 0
M  V30 10646 O 1017.82 -0.518444 2.10098 0
M  V30 10647 C 1018.41 2.81574 1.88418 0
M  V30 10648 C 1016.97 2.88679 2.4154 0
M  V30 10649 C 1016.12 2.49847 1.20298 0
M  V30 10650 H 1019.07 1.56924 0.236729 0
M  V30 10651 H 1019.09 2.64352 2.73676 0
M  V30 10652 H 1018.6 3.67941 1.23455 0
M  V30 10653 H 1016.71 2.06702 3.10008 0
M  V30 10654 H 1016.82 3.91944 2.7553 0
M  V30 10655 H 1015.18 2.02651 1.54288 0
M  V30 10656 H 1015.97 3.3854 0.569723 0
M  V30 10657 N 1018.41 -0.709066 1.40748 0
M  V30 10658 C 1019.83 -1.01797 1.22921 0
M  V30 10659 C 1020.03 -2.01205 0.109011 0
M  V30 10660 O 1019.08 -2.46854 -0.530987 0
M  V30 10661 C 1020.4 -1.55546 2.57344 0
M  V30 10662 C 1021.94 -1.67498 2.64412 0
M  V30 10663 C 1022.42 -2.24652 3.99119 0
M  V30 10664 N 1023.91 -2.3203 4.00895 0
M  V30 10665 C 1024.64 -2.7725 5.01917 0
M  V30 10666 N 1024.14 -3.22174 6.13332 0
M  V30 10667 N 1025.93 -2.76692 4.89283 0
M  V30 10668 H 1018.08 -0.0502704 2.12341 0
M  V30 10669 H 1020.35 -0.0848933 0.944191 0
M  V30 10670 H 1020.05 -0.899631 3.39999 0
M  V30 10671 H 1019.93 -2.53971 2.78888 0
M  V30 10672 H 1022.31 -2.32196 1.82123 0
M  V30 10673 H 1022.4 -0.676553 2.46691 0
M  V30 10674 H 1022.04 -1.60573 4.81849 0
M  V30 10675 H 1021.97 -3.25221 4.14173 0
M  V30 10676 H 1024.46 -2.00309 3.20444 0
M  V30 10677 H 1024.77 -3.55265 6.86299 0
M  V30 10678 H 1023.12 -3.20116 6.16888 0
M  V30 10679 H 1026.31 -2.40936 4.01332 0
M  V30 10680 H 1026.48 -3.11617 5.68154 0
M  V30 10681 N 1019.89 -1.26353 -0.941956 0
M  V30 10682 C 1020.82 -1.03634 -2.04432 0
M  V30 10683 C 1021.83 0.00295864 -1.628 0
M  V30 10684 O 1023.02 -0.237029 -1.76919 0
M  V30 10685 C 1020.12 -0.547231 -3.34453 0
M  V30 10686 C 1019.3 -1.65559 -4.04857 0
M  V30 10687 C 1018.36 -1.16466 -5.13149 0
M  V30 10688 O 1017.38 -1.86158 -5.37898 0
M  V30 10689 N 1018.58 -0.0126703 -5.80499 0
M  V30 10690 H 1021.35 -1.98558 -2.24488 0
M  V30 10691 H 1018.91 -1.17728 -1.11138 0
M  V30 10692 H 1020.9 -0.203004 -4.04191 0
M  V30 10693 H 1019.47 0.308401 -3.11075 0
M  V30 10694 H 1018.69 -2.17079 -3.29044 0
M  V30 10695 H 1019.98 -2.39985 -4.48647 0
M  V30 10696 H 1019.38 0.569358 -5.62828 0
M  V30 10697 H 1017.93 0.272486 -6.5123 0
M  V30 10698 N 1021.37 1.14642 -1.08144 0
M  V30 10699 C 1022.64 1.81774 -0.72232 0
M  V30 10700 C 1023.02 1.95587 0.794294 0
M  V30 10701 O 1022.37 1.51361 1.71178 0
M  V30 10702 C 1022.58 3.1763 -1.44611 0
M  V30 10703 C 1023.93 3.93161 -1.60343 0
M  V30 10704 O 1024.95 3.2721 -1.40755 0
M  V30 10705 O 1023.81 5.11422 -1.9264 0
M  V30 10706 H 1020.91 0.785733 -0.257978 0
M  V30 10707 H 1023.45 1.21683 -1.18285 0
M  V30 10708 H 1022.23 3.02723 -2.4794 0
M  V30 10709 H 1021.85 3.85412 -0.976892 0
M  V30 10710 N 1022.85 0.866709 1.31628 0
M  V30 10711 C 1024.07 0.48956 2.01539 0
M  V30 10712 C 1024.5 -0.909556 1.64647 0
M  V30 10713 O 1023.85 -1.59959 0.853391 0
M  V30 10714 C 1023.9 0.650176 3.5469 0
M  V30 10715 O 1023.01 -0.311908 4.11219 0
M  V30 10716 H 1022.35 0.195144 0.634677 0
M  V30 10717 H 1024.88 1.16923 1.679 0
M  V30 10718 H 1024.89 0.542236 4.04381 0
M  V30 10719 H 1023.56 1.67038 3.80882 0
M  V30 10720 H 1022.14 -0.159197 3.7256 0
M  V30 10721 N 1024.32 -1.44642 0.625825 0
M  V30 10722 C 1025.27 -2.30653 -0.082259 0
M  V30 10723 C 1026.24 -1.43174 -0.842052 0
M  V30 10724 O 1027.43 -1.72082 -0.824151 0
M  V30 10725 C 1024.57 -3.2837 -1.06146 0
M  V30 10726 C 1023.68 -4.30953 -0.300638 0
M  V30 10727 C 1022.81 -5.15766 -1.27118 0
M  V30 10728 C 1021.85 -6.10061 -0.499215 0
M  V30 10729 N 1020.99 -6.87591 -1.41995 0
M  V30 10730 H 1025.83 -2.90664 0.657161 0
M  V30 10731 H 1023.37 -1.43215 0.335859 0
M  V30 10732 H 1025.32 -3.83507 -1.6425 0
M  V30 10733 H 1023.95 -2.70072 -1.76807 0
M  V30 10734 H 1023.01 -3.78331 0.396234 0
M  V30 10735 H 1024.32 -4.97892 0.300851 0
M  V30 10736 H 1023.47 -5.75394 -1.92372 0
M  V30 10737 H 1022.21 -4.48888 -1.9066 0
M  V30 10738 H 1021.22 -5.49547 0.166848 0
M  V30 10739 H 1022.44 -6.78973 0.131409 0
M  V30 10740 H 1020.39 -6.23387 -2.04267 0
M  V30 10741 H 1020.3 -7.5095 -0.872354 0
M  V30 10742 H 1021.57 -7.51746 -2.0615 0
M  V30 10743 N 1025.8 -0.366053 -1.5329 0
M  V30 10744 C 1026.75 0.495319 -2.27265 0
M  V30 10745 C 1027.74 1.08298 -1.30261 0
M  V30 10746 O 1028.95 1.02613 -1.47887 0
M  V30 10747 H 1025.32 0.178454 -0.730519 0
M  V30 10748 H 1027.3 -0.150354 -2.98021 0
M  V30 10749 C 1026.04 1.62283 -3.07505 0
M  V30 10750 H 1025.37 1.17993 -3.81992 0
M  V30 10751 H 1026.81 2.20024 -3.62444 0
M  V30 10752 C 1025.27 2.56542 -2.18375 0
M  V30 10753 O 1025.8 3.59371 -1.79486 0
M  V30 10754 N 1024 2.25742 -1.82999 0
M  V30 10755 H 1023.55 1.42159 -2.14822 0
M  V30 10756 H 1023.51 2.89064 -1.2365 0
M  V30 10757 N 1027.28 1.57312 -0.0952337 0
M  V30 10758 C 1028.53 1.93974 0.567319 0
M  V30 10759 C 1028.85 0.977805 1.68713 0
M  V30 10760 O 1028.12 0.0298944 1.95877 0
M  V30 10761 H 1026.7 0.71612 0.212558 0
M  V30 10762 H 1029.36 1.94254 -0.158598 0
M  V30 10763 H 1028.46 2.964 0.977423 0
M  V30 10764 N 1028.76 -0.17846 1.56586 0
M  V30 10765 C 1030.17 -0.529957 1.50544 0
M  V30 10766 C 1030.37 -1.85015 0.798237 0
M  V30 10767 O 1029.43 -2.49983 0.355639 0
M  V30 10768 C 1030.74 -0.569314 2.95261 0
M  V30 10769 C 1032.29 -0.657008 3.06027 0
M  V30 10770 C 1032.77 -0.727323 4.52188 0
M  V30 10771 N 1034.26 -0.790406 4.56406 0
M  V30 10772 C 1034.99 -0.865265 5.66834 0
M  V30 10773 N 1034.49 -0.901398 6.86911 0
M  V30 10774 N 1036.28 -0.903736 5.54787 0
M  V30 10775 H 1028.43 0.687304 2.00972 0
M  V30 10776 H 1030.69 0.246936 0.915274 0
M  V30 10777 H 1030.4 0.331934 3.5013 0
M  V30 10778 H 1030.27 -1.41828 3.4952 0
M  V30 10779 H 1032.66 -1.54868 2.51197 0
M  V30 10780 H 1032.74 0.218495 2.54865 0
M  V30 10781 H 1032.39 0.160067 5.07648 0
M  V30 10782 H 1032.32 -1.61887 5.01099 0
M  V30 10783 H 1034.81 -0.771054 3.6995 0
M  V30 10784 H 1035.12 -0.959494 7.6682 0
M  V30 10785 H 1033.47 -0.869795 6.89536 0
M  V30 10786 H 1036.66 -0.872459 4.59898 0
M  V30 10787 H 1036.83 -0.958615 6.4087 0
M  V30 10788 N 1030.24 -1.51135 -0.446768 0
M  V30 10789 C 1031.48 -1.62571 -1.19388 0
M  V30 10790 C 1031.8 -0.3432 -1.92566 0
M  V30 10791 O 1033 -0.336804 -2.69403 0
M  V30 10792 C 1031.46 -2.87071 -2.17068 0
M  V30 10793 C 1031.07 -4.22291 -1.49581 0
M  V30 10794 C 1032.81 -3.07862 -2.9227 0
M  V30 10795 C 1030.72 -5.3795 -2.45689 0
M  V30 10796 H 1029.65 -0.60549 -0.449331 0
M  V30 10797 H 1032.3 -1.77593 -0.461846 0
M  V30 10798 H 1030.68 -2.65662 -2.93666 0
M  V30 10799 H 1031.86 -4.54046 -0.786054 0
M  V30 10800 H 1030.17 -4.07302 -0.865677 0
M  V30 10801 H 1032.77 -3.91444 -3.64246 0
M  V30 10802 H 1033.11 -2.20559 -3.53072 0
M  V30 10803 H 1033.64 -3.29566 -2.2278 0
M  V30 10804 H 1030.38 -6.27484 -1.89591 0
M  V30 10805 H 1029.9 -5.10583 -3.14746 0
M  V30 10806 H 1031.58 -5.69517 -3.07017 0
M  V30 10807 N 1031.71 0.701592 -1.41122 0
M  V30 10808 C 1032.94 1.49049 -1.43499 0
M  V30 10809 C 1033.36 1.88761 -0.0385684 0
M  V30 10810 O 1032.71 1.56384 0.940755 0
M  V30 10811 C 1032.76 2.7569 -2.33832 0
M  V30 10812 O 1032.49 2.37653 -3.68039 0
M  V30 10813 C 1033.99 3.69479 -2.44949 0
M  V30 10814 H 1031.21 0.459519 -0.488961 0
M  V30 10815 H 1033.75 0.864318 -1.85337 0
M  V30 10816 H 1031.91 3.34559 -1.95318 0
M  V30 10817 H 1032.32 3.19241 -4.16156 0
M  V30 10818 H 1033.79 4.55139 -3.12334 0
M  V30 10819 H 1034.27 4.13553 -1.47887 0
M  V30 10820 H 1034.88 3.16517 -2.84072 0
M  V30 10821 N 1033.19 1.2685 0.935242 0
M  V30 10822 C 1034.44 1.12522 1.67878 0
M  V30 10823 C 1034.76 -0.330894 1.92172 0
M  V30 10824 O 1034.03 -1.23259 1.52263 0
M  V30 10825 H 1032.61 0.413418 0.622169 0
M  V30 10826 H 1035.27 1.59267 1.12339 0
M  V30 10827 H 1034.37 1.64853 2.65009 0
M  V30 10828 N 1034.67 -1.14067 1.0875 0
M  V30 10829 C 1035.9 -1.88767 0.839682 0
M  V30 10830 C 1036.31 -1.79024 -0.612119 0
M  V30 10831 O 1035.65 -1.14986 -1.43262 0
M  V30 10832 C 1035.71 -3.39333 1.18716 0
M  V30 10833 C 1035.38 -3.72858 2.64245 0
M  V30 10834 C 1036.37 -3.72683 3.62496 0
M  V30 10835 C 1034.06 -4.0273 3.0019 0
M  V30 10836 C 1036.05 -4.01909 4.9472 0
M  V30 10837 C 1033.74 -4.31618 4.32607 0
M  V30 10838 C 1034.74 -4.31192 5.29682 0
M  V30 10839 O 1034.43 -4.59377 6.59718 0
M  V30 10840 H 1034.16 -0.604665 0.302253 0
M  V30 10841 H 1036.71 -1.45364 1.45115 0
M  V30 10842 H 1034.94 -3.83205 0.518707 0
M  V30 10843 H 1036.63 -3.95346 0.919599 0
M  V30 10844 H 1037.4 -3.49688 3.3607 0
M  V30 10845 H 1033.28 -4.02213 2.25268 0
M  V30 10846 H 1036.82 -4.01491 5.70483 0
M  V30 10847 H 1032.72 -4.54083 4.58779 0
M  V30 10848 H 1033.49 -4.77078 6.65086 0
M  V30 10849 N 1036.15 -0.873678 -1.31166 0
M  V30 10850 C 1037.1 -0.330288 -2.28424 0
M  V30 10851 C 1038.07 0.573299 -1.55893 0
M  V30 10852 O 1039.25 0.504143 -1.84019 0
M  V30 10853 C 1036.39 0.459004 -3.42034 0
M  V30 10854 C 1035.5 -0.472519 -4.29408 0
M  V30 10855 C 1034.64 0.331261 -5.30166 0
M  V30 10856 C 1033.68 -0.596453 -6.09187 0
M  V30 10857 N 1032.81 0.171305 -7.01891 0
M  V30 10858 H 1037.65 -1.16485 -2.7429 0
M  V30 10859 H 1035.19 -0.585813 -1.34932 0
M  V30 10860 H 1037.15 0.932432 -4.06647 0
M  V30 10861 H 1035.78 1.25824 -2.97268 0
M  V30 10862 H 1034.83 -1.06441 -3.65205 0
M  V30 10863 H 1036.14 -1.18372 -4.84551 0
M  V30 10864 H 1035.3 0.867038 -6.00473 0
M  V30 10865 H 1034.04 1.07573 -4.75688 0
M  V30 10866 H 1033.04 -1.14395 -5.37767 0
M  V30 10867 H 1034.27 -1.33983 -6.65752 0
M  V30 10868 H 1032.21 0.89852 -6.49817 0
M  V30 10869 H 1032.13 -0.480481 -7.54472 0
M  V30 10870 H 1033.4 0.688192 -7.76456 0
M  V30 10871 N 1037.63 1.44308 -0.633487 0
M  V30 10872 C 1038.87 2.02322 -0.139123 0
M  V30 10873 C 1039.21 1.49733 1.23667 0
M  V30 10874 O 1038.48 0.682353 1.82138 0
M  V30 10875 C 1038.76 3.59871 -0.128366 0
M  V30 10876 C 1038.62 4.22737 -1.53667 0
M  V30 10877 C 1039.94 4.36702 0.545834 0
M  V30 10878 H 1037.05 0.735161 -0.0520293 0
M  V30 10879 H 1039.7 1.7185 -0.810411 0
M  V30 10880 H 1037.85 3.85963 0.443263 0
M  V30 10881 H 1039.52 4.07744 -2.15737 0
M  V30 10882 H 1037.76 3.80142 -2.08985 0
M  V30 10883 H 1038.43 5.31757 -1.48116 0
M  V30 10884 H 1040.91 4.16057 0.0596879 0
M  V30 10885 H 1039.78 5.46407 0.522557 0
M  V30 10886 H 1040.05 4.11483 1.6166 0
M  V30 10887 N 1039.1 0.374177 1.53094 0
M  V30 10888 C 1040.33 -0.215903 2.06273 0
M  V30 10889 C 1040.75 -1.40979 1.24526 0
M  V30 10890 O 1040.11 -1.79331 0.266462 0
M  V30 10891 C 1040.16 -0.579089 3.5592 0
M  V30 10892 O 1039.26 -1.67516 3.76845 0
M  V30 10893 H 1038.61 -0.0293981 0.663349 0
M  V30 10894 H 1041.14 0.537271 1.9742 0
M  V30 10895 H 1041.15 -0.847678 3.99097 0
M  V30 10896 H 1039.82 0.293843 4.14861 0
M  V30 10897 H 1038.4 -1.40146 3.45563 0
M  V30 10898 N 1040.58 -1.57259 0.103575 0
M  V30 10899 C 1041.83 -1.94945 -0.558953 0
M  V30 10900 C 1042.16 -0.986038 -1.67305 0
M  V30 10901 O 1041.44 -0.0205464 -1.94489 0
M  V30 10902 C 1041.72 -3.42689 -1.10617 0
M  V30 10903 C 1041.57 -4.498 0.00345246 0
M  V30 10904 C 1042.89 -3.91933 -2.00191 0
M  V30 10905 H 1040.01 -0.708859 -0.201713 0
M  V30 10906 H 1042.65 -1.89183 0.176006 0
M  V30 10907 H 1040.8 -3.4773 -1.73251 0
M  V30 10908 H 1042.47 -4.56866 0.638082 0
M  V30 10909 H 1040.72 -4.28615 0.668705 0
M  V30 10910 H 1041.39 -5.50397 -0.420396 0
M  V30 10911 H 1043.86 -3.89098 -1.4745 0
M  V30 10912 H 1042.74 -4.9586 -2.35402 0
M  V30 10913 H 1043 -3.31722 -2.92255 0
M  V30 10914 N 1042.06 0.170153 -1.56679 0
M  V30 10915 C 1043.29 0.90618 -1.86556 0
M  V30 10916 C 1043.71 1.74986 -0.690044 0
M  V30 10917 O 1043.07 1.77672 0.360862 0
M  V30 10918 C 1043.12 1.75777 -3.14857 0
M  V30 10919 O 1042.22 2.85952 -2.97162 0
M  V30 10920 H 1041.56 0.253781 -0.613589 0
M  V30 10921 H 1044.09 0.167943 -2.0391 0
M  V30 10922 H 1044.1 2.15747 -3.46291 0
M  V30 10923 H 1042.78 1.13807 -4.00026 0
M  V30 10924 H 1041.35 2.49557 -2.77084 0
M  V30 10925 N 1043.54 1.5137 0.438746 0
M  V30 10926 C 1044.47 1.75528 1.53987 0
M  V30 10927 C 1045.45 0.605067 1.58975 0
M  V30 10928 O 1046.63 0.847634 1.74725 0
M  V30 10929 C 1043.76 1.87904 2.92078 0
M  V30 10930 C 1042.72 3.0333 3.01951 0
M  V30 10931 C 1042.04 3.00888 4.42007 0
M  V30 10932 C 1043.34 4.43319 2.76163 0
M  V30 10933 H 1045.04 2.67728 1.34022 0
M  V30 10934 H 1042.58 1.28831 0.643308 0
M  V30 10935 H 1044.54 2.03388 3.69068 0
M  V30 10936 H 1043.26 0.923514 3.13271 0
M  V30 10937 H 1041.92 2.87549 2.274 0
M  V30 10938 H 1041.57 2.03116 4.60166 0
M  V30 10939 H 1041.27 3.78397 4.49544 0
M  V30 10940 H 1042.79 3.18464 5.20973 0
M  V30 10941 H 1044.21 4.59458 3.42887 0
M  V30 10942 H 1042.6 5.22523 2.9511 0
M  V30 10943 H 1043.67 4.53453 1.71779 0
M  V30 10944 N 1045.02 -0.694098 1.41492 0
M  V30 10945 C 1046.29 -1.44875 1.31418 0
M  V30 10946 C 1046.67 -2.11022 -0.0575538 0
M  V30 10947 O 1046.02 -2.01799 -1.07188 0
M  V30 10948 C 1046.23 -2.46698 2.46863 0
M  V30 10949 C 1047.58 -3.11907 2.88095 0
M  V30 10950 O 1048.6 -2.57022 2.46613 0
M  V30 10951 O 1047.46 -4.11318 3.59833 0
M  V30 10952 H 1044.56 -0.645266 0.517263 0
M  V30 10953 H 1047.1 -0.724452 1.53459 0
M  V30 10954 H 1045.87 -1.96485 3.38392 0
M  V30 10955 H 1045.5 -3.26634 2.26706 0
M  V30 10956 N 1046.49 -1.27344 -0.928501 0
M  V30 10957 C 1047.74 -1.13411 -1.67279 0
M  V30 10958 C 1048.06 0.320698 -1.92345 0
M  V30 10959 O 1047.33 1.2245 -1.52915 0
M  V30 10960 H 1045.91 -0.416712 -0.619968 0
M  V30 10961 H 1048.58 -1.5986 -1.11493 0
M  V30 10962 H 1047.67 -1.66256 -2.64131 0
M  V30 10963 N 1047.97 1.13488 -1.09353 0
M  V30 10964 C 1048.88 2.2248 -0.744307 0
M  V30 10965 C 1049.9 1.72145 0.253404 0
M  V30 10966 O 1051.07 2.01176 0.0949339 0
M  V30 10967 C 1048.14 3.46286 -0.16928 0
M  V30 10968 C 1047.2 4.11516 -1.22284 0
M  V30 10969 C 1046.43 5.29412 -0.675161 0
M  V30 10970 O 1046.66 5.68185 0.502182 0
M  V30 10971 O 1045.59 5.8467 -1.42983 0
M  V30 10972 H 1049.42 2.54723 -1.65378 0
M  V30 10973 H 1047 1.21607 -0.867879 0
M  V30 10974 H 1048.88 4.2114 0.14811 0
M  V30 10975 H 1047.56 3.15745 0.713214 0
M  V30 10976 H 1046.47 3.38492 -1.59292 0
M  V30 10977 H 1047.8 4.46186 -2.07796 0
M  V30 10978 N 1049.45 0.880621 1.30701 0
M  V30 10979 C 1050.4 0.333562 2.30196 0
M  V30 10980 C 1051.39 -0.557092 1.59978 0
M  V30 10981 O 1052.6 -0.442009 1.74489 0
M  V30 10982 H 1048.97 0.0892036 0.746691 0
M  V30 10983 H 1050.95 1.18644 2.73799 0
M  V30 10984 C 1049.69 -0.440731 3.44895 0
M  V30 10985 H 1049.02 0.235353 3.99107 0
M  V30 10986 H 1050.46 -0.788676 4.166 0
M  V30 10987 C 1048.92 -1.63613 2.94504 0
M  V30 10988 O 1049.45 -2.73549 2.94166 0
M  V30 10989 N 1047.65 -1.47183 2.5057 0
M  V30 10990 H 1047.2 -0.577479 2.51044 0
M  V30 10991 H 1047.16 -2.27303 2.17211 0
M  V30 10992 N 1050.93 -1.4397 0.641131 0
M  V30 10993 C 1052.18 -2.01946 0.149629 0
M  V30 10994 C 1052.5 -1.50496 -1.23212 0
M  V30 10995 O 1051.76 -0.683453 -1.83378 0
M  V30 10996 C 1052.06 -3.5727 0.0963368 0
M  V30 10997 C 1051.72 -4.28016 1.4182 0
M  V30 10998 C 1050.39 -4.47059 1.78021 0
M  V30 10999 C 1052.74 -4.68183 2.29028 0
M  V30 11000 C 1050.07 -5.03532 3.01119 0
M  V30 11001 C 1052.42 -5.26019 3.51406 0
M  V30 11002 C 1051.08 -5.4328 3.87818 0
M  V30 11003 H 1050.35 -0.738974 0.0547531 0
M  V30 11004 H 1053 -1.72605 0.829436 0
M  V30 11005 H 1051.3 -3.86083 -0.666879 0
M  V30 11006 H 1053 -3.99871 -0.300635 0
M  V30 11007 H 1049.59 -4.13531 1.12651 0
M  V30 11008 H 1053.78 -4.53175 2.02353 0
M  V30 11009 H 1049.03 -5.15082 3.29395 0
M  V30 11010 H 1053.21 -5.56092 4.19208 0
M  V30 11011 H 1050.83 -5.86805 4.83284 0
M  V30 11012 N 1052.41 -0.382291 -1.52893 0
M  V30 11013 C 1053.64 0.202408 -2.05908 0
M  V30 11014 C 1054.05 1.4109 -1.25456 0
M  V30 11015 O 1053.41 1.80027 -0.29942 0
M  V30 11016 C 1053.46 0.579452 -3.56826 0
M  V30 11017 O 1053.18 -0.58102 -4.3423 0
M  V30 11018 C 1054.68 1.22076 -4.2616 0
M  V30 11019 H 1051.9 0.0321859 -0.670228 0
M  V30 11020 H 1054.44 -0.545494 -1.9709 0
M  V30 11021 H 1052.6 1.27726 -3.65739 0
M  V30 11022 H 1053.01 -0.272693 -5.23791 0
M  V30 11023 H 1054.49 1.435 -5.33021 0
M  V30 11024 H 1054.96 2.18605 -3.80931 0
M  V30 11025 H 1055.57 0.563922 -4.21545 0
M  V30 11026 N 1053.89 1.57202 -0.111913 0
M  V30 11027 C 1054.8 2.18475 0.854753 0
M  V30 11028 C 1055.81 1.15888 1.29792 0
M  V30 11029 O 1056.99 1.48329 1.36237 0
M  V30 11030 C 1054.05 2.76645 2.0897 0
M  V30 11031 C 1053.11 3.94244 1.69913 0
M  V30 11032 C 1052.35 4.49631 2.8752 0
M  V30 11033 O 1052.57 4.03926 4.02741 0
M  V30 11034 O 1051.5 5.40417 2.65015 0
M  V30 11035 H 1055.33 3.01519 0.363352 0
M  V30 11036 H 1052.91 1.4897 0.113329 0
M  V30 11037 H 1054.8 3.13755 2.81311 0
M  V30 11038 H 1053.47 1.96637 2.5713 0
M  V30 11039 H 1052.38 3.61915 0.947013 0
M  V30 11040 H 1053.71 4.75666 1.26501 0
M  V30 11041 N 1055.36 -0.161842 1.56767 0
M  V30 11042 C 1056.61 -0.878224 1.82798 0
M  V30 11043 C 1056.94 -1.81481 0.691242 0
M  V30 11044 O 1056.22 -1.92075 -0.30618 0
M  V30 11045 C 1056.5 -1.66565 3.19262 0
M  V30 11046 C 1056.35 -0.751551 4.43477 0
M  V30 11047 C 1057.67 -2.63134 3.52773 0
M  V30 11048 H 1054.79 -0.317828 0.664947 0
M  V30 11049 H 1057.43 -0.14402 1.89453 0
M  V30 11050 H 1055.58 -2.29157 3.13719 0
M  V30 11051 H 1057.26 -0.137783 4.61094 0
M  V30 11052 H 1055.5 -0.0601785 4.33758 0
M  V30 11053 H 1056.17 -1.33823 5.35533 0
M  V30 11054 H 1058.65 -2.10666 3.5883 0
M  V30 11055 H 1057.52 -3.15289 4.49315 0
M  V30 11056 H 1057.78 -3.43786 2.77963 0
M  V30 11057 N 1056.84 -1.516 -0.430713 0
M  V30 11058 C 1057.79 -1.73392 -1.52328 0
M  V30 11059 C 1058.76 -0.575758 -1.55802 0
M  V30 11060 O 1059.94 -0.810931 -1.72709 0
M  V30 11061 C 1057.08 -1.87092 -2.89984 0
M  V30 11062 C 1056.2 -3.14668 -2.95987 0
M  V30 11063 C 1055.33 -3.18923 -4.24807 0
M  V30 11064 C 1054.37 -4.40787 -4.24703 0
M  V30 11065 N 1053.51 -4.42556 -5.45059 0
M  V30 11066 H 1058.35 -2.6665 -1.33048 0
M  V30 11067 H 1055.88 -1.32146 -0.646207 0
M  V30 11068 H 1057.84 -1.93017 -3.69865 0
M  V30 11069 H 1056.47 -0.972363 -3.07807 0
M  V30 11070 H 1055.52 -3.1802 -2.08728 0
M  V30 11071 H 1056.84 -4.04562 -2.91772 0
M  V30 11072 H 1055.99 -3.23801 -5.13067 0
M  V30 11073 H 1054.73 -2.2693 -4.31688 0
M  V30 11074 H 1053.73 -4.36079 -3.34836 0
M  V30 11075 H 1054.96 -5.34053 -4.19481 0
M  V30 11076 H 1052.91 -3.53435 -5.52648 0
M  V30 11077 H 1052.82 -5.26267 -5.42751 0
M  V30 11078 H 1054.09 -4.51634 -6.35332 0
M  V30 11079 N 1058.32 0.686584 -1.41858 0
M  V30 11080 C 1059.55 1.47519 -1.45072 0
M  V30 11081 C 1059.96 1.88709 -0.0585868 0
M  V30 11082 O 1059.32 1.57373 0.924116 0
M  V30 11083 C 1059.37 2.73195 -2.36742 0
M  V30 11084 O 1059.09 2.33736 -3.70539 0
M  V30 11085 C 1060.59 3.66861 -2.48854 0
M  V30 11086 H 1057.81 0.454307 -0.493808 0
M  V30 11087 H 1060.36 0.844612 -1.86243 0
M  V30 11088 H 1058.51 3.32468 -1.98856 0
M  V30 11089 H 1058.93 3.14809 -4.19518 0
M  V30 11090 H 1060.4 4.51801 -3.17143 0
M  V30 11091 H 1060.88 4.11961 -1.52265 0
M  V30 11092 H 1061.48 3.13486 -2.87414 0
M  V30 11093 N 1059.8 1.27835 0.921735 0
M  V30 11094 C 1061.05 1.14296 1.66676 0
M  V30 11095 C 1061.37 -0.310493 1.92512 0
M  V30 11096 O 1060.64 -1.21637 1.53562 0
M  V30 11097 H 1059.22 0.419994 0.617749 0
M  V30 11098 H 1061.88 1.60449 1.10644 0
M  V30 11099 H 1060.97 1.67654 2.63246 0
M  V30 11100 N 1061.28 -1.12907 1.09954 0
M  V30 11101 C 1062.5 -1.88138 0.860905 0
M  V30 11102 C 1062.92 -1.79402 -0.588256 0
M  V30 11103 O 1062.28 -1.16442 -1.40526 0
M  V30 11104 C 1062.33 -3.37537 1.29425 0
M  V30 11105 O 1062.05 -3.46056 2.68658 0
M  V30 11106 C 1063.55 -4.29721 1.08879 0
M  V30 11107 H 1060.77 -0.595437 0.309347 0
M  V30 11108 H 1063.31 -1.42894 1.46292 0
M  V30 11109 H 1061.47 -3.80344 0.736009 0
M  V30 11110 H 1061.88 -4.38969 2.87065 0
M  V30 11111 H 1063.36 -5.32854 1.4412 0
M  V30 11112 H 1063.83 -4.39192 0.0270053 0
M  V30 11113 H 1064.44 -3.9269 1.63325 0
M  V30 11114 N 1062.75 -0.88754 -1.30232 0
M  V30 11115 C 1063.68 -0.372481 -2.3051 0
M  V30 11116 C 1064.66 0.546037 -1.61098 0
M  V30 11117 O 1065.85 0.459345 -1.88689 0
M  V30 11118 C 1062.98 0.411605 -3.44852 0
M  V30 11119 C 1061.93 -0.415383 -4.2598 0
M  V30 11120 C 1061.26 0.495463 -5.324 0
M  V30 11121 C 1062.56 -1.65886 -4.95257 0
M  V30 11122 H 1064.25 -1.21045 -2.7384 0
M  V30 11123 H 1061.8 -0.583498 -1.31648 0
M  V30 11124 H 1063.75 0.782584 -4.1407 0
M  V30 11125 H 1062.48 1.28325 -3.00334 0
M  V30 11126 H 1061.14 -0.768534 -3.58454 0
M  V30 11127 H 1060.78 1.36489 -4.84128 0
M  V30 11128 H 1060.48 -0.0540885 -5.87575 0
M  V30 11129 H 1062.01 0.862901 -6.04472 0
M  V30 11130 H 1063.42 -1.35832 -5.56976 0
M  V30 11131 H 1061.82 -2.14881 -5.60309 0
M  V30 11132 H 1062.89 -2.40181 -4.21237 0
M  V30 11133 N 1064.23 1.43628 -0.648757 0
M  V30 11134 C 1065.14 2.34554 0.0463037 0
M  V30 11135 C 1066.16 1.53629 0.816952 0
M  V30 11136 O 1067.33 1.86297 0.765212 0
M  V30 11137 C 1064.4 3.3185 1.00381 0
M  V30 11138 C 1063.46 4.2868 0.230589 0
M  V30 11139 C 1062.69 5.21328 1.14249 0
M  V30 11140 O 1062.92 5.18298 2.38166 0
M  V30 11141 O 1061.85 5.98726 0.617296 0
M  V30 11142 H 1065.68 2.95475 -0.702008 0
M  V30 11143 H 1063.26 1.43694 -0.408942 0
M  V30 11144 H 1065.14 3.91692 1.5542 0
M  V30 11145 H 1063.82 2.73439 1.73243 0
M  V30 11146 H 1062.73 3.72332 -0.363282 0
M  V30 11147 H 1064.06 4.90061 -0.458368 0
M  V30 11148 N 1065.71 0.390394 1.52688 0
M  V30 11149 C 1066.99 -0.249068 1.94008 0
M  V30 11150 C 1067.37 -1.64263 1.32593 0
M  V30 11151 O 1066.72 -2.23086 0.494448 0
M  V30 11152 C 1066.93 -0.274318 3.4792 0
M  V30 11153 C 1068.27 -0.502743 4.21613 0
M  V30 11154 O 1069.3 -0.35448 3.54432 0
M  V30 11155 O 1068.16 -0.79334 5.40711 0
M  V30 11156 H 1065.25 -0.155116 0.812323 0
M  V30 11157 H 1067.8 0.44498 1.63762 0
M  V30 11158 H 1066.57 0.701766 3.84956 0
M  V30 11159 H 1066.19 -1.01324 3.84473 0
M  V30 11160 N 1067.19 -1.57141 0.120249 0
M  V30 11161 C 1068.14 -2.16638 -0.846809 0
M  V30 11162 C 1069.13 -1.11594 -1.27449 0
M  V30 11163 O 1070.34 -1.29895 -1.24608 0
M  V30 11164 H 1066.71 -0.693331 -0.291197 0
M  V30 11165 H 1068.68 -2.96673 -0.320536 0
M  V30 11166 C 1067.43 -2.78134 -2.08655 0
M  V30 11167 H 1066.75 -3.58662 -1.76639 0
M  V30 11168 H 1068.19 -3.23301 -2.74322 0
M  V30 11169 C 1066.65 -1.7528 -2.87713 0
M  V30 11170 O 1067.18 -1.20693 -3.8314 0
M  V30 11171 N 1065.39 -1.45192 -2.51729 0
M  V30 11172 H 1064.94 -1.89773 -1.74195 0
M  V30 11173 H 1064.89 -0.766166 -3.04922 0
M  V30 11174 N 1068.67 0.153526 -1.5685 0
M  V30 11175 C 1069.63 1.17362 -1.96873 0
M  V30 11176 C 1070.63 1.36219 -0.854456 0
M  V30 11177 O 1071.82 1.33322 -1.1212 0
M  V30 11178 C 1068.95 2.53523 -2.27901 0
M  V30 11179 H 1070.14 0.830432 -2.88173 0
M  V30 11180 H 1067.7 0.396633 -1.51184 0
M  V30 11181 H 1068.43 2.92824 -1.39371 0
M  V30 11182 H 1068.22 2.41198 -3.09137 0
M  V30 11183 H 1069.71 3.27006 -2.59725 0
M  V30 11184 N 1070.14 1.51827 0.422667 0
M  V30 11185 C 1071.11 1.7359 1.49663 0
M  V30 11186 C 1072.11 0.605811 1.48952 0
M  V30 11187 O 1073.3 0.87354 1.50715 0
M  V30 11188 C 1070.43 1.80585 2.8914 0
M  V30 11189 H 1071.62 2.69453 1.31664 0
M  V30 11190 H 1069.18 1.42038 0.652298 0
M  V30 11191 H 1069.91 0.865895 3.12526 0
M  V30 11192 H 1069.7 2.62729 2.9106 0
M  V30 11193 H 1071.19 1.99212 3.67021 0
M  V30 11194 N 1071.62 -0.679052 1.4222 0
M  V30 11195 C 1072.87 -1.43485 1.41757 0
M  V30 11196 C 1073.18 -1.95567 0.0358698 0
M  V30 11197 O 1074.39 -2.71346 -0.0913713 0
M  V30 11198 C 1072.85 -2.59541 2.49332 0
M  V30 11199 C 1072.45 -2.14176 3.93488 0
M  V30 11200 C 1074.2 -3.37078 2.58029 0
M  V30 11201 C 1072.11 -3.27289 4.92581 0
M  V30 11202 H 1071.04 -0.539022 0.52723 0
M  V30 11203 H 1073.69 -0.735581 1.68111 0
M  V30 11204 H 1072.07 -3.31815 2.16135 0
M  V30 11205 H 1073.24 -1.49082 4.36017 0
M  V30 11206 H 1071.56 -1.49589 3.88603 0
M  V30 11207 H 1074.15 -4.21312 3.29242 0
M  V30 11208 H 1074.5 -3.83383 1.62245 0
M  V30 11209 H 1075.03 -2.7187 2.90399 0
M  V30 11210 H 1071.77 -2.8598 5.89827 0
M  V30 11211 H 1071.29 -3.91178 4.54687 0
M  V30 11212 H 1072.97 -3.9282 5.14103 0
M  V30 11213 N 1073.1 -1.28322 -0.914942 0
M  V30 11214 C 1074.05 -1.12146 -2.01722 0
M  V30 11215 C 1075.02 -0.0189279 -1.66089 0
M  V30 11216 O 1076.2 -0.183638 -1.89914 0
M  V30 11217 C 1073.34 -0.78808 -3.35981 0
M  V30 11218 C 1072.46 -1.96954 -3.84491 0
M  V30 11219 C 1071.59 -1.57688 -5.07255 0
M  V30 11220 C 1070.63 -2.72506 -5.48094 0
M  V30 11221 N 1069.77 -2.33741 -6.62049 0
M  V30 11222 H 1074.61 -2.06461 -2.1489 0
M  V30 11223 H 1072.14 -1.0276 -1.05256 0
M  V30 11224 H 1074.1 -0.575546 -4.13211 0
M  V30 11225 H 1072.73 0.118132 -3.22584 0
M  V30 11226 H 1071.78 -2.29423 -3.03429 0
M  V30 11227 H 1073.1 -2.8304 -4.10719 0
M  V30 11228 H 1072.25 -1.32634 -5.92025 0
M  V30 11229 H 1070.99 -0.687291 -4.82833 0
M  V30 11230 H 1069.99 -2.9826 -4.61867 0
M  V30 11231 H 1071.22 -3.62106 -5.74505 0
M  V30 11232 H 1069.16 -1.4725 -6.3926 0
M  V30 11233 H 1069.08 -3.13364 -6.87997 0
M  V30 11234 H 1070.35 -2.11968 -7.50127 0
M  V30 11235 N 1074.58 1.12322 -1.10551 0
M  V30 11236 C 1075.83 1.83858 -0.848674 0
M  V30 11237 C 1076.15 1.84159 0.62575 0
M  V30 11238 O 1075.41 1.28341 1.4774 0
M  V30 11239 C 1075.71 3.31177 -1.34375 0
M  V30 11240 C 1075.37 3.51046 -2.8298 0
M  V30 11241 C 1074.04 3.56177 -3.23561 0
M  V30 11242 C 1076.39 3.58061 -3.78737 0
M  V30 11243 C 1073.72 3.65868 -4.58647 0
M  V30 11244 C 1076.07 3.69283 -5.13627 0
M  V30 11245 C 1074.73 3.7267 -5.53781 0
M  V30 11246 H 1074 0.672784 -0.310552 0
M  V30 11247 H 1076.65 1.3253 -1.38232 0
M  V30 11248 H 1074.95 3.84937 -0.730144 0
M  V30 11249 H 1076.65 3.84998 -1.12148 0
M  V30 11250 H 1073.24 3.47716 -2.50582 0
M  V30 11251 H 1077.42 3.53366 -3.48491 0
M  V30 11252 H 1072.68 3.66763 -4.89178 0
M  V30 11253 H 1076.85 3.73654 -5.8767 0
M  V30 11254 H 1074.48 3.79932 -6.58449 0
M  V30 11255 N 1076.06 0.894434 1.2976 0
M  V30 11256 C 1077.31 0.513673 1.95049 0
M  V30 11257 C 1077.62 -0.943744 1.71327 0
M  V30 11258 O 1078.82 -1.43179 2.30678 0
M  V30 11259 C 1077.28 0.867751 3.49282 0
M  V30 11260 C 1076.89 2.34358 3.81812 0
M  V30 11261 C 1078.63 0.556645 4.20835 0
M  V30 11262 C 1076.54 2.63879 5.29265 0
M  V30 11263 H 1075.47 0.188375 0.73009 0
M  V30 11264 H 1078.12 1.09071 1.47566 0
M  V30 11265 H 1076.5 0.2197 3.9539 0
M  V30 11266 H 1077.68 3.03674 3.46581 0
M  V30 11267 H 1075.99 2.62318 3.23386 0
M  V30 11268 H 1078.59 0.754123 5.29355 0
M  V30 11269 H 1078.93 -0.504526 4.13231 0
M  V30 11270 H 1079.46 1.1623 3.80441 0
M  V30 11271 H 1076.2 3.68774 5.41928 0
M  V30 11272 H 1075.72 1.99182 5.65762 0
M  V30 11273 H 1077.4 2.49871 5.96803 0
M  V30 11274 N 1077.53 -1.43282 0.656365 0
M  V30 11275 C 1078.44 -2.34576 -0.033864 0
M  V30 11276 C 1079.46 -1.5406 -0.808793 0
M  V30 11277 O 1080.64 -1.867 -0.755322 0
M  V30 11278 C 1077.7 -3.32378 -0.986197 0
M  V30 11279 C 1076.76 -4.28797 -0.207851 0
M  V30 11280 C 1076 -5.21927 -1.11482 0
M  V30 11281 O 1076.22 -5.19554 -2.35414 0
M  V30 11282 O 1075.15 -5.99045 -0.585536 0
M  V30 11283 H 1078.98 -2.95099 0.717668 0
M  V30 11284 H 1076.56 -1.43475 0.416556 0
M  V30 11285 H 1078.45 -3.9251 -1.53341 0
M  V30 11286 H 1077.12 -2.74354 -1.7179 0
M  V30 11287 H 1076.03 -3.72134 0.383022 0
M  V30 11288 H 1077.36 -4.89811 0.48435 0
M  V30 11289 N 1079.01 -0.398486 -1.52479 0
M  V30 11290 C 1080.26 0.180752 -2.01692 0
M  V30 11291 C 1080.59 1.46044 -1.28457 0
M  V30 11292 O 1079.84 1.92051 -0.376162 0
M  V30 11293 C 1080.14 0.485909 -3.54081 0
M  V30 11294 C 1079.81 -0.703321 -4.45381 0
M  V30 11295 C 1078.47 -1.02955 -4.70057 0
M  V30 11296 C 1080.82 -1.49848 -4.99194 0
M  V30 11297 C 1078.15 -2.15231 -5.45795 0
M  V30 11298 C 1080.5 -2.61192 -5.76161 0
M  V30 11299 C 1079.17 -2.94313 -5.99113 0
M  V30 11300 H 1078.44 0.0661417 -0.738042 0
M  V30 11301 H 1081.08 -0.53772 -1.83796 0
M  V30 11302 H 1079.39 1.28582 -3.701 0
M  V30 11303 H 1081.09 0.946872 -3.89661 0
M  V30 11304 H 1077.68 -0.439062 -4.26345 0
M  V30 11305 H 1081.86 -1.25968 -4.80048 0
M  V30 11306 H 1077.12 -2.41252 -5.61789 0
M  V30 11307 H 1081.29 -3.23201 -6.16858 0
M  V30 11308 H 1078.92 -3.81431 -6.57583 0
M  V30 11309 N 1080.49 1.57075 -0.12858 0
M  V30 11310 C 1081.77 1.87075 0.571162 0
M  V30 11311 C 1082.15 1.03141 1.84188 0
M  V30 11312 O 1081.5 0.113001 2.2822 0
M  V30 11313 C 1081.71 3.3838 0.854383 0
M  V30 11314 C 1083.05 4.07194 1.20326 0
M  V30 11315 O 1084.08 3.43454 0.944338 0
M  V30 11316 O 1082.94 5.19725 1.68963 0
M  V30 11317 H 1080.03 0.774764 0.289258 0
M  V30 11318 H 1082.58 1.68908 -0.163806 0
M  V30 11319 H 1081.35 3.91273 -0.0456925 0
M  V30 11320 H 1080.97 3.62012 1.64418 0
M  V30 11321 N 1081.97 -0.145205 1.5693 0
M  V30 11322 C 1083.19 -0.876386 1.87974 0
M  V30 11323 C 1083.62 -1.73866 0.717795 0
M  V30 11324 O 1082.98 -1.78224 -0.332551 0
M  V30 11325 C 1083.03 -1.70746 3.17613 0
M  V30 11326 O 1082.13 -2.81188 3.01674 0
M  V30 11327 H 1081.47 -0.243987 0.617549 0
M  V30 11328 H 1084 -0.135482 2.04151 0
M  V30 11329 H 1084.01 -2.1021 3.49679 0
M  V30 11330 H 1082.69 -1.07429 4.01786 0
M  V30 11331 H 1081.26 -2.45117 2.81019 0
M  V30 11332 N 1083.45 -1.52049 -0.414609 0
M  V30 11333 C 1084.69 -1.66084 -1.16379 0
M  V30 11334 C 1085.03 -0.386932 -1.90306 0
M  V30 11335 O 1084.3 0.614441 -1.8454 0
M  V30 11336 C 1084.58 -2.87927 -2.16264 0
M  V30 11337 C 1084.44 -4.25353 -1.46269 0
M  V30 11338 C 1085.76 -3.05289 -3.16996 0
M  V30 11339 H 1082.88 -0.604414 -0.421726 0
M  V30 11340 H 1085.52 -1.8459 -0.450177 0
M  V30 11341 H 1083.67 -2.7228 -2.77121 0
M  V30 11342 H 1085.34 -4.52717 -0.885743 0
M  V30 11343 H 1083.58 -4.27006 -0.76472 0
M  V30 11344 H 1084.25 -5.06644 -2.19126 0
M  V30 11345 H 1086.73 -3.19798 -2.66212 0
M  V30 11346 H 1085.61 -3.92065 -3.84156 0
M  V30 11347 H 1085.87 -2.1836 -3.84411 0
M  V30 11348 N 1084.93 0.6715 -1.42579 0
M  V30 11349 C 1086.2 1.42766 -1.33706 0
M  V30 11350 C 1086.58 2.11086 0.0239748 0
M  V30 11351 O 1085.93 2.03479 1.03964 0
M  V30 11352 C 1086.14 2.42739 -2.50756 0
M  V30 11353 C 1087.49 3.07284 -2.93021 0
M  V30 11354 O 1088.51 2.53066 -2.50671 0
M  V30 11355 O 1087.37 4.05541 -3.66331 0
M  V30 11356 H 1084.47 0.636955 -0.527463 0
M  V30 11357 H 1087.01 0.699946 -1.54593 0
M  V30 11358 H 1085.78 1.91076 -3.41476 0
M  V30 11359 H 1085.41 3.22986 -2.31874 0
M  V30 11360 N 1086.4 1.28806 0.908124 0
M  V30 11361 C 1087.37 1.13228 1.99279 0
M  V30 11362 C 1088.37 0.0702456 1.60646 0
M  V30 11363 O 1089.56 0.316494 1.71301 0
M  V30 11364 C 1086.69 0.729629 3.33 0
M  V30 11365 H 1087.88 2.09566 2.14528 0
M  V30 11366 H 1085.43 1.11872 1.09153 0
M  V30 11367 H 1086.17 -0.234268 3.23453 0
M  V30 11368 H 1085.95 1.49688 3.62403 0
M  V30 11369 H 1087.44 0.643449 4.12613 0
M  V30 11370 N 1087.88 -1.11734 1.11145 0
M  V30 11371 C 1088.83 -2.17683 0.766979 0
M  V30 11372 C 1089.8 -1.64051 -0.260108 0
M  V30 11373 O 1090.98 -1.90302 -0.137723 0
M  V30 11374 C 1088.12 -3.44442 0.212982 0
M  V30 11375 C 1087.24 -4.12094 1.29626 0
M  V30 11376 C 1086.37 -5.26526 0.703127 0
M  V30 11377 C 1085.41 -5.86057 1.76647 0
M  V30 11378 N 1084.55 -6.91889 1.19306 0
M  V30 11379 H 1089.39 -2.46495 1.67465 0
M  V30 11380 H 1086.92 -1.21011 0.836353 0
M  V30 11381 H 1088.88 -4.17009 -0.126162 0
M  V30 11382 H 1087.51 -3.16025 -0.657888 0
M  V30 11383 H 1086.56 -3.37631 1.75241 0
M  V30 11384 H 1087.88 -4.52398 2.10089 0
M  V30 11385 H 1087.03 -6.05888 0.313859 0
M  V30 11386 H 1085.77 -4.87519 -0.132856 0
M  V30 11387 H 1084.77 -5.05375 2.16508 0
M  V30 11388 H 1086 -6.27132 2.60543 0
M  V30 11389 H 1083.95 -6.54906 0.378664 0
M  V30 11390 H 1083.86 -7.30832 1.93443 0
M  V30 11391 H 1085.13 -7.75062 0.830578 0
M  V30 11392 N 1089.36 -0.901303 -1.29284 0
M  V30 11393 C 1090.59 -0.542723 -1.99344 0
M  V30 11394 C 1091 0.877357 -1.67628 0
M  V30 11395 O 1090.34 1.59088 -0.918515 0
M  V30 11396 C 1090.4 -0.657088 -3.53444 0
M  V30 11397 C 1090.07 -2.04444 -4.0872 0
M  V30 11398 C 1091.06 -3.01577 -4.23494 0
M  V30 11399 C 1088.75 -2.35425 -4.43712 0
M  V30 11400 C 1090.74 -4.27816 -4.72496 0
M  V30 11401 C 1088.43 -3.61906 -4.9241 0
M  V30 11402 C 1089.43 -4.57916 -5.06757 0
M  V30 11403 O 1089.12 -5.8215 -5.54397 0
M  V30 11404 H 1088.85 -0.206742 -0.64361 0
M  V30 11405 H 1091.4 -1.21311 -1.65749 0
M  V30 11406 H 1089.63 0.0703305 -3.86636 0
M  V30 11407 H 1091.32 -0.307425 -4.04734 0
M  V30 11408 H 1092.09 -2.78957 -3.96747 0
M  V30 11409 H 1087.97 -1.61454 -4.31803 0
M  V30 11410 H 1091.51 -5.0276 -4.83609 0
M  V30 11411 H 1087.41 -3.84356 -5.18595 0
M  V30 11412 H 1088.17 -5.84762 -5.72709 0
M  V30 11413 N 1090.84 1.42931 -0.663954 0
M  V30 11414 C 1092.08 2.01982 -0.182007 0
M  V30 11415 C 1092.42 1.52323 1.20463 0
M  V30 11416 O 1091.69 0.720834 1.80649 0
M  V30 11417 C 1091.97 3.59518 -0.204671 0
M  V30 11418 C 1091.83 4.19382 -1.62599 0
M  V30 11419 C 1093.15 4.37762 0.45308 0
M  V30 11420 H 1090.27 0.733892 -0.0676115 0
M  V30 11421 H 1092.91 1.70092 -0.84668 0
M  V30 11422 H 1091.06 3.86816 0.361295 0
M  V30 11423 H 1092.73 4.03076 -2.24337 0
M  V30 11424 H 1090.97 3.75623 -2.17001 0
M  V30 11425 H 1091.64 5.28496 -1.59362 0
M  V30 11426 H 1094.12 4.1609 -0.0285774 0
M  V30 11427 H 1093 5.47392 0.406538 0
M  V30 11428 H 1093.26 4.1482 1.52895 0
M  V30 11429 N 1092.32 0.406567 1.52266 0
M  V30 11430 C 1093.73 0.0573228 1.59497 0
M  V30 11431 C 1093.93 -1.43005 1.41957 0
M  V30 11432 O 1092.99 -2.19659 1.24523 0
M  V30 11433 C 1094.3 0.549947 2.95628 0
M  V30 11434 C 1095.85 0.5077 3.08855 0
M  V30 11435 C 1096.32 0.976792 4.47463 0
M  V30 11436 N 1097.81 0.933508 4.53696 0
M  V30 11437 C 1098.55 1.26769 5.59211 0
M  V30 11438 N 1098.05 1.6732 6.72292 0
M  V30 11439 N 1099.84 1.18782 5.49406 0
M  V30 11440 H 1091.99 1.37468 1.61914 0
M  V30 11441 H 1094.25 0.564562 0.76156 0
M  V30 11442 H 1093.96 1.58943 3.13736 0
M  V30 11443 H 1093.83 -0.0417767 3.77177 0
M  V30 11444 H 1096.22 -0.522728 2.90433 0
M  V30 11445 H 1096.3 1.13545 2.29219 0
M  V30 11446 H 1095.94 2.00554 4.66627 0
M  V30 11447 H 1095.87 0.325885 5.25591 0
M  V30 11448 H 1098.37 0.635333 3.72521 0
M  V30 11449 H 1098.68 1.91137 7.4879 0
M  V30 11450 H 1097.02 1.71221 6.73579 0
M  V30 11451 H 1100.21 0.869906 4.59946 0
M  V30 11452 H 1100.39 1.45157 6.31533 0
M  V30 11453 N 1093.79 -1.57004 0.136909 0
M  V30 11454 C 1094.72 -2.19262 -0.802902 0
M  V30 11455 C 1095.71 -1.13786 -1.26439 0
M  V30 11456 O 1096.89 -1.42091 -1.32377 0
M  V30 11457 C 1094.02 -2.80624 -2.04615 0
M  V30 11458 C 1092.97 -3.91839 -1.72181 0
M  V30 11459 C 1092.3 -4.4009 -3.03686 0
M  V30 11460 C 1093.6 -5.13095 -0.976249 0
M  V30 11461 H 1095.29 -2.98049 -0.28406 0
M  V30 11462 H 1092.84 -1.43364 -0.135189 0
M  V30 11463 H 1094.79 -3.22842 -2.70834 0
M  V30 11464 H 1093.52 -1.99153 -2.58855 0
M  V30 11465 H 1092.18 -3.50224 -1.08344 0
M  V30 11466 H 1091.82 -3.55454 -3.55896 0
M  V30 11467 H 1091.52 -5.15098 -2.82751 0
M  V30 11468 H 1093.05 -4.84971 -3.70993 0
M  V30 11469 H 1094.46 -5.5222 -1.54033 0
M  V30 11470 H 1092.86 -5.93801 -0.867214 0
M  V30 11471 H 1093.93 -4.84888 0.0338488 0
M  V30 11472 N 1095.27 0.136881 -1.57004 0
M  V30 11473 C 1096.55 0.87705 -1.74835 0
M  V30 11474 C 1096.93 1.98886 -0.707639 0
M  V30 11475 O 1096.28 2.26879 0.271652 0
M  V30 11476 C 1096.49 1.41021 -3.1924 0
M  V30 11477 C 1097.84 1.86963 -3.81222 0
M  V30 11478 O 1098.86 1.5074 -3.22732 0
M  V30 11479 O 1097.72 2.53798 -4.83993 0
M  V30 11480 H 1094.81 0.415192 -0.715223 0
M  V30 11481 H 1097.36 0.122016 -1.69261 0
M  V30 11482 H 1096.13 0.611677 -3.8649 0
M  V30 11483 H 1095.75 2.22846 -3.2928 0
M  V30 11484 N 1096.75 1.52266 0.40654 0
M  V30 11485 C 1098 1.66699 1.15496 0
M  V30 11486 C 1098.33 0.397019 1.90098 0
M  V30 11487 O 1097.6 -0.604646 1.84863 0
M  V30 11488 C 1097.89 2.8907 2.14734 0
M  V30 11489 C 1097.74 4.26123 1.44012 0
M  V30 11490 C 1099.06 3.06966 3.15373 0
M  V30 11491 H 1096.18 0.606642 0.418515 0
M  V30 11492 H 1098.82 1.84826 0.440381 0
M  V30 11493 H 1096.97 2.73745 2.75673 0
M  V30 11494 H 1098.64 4.5318 0.861722 0
M  V30 11495 H 1096.89 4.27406 0.742064 0
M  V30 11496 H 1097.56 5.07799 2.16436 0
M  V30 11497 H 1100.03 3.21205 2.64512 0
M  V30 11498 H 1098.91 3.94097 3.82072 0
M  V30 11499 H 1099.17 2.20395 3.83247 0
M  V30 11500 N 1098.23 -0.663929 1.42933 0
M  V30 11501 C 1099.46 -1.45192 1.474 0
M  V30 11502 C 1099.87 -1.88592 0.0886014 0
M  V30 11503 O 1099.23 -1.58824 -0.898962 0
M  V30 11504 C 1099.28 -2.69394 2.41059 0
M  V30 11505 O 1099 -2.27812 3.7421 0
M  V30 11506 C 1100.5 -3.62855 2.54659 0
M  V30 11507 H 1097.72 -0.446394 0.500973 0
M  V30 11508 H 1100.27 -0.814875 1.87563 0
M  V30 11509 H 1098.42 -3.29262 2.0412 0
M  V30 11510 H 1098.83 -3.08095 4.24474 0
M  V30 11511 H 1100.31 -4.46698 3.24291 0
M  V30 11512 H 1100.79 -4.09487 1.58799 0
M  V30 11513 H 1101.39 -3.08874 2.92364 0
M  V30 11514 N 1099.71 -1.29285 -0.901281 0
M  V30 11515 C 1100.98 -1.07847 -1.63182 0
M  V30 11516 C 1101.36 0.377927 -2.07689 0
M  V30 11517 O 1100.71 1.36642 -1.83143 0
M  V30 11518 C 1100.92 -2.06457 -2.81383 0
M  V30 11519 C 1102.27 -2.37289 -3.52107 0
M  V30 11520 O 1103.29 -2.0464 -2.91549 0
M  V30 11521 O 1102.15 -2.93067 -4.61274 0
M  V30 11522 H 1099.25 -0.413073 -0.71645 0
M  V30 11523 H 1101.79 -1.40651 -0.949488 0
M  V30 11524 H 1100.56 -3.04561 -2.4568 0
M  V30 11525 H 1100.19 -1.74374 -3.57323 0
M  V30 11526 N 1101.18 1.11143 -1.11736 0
M  V30 11527 C 1102.41 1.87285 -0.891007 0
M  V30 11528 C 1102.83 1.79758 0.553971 0
M  V30 11529 O 1102.19 1.16221 1.39149 0
M  V30 11530 C 1102.24 3.33924 -1.36114 0
M  V30 11531 O 1101.34 4.08917 -0.534851 0
M  V30 11532 H 1100.69 0.581418 -0.320701 0
M  V30 11533 H 1103.22 1.40469 -1.4876 0
M  V30 11534 H 1103.23 3.84772 -1.35701 0
M  V30 11535 H 1101.9 3.38719 -2.41334 0
M  V30 11536 H 1100.48 3.67954 -0.605355 0
M  V30 11537 N 1102.66 0.908147 1.28804 0
M  V30 11538 C 1103.91 0.539201 1.95501 0
M  V30 11539 C 1104.24 -0.913759 1.7136 0
M  V30 11540 O 1103.52 -1.64904 1.03136 0
M  V30 11541 C 1103.8 0.842372 3.50109 0
M  V30 11542 C 1103.65 2.34765 3.83673 0
M  V30 11543 C 1104.97 0.334658 4.38826 0
M  V30 11544 H 1102.09 0.197373 0.71008 0
M  V30 11545 H 1104.73 1.13637 1.52272 0
M  V30 11546 H 1102.88 0.334143 3.8706 0
M  V30 11547 H 1104.55 2.92607 3.56621 0
M  V30 11548 H 1102.8 2.80494 3.30916 0
M  V30 11549 H 1103.47 2.51034 4.91616 0
M  V30 11550 H 1105.94 0.769961 4.08914 0
M  V30 11551 H 1104.82 0.575914 5.4587 0
M  V30 11552 H 1105.08 -0.764878 4.35433 0
M  V30 11553 N 1104.14 -1.42577 0.671525 0
M  V30 11554 C 1105.37 -2.06442 0.199152 0
M  V30 11555 C 1105.79 -1.50104 -1.1336 0
M  V30 11556 O 1105.15 -0.618211 -1.70434 0
M  V30 11557 C 1105.2 -3.60323 0.141215 0
M  V30 11558 O 1104.3 -4.02655 -0.891238 0
M  V30 11559 H 1103.64 -0.655919 0.103277 0
M  V30 11560 H 1106.17 -1.82768 0.919614 0
M  V30 11561 H 1106.18 -4.07984 -0.0360209 0
M  V30 11562 H 1104.86 -4.00702 1.11403 0
M  V30 11563 H 1103.43 -3.66549 -0.685309 0
M  V30 11564 N 1105.62 -0.414636 -1.52048 0
M  V30 11565 C 1106.9 0.218172 -1.94379 0
M  V30 11566 C 1107.28 1.62133 -1.35189 0
M  V30 11567 O 1106.62 2.22271 -0.529877 0
M  V30 11568 C 1106.83 0.218932 -3.48313 0
M  V30 11569 C 1108.18 0.435604 -4.2236 0
M  V30 11570 O 1109.21 0.298049 -3.54951 0
M  V30 11571 O 1108.06 0.707217 -5.41905 0
M  V30 11572 H 1105.16 0.142173 -0.814688 0
M  V30 11573 H 1107.7 -0.470977 -1.63033 0
M  V30 11574 H 1106.48 -0.76292 -3.83791 0
M  V30 11575 H 1106.1 0.951949 -3.86036 0
M  V30 11576 N 1107.1 1.56929 -0.145233 0
M  V30 11577 C 1108.03 2.13796 0.826078 0
M  V30 11578 C 1109.04 1.08697 1.21197 0
M  V30 11579 O 1110.23 1.3598 1.15635 0
M  V30 11580 C 1107.33 2.6443 2.11967 0
M  V30 11581 C 1106.5 3.9391 1.90142 0
M  V30 11582 C 1105.56 4.29872 3.03474 0
M  V30 11583 O 1104.59 4.98227 2.75242 0
M  V30 11584 N 1105.79 3.8931 4.30602 0
M  V30 11585 H 1108.56 2.97764 0.340073 0
M  V30 11586 H 1106.12 1.61854 0.0383928 0
M  V30 11587 H 1108.11 2.85502 2.86829 0
M  V30 11588 H 1106.68 1.85196 2.51836 0
M  V30 11589 H 1105.9 3.81481 0.993268 0
M  V30 11590 H 1107.19 4.78523 1.72896 0
M  V30 11591 H 1106.58 3.34229 4.56407 0
M  V30 11592 H 1105.14 4.15438 5.0225 0
M  V30 11593 N 1108.58 -0.128553 1.57075 0
M  V30 11594 C 1109.54 -1.14215 1.98715 0
M  V30 11595 C 1110.54 -1.34843 0.876019 0
M  V30 11596 O 1111.73 -1.31522 1.14227 0
M  V30 11597 C 1108.86 -2.49865 2.31905 0
M  V30 11598 H 1110.05 -0.784481 2.89458 0
M  V30 11599 H 1107.61 -0.372531 1.51796 0
M  V30 11600 H 1108.34 -2.9057 1.44012 0
M  V30 11601 H 1108.13 -2.3625 3.12935 0
M  V30 11602 H 1109.62 -3.22832 2.64895 0
M  V30 11603 N 1110.05 -1.5248 -0.398459 0
M  V30 11604 C 1111 -1.77211 -1.50662 0
M  V30 11605 C 1112 -0.639638 -1.5686 0
M  V30 11606 O 1113.2 -0.821917 -1.60139 0
M  V30 11607 H 1109.58 -0.56057 -0.501264 0
M  V30 11608 H 1111.55 -2.70028 -1.26993 0
M  V30 11609 C 1110.3 -1.94944 -2.8791 0
M  V30 11610 H 1109.62 -2.8151 -2.83888 0
M  V30 11611 H 1111.06 -2.16243 -3.64712 0
M  V30 11612 C 1109.52 -0.719402 -3.29129 0
M  V30 11613 O 1110.05 0.107671 -4.01556 0
M  V30 11614 N 1108.25 -0.552228 -2.85305 0
M  V30 11615 H 1107.8 -1.22638 -2.26534 0
M  V30 11616 H 1107.76 0.269447 -3.13243 0
M  V30 11617 N 1111.53 0.65634 -1.43283 0
M  V30 11618 C 1112.78 1.41347 -1.44449 0
M  V30 11619 C 1113.1 1.94879 -0.0687217 0
M  V30 11620 O 1112.37 1.74235 0.895492 0
M  V30 11621 H 1110.95 0.524578 -0.531815 0
M  V30 11622 H 1113.61 0.774292 -1.7886 0
M  V30 11623 H 1112.71 2.25737 -2.15521 0
M  V30 11624 N 1113.01 1.29761 0.894412 0
M  V30 11625 C 1114.43 1.07888 1.17611 0
M  V30 11626 C 1114.63 -0.16644 2.00811 0
M  V30 11627 O 1113.68 -0.86272 2.37304 0
M  V30 11628 C 1114.99 2.33723 1.89193 0
M  V30 11629 C 1116.54 2.39095 2.01997 0
M  V30 11630 C 1117.02 3.64747 2.7699 0
M  V30 11631 N 1118.51 3.65501 2.84541 0
M  V30 11632 C 1119.24 4.59411 3.43117 0
M  V30 11633 N 1118.74 5.63657 4.02818 0
M  V30 11634 N 1120.53 4.46971 3.40842 0
M  V30 11635 H 1112.68 2.0967 0.339421 0
M  V30 11636 H 1114.95 0.923788 0.212882 0
M  V30 11637 H 1114.65 3.24551 1.35496 0
M  V30 11638 H 1114.53 2.41642 2.89636 0
M  V30 11639 H 1116.91 1.48751 2.54867 0
M  V30 11640 H 1116.99 2.35158 1.0067 0
M  V30 11641 H 1116.64 4.55445 2.24794 0
M  V30 11642 H 1116.57 3.65944 3.78672 0
M  V30 11643 H 1119.06 2.90129 2.42144 0
M  V30 11644 H 1119.37 6.31429 4.45552 0
M  V30 11645 H 1117.72 5.67461 4.01265 0
M  V30 11646 H 1120.91 3.64719 2.93424 0
M  V30 11647 H 1121.08 5.20341 3.86198 0
M  V30 11648 N 1114.49 -1.10549 1.12324 0
M  V30 11649 C 1115.74 -1.82124 0.876083 0
M  V30 11650 C 1116.06 -1.85547 -0.599761 0
M  V30 11651 O 1115.33 -1.33269 -1.43584 0
M  V30 11652 H 1113.91 -0.674455 0.321122 0
M  V30 11653 H 1116.57 -1.33766 1.41748 0
M  V30 11654 H 1115.66 -2.85688 1.25653 0
M  V30 11655 N 1115.97 -0.914965 -1.28321 0
M  V30 11656 C 1116.91 -0.402792 -2.27258 0
M  V30 11657 C 1117.88 0.523412 -1.57638 0
M  V30 11658 O 1119.07 0.445344 -1.8553 0
M  V30 11659 C 1116.21 0.349956 -3.43321 0
M  V30 11660 C 1115.32 -0.608892 -4.27687 0
M  V30 11661 C 1114.46 0.162425 -5.30952 0
M  V30 11662 C 1113.49 -0.789959 -6.06981 0
M  V30 11663 N 1112.63 -0.0520826 -7.02081 0
M  V30 11664 H 1117.47 -1.25153 -2.70446 0
M  V30 11665 H 1115.01 -0.628444 -1.33 0
M  V30 11666 H 1116.97 0.802589 -4.09407 0
M  V30 11667 H 1115.6 1.16303 -3.01121 0
M  V30 11668 H 1114.65 -1.18005 -3.61634 0
M  V30 11669 H 1115.96 -1.33727 -4.8054 0
M  V30 11670 H 1115.11 0.675563 -6.02927 0
M  V30 11671 H 1113.85 0.923851 -4.7887 0
M  V30 11672 H 1112.86 -1.31446 -5.33856 0
M  V30 11673 H 1114.08 -1.55096 -6.61152 0
M  V30 11674 H 1112.03 0.691331 -6.52347 0
M  V30 11675 H 1111.95 -0.720267 -7.52561 0
M  V30 11676 H 1113.21 0.44082 -7.78253 0
M  V30 11677 N 1117.44 1.42219 -0.679077 0
M  V30 11678 C 1118.69 2.01479 -0.203119 0
M  V30 11679 C 1119.02 1.5371 1.19178 0
M  V30 11680 O 1118.27 0.731832 1.81501 0
M  V30 11681 C 1118.57 3.56889 -0.191027 0
M  V30 11682 C 1118.24 4.24106 -1.53118 0
M  V30 11683 C 1116.9 4.42182 -1.89812 0
M  V30 11684 C 1119.25 4.61946 -2.41361 0
M  V30 11685 C 1116.58 4.95371 -3.14364 0
M  V30 11686 C 1118.93 5.16518 -3.65229 0
M  V30 11687 C 1117.6 5.32807 -4.02086 0
M  V30 11688 H 1116.87 0.737263 -0.0743264 0
M  V30 11689 H 1119.51 1.70346 -0.874908 0
M  V30 11690 H 1117.82 3.87715 0.564282 0
M  V30 11691 H 1119.52 4.00528 0.194511 0
M  V30 11692 H 1116.11 4.10399 -1.23575 0
M  V30 11693 H 1120.29 4.4765 -2.14297 0
M  V30 11694 H 1115.55 5.06167 -3.42935 0
M  V30 11695 H 1119.72 5.44782 -4.33804 0
M  V30 11696 H 1117.35 5.73785 -4.98673 0
M  V30 11697 N 1118.92 0.422693 1.51826 0
M  V30 11698 C 1119.88 -0.384307 2.25955 0
M  V30 11699 C 1120.88 -0.962184 1.28836 0
M  V30 11700 O 1122.07 -0.838931 1.52668 0
M  V30 11701 C 1119.21 -1.54228 3.04018 0
M  V30 11702 H 1120.4 0.265157 2.98726 0
M  V30 11703 H 1117.95 0.175515 1.55311 0
M  V30 11704 H 1118.69 -2.22822 2.35629 0
M  V30 11705 H 1118.47 -1.13425 3.75336 0
M  V30 11706 H 1119.96 -2.1128 3.60209 0
M  V30 11707 N 1120.4 -1.5685 0.153553 0
M  V30 11708 C 1121.63 -2.00701 -0.502678 0
M  V30 11709 C 1122.04 -1.0337 -1.57988 0
M  V30 11710 O 1121.4 -0.0317233 -1.82472 0
M  V30 11711 C 1121.45 -3.44443 -1.09732 0
M  V30 11712 O 1121.17 -4.38054 -0.0631405 0
M  V30 11713 C 1122.67 -4.03605 -1.83352 0
M  V30 11714 H 1119.89 -0.658229 -0.130289 0
M  V30 11715 H 1122.44 -2.02965 0.250063 0
M  V30 11716 H 1120.59 -3.43009 -1.80065 0
M  V30 11717 H 1121.01 -5.22114 -0.499681 0
M  V30 11718 H 1122.48 -5.0616 -2.20241 0
M  V30 11719 H 1122.96 -3.44687 -2.7219 0
M  V30 11720 H 1123.56 -4.08688 -1.17703 0
M  V30 11721 N 1121.88 0.120221 -1.57141 0
M  V30 11722 C 1122.84 1.13159 -1.99318 0
M  V30 11723 C 1123.84 1.34376 -0.883158 0
M  V30 11724 O 1125.03 1.30914 -1.14922 0
M  V30 11725 C 1122.16 2.48632 -2.33227 0
M  V30 11726 H 1123.36 0.769119 -2.8987 0
M  V30 11727 H 1120.91 0.364475 -1.51991 0
M  V30 11728 H 1121.64 2.89802 -1.45551 0
M  V30 11729 H 1121.43 2.34587 -3.14184 0
M  V30 11730 H 1122.92 3.21423 -2.66603 0
M  V30 11731 N 1123.36 1.52689 0.390367 0
M  V30 11732 C 1124.32 1.76726 1.45947 0
M  V30 11733 C 1125.32 0.637269 1.47633 0
M  V30 11734 O 1126.51 0.905312 1.48828 0
M  V30 11735 C 1123.64 1.86678 2.85244 0
M  V30 11736 H 1124.83 2.72185 1.25918 0
M  V30 11737 H 1122.39 1.4339 0.622023 0
M  V30 11738 H 1123.12 0.931991 3.10619 0
M  V30 11739 H 1122.91 2.68843 2.85422 0
M  V30 11740 H 1124.4 2.06952 3.62713 0
M  V30 11741 N 1124.83 -0.648732 1.43629 0
M  V30 11742 C 1125.74 -1.79046 1.51591 0
M  V30 11743 C 1126.76 -1.69276 0.402697 0
M  V30 11744 O 1127.94 -1.90366 0.657484 0
M  V30 11745 C 1125 -3.15347 1.44073 0
M  V30 11746 C 1124.06 -3.3688 2.66102 0
M  V30 11747 C 1123.3 -4.66679 2.58933 0
M  V30 11748 O 1123.52 -5.46328 1.63956 0
M  V30 11749 O 1122.45 -4.9003 3.49506 0
M  V30 11750 H 1126.28 -1.75283 2.48011 0
M  V30 11751 H 1123.86 -0.807774 1.2568 0
M  V30 11752 H 1125.75 -3.96633 1.42339 0
M  V30 11753 H 1124.42 -3.19691 0.50789 0
M  V30 11754 H 1123.33 -2.55341 2.73407 0
M  V30 11755 H 1124.66 -3.37386 3.58373 0
M  V30 11756 N 1126.31 -1.30234 -0.887518 0
M  V30 11757 C 1127.56 -1.19086 -1.64153 0
M  V30 11758 C 1127.89 0.254428 -1.92526 0
M  V30 11759 O 1127.17 1.18233 -1.54438 0
M  V30 11760 C 1127.45 -2.01723 -2.98295 0
M  V30 11761 C 1127.3 -3.54458 -2.76911 0
M  V30 11762 C 1128.62 -1.85307 -3.99186 0
M  V30 11763 H 1125.74 -0.433967 -0.595686 0
M  V30 11764 H 1128.38 -1.59839 -1.0272 0
M  V30 11765 H 1126.53 -1.67096 -3.5073 0
M  V30 11766 H 1128.2 -3.99131 -2.31284 0
M  V30 11767 H 1126.45 -3.78768 -2.11464 0
M  V30 11768 H 1127.12 -4.07565 -3.72283 0
M  V30 11769 H 1129.59 -2.15575 -3.55903 0
M  V30 11770 H 1128.47 -2.45456 -4.90961 0
M  V30 11771 H 1128.73 -0.811528 -4.34588 0
M  V30 11772 N 1127.79 1.09952 -1.12909 0
M  V30 11773 C 1128.74 2.18525 -0.796849 0
M  V30 11774 C 1129.73 1.67985 0.218483 0
M  V30 11775 O 1130.94 1.79839 0.07618 0
M  V30 11776 H 1127.31 0.712714 -0.239882 0
M  V30 11777 H 1129.28 2.43783 -1.72083 0
M  V30 11778 C 1128.03 3.46625 -0.273237 0
M  V30 11779 H 1127.36 3.85879 -1.04582 0
M  V30 11780 H 1128.8 4.23926 -0.0791355 0
M  V30 11781 C 1127.26 3.2172 0.999903 0
M  V30 11782 O 1127.79 3.43851 2.07676 0
M  V30 11783 N 1125.99 2.75356 0.928833 0
M  V30 11784 H 1125.54 2.57547 0.052379 0
M  V30 11785 H 1125.5 2.5907 1.78129 0
M  V30 11786 N 1129.27 0.921757 1.27833 0
M  V30 11787 C 1130.51 0.559906 1.94918 0
M  V30 11788 C 1130.85 -0.895532 1.72319 0
M  V30 11789 O 1130.12 -1.638 1.04879 0
M  V30 11790 C 1130.41 0.879458 3.49196 0
M  V30 11791 C 1130.26 2.38821 3.81162 0
M  V30 11792 C 1131.58 0.381183 4.38446 0
M  V30 11793 H 1128.7 0.204893 0.707946 0
M  V30 11794 H 1131.34 1.15246 1.51058 0
M  V30 11795 H 1129.49 0.375177 3.86684 0
M  V30 11796 H 1131.16 2.96373 3.53498 0
M  V30 11797 H 1129.4 2.83988 3.27923 0
M  V30 11798 H 1130.07 2.56234 4.88926 0
M  V30 11799 H 1132.55 0.813289 4.08075 0
M  V30 11800 H 1131.43 0.633778 5.45229 0
M  V30 11801 H 1131.69 -0.718651 4.3622 0
M  V30 11802 N 1130.75 -1.41857 0.686609 0
M  V30 11803 C 1131.7 -2.27999 -0.00734666 0
M  V30 11804 C 1132.68 -1.41723 -0.761808 0
M  V30 11805 O 1133.87 -1.65072 -0.638776 0
M  V30 11806 C 1131 -3.29909 -0.949462 0
M  V30 11807 C 1130.09 -4.23666 -0.191722 0
M  V30 11808 N 1130.48 -4.99277 0.809715 0
M  V30 11809 C 1128.78 -4.43937 -0.428489 0
M  V30 11810 C 1129.48 -5.67834 1.2625 0
M  V30 11811 N 1128.45 -5.40387 0.590151 0
M  V30 11812 H 1132.26 -2.83887 0.760608 0
M  V30 11813 H 1129.77 -1.53962 0.516676 0
M  V30 11814 H 1131.77 -3.90436 -1.46169 0
M  V30 11815 H 1130.43 -2.75582 -1.71711 0
M  V30 11816 H 1131.44 -5.04051 1.18966 0
M  V30 11817 H 1128.11 -4.00633 -1.17472 0
M  V30 11818 H 1129.5 -6.38469 2.09301 0
M  V30 11819 N 1132.22 -0.430739 -1.51599 0
M  V30 11820 C 1133.47 0.137657 -2.01631 0
M  V30 11821 C 1133.79 1.43787 -1.31721 0
M  V30 11822 O 1133.06 1.90668 -0.449717 0
M  V30 11823 H 1131.64 0.0538611 -0.745056 0
M  V30 11824 H 1134.31 -0.571935 -1.86319 0
M  V30 11825 H 1133.4 0.318305 -3.10473 0
M  V30 11826 N 1133.7 1.56767 -0.161869 0
M  V30 11827 C 1134.65 2.17502 0.772102 0
M  V30 11828 C 1135.62 1.11223 1.23364 0
M  V30 11829 O 1136.8 1.39332 1.30351 0
M  V30 11830 C 1133.94 2.81248 1.99984 0
M  V30 11831 C 1133.06 4.01962 1.58274 0
M  V30 11832 C 1132.19 4.53662 2.76341 0
M  V30 11833 C 1131.23 5.66807 2.31076 0
M  V30 11834 N 1130.37 6.13059 3.42203 0
M  V30 11835 H 1135.21 2.96971 0.247382 0
M  V30 11836 H 1132.75 1.46685 0.110382 0
M  V30 11837 H 1134.7 3.16359 2.7198 0
M  V30 11838 H 1133.33 2.04398 2.49842 0
M  V30 11839 H 1132.39 3.72733 0.759874 0
M  V30 11840 H 1133.7 4.83891 1.2104 0
M  V30 11841 H 1132.85 4.90905 3.56507 0
M  V30 11842 H 1131.59 3.7077 3.16829 0
M  V30 11843 H 1130.6 5.29125 1.49354 0
M  V30 11844 H 1131.82 6.51494 1.91657 0
M  V30 11845 H 1129.77 5.33099 3.82285 0
M  V30 11846 H 1129.68 6.89953 3.09033 0
M  V30 11847 H 1130.95 6.54951 4.22682 0
M  V30 11848 N 1135.18 -0.111886 1.57202 0
M  V30 11849 C 1136.11 -1.13796 2.03894 0
M  V30 11850 C 1137.09 -1.4277 0.924696 0
M  V30 11851 O 1138.28 -1.53089 1.19488 0
M  V30 11852 C 1135.41 -2.46229 2.44925 0
M  V30 11853 C 1134.36 -2.31702 3.59859 0
M  V30 11854 C 1133.69 -3.69161 3.86813 0
M  V30 11855 C 1134.99 -1.77158 4.91337 0
M  V30 11856 H 1136.68 -0.749581 2.89865 0
M  V30 11857 H 1134.23 -0.359126 1.3945 0
M  V30 11858 H 1136.18 -3.18267 2.76195 0
M  V30 11859 H 1134.9 -2.86971 1.55933 0
M  V30 11860 H 1133.56 -1.62112 3.28809 0
M  V30 11861 H 1133.21 -4.07401 2.95015 0
M  V30 11862 H 1132.91 -3.60292 4.6418 0
M  V30 11863 H 1134.43 -4.42693 4.20542 0
M  V30 11864 H 1135.85 -2.3902 5.21097 0
M  V30 11865 H 1134.25 -1.79091 5.72753 0
M  V30 11866 H 1135.32 -0.729675 4.79379 0
M  V30 11867 N 1136.66 -1.52894 -0.382264 0
M  V30 11868 C 1137.61 -1.78151 -1.46734 0
M  V30 11869 C 1138.58 -0.625034 -1.53891 0
M  V30 11870 O 1139.76 -0.865467 -1.70042 0
M  V30 11871 C 1136.9 -1.96223 -2.83885 0
M  V30 11872 C 1136.01 -3.23925 -2.85826 0
M  V30 11873 C 1135.15 -3.32277 -4.14446 0
M  V30 11874 C 1134.19 -4.54076 -4.10465 0
M  V30 11875 N 1133.32 -4.59672 -5.30703 0
M  V30 11876 H 1138.16 -2.70748 -1.24497 0
M  V30 11877 H 1135.7 -1.34135 -0.603838 0
M  V30 11878 H 1137.66 -2.04686 -3.63537 0
M  V30 11879 H 1136.29 -1.0698 -3.04557 0
M  V30 11880 H 1135.34 -3.245 -1.98505 0
M  V30 11881 H 1136.65 -4.1364 -2.78754 0
M  V30 11882 H 1135.81 -3.3996 -5.02506 0
M  V30 11883 H 1134.55 -2.40548 -4.2425 0
M  V30 11884 H 1133.55 -4.46511 -3.20793 0
M  V30 11885 H 1134.78 -5.47128 -4.02278 0
M  V30 11886 H 1132.72 -3.70838 -5.41124 0
M  V30 11887 H 1132.64 -5.43268 -5.25734 0
M  V30 11888 H 1133.91 -4.71618 -6.20642 0
M  V30 11889 N 1138.14 0.641106 -1.43971 0
M  V30 11890 C 1139.05 1.78239 -1.52538 0
M  V30 11891 C 1140.06 1.6906 -0.411668 0
M  V30 11892 O 1141.24 1.90014 -0.66757 0
M  V30 11893 C 1138.3 3.14579 -1.45743 0
M  V30 11894 C 1137.37 3.35464 -2.67885 0
M  V30 11895 C 1136.6 4.65299 -2.61404 0
M  V30 11896 O 1136.82 5.45451 -1.66851 0
M  V30 11897 O 1135.76 4.8817 -3.521 0
M  V30 11898 H 1139.58 1.73965 -2.48937 0
M  V30 11899 H 1137.17 0.801098 -1.26106 0
M  V30 11900 H 1139.05 3.95873 -1.4444 0
M  V30 11901 H 1137.72 3.19417 -0.524837 0
M  V30 11902 H 1136.63 2.53888 -2.74758 0
M  V30 11903 H 1137.96 3.35481 -3.60157 0
M  V30 11904 N 1139.62 1.30703 0.880598 0
M  V30 11905 C 1140.58 1.17429 1.96832 0
M  V30 11906 C 1141.58 0.104305 1.60461 0
M  V30 11907 O 1142.77 0.352758 1.70591 0
M  V30 11908 C 1139.9 0.800099 3.31378 0
M  V30 11909 H 1141.09 2.14069 2.10034 0
M  V30 11910 H 1138.65 1.14162 1.06755 0
M  V30 11911 H 1139.38 -0.165606 3.23877 0
M  V30 11912 H 1139.17 1.57341 3.59146 0
M  V30 11913 H 1140.66 0.730826 4.11155 0
M  V30 11914 N 1141.09 -1.09351 1.1349 0
M  V30 11915 C 1142.06 -2.14185 0.815919 0
M  V30 11916 C 1143.06 -1.59845 -0.174976 0
M  V30 11917 O 1144.25 -1.74122 0.0521971 0
M  V30 11918 C 1141.38 -3.40224 0.214517 0
M  V30 11919 H 1142.57 -2.43913 1.74489 0
M  V30 11920 H 1140.12 -1.24902 0.939634 0
M  V30 11921 H 1140.86 -3.16123 -0.723634 0
M  V30 11922 H 1140.64 -3.80958 0.928102 0
M  V30 11923 H 1142.13 -4.17599 0.00821999 0
M  V30 11924 N 1142.57 -0.928524 -1.27343 0
M  V30 11925 C 1143.48 -0.433901 -2.30553 0
M  V30 11926 C 1144.5 0.485832 -1.6708 0
M  V30 11927 O 1145.67 0.36844 -1.98001 0
M  V30 11928 C 1142.74 0.304617 -3.45359 0
M  V30 11929 C 1141.8 -0.650131 -4.24349 0
M  V30 11930 C 1141.03 0.0532372 -5.33673 0
M  V30 11931 O 1141.26 1.27246 -5.56026 0
M  V30 11932 O 1140.19 -0.619009 -5.98709 0
M  V30 11933 H 1144.02 -1.2909 -2.74899 0
M  V30 11934 H 1141.6 -0.693903 -1.32308 0
M  V30 11935 H 1143.48 0.721137 -4.15184 0
M  V30 11936 H 1142.16 1.13721 -3.03066 0
M  V30 11937 H 1141.06 -1.11635 -3.57055 0
M  V30 11938 H 1142.4 -1.44996 -4.70358 0
M  V30 11939 N 1144.05 1.41491 -0.694123 0
M  V30 11940 C 1145.3 2.0155 -0.224809 0
M  V30 11941 C 1145.63 1.54844 1.17205 0
M  V30 11942 O 1144.9 0.75899 1.7908 0
M  V30 11943 C 1145.19 3.59003 -0.280884 0
M  V30 11944 C 1145.04 4.15839 -1.71458 0
M  V30 11945 C 1146.36 4.38624 0.360122 0
M  V30 11946 H 1143.48 0.732293 -0.0831632 0
M  V30 11947 H 1146.12 1.68258 -0.882569 0
M  V30 11948 H 1144.27 3.87496 0.279164 0
M  V30 11949 H 1145.94 3.98227 -2.32837 0
M  V30 11950 H 1144.18 3.70936 -2.2492 0
M  V30 11951 H 1144.86 5.24997 -1.70536 0
M  V30 11952 H 1147.33 4.15936 -0.11683 0
M  V30 11953 H 1146.21 5.48132 0.290337 0
M  V30 11954 H 1146.47 4.1797 1.44062 0
M  V30 11955 N 1145.53 0.438773 1.51369 0
M  V30 11956 C 1146.76 -0.125847 2.06517 0
M  V30 11957 C 1147.17 -1.36336 1.30606 0
M  V30 11958 O 1146.53 -1.78792 0.36603 0
M  V30 11959 C 1146.58 -0.446619 3.5873 0
M  V30 11960 O 1146.3 0.741781 4.31775 0
M  V30 11961 C 1147.8 -1.06175 4.30397 0
M  V30 11962 H 1145.02 -0.00728868 0.67096 0
M  V30 11963 H 1147.56 0.618267 1.9493 0
M  V30 11964 H 1145.72 -1.14064 3.70227 0
M  V30 11965 H 1146.13 0.466907 5.22418 0
M  V30 11966 H 1147.61 -1.23619 5.3798 0
M  V30 11967 H 1148.08 -2.04317 3.88782 0
M  V30 11968 H 1148.69 -0.40708 4.23347 0
M  V30 11969 N 1147.01 -1.56678 0.170181 0
M  V30 11970 C 1148.25 -1.9646 -0.474125 0
M  V30 11971 C 1148.57 -1.05719 -1.63855 0
M  V30 11972 O 1147.84 -0.123316 -1.95511 0
M  V30 11973 H 1146.42 -0.725446 -0.178149 0
M  V30 11974 H 1149.09 -1.93276 0.251099 0
M  V30 11975 H 1148.18 -3.00726 -0.834894 0
M  V30 11976 N 1148.48 0.103547 -1.57259 0
M  V30 11977 C 1149.71 0.82624 -1.90232 0
M  V30 11978 C 1150.13 1.71902 -0.763641 0
M  V30 11979 O 1149.49 1.79043 0.285181 0
M  V30 11980 C 1149.54 1.62265 -3.22029 0
M  V30 11981 O 1148.64 2.73091 -3.09023 0
M  V30 11982 H 1147.98 0.227528 -0.6238 0
M  V30 11983 H 1150.51 0.081307 -2.04438 0
M  V30 11984 H 1150.52 2.00865 -3.5513 0
M  V30 11985 H 1149.2 0.967383 -4.04493 0
M  V30 11986 H 1147.78 2.3758 -2.8742 0
M  V30 11987 N 1149.96 1.53094 0.37415 0
M  V30 11988 C 1151.21 1.69111 1.11934 0
M  V30 11989 C 1151.54 0.437252 1.89213 0
M  V30 11990 O 1150.82 -0.565298 1.86104 0
M  V30 11991 C 1151.1 2.93559 2.08554 0
M  V30 11992 C 1150.95 4.29082 1.3494 0
M  V30 11993 C 1152.27 3.13586 3.08791 0
M  V30 11994 H 1149.39 0.615383 0.405553 0
M  V30 11995 H 1152.03 1.85719 0.401078 0
M  V30 11996 H 1150.18 2.79531 2.69805 0
M  V30 11997 H 1151.85 4.54906 0.765402 0
M  V30 11998 H 1150.1 4.28884 0.651238 0
M  V30 11999 H 1150.77 5.12275 2.05616 0
M  V30 12000 H 1153.24 3.26743 2.57639 0
M  V30 12001 H 1152.12 4.02112 3.73627 0
M  V30 12002 H 1152.38 2.28475 3.78486 0
M  V30 12003 N 1151.44 -0.633461 1.44309 0
M  V30 12004 C 1152.66 -1.42527 1.50668 0
M  V30 12005 C 1153.09 -1.87637 0.131861 0
M  V30 12006 O 1152.45 -1.58595 -0.878477 0
M  V30 12007 C 1152.5 -2.62328 2.47419 0
M  V30 12008 O 1151.6 -3.62081 1.97411 0
M  V30 12009 H 1150.94 -0.426559 0.508864 0
M  V30 12010 H 1153.47 -0.773392 1.8942 0
M  V30 12011 H 1153.48 -3.09901 2.65378 0
M  V30 12012 H 1152.16 -2.2884 3.47283 0
M  V30 12013 H 1150.73 -3.21333 1.89208 0
M  V30 12014 N 1152.92 -1.31168 -0.873655 0
M  V30 12015 C 1153.85 -1.21094 -1.99646 0
M  V30 12016 C 1154.83 -0.0989684 -1.69812 0
M  V30 12017 O 1156.01 -0.282939 -1.92128 0
M  V30 12018 C 1153.14 -0.913684 -3.35066 0
M  V30 12019 C 1152.1 -1.98482 -3.79195 0
M  V30 12020 C 1151.42 -1.54033 -5.12033 0
M  V30 12021 C 1152.72 -3.39745 -3.96699 0
M  V30 12022 H 1154.42 -2.1503 -2.08333 0
M  V30 12023 H 1151.96 -1.03521 -1.00097 0
M  V30 12024 H 1153.92 -0.829821 -4.13149 0
M  V30 12025 H 1152.64 0.0613471 -3.26542 0
M  V30 12026 H 1151.3 -2.05851 -3.03349 0
M  V30 12027 H 1150.95 -0.553261 -4.99948 0
M  V30 12028 H 1150.65 -2.25688 -5.4253 0
M  V30 12029 H 1152.17 -1.47047 -5.92629 0
M  V30 12030 H 1153.59 -3.35071 -4.65188 0
M  V30 12031 H 1151.98 -4.09585 -4.38589 0
M  V30 12032 H 1153.05 -3.80802 -3.00196 0
M  V30 12033 N 1154.4 1.08748 -1.14068 0
M  V30 12034 C 1155.31 2.19123 -0.837998 0
M  V30 12035 C 1156.32 1.73065 0.180164 0
M  V30 12036 O 1157.5 2.01398 0.00952285 0
M  V30 12037 C 1154.56 3.45257 -0.316 0
M  V30 12038 C 1153.62 4.05959 -1.39628 0
M  V30 12039 C 1152.86 5.26072 -0.899095 0
M  V30 12040 O 1153.08 5.69804 0.260744 0
M  V30 12041 O 1152.01 5.7808 -1.67652 0
M  V30 12042 H 1155.84 2.4748 -1.76033 0
M  V30 12043 H 1153.43 1.17816 -0.918675 0
M  V30 12044 H 1155.31 4.21389 -0.0306425 0
M  V30 12045 H 1153.98 3.18486 0.578654 0
M  V30 12046 H 1152.89 3.31432 -1.73505 0
M  V30 12047 H 1154.22 4.36971 -2.26533 0
M  V30 12048 N 1155.87 0.935264 1.26849 0
M  V30 12049 C 1156.84 0.44485 2.24842 0
M  V30 12050 C 1157.84 -0.440781 1.54641 0
M  V30 12051 O 1159.03 -0.240793 1.72528 0
M  V30 12052 C 1156.16 -0.359566 3.38998 0
M  V30 12053 H 1157.35 1.31074 2.6974 0
M  V30 12054 H 1154.91 0.716665 1.38901 0
M  V30 12055 H 1155.64 -1.24396 2.99493 0
M  V30 12056 H 1155.43 0.275529 3.91131 0
M  V30 12057 H 1156.92 -0.692804 4.11813 0
M  V30 12058 N 1157.35 -1.41121 0.701616 0
M  V30 12059 C 1158.28 -2.33436 0.0545974 0
M  V30 12060 C 1159.26 -1.52144 -0.760662 0
M  V30 12061 O 1160.45 -1.80661 -0.712414 0
M  V30 12062 C 1157.58 -3.36015 -0.878117 0
M  V30 12063 C 1156.53 -4.27664 -0.169511 0
M  V30 12064 C 1155.86 -5.20666 -1.21699 0
M  V30 12065 C 1157.16 -5.13254 0.967859 0
M  V30 12066 H 1158.85 -2.87791 0.825637 0
M  V30 12067 H 1156.4 -1.38377 0.398484 0
M  V30 12068 H 1158.35 -3.99526 -1.34004 0
M  V30 12069 H 1157.08 -2.80024 -1.68089 0
M  V30 12070 H 1155.73 -3.65586 0.272441 0
M  V30 12071 H 1155.38 -4.60987 -2.01246 0
M  V30 12072 H 1155.08 -5.82822 -0.747836 0
M  V30 12073 H 1156.61 -5.87053 -1.6793 0
M  V30 12074 H 1158.02 -5.70298 0.585944 0
M  V30 12075 H 1156.42 -5.84381 1.3645 0
M  V30 12076 H 1157.49 -4.5006 1.80483 0
M  V30 12077 N 1158.83 -0.446794 -1.51134 0
M  V30 12078 C 1159.74 0.36579 -2.31731 0
M  V30 12079 C 1160.76 1.01886 -1.41051 0
M  V30 12080 O 1161.93 1.01216 -1.74119 0
M  V30 12081 C 1159 1.44705 -3.15058 0
M  V30 12082 C 1158.06 0.813129 -4.21529 0
M  V30 12083 C 1157.29 1.84287 -5.00873 0
M  V30 12084 O 1157.51 3.06633 -4.8097 0
M  V30 12085 O 1156.45 1.42816 -5.84711 0
M  V30 12086 H 1160.27 -0.292436 -3.02289 0
M  V30 12087 H 1157.86 -0.209129 -1.47929 0
M  V30 12088 H 1159.74 2.07393 -3.66833 0
M  V30 12089 H 1158.42 2.08919 -2.47254 0
M  V30 12090 H 1157.32 0.147953 -3.73807 0
M  V30 12091 H 1158.66 0.214331 -4.91733 0
M  V30 12092 N 1160.31 1.56586 -0.178487 0
M  V30 12093 C 1161.22 2.21903 0.761321 0
M  V30 12094 C 1162.23 1.21289 1.2476 0
M  V30 12095 O 1163.41 1.53974 1.29823 0
M  V30 12096 C 1160.48 2.85259 1.97048 0
M  V30 12097 C 1159.54 4.01095 1.53039 0
M  V30 12098 C 1158.77 4.61421 2.68191 0
M  V30 12099 O 1158.99 4.20644 3.85247 0
M  V30 12100 O 1157.93 5.51171 2.41855 0
M  V30 12101 H 1161.75 3.02788 0.235141 0
M  V30 12102 H 1159.34 1.49316 0.0500442 0
M  V30 12103 H 1161.22 3.25404 2.6775 0
M  V30 12104 H 1159.89 2.07366 2.48558 0
M  V30 12105 H 1158.8 3.65606 0.792661 0
M  V30 12106 H 1160.13 4.80603 1.06213 0
M  V30 12107 N 1161.79 -0.095206 1.57312 0
M  V30 12108 C 1163.03 -0.799903 1.86358 0
M  V30 12109 C 1163.37 -1.78386 0.767593 0
M  V30 12110 O 1162.64 -1.93201 -0.224439 0
M  V30 12111 C 1162.92 -1.52875 3.26039 0
M  V30 12112 C 1162.78 -0.562781 4.46265 0
M  V30 12113 C 1164.1 -2.47935 3.63616 0
M  V30 12114 H 1161.21 -0.289339 0.677829 0
M  V30 12115 H 1163.86 -0.0635369 1.89894 0
M  V30 12116 H 1162.01 -2.15645 3.23156 0
M  V30 12117 H 1163.68 0.0579068 4.61264 0
M  V30 12118 H 1161.92 0.123847 4.33623 0
M  V30 12119 H 1162.59 -1.10989 5.40727 0
M  V30 12120 H 1165.07 -1.95257 3.67442 0
M  V30 12121 H 1163.94 -2.95948 4.62283 0
M  V30 12122 H 1164.21 -3.31687 2.92294 0
M  V30 12123 N 1163.26 -1.53291 -0.366026 0
M  V30 12124 C 1164.2 -1.75981 -1.46845 0
M  V30 12125 C 1165.21 -0.640574 -1.49668 0
M  V30 12126 O 1166.4 -0.916823 -1.53155 0
M  V30 12127 C 1163.5 -1.82426 -2.85611 0
M  V30 12128 C 1162.67 -3.12062 -3.0649 0
M  V30 12129 C 1161.73 -3.09755 -4.25368 0
M  V30 12130 O 1160.76 -3.83555 -4.20564 0
M  V30 12131 N 1161.96 -2.30544 -5.32757 0
M  V30 12132 H 1164.72 -2.71104 -1.2776 0
M  V30 12133 H 1162.28 -1.52063 -0.555745 0
M  V30 12134 H 1164.28 -1.78361 -3.63276 0
M  V30 12135 H 1162.85 -0.945888 -2.97946 0
M  V30 12136 H 1162.07 -3.29433 -2.16489 0
M  V30 12137 H 1163.35 -3.97735 -3.17308 0
M  V30 12138 H 1162.75 -1.70095 -5.39522 0
M  V30 12139 H 1161.31 -2.32298 -6.09 0
M  V30 12140 N 1164.74 0.6258 -1.44643 0
M  V30 12141 C 1165.99 1.3873 -1.47925 0
M  V30 12142 C 1166.32 1.93868 -0.113469 0
M  V30 12143 O 1165.6 1.73976 0.869639 0
M  V30 12144 C 1165.88 2.54867 -2.54391 0
M  V30 12145 C 1165.73 2.05044 -4.00346 0
M  V30 12146 C 1167.05 3.57043 -2.57309 0
M  V30 12147 H 1164.17 0.503087 -0.538584 0
M  V30 12148 H 1166.81 0.707102 -1.76352 0
M  V30 12149 H 1164.96 3.12894 -2.30281 0
M  V30 12150 H 1166.63 1.51807 -4.35606 0
M  V30 12151 H 1164.88 1.36185 -4.11869 0
M  V30 12152 H 1165.55 2.88681 -4.70497 0
M  V30 12153 H 1168.02 3.08826 -2.78865 0
M  V30 12154 H 1166.9 4.35818 -3.33698 0
M  V30 12155 H 1167.16 4.11464 -1.61708 0
M  V30 12156 N 1166.22 1.31629 0.866686 0
M  V30 12157 C 1167.47 1.21263 1.61678 0
M  V30 12158 C 1167.79 -0.228562 1.93656 0
M  V30 12159 O 1167.06 -1.15014 1.58583 0
M  V30 12160 H 1165.64 0.445817 0.59938 0
M  V30 12161 H 1168.3 1.64998 1.03739 0
M  V30 12162 H 1167.4 1.78669 2.55898 0
M  V30 12163 N 1167.7 -1.08142 1.14644 0
M  V30 12164 C 1168.61 -2.18675 0.849607 0
M  V30 12165 C 1169.63 -1.73158 -0.170983 0
M  V30 12166 O 1170.8 -2.014 0.0011579 0
M  V30 12167 C 1167.87 -3.45084 0.334305 0
M  V30 12168 C 1166.93 -4.05213 1.41779 0
M  V30 12169 C 1166.16 -5.25588 0.926981 0
M  V30 12170 O 1166.38 -5.69934 -0.230522 0
M  V30 12171 O 1165.32 -5.77183 1.70715 0
M  V30 12172 H 1169.14 -2.46542 1.77343 0
M  V30 12173 H 1166.73 -1.17328 0.924911 0
M  V30 12174 H 1168.61 -4.21367 0.0529893 0
M  V30 12175 H 1167.29 -3.18788 -0.561755 0
M  V30 12176 H 1166.19 -3.30507 1.7526 0
M  V30 12177 H 1167.53 -4.35764 2.28847 0
M  V30 12178 N 1169.18 -0.941978 -1.26351 0
M  V30 12179 C 1170.13 -0.443011 -2.28342 0
M  V30 12180 C 1171.12 0.48013 -1.62453 0
M  V30 12181 O 1172.33 0.358255 -1.76399 0
M  V30 12182 H 1168.7 -0.124728 -0.741584 0
M  V30 12183 H 1170.67 -1.31573 -2.67827 0
M  V30 12184 C 1169.42 0.275675 -3.46605 0
M  V30 12185 H 1168.74 -0.425504 -3.97529 0
M  V30 12186 H 1170.18 0.589012 -4.19889 0
M  V30 12187 C 1168.64 1.49376 -3.01974 0
M  V30 12188 O 1169.17 2.59203 -3.06883 0
M  V30 12189 N 1167.38 1.35061 -2.57307 0
M  V30 12190 H 1166.93 0.457045 -2.53513 0
M  V30 12191 H 1166.88 2.16681 -2.27809 0
M  V30 12192 N 1170.66 1.40747 -0.709091 0
M  V30 12193 C 1171.9 2.00233 -0.242836 0
M  V30 12194 C 1172.22 1.56853 1.1686 0
M  V30 12195 O 1173.42 2.08993 1.73304 0
M  V30 12196 C 1171.88 3.57854 -0.383241 0
M  V30 12197 C 1171.49 4.10209 -1.80091 0
M  V30 12198 C 1173.23 4.24494 0.0225511 0
M  V30 12199 C 1171.14 5.60311 -1.89225 0
M  V30 12200 H 1170.07 0.74896 -0.087034 0
M  V30 12201 H 1172.72 1.61064 -0.879243 0
M  V30 12202 H 1171.1 3.94692 0.321642 0
M  V30 12203 H 1172.28 3.84762 -2.53564 0
M  V30 12204 H 1170.59 3.56142 -2.15758 0
M  V30 12205 H 1173.19 5.34694 -0.0250644 0
M  V30 12206 H 1173.53 4.02488 1.06344 0
M  V30 12207 H 1174.06 3.92739 -0.632541 0
M  V30 12208 H 1170.8 5.87162 -2.91412 0
M  V30 12209 H 1170.32 5.87642 -1.20154 0
M  V30 12210 H 1172 6.25306 -1.66136 0
M  V30 12211 N 1172.13 0.454803 1.50895 0
M  V30 12212 C 1173.04 -0.353495 2.31921 0
M  V30 12213 C 1174.06 -1.01136 1.41589 0
M  V30 12214 O 1175.24 -1.00291 1.74653 0
M  V30 12215 C 1172.3 -1.43032 3.15821 0
M  V30 12216 C 1171.36 -0.790763 4.21954 0
M  V30 12217 C 1170.59 -1.81628 5.01843 0
M  V30 12218 O 1170.82 -3.04078 4.8259 0
M  V30 12219 O 1169.75 -1.39713 5.8546 0
M  V30 12220 H 1173.58 0.308463 3.02129 0
M  V30 12221 H 1171.16 0.216971 1.47816 0
M  V30 12222 H 1173.04 -2.05444 3.67927 0
M  V30 12223 H 1171.72 -2.07605 2.48358 0
M  V30 12224 H 1170.63 -0.128127 3.73881 0
M  V30 12225 H 1171.96 -0.188251 4.9184 0
M  V30 12226 N 1173.61 -1.56489 0.186789 0
M  V30 12227 C 1174.86 -1.97634 -0.454831 0
M  V30 12228 C 1175.19 -1.07334 -1.61843 0
M  V30 12229 O 1174.47 -0.123612 -1.94107 0
M  V30 12230 C 1174.75 -3.48071 -0.922962 0
M  V30 12231 C 1174.6 -4.49149 0.241877 0
M  V30 12232 C 1175.92 -4.01994 -1.79134 0
M  V30 12233 H 1173.04 -0.718555 -0.163854 0
M  V30 12234 H 1175.68 -1.87984 0.27604 0
M  V30 12235 H 1173.83 -3.56425 -1.54575 0
M  V30 12236 H 1175.5 -4.52841 0.87936 0
M  V30 12237 H 1173.75 -4.24468 0.894964 0
M  V30 12238 H 1174.42 -5.51851 -0.128051 0
M  V30 12239 H 1176.89 -3.96367 -1.26618 0
M  V30 12240 H 1175.77 -5.07641 -2.08787 0
M  V30 12241 H 1176.03 -3.46747 -2.74261 0
M  V30 12242 N 1175.09 0.086862 -1.5736 0
M  V30 12243 C 1176.34 0.787281 -1.86135 0
M  V30 12244 C 1176.66 1.78866 -0.776667 0
M  V30 12245 O 1175.93 1.94915 0.19625 0
M  V30 12246 H 1174.51 0.293744 -0.686821 0
M  V30 12247 H 1177.17 0.0665326 -1.94786 0
M  V30 12248 H 1176.27 1.3128 -2.83147 0
M  V30 12249 N 1176.57 1.53483 0.357892 0
M  V30 12250 C 1177.81 1.70289 1.10134 0
M  V30 12251 C 1178.15 0.457296 1.88739 0
M  V30 12252 O 1177.42 -0.545527 1.86693 0
M  V30 12253 C 1177.7 2.95755 2.05429 0
M  V30 12254 C 1177.56 4.30489 1.30382 0
M  V30 12255 C 1178.88 3.16844 3.05447 0
M  V30 12256 H 1176 0.61965 0.399003 0
M  V30 12257 H 1178.64 1.86133 0.381357 0
M  V30 12258 H 1176.79 2.82377 2.66825 0
M  V30 12259 H 1178.46 4.55692 0.71711 0
M  V30 12260 H 1176.7 4.2955 0.605712 0
M  V30 12261 H 1177.37 5.14427 2.00171 0
M  V30 12262 H 1179.85 3.29458 2.54159 0
M  V30 12263 H 1178.73 4.06053 3.69341 0
M  V30 12264 H 1178.99 2.32476 3.76041 0
M  V30 12265 N 1178.05 -0.61812 1.44973 0
M  V30 12266 C 1179.29 -1.37468 1.48145 0
M  V30 12267 C 1179.61 -1.94628 0.120366 0
M  V30 12268 O 1178.88 -1.76548 -0.848982 0
M  V30 12269 H 1177.46 -0.510293 0.545536 0
M  V30 12270 H 1180.13 -0.726598 1.8085 0
M  V30 12271 H 1179.22 -2.19944 2.2143 0
M  V30 12272 N 1179.52 -1.32087 -0.859693 0
M  V30 12273 C 1180.77 -1.21716 -1.60836 0
M  V30 12274 C 1181.09 0.220904 -1.94349 0
M  V30 12275 O 1182.29 0.446422 -2.67805 0
M  V30 12276 C 1180.75 -2.13143 -2.89997 0
M  V30 12277 C 1180.36 -3.62003 -2.63928 0
M  V30 12278 C 1182.1 -2.11596 -3.68004 0
M  V30 12279 C 1180.01 -4.45407 -3.89059 0
M  V30 12280 H 1178.94 -0.45199 -0.603507 0
M  V30 12281 H 1181.59 -1.57013 -0.949687 0
M  V30 12282 H 1179.97 -1.70755 -3.57294 0
M  V30 12283 H 1181.14 -4.12701 -2.04974 0
M  V30 12284 H 1179.46 -3.6563 -1.99258 0
M  V30 12285 H 1182.06 -2.71149 -4.6085 0
M  V30 12286 H 1182.4 -1.10568 -4.01348 0
M  V30 12287 H 1182.93 -2.52238 -3.07605 0
M  V30 12288 H 1179.67 -5.4723 -3.60859 0
M  V30 12289 H 1179.19 -3.99462 -4.47427 0
M  V30 12290 H 1180.87 -4.58149 -4.56846 0
M  V30 12291 N 1181 1.07532 -1.15215 0
M  V30 12292 C 1182.28 1.76813 -0.83646 0
M  V30 12293 C 1182.66 2.00242 0.6683 0
M  V30 12294 O 1182.01 1.61941 1.61206 0
M  V30 12295 C 1182.22 3.0779 -1.64519 0
M  V30 12296 C 1183.56 3.82168 -1.85022 0
M  V30 12297 O 1184.59 3.17596 -1.61279 0
M  V30 12298 O 1183.45 4.98135 -2.24775 0
M  V30 12299 H 1180.54 0.767736 -0.307426 0
M  V30 12300 H 1183.09 1.13914 -1.25784 0
M  V30 12301 H 1181.86 2.86342 -2.6669 0
M  V30 12302 H 1181.48 3.78419 -1.22002 0
M  V30 12303 N 1182.48 0.948665 1.2585 0
M  V30 12304 C 1183.39 0.470525 2.29833 0
M  V30 12305 C 1184.41 -0.45919 1.67832 0
M  V30 12306 O 1185.58 -0.336893 1.98562 0
M  V30 12307 C 1182.65 -0.249635 3.458 0
M  V30 12308 C 1181.71 0.717559 4.23261 0
M  V30 12309 C 1180.94 0.0316724 5.33691 0
M  V30 12310 O 1181.16 -1.18384 5.5798 0
M  V30 12311 O 1180.1 0.71418 5.97648 0
M  V30 12312 H 1183.92 1.33447 2.72811 0
M  V30 12313 H 1181.51 0.714864 1.31187 0
M  V30 12314 H 1183.39 -0.654993 4.16279 0
M  V30 12315 H 1182.07 -1.08885 3.04837 0
M  V30 12316 H 1180.97 1.17301 3.55234 0
M  V30 12317 H 1182.31 1.52461 4.67992 0
M  V30 12318 N 1183.96 -1.40369 0.716545 0
M  V30 12319 C 1184.89 -2.33365 0.0793533 0
M  V30 12320 C 1185.87 -1.52943 -0.744482 0
M  V30 12321 O 1187.05 -1.81406 -0.693212 0
M  V30 12322 C 1184.18 -3.36928 -0.842429 0
M  V30 12323 C 1183.14 -4.2782 -0.124142 0
M  V30 12324 C 1182.46 -5.21928 -1.1617 0
M  V30 12325 C 1183.76 -5.12199 1.02224 0
M  V30 12326 H 1185.46 -2.86899 0.856115 0
M  V30 12327 H 1183 -1.37946 0.413138 0
M  V30 12328 H 1184.96 -4.00925 -1.29759 0
M  V30 12329 H 1183.68 -2.81791 -1.6511 0
M  V30 12330 H 1182.34 -3.65277 0.311201 0
M  V30 12331 H 1181.99 -4.63096 -1.96345 0
M  V30 12332 H 1181.69 -5.83582 -0.685978 0
M  V30 12333 H 1183.21 -5.88802 -1.61694 0
M  V30 12334 H 1184.63 -5.69644 0.646399 0
M  V30 12335 H 1183.02 -5.82901 1.4264 0
M  V30 12336 H 1184.09 -4.4812 1.85246 0
M  V30 12337 N 1185.44 -0.462799 -1.50652 0
M  V30 12338 C 1186.68 0.0951853 -2.02576 0
M  V30 12339 C 1187.02 1.40113 -1.34469 0
M  V30 12340 O 1186.29 1.88793 -0.467702 0
M  V30 12341 C 1186.57 0.287603 -3.5895 0
M  V30 12342 C 1186.43 -1.03878 -4.37641 0
M  V30 12343 C 1187.75 1.04593 -4.27491 0
M  V30 12344 H 1184.86 0.0331191 -0.736255 0
M  V30 12345 H 1187.51 -0.606772 -1.80051 0
M  V30 12346 H 1185.66 0.885514 -3.78274 0
M  V30 12347 H 1187.33 -1.67263 -4.29908 0
M  V30 12348 H 1185.57 -1.6374 -4.01711 0
M  V30 12349 H 1186.24 -0.857889 -5.45293 0
M  V30 12350 H 1188.72 0.539213 -4.12591 0
M  V30 12351 H 1187.59 1.14935 -5.36732 0
M  V30 12352 H 1187.86 2.08045 -3.90089 0
M  V30 12353 N 1186.91 1.56388 -0.195085 0
M  V30 12354 C 1187.86 2.20431 0.742484 0
M  V30 12355 C 1188.86 1.17548 1.21979 0
M  V30 12356 O 1190.06 1.35693 1.18269 0
M  V30 12357 H 1186.44 0.706435 0.257786 0
M  V30 12358 H 1188.41 2.97865 0.178624 0
M  V30 12359 C 1187.16 2.87772 1.95147 0
M  V30 12360 H 1186.48 3.66681 1.59326 0
M  V30 12361 H 1187.92 3.36021 2.58585 0
M  V30 12362 C 1186.38 1.88807 2.79022 0
M  V30 12363 O 1186.91 1.38836 3.76945 0
M  V30 12364 N 1185.12 1.57037 2.44515 0
M  V30 12365 H 1184.66 1.97868 1.64943 0
M  V30 12366 H 1184.62 0.910776 3.00919 0
M  V30 12367 N 1188.39 -0.0785156 1.57404 0
M  V30 12368 C 1189.36 -1.07835 2.02248 0
M  V30 12369 C 1190.36 -1.31987 0.918475 0
M  V30 12370 O 1191.55 -1.27821 1.18353 0
M  V30 12371 C 1188.68 -2.42361 2.39737 0
M  V30 12372 H 1189.87 -0.691995 2.91807 0
M  V30 12373 H 1187.42 -0.32405 1.52904 0
M  V30 12374 H 1188.16 -2.85841 1.53183 0
M  V30 12375 H 1187.94 -2.26174 3.20293 0
M  V30 12376 H 1189.43 -3.14241 2.75031 0
M  V30 12377 N 1189.87 -1.5367 -0.349747 0
M  V30 12378 C 1190.78 -1.84207 -1.45275 0
M  V30 12379 C 1191.8 -0.731695 -1.57868 0
M  V30 12380 O 1192.97 -1.02337 -1.73462 0
M  V30 12381 C 1190.04 -2.0398 -2.80345 0
M  V30 12382 C 1189.1 -3.27853 -2.77148 0
M  V30 12383 C 1188.33 -3.46673 -4.05775 0
M  V30 12384 O 1188.55 -2.69457 -5.02741 0
M  V30 12385 O 1187.49 -4.40082 -4.10623 0
M  V30 12386 H 1191.31 -2.77947 -1.22389 0
M  V30 12387 H 1188.9 -1.39247 -0.541345 0
M  V30 12388 H 1190.78 -2.18466 -3.60348 0
M  V30 12389 H 1189.46 -1.13429 -3.03176 0
M  V30 12390 H 1188.36 -3.18776 -1.95787 0
M  V30 12391 H 1189.7 -4.18377 -2.59271 0
M  V30 12392 N 1191.35 0.610423 -1.45298 0
M  V30 12393 C 1192.31 1.70324 -1.5337 0
M  V30 12394 C 1193.31 1.55393 -0.413492 0
M  V30 12395 O 1194.5 1.60512 -0.676872 0
M  V30 12396 C 1191.63 3.09572 -1.42752 0
M  V30 12397 H 1192.83 1.64535 -2.50736 0
M  V30 12398 H 1190.38 0.825906 -1.32697 0
M  V30 12399 H 1191.11 3.2094 -0.465601 0
M  V30 12400 H 1190.9 3.21817 -2.24 0
M  V30 12401 H 1192.39 3.89178 -1.51427 0
M  V30 12402 N 1192.83 1.32541 0.852676 0
M  V30 12403 C 1194.07 1.23214 1.607 0
M  V30 12404 C 1194.4 -0.205542 1.93411 0
M  V30 12405 O 1193.66 -1.15907 1.57683 0
M  V30 12406 C 1193.96 2.039 2.9353 0
M  V30 12407 C 1193.62 3.53237 2.8024 0
M  V30 12408 C 1192.28 3.93953 2.76323 0
M  V30 12409 C 1194.64 4.48194 2.6603 0
M  V30 12410 C 1191.96 5.27865 2.56077 0
M  V30 12411 C 1194.32 5.82251 2.47319 0
M  V30 12412 C 1192.98 6.22166 2.41796 0
M  V30 12413 H 1192.25 0.450873 0.588043 0
M  V30 12414 H 1194.9 1.63988 0.988954 0
M  V30 12415 H 1193.2 1.55861 3.59464 0
M  V30 12416 H 1194.9 1.94051 3.50921 0
M  V30 12417 H 1191.49 3.209 2.84114 0
M  V30 12418 H 1195.67 4.17656 2.681 0
M  V30 12419 H 1190.93 5.57845 2.50237 0
M  V30 12420 H 1195.1 6.55442 2.35305 0
M  V30 12421 H 1192.73 7.2587 2.25868 0
M  V30 12422 N 1194.3 -1.0692 1.15784 0
M  V30 12423 C 1195.27 -2.12407 0.861167 0
M  V30 12424 C 1196.27 -1.6018 -0.141031 0
M  V30 12425 O 1197.46 -1.73972 0.0891192 0
M  V30 12426 C 1194.59 -3.39693 0.286636 0
M  V30 12427 H 1195.78 -2.40157 1.79623 0
M  V30 12428 H 1193.34 -1.22881 0.965916 0
M  V30 12429 H 1194.07 -3.17587 -0.656417 0
M  V30 12430 H 1193.86 -3.78903 1.0087 0
M  V30 12431 H 1195.35 -4.17488 0.0967971 0
M  V30 12432 N 1195.78 -0.955326 -1.25345 0
M  V30 12433 C 1197.01 -0.626783 -1.96863 0
M  V30 12434 C 1197.42 0.80547 -1.71198 0
M  V30 12435 O 1196.76 1.55049 -0.985163 0
M  V30 12436 C 1196.83 -0.806404 -3.50339 0
M  V30 12437 C 1196.49 -2.21595 -3.99681 0
M  V30 12438 C 1197.49 -3.19268 -4.10322 0
M  V30 12439 C 1195.17 -2.54032 -4.33328 0
M  V30 12440 C 1197.17 -4.47471 -4.53926 0
M  V30 12441 C 1194.85 -3.82465 -4.76617 0
M  V30 12442 C 1195.85 -4.78997 -4.86879 0
M  V30 12443 O 1195.54 -6.0514 -5.29208 0
M  V30 12444 H 1195.27 -0.233854 -0.634262 0
M  V30 12445 H 1197.82 -1.28232 -1.60455 0
M  V30 12446 H 1196.05 -0.0937184 -3.86586 0
M  V30 12447 H 1197.74 -0.47881 -4.03066 0
M  V30 12448 H 1198.51 -2.95534 -3.84558 0
M  V30 12449 H 1194.39 -1.79623 -4.24566 0
M  V30 12450 H 1197.93 -5.22819 -4.6185 0
M  V30 12451 H 1193.83 -4.06005 -5.01827 0
M  V30 12452 H 1194.6 -6.08527 -5.47392 0
M  V30 12453 N 1197.26 1.39987 -0.723979 0
M  V30 12454 C 1198.54 1.94637 -0.1939 0
M  V30 12455 C 1198.92 1.66156 1.30212 0
M  V30 12456 O 1198.27 0.983783 2.06238 0
M  V30 12457 C 1198.48 3.4517 -0.515652 0
M  V30 12458 C 1199.82 4.22113 -0.458919 0
M  V30 12459 O 1200.85 3.53318 -0.452198 0
M  V30 12460 O 1199.71 5.44695 -0.443783 0
M  V30 12461 H 1196.8 0.826394 -0.0316615 0
M  V30 12462 H 1199.35 1.49548 -0.802085 0
M  V30 12463 H 1198.12 3.5929 -1.55004 0
M  V30 12464 H 1197.74 3.97413 0.122067 0
M  V30 12465 N 1198.74 0.470782 1.50404 0
M  V30 12466 C 1199.99 -0.084316 2.02324 0
M  V30 12467 C 1200.31 -1.39749 1.35279 0
M  V30 12468 O 1199.57 -1.90037 0.467364 0
M  V30 12469 C 1199.87 -0.316419 3.55997 0
M  V30 12470 C 1199.53 0.915017 4.41518 0
M  V30 12471 C 1198.2 1.25265 4.6461 0
M  V30 12472 C 1200.55 1.73494 4.91477 0
M  V30 12473 C 1197.88 2.41027 5.34905 0
M  V30 12474 C 1200.23 2.88384 5.63043 0
M  V30 12475 C 1198.89 3.22562 5.84389 0
M  V30 12476 H 1198.16 -0.0308534 0.740357 0
M  V30 12477 H 1200.81 0.624799 1.81021 0
M  V30 12478 H 1199.11 -1.10778 3.75813 0
M  V30 12479 H 1200.81 -0.759882 3.93734 0
M  V30 12480 H 1197.4 0.641977 4.23765 0
M  V30 12481 H 1201.59 1.48728 4.73491 0
M  V30 12482 H 1196.84 2.67781 5.49639 0
M  V30 12483 H 1201.02 3.52264 6.00735 0
M  V30 12484 H 1198.64 4.1237 6.38635 0
M  V30 12485 N 1200.22 -1.56282 0.203376 0
M  V30 12486 C 1201.45 -2.02198 -0.438572 0
M  V30 12487 C 1201.86 -1.08343 -1.54619 0
M  V30 12488 O 1201.22 -0.0897594 -1.82279 0
M  V30 12489 C 1201.27 -3.4776 -0.987184 0
M  V30 12490 O 1200.99 -4.38034 0.0762552 0
M  V30 12491 C 1202.49 -4.09234 -1.70419 0
M  V30 12492 H 1199.71 -0.662041 -0.109282 0
M  V30 12493 H 1202.25 -2.02067 0.314509 0
M  V30 12494 H 1200.41 -3.48564 -1.69061 0
M  V30 12495 H 1200.82 -5.2344 -0.333322 0
M  V30 12496 H 1202.3 -5.1291 -2.04027 0
M  V30 12497 H 1202.77 -3.53172 -2.61087 0
M  V30 12498 H 1203.38 -4.12226 -1.04641 0
M  V30 12499 N 1201.7 0.070167 -1.57444 0
M  V30 12500 C 1202.63 1.08351 -2.06839 0
M  V30 12501 C 1203.61 1.40269 -0.962224 0
M  V30 12502 O 1204.79 1.49867 -1.23505 0
M  V30 12503 C 1201.92 2.39649 -2.51368 0
M  V30 12504 C 1200.88 2.22079 -3.65875 0
M  V30 12505 C 1200.2 3.58776 -3.96464 0
M  V30 12506 C 1201.5 1.64069 -4.95862 0
M  V30 12507 H 1203.2 0.672465 -2.9175 0
M  V30 12508 H 1200.74 0.322027 -1.40353 0
M  V30 12509 H 1202.69 3.10833 -2.84537 0
M  V30 12510 H 1201.42 2.82736 -1.63487 0
M  V30 12511 H 1200.08 1.53337 -3.32992 0
M  V30 12512 H 1199.73 3.99436 -3.05712 0
M  V30 12513 H 1199.43 3.47859 -4.7357 0
M  V30 12514 H 1200.95 4.31387 -4.32131 0
M  V30 12515 H 1202.36 2.2512 -5.27251 0
M  V30 12516 H 1200.76 1.63843 -5.773 0
M  V30 12517 H 1201.83 0.60232 -4.81145 0
M  V30 12518 N 1203.17 1.53854 0.341593 0
M  V30 12519 C 1204.12 1.8268 1.43982 0
M  V30 12520 C 1205.12 0.697415 1.54378 0
M  V30 12521 O 1206.32 0.880785 1.56978 0
M  V30 12522 H 1202.7 0.578788 0.480113 0
M  V30 12523 H 1204.67 2.74556 1.16884 0
M  V30 12524 C 1203.42 2.05496 2.80476 0
M  V30 12525 H 1202.74 2.91852 2.73244 0
M  V30 12526 H 1204.18 2.2963 3.56435 0
M  V30 12527 C 1202.64 0.841061 3.26233 0
M  V30 12528 O 1203.17 0.0414376 4.01679 0
M  V30 12529 N 1201.37 0.657736 2.83059 0
M  V30 12530 H 1200.92 1.30962 2.21826 0
M  V30 12531 H 1200.88 -0.153003 3.14027 0
M  V30 12532 N 1204.65 -0.602709 1.4562 0
M  V30 12533 C 1205.88 -1.38608 1.53203 0
M  V30 12534 C 1206.29 -1.88478 0.165098 0
M  V30 12535 O 1205.63 -1.63142 -0.844421 0
M  V30 12536 C 1205.69 -2.62214 2.45935 0
M  V30 12537 C 1205.36 -2.3395 3.92577 0
M  V30 12538 C 1206.36 -1.94011 4.82344 0
M  V30 12539 C 1204.04 -2.46711 4.37537 0
M  V30 12540 C 1206.03 -1.67202 6.15079 0
M  V30 12541 C 1203.72 -2.19515 5.70313 0
M  V30 12542 C 1204.72 -1.79823 6.58903 0
M  V30 12543 O 1204.41 -1.52948 7.89216 0
M  V30 12544 H 1204.14 -0.43052 0.52118 0
M  V30 12545 H 1206.69 -0.741655 1.91543 0
M  V30 12546 H 1204.92 -3.29394 2.02575 0
M  V30 12547 H 1206.61 -3.24264 2.44147 0
M  V30 12548 H 1207.38 -1.83684 4.48871 0
M  V30 12549 H 1203.26 -2.76572 3.68821 0
M  V30 12550 H 1206.8 -1.36146 6.84186 0
M  V30 12551 H 1202.7 -2.2946 6.03339 0
M  V30 12552 H 1203.47 -1.6696 8.01291 0
M  V30 12553 N 1206.13 -1.32992 -0.845635 0
M  V30 12554 C 1207.41 -1.14671 -1.58461 0
M  V30 12555 C 1207.79 0.289498 -2.09106 0
M  V30 12556 O 1207.13 1.28751 -1.88773 0
M  V30 12557 C 1207.34 -2.18206 -2.72373 0
M  V30 12558 C 1208.69 -2.5201 -3.41726 0
M  V30 12559 O 1209.72 -2.16821 -2.82608 0
M  V30 12560 O 1208.58 -3.12368 -4.48429 0
M  V30 12561 H 1205.67 -0.443088 -0.698285 0
M  V30 12562 H 1208.22 -1.44552 -0.888978 0
M  V30 12563 H 1206.99 -3.14707 -2.32541 0
M  V30 12564 H 1206.61 -1.89372 -3.49605 0
M  V30 12565 N 1207.61 1.06304 -1.1635 0
M  V30 12566 C 1208.52 2.17296 -0.884289 0
M  V30 12567 C 1209.53 1.73408 0.143414 0
M  V30 12568 O 1210.71 2.01373 -0.0331987 0
M  V30 12569 C 1207.77 3.44509 -0.389163 0
M  V30 12570 C 1206.84 4.02906 -1.48208 0
M  V30 12571 C 1206.07 5.24047 -1.01048 0
M  V30 12572 O 1206.29 5.70229 0.139821 0
M  V30 12573 O 1205.23 5.74394 -1.79876 0
M  V30 12574 H 1209.05 2.4369 -1.81243 0
M  V30 12575 H 1206.64 1.15841 -0.943459 0
M  V30 12576 H 1208.52 4.21229 -0.120018 0
M  V30 12577 H 1207.19 3.19642 0.510968 0
M  V30 12578 H 1206.1 3.27677 -1.80496 0
M  V30 12579 H 1207.43 4.32068 -2.35751 0
M  V30 12580 N 1209.09 0.96196 1.24836 0
M  V30 12581 C 1210.03 0.479282 2.27609 0
M  V30 12582 C 1211.03 -0.454224 1.63197 0
M  V30 12583 O 1212.23 -0.330146 1.76946 0
M  V30 12584 H 1208.61 0.13651 0.739506 0
M  V30 12585 H 1210.58 1.35817 2.657 0
M  V30 12586 C 1209.33 -0.220499 3.47 0
M  V30 12587 H 1208.65 0.488694 3.96802 0
M  V30 12588 H 1210.09 -0.522137 4.20773 0
M  V30 12589 C 1208.55 -1.44552 3.04313 0
M  V30 12590 O 1209.08 -2.54287 3.10967 0
M  V30 12591 N 1207.29 -1.3095 2.59423 0
M  V30 12592 H 1206.83 -0.416656 2.54208 0
M  V30 12593 H 1206.79 -2.13029 2.31227 0
M  V30 12594 N 1210.56 -1.39601 0.731392 0
M  V30 12595 C 1211.53 -2.28992 0.0976037 0
M  V30 12596 C 1212.53 -1.46135 -0.670917 0
M  V30 12597 O 1213.72 -1.66856 -0.50047 0
M  V30 12598 C 1210.85 -3.29582 -0.871124 0
M  V30 12599 H 1212.04 -2.86541 0.885112 0
M  V30 12600 H 1209.59 -1.48188 0.497002 0
M  V30 12601 H 1210.33 -2.77082 -1.68512 0
M  V30 12602 H 1210.11 -3.9077 -0.322735 0
M  V30 12603 H 1211.6 -3.96479 -1.31126 0
M  V30 12604 N 1212.04 -0.478751 -1.50152 0
M  V30 12605 C 1213.29 0.073585 -2.02366 0
M  V30 12606 C 1213.62 1.3903 -1.36018 0
M  V30 12607 O 1212.87 1.89787 -0.477435 0
M  V30 12608 C 1213.17 0.297535 -3.56159 0
M  V30 12609 C 1212.84 -0.938419 -4.41027 0
M  V30 12610 C 1211.5 -1.27727 -4.63939 0
M  V30 12611 C 1213.85 -1.76098 -4.9055 0
M  V30 12612 C 1211.18 -2.4386 -5.33619 0
M  V30 12613 C 1213.53 -2.91366 -5.61506 0
M  V30 12614 C 1212.2 -3.25657 -5.8267 0
M  V30 12615 H 1211.47 0.0269267 -0.740511 0
M  V30 12616 H 1214.11 -0.63439 -1.80687 0
M  V30 12617 H 1212.42 1.08783 -3.76395 0
M  V30 12618 H 1214.11 0.73899 -3.94132 0
M  V30 12619 H 1210.7 -0.664441 -4.23418 0
M  V30 12620 H 1214.89 -1.51237 -4.72696 0
M  V30 12621 H 1210.14 -2.70692 -5.48211 0
M  V30 12622 H 1214.32 -3.55445 -5.98859 0
M  V30 12623 H 1211.95 -4.15751 -6.36439 0
M  V30 12624 N 1213.52 1.56172 -0.211661 0
M  V30 12625 C 1214.43 2.23468 0.714081 0
M  V30 12626 C 1215.45 1.23908 1.22159 0
M  V30 12627 O 1216.62 1.56693 1.26528 0
M  V30 12628 C 1213.69 2.89375 1.90953 0
M  V30 12629 C 1212.75 4.04251 1.44497 0
M  V30 12630 C 1211.98 4.67006 2.58343 0
M  V30 12631 O 1212.2 4.28721 3.76237 0
M  V30 12632 O 1211.14 5.56177 2.3011 0
M  V30 12633 H 1214.96 3.03219 0.170862 0
M  V30 12634 H 1212.55 1.49389 0.0183607 0
M  V30 12635 H 1214.43 3.3101 2.60787 0
M  V30 12636 H 1213.11 2.12591 2.44104 0
M  V30 12637 H 1212.01 3.67205 0.714932 0
M  V30 12638 H 1213.35 4.82748 0.959947 0
M  V30 12639 N 1215 -0.0618163 1.57479 0
M  V30 12640 C 1216.23 -0.770605 1.9169 0
M  V30 12641 C 1216.64 -1.71134 0.806841 0
M  V30 12642 O 1215.98 -1.8228 -0.228002 0
M  V30 12643 C 1216.04 -1.60962 3.21452 0
M  V30 12644 C 1215.71 -0.837193 4.49266 0
M  V30 12645 C 1216.7 -0.151964 5.19678 0
M  V30 12646 C 1214.39 -0.801414 4.95866 0
M  V30 12647 C 1216.38 0.558705 6.34947 0
M  V30 12648 C 1214.07 -0.0869788 6.11038 0
M  V30 12649 C 1215.07 0.591871 6.80431 0
M  V30 12650 O 1214.75 1.29478 7.93405 0
M  V30 12651 H 1214.49 -0.223673 0.637923 0
M  V30 12652 H 1217.04 -0.0333424 2.05373 0
M  V30 12653 H 1215.27 -2.38992 3.04006 0
M  V30 12654 H 1216.96 -2.19799 3.41238 0
M  V30 12655 H 1217.73 -0.170848 4.84699 0
M  V30 12656 H 1213.6 -1.31927 4.4172 0
M  V30 12657 H 1217.15 1.08913 6.89046 0
M  V30 12658 H 1213.05 -0.066057 6.45466 0
M  V30 12659 H 1213.81 1.20507 8.0958 0
M  V30 12660 N 1216.48 -1.54033 -0.333429 0
M  V30 12661 C 1217.72 -1.72019 -1.07411 0
M  V30 12662 C 1218.06 -0.487265 -1.87988 0
M  V30 12663 O 1217.33 0.515757 -1.87537 0
M  V30 12664 C 1217.61 -2.98986 -2.00698 0
M  V30 12665 C 1217.47 -4.32509 -1.23517 0
M  V30 12666 C 1218.79 -3.21663 -3.00368 0
M  V30 12667 H 1215.9 -0.625919 -0.389094 0
M  V30 12668 H 1218.55 -1.86717 -0.351697 0
M  V30 12669 H 1216.7 -2.86586 -2.62298 0
M  V30 12670 H 1218.37 -4.56775 -0.644522 0
M  V30 12671 H 1216.61 -4.3046 -0.537298 0
M  V30 12672 H 1217.28 -5.17547 -1.91962 0
M  V30 12673 H 1219.76 -3.33459 -2.48886 0
M  V30 12674 H 1218.63 -4.11877 -3.62834 0
M  V30 12675 H 1218.9 -2.3843 -3.72295 0
M  V30 12676 N 1217.95 0.594978 -1.45938 0
M  V30 12677 C 1218.86 1.73296 -1.58132 0
M  V30 12678 C 1219.88 1.67665 -0.465245 0
M  V30 12679 O 1221.06 1.87794 -0.727684 0
M  V30 12680 C 1218.12 3.09783 -1.55677 0
M  V30 12681 C 1217.18 3.26772 -2.78422 0
M  V30 12682 C 1216.42 4.56748 -2.76075 0
M  V30 12683 O 1216.64 5.39867 -1.84119 0
M  V30 12684 O 1215.57 4.76721 -3.67452 0
M  V30 12685 H 1219.4 1.65957 -2.54346 0
M  V30 12686 H 1216.98 0.760572 -1.28591 0
M  V30 12687 H 1218.87 3.91077 -1.56961 0
M  V30 12688 H 1217.54 3.17585 -0.626191 0
M  V30 12689 H 1216.45 2.45018 -2.82696 0
M  V30 12690 H 1217.78 3.23853 -3.70648 0
M  V30 12691 N 1219.43 1.33438 0.838571 0
M  V30 12692 C 1220.4 1.23632 1.92997 0
M  V30 12693 C 1221.4 0.155302 1.60048 0
M  V30 12694 O 1222.59 0.406852 1.69382 0
M  V30 12695 C 1219.72 0.90512 3.28665 0
M  V30 12696 H 1220.91 2.20643 2.03117 0
M  V30 12697 H 1218.46 1.17501 1.03069 0
M  V30 12698 H 1219.2 -0.0624833 3.2424 0
M  V30 12699 H 1218.98 1.68688 3.53959 0
M  V30 12700 H 1220.47 0.861262 4.08622 0
M  V30 12701 N 1220.91 -1.05686 1.16912 0
M  V30 12702 C 1222.16 -1.77987 0.948875 0
M  V30 12703 C 1222.47 -1.8845 -0.524011 0
M  V30 12704 O 1223.68 -2.57442 -0.862322 0
M  V30 12705 C 1222.13 -3.19927 1.64848 0
M  V30 12706 C 1221.74 -3.1761 3.15956 0
M  V30 12707 C 1223.49 -3.96719 1.51044 0
M  V30 12708 C 1221.39 -4.54307 3.78628 0
M  V30 12709 H 1220.32 -0.667119 0.35138 0
M  V30 12710 H 1222.97 -1.18496 1.40111 0
M  V30 12711 H 1221.36 -3.79714 1.12397 0
M  V30 12712 H 1222.53 -2.67369 3.75301 0
M  V30 12713 H 1220.85 -2.54317 3.29715 0
M  V30 12714 H 1223.44 -4.97779 1.95243 0
M  V30 12715 H 1223.79 -4.13748 0.460268 0
M  V30 12716 H 1224.32 -3.43468 2.00685 0
M  V30 12717 H 1221.06 -4.42484 4.8362 0
M  V30 12718 H 1220.58 -5.04717 3.24069 0
M  V30 12719 H 1222.26 -5.23255 3.80543 0
M  V30 12720 N 1222.39 -0.968567 -1.24324 0
M  V30 12721 C 1223.61 -0.648166 -1.97012 0
M  V30 12722 C 1224.04 0.775842 -1.71354 0
M  V30 12723 O 1223.4 1.52672 -0.977804 0
M  V30 12724 C 1223.44 -0.929974 -3.48402 0
M  V30 12725 O 1222.55 -0.015854 -4.12397 0
M  V30 12726 H 1221.89 -0.244961 -0.617163 0
M  V30 12727 H 1224.42 -1.29895 -1.58077 0
M  V30 12728 H 1224.43 -0.861863 -3.98793 0
M  V30 12729 H 1223.1 -1.96776 -3.66404 0
M  V30 12730 H 1221.68 -0.137361 -3.72647 0
M  V30 12731 N 1223.87 1.39211 -0.738786 0
M  V30 12732 C 1225.14 1.9442 -0.214533 0
M  V30 12733 C 1225.52 1.67528 1.28443 0
M  V30 12734 O 1224.87 1.0056 2.05183 0
M  V30 12735 C 1225.08 3.44603 -0.552232 0
M  V30 12736 C 1226.43 4.21602 -0.503663 0
M  V30 12737 O 1227.45 3.52819 -0.489647 0
M  V30 12738 O 1226.31 5.44194 -0.50153 0
M  V30 12739 H 1223.41 0.826011 -0.0404247 0
M  V30 12740 H 1225.95 1.48689 -0.817902 0
M  V30 12741 H 1224.72 3.57626 -1.58806 0
M  V30 12742 H 1224.35 3.9752 0.0799096 0
M  V30 12743 N 1225.34 0.486708 1.49896 0
M  V30 12744 C 1226.62 -0.125183 1.95199 0
M  V30 12745 C 1227 -1.55498 1.42771 0
M  V30 12746 O 1226.35 -2.1949 0.635322 0
M  V30 12747 C 1226.56 -0.0524982 3.48961 0
M  V30 12748 C 1227.91 -0.233595 4.23957 0
M  V30 12749 O 1228.93 -0.128357 3.55969 0
M  V30 12750 O 1227.79 -0.447862 5.44662 0
M  V30 12751 H 1224.88 -0.103141 0.820543 0
M  V30 12752 H 1227.43 0.548226 1.60601 0
M  V30 12753 H 1226.2 0.945163 3.79714 0
M  V30 12754 H 1225.83 -0.766683 3.90138 0
M  V30 12755 N 1226.82 -1.56058 0.219941 0
M  V30 12756 C 1228.07 -1.97869 -0.411383 0
M  V30 12757 C 1228.39 -1.10878 -1.60409 0
M  V30 12758 O 1227.66 -0.185454 -1.9502 0
M  V30 12759 H 1226.24 -0.730747 -0.154979 0
M  V30 12760 H 1228.9 -1.92379 0.312461 0
M  V30 12761 H 1228 -3.0323 -0.738798 0
M  V30 12762 N 1228.3 0.053464 -1.57509 0
M  V30 12763 C 1229.55 0.750212 -1.88414 0
M  V30 12764 C 1229.88 1.76288 -0.814619 0
M  V30 12765 O 1229.16 1.93728 0.173136 0
M  V30 12766 C 1229.44 1.44176 -3.29978 0
M  V30 12767 C 1229.29 0.444263 -4.47601 0
M  V30 12768 C 1230.61 2.38207 -3.70061 0
M  V30 12769 H 1227.73 0.271266 -0.685262 0
M  V30 12770 H 1230.37 0.0131676 -1.89995 0
M  V30 12771 H 1228.52 2.07001 -3.2876 0
M  V30 12772 H 1230.19 -0.180182 -4.60948 0
M  V30 12773 H 1228.44 -0.238771 -4.33142 0
M  V30 12774 H 1229.11 0.966134 -5.43479 0
M  V30 12775 H 1231.58 1.85446 -3.7249 0
M  V30 12776 H 1230.46 2.83588 -4.69967 0
M  V30 12777 H 1230.72 3.23821 -3.00985 0
M  V30 12778 N 1229.78 1.54207 0.325255 0
M  V30 12779 C 1231.03 1.72331 1.0634 0
M  V30 12780 C 1231.35 0.496115 1.88066 0
M  V30 12781 O 1230.61 -0.52214 1.88606 0
M  V30 12782 C 1230.91 2.95 2.01766 0
M  V30 12783 C 1230.57 4.29835 1.36208 0
M  V30 12784 C 1229.24 4.66493 1.18059 0
M  V30 12785 C 1231.59 5.13521 0.891404 0
M  V30 12786 C 1228.92 5.84436 0.514894 0
M  V30 12787 C 1231.27 6.32146 0.239534 0
M  V30 12788 C 1229.93 6.67484 0.0458839 0
M  V30 12789 H 1229.2 0.630605 0.389125 0
M  V30 12790 H 1231.85 1.88445 0.34072 0
M  V30 12791 H 1230.15 2.73567 2.80479 0
M  V30 12792 H 1231.85 3.06217 2.58906 0
M  V30 12793 H 1228.44 4.00993 1.51335 0
M  V30 12794 H 1232.63 4.85718 1.01941 0
M  V30 12795 H 1227.88 6.10376 0.353644 0
M  V30 12796 H 1232.06 6.96273 -0.133185 0
M  V30 12797 H 1229.68 7.58733 -0.471978 0
M  V30 12798 N 1231.26 -0.58723 1.46251 0
M  V30 12799 C 1232.5 -1.3476 1.51551 0
M  V30 12800 C 1232.84 -1.93499 0.16483 0
M  V30 12801 O 1232.11 -1.7622 -0.823207 0
M  V30 12802 C 1232.39 -2.48033 2.61059 0
M  V30 12803 C 1232.25 -1.94358 4.05642 0
M  V30 12804 C 1233.57 -3.50096 2.66685 0
M  V30 12805 H 1230.69 -0.48863 0.551733 0
M  V30 12806 H 1233.33 -0.660097 1.78165 0
M  V30 12807 H 1231.48 -3.06679 2.38496 0
M  V30 12808 H 1233.15 -1.40204 4.39478 0
M  V30 12809 H 1231.39 -1.25217 4.15335 0
M  V30 12810 H 1232.06 -2.76105 4.77986 0
M  V30 12811 H 1234.54 -3.01324 2.86955 0
M  V30 12812 H 1233.42 -4.26817 3.45135 0
M  V30 12813 H 1233.68 -4.07032 1.7256 0
M  V30 12814 N 1232.74 -1.33881 -0.831482 0
M  V30 12815 C 1233.68 -1.24741 -1.96322 0
M  V30 12816 C 1234.68 -0.147251 -1.68759 0
M  V30 12817 O 1235.88 -0.311684 -1.77281 0
M  V30 12818 H 1232.26 -0.387298 -0.644596 0
M  V30 12819 H 1234.23 -2.20407 -2.01155 0
M  V30 12820 C 1232.98 -1.01102 -3.32677 0
M  V30 12821 H 1232.3 -1.84986 -3.54429 0
M  V30 12822 H 1233.74 -0.987398 -4.12343 0
M  V30 12823 C 1232.2 0.285903 -3.35685 0
M  V30 12824 O 1232.73 1.29014 -3.80419 0
M  V30 12825 N 1230.94 0.316026 -2.88877 0
M  V30 12826 H 1230.48 -0.501758 -2.52666 0
M  V30 12827 H 1230.44 1.18357 -2.91271 0
M  V30 12828 N 1234.21 1.05064 -1.1747 0
M  V30 12829 C 1235.18 2.1101 -0.89485 0
M  V30 12830 C 1236.18 1.60384 0.11553 0
M  V30 12831 O 1237.37 1.73808 -0.116785 0
M  V30 12832 C 1234.5 3.39194 -0.340642 0
M  V30 12833 H 1235.69 2.37269 -1.83421 0
M  V30 12834 H 1233.24 1.21329 -0.985343 0
M  V30 12835 H 1233.98 3.18591 0.605808 0
M  V30 12836 H 1233.76 3.77251 -1.06885 0
M  V30 12837 H 1235.25 4.17281 -0.163204 0
M  V30 12838 N 1235.69 0.975146 1.23809 0
M  V30 12839 C 1236.64 0.510761 2.25077 0
M  V30 12840 C 1237.61 -0.447605 1.59955 0
M  V30 12841 O 1238.79 -0.356318 1.87443 0
M  V30 12842 C 1235.93 -0.185755 3.446 0
M  V30 12843 C 1235.05 0.812254 4.24295 0
M  V30 12844 C 1234.18 0.0910835 5.31122 0
M  V30 12845 C 1233.22 1.07866 6.02521 0
M  V30 12846 N 1232.36 0.386995 7.01033 0
M  V30 12847 H 1237.2 1.37913 2.64166 0
M  V30 12848 H 1234.73 0.691184 1.2985 0
M  V30 12849 H 1236.69 -0.606341 4.1277 0
M  V30 12850 H 1235.32 -1.01803 3.06327 0
M  V30 12851 H 1234.37 1.35125 3.55592 0
M  V30 12852 H 1235.69 1.56502 4.73612 0
M  V30 12853 H 1234.84 -0.387129 6.05464 0
M  V30 12854 H 1233.58 -0.694324 4.82732 0
M  V30 12855 H 1232.58 1.56767 5.26976 0
M  V30 12856 H 1233.81 1.86464 6.52999 0
M  V30 12857 H 1231.76 -0.3793 6.54903 0
M  V30 12858 H 1231.67 1.0785 7.48268 0
M  V30 12859 H 1232.94 -0.0690036 7.79469 0
M  V30 12860 N 1237.17 -1.38817 0.746158 0
M  V30 12861 C 1238.12 -2.30521 0.113517 0
M  V30 12862 C 1239.09 -1.49795 -0.717682 0
M  V30 12863 O 1240.27 -1.78448 -0.675345 0
M  V30 12864 C 1237.41 -3.36185 -0.779343 0
M  V30 12865 C 1236.52 -4.3195 0.0656784 0
M  V30 12866 C 1235.66 -5.24684 -0.829492 0
M  V30 12867 C 1234.7 -6.12097 0.0196112 0
M  V30 12868 N 1233.84 -6.97152 -0.832107 0
M  V30 12869 H 1238.68 -2.84048 0.901136 0
M  V30 12870 H 1236.21 -1.39853 0.456025 0
M  V30 12871 H 1238.17 -3.96048 -1.31156 0
M  V30 12872 H 1236.8 -2.84085 -1.53282 0
M  V30 12873 H 1235.85 -3.73611 0.715445 0
M  V30 12874 H 1237.16 -4.93551 0.721735 0
M  V30 12875 H 1236.32 -5.89627 -1.42915 0
M  V30 12876 H 1235.06 -4.63431 -1.5193 0
M  V30 12877 H 1234.06 -5.46156 0.631991 0
M  V30 12878 H 1235.29 -6.75416 0.706369 0
M  V30 12879 H 1233.23 -6.38456 -1.507 0
M  V30 12880 H 1233.15 -7.55642 -0.232782 0
M  V30 12881 H 1234.42 -7.66513 -1.41697 0
M  V30 12882 N 1238.65 -0.49465 -1.49636 0
M  V30 12883 C 1239.9 0.0539277 -2.01628 0
M  V30 12884 C 1240.21 1.38634 -1.37986 0
M  V30 12885 O 1241.42 2.02123 -1.81269 0
M  V30 12886 C 1239.87 0.146582 -3.59601 0
M  V30 12887 C 1239.48 -1.1788 -4.32213 0
M  V30 12888 C 1241.22 0.645862 -4.19558 0
M  V30 12889 C 1239.13 -1.04866 -5.82028 0
M  V30 12890 H 1238.06 0.0239278 -0.75362 0
M  V30 12891 H 1240.71 -0.633112 -1.72232 0
M  V30 12892 H 1239.09 0.897931 -3.85685 0
M  V30 12893 H 1240.27 -1.94295 -4.17835 0
M  V30 12894 H 1238.58 -1.61102 -3.83973 0
M  V30 12895 H 1241.18 0.76064 -5.29262 0
M  V30 12896 H 1241.52 1.64313 -3.82501 0
M  V30 12897 H 1242.06 -0.04877 -3.9777 0
M  V30 12898 H 1238.79 -2.02 -6.23599 0
M  V30 12899 H 1238.31 -0.325293 -5.98917 0
M  V30 12900 H 1239.99 -0.724799 -6.42927 0
M  V30 12901 N 1240.13 1.55939 -0.228214 0
M  V30 12902 C 1241.04 2.24213 0.690339 0
M  V30 12903 C 1242.05 1.25197 1.20838 0
M  V30 12904 O 1243.23 1.58026 1.24859 0
M  V30 12905 C 1240.29 2.91384 1.87873 0
M  V30 12906 C 1239.35 4.05761 1.40201 0
M  V30 12907 C 1238.59 4.6972 2.53376 0
M  V30 12908 O 1238.81 4.32687 3.71669 0
M  V30 12909 O 1237.74 5.58587 2.24198 0
M  V30 12910 H 1241.57 3.03383 0.138692 0
M  V30 12911 H 1239.15 1.494 0.00251504 0
M  V30 12912 H 1241.04 3.33758 2.57262 0
M  V30 12913 H 1239.71 2.15168 2.41835 0
M  V30 12914 H 1238.62 3.67943 0.675945 0
M  V30 12915 H 1239.95 4.83739 0.908691 0
M  V30 12916 N 1241.6 -0.0451101 1.57535 0
M  V30 12917 C 1242.88 -0.773625 1.79651 0
M  V30 12918 C 1243.26 -1.94422 0.822391 0
M  V30 12919 O 1242.61 -2.28077 -0.138913 0
M  V30 12920 C 1242.82 -1.22168 3.26919 0
M  V30 12921 C 1244.17 -1.64419 3.91474 0
M  V30 12922 O 1245.19 -1.31668 3.30971 0
M  V30 12923 O 1244.05 -2.25148 4.97967 0
M  V30 12924 H 1241.14 -0.372786 0.738214 0
M  V30 12925 H 1243.69 -0.0231245 1.69684 0
M  V30 12926 H 1242.46 -0.385302 3.89398 0
M  V30 12927 H 1242.09 -2.03269 3.41713 0
M  V30 12928 N 1243.08 -1.54377 -0.317073 0
M  V30 12929 C 1244.33 -1.72551 -1.05216 0
M  V30 12930 C 1244.65 -0.5055 -1.88334 0
M  V30 12931 O 1243.92 0.480439 -1.89917 0
M  V30 12932 H 1242.5 -0.636222 -0.391447 0
M  V30 12933 H 1245.16 -1.91696 -0.35194 0
M  V30 12934 H 1244.26 -2.60791 -1.71448 0
M  V30 12935 N 1244.56 0.579466 -1.4656 0
M  V30 12936 C 1245.51 1.68829 -1.5737 0
M  V30 12937 C 1246.48 1.60759 -0.417825 0
M  V30 12938 O 1247.66 1.79923 -0.635001 0
M  V30 12939 C 1244.8 3.07166 -1.573 0
M  V30 12940 C 1243.92 3.25837 -2.83645 0
M  V30 12941 C 1243.05 4.54441 -2.75057 0
M  V30 12942 C 1242.09 4.66467 -3.96327 0
M  V30 12943 N 1241.23 5.86401 -3.86107 0
M  V30 12944 H 1246.07 1.58928 -2.52083 0
M  V30 12945 H 1243.6 0.774526 -1.25058 0
M  V30 12946 H 1245.56 3.8724 -1.55245 0
M  V30 12947 H 1244.19 3.15956 -0.661166 0
M  V30 12948 H 1243.24 2.39345 -2.95666 0
M  V30 12949 H 1244.56 3.30591 -3.73512 0
M  V30 12950 H 1243.71 5.42748 -2.71126 0
M  V30 12951 H 1242.45 4.52131 -1.82836 0
M  V30 12952 H 1241.45 3.76577 -4.00587 0
M  V30 12953 H 1242.68 4.70554 -4.89649 0
M  V30 12954 H 1240.62 5.85082 -2.96673 0
M  V30 12955 H 1240.54 5.92437 -4.69632 0
M  V30 12956 H 1241.81 6.7713 -3.86155 0
M  V30 12957 N 1246.04 1.3432 0.824371 0
M  V30 12958 C 1247.28 1.26783 1.58284 0
M  V30 12959 C 1247.62 -0.162282 1.93521 0
M  V30 12960 O 1246.89 -1.1073 1.59903 0
M  V30 12961 C 1247.18 2.15725 2.88331 0
M  V30 12962 C 1247.03 3.67266 2.59684 0
M  V30 12963 C 1248.35 2.04141 3.8989 0
M  V30 12964 H 1245.47 0.461893 0.574303 0
M  V30 12965 H 1248.11 1.64558 0.949769 0
M  V30 12966 H 1246.26 1.83639 3.42358 0
M  V30 12967 H 1247.93 4.09711 2.11978 0
M  V30 12968 H 1246.17 3.88426 1.93151 0
M  V30 12969 H 1246.84 4.24863 3.52414 0
M  V30 12970 H 1249.32 2.3231 3.45212 0
M  V30 12971 H 1248.2 2.68601 4.7869 0
M  V30 12972 H 1248.46 1.01795 4.30221 0
M  V30 12973 N 1247.52 -1.0444 1.18026 0
M  V30 12974 C 1248.93 -1.29766 0.929143 0
M  V30 12975 C 1249.13 -1.97338 -0.407436 0
M  V30 12976 O 1248.19 -2.25166 -1.14265 0
M  V30 12977 C 1249.5 -2.16002 2.09197 0
M  V30 12978 C 1251.05 -2.29361 2.12985 0
M  V30 12979 C 1251.52 -3.18962 3.28675 0
M  V30 12980 N 1253.02 -3.26549 3.28512 0
M  V30 12981 C 1253.75 -3.96025 4.14671 0
M  V30 12982 N 1253.25 -4.67863 5.10956 0
M  V30 12983 N 1255.04 -3.92266 4.02597 0
M  V30 12984 H 1247.19 -0.58984 2.04046 0
M  V30 12985 H 1249.45 -0.322752 0.891367 0
M  V30 12986 H 1249.16 -1.73653 3.05839 0
M  V30 12987 H 1249.03 -3.16667 2.04943 0
M  V30 12988 H 1251.42 -2.70948 1.16924 0
M  V30 12989 H 1251.5 -1.28299 2.21298 0
M  V30 12990 H 1251.15 -2.78087 4.25006 0
M  V30 12991 H 1251.08 -4.20047 3.17598 0
M  V30 12992 H 1253.57 -2.75371 2.58804 0
M  V30 12993 H 1253.88 -5.1846 5.73079 0
M  V30 12994 H 1252.22 -4.6678 5.14919 0
M  V30 12995 H 1255.42 -3.35273 3.26665 0
M  V30 12996 H 1255.59 -4.4614 4.69961 0
M  V30 12997 N 1248.99 -0.981699 -1.2329 0
M  V30 12998 C 1250.24 -0.652266 -1.92024 0
M  V30 12999 C 1250.57 0.812297 -1.76396 0
M  V30 13000 O 1249.85 1.5861 -1.12575 0
M  V30 13001 C 1250.13 -1.04506 -3.44602 0
M  V30 13002 C 1249.98 -2.56735 -3.69333 0
M  V30 13003 C 1251.3 -0.589937 -4.36128 0
M  V30 13004 H 1248.42 -0.238437 -0.697364 0
M  V30 13005 H 1251.06 -1.22322 -1.45387 0
M  V30 13006 H 1249.21 -0.559242 -3.84454 0
M  V30 13007 H 1250.89 -3.12901 -3.38955 0
M  V30 13008 H 1249.13 -2.9931 -3.14 0
M  V30 13009 H 1249.8 -2.79269 -4.76144 0
M  V30 13010 H 1252.28 -1.00706 -4.0373 0
M  V30 13011 H 1251.15 -0.893192 -5.41584 0
M  V30 13012 H 1251.41 0.509707 -4.39152 0
M  V30 13013 N 1250.47 1.3842 -0.753509 0
M  V30 13014 C 1251.4 2.33073 -0.141198 0
M  V30 13015 C 1252.38 1.54863 0.70367 0
M  V30 13016 O 1253.57 1.8318 0.644872 0
M  V30 13017 C 1250.7 3.39043 0.752802 0
M  V30 13018 C 1249.65 4.27999 0.0106692 0
M  V30 13019 C 1248.98 5.24824 1.02291 0
M  V30 13020 C 1250.28 5.09308 -1.15768 0
M  V30 13021 H 1251.97 2.84528 -0.93188 0
M  V30 13022 H 1249.52 1.36802 -0.449567 0
M  V30 13023 H 1251.47 4.04224 1.19083 0
M  V30 13024 H 1250.2 2.8607 1.57581 0
M  V30 13025 H 1248.85 3.64323 -0.407939 0
M  V30 13026 H 1248.5 4.68139 1.83998 0
M  V30 13027 H 1248.2 5.85196 0.53101 0
M  V30 13028 H 1249.73 5.92882 1.46026 0
M  V30 13029 H 1251.14 5.6773 -0.797203 0
M  V30 13030 H 1249.54 5.78914 -1.58044 0
M  V30 13031 H 1250.61 4.43051 -1.97062 0
M  V30 13032 N 1251.95 0.502579 1.49372 0
M  V30 13033 C 1253.2 -0.0414423 2.02758 0
M  V30 13034 C 1253.53 -1.36499 1.38136 0
M  V30 13035 O 1252.8 -1.87487 0.517593 0
M  V30 13036 C 1253.09 -0.192333 3.59586 0
M  V30 13037 C 1252.94 1.15445 4.34733 0
M  V30 13038 C 1254.26 -0.932218 4.30114 0
M  V30 13039 H 1251.38 -0.0135869 0.736875 0
M  V30 13040 H 1254.02 0.654296 1.78379 0
M  V30 13041 H 1252.17 -0.78491 3.80488 0
M  V30 13042 H 1253.84 1.78603 4.25322 0
M  V30 13043 H 1252.09 1.74333 3.97228 0
M  V30 13044 H 1252.76 1.00216 5.42827 0
M  V30 13045 H 1255.23 -0.429632 4.13876 0
M  V30 13046 H 1254.11 -1.00664 5.39591 0
M  V30 13047 H 1254.37 -1.9763 3.95468 0
M  V30 13048 N 1253.43 -1.55816 0.23648 0
M  V30 13049 C 1254.65 -2.03534 -0.398575 0
M  V30 13050 C 1255.08 -1.11488 -1.51499 0
M  V30 13051 O 1254.44 -0.105848 -1.80991 0
M  V30 13052 C 1254.48 -3.49356 -0.893467 0
M  V30 13053 O 1253.59 -3.60446 -2.00381 0
M  V30 13054 H 1252.93 -0.658102 -0.0883021 0
M  V30 13055 H 1255.46 -2.01417 0.359488 0
M  V30 13056 H 1255.47 -3.89972 -1.19941 0
M  V30 13057 H 1254.14 -4.1583 -0.0764388 0
M  V30 13058 H 1252.72 -3.31723 -1.70336 0
M  V30 13059 N 1254.91 0.036755 -1.57557 0
M  V30 13060 C 1256.13 0.744813 -1.93565 0
M  V30 13061 C 1256.56 1.68508 -0.835863 0
M  V30 13062 O 1255.91 1.80091 0.208986 0
M  V30 13063 C 1255.96 1.48461 -3.28621 0
M  V30 13064 O 1255.07 2.59739 -3.20327 0
M  V30 13065 H 1254.41 0.200866 -0.632889 0
M  V30 13066 H 1256.94 -0.00547543 -2.04599 0
M  V30 13067 H 1256.95 1.85622 -3.63329 0
M  V30 13068 H 1255.62 0.794953 -4.08232 0
M  V30 13069 H 1254.2 2.25176 -2.97237 0
M  V30 13070 N 1256.39 1.54543 0.308881 0
M  V30 13071 C 1257.32 1.87947 1.38557 0
M  V30 13072 C 1258.3 0.737622 1.53275 0
M  V30 13073 O 1259.48 0.992664 1.66913 0
M  V30 13074 C 1256.61 2.11982 2.75102 0
M  V30 13075 C 1255.57 3.2783 2.75158 0
M  V30 13076 C 1254.89 3.37266 4.14917 0
M  V30 13077 C 1256.19 4.65129 2.37598 0
M  V30 13078 H 1257.89 2.78123 1.1085 0
M  V30 13079 H 1255.43 1.3382 0.531808 0
M  V30 13080 H 1257.38 2.33935 3.50503 0
M  V30 13081 H 1256.11 1.18569 3.04317 0
M  V30 13082 H 1254.77 3.05787 2.02212 0
M  V30 13083 H 1254.42 2.41384 4.41296 0
M  V30 13084 H 1254.12 4.15135 4.15857 0
M  V30 13085 H 1255.64 3.61471 4.92109 0
M  V30 13086 H 1257.05 4.86865 3.02714 0
M  V30 13087 H 1255.45 5.45653 2.49765 0
M  V30 13088 H 1256.52 4.6638 1.32731 0
M  V30 13089 N 1257.86 -0.571685 1.46866 0
M  V30 13090 C 1259.09 -1.35524 1.56336 0
M  V30 13091 C 1259.51 -1.87647 0.208359 0
M  V30 13092 O 1258.86 -1.64219 -0.796136 0
M  V30 13093 C 1258.91 -2.53518 2.57703 0
M  V30 13094 O 1258.64 -2.03552 3.87941 0
M  V30 13095 C 1260.14 -3.45925 2.77219 0
M  V30 13096 H 1257.36 -0.41363 0.528348 0
M  V30 13097 H 1259.9 -0.693943 1.92366 0
M  V30 13098 H 1258.06 -3.15615 2.24647 0
M  V30 13099 H 1258.47 -2.80476 4.43208 0
M  V30 13100 H 1259.94 -4.2517 3.52043 0
M  V30 13101 H 1260.42 -3.98559 1.8452 0
M  V30 13102 H 1261.03 -2.89655 3.11416 0
M  V30 13103 N 1259.34 -1.34755 -0.817236 0
M  V30 13104 C 1260.59 -1.2718 -1.57066 0
M  V30 13105 C 1260.91 0.156531 -1.94371 0
M  V30 13106 O 1260.18 1.09049 -1.62742 0
M  V30 13107 H 1258.76 -0.467755 -0.582421 0
M  V30 13108 H 1261.42 -1.68734 -0.975438 0
M  V30 13109 H 1260.52 -1.88043 -2.49091 0
M  V30 13110 N 1260.82 1.03812 -1.18578 0
M  V30 13111 C 1261.73 2.15371 -0.930182 0
M  V30 13112 C 1262.75 1.73673 0.106599 0
M  V30 13113 O 1263.92 2.01257 -0.0759054 0
M  V30 13114 C 1260.99 3.43606 -0.462151 0
M  V30 13115 C 1260.05 3.99671 -1.5672 0
M  V30 13116 C 1259.28 5.21785 -1.12141 0
M  V30 13117 O 1259.5 5.70397 0.0188357 0
M  V30 13118 O 1258.44 5.70449 -1.9202 0
M  V30 13119 H 1262.26 2.39791 -1.86371 0
M  V30 13120 H 1259.85 1.13814 -0.967819 0
M  V30 13121 H 1261.73 4.2088 -0.20934 0
M  V30 13122 H 1260.41 3.20654 0.443052 0
M  V30 13123 H 1259.31 3.23774 -1.87406 0
M  V30 13124 H 1260.65 4.2697 -2.44862 0
M  V30 13125 N 1262.3 0.988223 1.22768 0
M  V30 13126 C 1263.71 0.697281 1.7319 0
M  V30 13127 C 1264.06 -0.786111 1.79763 0
M  V30 13128 O 1263.18 -1.61465 1.44077 0
M  V30 13129 C 1263.78 1.25905 3.14537 0
M  V30 13130 C 1262.34 1.01759 3.62384 0
M  V30 13131 C 1261.49 1.38207 2.40404 0
M  V30 13132 H 1264.44 1.16114 1.08181 0
M  V30 13133 H 1264.46 0.635315 3.75159 0
M  V30 13134 H 1263.97 2.33869 3.09721 0
M  V30 13135 H 1262.07 -0.045627 3.72572 0
M  V30 13136 H 1262.18 1.67767 4.48766 0
M  V30 13137 H 1260.55 0.800607 2.4179 0
M  V30 13138 H 1261.33 2.47165 2.38253 0
M  V30 13139 N 1263.78 -1.38018 0.760839 0
M  V30 13140 C 1264.71 -2.32995 0.153557 0
M  V30 13141 C 1265.69 -1.55234 -0.695448 0
M  V30 13142 O 1266.87 -1.8352 -0.635148 0
M  V30 13143 C 1264 -3.39437 -0.734811 0
M  V30 13144 C 1262.96 -4.27998 0.0120287 0
M  V30 13145 C 1262.28 -5.25359 -0.995067 0
M  V30 13146 C 1263.58 -5.08687 1.18468 0
M  V30 13147 H 1265.28 -2.8403 0.946956 0
M  V30 13148 H 1262.82 -1.36562 0.456816 0
M  V30 13149 H 1264.77 -4.0485 -1.16938 0
M  V30 13150 H 1263.5 -2.86901 -1.56061 0
M  V30 13151 H 1262.16 -3.64102 0.427254 0
M  V30 13152 H 1261.81 -4.69108 -1.81512 0
M  V30 13153 H 1261.51 -5.85469 -0.499969 0
M  V30 13154 H 1263.03 -5.93648 -1.4288 0
M  V30 13155 H 1264.44 -5.67299 0.8273 0
M  V30 13156 H 1262.84 -5.78068 1.61112 0
M  V30 13157 H 1263.91 -4.42 1.99409 0
M  V30 13158 N 1265.25 -0.510493 -1.49103 0
M  V30 13159 C 1266.66 -0.0650831 -1.86587 0
M  V30 13160 C 1267.02 1.35185 -1.42195 0
M  V30 13161 O 1266.14 2.0091 -0.804004 0
M  V30 13162 C 1266.74 -0.111333 -3.38617 0
M  V30 13163 C 1265.29 0.278782 -3.75366 0
M  V30 13164 C 1264.44 -0.479707 -2.73119 0
M  V30 13165 H 1267.39 -0.722784 -1.41285 0
M  V30 13166 H 1267.41 0.681706 -3.74343 0
M  V30 13167 H 1266.93 -1.14271 -3.70896 0
M  V30 13168 H 1265.03 1.31304 -3.48698 0
M  V30 13169 H 1265.14 -0.047271 -4.79077 0
M  V30 13170 H 1263.5 0.0716459 -2.54599 0
M  V30 13171 H 1264.29 -1.51135 -3.08242 0
M  V30 13172 N 1266.73 1.55688 -0.24474 0
M  V30 13173 C 1267.69 2.20014 0.642382 0
M  V30 13174 C 1268.69 1.16877 1.10437 0
M  V30 13175 O 1269.88 1.41972 1.00943 0
M  V30 13176 C 1267.02 2.84198 1.88267 0
M  V30 13177 H 1268.21 2.9979 0.0811937 0
M  V30 13178 H 1265.76 1.56299 0.00480917 0
M  V30 13179 H 1266.5 2.08354 2.48514 0
M  V30 13180 H 1266.28 3.59747 1.55963 0
M  V30 13181 H 1267.77 3.33434 2.5142 0
M  V30 13182 N 1268.21 -0.0283989 1.57574 0
M  V30 13183 C 1269.16 -1.02881 2.06601 0
M  V30 13184 C 1270.13 -1.35879 0.955308 0
M  V30 13185 O 1271.31 -1.46205 1.22592 0
M  V30 13186 C 1268.45 -2.32447 2.55073 0
M  V30 13187 C 1267.56 -2.05602 3.79937 0
M  V30 13188 C 1266.7 -3.29043 4.17018 0
M  V30 13189 C 1265.74 -2.97755 5.34797 0
M  V30 13190 N 1264.88 -4.1365 5.67308 0
M  V30 13191 H 1269.72 -0.603772 2.91819 0
M  V30 13192 H 1267.25 -0.286503 1.44283 0
M  V30 13193 H 1269.21 -3.08152 2.81244 0
M  V30 13194 H 1267.84 -2.72672 1.72771 0
M  V30 13195 H 1266.89 -1.2039 3.60847 0
M  V30 13196 H 1268.2 -1.78522 4.65759 0
M  V30 13197 H 1267.36 -4.13115 4.4432 0
M  V30 13198 H 1266.1 -3.59237 3.29849 0
M  V30 13199 H 1265.1 -2.12085 5.07247 0
M  V30 13200 H 1266.33 -2.68839 6.23621 0
M  V30 13201 H 1264.27 -4.43794 4.83097 0
M  V30 13202 H 1264.19 -3.89996 6.47641 0
M  V30 13203 H 1265.46 -4.98594 5.99186 0
M  V30 13204 N 1269.69 -1.54705 -0.300681 0
M  V30 13205 C 1270.6 -1.88736 -1.39341 0
M  V30 13206 C 1271.61 -0.78155 -1.5546 0
M  V30 13207 O 1272.79 -1.07804 -1.70118 0
M  V30 13208 C 1269.85 -2.12795 -2.73713 0
M  V30 13209 C 1268.92 -3.36504 -2.66577 0
M  V30 13210 C 1268.15 -3.59407 -3.94541 0
M  V30 13211 O 1268.37 -2.85315 -4.93914 0
M  V30 13212 O 1267.31 -4.52923 -3.96415 0
M  V30 13213 H 1271.13 -2.817 -1.13484 0
M  V30 13214 H 1268.72 -1.40899 -0.496771 0
M  V30 13215 H 1270.6 -2.29819 -3.53215 0
M  V30 13216 H 1269.27 -1.23017 -2.99414 0
M  V30 13217 H 1268.18 -3.24844 -1.85546 0
M  V30 13218 H 1269.51 -4.26414 -2.45829 0
M  V30 13219 N 1271.17 0.563888 -1.47167 0
M  V30 13220 C 1272.41 1.32331 -1.53676 0
M  V30 13221 C 1272.75 1.93213 -0.195593 0
M  V30 13222 O 1272.02 1.77508 0.795068 0
M  V30 13223 C 1272.3 2.43848 -2.64972 0
M  V30 13224 C 1272.16 1.8788 -4.08682 0
M  V30 13225 C 1273.48 3.45809 -2.72221 0
M  V30 13226 H 1270.59 0.479791 -0.559437 0
M  V30 13227 H 1273.24 0.631669 -1.79192 0
M  V30 13228 H 1271.39 3.02846 -2.43345 0
M  V30 13229 H 1273.06 1.33195 -4.41652 0
M  V30 13230 H 1271.3 1.18593 -4.17275 0
M  V30 13231 H 1271.97 2.68465 -4.82318 0
M  V30 13232 H 1274.45 2.9672 -2.91713 0
M  V30 13233 H 1273.32 4.21272 -3.51882 0
M  V30 13234 H 1273.59 4.04236 -1.79014 0
M  V30 13235 N 1272.64 1.35187 0.810078 0
M  V30 13236 C 1273.57 1.30481 1.93641 0
M  V30 13237 C 1274.56 0.179875 1.69146 0
M  V30 13238 O 1275.74 0.374284 1.90559 0
M  V30 13239 C 1272.87 1.07251 3.30325 0
M  V30 13240 C 1271.82 2.16348 3.69293 0
M  V30 13241 C 1271.15 1.78288 5.04101 0
M  V30 13242 C 1272.45 3.58285 3.80038 0
M  V30 13243 H 1274.14 2.24725 1.97836 0
M  V30 13244 H 1271.69 1.08179 0.950436 0
M  V30 13245 H 1273.64 1.02599 4.08719 0
M  V30 13246 H 1272.37 0.0945203 3.26463 0
M  V30 13247 H 1271.03 2.2009 2.93182 0
M  V30 13248 H 1270.67 0.791163 4.96739 0
M  V30 13249 H 1270.37 2.51315 5.31144 0
M  V30 13250 H 1271.9 1.75155 5.84938 0
M  V30 13251 H 1273.31 3.56884 4.48672 0
M  V30 13252 H 1271.71 4.30044 4.18548 0
M  V30 13253 H 1272.78 3.94691 2.81685 0
M  V30 13254 N 1274.12 -1.03182 1.19127 0
M  V30 13255 C 1275.09 -2.09559 0.928307 0
M  V30 13256 C 1276.09 -1.60548 -0.0899992 0
M  V30 13257 O 1277.28 -1.736 0.144422 0
M  V30 13258 C 1274.41 -3.38609 0.394561 0
M  V30 13259 H 1275.6 -2.34321 1.87173 0
M  V30 13260 H 1273.15 -1.19746 1.00452 0
M  V30 13261 H 1273.89 -3.19515 -0.555046 0
M  V30 13262 H 1273.67 -3.75502 1.12873 0
M  V30 13263 H 1275.16 -4.16969 0.229569 0
M  V30 13264 N 1275.6 -0.99472 -1.22242 0
M  V30 13265 C 1276.55 -0.546504 -2.24236 0
M  V30 13266 C 1277.52 0.422101 -1.60647 0
M  V30 13267 O 1278.7 0.326452 -1.87987 0
M  V30 13268 C 1275.84 0.130909 -3.44852 0
M  V30 13269 C 1274.96 -0.879653 -4.22949 0
M  V30 13270 C 1274.09 -0.175569 -5.3091 0
M  V30 13271 C 1273.13 -1.17438 -6.00729 0
M  V30 13272 N 1272.27 -0.498474 -7.00328 0
M  V30 13273 H 1277.11 -1.42099 -2.61939 0
M  V30 13274 H 1274.64 -0.711755 -1.28734 0
M  V30 13275 H 1276.6 0.540596 -4.13683 0
M  V30 13276 H 1275.23 0.96917 -3.07907 0
M  V30 13277 H 1274.28 -1.40765 -3.53397 0
M  V30 13278 H 1275.6 -1.64017 -4.71062 0
M  V30 13279 H 1274.75 0.290756 -6.06003 0
M  V30 13280 H 1273.49 0.617438 -4.83776 0
M  V30 13281 H 1272.49 -1.65131 -5.24416 0
M  V30 13282 H 1273.72 -1.96829 -6.4995 0
M  V30 13283 H 1271.66 0.275063 -6.55423 0
M  V30 13284 H 1271.58 -1.19741 -7.46457 0
M  V30 13285 H 1272.85 -0.0550119 -7.79481 0
M  V30 13286 N 1277.08 1.37613 -0.768148 0
M  V30 13287 C 1278.32 2.00075 -0.331331 0
M  V30 13288 C 1278.66 1.60839 1.08833 0
M  V30 13289 O 1277.93 0.852849 1.74805 0
M  V30 13290 C 1278.22 3.57009 -0.470789 0
M  V30 13291 C 1278.07 4.06166 -1.9326 0
M  V30 13292 C 1279.39 4.39916 0.127111 0
M  V30 13293 H 1276.51 0.726855 -0.121864 0
M  V30 13294 H 1279.15 1.63343 -0.970518 0
M  V30 13295 H 1277.3 3.88431 0.0733688 0
M  V30 13296 H 1278.97 3.85325 -2.53618 0
M  V30 13297 H 1277.21 3.58492 -2.44266 0
M  V30 13298 H 1277.88 5.15219 -1.98125 0
M  V30 13299 H 1280.36 4.14732 -0.337144 0
M  V30 13300 H 1279.24 5.489 -0.000624226 0
M  V30 13301 H 1279.5 4.25018 1.21704 0
M  V30 13302 N 1278.56 0.518393 1.4883 0
M  V30 13303 C 1279.8 -0.0199348 2.0279 0
M  V30 13304 C 1280.14 -1.35026 1.39576 0
M  V30 13305 O 1279.41 -1.86927 0.537449 0
M  V30 13306 C 1279.69 -0.154184 3.5977 0
M  V30 13307 C 1279.55 1.2005 4.33484 0
M  V30 13308 C 1280.87 -0.886547 4.31078 0
M  V30 13309 H 1277.98 -0.00577061 0.736977 0
M  V30 13310 H 1280.63 0.673178 1.77675 0
M  V30 13311 H 1278.78 -0.74451 3.81299 0
M  V30 13312 H 1280.45 1.83104 4.23404 0
M  V30 13313 H 1278.69 1.78537 3.95357 0
M  V30 13314 H 1279.36 1.05968 5.41733 0
M  V30 13315 H 1281.84 -0.385711 4.14308 0
M  V30 13316 H 1280.71 -0.949355 5.40628 0
M  V30 13317 H 1280.98 -1.93424 3.97542 0
M  V30 13318 N 1280.03 -1.55556 0.252993 0
M  V30 13319 C 1280.96 -2.24613 -0.638047 0
M  V30 13320 C 1281.95 -1.22852 -1.1765 0
M  V30 13321 O 1283.13 -1.51519 -1.21472 0
M  V30 13322 C 1280.26 -2.95029 -1.83236 0
M  V30 13323 C 1279.21 -4.03531 -1.42641 0
M  V30 13324 C 1278.54 -4.61404 -2.70204 0
M  V30 13325 C 1279.84 -5.18923 -0.592958 0
M  V30 13326 H 1281.53 -2.99335 -0.0621918 0
M  V30 13327 H 1279.08 -1.43972 -0.0284722 0
M  V30 13328 H 1281.03 -3.42042 -2.46141 0
M  V30 13329 H 1279.76 -2.17805 -2.43369 0
M  V30 13330 H 1278.42 -3.57296 -0.820672 0
M  V30 13331 H 1278.06 -3.80874 -3.28548 0
M  V30 13332 H 1277.76 -5.34652 -2.43764 0
M  V30 13333 H 1279.29 -5.11154 -3.33997 0
M  V30 13334 H 1280.7 -5.62124 -1.12646 0
M  V30 13335 H 1279.1 -5.98598 -0.424358 0
M  V30 13336 H 1280.17 -4.83301 0.393434 0
M  V30 13337 N 1281.51 0.0200419 -1.57587 0
M  V30 13338 C 1282.93 0.375834 -1.55112 0
M  V30 13339 C 1283.13 1.76047 -0.980297 0
M  V30 13340 O 1282.18 2.45138 -0.605297 0
M  V30 13341 C 1283.5 0.269418 -2.99491 0
M  V30 13342 C 1285.05 0.345838 -3.11084 0
M  V30 13343 C 1285.52 0.268771 -4.57211 0
M  V30 13344 N 1287.01 0.32729 -4.62042 0
M  V30 13345 C 1287.75 0.290688 -5.72663 0
M  V30 13346 N 1287.24 0.205851 -6.92494 0
M  V30 13347 N 1289.04 0.341082 -5.61064 0
M  V30 13348 H 1281.19 -0.885979 -1.93039 0
M  V30 13349 H 1283.45 -0.337753 -0.885792 0
M  V30 13350 H 1283.16 -0.682452 -3.45015 0
M  V30 13351 H 1283.03 1.0595 -3.62014 0
M  V30 13352 H 1285.42 1.28814 -2.65501 0
M  V30 13353 H 1285.5 -0.47376 -2.51375 0
M  V30 13354 H 1285.14 -0.669906 -5.03463 0
M  V30 13355 H 1285.07 1.10659 -5.14842 0
M  V30 13356 H 1287.56 0.395004 -3.7583 0
M  V30 13357 H 1287.88 0.18327 -7.72583 0
M  V30 13358 H 1286.22 0.171768 -6.94788 0
M  V30 13359 H 1289.41 0.405415 -4.66341 0
M  V30 13360 H 1289.58 0.309091 -6.47262 0
M  V30 13361 N 1282.99 1.54862 0.292472 0
M  V30 13362 C 1283.95 1.8565 1.34413 0
M  V30 13363 C 1284.95 0.729868 1.43281 0
M  V30 13364 O 1286.14 0.998128 1.42769 0
M  V30 13365 C 1283.28 2.0444 2.72795 0
M  V30 13366 H 1284.47 2.79642 1.08354 0
M  V30 13367 H 1282.02 1.47055 0.529574 0
M  V30 13368 H 1282.76 1.12765 3.04063 0
M  V30 13369 H 1282.54 2.86451 2.67747 0
M  V30 13370 H 1284.03 2.296 3.48817 0
M  V30 13371 N 1284.47 -0.556076 1.47464 0
M  V30 13372 C 1285.38 -1.69043 1.62671 0
M  V30 13373 C 1286.39 -1.66372 0.509535 0
M  V30 13374 O 1287.57 -1.85799 0.777218 0
M  V30 13375 C 1284.64 -3.05546 1.63836 0
M  V30 13376 C 1283.7 -3.19275 2.86988 0
M  V30 13377 C 1282.93 -4.49267 2.88088 0
M  V30 13378 O 1283.15 -5.34796 1.98368 0
M  V30 13379 O 1282.09 -4.66811 3.79962 0
M  V30 13380 H 1285.91 -1.59155 2.58657 0
M  V30 13381 H 1283.5 -0.726211 1.30562 0
M  V30 13382 H 1285.38 -3.86778 1.67275 0
M  V30 13383 H 1284.05 -3.15814 0.710173 0
M  V30 13384 H 1282.96 -2.37437 2.89093 0
M  V30 13385 H 1284.29 -3.13912 3.79104 0
M  V30 13386 N 1285.95 -1.35615 -0.802897 0
M  V30 13387 C 1286.91 -1.28705 -1.89651 0
M  V30 13388 C 1287.91 -0.197681 -1.5958 0
M  V30 13389 O 1289.1 -0.451618 -1.68244 0
M  V30 13390 C 1286.23 -0.991941 -3.26149 0
M  V30 13391 H 1287.43 -2.25951 -1.97196 0
M  V30 13392 H 1284.98 -1.20192 -0.999179 0
M  V30 13393 H 1285.71 -0.0235051 -3.24291 0
M  V30 13394 H 1285.5 -1.78013 -3.49362 0
M  V30 13395 H 1286.99 -0.969298 -4.06195 0
M  V30 13396 N 1287.43 1.02549 -1.19673 0
M  V30 13397 C 1288.37 2.109 -0.937536 0
M  V30 13398 C 1289.34 1.65599 0.128923 0
M  V30 13399 O 1290.53 1.90795 -0.0139366 0
M  V30 13400 C 1287.67 3.4166 -0.48602 0
M  V30 13401 C 1286.78 4.0049 -1.61963 0
M  V30 13402 C 1285.92 5.19273 -1.11931 0
M  V30 13403 C 1284.95 5.70166 -2.22659 0
M  V30 13404 N 1284.09 6.80221 -1.73909 0
M  V30 13405 H 1288.93 2.32408 -1.86523 0
M  V30 13406 H 1286.47 1.13982 -0.929869 0
M  V30 13407 H 1288.43 4.16693 -0.205614 0
M  V30 13408 H 1287.06 3.20253 0.404678 0
M  V30 13409 H 1286.11 3.22638 -2.01516 0
M  V30 13410 H 1287.42 4.34273 -2.45374 0
M  V30 13411 H 1286.57 6.01478 -0.794336 0
M  V30 13412 H 1285.31 4.87033 -0.254972 0
M  V30 13413 H 1284.32 4.86572 -2.55983 0
M  V30 13414 H 1285.54 6.04444 -3.09554 0
M  V30 13415 H 1283.49 6.49826 -0.897889 0
M  V30 13416 H 1283.41 7.13149 -2.50907 0
M  V30 13417 H 1284.67 7.66011 -1.44386 0
M  V30 13418 N 1288.9 1.00119 1.21713 0
M  V30 13419 C 1290.13 0.700431 1.94683 0
M  V30 13420 C 1290.55 -0.736333 1.73849 0
M  V30 13421 O 1289.9 -1.49778 1.04272 0
M  V30 13422 C 1289.95 1.00722 3.47185 0
M  V30 13423 O 1289.68 2.38754 3.67326 0
M  V30 13424 C 1291.18 0.725335 4.37326 0
M  V30 13425 H 1288.4 0.25843 0.619238 0
M  V30 13426 H 1290.94 1.3382 1.54636 0
M  V30 13427 H 1289.1 0.415117 3.85169 0
M  V30 13428 H 1289.51 2.49321 4.61454 0
M  V30 13429 H 1290.98 0.990202 5.43046 0
M  V30 13430 H 1291.46 -0.340649 4.37877 0
M  V30 13431 H 1292.07 1.29888 4.04981 0
M  V30 13432 N 1290.38 -1.37203 0.775435 0
M  V30 13433 C 1291.29 -2.34019 0.165062 0
M  V30 13434 C 1292.31 -1.6036 -0.675316 0
M  V30 13435 O 1293.48 -1.9243 -0.594375 0
M  V30 13436 C 1290.55 -3.3954 -0.700957 0
M  V30 13437 C 1289.61 -4.29015 0.156304 0
M  V30 13438 C 1288.84 -5.29497 -0.668476 0
M  V30 13439 O 1289.07 -5.37636 -1.90535 0
M  V30 13440 O 1288 -6.01852 -0.0757351 0
M  V30 13441 H 1291.83 -2.87955 0.965184 0
M  V30 13442 H 1289.41 -1.39429 0.536654 0
M  V30 13443 H 1291.29 -4.04094 -1.19524 0
M  V30 13444 H 1289.97 -2.87926 -1.4792 0
M  V30 13445 H 1288.87 -3.67549 0.69703 0
M  V30 13446 H 1290.21 -4.83944 0.897725 0
M  V30 13447 N 1291.86 -0.526279 -1.48553 0
M  V30 13448 C 1293.11 0.00914839 -2.02098 0
M  V30 13449 C 1293.43 1.35119 -1.40598 0
M  V30 13450 O 1292.7 1.87422 -0.570065 0
M  V30 13451 H 1291.28 0.00636935 -0.746973 0
M  V30 13452 H 1293.94 -0.689269 -1.82305 0
M  V30 13453 H 1293.04 0.120212 -3.11868 0
M  V30 13454 N 1293.34 1.5542 -0.261239 0
M  V30 13455 C 1294.56 2.04142 0.366144 0
M  V30 13456 C 1294.99 1.13884 1.49706 0
M  V30 13457 O 1294.35 0.134629 1.80799 0
M  V30 13458 C 1294.39 3.50733 0.837774 0
M  V30 13459 O 1293.5 3.63588 1.94621 0
M  V30 13460 H 1292.84 0.659424 0.077821 0
M  V30 13461 H 1295.37 2.0082 -0.391487 0
M  V30 13462 H 1295.38 3.91831 1.13721 0
M  V30 13463 H 1294.05 4.15899 0.0102742 0
M  V30 13464 H 1292.63 3.34391 1.65037 0
M  V30 13465 N 1294.82 -0.0116844 1.57596 0
M  V30 13466 C 1295.76 -1.02514 2.08791 0
M  V30 13467 C 1296.76 -1.36341 1.00536 0
M  V30 13468 O 1297.96 -1.35042 1.19011 0
M  V30 13469 H 1294.34 -0.348201 0.666528 0
M  V30 13470 H 1296.31 -0.567698 2.9295 0
M  V30 13471 C 1295.06 -2.312 2.59696 0
M  V30 13472 H 1294.38 -2.06036 3.42621 0
M  V30 13473 H 1295.82 -3.00417 2.99208 0
M  V30 13474 C 1294.28 -3.01372 1.50586 0
M  V30 13475 O 1294.81 -3.91896 0.882046 0
M  V30 13476 N 1293.02 -2.62997 1.23616 0
M  V30 13477 H 1292.56 -1.89466 1.74529 0
M  V30 13478 H 1292.52 -3.10264 0.508289 0
M  V30 13479 N 1296.29 -1.55015 -0.284256 0
M  V30 13480 C 1297.22 -1.90128 -1.3555 0
M  V30 13481 C 1298.2 -0.761914 -1.52082 0
M  V30 13482 O 1299.39 -1.01909 -1.65312 0
M  V30 13483 C 1296.52 -2.16332 -2.71695 0
M  V30 13484 C 1295.47 -3.32166 -2.69907 0
M  V30 13485 C 1294.8 -3.43824 -4.09498 0
M  V30 13486 C 1296.1 -4.6885 -2.30168 0
M  V30 13487 H 1297.79 -2.79852 -1.06411 0
M  V30 13488 H 1295.34 -1.34649 -0.510451 0
M  V30 13489 H 1297.29 -2.39482 -3.46737 0
M  V30 13490 H 1296.02 -1.23395 -3.02392 0
M  V30 13491 H 1294.68 -3.08965 -1.97322 0
M  V30 13492 H 1294.32 -2.48375 -4.374 0
M  V30 13493 H 1294.02 -4.21698 -4.092 0
M  V30 13494 H 1295.55 -3.69254 -4.86296 0
M  V30 13495 H 1296.96 -4.91619 -2.9493 0
M  V30 13496 H 1295.36 -5.49558 -2.41052 0
M  V30 13497 H 1296.43 -4.68433 -1.25294 0
M  V30 13498 N 1297.77 0.548248 -1.47757 0
M  V30 13499 C 1299 1.335 -1.58722 0
M  V30 13500 C 1299.42 1.86549 -0.241034 0
M  V30 13501 O 1298.78 1.63447 0.784517 0
M  V30 13502 C 1298.83 2.47457 -2.62293 0
M  V30 13503 O 1297.93 3.49956 -2.18185 0
M  V30 13504 H 1297.27 0.396166 -0.532868 0
M  V30 13505 H 1299.8 0.66164 -1.93607 0
M  V30 13506 H 1299.81 2.93901 -2.82995 0
M  V30 13507 H 1298.49 2.08203 -3.60034 0
M  V30 13508 H 1297.06 3.09755 -2.0762 0
M  V30 13509 N 1299.25 1.36039 0.795694 0
M  V30 13510 C 1300.5 1.30112 1.5556 0
M  V30 13511 C 1300.83 -0.121197 1.93821 0
M  V30 13512 O 1300.1 -1.07313 1.62216 0
M  V30 13513 C 1300.39 2.21792 2.8369 0
M  V30 13514 C 1300.24 3.72691 2.51836 0
M  V30 13515 C 1301.56 2.12365 3.85472 0
M  V30 13516 H 1298.68 0.473971 0.564376 0
M  V30 13517 H 1301.32 1.66536 0.91465 0
M  V30 13518 H 1299.47 1.9086 3.38386 0
M  V30 13519 H 1301.14 4.14115 2.0324 0
M  V30 13520 H 1299.38 3.92436 1.84869 0
M  V30 13521 H 1300.06 4.32242 3.43323 0
M  V30 13522 H 1302.53 2.3958 3.40207 0
M  V30 13523 H 1301.41 2.78695 4.72885 0
M  V30 13524 H 1301.67 1.10898 4.27965 0
M  V30 13525 N 1300.73 -1.01913 1.20215 0
M  V30 13526 C 1301.96 -1.79076 1.03631 0
M  V30 13527 C 1302.37 -1.84192 -0.414583 0
M  V30 13528 O 1301.73 -1.29306 -1.28788 0
M  V30 13529 C 1301.78 -3.23665 1.61008 0
M  V30 13530 O 1301.5 -3.18873 3.00419 0
M  V30 13531 C 1303 -4.17387 1.49342 0
M  V30 13532 H 1300.22 -0.563241 0.364692 0
M  V30 13533 H 1302.77 -1.283 1.59246 0
M  V30 13534 H 1300.92 -3.71597 1.09518 0
M  V30 13535 H 1301.33 -4.09609 3.27598 0
M  V30 13536 H 1302.81 -5.16691 1.94253 0
M  V30 13537 H 1303.29 -4.36935 0.445493 0
M  V30 13538 H 1303.89 -3.75335 2.0001 0
M  V30 13539 N 1302.21 -1.00763 -1.2118 0
M  V30 13540 C 1303.15 -0.563428 -2.25673 0
M  V30 13541 C 1304.15 0.393342 -1.6477 0
M  V30 13542 O 1305.35 0.264246 -1.7805 0
M  V30 13543 H 1301.73 -0.163862 -0.73393 0
M  V30 13544 H 1303.7 -1.45585 -2.60476 0
M  V30 13545 C 1302.45 0.0915599 -3.47579 0
M  V30 13546 H 1301.77 -0.635628 -3.94715 0
M  V30 13547 H 1303.21 0.36561 -4.22421 0
M  V30 13548 C 1301.67 1.33159 -3.09468 0
M  V30 13549 O 1302.2 2.42571 -3.20191 0
M  V30 13550 N 1300.41 1.21231 -2.64105 0
M  V30 13551 H 1299.95 0.322021 -2.55579 0
M  V30 13552 H 1299.91 2.04301 -2.38974 0
M  V30 13553 N 1303.68 1.3679 -0.7827 0
M  V30 13554 C 1304.91 2.04206 -0.362571 0
M  V30 13555 C 1305.33 1.58637 1.01074 0
M  V30 13556 O 1304.69 0.751692 1.64983 0
M  V30 13557 C 1304.74 3.58062 -0.4271 0
M  V30 13558 O 1303.84 4.08463 0.56845 0
M  V30 13559 H 1303.19 0.645638 -0.155073 0
M  V30 13560 H 1305.72 1.74883 -1.06194 0
M  V30 13561 H 1305.73 4.0698 -0.288298 0
M  V30 13562 H 1304.4 3.90582 -1.42893 0
M  V30 13563 H 1302.98 3.70835 0.391863 0
M  V30 13564 N 1305.16 0.53415 1.48272 0
M  V30 13565 C 1306.39 0.00368464 2.074 0
M  V30 13566 C 1306.81 -1.27003 1.38751 0
M  V30 13567 O 1306.17 -1.75502 0.454817 0
M  V30 13568 C 1306.22 -0.199034 3.6005 0
M  V30 13569 O 1305.32 -1.26679 3.92462 0
M  V30 13570 H 1304.66 0.0409936 0.662733 0
M  V30 13571 H 1307.19 0.743253 1.90622 0
M  V30 13572 H 1307.2 -0.420404 4.05828 0
M  V30 13573 H 1305.88 0.731391 4.09418 0
M  V30 13574 H 1304.46 -1.02775 3.58457 0
M  V30 13575 N 1306.64 -1.55279 0.269478 0
M  V30 13576 C 1307.89 -1.99767 -0.34943 0
M  V30 13577 C 1308.22 -1.15762 -1.55926 0
M  V30 13578 O 1307.49 -0.22633 -1.93179 0
M  V30 13579 C 1307.78 -3.52474 -0.73716 0
M  V30 13580 C 1307.63 -4.47236 0.479621 0
M  V30 13581 C 1308.95 -4.10924 -1.57573 0
M  V30 13582 H 1306.07 -0.72623 -0.125535 0
M  V30 13583 H 1308.71 -1.86257 0.375298 0
M  V30 13584 H 1306.86 -3.64118 -1.35464 0
M  V30 13585 H 1308.53 -4.47543 1.11816 0
M  V30 13586 H 1306.78 -4.19127 1.11871 0
M  V30 13587 H 1307.45 -5.51754 0.164653 0
M  V30 13588 H 1309.92 -4.02522 -1.05429 0
M  V30 13589 H 1308.8 -5.17995 -1.81584 0
M  V30 13590 H 1309.06 -3.60798 -2.55495 0
M  V30 13591 N 1308.12 0.00332656 -1.576 0
M  V30 13592 C 1309.37 0.687508 -1.90047 0
M  V30 13593 C 1309.69 1.74497 -0.870388 0
M  V30 13594 O 1308.96 1.95681 0.0926544 0
M  V30 13595 H 1307.54 0.256924 -0.701426 0
M  V30 13596 H 1310.2 -0.0368129 -1.94865 0
M  V30 13597 H 1309.3 1.16086 -2.89707 0
M  V30 13598 N 1309.6 1.55164 0.276031 0
M  V30 13599 C 1310.87 1.66338 1.02913 0
M  V30 13600 C 1311.25 0.527876 2.04393 0
M  V30 13601 O 1310.6 -0.472437 2.23563 0
M  V30 13602 C 1310.81 3.05427 1.68865 0
M  V30 13603 C 1312.16 3.63075 2.2014 0
M  V30 13604 O 1313.18 3.0804 1.78857 0
M  V30 13605 O 1312.04 4.59492 2.95854 0
M  V30 13606 H 1309.14 0.675446 0.477181 0
M  V30 13607 H 1311.68 1.67504 0.272129 0
M  V30 13608 H 1310.45 3.79514 0.953125 0
M  V30 13609 H 1310.08 3.08147 2.5126 0
M  V30 13610 N 1311.07 -0.540404 1.48045 0
M  V30 13611 C 1312.32 -1.29422 1.55224 0
M  V30 13612 C 1312.64 -1.93716 0.223365 0
M  V30 13613 O 1311.91 -1.808 -0.754204 0
M  V30 13614 H 1310.49 -0.480658 0.571819 0
M  V30 13615 H 1313.16 -0.629712 1.84447 0
M  V30 13616 H 1312.25 -2.07897 2.32777 0
M  V30 13617 N 1312.55 -1.36459 -0.788468 0
M  V30 13618 C 1313.46 -1.33017 -1.93245 0
M  V30 13619 C 1314.48 -0.232212 -1.72444 0
M  V30 13620 O 1315.65 -0.464743 -1.95965 0
M  V30 13621 C 1312.72 -1.1197 -3.28121 0
M  V30 13622 C 1311.78 -2.3125 -3.61693 0
M  V30 13623 C 1311.01 -2.11197 -4.90134 0
M  V30 13624 O 1311.24 -1.08764 -5.59934 0
M  V30 13625 O 1310.17 -2.98996 -5.22384 0
M  V30 13626 H 1314 -2.29333 -1.99098 0
M  V30 13627 H 1311.58 -1.17016 -0.928856 0
M  V30 13628 H 1313.46 -1.02154 -4.08831 0
M  V30 13629 H 1312.14 -0.187171 -3.23158 0
M  V30 13630 H 1311.05 -2.46635 -2.81286 0
M  V30 13631 H 1312.38 -3.23012 -3.71381 0
M  V30 13632 N 1314.03 1.01274 -1.20754 0
M  V30 13633 C 1315.28 1.74586 -1.01804 0
M  V30 13634 C 1315.6 1.89727 0.450419 0
M  V30 13635 O 1314.87 1.44257 1.32539 0
M  V30 13636 H 1313.45 0.646804 -0.373702 0
M  V30 13637 H 1316.11 1.22079 -1.5193 0
M  V30 13638 H 1315.21 2.748 -1.47958 0
M  V30 13639 N 1315.51 1.01404 1.20644 0
M  V30 13640 C 1316.44 0.602465 2.25594 0
M  V30 13641 C 1317.42 -0.381216 1.65773 0
M  V30 13642 O 1318.61 -0.267209 1.92353 0
M  V30 13643 C 1315.74 -0.0626245 3.47244 0
M  V30 13644 C 1314.69 0.841776 4.1964 0
M  V30 13645 C 1314.02 0.0426002 5.34683 0
M  V30 13646 C 1315.32 2.14864 4.76058 0
M  V30 13647 H 1317.01 1.47977 2.60275 0
M  V30 13648 H 1314.56 0.712966 1.25111 0
M  V30 13649 H 1316.51 -0.362095 4.19841 0
M  V30 13650 H 1315.23 -0.974627 3.11719 0
M  V30 13651 H 1313.89 1.12521 3.48905 0
M  V30 13652 H 1313.54 -0.870973 4.95402 0
M  V30 13653 H 1313.24 0.644866 5.84051 0
M  V30 13654 H 1314.76 -0.250476 6.10086 0
M  V30 13655 H 1316.18 1.9117 5.40488 0
M  V30 13656 H 1314.57 2.70153 5.35852 0
M  V30 13657 H 1315.64 2.81336 3.9494 0
M  V30 13658 N 1316.99 -1.36373 0.789944 0
M  V30 13659 C 1318.23 -1.99523 0.363119 0
M  V30 13660 C 1318.57 -1.6255 -1.0626 0
M  V30 13661 O 1317.84 -0.880551 -1.73426 0
M  V30 13662 C 1318.12 -3.56215 0.527526 0
M  V30 13663 C 1317.98 -4.0304 1.99697 0
M  V30 13664 C 1319.3 -4.40063 -0.0571079 0
M  V30 13665 H 1316.42 -0.724824 0.133412 0
M  V30 13666 H 1319.06 -1.61778 0.996381 0
M  V30 13667 H 1317.21 -3.88498 -0.0115636 0
M  V30 13668 H 1318.88 -3.81241 2.59717 0
M  V30 13669 H 1317.12 -3.54561 2.49939 0
M  V30 13670 H 1317.79 -5.12001 2.06297 0
M  V30 13671 H 1320.27 -4.14143 0.403082 0
M  V30 13672 H 1319.15 -5.4883 0.0879494 0
M  V30 13673 H 1319.41 -4.26901 -1.14926 0
M  V30 13674 N 1318.47 -0.542005 -1.47987 0
M  V30 13675 C 1319.42 0.234244 -2.26794 0
M  V30 13676 C 1320.4 0.899085 -1.33436 0
M  V30 13677 O 1321.59 0.799904 -1.57894 0
M  V30 13678 C 1318.72 1.27312 -3.18821 0
M  V30 13679 C 1317.81 0.612457 -4.19654 0
M  V30 13680 N 1318.2 -0.30875 -5.04857 0
M  V30 13681 C 1316.5 0.868224 -4.37468 0
M  V30 13682 C 1317.2 -0.691052 -5.77581 0
M  V30 13683 N 1316.17 -0.0493574 -5.43578 0
M  V30 13684 H 1319.97 -0.47427 -2.90048 0
M  V30 13685 H 1317.49 -0.360868 -1.5834 0
M  V30 13686 H 1319.49 1.84305 -3.73948 0
M  V30 13687 H 1318.15 1.98288 -2.57122 0
M  V30 13688 H 1319.16 -0.682054 -5.13389 0
M  V30 13689 H 1315.83 1.56765 -3.86951 0
M  V30 13690 H 1317.22 -1.44713 -6.56131 0
M  V30 13691 N 1319.94 1.55134 -0.277709 0
M  V30 13692 C 1320.85 2.26296 0.618658 0
M  V30 13693 C 1321.87 1.28978 1.16794 0
M  V30 13694 O 1323.05 1.61918 1.19768 0
M  V30 13695 C 1320.11 2.97214 1.78508 0
M  V30 13696 C 1319.17 4.10016 1.27221 0
M  V30 13697 C 1318.4 4.77543 2.38304 0
M  V30 13698 O 1318.63 4.44293 3.57715 0
M  V30 13699 O 1317.56 5.65437 2.06313 0
M  V30 13700 H 1321.39 3.03671 0.0421031 0
M  V30 13701 H 1318.97 1.49332 -0.0450166 0
M  V30 13702 H 1320.85 3.41773 2.46513 0
M  V30 13703 H 1319.53 2.22753 2.34867 0
M  V30 13704 H 1318.44 3.69907 0.558544 0
M  V30 13705 H 1319.77 4.86385 0.754333 0
M  V30 13706 N 1321.42 0.00503138 1.57599 0
M  V30 13707 C 1322.67 -0.677979 1.89964 0
M  V30 13708 C 1322.98 -1.74657 0.88059 0
M  V30 13709 O 1324.19 -2.48455 1.09463 0
M  V30 13710 C 1322.65 -1.25708 3.37232 0
M  V30 13711 C 1322.25 -0.223045 4.47444 0
M  V30 13712 C 1324 -1.91799 3.787 0
M  V30 13713 C 1321.9 -0.812416 5.85793 0
M  V30 13714 H 1320.83 -0.256991 0.708852 0
M  V30 13715 H 1323.49 0.0663988 1.8338 0
M  V30 13716 H 1321.87 -2.05228 3.3867 0
M  V30 13717 H 1323.04 0.54794 4.57531 0
M  V30 13718 H 1321.36 0.337714 4.15028 0
M  V30 13719 H 1323.95 -2.36808 4.79402 0
M  V30 13720 H 1324.3 -2.75067 3.1248 0
M  V30 13721 H 1324.83 -1.19004 3.79583 0
M  V30 13722 H 1321.57 -0.0184031 6.55497 0
M  V30 13723 H 1321.09 -1.55244 5.79361 0
M  V30 13724 H 1322.77 -1.30952 6.33609 0
M  V30 13725 N 1322.9 -1.55308 -0.267798 0
M  V30 13726 C 1323.86 -1.87765 -1.31442 0
M  V30 13727 C 1324.86 -0.752571 -1.42102 0
M  V30 13728 O 1326.05 -1.02072 -1.41163 0
M  V30 13729 C 1323.18 -2.08754 -2.69508 0
M  V30 13730 H 1324.38 -2.8133 -1.03891 0
M  V30 13731 H 1321.93 -1.47879 -0.506111 0
M  V30 13732 H 1322.67 -1.17588 -3.02231 0
M  V30 13733 H 1322.45 -2.90674 -2.63156 0
M  V30 13734 H 1323.94 -2.3512 -3.4512 0
M  V30 13735 N 1324.38 0.532545 -1.4833 0
M  V30 13736 C 1325.63 1.28597 -1.55908 0
M  V30 13737 C 1325.95 1.93595 -0.233635 0
M  V30 13738 O 1325.22 1.81197 0.744605 0
M  V30 13739 H 1323.8 0.477619 -0.57436 0
M  V30 13740 H 1326.46 0.619922 -1.84778 0
M  V30 13741 H 1325.55 2.0666 -2.33877 0
M  V30 13742 N 1325.86 1.36875 0.78122 0
M  V30 13743 C 1327.08 1.34732 1.57019 0
M  V30 13744 C 1327.5 -0.0695423 1.88672 0
M  V30 13745 O 1326.86 -1.02873 1.50743 0
M  V30 13746 C 1326.91 2.17668 2.88623 0
M  V30 13747 O 1326.63 3.53832 2.5833 0
M  V30 13748 C 1328.13 2.23398 3.82895 0
M  V30 13749 H 1325.35 0.461857 0.486754 0
M  V30 13750 H 1327.89 1.80086 0.968989 0
M  V30 13751 H 1326.05 1.75848 3.4519 0
M  V30 13752 H 1326.46 3.972 3.42538 0
M  V30 13753 H 1327.94 2.85769 4.72271 0
M  V30 13754 H 1328.41 1.23972 4.2134 0
M  V30 13755 H 1329.02 2.65489 3.32258 0
M  V30 13756 N 1327.33 -1.00632 1.21289 0
M  V30 13757 C 1328.24 -2.12829 0.986957 0
M  V30 13758 C 1329.26 -1.73895 -0.0605152 0
M  V30 13759 O 1330.44 -2.00985 0.129238 0
M  V30 13760 C 1327.5 -3.4226 0.553089 0
M  V30 13761 C 1326.56 -3.95376 1.67262 0
M  V30 13762 C 1325.79 -5.18629 1.25936 0
M  V30 13763 O 1326.02 -5.70246 0.132402 0
M  V30 13764 O 1324.95 -5.65157 2.07077 0
M  V30 13765 H 1328.78 -2.34765 1.92663 0
M  V30 13766 H 1326.36 -1.11208 0.997654 0
M  V30 13767 H 1328.24 -4.20177 0.320856 0
M  V30 13768 H 1326.92 -3.21716 -0.357881 0
M  V30 13769 H 1325.83 -3.18692 1.95924 0
M  V30 13770 H 1327.16 -4.20328 2.56097 0
M  V30 13771 N 1328.81 -1.02043 -1.20104 0
M  V30 13772 C 1329.76 -0.593945 -2.23027 0
M  V30 13773 C 1330.73 0.387931 -1.61506 0
M  V30 13774 O 1331.91 0.286504 -1.88637 0
M  V30 13775 C 1329.05 0.0577309 -3.45052 0
M  V30 13776 C 1328.17 -0.969169 -4.20988 0
M  V30 13777 C 1327.3 -0.288143 -5.30418 0
M  V30 13778 C 1326.34 -1.30154 -5.98102 0
M  V30 13779 N 1325.48 -0.646912 -6.99113 0
M  V30 13780 H 1330.32 -1.47623 -2.58866 0
M  V30 13781 H 1327.85 -0.738901 -1.27195 0
M  V30 13782 H 1329.81 0.452726 -4.14736 0
M  V30 13783 H 1328.44 0.90364 -3.09894 0
M  V30 13784 H 1327.49 -1.48229 -3.50332 0
M  V30 13785 H 1328.81 -1.73972 -4.67477 0
M  V30 13786 H 1327.96 0.162149 -6.06483 0
M  V30 13787 H 1326.7 0.514683 -4.84977 0
M  V30 13788 H 1325.7 -1.76218 -5.20795 0
M  V30 13789 H 1326.93 -2.10571 -6.45629 0
M  V30 13790 H 1324.88 0.135976 -6.55859 0
M  V30 13791 H 1324.79 -1.35548 -7.43749 0
M  V30 13792 H 1326.06 -0.220339 -7.79189 0
M  V30 13793 N 1330.29 1.35952 -0.797165 0
M  V30 13794 C 1331.52 2.0328 -0.385316 0
M  V30 13795 C 1331.93 1.60095 1.00076 0
M  V30 13796 O 1331.29 0.794014 1.64322 0
M  V30 13797 C 1331.34 3.5871 -0.448284 0
M  V30 13798 O 1331.06 4.00323 -1.7797 0
M  V30 13799 C 1332.56 4.43291 -0.0280465 0
M  V30 13800 H 1329.78 0.652192 -0.157756 0
M  V30 13801 H 1332.33 1.73769 -1.07817 0
M  V30 13802 H 1330.48 3.86903 0.196224 0
M  V30 13803 H 1330.9 4.94941 -1.73592 0
M  V30 13804 H 1332.37 5.51862 -0.123234 0
M  V30 13805 H 1332.85 4.27059 1.02552 0
M  V30 13806 H 1333.45 4.20375 -0.645343 0
M  V30 13807 N 1331.77 0.549846 1.47697 0
M  V30 13808 C 1333.01 0.0230845 2.02787 0
M  V30 13809 C 1333.35 -1.32035 1.42409 0
M  V30 13810 O 1332.62 -1.85745 0.576978 0
M  V30 13811 C 1332.91 -0.0778363 3.60016 0
M  V30 13812 C 1332.76 1.29217 4.3084 0
M  V30 13813 C 1334.08 -0.794909 4.32862 0
M  V30 13814 H 1331.2 0.00986307 0.736934 0
M  V30 13815 H 1333.84 0.710714 1.76207 0
M  V30 13816 H 1331.99 -0.663464 3.82793 0
M  V30 13817 H 1333.66 1.92044 4.19424 0
M  V30 13818 H 1331.9 1.86883 3.91481 0
M  V30 13819 H 1332.57 1.17435 5.39364 0
M  V30 13820 H 1335.05 -0.297743 4.15033 0
M  V30 13821 H 1333.93 -0.834466 5.4252 0
M  V30 13822 H 1334.19 -1.84948 4.01555 0
M  V30 13823 N 1333.25 -1.54984 0.285932 0
M  V30 13824 C 1334.19 -2.24385 -0.612703 0
M  V30 13825 C 1335.19 -1.24459 -1.14918 0
M  V30 13826 O 1336.39 -1.42357 -1.10156 0
M  V30 13827 H 1332.77 -0.720263 -0.21616 0
M  V30 13828 H 1334.74 -2.984 -0.00465668 0
M  V30 13829 C 1333.49 -2.98661 -1.78037 0
M  V30 13830 H 1332.81 -3.75347 -1.37676 0
M  V30 13831 H 1334.25 -3.50525 -2.38554 0
M  V30 13832 C 1332.71 -2.04754 -2.67539 0
M  V30 13833 O 1333.24 -1.60577 -3.68209 0
M  V30 13834 N 1331.45 -1.71026 -2.34944 0
M  V30 13835 H 1330.99 -2.07148 -1.53126 0
M  V30 13836 H 1330.95 -1.08467 -2.95097 0
M  V30 13837 N 1334.72 -0.0133892 -1.57594 0
M  V30 13838 C 1335.97 0.667896 -1.90321 0
M  V30 13839 C 1336.29 1.74187 -0.88984 0
M  V30 13840 O 1337.49 2.47871 -1.10779 0
M  V30 13841 C 1335.95 1.23917 -3.37894 0
M  V30 13842 C 1335.56 0.199313 -4.47556 0
M  V30 13843 C 1337.3 1.89788 -3.79712 0
M  V30 13844 C 1335.21 0.781339 -5.86216 0
M  V30 13845 H 1334.14 0.253229 -0.710205 0
M  V30 13846 H 1336.79 -0.0761229 -1.83342 0
M  V30 13847 H 1335.17 2.03429 -3.39754 0
M  V30 13848 H 1336.34 -0.572196 -4.57234 0
M  V30 13849 H 1334.66 -0.359719 -4.14843 0
M  V30 13850 H 1337.26 2.34262 -4.80651 0
M  V30 13851 H 1337.6 2.73406 -3.13934 0
M  V30 13852 H 1338.13 1.16989 -3.80208 0
M  V30 13853 H 1334.87 -0.0163598 -6.55498 0
M  V30 13854 H 1334.39 1.5217 -5.80176 0
M  V30 13855 H 1336.07 1.2759 -6.34295 0
M  V30 13856 N 1336.2 1.55448 0.259558 0
M  V30 13857 C 1337.45 1.7589 0.987201 0
M  V30 13858 C 1337.76 0.574951 1.86959 0
M  V30 13859 O 1338.97 0.662091 2.63303 0
M  V30 13860 C 1337.43 3.11349 1.80526 0
M  V30 13861 C 1337.03 4.37353 0.970882 0
M  V30 13862 C 1338.78 3.41136 2.5264 0
M  V30 13863 C 1336.69 5.63847 1.7841 0
M  V30 13864 H 1335.62 0.655662 0.372321 0
M  V30 13865 H 1338.27 1.81893 0.242332 0
M  V30 13866 H 1336.65 2.9942 2.5916 0
M  V30 13867 H 1337.82 4.60237 0.227763 0
M  V30 13868 H 1336.14 4.14809 0.363669 0
M  V30 13869 H 1338.73 4.32855 3.13912 0
M  V30 13870 H 1339.08 2.61879 3.23612 0
M  V30 13871 H 1339.61 3.54224 1.81026 0
M  V30 13872 H 1336.35 6.4589 1.11834 0
M  V30 13873 H 1335.87 5.45086 2.50283 0
M  V30 13874 H 1337.55 6.02641 2.35441 0
M  V30 13875 N 1337.68 -0.524672 1.4861 0
M  V30 13876 C 1338.59 -1.65554 1.6622 0
M  V30 13877 C 1339.61 -1.65254 0.54471 0
M  V30 13878 O 1340.78 -1.84109 0.816454 0
M  V30 13879 C 1337.85 -3.02003 1.7028 0
M  V30 13880 C 1336.91 -3.13116 2.93695 0
M  V30 13881 C 1336.14 -4.43055 2.97553 0
M  V30 13882 O 1336.36 -5.30468 2.09667 0
M  V30 13883 O 1335.3 -4.58646 3.89779 0
M  V30 13884 H 1339.12 -1.53633 2.61974 0
M  V30 13885 H 1336.71 -0.698354 1.32073 0
M  V30 13886 H 1338.59 -3.83143 1.75441 0
M  V30 13887 H 1337.27 -3.14236 0.777002 0
M  V30 13888 H 1336.17 -2.31251 2.94064 0
M  V30 13889 H 1337.51 -3.058 3.85677 0
M  V30 13890 N 1339.16 -1.37287 -0.77395 0
M  V30 13891 C 1340.41 -1.32112 -1.5294 0
M  V30 13892 C 1340.73 0.0946137 -1.9477 0
M  V30 13893 O 1340 1.03817 -1.66129 0
M  V30 13894 H 1338.58 -0.486047 -0.567245 0
M  V30 13895 H 1341.24 -1.71752 -0.921263 0
M  V30 13896 H 1340.34 -1.95873 -2.42982 0
M  V30 13897 N 1340.64 0.999871 -1.21821 0
M  V30 13898 C 1341.86 1.77405 -1.06467 0
M  V30 13899 C 1342.28 1.84828 0.385227 0
M  V30 13900 O 1341.64 1.31338 1.26714 0
M  V30 13901 C 1341.69 3.21062 -1.66137 0
M  V30 13902 O 1341.41 3.14054 -3.05454 0
M  V30 13903 C 1342.91 4.14958 -1.55963 0
M  V30 13904 H 1340.13 0.557368 -0.373607 0
M  V30 13905 H 1342.67 1.2575 -1.61267 0
M  V30 13906 H 1340.83 3.69808 -1.15416 0
M  V30 13907 H 1341.24 4.04346 -3.34073 0
M  V30 13908 H 1342.72 5.13536 -2.02448 0
M  V30 13909 H 1343.19 4.36171 -0.514949 0
M  V30 13910 H 1343.8 3.72105 -2.05956 0
M  V30 13911 N 1342.11 1.02678 1.19562 0
M  V30 13912 C 1343.34 0.741424 1.93695 0
M  V30 13913 C 1343.76 -0.693203 1.74861 0
M  V30 13914 O 1343.12 -1.47833 1.04953 0
M  V30 13915 C 1343.17 1.09514 3.43568 0
M  V30 13916 O 1342.27 0.212596 4.11852 0
M  V30 13917 H 1341.62 0.274128 0.604773 0
M  V30 13918 H 1344.15 1.37289 1.517 0
M  V30 13919 H 1344.16 1.05115 3.94227 0
M  V30 13920 H 1342.83 2.14034 3.56598 0
M  V30 13921 H 1341.41 0.315 3.71567 0
M  V30 13922 N 1343.59 -1.35528 0.804364 0
M  V30 13923 C 1345 -1.81321 0.444933 0
M  V30 13924 C 1345.35 -1.66816 -1.03281 0
M  V30 13925 O 1344.48 -1.19753 -1.80245 0
M  V30 13926 C 1345.07 -3.29199 0.800827 0
M  V30 13927 C 1343.63 -3.73144 0.494026 0
M  V30 13928 C 1342.78 -2.57557 1.02761 0
M  V30 13929 H 1345.73 -1.23537 0.996203 0
M  V30 13930 H 1345.75 -3.80375 0.0975117 0
M  V30 13931 H 1345.26 -3.39725 1.8764 0
M  V30 13932 H 1343.37 -3.68169 -0.572901 0
M  V30 13933 H 1343.48 -4.68005 1.0251 0
M  V30 13934 H 1341.84 -2.50692 0.450048 0
M  V30 13935 H 1342.63 -2.70861 2.10925 0
M  V30 13936 N 1345.07 -0.557671 -1.47404 0
M  V30 13937 C 1345.98 0.19289 -2.33806 0
M  V30 13938 C 1347 0.911424 -1.4822 0
M  V30 13939 O 1348.17 0.880214 -1.81147 0
M  V30 13940 C 1345.24 1.20937 -3.24923 0
M  V30 13941 C 1344.3 0.498209 -4.26399 0
M  V30 13942 C 1343.53 1.46626 -5.13163 0
M  V30 13943 O 1343.76 2.70111 -5.0239 0
M  V30 13944 O 1342.69 0.990497 -5.93694 0
M  V30 13945 H 1346.52 -0.515861 -2.99287 0
M  V30 13946 H 1344.1 -0.318283 -1.4597 0
M  V30 13947 H 1345.98 1.7961 -3.81206 0
M  V30 13948 H 1344.66 1.90003 -2.6207 0
M  V30 13949 H 1343.56 -0.129736 -3.73875 0
M  V30 13950 H 1344.9 -0.151015 -4.91968 0
M  V30 13951 N 1346.55 1.54831 -0.294147 0
M  V30 13952 C 1347.8 1.99179 0.317874 0
M  V30 13953 C 1348.11 1.18614 1.55532 0
M  V30 13954 O 1349.32 1.53197 2.24149 0
M  V30 13955 C 1347.77 3.54574 0.616893 0
M  V30 13956 C 1347.38 4.43939 -0.601822 0
M  V30 13957 C 1349.13 4.07465 1.19049 0
M  V30 13958 C 1347.03 5.90754 -0.276336 0
M  V30 13959 H 1345.96 0.743974 0.12255 0
M  V30 13960 H 1348.61 1.79047 -0.401781 0
M  V30 13961 H 1347 3.70579 1.39596 0
M  V30 13962 H 1348.17 4.39706 -1.37822 0
M  V30 13963 H 1346.48 4.01783 -1.09357 0
M  V30 13964 H 1349.08 5.14716 1.44814 0
M  V30 13965 H 1349.42 3.5765 2.13055 0
M  V30 13966 H 1349.96 3.94975 0.473282 0
M  V30 13967 H 1346.7 6.44704 -1.18478 0
M  V30 13968 H 1346.22 5.98011 0.462928 0
M  V30 13969 H 1347.9 6.4688 0.124587 0
M  V30 13970 N 1348.03 0.0217466 1.57585 0
M  V30 13971 C 1349.27 -0.659463 1.91778 0
M  V30 13972 C 1349.61 -1.72201 0.897801 0
M  V30 13973 O 1348.88 -1.94333 -0.080509 0
M  V30 13974 C 1349.16 -1.28269 3.36481 0
M  V30 13975 C 1349.02 -0.230201 4.49211 0
M  V30 13976 C 1350.34 -2.20279 3.81005 0
M  V30 13977 H 1347.46 -0.238263 0.697424 0
M  V30 13978 H 1350.1 0.0774967 1.89842 0
M  V30 13979 H 1348.25 -1.9108 3.38262 0
M  V30 13980 H 1349.92 0.399901 4.59563 0
M  V30 13981 H 1348.16 0.445157 4.3151 0
M  V30 13982 H 1348.83 -0.705732 5.4747 0
M  V30 13983 H 1351.31 -1.67463 3.80914 0
M  V30 13984 H 1350.19 -2.60842 4.82962 0
M  V30 13985 H 1350.45 -3.09092 3.16093 0
M  V30 13986 N 1349.51 -1.55583 -0.251311 0
M  V30 13987 C 1350.75 -1.77471 -0.981418 0
M  V30 13988 C 1351.08 -0.586228 -1.85141 0
M  V30 13989 O 1350.36 0.415623 -1.90007 0
M  V30 13990 C 1350.64 -3.09204 -1.84567 0
M  V30 13991 C 1350.5 -4.38448 -1.00417 0
M  V30 13992 C 1351.81 -3.37133 -2.82895 0
M  V30 13993 H 1348.93 -0.645664 -0.355369 0
M  V30 13994 H 1351.58 -1.88318 -0.252228 0
M  V30 13995 H 1349.73 -3.00087 -2.46738 0
M  V30 13996 H 1351.4 -4.5955 -0.40149 0
M  V30 13997 H 1349.64 -4.32703 -0.308365 0
M  V30 13998 H 1350.31 -5.26995 -1.64258 0
M  V30 13999 H 1352.79 -3.46183 -2.3086 0
M  V30 14000 H 1351.66 -4.30531 -3.40491 0
M  V30 14001 H 1351.92 -2.57829 -3.59133 0
M  V30 14002 N 1350.98 0.516783 -1.48886 0
M  V30 14003 C 1351.93 1.64093 -1.64853 0
M  V30 14004 C 1352.93 1.61392 -0.514685 0
M  V30 14005 O 1354.13 1.6609 -0.693831 0
M  V30 14006 H 1350.51 0.543672 -0.519543 0
M  V30 14007 H 1352.48 1.47774 -2.5924 0
M  V30 14008 C 1351.23 3.02308 -1.71771 0
M  V30 14009 H 1350.55 3.05085 -2.58385 0
M  V30 14010 H 1351.99 3.80544 -1.86982 0
M  V30 14011 C 1350.45 3.33757 -0.459136 0
M  V30 14012 O 1350.98 3.99475 0.422177 0
M  V30 14013 N 1349.18 2.88756 -0.326837 0
M  V30 14014 H 1348.73 2.35452 -1.045 0
M  V30 14015 H 1348.69 3.10166 0.514213 0
M  V30 14016 N 1352.46 1.37696 0.766659 0
M  V30 14017 C 1353.87 1.29668 1.34324 0
M  V30 14018 C 1354.22 -0.0534297 1.96127 0
M  V30 14019 O 1353.35 -0.95534 1.94171 0
M  V30 14020 C 1353.94 2.34818 2.44225 0
M  V30 14021 C 1352.5 2.3041 2.97638 0
M  V30 14022 C 1351.65 2.18378 1.70899 0
M  V30 14023 H 1354.6 1.48244 0.566526 0
M  V30 14024 H 1354.62 1.99778 3.23835 0
M  V30 14025 H 1354.13 3.3307 1.99214 0
M  V30 14026 H 1352.23 1.35698 3.47011 0
M  V30 14027 H 1352.35 3.24028 3.52906 0
M  V30 14028 H 1350.71 1.65008 1.94021 0
M  V30 14029 H 1351.49 3.18551 1.27985 0
M  V30 14030 N 1353.94 -0.993397 1.22349 0
M  V30 14031 C 1355.19 -1.73544 1.04931 0
M  V30 14032 C 1355.52 -1.89721 -0.414661 0
M  V30 14033 O 1354.79 -1.44001 -1.30743 0
M  V30 14034 C 1355.08 -3.14131 1.7605 0
M  V30 14035 C 1354.93 -3.05604 3.30039 0
M  V30 14036 C 1356.25 -4.13294 1.51249 0
M  V30 14037 H 1353.37 -0.629915 0.382591 0
M  V30 14038 H 1356.01 -1.15737 1.50682 0
M  V30 14039 H 1354.16 -3.63483 1.37157 0
M  V30 14040 H 1355.83 -2.63876 3.78374 0
M  V30 14041 H 1354.07 -2.42421 3.59742 0
M  V30 14042 H 1354.75 -4.05086 3.74979 0
M  V30 14043 H 1357.22 -3.72696 1.85033 0
M  V30 14044 H 1356.1 -5.09781 2.03507 0
M  V30 14045 H 1356.36 -4.39855 0.444973 0
M  V30 14046 N 1355.42 -1.03311 -1.19015 0
M  V30 14047 C 1356.83 -0.750946 -1.4083 0
M  V30 14048 C 1357.03 0.662704 -1.90291 0
M  V30 14049 O 1356.09 1.42806 -2.08237 0
M  V30 14050 C 1357.4 -1.79064 -2.41571 0
M  V30 14051 C 1358.95 -1.81068 -2.55311 0
M  V30 14052 C 1359.43 -2.84008 -3.59309 0
M  V30 14053 N 1360.92 -2.82852 -3.6681 0
M  V30 14054 C 1361.65 -3.59156 -4.46984 0
M  V30 14055 N 1361.15 -4.45188 -5.30829 0
M  V30 14056 N 1362.94 -3.47679 -4.41674 0
M  V30 14057 H 1355.09 -1.94548 -0.852329 0
M  V30 14058 H 1357.35 -0.841344 -0.436858 0
M  V30 14059 H 1357.06 -2.80425 -2.12261 0
M  V30 14060 H 1356.93 -1.61646 -3.40809 0
M  V30 14061 H 1359.32 -0.803825 -2.83941 0
M  V30 14062 H 1359.4 -2.02562 -1.56212 0
M  V30 14063 H 1359.05 -3.84867 -3.3142 0
M  V30 14064 H 1358.98 -2.59771 -4.58069 0
M  V30 14065 H 1361.47 -2.20457 -3.06932 0
M  V30 14066 H 1361.78 -5.00139 -5.89135 0
M  V30 14067 H 1360.13 -4.49259 -5.30275 0
M  V30 14068 H 1363.32 -2.79876 -3.75216 0
M  V30 14069 H 1363.49 -4.07396 -5.03917 0
M  V30 14070 N 1356.9 1.35099 -0.81154 0
M  V30 14071 C 1358.17 1.93009 -0.317289 0
M  V30 14072 C 1358.55 1.74101 1.19382 0
M  V30 14073 O 1357.9 1.11295 1.99564 0
M  V30 14074 C 1358.11 3.41191 -0.734123 0
M  V30 14075 C 1359.46 4.1834 -0.726437 0
M  V30 14076 O 1360.48 3.49727 -0.67598 0
M  V30 14077 O 1359.34 5.4077 -0.789291 0
M  V30 14078 H 1356.44 0.822707 -0.084153 0
M  V30 14079 H 1358.98 1.44145 -0.895569 0
M  V30 14080 H 1357.75 3.48705 -1.7754 0
M  V30 14081 H 1357.38 3.97384 -0.130919 0
M  V30 14082 N 1358.37 0.56548 1.47106 0
M  V30 14083 C 1359.62 0.0445255 2.02451 0
M  V30 14084 C 1359.95 -1.30863 1.43893 0
M  V30 14085 O 1359.2 -1.8668 0.587274 0
M  V30 14086 C 1359.5 -0.0893776 3.57288 0
M  V30 14087 C 1359.17 1.19395 4.34805 0
M  V30 14088 C 1357.83 1.54558 4.55703 0
M  V30 14089 C 1360.18 2.04399 4.79448 0
M  V30 14090 C 1357.51 2.74557 5.18494 0
M  V30 14091 C 1359.86 3.23608 5.43563 0
M  V30 14092 C 1358.53 3.59074 5.62692 0
M  V30 14093 H 1357.8 0.016293 0.740821 0
M  V30 14094 H 1360.44 0.738657 1.76681 0
M  V30 14095 H 1358.75 -0.86653 3.82097 0
M  V30 14096 H 1360.45 -0.507943 3.9777 0
M  V30 14097 H 1357.04 0.910176 4.18824 0
M  V30 14098 H 1361.22 1.78539 4.63074 0
M  V30 14099 H 1356.48 3.02194 5.31497 0
M  V30 14100 H 1360.65 3.89755 5.77117 0
M  V30 14101 H 1358.28 4.5215 6.11117 0
M  V30 14102 N 1359.85 -1.54672 0.302354 0
M  V30 14103 C 1360.8 -2.2357 -0.573141 0
M  V30 14104 C 1361.77 -1.21878 -1.12849 0
M  V30 14105 O 1362.95 -1.50502 -1.17277 0
M  V30 14106 C 1360.09 -2.98111 -1.7385 0
M  V30 14107 C 1359.21 -4.14579 -1.21441 0
M  V30 14108 C 1358.34 -4.76699 -2.34374 0
M  V30 14109 C 1357.38 -5.8531 -1.79106 0
M  V30 14110 N 1356.52 -6.41379 -2.85618 0
M  V30 14111 H 1361.36 -2.97993 0.0209969 0
M  V30 14112 H 1358.9 -1.47083 0.0221318 0
M  V30 14113 H 1360.85 -3.39561 -2.42392 0
M  V30 14114 H 1359.48 -2.26063 -2.30425 0
M  V30 14115 H 1358.54 -3.78061 -0.421204 0
M  V30 14116 H 1359.85 -4.92824 -0.769821 0
M  V30 14117 H 1359 -5.21009 -3.10861 0
M  V30 14118 H 1357.74 -3.9779 -2.8216 0
M  V30 14119 H 1356.75 -5.40423 -1.01109 0
M  V30 14120 H 1357.97 -6.66104 -1.32222 0
M  V30 14121 H 1355.92 -5.65352 -3.32735 0
M  V30 14122 H 1355.83 -7.14974 -2.45659 0
M  V30 14123 H 1357.1 -6.90346 -3.61998 0
M  V30 14124 N 1361.33 -0.0301034 -1.57571 0
M  V30 14125 C 1362.29 0.936465 -2.09196 0
M  V30 14126 C 1363.29 1.25347 -1.00722 0
M  V30 14127 O 1364.48 1.19364 -1.26877 0
M  V30 14128 C 1361.62 2.2527 -2.55864 0
M  V30 14129 H 1362.81 0.489332 -2.95881 0
M  V30 14130 H 1360.36 0.217948 -1.54773 0
M  V30 14131 H 1361.1 2.7461 -1.72511 0
M  V30 14132 H 1360.88 2.03573 -3.35113 0
M  V30 14133 H 1362.37 2.94549 -2.96025 0
M  V30 14134 N 1362.81 1.55714 0.243056 0
M  V30 14135 C 1364.03 1.82126 0.992219 0
M  V30 14136 C 1364.46 0.607665 1.78014 0
M  V30 14137 O 1363.82 -0.443351 1.75796 0
M  V30 14138 C 1363.86 3.06314 1.90274 0
M  V30 14139 O 1362.97 2.83499 2.99503 0
M  V30 14140 H 1362.31 0.601082 0.282128 0
M  V30 14141 H 1364.84 2.02904 0.262881 0
M  V30 14142 H 1364.85 3.35849 2.31666 0
M  V30 14143 H 1363.52 3.94282 1.32344 0
M  V30 14144 H 1362.1 2.65141 2.62211 0
M  V30 14145 N 1364.29 -0.50888 1.49158 0
M  V30 14146 C 1365.2 -1.63782 1.67966 0
M  V30 14147 C 1366.21 -1.64667 0.562207 0
M  V30 14148 O 1367.39 -1.83232 0.835935 0
M  V30 14149 C 1364.45 -3.00179 1.73474 0
M  V30 14150 C 1363.51 -3.09983 2.97 0
M  V30 14151 C 1362.75 -4.39875 3.02235 0
M  V30 14152 O 1362.97 -5.28214 2.15282 0
M  V30 14153 O 1361.9 -4.54486 3.94621 0
M  V30 14154 H 1365.73 -1.50846 2.63589 0
M  V30 14155 H 1363.32 -0.684306 1.32807 0
M  V30 14156 H 1365.2 -3.8126 1.79495 0
M  V30 14157 H 1363.87 -3.13394 0.810287 0
M  V30 14158 H 1362.78 -2.28119 2.965 0
M  V30 14159 H 1364.11 -3.01693 3.88899 0
M  V30 14160 N 1365.76 -1.381 -0.759346 0
M  V30 14161 C 1367.01 -1.33311 -1.51364 0
M  V30 14162 C 1367.33 0.0761325 -1.95452 0
M  V30 14163 O 1368.53 0.246541 -2.70378 0
M  V30 14164 C 1366.99 -2.34067 -2.73387 0
M  V30 14165 C 1366.6 -3.80583 -2.36348 0
M  V30 14166 C 1368.34 -2.38311 -3.51295 0
M  V30 14167 C 1366.25 -4.73039 -3.54948 0
M  V30 14168 H 1365.18 -0.495512 -0.568317 0
M  V30 14169 H 1367.83 -1.63625 -0.830602 0
M  V30 14170 H 1366.21 -1.96788 -3.43643 0
M  V30 14171 H 1367.38 -4.26769 -1.73796 0
M  V30 14172 H 1365.7 -3.79403 -1.71587 0
M  V30 14173 H 1368.3 -3.04586 -4.39467 0
M  V30 14174 H 1368.64 -1.40034 -3.92041 0
M  V30 14175 H 1369.17 -2.74361 -2.88047 0
M  V30 14176 H 1365.91 -5.7249 -3.19273 0
M  V30 14177 H 1365.43 -4.3155 -4.16563 0
M  V30 14178 H 1367.11 -4.90775 -4.21603 0
M  V30 14179 N 1367.24 0.986894 -1.22875 0
M  V30 14180 C 1368.19 2.09935 -1.00151 0
M  V30 14181 C 1369.18 1.69303 0.0573751 0
M  V30 14182 O 1370.39 1.79746 -0.0955781 0
M  V30 14183 H 1366.77 0.686605 -0.306721 0
M  V30 14184 H 1368.74 2.26271 -1.94535 0
M  V30 14185 C 1367.49 3.42442 -0.602374 0
M  V30 14186 H 1366.81 3.74154 -1.40886 0
M  V30 14187 H 1368.25 4.21242 -0.482836 0
M  V30 14188 C 1366.71 3.29785 0.688707 0
M  V30 14189 O 1367.24 3.6208 1.73957 0
M  V30 14190 N 1365.44 2.82956 0.662152 0
M  V30 14191 H 1364.99 2.56873 -0.193337 0
M  V30 14192 H 1364.95 2.74869 1.52625 0
M  V30 14193 N 1368.72 1.0394 1.18466 0
M  V30 14194 C 1369.67 0.629352 2.22054 0
M  V30 14195 C 1370.64 -0.362187 1.62103 0
M  V30 14196 O 1371.82 -0.256457 1.89069 0
M  V30 14197 C 1368.96 -0.00282888 3.451 0
M  V30 14198 C 1368.08 1.03602 4.19393 0
M  V30 14199 C 1367.21 0.372492 5.29892 0
M  V30 14200 C 1366.25 1.39652 5.95956 0
M  V30 14201 N 1365.39 0.758053 6.97996 0
M  V30 14202 H 1370.23 1.51722 2.56485 0
M  V30 14203 H 1367.76 0.759043 1.26004 0
M  V30 14204 H 1369.72 -0.386688 4.15404 0
M  V30 14205 H 1368.35 -0.854224 3.11292 0
M  V30 14206 H 1367.4 1.53784 3.47929 0
M  V30 14207 H 1368.72 1.81387 4.64651 0
M  V30 14208 H 1367.87 -0.065642 6.06664 0
M  V30 14209 H 1366.61 -0.437462 4.85734 0
M  V30 14210 H 1365.61 1.84481 5.17926 0
M  V30 14211 H 1366.84 2.20816 6.42197 0
M  V30 14212 H 1364.78 -0.0316173 6.55992 0
M  V30 14213 H 1364.7 1.47363 7.41499 0
M  V30 14214 H 1365.97 0.344273 7.78739 0
M  V30 14215 N 1370.2 -1.34667 0.818693 0
M  V30 14216 C 1371.15 -2.29595 0.235551 0
M  V30 14217 C 1372.12 -1.53389 -0.63727 0
M  V30 14218 O 1373.3 -1.81777 -0.579804 0
M  V30 14219 C 1370.44 -3.39843 -0.600043 0
M  V30 14220 C 1369.55 -4.30995 0.294553 0
M  V30 14221 C 1368.69 -5.28343 -0.550203 0
M  V30 14222 C 1367.73 -6.11132 0.344043 0
M  V30 14223 N 1366.86 -7.00582 -0.461392 0
M  V30 14224 H 1371.7 -2.78872 1.05044 0
M  V30 14225 H 1369.24 -1.37239 0.529517 0
M  V30 14226 H 1371.2 -4.02443 -1.09978 0
M  V30 14227 H 1369.83 -2.91811 -1.38008 0
M  V30 14228 H 1368.88 -3.69294 0.912483 0
M  V30 14229 H 1370.19 -4.89031 0.982341 0
M  V30 14230 H 1369.35 -5.96374 -1.11459 0
M  V30 14231 H 1368.09 -4.70833 -1.27151 0
M  V30 14232 H 1367.09 -5.42038 0.920608 0
M  V30 14233 H 1368.32 -6.70722 1.0634 0
M  V30 14234 H 1366.26 -6.45546 -1.16645 0
M  V30 14235 H 1366.18 -7.55813 0.168095 0
M  V30 14236 H 1367.45 -7.72946 -1.00867 0
M  V30 14237 N 1371.68 -0.573274 -1.46804 0
M  V30 14238 C 1372.62 0.178246 -2.31916 0
M  V30 14239 C 1373.62 0.89366 -1.4391 0
M  V30 14240 O 1374.82 0.81312 -1.60588 0
M  V30 14241 H 1371.2 0.0763519 -0.748114 0
M  V30 14242 H 1373.17 -0.558552 -2.93126 0
M  V30 14243 C 1371.92 1.18476 -3.26892 0
M  V30 14244 H 1371.24 0.643691 -3.94584 0
M  V30 14245 H 1372.68 1.68118 -3.89246 0
M  V30 14246 C 1371.14 2.24092 -2.51564 0
M  V30 14247 O 1371.67 3.3129 -2.27178 0
M  V30 14248 N 1369.88 1.98447 -2.1229 0
M  V30 14249 H 1369.42 1.11283 -2.32323 0
M  V30 14250 H 1369.38 2.69325 -1.62207 0
M  V30 14251 N 1373.15 1.5451 -0.310553 0
M  V30 14252 C 1374.4 2.00623 0.296343 0
M  V30 14253 C 1374.73 1.19855 1.52802 0
M  V30 14254 O 1374.01 0.277468 1.92511 0
M  V30 14255 C 1374.29 3.54305 0.643448 0
M  V30 14256 C 1374.14 4.45807 -0.598029 0
M  V30 14257 C 1375.46 4.14958 1.46623 0
M  V30 14258 H 1372.58 0.729303 0.106236 0
M  V30 14259 H 1375.22 1.85196 -0.424549 0
M  V30 14260 H 1373.37 3.67581 1.25762 0
M  V30 14261 H 1375.05 4.44421 -1.23643 0
M  V30 14262 H 1373.29 4.16014 -1.22944 0
M  V30 14263 H 1373.96 5.51124 -0.310883 0
M  V30 14264 H 1376.44 4.05176 0.947199 0
M  V30 14265 H 1375.31 5.22627 1.67787 0
M  V30 14266 H 1375.57 3.67445 2.45839 0
M  V30 14267 N 1374.63 0.0384594 1.57553 0
M  V30 14268 C 1375.86 -0.648077 1.96488 0
M  V30 14269 C 1376.28 -1.65123 0.915414 0
M  V30 14270 O 1375.63 -1.82216 -0.101779 0
M  V30 14271 C 1375.68 -1.34623 3.35498 0
M  V30 14272 O 1375.41 -0.383261 4.3642 0
M  V30 14273 C 1376.91 -2.12372 3.89119 0
M  V30 14274 H 1374.13 -0.178068 0.646941 0
M  V30 14275 H 1376.67 0.100993 2.0425 0
M  V30 14276 H 1374.83 -2.04663 3.28926 0
M  V30 14277 H 1375.24 -0.880095 5.17063 0
M  V30 14278 H 1376.71 -2.5666 4.88702 0
M  V30 14279 H 1377.19 -2.96664 3.23863 0
M  V30 14280 H 1377.8 -1.4727 3.98988 0
M  V30 14281 N 1376.11 -1.55841 -0.234795 0
M  V30 14282 C 1377.36 -1.78502 -0.96254 0
M  V30 14283 C 1377.69 -0.605832 -1.84508 0
M  V30 14284 O 1376.97 0.395446 -1.90438 0
M  V30 14285 C 1377.25 -3.11144 -1.81277 0
M  V30 14286 C 1377.1 -4.39488 -0.957607 0
M  V30 14287 C 1378.42 -3.40114 -2.79304 0
M  V30 14288 H 1375.54 -0.649397 -0.348501 0
M  V30 14289 H 1378.18 -1.88575 -0.23224 0
M  V30 14290 H 1376.33 -3.02687 -2.43542 0
M  V30 14291 H 1378 -4.59949 -0.352726 0
M  V30 14292 H 1376.25 -4.33005 -0.262454 0
M  V30 14293 H 1376.92 -5.28707 -1.58659 0
M  V30 14294 H 1379.39 -3.48612 -2.27175 0
M  V30 14295 H 1378.27 -4.34118 -3.35906 0
M  V30 14296 H 1378.53 -2.61623 -3.56378 0
M  V30 14297 N 1377.59 0.500963 -1.49426 0
M  V30 14298 C 1378.82 1.27911 -1.62624 0
M  V30 14299 C 1379.23 1.86439 -0.297651 0
M  V30 14300 O 1378.59 1.67831 0.716879 0
M  V30 14301 C 1378.64 2.40934 -2.69505 0
M  V30 14302 O 1378.36 1.84811 -3.97211 0
M  V30 14303 C 1379.86 3.32305 -2.93408 0
M  V30 14304 H 1377.08 0.387951 -0.547481 0
M  V30 14305 H 1379.63 0.601372 -1.95458 0
M  V30 14306 H 1377.78 3.04537 -2.39449 0
M  V30 14307 H 1378.2 2.59011 -4.56085 0
M  V30 14308 H 1379.67 4.0789 -3.71927 0
M  V30 14309 H 1380.15 3.89301 -2.03325 0
M  V30 14310 H 1380.75 2.74467 -3.24881 0
M  V30 14311 N 1379.07 1.38501 0.752011 0
M  V30 14312 C 1380.31 1.36 1.51246 0
M  V30 14313 C 1380.67 -0.049305 1.92337 0
M  V30 14314 O 1379.96 -1.01227 1.62676 0
M  V30 14315 C 1380.16 2.25111 2.77596 0
M  V30 14316 C 1379.98 3.74566 2.48858 0
M  V30 14317 C 1378.75 4.43582 2.41999 0
M  V30 14318 C 1380.95 4.6696 2.1553 0
M  V30 14319 N 1378.93 5.78465 2.05553 0
M  V30 14320 C 1380.31 5.90366 1.89388 0
M  V30 14321 C 1382.36 4.55148 2.01853 0
M  V30 14322 C 1381.06 7.03283 1.50948 0
M  V30 14323 C 1383.09 5.6797 1.64815 0
M  V30 14324 C 1382.45 6.90439 1.39546 0
M  V30 14325 H 1378.55 0.552942 0.552973 0
M  V30 14326 H 1381.13 1.73902 0.875559 0
M  V30 14327 H 1379.31 1.89395 3.39093 0
M  V30 14328 H 1381.04 2.13725 3.43662 0
M  V30 14329 H 1377.79 3.96816 2.58523 0
M  V30 14330 H 1378.22 6.498 1.8997 0
M  V30 14331 H 1382.86 3.61015 2.20063 0
M  V30 14332 H 1380.58 7.97333 1.31477 0
M  V30 14333 H 1384.16 5.60811 1.54862 0
M  V30 14334 H 1383.04 7.7626 1.11313 0
M  V30 14335 N 1380.55 -0.980364 1.23396 0
M  V30 14336 C 1381.77 -1.75689 1.09275 0
M  V30 14337 C 1382.19 -1.85418 -0.355773 0
M  V30 14338 O 1381.55 -1.33337 -1.24609 0
M  V30 14339 C 1381.6 -3.18378 1.71223 0
M  V30 14340 O 1381.32 -3.09154 3.10411 0
M  V30 14341 C 1382.82 -4.12425 1.62545 0
M  V30 14342 H 1380.04 -0.551354 0.382427 0
M  V30 14343 H 1382.58 -1.23169 1.63247 0
M  V30 14344 H 1380.74 -3.67925 1.21285 0
M  V30 14345 H 1381.15 -3.9898 3.40464 0
M  V30 14346 H 1382.63 -5.1025 2.10592 0
M  V30 14347 H 1383.1 -4.35296 0.584275 0
M  V30 14348 H 1383.71 -3.68782 2.1185 0
M  V30 14349 N 1382.02 -1.04567 -1.17913 0
M  V30 14350 C 1382.93 -0.651674 -2.25367 0
M  V30 14351 C 1383.95 0.32437 -1.7095 0
M  V30 14352 O 1385.13 0.178039 -2.00612 0
M  V30 14353 C 1382.19 -0.0259452 -3.4669 0
M  V30 14354 C 1381.25 -1.05163 -4.1622 0
M  V30 14355 C 1380.48 -0.45567 -5.31751 0
M  V30 14356 O 1380.71 0.736698 -5.65623 0
M  V30 14357 O 1379.64 -1.18684 -5.90083 0
M  V30 14358 H 1383.47 -1.54704 -2.61344 0
M  V30 14359 H 1381.05 -0.816852 -1.25092 0
M  V30 14360 H 1382.93 0.322126 -4.20167 0
M  V30 14361 H 1381.61 0.843165 -3.12526 0
M  V30 14362 H 1380.52 -1.45159 -3.44789 0
M  V30 14363 H 1381.85 -1.89168 -4.54397 0
M  V30 14364 N 1383.5 1.34231 -0.825823 0
M  V30 14365 C 1384.91 1.8059 -0.473724 0
M  V30 14366 C 1385.26 1.68438 1.00614 0
M  V30 14367 O 1384.39 1.22606 1.78317 0
M  V30 14368 C 1384.98 3.27884 -0.853099 0
M  V30 14369 C 1383.54 3.72311 -0.553327 0
M  V30 14370 C 1382.69 2.55889 -1.06845 0
M  V30 14371 H 1385.64 1.21937 -1.01573 0
M  V30 14372 H 1385.66 3.80172 -0.158014 0
M  V30 14373 H 1385.17 3.36696 -1.93021 0
M  V30 14374 H 1383.27 3.69034 0.514256 0
M  V30 14375 H 1383.39 4.66315 -1.09942 0
M  V30 14376 H 1381.75 2.49945 -0.489874 0
M  V30 14377 H 1382.53 2.67471 -2.15207 0
M  V30 14378 N 1384.98 0.581051 1.46498 0
M  V30 14379 C 1385.89 -0.155669 2.34083 0
M  V30 14380 C 1386.91 -0.887728 1.49651 0
M  V30 14381 O 1388.08 -0.851284 1.82524 0
M  V30 14382 C 1385.15 -1.15752 3.26806 0
M  V30 14383 C 1384.21 -0.43031 4.27138 0
M  V30 14384 C 1383.44 -1.38443 5.15431 0
M  V30 14385 O 1383.66 -2.62084 5.06624 0
M  V30 14386 O 1382.6 -0.89592 5.95195 0
M  V30 14387 H 1386.42 0.56341 2.98428 0
M  V30 14388 H 1384.01 0.341466 1.45445 0
M  V30 14389 H 1385.89 -1.73523 3.84015 0
M  V30 14390 H 1384.57 -1.85809 2.65059 0
M  V30 14391 H 1383.47 0.1892 3.73621 0
M  V30 14392 H 1384.81 0.229263 4.91666 0
M  V30 14393 N 1386.46 -1.54343 0.318742 0
M  V30 14394 C 1387.69 -2.04894 -0.287378 0
M  V30 14395 C 1388.1 -1.19514 -1.46157 0
M  V30 14396 O 1387.46 -0.224722 -1.81111 0
M  V30 14397 C 1387.51 -3.54124 -0.726505 0
M  V30 14398 O 1387.23 -4.36261 0.400968 0
M  V30 14399 C 1388.73 -4.20748 -1.39594 0
M  V30 14400 H 1385.95 -0.668323 -0.0598724 0
M  V30 14401 H 1388.49 -1.99177 0.463531 0
M  V30 14402 H 1386.65 -3.60145 -1.4274 0
M  V30 14403 H 1387.06 -5.2447 0.0558714 0
M  V30 14404 H 1388.54 -5.26632 -1.65418 0
M  V30 14405 H 1389.01 -3.71566 -2.3417 0
M  V30 14406 H 1389.62 -4.18852 -0.737749 0
M  V30 14407 N 1387.94 -0.0468143 -1.5753 0
M  V30 14408 C 1389.16 0.637648 -1.96829 0
M  V30 14409 C 1389.58 1.64635 -0.924158 0
M  V30 14410 O 1388.94 1.82267 0.0921139 0
M  V30 14411 C 1388.99 1.32842 -3.36207 0
M  V30 14412 O 1388.71 0.360111 -4.36617 0
M  V30 14413 C 1390.21 2.10305 -3.90239 0
M  V30 14414 H 1387.43 0.174634 -0.647876 0
M  V30 14415 H 1389.97 -0.111824 -2.04194 0
M  V30 14416 H 1388.13 2.02915 -3.30006 0
M  V30 14417 H 1388.54 0.852661 -5.17523 0
M  V30 14418 H 1390.02 2.54065 -4.90056 0
M  V30 14419 H 1390.49 2.94942 -3.25432 0
M  V30 14420 H 1391.1 1.45152 -3.99764 0
M  V30 14421 N 1389.41 1.55964 0.226527 0
M  V30 14422 C 1390.32 1.95169 1.30178 0
M  V30 14423 C 1391.34 0.854831 1.51554 0
M  V30 14424 O 1392.52 1.15798 1.64781 0
M  V30 14425 C 1389.58 2.25612 2.63249 0
M  V30 14426 C 1388.64 3.4884 2.50219 0
M  V30 14427 C 1387.88 3.77822 3.76944 0
M  V30 14428 O 1388.1 3.08556 4.79739 0
M  V30 14429 O 1387.03 4.7132 3.74354 0
M  V30 14430 H 1390.86 2.86794 0.999145 0
M  V30 14431 H 1388.44 1.43109 0.42898 0
M  V30 14432 H 1390.33 2.4641 3.41848 0
M  V30 14433 H 1389 1.37162 2.93203 0
M  V30 14434 H 1387.91 3.33326 1.69836 0
M  V30 14435 H 1389.24 4.37657 2.25205 0
M  V30 14436 N 1390.89 -0.493031 1.4969 0
M  V30 14437 C 1392.14 -1.24418 1.59263 0
M  V30 14438 C 1392.46 -1.92908 0.284882 0
M  V30 14439 O 1391.73 -1.83108 -0.696302 0
M  V30 14440 H 1390.31 -0.462223 0.586821 0
M  V30 14441 H 1392.97 -0.570713 1.86357 0
M  V30 14442 H 1392.07 -2.00386 2.39274 0
M  V30 14443 N 1392.37 -1.38898 -0.744656 0
M  V30 14444 C 1393.3 -1.39571 -1.87195 0
M  V30 14445 C 1394.28 -0.260372 -1.68095 0
M  V30 14446 O 1395.47 -0.464776 -1.88556 0
M  V30 14447 C 1392.6 -1.22889 -3.24832 0
M  V30 14448 C 1391.55 -2.33721 -3.58551 0
M  V30 14449 C 1390.88 -2.02136 -4.9502 0
M  V30 14450 C 1392.18 -3.7601 -3.62511 0
M  V30 14451 H 1393.87 -2.33908 -1.86889 0
M  V30 14452 H 1391.42 -1.12591 -0.897739 0
M  V30 14453 H 1393.37 -1.21983 -4.03359 0
M  V30 14454 H 1392.09 -0.250172 -3.2564 0
M  V30 14455 H 1390.75 -2.33828 -2.82348 0
M  V30 14456 H 1390.4 -1.02726 -4.92399 0
M  V30 14457 H 1390.1 -2.76371 -5.18549 0
M  V30 14458 H 1391.62 -2.02864 -5.75915 0
M  V30 14459 H 1393.04 -3.77885 -4.31133 0
M  V30 14460 H 1391.44 -4.49524 -3.97553 0
M  V30 14461 H 1392.51 -4.07682 -2.62533 0
M  V30 14462 N 1393.85 0.973806 -1.23914 0
M  V30 14463 C 1394.76 2.10138 -1.04304 0
M  V30 14464 C 1395.77 1.73994 0.0143888 0
M  V30 14465 O 1396.95 2.00572 -0.182481 0
M  V30 14466 C 1394.02 3.40673 -0.643639 0
M  V30 14467 C 1393.08 3.90802 -1.77686 0
M  V30 14468 C 1392.31 5.15108 -1.39642 0
M  V30 14469 O 1392.53 5.69695 -0.283546 0
M  V30 14470 O 1391.47 5.59468 -2.21988 0
M  V30 14471 H 1395.29 2.29574 -1.9882 0
M  V30 14472 H 1392.88 1.08524 -1.02679 0
M  V30 14473 H 1394.76 4.19178 -0.432145 0
M  V30 14474 H 1393.43 3.22551 0.272458 0
M  V30 14475 H 1392.34 3.13385 -2.04305 0
M  V30 14476 H 1393.67 4.1339 -2.67151 0
M  V30 14477 N 1395.33 1.05191 1.17357 0
M  V30 14478 C 1396.57 0.760479 1.87246 0
M  V30 14479 C 1396.9 -0.714618 1.81434 0
M  V30 14480 O 1396.17 -1.51636 1.24029 0
M  V30 14481 H 1394.75 0.278317 0.693216 0
M  V30 14482 H 1397.41 1.33106 1.42369 0
M  V30 14483 H 1396.5 1.07542 2.92987 0
M  V30 14484 N 1396.8 -1.33791 0.83293 0
M  V30 14485 C 1398.03 -2.01894 0.43844 0
M  V30 14486 C 1398.44 -1.62844 -0.963247 0
M  V30 14487 O 1397.79 -0.834636 -1.63644 0
M  V30 14488 C 1397.85 -3.5638 0.472604 0
M  V30 14489 C 1397.51 -4.18788 1.82937 0
M  V30 14490 C 1398.51 -4.38588 2.79172 0
M  V30 14491 C 1396.19 -4.55342 2.12058 0
M  V30 14492 C 1398.19 -4.94081 4.02694 0
M  V30 14493 C 1395.87 -5.10544 3.35839 0
M  V30 14494 C 1396.87 -5.29859 4.30974 0
M  V30 14495 O 1396.56 -5.83889 5.52566 0
M  V30 14496 H 1396.29 -0.65348 0.173031 0
M  V30 14497 H 1398.85 -1.71827 1.12537 0
M  V30 14498 H 1397.08 -3.85749 -0.271074 0
M  V30 14499 H 1398.77 -4.05785 0.0967701 0
M  V30 14500 H 1399.53 -4.10701 2.57972 0
M  V30 14501 H 1395.41 -4.39607 1.38806 0
M  V30 14502 H 1398.95 -5.09072 4.7696 0
M  V30 14503 H 1394.85 -5.3786 3.56898 0
M  V30 14504 H 1395.62 -6.02311 5.54224 0
M  V30 14505 N 1398.28 -0.588812 -1.46187 0
M  V30 14506 C 1399.53 -0.0744093 -2.01563 0
M  V30 14507 C 1399.84 1.29578 -1.46523 0
M  V30 14508 O 1401.05 1.90186 -1.93756 0
M  V30 14509 C 1399.51 -0.082408 -3.59806 0
M  V30 14510 C 1399.11 -1.45129 -4.23842 0
M  V30 14511 C 1400.86 0.377732 -4.22816 0
M  V30 14512 C 1398.77 -1.41668 -5.74181 0
M  V30 14513 H 1397.7 -0.0240481 -0.753616 0
M  V30 14514 H 1400.35 -0.741364 -1.67857 0
M  V30 14515 H 1398.73 0.650832 -3.90615 0
M  V30 14516 H 1399.9 -2.20474 -4.04633 0
M  V30 14517 H 1398.22 -1.85196 -3.7295 0
M  V30 14518 H 1400.81 0.42251 -5.33028 0
M  V30 14519 H 1401.16 1.39655 -3.92176 0
M  V30 14520 H 1401.69 -0.301638 -3.96655 0
M  V30 14521 H 1398.43 -2.4125 -6.09491 0
M  V30 14522 H 1397.95 -0.705524 -5.95636 0
M  V30 14523 H 1399.63 -1.13221 -6.37016 0
M  V30 14524 N 1399.76 1.54172 -0.326923 0
M  V30 14525 C 1400.69 2.27402 0.530154 0
M  V30 14526 C 1401.67 1.28325 1.11655 0
M  V30 14527 O 1402.86 1.57142 1.14105 0
M  V30 14528 C 1399.99 3.03435 1.68951 0
M  V30 14529 C 1398.94 4.09877 1.23226 0
M  V30 14530 C 1398.27 4.7377 2.47882 0
M  V30 14531 C 1399.57 5.21161 0.344698 0
M  V30 14532 H 1401.26 2.99291 -0.0806959 0
M  V30 14533 H 1398.81 1.43944 -0.0402511 0
M  V30 14534 H 1400.76 3.53396 2.29541 0
M  V30 14535 H 1399.48 2.29169 2.327 0
M  V30 14536 H 1398.14 3.60805 0.649267 0
M  V30 14537 H 1397.79 3.96116 3.10002 0
M  V30 14538 H 1397.49 5.45674 2.17977 0
M  V30 14539 H 1399.01 5.26507 3.09229 0
M  V30 14540 H 1400.43 5.66859 0.856979 0
M  V30 14541 H 1398.83 5.99941 0.138276 0
M  V30 14542 H 1399.9 4.80874 -0.623575 0
M  V30 14543 N 1401.24 0.0551678 1.57503 0
M  V30 14544 C 1402.47 -0.626291 1.96879 0
M  V30 14545 C 1402.88 -1.64677 0.93156 0
M  V30 14546 O 1402.22 -1.83469 -0.0921632 0
M  V30 14547 C 1402.28 -1.36674 3.32506 0
M  V30 14548 C 1401.95 -0.501632 4.54239 0
M  V30 14549 C 1402.94 0.233939 5.19373 0
M  V30 14550 C 1400.63 -0.431385 5.00444 0
M  V30 14551 C 1402.62 1.02815 6.29053 0
M  V30 14552 C 1400.31 0.366514 6.1 0
M  V30 14553 C 1401.31 1.09497 6.74166 0
M  V30 14554 O 1400.99 1.87974 7.81614 0
M  V30 14555 H 1400.73 -0.175738 0.652757 0
M  V30 14556 H 1403.28 0.11909 2.05054 0
M  V30 14557 H 1401.51 -2.15783 3.20896 0
M  V30 14558 H 1403.2 -1.93882 3.56602 0
M  V30 14559 H 1403.97 0.189161 4.84631 0
M  V30 14560 H 1399.84 -0.98798 4.50289 0
M  V30 14561 H 1403.39 1.59724 6.79068 0
M  V30 14562 H 1399.29 0.412916 6.44178 0
M  V30 14563 H 1400.05 1.80228 7.98411 0
M  V30 14564 N 1402.72 -1.56081 -0.218252 0
M  V30 14565 C 1403.66 -1.92684 -1.27049 0
M  V30 14566 C 1404.63 -0.784441 -1.46409 0
M  V30 14567 O 1405.82 -1.04062 -1.59924 0
M  V30 14568 C 1402.96 -2.25174 -2.61516 0
M  V30 14569 C 1402.07 -3.52364 -2.49927 0
M  V30 14570 C 1401.21 -3.74286 -3.7694 0
M  V30 14571 C 1400.25 -4.94979 -3.60087 0
M  V30 14572 N 1399.38 -5.13273 -4.79057 0
M  V30 14573 H 1404.22 -2.82406 -0.951347 0
M  V30 14574 H 1401.76 -1.39774 -0.458441 0
M  V30 14575 H 1403.72 -2.42022 -3.39825 0
M  V30 14576 H 1402.35 -1.38621 -2.9152 0
M  V30 14577 H 1401.4 -3.43691 -1.63036 0
M  V30 14578 H 1402.71 -4.40826 -2.33397 0
M  V30 14579 H 1401.87 -3.91248 -4.63692 0
M  V30 14580 H 1400.6 -2.84111 -3.96399 0
M  V30 14581 H 1399.61 -4.77963 -2.71719 0
M  V30 14582 H 1400.83 -5.86641 -3.42095 0
M  V30 14583 H 1398.78 -4.26041 -4.98824 0
M  V30 14584 H 1398.7 -5.95873 -4.65265 0
M  V30 14585 H 1399.97 -5.34673 -5.67226 0
M  V30 14586 N 1404.2 0.485086 -1.49949 0
M  V30 14587 C 1405.47 1.24639 -1.50747 0
M  V30 14588 C 1405.85 2.09683 -0.244162 0
M  V30 14589 O 1405.2 2.1503 0.772949 0
M  V30 14590 C 1405.41 2.08946 -2.7954 0
M  V30 14591 C 1406.76 2.67604 -3.29656 0
M  V30 14592 O 1407.78 2.192 -2.80766 0
M  V30 14593 O 1406.64 3.55761 -4.14845 0
M  V30 14594 H 1403.74 0.564849 -0.604049 0
M  V30 14595 H 1406.28 0.498052 -1.62227 0
M  V30 14596 H 1405.05 1.46185 -3.62968 0
M  V30 14597 H 1404.68 2.90941 -2.70997 0
M  V30 14598 N 1405.67 1.39291 0.737279 0
M  V30 14599 C 1406.92 1.36121 1.49384 0
M  V30 14600 C 1407.24 -0.0429406 1.94953 0
M  V30 14601 O 1406.51 -0.993756 1.68823 0
M  V30 14602 H 1405.09 0.500916 0.554159 0
M  V30 14603 H 1407.75 1.74134 0.875402 0
M  V30 14604 H 1406.85 2.02246 2.37704 0
M  V30 14605 N 1407.15 -0.967221 1.24429 0
M  V30 14606 C 1408.1 -2.06187 1.03709 0
M  V30 14607 C 1409.07 -1.66025 -0.0497665 0
M  V30 14608 O 1410.25 -1.90511 0.104951 0
M  V30 14609 C 1407.39 -3.38952 0.648477 0
M  V30 14610 C 1406.51 -3.92306 1.80886 0
M  V30 14611 C 1405.64 -5.13342 1.36579 0
M  V30 14612 C 1404.68 -5.58893 2.49609 0
M  V30 14613 N 1403.82 -6.71148 2.06165 0
M  V30 14614 H 1408.66 -2.23244 1.97399 0
M  V30 14615 H 1406.19 -1.09415 0.983192 0
M  V30 14616 H 1408.15 -4.15237 0.40419 0
M  V30 14617 H 1406.78 -3.21819 -0.25142 0
M  V30 14618 H 1405.83 -3.12656 2.1668 0
M  V30 14619 H 1407.15 -4.22071 2.65815 0
M  V30 14620 H 1406.3 -5.97003 1.0804 0
M  V30 14621 H 1405.04 -4.85262 0.487051 0
M  V30 14622 H 1404.04 -4.73805 2.78906 0
M  V30 14623 H 1405.27 -5.88987 3.3804 0
M  V30 14624 H 1403.22 -6.44802 1.20691 0
M  V30 14625 H 1403.13 -7.00366 2.84647 0
M  V30 14626 H 1404.4 -7.5825 1.80769 0
M  V30 14627 N 1408.63 -1.05812 -1.16797 0
M  V30 14628 C 1409.58 -0.664599 -2.21024 0
M  V30 14629 C 1410.55 0.336352 -1.62659 0
M  V30 14630 O 1411.73 0.226346 -1.89453 0
M  V30 14631 C 1408.87 -0.0520739 -3.45061 0
M  V30 14632 C 1407.98 -1.10261 -4.17692 0
M  V30 14633 C 1407.12 -0.456746 -5.29233 0
M  V30 14634 C 1406.16 -1.49116 -5.93659 0
M  V30 14635 N 1405.3 -0.869002 -6.96701 0
M  V30 14636 H 1410.14 -1.55784 -2.54038 0
M  V30 14637 H 1407.67 -0.778993 -1.2478 0
M  V30 14638 H 1409.63 0.320552 -4.15967 0
M  V30 14639 H 1408.26 0.804592 -3.12612 0
M  V30 14640 H 1407.31 -1.593 -3.45438 0
M  V30 14641 H 1408.62 -1.88757 -4.61706 0
M  V30 14642 H 1407.78 -0.0308814 -6.06692 0
M  V30 14643 H 1406.52 0.360131 -4.86369 0
M  V30 14644 H 1405.52 -1.92697 -5.14925 0
M  V30 14645 H 1406.75 -2.31005 -6.38603 0
M  V30 14646 H 1404.69 -0.0727494 -6.5596 0
M  V30 14647 H 1404.61 -1.59141 -7.3906 0
M  V30 14648 H 1405.88 -0.46812 -7.78093 0
M  V30 14649 N 1410.11 1.33347 -0.840014 0
M  V30 14650 C 1411.35 1.98037 -0.43692 0
M  V30 14651 C 1411.69 1.66382 1.00154 0
M  V30 14652 O 1410.96 0.944311 1.70038 0
M  V30 14653 C 1411.24 3.54012 -0.65937 0
M  V30 14654 C 1411.1 3.9535 -2.14518 0
M  V30 14655 C 1412.42 4.39972 -0.106258 0
M  V30 14656 H 1409.54 0.719373 -0.160221 0
M  V30 14657 H 1412.18 1.57969 -1.05574 0
M  V30 14658 H 1410.33 3.88274 -0.132633 0
M  V30 14659 H 1412 3.7134 -2.73687 0
M  V30 14660 H 1410.24 3.4504 -2.62926 0
M  V30 14661 H 1410.91 5.03992 -2.25158 0
M  V30 14662 H 1413.39 4.12362 -0.556511 0
M  V30 14663 H 1412.27 5.48125 -0.291583 0
M  V30 14664 H 1412.53 4.30872 0.990032 0
M  V30 14665 N 1411.59 0.596556 1.45873 0
M  V30 14666 C 1412.55 -0.118666 2.28893 0
M  V30 14667 C 1413.55 -0.805668 1.3916 0
M  V30 14668 O 1414.74 -0.655511 1.61396 0
M  V30 14669 C 1411.87 -1.17789 3.19904 0
M  V30 14670 H 1413.06 0.611093 2.93608 0
M  V30 14671 H 1410.62 0.355115 1.52212 0
M  V30 14672 H 1411.35 -1.93878 2.59965 0
M  V30 14673 H 1411.14 -0.689616 3.85988 0
M  V30 14674 H 1412.63 -1.67912 3.82355 0
M  V30 14675 N 1413.06 -1.53996 0.335095 0
M  V30 14676 C 1413.97 -2.28436 -0.534244 0
M  V30 14677 C 1414.99 -1.33224 -1.11926 0
M  V30 14678 O 1416.17 -1.66252 -1.13676 0
M  V30 14679 C 1413.23 -3.03634 -1.67354 0
M  V30 14680 C 1412.29 -4.14455 -1.11916 0
M  V30 14681 C 1411.52 -4.86058 -2.20416 0
M  V30 14682 O 1411.75 -4.57263 -3.40979 0
M  V30 14683 O 1410.68 -5.72704 -1.85185 0
M  V30 14684 H 1414.51 -3.03618 0.0706314 0
M  V30 14685 H 1412.09 -1.49062 0.100409 0
M  V30 14686 H 1413.97 -3.50687 -2.33659 0
M  V30 14687 H 1412.65 -2.31317 -2.26438 0
M  V30 14688 H 1411.56 -3.71725 -0.420871 0
M  V30 14689 H 1412.89 -4.8885 -0.573295 0
M  V30 14690 N 1414.54 -0.0635198 -1.57472 0
M  V30 14691 C 1415.79 0.607008 -1.92349 0
M  V30 14692 C 1416.1 1.71268 -0.944806 0
M  V30 14693 O 1417.31 2.44221 -1.18609 0
M  V30 14694 C 1415.77 1.13105 -3.41666 0
M  V30 14695 C 1415.37 0.0568256 -4.47964 0
M  V30 14696 C 1417.12 1.77611 -3.85557 0
M  V30 14697 C 1415.02 0.594443 -5.88405 0
M  V30 14698 H 1413.95 0.230506 -0.717902 0
M  V30 14699 H 1416.61 -0.134413 -1.83007 0
M  V30 14700 H 1414.99 1.92517 -3.46054 0
M  V30 14701 H 1416.16 -0.717371 -4.55182 0
M  V30 14702 H 1414.48 -0.491517 -4.13489 0
M  V30 14703 H 1417.07 2.18852 -4.87861 0
M  V30 14704 H 1417.42 2.6328 -3.22474 0
M  V30 14705 H 1417.95 1.04834 -3.83738 0
M  V30 14706 H 1414.69 -0.224893 -6.55114 0
M  V30 14707 H 1414.21 1.33635 -5.84724 0
M  V30 14708 H 1415.89 1.07346 -6.38033 0
M  V30 14709 N 1416.02 1.56195 0.209972 0
M  V30 14710 C 1417.27 1.7939 0.930796 0
M  V30 14711 C 1417.59 0.634038 1.84404 0
M  V30 14712 O 1416.86 -0.348467 1.92776 0
M  V30 14713 H 1415.44 0.661676 0.346689 0
M  V30 14714 H 1418.1 1.93665 0.219049 0
M  V30 14715 H 1417.2 2.71982 1.53075 0
M  V30 14716 N 1417.5 -0.477127 1.50204 0
M  V30 14717 C 1418.44 -1.57587 1.68626 0
M  V30 14718 C 1419.41 -1.57499 0.527576 0
M  V30 14719 O 1420.6 -1.75121 0.757438 0
M  V30 14720 C 1417.74 -2.956 1.78086 0
M  V30 14721 C 1416.85 -3.05523 3.05417 0
M  V30 14722 C 1415.99 -4.34414 3.05709 0
M  V30 14723 C 1415.03 -4.38057 4.27519 0
M  V30 14724 N 1414.16 -5.5841 4.25585 0
M  V30 14725 H 1419 -1.41185 2.62433 0
M  V30 14726 H 1416.54 -0.686537 1.30096 0
M  V30 14727 H 1418.5 -3.75626 1.81552 0
M  V30 14728 H 1417.13 -3.10651 0.877251 0
M  V30 14729 H 1416.18 -2.18409 3.11451 0
M  V30 14730 H 1417.49 -3.04075 3.95398 0
M  V30 14731 H 1416.65 -5.22782 3.07871 0
M  V30 14732 H 1415.39 -4.38462 2.13548 0
M  V30 14733 H 1414.39 -3.48087 4.25577 0
M  V30 14734 H 1415.62 -4.35705 5.20901 0
M  V30 14735 H 1413.56 -5.63255 3.36274 0
M  V30 14736 H 1413.48 -5.58677 5.09328 0
M  V30 14737 H 1414.75 -6.4892 4.31884 0
M  V30 14738 N 1418.98 -1.3968 -0.729882 0
M  V30 14739 C 1420.25 -1.27689 -1.48172 0
M  V30 14740 C 1420.63 0.111239 -2.10807 0
M  V30 14741 O 1419.98 1.12289 -1.99006 0
M  V30 14742 C 1420.19 -2.40505 -2.529 0
M  V30 14743 C 1421.54 -2.80064 -3.19138 0
M  V30 14744 O 1422.56 -2.39992 -2.63215 0
M  V30 14745 O 1421.42 -3.49248 -4.20342 0
M  V30 14746 H 1418.52 -0.500674 -0.658221 0
M  V30 14747 H 1421.06 -1.51566 -0.763272 0
M  V30 14748 H 1419.83 -3.33282 -2.05033 0
M  V30 14749 H 1419.46 -2.1832 -3.32298 0
M  V30 14750 N 1420.45 0.960609 -1.2494 0
M  V30 14751 C 1421.36 2.0902 -1.06527 0
M  V30 14752 C 1422.38 1.74 -0.00406641 0
M  V30 14753 O 1423.56 2.00367 -0.203744 0
M  V30 14754 C 1420.62 3.39971 -0.679736 0
M  V30 14755 C 1419.68 3.88895 -1.81821 0
M  V30 14756 C 1418.92 5.13597 -1.45098 0
M  V30 14757 O 1419.14 5.69362 -0.343954 0
M  V30 14758 O 1418.07 5.57083 -2.27909 0
M  V30 14759 H 1421.9 2.27453 -2.01243 0
M  V30 14760 H 1419.48 1.07429 -1.03824 0
M  V30 14761 H 1421.37 4.18696 -0.47658 0
M  V30 14762 H 1420.04 3.22822 0.238231 0
M  V30 14763 H 1418.95 3.11201 -2.07617 0
M  V30 14764 H 1420.28 4.10533 -2.7152 0
M  V30 14765 N 1421.93 1.0643 1.16234 0
M  V30 14766 C 1423.16 0.802644 1.90697 0
M  V30 14767 C 1423.58 -0.643145 1.77508 0
M  V30 14768 O 1422.93 -1.4404 1.12065 0
M  V30 14769 C 1422.98 1.18984 3.41358 0
M  V30 14770 O 1422.7 2.5789 3.54153 0
M  V30 14771 C 1424.21 0.956132 4.32866 0
M  V30 14772 H 1421.43 0.290891 0.604668 0
M  V30 14773 H 1423.97 1.41829 1.47325 0
M  V30 14774 H 1422.12 0.618703 3.82428 0
M  V30 14775 H 1422.54 2.73431 4.47589 0
M  V30 14776 H 1424.01 1.27667 5.37034 0
M  V30 14777 H 1424.49 -0.108062 4.39067 0
M  V30 14778 H 1425.1 1.51172 3.97526 0
M  V30 14779 N 1423.41 -1.329 0.847073 0
M  V30 14780 C 1424.64 -2.02244 0.459588 0
M  V30 14781 C 1425.06 -1.63279 -0.933897 0
M  V30 14782 O 1424.42 -0.829551 -1.61208 0
M  V30 14783 C 1424.47 -3.55616 0.59745 0
M  V30 14784 O 1423.57 -4.1071 -0.372919 0
M  V30 14785 H 1422.91 -0.637504 0.1857 0
M  V30 14786 H 1425.44 -1.69617 1.14417 0
M  V30 14787 H 1425.45 -4.05141 0.482145 0
M  V30 14788 H 1424.13 -3.8332 1.61365 0
M  V30 14789 H 1422.7 -3.72283 -0.214487 0
M  V30 14790 N 1424.89 -0.604284 -1.45555 0
M  V30 14791 C 1426.12 -0.104301 -2.06337 0
M  V30 14792 C 1426.53 1.21523 -1.45013 0
M  V30 14793 O 1425.87 1.75039 -0.557422 0
M  V30 14794 C 1425.93 0.113202 -3.59322 0
M  V30 14795 C 1425.6 -1.12402 -4.42961 0
M  V30 14796 C 1426.59 -2.04136 -4.78147 0
M  V30 14797 C 1424.28 -1.35192 -4.83765 0
M  V30 14798 C 1426.27 -3.16991 -5.52988 0
M  V30 14799 C 1423.96 -2.48348 -5.5836 0
M  V30 14800 C 1424.96 -3.39076 -5.92888 0
M  V30 14801 O 1424.64 -4.50264 -6.65971 0
M  V30 14802 H 1424.38 -0.0644639 -0.672919 0
M  V30 14803 H 1426.93 -0.830982 -1.8784 0
M  V30 14804 H 1425.16 0.894739 -3.76206 0
M  V30 14805 H 1426.85 0.564372 -4.01957 0
M  V30 14806 H 1427.62 -1.87753 -4.47184 0
M  V30 14807 H 1423.49 -0.654731 -4.56327 0
M  V30 14808 H 1427.04 -3.87831 -5.79856 0
M  V30 14809 H 1422.94 -2.64686 -5.88737 0
M  V30 14810 H 1423.7 -4.48904 -6.84418 0
M  V30 14811 N 1426.37 1.53816 -0.343257 0
M  V30 14812 C 1427.59 2.05326 0.254744 0
M  V30 14813 C 1428.01 1.21824 1.44237 0
M  V30 14814 O 1427.37 0.253507 1.80731 0
M  V30 14815 C 1427.42 3.55235 0.670075 0
M  V30 14816 O 1427.14 4.35568 -0.470322 0
M  V30 14817 C 1428.64 4.22915 1.32882 0
M  V30 14818 H 1425.86 0.669191 0.0492324 0
M  V30 14819 H 1428.4 1.98415 -0.495159 0
M  V30 14820 H 1426.56 3.6237 1.36992 0
M  V30 14821 H 1426.97 5.24315 -0.139303 0
M  V30 14822 H 1428.45 5.29197 1.57019 0
M  V30 14823 H 1428.92 3.75244 2.28229 0
M  V30 14824 H 1429.53 4.19973 0.67102 0
M  V30 14825 N 1427.84 0.0718701 1.57436 0
M  V30 14826 C 1429.09 -0.597231 1.93493 0
M  V30 14827 C 1429.42 -1.69614 0.951906 0
M  V30 14828 O 1428.67 -1.95673 -0.0324554 0
M  V30 14829 C 1428.97 -1.21336 3.36173 0
M  V30 14830 C 1428.64 -0.240582 4.50258 0
M  V30 14831 C 1427.3 0.0270368 4.81192 0
M  V30 14832 C 1429.65 0.424924 5.19465 0
M  V30 14833 C 1426.98 0.967249 5.78672 0
M  V30 14834 C 1429.33 1.35346 6.17952 0
M  V30 14835 C 1428 1.62954 6.47304 0
M  V30 14836 H 1427.27 -0.218542 0.70804 0
M  V30 14837 H 1429.91 0.142762 1.90967 0
M  V30 14838 H 1428.22 -2.02909 3.35164 0
M  V30 14839 H 1429.92 -1.73836 3.61361 0
M  V30 14840 H 1426.51 -0.459352 4.26131 0
M  V30 14841 H 1430.69 0.231285 4.95761 0
M  V30 14842 H 1425.95 1.1884 5.99739 0
M  V30 14843 H 1430.12 1.87509 6.70681 0
M  V30 14844 H 1427.75 2.3597 7.2265 0
M  V30 14845 N 1429.32 -1.56304 -0.201686 0
M  V30 14846 C 1430.27 -1.94021 -1.24999 0
M  V30 14847 C 1431.24 -0.799926 -1.45569 0
M  V30 14848 O 1432.42 -1.05752 -1.58811 0
M  V30 14849 C 1429.56 -2.27935 -2.59113 0
M  V30 14850 C 1428.68 -3.54995 -2.46176 0
M  V30 14851 C 1427.81 -3.78262 -3.72949 0
M  V30 14852 C 1426.85 -4.9877 -3.54817 0
M  V30 14853 N 1425.99 -5.18325 -4.73586 0
M  V30 14854 H 1430.83 -2.834 -0.92134 0
M  V30 14855 H 1428.37 -1.40252 -0.44359 0
M  V30 14856 H 1430.32 -2.45613 -3.37239 0
M  V30 14857 H 1428.95 -1.41705 -2.90034 0
M  V30 14858 H 1428.01 -3.45401 -1.59381 0
M  V30 14859 H 1429.32 -4.43277 -2.28708 0
M  V30 14860 H 1428.47 -3.96144 -4.59516 0
M  V30 14861 H 1427.21 -2.88299 -3.93364 0
M  V30 14862 H 1426.22 -4.80818 -2.66635 0
M  V30 14863 H 1427.44 -5.90237 -3.35854 0
M  V30 14864 H 1425.39 -4.31308 -4.94277 0
M  V30 14865 H 1425.3 -6.00774 -4.58919 0
M  V30 14866 H 1426.57 -5.40659 -5.61523 0
M  V30 14867 N 1430.8 0.469154 -1.50455 0
M  V30 14868 C 1431.75 1.56691 -1.6946 0
M  V30 14869 C 1432.72 1.57217 -0.535921 0
M  V30 14870 O 1433.9 1.74717 -0.766715 0
M  V30 14871 C 1431.04 2.94651 -1.79651 0
M  V30 14872 C 1430.16 3.03899 -3.07033 0
M  V30 14873 C 1429.29 4.32786 -3.08009 0
M  V30 14874 C 1428.33 4.35784 -4.29836 0
M  V30 14875 N 1427.47 5.56145 -4.28541 0
M  V30 14876 H 1432.31 1.39791 -2.63178 0
M  V30 14877 H 1429.84 0.679628 -1.30459 0
M  V30 14878 H 1431.8 3.74658 -1.83541 0
M  V30 14879 H 1430.43 3.10182 -0.893713 0
M  V30 14880 H 1429.48 2.16754 -3.12605 0
M  V30 14881 H 1430.8 3.01974 -3.97005 0
M  V30 14882 H 1429.95 5.21141 -3.10639 0
M  V30 14883 H 1428.69 4.37323 -2.1587 0
M  V30 14884 H 1427.69 3.45825 -4.27417 0
M  V30 14885 H 1428.92 4.32937 -5.23204 0
M  V30 14886 H 1426.86 5.61464 -3.39256 0
M  V30 14887 H 1426.78 5.55969 -5.12284 0
M  V30 14888 H 1428.05 6.4662 -4.35319 0
M  V30 14889 N 1432.28 1.40065 0.722464 0
M  V30 14890 C 1433.21 1.42532 1.84951 0
M  V30 14891 C 1434.19 0.287082 1.6766 0
M  V30 14892 O 1435.37 0.494715 1.87793 0
M  V30 14893 C 1432.5 1.28041 3.22836 0
M  V30 14894 C 1431.46 2.39396 3.54787 0
M  V30 14895 C 1430.78 2.09986 4.91742 0
M  V30 14896 C 1432.08 3.81729 3.56483 0
M  V30 14897 H 1433.78 2.36851 1.83144 0
M  V30 14898 H 1431.32 1.14005 0.879714 0
M  V30 14899 H 1433.28 1.28385 4.01367 0
M  V30 14900 H 1432 0.301947 3.25201 0
M  V30 14901 H 1430.66 2.3829 2.78592 0
M  V30 14902 H 1430.31 1.10547 4.90702 0
M  V30 14903 H 1430.01 2.84586 5.14086 0
M  V30 14904 H 1431.53 2.12 5.72615 0
M  V30 14905 H 1432.95 3.84696 4.25067 0
M  V30 14906 H 1431.34 4.55791 3.90351 0
M  V30 14907 H 1432.41 4.11807 2.56014 0
M  V30 14908 N 1433.76 -0.95397 1.25448 0
M  V30 14909 C 1434.71 -2.07206 1.05681 0
M  V30 14910 C 1435.7 -1.69395 -0.0124672 0
M  V30 14911 O 1436.91 -1.79429 0.143201 0
M  V30 14912 H 1433.28 -0.678231 0.324817 0
M  V30 14913 H 1435.25 -2.21034 2.00466 0
M  V30 14914 C 1434 -3.40725 0.692955 0
M  V30 14915 H 1433.32 -3.70287 1.50756 0
M  V30 14916 H 1434.76 -4.19814 0.594351 0
M  V30 14917 C 1433.22 -3.31495 -0.601028 0
M  V30 14918 O 1433.75 -3.66565 -1.64296 0
M  V30 14919 N 1431.96 -2.84612 -0.586899 0
M  V30 14920 H 1431.51 -2.56271 0.261375 0
M  V30 14921 H 1431.46 -2.78819 -1.45284 0
M  V30 14922 N 1435.24 -1.07045 -1.15668 0
M  V30 14923 C 1436.65 -0.795369 -1.38369 0
M  V30 14924 C 1436.85 0.601829 -1.92303 0
M  V30 14925 O 1435.91 1.36109 -2.12675 0
M  V30 14926 C 1437.22 -1.86659 -2.35752 0
M  V30 14927 C 1438.77 -1.89098 -2.49421 0
M  V30 14928 C 1439.24 -2.95296 -3.50092 0
M  V30 14929 N 1440.73 -2.94378 -3.57625 0
M  V30 14930 C 1441.47 -3.73194 -4.35331 0
M  V30 14931 N 1440.97 -4.61851 -5.16397 0
M  V30 14932 N 1442.76 -3.61554 -4.30389 0
M  V30 14933 H 1434.91 -1.97162 -0.790004 0
M  V30 14934 H 1437.17 -0.854816 -0.40987 0
M  V30 14935 H 1436.88 -2.87036 -2.03232 0
M  V30 14936 H 1436.75 -1.72406 -3.35494 0
M  V30 14937 H 1439.14 -0.893752 -2.8124 0
M  V30 14938 H 1439.22 -2.07429 -1.49689 0
M  V30 14939 H 1438.86 -3.95217 -3.19008 0
M  V30 14940 H 1438.79 -2.74212 -4.49572 0
M  V30 14941 H 1441.29 -2.3011 -2.99763 0
M  V30 14942 H 1441.6 -5.18629 -5.72926 0
M  V30 14943 H 1439.94 -4.65902 -5.15714 0
M  V30 14944 H 1443.13 -2.91672 -3.66122 0
M  V30 14945 H 1443.31 -4.23221 -4.90701 0
M  V30 14946 N 1436.71 1.32449 -0.85411 0
M  V30 14947 C 1437.66 2.26394 -0.270121 0
M  V30 14948 C 1438.65 1.49939 0.58371 0
M  V30 14949 O 1439.84 1.71617 0.433182 0
M  V30 14950 C 1436.97 3.3901 0.540998 0
M  V30 14951 C 1436.05 4.22851 -0.32519 0
M  V30 14952 N 1436.45 4.85715 -1.41118 0
M  V30 14953 C 1434.74 4.45852 -0.114845 0
M  V30 14954 C 1435.44 5.48254 -1.94402 0
M  V30 14955 N 1434.42 5.29192 -1.24327 0
M  V30 14956 H 1438.22 2.72523 -1.10037 0
M  V30 14957 H 1435.74 1.46531 -0.700167 0
M  V30 14958 H 1437.73 4.0532 0.975778 0
M  V30 14959 H 1436.39 2.94427 1.36905 0
M  V30 14960 H 1437.4 4.85831 -1.79411 0
M  V30 14961 H 1434.08 4.11949 0.678533 0
M  V30 14962 H 1435.47 6.08259 -2.8543 0
M  V30 14963 N 1438.19 0.611994 1.45232 0
M  V30 14964 C 1439.42 0.115409 2.06578 0
M  V30 14965 C 1439.83 -1.20206 1.45588 0
M  V30 14966 O 1439.19 -1.73315 0.571668 0
M  V30 14967 C 1439.24 -0.0259943 3.61491 0
M  V30 14968 O 1438.96 1.23936 4.20204 0
M  V30 14969 C 1440.46 -0.553522 4.39831 0
M  V30 14970 H 1437.68 0.0708656 0.667247 0
M  V30 14971 H 1440.23 0.840977 1.86408 0
M  V30 14972 H 1438.38 -0.701909 3.80988 0
M  V30 14973 H 1438.8 1.07187 5.13431 0
M  V30 14974 H 1440.27 -0.601536 5.48713 0
M  V30 14975 H 1440.75 -1.57671 4.09923 0
M  V30 14976 H 1441.35 0.0884954 4.25208 0
M  V30 14977 N 1439.67 -1.53632 0.351409 0
M  V30 14978 C 1440.92 -2.00222 -0.243731 0
M  V30 14979 C 1441.23 -1.24305 -1.51022 0
M  V30 14980 O 1442.44 -1.61411 -2.18309 0
M  V30 14981 C 1440.89 -3.56619 -0.48487 0
M  V30 14982 C 1440.5 -4.414 0.766173 0
M  V30 14983 C 1442.25 -4.11603 -1.03844 0
M  V30 14984 C 1440.15 -5.89321 0.4954 0
M  V30 14985 H 1439.08 -0.74801 -0.0948534 0
M  V30 14986 H 1441.73 -1.77433 0.467957 0
M  V30 14987 H 1440.12 -3.75505 -1.25746 0
M  V30 14988 H 1441.29 -4.34288 1.54047 0
M  V30 14989 H 1439.6 -3.97448 1.24194 0
M  V30 14990 H 1442.2 -5.19736 -1.25611 0
M  V30 14991 H 1442.54 -3.65311 -1.99634 0
M  V30 14992 H 1443.08 -3.96459 -0.326363 0
M  V30 14993 H 1439.82 -6.39863 1.42324 0
M  V30 14994 H 1439.34 -5.99317 -0.240662 0
M  V30 14995 H 1441.02 -6.46897 0.115584 0
M  V30 14996 N 1441.15 -0.0802183 -1.57396 0
M  V30 14997 C 1442.38 0.59489 -1.9785 0
M  V30 14998 C 1442.79 1.63174 -0.957641 0
M  V30 14999 O 1442.13 1.83592 0.0629632 0
M  V30 15000 C 1442.19 1.31367 -3.34639 0
M  V30 15001 C 1441.85 0.429303 -4.54979 0
M  V30 15002 C 1442.85 -0.316537 -5.18935 0
M  V30 15003 C 1440.54 0.351714 -5.01067 0
M  V30 15004 C 1442.53 -1.1281 -6.27338 0
M  V30 15005 C 1440.22 -0.463513 -6.0934 0
M  V30 15006 C 1441.22 -1.20208 -6.72338 0
M  V30 15007 O 1440.9 -2.00385 -7.78525 0
M  V30 15008 H 1440.64 0.165331 -0.655471 0
M  V30 15009 H 1443.19 -0.151697 -2.04839 0
M  V30 15010 H 1441.42 2.10651 -3.24289 0
M  V30 15011 H 1443.11 1.88184 -3.59641 0
M  V30 15012 H 1443.87 -0.266237 -4.84269 0
M  V30 15013 H 1439.75 0.916218 -4.51804 0
M  V30 15014 H 1443.3 -1.70508 -6.76441 0
M  V30 15015 H 1439.19 -0.515347 -6.4344 0
M  V30 15016 H 1439.96 -1.92907 -7.95443 0
M  V30 15017 N 1442.63 1.56409 0.193394 0
M  V30 15018 C 1443.57 1.95572 1.25914 0
M  V30 15019 C 1444.57 0.841384 1.47028 0
M  V30 15020 O 1445.77 1.0264 1.47868 0
M  V30 15021 H 1442.15 0.621914 0.422761 0
M  V30 15022 H 1444.12 2.84446 0.901827 0
M  V30 15023 C 1442.87 2.31293 2.59613 0
M  V30 15024 H 1442.19 3.16568 2.44182 0
M  V30 15025 H 1443.63 2.62558 3.32926 0
M  V30 15026 C 1442.09 1.14818 3.16731 0
M  V30 15027 O 1442.62 0.424105 3.99455 0
M  V30 15028 N 1440.83 0.924536 2.75501 0
M  V30 15029 H 1440.37 1.51509 2.08334 0
M  V30 15030 H 1440.33 0.147006 3.14056 0
M  V30 15031 N 1444.1 -0.461169 1.50702 0
M  V30 15032 C 1445.35 -1.21251 1.62186 0
M  V30 15033 C 1445.68 -1.91735 0.326818 0
M  V30 15034 O 1444.93 -1.83212 -0.687879 0
M  V30 15035 C 1445.23 -2.27213 2.75879 0
M  V30 15036 C 1444.9 -1.73912 4.16011 0
M  V30 15037 C 1443.56 -1.59097 4.54138 0
M  V30 15038 C 1445.91 -1.34477 5.03553 0
M  V30 15039 C 1443.24 -1.03285 5.77537 0
M  V30 15040 C 1445.59 -0.801027 6.27508 0
M  V30 15041 C 1444.26 -0.639586 6.64429 0
M  V30 15042 H 1443.53 -0.443689 0.593482 0
M  V30 15043 H 1446.17 -0.507035 1.84666 0
M  V30 15044 H 1444.48 -3.03707 2.47526 0
M  V30 15045 H 1446.18 -2.85124 2.81967 0
M  V30 15046 H 1442.77 -1.86413 3.85938 0
M  V30 15047 H 1446.95 -1.44753 4.74721 0
M  V30 15048 H 1442.21 -0.895316 6.04809 0
M  V30 15049 H 1446.38 -0.486842 6.94696 0
M  V30 15050 H 1444.01 -0.204966 7.59924 0
M  V30 15051 N 1445.58 -1.40446 -0.715026 0
M  V30 15052 C 1446.53 -1.40756 -1.82911 0
M  V30 15053 C 1447.5 -0.264443 -1.63981 0
M  V30 15054 O 1448.68 -0.462589 -1.85107 0
M  V30 15055 C 1445.82 -1.27648 -3.20624 0
M  V30 15056 C 1444.94 -2.5167 -3.51121 0
M  V30 15057 C 1444.07 -2.31 -4.78344 0
M  V30 15058 C 1443.11 -3.50596 -5.01746 0
M  V30 15059 N 1442.25 -3.29117 -6.20183 0
M  V30 15060 H 1447.09 -2.35981 -1.8198 0
M  V30 15061 H 1444.62 -1.17201 -0.888951 0
M  V30 15062 H 1446.58 -1.18054 -4.00149 0
M  V30 15063 H 1445.21 -0.360419 -3.20782 0
M  V30 15064 H 1444.26 -2.7179 -2.66147 0
M  V30 15065 H 1445.58 -3.4069 -3.64324 0
M  V30 15066 H 1444.73 -2.18763 -5.65887 0
M  V30 15067 H 1443.47 -1.39406 -4.67351 0
M  V30 15068 H 1442.47 -3.63309 -4.12658 0
M  V30 15069 H 1443.7 -4.43117 -5.14611 0
M  V30 15070 H 1441.65 -2.40206 -6.1044 0
M  V30 15071 H 1441.56 -4.11702 -6.34064 0
M  V30 15072 H 1442.83 -3.20614 -7.10512 0
M  V30 15073 N 1447.06 0.947303 -1.25952 0
M  V30 15074 C 1448.31 1.68721 -1.10527 0
M  V30 15075 C 1448.62 1.92403 0.352215 0
M  V30 15076 O 1449.83 2.6416 0.627036 0
M  V30 15077 C 1448.28 3.03785 -1.92983 0
M  V30 15078 C 1447.89 2.87873 -3.43268 0
M  V30 15079 C 1449.64 3.81509 -1.86149 0
M  V30 15080 C 1447.54 4.18373 -4.17993 0
M  V30 15081 H 1446.47 0.632774 -0.410016 0
M  V30 15082 H 1449.12 1.054 -1.5021 0
M  V30 15083 H 1447.51 3.68052 -1.46128 0
M  V30 15084 H 1448.68 2.32493 -3.97848 0
M  V30 15085 H 1446.99 2.23598 -3.51273 0
M  V30 15086 H 1449.59 4.78179 -2.39267 0
M  V30 15087 H 1449.93 4.07923 -0.83091 0
M  V30 15088 H 1450.47 3.24005 -2.30794 0
M  V30 15089 H 1447.21 3.97145 -5.21494 0
M  V30 15090 H 1446.73 4.7349 -3.68194 0
M  V30 15091 H 1448.41 4.86869 -4.26108 0
M  V30 15092 N 1448.54 1.07657 1.15099 0
M  V30 15093 C 1449.5 0.703558 2.18135 0
M  V30 15094 C 1450.5 -0.257771 1.5872 0
M  V30 15095 O 1451.69 -0.0383211 1.74158 0
M  V30 15096 C 1448.82 0.0374978 3.40879 0
M  V30 15097 H 1450.02 1.61583 2.52648 0
M  V30 15098 H 1447.57 0.873484 1.29615 0
M  V30 15099 H 1448.3 -0.886868 3.11938 0
M  V30 15100 H 1448.09 0.728961 3.85264 0
M  V30 15101 H 1449.58 -0.208714 4.17078 0
M  V30 15102 N 1450.02 -1.31994 0.861122 0
M  V30 15103 C 1450.98 -2.27019 0.315421 0
M  V30 15104 C 1451.98 -1.51864 -0.528575 0
M  V30 15105 O 1453.17 -1.70867 -0.339154 0
M  V30 15106 C 1450.3 -3.36384 -0.553021 0
M  V30 15107 H 1451.49 -2.768 1.1542 0
M  V30 15108 H 1449.05 -1.42776 0.635982 0
M  V30 15109 H 1449.78 -2.91882 -1.41335 0
M  V30 15110 H 1449.57 -3.92067 0.0511919 0
M  V30 15111 H 1451.06 -4.07172 -0.927392 0
M  V30 15112 N 1451.49 -0.619688 -1.44906 0
M  V30 15113 C 1452.44 0.0920359 -2.30616 0
M  V30 15114 C 1453.41 0.848114 -1.42815 0
M  V30 15115 O 1454.6 0.831439 -1.71732 0
M  V30 15116 C 1451.74 1.07537 -3.27917 0
M  V30 15117 C 1450.85 0.318904 -4.30821 0
M  V30 15118 C 1449.98 1.29303 -5.15222 0
M  V30 15119 C 1449.02 0.525071 -6.09844 0
M  V30 15120 N 1448.16 1.44909 -6.86983 0
M  V30 15121 H 1453 -0.644834 -2.9094 0
M  V30 15122 H 1450.54 -0.329785 -1.43356 0
M  V30 15123 H 1452.5 1.65874 -3.82808 0
M  V30 15124 H 1451.13 1.7795 -2.6932 0
M  V30 15125 H 1450.18 -0.380192 -3.78495 0
M  V30 15126 H 1451.49 -0.279742 -4.98015 0
M  V30 15127 H 1450.64 1.94809 -5.74573 0
M  V30 15128 H 1449.38 1.92561 -4.48076 0
M  V30 15129 H 1448.39 -0.14355 -5.49613 0
M  V30 15130 H 1449.61 -0.102625 -6.79022 0
M  V30 15131 H 1447.56 2.06908 -6.22515 0
M  V30 15132 H 1447.48 0.90418 -7.50574 0
M  V30 15133 H 1448.74 2.09335 -7.50866 0
M  V30 15134 N 1452.97 1.53444 -0.359552 0
M  V30 15135 C 1454.2 2.05286 0.232615 0
M  V30 15136 C 1454.61 1.23322 1.43486 0
M  V30 15137 O 1453.95 0.265369 1.81773 0
M  V30 15138 C 1454.02 3.52698 0.695995 0
M  V30 15139 C 1453.68 4.55344 -0.388751 0
M  V30 15140 C 1454.68 5.04978 -1.23667 0
M  V30 15141 C 1452.36 4.9931 -0.547267 0
M  V30 15142 C 1454.36 5.97174 -2.2285 0
M  V30 15143 C 1452.04 5.91313 -1.54247 0
M  V30 15144 C 1453.04 6.40135 -2.38153 0
M  V30 15145 O 1452.73 7.30325 -3.35976 0
M  V30 15146 H 1452.46 0.674445 0.0458187 0
M  V30 15147 H 1455.01 1.98853 -0.514472 0
M  V30 15148 H 1453.24 3.5665 1.49459 0
M  V30 15149 H 1454.93 3.8743 1.21049 0
M  V30 15150 H 1455.7 4.71763 -1.12537 0
M  V30 15151 H 1451.58 4.609 0.0960246 0
M  V30 15152 H 1455.12 6.35204 -2.88378 0
M  V30 15153 H 1451.02 6.23942 -1.65427 0
M  V30 15154 H 1451.79 7.48305 -3.31635 0
M  V30 15155 N 1454.45 0.0885642 1.57351 0
M  V30 15156 C 1455.68 -0.588641 1.98871 0
M  V30 15157 C 1456.1 -1.61333 0.967125 0
M  V30 15158 O 1455.46 -1.81183 -0.0652149 0
M  V30 15159 C 1455.51 -1.21877 3.39379 0
M  V30 15160 O 1454.61 -2.33462 3.39955 0
M  V30 15161 H 1453.95 -0.149938 0.64685 0
M  V30 15162 H 1456.48 0.168043 2.03909 0
M  V30 15163 H 1456.49 -1.56163 3.76931 0
M  V30 15164 H 1455.17 -0.468037 4.13258 0
M  V30 15165 H 1453.74 -2.00844 3.14191 0
M  V30 15166 N 1455.93 -1.56509 -0.185096 0
M  V30 15167 C 1456.88 -1.96237 -1.24875 0
M  V30 15168 C 1457.87 -0.849169 -1.46579 0
M  V30 15169 O 1459.08 -1.03422 -1.47322 0
M  V30 15170 H 1455.45 -0.624147 -0.419457 0
M  V30 15171 H 1457.42 -2.8492 -0.88673 0
M  V30 15172 C 1456.17 -2.32667 -2.58382 0
M  V30 15173 H 1455.49 -3.17858 -2.425 0
M  V30 15174 H 1456.93 -2.6432 -3.31528 0
M  V30 15175 C 1455.39 -1.16496 -3.16118 0
M  V30 15176 O 1455.92 -0.445283 -3.99224 0
M  V30 15177 N 1454.13 -0.939133 -2.75007 0
M  V30 15178 H 1453.68 -1.52611 -2.07527 0
M  V30 15179 H 1453.63 -0.163659 -3.13974 0
M  V30 15180 N 1457.41 0.45317 -1.50944 0
M  V30 15181 C 1458.65 1.20151 -1.62506 0
M  V30 15182 C 1458.98 1.92085 -0.335927 0
M  V30 15183 O 1458.25 1.84889 0.64751 0
M  V30 15184 H 1456.83 0.446502 -0.59887 0
M  V30 15185 H 1459.49 0.521103 -1.87804 0
M  V30 15186 H 1458.58 1.93972 -2.44502 0
M  V30 15187 N 1458.88 1.40823 0.707568 0
M  V30 15188 C 1459.79 1.44058 1.85161 0
M  V30 15189 C 1460.81 0.332357 1.70796 0
M  V30 15190 O 1461.99 0.578205 1.92922 0
M  V30 15191 C 1459.05 1.3091 3.21035 0
M  V30 15192 C 1458.11 2.51944 3.47595 0
M  V30 15193 C 1457.35 2.39414 4.76987 0
M  V30 15194 O 1457.57 1.41224 5.52641 0
M  V30 15195 O 1456.5 3.28944 5.04063 0
M  V30 15196 H 1460.33 2.40551 1.85388 0
M  V30 15197 H 1457.91 1.22232 0.859052 0
M  V30 15198 H 1459.8 1.25816 4.02179 0
M  V30 15199 H 1458.47 0.375263 3.21517 0
M  V30 15200 H 1457.38 2.62615 2.66428 0
M  V30 15201 H 1458.71 3.44115 3.51917 0
M  V30 15202 N 1460.36 -0.94061 1.26453 0
M  V30 15203 C 1461.61 -1.68937 1.12197 0
M  V30 15204 C 1461.94 -1.91309 -0.33382 0
M  V30 15205 O 1461.22 -1.49417 -1.24518 0
M  V30 15206 C 1461.5 -3.06381 1.89215 0
M  V30 15207 C 1461.35 -2.91331 3.42704 0
M  V30 15208 C 1462.67 -4.06507 1.68642 0
M  V30 15209 H 1459.79 -0.613121 0.408964 0
M  V30 15210 H 1462.43 -1.09242 1.55455 0
M  V30 15211 H 1460.58 -3.57339 1.5245 0
M  V30 15212 H 1462.25 -2.47591 3.89226 0
M  V30 15213 H 1460.5 -2.26945 3.697 0
M  V30 15214 H 1461.17 -3.88818 3.91822 0
M  V30 15215 H 1463.64 -3.64512 2.00674 0
M  V30 15216 H 1462.52 -5.0069 2.24945 0
M  V30 15217 H 1462.78 -4.37572 0.631131 0
M  V30 15218 N 1461.84 -1.08266 -1.14527 0
M  V30 15219 C 1463.07 -0.832994 -1.89937 0
M  V30 15220 C 1463.49 0.608985 -1.77969 0
M  V30 15221 O 1462.85 1.42657 -1.11887 0
M  V30 15222 C 1462.9 -1.25782 -3.37952 0
M  V30 15223 O 1462 -0.408853 -4.10368 0
M  V30 15224 H 1461.34 -0.30267 -0.591005 0
M  V30 15225 H 1463.87 -1.44371 -1.44977 0
M  V30 15226 H 1463.88 -1.23804 -3.88763 0
M  V30 15227 H 1462.56 -2.30804 -3.4598 0
M  V30 15228 H 1461.13 -0.49192 -3.69641 0
M  V30 15229 N 1463.32 1.31536 -0.86811 0
M  V30 15230 C 1464.54 2.01487 -0.491705 0
M  V30 15231 C 1464.97 1.64744 0.907803 0
M  V30 15232 O 1464.33 0.855093 1.59868 0
M  V30 15233 C 1464.38 3.54621 -0.65395 0
M  V30 15234 O 1463.48 4.11252 0.307532 0
M  V30 15235 H 1462.82 0.634469 -0.195819 0
M  V30 15236 H 1465.35 1.67775 -1.17101 0
M  V30 15237 H 1465.36 4.04323 -0.546539 0
M  V30 15238 H 1464.04 3.80704 -1.67443 0
M  V30 15239 H 1462.61 3.72577 0.155233 0
M  V30 15240 N 1464.8 0.627364 1.44575 0
M  V30 15241 C 1465.74 -0.0798044 2.30662 0
M  V30 15242 C 1466.71 -0.840528 1.43263 0
M  V30 15243 O 1467.9 -0.82232 1.7217 0
M  V30 15244 C 1465.04 -1.05796 3.28483 0
M  V30 15245 C 1464.15 -0.296052 4.30984 0
M  V30 15246 C 1463.29 -1.26569 5.15901 0
M  V30 15247 C 1462.33 -0.492722 6.10114 0
M  V30 15248 N 1461.46 -1.41263 6.87742 0
M  V30 15249 H 1466.3 0.660254 2.90594 0
M  V30 15250 H 1463.84 0.337382 1.43179 0
M  V30 15251 H 1465.8 -1.63842 3.83682 0
M  V30 15252 H 1464.43 -1.7652 2.7026 0
M  V30 15253 H 1463.48 0.400259 3.78288 0
M  V30 15254 H 1464.79 0.306149 4.9786 0
M  V30 15255 H 1463.95 -1.9176 5.75598 0
M  V30 15256 H 1462.69 -1.90182 4.4909 0
M  V30 15257 H 1461.69 0.172696 5.49529 0
M  V30 15258 H 1462.92 0.138634 6.78958 0
M  V30 15259 H 1460.86 -2.03604 6.23604 0
M  V30 15260 H 1460.78 -0.864362 7.51042 0
M  V30 15261 H 1462.05 -2.0535 7.51965 0
M  V30 15262 N 1466.28 -1.53251 0.367684 0
M  V30 15263 C 1467.19 -2.29518 -0.485669 0
M  V30 15264 C 1468.2 -1.35568 -1.09075 0
M  V30 15265 O 1469.38 -1.68626 -1.10124 0
M  V30 15266 C 1466.44 -3.07115 -1.60876 0
M  V30 15267 C 1465.5 -4.16736 -1.031 0
M  V30 15268 C 1464.74 -4.90624 -2.10056 0
M  V30 15269 O 1464.96 -4.64393 -3.31203 0
M  V30 15270 O 1463.89 -5.76503 -1.72996 0
M  V30 15271 H 1467.72 -3.034 0.135017 0
M  V30 15272 H 1465.3 -1.48816 0.132005 0
M  V30 15273 H 1467.19 -3.55564 -2.26168 0
M  V30 15274 H 1465.86 -2.36068 -2.21481 0
M  V30 15275 H 1464.77 -3.72534 -0.341928 0
M  V30 15276 H 1466.1 -4.89956 -0.469473 0
M  V30 15277 N 1467.75 -0.0969077 -1.57302 0
M  V30 15278 C 1468.98 0.578086 -1.99181 0
M  V30 15279 C 1469.4 1.60818 -0.975667 0
M  V30 15280 O 1468.76 1.81215 0.0556054 0
M  V30 15281 C 1468.81 1.20076 -3.40021 0
M  V30 15282 O 1467.91 2.31656 -3.41188 0
M  V30 15283 H 1467.25 0.146506 -0.647636 0
M  V30 15284 H 1469.78 -0.178855 -2.03817 0
M  V30 15285 H 1469.79 1.54162 -3.77754 0
M  V30 15286 H 1468.47 0.446114 -4.135 0
M  V30 15287 H 1467.05 1.99175 -3.15252 0
M  V30 15288 N 1469.23 1.56605 0.176793 0
M  V30 15289 C 1470.16 1.99014 1.2213 0
M  V30 15290 C 1471.14 0.86487 1.46472 0
M  V30 15291 O 1472.33 1.13055 1.57899 0
M  V30 15292 C 1469.46 2.34534 2.56146 0
M  V30 15293 C 1468.41 3.4997 2.46384 0
M  V30 15294 C 1467.74 3.71217 3.8484 0
M  V30 15295 C 1469.04 4.83592 1.97323 0
M  V30 15296 H 1470.73 2.86517 0.8688 0
M  V30 15297 H 1468.28 1.37846 0.416481 0
M  V30 15298 H 1470.23 2.62799 3.29416 0
M  V30 15299 H 1468.95 1.43933 2.93174 0
M  V30 15300 H 1467.61 3.21824 1.75569 0
M  V30 15301 H 1467.26 2.77916 4.19251 0
M  V30 15302 H 1466.96 4.48885 3.79178 0
M  V30 15303 H 1468.49 4.01877 4.59704 0
M  V30 15304 H 1469.9 5.10768 2.60363 0
M  V30 15305 H 1468.3 5.64858 2.02622 0
M  V30 15306 H 1469.37 4.75951 0.927275 0
M  V30 15307 N 1470.71 -0.445159 1.51182 0
M  V30 15308 C 1471.94 -1.21787 1.67259 0
M  V30 15309 C 1472.35 -1.85206 0.366641 0
M  V30 15310 O 1471.71 -1.70376 -0.654095 0
M  V30 15311 C 1471.76 -2.30765 2.78262 0
M  V30 15312 O 1471.48 -1.69942 4.03796 0
M  V30 15313 C 1472.98 -3.21186 3.05539 0
M  V30 15314 H 1470.2 -0.367364 0.561502 0
M  V30 15315 H 1472.75 -0.528415 1.97555 0
M  V30 15316 H 1470.9 -2.9544 2.50587 0
M  V30 15317 H 1471.32 -2.41905 4.65384 0
M  V30 15318 H 1472.79 -3.93805 3.8681 0
M  V30 15319 H 1473.27 -3.81487 2.17634 0
M  V30 15320 H 1473.87 -2.62221 3.34844 0
M  V30 15321 N 1472.19 -1.41197 -0.700089 0
M  V30 15322 C 1473.12 -1.45456 -1.8266 0
M  V30 15323 C 1474.1 -0.313719 -1.67182 0
M  V30 15324 O 1475.28 -0.524528 -1.86982 0
M  V30 15325 C 1472.41 -1.33161 -3.20758 0
M  V30 15326 C 1471.37 -2.4501 -3.50933 0
M  V30 15327 C 1470.69 -2.17782 -4.88339 0
M  V30 15328 C 1471.99 -3.87352 -3.50365 0
M  V30 15329 H 1473.69 -2.39735 -1.79353 0
M  V30 15330 H 1471.23 -1.1539 -0.861465 0
M  V30 15331 H 1473.19 -1.34754 -3.99274 0
M  V30 15332 H 1471.91 -0.353646 -3.2468 0
M  V30 15333 H 1470.57 -2.42692 -2.74766 0
M  V30 15334 H 1470.22 -1.1834 -4.88881 0
M  V30 15335 H 1469.92 -2.92728 -5.09494 0
M  V30 15336 H 1471.44 -2.21083 -5.6917 0
M  V30 15337 H 1472.86 -3.9141 -4.18893 0
M  V30 15338 H 1471.25 -4.61944 -3.83051 0
M  V30 15339 H 1472.32 -4.15827 -2.4943 0
M  V30 15340 N 1473.67 0.933891 -1.2695 0
M  V30 15341 C 1475.08 1.20873 -1.0422 0
M  V30 15342 C 1475.28 2.00205 0.228112 0
M  V30 15343 O 1474.34 2.34539 0.935284 0
M  V30 15344 C 1475.65 1.9629 -2.27795 0
M  V30 15345 C 1477.2 2.09254 -2.3277 0
M  V30 15346 C 1477.67 2.88075 -3.56057 0
M  V30 15347 N 1479.16 2.95646 -3.56578 0
M  V30 15348 C 1479.9 3.57082 -4.48642 0
M  V30 15349 N 1479.4 4.1996 -5.51004 0
M  V30 15350 N 1481.19 3.54425 -4.36279 0
M  V30 15351 H 1473.34 0.403735 -2.08528 0
M  V30 15352 H 1475.6 0.241189 -0.916805 0
M  V30 15353 H 1475.31 1.45412 -3.20231 0
M  V30 15354 H 1475.18 2.9693 -2.32621 0
M  V30 15355 H 1477.57 2.5932 -1.40844 0
M  V30 15356 H 1477.65 1.07854 -2.31951 0
M  V30 15357 H 1477.29 2.38693 -4.48317 0
M  V30 15358 H 1477.22 3.89746 -3.54126 0
M  V30 15359 H 1479.72 2.50951 -2.82545 0
M  V30 15360 H 1480.03 4.64758 -6.1743 0
M  V30 15361 H 1478.37 4.18525 -5.54853 0
M  V30 15362 H 1481.56 3.045 -3.55524 0
M  V30 15363 H 1481.74 4.02016 -5.0822 0
M  V30 15364 N 1475.14 1.08871 1.13951 0
M  V30 15365 C 1476.37 0.842913 1.88951 0
M  V30 15366 C 1476.79 -0.605348 1.78832 0
M  V30 15367 O 1476.14 -1.41631 1.15095 0
M  V30 15368 C 1476.19 1.26198 3.38757 0
M  V30 15369 O 1475.92 2.65344 3.48603 0
M  V30 15370 C 1477.42 1.04773 4.30741 0
M  V30 15371 H 1474.64 0.303651 0.598362 0
M  V30 15372 H 1477.18 1.44922 1.44284 0
M  V30 15373 H 1475.34 0.699682 3.81029 0
M  V30 15374 H 1475.75 2.82863 4.41688 0
M  V30 15375 H 1477.22 1.39029 5.34205 0
M  V30 15376 H 1477.7 -0.0149046 4.39197 0
M  V30 15377 H 1478.31 1.5957 3.9423 0
M  V30 15378 N 1476.62 -1.31073 0.875073 0
M  V30 15379 C 1477.58 -2.26672 0.339481 0
M  V30 15380 C 1478.58 -1.52416 -0.512439 0
M  V30 15381 O 1479.77 -1.71217 -0.321012 0
M  V30 15382 C 1476.91 -3.36952 -0.517311 0
M  V30 15383 H 1478.1 -2.7556 1.18349 0
M  V30 15384 H 1475.65 -1.42093 0.65109 0
M  V30 15385 H 1476.39 -2.93364 -1.38231 0
M  V30 15386 H 1476.17 -3.9199 0.092773 0
M  V30 15387 H 1477.66 -4.08133 -0.884154 0
M  V30 15388 N 1478.1 -0.635022 -1.4424 0
M  V30 15389 C 1479.52 -0.300978 -1.56736 0
M  V30 15390 C 1479.72 1.19571 -1.62188 0
M  V30 15391 O 1478.77 1.97991 -1.56703 0
M  V30 15392 C 1480.09 -0.996327 -2.83714 0
M  V30 15393 C 1481.63 -0.97484 -2.97432 0
M  V30 15394 C 1482.11 -1.65073 -4.27218 0
M  V30 15395 N 1483.6 -1.6175 -4.3404 0
M  V30 15396 C 1484.33 -2.10938 -5.33191 0
M  V30 15397 N 1483.83 -2.68333 -6.38725 0
M  V30 15398 N 1485.62 -2.01544 -5.24725 0
M  V30 15399 H 1477.77 -1.60649 -1.38945 0
M  V30 15400 H 1480.04 -0.674561 -0.666087 0
M  V30 15401 H 1479.74 -2.05128 -2.85684 0
M  V30 15402 H 1479.62 -0.536511 -3.73365 0
M  V30 15403 H 1482 0.071646 -2.95013 0
M  V30 15404 H 1482.09 -1.47318 -2.0912 0
M  V30 15405 H 1481.73 -2.69669 -4.30397 0
M  V30 15406 H 1481.66 -1.12719 -5.14395 0
M  V30 15407 H 1484.15 -1.1985 -3.58392 0
M  V30 15408 H 1484.46 -3.03588 -7.10672 0
M  V30 15409 H 1482.81 -2.72385 -6.39399 0
M  V30 15410 H 1486 -1.56423 -4.41191 0
M  V30 15411 H 1486.17 -2.40187 -6.01842 0
M  V30 15412 O 1479.62 1.52967 -0.518002 0
M  V30 15413 H 1480.31 1.93699 -0.00487232 0
M  V30 END ATOM
M  V30 BEGIN BOND
M  V30 END BOND
M  V30 END CTAB
M  END
$$$$
