drugbank_target|Q8YSC4 Bacteriorhodopsin (DB04327)
 OpenBabel12092120293D

  0  0  0     0  0            999 V3000
M  V30 BEGIN CTAB
M  V30 COUNTS 4277 4341 0 0 0
M  V30 BEGIN ATOM
M  V30 1 H -0.908 1.98254 -0.117106 0
M  V30 2 N 0 1.576 0 0
M  V30 3 C 0.933 2.03868 1.02534 0
M  V30 4 C 1.911 0.928543 1.3348 0
M  V30 5 O 3.095 1.19667 1.45644 0
M  V30 6 C 0.222 2.43627 2.35294 0
M  V30 7 C -0.732 3.65373 2.2001 0
M  V30 8 S 0.101 5.13292 1.52614 0
M  V30 9 C 1.257 5.56322 2.86805 0
M  V30 10 H 1.49 2.90518 0.631377 0
M  V30 11 H -0.977 1.52953 0.210867 0
M  V30 12 H 0.981 2.67203 3.11629 0
M  V30 13 H -0.358 1.57376 2.7183 0
M  V30 14 H -1.165 3.90944 3.18086 0
M  V30 15 H -1.563 3.418 1.51819 0
M  V30 16 H 0.729 5.58782 3.83104 0
M  V30 17 H 1.672 6.56266 2.65933 0
M  V30 18 H 2.08 4.83886 2.90714 0
M  V30 19 N 1.4781 -0.272755 1.55222 0
M  V30 20 C 2.4261 -1.35705 1.88909 0
M  V30 21 C 3.4201 -1.5112 0.765456 0
M  V30 22 O 4.6261 -1.52901 0.949802 0
M  V30 23 H 1.0011 -0.453868 0.59959 0
M  V30 24 H 2.9721 -1.04544 2.79487 0
M  V30 25 C 1.7211 -2.71049 2.17779 0
M  V30 26 H 1.0441 -2.59979 3.03728 0
M  V30 27 H 2.4841 -3.45858 2.45272 0
M  V30 28 C 0.9431 -3.22165 0.985473 0
M  V30 29 O 1.4731 -4.01096 0.220233 0
M  V30 30 N -0.3209 -2.7985 0.783108 0
M  V30 31 H -0.7739 -2.15775 1.40708 0
M  V30 32 H -0.8159 -3.14397 -0.0130392 0
M  V30 33 N 2.9562 -1.48159 -0.537278 0
M  V30 34 C 3.8862 -1.65029 -1.6519 0
M  V30 35 C 4.8672 -0.499281 -1.62607 0
M  V30 36 O 6.0522 -0.730972 -1.79918 0
M  V30 37 C 3.1822 -1.68303 -3.03795 0
M  V30 38 C 2.1362 -2.8283 -3.21234 0
M  V30 39 C 1.4622 -2.71189 -4.60826 0
M  V30 40 C 2.7622 -4.24211 -3.04701 0
M  V30 41 H 4.4562 -2.58341 -1.51328 0
M  V30 42 H 2.0022 -1.24325 -0.726585 0
M  V30 43 H 3.9552 -1.78693 -3.81637 0
M  V30 44 H 2.6792 -0.715635 -3.18663 0
M  V30 45 H 1.3382 -2.71983 -2.45807 0
M  V30 46 H 0.9862 -1.72435 -4.7252 0
M  V30 47 H 0.6862 -3.48035 -4.7344 0
M  V30 48 H 2.2102 -2.83537 -5.40777 0
M  V30 49 H 3.6242 -4.3593 -3.72341 0
M  V30 50 H 2.0212 -5.01998 -3.28813 0
M  V30 51 H 3.0912 -4.41184 -2.01209 0
M  V30 52 N 4.4343 0.785586 -1.36625 0
M  V30 53 C 5.3443 1.92964 -1.33425 0
M  V30 54 C 6.3603 1.72394 -0.235851 0
M  V30 55 O 7.5363 1.95866 -0.468878 0
M  V30 56 C 4.6013 3.27884 -1.12662 0
M  V30 57 C 3.6623 3.61204 -2.32013 0
M  V30 58 C 2.8953 4.89687 -2.12231 0
M  V30 59 O 3.1183 5.59704 -1.09945 0
M  V30 60 O 2.0523 5.21752 -3.00098 0
M  V30 61 H 5.8783 1.98613 -2.29753 0
M  V30 62 H 3.4633 0.926384 -1.17211 0
M  V30 63 H 5.3453 4.08614 -1.03016 0
M  V30 64 H 4.0203 3.23118 -0.193991 0
M  V30 65 H 2.9273 2.80765 -2.47228 0
M  V30 66 H 4.2603 3.70698 -3.23796 0
M  V30 67 N 5.9124 1.20967 1.01018 0
M  V30 68 C 7.1374 1.0503 1.78839 0
M  V30 69 C 7.5624 -0.395752 1.8389 0
M  V30 70 O 6.9204 -1.28529 1.27867 0
M  V30 71 C 6.9684 1.64602 3.2084 0
M  V30 72 O 6.0724 0.887988 4.02726 0
M  V30 73 H 5.4134 0.369987 0.551367 0
M  V30 74 H 7.9434 1.60399 1.27018 0
M  V30 75 H 7.9534 1.68607 3.71532 0
M  V30 76 H 6.6284 2.69841 3.16479 0
M  V30 77 H 5.2054 0.922648 3.61305 0
M  V30 78 N 7.3905 -1.2043 1.01659 0
M  V30 79 C 8.3205 -2.25466 0.607226 0
M  V30 80 C 9.3015 -1.65853 -0.377716 0
M  V30 81 O 10.4865 -1.92409 -0.263149 0
M  V30 82 C 7.6165 -3.47256 -0.0552949 0
M  V30 83 C 6.5705 -4.19462 0.850632 0
M  V30 84 C 5.8965 -5.34673 0.0538859 0
M  V30 85 C 7.1965 -4.75603 2.15868 0
M  V30 86 H 8.8905 -2.59962 1.48526 0
M  V30 87 H 6.4365 -1.2496 0.715605 0
M  V30 88 H 8.3895 -4.19917 -0.353233 0
M  V30 89 H 7.1135 -3.11924 -0.968045 0
M  V30 90 H 5.7725 -3.48667 1.13257 0
M  V30 91 H 5.4205 -4.95585 -0.860514 0
M  V30 92 H 5.1205 -5.83913 0.657192 0
M  V30 93 H 6.6445 -6.10138 -0.237598 0
M  V30 94 H 8.0585 -5.40083 1.92311 0
M  V30 95 H 6.4555 -5.3528 2.71284 0
M  V30 96 H 7.5255 -3.94346 2.82169 0
M  V30 97 N 8.8686 -0.792821 -1.36206 0
M  V30 98 C 9.7986 -0.207853 -2.32573 0
M  V30 99 C 10.7796 0.659055 -1.56813 0
M  V30 100 O 11.9646 0.592176 -1.84951 0
M  V30 101 C 9.0946 0.655449 -3.41059 0
M  V30 102 C 8.0486 -0.111842 -4.27854 0
M  V30 103 C 7.3746 0.872274 -5.27537 0
M  V30 104 C 8.6746 -1.30299 -5.05786 0
M  V30 105 H 10.3686 -1.01294 -2.81744 0
M  V30 106 H 7.9146 -0.48854 -1.3546 0
M  V30 107 H 9.8676 1.07464 -4.07467 0
M  V30 108 H 8.5916 1.49328 -2.90463 0
M  V30 109 H 7.2506 -0.512053 -3.63006 0
M  V30 110 H 6.8986 1.70523 -4.73214 0
M  V30 111 H 6.5986 0.363291 -5.86476 0
M  V30 112 H 8.1226 1.28996 -5.96818 0
M  V30 113 H 9.5366 -0.959379 -5.65216 0
M  V30 114 H 7.9336 -1.7455 -5.74154 0
M  V30 115 H 9.0036 -2.09663 -4.37229 0
M  V30 116 N 10.3467 1.47872 -0.545128 0
M  V30 117 C 11.2967 2.26842 0.229456 0
M  V30 118 C 12.2807 1.33626 0.896267 0
M  V30 119 O 13.4727 1.58063 0.79657 0
M  V30 120 C 10.6017 3.19089 1.26638 0
M  V30 121 C 9.6877 4.19783 0.603598 0
M  V30 122 N 10.0787 5.0479 -0.319405 0
M  V30 123 C 8.3767 4.3765 0.858989 0
M  V30 124 C 9.0777 5.77433 -0.703241 0
M  V30 125 N 8.0537 5.43566 -0.0608309 0
M  V30 126 H 11.8557 2.89947 -0.480391 0
M  V30 127 H 9.3697 1.58263 -0.364209 0
M  V30 128 H 11.3667 3.74337 1.83515 0
M  V30 129 H 10.0267 2.5754 1.97745 0
M  V30 130 H 11.0377 5.13244 -0.692889 0
M  V30 131 H 7.7147 3.87281 1.55948 0
M  V30 132 H 9.1047 6.55824 -1.46098 0
M  V30 133 N 11.8248 0.280983 1.55075 0
M  V30 134 C 13.0708 -0.327573 2.00745 0
M  V30 135 C 13.4258 -1.53045 1.16598 0
M  V30 136 O 12.7188 -1.90221 0.229451 0
M  V30 137 C 12.9128 -0.754656 3.49342 0
M  V30 138 C 12.7418 0.40529 4.4787 0
M  V30 139 C 11.5118 0.890947 4.97383 0
M  V30 140 C 13.7098 1.24371 4.99035 0
M  V30 141 N 11.6918 2.01975 5.79724 0
M  V30 142 C 13.0628 2.22031 5.7888 0
M  V30 143 C 15.1178 1.27638 4.81262 0
M  V30 144 C 13.8208 3.22709 6.42846 0
M  V30 145 C 15.8468 2.27164 5.46031 0
M  V30 146 C 15.2088 3.23556 6.25692 0
M  V30 147 H 11.3078 -0.0848774 0.77738 0
M  V30 148 H 13.8918 0.406342 1.90413 0
M  V30 149 H 12.0628 -1.45778 3.60005 0
M  V30 150 H 13.7948 -1.34105 3.81835 0
M  V30 151 H 10.5498 0.469262 4.71269 0
M  V30 152 H 10.9738 2.58794 6.25584 0
M  V30 153 H 15.6158 0.544936 4.19274 0
M  V30 154 H 13.3338 3.96784 7.0398 0
M  V30 155 H 16.9198 2.30441 5.34217 0
M  V30 156 H 15.7998 3.99309 6.74924 0
M  V30 157 N 13.3029 -1.57598 0.00835791 0
M  V30 158 C 14.5519 -1.90107 -0.673968 0
M  V30 159 C 14.8649 -0.884275 -1.7447 0
M  V30 160 O 16.0709 -1.09987 -2.48224 0
M  V30 161 C 14.5269 -3.37497 -1.24995 0
M  V30 162 C 14.1349 -4.47491 -0.2136 0
M  V30 163 C 15.8789 -3.79104 -1.90999 0
M  V30 164 C 13.7859 -5.85963 -0.80005 0
M  V30 165 H 12.7159 -0.709393 -0.255495 0
M  V30 166 H 15.3669 -1.83365 0.0702693 0
M  V30 167 H 13.7489 -3.39102 -2.04513 0
M  V30 168 H 14.9229 -4.57414 0.557596 0
M  V30 169 H 13.2379 -4.14956 0.346474 0
M  V30 170 H 15.8349 -4.79901 -2.35795 0
M  V30 171 H 16.1779 -3.1306 -2.74407 0
M  V30 172 H 16.7109 -3.79833 -1.18203 0
M  V30 173 H 13.4499 -6.555 -0.00456708 0
M  V30 174 H 12.9699 -5.79687 -1.54021 0
M  V30 175 H 14.6489 -6.33884 -1.29615 0
M  V30 176 N 14.781 0.264519 -1.55364 0
M  V30 177 C 16.011 1.01153 -1.80143 0
M  V30 178 C 16.419 1.80115 -0.579253 0
M  V30 179 O 15.762 1.77813 0.46132 0
M  V30 180 C 15.824 2.01098 -2.97993 0
M  V30 181 C 15.488 1.40995 -4.34706 0
M  V30 182 C 16.485 0.821316 -5.13372 0
M  V30 183 C 14.17 1.43461 -4.81378 0
M  V30 184 C 16.164 0.265339 -6.36847 0
M  V30 185 C 13.851 0.874771 -6.04807 0
M  V30 186 C 14.849 0.291146 -6.82379 0
M  V30 187 O 14.537 -0.260093 -8.03479 0
M  V30 188 H 14.269 0.304125 -0.603725 0
M  V30 189 H 16.823 0.298089 -2.03225 0
M  V30 190 H 15.053 2.76224 -2.70623 0
M  V30 191 H 16.742 2.61997 -3.1002 0
M  V30 192 H 17.508 0.794903 -4.78442 0
M  V30 193 H 13.387 1.87826 -4.21002 0
M  V30 194 H 16.931 -0.190837 -6.97339 0
M  V30 195 H 12.828 0.898452 -6.39217 0
M  V30 196 H 13.596 -0.150265 -8.18362 0
M  V30 197 N 16.2591 1.48442 0.529413 0
M  V30 198 C 17.5051 1.5672 1.28711 0
M  V30 199 C 17.8381 0.2406 1.92704 0
M  V30 200 O 17.1131 -0.753454 1.79313 0
M  V30 201 C 17.3961 2.70587 2.37603 0
M  V30 202 C 17.2491 4.12953 1.78297 0
M  V30 203 C 18.5681 2.80212 3.39366 0
M  V30 204 H 15.6871 0.570474 0.466613 0
M  V30 205 H 18.3291 1.80617 0.589706 0
M  V30 206 H 16.4791 2.50342 2.97088 0
M  V30 207 H 18.1511 4.44639 1.22858 0
M  V30 208 H 16.3941 4.19927 1.0883 0
M  V30 209 H 17.0651 4.88448 2.57144 0
M  V30 210 H 19.5411 2.98553 2.89836 0
M  V30 211 H 18.4171 3.61611 4.12951 0
M  V30 212 H 18.6781 1.88393 3.99951 0
M  V30 213 N 17.7372 -0.778329 1.37039 0
M  V30 214 C 18.7002 -1.87301 1.32102 0
M  V30 215 C 19.7002 -1.59198 0.226405 0
M  V30 216 O 20.8902 -1.67403 0.481861 0
M  V30 217 C 18.0222 -3.24309 1.05055 0
M  V30 218 H 19.2152 -1.93093 2.29467 0
M  V30 219 H 16.7682 -0.977358 1.21973 0
M  V30 220 H 17.5032 -3.24196 0.0819373 0
M  V30 221 H 17.2882 -3.46098 1.84279 0
M  V30 222 H 18.7782 -4.04382 1.04234 0
M  V30 223 N 19.2153 -1.21501 -1.00376 0
M  V30 224 C 20.4633 -1.03095 -1.73827 0
M  V30 225 C 20.7843 0.436341 -1.90055 0
M  V30 226 O 20.0543 1.31466 -1.45236 0
M  V30 227 H 18.6343 -0.378487 -0.644016 0
M  V30 228 H 21.2963 -1.52831 -1.20949 0
M  V30 229 H 20.3923 -1.49991 -2.73695 0
M  V30 230 N 20.6934 1.19889 -1.02296 0
M  V30 231 C 21.6264 2.21639 -0.543282 0
M  V30 232 C 22.6044 1.57275 0.412698 0
M  V30 233 O 23.7884 1.85568 0.331198 0
M  V30 234 C 20.9154 3.38057 0.208571 0
M  V30 235 C 19.9614 4.20751 -0.697933 0
M  V30 236 S 20.7944 4.89529 -2.17075 0
M  V30 237 C 21.9504 6.09363 -1.42923 0
M  V30 238 H 22.1834 2.61984 -1.40541 0
M  V30 239 H 19.7164 1.30041 -0.832387 0
M  V30 240 H 21.6744 4.05539 0.63624 0
M  V30 241 H 20.3354 2.96159 1.04635 0
M  V30 242 H 19.5284 5.03862 -0.117831 0
M  V30 243 H 19.1304 3.58556 -1.06366 0
M  V30 244 H 21.4224 6.73742 -0.712637 0
M  V30 245 H 22.3654 6.71845 -2.23673 0
M  V30 246 H 22.7734 5.56798 -0.929327 0
M  V30 247 N 22.1715 0.800033 1.35784 0
M  V30 248 C 23.3995 0.389606 2.03199 0
M  V30 249 C 23.8145 -0.997375 1.60306 0
M  V30 250 O 23.1715 -1.64154 0.797481 0
M  V30 251 C 23.2225 0.455855 3.58614 0
M  V30 252 O 22.9435 1.78815 3.99946 0
M  V30 253 C 24.4445 0.0374032 4.43284 0
M  V30 254 H 21.6645 0.159132 0.651857 0
M  V30 255 H 24.2085 1.08183 1.73541 0
M  V30 256 H 22.3635 -0.188057 3.86943 0
M  V30 257 H 22.7775 1.74636 4.94573 0
M  V30 258 H 24.2515 0.134882 5.51835 0
M  V30 259 H 24.7285 -1.01651 4.27275 0
M  V30 260 H 25.3345 0.654215 4.20238 0
M  V30 261 N 23.6496 -1.47581 0.552962 0
M  V30 262 C 24.8986 -2.01684 0.0251995 0
M  V30 263 C 25.2116 -1.43317 -1.33115 0
M  V30 264 O 26.4176 -1.89057 -1.94858 0
M  V30 265 C 24.8736 -3.599 -0.00542052 0
M  V30 266 C 24.4816 -4.27257 1.34742 0
M  V30 267 C 26.2256 -4.21768 -0.4808 0
M  V30 268 C 24.1326 -5.77467 1.27614 0
M  V30 269 H 23.0626 -0.753979 0.00565033 0
M  V30 270 H 25.7136 -1.69616 0.70018 0
M  V30 271 H 24.0956 -3.88911 -0.745961 0
M  V30 272 H 25.2696 -4.09893 2.10534 0
M  V30 273 H 23.5846 -3.77358 1.76039 0
M  V30 274 H 26.1816 -5.31838 -0.55246 0
M  V30 275 H 26.5246 -3.88651 -1.49184 0
M  V30 276 H 27.0576 -3.97273 0.204752 0
M  V30 277 H 23.7966 -6.15196 2.26304 0
M  V30 278 H 23.3166 -5.9718 0.55996 0
M  V30 279 H 24.9956 -6.3959 0.976421 0
M  V30 280 N 25.1277 -0.289203 -1.54924 0
M  V30 281 C 26.3757 0.322879 -1.99504 0
M  V30 282 C 26.6967 1.55313 -1.1791 0
M  V30 283 O 25.9667 1.94001 -0.272097 0
M  V30 284 H 24.5467 0.122291 -0.736922 0
M  V30 285 H 27.2087 -0.397802 -1.90797 0
M  V30 286 H 26.3047 0.603061 -3.06218 0
M  V30 287 N 26.6058 1.57591 -0.0167156 0
M  V30 288 C 27.5688 2.08393 0.954204 0
M  V30 289 C 28.5688 0.996531 1.26198 0
M  V30 290 O 29.7588 1.25858 1.20438 0
M  V30 291 C 26.8908 2.5394 2.27436 0
M  V30 292 H 28.0838 2.95455 0.514451 0
M  V30 293 H 25.6368 1.54582 0.231089 0
M  V30 294 H 26.3718 1.70171 2.76066 0
M  V30 295 H 26.1568 3.33371 2.06412 0
M  V30 296 H 27.6468 2.93512 2.97053 0
M  V30 297 N 28.0839 -0.256276 1.55502 0
M  V30 298 C 29.0139 -1.32102 1.92539 0
M  V30 299 C 29.9949 -1.50684 0.789194 0
M  V30 300 O 31.1799 -1.63449 1.04872 0
M  V30 301 C 28.3099 -2.67752 2.21192 0
M  V30 302 C 27.2639 -2.63878 3.36975 0
M  V30 303 C 26.5899 -4.03236 3.51147 0
M  V30 304 C 27.8899 -2.21682 4.72921 0
M  V30 305 H 29.5839 -1.01351 2.81724 0
M  V30 306 H 27.1299 -0.486105 1.35547 0
M  V30 307 H 29.0829 -3.42365 2.45691 0
M  V30 308 H 27.8069 -3.0012 1.28824 0
M  V30 309 H 26.4659 -1.91722 3.12471 0
M  V30 310 H 26.1139 -4.32854 2.56216 0
M  V30 311 H 25.8139 -4.01535 4.29003 0
M  V30 312 H 27.3379 -4.79563 3.77957 0
M  V30 313 H 28.7519 -2.86023 4.96854 0
M  V30 314 H 27.1489 -2.3111 5.53812 0
M  V30 315 H 28.2189 -1.16833 4.70615 0
M  V30 316 N 29.562 -1.4872 -0.521534 0
M  V30 317 C 30.512 -1.60269 -1.62166 0
M  V30 318 C 31.496 -0.45935 -1.54204 0
M  V30 319 O 32.688 -0.711241 -1.62081 0
M  V30 320 C 29.817 -1.65344 -3.00859 0
M  V30 321 C 28.903 -2.85187 -3.13894 0
M  V30 322 N 29.294 -4.09509 -2.96877 0
M  V30 323 C 27.592 -2.82695 -3.44963 0
M  V30 324 C 28.293 -4.89959 -3.13552 0
M  V30 325 N 27.269 -4.22934 -3.41508 0
M  V30 326 H 31.071 -2.5413 -1.47632 0
M  V30 327 H 28.585 -1.45209 -0.727194 0
M  V30 328 H 30.582 -1.71713 -3.79895 0
M  V30 329 H 29.242 -0.726058 -3.16478 0
M  V30 330 H 30.253 -4.39814 -2.73467 0
M  V30 331 H 26.93 -1.99249 -3.66887 0
M  V30 332 H 28.32 -5.98654 -3.05061 0
M  V30 333 N 31.0401 0.771051 -1.3745 0
M  V30 334 C 32.2871 1.52963 -1.32697 0
M  V30 335 C 32.6151 1.94299 0.0883274 0
M  V30 336 O 31.8701 1.64397 1.0617 0
M  V30 337 C 32.1691 2.80676 -2.2126 0
M  V30 338 C 31.8351 2.58389 -3.69521 0
M  V30 339 C 30.4971 2.52019 -4.09927 0
M  V30 340 C 32.8491 2.38469 -4.63446 0
M  V30 341 C 30.1771 2.23721 -5.42371 0
M  V30 342 C 32.5291 2.11694 -5.96128 0
M  V30 343 C 31.1931 2.03769 -6.35637 0
M  V30 344 H 30.4631 0.559732 -0.485573 0
M  V30 345 H 33.1101 0.888083 -1.69662 0
M  V30 346 H 31.4151 3.49392 -1.77291 0
M  V30 347 H 33.1121 3.38557 -2.14895 0
M  V30 348 H 29.7021 2.6421 -3.37478 0
M  V30 349 H 33.8861 2.4238 -4.33089 0
M  V30 350 H 29.1421 2.16081 -5.71943 0
M  V30 351 H 33.3161 1.9528 -6.6846 0
M  V30 352 H 30.9431 1.81606 -7.38189 0
M  V30 353 N 32.5182 1.22032 0.997298 0
M  V30 354 C 33.7642 1.05382 1.73972 0
M  V30 355 C 34.1192 -0.407419 1.88037 0
M  V30 356 O 33.4122 -1.29811 1.40924 0
M  V30 357 C 33.6062 1.69345 3.14733 0
M  V30 358 C 33.4352 3.21537 3.14395 0
M  V30 359 C 32.2052 3.9062 3.20537 0
M  V30 360 C 34.4032 4.18527 2.98897 0
M  V30 361 N 32.3852 5.29935 3.09906 0
M  V30 362 C 33.7562 5.44645 2.96247 0
M  V30 363 C 35.8112 4.09476 2.83255 0
M  V30 364 C 34.5142 6.62752 2.79557 0
M  V30 365 C 36.5402 5.27228 2.67926 0
M  V30 366 C 35.9022 6.52262 2.65959 0
M  V30 367 H 32.0012 0.440018 0.646458 0
M  V30 368 H 34.5852 1.54505 1.18475 0
M  V30 369 H 32.7562 1.22778 3.68484 0
M  V30 370 H 34.4882 1.45828 3.77513 0
M  V30 371 H 31.2432 3.41592 3.28043 0
M  V30 372 H 31.6672 6.02926 3.07912 0
M  V30 373 H 36.3092 3.13598 2.83577 0
M  V30 374 H 34.0272 7.58783 2.77982 0
M  V30 375 H 37.6132 5.22053 2.56812 0
M  V30 376 H 36.4932 7.41844 2.54239 0
M  V30 377 N 33.9963 -1.19345 1.0293 0
M  V30 378 C 35.2213 -1.93538 0.745511 0
M  V30 379 C 35.6463 -1.75007 -0.689511 0
M  V30 380 O 35.0043 -1.05265 -1.47611 0
M  V30 381 C 35.0523 -3.43336 1.10239 0
M  V30 382 O 34.1563 -4.11806 0.221289 0
M  V30 383 H 33.4973 -0.604193 0.275404 0
M  V30 384 H 36.0273 -1.5141 1.37609 0
M  V30 385 H 36.0373 -3.94004 1.05947 0
M  V30 386 H 34.7123 -3.56146 2.14786 0
M  V30 387 H 33.2893 -3.715 0.322842 0
M  V30 388 N 35.4744 -0.807222 -1.35358 0
M  V30 389 C 36.4044 -0.232509 -2.3234 0
M  V30 390 C 37.3854 0.642386 -1.57504 0
M  V30 391 O 38.5704 0.572526 -1.85569 0
M  V30 392 C 35.7004 0.619238 -3.41735 0
M  V30 393 C 34.6544 -0.157215 -4.27711 0
M  V30 394 C 33.9804 0.816273 -5.28433 0
M  V30 395 C 35.2804 -1.35656 -5.04376 0
M  V30 396 H 36.9744 -1.04276 -2.80654 0
M  V30 397 H 34.5204 -0.50288 -1.34934 0
M  V30 398 H 36.4734 1.03137 -4.08584 0
M  V30 399 H 35.1974 1.46239 -2.92031 0
M  V30 400 H 33.8564 -0.550525 -3.62443 0
M  V30 401 H 33.5044 1.65494 -4.74996 0
M  V30 402 H 33.2044 0.301067 -5.86828 0
M  V30 403 H 34.7284 1.22659 -5.98153 0
M  V30 404 H 36.1424 -1.01927 -5.64166 0
M  V30 405 H 34.5394 -1.8063 -5.7227 0
M  V30 406 H 35.6094 -2.14288 -4.34981 0
M  V30 407 N 36.9525 1.47285 -0.560781 0
M  V30 408 C 38.1775 2.07359 -0.0410566 0
M  V30 409 C 38.6025 1.41017 1.24483 0
M  V30 410 O 37.9605 0.486368 1.74654 0
M  V30 411 C 38.0085 3.6035 0.134123 0
M  V30 412 O 37.1125 3.94681 1.19587 0
M  V30 413 H 36.4535 0.661887 -0.0529291 0
M  V30 414 H 38.9835 1.89252 -0.777482 0
M  V30 415 H 38.9935 4.0652 0.347207 0
M  V30 416 H 37.6685 4.08034 -0.805047 0
M  V30 417 H 36.2455 3.60251 0.962987 0
M  V30 418 N 38.4306 0.297415 1.54768 0
M  V30 419 C 39.8466 -0.0560823 1.59501 0
M  V30 420 C 40.0466 -1.52725 1.31444 0
M  V30 421 O 39.1026 -2.27947 1.08611 0
M  V30 422 C 40.4156 0.338631 2.98787 0
M  V30 423 C 41.9636 0.287097 3.11681 0
M  V30 424 C 42.4386 0.656579 4.53269 0
M  V30 425 N 43.9296 0.608977 4.59179 0
M  V30 426 C 44.6646 0.867385 5.66802 0
M  V30 427 N 44.1606 1.19157 6.82476 0
M  V30 428 N 45.9536 0.794687 5.56454 0
M  V30 429 H 38.1046 1.25624 1.71267 0
M  V30 430 H 40.3676 0.509057 0.799728 0
M  V30 431 H 40.0736 1.36263 3.2423 0
M  V30 432 H 39.9476 -0.309508 3.75928 0
M  V30 433 H 42.3346 -0.727649 2.85988 0
M  V30 434 H 42.4156 0.969809 2.36703 0
M  V30 435 H 42.0596 1.66912 4.7969 0
M  V30 436 H 41.9896 -0.0481649 5.26578 0
M  V30 437 H 44.4806 0.369198 3.76092 0
M  V30 438 H 44.7936 1.37482 7.60473 0
M  V30 439 H 43.1386 1.22958 6.84037 0
M  V30 440 H 46.3296 0.541098 4.64962 0
M  V30 441 H 46.5026 0.999445 6.40246 0
M  V30 442 N 39.9087 -1.5758 0.0250728 0
M  V30 443 C 40.8567 -2.11125 -0.97617 0
M  V30 444 C 41.8507 -1.03689 -1.33959 0
M  V30 445 O 43.0567 -1.22128 -1.3223 0
M  V30 446 H 39.4317 -0.674468 -0.332561 0
M  V30 447 H 41.4027 -2.94194 -0.499223 0
M  V30 448 C 40.1517 -2.65017 -2.2508 0
M  V30 449 H 39.4747 -3.47333 -1.9799 0
M  V30 450 H 40.9147 -3.06133 -2.93357 0
M  V30 451 C 39.3737 -1.57574 -2.97779 0
M  V30 452 O 39.9037 -0.973203 -3.89733 0
M  V30 453 N 38.1097 -1.29716 -2.60043 0
M  V30 454 H 37.6567 -1.789 -1.85345 0
M  V30 455 H 37.6147 -0.58051 -3.08994 0
M  V30 456 N 41.3868 0.248026 -1.55636 0
M  V30 457 C 42.7978 0.817177 -1.67866 0
M  V30 458 C 43.1488 1.86069 -0.622322 0
M  V30 459 O 42.2738 2.15157 0.231618 0
M  V30 460 C 42.8688 1.489 -3.04326 0
M  V30 461 C 41.4278 2.00587 -3.185 0
M  V30 462 C 40.5748 0.856573 -2.63739 0
M  V30 463 H 43.5258 0.0238579 -1.58682 0
M  V30 464 H 43.5468 2.35698 -2.98708 0
M  V30 465 H 43.0588 0.729279 -3.81186 0
M  V30 466 H 41.1598 2.79443 -2.4646 0
M  V30 467 H 41.2728 2.20402 -4.25393 0
M  V30 468 H 39.6368 1.25678 -2.21534 0
M  V30 469 H 40.4198 0.109953 -3.43124 0
M  V30 470 N 42.8649 1.48995 0.513639 0
M  V30 471 C 44.2809 1.35478 0.843682 0
M  V30 472 C 44.4809 0.378213 1.97919 0
M  V30 473 O 43.5369 -0.194689 2.51748 0
M  V30 474 C 44.8499 2.75901 1.1958 0
M  V30 475 C 46.3979 2.84509 1.30474 0
M  V30 476 C 46.8729 4.25671 1.69021 0
M  V30 477 N 48.3639 4.28422 1.76094 0
M  V30 478 C 49.0989 5.34601 2.07338 0
M  V30 479 N 48.5949 6.5104 2.36894 0
M  V30 480 N 50.3879 5.22007 2.08483 0
M  V30 481 H 42.5389 2.11092 -0.235328 0
M  V30 482 H 44.8019 0.947039 -0.0426669 0
M  V30 483 H 44.5079 3.49001 0.434913 0
M  V30 484 H 44.3819 3.10467 2.1422 0
M  V30 485 H 46.7689 2.11655 2.05637 0
M  V30 486 H 46.8499 2.53542 0.339155 0
M  V30 487 H 46.4939 4.99048 0.944135 0
M  V30 488 H 46.4239 4.54094 2.66658 0
M  V30 489 H 48.9149 3.44441 1.55464 0
M  V30 490 H 49.2279 7.2779 2.59887 0
M  V30 491 H 47.5729 6.54287 2.34378 0
M  V30 492 H 50.7639 4.30051 1.84861 0
M  V30 493 H 50.9369 6.04854 2.325 0
M  V30 494 N 44.343 -0.763751 1.37857 0
M  V30 495 C 45.591 -1.51957 1.33243 0
M  V30 496 C 45.912 -1.94835 -0.0801709 0
M  V30 497 O 45.182 -1.66894 -1.02582 0
M  V30 498 H 43.762 -0.563626 0.49024 0
M  V30 499 H 46.424 -0.908504 1.7243 0
M  V30 500 H 45.52 -2.41523 1.97669 0
M  V30 501 N 45.8211 -1.22559 -0.990812 0
M  V30 502 C 47.0671 -1.05297 -1.73322 0
M  V30 503 C 47.4001 0.410655 -1.89808 0
M  V30 504 O 46.6751 1.30439 -1.44277 0
M  V30 505 C 46.9581 -1.76713 -3.13759 0
M  V30 506 C 46.8111 -3.30684 -3.04907 0
M  V30 507 C 48.1301 -1.52121 -4.12974 0
M  V30 508 H 45.2491 -0.38392 -0.629106 0
M  V30 509 H 47.8911 -1.50926 -1.15418 0
M  V30 510 H 46.0411 -1.37924 -3.63193 0
M  V30 511 H 47.7131 -3.7893 -2.63077 0
M  V30 512 H 45.9561 -3.60253 -2.41661 0
M  V30 513 H 46.6271 -3.75833 -4.04294 0
M  V30 514 H 49.1031 -1.85819 -3.72304 0
M  V30 515 H 47.9791 -2.04582 -5.0935 0
M  V30 516 H 48.2401 -0.454257 -4.3976 0
M  V30 517 N 47.2992 1.18797 -1.03562 0
M  V30 518 C 48.7102 1.70322 -0.764676 0
M  V30 519 C 49.0612 1.82708 0.714996 0
M  V30 520 O 48.1862 1.50299 1.55689 0
M  V30 521 C 48.7812 3.09356 -1.38145 0
M  V30 522 C 47.3402 3.58114 -1.15895 0
M  V30 523 C 46.4872 2.34798 -1.4753 0
M  V30 524 H 49.4382 1.03543 -1.20268 0
M  V30 525 H 49.4592 3.72378 -0.781977 0
M  V30 526 H 48.9712 3.00309 -2.45837 0
M  V30 527 H 47.0722 3.72464 -0.100544 0
M  V30 528 H 47.1852 4.4184 -1.8524 0
M  V30 529 H 45.5492 2.38464 -0.894829 0
M  V30 530 H 46.3322 2.28375 -2.56319 0
M  V30 531 N 48.7773 0.814389 1.34928 0
M  V30 532 C 49.7093 0.187834 2.28429 0
M  V30 533 C 50.7223 -0.617374 1.5064 0
M  V30 534 O 51.9113 -0.448454 1.72775 0
M  V30 535 C 49.0113 -0.755962 3.30361 0
M  V30 536 C 48.1843 0.00456686 4.374 0
M  V30 537 C 47.2433 -0.858876 5.19143 0
M  V30 538 O 46.2693 -0.306968 5.68372 0
M  V30 539 N 47.4713 -2.17988 5.38016 0
M  V30 540 H 50.2363 0.991105 2.82838 0
M  V30 541 H 47.7973 0.670561 1.4736 0
M  V30 542 H 49.7893 -1.338 3.81942 0
M  V30 543 H 48.3593 -1.46001 2.7641 0
M  V30 544 H 47.5793 0.767865 3.86649 0
M  V30 545 H 48.8673 0.528422 5.06049 0
M  V30 546 H 48.2653 -2.65212 4.99679 0
M  V30 547 H 46.8223 -2.71098 5.92747 0
M  V30 548 N 50.2554 -1.46986 0.568584 0
M  V30 549 C 51.4854 -2.0653 0.0539173 0
M  V30 550 C 51.8934 -1.42004 -1.25026 0
M  V30 551 O 51.2364 -0.514541 -1.76347 0
M  V30 552 C 51.2984 -3.58938 -0.200854 0
M  V30 553 C 50.9624 -4.45572 1.01559 0
M  V30 554 C 51.9594 -4.82986 1.92407 0
M  V30 555 C 49.6444 -4.8692 1.23346 0
M  V30 556 C 51.6384 -5.60559 3.03402 0
M  V30 557 C 49.3254 -5.64255 2.34649 0
M  V30 558 C 50.3234 -6.00986 3.24507 0
M  V30 559 O 50.0114 -6.76761 4.33878 0
M  V30 560 H 49.7434 -0.674292 0.0480234 0
M  V30 561 H 52.2974 -1.89812 0.784896 0
M  V30 562 H 50.5274 -3.73911 -0.986279 0
M  V30 563 H 52.2164 -4.0046 -0.662294 0
M  V30 564 H 52.9824 -4.51633 1.76785 0
M  V30 565 H 48.8614 -4.57789 0.543178 0
M  V30 566 H 52.4054 -5.89147 3.73565 0
M  V30 567 H 48.3024 -5.95021 2.5024 0
M  V30 568 H 49.0704 -6.95168 4.32068 0
M  V30 569 N 51.7335 -0.305618 -1.54608 0
M  V30 570 C 52.6435 0.57778 -2.27374 0
M  V30 571 C 53.6595 1.14451 -1.31061 0
M  V30 572 O 54.8355 1.16831 -1.6405 0
M  V30 573 C 51.9005 1.73123 -3.00382 0
M  V30 574 C 50.9615 1.19812 -4.12242 0
M  V30 575 C 50.1945 2.2966 -4.81759 0
M  V30 576 O 50.4175 3.49651 -4.50666 0
M  V30 577 O 49.3515 1.96091 -5.69062 0
M  V30 578 H 53.1775 -0.012624 -3.03697 0
M  V30 579 H 50.7625 -0.0719184 -1.49227 0
M  V30 580 H 52.6445 2.40315 -3.4616 0
M  V30 581 H 51.3195 2.30815 -2.26949 0
M  V30 582 H 50.2265 0.491798 -3.70853 0
M  V30 583 H 51.5595 0.666566 -4.87666 0
M  V30 584 N 53.2116 1.57565 -0.0334293 0
M  V30 585 C 54.4416 1.95996 0.653398 0
M  V30 586 C 54.8496 0.908749 1.65947 0
M  V30 587 O 54.1926 -0.117471 1.83324 0
M  V30 588 C 54.2546 3.30589 1.41249 0
M  V30 589 C 53.9186 4.53503 0.564263 0
M  V30 590 C 54.9156 5.19647 -0.16225 0
M  V30 591 C 52.6006 4.99801 0.500398 0
M  V30 592 C 54.5946 6.30412 -0.941255 0
M  V30 593 C 52.2816 6.10448 -0.282308 0
M  V30 594 C 53.2796 6.75612 -1.00184 0
M  V30 595 O 52.9676 7.84134 -1.77171 0
M  V30 596 H 52.6996 0.65027 0.184728 0
M  V30 597 H 55.2536 2.05199 -0.0907841 0
M  V30 598 H 53.4836 3.17888 2.20191 0
M  V30 599 H 55.1726 3.53892 1.98784 0
M  V30 600 H 55.9386 4.84846 -0.12227 0
M  V30 601 H 51.8176 4.48883 1.05002 0
M  V30 602 H 55.3616 6.81208 -1.50339 0
M  V30 603 H 51.2586 6.44686 -0.323989 0
M  V30 604 H 52.0266 8.00822 -1.69194 0
M  V30 605 N 54.6897 -0.239769 1.55765 0
M  V30 606 C 55.6197 -1.30052 1.9393 0
M  V30 607 C 56.6007 -1.49839 0.805132 0
M  V30 608 O 57.7857 -1.62328 1.06599 0
M  V30 609 C 54.9157 -2.65391 2.2402 0
M  V30 610 C 53.8697 -2.60289 3.39755 0
M  V30 611 C 53.1957 -3.99489 3.55405 0
M  V30 612 C 54.4957 -2.16654 4.75246 0
M  V30 613 H 56.1897 -0.983573 2.82783 0
M  V30 614 H 53.7357 -0.471701 1.36055 0
M  V30 615 H 55.6887 -3.3974 2.49308 0
M  V30 616 H 54.4127 -2.98736 1.32 0
M  V30 617 H 53.0717 -1.88398 3.14487 0
M  V30 618 H 52.7197 -4.30112 2.60793 0
M  V30 619 H 52.4197 -3.96962 4.33238 0
M  V30 620 H 53.9437 -4.75528 3.83022 0
M  V30 621 H 55.3577 -2.80737 4.99859 0
M  V30 622 H 53.7547 -2.25223 5.56232 0
M  V30 623 H 54.8247 -1.11835 4.71827 0
M  V30 624 N 56.1678 -1.49265 -0.50573 0
M  V30 625 C 57.4138 -1.58748 -1.26202 0
M  V30 626 C 57.7468 -0.271227 -1.92297 0
M  V30 627 O 57.0218 0.724831 -1.80489 0
M  V30 628 C 57.3048 -2.74332 -2.33268 0
M  V30 629 C 57.1578 -4.15737 -1.71705 0
M  V30 630 C 58.4768 -2.85576 -3.34865 0
M  V30 631 H 55.5958 -0.577826 -0.457478 0
M  V30 632 H 58.2378 -1.81532 -0.560897 0
M  V30 633 H 56.3878 -2.55036 -2.93068 0
M  V30 634 H 58.0598 -4.46537 -1.15769 0
M  V30 635 H 56.3028 -4.21605 -1.02135 0
M  V30 636 H 56.9738 -4.92477 -2.49341 0
M  V30 637 H 59.4498 -3.03127 -2.8505 0
M  V30 638 H 58.3258 -3.68135 -4.07146 0
M  V30 639 H 58.5868 -1.94732 -3.96903 0
M  V30 640 N 57.6459 0.756429 -1.3826 0
M  V30 641 C 58.6089 1.85176 -1.35065 0
M  V30 642 C 59.6089 1.58818 -0.251703 0
M  V30 643 O 60.7989 1.66615 -0.508433 0
M  V30 644 C 57.9309 3.22596 -1.10201 0
M  V30 645 H 59.1239 1.89417 -2.3251 0
M  V30 646 H 56.6769 0.95783 -1.23512 0
M  V30 647 H 57.4119 3.24025 -0.133504 0
M  V30 648 H 57.1969 3.43122 -1.89762 0
M  V30 649 H 58.6869 4.02673 -1.10654 0
M  V30 650 N 59.124 1.23083 0.984299 0
M  V30 651 C 60.057 0.951786 2.07404 0
M  V30 652 C 61.035 -0.10848 1.62238 0
M  V30 653 O 62.219 0.0249467 1.88483 0
M  V30 654 C 59.346 0.433142 3.35919 0
M  V30 655 C 58.392 1.47941 4.0002 0
M  V30 656 S 59.225 3.05556 4.39768 0
M  V30 657 C 60.381 2.55351 5.71442 0
M  V30 658 H 60.614 1.87456 2.30754 0
M  V30 659 H 58.147 1.06284 1.11996 0
M  V30 660 H 60.105 0.140506 4.10259 0
M  V30 661 H 58.766 -0.468656 3.10584 0
M  V30 662 H 57.959 1.06658 4.92585 0
M  V30 663 H 57.561 1.7212 3.3204 0
M  V30 664 H 59.853 1.97128 6.48187 0
M  V30 665 H 60.796 3.46441 6.17563 0
M  V30 666 H 61.204 1.96339 5.29255 0
M  V30 667 N 60.6021 -1.18246 1.0419 0
M  V30 668 C 61.8491 -1.88257 0.746017 0
M  V30 669 C 62.1771 -1.80429 -0.726331 0
M  V30 670 O 61.4321 -1.2 -1.54591 0
M  V30 671 C 61.7311 -3.38082 1.15911 0
M  V30 672 C 61.3971 -3.66114 2.63195 0
M  V30 673 C 60.0591 -3.73474 3.03432 0
M  V30 674 C 62.4111 -3.78398 3.5842 0
M  V30 675 C 59.7391 -3.90599 4.37778 0
M  V30 676 C 62.0911 -3.97039 4.92487 0
M  V30 677 C 60.7551 -4.02635 5.32392 0
M  V30 678 H 60.0251 -0.688883 0.272987 0
M  V30 679 H 62.6721 -1.3995 1.30715 0
M  V30 680 H 60.9771 -3.88377 0.516806 0
M  V30 681 H 62.6741 -3.90596 0.907516 0
M  V30 682 H 59.2641 -3.61003 2.3103 0
M  V30 683 H 63.4481 -3.72042 3.28479 0
M  V30 684 H 58.7041 -3.93175 4.68213 0
M  V30 685 H 62.8781 -4.05486 5.66175 0
M  V30 686 H 60.5051 -4.15657 6.36501 0
M  V30 687 N 62.0802 -0.821533 -1.34494 0
M  V30 688 C 63.3292 -0.405355 -1.97585 0
M  V30 689 C 63.6422 1.03677 -1.65863 0
M  V30 690 O 64.8482 1.55679 -2.22433 0
M  V30 691 C 63.3042 -0.673861 -3.53535 0
M  V30 692 C 62.9122 -2.12951 -3.94152 0
M  V30 693 C 64.6562 -0.32378 -4.23263 0
M  V30 694 C 62.5632 -2.34298 -5.43009 0
M  V30 695 H 61.4932 -0.147836 -0.739365 0
M  V30 696 H 64.1442 -1.00769 -1.53355 0
M  V30 697 H 62.5262 -0.00137554 -3.96 0
M  V30 698 H 63.7002 -2.84104 -3.62797 0
M  V30 699 H 62.0152 -2.44089 -3.37356 0
M  V30 700 H 64.6122 -0.461126 -5.32708 0
M  V30 701 H 64.9552 0.731586 -4.09821 0
M  V30 702 H 65.4882 -0.950786 -3.8627 0
M  V30 703 H 62.2272 -3.38335 -5.61435 0
M  V30 704 H 61.7472 -1.67687 -5.75883 0
M  V30 705 H 63.4262 -2.16588 -6.09671 0
M  V30 706 N 63.5583 1.46682 -0.576371 0
M  V30 707 C 64.9693 1.86112 -0.148091 0
M  V30 708 C 65.3203 1.48073 1.2872 0
M  V30 709 O 64.4453 0.892656 1.97131 0
M  V30 710 C 65.0403 3.37786 -0.261982 0
M  V30 711 C 63.5993 3.76235 0.111384 0
M  V30 712 C 62.7463 2.70713 -0.60083 0
M  V30 713 H 65.6973 1.37927 -0.78497 0
M  V30 714 H 65.7183 3.77007 0.514364 0
M  V30 715 H 65.2303 3.6544 -1.30671 0
M  V30 716 H 63.3313 3.54198 1.15649 0
M  V30 717 H 63.4443 4.78391 -0.26052 0
M  V30 718 H 61.8083 2.54666 -0.0417783 0
M  V30 719 H 62.5913 3.01208 -1.64708 0
M  V30 720 N 65.0364 0.313813 1.54444 0
M  V30 721 C 66.2854 -0.292519 1.99568 0
M  V30 722 C 66.5984 -1.54011 1.20582 0
M  V30 723 O 67.8044 -2.22183 1.56035 0
M  V30 724 C 66.2604 -0.571752 3.55329 0
M  V30 725 C 65.8684 0.658229 4.43138 0
M  V30 726 C 67.6124 -1.13857 4.08946 0
M  V30 727 C 65.5194 0.351439 5.90355 0
M  V30 728 H 64.4494 -0.113079 0.745472 0
M  V30 729 H 67.1004 0.424518 1.78522 0
M  V30 730 H 65.4824 -1.34872 3.72325 0
M  V30 731 H 66.6564 1.43403 4.37918 0
M  V30 732 H 64.9714 1.14458 4.0036 0
M  V30 733 H 67.5684 -1.38257 5.16516 0
M  V30 734 H 67.9114 -2.08489 3.6033 0
M  V30 735 H 68.4444 -0.423015 3.95544 0
M  V30 736 H 65.1834 1.26667 6.43145 0
M  V30 737 H 64.7034 -0.386842 5.98551 0
M  V30 738 H 66.3824 -0.0423134 6.46986 0
M  V30 739 N 66.5145 -1.57545 0.0417849 0
M  V30 740 C 67.7605 -1.93424 -0.629168 0
M  V30 741 C 68.1155 -0.919564 -1.69002 0
M  V30 742 O 67.4085 0.0626178 -1.91498 0
M  V30 743 C 67.6025 -3.33794 -1.27735 0
M  V30 744 C 67.4315 -4.48822 -0.280806 0
M  V30 745 C 66.2015 -5.05148 0.123869 0
M  V30 746 C 68.3995 -5.12148 0.470012 0
M  V30 747 N 66.3815 -6.03703 1.11426 0
M  V30 748 C 67.7525 -6.05921 1.31377 0
M  V30 749 C 69.8075 -4.95078 0.529343 0
M  V30 750 C 68.5105 -6.84459 2.21152 0
M  V30 751 C 70.5365 -5.74235 1.41448 0
M  V30 752 C 69.8985 -6.67634 2.24598 0
M  V30 753 H 65.9975 -0.755418 -0.202158 0
M  V30 754 H 68.5815 -1.94378 0.111923 0
M  V30 755 H 66.7525 -3.33635 -1.98852 0
M  V30 756 H 68.4845 -3.56988 -1.90635 0
M  V30 757 H 65.2395 -4.72923 -0.253178 0
M  V30 758 H 65.6635 -6.57674 1.60607 0
M  V30 759 H 70.3055 -4.22683 -0.0992798 0
M  V30 760 H 68.0235 -7.56151 2.85063 0
M  V30 761 H 71.6095 -5.63057 1.46484 0
M  V30 762 H 70.4895 -7.27817 2.9198 0
M  V30 763 N 67.9926 0.231505 -1.5589 0
M  V30 764 C 69.2176 0.978689 -1.82856 0
M  V30 765 C 69.6426 1.77559 -0.620846 0
M  V30 766 O 69.0006 1.76119 0.430305 0
M  V30 767 C 69.0486 1.87997 -3.07716 0
M  V30 768 O 68.1526 2.97393 -2.85712 0
M  V30 769 H 67.4936 0.277663 -0.603158 0
M  V30 770 H 70.0236 0.24783 -2.03093 0
M  V30 771 H 70.0336 2.2917 -3.37558 0
M  V30 772 H 68.7086 1.29417 -3.95252 0
M  V30 773 H 67.2856 2.60238 -2.67078 0
M  V30 774 N 69.4707 1.49531 0.497807 0
M  V30 775 C 70.7187 1.58865 1.24926 0
M  V30 776 C 71.0397 0.278721 1.92998 0
M  V30 777 O 70.3097 -0.702144 1.82885 0
M  V30 778 H 68.8897 0.585343 0.464094 0
M  V30 779 H 71.5517 1.86174 0.57666 0
M  V30 780 H 70.6477 2.38633 2.01149 0
M  V30 781 N 70.9488 -0.749086 1.3866 0
M  V30 782 C 71.8788 -1.8764 1.38973 0
M  V30 783 C 72.8598 -1.68178 0.255004 0
M  V30 784 O 74.0448 -1.88704 0.458754 0
M  V30 785 C 71.1748 -3.25222 1.21851 0
M  V30 786 C 70.1288 -3.59295 2.32575 0
M  V30 787 C 69.4548 -4.95663 2.00555 0
M  V30 788 C 70.7548 -3.63709 3.7485 0
M  V30 789 H 72.4488 -1.87635 2.3331 0
M  V30 790 H 69.9948 -0.901329 1.12303 0
M  V30 791 H 71.9478 -4.03746 1.20695 0
M  V30 792 H 70.6718 -3.25719 0.239775 0
M  V30 793 H 69.3308 -2.83093 2.32925 0
M  V30 794 H 68.9788 -4.92724 1.01154 0
M  V30 795 H 68.6788 -5.19429 2.74714 0
M  V30 796 H 70.2028 -5.7656 2.01024 0
M  V30 797 H 71.6168 -4.32338 3.76506 0
M  V30 798 H 70.0138 -3.98986 4.48252 0
M  V30 799 H 71.0838 -2.63834 4.06841 0
M  V30 800 N 72.4269 -1.23603 -0.977757 0
M  V30 801 C 73.3899 -1.02069 -2.05218 0
M  V30 802 C 74.3899 0.0184305 -1.60789 0
M  V30 803 O 75.5799 -0.221569 -1.72785 0
M  V30 804 C 72.7119 -0.544926 -3.36517 0
M  V30 805 H 73.9049 -1.9742 -2.25755 0
M  V30 806 H 71.4579 -1.05684 -1.15155 0
M  V30 807 H 72.1929 0.412241 -3.21669 0
M  V30 808 H 71.9779 -1.2948 -3.70105 0
M  V30 809 H 73.4679 -0.414985 -4.15533 0
M  V30 810 N 73.905 1.17692 -1.04816 0
M  V30 811 C 75.135 1.91508 -0.775128 0
M  V30 812 C 75.543 1.76844 0.67253 0
M  V30 813 O 74.886 1.10057 1.47082 0
M  V30 814 C 74.948 3.43167 -1.0713 0
M  V30 815 C 74.612 3.81612 -2.51438 0
M  V30 816 C 75.609 3.84772 -3.49638 0
M  V30 817 C 73.294 4.12687 -2.86348 0
M  V30 818 C 75.288 4.18469 -4.80794 0
M  V30 819 C 72.975 4.46053 -4.17708 0
M  V30 820 C 73.973 4.48921 -5.14741 0
M  V30 821 O 73.661 4.81504 -6.43746 0
M  V30 822 H 73.393 0.614575 -0.281555 0
M  V30 823 H 75.947 1.50206 -1.40098 0
M  V30 824 H 74.177 3.84745 -0.388342 0
M  V30 825 H 75.866 3.98239 -0.784883 0
M  V30 826 H 76.632 3.60893 -3.24008 0
M  V30 827 H 72.511 4.09627 -2.11486 0
M  V30 828 H 76.055 4.20623 -5.56527 0
M  V30 829 H 71.952 4.69393 -4.43103 0
M  V30 830 H 72.72 4.99377 -6.4851 0
M  V30 831 N 75.3831 0.828654 1.34056 0
M  V30 832 C 76.3161 0.199763 2.27324 0
M  V30 833 C 77.2941 -0.647168 1.49166 0
M  V30 834 O 78.4781 -0.609661 1.78369 0
M  V30 835 C 75.6051 -0.720455 3.30949 0
M  V30 836 C 74.6511 0.0496888 4.26471 0
M  V30 837 S 75.4841 1.40072 5.16856 0
M  V30 838 C 76.6401 0.485527 6.24014 0
M  V30 839 H 76.8731 0.990478 2.80316 0
M  V30 840 H 74.4061 0.624857 1.41191 0
M  V30 841 H 76.3641 -1.24581 3.91139 0
M  V30 842 H 75.0251 -1.48474 2.76793 0
M  V30 843 H 74.2181 -0.650104 4.9979 0
M  V30 844 H 73.8201 0.505779 3.70564 0
M  V30 845 H 76.1121 -0.320672 6.76741 0
M  V30 846 H 77.0551 1.18856 6.98054 0
M  V30 847 H 77.4631 0.0714109 5.64455 0
M  V30 848 N 76.8612 -1.46375 0.584142 0
M  V30 849 C 77.8242 -2.28784 -0.138108 0
M  V30 850 C 78.8242 -1.38471 -0.817462 0
M  V30 851 O 80.0142 -1.60833 -0.669199 0
M  V30 852 C 77.1462 -3.18892 -1.20503 0
M  V30 853 H 78.3392 -2.94117 0.586127 0
M  V30 854 H 75.8922 -1.52509 0.342171 0
M  V30 855 H 76.6272 -2.58309 -1.96079 0
M  V30 856 H 76.4122 -3.85388 -0.722384 0
M  V30 857 H 77.9022 -3.80914 -1.71155 0
M  V30 858 N 78.3393 -0.321999 -1.54275 0
M  V30 859 C 79.2723 0.58718 -2.20516 0
M  V30 860 C 80.2503 1.11693 -1.18167 0
M  V30 861 O 81.4343 1.18122 -1.46899 0
M  V30 862 C 78.5613 1.80554 -2.86562 0
M  V30 863 C 77.6073 1.40718 -4.02617 0
M  V30 864 S 78.4403 0.445218 -5.33646 0
M  V30 865 C 79.5963 1.6709 -6.03185 0
M  V30 866 H 79.8293 0.0244875 -2.9729 0
M  V30 867 H 77.3623 -0.106087 -1.54035 0
M  V30 868 H 79.3203 2.50462 -3.25237 0
M  V30 869 H 77.9813 2.33942 -2.09595 0
M  V30 870 H 77.1743 2.31501 -4.47687 0
M  V30 871 H 76.7763 0.78782 -3.65608 0
M  V30 872 H 79.0683 2.60856 -6.25268 0
M  V30 873 H 80.0113 1.26239 -6.96756 0
M  V30 874 H 80.4193 1.85716 -5.33076 0
M  V30 875 N 79.8174 1.5752 -0.0501392 0
M  V30 876 C 80.7804 2.1037 0.909786 0
M  V30 877 C 81.7804 1.02308 1.24056 0
M  V30 878 O 82.9704 1.28385 1.17741 0
M  V30 879 C 80.1024 2.58708 2.21998 0
M  V30 880 H 81.2954 2.96479 0.451665 0
M  V30 881 H 78.8484 1.55038 0.198248 0
M  V30 882 H 79.5834 1.75989 2.72394 0
M  V30 883 H 79.3684 3.37675 1.99295 0
M  V30 884 H 80.8584 2.99747 2.9076 0
M  V30 885 N 81.2955 -0.223234 1.56011 0
M  V30 886 C 82.5445 -0.945912 1.78144 0
M  V30 887 C 82.8575 -1.85567 0.618396 0
M  V30 888 O 84.0635 -2.61688 0.723318 0
M  V30 889 C 82.5195 -1.73216 3.15475 0
M  V30 890 C 82.1275 -0.868619 4.39499 0
M  V30 891 C 83.8715 -2.44615 3.46935 0
M  V30 892 C 81.7785 -1.65212 5.67855 0
M  V30 893 H 80.7085 -0.356929 0.664167 0
M  V30 894 H 83.3595 -0.199845 1.82409 0
M  V30 895 H 81.7415 -2.52107 3.05382 0
M  V30 896 H 82.9155 -0.120366 4.60643 0
M  V30 897 H 81.2305 -0.26683 4.15544 0
M  V30 898 H 83.8275 -3.03732 4.40058 0
M  V30 899 H 84.1705 -3.17417 2.69355 0
M  V30 900 H 84.7035 -1.72715 3.58349 0
M  V30 901 H 81.4425 -0.967407 6.48322 0
M  V30 902 H 80.9625 -2.37503 5.50774 0
M  V30 903 H 82.6415 -2.21322 6.07968 0
M  V30 904 N 82.7736 -1.49793 -0.48987 0
M  V30 905 C 84.0506 -1.50348 -1.25119 0
M  V30 906 C 84.4306 -0.237466 -2.0976 0
M  V30 907 O 83.7786 0.77981 -2.14782 0
M  V30 908 C 83.9886 -2.78872 -2.09837 0
M  V30 909 C 85.3366 -3.288 -2.68655 0
M  V30 910 O 86.3606 -2.80065 -2.20096 0
M  V30 911 O 85.2196 -4.13707 -3.57083 0
M  V30 912 H 82.3136 -0.602242 -0.566775 0
M  V30 913 H 84.8596 -1.62067 -0.503229 0
M  V30 914 H 83.6316 -3.62499 -1.47343 0
M  V30 915 H 83.2546 -2.70066 -2.91805 0
M  V30 916 N 84.2517 0.741722 -1.39055 0
M  V30 917 C 85.1837 1.8657 -1.33133 0
M  V30 918 C 86.1967 1.61001 -0.241329 0
M  V30 919 O 87.3857 1.7136 -0.499784 0
M  V30 920 C 84.4857 3.22457 -1.04283 0
M  V30 921 C 83.6587 3.75435 -2.24427 0
M  V30 922 C 82.7177 4.89867 -1.92138 0
M  V30 923 O 81.7437 5.03879 -2.64754 0
M  V30 924 N 82.9457 5.73738 -0.88347 0
M  V30 925 H 85.7107 1.92156 -2.29991 0
M  V30 926 H 83.2717 0.922172 -1.3307 0
M  V30 927 H 85.2637 3.9657 -0.807128 0
M  V30 928 H 83.8337 3.12181 -0.161807 0
M  V30 929 H 83.0537 2.92751 -2.6399 0
M  V30 930 H 84.3417 4.07563 -3.04581 0
M  V30 931 H 83.7397 5.64999 -0.281517 0
M  V30 932 H 82.2967 6.47947 -0.707662 0
M  V30 933 N 85.7298 1.2412 0.971189 0
M  V30 934 C 86.9778 1.07668 1.71032 0
M  V30 935 C 87.2988 -0.385797 1.91146 0
M  V30 936 O 86.5688 -1.27569 1.4867 0
M  V30 937 H 85.1488 0.395429 0.633755 0
M  V30 938 H 87.8108 1.55984 1.16855 0
M  V30 939 H 86.9068 1.57195 2.69622 0
M  V30 940 N 87.2079 -1.17134 1.05439 0
M  V30 941 C 88.1549 -2.21235 0.657539 0
M  V30 942 C 89.1249 -1.62551 -0.341543 0
M  V30 943 O 90.3099 -1.89379 -0.232393 0
M  V30 944 C 87.4499 -3.45076 0.0410575 0
M  V30 945 C 86.5629 -4.18042 1.08927 0
M  V30 946 C 85.6979 -5.29376 0.439848 0
M  V30 947 C 84.7369 -5.94132 1.4722 0
M  V30 948 N 83.8739 -6.96975 0.846756 0
M  V30 949 H 88.7139 -2.54534 1.54972 0
M  V30 950 H 86.2509 -1.25028 0.775006 0
M  V30 951 H 88.2089 -4.15862 -0.33383 0
M  V30 952 H 86.8389 -3.12353 -0.814568 0
M  V30 953 H 85.8909 -3.45945 1.58196 0
M  V30 954 H 87.2029 -4.62306 1.87282 0
M  V30 955 H 86.3569 -6.06699 0.0115125 0
M  V30 956 H 85.0959 -4.86251 -0.375656 0
M  V30 957 H 84.1009 -5.15538 1.91052 0
M  V30 958 H 85.3259 -6.39337 2.28965 0
M  V30 959 H 83.2719 -6.5598 0.0518075 0
M  V30 960 H 83.1889 -7.39565 1.5678 0
M  V30 961 H 84.4569 -7.78239 0.443277 0
M  V30 962 N 88.686 -0.835752 -1.33615 0
M  V30 963 C 89.932 -0.430596 -1.98176 0
M  V30 964 C 90.265 1.00684 -1.66061 0
M  V30 965 O 89.54 1.70339 -0.938877 0
M  V30 966 C 89.823 -0.648065 -3.5422 0
M  V30 967 C 89.676 -2.13255 -3.96033 0
M  V30 968 C 90.995 -0.0922113 -4.40003 0
M  V30 969 H 88.114 -0.157924 -0.719881 0
M  V30 970 H 90.756 -1.05069 -1.58305 0
M  V30 971 H 88.906 -0.120237 -3.88314 0
M  V30 972 H 90.578 -2.725 -3.72211 0
M  V30 973 H 88.821 -2.61823 -3.45878 0
M  V30 974 H 89.492 -2.23547 -5.04708 0
M  V30 975 H 91.968 -0.543343 -4.12537 0
M  V30 976 H 90.844 -0.274083 -5.48215 0
M  V30 977 H 91.105 1.00378 -4.30554 0
M  V30 978 N 90.1641 1.46063 -0.591896 0
M  V30 979 C 91.0741 2.34192 0.13831 0
M  V30 980 C 92.0901 1.50305 0.876608 0
M  V30 981 O 93.2661 1.8315 0.837728 0
M  V30 982 C 90.3311 3.27656 1.13326 0
M  V30 983 C 89.3921 4.27445 0.39863 0
M  V30 984 C 88.6251 5.16443 1.34618 0
M  V30 985 O 88.8481 5.08553 2.58321 0
M  V30 986 O 87.7821 5.95843 0.851768 0
M  V30 987 H 91.6081 2.98002 -0.58552 0
M  V30 988 H 89.1931 1.45188 -0.352239 0
M  V30 989 H 91.0751 3.85291 1.70671 0
M  V30 990 H 89.7501 2.6643 1.83839 0
M  V30 991 H 88.6571 3.73471 -0.216895 0
M  V30 992 H 89.9901 4.91482 -0.265709 0
M  V30 993 N 91.6422 0.330177 1.54103 0
M  V30 994 C 92.6052 -0.520144 2.2322 0
M  V30 995 C 93.6052 -1.03828 1.22786 0
M  V30 996 O 94.7952 -0.929652 1.4732 0
M  V30 997 C 91.9272 -1.72317 2.94142 0
M  V30 998 H 93.1202 0.0841605 2.99782 0
M  V30 999 H 90.6732 0.0813433 1.56088 0
M  V30 1000 H 91.4082 -2.36653 2.21734 0
M  V30 1001 H 91.1932 -1.35898 3.67796 0
M  V30 1002 H 92.6832 -2.3266 3.46784 0
M  V30 1003 N 93.1203 -1.57491 0.0584922 0
M  V30 1004 C 94.0833 -2.1085 -0.898617 0
M  V30 1005 C 95.0833 -1.02964 -1.23511 0
M  V30 1006 O 96.2733 -1.29007 -1.17059 0
M  V30 1007 C 93.4053 -2.59881 -2.20623 0
M  V30 1008 H 94.5983 -2.96715 -0.435936 0
M  V30 1009 H 92.1513 -1.55141 -0.190023 0
M  V30 1010 H 92.8863 -1.77431 -2.71457 0
M  V30 1011 H 92.6713 -3.38727 -1.97501 0
M  V30 1012 H 94.1613 -3.01285 -2.89166 0
M  V30 1013 N 94.5984 0.214957 -1.56127 0
M  V30 1014 C 95.8464 0.936518 -1.79091 0
M  V30 1015 C 96.1674 1.84606 -0.628148 0
M  V30 1016 O 95.4374 1.92664 0.35462 0
M  V30 1017 H 94.0174 0.3488 -0.660566 0
M  V30 1018 H 96.6794 0.22523 -1.93594 0
M  V30 1019 H 95.7754 1.53943 -2.71492 0
M  V30 1020 N 96.0765 1.50051 0.48192 0
M  V30 1021 C 97.0085 1.64263 1.59844 0
M  V30 1022 C 98.0215 0.52451 1.54119 0
M  V30 1023 O 99.2105 0.797293 1.59704 0
M  V30 1024 C 96.3105 1.60102 2.98698 0
M  V30 1025 C 95.4835 2.87767 3.29407 0
M  V30 1026 C 94.5425 2.76397 4.47762 0
M  V30 1027 O 93.5685 3.50348 4.48603 0
M  V30 1028 N 94.7705 1.89222 5.48794 0
M  V30 1029 H 97.5355 2.60566 1.48073 0
M  V30 1030 H 95.0965 1.47379 0.670149 0
M  V30 1031 H 97.0885 1.50123 3.75826 0
M  V30 1032 H 95.6585 0.715798 3.04294 0
M  V30 1033 H 94.8785 3.11954 2.40994 0
M  V30 1034 H 96.1665 3.72365 3.4673 0
M  V30 1035 H 95.5645 1.28434 5.50928 0
M  V30 1036 H 94.1215 1.85154 6.24949 0
M  V30 1037 N 97.5546 -0.734337 1.39446 0
M  V30 1038 C 98.8036 -1.48937 1.36017 0
M  V30 1039 C 99.1166 -1.95557 -0.0409005 0
M  V30 1040 O 100.323 -2.70779 -0.19778 0
M  V30 1041 C 98.7786 -2.69125 2.38955 0
M  V30 1042 C 98.3866 -2.29452 3.8478 0
M  V30 1043 C 100.131 -3.46944 2.44603 0
M  V30 1044 C 98.0376 -3.46366 4.79358 0
M  V30 1045 H 96.9676 -0.559296 0.505672 0
M  V30 1046 H 99.6186 -0.800983 1.65095 0
M  V30 1047 H 98.0006 -3.40041 2.02948 0
M  V30 1048 H 99.1746 -1.66077 4.29831 0
M  V30 1049 H 97.4896 -1.64723 3.82433 0
M  V30 1050 H 100.087 -4.33907 3.12456 0
M  V30 1051 H 100.43 -3.89454 1.47076 0
M  V30 1052 H 100.963 -2.83056 2.79507 0
M  V30 1053 H 97.7016 -3.08905 5.78151 0
M  V30 1054 H 97.2216 -4.08719 4.38986 0
M  V30 1055 H 98.9006 -4.12691 4.98292 0
M  V30 1056 N 99.0327 -1.24633 -0.964593 0
M  V30 1057 C 99.9957 -1.0424 -2.04124 0
M  V30 1058 C 100.996 0.00137563 -1.608 0
M  V30 1059 O 102.186 -0.239883 -1.7254 0
M  V30 1060 C 99.3177 -0.580588 -3.3592 0
M  V30 1061 H 100.511 -1.99803 -2.23649 0
M  V30 1062 H 98.0637 -1.06899 -1.14027 0
M  V30 1063 H 98.7987 0.3781 -3.22088 0
M  V30 1064 H 98.5837 -1.33398 -3.6871 0
M  V30 1065 H 100.074 -0.459034 -4.15069 0
M  V30 1066 N 100.511 1.16574 -1.06058 0
M  V30 1067 C 101.461 2.18854 -0.63929 0
M  V30 1068 C 102.445 1.57505 0.328798 0
M  V30 1069 O 103.637 1.76408 0.144623 0
M  V30 1070 C 100.766 3.43291 -0.0247203 0
M  V30 1071 C 99.8518 4.11722 -1.01716 0
M  V30 1072 N 100.243 4.55841 -2.19186 0
M  V30 1073 C 98.5408 4.37872 -0.847569 0
M  V30 1074 C 99.2418 5.08751 -2.82042 0
M  V30 1075 N 98.2178 5.01489 -2.09784 0
M  V30 1076 H 102.02 2.5068 -1.53417 0
M  V30 1077 H 99.5338 1.32999 -0.931935 0
M  V30 1078 H 101.531 4.15856 0.294915 0
M  V30 1079 H 100.191 3.12954 0.865448 0
M  V30 1080 H 101.202 4.49649 -2.56975 0
M  V30 1081 H 97.8788 4.17499 -0.00918848 0
M  V30 1082 H 99.2688 5.52944 -3.81709 0
M  V30 1083 N 101.989 0.842826 1.3317 0
M  V30 1084 C 103.219 0.453397 2.01564 0
M  V30 1085 C 103.627 -0.951147 1.63554 0
M  V30 1086 O 102.97 -1.63021 0.846746 0
M  V30 1087 C 103.032 0.499013 3.5602 0
M  V30 1088 C 102.696 1.86037 4.1742 0
M  V30 1089 C 103.693 2.82416 4.36506 0
M  V30 1090 C 101.378 2.15428 4.53757 0
M  V30 1091 C 103.372 4.06346 4.91082 0
M  V30 1092 C 101.059 3.39615 5.0804 0
M  V30 1093 C 102.057 4.3489 5.26649 0
M  V30 1094 O 101.745 5.5688 5.79776 0
M  V30 1095 H 101.477 0.177871 0.652179 0
M  V30 1096 H 104.031 1.13808 1.70988 0
M  V30 1097 H 102.261 -0.242467 3.85939 0
M  V30 1098 H 103.95 0.126852 4.05702 0
M  V30 1099 H 104.716 2.6101 4.08777 0
M  V30 1100 H 100.595 1.42061 4.38565 0
M  V30 1101 H 104.139 4.80722 5.05522 0
M  V30 1102 H 100.036 3.60876 5.352 0
M  V30 1103 H 100.804 5.58674 5.98185 0
M  V30 1104 N 103.467 -1.45747 0.599634 0
M  V30 1105 C 104.43 -2.28917 -0.113835 0
M  V30 1106 C 105.43 -1.3933 -0.802729 0
M  V30 1107 O 106.62 -1.61534 -0.652103 0
M  V30 1108 C 103.752 -3.20152 -1.17114 0
M  V30 1109 H 104.945 -2.93478 0.617289 0
M  V30 1110 H 102.498 -1.52137 0.358327 0
M  V30 1111 H 103.233 -2.60374 -1.93329 0
M  V30 1112 H 103.018 -3.86133 -0.681468 0
M  V30 1113 H 104.508 -3.82708 -1.67105 0
M  V30 1114 N 104.945 -0.338344 -1.53925 0
M  V30 1115 C 106.361 0.0137736 -1.59594 0
M  V30 1116 C 106.561 1.49186 -1.35447 0
M  V30 1117 O 105.617 2.24987 -1.14616 0
M  V30 1118 C 106.93 -0.41773 -2.97784 0
M  V30 1119 C 108.478 -0.369633 -3.1081 0
M  V30 1120 C 108.953 -0.776524 -4.51369 0
M  V30 1121 N 110.444 -0.730506 -4.57403 0
M  V30 1122 C 111.179 -1.01736 -5.64303 0
M  V30 1123 N 110.675 -1.3721 -6.79077 0
M  V30 1124 N 112.468 -0.941942 -5.54151 0
M  V30 1125 H 104.619 -1.3012 -1.67876 0
M  V30 1126 H 106.882 -0.530082 -0.78595 0
M  V30 1127 H 106.588 -1.44811 -3.20504 0
M  V30 1128 H 106.462 0.209729 -3.76616 0
M  V30 1129 H 108.849 0.651568 -2.87817 0
M  V30 1130 H 108.93 -1.03223 -2.34049 0
M  V30 1131 H 108.574 -1.79571 -4.75096 0
M  V30 1132 H 108.504 -0.0914649 -5.26521 0
M  V30 1133 H 110.995 -0.468783 -3.74981 0
M  V30 1134 H 111.308 -1.57597 -7.5656 0
M  V30 1135 H 109.653 -1.4105 -6.80536 0
M  V30 1136 H 112.844 -0.664184 -4.63364 0
M  V30 1137 H 113.017 -1.16884 -6.37371 0
M  V30 1138 N 106.423 1.57458 -0.0668435 0
M  V30 1139 C 107.653 1.97337 0.611677 0
M  V30 1140 C 108.061 0.943744 1.63982 0
M  V30 1141 O 107.404 -0.0785584 1.83532 0
M  V30 1142 C 107.466 3.33511 1.34205 0
M  V30 1143 C 107.13 4.54598 0.467941 0
M  V30 1144 C 108.127 5.19186 -0.272439 0
M  V30 1145 C 105.812 5.0075 0.39427 0
M  V30 1146 C 107.806 6.28274 -1.07476 0
M  V30 1147 C 105.493 6.09711 -0.411729 0
M  V30 1148 C 106.491 6.73335 -1.14492 0
M  V30 1149 O 106.179 7.80199 -1.93763 0
M  V30 1150 H 105.911 0.654042 0.170893 0
M  V30 1151 H 108.465 2.04961 -0.134289 0
M  V30 1152 H 106.695 3.22487 2.13398 0
M  V30 1153 H 108.384 3.58029 1.91233 0
M  V30 1154 H 109.15 4.84477 -0.225086 0
M  V30 1155 H 105.029 4.51009 0.954569 0
M  V30 1156 H 108.573 6.77866 -1.64755 0
M  V30 1157 H 104.47 6.43854 -0.460664 0
M  V30 1158 H 105.238 7.97053 -1.86142 0
M  V30 1159 N 107.901 -0.206675 1.56239 0
M  V30 1160 C 109.15 -0.926964 1.79138 0
M  V30 1161 C 109.463 -1.84901 0.638043 0
M  V30 1162 O 110.669 -2.60906 0.751033 0
M  V30 1163 C 109.125 -1.6986 3.17294 0
M  V30 1164 C 108.733 -0.821956 4.40395 0
M  V30 1165 C 110.477 -2.40922 3.4951 0
M  V30 1166 C 108.384 -1.59179 5.69575 0
M  V30 1167 H 107.314 -0.349864 0.667915 0
M  V30 1168 H 109.965 -0.180487 1.8261 0
M  V30 1169 H 108.347 -2.48853 3.08039 0
M  V30 1170 H 109.521 -0.0715019 4.60745 0
M  V30 1171 H 107.836 -0.222741 4.15804 0
M  V30 1172 H 110.433 -2.99047 4.43255 0
M  V30 1173 H 110.776 -3.14542 2.72707 0
M  V30 1174 H 111.309 -1.68905 3.60161 0
M  V30 1175 H 108.048 -0.898589 6.49312 0
M  V30 1176 H 107.568 -2.31648 5.53262 0
M  V30 1177 H 109.247 -2.14862 6.10281 0
M  V30 1178 N 109.379 -1.50304 -0.473955 0
M  V30 1179 C 110.656 -1.51667 -1.23518 0
M  V30 1180 C 111.036 -0.259701 -2.09496 0
M  V30 1181 O 110.384 0.756986 -2.15597 0
M  V30 1182 C 110.594 -2.81082 -2.06868 0
M  V30 1183 C 111.942 -3.31631 -2.65153 0
M  V30 1184 O 112.966 -2.82384 -2.17113 0
M  V30 1185 O 111.825 -4.17471 -3.52675 0
M  V30 1186 H 108.919 -0.60822 -0.560355 0
M  V30 1187 H 111.465 -1.62592 -0.486011 0
M  V30 1188 H 110.237 -3.64041 -1.4349 0
M  V30 1189 H 109.86 -2.73146 -2.88924 0
M  V30 1190 N 110.857 0.726932 -1.39834 0
M  V30 1191 C 112.103 1.48771 -1.38704 0
M  V30 1192 C 112.458 1.92394 0.0146387 0
M  V30 1193 O 111.751 1.64474 0.982797 0
M  V30 1194 C 111.945 2.73495 -2.30077 0
M  V30 1195 C 111.774 2.42068 -3.78989 0
M  V30 1196 C 110.544 2.33966 -4.4787 0
M  V30 1197 C 112.742 2.0708 -4.70768 0
M  V30 1198 N 110.724 1.95095 -5.82075 0
M  V30 1199 C 112.095 1.78719 -5.93683 0
M  V30 1200 C 114.15 1.93618 -4.58712 0
M  V30 1201 C 112.853 1.3825 -7.05889 0
M  V30 1202 C 114.879 1.54553 -5.70848 0
M  V30 1203 C 114.241 1.27082 -6.92842 0
M  V30 1204 H 110.34 0.542919 -0.562817 0
M  V30 1205 H 112.924 0.84408 -1.75452 0
M  V30 1206 H 111.095 3.35625 -1.95474 0
M  V30 1207 H 112.827 3.39755 -2.19883 0
M  V30 1208 H 109.582 2.51331 -4.0141 0
M  V30 1209 H 110.006 1.7823 -6.53118 0
M  V30 1210 H 114.648 2.13522 -3.64922 0
M  V30 1211 H 112.366 1.17088 -7.99572 0
M  V30 1212 H 115.952 1.44731 -5.6351 0
M  V30 1213 H 114.832 0.973069 -7.78139 0
M  V30 1214 N 112.336 1.25143 0.95797 0
M  V30 1215 C 113.269 0.995565 2.05338 0
M  V30 1216 C 114.247 -0.0740423 1.62431 0
M  V30 1217 O 115.431 0.0649212 1.88388 0
M  V30 1218 C 112.558 0.504298 3.34925 0
M  V30 1219 C 111.604 1.56393 3.96792 0
M  V30 1220 S 112.437 3.14815 4.33188 0
M  V30 1221 C 113.593 2.67415 5.65898 0
M  V30 1222 H 113.826 1.92309 2.26726 0
M  V30 1223 H 111.359 1.08635 1.09716 0
M  V30 1224 H 113.317 0.227497 4.09869 0
M  V30 1225 H 111.978 -0.402671 3.11508 0
M  V30 1226 H 111.171 1.17082 4.90212 0
M  V30 1227 H 110.773 1.79124 3.28315 0
M  V30 1228 H 113.065 2.10833 6.4386 0
M  V30 1229 H 114.008 3.59463 6.10076 0
M  V30 1230 H 114.416 2.07521 5.24972 0
M  V30 1231 N 113.814 -1.1601 1.06675 0
M  V30 1232 C 115.06 -1.86909 0.786945 0
M  V30 1233 C 115.393 -1.81717 -0.685018 0
M  V30 1234 O 114.668 -1.23551 -1.50218 0
M  V30 1235 C 114.951 -3.36313 1.28707 0
M  V30 1236 C 114.804 -3.50175 2.82308 0
M  V30 1237 C 116.123 -4.3084 0.898071 0
M  V30 1238 H 113.242 -0.678677 0.287343 0
M  V30 1239 H 115.884 -1.36336 1.32334 0
M  V30 1240 H 114.034 -3.79513 0.830768 0
M  V30 1241 H 115.706 -3.15886 3.36175 0
M  V30 1242 H 113.949 -2.91959 3.20847 0
M  V30 1243 H 114.62 -4.55116 3.12368 0
M  V30 1244 H 117.096 -3.95561 1.29114 0
M  V30 1245 H 115.972 -5.33876 1.27543 0
M  V30 1246 H 116.233 -4.41662 -0.196651 0
M  V30 1247 N 115.292 -0.849877 -1.32721 0
M  V30 1248 C 116.52 -0.464754 -2.01613 0
M  V30 1249 C 116.935 0.937191 -1.63897 0
M  V30 1250 O 116.292 1.61081 -0.857856 0
M  V30 1251 C 116.343 -0.588638 -3.56675 0
M  V30 1252 O 116.064 -1.93535 -3.93034 0
M  V30 1253 C 117.565 -0.2019 -4.4284 0
M  V30 1254 H 114.785 -0.183215 -0.645502 0
M  V30 1255 H 117.329 -1.1455 -1.69407 0
M  V30 1256 H 115.484 0.0443159 -3.87375 0
M  V30 1257 H 115.898 -1.92871 -4.87751 0
M  V30 1258 H 117.372 -0.339599 -5.50954 0
M  V30 1259 H 117.849 0.857224 -4.30753 0
M  V30 1260 H 118.455 -0.809733 -4.17521 0
M  V30 1261 N 116.77 1.45427 -0.607355 0
M  V30 1262 C 117.998 2.06614 -0.108814 0
M  V30 1263 C 118.413 1.45204 1.2067 0
M  V30 1264 O 117.77 0.566132 1.73497 0
M  V30 1265 C 117.821 3.61481 0.0375347 0
M  V30 1266 O 117.542 4.20598 -1.22593 0
M  V30 1267 C 119.043 4.39652 0.567561 0
M  V30 1268 H 116.263 0.66747 -0.0687351 0
M  V30 1269 H 118.807 1.86675 -0.835022 0
M  V30 1270 H 116.962 3.80762 0.714068 0
M  V30 1271 H 117.376 5.1377 -1.05547 0
M  V30 1272 H 118.85 5.48518 0.61905 0
M  V30 1273 H 119.327 4.09417 1.58978 0
M  V30 1274 H 119.933 4.25234 -0.0749202 0
M  V30 1275 N 118.248 0.346503 1.53744 0
M  V30 1276 C 119.659 -0.136779 1.86198 0
M  V30 1277 C 120.01 -1.49749 1.26766 0
M  V30 1278 O 119.135 -2.08417 0.582355 0
M  V30 1279 C 119.73 -0.254966 3.37839 0
M  V30 1280 C 118.289 -0.682482 3.70161 0
M  V30 1281 C 117.436 0.181981 2.76702 0
M  V30 1282 H 120.387 0.565994 1.48264 0
M  V30 1283 H 120.408 -1.08195 3.64793 0
M  V30 1284 H 119.92 0.735526 3.81066 0
M  V30 1285 H 118.021 -1.68189 3.3248 0
M  V30 1286 H 118.134 -0.470326 4.76786 0
M  V30 1287 H 116.498 -0.34615 2.52337 0
M  V30 1288 H 117.281 1.16966 3.2276 0
M  V30 1289 N 119.726 -1.57421 0.075193 0
M  V30 1290 C 120.656 -2.15942 -0.888324 0
M  V30 1291 C 121.637 -1.08737 -1.30806 0
M  V30 1292 O 122.822 -1.36787 -1.37851 0
M  V30 1293 C 119.952 -2.72379 -2.1547 0
M  V30 1294 C 118.906 -3.8478 -1.87425 0
M  V30 1295 C 118.232 -4.27834 -3.20721 0
M  V30 1296 C 119.532 -5.08869 -1.17684 0
M  V30 1297 H 121.226 -2.96705 -0.400799 0
M  V30 1298 H 118.772 -1.42723 -0.191342 0
M  V30 1299 H 120.725 -3.11965 -2.83295 0
M  V30 1300 H 119.449 -1.88841 -2.6647 0
M  V30 1301 H 118.108 -3.45703 -1.22004 0
M  V30 1302 H 117.756 -3.41214 -3.6957 0
M  V30 1303 H 117.456 -5.03605 -3.02746 0
M  V30 1304 H 118.98 -4.70039 -3.89738 0
M  V30 1305 H 120.394 -5.4575 -1.75584 0
M  V30 1306 H 118.791 -5.8994 -1.09956 0
M  V30 1307 H 119.861 -4.84648 -0.156453 0
M  V30 1308 N 121.204 0.198386 -1.56346 0
M  V30 1309 C 122.134 1.24865 -1.9731 0
M  V30 1310 C 123.115 1.47651 -0.844576 0
M  V30 1311 O 124.3 1.59444 -1.10866 0
M  V30 1312 C 121.43 2.59358 -2.30977 0
M  V30 1313 C 120.384 2.5119 -3.46537 0
M  V30 1314 C 119.71 3.89926 -3.65871 0
M  V30 1315 C 121.01 2.03977 -4.80823 0
M  V30 1316 H 122.704 0.908252 -2.85291 0
M  V30 1317 H 120.25 0.435462 -1.37258 0
M  V30 1318 H 122.203 3.33011 -2.58228 0
M  V30 1319 H 120.927 2.95132 -1.39874 0
M  V30 1320 H 119.586 1.79993 -3.19371 0
M  V30 1321 H 119.234 4.23046 -2.72105 0
M  V30 1322 H 118.934 3.85336 -4.4361 0
M  V30 1323 H 120.458 4.65205 -3.95495 0
M  V30 1324 H 121.872 2.67386 -5.07127 0
M  V30 1325 H 120.269 2.10397 -5.62008 0
M  V30 1326 H 121.339 0.992861 -4.74626 0
M  V30 1327 N 122.682 1.50554 0.465978 0
M  V30 1328 C 123.612 1.72722 1.57128 0
M  V30 1329 C 124.593 0.576294 1.6004 0
M  V30 1330 O 125.778 0.81598 1.76225 0
M  V30 1331 C 122.908 1.82605 2.95419 0
M  V30 1332 C 121.862 2.97835 3.07373 0
M  V30 1333 C 121.188 2.92867 4.47363 0
M  V30 1334 C 122.488 4.38265 2.84114 0
M  V30 1335 H 124.182 2.65267 1.38829 0
M  V30 1336 H 121.728 1.2765 0.666441 0
M  V30 1337 H 123.681 1.96698 3.72677 0
M  V30 1338 H 122.405 0.866858 3.14886 0
M  V30 1339 H 121.064 2.83401 2.3255 0
M  V30 1340 H 120.712 1.94783 4.63755 0
M  V30 1341 H 120.412 3.70227 4.56296 0
M  V30 1342 H 121.936 3.09015 5.26633 0
M  V30 1343 H 123.35 4.53198 3.51118 0
M  V30 1344 H 121.747 5.17115 3.04487 0
M  V30 1345 H 122.817 4.50281 1.7993 0
M  V30 1346 N 124.16 -0.719506 1.40217 0
M  V30 1347 C 125.09 -1.8465 1.42922 0
M  V30 1348 C 126.071 -1.67599 0.29062 0
M  V30 1349 O 127.256 -1.87688 0.498677 0
M  V30 1350 C 124.386 -3.22565 1.28722 0
M  V30 1351 C 123.34 -3.54281 2.40144 0
M  V30 1352 C 122.666 -4.91298 2.11023 0
M  V30 1353 C 123.966 -3.55676 3.82481 0
M  V30 1354 H 125.66 -1.82644 2.37237 0
M  V30 1355 H 123.206 -0.877305 1.1419 0
M  V30 1356 H 125.159 -4.01095 1.29232 0
M  V30 1357 H 123.883 -3.25137 0.308811 0
M  V30 1358 H 122.542 -2.78088 2.38877 0
M  V30 1359 H 122.19 -4.90468 1.11582 0
M  V30 1360 H 121.89 -5.13485 2.8567 0
M  V30 1361 H 123.414 -5.72166 2.13209 0
M  V30 1362 H 124.828 -4.24254 3.85592 0
M  V30 1363 H 123.225 -3.89388 4.56614 0
M  V30 1364 H 124.295 -2.55144 4.12346 0
M  V30 1365 N 125.638 -1.25649 -0.95132 0
M  V30 1366 C 126.863 -1.13443 -1.73624 0
M  V30 1367 C 127.288 0.307565 -1.85568 0
M  V30 1368 O 126.646 1.22282 -1.33854 0
M  V30 1369 C 126.694 -1.79723 -3.12621 0
M  V30 1370 O 125.798 -1.07912 -3.98031 0
M  V30 1371 H 125.139 -0.395872 -0.533086 0
M  V30 1372 H 127.669 -1.66276 -1.1922 0
M  V30 1373 H 127.679 -1.86141 -3.63064 0
M  V30 1374 H 126.354 -2.84633 -3.03244 0
M  V30 1375 H 124.931 -1.09398 -3.56492 0
M  V30 1376 N 127.117 1.15442 -1.07289 0
M  V30 1377 C 128.047 2.22312 -0.714107 0
M  V30 1378 C 129.028 1.67467 0.298155 0
M  V30 1379 O 130.213 1.93445 0.171048 0
M  V30 1380 C 127.343 3.47124 -0.110448 0
M  V30 1381 C 126.297 4.14926 -1.04979 0
M  V30 1382 C 125.623 5.33807 -0.308924 0
M  V30 1383 C 126.923 4.64762 -2.38314 0
M  V30 1384 H 128.617 2.5258 -1.6076 0
M  V30 1385 H 126.163 1.21404 -0.77441 0
M  V30 1386 H 128.116 4.21124 0.152482 0
M  V30 1387 H 126.84 3.16187 0.81812 0
M  V30 1388 H 125.499 3.42866 -1.29764 0
M  V30 1389 H 125.147 4.99126 0.623084 0
M  V30 1390 H 124.847 5.80113 -0.935036 0
M  V30 1391 H 126.371 6.10576 -0.0537771 0
M  V30 1392 H 127.785 5.30292 -2.1786 0
M  V30 1393 H 126.182 5.21728 -2.96514 0
M  V30 1394 H 127.252 3.80434 -3.00663 0
M  V30 1395 N 128.595 0.856903 1.32268 0
M  V30 1396 C 129.82 0.474569 2.01897 0
M  V30 1397 C 130.245 -0.921766 1.63967 0
M  V30 1398 O 129.603 -1.60589 0.84148 0
M  V30 1399 C 129.651 0.623799 3.55164 0
M  V30 1400 O 128.755 -0.342459 4.10976 0
M  V30 1401 H 128.096 0.190422 0.63611 0
M  V30 1402 H 130.626 1.15672 1.68764 0
M  V30 1403 H 130.636 0.512169 4.04773 0
M  V30 1404 H 129.311 1.64202 3.82113 0
M  V30 1405 H 127.888 -0.18688 3.72431 0
M  V30 1406 N 130.073 -1.45103 0.615059 0
M  V30 1407 C 131.319 -2.03035 0.121804 0
M  V30 1408 C 131.674 -1.47393 -1.23665 0
M  V30 1409 O 130.967 -0.642061 -1.80522 0
M  V30 1410 C 131.161 -3.57386 0.0318797 0
M  V30 1411 C 130.99 -4.28 1.38007 0
M  V30 1412 C 129.76 -4.65624 1.9627 0
M  V30 1413 C 131.958 -4.5948 2.31047 0
M  V30 1414 N 129.94 -5.21132 3.24492 0
M  V30 1415 C 131.311 -5.159 3.43872 0
M  V30 1416 C 133.366 -4.41423 2.30326 0
M  V30 1417 C 132.069 -5.56165 4.5615 0
M  V30 1418 C 134.095 -4.82726 3.41658 0
M  V30 1419 C 133.457 -5.39245 4.53205 0
M  V30 1420 H 129.556 -0.77702 0.0881159 0
M  V30 1421 H 132.14 -1.76819 0.815044 0
M  V30 1422 H 130.311 -3.83247 -0.630599 0
M  V30 1423 H 132.043 -4.01976 -0.468721 0
M  V30 1424 H 128.798 -4.49421 1.49392 0
M  V30 1425 H 129.222 -5.53377 3.90004 0
M  V30 1426 H 133.864 -3.97033 1.45343 0
M  V30 1427 H 131.582 -5.99517 5.41854 0
M  V30 1428 H 135.168 -4.7048 3.42257 0
M  V30 1429 H 134.048 -5.70616 5.37929 0
M  V30 1430 N 131.551 -0.354651 -1.53558 0
M  V30 1431 C 132.779 0.239515 -2.05509 0
M  V30 1432 C 133.194 1.4333 -1.2289 0
M  V30 1433 O 132.551 1.80538 -0.266899 0
M  V30 1434 C 132.602 0.643719 -3.55723 0
M  V30 1435 O 132.323 -0.502602 -4.35207 0
M  V30 1436 C 133.824 1.29743 -4.23889 0
M  V30 1437 H 131.044 0.0442697 -0.669538 0
M  V30 1438 H 133.588 -0.509856 -1.98042 0
M  V30 1439 H 131.743 1.34302 -3.63376 0
M  V30 1440 H 132.157 -0.178172 -5.24197 0
M  V30 1441 H 133.631 1.53091 -5.30346 0
M  V30 1442 H 134.108 2.25441 -3.76926 0
M  V30 1443 H 134.714 0.639865 -4.20459 0
M  V30 1444 N 133.029 1.57378 -0.0835403 0
M  V30 1445 C 133.992 2.12252 0.864959 0
M  V30 1446 C 134.992 1.04916 1.21858 0
M  V30 1447 O 136.182 1.30853 1.14991 0
M  V30 1448 C 133.314 2.63358 2.16461 0
M  V30 1449 H 134.507 2.97371 0.388676 0
M  V30 1450 H 132.06 1.55423 0.165317 0
M  V30 1451 H 132.795 1.81727 2.686 0
M  V30 1452 H 132.58 3.41826 1.92087 0
M  V30 1453 H 134.07 3.05847 2.84337 0
M  V30 1454 N 134.507 -0.190092 1.56449 0
M  V30 1455 C 135.44 -1.26375 1.90012 0
M  V30 1456 C 136.418 -1.43705 0.760765 0
M  V30 1457 O 137.602 -1.59014 1.01226 0
M  V30 1458 C 134.729 -2.62962 2.13468 0
M  V30 1459 C 133.775 -2.62474 3.36169 0
M  V30 1460 S 134.608 -2.13412 4.91137 0
M  V30 1461 C 135.764 -3.51812 5.17667 0
M  V30 1462 H 135.997 -0.977181 2.80782 0
M  V30 1463 H 133.53 -0.393814 1.49293 0
M  V30 1464 H 135.488 -3.41583 2.27664 0
M  V30 1465 H 134.149 -2.88828 1.23439 0
M  V30 1466 H 133.342 -3.62918 3.49723 0
M  V30 1467 H 132.944 -1.91937 3.20992 0
M  V30 1468 H 135.236 -4.47706 5.08494 0
M  V30 1469 H 136.179 -3.43148 6.19399 0
M  V30 1470 H 136.587 -3.46956 4.45288 0
M  V30 1471 N 135.985 -1.50799 -0.457987 0
M  V30 1472 C 136.917 -1.66786 -1.57211 0
M  V30 1473 C 137.93 -0.548962 -1.53265 0
M  V30 1474 O 139.119 -0.8226 -1.58416 0
M  V30 1475 C 136.219 -1.64834 -2.96113 0
M  V30 1476 C 135.392 -2.92971 -3.24787 0
M  V30 1477 C 134.451 -2.83485 -4.43309 0
M  V30 1478 O 133.477 -3.5744 -4.42973 0
M  V30 1479 N 134.679 -1.97929 -5.45714 0
M  V30 1480 H 137.444 -2.62889 -1.43909 0
M  V30 1481 H 135.005 -1.48427 -0.646617 0
M  V30 1482 H 136.997 -1.56084 -3.7339 0
M  V30 1483 H 135.567 -0.764118 -3.03117 0
M  V30 1484 H 134.787 -3.15749 -2.36 0
M  V30 1485 H 136.075 -3.77834 -3.40762 0
M  V30 1486 H 135.473 -1.37182 -5.48815 0
M  V30 1487 H 134.03 -1.95073 -6.21924 0
M  V30 1488 N 137.463 0.71206 -1.40597 0
M  V30 1489 C 138.71 1.47197 -1.39065 0
M  V30 1490 C 139.038 1.94499 0.00583891 0
M  V30 1491 O 138.293 1.68752 0.99102 0
M  V30 1492 C 138.592 2.71039 -2.32965 0
M  V30 1493 C 138.258 2.42484 -3.80148 0
M  V30 1494 C 136.92 2.34406 -4.20247 0
M  V30 1495 C 139.272 2.18598 -4.73143 0
M  V30 1496 C 136.6 2.00516 -5.51371 0
M  V30 1497 C 138.952 1.8622 -6.0457 0
M  V30 1498 C 137.616 1.76626 -6.43708 0
M  V30 1499 H 136.886 0.538634 -0.508876 0
M  V30 1500 H 139.533 0.815325 -1.73276 0
M  V30 1501 H 137.838 3.41558 -1.91951 0
M  V30 1502 H 139.535 3.29138 -2.29061 0
M  V30 1503 H 136.125 2.49659 -3.4838 0
M  V30 1504 H 140.309 2.23793 -4.42979 0
M  V30 1505 H 135.565 1.91628 -5.80593 0
M  V30 1506 H 139.739 1.66752 -6.76141 0
M  V30 1507 H 137.366 1.50133 -7.45228 0
M  V30 1508 N 138.941 1.26152 0.944643 0
M  V30 1509 C 140.19 1.10883 1.68487 0
M  V30 1510 C 140.503 -0.348153 1.92477 0
M  V30 1511 O 141.709 -0.621459 2.64292 0
M  V30 1512 C 140.165 1.93624 3.03377 0
M  V30 1513 C 139.773 3.43875 2.87148 0
M  V30 1514 C 141.517 1.86954 3.81115 0
M  V30 1515 C 139.424 4.18875 4.1749 0
M  V30 1516 H 138.354 0.41135 0.631907 0
M  V30 1517 H 141.005 1.50433 1.05082 0
M  V30 1518 H 139.387 1.46904 3.67743 0
M  V30 1519 H 140.561 3.98338 2.31653 0
M  V30 1520 H 138.876 3.51744 2.22856 0
M  V30 1521 H 141.473 2.40275 4.77673 0
M  V30 1522 H 141.816 0.839518 4.07747 0
M  V30 1523 H 142.349 2.31477 3.23517 0
M  V30 1524 H 139.088 5.22332 3.96043 0
M  V30 1525 H 138.608 3.69193 4.72712 0
M  V30 1526 H 140.287 4.27134 4.85968 0
M  V30 1527 N 140.419 -1.14872 1.07899 0
M  V30 1528 C 141.366 -2.19791 0.704319 0
M  V30 1529 C 142.336 -1.63238 -0.306987 0
M  V30 1530 O 143.521 -1.8983 -0.192171 0
M  V30 1531 C 140.661 -3.44911 0.114244 0
M  V30 1532 C 139.774 -4.15637 1.1777 0
M  V30 1533 C 138.909 -5.28324 0.552037 0
M  V30 1534 C 137.948 -5.90875 1.59789 0
M  V30 1535 N 137.085 -6.95022 0.994404 0
M  V30 1536 H 141.925 -2.5119 1.60336 0
M  V30 1537 H 139.462 -1.23356 0.801352 0
M  V30 1538 H 141.42 -4.16477 -0.245544 0
M  V30 1539 H 140.05 -3.14011 -0.74813 0
M  V30 1540 H 139.102 -3.42512 1.65499 0
M  V30 1541 H 140.414 -4.5823 1.97046 0
M  V30 1542 H 139.568 -6.06538 0.1402 0
M  V30 1543 H 138.307 -4.86939 -0.272431 0
M  V30 1544 H 137.312 -5.11369 2.01945 0
M  V30 1545 H 138.537 -6.34337 2.42474 0
M  V30 1546 H 136.483 -6.55722 0.190939 0
M  V30 1547 H 136.4 -7.36073 1.72432 0
M  V30 1548 H 137.668 -7.77123 0.608253 0
M  V30 1549 N 141.898 -0.863906 -1.31812 0
M  V30 1550 C 142.845 -0.313303 -2.28664 0
M  V30 1551 C 143.815 0.584868 -1.55462 0
M  V30 1552 O 145 0.517805 -1.83639 0
M  V30 1553 C 142.14 0.48441 -3.41683 0
M  V30 1554 C 141.253 -0.440594 -4.29747 0
M  V30 1555 C 140.388 0.370652 -5.29905 0
M  V30 1556 C 139.427 -0.551164 -6.09613 0
M  V30 1557 N 138.564 0.223462 -7.01744 0
M  V30 1558 H 143.404 -1.14444 -2.75148 0
M  V30 1559 H 140.941 -0.575769 -1.35364 0
M  V30 1560 H 142.899 0.962627 -4.05943 0
M  V30 1561 H 141.529 1.28029 -2.96325 0
M  V30 1562 H 140.581 -1.03724 -3.65986 0
M  V30 1563 H 141.893 -1.14767 -4.85417 0
M  V30 1564 H 141.047 0.911638 -5.99812 0
M  V30 1565 H 139.786 1.11105 -4.74876 0
M  V30 1566 H 138.791 -1.10396 -5.38603 0
M  V30 1567 H 140.016 -1.29032 -6.66729 0
M  V30 1568 H 137.962 0.946787 -6.49132 0
M  V30 1569 H 137.879 -0.424399 -7.54808 0
M  V30 1570 H 139.147 0.745876 -7.75923 0
M  V30 1571 N 143.376 1.44774 -0.622745 0
M  V30 1572 C 144.653 1.95522 -0.0551974 0
M  V30 1573 C 145.033 1.5649 1.41683 0
M  V30 1574 O 144.381 0.834848 2.12703 0
M  V30 1575 C 144.591 3.4796 -0.269242 0
M  V30 1576 C 145.939 4.24306 -0.158014 0
M  V30 1577 O 146.963 3.55637 -0.200162 0
M  V30 1578 O 145.822 5.46471 -0.0558693 0
M  V30 1579 H 142.916 0.826556 0.0271015 0
M  V30 1580 H 145.462 1.54866 -0.693864 0
M  V30 1581 H 144.234 3.6939 -1.29099 0
M  V30 1582 H 143.857 3.95543 0.403966 0
M  V30 1583 N 144.854 0.36279 1.53368 0
M  V30 1584 C 146.1 -0.220702 2.02199 0
M  V30 1585 C 146.455 -1.46649 1.24546 0
M  V30 1586 O 145.748 -1.88737 0.32996 0
M  V30 1587 C 145.942 -0.568417 3.52851 0
M  V30 1588 C 145.771 0.642126 4.45092 0
M  V30 1589 C 144.541 1.15335 4.91961 0
M  V30 1590 C 146.739 1.50649 4.91741 0
M  V30 1591 N 144.721 2.3242 5.68202 0
M  V30 1592 C 146.092 2.52404 5.66297 0
M  V30 1593 C 148.147 1.52969 4.73819 0
M  V30 1594 C 146.85 3.56331 6.24836 0
M  V30 1595 C 148.876 2.55789 5.33222 0
M  V30 1596 C 148.238 3.56268 6.07662 0
M  V30 1597 H 144.337 -0.0435508 0.780786 0
M  V30 1598 H 146.921 0.506704 1.87991 0
M  V30 1599 H 145.092 -1.2649 3.67226 0
M  V30 1600 H 146.824 -1.13676 3.88407 0
M  V30 1601 H 143.579 0.718412 4.68119 0
M  V30 1602 H 144.003 2.91591 6.10986 0
M  V30 1603 H 148.645 0.766418 4.15795 0
M  V30 1604 H 146.363 4.33543 6.81958 0
M  V30 1605 H 149.949 2.58435 5.21251 0
M  V30 1606 H 148.829 4.34524 6.52808 0
M  V30 1607 N 146.332 -1.57332 0.0918853 0
M  V30 1608 C 147.56 -1.98574 -0.581048 0
M  V30 1609 C 147.975 -0.970903 -1.61923 0
M  V30 1610 O 147.332 0.0399054 -1.82456 0
M  V30 1611 C 147.383 -3.39872 -1.23164 0
M  V30 1612 O 147.104 -4.37469 -0.234989 0
M  V30 1613 C 148.605 -3.96099 -1.99049 0
M  V30 1614 H 145.825 -0.65261 -0.156018 0
M  V30 1615 H 148.369 -2.0379 0.170225 0
M  V30 1616 H 146.524 -3.35679 -1.93386 0
M  V30 1617 H 146.938 -5.19751 -0.70418 0
M  V30 1618 H 148.412 -4.97127 -2.39934 0
M  V30 1619 H 148.889 -3.3374 -2.85507 0
M  V30 1620 H 149.495 -4.03755 -1.3365 0
M  V30 1621 N 147.81 0.181792 -1.56548 0
M  V30 1622 C 148.74 1.22765 -1.98623 0
M  V30 1623 C 149.721 1.46747 -0.860189 0
M  V30 1624 O 150.906 1.58259 -1.12551 0
M  V30 1625 C 148.036 2.56894 -2.33715 0
M  V30 1626 C 146.99 2.475 -3.49182 0
M  V30 1627 C 146.316 3.86023 -3.69986 0
M  V30 1628 C 147.616 1.98866 -4.82959 0
M  V30 1629 H 149.31 0.877942 -2.86239 0
M  V30 1630 H 146.856 0.42088 -1.37712 0
M  V30 1631 H 148.809 3.30253 -2.61746 0
M  V30 1632 H 147.533 2.93632 -1.42997 0
M  V30 1633 H 146.192 1.76596 -3.21262 0
M  V30 1634 H 145.84 4.20136 -2.76576 0
M  V30 1635 H 145.54 3.80609 -4.47672 0
M  V30 1636 H 147.064 4.60984 -4.00407 0
M  V30 1637 H 148.478 2.61992 -5.09934 0
M  V30 1638 H 146.875 2.04424 -5.64208 0
M  V30 1639 H 147.945 0.942465 -4.75653 0
M  V30 1640 N 149.288 1.51039 0.449983 0
M  V30 1641 C 150.537 1.62317 1.19733 0
M  V30 1642 C 150.85 0.339101 1.92638 0
M  V30 1643 O 152.056 0.331069 2.69474 0
M  V30 1644 C 150.512 2.86608 2.17678 0
M  V30 1645 C 150.12 4.21972 1.50479 0
M  V30 1646 C 151.864 3.07239 2.92924 0
M  V30 1647 C 149.771 5.37426 2.46834 0
M  V30 1648 H 148.701 0.604532 0.450619 0
M  V30 1649 H 151.352 1.77494 0.465625 0
M  V30 1650 H 149.734 2.65037 2.94231 0
M  V30 1651 H 150.908 4.53878 0.795716 0
M  V30 1652 H 149.223 4.07117 0.874344 0
M  V30 1653 H 151.82 3.90668 3.65079 0
M  V30 1654 H 152.163 2.19807 3.5354 0
M  V30 1655 H 152.696 3.29091 2.23481 0
M  V30 1656 H 149.435 6.27079 1.90926 0
M  V30 1657 H 148.955 5.09912 3.15832 0
M  V30 1658 H 150.634 5.68862 3.08228 0
M  V30 1659 N 150.766 -0.704594 1.40972 0
M  V30 1660 C 152.014 -1.46169 1.39568 0
M  V30 1661 C 152.335 -1.95 0.00253745 0
M  V30 1662 O 151.605 -1.71095 -0.954114 0
M  V30 1663 H 150.185 -0.542326 0.513704 0
M  V30 1664 H 152.847 -0.834553 1.76128 0
M  V30 1665 H 151.943 -2.32922 2.07735 0
M  V30 1666 N 152.244 -1.26651 -0.937939 0
M  V30 1667 C 153.491 -1.12387 -1.6845 0
M  V30 1668 C 153.819 0.332208 -1.91642 0
M  V30 1669 O 153.074 1.2602 -1.49725 0
M  V30 1670 C 153.373 -1.84168 -3.06295 0
M  V30 1671 C 153.039 -3.34056 -3.02849 0
M  V30 1672 C 151.701 -3.74942 -3.01616 0
M  V30 1673 C 154.053 -4.29741 -2.9491 0
M  V30 1674 C 151.381 -5.09894 -2.90215 0
M  V30 1675 C 153.733 -5.64738 -2.8505 0
M  V30 1676 C 152.397 -6.0493 -2.82162 0
M  V30 1677 H 151.667 -0.411252 -0.616403 0
M  V30 1678 H 154.314 -1.57134 -1.09459 0
M  V30 1679 H 152.619 -1.319 -3.6893 0
M  V30 1680 H 154.316 -1.70569 -3.62915 0
M  V30 1681 H 150.906 -3.01534 -3.0459 0
M  V30 1682 H 155.09 -3.99133 -2.94969 0
M  V30 1683 H 150.346 -5.40194 -2.86358 0
M  V30 1684 H 154.52 -6.38561 -2.77872 0
M  V30 1685 H 152.147 -7.09457 -2.73084 0
M  V30 1686 N 153.722 1.14298 -1.08507 0
M  V30 1687 C 154.652 2.21542 -0.737646 0
M  V30 1688 C 155.633 1.67773 0.280377 0
M  V30 1689 O 156.818 1.93616 0.150521 0
M  V30 1690 C 153.948 3.46988 -0.147259 0
M  V30 1691 C 152.902 4.13789 -1.09374 0
M  V30 1692 C 152.228 5.33449 -0.365524 0
M  V30 1693 C 153.528 4.62208 -2.4323 0
M  V30 1694 H 155.222 2.5086 -1.6343 0
M  V30 1695 H 152.768 1.20576 -0.787243 0
M  V30 1696 H 154.721 4.21262 0.107808 0
M  V30 1697 H 153.445 3.17037 0.784538 0
M  V30 1698 H 152.104 3.4147 -1.33393 0
M  V30 1699 H 151.752 4.99759 0.57011 0
M  V30 1700 H 151.452 5.79088 -0.996512 0
M  V30 1701 H 152.976 6.10485 -0.118534 0
M  V30 1702 H 154.39 5.27952 -2.23472 0
M  V30 1703 H 152.787 5.18553 -3.02031 0
M  V30 1704 H 153.857 3.77224 -3.04681 0
M  V30 1705 N 155.201 0.870884 1.31352 0
M  V30 1706 C 156.134 0.271983 2.26573 0
M  V30 1707 C 157.112 -0.599385 1.51149 0
M  V30 1708 O 158.296 -0.552605 1.80218 0
M  V30 1709 C 155.423 -0.614801 3.33073 0
M  V30 1710 C 154.469 0.185342 4.26097 0
M  V30 1711 S 155.302 1.56444 5.12138 0
M  V30 1712 C 156.458 0.683807 6.22153 0
M  V30 1713 H 156.691 1.07916 2.77023 0
M  V30 1714 H 154.224 0.669459 1.39132 0
M  V30 1715 H 156.182 -1.12074 3.94905 0
M  V30 1716 H 154.843 -1.39593 2.81376 0
M  V30 1717 H 154.036 -0.490771 5.01605 0
M  V30 1718 H 153.638 0.623415 3.68768 0
M  V30 1719 H 155.93 -0.10521 6.77418 0
M  V30 1720 H 156.873 1.41004 6.93919 0
M  V30 1721 H 157.281 0.250952 5.63942 0
M  V30 1722 N 156.679 -1.44442 0.630414 0
M  V30 1723 C 157.904 -2.06927 0.139944 0
M  V30 1724 C 158.329 -1.46795 -1.17613 0
M  V30 1725 O 157.687 -0.569144 -1.72135 0
M  V30 1726 C 157.735 -3.6058 0.0379581 0
M  V30 1727 O 156.839 -3.99937 -1.0062 0
M  V30 1728 H 156.18 -0.658608 0.0844483 0
M  V30 1729 H 158.71 -1.85327 0.866891 0
M  V30 1730 H 158.72 -4.07714 -0.152856 0
M  V30 1731 H 157.395 -4.03728 0.998809 0
M  V30 1732 H 155.972 -3.64436 -0.79001 0
M  V30 1733 N 158.157 -0.370918 -1.53173 0
M  V30 1734 C 159.385 0.217704 -2.05751 0
M  V30 1735 C 159.8 1.42018 -1.24404 0
M  V30 1736 O 159.157 1.80245 -0.286033 0
M  V30 1737 C 159.208 0.605954 -3.56385 0
M  V30 1738 O 158.929 -0.548734 -4.3465 0
M  V30 1739 C 160.43 1.2524 -4.25241 0
M  V30 1740 H 157.65 0.0371659 -0.66997 0
M  V30 1741 H 160.194 -0.530832 -1.9749 0
M  V30 1742 H 158.349 1.3044 -3.6478 0
M  V30 1743 H 158.763 -0.23376 -5.23979 0
M  V30 1744 H 160.237 1.47458 -5.3194 0
M  V30 1745 H 160.714 2.2143 -3.79296 0
M  V30 1746 H 161.32 0.595233 -4.21114 0
M  V30 1747 N 159.635 1.57281 -0.100228 0
M  V30 1748 C 160.567 2.11342 0.886972 0
M  V30 1749 C 161.58 1.05182 1.24261 0
M  V30 1750 O 162.769 1.32613 1.19483 0
M  V30 1751 C 159.869 2.5825 2.19454 0
M  V30 1752 C 159.042 3.88302 2.01346 0
M  V30 1753 C 158.101 4.21004 3.15661 0
M  V30 1754 O 157.127 4.9014 2.89398 0
M  V30 1755 N 158.329 3.76818 4.41575 0
M  V30 1756 H 161.094 2.96668 0.425216 0
M  V30 1757 H 158.655 1.61678 0.0847334 0
M  V30 1758 H 160.647 2.7717 2.94888 0
M  V30 1759 H 159.217 1.77907 2.57037 0
M  V30 1760 H 158.437 3.7848 1.10212 0
M  V30 1761 H 159.725 4.73375 1.8653 0
M  V30 1762 H 159.123 3.2102 4.65792 0
M  V30 1763 H 157.68 4.00882 5.13942 0
M  V30 1764 N 161.113 -0.173488 1.56642 0
M  V30 1765 C 162.362 -0.888758 1.81063 0
M  V30 1766 C 162.675 -1.83506 0.67712 0
M  V30 1767 O 163.881 -2.59254 0.806206 0
M  V30 1768 C 162.337 -1.63091 3.20826 0
M  V30 1769 C 161.945 -0.728357 4.4204 0
M  V30 1770 C 163.689 -2.33454 3.54541 0
M  V30 1771 C 161.596 -1.47062 5.72823 0
M  V30 1772 H 160.526 -0.335618 0.675186 0
M  V30 1773 H 163.177 -0.141712 1.82952 0
M  V30 1774 H 161.559 -2.42263 3.13248 0
M  V30 1775 H 162.733 0.0262449 4.60793 0
M  V30 1776 H 161.048 -0.134492 4.16183 0
M  V30 1777 H 163.645 -2.89578 4.49498 0
M  V30 1778 H 163.988 -3.08687 2.79317 0
M  V30 1779 H 164.521 -1.61227 3.63663 0
M  V30 1780 H 161.26 -0.760658 6.51072 0
M  V30 1781 H 160.78 -2.1986 5.58052 0
M  V30 1782 H 162.459 -2.01868 6.14702 0
M  V30 1783 N 162.591 -1.51276 -0.441967 0
M  V30 1784 C 163.837 -1.63958 -1.19355 0
M  V30 1785 C 164.17 -0.352543 -1.90973 0
M  V30 1786 O 163.445 0.647627 -1.83401 0
M  V30 1787 C 163.728 -2.83979 -2.21422 0
M  V30 1788 C 163.581 -4.22646 -1.53918 0
M  V30 1789 C 164.9 -2.99521 -3.22451 0
M  V30 1790 H 162.019 -0.596709 -0.432559 0
M  V30 1791 H 164.661 -1.83748 -0.483398 0
M  V30 1792 H 162.811 -2.67237 -2.81987 0
M  V30 1793 H 164.483 -4.51045 -0.967256 0
M  V30 1794 H 162.726 -4.25558 -0.841615 0
M  V30 1795 H 163.397 -5.02609 -2.28229 0
M  V30 1796 H 165.873 -3.14944 -2.71937 0
M  V30 1797 H 164.749 -3.85072 -3.91166 0
M  V30 1798 H 165.01 -2.11391 -3.88287 0
M  V30 1799 N 164.069 0.697108 -1.41344 0
M  V30 1800 C 165.315 1.4593 -1.40827 0
M  V30 1801 C 165.648 1.94193 -0.0167098 0
M  V30 1802 O 164.923 1.69425 0.955263 0
M  V30 1803 C 165.206 2.67229 -2.41373 0
M  V30 1804 C 165.059 2.24741 -3.8963 0
M  V30 1805 C 166.378 3.69423 -2.39196 0
M  V30 1806 H 163.497 0.529303 -0.512842 0
M  V30 1807 H 166.139 0.794112 -1.72609 0
M  V30 1808 H 164.289 3.23982 -2.14401 0
M  V30 1809 H 165.961 1.73327 -4.27499 0
M  V30 1810 H 164.204 1.56542 -4.0457 0
M  V30 1811 H 164.875 3.1177 -4.55525 0
M  V30 1812 H 167.351 3.2234 -2.63128 0
M  V30 1813 H 166.227 4.51907 -3.11563 0
M  V30 1814 H 166.488 4.19012 -1.41001 0
M  V30 1815 N 165.547 1.27147 0.931209 0
M  V30 1816 C 166.796 1.12664 1.67302 0
M  V30 1817 C 167.109 -0.327718 1.92835 0
M  V30 1818 O 168.315 -0.593392 2.64936 0
M  V30 1819 C 166.771 1.9683 3.01307 0
M  V30 1820 C 166.379 3.46901 2.83485 0
M  V30 1821 C 168.123 1.90985 3.79111 0
M  V30 1822 C 166.03 4.23279 4.13024 0
M  V30 1823 H 164.96 0.41803 0.627509 0
M  V30 1824 H 167.611 1.51539 1.03481 0
M  V30 1825 H 165.993 1.50797 3.66164 0
M  V30 1826 H 167.167 4.00773 2.27415 0
M  V30 1827 H 165.482 3.54088 2.19113 0
M  V30 1828 H 168.079 2.45328 4.75098 0
M  V30 1829 H 168.422 0.882718 4.06834 0
M  V30 1830 H 168.955 2.34895 3.21044 0
M  V30 1831 H 165.694 5.26503 3.90481 0
M  V30 1832 H 165.214 3.74186 4.6877 0
M  V30 1833 H 166.893 4.32265 4.81411 0
M  V30 1834 N 167.025 -1.13721 1.09112 0
M  V30 1835 C 168.253 -1.88773 0.846899 0
M  V30 1836 C 168.668 -1.7896 -0.601572 0
M  V30 1837 O 168.025 -1.15394 -1.41388 0
M  V30 1838 C 168.076 -3.3849 1.26913 0
M  V30 1839 O 167.797 -3.48043 2.66079 0
M  V30 1840 C 169.298 -4.30518 1.05682 0
M  V30 1841 H 166.518 -0.59772 0.304914 0
M  V30 1842 H 169.062 -1.43977 1.45227 0
M  V30 1843 H 167.217 -3.80881 0.707723 0
M  V30 1844 H 167.631 -4.4109 2.83795 0
M  V30 1845 H 169.105 -5.3391 1.40156 0
M  V30 1846 H 169.582 -4.392 -0.00563416 0
M  V30 1847 H 170.188 -3.93893 1.60402 0
M  V30 1848 N 168.503 -0.877838 -1.30888 0
M  V30 1849 C 169.728 -0.506629 -2.01117 0
M  V30 1850 C 170.153 0.895564 -1.65412 0
M  V30 1851 O 169.511 1.5923 -0.866922 0
M  V30 1852 C 169.559 -0.680223 -3.54126 0
M  V30 1853 O 168.663 0.277033 -4.11468 0
M  V30 1854 H 168.004 -0.200518 -0.633 0
M  V30 1855 H 170.534 -1.18342 -1.66902 0
M  V30 1856 H 170.544 -0.5765 -4.03907 0
M  V30 1857 H 169.219 -1.70261 -3.79452 0
M  V30 1858 H 167.796 0.127606 -3.72682 0
M  V30 1859 N 169.982 1.44106 -0.638065 0
M  V30 1860 C 171.23 2.01579 -0.145043 0
M  V30 1861 C 171.551 1.50496 1.24 0
M  V30 1862 O 170.821 0.711374 1.82527 0
M  V30 1863 H 169.401 0.745282 -0.05063 0
M  V30 1864 H 172.063 1.76516 -0.826327 0
M  V30 1865 H 171.159 3.11877 -0.118039 0
M  V30 1866 N 171.46 0.379036 1.52974 0
M  V30 1867 C 172.39 -0.452706 2.29069 0
M  V30 1868 C 173.371 -1.07237 1.32039 0
M  V30 1869 O 174.556 -1.08708 1.60923 0
M  V30 1870 C 171.686 -1.5856 3.08992 0
M  V30 1871 C 170.64 -1.0925 4.13822 0
M  V30 1872 C 169.966 -2.31668 4.81907 0
M  V30 1873 C 171.266 -0.167702 5.22031 0
M  V30 1874 H 172.96 0.182181 2.98845 0
M  V30 1875 H 170.506 0.0890592 1.43724 0
M  V30 1876 H 172.459 -2.1742 3.6098 0
M  V30 1877 H 171.183 -2.24792 2.36931 0
M  V30 1878 H 169.842 -0.526494 3.628 0
M  V30 1879 H 169.49 -2.96386 4.06404 0
M  V30 1880 H 169.19 -1.9934 5.52754 0
M  V30 1881 H 170.714 -2.91189 5.36695 0
M  V30 1882 H 172.128 -0.664186 5.6944 0
M  V30 1883 H 170.525 0.0653265 6.00064 0
M  V30 1884 H 171.595 0.786347 4.78482 0
M  V30 1885 N 172.938 -1.57226 0.108567 0
M  V30 1886 C 174.187 -1.94008 -0.551703 0
M  V30 1887 C 174.5 -0.993442 -1.68494 0
M  V30 1888 O 175.706 -1.25551 -2.40726 0
M  V30 1889 C 174.162 -3.44763 -1.03279 0
M  V30 1890 C 173.77 -4.47943 0.0714193 0
M  V30 1891 C 175.514 -3.90483 -1.66503 0
M  V30 1892 C 173.421 -5.89865 -0.425779 0
M  V30 1893 H 172.351 -0.724206 -0.209863 0
M  V30 1894 H 175.002 -1.82547 0.186741 0
M  V30 1895 H 173.384 -3.51422 -1.82533 0
M  V30 1896 H 174.558 -4.52942 0.847365 0
M  V30 1897 H 172.873 -4.11913 0.609669 0
M  V30 1898 H 175.47 -4.93925 -2.04798 0
M  V30 1899 H 175.813 -3.29877 -2.53942 0
M  V30 1900 H 176.346 -3.86581 -0.938074 0
M  V30 1901 H 173.085 -6.54202 0.412316 0
M  V30 1902 H 172.605 -5.88309 -1.16843 0
M  V30 1903 H 174.284 -6.40844 -0.890397 0
M  V30 1904 N 174.416 0.165178 -1.56732 0
M  V30 1905 C 175.379 1.18822 -1.95995 0
M  V30 1906 C 176.379 1.3685 -0.84431 0
M  V30 1907 O 177.569 1.34152 -1.11126 0
M  V30 1908 C 174.701 2.5521 -2.26011 0
M  V30 1909 H 175.894 0.851825 -2.87548 0
M  V30 1910 H 173.447 0.407857 -1.50885 0
M  V30 1911 H 174.182 2.93852 -1.37191 0
M  V30 1912 H 173.967 2.43489 -3.07336 0
M  V30 1913 H 175.457 3.28927 -2.57288 0
M  V30 1914 N 175.894 1.51508 0.433938 0
M  V30 1915 C 177.171 1.54888 1.19453 0
M  V30 1916 C 177.551 0.315154 2.08734 0
M  V30 1917 O 176.899 -0.699558 2.17528 0
M  V30 1918 C 177.109 2.86467 1.99342 0
M  V30 1919 C 178.457 3.38545 2.56267 0
M  V30 1920 O 179.481 2.88041 2.0955 0
M  V30 1921 O 178.34 4.26675 3.41483 0
M  V30 1922 H 175.434 0.622863 0.544032 0
M  V30 1923 H 177.98 1.63823 0.442732 0
M  V30 1924 H 176.752 3.67718 1.33788 0
M  V30 1925 H 176.375 2.8071 2.8158 0
M  V30 1926 N 177.372 -0.689602 1.41712 0
M  V30 1927 C 178.302 -1.81577 1.46806 0
M  V30 1928 C 179.283 -1.66945 0.326105 0
M  V30 1929 O 180.468 -1.86588 0.538377 0
M  V30 1930 C 177.598 -3.19762 1.35535 0
M  V30 1931 C 176.552 -3.49107 2.47605 0
M  V30 1932 C 175.878 -4.86711 2.21397 0
M  V30 1933 C 177.178 -3.47483 3.89939 0
M  V30 1934 H 178.872 -1.7757 2.41058 0
M  V30 1935 H 176.418 -0.852887 1.16025 0
M  V30 1936 H 178.371 -3.98263 1.3771 0
M  V30 1937 H 177.095 -3.24409 0.377708 0
M  V30 1938 H 175.754 -2.72959 2.44722 0
M  V30 1939 H 175.402 -4.8799 1.21961 0
M  V30 1940 H 175.102 -5.0731 2.96497 0
M  V30 1941 H 176.626 -5.67515 2.25297 0
M  V30 1942 H 178.04 -4.1598 3.94505 0
M  V30 1943 H 176.437 -3.79615 4.64771 0
M  V30 1944 H 177.507 -2.46341 4.17665 0
M  V30 1945 N 178.85 -1.27639 -0.924453 0
M  V30 1946 C 180.075 -1.17101 -1.71179 0
M  V30 1947 C 180.5 0.268134 -1.86179 0
M  V30 1948 O 179.858 1.19415 -1.36418 0
M  V30 1949 C 179.906 -1.86313 -3.08739 0
M  V30 1950 O 179.01 -1.16331 -3.95652 0
M  V30 1951 H 178.351 -0.407091 -0.524569 0
M  V30 1952 H 180.881 -1.68767 -1.15666 0
M  V30 1953 H 180.891 -1.938 -3.59034 0
M  V30 1954 H 179.566 -2.91001 -2.97138 0
M  V30 1955 H 178.143 -1.16935 -3.54091 0
M  V30 1956 N 180.328 1.1314 -1.09713 0
M  V30 1957 C 181.238 2.22242 -0.751367 0
M  V30 1958 C 182.254 1.72224 0.247938 0
M  V30 1959 O 183.43 2.01205 0.0885463 0
M  V30 1960 C 180.495 3.46231 -0.180274 0
M  V30 1961 C 179.556 4.11125 -1.2359 0
M  V30 1962 C 178.789 5.29195 -0.691966 0
M  V30 1963 O 179.012 5.68342 0.48414 0
M  V30 1964 O 177.946 5.84214 -1.44838 0
M  V30 1965 H 181.772 2.54197 -1.66186 0
M  V30 1966 H 179.357 1.21331 -0.871735 0
M  V30 1967 H 181.239 4.21185 0.134739 0
M  V30 1968 H 179.914 3.1597 0.703185 0
M  V30 1969 H 178.821 3.37985 -1.60366 0
M  V30 1970 H 180.154 4.45524 -2.09211 0
M  V30 1971 N 181.806 0.884767 1.30421 0
M  V30 1972 C 183.222 0.57874 1.48737 0
M  V30 1973 C 183.422 -0.883567 1.81095 0
M  V30 1974 O 182.478 -1.6648 1.89844 0
M  V30 1975 C 183.791 1.49171 2.61091 0
M  V30 1976 C 185.339 1.49532 2.74971 0
M  V30 1977 C 185.814 2.39421 3.90438 0
M  V30 1978 N 187.305 2.37383 3.97748 0
M  V30 1979 C 188.04 3.03647 4.86401 0
M  V30 1980 N 187.536 3.79136 5.79852 0
M  V30 1981 N 189.329 2.9288 4.79768 0
M  V30 1982 H 181.48 1.83075 1.0769 0
M  V30 1983 H 183.743 0.783637 0.533495 0
M  V30 1984 H 183.449 2.53291 2.44001 0
M  V30 1985 H 183.323 1.20113 3.57565 0
M  V30 1986 H 185.71 0.46163 2.91467 0
M  V30 1987 H 185.791 1.8262 1.79119 0
M  V30 1988 H 185.435 3.42874 3.74699 0
M  V30 1989 H 185.365 2.03649 4.85628 0
M  V30 1990 H 187.856 1.82525 3.30897 0
M  V30 1991 H 188.169 4.26789 6.4426 0
M  V30 1992 H 186.514 3.83243 5.79784 0
M  V30 1993 H 189.705 2.33433 4.05742 0
M  V30 1994 H 189.878 3.448 5.4865 0
M  V30 1995 N 183.284 -1.43765 0.645699 0
M  V30 1996 C 184.561 -1.9541 0.0862963 0
M  V30 1997 C 184.941 -1.58725 -1.39175 0
M  V30 1998 O 184.289 -0.868581 -2.11348 0
M  V30 1999 C 184.499 -3.47488 0.324565 0
M  V30 2000 C 185.847 -4.24001 0.225497 0
M  V30 2001 O 186.871 -3.55274 0.256715 0
M  V30 2002 O 185.73 -5.46313 0.142801 0
M  V30 2003 H 182.824 -0.826882 -0.0139483 0
M  V30 2004 H 185.37 -1.53743 0.718415 0
M  V30 2005 H 184.142 -3.67289 1.3496 0
M  V30 2006 H 183.765 -3.96135 -0.340987 0
M  V30 2007 N 184.763 -0.387143 -1.52771 0
M  V30 2008 C 186.009 0.188506 -2.02525 0
M  V30 2009 C 186.364 1.44649 -1.26864 0
M  V30 2010 O 185.657 1.88189 -0.359945 0
M  V30 2011 C 185.851 0.512209 -3.53711 0
M  V30 2012 C 185.68 -0.712855 -4.44014 0
M  V30 2013 C 184.45 -1.23147 -4.90064 0
M  V30 2014 C 186.648 -1.58453 -4.89282 0
M  V30 2015 N 184.63 -2.41431 -5.64433 0
M  V30 2016 C 186.001 -2.61381 -5.6221 0
M  V30 2017 C 188.056 -1.60488 -4.71326 0
M  V30 2018 C 186.759 -3.66227 -6.19088 0
M  V30 2019 C 188.785 -2.6424 -5.29085 0
M  V30 2020 C 188.147 -3.6589 -6.01917 0
M  V30 2021 H 184.246 0.0311236 -0.78138 0
M  V30 2022 H 186.83 -0.536548 -1.87161 0
M  V30 2023 H 185.001 1.20632 -3.69192 0
M  V30 2024 H 186.733 1.07482 -3.90166 0
M  V30 2025 H 183.488 -0.792795 -4.66917 0
M  V30 2026 H 183.912 -3.01274 -6.0627 0
M  V30 2027 H 188.554 -0.83247 -4.14524 0
M  V30 2028 H 186.272 -4.44337 -6.74974 0
M  V30 2029 H 189.858 -2.66695 -5.17074 0
M  V30 2030 H 188.738 -4.44855 -6.45813 0
M  V30 2031 N 186.241 1.57166 -0.116904 0
M  V30 2032 C 187.487 1.95412 0.542405 0
M  V30 2033 C 187.82 1.00019 1.66463 0
M  V30 2034 O 187.095 0.0370346 1.94465 0
M  V30 2035 C 187.378 3.43615 1.07708 0
M  V30 2036 C 187.231 4.49781 -0.0415868 0
M  V30 2037 C 188.55 3.93616 1.96861 0
M  V30 2038 H 185.669 0.710543 0.195696 0
M  V30 2039 H 188.311 1.89027 -0.192038 0
M  V30 2040 H 186.461 3.49187 1.70296 0
M  V30 2041 H 188.133 4.56308 -0.676793 0
M  V30 2042 H 186.376 4.28033 -0.705019 0
M  V30 2043 H 187.047 5.50733 0.373717 0
M  V30 2044 H 189.523 3.90335 1.44146 0
M  V30 2045 H 188.399 4.97838 2.3119 0
M  V30 2046 H 188.66 3.34188 2.89432 0
M  V30 2047 N 187.719 -0.156864 1.56817 0
M  V30 2048 C 189.135 -0.50916 1.5126 0
M  V30 2049 C 189.335 -1.83897 0.823658 0
M  V30 2050 O 188.391 -2.49469 0.390055 0
M  V30 2051 C 189.704 -0.52857 2.96018 0
M  V30 2052 C 191.252 -0.614771 3.06903 0
M  V30 2053 C 191.727 -0.664938 4.53147 0
M  V30 2054 N 193.218 -0.727433 4.57452 0
M  V30 2055 C 193.953 -0.787067 5.67973 0
M  V30 2056 N 193.449 -0.806649 6.88088 0
M  V30 2057 N 195.242 -0.827195 5.5598 0
M  V30 2058 H 187.393 0.714935 2.00006 0
M  V30 2059 H 189.656 0.259526 0.911784 0
M  V30 2060 H 189.362 0.380154 3.49639 0
M  V30 2061 H 189.236 -1.36998 3.51442 0
M  V30 2062 H 191.623 -1.51392 2.53307 0
M  V30 2063 H 191.704 0.253597 2.5454 0
M  V30 2064 H 191.348 0.230011 5.07379 0
M  V30 2065 H 191.278 -1.54966 5.03282 0
M  V30 2066 H 193.769 -0.719998 3.70978 0
M  V30 2067 H 194.082 -0.853727 7.6807 0
M  V30 2068 H 192.427 -0.774687 6.90669 0
M  V30 2069 H 195.618 -0.808998 4.61056 0
M  V30 2070 H 195.791 -0.870206 6.4213 0
M  V30 2071 N 189.197 -1.51736 -0.425897 0
M  V30 2072 C 190.427 -1.68549 -1.19476 0
M  V30 2073 C 190.835 -0.387288 -1.85194 0
M  V30 2074 O 190.178 0.645142 -1.71999 0
M  V30 2075 C 190.24 -2.75275 -2.31223 0
M  V30 2076 C 189.904 -4.17534 -1.8578 0
M  V30 2077 C 190.901 -5.01936 -1.35485 0
M  V30 2078 C 188.586 -4.6369 -1.93123 0
M  V30 2079 C 190.58 -6.30559 -0.931347 0
M  V30 2080 C 188.267 -5.92307 -1.50384 0
M  V30 2081 C 189.265 -6.75569 -1.00473 0
M  V30 2082 O 188.953 -8.0178 -0.583452 0
M  V30 2083 H 188.685 -0.568525 -0.365725 0
M  V30 2084 H 191.239 -1.98982 -0.509444 0
M  V30 2085 H 189.469 -2.40182 -3.03067 0
M  V30 2086 H 191.158 -2.80853 -2.93047 0
M  V30 2087 H 191.924 -4.67475 -1.29197 0
M  V30 2088 H 187.803 -3.98997 -2.30916 0
M  V30 2089 H 191.347 -6.95498 -0.541084 0
M  V30 2090 H 187.244 -6.2628 -1.56346 0
M  V30 2091 H 188.012 -8.1543 -0.708275 0
M  V30 2092 N 190.675 0.682077 -1.42076 0
M  V30 2093 C 191.605 1.80796 -1.47767 0
M  V30 2094 C 192.586 1.6677 -0.334954 0
M  V30 2095 O 193.771 1.863 -0.548264 0
M  V30 2096 C 190.901 3.19038 -1.37229 0
M  V30 2097 C 189.855 3.47789 -2.49453 0
M  V30 2098 C 189.181 4.8553 -2.23975 0
M  V30 2099 C 190.481 3.45411 -3.91776 0
M  V30 2100 H 192.175 1.7629 -2.41997 0
M  V30 2101 H 189.721 0.846721 -1.16476 0
M  V30 2102 H 191.674 3.97528 -1.39821 0
M  V30 2103 H 190.398 3.24204 -0.394907 0
M  V30 2104 H 189.057 2.71657 -2.46166 0
M  V30 2105 H 188.705 4.87337 -1.24547 0
M  V30 2106 H 188.405 5.0573 -2.99184 0
M  V30 2107 H 189.929 5.66312 -2.28304 0
M  V30 2108 H 191.343 4.13882 -3.96705 0
M  V30 2109 H 189.74 3.77145 -4.66778 0
M  V30 2110 H 190.81 2.44122 -4.18966 0
M  V30 2111 N 192.153 1.28127 0.917671 0
M  V30 2112 C 193.399 1.16232 1.66918 0
M  V30 2113 C 193.754 -0.28701 1.90247 0
M  V30 2114 O 193.047 -1.20586 1.48895 0
M  V30 2115 C 193.241 1.89018 3.03327 0
M  V30 2116 C 193.07 3.4088 2.9331 0
M  V30 2117 C 191.84 4.10214 2.95047 0
M  V30 2118 C 194.038 4.36689 2.71675 0
M  V30 2119 N 192.02 5.48571 2.75577 0
M  V30 2120 C 193.391 5.62382 2.6101 0
M  V30 2121 C 195.446 4.26661 2.56641 0
M  V30 2122 C 194.149 6.79189 2.36843 0
M  V30 2123 C 196.175 5.432 2.33853 0
M  V30 2124 C 195.537 6.67855 2.23939 0
M  V30 2125 H 191.636 0.48024 0.617166 0
M  V30 2126 H 194.22 1.61727 1.08409 0
M  V30 2127 H 192.391 1.45963 3.59929 0
M  V30 2128 H 194.123 1.69541 3.67475 0
M  V30 2129 H 190.878 3.61762 3.05655 0
M  V30 2130 H 191.302 6.21287 2.68945 0
M  V30 2131 H 195.944 3.30998 2.63059 0
M  V30 2132 H 193.662 7.74926 2.29164 0
M  V30 2133 H 197.248 5.37328 2.23091 0
M  V30 2134 H 196.128 7.56511 2.06546 0
M  V30 2135 N 193.631 -1.12557 1.10312 0
M  V30 2136 C 194.861 -1.87592 0.865617 0
M  V30 2137 C 195.269 -1.79851 -0.587389 0
M  V30 2138 O 194.612 -1.16949 -1.41664 0
M  V30 2139 C 194.674 -3.37665 1.23381 0
M  V30 2140 C 194.338 -3.69181 2.69359 0
M  V30 2141 C 195.335 -3.67652 3.67597 0
M  V30 2142 C 193.02 -3.98555 3.05711 0
M  V30 2143 C 195.014 -3.95053 5.00212 0
M  V30 2144 C 192.701 -4.25616 4.38514 0
M  V30 2145 C 193.699 -4.23851 5.35574 0
M  V30 2146 O 193.387 -4.50242 6.65986 0
M  V30 2147 H 193.119 -0.600442 0.310557 0
M  V30 2148 H 195.673 -1.4335 1.47105 0
M  V30 2149 H 193.903 -3.82454 0.571467 0
M  V30 2150 H 195.592 -3.94041 0.973994 0
M  V30 2151 H 196.358 -3.45024 3.40857 0
M  V30 2152 H 192.237 -3.99071 2.30789 0
M  V30 2153 H 195.781 -3.93591 5.75962 0
M  V30 2154 H 191.678 -4.47718 4.64994 0
M  V30 2155 H 192.446 -4.67867 6.71597 0
M  V30 2156 N 195.109 -0.891671 -1.2995 0
M  V30 2157 C 196.358 -0.509521 -1.95158 0
M  V30 2158 C 196.671 0.947388 -1.71125 0
M  V30 2159 O 197.877 1.43669 -2.30372 0
M  V30 2160 C 196.333 -0.860315 -3.49466 0
M  V30 2161 C 195.941 -2.33545 -3.8231 0
M  V30 2162 C 197.685 -0.547687 -4.20952 0
M  V30 2163 C 195.592 -2.62752 -5.29826 0
M  V30 2164 H 194.522 -0.18682 -0.730489 0
M  V30 2165 H 197.173 -1.08756 -1.47798 0
M  V30 2166 H 195.555 -0.211285 -3.95436 0
M  V30 2167 H 196.729 -3.02936 -3.47227 0
M  V30 2168 H 195.044 -2.61629 -3.23944 0
M  V30 2169 H 197.641 -0.742854 -5.29515 0
M  V30 2170 H 197.984 0.51332 -4.13123 0
M  V30 2171 H 198.517 -1.1542 -3.80688 0
M  V30 2172 H 195.256 -3.6762 -5.42712 0
M  V30 2173 H 194.776 -1.97977 -5.66185 0
M  V30 2174 H 196.455 -2.48601 -5.97333 0
M  V30 2175 N 196.587 1.43421 -0.653314 0
M  V30 2176 C 197.827 2.03689 -0.170346 0
M  V30 2177 C 198.191 1.50427 1.19314 0
M  V30 2178 O 199.392 2.0234 1.76952 0
M  V30 2179 C 197.663 3.56946 -0.180183 0
M  V30 2180 S 199.222 4.38171 0.234925 0
M  V30 2181 H 196.04 0.707345 -0.0719976 0
M  V30 2182 H 198.642 1.75486 -0.86167 0
M  V30 2183 H 197.346 3.93212 -1.17526 0
M  V30 2184 H 196.877 3.89791 0.531675 0
M  V30 2185 H 198.892 4.73808 1.47378 0
M  V30 2186 N 198.065 0.39524 1.52563 0
M  V30 2187 C 199.313 -0.184678 2.01254 0
M  V30 2188 C 199.634 -1.46822 1.28329 0
M  V30 2189 O 198.904 -1.91666 0.405094 0
M  V30 2190 H 197.484 -0.0712355 0.743596 0
M  V30 2191 H 200.146 0.528293 1.87603 0
M  V30 2192 H 199.242 -0.390681 3.09645 0
M  V30 2193 N 199.544 -1.57102 0.125237 0
M  V30 2194 C 200.79 -1.95697 -0.532035 0
M  V30 2195 C 201.123 -1.009 -1.6593 0
M  V30 2196 O 200.398 -0.047347 -1.94442 0
M  V30 2197 C 200.681 -3.44181 -1.05884 0
M  V30 2198 C 200.534 -4.49752 0.0654392 0
M  V30 2199 C 201.853 -3.94655 -1.9477 0
M  V30 2200 H 198.972 -0.711571 -0.191925 0
M  V30 2201 H 201.614 -1.88923 0.20206 0
M  V30 2202 H 199.764 -3.50085 -1.68442 0
M  V30 2203 H 201.436 -4.55943 0.700982 0
M  V30 2204 H 199.679 -4.27653 0.727709 0
M  V30 2205 H 200.35 -5.50924 -0.344505 0
M  V30 2206 H 202.826 -3.91094 -1.42074 0
M  V30 2207 H 201.702 -4.99057 -2.28546 0
M  V30 2208 H 201.963 -3.35718 -2.87656 0
M  V30 2209 N 201.022 0.148545 -1.56898 0
M  V30 2210 C 202.262 0.86765 -1.85071 0
M  V30 2211 C 202.626 1.78417 -0.709317 0
M  V30 2212 O 203.827 2.54261 -0.872049 0
M  V30 2213 C 202.098 1.62306 -3.1842 0
M  V30 2214 S 203.657 2.3878 -3.68143 0
M  V30 2215 H 200.475 0.290174 -0.649092 0
M  V30 2216 H 203.077 0.127755 -1.95082 0
M  V30 2217 H 201.781 0.941192 -3.99462 0
M  V30 2218 H 201.312 2.4039 -3.1141 0
M  V30 2219 H 203.327 3.63942 -3.37285 0
M  V30 2220 N 202.5 1.5196 0.417844 0
M  V30 2221 C 203.463 1.74065 1.49111 0
M  V30 2222 C 204.463 0.610537 1.48758 0
M  V30 2223 O 205.653 0.87832 1.50437 0
M  V30 2224 C 202.785 1.81502 2.88565 0
M  V30 2225 H 203.978 2.69869 1.30807 0
M  V30 2226 H 201.531 1.42244 0.647785 0
M  V30 2227 H 202.266 0.875813 3.1225 0
M  V30 2228 H 202.051 2.63651 2.90225 0
M  V30 2229 H 203.541 2.00376 3.66387 0
M  V30 2230 N 203.978 -0.674533 1.42435 0
M  V30 2231 C 205.225 -1.43459 1.42919 0
M  V30 2232 C 205.553 -1.94446 0.0457312 0
M  V30 2233 O 204.808 -1.7132 -0.94593 0
M  V30 2234 C 205.107 -2.64767 2.40069 0
M  V30 2235 C 204.773 -2.3232 3.86443 0
M  V30 2236 C 203.435 -2.23182 4.26314 0
M  V30 2237 C 205.787 -2.05977 4.78773 0
M  V30 2238 C 203.115 -1.85827 5.56494 0
M  V30 2239 C 205.467 -1.70125 6.09295 0
M  V30 2240 C 204.131 -1.59498 6.48164 0
M  V30 2241 H 203.401 -0.524952 0.522978 0
M  V30 2242 H 206.048 -0.769097 1.75377 0
M  V30 2243 H 204.353 -3.36349 2.00939 0
M  V30 2244 H 206.05 -3.22949 2.37707 0
M  V30 2245 H 202.64 -2.40334 3.54877 0
M  V30 2246 H 206.824 -2.11969 4.48757 0
M  V30 2247 H 202.08 -1.76168 5.8547 0
M  V30 2248 H 206.254 -1.48767 6.80324 0
M  V30 2249 H 203.881 -1.30322 7.48946 0
M  V30 2250 N 205.456 -1.28612 -0.910864 0
M  V30 2251 C 206.386 -1.15326 -2.03032 0
M  V30 2252 C 207.367 -0.0502924 -1.70026 0
M  V30 2253 O 208.552 -0.227797 -1.92859 0
M  V30 2254 C 205.682 -0.817343 -3.37545 0
M  V30 2255 C 204.636 -1.8754 -3.84724 0
M  V30 2256 C 203.962 -1.39305 -5.16235 0
M  V30 2257 C 205.262 -3.28244 -4.06267 0
M  V30 2258 H 206.956 -2.08975 -2.14406 0
M  V30 2259 H 204.502 -1.00612 -1.03021 0
M  V30 2260 H 206.455 -0.711151 -4.15356 0
M  V30 2261 H 205.179 0.154846 -3.26233 0
M  V30 2262 H 203.838 -1.97079 -3.09121 0
M  V30 2263 H 203.486 -0.409846 -5.01328 0
M  V30 2264 H 203.186 -2.10057 -5.48771 0
M  V30 2265 H 204.71 -1.30014 -5.96598 0
M  V30 2266 H 206.124 -3.21611 -4.74594 0
M  V30 2267 H 204.521 -3.96855 -4.5014 0
M  V30 2268 H 205.591 -3.72048 -3.10979 0
M  V30 2269 N 206.934 1.1197 -1.10907 0
M  V30 2270 C 208.183 1.82947 -0.849302 0
M  V30 2271 C 208.496 1.85275 0.627112 0
M  V30 2272 O 209.702 2.52296 1.00295 0
M  V30 2273 C 208.158 3.28529 -1.46959 0
M  V30 2274 C 207.766 3.34546 -2.97965 0
M  V30 2275 C 209.51 4.04443 -1.28942 0
M  V30 2276 C 207.417 4.74491 -3.53004 0
M  V30 2277 H 206.347 0.685477 -0.314065 0
M  V30 2278 H 208.998 1.2604 -1.33365 0
M  V30 2279 H 207.38 3.85333 -0.912917 0
M  V30 2280 H 208.554 2.87654 -3.59989 0
M  V30 2281 H 206.869 2.72108 -3.15192 0
M  V30 2282 H 209.466 5.07787 -1.67502 0
M  V30 2283 H 209.809 4.15656 -0.231456 0
M  V30 2284 H 210.342 3.5401 -1.81443 0
M  V30 2285 H 207.081 4.68474 -4.58489 0
M  V30 2286 H 206.601 5.21816 -2.9575 0
M  V30 2287 H 208.28 5.4344 -3.51115 0
M  V30 2288 N 208.412 0.89855 1.29475 0
M  V30 2289 C 209.661 0.519863 1.94885 0
M  V30 2290 C 209.974 -0.9383 1.71625 0
M  V30 2291 O 211.18 -1.42445 2.31131 0
M  V30 2292 C 209.636 0.878836 3.49005 0
M  V30 2293 C 209.244 2.35569 3.81066 0
M  V30 2294 C 210.988 0.570004 4.20656 0
M  V30 2295 C 208.895 2.65558 5.28425 0
M  V30 2296 H 207.825 0.190692 0.729488 0
M  V30 2297 H 210.476 1.09539 1.47219 0
M  V30 2298 H 208.858 0.232253 3.95318 0
M  V30 2299 H 210.032 3.04773 3.45616 0
M  V30 2300 H 208.347 2.63343 3.22552 0
M  V30 2301 H 210.944 0.770925 5.29113 0
M  V30 2302 H 211.287 -0.491404 4.1339 0
M  V30 2303 H 211.82 1.17438 3.8007 0
M  V30 2304 H 208.559 3.70493 5.40754 0
M  V30 2305 H 208.079 2.00977 5.65127 0
M  V30 2306 H 209.758 2.51765 5.96006 0
M  V30 2307 N 209.89 -1.43072 0.660911 0
M  V30 2308 C 210.82 -2.33497 -0.0122829 0
M  V30 2309 C 211.801 -1.49903 -0.803925 0
M  V30 2310 O 212.986 -1.78546 -0.763864 0
M  V30 2311 C 210.116 -3.33363 -0.973994 0
M  V30 2312 C 209.07 -4.27003 -0.291928 0
M  V30 2313 C 208.396 -5.16967 -1.36562 0
M  V30 2314 C 209.696 -5.15816 0.820462 0
M  V30 2315 H 211.39 -2.90038 0.742873 0
M  V30 2316 H 208.936 -1.39461 0.358688 0
M  V30 2317 H 210.889 -3.95524 -1.45392 0
M  V30 2318 H 209.613 -2.75095 -1.7604 0
M  V30 2319 H 208.272 -3.66217 0.167623 0
M  V30 2320 H 207.92 -4.55034 -2.14366 0
M  V30 2321 H 207.62 -5.80441 -0.914454 0
M  V30 2322 H 209.144 -5.82003 -1.84675 0
M  V30 2323 H 210.558 -5.71742 0.422366 0
M  V30 2324 H 208.955 -5.8805 1.19656 0
M  V30 2325 H 210.025 -4.55045 1.67518 0
M  V30 2326 N 211.368 -0.403325 -1.52352 0
M  V30 2327 C 212.614 0.167015 -2.02713 0
M  V30 2328 C 212.969 1.43296 -1.28391 0
M  V30 2329 O 212.262 1.87796 -0.379885 0
M  V30 2330 C 212.456 0.474665 -3.54234 0
M  V30 2331 C 212.285 -0.759909 -4.43233 0
M  V30 2332 C 211.055 -1.28338 -4.88731 0
M  V30 2333 C 213.253 -1.63634 -4.87574 0
M  V30 2334 N 211.235 -2.47404 -5.6184 0
M  V30 2335 C 212.606 -2.67329 -5.59406 0
M  V30 2336 C 214.661 -1.65478 -4.69597 0
M  V30 2337 C 213.364 -3.72773 -6.15169 0
M  V30 2338 C 215.39 -2.69837 -5.26253 0
M  V30 2339 C 214.752 -3.72253 -5.98002 0
M  V30 2340 H 210.851 0.0228343 -0.781667 0
M  V30 2341 H 213.435 -0.556368 -1.86581 0
M  V30 2342 H 211.606 1.16709 -3.7045 0
M  V30 2343 H 213.338 1.03338 -3.91284 0
M  V30 2344 H 210.093 -0.842273 -4.6605 0
M  V30 2345 H 210.517 -3.07688 -6.0304 0
M  V30 2346 H 215.159 -0.876389 -4.13617 0
M  V30 2347 H 212.877 -4.51471 -6.70223 0
M  V30 2348 H 216.463 -2.72164 -5.14216 0
M  V30 2349 H 215.343 -4.51679 -6.41058 0
M  V30 2350 N 212.846 1.57033 -0.133567 0
M  V30 2351 C 214.094 1.953 0.519848 0
M  V30 2352 C 214.415 1.01866 1.66278 0
M  V30 2353 O 213.685 0.0776513 1.95746 0
M  V30 2354 H 212.265 0.721091 0.195032 0
M  V30 2355 H 214.927 1.93809 -0.205921 0
M  V30 2356 H 214.023 2.98695 0.904854 0
M  V30 2357 N 214.325 -0.140222 1.56975 0
M  V30 2358 C 215.574 -0.850152 1.82908 0
M  V30 2359 C 215.887 -1.82028 0.715892 0
M  V30 2360 O 217.093 -2.57485 0.861016 0
M  V30 2361 C 215.549 -1.5625 3.24213 0
M  V30 2362 C 215.157 -0.63443 4.43485 0
M  V30 2363 C 216.901 -2.25881 3.59413 0
M  V30 2364 C 214.808 -1.34879 5.75814 0
M  V30 2365 H 213.738 -0.321221 0.682153 0
M  V30 2366 H 216.389 -0.102874 1.83211 0
M  V30 2367 H 214.771 -2.35565 3.18316 0
M  V30 2368 H 215.945 0.12398 4.60633 0
M  V30 2369 H 214.26 -0.0461836 4.16374 0
M  V30 2370 H 216.857 -2.79978 4.5554 0
M  V30 2371 H 217.2 -3.02693 2.85802 0
M  V30 2372 H 217.733 -1.53477 3.67001 0
M  V30 2373 H 214.472 -0.622385 6.52539 0
M  V30 2374 H 213.992 -2.07974 5.6259 0
M  V30 2375 H 215.671 -1.88784 6.18845 0
M  V30 2376 N 215.803 -1.52179 -0.40978 0
M  V30 2377 C 217.049 -1.67408 -1.15525 0
M  V30 2378 C 217.404 -0.398746 -1.88223 0
M  V30 2379 O 216.697 0.60678 -1.81738 0
M  V30 2380 C 216.891 -2.83428 -2.17723 0
M  V30 2381 C 216.72 -4.22121 -1.55061 0
M  V30 2382 C 215.49 -4.87657 -1.3236 0
M  V30 2383 C 217.688 -5.04248 -1.01185 0
M  V30 2384 N 215.67 -6.10387 -0.655834 0
M  V30 2385 C 217.041 -6.18209 -0.470963 0
M  V30 2386 C 219.096 -4.89583 -0.906252 0
M  V30 2387 C 217.799 -7.1911 0.165172 0
M  V30 2388 C 219.825 -5.90718 -0.28397 0
M  V30 2389 C 219.187 -7.03969 0.246243 0
M  V30 2390 H 215.286 -0.666251 -0.409431 0
M  V30 2391 H 217.87 -1.89482 -0.447729 0
M  V30 2392 H 216.041 -2.6297 -2.85834 0
M  V30 2393 H 217.773 -2.87697 -2.84627 0
M  V30 2394 H 214.528 -4.46007 -1.59294 0
M  V30 2395 H 214.952 -6.76153 -0.338596 0
M  V30 2396 H 219.594 -4.02253 -1.302 0
M  V30 2397 H 217.312 -8.06066 0.572986 0
M  V30 2398 H 220.898 -5.81443 -0.203792 0
M  V30 2399 H 219.778 -7.80886 0.720173 0
M  V30 2400 N 217.281 0.66697 -1.42791 0
M  V30 2401 C 218.229 1.80157 -1.47127 0
M  V30 2402 C 219.223 1.65825 -0.346199 0
M  V30 2403 O 220.429 1.72338 -0.519572 0
M  V30 2404 H 216.804 0.594158 -0.460956 0
M  V30 2405 H 218.775 1.73619 -2.42692 0
M  V30 2406 C 217.524 3.18351 -1.39813 0
M  V30 2407 H 216.847 3.3001 -2.25684 0
M  V30 2408 H 218.287 3.97736 -1.46908 0
M  V30 2409 C 216.746 3.36707 -0.11391 0
M  V30 2410 O 217.276 3.93027 0.830241 0
M  V30 2411 N 215.482 2.90586 -0.0285295 0
M  V30 2412 H 215.029 2.4494 -0.79764 0
M  V30 2413 H 214.987 3.03245 0.830063 0
M  V30 2414 N 218.759 1.29093 0.90403 0
M  V30 2415 C 220.17 1.15186 1.46932 0
M  V30 2416 C 220.521 -0.254587 1.94541 0
M  V30 2417 O 219.646 -1.14972 1.83332 0
M  V30 2418 C 220.241 2.08492 2.67051 0
M  V30 2419 C 218.8 1.98621 3.19729 0
M  V30 2420 C 217.947 1.9967 1.92425 0
M  V30 2421 H 220.898 1.41641 0.715789 0
M  V30 2422 H 220.919 1.65461 3.42641 0
M  V30 2423 H 220.431 3.10847 2.3237 0
M  V30 2424 H 218.532 0.993389 3.59114 0
M  V30 2425 H 218.645 2.86068 3.8432 0
M  V30 2426 H 217.009 1.44208 2.09943 0
M  V30 2427 H 217.792 3.03721 1.60026 0
M  V30 2428 N 220.237 -1.11381 1.11499 0
M  V30 2429 C 221.167 -2.19509 0.796125 0
M  V30 2430 C 222.148 -1.68458 -0.235796 0
M  V30 2431 O 223.333 -1.93947 -0.0991344 0
M  V30 2432 C 220.463 -3.46475 0.239205 0
M  V30 2433 C 219.417 -4.10744 1.20307 0
M  V30 2434 C 218.743 -5.32293 0.50683 0
M  V30 2435 C 220.043 -4.55597 2.55399 0
M  V30 2436 H 221.737 -2.46439 1.70024 0
M  V30 2437 H 219.283 -1.18446 0.818935 0
M  V30 2438 H 221.236 -4.214 0.00392006 0
M  V30 2439 H 219.96 -3.19006 -0.700206 0
M  V30 2440 H 218.619 -3.37813 1.42399 0
M  V30 2441 H 218.267 -5.01095 -0.437408 0
M  V30 2442 H 217.967 -5.76243 1.1497 0
M  V30 2443 H 219.491 -6.09956 0.280351 0
M  V30 2444 H 220.905 -5.21841 2.37391 0
M  V30 2445 H 219.302 -5.10363 3.15673 0
M  V30 2446 H 220.372 -3.69013 3.14575 0
M  V30 2447 N 221.715 -0.905404 -1.28997 0
M  V30 2448 C 223.131 -0.60233 -1.47798 0
M  V30 2449 C 223.331 0.854645 -1.82478 0
M  V30 2450 O 222.387 1.63439 -1.92468 0
M  V30 2451 C 223.7 -1.53306 -2.58685 0
M  V30 2452 C 225.248 -1.53887 -2.72558 0
M  V30 2453 C 225.723 -2.45602 -3.86579 0
M  V30 2454 N 227.214 -2.43681 -3.93921 0
M  V30 2455 C 227.949 -3.11347 -4.81509 0
M  V30 2456 N 227.445 -3.88313 -5.73746 0
M  V30 2457 N 229.238 -3.00476 -4.75048 0
M  V30 2458 H 221.389 -1.84765 -1.04764 0
M  V30 2459 H 223.652 -0.792025 -0.520961 0
M  V30 2460 H 223.358 -2.57141 -2.39941 0
M  V30 2461 H 223.232 -1.25787 -3.55609 0
M  V30 2462 H 225.619 -0.507941 -2.90696 0
M  V30 2463 H 225.7 -1.85447 -1.76191 0
M  V30 2464 H 225.344 -3.48792 -3.69197 0
M  V30 2465 H 225.274 -2.11349 -4.82327 0
M  V30 2466 H 227.765 -1.87767 -3.27951 0
M  V30 2467 H 228.078 -4.36985 -6.37389 0
M  V30 2468 H 226.423 -3.92419 -5.73614 0
M  V30 2469 H 229.614 -2.39858 -4.01977 0
M  V30 2470 H 229.787 -3.53485 -5.43095 0
M  V30 2471 N 223.193 1.4272 -0.668489 0
M  V30 2472 C 224.156 2.292 0.00448567 0
M  V30 2473 C 225.156 1.43001 0.735339 0
M  V30 2474 O 226.346 1.64461 0.57429 0
M  V30 2475 C 223.478 3.25375 1.01705 0
M  V30 2476 H 224.671 2.90199 -0.756608 0
M  V30 2477 H 222.224 1.50254 -0.430506 0
M  V30 2478 H 222.959 2.69301 1.80686 0
M  V30 2479 H 222.744 3.88944 0.496463 0
M  V30 2480 H 224.234 3.90245 1.48655 0
M  V30 2481 N 224.671 0.411399 1.52136 0
M  V30 2482 C 225.618 -0.412975 2.27075 0
M  V30 2483 C 226.588 -1.03912 1.29582 0
M  V30 2484 O 227.773 -1.06296 1.58448 0
M  V30 2485 C 224.913 -1.52247 3.09701 0
M  V30 2486 C 224.026 -0.917021 4.22155 0
M  V30 2487 C 223.161 -1.9994 4.92135 0
M  V30 2488 C 222.2 -1.37101 5.96548 0
M  V30 2489 N 221.337 -2.39364 6.60038 0
M  V30 2490 H 226.177 0.232499 2.97092 0
M  V30 2491 H 223.714 0.126496 1.46555 0
M  V30 2492 H 225.672 -2.17674 3.55913 0
M  V30 2493 H 224.302 -2.13794 2.41851 0
M  V30 2494 H 223.354 -0.151742 3.80097 0
M  V30 2495 H 224.666 -0.418006 4.97045 0
M  V30 2496 H 223.82 -2.73088 5.41763 0
M  V30 2497 H 222.559 -2.53208 4.16818 0
M  V30 2498 H 221.564 -0.624873 5.46237 0
M  V30 2499 H 222.789 -0.845998 6.7381 0
M  V30 2500 H 220.735 -2.91759 5.87548 0
M  V30 2501 H 220.652 -1.9428 7.3061 0
M  V30 2502 H 221.92 -3.12074 7.14304 0
M  V30 2503 N 226.149 -1.5696 0.141893 0
M  V30 2504 C 227.377 -2.00322 -0.517579 0
M  V30 2505 C 227.792 -1.02193 -1.58752 0
M  V30 2506 O 227.149 -0.0181619 -1.82491 0
M  V30 2507 C 227.2 -3.43618 -1.12289 0
M  V30 2508 O 226.921 -4.37995 -0.0956929 0
M  V30 2509 C 228.422 -4.02231 -1.86347 0
M  V30 2510 H 225.642 -0.657243 -0.135177 0
M  V30 2511 H 228.186 -2.03146 0.234973 0
M  V30 2512 H 226.341 -3.41662 -1.82609 0
M  V30 2513 H 226.755 -5.21729 -0.538469 0
M  V30 2514 H 228.229 -5.04509 -2.23997 0
M  V30 2515 H 228.706 -3.42655 -2.74744 0
M  V30 2516 H 229.312 -4.07802 -1.20737 0
M  V30 2517 N 227.627 0.131896 -1.57047 0
M  V30 2518 C 229.043 0.485031 -1.52051 0
M  V30 2519 C 229.243 1.82563 -0.85281 0
M  V30 2520 O 228.299 2.48817 -0.429694 0
M  V30 2521 C 229.612 0.481409 -2.96821 0
M  V30 2522 C 231.16 0.565868 -3.07842 0
M  V30 2523 C 231.635 0.592762 -4.54148 0
M  V30 2524 N 233.126 0.654564 -4.58552 0
M  V30 2525 C 233.861 0.696608 -5.69153 0
M  V30 2526 N 233.357 0.697078 -6.89284 0
M  V30 2527 N 235.15 0.738639 -5.57226 0
M  V30 2528 H 227.301 -0.746664 -1.98843 0
M  V30 2529 H 229.564 -0.273999 -0.90754 0
M  V30 2530 H 229.27 -0.435731 -3.4899 0
M  V30 2531 H 229.144 1.3139 -3.53577 0
M  V30 2532 H 231.531 1.47343 -2.55684 0
M  V30 2533 H 231.612 -0.29406 -2.54104 0
M  V30 2534 H 231.256 -0.310701 -5.06949 0
M  V30 2535 H 231.186 1.46939 -5.05684 0
M  V30 2536 H 233.677 0.660887 -3.72076 0
M  V30 2537 H 233.99 0.731426 -7.69331 0
M  V30 2538 H 232.335 0.66471 -6.91814 0
M  V30 2539 H 235.526 0.735545 -4.62285 0
M  V30 2540 H 235.699 0.767938 -6.43434 0
M  V30 2541 N 229.106 1.52395 0.401703 0
M  V30 2542 C 230.334 1.70676 1.16949 0
M  V30 2543 C 230.749 0.419503 1.8408 0
M  V30 2544 O 230.106 -0.605061 1.72178 0
M  V30 2545 C 230.157 2.84753 2.22706 0
M  V30 2546 O 229.878 4.08495 1.58314 0
M  V30 2547 C 231.379 3.14608 3.12309 0
M  V30 2548 H 228.599 0.571787 0.351142 0
M  V30 2549 H 231.143 1.98987 0.471652 0
M  V30 2550 H 229.298 2.58941 2.88147 0
M  V30 2551 H 229.712 4.72117 2.28485 0
M  V30 2552 H 231.186 3.97923 3.82572 0
M  V30 2553 H 231.663 2.28464 3.75101 0
M  V30 2554 H 232.269 3.42212 2.52529 0
M  V30 2555 N 230.584 -0.659388 1.43143 0
M  V30 2556 C 231.516 -1.7849 1.43784 0
M  V30 2557 C 232.529 -1.5932 0.334787 0
M  V30 2558 O 233.718 -1.68155 0.598842 0
M  V30 2559 C 230.818 -3.15828 1.22906 0
M  V30 2560 C 229.991 -3.61711 2.45934 0
M  V30 2561 C 229.05 -4.77831 2.20371 0
M  V30 2562 O 228.076 -4.87586 2.93681 0
M  V30 2563 N 229.278 -5.67611 1.21647 0
M  V30 2564 H 232.043 -1.7842 2.40803 0
M  V30 2565 H 229.604 -0.84302 1.3822 0
M  V30 2566 H 231.596 -3.91189 1.03697 0
M  V30 2567 H 230.166 -3.10707 0.343542 0
M  V30 2568 H 229.386 -2.76861 2.80609 0
M  V30 2569 H 230.674 -3.89112 3.27825 0
M  V30 2570 H 230.072 -5.62397 0.610449 0
M  V30 2571 H 228.629 -6.42719 1.08423 0
M  V30 2572 N 232.062 -1.29571 -0.897171 0
M  V30 2573 C 233.287 -1.20705 -1.68656 0
M  V30 2574 C 233.712 0.228582 -1.86706 0
M  V30 2575 O 233.07 1.16494 -1.3892 0
M  V30 2576 C 233.118 -1.9282 -3.04717 0
M  V30 2577 O 232.222 -1.24697 -3.93096 0
M  V30 2578 H 231.563 -0.418126 -0.515816 0
M  V30 2579 H 234.093 -1.71183 -1.12061 0
M  V30 2580 H 234.103 -2.01372 -3.54843 0
M  V30 2581 H 232.778 -2.97239 -2.90899 0
M  V30 2582 H 231.355 -1.2442 -3.51531 0
M  V30 2583 N 233.54 1.10788 -1.12088 0
M  V30 2584 C 234.765 1.87002 -0.896949 0
M  V30 2585 C 235.19 1.79933 0.548261 0
M  V30 2586 O 234.548 1.16662 1.38779 0
M  V30 2587 C 234.596 3.3349 -1.37174 0
M  V30 2588 O 233.7 4.08745 -0.547831 0
M  V30 2589 H 233.041 0.580397 -0.322545 0
M  V30 2590 H 235.571 1.39996 -1.49206 0
M  V30 2591 H 235.581 3.84339 -1.36922 0
M  V30 2592 H 234.256 3.37951 -2.42408 0
M  V30 2593 H 232.833 3.6776 -0.617034 0
M  V30 2594 N 235.018 0.912232 1.28515 0
M  V30 2595 C 235.928 0.404506 2.31086 0
M  V30 2596 C 236.944 -0.50707 1.66448 0
M  V30 2597 O 238.12 -0.393624 1.97516 0
M  V30 2598 C 235.185 -0.348572 3.44943 0
M  V30 2599 C 234.246 0.59604 4.25142 0
M  V30 2600 C 233.479 -0.121194 5.33562 0
M  V30 2601 O 233.702 -1.34317 5.5436 0
M  V30 2602 O 232.636 0.542716 5.99448 0
M  V30 2603 H 236.462 1.25579 2.76521 0
M  V30 2604 H 234.047 0.676998 1.33181 0
M  V30 2605 H 235.929 -0.77395 4.14232 0
M  V30 2606 H 234.604 -1.17571 3.01594 0
M  V30 2607 H 233.511 1.07079 3.58448 0
M  V30 2608 H 234.844 1.38995 4.72167 0
M  V30 2609 N 236.496 -1.42363 0.676048 0
M  V30 2610 C 237.426 -2.33497 0.0124832 0
M  V30 2611 C 238.407 -1.50748 -0.787981 0
M  V30 2612 O 239.592 -1.79346 -0.744884 0
M  V30 2613 C 236.722 -3.34377 -0.938582 0
M  V30 2614 C 235.676 -4.27289 -0.246622 0
M  V30 2615 C 235.002 -5.18386 -1.31071 0
M  V30 2616 C 236.302 -5.14916 0.875125 0
M  V30 2617 H 237.996 -2.89233 0.773593 0
M  V30 2618 H 235.542 -1.39073 0.37346 0
M  V30 2619 H 237.495 -3.97044 -1.41188 0
M  V30 2620 H 236.219 -2.76947 -1.73113 0
M  V30 2621 H 234.878 -3.66018 0.206456 0
M  V30 2622 H 234.526 -4.57282 -2.09528 0
M  V30 2623 H 234.226 -5.81378 -0.852839 0
M  V30 2624 H 235.75 -5.83929 -1.78492 0
M  V30 2625 H 237.164 -5.71262 0.482983 0
M  V30 2626 H 235.561 -5.86747 1.25887 0
M  V30 2627 H 236.631 -4.53242 1.72335 0
M  V30 2628 N 237.974 -0.419461 -1.51915 0
M  V30 2629 C 238.937 0.389116 -2.25873 0
M  V30 2630 C 239.937 0.964924 -1.28631 0
M  V30 2631 O 241.127 0.842179 -1.52489 0
M  V30 2632 C 238.259 1.54874 -3.03689 0
M  V30 2633 H 239.452 -0.258799 -2.98781 0
M  V30 2634 H 237.005 -0.172209 -1.55348 0
M  V30 2635 H 237.74 2.23323 -2.35154 0
M  V30 2636 H 237.525 1.14223 -3.75094 0
M  V30 2637 H 239.015 2.12046 -3.59759 0
M  V30 2638 N 239.452 1.56882 -0.150215 0
M  V30 2639 C 240.4 2.18214 0.805313 0
M  V30 2640 C 241.394 1.14006 1.25296 0
M  V30 2641 O 242.6 1.3225 1.22107 0
M  V30 2642 H 238.975 0.698762 0.277913 0
M  V30 2643 H 240.946 2.97231 0.263862 0
M  V30 2644 C 239.695 2.82065 2.03309 0
M  V30 2645 H 239.018 3.61968 1.69763 0
M  V30 2646 H 240.458 3.28477 2.68103 0
M  V30 2647 C 238.917 1.80739 2.84315 0
M  V30 2648 O 239.447 1.27983 3.80767 0
M  V30 2649 N 237.653 1.4997 2.48913 0
M  V30 2650 H 237.2 1.93062 1.70542 0
M  V30 2651 H 237.158 0.824217 3.03404 0
M  V30 2652 N 240.93 -0.123565 1.57115 0
M  V30 2653 C 241.86 -1.15309 2.03042 0
M  V30 2654 C 242.841 -1.43454 0.914061 0
M  V30 2655 O 244.026 -1.53973 1.18347 0
M  V30 2656 C 241.156 -2.48043 2.43089 0
M  V30 2657 C 240.11 -2.3437 3.58127 0
M  V30 2658 C 239.436 -3.72026 3.84059 0
M  V30 2659 C 240.736 -1.80804 4.90007 0
M  V30 2660 H 242.43 -0.771102 2.893 0
M  V30 2661 H 239.976 -0.369479 1.39179 0
M  V30 2662 H 241.929 -3.20311 2.73823 0
M  V30 2663 H 240.653 -2.88122 1.53796 0
M  V30 2664 H 239.312 -1.64551 3.27595 0
M  V30 2665 H 238.96 -4.09582 2.91979 0
M  V30 2666 H 238.66 -3.63732 4.6149 0
M  V30 2667 H 240.184 -4.45806 4.1724 0
M  V30 2668 H 241.598 -2.42886 5.19307 0
M  V30 2669 H 239.995 -1.83343 5.71407 0
M  V30 2670 H 241.065 -0.76528 4.78823 0
M  V30 2671 N 242.408 -1.52605 -0.393616 0
M  V30 2672 C 243.638 -1.71046 -1.15874 0
M  V30 2673 C 244.046 -0.426483 -1.84331 0
M  V30 2674 O 243.389 0.608513 -1.73329 0
M  V30 2675 C 243.451 -2.80118 -2.25332 0
M  V30 2676 C 243.115 -4.21381 -1.76881 0
M  V30 2677 C 244.112 -5.04697 -1.24808 0
M  V30 2678 C 241.797 -4.67683 -1.83244 0
M  V30 2679 C 243.791 -6.32393 -0.797387 0
M  V30 2680 C 241.478 -5.95364 -1.37787 0
M  V30 2681 C 242.476 -6.77549 -0.861208 0
M  V30 2682 O 242.164 -8.02837 -0.413252 0
M  V30 2683 H 241.896 -0.576155 -0.353583 0
M  V30 2684 H 244.45 -2.00018 -0.467123 0
M  V30 2685 H 242.68 -2.46557 -2.97904 0
M  V30 2686 H 244.369 -2.87006 -2.87023 0
M  V30 2687 H 245.135 -4.70111 -1.19252 0
M  V30 2688 H 241.014 -4.03805 -2.22401 0
M  V30 2689 H 244.558 -6.9649 -0.393437 0
M  V30 2690 H 240.455 -6.29455 -1.43026 0
M  V30 2691 H 241.223 -8.16749 -0.53515 0
M  V30 2692 N 243.887 0.651787 -1.4349 0
M  V30 2693 C 245.164 1.40909 -1.35661 0
M  V30 2694 C 245.544 2.11099 -0.00511733 0
M  V30 2695 O 244.892 2.04892 1.0115 0
M  V30 2696 C 245.102 2.3926 -2.54078 0
M  V30 2697 C 246.45 3.03217 -2.97228 0
M  V30 2698 O 247.474 2.49588 -2.54135 0
M  V30 2699 O 246.333 4.00455 -3.71885 0
M  V30 2700 H 243.427 0.629625 -0.536191 0
M  V30 2701 H 245.973 0.678575 -1.55542 0
M  V30 2702 H 244.745 1.86352 -3.44076 0
M  V30 2703 H 244.368 3.1976 -2.36303 0
M  V30 2704 N 245.365 1.30045 0.890287 0
M  V30 2705 C 246.312 1.15976 1.99545 0
M  V30 2706 C 247.282 0.0506202 1.66023 0
M  V30 2707 O 248.467 0.219847 1.89529 0
M  V30 2708 C 245.607 0.852054 3.34416 0
M  V30 2709 C 244.72 2.04255 3.80662 0
M  V30 2710 C 243.855 1.6734 5.04154 0
M  V30 2711 C 242.894 2.82916 5.42794 0
M  V30 2712 N 242.031 2.46333 6.57468 0
M  V30 2713 H 246.871 2.10524 2.10911 0
M  V30 2714 H 244.408 1.04749 1.03276 0
M  V30 2715 H 246.366 0.654296 4.12037 0
M  V30 2716 H 244.996 -0.0565502 3.2275 0
M  V30 2717 H 244.048 2.35172 2.98995 0
M  V30 2718 H 245.36 2.90826 4.05242 0
M  V30 2719 H 244.514 1.43908 5.89386 0
M  V30 2720 H 243.253 0.779308 4.81433 0
M  V30 2721 H 242.258 3.0702 4.56091 0
M  V30 2722 H 243.483 3.73004 5.6749 0
M  V30 2723 H 241.429 1.59423 6.36334 0
M  V30 2724 H 241.346 3.26436 6.81891 0
M  V30 2725 H 242.614 2.26244 7.45945 0
M  V30 2726 N 246.843 -1.10192 1.12674 0
M  V30 2727 C 247.773 -2.18652 0.819362 0
M  V30 2728 C 248.754 -1.68698 -0.217915 0
M  V30 2729 O 249.939 -1.94041 -0.0785581 0
M  V30 2730 C 247.069 -3.46202 0.27594 0
M  V30 2731 C 246.023 -4.09444 1.24656 0
M  V30 2732 C 245.349 -5.31725 0.563258 0
M  V30 2733 C 246.649 -4.52863 2.60217 0
M  V30 2734 H 248.343 -2.44622 1.72628 0
M  V30 2735 H 245.889 -1.17571 0.831451 0
M  V30 2736 H 247.842 -4.21372 0.0486149 0
M  V30 2737 H 246.566 -3.1973 -0.666331 0
M  V30 2738 H 245.225 -3.36284 1.45974 0
M  V30 2739 H 244.873 -5.0153 -0.384235 0
M  V30 2740 H 244.573 -5.74991 1.21075 0
M  V30 2741 H 246.097 -6.09624 0.34503 0
M  V30 2742 H 247.511 -5.19294 2.42913 0
M  V30 2743 H 245.908 -5.06986 3.21068 0
M  V30 2744 H 246.978 -3.65656 3.18471 0
M  V30 2745 N 248.321 -0.919034 -1.28029 0
M  V30 2746 C 249.567 -0.555757 -1.95036 0
M  V30 2747 C 249.9 0.899198 -1.72128 0
M  V30 2748 O 249.175 1.64023 -1.04531 0
M  V30 2749 C 249.458 -0.872024 -3.49382 0
M  V30 2750 C 249.311 -2.3801 -3.81669 0
M  V30 2751 C 250.63 -0.37185 -4.38526 0
M  V30 2752 H 247.749 -0.203386 -0.708381 0
M  V30 2753 H 250.391 -1.14924 -1.51303 0
M  V30 2754 H 248.541 -0.366946 -3.86763 0
M  V30 2755 H 250.213 -2.9562 -3.54128 0
M  V30 2756 H 248.456 -2.83289 -3.28526 0
M  V30 2757 H 249.127 -2.55192 -4.8947 0
M  V30 2758 H 251.603 -0.804602 -4.08247 0
M  V30 2759 H 250.479 -0.622173 -5.45362 0
M  V30 2760 H 250.74 0.727934 -4.36066 0
M  V30 2761 N 249.799 1.42003 -0.683588 0
M  V30 2762 C 251.027 2.05746 -0.218182 0
M  V30 2763 C 251.442 1.51396 1.12804 0
M  V30 2764 O 250.799 0.657303 1.70252 0
M  V30 2765 C 250.85 3.61171 -0.154131 0
M  V30 2766 O 250.571 4.13508 -1.44716 0
M  V30 2767 C 252.072 4.42042 0.333713 0
M  V30 2768 H 249.292 0.662888 -0.10402 0
M  V30 2769 H 251.836 1.81987 -0.9328 0
M  V30 2770 H 249.991 3.84012 0.511231 0
M  V30 2771 H 250.405 5.07453 -1.32632 0
M  V30 2772 H 251.879 5.51028 0.327423 0
M  V30 2773 H 252.356 4.17269 1.37053 0
M  V30 2774 H 252.962 4.24239 -0.300222 0
M  V30 2775 N 251.277 0.427512 1.51691 0
M  V30 2776 C 252.507 -0.140986 2.06118 0
M  V30 2777 C 252.915 -1.37854 1.29588 0
M  V30 2778 O 252.258 -1.80411 0.346036 0
M  V30 2779 C 252.32 -0.538276 3.55447 0
M  V30 2780 C 251.984 0.591095 4.53161 0
M  V30 2781 C 252.981 1.46027 4.98971 0
M  V30 2782 C 250.666 0.769028 4.96378 0
M  V30 2783 C 252.66 2.49216 5.8666 0
M  V30 2784 C 250.347 1.80421 5.83859 0
M  V30 2785 C 251.345 2.66417 6.28897 0
M  V30 2786 O 251.033 3.68159 7.14643 0
M  V30 2787 H 250.765 -0.0157455 0.675817 0
M  V30 2788 H 253.319 0.602495 1.96365 0
M  V30 2789 H 251.549 -1.33432 3.6295 0
M  V30 2790 H 253.238 -1.0368 3.92435 0
M  V30 2791 H 254.004 1.33429 4.66285 0
M  V30 2792 H 249.883 0.109273 4.6087 0
M  V30 2793 H 253.427 3.16372 6.21735 0
M  V30 2794 H 249.324 1.93042 6.15959 0
M  V30 2795 H 250.092 3.64622 7.32798 0
M  V30 2796 N 252.755 -1.56801 0.158532 0
M  V30 2797 C 254.002 -1.9649 -0.489679 0
M  V30 2798 C 254.33 -1.04394 -1.6411 0
M  V30 2799 O 253.585 -0.0754401 -1.95555 0
M  V30 2800 C 253.884 -3.4235 -1.02623 0
M  V30 2801 C 253.55 -4.50899 0.00794526 0
M  V30 2802 C 252.212 -4.80312 0.292207 0
M  V30 2803 C 254.564 -5.16333 0.710584 0
M  V30 2804 C 251.892 -5.72461 1.28472 0
M  V30 2805 C 254.244 -6.09553 1.69199 0
M  V30 2806 C 252.908 -6.37339 1.98383 0
M  V30 2807 H 252.178 -0.719009 -0.179186 0
M  V30 2808 H 254.825 -1.8989 0.247798 0
M  V30 2809 H 253.13 -3.45838 -1.84128 0
M  V30 2810 H 254.827 -3.70393 -1.53656 0
M  V30 2811 H 251.417 -4.28015 -0.22379 0
M  V30 2812 H 255.601 -4.93732 0.504174 0
M  V30 2813 H 250.857 -5.92278 1.51714 0
M  V30 2814 H 255.031 -6.59327 2.24189 0
M  V30 2815 H 252.658 -7.08546 2.7544 0
M  V30 2816 N 254.233 0.115231 -1.57178 0
M  V30 2817 C 255.461 0.836437 -1.89239 0
M  V30 2818 C 255.876 1.73256 -0.750175 0
M  V30 2819 O 255.233 1.80357 0.278832 0
M  V30 2820 C 255.284 1.66671 -3.20785 0
M  V30 2821 O 255.005 0.806652 -4.3061 0
M  V30 2822 C 256.506 2.49274 -3.66575 0
M  V30 2823 H 253.726 0.240253 -0.626514 0
M  V30 2824 H 256.27 0.0984932 -2.04263 0
M  V30 2825 H 254.425 2.35737 -3.0742 0
M  V30 2826 H 254.839 1.37969 -5.06028 0
M  V30 2827 H 256.313 3.03055 -4.6137 0
M  V30 2828 H 256.79 3.26807 -2.93417 0
M  V30 2829 H 257.396 1.85443 -3.82741 0
M  V30 2830 N 255.711 1.52812 0.385517 0
M  V30 2831 C 256.957 1.68275 1.13188 0
M  V30 2832 C 257.29 0.423179 1.89533 0
M  V30 2833 O 256.565 -0.579113 1.85679 0
M  V30 2834 C 256.848 2.92001 2.1073 0
M  V30 2835 C 256.701 4.28067 1.38125 0
M  V30 2836 C 258.02 3.11283 3.11113 0
M  V30 2837 H 255.139 0.612352 0.410115 0
M  V30 2838 H 257.781 1.85415 0.414869 0
M  V30 2839 H 255.931 2.77519 2.71874 0
M  V30 2840 H 257.603 4.54324 0.799187 0
M  V30 2841 H 255.846 4.28388 0.683092 0
M  V30 2842 H 256.517 5.10733 2.09417 0
M  V30 2843 H 258.993 3.2482 2.6006 0
M  V30 2844 H 257.869 3.99325 3.76605 0
M  V30 2845 H 258.13 2.25656 3.80173 0
M  V30 2846 N 257.189 -0.644168 1.43834 0
M  V30 2847 C 258.119 -1.76814 1.52509 0
M  V30 2848 C 259.1 -1.65823 0.379052 0
M  V30 2849 O 260.285 -1.84781 0.597466 0
M  V30 2850 C 257.415 -3.15288 1.4564 0
M  V30 2851 C 256.369 -3.41053 2.58586 0
M  V30 2852 C 255.695 -4.79421 2.36769 0
M  V30 2853 C 256.995 -3.34902 4.00797 0
M  V30 2854 H 258.689 -1.69812 2.46586 0
M  V30 2855 H 256.235 -0.815542 1.1868 0
M  V30 2856 H 258.188 -3.93681 1.50311 0
M  V30 2857 H 256.912 -3.23043 0.480725 0
M  V30 2858 H 255.571 -2.65035 2.53282 0
M  V30 2859 H 255.219 -4.83863 1.37424 0
M  V30 2860 H 254.919 -4.9762 3.12487 0
M  V30 2861 H 256.443 -5.6006 2.43238 0
M  V30 2862 H 257.857 -4.03218 4.07539 0
M  V30 2863 H 256.254 -3.64637 4.76613 0
M  V30 2864 H 257.324 -2.32928 4.25291 0
M  V30 2865 N 258.668 -1.30515 -0.883378 0
M  V30 2866 C 259.914 -1.20617 -1.63778 0
M  V30 2867 C 260.269 0.236469 -1.90941 0
M  V30 2868 O 259.562 1.16596 -1.52039 0
M  V30 2869 C 259.756 -1.96994 -2.98209 0
M  V30 2870 C 259.585 -3.48537 -2.84169 0
M  V30 2871 C 258.355 -4.17893 -2.84067 0
M  V30 2872 C 260.553 -4.43738 -2.60001 0
M  V30 2873 N 258.535 -5.55685 -2.60936 0
M  V30 2874 C 259.906 -5.69105 -2.46007 0
M  V30 2875 C 261.961 -4.33316 -2.45239 0
M  V30 2876 C 260.664 -6.8523 -2.18752 0
M  V30 2877 C 262.69 -5.4921 -2.19369 0
M  V30 2878 C 262.052 -6.73558 -2.06153 0
M  V30 2879 H 258.151 -0.496434 -0.604216 0
M  V30 2880 H 260.735 -1.64544 -1.04083 0
M  V30 2881 H 258.906 -1.55455 -3.55933 0
M  V30 2882 H 260.638 -1.79225 -3.62851 0
M  V30 2883 H 257.393 -3.69739 -2.95956 0
M  V30 2884 H 257.817 -6.28199 -2.52378 0
M  V30 2885 H 262.459 -3.37856 -2.54191 0
M  V30 2886 H 260.177 -7.80729 -2.08537 0
M  V30 2887 H 263.763 -5.43054 -2.08766 0
M  V30 2888 H 262.643 -7.61721 -1.86416 0
M  V30 2889 N 260.146 1.09593 -1.13257 0
M  V30 2890 C 261.395 1.81105 -0.887917 0
M  V30 2891 C 261.708 1.86563 0.587672 0
M  V30 2892 O 262.914 2.54367 0.949204 0
M  V30 2893 C 261.37 3.25338 -1.53895 0
M  V30 2894 C 260.978 3.28151 -3.04994 0
M  V30 2895 C 262.722 4.01617 -1.37492 0
M  V30 2896 C 260.629 4.66897 -3.6299 0
M  V30 2897 H 259.559 0.678661 -0.328534 0
M  V30 2898 H 262.21 1.23183 -1.36008 0
M  V30 2899 H 260.592 3.8331 -0.994446 0
M  V30 2900 H 261.766 2.79953 -3.66009 0
M  V30 2901 H 260.081 2.65361 -3.20893 0
M  V30 2902 H 262.678 5.04119 -1.78235 0
M  V30 2903 H 263.021 4.15072 -0.31957 0
M  V30 2904 H 263.554 3.50082 -1.88912 0
M  V30 2905 H 260.293 4.58643 -4.68323 0
M  V30 2906 H 259.813 5.15426 -3.06752 0
M  V30 2907 H 261.492 5.3587 -3.62563 0
M  V30 2908 N 261.624 0.925811 1.2754 0
M  V30 2909 C 262.872 0.564138 1.94067 0
M  V30 2910 C 263.193 -0.897188 1.73134 0
M  V30 2911 O 262.463 -1.63573 1.07799 0
M  V30 2912 H 261.043 0.205645 0.718136 0
M  V30 2913 H 263.705 1.1778 1.55287 0
M  V30 2914 H 262.801 0.76881 3.02483 0
M  V30 2915 N 263.102 -1.41638 0.69111 0
M  V30 2916 C 264.332 -2.0533 0.228758 0
M  V30 2917 C 264.74 -1.52089 -1.12541 0
M  V30 2918 O 264.083 -0.662145 -1.71351 0
M  V30 2919 C 264.145 -3.59349 0.10407 0
M  V30 2920 C 263.809 -4.35362 1.38956 0
M  V30 2921 C 264.806 -4.64942 2.32648 0
M  V30 2922 C 262.491 -4.74714 1.64169 0
M  V30 2923 C 264.485 -5.32828 3.49818 0
M  V30 2924 C 262.172 -5.42338 2.81625 0
M  V30 2925 C 263.17 -5.71322 3.74273 0
M  V30 2926 O 262.858 -6.37554 4.89673 0
M  V30 2927 H 262.59 -0.667796 0.104997 0
M  V30 2928 H 265.144 -1.82477 0.942938 0
M  V30 2929 H 263.374 -3.80924 -0.665839 0
M  V30 2930 H 265.063 -4.04633 -0.320519 0
M  V30 2931 H 265.829 -4.35025 2.14425 0
M  V30 2932 H 261.708 -4.51538 0.929202 0
M  V30 2933 H 265.252 -5.55368 4.22152 0
M  V30 2934 H 261.149 -5.71673 2.99768 0
M  V30 2935 H 261.917 -6.56049 4.8943 0
M  V30 2936 N 264.58 -0.43555 -1.51462 0
M  V30 2937 C 265.991 0.0279871 -1.86679 0
M  V30 2938 C 266.342 1.42104 -1.35281 0
M  V30 2939 O 265.467 2.04667 -0.702878 0
M  V30 2940 C 266.062 0.0575626 -3.38751 0
M  V30 2941 C 264.621 0.465507 -3.7351 0
M  V30 2942 C 263.768 -0.342996 -2.75171 0
M  V30 2943 H 266.719 -0.651473 -1.44712 0
M  V30 2944 H 266.74 0.867421 -3.70481 0
M  V30 2945 H 266.252 -0.956448 -3.7613 0
M  V30 2946 H 264.353 1.48519 -3.41721 0
M  V30 2947 H 264.466 0.191546 -4.78717 0
M  V30 2948 H 262.83 0.198442 -2.53926 0
M  V30 2949 H 263.613 -1.35585 -3.15391 0
M  V30 2950 N 266.058 1.56714 -0.166846 0
M  V30 2951 C 267.307 1.95922 0.479318 0
M  V30 2952 C 267.62 1.05529 1.6469 0
M  V30 2953 O 268.826 1.34399 2.35901 0
M  V30 2954 C 267.282 3.48359 0.90412 0
M  V30 2955 C 266.89 4.47369 -0.237621 0
M  V30 2956 C 268.634 3.96394 1.51896 0
M  V30 2957 C 266.541 5.91039 0.206561 0
M  V30 2958 H 265.471 0.731495 0.18284 0
M  V30 2959 H 268.122 1.81728 -0.254363 0
M  V30 2960 H 266.504 3.57955 1.69365 0
M  V30 2961 H 267.678 4.49485 -1.01489 0
M  V30 2962 H 265.993 4.09366 -0.762128 0
M  V30 2963 H 268.59 5.01186 1.86325 0
M  V30 2964 H 268.933 3.39075 2.41524 0
M  V30 2965 H 269.466 3.89796 0.79395 0
M  V30 2966 H 266.205 6.52221 -0.654834 0
M  V30 2967 H 265.725 5.9224 0.949282 0
M  V30 2968 H 267.404 6.43707 0.651939 0
M  V30 2969 N 267.536 -0.106894 1.57237 0
M  V30 2970 C 268.782 -0.81373 1.85759 0
M  V30 2971 C 269.115 -1.78952 0.754315 0
M  V30 2972 O 268.39 -1.93029 -0.23879 0
M  V30 2973 C 268.673 -1.55293 3.24894 0
M  V30 2974 C 268.526 -0.595929 4.45835 0
M  V30 2975 C 269.845 -2.5063 3.61763 0
M  V30 2976 H 266.964 -0.294369 0.67566 0
M  V30 2977 H 269.606 -0.0776472 1.89841 0
M  V30 2978 H 267.756 -2.1804 3.21544 0
M  V30 2979 H 269.428 0.0236262 4.61294 0
M  V30 2980 H 267.671 0.0916191 4.33703 0
M  V30 2981 H 268.342 -1.15004 5.39887 0
M  V30 2982 H 270.818 -1.97982 3.65981 0
M  V30 2983 H 269.694 -2.99376 4.60071 0
M  V30 2984 H 269.955 -3.3385 2.89821 0
M  V30 2985 N 269.014 -1.53014 -0.377408 0
M  V30 2986 C 270.26 -1.69821 -1.11948 0
M  V30 2987 C 270.615 -0.438581 -1.87335 0
M  V30 2988 O 269.908 0.568094 -1.82984 0
M  V30 2989 C 270.102 -2.87982 -2.11663 0
M  V30 2990 C 269.931 -4.25315 -1.46072 0
M  V30 2991 C 268.701 -4.90354 -1.21986 0
M  V30 2992 C 270.899 -5.06281 -0.904664 0
M  V30 2993 N 268.881 -6.11641 -0.526215 0
M  V30 2994 C 270.252 -6.19069 -0.339726 0
M  V30 2995 C 272.307 -4.91395 -0.8022 0
M  V30 2996 C 271.01 -7.18598 0.317669 0
M  V30 2997 C 273.036 -5.91187 -0.158606 0
M  V30 2998 C 272.398 -7.03289 0.39551 0
M  V30 2999 H 268.497 -0.674785 -0.395207 0
M  V30 3000 H 271.081 -1.90389 -0.407437 0
M  V30 3001 H 269.252 -2.68974 -2.80192 0
M  V30 3002 H 270.984 -2.93669 -2.78461 0
M  V30 3003 H 267.739 -4.49286 -1.49798 0
M  V30 3004 H 268.163 -6.76719 -0.195098 0
M  V30 3005 H 272.805 -4.04925 -1.21639 0
M  V30 3006 H 270.523 -8.04669 0.743836 0
M  V30 3007 H 274.109 -5.81744 -0.0804138 0
M  V30 3008 H 272.989 -7.79183 0.885648 0
M  V30 3009 N 270.492 0.636531 -1.44174 0
M  V30 3010 C 271.741 1.39213 -1.45954 0
M  V30 3011 C 272.054 1.95374 -0.0939119 0
M  V30 3012 O 273.26 2.71498 0.0107767 0
M  V30 3013 C 271.716 2.52025 -2.56927 0
M  V30 3014 C 271.324 2.024 -3.99673 0
M  V30 3015 C 273.068 3.29269 -2.67922 0
M  V30 3016 C 270.975 3.12521 -5.0208 0
M  V30 3017 H 269.905 0.523132 -0.542999 0
M  V30 3018 H 272.556 0.685349 -1.70221 0
M  V30 3019 H 270.938 3.25253 -2.25891 0
M  V30 3020 H 272.112 1.36073 -4.40251 0
M  V30 3021 H 270.427 1.37987 -3.92872 0
M  V30 3022 H 273.024 4.11352 -3.41605 0
M  V30 3023 H 273.367 3.78397 -1.73555 0
M  V30 3024 H 273.9 2.63129 -2.98342 0
M  V30 3025 H 270.639 2.68343 -5.98057 0
M  V30 3026 H 270.159 3.77507 -4.66099 0
M  V30 3027 H 271.838 3.77385 -5.25538 0
M  V30 3028 N 271.97 1.30982 0.876444 0
M  V30 3029 C 273.219 1.19658 1.62373 0
M  V30 3030 C 273.532 -0.245636 1.94052 0
M  V30 3031 O 274.738 -0.48049 2.67214 0
M  V30 3032 C 273.194 2.09433 2.92687 0
M  V30 3033 C 272.802 3.58613 2.68516 0
M  V30 3034 C 274.546 2.06893 3.70669 0
M  V30 3035 C 272.453 4.40416 3.94699 0
M  V30 3036 H 271.383 0.444268 0.609214 0
M  V30 3037 H 274.034 1.55791 0.969605 0
M  V30 3038 H 272.416 1.66191 3.59439 0
M  V30 3039 H 273.59 4.10058 2.10212 0
M  V30 3040 H 271.905 3.63063 2.03898 0
M  V30 3041 H 274.502 2.65258 4.64265 0
M  V30 3042 H 274.845 1.05448 4.02724 0
M  V30 3043 H 275.378 2.48301 3.10792 0
M  V30 3044 H 272.117 5.42591 3.67798 0
M  V30 3045 H 271.637 3.93731 4.52477 0
M  V30 3046 H 273.316 4.52294 4.62644 0
M  V30 3047 N 273.449 -1.08991 1.13837 0
M  V30 3048 C 274.697 -1.80899 0.901098 0
M  V30 3049 C 275.018 -1.86356 -0.574134 0
M  V30 3050 O 274.288 -1.35235 -1.41733 0
M  V30 3051 H 272.868 -0.669966 0.330386 0
M  V30 3052 H 275.53 -1.318 1.43578 0
M  V30 3053 H 274.626 -2.83929 1.29578 0
M  V30 3054 N 274.927 -0.932562 -1.27047 0
M  V30 3055 C 276.338 -0.619451 -1.76124 0
M  V30 3056 C 276.689 0.865397 -1.76083 0
M  V30 3057 O 275.814 1.67722 -1.36742 0
M  V30 3058 C 276.409 -1.11771 -3.19832 0
M  V30 3059 C 274.968 -0.855174 -3.66557 0
M  V30 3060 C 274.115 -1.27362 -2.46321 0
M  V30 3061 H 277.066 -1.11181 -1.13245 0
M  V30 3062 H 277.087 -0.46759 -3.77616 0
M  V30 3063 H 276.599 -2.19842 -3.1983 0
M  V30 3064 H 274.7 0.211524 -3.71999 0
M  V30 3065 H 274.813 -1.47613 -4.55793 0
M  V30 3066 H 273.177 -0.692119 -2.45116 0
M  V30 3067 H 273.96 -2.36307 -2.49025 0
M  V30 3068 N 276.405 1.4127 -0.698611 0
M  V30 3069 C 277.63 2.06024 -0.238512 0
M  V30 3070 C 278.055 1.5224 1.10475 0
M  V30 3071 O 277.413 0.650623 1.69223 0
M  V30 3072 C 277.461 3.59988 -0.209952 0
M  V30 3073 O 276.565 4.04282 0.814235 0
M  V30 3074 H 275.906 0.653829 -0.115775 0
M  V30 3075 H 278.436 1.8098 -0.954326 0
M  V30 3076 H 278.446 4.07979 -0.0418436 0
M  V30 3077 H 277.121 3.98503 -1.1903 0
M  V30 3078 H 275.698 3.6779 0.615234 0
M  V30 3079 N 277.883 0.443576 1.51229 0
M  V30 3080 C 279.131 -0.120557 2.0174 0
M  V30 3081 C 279.452 -1.42665 1.32935 0
M  V30 3082 O 278.722 -1.9028 0.465866 0
M  V30 3083 H 277.302 -0.0475426 0.745486 0
M  V30 3084 H 279.964 0.587711 1.85828 0
M  V30 3085 H 279.06 -0.291972 3.10731 0
M  V30 3086 N 279.361 -1.56624 0.175154 0
M  V30 3087 C 280.608 -1.96999 -0.468811 0
M  V30 3088 C 280.936 -1.06129 -1.62994 0
M  V30 3089 O 280.191 -0.0961771 -1.95464 0
M  V30 3090 C 280.49 -3.43419 -0.989864 0
M  V30 3091 C 280.156 -4.50866 0.0557687 0
M  V30 3092 C 278.818 -4.79975 0.343134 0
M  V30 3093 C 281.17 -5.15551 0.765308 0
M  V30 3094 C 278.498 -5.71066 1.34536 0
M  V30 3095 C 280.85 -6.07724 1.75654 0
M  V30 3096 C 279.514 -6.35199 2.05132 0
M  V30 3097 H 278.784 -0.720869 -0.17155 0
M  V30 3098 H 281.431 -1.89616 0.267924 0
M  V30 3099 H 279.736 -3.47772 -1.80449 0
M  V30 3100 H 281.433 -3.72002 -1.49719 0
M  V30 3101 H 278.023 -4.28229 -0.178381 0
M  V30 3102 H 282.207 -4.9317 0.556513 0
M  V30 3103 H 277.463 -5.90635 1.57988 0
M  V30 3104 H 281.637 -6.56912 2.31169 0
M  V30 3105 H 279.264 -7.05584 2.8294 0
M  V30 3106 N 280.839 0.0985539 -1.57292 0
M  V30 3107 C 282.087 0.801092 -1.85545 0
M  V30 3108 C 282.408 1.79438 -0.763353 0
M  V30 3109 O 281.678 1.94763 0.21073 0
M  V30 3110 H 280.258 0.29884 -0.684619 0
M  V30 3111 H 282.92 0.0810064 -1.94732 0
M  V30 3112 H 282.016 1.3338 -2.82163 0
M  V30 3113 N 282.317 1.53212 0.369288 0
M  V30 3114 C 283.563 1.70413 1.11046 0
M  V30 3115 C 283.918 0.448509 1.87099 0
M  V30 3116 O 283.211 -0.558382 1.83283 0
M  V30 3117 C 283.405 2.89101 2.10132 0
M  V30 3118 C 283.234 4.26084 1.43814 0
M  V30 3119 C 282.004 4.90994 1.19384 0
M  V30 3120 C 284.202 5.06754 0.877802 0
M  V30 3121 N 282.184 6.11911 0.49377 0
M  V30 3122 C 283.555 6.1924 0.306891 0
M  V30 3123 C 285.61 4.91814 0.776129 0
M  V30 3124 C 284.313 7.1842 -0.355774 0
M  V30 3125 C 286.339 5.91263 0.127252 0
M  V30 3126 C 285.701 7.03069 -0.432801 0
M  V30 3127 H 281.8 0.676872 0.391623 0
M  V30 3128 H 284.384 1.90603 0.397334 0
M  V30 3129 H 282.555 2.70456 2.78761 0
M  V30 3130 H 284.287 2.95142 2.76899 0
M  V30 3131 H 281.042 4.50074 1.47413 0
M  V30 3132 H 281.466 6.76813 0.159207 0
M  V30 3133 H 286.108 4.05564 1.19489 0
M  V30 3134 H 283.826 8.04264 -0.786499 0
M  V30 3135 H 287.412 5.81779 0.0495613 0
M  V30 3136 H 286.292 7.78702 -0.926958 0
M  V30 3137 N 283.795 -0.628877 1.44509 0
M  V30 3138 C 285.044 -1.38437 1.4669 0
M  V30 3139 C 285.357 -1.95322 0.104272 0
M  V30 3140 O 286.563 -2.715 0.00362163 0
M  V30 3141 C 285.019 -2.50659 2.5826 0
M  V30 3142 C 284.627 -2.00277 4.0074 0
M  V30 3143 C 286.371 -3.27844 2.69664 0
M  V30 3144 C 284.278 -3.09854 5.0373 0
M  V30 3145 H 283.208 -0.520245 0.545766 0
M  V30 3146 H 285.859 -0.676313 1.70582 0
M  V30 3147 H 284.241 -3.2405 2.27612 0
M  V30 3148 H 285.415 -1.33736 4.40966 0
M  V30 3149 H 283.73 -1.35901 3.93599 0
M  V30 3150 H 286.327 -4.09534 3.43781 0
M  V30 3151 H 286.67 -3.77471 1.75559 0
M  V30 3152 H 287.203 -2.61543 2.99733 0
M  V30 3153 H 283.942 -2.65168 5.99472 0
M  V30 3154 H 283.462 -3.7503 4.68095 0
M  V30 3155 H 285.141 -3.74592 5.27532 0
M  V30 3156 N 285.273 -1.31445 -0.869486 0
M  V30 3157 C 286.221 -1.19067 -1.99814 0
M  V30 3158 C 287.215 -0.0988569 -1.69111 0
M  V30 3159 O 288.421 -0.260781 -1.78101 0
M  V30 3160 H 284.796 -0.368677 -0.655425 0
M  V30 3161 H 286.767 -2.14555 -2.07385 0
M  V30 3162 C 285.516 -0.915323 -3.35436 0
M  V30 3163 H 284.839 -1.74759 -3.59582 0
M  V30 3164 H 286.279 -0.868895 -4.15001 0
M  V30 3165 C 284.738 0.381928 -3.34728 0
M  V30 3166 O 285.268 1.39857 -3.76567 0
M  V30 3167 N 283.474 0.398633 -2.87853 0
M  V30 3168 H 283.021 -0.429186 -2.54 0
M  V30 3169 H 282.979 1.26651 -2.87762 0
M  V30 3170 N 286.751 1.08385 -1.14413 0
M  V30 3171 C 287.683 2.1519 -0.789036 0
M  V30 3172 C 288.696 1.61638 0.19417 0
M  V30 3173 O 289.885 1.78479 -0.0275711 0
M  V30 3174 C 286.985 3.38565 -0.15058 0
M  V30 3175 C 286.158 4.21501 -1.16857 0
M  V30 3176 C 285.217 5.23277 -0.553832 0
M  V30 3177 O 284.243 5.56041 -1.21686 0
M  V30 3178 N 285.445 5.76629 0.669296 0
M  V30 3179 H 288.21 2.46257 -1.70814 0
M  V30 3180 H 285.771 1.24198 -1.03858 0
M  V30 3181 H 287.763 4.03777 0.273181 0
M  V30 3182 H 286.333 3.05299 0.671667 0
M  V30 3183 H 285.553 3.52265 -1.76926 0
M  V30 3184 H 286.841 4.73731 -1.85624 0
M  V30 3185 H 286.239 5.52243 1.22654 0
M  V30 3186 H 284.796 6.43521 1.03556 0
M  V30 3187 N 288.23 0.939286 1.26551 0
M  V30 3188 C 289.458 0.602536 1.97932 0
M  V30 3189 C 289.873 -0.82206 1.69964 0
M  V30 3190 O 289.23 -1.54789 0.966784 0
M  V30 3191 C 289.281 0.832946 3.51773 0
M  V30 3192 O 289.002 2.20151 3.78768 0
M  V30 3193 C 290.503 0.506483 4.40397 0
M  V30 3194 H 287.723 0.227248 0.631347 0
M  V30 3195 H 290.267 1.25948 1.61113 0
M  V30 3196 H 288.422 0.222644 3.8676 0
M  V30 3197 H 288.836 2.26013 4.73306 0
M  V30 3198 H 290.31 0.718333 5.47306 0
M  V30 3199 H 290.787 -0.558451 4.35635 0
M  V30 3200 H 291.393 1.09543 4.10951 0
M  V30 3201 N 289.708 -1.40897 0.706093 0
M  V30 3202 C 290.957 -2.00284 0.238574 0
M  V30 3203 C 291.27 -1.56604 -1.17194 0
M  V30 3204 O 292.476 -2.08624 -1.73748 0
M  V30 3205 C 290.932 -3.57934 0.375623 0
M  V30 3206 C 290.54 -4.10591 1.79217 0
M  V30 3207 C 292.284 -4.24488 -0.0315857 0
M  V30 3208 C 290.191 -5.60712 1.88032 0
M  V30 3209 H 289.121 -0.749144 0.0854398 0
M  V30 3210 H 291.772 -1.61251 0.875813 0
M  V30 3211 H 290.154 -3.94622 -0.330042 0
M  V30 3212 H 291.328 -3.85301 2.52745 0
M  V30 3213 H 289.643 -3.56601 2.15 0
M  V30 3214 H 292.24 -5.34698 0.0136842 0
M  V30 3215 H 292.583 -4.02261 -1.072 0
M  V30 3216 H 293.116 -3.92873 0.624181 0
M  V30 3217 H 289.855 -5.87781 2.90161 0
M  V30 3218 H 289.375 -5.87896 1.18903 0
M  V30 3219 H 291.054 -6.25658 1.64805 0
M  V30 3220 N 291.186 -0.45159 -1.50991 0
M  V30 3221 C 292.463 0.170707 -1.94854 0
M  V30 3222 C 292.843 1.58788 -1.39103 0
M  V30 3223 O 292.191 2.20913 -0.583921 0
M  V30 3224 C 292.401 0.133929 -3.48743 0
M  V30 3225 C 293.749 0.33248 -4.23296 0
M  V30 3226 O 294.773 0.211403 -3.55572 0
M  V30 3227 O 293.632 0.57486 -5.43468 0
M  V30 3228 H 290.726 0.122264 -0.817912 0
M  V30 3229 H 293.272 -0.510594 -1.61836 0
M  V30 3230 H 292.044 -0.856283 -3.81816 0
M  V30 3231 H 291.667 0.857529 -3.88242 0
M  V30 3232 N 292.664 1.56529 -0.183458 0
M  V30 3233 C 293.892 2.01623 0.464285 0
M  V30 3234 C 294.307 1.06366 1.55986 0
M  V30 3235 O 293.664 0.0665398 1.82379 0
M  V30 3236 C 293.715 3.46475 1.03139 0
M  V30 3237 O 293.436 4.38095 -0.0204675 0
M  V30 3238 C 294.937 4.0703 1.75617 0
M  V30 3239 H 292.157 0.660596 0.117704 0
M  V30 3240 H 294.701 2.02451 -0.288751 0
M  V30 3241 H 292.856 3.46383 1.73486 0
M  V30 3242 H 293.27 5.22973 0.399952 0
M  V30 3243 H 294.744 5.10271 2.10542 0
M  V30 3244 H 295.221 3.49819 2.65563 0
M  V30 3245 H 295.827 4.1086 1.09882 0
M  V30 3246 N 294.142 -0.090211 1.57342 0
M  V30 3247 C 295.389 -0.792807 1.86335 0
M  V30 3248 C 295.717 -1.78494 0.772662 0
M  V30 3249 O 294.972 -1.94305 -0.233258 0
M  V30 3250 C 295.271 -1.55222 3.21933 0
M  V30 3251 C 294.937 -0.701765 4.45406 0
M  V30 3252 C 293.599 -0.467334 4.78925 0
M  V30 3253 C 295.951 -0.11086 5.21082 0
M  V30 3254 C 293.279 0.367785 5.85546 0
M  V30 3255 C 295.631 0.711609 6.28585 0
M  V30 3256 C 294.295 0.956086 6.60617 0
M  V30 3257 H 293.565 -0.290109 0.681849 0
M  V30 3258 H 296.212 -0.0541332 1.91423 0
M  V30 3259 H 294.517 -2.3626 3.12551 0
M  V30 3260 H 296.214 -2.10032 3.41595 0
M  V30 3261 H 292.804 -0.894598 4.1916 0
M  V30 3262 H 296.988 -0.279129 4.95514 0
M  V30 3263 H 292.244 0.566128 6.08773 0
M  V30 3264 H 296.418 1.17632 6.86393 0
M  V30 3265 H 294.045 1.60499 7.43064 0
M  V30 3266 N 295.62 -1.53406 -0.361157 0
M  V30 3267 C 296.55 -1.83136 -1.44857 0
M  V30 3268 C 297.531 -0.685174 -1.5569 0
M  V30 3269 O 298.716 -0.93544 -1.70186 0
M  V30 3270 C 295.846 -2.02522 -2.82138 0
M  V30 3271 C 294.8 -3.18302 -2.86126 0
M  V30 3272 C 294.126 -3.22989 -4.26125 0
M  V30 3273 C 295.426 -4.56796 -2.53248 0
M  V30 3274 H 297.12 -2.74201 -1.20226 0
M  V30 3275 H 294.666 -1.31938 -0.576922 0
M  V30 3276 H 296.619 -2.21904 -3.58241 0
M  V30 3277 H 295.343 -1.08172 -3.08166 0
M  V30 3278 H 294.002 -2.98747 -2.12475 0
M  V30 3279 H 293.65 -2.26267 -4.49235 0
M  V30 3280 H 293.35 -4.00781 -4.29708 0
M  V30 3281 H 294.874 -3.44559 -5.04094 0
M  V30 3282 H 296.288 -4.7631 -3.19064 0
M  V30 3283 H 294.685 -5.36862 -2.68141 0
M  V30 3284 H 295.755 -4.61606 -1.48484 0
M  V30 3285 N 297.098 0.621204 -1.44841 0
M  V30 3286 C 298.345 1.38055 -1.48145 0
M  V30 3287 C 298.673 1.94143 -0.117867 0
M  V30 3288 O 297.928 1.74713 0.881694 0
M  V30 3289 C 298.227 2.55675 -2.4973 0
M  V30 3290 C 297.893 2.17817 -3.94799 0
M  V30 3291 C 296.555 2.07205 -4.34303 0
M  V30 3292 C 298.907 1.88065 -4.86087 0
M  V30 3293 C 296.235 1.65045 -5.63007 0
M  V30 3294 C 298.587 1.47394 -6.15189 0
M  V30 3295 C 297.251 1.35331 -6.53637 0
M  V30 3296 H 296.521 0.505181 -0.542101 0
M  V30 3297 H 299.168 0.703477 -1.78111 0
M  V30 3298 H 297.473 3.2866 -2.13284 0
M  V30 3299 H 299.17 3.13904 -2.4953 0
M  V30 3300 H 295.76 2.26998 -3.63552 0
M  V30 3301 H 299.944 1.95168 -4.56315 0
M  V30 3302 H 295.2 1.54317 -5.91605 0
M  V30 3303 H 299.374 1.23415 -6.85377 0
M  V30 3304 H 297.001 1.02435 -7.53267 0
M  V30 3305 N 298.576 1.31904 0.862503 0
M  V30 3306 C 299.816 1.23324 1.63004 0
M  V30 3307 C 300.18 -0.203724 1.90916 0
M  V30 3308 O 301.381 -0.413132 2.65606 0
M  V30 3309 C 299.652 2.06116 2.91978 0
M  V30 3310 S 301.211 2.14478 3.82812 0
M  V30 3311 H 298.029 0.439117 0.559193 0
M  V30 3312 H 300.631 1.66658 1.02202 0
M  V30 3313 H 299.335 3.09593 2.69407 0
M  V30 3314 H 298.866 1.6353 3.57801 0
M  V30 3315 H 300.881 1.28855 4.79177 0
M  V30 3316 N 300.054 -1.07777 1.14986 0
M  V30 3317 C 300.984 -2.16865 0.865557 0
M  V30 3318 C 301.965 -1.69123 -0.182083 0
M  V30 3319 O 303.15 -1.94164 -0.0373815 0
M  V30 3320 C 300.28 -3.45539 0.349313 0
M  V30 3321 C 299.234 -4.06708 1.33313 0
M  V30 3322 C 298.56 -5.30411 0.675918 0
M  V30 3323 C 299.86 -4.47241 2.69764 0
M  V30 3324 H 301.554 -2.40905 1.77778 0
M  V30 3325 H 299.1 -1.15781 0.856203 0
M  V30 3326 H 301.053 -4.21174 0.137983 0
M  V30 3327 H 299.777 -3.21072 -0.598362 0
M  V30 3328 H 298.436 -3.33112 1.53075 0
M  V30 3329 H 298.084 -5.02232 -0.277767 0
M  V30 3330 H 297.784 -5.72293 1.33244 0
M  V30 3331 H 299.308 -6.08755 0.474262 0
M  V30 3332 H 300.722 -5.14025 2.53873 0
M  V30 3333 H 299.119 -5.00062 3.3175 0
M  V30 3334 H 300.189 -3.58818 3.26156 0
M  V30 3335 N 301.532 -0.945985 -1.26051 0
M  V30 3336 C 302.462 -0.477172 -2.28572 0
M  V30 3337 C 303.443 0.472032 -1.63419 0
M  V30 3338 O 304.628 0.372853 -1.90587 0
M  V30 3339 C 301.758 0.253975 -3.4637 0
M  V30 3340 C 300.712 -0.609135 -4.23643 0
M  V30 3341 C 300.038 0.252252 -5.34105 0
M  V30 3342 C 301.338 -1.8829 -4.8718 0
M  V30 3343 H 303.032 -1.33402 -2.68038 0
M  V30 3344 H 300.578 -0.642904 -1.28852 0
M  V30 3345 H 302.531 0.593016 -4.17207 0
M  V30 3346 H 301.255 1.145 -3.05871 0
M  V30 3347 H 299.914 -0.931138 -3.54578 0
M  V30 3348 H 299.562 1.14278 -4.89846 0
M  V30 3349 H 299.262 -0.32188 -5.86718 0
M  V30 3350 H 300.786 0.586454 -6.07777 0
M  V30 3351 H 302.2 -1.61081 -5.50205 0
M  V30 3352 H 300.597 -2.40199 -5.49931 0
M  V30 3353 H 301.667 -2.59134 -4.09851 0
M  V30 3354 N 303.011 1.40521 -0.713556 0
M  V30 3355 C 304.422 1.83853 -0.324807 0
M  V30 3356 C 304.773 1.59667 1.14021 0
M  V30 3357 O 303.898 1.07649 1.87725 0
M  V30 3358 C 304.493 3.33751 -0.582746 0
M  V30 3359 C 303.052 3.75584 -0.247727 0
M  V30 3360 C 302.199 2.63753 -0.856121 0
M  V30 3361 H 305.15 1.29817 -0.91286 0
M  V30 3362 H 305.171 3.80194 0.152682 0
M  V30 3363 H 304.683 3.51322 -1.64908 0
M  V30 3364 H 302.784 3.63608 0.813624 0
M  V30 3365 H 302.897 4.7373 -0.715307 0
M  V30 3366 H 301.261 2.53108 -0.28432 0
M  V30 3367 H 302.044 2.84137 -1.92668 0
M  V30 3368 N 304.489 0.459591 1.5075 0
M  V30 3369 C 305.736 -0.0993495 2.02256 0
M  V30 3370 C 306.064 -1.40751 1.34237 0
M  V30 3371 O 305.319 -1.90379 0.453228 0
M  V30 3372 C 305.618 -0.342866 3.55752 0
M  V30 3373 C 305.284 0.88218 4.42186 0
M  V30 3374 C 303.946 1.21808 4.65528 0
M  V30 3375 C 306.298 1.69837 4.92752 0
M  V30 3376 C 303.626 2.37045 5.36681 0
M  V30 3377 C 305.978 2.84192 5.65171 0
M  V30 3378 C 304.642 3.1821 5.8677 0
M  V30 3379 H 303.912 -0.0363545 0.740108 0
M  V30 3380 H 306.559 0.611329 1.8148 0
M  V30 3381 H 304.864 -1.13567 3.7498 0
M  V30 3382 H 306.561 -0.789121 3.93159 0
M  V30 3383 H 303.151 0.610467 4.2423 0
M  V30 3384 H 307.335 1.45205 4.74583 0
M  V30 3385 H 302.591 2.63689 5.51614 0
M  V30 3386 H 306.765 3.4779 6.03337 0
M  V30 3387 H 304.392 4.07613 6.41682 0
M  V30 3388 N 305.967 -1.56429 0.191757 0
M  V30 3389 C 307.214 -1.97485 -0.447891 0
M  V30 3390 C 307.542 -1.07852 -1.61859 0
M  V30 3391 O 306.797 -0.116903 -1.95351 0
M  V30 3392 C 307.096 -3.44449 -0.953384 0
M  V30 3393 C 306.762 -4.50781 0.103586 0
M  V30 3394 C 305.424 -4.79584 0.394023 0
M  V30 3395 C 307.776 -5.1471 0.819946 0
M  V30 3396 C 305.104 -5.69607 1.40585 0
M  V30 3397 C 307.456 -6.05827 1.8209 0
M  V30 3398 C 306.12 -6.32987 2.11857 0
M  V30 3399 H 305.39 -0.722648 -0.163895 0
M  V30 3400 H 308.037 -1.89322 0.28802 0
M  V30 3401 H 306.342 -3.49666 -1.76751 0
M  V30 3402 H 308.039 -3.73569 -1.45765 0
M  V30 3403 H 304.629 -4.28394 -0.132951 0
M  V30 3404 H 308.813 -4.92552 0.608789 0
M  V30 3405 H 304.069 -5.88926 1.64243 0
M  V30 3406 H 308.243 -6.54424 2.38123 0
M  V30 3407 H 305.87 -7.02544 2.90407 0
M  V30 3408 N 307.445 0.0818655 -1.57387 0
M  V30 3409 C 308.67 0.799946 -1.91352 0
M  V30 3410 C 309.095 1.70833 -0.787258 0
M  V30 3411 O 308.453 1.79419 0.26048 0
M  V30 3412 C 308.501 1.57812 -3.24234 0
M  V30 3413 O 307.605 2.68806 -3.12757 0
M  V30 3414 H 306.946 0.21891 -0.626877 0
M  V30 3415 H 309.476 0.0531256 -2.04531 0
M  V30 3416 H 309.486 1.95952 -3.57864 0
M  V30 3417 H 308.161 0.911548 -4.05788 0
M  V30 3418 H 306.738 2.33597 -2.90666 0
M  V30 3419 N 308.923 1.53595 0.353017 0
M  V30 3420 C 309.87 1.80919 1.43308 0
M  V30 3421 C 310.84 0.654288 1.5267 0
M  V30 3422 O 312.025 0.897759 1.6836 0
M  V30 3423 C 309.165 2.01605 2.80089 0
M  V30 3424 C 308.278 3.29321 2.79593 0
M  V30 3425 C 307.413 3.40125 4.0803 0
M  V30 3426 C 306.452 4.61826 4.01725 0
M  V30 3427 N 305.589 4.69716 5.21834 0
M  V30 3428 H 310.429 2.73074 1.19308 0
M  V30 3429 H 307.966 1.35263 0.578131 0
M  V30 3430 H 309.924 2.11586 3.59565 0
M  V30 3431 H 308.554 1.12772 3.0246 0
M  V30 3432 H 307.606 3.28229 1.92276 0
M  V30 3433 H 308.918 4.18884 2.70809 0
M  V30 3434 H 308.072 3.49488 4.95927 0
M  V30 3435 H 306.811 2.48601 4.19582 0
M  V30 3436 H 305.816 4.52552 3.12213 0
M  V30 3437 H 307.041 5.54705 3.91764 0
M  V30 3438 H 304.987 3.81097 5.33948 0
M  V30 3439 H 304.904 5.53202 5.1527 0
M  V30 3440 H 306.172 4.83376 6.11529 0
M  V30 3441 N 310.401 -0.613514 1.45168 0
M  V30 3442 C 311.647 -1.37471 1.49096 0
M  V30 3443 C 311.98 -1.93765 0.129901 0
M  V30 3444 O 311.255 -1.74707 -0.854858 0
M  V30 3445 C 311.538 -2.52701 2.56542 0
M  V30 3446 C 311.391 -2.01643 4.0207 0
M  V30 3447 C 312.71 -3.54849 2.60327 0
M  V30 3448 H 309.829 -0.498502 0.54283 0
M  V30 3449 H 312.471 -0.692125 1.76945 0
M  V30 3450 H 310.621 -3.10931 2.32926 0
M  V30 3451 H 312.293 -1.48108 4.36877 0
M  V30 3452 H 310.536 -1.32688 4.13009 0
M  V30 3453 H 311.207 -2.84681 4.72928 0
M  V30 3454 H 313.683 -3.0645 2.81474 0
M  V30 3455 H 312.559 -4.32973 3.37381 0
M  V30 3456 H 312.82 -4.10079 1.6519 0
M  V30 3457 N 311.879 -1.3236 -0.855495 0
M  V30 3458 C 313.127 -1.22629 -1.60644 0
M  V30 3459 C 313.448 0.212136 -1.93843 0
M  V30 3460 O 312.718 1.13666 -1.59552 0
M  V30 3461 H 311.298 -0.450882 -0.595579 0
M  V30 3462 H 313.96 -1.65871 -1.02337 0
M  V30 3463 H 313.056 -1.80832 -2.54374 0
M  V30 3464 N 313.357 1.07166 -1.15556 0
M  V30 3465 C 314.604 1.79798 -0.931604 0
M  V30 3466 C 314.932 1.8682 0.54115 0
M  V30 3467 O 314.187 1.34942 1.41736 0
M  V30 3468 C 314.486 3.24707 -1.49332 0
M  V30 3469 C 314.152 3.37781 -2.98688 0
M  V30 3470 C 312.814 3.41057 -3.39461 0
M  V30 3471 C 315.166 3.40424 -3.94665 0
M  V30 3472 C 312.494 3.4458 -4.74849 0
M  V30 3473 C 314.846 3.45485 -5.29927 0
M  V30 3474 C 313.51 3.47039 -5.70193 0
M  V30 3475 H 312.78 0.657928 -0.340898 0
M  V30 3476 H 315.427 1.26091 -1.44129 0
M  V30 3477 H 313.732 3.81208 -0.904859 0
M  V30 3478 H 315.429 3.79486 -1.29582 0
M  V30 3479 H 312.019 3.35932 -2.66172 0
M  V30 3480 H 316.203 3.37113 -3.64237 0
M  V30 3481 H 311.459 3.44083 -5.05388 0
M  V30 3482 H 315.633 3.46476 -6.04092 0
M  V30 3483 H 313.26 3.49522 -6.75084 0
M  V30 3484 N 314.835 0.952656 1.25548 0
M  V30 3485 C 316.06 0.623025 1.97821 0
M  V30 3486 C 316.485 -0.7976 1.70352 0
M  V30 3487 O 315.843 -1.53905 0.958283 0
M  V30 3488 C 315.891 0.885532 3.49558 0
M  V30 3489 O 314.995 -0.0366641 4.12384 0
M  V30 3490 H 314.336 0.237082 0.620232 0
M  V30 3491 H 316.866 1.27871 1.59719 0
M  V30 3492 H 316.876 0.811009 3.99858 0
M  V30 3493 H 315.551 1.92094 3.6888 0
M  V30 3494 H 314.128 0.0898954 3.72792 0
M  V30 3495 N 316.313 -1.40141 0.720998 0
M  V30 3496 C 317.56 -2.00787 0.262842 0
M  V30 3497 C 317.888 -1.5718 -1.14563 0
M  V30 3498 O 317.143 -0.785391 -1.79249 0
M  V30 3499 C 317.442 -3.56165 0.296892 0
M  V30 3500 C 317.108 -4.19373 1.65641 0
M  V30 3501 C 315.77 -4.36352 2.02855 0
M  V30 3502 C 318.122 -4.54578 2.54968 0
M  V30 3503 C 315.45 -4.8582 3.28931 0
M  V30 3504 C 317.802 -5.05447 3.80402 0
M  V30 3505 C 316.466 -5.20635 4.17726 0
M  V30 3506 H 315.736 -0.734731 0.0961807 0
M  V30 3507 H 318.383 -1.67673 0.925093 0
M  V30 3508 H 316.688 -3.8922 -0.448932 0
M  V30 3509 H 318.385 -4.00929 -0.0755208 0
M  V30 3510 H 314.975 -4.06549 1.35704 0
M  V30 3511 H 319.159 -4.41091 2.27491 0
M  V30 3512 H 314.415 -4.95764 3.57811 0
M  V30 3513 H 318.589 -5.31663 4.49786 0
M  V30 3514 H 316.216 -5.58728 5.15487 0
M  V30 3515 N 317.792 -0.46758 -1.50504 0
M  V30 3516 C 318.722 0.318381 -2.31319 0
M  V30 3517 C 319.703 0.993564 -1.38066 0
M  V30 3518 O 320.888 0.991411 -1.66987 0
M  V30 3519 C 318.018 1.40275 -3.17711 0
M  V30 3520 C 316.972 0.849373 -4.19487 0
M  V30 3521 C 316.298 2.03177 -4.94594 0
M  V30 3522 C 317.598 -0.136942 -5.2212 0
M  V30 3523 H 319.292 -0.356106 -2.97275 0
M  V30 3524 H 316.838 -0.172703 -1.42961 0
M  V30 3525 H 318.791 1.96004 -3.73042 0
M  V30 3526 H 317.515 2.10596 -2.49634 0
M  V30 3527 H 316.174 0.314076 -3.65252 0
M  V30 3528 H 315.822 2.72187 -4.22993 0
M  V30 3529 H 315.522 1.66774 -5.63436 0
M  V30 3530 H 317.046 2.59403 -5.52759 0
M  V30 3531 H 318.46 0.331056 -5.72343 0
M  V30 3532 H 316.857 -0.41507 -5.98663 0
M  V30 3533 H 317.927 -1.06398 -4.73083 0
M  V30 3534 N 319.27 1.56325 -0.20005 0
M  V30 3535 C 320.547 1.89484 0.48529 0
M  V30 3536 C 320.927 1.1143 1.79294 0
M  V30 3537 O 320.275 0.216919 2.27468 0
M  V30 3538 C 320.485 3.41923 0.699243 0
M  V30 3539 C 321.833 4.12256 1.01638 0
M  V30 3540 O 322.857 3.47402 0.786792 0
M  V30 3541 O 321.716 5.26887 1.45095 0
M  V30 3542 H 318.81 0.787144 0.253639 0
M  V30 3543 H 321.356 1.67985 -0.240633 0
M  V30 3544 H 320.128 3.90658 -0.224008 0
M  V30 3545 H 319.751 3.69131 1.47744 0
M  V30 3546 N 320.748 -0.0735177 1.57428 0
M  V30 3547 C 321.678 -1.0879 2.06608 0
M  V30 3548 C 322.659 -1.40473 0.959237 0
M  V30 3549 O 323.844 -1.5013 1.23185 0
M  V30 3550 C 320.974 -2.40183 2.50857 0
M  V30 3551 C 319.928 -2.22858 3.65402 0
M  V30 3552 C 319.254 -3.59619 3.957 0
M  V30 3553 C 320.554 -1.65123 4.95511 0
M  V30 3554 H 322.248 -0.678673 2.91607 0
M  V30 3555 H 319.794 -0.325013 1.40284 0
M  V30 3556 H 321.747 -3.11437 2.83874 0
M  V30 3557 H 320.471 -2.83083 1.62885 0
M  V30 3558 H 319.13 -1.54045 3.32664 0
M  V30 3559 H 318.778 -4.00086 3.04861 0
M  V30 3560 H 318.478 -3.48866 4.72828 0
M  V30 3561 H 320.002 -4.32306 4.31212 0
M  V30 3562 H 321.416 -2.26241 5.26771 0
M  V30 3563 H 319.813 -1.65071 5.7695 0
M  V30 3564 H 320.883 -0.612559 4.81015 0
M  V30 3565 N 322.226 -1.5378 -0.344866 0
M  V30 3566 C 323.176 -1.78057 -1.42407 0
M  V30 3567 C 324.16 -0.635732 -1.47808 0
M  V30 3568 O 325.352 -0.89508 -1.527 0
M  V30 3569 C 322.481 -1.99242 -2.79566 0
M  V30 3570 C 321.567 -3.19787 -2.78562 0
M  V30 3571 N 321.958 -4.41284 -2.47189 0
M  V30 3572 C 320.256 -3.2093 -3.0971 0
M  V30 3573 C 320.957 -5.23128 -2.54385 0
M  V30 3574 N 319.933 -4.59813 -2.89953 0
M  V30 3575 H 323.735 -2.69588 -1.17046 0
M  V30 3576 H 321.249 -1.52687 -0.553217 0
M  V30 3577 H 323.246 -2.14768 -3.57324 0
M  V30 3578 H 321.906 -1.08953 -3.05875 0
M  V30 3579 H 322.917 -4.68657 -2.20411 0
M  V30 3580 H 319.594 -2.40603 -3.41199 0
M  V30 3581 H 320.984 -6.30096 -2.333 0
M  V30 3582 N 323.704 0.605807 -1.45491 0
M  V30 3583 C 324.952 1.36207 -1.49305 0
M  V30 3584 C 325.273 1.94519 -0.136863 0
M  V30 3585 O 324.543 1.77261 0.833983 0
M  V30 3586 H 323.123 0.50565 -0.549843 0
M  V30 3587 H 325.785 0.711239 -1.81459 0
M  V30 3588 H 324.881 2.18058 -2.23287 0
M  V30 3589 N 325.182 1.32811 0.848464 0
M  V30 3590 C 326.112 1.24882 1.97299 0
M  V30 3591 C 327.093 0.131357 1.69592 0
M  V30 3592 O 328.278 0.319553 1.91553 0
M  V30 3593 C 325.408 0.97746 3.33261 0
M  V30 3594 C 324.362 2.05682 3.75338 0
M  V30 3595 C 323.688 1.63777 5.09 0
M  V30 3596 C 324.988 3.47254 3.90144 0
M  V30 3597 H 326.682 2.18966 2.04191 0
M  V30 3598 H 324.228 1.05413 0.981029 0
M  V30 3599 H 326.181 0.908513 4.1149 0
M  V30 3600 H 324.905 0.000980011 3.266 0
M  V30 3601 H 323.564 2.11603 2.99366 0
M  V30 3602 H 323.212 0.648569 4.98801 0
M  V30 3603 H 322.912 2.36 5.38124 0
M  V30 3604 H 324.436 1.5833 5.89715 0
M  V30 3605 H 325.85 3.43888 4.58709 0
M  V30 3606 H 324.247 4.1788 4.30693 0
M  V30 3607 H 325.317 3.86462 2.92874 0
M  V30 3608 N 326.66 -1.06551 1.16123 0
M  V30 3609 C 328.076 -1.3142 0.905585 0
M  V30 3610 C 328.276 -1.96571 -0.442964 0
M  V30 3611 O 327.332 -2.23068 -1.18308 0
M  V30 3612 C 328.645 -2.19741 2.05267 0
M  V30 3613 C 330.193 -2.33165 2.08813 0
M  V30 3614 C 330.668 -3.24838 3.22868 0
M  V30 3615 N 332.159 -3.32421 3.22568 0
M  V30 3616 C 332.894 -4.0344 4.0746 0
M  V30 3617 N 332.39 -4.77003 5.02434 0
M  V30 3618 N 334.183 -3.99464 3.95456 0
M  V30 3619 H 326.334 -0.626548 2.02949 0
M  V30 3620 H 328.597 -0.338777 0.8854 0
M  V30 3621 H 328.303 -1.79142 3.02657 0
M  V30 3622 H 328.177 -3.20313 1.99198 0
M  V30 3623 H 330.564 -2.73013 1.12018 0
M  V30 3624 H 330.645 -1.3227 2.18948 0
M  V30 3625 H 330.289 -2.85708 4.19921 0
M  V30 3626 H 330.219 -4.25707 3.0997 0
M  V30 3627 H 332.71 -2.79994 2.53795 0
M  V30 3628 H 333.023 -5.28712 5.63634 0
M  V30 3629 H 331.368 -4.75992 5.06415 0
M  V30 3630 H 334.559 -3.4111 3.20564 0
M  V30 3631 H 334.732 -4.54544 4.61837 0
M  V30 3632 N 328.138 -0.959301 -1.25041 0
M  V30 3633 C 329.086 -0.474437 -2.2771 0
M  V30 3634 C 330.08 0.457697 -1.631 0
M  V30 3635 O 331.286 0.333912 -1.76876 0
M  V30 3636 H 327.661 -0.134936 -0.739795 0
M  V30 3637 H 329.632 -1.35251 -2.65988 0
M  V30 3638 C 328.381 0.227884 -3.46952 0
M  V30 3639 H 327.704 -0.480248 -3.96905 0
M  V30 3640 H 329.144 0.531091 -4.20661 0
M  V30 3641 C 327.603 1.452 -3.04004 0
M  V30 3642 O 328.133 2.54949 -3.10426 0
M  V30 3643 N 326.339 1.31502 -2.59144 0
M  V30 3644 H 325.886 0.422065 -2.54119 0
M  V30 3645 H 325.844 2.13521 -2.30773 0
M  V30 3646 N 329.616 1.39756 -0.72842 0
M  V30 3647 C 330.546 2.33289 -0.0991354 0
M  V30 3648 C 331.527 1.53568 0.731489 0
M  V30 3649 O 332.712 1.81987 0.677807 0
M  V30 3650 C 329.842 3.3763 0.813834 0
M  V30 3651 C 328.796 4.2791 0.0878663 0
M  V30 3652 C 328.122 5.22894 1.11741 0
M  V30 3653 C 329.422 5.11314 -1.06563 0
M  V30 3654 H 331.116 2.86163 -0.880408 0
M  V30 3655 H 328.662 1.37591 -0.424819 0
M  V30 3656 H 330.615 4.0201 1.26355 0
M  V30 3657 H 329.339 2.83181 1.62715 0
M  V30 3658 H 327.998 3.65 -0.342159 0
M  V30 3659 H 327.646 4.64744 1.92412 0
M  V30 3660 H 327.346 5.84143 0.636477 0
M  V30 3661 H 328.87 5.90151 1.56697 0
M  V30 3662 H 330.284 5.69076 -0.694671 0
M  V30 3663 H 328.681 5.81671 -1.47577 0
M  V30 3664 H 329.751 4.46534 -1.89038 0
M  V30 3665 N 331.094 0.475555 1.50254 0
M  V30 3666 C 332.042 -0.330276 2.30243 0
M  V30 3667 C 333.036 -0.986306 1.37726 0
M  V30 3668 O 334.242 -0.9169 1.54897 0
M  V30 3669 H 330.617 -0.125353 0.741479 0
M  V30 3670 H 332.588 0.364702 2.96163 0
M  V30 3671 C 331.337 -1.39704 3.18399 0
M  V30 3672 H 330.66 -0.901621 3.89501 0
M  V30 3673 H 332.1 -1.93336 3.77355 0
M  V30 3674 C 330.559 -2.4014 2.36293 0
M  V30 3675 O 331.089 -3.45504 2.04914 0
M  V30 3676 N 329.295 -2.1197 1.98789 0
M  V30 3677 H 328.842 -1.2631 2.24507 0
M  V30 3678 H 328.8 -2.79403 1.44157 0
M  V30 3679 N 332.573 -1.56217 0.208337 0
M  V30 3680 C 333.85 -1.89739 -0.475234 0
M  V30 3681 C 334.23 -1.1238 -1.78701 0
M  V30 3682 O 333.578 -0.228979 -2.2735 0
M  V30 3683 C 333.788 -3.42289 -0.681101 0
M  V30 3684 C 335.136 -4.12789 -0.994507 0
M  V30 3685 O 336.16 -3.47814 -0.768357 0
M  V30 3686 O 335.019 -5.27649 -1.42299 0
M  V30 3687 H 332.113 -0.788478 -0.249461 0
M  V30 3688 H 334.659 -1.67855 0.249538 0
M  V30 3689 H 333.431 -3.90534 0.244722 0
M  V30 3690 H 333.054 -3.69909 -1.45785 0
M  V30 3691 N 334.051 0.0651679 -1.57465 0
M  V30 3692 C 335.276 0.779605 -1.9219 0
M  V30 3693 C 335.701 1.69988 -0.805333 0
M  V30 3694 O 335.059 1.79685 0.241435 0
M  V30 3695 C 335.107 1.54364 -3.2589 0
M  V30 3696 O 334.211 2.65474 -3.1559 0
M  V30 3697 H 333.552 0.212249 -0.629163 0
M  V30 3698 H 336.082 0.0314294 -2.04576 0
M  V30 3699 H 336.092 1.92146 -3.59922 0
M  V30 3700 H 334.767 0.868457 -4.06732 0
M  V30 3701 H 333.344 2.30501 -2.93128 0
M  V30 3702 N 335.529 1.53961 0.336706 0
M  V30 3703 C 336.945 1.44378 0.680241 0
M  V30 3704 C 337.145 0.606034 1.9217 0
M  V30 3705 O 336.201 0.099688 2.52303 0
M  V30 3706 C 337.514 2.87945 0.8665 0
M  V30 3707 C 339.062 2.97763 0.964682 0
M  V30 3708 C 339.537 4.42453 1.18321 0
M  V30 3709 N 341.028 4.46008 1.25025 0
M  V30 3710 C 341.763 5.55102 1.43697 0
M  V30 3711 N 341.259 6.7419 1.59498 0
M  V30 3712 N 343.052 5.42727 1.463 0
M  V30 3713 H 335.203 2.06918 -0.479455 0
M  V30 3714 H 337.466 0.935634 -0.152619 0
M  V30 3715 H 337.172 3.51691 0.0256937 0
M  V30 3716 H 337.046 3.33293 1.76623 0
M  V30 3717 H 339.433 2.34153 1.796 0
M  V30 3718 H 339.514 2.55766 0.041708 0
M  V30 3719 H 339.158 5.06645 0.356788 0
M  V30 3720 H 339.088 4.82048 2.11985 0
M  V30 3721 H 341.579 3.60196 1.14312 0
M  V30 3722 H 341.892 7.53095 1.734 0
M  V30 3723 H 340.237 6.77123 1.56621 0
M  V30 3724 H 343.428 4.48647 1.33543 0
M  V30 3725 H 343.601 6.27806 1.6051 0
M  V30 3726 N 337.007 -0.598083 1.45811 0
M  V30 3727 C 337.939 -1.72231 1.51225 0
M  V30 3728 C 338.952 -1.57757 0.402059 0
M  V30 3729 O 340.141 -1.65464 0.669624 0
M  V30 3730 C 337.241 -3.10331 1.3619 0
M  V30 3731 C 336.414 -3.50955 2.61054 0
M  V30 3732 C 335.473 -4.68055 2.40439 0
M  V30 3733 O 334.499 -4.74691 3.14097 0
M  V30 3734 N 335.701 -5.61941 1.45612 0
M  V30 3735 H 338.466 -1.68046 2.48154 0
M  V30 3736 H 336.027 -0.783637 1.41671 0
M  V30 3737 H 338.019 -3.86439 1.20195 0
M  V30 3738 H 336.589 -3.0897 0.475015 0
M  V30 3739 H 335.809 -2.64711 2.92099 0
M  V30 3740 H 337.097 -3.74858 3.44034 0
M  V30 3741 H 336.495 -5.59301 0.848431 0
M  V30 3742 H 335.052 -6.37542 1.35585 0
M  V30 3743 N 338.485 -1.33259 -0.841409 0
M  V30 3744 C 339.713 -1.27605 -1.62864 0
M  V30 3745 C 340.128 0.153507 -1.88175 0
M  V30 3746 O 339.485 1.09485 -1.46011 0
M  V30 3747 C 339.536 -2.04596 -2.98031 0
M  V30 3748 O 339.257 -3.41975 -2.73834 0
M  V30 3749 C 340.758 -2.06122 -3.92465 0
M  V30 3750 H 337.978 -0.439718 -0.506842 0
M  V30 3751 H 340.522 -1.75591 -1.04824 0
M  V30 3752 H 338.677 -1.60299 -3.5268 0
M  V30 3753 H 339.091 -3.81549 -3.59889 0
M  V30 3754 H 340.565 -2.64451 -4.84531 0
M  V30 3755 H 341.042 -1.05083 -4.26444 0
M  V30 3756 H 341.648 -2.50427 -3.43753 0
M  V30 3757 N 339.963 1.05934 -1.16686 0
M  V30 3758 C 341.191 1.8249 -0.974929 0
M  V30 3759 C 341.606 1.82679 0.476861 0
M  V30 3760 O 340.963 1.2486 1.33103 0
M  V30 3761 C 341.014 3.28943 -1.49929 0
M  V30 3762 O 340.735 3.28886 -2.89423 0
M  V30 3763 C 342.236 4.22215 -1.35089 0
M  V30 3764 H 339.456 0.575295 -0.345365 0
M  V30 3765 H 342 1.33631 -1.548 0
M  V30 3766 H 340.155 3.751 -0.968423 0
M  V30 3767 H 340.569 4.20493 -3.13506 0
M  V30 3768 H 342.043 5.22987 -1.76603 0
M  V30 3769 H 342.52 4.38195 -0.296935 0
M  V30 3770 H 343.126 3.81907 -1.87155 0
M  V30 3771 N 341.441 0.965919 1.2453 0
M  V30 3772 C 342.689 0.625593 1.92174 0
M  V30 3773 C 343.01 -0.841652 1.75901 0
M  V30 3774 O 342.28 -1.60061 1.12948 0
M  V30 3775 H 340.86 0.228388 0.71123 0
M  V30 3776 H 343.522 1.2266 1.51461 0
M  V30 3777 H 342.618 0.864653 2.99884 0
M  V30 3778 N 342.919 -1.39368 0.735821 0
M  V30 3779 C 344.196 -1.94465 0.210395 0
M  V30 3780 C 344.576 -1.67254 -1.28799 0
M  V30 3781 O 343.924 -1.00123 -2.05396 0
M  V30 3782 C 344.134 -3.4472 0.544897 0
M  V30 3783 C 345.482 -4.21708 0.494689 0
M  V30 3784 O 346.506 -3.52922 0.482136 0
M  V30 3785 O 345.365 -5.44299 0.489947 0
M  V30 3786 H 342.459 -0.826096 0.0386666 0
M  V30 3787 H 345.005 -1.48863 0.814735 0
M  V30 3788 H 343.777 -3.57963 1.58045 0
M  V30 3789 H 343.4 -3.97502 -0.08837 0
M  V30 3790 N 344.397 -0.483516 -1.5 0
M  V30 3791 C 345.813 -0.138404 -1.58999 0
M  V30 3792 C 346.013 1.35597 -1.4905 0
M  V30 3793 O 345.069 2.13039 -1.35539 0
M  V30 3794 C 346.382 -0.699658 -2.92447 0
M  V30 3795 C 347.93 -0.664195 -3.05872 0
M  V30 3796 C 348.405 -1.20321 -4.41913 0
M  V30 3797 N 349.896 -1.16315 -4.48358 0
M  V30 3798 C 350.631 -1.55058 -5.52037 0
M  V30 3799 N 350.127 -2.01311 -6.62907 0
M  V30 3800 N 351.92 -1.46584 -5.42651 0
M  V30 3801 H 344.071 -1.45529 -1.5471 0
M  V30 3802 H 346.334 -0.60258 -0.731848 0
M  V30 3803 H 346.04 -1.747 -3.05242 0
M  V30 3804 H 345.914 -0.150194 -3.76901 0
M  V30 3805 H 348.301 0.374272 -2.92717 0
M  V30 3806 H 348.382 -1.25061 -2.23144 0
M  V30 3807 H 348.026 -2.24037 -4.55818 0
M  V30 3808 H 347.956 -0.592896 -5.23252 0
M  V30 3809 H 350.447 -0.824058 -3.68806 0
M  V30 3810 H 350.76 -2.2899 -7.38095 0
M  V30 3811 H 349.105 -2.05273 -6.63994 0
M  V30 3812 H 352.296 -1.10281 -4.54924 0
M  V30 3813 H 352.469 -1.77103 -6.23329 0
M  V30 3814 N 345.875 1.56104 -0.216619 0
M  V30 3815 C 347.122 1.98172 0.416416 0
M  V30 3816 C 347.45 1.10413 1.60122 0
M  V30 3817 O 346.705 0.147967 1.9514 0
M  V30 3818 C 347.004 3.45923 0.898464 0
M  V30 3819 C 346.67 4.50559 -0.175288 0
M  V30 3820 C 345.332 4.78897 -0.470271 0
M  V30 3821 C 347.684 5.1334 -0.901728 0
M  V30 3822 C 345.012 5.67299 -1.4963 0
M  V30 3823 C 347.364 6.02853 -1.91705 0
M  V30 3824 C 346.028 6.29537 -2.21901 0
M  V30 3825 H 345.298 0.725164 0.152377 0
M  V30 3826 H 347.945 1.88839 -0.318103 0
M  V30 3827 H 346.25 3.52434 1.71165 0
M  V30 3828 H 347.947 3.75841 1.39803 0
M  V30 3829 H 344.537 4.28551 0.0647806 0
M  V30 3830 H 348.721 4.91521 -0.687072 0
M  V30 3831 H 343.977 5.86239 -1.73592 0
M  V30 3832 H 348.151 6.50552 -2.48505 0
M  V30 3833 H 345.778 6.97835 -3.01548 0
M  V30 3834 N 347.353 -0.0568162 1.57498 0
M  V30 3835 C 348.316 -1.05038 2.03715 0
M  V30 3836 C 349.316 -1.30709 0.936577 0
M  V30 3837 O 350.506 -1.26178 1.20103 0
M  V30 3838 C 347.638 -2.39034 2.43055 0
M  V30 3839 H 348.831 -0.651715 2.92733 0
M  V30 3840 H 346.384 -0.302947 1.53336 0
M  V30 3841 H 347.119 -2.83703 1.57108 0
M  V30 3842 H 346.904 -2.21739 3.2338 0
M  V30 3843 H 348.394 -3.10421 2.79336 0
M  V30 3844 N 348.832 -1.54138 -0.328536 0
M  V30 3845 C 349.742 -1.86192 -1.42723 0
M  V30 3846 C 350.758 -0.753382 -1.56844 0
M  V30 3847 O 351.934 -1.04718 -1.72035 0
M  V30 3848 C 348.999 -2.07824 -2.77507 0
M  V30 3849 C 348.06 -3.31641 -2.72603 0
M  V30 3850 C 347.293 -3.52232 -4.00959 0
M  V30 3851 O 347.516 -2.7636 -4.9898 0
M  V30 3852 O 346.45 -4.45699 -4.0452 0
M  V30 3853 H 350.276 -2.79608 -1.18547 0
M  V30 3854 H 347.861 -1.3998 -0.522104 0
M  V30 3855 H 349.743 -2.23411 -3.57303 0
M  V30 3856 H 348.418 -1.17596 -3.01584 0
M  V30 3857 H 347.325 -3.21444 -1.91376 0
M  V30 3858 H 348.658 -4.2191 -2.53481 0
M  V30 3859 N 350.31 0.590341 -1.46126 0
M  V30 3860 C 351.258 1.72105 -1.5647 0
M  V30 3861 C 352.252 1.63756 -0.433612 0
M  V30 3862 O 353.458 1.69342 -0.610194 0
M  V30 3863 H 349.833 0.568889 -0.491802 0
M  V30 3864 H 351.804 1.6051 -2.51553 0
M  V30 3865 C 350.553 3.10493 -1.56491 0
M  V30 3866 H 349.876 3.17583 -2.4286 0
M  V30 3867 H 351.316 3.8939 -1.67785 0
M  V30 3868 C 349.775 3.3563 -0.292231 0
M  V30 3869 O 350.305 3.96875 0.620739 0
M  V30 3870 N 348.511 2.90026 -0.182523 0
M  V30 3871 H 348.058 2.40367 -0.926356 0
M  V30 3872 H 348.016 3.07218 0.668152 0
M  V30 3873 N 351.788 1.33704 0.83433 0
M  V30 3874 C 353.016 1.28467 1.62185 0
M  V30 3875 C 353.431 -0.143526 1.88254 0
M  V30 3876 O 352.788 -1.08709 1.4659 0
M  V30 3877 C 352.839 2.06174 2.96942 0
M  V30 3878 O 352.56 3.43422 2.72016 0
M  V30 3879 C 354.061 2.08201 3.91366 0
M  V30 3880 H 351.281 0.4424 0.504503 0
M  V30 3881 H 353.825 1.76145 1.03891 0
M  V30 3882 H 351.98 1.62167 3.51825 0
M  V30 3883 H 352.394 3.83453 3.57861 0
M  V30 3884 H 353.868 2.67017 4.83121 0
M  V30 3885 H 354.345 1.07343 4.2588 0
M  V30 3886 H 354.951 2.52246 3.42421 0
M  V30 3887 N 353.266 -1.05314 1.17247 0
M  V30 3888 C 354.196 -2.1498 0.911362 0
M  V30 3889 C 355.177 -1.69471 -0.146169 0
M  V30 3890 O 356.362 -1.942 0.003812 0
M  V30 3891 C 353.492 -3.4472 0.422528 0
M  V30 3892 C 352.446 -4.03789 1.4191 0
M  V30 3893 C 351.772 -5.28858 0.788274 0
M  V30 3894 C 353.072 -4.41418 2.7919 0
M  V30 3895 H 354.766 -2.3708 1.82848 0
M  V30 3896 H 352.312 -1.13938 0.880569 0
M  V30 3897 H 354.265 -4.20787 0.227289 0
M  V30 3898 H 352.989 -3.22269 -0.530123 0
M  V30 3899 H 351.648 -3.2979 1.60106 0
M  V30 3900 H 351.296 -5.02709 -0.171173 0
M  V30 3901 H 350.996 -5.69338 1.45353 0
M  V30 3902 H 352.52 -6.07612 0.603282 0
M  V30 3903 H 353.934 -5.08524 2.64719 0
M  V30 3904 H 352.331 -4.92913 3.42282 0
M  V30 3905 H 353.401 -3.51819 3.33693 0
M  V30 3906 N 354.744 -0.972509 -1.24016 0
M  V30 3907 C 355.676 -0.464375 -2.24446 0
M  V30 3908 C 356.689 0.4295 -1.57032 0
M  V30 3909 O 357.878 0.234902 -1.76948 0
M  V30 3910 C 354.978 0.348385 -3.37105 0
M  V30 3911 C 354.151 -0.53673 -4.34094 0
M  V30 3912 C 353.21 0.220838 -5.25736 0
M  V30 3913 O 352.236 -0.386867 -5.67884 0
M  V30 3914 N 353.438 1.50907 -5.60542 0
M  V30 3915 H 356.203 -1.32788 -2.68677 0
M  V30 3916 H 353.764 -0.844877 -1.38107 0
M  V30 3917 H 355.756 0.863341 -3.95384 0
M  V30 3918 H 354.326 1.11285 -2.92121 0
M  V30 3919 H 353.546 -1.23261 -3.74433 0
M  V30 3920 H 354.834 -1.14022 -4.95859 0
M  V30 3921 H 354.232 2.02444 -5.28236 0
M  V30 3922 H 352.789 1.96962 -6.21329 0
M  V30 3923 N 356.222 1.38976 -0.743202 0
M  V30 3924 C 357.469 2.00343 -0.294752 0
M  V30 3925 C 357.797 1.58983 1.12047 0
M  V30 3926 O 357.052 0.813809 1.77977 0
M  V30 3927 C 357.351 3.55647 -0.353517 0
M  V30 3928 C 357.017 4.16685 -1.72292 0
M  V30 3929 C 355.679 4.3307 -2.09771 0
M  V30 3930 C 358.031 4.50464 -2.62168 0
M  V30 3931 C 355.359 4.80526 -3.36618 0
M  V30 3932 C 357.711 4.99332 -3.88395 0
M  V30 3933 C 356.375 5.13924 -4.25956 0
M  V30 3934 H 355.645 0.733108 -0.107857 0
M  V30 3935 H 358.292 1.6618 -0.951651 0
M  V30 3936 H 356.597 3.89884 0.386954 0
M  V30 3937 H 358.294 4.00998 0.0117269 0
M  V30 3938 H 354.884 4.04339 -1.42155 0
M  V30 3939 H 359.068 4.37416 -2.3448 0
M  V30 3940 H 354.324 4.90008 -3.65653 0
M  V30 3941 H 358.498 5.2444 -4.58187 0
M  V30 3942 H 356.125 5.50457 -5.2431 0
M  V30 3943 N 357.7 0.491464 1.49741 0
M  V30 3944 C 358.946 -0.0565092 2.02721 0
M  V30 3945 C 359.279 -1.37522 1.37118 0
M  V30 3946 O 358.554 -1.87866 0.503645 0
M  V30 3947 C 358.837 -0.219051 3.59433 0
M  V30 3948 C 358.69 1.12211 4.35579 0
M  V30 3949 C 360.009 -0.964157 4.29409 0
M  V30 3950 H 357.128 -0.0190627 0.736753 0
M  V30 3951 H 359.77 0.641021 1.7886 0
M  V30 3952 H 357.92 -0.813165 3.79895 0
M  V30 3953 H 359.592 1.75437 4.26637 0
M  V30 3954 H 357.835 1.71377 3.98513 0
M  V30 3955 H 358.506 0.961794 5.43556 0
M  V30 3956 H 360.982 -0.460378 4.13545 0
M  V30 3957 H 359.858 -1.04671 5.38828 0
M  V30 3958 H 360.119 -2.00563 3.93988 0
M  V30 3959 N 359.178 -1.55987 0.224894 0
M  V30 3960 C 360.088 -2.24066 -0.69511 0
M  V30 3961 C 361.104 -1.24939 -1.21104 0
M  V30 3962 O 362.28 -1.5776 -1.25195 0
M  V30 3963 C 359.345 -2.90983 -1.88493 0
M  V30 3964 C 358.406 -4.05462 -1.41064 0
M  V30 3965 C 357.639 -4.69179 -2.54375 0
M  V30 3966 O 357.862 -4.31895 -3.72589 0
M  V30 3967 O 356.796 -5.58108 -2.25386 0
M  V30 3968 H 360.622 -3.03353 -0.145149 0
M  V30 3969 H 358.207 -1.49399 -0.00569476 0
M  V30 3970 H 360.089 -3.33209 -2.57972 0
M  V30 3971 H 358.764 -2.14653 -2.42293 0
M  V30 3972 H 357.671 -3.67798 -0.683774 0
M  V30 3973 H 359.004 -4.83545 -0.918985 0
M  V30 3974 N 360.656 0.0484629 -1.57525 0
M  V30 3975 C 361.604 1.07359 -2.06341 0
M  V30 3976 C 362.598 1.3865 -0.973269 0
M  V30 3977 O 363.804 1.37783 -1.15827 0
M  V30 3978 H 360.179 0.363662 -0.65822 0
M  V30 3979 H 362.15 0.635916 -2.91545 0
M  V30 3980 C 360.899 2.37198 -2.54229 0
M  V30 3981 H 360.222 2.13977 -3.37719 0
M  V30 3982 H 361.662 3.07319 -2.92115 0
M  V30 3983 C 360.121 3.04805 -1.43511 0
M  V30 3984 O 360.651 3.93848 -0.79034 0
M  V30 3985 N 358.857 2.65811 -1.17444 0
M  V30 3986 H 358.404 1.93488 -1.70059 0
M  V30 3987 H 358.362 3.11366 -0.435737 0
M  V30 3988 N 362.134 1.5431 0.320358 0
M  V30 3989 C 363.383 1.7188 1.05546 0
M  V30 3990 C 363.696 0.501143 1.89071 0
M  V30 3991 O 364.902 0.558258 2.65699 0
M  V30 3992 C 363.358 3.04025 1.92605 0
M  V30 3993 C 362.966 4.33207 1.14176 0
M  V30 3994 C 364.71 3.30959 2.65832 0
M  V30 3995 C 362.617 5.56412 2.00399 0
M  V30 3996 H 361.547 0.640547 0.397763 0
M  V30 3997 H 364.198 1.80802 0.313522 0
M  V30 3998 H 362.58 2.89019 2.7071 0
M  V30 3999 H 363.754 4.58989 0.40819 0
M  V30 4000 H 362.069 4.13062 0.526165 0
M  V30 4001 H 364.666 4.20203 3.30656 0
M  V30 4002 H 365.009 2.48979 3.33639 0
M  V30 4003 H 365.542 3.46847 1.94787 0
M  V30 4004 H 362.281 6.41004 1.37094 0
M  V30 4005 H 361.801 5.34844 2.7148 0
M  V30 4006 H 363.48 5.92938 2.58908 0
M  V30 4007 N 363.613 -0.582584 1.46437 0
M  V30 4008 C 364.841 -1.36682 1.55324 0
M  V30 4009 C 365.256 -1.87796 0.194409 0
M  V30 4010 O 364.613 -1.63623 -0.808318 0
M  V30 4011 C 364.664 -2.55426 2.55812 0
M  V30 4012 O 364.385 -2.0643 3.86417 0
M  V30 4013 C 365.886 -3.47976 2.74641 0
M  V30 4014 H 363.106 -0.417545 0.525259 0
M  V30 4015 H 365.65 -0.708219 1.91845 0
M  V30 4016 H 363.805 -3.17275 2.22295 0
M  V30 4017 H 364.219 -2.83762 4.41111 0
M  V30 4018 H 365.693 -4.27775 3.48874 0
M  V30 4019 H 366.17 -3.99919 1.81553 0
M  V30 4020 H 366.776 -2.91962 3.09255 0
M  V30 4021 N 365.091 -1.34144 -0.827227 0
M  V30 4022 C 366.021 -1.28005 -1.95287 0
M  V30 4023 C 367.002 -0.158321 -1.69362 0
M  V30 4024 O 368.187 -0.349987 -1.9102 0
M  V30 4025 C 365.317 -1.03036 -3.31664 0
M  V30 4026 C 364.271 -2.11628 -3.72019 0
M  V30 4027 C 363.597 -1.71854 -5.0633 0
M  V30 4028 C 364.897 -3.53417 -3.8457 0
M  V30 4029 H 366.591 -2.22187 -2.00682 0
M  V30 4030 H 364.137 -1.0696 -0.964135 0
M  V30 4031 H 366.09 -0.973863 -4.09993 0
M  V30 4032 H 364.814 -0.0529391 -3.26557 0
M  V30 4033 H 363.473 -2.16339 -2.95961 0
M  V30 4034 H 363.121 -0.727841 -4.97706 0
M  V30 4035 H 362.821 -2.44531 -5.34302 0
M  V30 4036 H 364.345 -1.67692 -5.87122 0
M  V30 4037 H 365.759 -3.51142 -4.5318 0
M  V30 4038 H 364.156 -4.24679 -4.2399 0
M  V30 4039 H 365.226 -3.91072 -2.86689 0
M  V30 4040 N 366.569 1.04691 -1.17803 0
M  V30 4041 C 367.816 1.77782 -0.969532 0
M  V30 4042 C 368.144 1.87926 0.501401 0
M  V30 4043 O 367.399 1.37918 1.38842 0
M  V30 4044 C 367.698 3.21467 -1.56186 0
M  V30 4045 C 367.364 3.3137 -3.05786 0
M  V30 4046 C 366.026 3.3378 -3.46619 0
M  V30 4047 C 368.378 3.31976 -4.01797 0
M  V30 4048 C 365.706 3.34431 -4.82051 0
M  V30 4049 C 368.058 3.34167 -5.37136 0
M  V30 4050 C 366.722 3.34866 -5.77426 0
M  V30 4051 H 365.992 0.650549 -0.354777 0
M  V30 4052 H 368.639 1.23006 -1.46772 0
M  V30 4053 H 366.944 3.79203 -0.985515 0
M  V30 4054 H 368.641 3.76652 -1.37602 0
M  V30 4055 H 365.231 3.3021 -2.73238 0
M  V30 4056 H 369.415 3.29311 -3.71306 0
M  V30 4057 H 364.671 3.33285 -5.12573 0
M  V30 4058 H 368.845 3.33585 -6.11305 0
M  V30 4059 H 366.472 3.35124 -6.82346 0
M  V30 4060 N 368.047 0.979072 1.23499 0
M  V30 4061 C 369.01 0.523244 2.23147 0
M  V30 4062 C 370.01 -0.386406 1.56088 0
M  V30 4063 O 371.2 -0.180283 1.73265 0
M  V30 4064 C 368.332 -0.240739 3.40049 0
M  V30 4065 H 369.525 1.40432 2.64989 0
M  V30 4066 H 367.078 0.764824 1.36309 0
M  V30 4067 H 367.813 -1.13841 3.03662 0
M  V30 4068 H 367.598 0.412207 3.89927 0
M  V30 4069 H 369.088 -0.548297 4.13985 0
M  V30 4070 N 369.525 -1.3858 0.750561 0
M  V30 4071 C 370.473 -2.32339 0.110162 0
M  V30 4072 C 371.467 -1.53864 -0.708674 0
M  V30 4073 O 372.673 -1.69417 -0.608112 0
M  V30 4074 H 369.048 -0.751812 0.0168275 0
M  V30 4075 H 371.019 -2.83959 0.917053 0
M  V30 4076 C 369.768 -3.39043 -0.771067 0
M  V30 4077 H 369.091 -3.99517 -0.150374 0
M  V30 4078 H 370.531 -4.07061 -1.1865 0
M  V30 4079 C 368.99 -2.77365 -1.91234 0
M  V30 4080 O 369.52 -2.66434 -3.00626 0
M  V30 4081 N 367.726 -2.35219 -1.70646 0
M  V30 4082 H 367.273 -2.4431 -0.81673 0
M  V30 4083 H 367.231 -1.94294 -2.47178 0
M  V30 4084 N 371.003 -0.499398 -1.49478 0
M  V30 4085 C 372.228 0.044722 -2.07352 0
M  V30 4086 C 372.653 1.30207 -1.35749 0
M  V30 4087 O 372.011 1.76516 -0.413732 0
M  V30 4088 C 372.059 0.283013 -3.59488 0
M  V30 4089 O 371.163 1.35804 -3.89398 0
M  V30 4090 H 370.504 -0.0255147 -0.66351 0
M  V30 4091 H 373.034 -0.698561 -1.92305 0
M  V30 4092 H 373.044 0.515007 -4.04737 0
M  V30 4093 H 371.719 -0.635636 -4.11014 0
M  V30 4094 H 370.296 1.11113 -3.55961 0
M  V30 4095 N 372.481 1.55866 -0.233164 0
M  V30 4096 C 373.897 1.59133 0.121988 0
M  V30 4097 C 374.097 1.25016 1.58029 0
M  V30 4098 O 373.153 0.990922 2.32243 0
M  V30 4099 C 374.466 2.99932 -0.214792 0
M  V30 4100 C 376.014 3.12601 -0.157971 0
M  V30 4101 C 376.489 4.55597 -0.46859 0
M  V30 4102 N 377.98 4.61305 -0.418585 0
M  V30 4103 C 378.715 5.69903 -0.63227 0
M  V30 4104 N 378.211 6.86819 -0.90835 0
M  V30 4105 N 380.004 5.59264 -0.563913 0
M  V30 4106 H 372.155 1.76315 -1.18434 0
M  V30 4107 H 374.418 0.820093 -0.475553 0
M  V30 4108 H 374.124 3.29588 -1.22739 0
M  V30 4109 H 373.998 3.74327 0.464691 0
M  V30 4110 H 376.385 2.82735 0.845283 0
M  V30 4111 H 376.466 2.40511 -0.871102 0
M  V30 4112 H 376.11 4.86182 -1.46934 0
M  V30 4113 H 376.04 5.25928 0.265865 0
M  V30 4114 H 378.531 3.77297 -0.213368 0
M  V30 4115 H 378.844 7.65507 -1.05919 0
M  V30 4116 H 377.189 6.88536 -0.945673 0
M  V30 4117 H 380.38 4.66802 -0.348372 0
M  V30 4118 H 380.553 6.43831 -0.733847 0
M  V30 4119 N 373.959 -0.0401083 1.57549 0
M  V30 4120 C 375.375 -0.395556 1.54621 0
M  V30 4121 C 375.575 -1.77281 0.957799 0
M  V30 4122 O 374.631 -2.45888 0.574031 0
M  V30 4123 C 375.944 -0.307535 2.99123 0
M  V30 4124 C 377.492 -0.385425 3.10618 0
M  V30 4125 C 377.967 -0.326973 4.56831 0
M  V30 4126 N 379.458 -0.386102 4.61588 0
M  V30 4127 C 380.193 -0.363591 5.72246 0
M  V30 4128 N 379.689 -0.29402 6.92176 0
M  V30 4129 N 381.482 -0.412503 5.60584 0
M  V30 4130 H 373.633 0.861325 1.94152 0
M  V30 4131 H 375.896 0.326445 0.890021 0
M  V30 4132 H 375.602 0.638461 3.45856 0
M  V30 4133 H 375.476 -1.10552 3.60636 0
M  V30 4134 H 377.863 -1.32185 2.63839 0
M  V30 4135 H 377.944 0.44171 2.51957 0
M  V30 4136 H 377.588 0.605738 5.04275 0
M  V30 4137 H 377.518 -1.17207 5.13391 0
M  V30 4138 H 380.009 -0.442832 3.75296 0
M  V30 4139 H 380.322 -0.28164 7.72287 0
M  V30 4140 H 378.667 -0.260232 6.94513 0
M  V30 4141 H 381.858 -0.464769 4.65787 0
M  V30 4142 H 382.031 -0.391492 6.46816 0
M  V30 4143 N 375.437 -1.54477 -0.31217 0
M  V30 4144 C 376.369 -1.81011 -1.40598 0
M  V30 4145 C 377.382 -0.692546 -1.47335 0
M  V30 4146 O 378.571 -0.969847 -1.49854 0
M  V30 4147 C 375.671 -1.92307 -2.79054 0
M  V30 4148 C 374.844 -3.22594 -2.95384 0
M  V30 4149 C 373.903 -3.24448 -4.1427 0
M  V30 4150 O 372.929 -3.98035 -4.06887 0
M  V30 4151 N 374.131 -2.49042 -5.24365 0
M  V30 4152 H 376.896 -2.75408 -1.18196 0
M  V30 4153 H 374.457 -1.53914 -0.502202 0
M  V30 4154 H 376.449 -1.90962 -3.56813 0
M  V30 4155 H 375.019 -1.04955 -2.94454 0
M  V30 4156 H 374.239 -3.36806 -2.04831 0
M  V30 4157 H 375.527 -4.08593 -3.03198 0
M  V30 4158 H 374.925 -1.88867 -5.33241 0
M  V30 4159 H 373.482 -2.53463 -6.005 0
M  V30 4160 N 376.915 0.57481 -1.46744 0
M  V30 4161 C 377.847 1.69804 -1.53946 0
M  V30 4162 C 378.86 1.57098 -0.427106 0
M  V30 4163 O 380.049 1.64378 -0.695863 0
M  V30 4164 C 377.149 3.08125 -1.4111 0
M  V30 4165 C 376.322 3.46757 -2.66605 0
M  V30 4166 C 375.381 4.6417 -2.47855 0
M  V30 4167 O 374.407 4.69634 -3.21609 0
M  V30 4168 N 375.609 5.59553 -1.54534 0
M  V30 4169 H 378.374 1.64077 -2.50796 0
M  V30 4170 H 375.935 0.761 -1.429 0
M  V30 4171 H 377.927 3.84478 -1.26328 0
M  V30 4172 H 376.497 3.08175 -0.524109 0
M  V30 4173 H 375.717 2.6003 -2.96274 0
M  V30 4174 H 377.005 3.69337 -3.49954 0
M  V30 4175 H 376.403 5.57881 -0.937304 0
M  V30 4176 H 374.96 6.35304 -1.45711 0
M  V30 4177 N 378.394 1.34581 0.820102 0
M  V30 4178 C 379.619 1.30333 1.61332 0
M  V30 4179 C 380.044 -0.119339 1.87721 0
M  V30 4180 O 379.402 -1.08197 1.45475 0
M  V30 4181 C 379.45 2.10258 2.92957 0
M  V30 4182 O 378.554 1.47404 3.85157 0
M  V30 4183 H 377.895 0.447488 0.490561 0
M  V30 4184 H 380.425 1.77425 1.01889 0
M  V30 4185 H 380.435 2.21718 3.42498 0
M  V30 4186 H 379.11 3.13693 2.73074 0
M  V30 4187 H 377.687 1.44703 3.43679 0
M  V30 4188 N 379.872 -1.04064 1.18357 0
M  V30 4189 C 381.288 -1.2947 0.933258 0
M  V30 4190 C 381.488 -1.97466 -0.401169 0
M  V30 4191 O 380.544 -2.25528 -1.13549 0
M  V30 4192 C 381.857 -2.15337 2.09882 0
M  V30 4193 C 383.405 -2.28683 2.13712 0
M  V30 4194 C 383.88 -3.17917 3.29686 0
M  V30 4195 N 385.371 -3.25504 3.29547 0
M  V30 4196 C 386.106 -3.94706 4.15926 0
M  V30 4197 N 385.602 -4.66239 5.12439 0
M  V30 4198 N 387.395 -3.90986 4.0384 0
M  V30 4199 H 379.546 -0.583359 2.04232 0
M  V30 4200 H 381.809 -0.319921 0.892387 0
M  V30 4201 H 381.515 -1.72682 3.06389 0
M  V30 4202 H 381.389 -3.16015 2.05947 0
M  V30 4203 H 383.776 -2.70575 1.17784 0
M  V30 4204 H 383.857 -1.27596 2.21705 0
M  V30 4205 H 383.501 -2.76736 4.25887 0
M  V30 4206 H 383.431 -4.19036 3.1893 0
M  V30 4207 H 385.922 -2.74547 2.59677 0
M  V30 4208 H 386.235 -5.16638 5.74722 0
M  V30 4209 H 384.58 -4.65143 5.16398 0
M  V30 4210 H 387.771 -3.34234 3.27727 0
M  V30 4211 H 387.944 -4.44646 4.71375 0
M  V30 4212 N 381.35 -0.985608 -1.22978 0
M  V30 4213 C 382.766 -0.695104 -1.43668 0
M  V30 4214 C 382.966 0.736866 -1.87543 0
M  V30 4215 O 382.022 1.50868 -2.02473 0
M  V30 4216 C 383.335 -1.69447 -2.48412 0
M  V30 4217 C 384.883 -1.70909 -2.62219 0
M  V30 4218 C 385.358 -2.6969 -3.70178 0
M  V30 4219 N 386.849 -2.6824 -3.77626 0
M  V30 4220 C 387.584 -3.41339 -4.60733 0
M  V30 4221 N 387.08 -4.24015 -5.4789 0
M  V30 4222 N 388.873 -3.30079 -4.54977 0
M  V30 4223 H 381.024 -1.91054 -0.928016 0
M  V30 4224 H 383.287 -0.823553 -0.469536 0
M  V30 4225 H 382.993 -2.7188 -2.23102 0
M  V30 4226 H 382.867 -1.48147 -3.46889 0
M  V30 4227 H 385.254 -0.691785 -2.86877 0
M  V30 4228 H 385.335 -1.96276 -1.6404 0
M  V30 4229 H 384.979 -3.71566 -3.46268 0
M  V30 4230 H 384.909 -2.41595 -4.67909 0
M  V30 4231 H 387.4 -2.08243 -3.15346 0
M  V30 4232 H 387.713 -4.76636 -6.08308 0
M  V30 4233 H 386.058 -4.28104 -5.47496 0
M  V30 4234 H 389.249 -2.64937 -3.85909 0
M  V30 4235 H 389.422 -3.87308 -5.19516 0
M  V30 4236 N 382.828 1.3818 -0.7579 0
M  V30 4237 C 384.244 1.5353 -0.435972 0
M  V30 4238 C 384.444 1.71961 1.05032 0
M  V30 4239 O 383.5 1.73307 1.83633 0
M  V30 4240 C 384.813 2.73989 -1.23898 0
M  V30 4241 C 386.361 2.87841 -1.22949 0
M  V30 4242 C 386.836 4.11266 -2.01554 0
M  V30 4243 N 388.327 4.18352 -1.98837 0
M  V30 4244 C 389.062 5.12856 -2.5645 0
M  V30 4245 N 388.558 6.13005 -3.22794 0
M  V30 4246 N 390.351 5.05238 -2.46356 0
M  V30 4247 H 382.502 1.24467 -1.7211 0
M  V30 4248 H 384.765 0.604982 -0.729864 0
M  V30 4249 H 384.471 2.66789 -2.29165 0
M  V30 4250 H 384.345 3.67294 -0.858764 0
M  V30 4251 H 386.732 2.9452 -0.184854 0
M  V30 4252 H 386.813 1.95534 -1.64924 0
M  V30 4253 H 386.457 4.05349 -3.06031 0
M  V30 4254 H 386.387 5.02661 -1.5697 0
M  V30 4255 H 388.878 3.46628 -1.50524 0
M  V30 4256 H 389.191 6.81619 -3.64165 0
M  V30 4257 H 387.536 6.13325 -3.2689 0
M  V30 4258 H 390.727 4.25938 -1.9415 0
M  V30 4259 H 390.9 5.78707 -2.91552 0
M  V30 4260 N 384.306 0.507319 1.49211 0
M  V30 4261 C 385.552 -0.0350047 2.0277 0
M  V30 4262 C 385.885 -1.3606 1.38569 0
M  V30 4263 O 385.16 -1.87321 0.523542 0
M  V30 4264 C 385.443 -0.180916 3.59645 0
M  V30 4265 C 385.296 1.16825 4.34364 0
M  V30 4266 C 386.615 -0.918558 4.30407 0
M  V30 4267 H 383.734 -0.0112473 0.736914 0
M  V30 4268 H 386.376 0.659956 1.7817 0
M  V30 4269 H 384.526 -0.772826 3.80736 0
M  V30 4270 H 386.198 1.79952 4.24753 0
M  V30 4271 H 384.441 1.75594 3.96673 0
M  V30 4272 H 385.112 1.01939 5.42506 0
M  V30 4273 H 387.588 -0.41649 4.1401 0
M  V30 4274 H 386.464 -0.989505 5.39907 0
M  V30 4275 H 386.725 -1.96373 3.96093 0
M  V30 4276 O 385.823 -1.56889 0.38316 0
M  V30 4277 H 386.514 -1.93009 -0.163415 0
M  V30 END ATOM
M  V30 BEGIN BOND
M  V30 END BOND
M  V30 END CTAB
M  END
$$$$
