drugbank_target|Q8Z2X8 Autoinducer 2-binding protein LsrB (DB04346)
 OpenBabel12092120293D

  0  0  0     0  0            999 V3000
M  V30 BEGIN CTAB
M  V30 COUNTS 5183 5236 0 0 0
M  V30 BEGIN ATOM
M  V30 1 H -0.908 1.98254 -0.117106 0
M  V30 2 N 0 1.576 0 0
M  V30 3 C 0.933 2.03868 1.02534 0
M  V30 4 C 1.911 0.928543 1.3348 0
M  V30 5 O 3.095 1.19667 1.45644 0
M  V30 6 C 0.222 2.43627 2.35294 0
M  V30 7 C -0.732 3.65373 2.2001 0
M  V30 8 S 0.101 5.13292 1.52614 0
M  V30 9 C 1.257 5.56322 2.86805 0
M  V30 10 H 1.49 2.90518 0.631377 0
M  V30 11 H -0.977 1.52953 0.210867 0
M  V30 12 H 0.981 2.67203 3.11629 0
M  V30 13 H -0.358 1.57376 2.7183 0
M  V30 14 H -1.165 3.90944 3.18086 0
M  V30 15 H -1.563 3.418 1.51819 0
M  V30 16 H 0.729 5.58782 3.83104 0
M  V30 17 H 1.672 6.56266 2.65933 0
M  V30 18 H 2.08 4.83886 2.90714 0
M  V30 19 N 1.4781 -0.272755 1.55222 0
M  V30 20 C 2.4411 -1.32041 1.87344 0
M  V30 21 C 3.4411 -1.42342 0.74803 0
M  V30 22 O 4.6311 -1.41488 1.0162 0
M  V30 23 C 1.7631 -2.70173 2.07893 0
M  V30 24 H 2.9561 -1.04789 2.80997 0
M  V30 25 H 0.5091 -0.51083 1.47717 0
M  V30 26 H 1.2441 -3.02605 1.16622 0
M  V30 27 H 1.0291 -2.64082 2.89833 0
M  V30 28 H 2.5191 -3.45869 2.34017 0
M  V30 29 N 2.9562 -1.48159 -0.537278 0
M  V30 30 C 4.3722 -1.34118 -0.865129 0
M  V30 31 C 4.5722 -0.346678 -1.98495 0
M  V30 32 O 3.6282 0.234715 -2.51407 0
M  V30 33 C 4.9412 -2.73963 -1.23954 0
M  V30 34 C 6.4892 -2.82397 -1.34984 0
M  V30 35 C 6.9642 -4.22928 -1.75772 0
M  V30 36 N 8.4552 -4.25566 -1.82887 0
M  V30 37 C 9.1902 -5.31235 -2.15817 0
M  V30 38 N 8.6862 -6.47189 -2.47222 0
M  V30 39 N 10.4792 -5.18624 -2.16761 0
M  V30 40 H 2.6302 -2.1144 0.201715 0
M  V30 41 H 4.8932 -0.947598 0.0275949 0
M  V30 42 H 4.5992 -3.48264 -0.490381 0
M  V30 43 H 4.4732 -3.0702 -2.19132 0
M  V30 44 H 6.8602 -2.08356 -2.08978 0
M  V30 45 H 6.9412 -2.5297 -0.379448 0
M  V30 46 H 6.5852 -4.97482 -1.02341 0
M  V30 47 H 6.5152 -4.49794 -2.73848 0
M  V30 48 H 9.0062 -3.41924 -1.60924 0
M  V30 49 H 9.3192 -7.23564 -2.71433 0
M  V30 50 H 7.6642 -6.50476 -2.44757 0
M  V30 51 H 10.8552 -4.27056 -1.91679 0
M  V30 52 H 11.0282 -6.01078 -2.42093 0
M  V30 53 N 4.4343 0.785586 -1.36625 0
M  V30 54 C 5.3843 1.88822 -1.27789 0
M  V30 55 C 6.3683 1.60014 -0.168579 0
M  V30 56 O 7.5603 1.72381 -0.401737 0
M  V30 57 C 4.6893 3.26092 -1.07327 0
M  V30 58 C 3.7753 3.60897 -2.22743 0
M  V30 59 N 4.1663 3.66982 -3.48077 0
M  V30 60 C 2.4643 3.90981 -2.14593 0
M  V30 61 C 3.1653 3.98137 -4.24101 0
M  V30 62 N 2.1413 4.13319 -3.53084 0
M  V30 63 H 5.9433 1.91759 -2.22723 0
M  V30 64 H 3.4573 0.981311 -1.29399 0
M  V30 65 H 5.4543 4.04954 -0.990842 0
M  V30 66 H 4.1143 3.24428 -0.132977 0
M  V30 67 H 5.1253 3.49531 -3.82163 0
M  V30 68 H 1.8023 3.9722 -1.2854 0
M  V30 69 H 3.1923 4.09737 -5.32509 0
M  V30 70 N 5.9124 1.20967 1.01018 0
M  V30 71 C 7.1374 1.0503 1.78839 0
M  V30 72 C 7.5624 -0.395752 1.8389 0
M  V30 73 O 6.9204 -1.28529 1.27867 0
M  V30 74 C 6.9684 1.64602 3.2084 0
M  V30 75 O 6.0724 0.887988 4.02726 0
M  V30 76 H 5.4134 0.369987 0.551367 0
M  V30 77 H 7.9434 1.60399 1.27018 0
M  V30 78 H 7.9534 1.68607 3.71532 0
M  V30 79 H 6.6284 2.69841 3.16479 0
M  V30 80 H 5.2054 0.922648 3.61305 0
M  V30 81 N 7.3905 -1.2043 1.01659 0
M  V30 82 C 8.6395 -1.89118 0.701237 0
M  V30 83 C 8.9525 -1.79705 -0.772358 0
M  V30 84 O 10.1585 -2.43528 -1.20026 0
M  V30 85 C 8.6145 -3.39168 1.20388 0
M  V30 86 C 8.2225 -3.57166 2.70438 0
M  V30 87 C 9.9665 -4.1341 0.963953 0
M  V30 88 C 7.8735 -5.01042 3.14183 0
M  V30 89 H 6.8035 -0.708267 0.2586 0
M  V30 90 H 9.4545 -1.36239 1.22927 0
M  V30 91 H 7.8365 -3.91369 0.603824 0
M  V30 92 H 9.0105 -3.15351 3.35992 0
M  V30 93 H 7.3255 -2.96294 2.92572 0
M  V30 94 H 9.9225 -5.19491 1.26621 0
M  V30 95 H 10.2655 -4.16181 -0.099578 0
M  V30 96 H 10.7985 -3.67309 1.52738 0
M  V30 97 H 7.5375 -5.03426 4.19812 0
M  V30 98 H 7.0575 -5.43668 2.53348 0
M  V30 99 H 8.7365 -5.69623 3.0682 0
M  V30 100 N 8.8686 -0.792821 -1.36206 0
M  V30 101 C 9.8156 -0.191653 -2.30003 0
M  V30 102 C 10.7856 0.666453 -1.52143 0
M  V30 103 O 11.9706 0.61442 -1.80636 0
M  V30 104 C 9.1106 0.664848 -3.38635 0
M  V30 105 C 8.2236 -0.212175 -4.31479 0
M  V30 106 C 7.3586 0.651022 -5.27196 0
M  V30 107 C 6.3976 -0.227247 -6.11678 0
M  V30 108 N 5.5346 0.595127 -6.99573 0
M  V30 109 H 10.3746 -0.996978 -2.80828 0
M  V30 110 H 7.9116 -0.503206 -1.38225 0
M  V30 111 H 9.8696 1.17645 -4.00269 0
M  V30 112 H 8.4996 1.43557 -2.89122 0
M  V30 113 H 7.5516 -0.841777 -3.70969 0
M  V30 114 H 8.8636 -0.888751 -4.90818 0
M  V30 115 H 8.0176 1.2283 -5.94136 0
M  V30 116 H 6.7566 1.36121 -4.68319 0
M  V30 117 H 5.7616 -0.816904 -5.43697 0
M  V30 118 H 6.9866 -0.93509 -6.72631 0
M  V30 119 H 4.9326 1.28955 -6.432 0
M  V30 120 H 4.8496 -0.0236952 -7.55996 0
M  V30 121 H 6.1176 1.15613 -7.70879 0
M  V30 122 N 10.3467 1.47872 -0.545128 0
M  V30 123 C 11.2797 2.2675 0.256885 0
M  V30 124 C 12.2577 1.33293 0.931228 0
M  V30 125 O 13.4417 1.62657 0.95262 0
M  V30 126 C 10.5687 3.09976 1.36501 0
M  V30 127 C 9.6147 4.1892 0.800496 0
M  V30 128 S 10.4477 5.34397 -0.343505 0
M  V30 129 C 11.6037 6.21186 0.766733 0
M  V30 130 H 11.8367 2.94425 -0.412479 0
M  V30 131 H 9.3697 1.50806 -0.331204 0
M  V30 132 H 11.3277 3.585 1.9997 0
M  V30 133 H 9.9887 2.41686 2.00616 0
M  V30 134 H 9.1817 4.76836 1.63227 0
M  V30 135 H 8.7837 3.73215 0.242217 0
M  V30 136 H 11.0757 6.56804 1.66178 0
M  V30 137 H 12.0187 7.07742 0.225204 0
M  V30 138 H 12.4267 5.54574 1.05396 0
M  V30 139 N 11.8248 0.280983 1.55075 0
M  V30 140 C 13.0738 -0.334784 1.98902 0
M  V30 141 C 13.3868 -1.56534 1.17288 0
M  V30 142 O 14.5928 -2.25443 1.51287 0
M  V30 143 C 13.0488 -0.646994 3.54037 0
M  V30 144 C 12.6568 0.564085 4.44435 0
M  V30 145 C 14.4008 -1.22506 4.06439 0
M  V30 146 C 12.3078 0.226137 5.90967 0
M  V30 147 H 11.2378 -0.128866 0.742906 0
M  V30 148 H 13.8888 0.386556 1.79382 0
M  V30 149 H 12.2708 -1.42739 3.6938 0
M  V30 150 H 13.4448 1.34082 4.40861 0
M  V30 151 H 11.7598 1.0594 4.02698 0
M  V30 152 H 14.3568 -1.49182 5.13468 0
M  V30 153 H 14.6998 -2.16085 3.55827 0
M  V30 154 H 15.2328 -0.50682 3.94558 0
M  V30 155 H 11.9718 1.12996 6.45687 0
M  V30 156 H 11.4918 -0.513717 5.97596 0
M  V30 157 H 13.1708 -0.179539 6.46751 0
M  V30 158 N 13.3029 -1.57598 0.00835791 0
M  V30 159 C 14.2659 -2.07884 -0.965242 0
M  V30 160 C 15.2659 -0.989825 -1.26725 0
M  V30 161 O 16.4559 -1.25218 -1.21104 0
M  V30 162 C 13.5879 -2.52731 -2.28779 0
M  V30 163 H 14.7809 -2.95178 -0.530112 0
M  V30 164 H 12.3339 -1.54458 -0.239283 0
M  V30 165 H 13.0689 -1.68705 -2.76964 0
M  V30 166 H 12.8539 -3.32272 -2.08177 0
M  V30 167 H 14.3439 -2.91933 -2.98605 0
M  V30 168 N 14.781 0.264519 -1.55364 0
M  V30 169 C 15.711 1.33121 -1.91836 0
M  V30 170 C 16.692 1.51101 -0.781192 0
M  V30 171 O 17.877 1.64003 -1.04003 0
M  V30 172 C 15.007 2.68921 -2.19769 0
M  V30 173 C 13.961 2.65661 -3.35571 0
M  V30 174 C 13.287 4.05093 -3.49004 0
M  V30 175 C 14.587 2.24187 -4.71739 0
M  V30 176 H 16.281 1.02844 -2.81182 0
M  V30 177 H 13.827 0.493286 -1.35287 0
M  V30 178 H 15.78 3.43663 -2.43872 0
M  V30 179 H 14.504 3.00799 -1.27231 0
M  V30 180 H 13.163 1.93377 -3.1145 0
M  V30 181 H 12.811 4.34206 -2.53917 0
M  V30 182 H 12.511 4.03804 -4.26868 0
M  V30 183 H 14.035 4.81561 -3.75408 0
M  V30 184 H 15.449 2.88654 -4.9533 0
M  V30 185 H 13.846 2.34044 -5.52579 0
M  V30 186 H 14.916 1.19327 -4.69988 0
M  V30 187 N 16.2591 1.48442 0.529413 0
M  V30 188 C 17.1891 1.65902 1.64313 0
M  V30 189 C 18.1701 0.507897 1.6234 0
M  V30 190 O 19.3551 0.740503 1.79528 0
M  V30 191 C 16.4851 1.69911 3.02898 0
M  V30 192 C 15.4391 2.8453 3.19729 0
M  V30 193 C 14.7651 2.73629 4.59381 0
M  V30 194 C 16.0651 4.25821 3.02447 0
M  V30 195 H 17.7591 2.5914 1.49955 0
M  V30 196 H 15.3051 1.24709 0.719982 0
M  V30 197 H 17.2581 1.80715 3.80684 0
M  V30 198 H 15.9821 0.732524 3.18279 0
M  V30 199 H 14.6411 2.73283 2.44361 0
M  V30 200 H 14.2891 1.74938 4.71599 0
M  V30 201 H 13.9891 3.50541 4.71588 0
M  V30 202 H 15.5131 2.86401 5.39265 0
M  V30 203 H 16.9271 4.37898 3.70024 0
M  V30 204 H 15.3241 5.03735 3.26146 0
M  V30 205 H 16.3941 4.42244 1.98867 0
M  V30 206 N 17.7372 -0.778329 1.37039 0
M  V30 207 C 18.9652 -1.56734 1.35063 0
M  V30 208 C 19.3802 -1.88686 -0.0655597 0
M  V30 209 O 18.7372 -1.5096 -1.02554 0
M  V30 210 C 18.7882 -2.88163 2.18276 0
M  V30 211 O 18.5092 -2.57583 3.54376 0
M  V30 212 C 20.0102 -3.82422 2.24206 0
M  V30 213 H 17.2302 -0.485778 0.462883 0
M  V30 214 H 19.7742 -0.965185 1.8029 0
M  V30 215 H 17.9292 -3.44818 1.76576 0
M  V30 216 H 18.3432 -3.41699 3.97922 0
M  V30 217 H 19.8172 -4.71667 2.86765 0
M  V30 218 H 20.2942 -4.21078 1.24861 0
M  V30 219 H 20.9002 -3.31697 2.6619 0
M  V30 220 N 19.2153 -1.21501 -1.00376 0
M  V30 221 C 20.1783 -0.976927 -2.07337 0
M  V30 222 C 21.1783 0.0525322 -1.60714 0
M  V30 223 O 22.3683 -0.184869 -1.73216 0
M  V30 224 C 19.5003 -0.473423 -3.37597 0
M  V30 225 H 20.6933 -1.92587 -2.29892 0
M  V30 226 H 18.2463 -1.03217 -1.17371 0
M  V30 227 H 18.9813 0.480379 -3.20722 0
M  V30 228 H 18.7663 -1.216 -3.72768 0
M  V30 229 H 20.2563 -0.32675 -4.1632 0
M  V30 230 N 20.6934 1.19889 -1.02296 0
M  V30 231 C 21.9404 1.8942 -0.715972 0
M  V30 232 C 22.2684 1.79251 0.754944 0
M  V30 233 O 21.5234 1.17526 1.56481 0
M  V30 234 C 21.8224 3.39883 -1.10518 0
M  V30 235 C 21.4884 3.70254 -2.57337 0
M  V30 236 C 20.1504 3.78254 -2.97452 0
M  V30 237 C 22.5024 3.84052 -3.52354 0
M  V30 238 C 19.8304 3.97514 -4.31509 0
M  V30 239 C 22.1824 4.04824 -4.86108 0
M  V30 240 C 20.8464 4.11054 -5.25919 0
M  V30 241 H 20.1164 0.693138 -0.261993 0
M  V30 242 H 22.7634 1.42012 -1.28472 0
M  V30 243 H 21.0684 3.8915 -0.454953 0
M  V30 244 H 22.7654 3.9199 -0.845261 0
M  V30 245 H 19.3554 3.64632 -2.25258 0
M  V30 246 H 23.5394 3.77221 -3.22518 0
M  V30 247 H 18.7954 4.00574 -4.61898 0
M  V30 248 H 22.9694 4.14442 -5.59653 0
M  V30 249 H 20.5964 4.2573 -6.29808 0
M  V30 250 N 22.1715 0.800033 1.35784 0
M  V30 251 C 23.4195 0.376597 1.9856 0
M  V30 252 C 23.7405 -1.05812 1.63795 0
M  V30 253 O 23.0105 -1.73103 0.917171 0
M  V30 254 H 21.5905 0.136261 0.734467 0
M  V30 255 H 24.2525 1.02442 1.65806 0
M  V30 256 H 23.3485 0.477002 3.08433 0
M  V30 257 N 23.6496 -1.47581 0.552962 0
M  V30 258 C 24.5796 -2.32762 -0.185451 0
M  V30 259 C 25.5606 -1.43527 -0.912905 0
M  V30 260 O 26.7456 -1.72388 -0.894201 0
M  V30 261 C 23.8756 -3.25219 -1.21859 0
M  V30 262 C 22.8296 -4.23661 -0.607864 0
M  V30 263 C 22.1556 -5.05413 -1.74533 0
M  V30 264 C 23.4556 -5.20481 0.435582 0
M  V30 265 H 25.1496 -2.94749 0.525684 0
M  V30 266 H 22.6956 -1.41738 0.254251 0
M  V30 267 H 24.6486 -3.8365 -1.7433 0
M  V30 268 H 23.3726 -2.61279 -1.95961 0
M  V30 269 H 22.0316 -3.66451 -0.104489 0
M  V30 270 H 21.6796 -4.3788 -2.47529 0
M  V30 271 H 21.3796 -5.72059 -1.34249 0
M  V30 272 H 22.9036 -5.66701 -2.27338 0
M  V30 273 H 24.3176 -5.733 -0.00290157 0
M  V30 274 H 22.7146 -5.95305 0.757067 0
M  V30 275 H 23.7846 -4.66217 1.33303 0
M  V30 276 N 25.1277 -0.289203 -1.54924 0
M  V30 277 C 26.0907 0.579144 -2.21762 0
M  V30 278 C 27.0907 1.07047 -1.1999 0
M  V30 279 O 28.2807 0.968384 -1.44803 0
M  V30 280 C 25.4127 1.80055 -2.8947 0
M  V30 281 H 26.6057 -0.00464908 -2.999 0
M  V30 282 H 24.1587 -0.0399306 -1.56249 0
M  V30 283 H 24.8937 2.42449 -2.15381 0
M  V30 284 H 24.6787 1.45602 -3.64064 0
M  V30 285 H 26.1687 2.41773 -3.40493 0
M  V30 286 N 26.6058 1.57591 -0.0167156 0
M  V30 287 C 27.8308 1.9598 0.67872 0
M  V30 288 C 28.2558 0.892546 1.65575 0
M  V30 289 O 27.6138 -0.147772 1.80697 0
M  V30 290 C 27.6618 3.33468 1.37227 0
M  V30 291 O 26.7658 3.28954 2.48722 0
M  V30 292 H 26.1068 0.639339 0.17928 0
M  V30 293 H 28.6368 2.04463 -0.0748802 0
M  V30 294 H 28.6468 3.69417 1.7319 0
M  V30 295 H 27.3218 4.10694 0.656007 0
M  V30 296 H 25.8988 3.04705 2.14963 0
M  V30 297 N 28.0839 -0.256276 1.55502 0
M  V30 298 C 29.0469 -1.30047 1.88734 0
M  V30 299 C 30.0469 -1.4154 0.763086 0
M  V30 300 O 31.2369 -1.40403 1.03115 0
M  V30 301 C 28.3689 -2.67953 2.10747 0
M  V30 302 H 29.5619 -1.01802 2.82093 0
M  V30 303 H 27.1149 -0.495134 1.4825 0
M  V30 304 H 27.8499 -3.01351 1.19825 0
M  V30 305 H 27.6349 -2.60993 2.92617 0
M  V30 306 H 29.1249 -3.43368 2.37673 0
M  V30 307 N 29.562 -1.4872 -0.521534 0
M  V30 308 C 30.808 -1.574 -1.27879 0
M  V30 309 C 31.141 -0.250817 -1.92573 0
M  V30 310 O 30.416 0.743934 -1.79711 0
M  V30 311 C 30.699 -2.71843 -2.36164 0
M  V30 312 C 30.552 -4.13893 -1.76105 0
M  V30 313 C 31.871 -2.82008 -3.37875 0
M  V30 314 H 28.99 -0.572941 -0.463581 0
M  V30 315 H 31.632 -1.80927 -0.580119 0
M  V30 316 H 29.782 -2.51914 -2.95756 0
M  V30 317 H 31.454 -4.45284 -1.20499 0
M  V30 318 H 29.697 -4.20498 -1.06601 0
M  V30 319 H 30.368 -4.89804 -2.5455 0
M  V30 320 H 32.844 -3.00086 -2.88249 0
M  V30 321 H 31.72 -3.63796 -4.11028 0
M  V30 322 H 31.981 -1.90511 -3.98946 0
M  V30 323 N 31.0401 0.771051 -1.3745 0
M  V30 324 C 31.9731 1.89166 -1.27638 0
M  V30 325 C 32.9511 1.61842 -0.156782 0
M  V30 326 O 34.1351 1.85569 -0.331111 0
M  V30 327 C 31.2621 3.24405 -0.973621 0
M  V30 328 C 30.3081 3.70638 -2.1102 0
M  V30 329 S 31.1411 3.84228 -3.73 0
M  V30 330 C 32.2971 5.22313 -3.44876 0
M  V30 331 H 32.5301 1.972 -2.22485 0
M  V30 332 H 30.0631 0.932224 -1.23081 0
M  V30 333 H 32.0211 4.02514 -0.805766 0
M  V30 334 H 30.6821 3.14071 -0.0426279 0
M  V30 335 H 29.8751 4.68685 -1.85338 0
M  V30 336 H 29.4771 2.99632 -2.23822 0
M  V30 337 H 31.7691 6.07505 -2.99908 0
M  V30 338 H 32.7121 5.53008 -4.42253 0
M  V30 339 H 33.1201 4.90284 -2.79789 0
M  V30 340 N 32.5182 1.22032 0.997298 0
M  V30 341 C 33.7462 1.06841 1.7718 0
M  V30 342 C 34.1612 -0.381325 1.84909 0
M  V30 343 O 33.5182 -1.26437 1.31605 0
M  V30 344 C 33.5692 1.66814 3.20711 0
M  V30 345 O 33.2902 3.06116 3.13408 0
M  V30 346 C 34.7912 1.56838 4.14628 0
M  V30 347 H 32.0112 0.374782 0.556578 0
M  V30 348 H 34.5552 1.61532 1.2541 0
M  V30 349 H 32.7102 1.16196 3.69564 0
M  V30 350 H 33.1242 3.34926 4.0364 0
M  V30 351 H 34.5982 2.03532 5.13107 0
M  V30 352 H 35.0752 0.524155 4.36061 0
M  V30 353 H 35.6812 2.06741 3.7167 0
M  V30 354 N 33.9963 -1.19345 1.0293 0
M  V30 355 C 35.2423 -1.89318 0.727083 0
M  V30 356 C 35.5753 -1.79446 -0.742483 0
M  V30 357 O 34.8503 -1.1871 -1.54072 0
M  V30 358 C 35.1333 -3.40238 1.17942 0
M  V30 359 C 34.9863 -3.58979 2.71024 0
M  V30 360 C 36.3053 -4.33479 0.760548 0
M  V30 361 H 33.4243 -0.687475 0.265606 0
M  V30 362 H 36.0663 -1.40477 1.2793 0
M  V30 363 H 34.2163 -3.81964 0.709608 0
M  V30 364 H 35.8883 -3.26421 3.25955 0
M  V30 365 H 34.1313 -3.02018 3.11396 0
M  V30 366 H 34.8023 -4.64823 2.9773 0
M  V30 367 H 37.2783 -3.99469 1.16464 0
M  V30 368 H 36.1543 -5.37664 1.10493 0
M  V30 369 H 36.4153 -4.40813 -0.337063 0
M  V30 370 N 35.4744 -0.807222 -1.35358 0
M  V30 371 C 36.4064 -0.175717 -2.28525 0
M  V30 372 C 37.4194 0.625354 -1.5031 0
M  V30 373 O 38.6084 0.457611 -1.72535 0
M  V30 374 C 35.7084 0.773471 -3.29956 0
M  V30 375 C 34.8814 0.0186296 -4.37396 0
M  V30 376 C 33.9404 0.886395 -5.18681 0
M  V30 377 O 32.9664 0.337106 -5.68201 0
M  V30 378 N 34.1684 2.20839 -5.36852 0
M  V30 379 H 36.9334 -0.976091 -2.83359 0
M  V30 380 H 34.4944 -0.662737 -1.47714 0
M  V30 381 H 36.4864 1.35824 -3.81227 0
M  V30 382 H 35.0564 1.47465 -2.75632 0
M  V30 383 H 34.2764 -0.747349 -3.87051 0
M  V30 384 H 35.5644 -0.501577 -5.06322 0
M  V30 385 H 34.9624 2.67858 -4.98265 0
M  V30 386 H 33.5194 2.74237 -5.91301 0
M  V30 387 N 36.9525 1.47285 -0.560781 0
M  V30 388 C 37.9155 2.28535 0.174488 0
M  V30 389 C 38.9155 1.37153 0.839388 0
M  V30 390 O 40.1055 1.59748 0.694702 0
M  V30 391 C 37.2375 3.16934 1.25561 0
M  V30 392 H 38.4305 2.95012 -0.539262 0
M  V30 393 H 35.9835 1.53034 -0.317865 0
M  V30 394 H 36.7185 2.55157 2.00164 0
M  V30 395 H 36.5035 3.8419 0.783604 0
M  V30 396 H 37.9935 3.78143 1.77193 0
M  V30 397 N 38.4306 0.297415 1.54768 0
M  V30 398 C 39.3936 -0.567375 2.22066 0
M  V30 399 C 40.3936 -1.06409 1.20556 0
M  V30 400 O 41.5836 -0.960691 1.45315 0
M  V30 401 C 38.7156 -1.78517 2.90421 0
M  V30 402 H 39.9086 0.0205534 2.99893 0
M  V30 403 H 37.4616 0.0482163 1.56226 0
M  V30 404 H 38.1966 -2.41303 2.16664 0
M  V30 405 H 37.9816 -1.43669 3.64831 0
M  V30 406 H 39.4716 -2.39964 3.41771 0
M  V30 407 N 39.9087 -1.5758 0.0250728 0
M  V30 408 C 40.8187 -2.1343 -0.973905 0
M  V30 409 C 41.8347 -1.08556 -1.35984 0
M  V30 410 O 43.0107 -1.40592 -1.44207 0
M  V30 411 C 40.0757 -2.64703 -2.23904 0
M  V30 412 C 39.1367 -3.84276 -1.91391 0
M  V30 413 C 38.3697 -4.33095 -3.11873 0
M  V30 414 O 38.5927 -3.81107 -4.24398 0
M  V30 415 O 37.5267 -5.24984 -2.94406 0
M  V30 416 H 41.3527 -2.99057 -0.529036 0
M  V30 417 H 38.9377 -1.48118 -0.195288 0
M  V30 418 H 40.8197 -2.97769 -2.98181 0
M  V30 419 H 39.4947 -1.82161 -2.6758 0
M  V30 420 H 38.4017 -3.56143 -1.14511 0
M  V30 421 H 39.7347 -4.67968 -1.52534 0
M  V30 422 N 41.3868 0.248026 -1.55636 0
M  V30 423 C 42.8028 0.596483 -1.48035 0
M  V30 424 C 43.0028 1.88386 -0.715039 0
M  V30 425 O 42.0588 2.51319 -0.243944 0
M  V30 426 C 43.3718 0.700258 -2.92433 0
M  V30 427 C 44.9198 0.792659 -3.02797 0
M  V30 428 C 45.3948 0.928005 -4.485 0
M  V30 429 N 46.8858 0.992903 -4.52433 0
M  V30 430 C 47.6208 1.11687 -5.62418 0
M  V30 431 N 47.1168 1.20645 -6.82214 0
M  V30 432 N 48.9098 1.14994 -5.50212 0
M  V30 433 H 41.0608 -0.597109 -2.03834 0
M  V30 434 H 43.3238 -0.205925 -0.925364 0
M  V30 435 H 43.0298 -0.175658 -3.51261 0
M  V30 436 H 42.9038 1.57255 -3.42857 0
M  V30 437 H 45.2908 1.65903 -2.4405 0
M  V30 438 H 45.3718 -0.104762 -2.55585 0
M  V30 439 H 45.0158 0.0661971 -5.07857 0
M  V30 440 H 44.9458 1.84045 -4.93391 0
M  V30 441 H 47.4368 0.935064 -3.66149 0
M  V30 442 H 47.7498 1.30008 -7.61786 0
M  V30 443 H 46.0948 1.17605 -6.84977 0
M  V30 444 H 49.2858 1.07643 -4.55555 0
M  V30 445 H 49.4588 1.24311 -6.35965 0
M  V30 446 N 42.8649 1.48995 0.513639 0
M  V30 447 C 44.1139 1.57093 1.2651 0
M  V30 448 C 44.4269 0.257091 1.93903 0
M  V30 449 O 45.6329 0.216478 2.70636 0
M  V30 450 C 44.0889 2.77118 2.29638 0
M  V30 451 C 43.6969 4.15209 1.68241 0
M  V30 452 C 45.4409 2.94538 3.05692 0
M  V30 453 C 43.3479 5.26474 2.69406 0
M  V30 454 H 42.2779 0.584876 0.475854 0
M  V30 455 H 44.9289 1.7536 0.540487 0
M  V30 456 H 43.3109 2.52319 3.05207 0
M  V30 457 H 44.4849 4.50094 0.987505 0
M  V30 458 H 42.7999 4.03042 1.04623 0
M  V30 459 H 45.3969 3.74832 3.8132 0
M  V30 460 H 45.7399 2.04614 3.62545 0
M  V30 461 H 46.2729 3.19316 2.37238 0
M  V30 462 H 43.0119 6.18417 2.17351 0
M  V30 463 H 42.5319 4.96058 3.37175 0
M  V30 464 H 44.2109 5.55277 3.32078 0
M  V30 465 N 44.343 -0.763751 1.37857 0
M  V30 466 C 45.306 -1.85889 1.34081 0
M  V30 467 C 46.306 -1.58949 0.243277 0
M  V30 468 O 47.496 -1.66882 0.499589 0
M  V30 469 C 44.628 -3.23176 1.08489 0
M  V30 470 H 45.821 -1.90648 2.31502 0
M  V30 471 H 43.374 -0.964367 1.23003 0
M  V30 472 H 44.109 -3.24091 0.116318 0
M  V30 473 H 43.894 -3.44124 1.8794 0
M  V30 474 H 45.384 -4.03254 1.08517 0
M  V30 475 N 45.8211 -1.22559 -0.990812 0
M  V30 476 C 47.0681 -1.05141 -1.73065 0
M  V30 477 C 47.3961 0.413191 -1.9006 0
M  V30 478 O 46.6511 1.32257 -1.44245 0
M  V30 479 C 46.9501 -1.71011 -3.13831 0
M  V30 480 C 46.6161 -3.20911 -3.16745 0
M  V30 481 C 45.2781 -3.61812 -3.17247 0
M  V30 482 C 47.6301 -4.16846 -3.12872 0
M  V30 483 C 44.9581 -4.97127 -3.1158 0
M  V30 484 C 47.3101 -5.5214 -3.08746 0
M  V30 485 C 45.9741 -5.92419 -3.07565 0
M  V30 486 H 45.2441 -0.384738 -0.633291 0
M  V30 487 H 47.8911 -1.5235 -1.16025 0
M  V30 488 H 46.1961 -1.16133 -3.74193 0
M  V30 489 H 47.8931 -1.55023 -3.69823 0
M  V30 490 H 44.4831 -2.88344 -3.17105 0
M  V30 491 H 48.6671 -3.86263 -3.11632 0
M  V30 492 H 43.9231 -5.27562 -3.09012 0
M  V30 493 H 48.0971 -6.26201 -3.04705 0
M  V30 494 H 45.7241 -6.97236 -3.02929 0
M  V30 495 N 47.2992 1.18797 -1.03562 0
M  V30 496 C 48.5482 1.87978 -0.731235 0
M  V30 497 C 48.8612 1.80911 0.743671 0
M  V30 498 O 50.0672 2.45407 1.16137 0
M  V30 499 C 48.5232 3.3721 -1.25768 0
M  V30 500 C 48.1312 3.52818 -2.76085 0
M  V30 501 C 49.8752 4.11825 -1.0296 0
M  V30 502 C 47.7822 4.9598 -3.22114 0
M  V30 503 H 46.7122 0.704063 -0.269835 0
M  V30 504 H 49.3632 1.34266 -1.25079 0
M  V30 505 H 47.7452 3.90359 -0.666011 0
M  V30 506 H 48.9192 3.09965 -3.40966 0
M  V30 507 H 47.2342 2.91602 -2.97249 0
M  V30 508 H 49.8312 5.17411 -1.34869 0
M  V30 509 H 50.1742 4.16287 0.0333546 0
M  V30 510 H 50.7072 3.64833 -1.58562 0
M  V30 511 H 47.4462 4.96684 -4.27768 0
M  V30 512 H 46.9662 5.39569 -2.61965 0
M  V30 513 H 48.6452 5.6467 -3.15844 0
M  V30 514 N 48.7773 0.814389 1.34928 0
M  V30 515 C 50.1883 0.458364 1.80986 0
M  V30 516 C 50.5393 -1.02042 1.67577 0
M  V30 517 O 49.6643 -1.79352 1.21086 0
M  V30 518 C 50.2593 0.825212 3.28597 0
M  V30 519 C 48.8183 0.521677 3.72767 0
M  V30 520 C 47.9653 1.04668 2.56788 0
M  V30 521 H 50.9163 1.00533 1.22795 0
M  V30 522 H 50.9373 0.12571 3.80292 0
M  V30 523 H 50.4493 1.90154 3.38324 0
M  V30 524 H 48.5503 -0.545589 3.68584 0
M  V30 525 H 48.6633 1.05977 4.67232 0
M  V30 526 H 47.0273 0.468622 2.50352 0
M  V30 527 H 47.8103 2.12927 2.6929 0
M  V30 528 N 50.2554 -1.46986 0.568584 0
M  V30 529 C 51.2024 -2.30153 -0.172707 0
M  V30 530 C 52.1724 -1.39759 -0.897586 0
M  V30 531 O 53.3574 -1.68716 -0.891044 0
M  V30 532 C 50.4974 -3.23952 -1.1895 0
M  V30 533 C 49.6104 -4.29441 -0.469517 0
M  V30 534 C 48.7454 -5.1038 -1.47259 0
M  V30 535 C 47.7844 -6.07632 -0.738225 0
M  V30 536 N 46.9214 -6.8149 -1.68868 0
M  V30 537 H 51.7614 -2.93019 0.542596 0
M  V30 538 H 49.2984 -1.44422 0.279401 0
M  V30 539 H 51.2564 -3.76767 -1.79173 0
M  V30 540 H 49.8864 -2.62926 -1.87269 0
M  V30 541 H 48.9384 -3.79594 0.247467 0
M  V30 542 H 50.2504 -4.98689 0.105241 0
M  V30 543 H 49.4044 -5.67402 -2.14803 0
M  V30 544 H 48.1434 -4.4106 -2.08128 0
M  V30 545 H 47.1484 -5.49778 -0.0489293 0
M  V30 546 H 48.3734 -6.78966 -0.135129 0
M  V30 547 H 46.3194 -6.14891 -2.28573 0
M  V30 548 H 46.2364 -7.46948 -1.16636 0
M  V30 549 H 47.5044 -7.43078 -2.3549 0
M  V30 550 N 51.7335 -0.305618 -1.54608 0
M  V30 551 C 52.6635 0.561482 -2.26649 0
M  V30 552 C 53.6445 1.13415 -1.26772 0
M  V30 553 O 54.8295 1.16262 -1.55553 0
M  V30 554 C 51.9595 1.73122 -3.01075 0
M  V30 555 C 50.9135 1.2887 -4.08138 0
M  V30 556 C 50.2395 2.54396 -4.70305 0
M  V30 557 C 51.5395 0.416578 -5.20636 0
M  V30 558 H 53.2335 -0.0393902 -2.99374 0
M  V30 559 H 50.7795 -0.020385 -1.43986 0
M  V30 560 H 52.7325 2.34396 -3.50195 0
M  V30 561 H 51.4565 2.3584 -2.25936 0
M  V30 562 H 50.1155 0.698991 -3.59875 0
M  V30 563 H 49.7635 3.15439 -3.918 0
M  V30 564 H 49.4635 2.25486 -5.42614 0
M  V30 565 H 50.9875 3.16464 -5.2219 0
M  V30 566 H 52.4015 0.935116 -5.65622 0
M  V30 567 H 50.7985 0.221046 -5.99693 0
M  V30 568 H 51.8685 -0.557162 -4.81688 0
M  V30 569 N 53.2116 1.57565 -0.0334293 0
M  V30 570 C 54.4576 1.92262 0.645226 0
M  V30 571 C 54.7906 0.910543 1.71531 0
M  V30 572 O 54.0656 -0.066099 1.94388 0
M  V30 573 C 54.3486 3.37422 1.2577 0
M  V30 574 C 54.2016 4.49369 0.196891 0
M  V30 575 C 55.5206 3.82628 2.17449 0
M  V30 576 H 52.6396 0.699171 0.233085 0
M  V30 577 H 55.2816 1.89779 -0.0915694 0
M  V30 578 H 53.4316 3.39669 1.88566 0
M  V30 579 H 55.1036 4.59254 -0.433962 0
M  V30 580 H 53.3466 4.31168 -0.477137 0
M  V30 581 H 54.0176 5.47978 0.665124 0
M  V30 582 H 56.4936 3.82145 1.64634 0
M  V30 583 H 55.3696 4.84883 2.57254 0
M  V30 584 H 55.6306 3.18376 3.0674 0
M  V30 585 N 54.6897 -0.239769 1.55765 0
M  V30 586 C 55.9377 -0.964892 1.77579 0
M  V30 587 C 56.2587 -1.85582 0.598699 0
M  V30 588 O 55.5287 -1.92075 -0.385226 0
M  V30 589 H 54.1087 -0.359265 0.654933 0
M  V30 590 H 56.7707 -0.256001 1.93211 0
M  V30 591 H 55.8667 -1.58243 2.69009 0
M  V30 592 N 56.1678 -1.49265 -0.50573 0
M  V30 593 C 57.4138 -1.58748 -1.26202 0
M  V30 594 C 57.7468 -0.271227 -1.92297 0
M  V30 595 O 57.0218 0.724831 -1.80489 0
M  V30 596 C 57.3048 -2.74332 -2.33268 0
M  V30 597 C 57.1578 -4.15737 -1.71705 0
M  V30 598 C 58.4768 -2.85576 -3.34865 0
M  V30 599 H 55.5958 -0.577826 -0.457478 0
M  V30 600 H 58.2378 -1.81532 -0.560897 0
M  V30 601 H 56.3878 -2.55036 -2.93068 0
M  V30 602 H 58.0598 -4.46537 -1.15769 0
M  V30 603 H 56.3028 -4.21605 -1.02135 0
M  V30 604 H 56.9738 -4.92477 -2.49341 0
M  V30 605 H 59.4498 -3.03127 -2.8505 0
M  V30 606 H 58.3258 -3.68135 -4.07146 0
M  V30 607 H 58.5868 -1.94732 -3.96903 0
M  V30 608 N 57.6459 0.756429 -1.3826 0
M  V30 609 C 58.8939 1.51248 -1.34047 0
M  V30 610 C 59.2149 1.94875 0.0698372 0
M  V30 611 O 58.4849 1.67436 1.01696 0
M  V30 612 H 57.0649 0.561018 -0.493222 0
M  V30 613 H 59.7269 0.899347 -1.7291 0
M  V30 614 H 58.8229 2.40472 -1.98947 0
M  V30 615 N 59.124 1.23083 0.984299 0
M  V30 616 C 60.371 1.06057 1.72505 0
M  V30 617 C 60.699 -0.403105 1.90277 0
M  V30 618 O 59.954 -1.3149 1.44944 0
M  V30 619 C 60.253 1.72673 3.1292 0
M  V30 620 C 59.919 3.22586 3.15038 0
M  V30 621 C 58.581 3.63489 3.15324 0
M  V30 622 C 60.933 4.185 3.10657 0
M  V30 623 C 58.261 4.98772 3.08939 0
M  V30 624 C 60.613 5.53769 3.05814 0
M  V30 625 C 59.277 5.94041 3.04419 0
M  V30 626 H 58.547 0.388091 0.631242 0
M  V30 627 H 61.194 1.52963 1.15215 0
M  V30 628 H 59.499 1.18116 3.73572 0
M  V30 629 H 61.196 1.56982 3.68996 0
M  V30 630 H 57.786 2.90022 3.15571 0
M  V30 631 H 61.97 3.87911 3.09579 0
M  V30 632 H 57.226 5.29193 3.0621 0
M  V30 633 H 61.4 6.27808 3.0138 0
M  V30 634 H 59.027 6.98833 2.99227 0
M  V30 635 N 60.6021 -1.18246 1.0419 0
M  V30 636 C 61.8491 -1.88257 0.746017 0
M  V30 637 C 62.1771 -1.80429 -0.726331 0
M  V30 638 O 61.4321 -1.2 -1.54591 0
M  V30 639 C 61.7311 -3.38082 1.15911 0
M  V30 640 C 61.3971 -3.66114 2.63195 0
M  V30 641 C 60.0591 -3.73474 3.03432 0
M  V30 642 C 62.4111 -3.78398 3.5842 0
M  V30 643 C 59.7391 -3.90599 4.37778 0
M  V30 644 C 62.0911 -3.97039 4.92487 0
M  V30 645 C 60.7551 -4.02635 5.32392 0
M  V30 646 H 60.0251 -0.688883 0.272987 0
M  V30 647 H 62.6721 -1.3995 1.30715 0
M  V30 648 H 60.9771 -3.88377 0.516806 0
M  V30 649 H 62.6741 -3.90596 0.907516 0
M  V30 650 H 59.2641 -3.61003 2.3103 0
M  V30 651 H 63.4481 -3.72042 3.28479 0
M  V30 652 H 58.7041 -3.93175 4.68213 0
M  V30 653 H 62.8781 -4.05486 5.66175 0
M  V30 654 H 60.5051 -4.15657 6.36501 0
M  V30 655 N 62.0802 -0.821533 -1.34494 0
M  V30 656 C 63.3082 -0.421884 -2.02553 0
M  V30 657 C 63.7232 0.971745 -1.61872 0
M  V30 658 O 63.0802 1.62864 -0.823496 0
M  V30 659 C 63.1312 -0.51285 -3.57844 0
M  V30 660 O 62.8522 -1.85155 -3.97051 0
M  V30 661 C 64.3532 -0.107921 -4.43169 0
M  V30 662 H 61.5732 -0.169482 -0.649243 0
M  V30 663 H 64.1172 -1.1093 -1.71798 0
M  V30 664 H 62.2722 0.126474 -3.87193 0
M  V30 665 H 62.6862 -1.82482 -4.91732 0
M  V30 666 H 64.1602 -0.222657 -5.51551 0
M  V30 667 H 64.6372 0.948401 -4.28838 0
M  V30 668 H 65.2432 -0.720989 -4.19144 0
M  V30 669 N 63.5583 1.46682 -0.576371 0
M  V30 670 C 64.7833 2.07304 -0.0630475 0
M  V30 671 C 65.2083 1.42329 1.2298 0
M  V30 672 O 64.5663 0.504865 1.74129 0
M  V30 673 C 64.6143 3.60472 0.095895 0
M  V30 674 O 63.7183 3.95927 1.15394 0
M  V30 675 H 63.0593 0.661288 -0.0599463 0
M  V30 676 H 65.5893 1.88417 -0.797511 0
M  V30 677 H 65.5993 4.06865 0.304071 0
M  V30 678 H 64.2743 4.07157 -0.84828 0
M  V30 679 H 62.8513 3.61252 0.924724 0
M  V30 680 N 65.0364 0.313813 1.54444 0
M  V30 681 C 66.2844 -0.291099 1.99993 0
M  V30 682 C 66.6054 -1.53418 1.20366 0
M  V30 683 O 65.8754 -1.93544 0.302927 0
M  V30 684 H 64.4554 -0.110552 0.738774 0
M  V30 685 H 67.1174 0.428106 1.9014 0
M  V30 686 H 66.2134 -0.554268 3.07139 0
M  V30 687 N 66.5145 -1.57545 0.0417849 0
M  V30 688 C 67.7625 -1.91937 -0.632829 0
M  V30 689 C 68.0835 -0.919978 -1.71934 0
M  V30 690 O 67.3535 0.0366064 -1.95866 0
M  V30 691 H 65.9335 -0.708493 -0.236742 0
M  V30 692 H 68.5955 -1.9468 0.0925745 0
M  V30 693 H 67.6915 -2.92912 -1.07746 0
M  V30 694 N 67.9926 0.231505 -1.5589 0
M  V30 695 C 68.9406 1.30649 -1.92441 0
M  V30 696 C 69.9346 1.49037 -0.805254 0
M  V30 697 O 71.1406 1.50329 -0.990007 0
M  V30 698 H 67.5156 0.437812 -0.611412 0
M  V30 699 H 69.4866 0.970973 -2.82161 0
M  V30 700 C 68.2356 2.65179 -2.24889 0
M  V30 701 H 67.5586 2.51835 -3.10514 0
M  V30 702 H 68.9986 3.39234 -2.54355 0
M  V30 703 C 67.4576 3.19439 -1.07054 0
M  V30 704 O 67.9876 4.00371 -0.326499 0
M  V30 705 N 66.1936 2.77675 -0.85703 0
M  V30 706 H 65.7406 2.11969 -1.46379 0
M  V30 707 H 65.6986 3.14321 -0.0703223 0
M  V30 708 N 69.4707 1.49531 0.497807 0
M  V30 709 C 70.7187 1.58865 1.24926 0
M  V30 710 C 71.0397 0.278721 1.92998 0
M  V30 711 O 70.3097 -0.702144 1.82885 0
M  V30 712 H 68.8897 0.585343 0.464094 0
M  V30 713 H 71.5517 1.86174 0.57666 0
M  V30 714 H 70.6477 2.38633 2.01149 0
M  V30 715 N 70.9488 -0.749086 1.3866 0
M  V30 716 C 71.9118 -1.84457 1.36045 0
M  V30 717 C 72.9118 -1.58682 0.260122 0
M  V30 718 O 74.1018 -1.66343 0.517261 0
M  V30 719 C 71.2338 -3.22008 1.11911 0
M  V30 720 H 72.4268 -1.88182 2.33512 0
M  V30 721 H 69.9798 -0.951266 1.24019 0
M  V30 722 H 70.7148 -3.2395 0.150686 0
M  V30 723 H 70.4998 -3.42111 1.91579 0
M  V30 724 H 71.9898 -4.0208 1.12788 0
M  V30 725 N 72.4269 -1.23603 -0.977757 0
M  V30 726 C 73.3589 -0.977369 -2.07317 0
M  V30 727 C 74.3719 0.0495845 -1.62724 0
M  V30 728 O 75.5609 -0.186261 -1.77526 0
M  V30 729 C 72.6609 -0.451216 -3.35883 0
M  V30 730 C 71.8339 -1.53896 -4.09432 0
M  V30 731 C 70.8929 -1.01721 -5.16274 0
M  V30 732 O 69.9189 -1.70676 -5.43009 0
M  V30 733 N 71.1209 0.153594 -5.80297 0
M  V30 734 H 73.8859 -1.92047 -2.30082 0
M  V30 735 H 71.4469 -1.14497 -1.14465 0
M  V30 736 H 73.4389 -0.0871574 -4.04606 0
M  V30 737 H 72.0089 0.397368 -3.10064 0
M  V30 738 H 71.2289 -2.07566 -3.35127 0
M  V30 739 H 72.5169 -2.27037 -4.55337 0
M  V30 740 H 71.9149 0.730323 -5.60966 0
M  V30 741 H 70.4719 0.458892 -6.50183 0
M  V30 742 N 73.905 1.17692 -1.04816 0
M  V30 743 C 74.815 2.25229 -0.65643 0
M  V30 744 C 75.831 1.71018 0.320761 0
M  V30 745 O 77.007 2.00649 0.173805 0
M  V30 746 C 74.072 3.46684 -0.0332629 0
M  V30 747 C 73.133 4.15997 -1.06042 0
M  V30 748 C 72.366 5.31654 -0.466893 0
M  V30 749 O 72.589 5.65777 0.724758 0
M  V30 750 O 71.523 5.89831 -1.1993 0
M  V30 751 H 75.349 2.61016 -1.55255 0
M  V30 752 H 72.934 1.24919 -0.81949 0
M  V30 753 H 74.816 4.20234 0.313256 0
M  V30 754 H 73.491 3.12703 0.836566 0
M  V30 755 H 72.398 3.44482 -1.45886 0
M  V30 756 H 73.731 4.53996 -1.90127 0
M  V30 757 N 75.3831 0.828654 1.34056 0
M  V30 758 C 76.3461 0.259927 2.27721 0
M  V30 759 C 77.3461 -0.565478 1.50529 0
M  V30 760 O 78.5361 -0.38075 1.69988 0
M  V30 761 C 75.6681 -0.634944 3.34935 0
M  V30 762 H 76.8611 1.0863 2.79534 0
M  V30 763 H 74.4141 0.600951 1.44285 0
M  V30 764 H 75.1491 -1.48416 2.88346 0
M  V30 765 H 74.9341 -0.0444999 3.92075 0
M  V30 766 H 76.4241 -1.02648 4.04788 0
M  V30 767 N 76.8612 -1.46375 0.584142 0
M  V30 768 C 78.1092 -2.01978 0.0701287 0
M  V30 769 C 78.4302 -1.4579 -1.295 0
M  V30 770 O 77.7002 -0.64314 -1.85042 0
M  V30 771 H 76.2802 -0.746648 0.0229345 0
M  V30 772 H 78.9422 -1.79461 0.760245 0
M  V30 773 H 78.0382 -3.121 0.0022064 0
M  V30 774 N 78.3393 -0.321999 -1.54275 0
M  V30 775 C 79.2863 0.544664 -2.24281 0
M  V30 776 C 80.2563 1.1129 -1.23303 0
M  V30 777 O 81.4413 1.15354 -1.51981 0
M  V30 778 C 78.5813 1.70045 -3.00298 0
M  V30 779 C 77.6943 1.16159 -4.1609 0
M  V30 780 C 76.8293 2.28293 -4.79641 0
M  V30 781 C 75.8683 1.71648 -5.8754 0
M  V30 782 N 75.0053 2.77438 -6.44959 0
M  V30 783 H 79.8453 -0.0588907 -2.97942 0
M  V30 784 H 77.3823 -0.0408345 -1.47043 0
M  V30 785 H 79.3403 2.38054 -3.42616 0
M  V30 786 H 77.9703 2.27531 -2.28975 0
M  V30 787 H 77.0223 0.373092 -3.78566 0
M  V30 788 H 78.3343 0.707087 -4.93763 0
M  V30 789 H 77.4883 3.0421 -5.2492 0
M  V30 790 H 76.2273 2.77079 -4.01346 0
M  V30 791 H 75.2323 0.942282 -5.41665 0
M  V30 792 H 76.4573 1.23741 -6.67731 0
M  V30 793 H 74.4033 3.25519 -5.69538 0
M  V30 794 H 74.3203 2.36547 -7.1804 0
M  V30 795 H 75.5883 3.53189 -6.94894 0
M  V30 796 N 79.8174 1.5752 -0.0501392 0
M  V30 797 C 80.7804 2.1037 0.909786 0
M  V30 798 C 81.7804 1.02308 1.24056 0
M  V30 799 O 82.9704 1.28385 1.17741 0
M  V30 800 C 80.1024 2.58708 2.21998 0
M  V30 801 H 81.2954 2.96479 0.451665 0
M  V30 802 H 78.8484 1.55038 0.198248 0
M  V30 803 H 79.5834 1.75989 2.72394 0
M  V30 804 H 79.3684 3.37675 1.99295 0
M  V30 805 H 80.8584 2.99747 2.9076 0
M  V30 806 N 81.2955 -0.223234 1.56011 0
M  V30 807 C 82.2255 -1.27988 1.95298 0
M  V30 808 C 83.2065 -1.48976 0.820979 0
M  V30 809 O 84.3915 -1.61188 1.08315 0
M  V30 810 C 81.5215 -2.63 2.26822 0
M  V30 811 C 80.4755 -2.56671 3.42497 0
M  V30 812 C 79.8015 -3.95697 3.59622 0
M  V30 813 C 81.1015 -2.11601 4.77517 0
M  V30 814 H 82.7955 -0.953525 2.8381 0
M  V30 815 H 80.3415 -0.457244 1.36548 0
M  V30 816 H 82.2945 -3.37077 2.52898 0
M  V30 817 H 81.0185 -2.9732 1.35161 0
M  V30 818 H 79.6775 -1.85051 3.16467 0
M  V30 819 H 79.3255 -4.27322 2.6534 0
M  V30 820 H 79.0255 -3.92345 4.37424 0
M  V30 821 H 80.5495 -4.71438 3.88044 0
M  V30 822 H 81.9635 -2.7542 5.02809 0
M  V30 823 H 80.3605 -2.19311 5.5859 0
M  V30 824 H 81.4305 -1.06824 4.72987 0
M  V30 825 N 82.7736 -1.49793 -0.48987 0
M  V30 826 C 84.0216 -1.59525 -1.24081 0
M  V30 827 C 84.3426 -0.288953 -1.92847 0
M  V30 828 O 83.6126 0.692436 -1.83254 0
M  V30 829 H 82.1926 -0.587796 -0.460983 0
M  V30 830 H 84.8546 -1.86477 -0.566778 0
M  V30 831 H 83.9506 -2.39696 -1.99881 0
M  V30 832 N 84.2517 0.741722 -1.39055 0
M  V30 833 C 85.5007 1.49656 -1.35225 0
M  V30 834 C 85.8137 1.95533 0.0512708 0
M  V30 835 O 87.0197 2.7067 0.212138 0
M  V30 836 C 85.4757 2.70389 -2.37525 0
M  V30 837 C 85.0837 2.31489 -3.83558 0
M  V30 838 C 86.8277 3.48236 -2.42759 0
M  V30 839 C 84.7347 3.48903 -4.77515 0
M  V30 840 H 83.6647 0.56197 -0.502699 0
M  V30 841 H 86.3157 0.809727 -1.64668 0
M  V30 842 H 84.6977 3.41113 -2.01142 0
M  V30 843 H 85.8717 1.68354 -4.28945 0
M  V30 844 H 84.1867 1.66749 -3.81554 0
M  V30 845 H 86.7837 4.35558 -3.1015 0
M  V30 846 H 87.1267 3.90229 -1.45008 0
M  V30 847 H 87.6597 2.84535 -2.78002 0
M  V30 848 H 84.3987 3.11966 -5.76504 0
M  V30 849 H 83.9187 4.11041 -4.36813 0
M  V30 850 H 85.5977 4.15328 -4.96096 0
M  V30 851 N 85.7298 1.2412 0.971189 0
M  V30 852 C 87.0068 0.986867 1.6888 0
M  V30 853 C 87.3868 -0.491857 2.0529 0
M  V30 854 O 86.7348 -1.46531 1.75331 0
M  V30 855 C 86.9448 1.9063 2.92338 0
M  V30 856 C 88.2928 2.17515 3.64654 0
M  V30 857 O 89.3168 1.88254 3.02388 0
M  V30 858 O 88.1758 2.6719 4.7673 0
M  V30 859 H 85.2698 0.372944 0.738134 0
M  V30 860 H 87.8158 1.35203 1.02559 0
M  V30 861 H 86.5878 2.90552 2.62097 0
M  V30 862 H 86.2108 1.54408 3.66393 0
M  V30 863 N 87.2079 -1.17134 1.05439 0
M  V30 864 C 88.4539 -1.87733 0.767077 0
M  V30 865 C 88.7869 -1.8098 -0.704253 0
M  V30 866 O 88.0619 -1.21951 -1.5152 0
M  V30 867 C 88.3449 -3.37659 1.25133 0
M  V30 868 C 88.1979 -3.53149 2.78578 0
M  V30 869 C 89.5169 -4.31768 0.852324 0
M  V30 870 H 86.6359 -0.681687 0.280129 0
M  V30 871 H 89.2779 -1.37732 1.30881 0
M  V30 872 H 87.4279 -3.80373 0.790469 0
M  V30 873 H 89.0999 -3.19434 3.32806 0
M  V30 874 H 87.3429 -2.95345 3.17732 0
M  V30 875 H 88.0139 -4.58403 3.07523 0
M  V30 876 H 90.4899 -3.96909 1.24911 0
M  V30 877 H 89.3659 -5.35199 1.21873 0
M  V30 878 H 89.6269 -4.41429 -0.243485 0
M  V30 879 N 88.686 -0.835752 -1.33615 0
M  V30 880 C 89.914 -0.443344 -2.02094 0
M  V30 881 C 90.329 0.954522 -1.62894 0
M  V30 882 O 89.686 1.61982 -0.840723 0
M  V30 883 C 89.737 -0.550775 -3.5728 0
M  V30 884 O 89.458 -1.89356 -3.95065 0
M  V30 885 C 90.959 -0.154919 -4.43029 0
M  V30 886 H 88.179 -0.176359 -0.647409 0
M  V30 887 H 90.723 -1.12746 -1.70612 0
M  V30 888 H 88.878 0.0853997 -3.87306 0
M  V30 889 H 89.292 -1.87687 -4.89769 0
M  V30 890 H 90.766 -0.281144 -5.51284 0
M  V30 891 H 91.243 0.902863 -4.2982 0
M  V30 892 H 91.849 -0.765404 -4.18356 0
M  V30 893 N 90.1641 1.46063 -0.591896 0
M  V30 894 C 91.3941 2.06418 -0.0867676 0
M  V30 895 C 91.8021 1.43975 1.22751 0
M  V30 896 O 91.1451 0.542531 1.75506 0
M  V30 897 C 91.2071 3.59213 0.143725 0
M  V30 898 C 90.8711 4.439 -1.08635 0
M  V30 899 C 91.8681 4.79864 -2.00067 0
M  V30 900 C 89.5531 4.84896 -1.31077 0
M  V30 901 C 91.5471 5.55661 -3.12282 0
M  V30 902 C 89.2341 5.6045 -2.43596 0
M  V30 903 C 90.2321 5.95747 -3.34027 0
M  V30 904 O 89.9201 6.69772 -4.4459 0
M  V30 905 H 89.6521 0.673443 -0.0587447 0
M  V30 906 H 92.2061 1.88539 -0.814994 0
M  V30 907 H 90.4361 3.75433 0.926668 0
M  V30 908 H 92.1251 4.01463 0.5985 0
M  V30 909 H 92.8911 4.48763 -1.83947 0
M  V30 910 H 88.7701 4.56867 -0.61594 0
M  V30 911 H 92.3141 5.8313 -3.82891 0
M  V30 912 H 88.2111 5.90965 -2.59674 0
M  V30 913 H 88.9791 6.88207 -4.43073 0
M  V30 914 N 91.6422 0.330177 1.54103 0
M  V30 915 C 92.9192 -0.325007 1.92881 0
M  V30 916 C 93.2992 -1.6934 1.26045 0
M  V30 917 O 92.6472 -2.24855 0.406526 0
M  V30 918 C 92.8572 -0.410634 3.46576 0
M  V30 919 C 94.2052 -0.667801 4.19316 0
M  V30 920 O 95.2292 -0.49329 3.52768 0
M  V30 921 O 94.0882 -1.00491 5.37181 0
M  V30 922 H 91.1822 -0.186873 0.80561 0
M  V30 923 H 93.7282 0.380376 1.65382 0
M  V30 924 H 92.5002 0.550164 3.87413 0
M  V30 925 H 92.1232 -1.16333 3.802 0
M  V30 926 N 93.1203 -1.57491 0.0584922 0
M  V30 927 C 94.3683 -1.92597 -0.612436 0
M  V30 928 C 94.6893 -0.938162 -1.70949 0
M  V30 929 O 93.9593 0.0158301 -1.95894 0
M  V30 930 H 92.5393 -0.710964 -0.229214 0
M  V30 931 H 95.2013 -1.94571 0.113218 0
M  V30 932 H 94.2973 -2.94038 -1.04633 0
M  V30 933 N 94.5984 0.214957 -1.56127 0
M  V30 934 C 96.0094 0.781386 -1.69562 0
M  V30 935 C 96.3604 1.84707 -0.66165 0
M  V30 936 O 95.4854 2.156 0.185927 0
M  V30 937 C 96.0804 1.42411 -3.07416 0
M  V30 938 C 94.6394 1.93786 -3.22683 0
M  V30 939 C 93.7864 0.800438 -2.65496 0
M  V30 940 H 96.7374 -0.00980633 -1.58697 0
M  V30 941 H 96.7584 2.29309 -3.0364 0
M  V30 942 H 96.2704 0.64826 -3.82648 0
M  V30 943 H 94.3714 2.74152 -2.52332 0
M  V30 944 H 94.4844 2.1133 -4.29973 0
M  V30 945 H 92.8484 1.2095 -2.2415 0
M  V30 946 H 93.6314 0.0371471 -3.4328 0
M  V30 947 N 96.0765 1.50051 0.48192 0
M  V30 948 C 97.3045 1.64237 1.25832 0
M  V30 949 C 97.7195 0.321336 1.86045 0
M  V30 950 O 97.0765 -0.695478 1.68729 0
M  V30 951 C 97.1275 2.72548 2.37487 0
M  V30 952 O 96.8485 3.99529 1.79745 0
M  V30 953 C 98.3495 2.9761 3.28547 0
M  V30 954 H 95.5695 0.55237 0.380957 0
M  V30 955 H 98.1135 1.96207 0.576467 0
M  V30 956 H 96.2685 2.43303 3.01467 0
M  V30 957 H 96.6825 4.59342 2.5319 0
M  V30 958 H 98.1565 3.77084 4.03127 0
M  V30 959 H 98.6335 2.0826 3.86684 0
M  V30 960 H 99.2395 3.28345 2.70314 0
M  V30 961 N 97.5546 -0.734337 1.39446 0
M  V30 962 C 98.4646 -1.87879 1.40495 0
M  V30 963 C 99.4806 -1.714 0.299672 0
M  V30 964 O 100.657 -1.93991 0.541249 0
M  V30 965 C 97.7216 -3.23477 1.24754 0
M  V30 966 C 96.7826 -3.52344 2.45259 0
M  V30 967 C 96.0156 -4.81473 2.30259 0
M  V30 968 O 96.2386 -5.55237 1.30643 0
M  V30 969 O 95.1726 -5.10254 3.19256 0
M  V30 970 H 98.9986 -1.89949 2.36966 0
M  V30 971 H 96.5836 -0.882243 1.20569 0
M  V30 972 H 98.4656 -4.04509 1.18111 0
M  V30 973 H 97.1406 -3.22176 0.313781 0
M  V30 974 H 96.0476 -2.71396 2.57478 0
M  V30 975 H 97.3806 -3.58426 3.37331 0
M  V30 976 N 99.0327 -1.24633 -0.964593 0
M  V30 977 C 100.444 -1.08045 -1.5226 0
M  V30 978 C 100.795 0.347116 -1.93105 0
M  V30 979 O 99.9197 1.23588 -1.77637 0
M  V30 980 C 100.515 -1.95514 -2.76695 0
M  V30 981 C 99.0737 -1.8314 -3.28841 0
M  V30 982 C 98.2207 -1.90262 -2.01732 0
M  V30 983 H 101.172 -1.38064 -0.782553 0
M  V30 984 H 101.193 -1.48925 -3.50145 0
M  V30 985 H 100.705 -2.99407 -2.46936 0
M  V30 986 H 98.8057 -0.82092 -3.63444 0
M  V30 987 H 98.9187 -2.67406 -3.97531 0
M  V30 988 H 97.2827 -1.34027 -2.16584 0
M  V30 989 H 98.0657 -2.9574 -1.74334 0
M  V30 990 N 100.511 1.16574 -1.06058 0
M  V30 991 C 101.736 1.91493 -0.796562 0
M  V30 992 C 102.161 1.76773 0.642868 0
M  V30 993 O 101.519 1.09142 1.44768 0
M  V30 994 C 101.567 3.40293 -1.19303 0
M  V30 995 O 100.671 4.11074 -0.330394 0
M  V30 996 H 100.012 0.596678 -0.291326 0
M  V30 997 H 102.542 1.47708 -1.41575 0
M  V30 998 H 102.552 3.91057 -1.16356 0
M  V30 999 H 101.227 3.50326 -2.24153 0
M  V30 1000 H 99.8038 3.70513 -0.421225 0
M  V30 1001 N 101.989 0.842826 1.3317 0
M  V30 1002 C 103.235 0.441099 1.97945 0
M  V30 1003 C 103.568 -0.998024 1.66593 0
M  V30 1004 O 102.843 -1.69839 0.947898 0
M  V30 1005 C 103.126 0.666841 3.53872 0
M  V30 1006 C 102.979 2.15352 3.94897 0
M  V30 1007 C 104.298 0.115544 4.39948 0
M  V30 1008 H 101.417 0.161739 0.719034 0
M  V30 1009 H 104.059 1.05907 1.57746 0
M  V30 1010 H 102.209 0.140828 3.88245 0
M  V30 1011 H 103.881 2.7447 3.70761 0
M  V30 1012 H 102.124 2.63653 3.44484 0
M  V30 1013 H 102.795 2.26221 5.03516 0
M  V30 1014 H 105.271 0.565213 4.12243 0
M  V30 1015 H 104.147 0.303152 5.48062 0
M  V30 1016 H 104.408 -0.980935 4.3108 0
M  V30 1017 N 103.467 -1.45747 0.599634 0
M  V30 1018 C 104.692 -2.07178 0.0960198 0
M  V30 1019 C 105.117 -1.44268 -1.207 0
M  V30 1020 O 104.475 -0.532503 -1.73303 0
M  V30 1021 C 104.523 -3.60579 -0.0385348 0
M  V30 1022 O 103.627 -3.97713 -1.0908 0
M  V30 1023 H 102.968 -0.660251 0.0704593 0
M  V30 1024 H 105.498 -1.87124 0.827385 0
M  V30 1025 H 105.508 -4.07298 -0.239304 0
M  V30 1026 H 104.183 -4.05756 0.912947 0
M  V30 1027 H 102.76 -3.62678 -0.867135 0
M  V30 1028 N 104.945 -0.338344 -1.53925 0
M  V30 1029 C 106.193 0.259245 -2.0043 0
M  V30 1030 C 106.514 1.51484 -1.22791 0
M  V30 1031 O 105.784 1.93037 -0.33368 0
M  V30 1032 H 104.364 0.0987845 -0.740439 0
M  V30 1033 H 107.026 -0.458302 -1.89435 0
M  V30 1034 H 106.122 0.505334 -3.07982 0
M  V30 1035 N 106.423 1.57458 -0.0668435 0
M  V30 1036 C 107.355 2.09413 0.931601 0
M  V30 1037 C 108.368 1.02522 1.26464 0
M  V30 1038 O 109.557 1.30049 1.22269 0
M  V30 1039 C 106.657 2.53537 2.24882 0
M  V30 1040 C 105.83 3.83944 2.09537 0
M  V30 1041 C 104.889 4.14214 3.2452 0
M  V30 1042 O 103.915 4.83891 2.9973 0
M  V30 1043 N 105.117 3.67367 4.49469 0
M  V30 1044 H 107.882 2.95699 0.488048 0
M  V30 1045 H 105.443 1.61462 0.119009 0
M  V30 1046 H 107.435 2.70853 3.00701 0
M  V30 1047 H 106.005 1.72415 2.60753 0
M  V30 1048 H 105.225 3.76057 1.18215 0
M  V30 1049 H 106.513 4.69312 1.96529 0
M  V30 1050 H 105.911 3.11068 4.72497 0
M  V30 1051 H 104.468 3.89891 5.2233 0
M  V30 1052 N 107.901 -0.206675 1.56239 0
M  V30 1053 C 109.147 -0.930218 1.80208 0
M  V30 1054 C 109.48 -1.83387 0.638981 0
M  V30 1055 O 108.755 -1.91119 -0.361066 0
M  V30 1056 C 109.038 -1.75641 3.1436 0
M  V30 1057 C 108.891 -0.878257 4.41142 0
M  V30 1058 C 110.21 -2.73129 3.45092 0
M  V30 1059 H 107.329 -0.336742 0.655571 0
M  V30 1060 H 109.971 -0.198222 1.88963 0
M  V30 1061 H 108.121 -2.38048 3.07027 0
M  V30 1062 H 109.793 -0.269787 4.6051 0
M  V30 1063 H 108.036 -0.184385 4.33408 0
M  V30 1064 H 108.707 -1.49106 5.3148 0
M  V30 1065 H 111.183 -2.20856 3.52649 0
M  V30 1066 H 110.059 -3.28028 4.40101 0
M  V30 1067 H 110.32 -3.51606 2.68003 0
M  V30 1068 N 109.379 -1.50304 -0.473955 0
M  V30 1069 C 110.311 -1.65109 -1.58971 0
M  V30 1070 C 111.324 -0.532676 -1.53839 0
M  V30 1071 O 112.513 -0.805751 -1.59279 0
M  V30 1072 C 109.613 -1.61684 -2.97845 0
M  V30 1073 C 108.786 -2.8951 -3.27876 0
M  V30 1074 C 107.845 -2.78768 -4.4629 0
M  V30 1075 O 106.871 -3.52722 -4.46739 0
M  V30 1076 N 108.073 -1.9213 -5.47783 0
M  V30 1077 H 110.838 -2.61347 -1.46689 0
M  V30 1078 H 108.399 -1.47732 -0.662324 0
M  V30 1079 H 110.391 -1.52114 -3.75024 0
M  V30 1080 H 108.961 -0.731925 -3.03911 0
M  V30 1081 H 108.181 -3.13228 -2.39336 0
M  V30 1082 H 109.469 -3.74199 -3.4475 0
M  V30 1083 H 108.867 -1.31353 -5.50239 0
M  V30 1084 H 107.424 -1.88466 -6.23958 0
M  V30 1085 N 110.857 0.726932 -1.39834 0
M  V30 1086 C 111.787 1.85405 -1.41941 0
M  V30 1087 C 112.768 1.67751 -0.281728 0
M  V30 1088 O 113.953 1.8795 -0.488717 0
M  V30 1089 C 111.083 3.23243 -1.2701 0
M  V30 1090 C 110.037 3.55549 -2.38262 0
M  V30 1091 C 109.363 4.9241 -2.08415 0
M  V30 1092 C 110.663 3.577 -3.80589 0
M  V30 1093 H 112.357 1.83899 -2.36266 0
M  V30 1094 H 109.903 0.883349 -1.13723 0
M  V30 1095 H 111.856 4.01775 -1.27103 0
M  V30 1096 H 110.58 3.25296 -0.291564 0
M  V30 1097 H 109.239 2.79351 -2.37399 0
M  V30 1098 H 108.887 4.91052 -1.0898 0
M  V30 1099 H 108.587 5.14992 -2.82943 0
M  V30 1100 H 110.111 5.73289 -2.10171 0
M  V30 1101 H 111.525 4.26293 -3.83337 0
M  V30 1102 H 109.922 3.91804 -4.54543 0
M  V30 1103 H 110.992 2.57328 -4.10987 0
M  V30 1104 N 112.336 1.25143 0.95797 0
M  V30 1105 C 113.582 1.09855 1.70469 0
M  V30 1106 C 113.915 -0.360187 1.90831 0
M  V30 1107 O 113.19 -1.26568 1.47685 0
M  V30 1108 C 113.473 1.8497 3.08963 0
M  V30 1109 C 113.326 3.38652 2.96032 0
M  V30 1110 C 114.645 1.63016 4.08795 0
M  V30 1111 H 111.764 0.400465 0.618706 0
M  V30 1112 H 114.406 1.53933 1.11376 0
M  V30 1113 H 112.556 1.47505 3.59409 0
M  V30 1114 H 114.228 3.85772 2.52938 0
M  V30 1115 H 112.471 3.66534 2.32025 0
M  V30 1116 H 113.142 3.8642 3.94187 0
M  V30 1117 H 115.618 1.95625 3.67247 0
M  V30 1118 H 114.494 2.18015 5.03747 0
M  V30 1119 H 114.755 0.570692 4.38401 0
M  V30 1120 N 113.814 -1.1601 1.06675 0
M  V30 1121 C 114.762 -2.22586 0.675157 0
M  V30 1122 C 115.756 -1.66525 -0.310766 0
M  V30 1123 O 116.962 -1.79145 -0.175215 0
M  V30 1124 H 113.337 -0.724855 0.200223 0
M  V30 1125 H 115.308 -2.52899 1.58381 0
M  V30 1126 C 114.057 -3.47604 0.0817162 0
M  V30 1127 H 113.38 -3.91058 0.831484 0
M  V30 1128 H 114.82 -4.23718 -0.154708 0
M  V30 1129 C 113.279 -3.15718 -1.17576 0
M  V30 1130 O 113.809 -3.31878 -2.26318 0
M  V30 1131 N 112.015 -2.69816 -1.07923 0
M  V30 1132 H 111.562 -2.56866 -0.194293 0
M  V30 1133 H 111.52 -2.48855 -1.92141 0
M  V30 1134 N 115.292 -0.849877 -1.32721 0
M  V30 1135 C 116.24 -0.279745 -2.30912 0
M  V30 1136 C 117.234 0.594278 -1.58634 0
M  V30 1137 O 118.44 0.482613 -1.73409 0
M  V30 1138 H 114.815 -0.0717521 -0.748569 0
M  V30 1139 H 116.786 -1.12222 -2.76494 0
M  V30 1140 C 115.535 0.521108 -3.43773 0
M  V30 1141 H 114.858 -0.142141 -3.99547 0
M  V30 1142 H 116.298 0.885693 -4.14646 0
M  V30 1143 C 114.757 1.70442 -2.90605 0
M  V30 1144 O 115.287 2.8034 -2.87702 0
M  V30 1145 N 113.493 1.52991 -2.47067 0
M  V30 1146 H 113.04 0.635914 -2.49628 0
M  V30 1147 H 112.998 2.32311 -2.11847 0
M  V30 1148 N 116.77 1.45427 -0.607355 0
M  V30 1149 C 118.017 2.02241 -0.102455 0
M  V30 1150 C 118.345 1.4758 1.26691 0
M  V30 1151 O 117.6 0.640468 1.84923 0
M  V30 1152 C 117.899 3.57398 -0.0129263 0
M  V30 1153 C 117.565 4.3121 -1.31792 0
M  V30 1154 C 116.227 4.51092 -1.67539 0
M  V30 1155 C 118.579 4.73401 -2.18039 0
M  V30 1156 C 115.907 5.10422 -2.89285 0
M  V30 1157 C 118.259 5.34078 -3.39034 0
M  V30 1158 C 116.923 5.52184 -3.75033 0
M  V30 1159 H 116.193 0.740051 -0.037491 0
M  V30 1160 H 118.84 1.74494 -0.788926 0
M  V30 1161 H 117.145 3.84421 0.756806 0
M  V30 1162 H 118.842 3.99061 0.393881 0
M  V30 1163 H 115.432 4.16047 -1.02968 0
M  V30 1164 H 119.616 4.57774 -1.91721 0
M  V30 1165 H 114.872 5.22629 -3.17283 0
M  V30 1166 H 119.046 5.65724 -4.06115 0
M  V30 1167 H 116.673 5.97925 -4.69457 0
M  V30 1168 N 118.248 0.346503 1.53744 0
M  V30 1169 C 119.494 -0.249473 2.0126 0
M  V30 1170 C 119.827 -1.49965 1.23386 0
M  V30 1171 O 119.102 -1.91811 0.32229 0
M  V30 1172 C 119.385 -0.560643 3.55709 0
M  V30 1173 C 119.238 0.701836 4.44291 0
M  V30 1174 C 120.557 -1.36905 4.18264 0
M  V30 1175 H 117.676 -0.0891987 0.731582 0
M  V30 1176 H 120.318 0.467624 1.84156 0
M  V30 1177 H 118.468 -1.17156 3.70414 0
M  V30 1178 H 120.14 1.33974 4.41417 0
M  V30 1179 H 118.383 1.32612 4.13033 0
M  V30 1180 H 119.054 0.43933 5.50249 0
M  V30 1181 H 121.53 -0.852448 4.07275 0
M  V30 1182 H 120.406 -1.55553 5.26398 0
M  V30 1183 H 120.667 -2.37203 3.73078 0
M  V30 1184 N 119.726 -1.57421 0.075193 0
M  V30 1185 C 120.674 -2.14124 -0.908508 0
M  V30 1186 C 121.668 -1.07898 -1.30592 0
M  V30 1187 O 122.874 -1.26273 -1.28277 0
M  V30 1188 H 119.249 -0.684707 -0.310935 0
M  V30 1189 H 121.22 -2.95634 -0.405374 0
M  V30 1190 C 119.969 -2.72044 -2.16535 0
M  V30 1191 H 119.292 -3.53456 -1.86839 0
M  V30 1192 H 120.732 -3.15311 -2.83469 0
M  V30 1193 C 119.191 -1.66968 -2.92615 0
M  V30 1194 O 119.721 -1.0967 -3.86439 0
M  V30 1195 N 117.927 -1.37923 -2.55784 0
M  V30 1196 H 117.474 -1.84706 -1.79559 0
M  V30 1197 H 117.432 -0.67852 -3.06991 0
M  V30 1198 N 121.204 0.198386 -1.56346 0
M  V30 1199 C 122.136 1.26987 -1.90806 0
M  V30 1200 C 123.149 1.41877 -0.798419 0
M  V30 1201 O 124.338 1.42362 -1.07682 0
M  V30 1202 C 121.438 2.64246 -2.12196 0
M  V30 1203 C 120.611 2.71007 -3.43328 0
M  V30 1204 C 119.67 3.89439 -3.5387 0
M  V30 1205 O 118.696 3.76695 -4.26719 0
M  V30 1206 N 119.898 5.04752 -2.86715 0
M  V30 1207 H 122.663 0.977433 -2.83313 0
M  V30 1208 H 120.224 0.388322 -1.57174 0
M  V30 1209 H 122.216 3.41896 -2.1654 0
M  V30 1210 H 120.786 2.85992 -1.26204 0
M  V30 1211 H 120.006 1.79657 -3.50881 0
M  V30 1212 H 121.294 2.72512 -4.29668 0
M  V30 1213 H 120.692 5.18004 -2.2735 0
M  V30 1214 H 119.249 5.8036 -2.96691 0
M  V30 1215 N 122.682 1.50554 0.465978 0
M  V30 1216 C 123.93 1.61479 1.21528 0
M  V30 1217 C 124.251 0.319596 1.92363 0
M  V30 1218 O 123.521 -0.663194 1.84333 0
M  V30 1219 H 122.101 0.595055 0.451573 0
M  V30 1220 H 124.763 1.87355 0.53704 0
M  V30 1221 H 123.859 2.42846 1.96042 0
M  V30 1222 N 124.16 -0.719506 1.40217 0
M  V30 1223 C 125.39 -1.50646 1.41384 0
M  V30 1224 C 125.798 -1.89197 0.0107743 0
M  V30 1225 O 125.141 -1.55709 -0.974708 0
M  V30 1226 C 125.203 -2.81405 2.23722 0
M  V30 1227 C 124.867 -2.65199 3.72181 0
M  V30 1228 C 125.864 -2.32717 4.64907 0
M  V30 1229 C 123.549 -2.81586 4.1595 0
M  V30 1230 C 125.543 -2.16827 5.99387 0
M  V30 1231 C 123.23 -2.65313 5.50502 0
M  V30 1232 C 124.228 -2.32981 6.42035 0
M  V30 1233 O 123.916 -2.16827 7.74107 0
M  V30 1234 H 123.648 -0.471606 0.484318 0
M  V30 1235 H 126.202 -0.895456 1.84853 0
M  V30 1236 H 124.432 -3.44823 1.75026 0
M  V30 1237 H 126.121 -3.43102 2.16878 0
M  V30 1238 H 126.887 -2.19694 4.32388 0
M  V30 1239 H 122.766 -3.0574 3.45027 0
M  V30 1240 H 126.31 -1.91513 6.70797 0
M  V30 1241 H 122.207 -2.7792 5.82607 0
M  V30 1242 H 122.975 -2.31778 7.84998 0
M  V30 1243 N 125.638 -1.25649 -0.95132 0
M  V30 1244 C 126.915 -1.01361 -1.67288 0
M  V30 1245 C 127.295 0.459135 -2.06046 0
M  V30 1246 O 126.643 1.43723 -1.7764 0
M  V30 1247 C 126.853 -1.95256 -2.89268 0
M  V30 1248 C 128.201 -2.23289 -3.61147 0
M  V30 1249 O 129.225 -1.93041 -2.99355 0
M  V30 1250 O 128.084 -2.74741 -4.72419 0
M  V30 1251 H 125.178 -0.38464 -0.732107 0
M  V30 1252 H 127.724 -1.36817 -1.00395 0
M  V30 1253 H 126.496 -2.94685 -2.57442 0
M  V30 1254 H 126.119 -1.60218 -3.6389 0
M  V30 1255 N 127.117 1.15442 -1.07289 0
M  V30 1256 C 128.08 2.18358 -0.696591 0
M  V30 1257 C 129.08 1.58637 0.262837 0
M  V30 1258 O 130.27 1.74145 0.0438809 0
M  V30 1259 C 127.402 3.4089 -0.0266151 0
M  V30 1260 H 128.595 2.53162 -1.60776 0
M  V30 1261 H 126.148 1.29893 -0.869342 0
M  V30 1262 H 126.883 3.11653 0.896822 0
M  V30 1263 H 126.668 3.85495 -0.716657 0
M  V30 1264 H 128.158 4.17009 0.222028 0
M  V30 1265 N 128.595 0.856903 1.32268 0
M  V30 1266 C 129.844 0.457599 1.96441 0
M  V30 1267 C 130.157 -0.992426 1.68553 0
M  V30 1268 O 131.363 -1.49727 2.26482 0
M  V30 1269 C 129.819 0.767358 3.51624 0
M  V30 1270 C 129.427 2.23326 3.88367 0
M  V30 1271 C 131.171 0.435887 4.22256 0
M  V30 1272 C 129.078 2.48613 5.36606 0
M  V30 1273 H 128.008 0.167387 0.735185 0
M  V30 1274 H 130.659 1.048 1.5063 0
M  V30 1275 H 129.041 0.106367 3.95857 0
M  V30 1276 H 130.215 2.93623 3.55137 0
M  V30 1277 H 128.53 2.52948 3.30766 0
M  V30 1278 H 131.127 0.602202 5.31298 0
M  V30 1279 H 131.47 -0.622672 4.11617 0
M  V30 1280 H 132.003 1.05286 3.83614 0
M  V30 1281 H 128.742 3.53101 5.52268 0
M  V30 1282 H 128.262 1.82896 5.71235 0
M  V30 1283 H 129.941 2.32676 6.03714 0
M  V30 1284 N 130.073 -1.45103 0.615059 0
M  V30 1285 C 131.322 -2.01396 0.110718 0
M  V30 1286 C 131.635 -1.48834 -1.26916 0
M  V30 1287 O 132.841 -1.97152 -1.86664 0
M  V30 1288 C 131.297 -3.59599 0.14723 0
M  V30 1289 C 130.905 -4.21158 1.52743 0
M  V30 1290 C 132.649 -4.23428 -0.30148 0
M  V30 1291 C 130.556 -5.71535 1.51992 0
M  V30 1292 H 129.486 -0.753061 0.0376241 0
M  V30 1293 H 132.137 -1.66494 0.77149 0
M  V30 1294 H 130.519 -3.91724 -0.580339 0
M  V30 1295 H 131.693 -4.00594 2.2773 0
M  V30 1296 H 130.008 -3.69552 1.91886 0
M  V30 1297 H 132.605 -5.33703 -0.326392 0
M  V30 1298 H 132.948 -3.94629 -1.32565 0
M  V30 1299 H 133.481 -3.96047 0.373065 0
M  V30 1300 H 130.22 -6.05044 2.52193 0
M  V30 1301 H 129.74 -5.94268 0.81274 0
M  V30 1302 H 131.419 -6.34873 1.24681 0
M  V30 1303 N 131.551 -0.354651 -1.53558 0
M  V30 1304 C 132.797 0.238797 -2.01389 0
M  V30 1305 C 133.13 1.49309 -1.2418 0
M  V30 1306 O 132.405 1.91638 -0.332457 0
M  V30 1307 C 132.688 0.541771 -3.56001 0
M  V30 1308 C 132.541 -0.725388 -4.43912 0
M  V30 1309 C 133.86 1.34685 -4.18984 0
M  V30 1310 H 130.979 0.0853177 -0.732045 0
M  V30 1311 H 133.621 -0.477384 -1.83905 0
M  V30 1312 H 131.771 1.15189 -3.71031 0
M  V30 1313 H 133.443 -1.36313 -4.407 0
M  V30 1314 H 131.686 -1.34801 -4.12324 0
M  V30 1315 H 132.357 -0.468505 -5.50008 0
M  V30 1316 H 134.833 0.830837 -4.07721 0
M  V30 1317 H 133.709 1.52759 -5.27215 0
M  V30 1318 H 133.97 2.35221 -3.74331 0
M  V30 1319 N 133.029 1.57378 -0.0835403 0
M  V30 1320 C 134.254 1.98682 0.594987 0
M  V30 1321 C 134.679 0.961969 1.61641 0
M  V30 1322 O 134.037 -0.0709989 1.81161 0
M  V30 1323 C 134.085 3.38988 1.2296 0
M  V30 1324 O 133.189 3.39208 2.34546 0
M  V30 1325 H 132.53 0.646368 0.152002 0
M  V30 1326 H 135.06 2.03961 -0.161533 0
M  V30 1327 H 135.07 3.76431 1.57366 0
M  V30 1328 H 133.745 4.13107 0.481228 0
M  V30 1329 H 132.322 3.13548 2.01846 0
M  V30 1330 N 134.507 -0.190092 1.56449 0
M  V30 1331 C 135.47 -1.21925 1.9408 0
M  V30 1332 C 136.47 -1.38176 0.822431 0
M  V30 1333 O 137.66 -1.35903 1.08977 0
M  V30 1334 C 134.792 -2.58773 2.21922 0
M  V30 1335 H 135.985 -0.897464 2.86157 0
M  V30 1336 H 133.538 -0.43181 1.50217 0
M  V30 1337 H 134.273 -2.95998 1.32499 0
M  V30 1338 H 134.058 -2.48348 3.03424 0
M  V30 1339 H 135.548 -3.32978 2.52022 0
M  V30 1340 N 135.985 -1.50799 -0.457987 0
M  V30 1341 C 137.231 -1.62683 -1.21088 0
M  V30 1342 C 137.564 -0.332268 -1.91336 0
M  V30 1343 O 136.839 0.667043 -1.82704 0
M  V30 1344 C 137.122 -2.81615 -2.24422 0
M  V30 1345 C 136.975 -4.20989 -1.58392 0
M  V30 1346 C 138.294 -2.96085 -3.2561 0
M  V30 1347 H 135.413 -0.592087 -0.438864 0
M  V30 1348 H 138.055 -1.83225 -0.50286 0
M  V30 1349 H 136.205 -2.64231 -2.84806 0
M  V30 1350 H 137.877 -4.49994 -1.01504 0
M  V30 1351 H 136.12 -4.24641 -0.886704 0
M  V30 1352 H 136.791 -5.0016 -2.33547 0
M  V30 1353 H 139.267 -3.12042 -2.75262 0
M  V30 1354 H 138.143 -3.80902 -3.95228 0
M  V30 1355 H 138.404 -2.0726 -3.90507 0
M  V30 1356 N 137.463 0.71206 -1.40597 0
M  V30 1357 C 138.688 1.50617 -1.42581 0
M  V30 1358 C 139.113 1.88079 -0.0282102 0
M  V30 1359 O 138.471 1.53511 0.964579 0
M  V30 1360 C 138.519 2.7557 -2.3258 0
M  V30 1361 O 137.623 3.72414 -1.77148 0
M  V30 1362 H 136.964 0.453966 -0.484573 0
M  V30 1363 H 139.494 0.876649 -1.84868 0
M  V30 1364 H 139.504 3.2406 -2.47889 0
M  V30 1365 H 138.179 2.47639 -3.34138 0
M  V30 1366 H 136.756 3.31276 -1.71204 0
M  V30 1367 N 138.941 1.26152 0.944643 0
M  V30 1368 C 140.352 1.10454 1.50522 0
M  V30 1369 C 140.703 -0.31635 1.93633 0
M  V30 1370 O 139.828 -1.20746 1.79581 0
M  V30 1371 C 140.423 1.99891 2.73549 0
M  V30 1372 C 138.982 1.88348 3.25886 0
M  V30 1373 C 138.129 1.93447 1.9868 0
M  V30 1374 H 141.08 1.39292 0.760489 0
M  V30 1375 H 141.101 1.54477 3.47732 0
M  V30 1376 H 140.613 3.03297 2.42141 0
M  V30 1377 H 138.714 0.878636 3.62092 0
M  V30 1378 H 138.827 2.73696 3.93227 0
M  V30 1379 H 137.191 1.37456 2.14425 0
M  V30 1380 H 137.974 2.98476 1.69607 0
M  V30 1381 N 140.419 -1.14872 1.07899 0
M  V30 1382 C 141.696 -1.81928 0.71845 0
M  V30 1383 C 142.076 -1.95417 -0.798455 0
M  V30 1384 O 141.424 -1.50997 -1.715 0
M  V30 1385 C 141.634 -3.17937 1.43935 0
M  V30 1386 C 142.982 -3.93501 1.59506 0
M  V30 1387 O 144.006 -3.27509 1.40058 0
M  V30 1388 O 142.865 -5.1183 1.91551 0
M  V30 1389 H 139.959 -0.78628 0.256305 0
M  V30 1390 H 142.505 -1.21934 1.18026 0
M  V30 1391 H 141.277 -3.0325 2.47295 0
M  V30 1392 H 140.9 -3.85619 0.968687 0
M  V30 1393 N 141.898 -0.863906 -1.31812 0
M  V30 1394 C 143.146 -0.470904 -1.96537 0
M  V30 1395 C 143.467 0.978771 -1.68657 0
M  V30 1396 O 142.737 1.6853 -0.998717 0
M  V30 1397 H 141.317 -0.171148 -0.72713 0
M  V30 1398 H 143.979 -1.10236 -1.60729 0
M  V30 1399 H 143.075 -0.623616 -3.05806 0
M  V30 1400 N 143.376 1.44774 -0.622745 0
M  V30 1401 C 144.306 2.33382 0.0741861 0
M  V30 1402 C 145.287 1.47719 0.843387 0
M  V30 1403 O 146.472 1.76458 0.810934 0
M  V30 1404 C 143.602 3.30663 1.06204 0
M  V30 1405 C 142.556 4.26079 0.405037 0
M  V30 1406 C 141.882 5.13165 1.5022 0
M  V30 1407 C 143.182 5.1781 -0.683414 0
M  V30 1408 H 144.876 2.91905 -0.665713 0
M  V30 1409 H 142.422 1.40363 -0.321587 0
M  V30 1410 H 144.375 3.9153 1.55827 0
M  V30 1411 H 143.099 2.70331 1.83272 0
M  V30 1412 H 141.758 3.66532 -0.0704683 0
M  V30 1413 H 141.406 4.49191 2.26355 0
M  V30 1414 H 141.106 5.77812 1.06803 0
M  V30 1415 H 142.63 5.76902 2.00041 0
M  V30 1416 H 144.044 5.72661 -0.270631 0
M  V30 1417 H 142.441 5.91015 -1.04023 0
M  V30 1418 H 143.511 4.59326 -1.55395 0
M  V30 1419 N 144.854 0.36279 1.53368 0
M  V30 1420 C 146.094 -0.227882 2.03126 0
M  V30 1421 C 146.458 -1.4622 1.24434 0
M  V30 1422 O 147.659 -2.12831 1.64184 0
M  V30 1423 C 145.93 -0.515427 3.53664 0
M  V30 1424 S 147.489 -1.08017 4.25297 0
M  V30 1425 H 144.307 -0.0665377 0.70788 0
M  V30 1426 H 146.909 0.50501 1.88865 0
M  V30 1427 H 145.613 0.390436 4.08539 0
M  V30 1428 H 145.144 -1.27747 3.72081 0
M  V30 1429 H 147.159 -2.36462 4.36234 0
M  V30 1430 N 146.332 -1.57332 0.0918853 0
M  V30 1431 C 147.743 -1.81496 -0.437739 0
M  V30 1432 C 148.094 -1.00727 -1.6837 0
M  V30 1433 O 147.219 -0.235694 -2.15113 0
M  V30 1434 C 147.814 -3.29197 -0.800939 0
M  V30 1435 C 146.373 -3.54136 -1.27532 0
M  V30 1436 C 145.52 -2.75979 -0.270392 0
M  V30 1437 H 148.471 -1.55494 0.317366 0
M  V30 1438 H 148.492 -3.42344 -1.66074 0
M  V30 1439 H 148.004 -3.87955 0.106078 0
M  V30 1440 H 146.105 -3.00705 -2.20016 0
M  V30 1441 H 146.218 -4.62792 -1.23938 0
M  V30 1442 H 144.582 -2.43349 -0.751872 0
M  V30 1443 H 145.365 -3.37484 0.629248 0
M  V30 1444 N 147.81 0.181792 -1.56548 0
M  V30 1445 C 148.773 1.20894 -1.94724 0
M  V30 1446 C 149.773 1.37738 -0.829747 0
M  V30 1447 O 150.963 1.35323 -1.09697 0
M  V30 1448 C 148.095 2.57593 -2.23291 0
M  V30 1449 H 149.288 0.882275 -2.86629 0
M  V30 1450 H 146.841 0.423838 -1.50444 0
M  V30 1451 H 147.576 2.95291 -1.34067 0
M  V30 1452 H 147.361 2.46735 -3.04736 0
M  V30 1453 H 148.851 3.31637 -2.53785 0
M  V30 1454 N 149.288 1.51039 0.449983 0
M  V30 1455 C 150.218 1.74379 1.55288 0
M  V30 1456 C 151.199 0.593236 1.5942 0
M  V30 1457 O 152.384 0.834625 1.7535 0
M  V30 1458 C 149.514 1.85728 2.93466 0
M  V30 1459 C 148.468 3.01078 3.04197 0
M  V30 1460 C 147.794 2.97595 4.44231 0
M  V30 1461 C 149.094 4.41254 2.7945 0
M  V30 1462 H 150.788 2.66725 1.36008 0
M  V30 1463 H 148.334 1.2835 0.652864 0
M  V30 1464 H 150.287 2.0064 3.70569 0
M  V30 1465 H 149.011 0.900207 3.13949 0
M  V30 1466 H 147.67 2.85851 2.29531 0
M  V30 1467 H 147.318 1.99691 4.61663 0
M  V30 1468 H 147.018 3.75046 4.52343 0
M  V30 1469 H 148.542 3.14583 5.23326 0
M  V30 1470 H 149.956 4.56897 3.46292 0
M  V30 1471 H 148.353 5.20315 2.98985 0
M  V30 1472 H 149.423 4.52164 1.75144 0
M  V30 1473 N 150.766 -0.704594 1.40972 0
M  V30 1474 C 151.713 -1.81862 1.42109 0
M  V30 1475 C 152.683 -1.63781 0.276593 0
M  V30 1476 O 153.868 -1.84759 0.4763 0
M  V30 1477 C 151.008 -3.19669 1.30022 0
M  V30 1478 C 150.121 -3.49246 2.54267 0
M  V30 1479 C 149.256 -4.76618 2.3454 0
M  V30 1480 C 148.295 -4.99133 3.54306 0
M  V30 1481 N 147.432 -6.17726 3.33706 0
M  V30 1482 H 152.272 -1.80226 2.37324 0
M  V30 1483 H 149.809 -0.880238 1.17857 0
M  V30 1484 H 151.767 -3.99263 1.21018 0
M  V30 1485 H 150.397 -3.20506 0.384192 0
M  V30 1486 H 149.449 -2.64125 2.73756 0
M  V30 1487 H 150.761 -3.61788 3.43381 0
M  V30 1488 H 149.915 -5.64249 2.22952 0
M  V30 1489 H 148.654 -4.66305 1.42867 0
M  V30 1490 H 147.659 -4.09953 3.66359 0
M  V30 1491 H 148.884 -5.11311 4.4692 0
M  V30 1492 H 146.83 -6.08642 2.44725 0
M  V30 1493 H 146.747 -6.30995 4.16391 0
M  V30 1494 H 148.015 -7.08115 3.25873 0
M  V30 1495 N 152.244 -1.26651 -0.937939 0
M  V30 1496 C 153.66 -1.03834 -1.21205 0
M  V30 1497 C 153.86 0.234502 -2.00131 0
M  V30 1498 O 152.916 0.942767 -2.3424 0
M  V30 1499 C 154.229 -2.27167 -1.97017 0
M  V30 1500 C 155.777 -2.32101 -2.09996 0
M  V30 1501 C 156.252 -3.55136 -2.8921 0
M  V30 1502 N 157.743 -3.55632 -2.96783 0
M  V30 1503 C 158.478 -4.475 -3.58512 0
M  V30 1504 N 157.974 -5.4966 -4.21717 0
M  V30 1505 N 159.767 -4.35145 -3.55816 0
M  V30 1506 H 151.918 -2.08398 -0.410391 0
M  V30 1507 H 154.181 -0.916031 -0.244114 0
M  V30 1508 H 153.887 -3.19765 -1.46434 0
M  V30 1509 H 153.761 -2.31672 -2.97671 0
M  V30 1510 H 156.148 -1.40015 -2.59769 0
M  V30 1511 H 156.229 -2.31605 -1.08594 0
M  V30 1512 H 155.873 -4.47553 -2.40123 0
M  V30 1513 H 155.803 -3.5288 -3.90875 0
M  V30 1514 H 158.294 -2.81743 -2.51852 0
M  V30 1515 H 158.607 -6.15943 -4.66727 0
M  V30 1516 H 156.952 -5.53514 -4.20294 0
M  V30 1517 H 160.143 -3.5455 -3.05634 0
M  V30 1518 H 160.316 -5.06934 -4.03636 0
M  V30 1519 N 153.722 1.14298 -1.08507 0
M  V30 1520 C 154.685 2.17607 -0.719711 0
M  V30 1521 C 155.685 1.58907 0.245997 0
M  V30 1522 O 156.875 1.74181 0.0254081 0
M  V30 1523 C 154.007 3.40842 -0.0627695 0
M  V30 1524 H 155.2 2.51443 -1.63452 0
M  V30 1525 H 152.753 1.28963 -0.88307 0
M  V30 1526 H 153.488 3.12587 0.863716 0
M  V30 1527 H 153.273 3.84713 -0.757504 0
M  V30 1528 H 154.763 4.17221 0.177786 0
M  V30 1529 N 155.201 0.870884 1.31352 0
M  V30 1530 C 156.134 0.271983 2.26573 0
M  V30 1531 C 157.112 -0.599385 1.51149 0
M  V30 1532 O 158.296 -0.552605 1.80218 0
M  V30 1533 C 155.423 -0.614801 3.33073 0
M  V30 1534 C 154.469 0.185342 4.26097 0
M  V30 1535 S 155.302 1.56444 5.12138 0
M  V30 1536 C 156.458 0.683807 6.22153 0
M  V30 1537 H 156.691 1.07916 2.77023 0
M  V30 1538 H 154.224 0.669459 1.39132 0
M  V30 1539 H 156.182 -1.12074 3.94905 0
M  V30 1540 H 154.843 -1.39593 2.81376 0
M  V30 1541 H 154.036 -0.490771 5.01605 0
M  V30 1542 H 153.638 0.623415 3.68768 0
M  V30 1543 H 155.93 -0.10521 6.77418 0
M  V30 1544 H 156.873 1.41004 6.93919 0
M  V30 1545 H 157.281 0.250952 5.63942 0
M  V30 1546 N 156.679 -1.44442 0.630414 0
M  V30 1547 C 157.611 -2.2892 -0.113347 0
M  V30 1548 C 158.624 -1.41243 -0.80959 0
M  V30 1549 O 159.813 -1.65402 -0.671156 0
M  V30 1550 C 156.913 -3.17594 -1.18266 0
M  V30 1551 C 156.086 -4.33682 -0.569073 0
M  V30 1552 C 155.145 -5.03397 -1.53226 0
M  V30 1553 O 154.171 -5.59438 -1.04967 0
M  V30 1554 N 155.373 -5.04783 -2.86661 0
M  V30 1555 H 158.138 -2.93392 0.611636 0
M  V30 1556 H 155.699 -1.54881 0.471523 0
M  V30 1557 H 157.691 -3.61097 -1.82732 0
M  V30 1558 H 156.261 -2.54876 -1.80988 0
M  V30 1559 H 155.481 -3.9338 0.254187 0
M  V30 1560 H 156.769 -5.08608 -0.139767 0
M  V30 1561 H 156.167 -4.60584 -3.28449 0
M  V30 1562 H 154.724 -5.52077 -3.46489 0
M  V30 1563 N 158.157 -0.370918 -1.53173 0
M  V30 1564 C 159.573 -0.0200818 -1.59587 0
M  V30 1565 C 159.773 1.46279 -1.38581 0
M  V30 1566 O 158.829 2.22506 -1.19363 0
M  V30 1567 C 160.142 -0.4808 -2.96831 0
M  V30 1568 C 161.69 -0.435477 -3.09956 0
M  V30 1569 C 162.165 -0.872092 -4.4962 0
M  V30 1570 N 163.656 -0.827364 -4.55751 0
M  V30 1571 C 164.391 -1.13683 -5.62018 0
M  V30 1572 N 163.887 -1.51584 -6.76014 0
M  V30 1573 N 165.68 -1.05927 -5.52029 0
M  V30 1574 H 157.831 -1.33652 -1.65079 0
M  V30 1575 H 160.094 -0.546634 -0.774529 0
M  V30 1576 H 159.8 -1.51577 -3.1736 0
M  V30 1577 H 159.674 0.129796 -3.76977 0
M  V30 1578 H 162.061 0.590371 -2.89134 0
M  V30 1579 H 162.142 -1.08164 -2.31806 0
M  V30 1580 H 161.786 -1.89608 -4.71181 0
M  V30 1581 H 161.716 -0.203127 -5.26208 0
M  V30 1582 H 164.207 -0.548216 -3.73902 0
M  V30 1583 H 164.52 -1.73609 -7.53047 0
M  V30 1584 H 162.865 -1.55454 -6.77391 0
M  V30 1585 H 166.056 -0.762321 -4.61851 0
M  V30 1586 H 166.229 -1.30378 -6.34749 0
M  V30 1587 N 159.635 1.57281 -0.100228 0
M  V30 1588 C 160.883 1.94153 0.561157 0
M  V30 1589 C 161.204 0.983157 1.68401 0
M  V30 1590 O 160.474 0.0361132 1.95867 0
M  V30 1591 H 159.054 0.716791 0.210283 0
M  V30 1592 H 161.716 1.94202 -0.164765 0
M  V30 1593 H 160.812 2.96709 0.968008 0
M  V30 1594 N 161.113 -0.173488 1.56642 0
M  V30 1595 C 162.359 -0.891784 1.8214 0
M  V30 1596 C 162.692 -1.8199 0.677736 0
M  V30 1597 O 161.967 -1.91842 -0.320446 0
M  V30 1598 C 162.25 -1.68933 3.18015 0
M  V30 1599 C 162.103 -0.784487 4.42906 0
M  V30 1600 C 163.422 -2.65748 3.50808 0
M  V30 1601 H 160.541 -0.322761 0.662567 0
M  V30 1602 H 163.183 -0.158095 1.89341 0
M  V30 1603 H 161.333 -2.31482 3.12007 0
M  V30 1604 H 163.005 -0.172046 4.60979 0
M  V30 1605 H 161.248 -0.0924117 4.33702 0
M  V30 1606 H 161.919 -1.37799 5.34524 0
M  V30 1607 H 164.395 -2.13327 3.57255 0
M  V30 1608 H 163.271 -3.18619 4.4696 0
M  V30 1609 H 163.532 -3.45842 2.75401 0
M  V30 1610 N 162.591 -1.51276 -0.441967 0
M  V30 1611 C 163.538 -1.72256 -1.53612 0
M  V30 1612 C 164.508 -0.564164 -1.56225 0
M  V30 1613 O 165.693 -0.798074 -1.73307 0
M  V30 1614 C 162.833 -1.84932 -2.91366 0
M  V30 1615 C 161.946 -3.12459 -2.98317 0
M  V30 1616 C 161.081 -3.15758 -4.27166 0
M  V30 1617 C 160.12 -4.37619 -4.27967 0
M  V30 1618 N 159.257 -4.38493 -5.48333 0
M  V30 1619 H 164.097 -2.65654 -1.35026 0
M  V30 1620 H 161.634 -1.31662 -0.656009 0
M  V30 1621 H 163.592 -1.90263 -3.7129 0
M  V30 1622 H 162.222 -0.949461 -3.08521 0
M  V30 1623 H 161.274 -3.1646 -2.11086 0
M  V30 1624 H 162.586 -4.02382 -2.94771 0
M  V30 1625 H 161.74 -3.19979 -5.15459 0
M  V30 1626 H 160.479 -2.23715 -4.33362 0
M  V30 1627 H 159.484 -4.33579 -3.38067 0
M  V30 1628 H 160.709 -5.30921 -4.23438 0
M  V30 1629 H 158.655 -3.49318 -5.55259 0
M  V30 1630 H 158.572 -5.22219 -5.46647 0
M  V30 1631 H 159.84 -4.469 -6.38671 0
M  V30 1632 N 164.069 0.697108 -1.41344 0
M  V30 1633 C 165.318 1.45279 -1.39918 0
M  V30 1634 C 165.631 1.95597 -0.0109624 0
M  V30 1635 O 166.837 2.71208 0.125919 0
M  V30 1636 C 165.293 2.62695 -2.46007 0
M  V30 1637 C 164.901 2.19169 -3.90729 0
M  V30 1638 C 166.645 3.40336 -2.53715 0
M  V30 1639 C 164.552 3.33535 -4.88373 0
M  V30 1640 H 163.482 0.545692 -0.520323 0
M  V30 1641 H 166.133 0.756929 -1.67161 0
M  V30 1642 H 164.515 3.34541 -2.11892 0
M  V30 1643 H 165.689 1.54623 -4.34083 0
M  V30 1644 H 164.004 1.54525 -3.86666 0
M  V30 1645 H 166.601 4.2547 -3.2385 0
M  V30 1646 H 166.944 3.85418 -1.5735 0
M  V30 1647 H 167.477 2.75546 -2.86913 0
M  V30 1648 H 164.216 2.93468 -5.86137 0
M  V30 1649 H 163.736 3.96936 -4.49668 0
M  V30 1650 H 165.415 3.99335 -5.09059 0
M  V30 1651 N 165.547 1.27147 0.931209 0
M  V30 1652 C 166.477 1.12081 2.04842 0
M  V30 1653 C 167.458 0.0232364 1.70084 0
M  V30 1654 O 168.643 0.197085 1.93197 0
M  V30 1655 C 165.773 0.76354 3.38803 0
M  V30 1656 C 164.727 1.81396 3.87659 0
M  V30 1657 C 164.053 1.31075 5.18385 0
M  V30 1658 C 165.353 3.21739 4.11438 0
M  V30 1659 H 167.047 2.05537 2.17703 0
M  V30 1660 H 164.593 0.989603 1.04608 0
M  V30 1661 H 166.546 0.644982 4.16435 0
M  V30 1662 H 165.27 -0.206727 3.25945 0
M  V30 1663 H 163.929 1.92136 3.12217 0
M  V30 1664 H 163.577 0.330037 5.01916 0
M  V30 1665 H 163.277 2.013 5.52044 0
M  V30 1666 H 164.801 1.20506 5.98591 0
M  V30 1667 H 166.215 3.14019 4.79651 0
M  V30 1668 H 164.612 3.89644 4.56397 0
M  V30 1669 H 165.682 3.67054 3.16859 0
M  V30 1670 N 167.025 -1.13721 1.09112 0
M  V30 1671 C 168.253 -1.88773 0.846899 0
M  V30 1672 C 168.668 -1.7896 -0.601572 0
M  V30 1673 O 168.025 -1.15394 -1.41388 0
M  V30 1674 C 168.076 -3.3849 1.26913 0
M  V30 1675 O 167.797 -3.48043 2.66079 0
M  V30 1676 C 169.298 -4.30518 1.05682 0
M  V30 1677 H 166.518 -0.59772 0.304914 0
M  V30 1678 H 169.062 -1.43977 1.45227 0
M  V30 1679 H 167.217 -3.80881 0.707723 0
M  V30 1680 H 167.631 -4.4109 2.83795 0
M  V30 1681 H 169.105 -5.3391 1.40156 0
M  V30 1682 H 169.582 -4.392 -0.00563416 0
M  V30 1683 H 170.188 -3.93893 1.60402 0
M  V30 1684 N 168.503 -0.877838 -1.30888 0
M  V30 1685 C 169.749 -0.502773 -1.97088 0
M  V30 1686 C 170.104 0.936274 -1.68082 0
M  V30 1687 O 169.397 1.65162 -0.971196 0
M  V30 1688 C 169.591 -0.705748 -3.50363 0
M  V30 1689 C 169.42 -2.16297 -3.94266 0
M  V30 1690 C 168.19 -2.80614 -4.20219 0
M  V30 1691 C 170.388 -3.13606 -4.07622 0
M  V30 1692 N 168.37 -4.17007 -4.50532 0
M  V30 1693 C 169.741 -4.35051 -4.41736 0
M  V30 1694 C 171.796 -3.09491 -3.90026 0
M  V30 1695 C 170.499 -5.52911 -4.60089 0
M  V30 1696 C 172.525 -4.26616 -4.09576 0
M  V30 1697 C 171.887 -5.46825 -4.44029 0
M  V30 1698 H 167.986 -0.233168 -0.746429 0
M  V30 1699 H 170.57 -1.13408 -1.58261 0
M  V30 1700 H 168.741 -0.103976 -3.88261 0
M  V30 1701 H 170.473 -0.298291 -4.03599 0
M  V30 1702 H 167.228 -2.3152 -4.13153 0
M  V30 1703 H 167.652 -4.87426 -4.69834 0
M  V30 1704 H 172.294 -2.17657 -3.62471 0
M  V30 1705 H 170.012 -6.45255 -4.86489 0
M  V30 1706 H 173.598 -4.24894 -3.97438 0
M  V30 1707 H 172.478 -6.35947 -4.58848 0
M  V30 1708 N 169.982 1.44106 -0.638065 0
M  V30 1709 C 171.259 1.95453 -0.0759321 0
M  V30 1710 C 171.639 1.57984 1.40015 0
M  V30 1711 O 170.987 0.857361 2.11806 0
M  V30 1712 C 171.197 3.47655 -0.306132 0
M  V30 1713 C 172.545 4.24114 -0.203008 0
M  V30 1714 O 173.569 3.55405 -0.237871 0
M  V30 1715 O 172.428 5.46381 -0.113827 0
M  V30 1716 H 169.522 0.826797 0.0183332 0
M  V30 1717 H 172.068 1.54122 -0.710251 0
M  V30 1718 H 170.84 3.68 -1.3301 0
M  V30 1719 H 170.463 3.95949 0.361991 0
M  V30 1720 N 171.46 0.379036 1.52974 0
M  V30 1721 C 172.685 -0.209353 2.06341 0
M  V30 1722 C 173.11 -1.40583 1.24972 0
M  V30 1723 O 172.468 -1.79246 0.272155 0
M  V30 1724 C 172.516 -0.567786 3.56102 0
M  V30 1725 O 171.62 -1.66318 3.77375 0
M  V30 1726 H 170.961 -0.0272919 0.663439 0
M  V30 1727 H 173.491 0.543536 1.97248 0
M  V30 1728 H 173.501 -0.835003 3.99364 0
M  V30 1729 H 172.176 0.307013 4.14765 0
M  V30 1730 H 170.753 -1.39048 3.46006 0
M  V30 1731 N 172.938 -1.57226 0.108567 0
M  V30 1732 C 174.215 -1.86333 -0.594939 0
M  V30 1733 C 174.595 -1.00788 -1.85486 0
M  V30 1734 O 173.943 -0.0839293 -2.28346 0
M  V30 1735 C 174.153 -3.37265 -0.897405 0
M  V30 1736 C 175.501 -4.05629 -1.25501 0
M  V30 1737 O 176.525 -3.42224 -0.987998 0
M  V30 1738 O 175.384 -5.17531 -1.75567 0
M  V30 1739 H 172.478 -0.771018 -0.2991 0
M  V30 1740 H 175.024 -1.69102 0.142283 0
M  V30 1741 H 173.796 -3.913 -0.00413806 0
M  V30 1742 H 173.419 -3.59889 -1.69014 0
M  V30 1743 N 174.416 0.165178 -1.56732 0
M  V30 1744 C 175.644 0.896218 -1.86482 0
M  V30 1745 C 176.059 1.75555 -0.694675 0
M  V30 1746 O 175.416 1.79379 0.33607 0
M  V30 1747 C 175.467 1.76792 -3.1532 0
M  V30 1748 O 175.188 0.943239 -4.27825 0
M  V30 1749 C 176.689 2.6081 -3.58459 0
M  V30 1750 H 173.909 0.260064 -0.618553 0
M  V30 1751 H 176.453 0.163428 -2.03846 0
M  V30 1752 H 174.608 2.45398 -2.99764 0
M  V30 1753 H 175.022 1.53998 -5.01383 0
M  V30 1754 H 176.496 3.17579 -4.51495 0
M  V30 1755 H 176.973 3.35977 -2.82872 0
M  V30 1756 H 177.579 1.97526 -3.76648 0
M  V30 1757 N 175.894 1.51508 0.433938 0
M  V30 1758 C 176.841 1.73068 1.52696 0
M  V30 1759 C 177.811 0.572441 1.55924 0
M  V30 1760 O 178.996 0.807253 1.72882 0
M  V30 1761 C 176.136 1.86474 2.90381 0
M  V30 1762 C 175.249 3.14037 2.96656 0
M  V30 1763 C 174.384 3.18019 4.25485 0
M  V30 1764 C 173.423 4.39882 4.2564 0
M  V30 1765 N 172.56 4.41394 5.45999 0
M  V30 1766 H 177.4 2.66366 1.33615 0
M  V30 1767 H 174.937 1.32008 0.649018 0
M  V30 1768 H 176.895 1.92229 3.70275 0
M  V30 1769 H 175.525 0.965809 3.08013 0
M  V30 1770 H 174.577 3.17575 2.09404 0
M  V30 1771 H 175.889 4.0394 2.92633 0
M  V30 1772 H 175.043 3.22708 5.13755 0
M  V30 1773 H 173.782 2.2601 4.3217 0
M  V30 1774 H 172.787 4.35366 3.35763 0
M  V30 1775 H 174.012 5.33159 4.20617 0
M  V30 1776 H 171.958 3.52258 5.53399 0
M  V30 1777 H 171.875 5.25111 5.4387 0
M  V30 1778 H 173.143 4.50281 6.36292 0
M  V30 1779 N 177.372 -0.689602 1.41712 0
M  V30 1780 C 178.783 -1.26973 1.36875 0
M  V30 1781 C 179.134 -1.96124 0.054748 0
M  V30 1782 O 178.259 -1.99141 -0.84687 0
M  V30 1783 C 178.854 -2.30912 2.47922 0
M  V30 1784 C 177.413 -2.84486 2.46464 0
M  V30 1785 C 176.56 -1.58603 2.27465 0
M  V30 1786 H 179.511 -0.48396 1.51141 0
M  V30 1787 H 179.532 -3.12331 2.17323 0
M  V30 1788 H 179.044 -1.80554 3.43543 0
M  V30 1789 H 177.145 -3.39005 1.54617 0
M  V30 1790 H 177.258 -3.34511 3.42986 0
M  V30 1791 H 175.622 -1.84632 1.75451 0
M  V30 1792 H 176.405 -1.10233 3.25121 0
M  V30 1793 N 178.85 -1.27639 -0.924453 0
M  V30 1794 C 179.76 -1.12466 -2.05885 0
M  V30 1795 C 180.776 -0.053869 -1.73917 0
M  V30 1796 O 181.952 -0.261012 -1.99702 0
M  V30 1797 C 179.017 -0.776768 -3.37886 0
M  V30 1798 C 178.078 -1.92878 -3.83532 0
M  V30 1799 C 177.311 -1.59739 -5.09234 0
M  V30 1800 O 177.534 -0.506782 -5.68144 0
M  V30 1801 O 176.468 -2.43761 -5.50331 0
M  V30 1802 H 180.294 -2.07671 -2.21599 0
M  V30 1803 H 177.879 -1.06857 -1.04413 0
M  V30 1804 H 179.761 -0.596229 -4.17161 0
M  V30 1805 H 178.436 0.145732 -3.23372 0
M  V30 1806 H 177.343 -2.1644 -3.0513 0
M  V30 1807 H 178.676 -2.8316 -4.02593 0
M  V30 1808 N 180.328 1.1314 -1.09713 0
M  V30 1809 C 181.568 1.8613 -0.844683 0
M  V30 1810 C 181.932 1.81765 0.618491 0
M  V30 1811 O 183.133 2.50024 0.98699 0
M  V30 1812 C 181.404 3.30151 -1.36877 0
M  V30 1813 S 182.963 4.206 -1.25064 0
M  V30 1814 H 179.781 0.642056 -0.305427 0
M  V30 1815 H 182.383 1.36343 -1.4011 0
M  V30 1816 H 181.087 3.30883 -2.42786 0
M  V30 1817 H 180.618 3.85 -0.808614 0
M  V30 1818 H 182.633 4.95783 -0.203486 0
M  V30 1819 N 181.806 0.884767 1.30421 0
M  V30 1820 C 183.222 0.57874 1.48737 0
M  V30 1821 C 183.422 -0.883567 1.81095 0
M  V30 1822 O 182.478 -1.6648 1.89844 0
M  V30 1823 C 183.791 1.49171 2.61091 0
M  V30 1824 C 185.339 1.49532 2.74971 0
M  V30 1825 C 185.814 2.39421 3.90438 0
M  V30 1826 N 187.305 2.37383 3.97748 0
M  V30 1827 C 188.04 3.03647 4.86401 0
M  V30 1828 N 187.536 3.79136 5.79852 0
M  V30 1829 N 189.329 2.9288 4.79768 0
M  V30 1830 H 181.48 1.83075 1.0769 0
M  V30 1831 H 183.743 0.783637 0.533495 0
M  V30 1832 H 183.449 2.53291 2.44001 0
M  V30 1833 H 183.323 1.20113 3.57565 0
M  V30 1834 H 185.71 0.46163 2.91467 0
M  V30 1835 H 185.791 1.8262 1.79119 0
M  V30 1836 H 185.435 3.42874 3.74699 0
M  V30 1837 H 185.365 2.03649 4.85628 0
M  V30 1838 H 187.856 1.82525 3.30897 0
M  V30 1839 H 188.169 4.26789 6.4426 0
M  V30 1840 H 186.514 3.83243 5.79784 0
M  V30 1841 H 189.705 2.33433 4.05742 0
M  V30 1842 H 189.878 3.448 5.4865 0
M  V30 1843 N 183.284 -1.43765 0.645699 0
M  V30 1844 C 184.509 -2.06767 0.161883 0
M  V30 1845 C 184.934 -1.48034 -1.16049 0
M  V30 1846 O 184.292 -0.587369 -1.71522 0
M  V30 1847 C 184.34 -3.60519 0.0762003 0
M  V30 1848 O 183.444 -4.00982 -0.963721 0
M  V30 1849 H 182.785 -0.657675 0.091429 0
M  V30 1850 H 185.315 -1.84397 0.886499 0
M  V30 1851 H 185.325 -4.07853 -0.109604 0
M  V30 1852 H 184 -4.02646 1.04157 0
M  V30 1853 H 182.577 -3.65253 -0.751312 0
M  V30 1854 N 184.763 -0.387143 -1.52771 0
M  V30 1855 C 185.993 0.195585 -2.05672 0
M  V30 1856 C 186.401 1.41241 -1.25887 0
M  V30 1857 O 185.744 1.81265 -0.298081 0
M  V30 1858 C 185.806 0.632327 -3.53895 0
M  V30 1859 C 185.47 -0.470739 -4.54569 0
M  V30 1860 C 186.467 -1.32746 -5.02667 0
M  V30 1861 C 184.152 -0.637151 -4.98243 0
M  V30 1862 C 186.146 -2.33574 -5.93061 0
M  V30 1863 C 183.833 -1.64877 -5.88438 0
M  V30 1864 C 184.831 -2.49649 -6.35739 0
M  V30 1865 O 184.519 -3.49082 -7.24153 0
M  V30 1866 H 184.251 0.033658 -0.675162 0
M  V30 1867 H 186.805 -0.550221 -1.97893 0
M  V30 1868 H 185.035 1.43008 -3.59285 0
M  V30 1869 H 186.724 1.14048 -3.89548 0
M  V30 1870 H 187.49 -1.21019 -4.69659 0
M  V30 1871 H 183.369 0.0129567 -4.60998 0
M  V30 1872 H 186.913 -2.99777 -6.29904 0
M  V30 1873 H 182.81 -1.76643 -6.2086 0
M  V30 1874 H 183.578 -3.45065 -7.42208 0
M  V30 1875 N 186.241 1.57166 -0.116904 0
M  V30 1876 C 187.471 1.99184 0.548586 0
M  V30 1877 C 187.879 0.995436 1.60897 0
M  V30 1878 O 187.222 -0.0201293 1.83689 0
M  V30 1879 C 187.284 3.37611 1.23526 0
M  V30 1880 C 186.948 4.55857 0.323077 0
M  V30 1881 C 187.945 5.18056 -0.437476 0
M  V30 1882 C 185.63 5.01751 0.234761 0
M  V30 1883 C 187.624 6.24536 -1.2741 0
M  V30 1884 C 185.311 6.08093 -0.605496 0
M  V30 1885 C 186.309 6.69352 -1.35856 0
M  V30 1886 O 185.997 7.7364 -2.18487 0
M  V30 1887 H 185.729 0.659148 0.149999 0
M  V30 1888 H 188.283 2.0443 -0.199428 0
M  V30 1889 H 186.513 3.29113 2.0303 0
M  V30 1890 H 188.202 3.63932 1.79745 0
M  V30 1891 H 188.968 4.83516 -0.379105 0
M  V30 1892 H 184.847 4.53817 0.810601 0
M  V30 1893 H 188.391 6.72281 -1.86237 0
M  V30 1894 H 184.288 6.42063 -0.665268 0
M  V30 1895 H 185.056 7.90727 -2.11406 0
M  V30 1896 N 187.719 -0.156864 1.56817 0
M  V30 1897 C 188.968 -0.869504 1.81996 0
M  V30 1898 C 189.281 -1.82777 0.696545 0
M  V30 1899 O 190.487 -2.58384 0.833658 0
M  V30 1900 C 188.943 -1.59679 3.22538 0
M  V30 1901 C 188.551 -0.681431 4.42787 0
M  V30 1902 C 190.295 -2.2968 3.56997 0
M  V30 1903 C 188.202 -1.40978 5.74351 0
M  V30 1904 H 187.132 -0.328438 0.678708 0
M  V30 1905 H 189.783 -0.1223 1.83092 0
M  V30 1906 H 188.165 -2.38927 3.158 0
M  V30 1907 H 189.339 0.0751166 4.60739 0
M  V30 1908 H 187.654 -0.0903431 4.16302 0
M  V30 1909 H 190.251 -2.84794 4.52544 0
M  V30 1910 H 190.594 -3.05707 2.82576 0
M  V30 1911 H 191.127 -1.57361 3.65352 0
M  V30 1912 H 187.866 -0.691561 6.51842 0
M  V30 1913 H 187.386 -2.13929 5.60352 0
M  V30 1914 H 189.065 -1.95337 6.16808 0
M  V30 1915 N 189.197 -1.51736 -0.425897 0
M  V30 1916 C 190.145 -1.74464 -1.53834 0
M  V30 1917 C 191.139 -0.611241 -1.57988 0
M  V30 1918 O 192.345 -0.792899 -1.61596 0
M  V30 1919 H 188.72 -0.551437 -0.511293 0
M  V30 1920 H 190.691 -2.67694 -1.31843 0
M  V30 1921 C 189.44 -1.8972 -2.91379 0
M  V30 1922 H 188.763 -2.76344 -2.88919 0
M  V30 1923 H 190.203 -2.09629 -3.68553 0
M  V30 1924 C 188.662 -0.65992 -3.30374 0
M  V30 1925 O 189.192 0.180083 -4.01296 0
M  V30 1926 N 187.398 -0.500677 -2.86254 0
M  V30 1927 H 186.945 -1.18532 -2.28709 0
M  V30 1928 H 186.903 0.325903 -3.12706 0
M  V30 1929 N 190.675 0.682077 -1.42076 0
M  V30 1930 C 191.607 1.80755 -1.40926 0
M  V30 1931 C 192.62 1.59833 -0.309398 0
M  V30 1932 O 193.809 1.69087 -0.572014 0
M  V30 1933 C 190.909 3.17744 -1.17865 0
M  V30 1934 C 190.082 3.65578 -2.40149 0
M  V30 1935 C 189.141 4.81277 -2.12742 0
M  V30 1936 O 188.167 4.92197 -2.85887 0
M  V30 1937 N 189.369 5.69474 -1.12602 0
M  V30 1938 H 192.134 1.82229 -2.37935 0
M  V30 1939 H 189.695 0.864903 -1.36861 0
M  V30 1940 H 191.687 3.9279 -0.9746 0
M  V30 1941 H 190.257 3.11214 -0.294068 0
M  V30 1942 H 189.477 2.81291 -2.76169 0
M  V30 1943 H 190.765 3.94278 -3.21593 0
M  V30 1944 H 190.163 5.63297 -0.520899 0
M  V30 1945 H 188.72 6.44363 -0.981842 0
M  V30 1946 N 192.153 1.28127 0.917671 0
M  V30 1947 C 193.401 1.14825 1.66312 0
M  V30 1948 C 193.722 -0.304379 1.9261 0
M  V30 1949 O 192.992 -1.21149 1.53947 0
M  V30 1950 H 191.572 0.421953 0.616413 0
M  V30 1951 H 194.234 1.608 1.10134 0
M  V30 1952 H 193.33 1.68489 2.62712 0
M  V30 1953 N 193.631 -1.12557 1.10312 0
M  V30 1954 C 194.859 -1.87864 0.866873 0
M  V30 1955 C 195.274 -1.79588 -0.582557 0
M  V30 1956 O 194.631 -1.16887 -1.40156 0
M  V30 1957 C 194.682 -3.37125 1.30496 0
M  V30 1958 O 194.403 -3.45201 2.69755 0
M  V30 1959 C 195.904 -4.29373 1.10243 0
M  V30 1960 H 193.124 -0.594452 0.311236 0
M  V30 1961 H 195.668 -1.42429 1.46745 0
M  V30 1962 H 193.823 -3.80109 0.748081 0
M  V30 1963 H 194.237 -4.38056 2.88457 0
M  V30 1964 H 195.711 -5.32394 1.45811 0
M  V30 1965 H 196.188 -4.39181 0.0409492 0
M  V30 1966 H 196.794 -3.92169 1.64571 0
M  V30 1967 N 195.109 -0.891671 -1.2995 0
M  V30 1968 C 196.52 -0.563104 -1.78006 0
M  V30 1969 C 196.871 0.920978 -1.73241 0
M  V30 1970 O 195.996 1.71987 -1.31337 0
M  V30 1971 C 196.591 -1.01539 -3.23226 0
M  V30 1972 C 195.15 -0.738124 -3.69092 0
M  V30 1973 C 194.297 -1.19461 -2.50249 0
M  V30 1974 H 197.248 -1.07522 -1.16725 0
M  V30 1975 H 197.269 -0.347217 -3.78912 0
M  V30 1976 H 196.781 -2.09555 -3.26662 0
M  V30 1977 H 194.882 0.329766 -3.71138 0
M  V30 1978 H 194.995 -1.33037 -4.60259 0
M  V30 1979 H 193.359 -0.613787 -2.47194 0
M  V30 1980 H 194.142 -2.28265 -2.56417 0
M  V30 1981 N 196.587 1.43421 -0.653314 0
M  V30 1982 C 197.534 2.30768 0.0382271 0
M  V30 1983 C 198.504 1.44755 0.814576 0
M  V30 1984 O 199.689 1.73624 0.791162 0
M  V30 1985 C 196.829 3.30336 0.998599 0
M  V30 1986 C 195.942 4.31448 0.218342 0
M  V30 1987 C 195.077 5.18098 1.17252 0
M  V30 1988 C 194.116 6.10902 0.382702 0
M  V30 1989 N 193.253 6.90176 1.28848 0
M  V30 1990 H 198.093 2.89357 -0.712511 0
M  V30 1991 H 195.63 1.42548 -0.363128 0
M  V30 1992 H 197.588 3.86572 1.56901 0
M  V30 1993 H 196.218 2.73397 1.71621 0
M  V30 1994 H 195.27 3.77506 -0.46836 0
M  V30 1995 H 196.582 4.97227 -0.395812 0
M  V30 1996 H 195.736 5.7896 1.81356 0
M  V30 1997 H 194.475 4.52444 1.82058 0
M  V30 1998 H 193.48 5.49128 -0.27169 0
M  V30 1999 H 194.705 6.78598 -0.260957 0
M  V30 2000 H 192.651 6.27171 1.92334 0
M  V30 2001 H 192.568 7.52478 0.728887 0
M  V30 2002 H 193.836 7.55543 1.91766 0
M  V30 2003 N 198.065 0.39524 1.52563 0
M  V30 2004 C 198.997 -0.472201 2.24283 0
M  V30 2005 C 200.01 -1.02178 1.26742 0
M  V30 2006 O 201.199 -0.923097 1.52778 0
M  V30 2007 C 198.299 -1.66775 2.95024 0
M  V30 2008 C 197.472 -1.2445 4.19322 0
M  V30 2009 C 196.531 -2.30539 4.7301 0
M  V30 2010 O 195.557 -1.91702 5.35947 0
M  V30 2011 N 196.759 -3.6253 4.53379 0
M  V30 2012 H 199.524 0.142282 2.99362 0
M  V30 2013 H 197.085 0.2219 1.60372 0
M  V30 2014 H 199.077 -2.37283 3.27839 0
M  V30 2015 H 197.647 -2.18845 2.23217 0
M  V30 2016 H 196.867 -0.368069 3.92478 0
M  V30 2017 H 198.155 -0.938457 5.0007 0
M  V30 2018 H 197.553 -3.96841 4.03154 0
M  V30 2019 H 196.11 -4.29055 4.90668 0
M  V30 2020 N 199.544 -1.57102 0.125237 0
M  V30 2021 C 200.474 -2.18659 -0.819174 0
M  V30 2022 C 201.455 -1.12843 -1.27281 0
M  V30 2023 O 202.64 -1.41104 -1.33429 0
M  V30 2024 C 199.77 -2.79096 -2.06695 0
M  V30 2025 C 198.724 -3.90548 -1.75088 0
M  V30 2026 C 198.05 -4.37821 -3.06948 0
M  V30 2027 C 199.35 -5.12356 -1.01435 0
M  V30 2028 H 201.044 -2.9783 -0.306202 0
M  V30 2029 H 198.59 -1.4326 -0.145839 0
M  V30 2030 H 200.543 -3.2082 -2.73226 0
M  V30 2031 H 199.267 -1.97223 -2.60328 0
M  V30 2032 H 197.926 -3.49409 -1.10944 0
M  V30 2033 H 197.574 -3.52799 -3.58527 0
M  V30 2034 H 197.274 -5.12982 -2.86571 0
M  V30 2035 H 198.798 -4.822 -3.74587 0
M  V30 2036 H 200.212 -5.5106 -1.58132 0
M  V30 2037 H 198.609 -5.9314 -0.911319 0
M  V30 2038 H 199.679 -4.849 -0.00218681 0
M  V30 2039 N 201.022 0.148545 -1.56898 0
M  V30 2040 C 202.27 0.859717 -1.82902 0
M  V30 2041 C 202.591 1.81775 -0.70588 0
M  V30 2042 O 201.861 1.93994 0.272586 0
M  V30 2043 H 200.441 0.320469 -0.674766 0
M  V30 2044 H 203.103 0.142918 -1.94375 0
M  V30 2045 H 202.199 1.4229 -2.77777 0
M  V30 2046 N 202.5 1.5196 0.417844 0
M  V30 2047 C 203.725 1.69717 1.1921 0
M  V30 2048 C 204.15 0.402148 1.83751 0
M  V30 2049 O 203.508 -0.639593 1.69643 0
M  V30 2050 C 203.556 2.82794 2.2374 0
M  V30 2051 O 202.66 2.47756 3.29683 0
M  V30 2052 H 202.001 0.565263 0.348387 0
M  V30 2053 H 204.531 1.98621 0.490985 0
M  V30 2054 H 204.541 3.07452 2.68212 0
M  V30 2055 H 203.216 3.76756 1.76146 0
M  V30 2056 H 201.793 2.33739 2.90552 0
M  V30 2057 N 203.978 -0.674533 1.42435 0
M  V30 2058 C 204.911 -1.79924 1.40366 0
M  V30 2059 C 205.889 -1.60378 0.267899 0
M  V30 2060 O 207.073 -1.82847 0.458159 0
M  V30 2061 C 204.2 -3.16927 1.19478 0
M  V30 2062 C 203.246 -3.55221 2.36051 0
M  V30 2063 S 204.079 -3.5762 3.98583 0
M  V30 2064 C 205.235 -4.97315 3.80038 0
M  V30 2065 H 205.468 -1.81405 2.35541 0
M  V30 2066 H 203.001 -0.845221 1.29211 0
M  V30 2067 H 204.959 -3.96007 1.08114 0
M  V30 2068 H 203.62 -3.13031 0.258883 0
M  V30 2069 H 202.813 -4.54804 2.17185 0
M  V30 2070 H 202.415 -2.83502 2.43932 0
M  V30 2071 H 204.707 -5.85401 3.41045 0
M  V30 2072 H 205.65 -5.21228 4.79298 0
M  V30 2073 H 206.058 -4.69845 3.12899 0
M  V30 2074 N 205.456 -1.28612 -0.910864 0
M  V30 2075 C 206.386 -1.15326 -2.03032 0
M  V30 2076 C 207.367 -0.0502924 -1.70026 0
M  V30 2077 O 208.552 -0.227797 -1.92859 0
M  V30 2078 C 205.682 -0.817343 -3.37545 0
M  V30 2079 C 204.636 -1.8754 -3.84724 0
M  V30 2080 C 203.962 -1.39305 -5.16235 0
M  V30 2081 C 205.262 -3.28244 -4.06267 0
M  V30 2082 H 206.956 -2.08975 -2.14406 0
M  V30 2083 H 204.502 -1.00612 -1.03021 0
M  V30 2084 H 206.455 -0.711151 -4.15356 0
M  V30 2085 H 205.179 0.154846 -3.26233 0
M  V30 2086 H 203.838 -1.97079 -3.09121 0
M  V30 2087 H 203.486 -0.409846 -5.01328 0
M  V30 2088 H 203.186 -2.10057 -5.48771 0
M  V30 2089 H 204.71 -1.30014 -5.96598 0
M  V30 2090 H 206.124 -3.21611 -4.74594 0
M  V30 2091 H 204.521 -3.96855 -4.5014 0
M  V30 2092 H 205.591 -3.72048 -3.10979 0
M  V30 2093 N 206.934 1.1197 -1.10907 0
M  V30 2094 C 208.18 1.8386 -0.855773 0
M  V30 2095 C 208.513 1.84134 0.617103 0
M  V30 2096 O 207.788 1.29041 1.45529 0
M  V30 2097 C 208.071 3.31305 -1.411 0
M  V30 2098 C 207.924 3.39456 -2.9511 0
M  V30 2099 C 209.243 4.2721 -1.05736 0
M  V30 2100 H 206.362 0.667545 -0.312334 0
M  V30 2101 H 209.004 1.31331 -1.37303 0
M  V30 2102 H 207.154 3.76169 -0.97105 0
M  V30 2103 H 208.826 3.03191 -3.47668 0
M  V30 2104 H 207.069 2.79849 -3.31462 0
M  V30 2105 H 207.74 4.43209 -3.29044 0
M  V30 2106 H 210.216 3.90497 -1.43706 0
M  V30 2107 H 209.092 5.28775 -1.47269 0
M  V30 2108 H 209.353 4.42088 0.0325958 0
M  V30 2109 N 208.412 0.89855 1.29475 0
M  V30 2110 C 209.322 0.379974 2.31502 0
M  V30 2111 C 210.338 -0.524695 1.659 0
M  V30 2112 O 211.514 -0.414551 1.97087 0
M  V30 2113 C 208.579 -0.385138 3.44554 0
M  V30 2114 C 207.64 0.550914 4.2575 0
M  V30 2115 C 206.873 -0.177778 5.33404 0
M  V30 2116 O 207.096 -1.40189 5.52904 0
M  V30 2117 O 206.03 0.479106 5.9999 0
M  V30 2118 H 209.856 1.22639 2.77837 0
M  V30 2119 H 207.441 0.662834 1.33891 0
M  V30 2120 H 209.323 -0.817841 4.13388 0
M  V30 2121 H 207.998 -1.20763 3.0033 0
M  V30 2122 H 206.905 1.03271 3.59564 0
M  V30 2123 H 208.238 1.33979 4.73614 0
M  V30 2124 N 209.89 -1.43072 0.660911 0
M  V30 2125 C 210.823 -2.28074 -0.0758862 0
M  V30 2126 C 211.801 -1.40271 -0.822362 0
M  V30 2127 O 212.985 -1.69713 -0.820352 0
M  V30 2128 C 210.112 -3.19843 -1.11437 0
M  V30 2129 C 209.158 -4.23957 -0.465069 0
M  V30 2130 S 209.991 -5.29978 0.767078 0
M  V30 2131 C 211.147 -6.25314 -0.270682 0
M  V30 2132 H 211.38 -2.90216 0.645139 0
M  V30 2133 H 208.913 -1.47697 0.449995 0
M  V30 2134 H 210.871 -3.73257 -1.70849 0
M  V30 2135 H 209.532 -2.56863 -1.80776 0
M  V30 2136 H 208.725 -4.88299 -1.24819 0
M  V30 2137 H 208.327 -3.73959 0.0551242 0
M  V30 2138 H 210.619 -6.67932 -1.13459 0
M  V30 2139 H 211.562 -7.07293 0.337916 0
M  V30 2140 H 211.97 -5.61195 -0.609937 0
M  V30 2141 N 211.368 -0.403325 -1.52352 0
M  V30 2142 C 212.331 0.413051 -2.25447 0
M  V30 2143 C 213.331 0.978513 -1.276 0
M  V30 2144 O 214.521 0.858305 -1.51587 0
M  V30 2145 C 211.653 1.58087 -3.02029 0
M  V30 2146 H 212.846 -0.227094 -2.99039 0
M  V30 2147 H 210.399 -0.155722 -1.55522 0
M  V30 2148 H 211.134 2.25804 -2.32772 0
M  V30 2149 H 210.919 1.18195 -3.73861 0
M  V30 2150 H 212.409 2.1585 -3.57489 0
M  V30 2151 N 212.846 1.57033 -0.133567 0
M  V30 2152 C 213.809 2.14897 0.796995 0
M  V30 2153 C 214.809 1.0874 1.18458 0
M  V30 2154 O 215.999 1.34446 1.1077 0
M  V30 2155 C 213.131 2.70112 2.07973 0
M  V30 2156 H 214.324 2.98457 0.293873 0
M  V30 2157 H 211.877 1.55871 0.115787 0
M  V30 2158 H 212.612 1.9018 2.62682 0
M  V30 2159 H 212.397 3.47764 1.81115 0
M  V30 2160 H 213.887 3.14738 2.74462 0
M  V30 2161 N 214.325 -0.140222 1.56975 0
M  V30 2162 C 215.275 -1.17827 1.95194 0
M  V30 2163 C 216.259 -1.38195 0.824075 0
M  V30 2164 O 217.451 -1.39643 1.0876 0
M  V30 2165 C 214.58 -2.51024 2.34184 0
M  V30 2166 C 213.666 -2.3422 3.53556 0
M  V30 2167 N 214.057 -1.87185 4.69889 0
M  V30 2168 C 212.355 -2.64949 3.58773 0
M  V30 2169 C 213.056 -1.83586 5.5197 0
M  V30 2170 N 212.032 -2.2715 4.93866 0
M  V30 2171 H 215.834 -0.806817 2.82609 0
M  V30 2172 H 213.348 -0.348208 1.58623 0
M  V30 2173 H 215.345 -3.26074 2.59772 0
M  V30 2174 H 214.005 -2.88945 1.48124 0
M  V30 2175 H 215.016 -1.57048 4.93514 0
M  V30 2176 H 211.693 -3.067 2.8327 0
M  V30 2177 H 213.083 -1.48655 6.55249 0
M  V30 2178 N 215.803 -1.52179 -0.40978 0
M  V30 2179 C 216.735 -1.71703 -1.51825 0
M  V30 2180 C 217.748 -0.597445 -1.51441 0
M  V30 2181 O 218.937 -0.872582 -1.55719 0
M  V30 2182 C 216.037 -1.74171 -2.90719 0
M  V30 2183 C 215.21 -3.03156 -3.15302 0
M  V30 2184 C 214.269 -2.97445 -4.34065 0
M  V30 2185 O 213.295 -3.71352 -4.31377 0
M  V30 2186 N 214.497 -2.15191 -5.39141 0
M  V30 2187 H 217.262 -2.67334 -1.35472 0
M  V30 2188 H 214.823 -1.50409 -0.599069 0
M  V30 2189 H 216.815 -1.67884 -3.68235 0
M  V30 2190 H 215.385 -0.860166 -3.00533 0
M  V30 2191 H 214.605 -3.23097 -2.25836 0
M  V30 2192 H 215.893 -3.88484 -3.28569 0
M  V30 2193 H 215.291 -1.54573 -5.44173 0
M  V30 2194 H 213.848 -2.1476 -6.15403 0
M  V30 2195 N 217.281 0.66697 -1.42791 0
M  V30 2196 C 218.527 1.4291 -1.43891 0
M  V30 2197 C 218.86 1.94114 -0.0578972 0
M  V30 2198 O 218.135 1.71414 0.91911 0
M  V30 2199 C 218.418 2.62049 -2.46987 0
M  V30 2200 C 218.271 2.16426 -3.94309 0
M  V30 2201 C 219.59 3.64266 -2.46978 0
M  V30 2202 H 216.709 0.518306 -0.523954 0
M  V30 2203 H 219.351 0.757321 -1.74255 0
M  V30 2204 H 217.501 3.19361 -2.21225 0
M  V30 2205 H 219.173 1.64221 -4.31079 0
M  V30 2206 H 217.416 1.47925 -4.078 0
M  V30 2207 H 218.087 3.02038 -4.62036 0
M  V30 2208 H 220.563 3.16686 -2.69906 0
M  V30 2209 H 219.439 4.45196 -3.21079 0
M  V30 2210 H 219.7 4.15927 -1.49857 0
M  V30 2211 N 218.759 1.29093 0.90403 0
M  V30 2212 C 220.036 1.075 1.63411 0
M  V30 2213 C 220.416 -0.382346 2.07609 0
M  V30 2214 O 219.764 -1.37031 1.82851 0
M  V30 2215 C 219.974 2.05858 2.81822 0
M  V30 2216 C 221.322 2.36539 3.52611 0
M  V30 2217 O 222.346 2.04019 2.91984 0
M  V30 2218 O 221.205 2.92085 4.61897 0
M  V30 2219 H 218.299 0.411547 0.717327 0
M  V30 2220 H 220.845 1.40449 0.952479 0
M  V30 2221 H 219.617 3.04037 2.46327 0
M  V30 2222 H 219.24 1.73613 3.57693 0
M  V30 2223 N 220.237 -1.11381 1.11499 0
M  V30 2224 C 221.184 -2.17439 0.773887 0
M  V30 2225 C 222.154 -1.64132 -0.254899 0
M  V30 2226 O 223.339 -1.90345 -0.13168 0
M  V30 2227 C 220.479 -3.44373 0.223917 0
M  V30 2228 C 219.592 -4.1168 1.30934 0
M  V30 2229 C 218.727 -5.263 0.71984 0
M  V30 2230 C 217.766 -5.85493 1.78507 0
M  V30 2231 N 216.903 -6.91507 1.21502 0
M  V30 2232 H 221.743 -2.45962 1.68246 0
M  V30 2233 H 219.28 -1.20744 0.840191 0
M  V30 2234 H 221.238 -4.17047 -0.112921 0
M  V30 2235 H 219.868 -3.16232 -0.647851 0
M  V30 2236 H 218.92 -3.37073 1.76312 0
M  V30 2237 H 220.232 -4.51729 2.11524 0
M  V30 2238 H 219.386 -6.05785 0.333094 0
M  V30 2239 H 218.125 -4.87559 -0.117377 0
M  V30 2240 H 217.13 -5.04686 2.18111 0
M  V30 2241 H 218.355 -6.26301 2.62533 0
M  V30 2242 H 216.301 -6.54783 0.399455 0
M  V30 2243 H 216.218 -7.30214 1.95763 0
M  V30 2244 H 217.486 -7.74795 0.855181 0
M  V30 2245 N 221.715 -0.905404 -1.28997 0
M  V30 2246 C 222.625 -0.392246 -2.31298 0
M  V30 2247 C 223.641 0.515889 -1.66176 0
M  V30 2248 O 224.817 0.404093 -1.97304 0
M  V30 2249 C 221.882 0.36686 -3.44754 0
M  V30 2250 C 220.943 -0.573485 -4.25452 0
M  V30 2251 C 220.176 0.149488 -5.33491 0
M  V30 2252 O 220.399 1.37255 -5.5364 0
M  V30 2253 O 219.333 -0.510919 -5.99728 0
M  V30 2254 H 223.159 -1.2411 -2.77183 0
M  V30 2255 H 220.744 -0.669926 -1.33538 0
M  V30 2256 H 222.626 0.795907 -4.13816 0
M  V30 2257 H 221.301 1.19169 -3.00966 0
M  V30 2258 H 220.208 -1.05176 -3.59011 0
M  V30 2259 H 221.541 -1.36489 -4.72897 0
M  V30 2260 N 223.193 1.4272 -0.668489 0
M  V30 2261 C 224.14 2.30796 0.0137489 0
M  V30 2262 C 225.11 1.4561 0.799177 0
M  V30 2263 O 226.295 1.74453 0.772702 0
M  V30 2264 C 223.435 3.31377 0.963507 0
M  V30 2265 C 222.548 4.31655 0.172569 0
M  V30 2266 C 221.683 5.19312 1.1175 0
M  V30 2267 C 220.722 6.11274 0.317886 0
M  V30 2268 N 219.859 6.91504 1.2152 0
M  V30 2269 H 224.699 2.88585 -0.743161 0
M  V30 2270 H 222.236 1.42154 -0.378226 0
M  V30 2271 H 224.194 3.88214 1.52792 0
M  V30 2272 H 222.824 2.75202 1.68712 0
M  V30 2273 H 221.876 3.76988 -0.508374 0
M  V30 2274 H 223.188 4.96779 -0.448527 0
M  V30 2275 H 222.342 5.80851 1.75206 0
M  V30 2276 H 221.081 4.5435 1.77249 0
M  V30 2277 H 220.086 5.48809 -0.329918 0
M  V30 2278 H 221.311 6.78283 -0.332917 0
M  V30 2279 H 219.257 6.29176 1.85671 0
M  V30 2280 H 219.174 7.53209 0.649036 0
M  V30 2281 H 220.442 7.57535 1.83742 0
M  V30 2282 N 224.671 0.411399 1.52136 0
M  V30 2283 C 225.634 -0.401089 2.25663 0
M  V30 2284 C 226.634 -0.971732 1.28117 0
M  V30 2285 O 227.824 -0.850254 1.52041 0
M  V30 2286 C 224.956 -1.56483 3.02863 0
M  V30 2287 H 226.149 0.24295 2.98914 0
M  V30 2288 H 223.702 0.163968 1.55438 0
M  V30 2289 H 224.437 -2.24567 2.33967 0
M  V30 2290 H 224.222 -1.16211 3.74483 0
M  V30 2291 H 225.712 -2.13951 3.58629 0
M  V30 2292 N 226.149 -1.5696 0.141893 0
M  V30 2293 C 227.096 -2.16501 -0.799737 0
M  V30 2294 C 228.066 -1.09643 -1.24771 0
M  V30 2295 O 229.251 -1.3766 -1.32115 0
M  V30 2296 C 226.391 -2.78679 -2.03549 0
M  V30 2297 C 225.504 -3.99914 -1.6338 0
M  V30 2298 C 224.639 -4.50106 -2.82096 0
M  V30 2299 C 223.678 -5.63819 -2.38275 0
M  V30 2300 N 222.815 -6.08651 -3.49983 0
M  V30 2301 H 227.655 -2.96632 -0.285179 0
M  V30 2302 H 225.192 -1.46533 -0.129053 0
M  V30 2303 H 227.15 -3.1287 -2.75986 0
M  V30 2304 H 225.78 -2.012 -2.52425 0
M  V30 2305 H 224.832 -3.71735 -0.807279 0
M  V30 2306 H 226.144 -4.82311 -1.27192 0
M  V30 2307 H 225.298 -4.86325 -3.62729 0
M  V30 2308 H 224.037 -3.66706 -3.21525 0
M  V30 2309 H 223.042 -5.2718 -1.56081 0
M  V30 2310 H 224.267 -6.49 -1.99938 0
M  V30 2311 H 222.213 -5.28188 -3.89042 0
M  V30 2312 H 222.13 -6.85961 -3.17794 0
M  V30 2313 H 223.398 -6.49515 -4.30988 0
M  V30 2314 N 227.627 0.131896 -1.57047 0
M  V30 2315 C 228.873 0.843179 -1.84441 0
M  V30 2316 C 229.206 1.80129 -0.725749 0
M  V30 2317 O 228.481 1.92624 0.269469 0
M  V30 2318 C 228.764 1.60442 -3.22382 0
M  V30 2319 C 228.617 0.666782 -4.4483 0
M  V30 2320 C 229.936 2.56354 -3.5773 0
M  V30 2321 H 227.055 0.305081 -0.670891 0
M  V30 2322 H 229.697 0.107839 -1.89694 0
M  V30 2323 H 227.847 2.23128 -3.18035 0
M  V30 2324 H 229.519 0.0497646 -4.61273 0
M  V30 2325 H 227.762 -0.022609 -4.33794 0
M  V30 2326 H 228.433 1.23579 -5.37989 0
M  V30 2327 H 230.909 2.0378 -3.62785 0
M  V30 2328 H 229.785 3.06657 -4.5525 0
M  V30 2329 H 230.046 3.38419 -2.84473 0
M  V30 2330 N 229.106 1.52395 0.401703 0
M  V30 2331 C 230.069 1.75636 1.47257 0
M  V30 2332 C 231.069 0.62628 1.48103 0
M  V30 2333 O 232.259 0.894227 1.49497 0
M  V30 2334 C 229.391 1.84553 2.86624 0
M  V30 2335 H 230.584 2.71241 1.27938 0
M  V30 2336 H 228.137 1.42923 0.632662 0
M  V30 2337 H 228.872 0.908882 3.11303 0
M  V30 2338 H 228.657 2.66715 2.87412 0
M  V30 2339 H 230.147 2.04251 3.64241 0
M  V30 2340 N 230.584 -0.659388 1.43143 0
M  V30 2341 C 231.831 -1.41935 1.44433 0
M  V30 2342 C 232.159 -1.94387 0.0663522 0
M  V30 2343 O 231.414 -1.72314 -0.927706 0
M  V30 2344 C 231.713 -2.62206 2.42864 0
M  V30 2345 C 231.379 -2.28208 3.88886 0
M  V30 2346 C 230.041 -2.18647 4.28657 0
M  V30 2347 C 232.393 -2.00887 4.8093 0
M  V30 2348 C 229.721 -1.79914 5.58433 0
M  V30 2349 C 232.073 -1.63653 6.11065 0
M  V30 2350 C 230.737 -1.52614 6.49819 0
M  V30 2351 H 230.007 -0.519376 0.528517 0
M  V30 2352 H 232.654 -0.750453 1.76183 0
M  V30 2353 H 230.959 -3.34199 2.04495 0
M  V30 2354 H 232.656 -3.2041 2.41119 0
M  V30 2355 H 229.246 -2.36557 3.57406 0
M  V30 2356 H 233.43 -2.07198 4.5098 0
M  V30 2357 H 228.686 -1.69948 5.87305 0
M  V30 2358 H 232.86 -1.41543 6.81864 0
M  V30 2359 H 230.487 -1.22371 7.50286 0
M  V30 2360 N 232.062 -1.29571 -0.897171 0
M  V30 2361 C 233.309 -1.17689 -1.6479 0
M  V30 2362 C 233.637 0.27107 -1.92602 0
M  V30 2363 O 232.892 1.21193 -1.53658 0
M  V30 2364 C 233.191 -1.9382 -3.00281 0
M  V30 2365 C 232.857 -3.43522 -2.92068 0
M  V30 2366 C 231.519 -3.84348 -2.89535 0
M  V30 2367 C 233.871 -4.38906 -2.81089 0
M  V30 2368 C 231.199 -5.18869 -2.73846 0
M  V30 2369 C 233.551 -5.73521 -2.66939 0
M  V30 2370 C 232.215 -6.13601 -2.62774 0
M  V30 2371 H 231.485 -0.430654 -0.603008 0
M  V30 2372 H 234.132 -1.60536 -1.04404 0
M  V30 2373 H 232.437 -1.4357 -3.64547 0
M  V30 2374 H 234.134 -1.82028 -3.57305 0
M  V30 2375 H 230.724 -3.11072 -2.94842 0
M  V30 2376 H 234.908 -4.08315 -2.82121 0
M  V30 2377 H 230.164 -5.4903 -2.69027 0
M  V30 2378 H 234.338 -6.47078 -2.57416 0
M  V30 2379 H 231.965 -7.17786 -2.50375 0
M  V30 2380 N 233.54 1.10788 -1.12088 0
M  V30 2381 C 234.77 1.86191 -0.895351 0
M  V30 2382 C 235.178 1.80763 0.558702 0
M  V30 2383 O 234.521 1.19188 1.39785 0
M  V30 2384 C 234.583 3.35659 -1.28737 0
M  V30 2385 C 234.247 3.64849 -2.75198 0
M  V30 2386 C 235.244 3.61757 -3.734 0
M  V30 2387 C 232.929 3.93641 -3.12013 0
M  V30 2388 C 234.923 3.87045 -5.06434 0
M  V30 2389 C 232.61 4.18585 -4.4523 0
M  V30 2390 C 233.608 4.15277 -5.42249 0
M  V30 2391 O 233.296 4.3959 -6.73065 0
M  V30 2392 H 233.028 0.595425 -0.32007 0
M  V30 2393 H 235.582 1.40992 -1.49367 0
M  V30 2394 H 233.812 3.81497 -0.63224 0
M  V30 2395 H 235.501 3.92441 -1.03656 0
M  V30 2396 H 236.267 3.39557 -3.46303 0
M  V30 2397 H 232.146 3.95348 -2.37109 0
M  V30 2398 H 235.69 3.84378 -5.82151 0
M  V30 2399 H 231.587 4.40264 -4.72057 0
M  V30 2400 H 232.355 4.57123 -6.78956 0
M  V30 2401 N 235.018 0.912232 1.28515 0
M  V30 2402 C 236.243 0.559774 1.99703 0
M  V30 2403 C 236.668 -0.851393 1.67729 0
M  V30 2404 O 236.026 -1.56875 0.908834 0
M  V30 2405 C 236.074 0.773874 3.52198 0
M  V30 2406 O 235.178 -0.167842 4.12058 0
M  V30 2407 H 234.519 0.21723 0.627461 0
M  V30 2408 H 237.049 1.22725 1.63706 0
M  V30 2409 H 237.059 0.683386 4.02236 0
M  V30 2410 H 235.734 1.80261 3.74805 0
M  V30 2411 H 234.311 -0.0287509 3.72889 0
M  V30 2412 N 236.496 -1.42363 0.676048 0
M  V30 2413 C 237.721 -2.06377 0.205705 0
M  V30 2414 C 238.146 -1.50463 -1.12883 0
M  V30 2415 O 237.504 -0.623619 -1.70237 0
M  V30 2416 C 237.552 -3.60277 0.152655 0
M  V30 2417 O 236.656 -4.02935 -0.87845 0
M  V30 2418 H 235.997 -0.655588 0.105359 0
M  V30 2419 H 238.527 -1.82475 0.925412 0
M  V30 2420 H 238.537 -4.07993 -0.0230675 0
M  V30 2421 H 237.212 -4.00346 1.12675 0
M  V30 2422 H 235.789 -3.66764 -0.673668 0
M  V30 2423 N 237.974 -0.419461 -1.51915 0
M  V30 2424 C 239.385 0.0477853 -1.86639 0
M  V30 2425 C 239.736 1.43531 -1.33766 0
M  V30 2426 O 238.861 2.05401 -0.68113 0
M  V30 2427 C 239.456 0.0934885 -3.38671 0
M  V30 2428 C 238.015 0.505097 -3.72996 0
M  V30 2429 C 237.162 -0.313792 -2.75519 0
M  V30 2430 H 240.113 -0.636088 -1.45395 0
M  V30 2431 H 240.134 0.906667 -3.6954 0
M  V30 2432 H 239.646 -0.916501 -3.77123 0
M  V30 2433 H 237.747 1.52135 -3.40126 0
M  V30 2434 H 237.86 0.242309 -4.78487 0
M  V30 2435 H 236.224 0.225363 -2.53701 0
M  V30 2436 H 237.007 -1.32232 -3.16812 0
M  V30 2437 N 239.452 1.56882 -0.150215 0
M  V30 2438 C 240.68 2.00593 0.506948 0
M  V30 2439 C 241.095 1.03033 1.58208 0
M  V30 2440 O 240.452 0.0278396 1.82479 0
M  V30 2441 C 240.503 3.44209 1.10465 0
M  V30 2442 O 240.224 4.3804 0.0724636 0
M  V30 2443 C 241.725 4.03214 1.84211 0
M  V30 2444 H 238.945 0.65795 0.13169 0
M  V30 2445 H 241.489 2.03018 -0.245743 0
M  V30 2446 H 239.644 3.42625 1.80795 0
M  V30 2447 H 240.058 5.22007 0.510793 0
M  V30 2448 H 241.532 5.0569 2.21318 0
M  V30 2449 H 242.009 3.44107 2.72923 0
M  V30 2450 H 242.615 4.08437 1.18572 0
M  V30 2451 N 240.93 -0.123565 1.57115 0
M  V30 2452 C 242.176 -0.833386 1.84885 0
M  V30 2453 C 242.509 -1.79742 0.735292 0
M  V30 2454 O 241.784 -1.92764 -0.25925 0
M  V30 2455 C 242.067 -1.5873 3.23228 0
M  V30 2456 C 241.92 -0.643183 4.45178 0
M  V30 2457 C 243.239 -2.54453 3.59085 0
M  V30 2458 H 240.358 -0.301518 0.6725 0
M  V30 2459 H 243 -0.097778 1.89748 0
M  V30 2460 H 241.15 -2.21438 3.19214 0
M  V30 2461 H 242.822 -0.0253015 4.61293 0
M  V30 2462 H 241.065 0.0456139 4.33776 0
M  V30 2463 H 241.736 -1.20724 5.38637 0
M  V30 2464 H 244.212 -2.01853 3.63861 0
M  V30 2465 H 243.088 -3.04238 4.5687 0
M  V30 2466 H 243.349 -3.36906 2.86264 0
M  V30 2467 N 242.408 -1.52605 -0.393616 0
M  V30 2468 C 243.636 -1.71294 -1.16043 0
M  V30 2469 C 244.051 -0.429259 -1.83855 0
M  V30 2470 O 243.408 0.595921 -1.72496 0
M  V30 2471 C 243.459 -2.8593 -2.21193 0
M  V30 2472 O 243.18 -4.09329 -1.56146 0
M  V30 2473 C 244.681 -3.16259 -3.10636 0
M  V30 2474 H 241.901 -0.573641 -0.348104 0
M  V30 2475 H 244.445 -1.99234 -0.461092 0
M  V30 2476 H 242.6 -2.60465 -2.86769 0
M  V30 2477 H 243.014 -4.73323 -2.25978 0
M  V30 2478 H 244.488 -3.99946 -3.80456 0
M  V30 2479 H 244.965 -2.3045 -3.73884 0
M  V30 2480 H 245.571 -3.43547 -2.50711 0
M  V30 2481 N 243.887 0.651787 -1.4349 0
M  V30 2482 C 245.164 1.40909 -1.35661 0
M  V30 2483 C 245.544 2.11099 -0.00511733 0
M  V30 2484 O 244.892 2.04892 1.0115 0
M  V30 2485 C 245.102 2.3926 -2.54078 0
M  V30 2486 C 246.45 3.03217 -2.97228 0
M  V30 2487 O 247.474 2.49588 -2.54135 0
M  V30 2488 O 246.333 4.00455 -3.71885 0
M  V30 2489 H 243.427 0.629625 -0.536191 0
M  V30 2490 H 245.973 0.678575 -1.55542 0
M  V30 2491 H 244.745 1.86352 -3.44076 0
M  V30 2492 H 244.368 3.1976 -2.36303 0
M  V30 2493 N 245.365 1.30045 0.890287 0
M  V30 2494 C 246.297 1.11786 2.00091 0
M  V30 2495 C 247.31 0.0626307 1.62679 0
M  V30 2496 O 248.499 0.308112 1.75821 0
M  V30 2497 C 245.599 0.681527 3.31977 0
M  V30 2498 C 244.772 1.81735 3.97858 0
M  V30 2499 C 243.831 1.37045 5.08041 0
M  V30 2500 O 242.857 2.07677 5.29961 0
M  V30 2501 N 244.059 0.246525 5.79976 0
M  V30 2502 H 246.824 2.07441 2.16306 0
M  V30 2503 H 244.385 1.2211 1.06305 0
M  V30 2504 H 246.377 0.365675 4.03045 0
M  V30 2505 H 244.947 -0.182828 3.12065 0
M  V30 2506 H 244.167 2.30159 3.20032 0
M  V30 2507 H 245.455 2.57865 4.38615 0
M  V30 2508 H 244.853 -0.34215 5.64664 0
M  V30 2509 H 243.41 -0.00990438 6.51799 0
M  V30 2510 N 246.843 -1.10192 1.12674 0
M  V30 2511 C 247.791 -2.18694 0.792196 0
M  V30 2512 C 248.785 -1.67938 -0.222058 0
M  V30 2513 O 249.991 -1.79822 -0.0800074 0
M  V30 2514 H 246.366 -0.713223 0.238364 0
M  V30 2515 H 248.337 -2.44149 1.71564 0
M  V30 2516 C 247.086 -3.46682 0.265859 0
M  V30 2517 H 246.409 -3.86101 1.03761 0
M  V30 2518 H 247.849 -4.23942 0.0701128 0
M  V30 2519 C 246.308 -3.21506 -1.00675 0
M  V30 2520 O 246.838 -3.43408 -2.08408 0
M  V30 2521 N 245.044 -2.75158 -0.934692 0
M  V30 2522 H 244.591 -2.57535 -0.0578604 0
M  V30 2523 H 244.549 -2.58691 -1.7868 0
M  V30 2524 N 248.321 -0.919034 -1.28029 0
M  V30 2525 C 249.253 -0.368762 -2.26214 0
M  V30 2526 C 250.266 0.495716 -1.55069 0
M  V30 2527 O 251.455 0.30974 -1.75792 0
M  V30 2528 C 248.555 0.491049 -3.35324 0
M  V30 2529 C 247.728 -0.352133 -4.3598 0
M  V30 2530 C 246.787 0.443622 -5.24327 0
M  V30 2531 O 245.813 -0.14566 -5.69014 0
M  V30 2532 N 247.015 1.74545 -5.53637 0
M  V30 2533 H 249.78 -1.21273 -2.74068 0
M  V30 2534 H 247.341 -0.785541 -1.41566 0
M  V30 2535 H 249.333 1.03026 -3.91366 0
M  V30 2536 H 247.903 1.23574 -2.87138 0
M  V30 2537 H 247.123 -1.07269 -3.79324 0
M  V30 2538 H 248.411 -0.928883 -5.00249 0
M  V30 2539 H 247.809 2.24666 -5.19174 0
M  V30 2540 H 246.366 2.23138 -6.12416 0
M  V30 2541 N 249.799 1.42003 -0.683588 0
M  V30 2542 C 251.045 2.02223 -0.218536 0
M  V30 2543 C 251.4 1.53126 1.16492 0
M  V30 2544 O 250.693 0.727459 1.77253 0
M  V30 2545 C 250.887 3.56827 -0.202357 0
M  V30 2546 C 250.716 4.20928 -1.5827 0
M  V30 2547 C 249.486 4.5573 -2.18262 0
M  V30 2548 C 251.684 4.47933 -2.52706 0
M  V30 2549 N 249.666 5.05056 -3.48986 0
M  V30 2550 C 251.037 4.98906 -3.68094 0
M  V30 2551 C 253.092 4.29931 -2.51125 0
M  V30 2552 C 251.795 5.33768 -4.82166 0
M  V30 2553 C 253.821 4.65875 -3.643 0
M  V30 2554 C 253.183 5.17008 -4.78417 0
M  V30 2555 H 249.282 0.771931 -0.125088 0
M  V30 2556 H 251.866 1.72729 -0.898479 0
M  V30 2557 H 250.037 3.85819 0.447029 0
M  V30 2558 H 251.769 4.03755 0.276399 0
M  V30 2559 H 248.524 4.41781 -1.70665 0
M  V30 2560 H 248.948 5.34139 -4.15962 0
M  V30 2561 H 253.59 3.89647 -1.6412 0
M  V30 2562 H 251.308 5.72981 -5.6984 0
M  V30 2563 H 254.894 4.53615 -3.64314 0
M  V30 2564 H 253.774 5.44301 -5.64541 0
M  V30 2565 N 251.277 0.427512 1.51691 0
M  V30 2566 C 252.523 -0.142439 2.02299 0
M  V30 2567 C 252.856 -1.43214 1.31162 0
M  V30 2568 O 252.131 -1.89833 0.423511 0
M  V30 2569 C 252.414 -0.371301 3.58181 0
M  V30 2570 C 252.267 0.936358 4.39946 0
M  V30 2571 C 253.586 -1.14542 4.24933 0
M  V30 2572 H 250.705 -0.0502937 0.735282 0
M  V30 2573 H 253.347 0.564584 1.81418 0
M  V30 2574 H 251.497 -0.973559 3.76104 0
M  V30 2575 H 253.169 1.57184 4.33694 0
M  V30 2576 H 251.412 1.5432 4.05423 0
M  V30 2577 H 252.083 0.730388 5.47147 0
M  V30 2578 H 254.559 -0.635362 4.11221 0
M  V30 2579 H 253.435 -1.27431 5.33903 0
M  V30 2580 H 253.696 -2.17093 3.85127 0
M  V30 2581 N 252.755 -1.56801 0.158532 0
M  V30 2582 C 253.702 -2.17337 -0.776729 0
M  V30 2583 C 254.672 -1.1096 -1.23601 0
M  V30 2584 O 255.857 -1.39054 -1.30647 0
M  V30 2585 C 252.997 -2.80822 -2.00582 0
M  V30 2586 C 252.11 -4.01624 -1.59129 0
M  V30 2587 C 251.245 -4.53072 -2.77306 0
M  V30 2588 C 250.284 -5.66314 -2.32282 0
M  V30 2589 N 249.421 -6.12329 -3.43508 0
M  V30 2590 H 254.261 -2.96918 -0.253701 0
M  V30 2591 H 251.798 -1.46661 -0.113504 0
M  V30 2592 H 253.756 -3.15779 -2.72652 0
M  V30 2593 H 252.386 -2.03866 -2.50277 0
M  V30 2594 H 251.438 -3.72571 -0.767806 0
M  V30 2595 H 252.75 -4.83633 -1.2207 0
M  V30 2596 H 251.904 -4.90145 -3.57551 0
M  V30 2597 H 250.643 -3.70095 -3.17617 0
M  V30 2598 H 249.648 -5.28806 -1.5048 0
M  V30 2599 H 250.873 -6.51085 -1.93043 0
M  V30 2600 H 248.819 -5.32284 -3.83418 0
M  V30 2601 H 248.736 -6.89293 -3.105 0
M  V30 2602 H 250.004 -6.5405 -4.24075 0
M  V30 2603 N 254.233 0.115231 -1.57178 0
M  V30 2604 C 255.143 1.15994 -2.03918 0
M  V30 2605 C 256.159 1.45103 -0.960268 0
M  V30 2606 O 257.335 1.56144 -1.27204 0
M  V30 2607 C 254.4 2.46568 -2.43732 0
M  V30 2608 C 253.461 2.24822 -3.65723 0
M  V30 2609 C 252.694 3.4917 -4.03629 0
M  V30 2610 O 252.917 4.56623 -3.41835 0
M  V30 2611 O 251.851 3.39949 -4.96708 0
M  V30 2612 H 255.677 0.793019 -2.93164 0
M  V30 2613 H 253.262 0.3263 -1.45793 0
M  V30 2614 H 255.144 3.23492 -2.70057 0
M  V30 2615 H 253.819 2.82726 -1.57631 0
M  V30 2616 H 252.726 1.45744 -3.44542 0
M  V30 2617 H 254.059 1.93566 -4.52541 0
M  V30 2618 N 255.711 1.52812 0.385517 0
M  V30 2619 C 256.674 1.77188 1.45386 0
M  V30 2620 C 257.674 0.641953 1.4743 0
M  V30 2621 O 258.864 0.910033 1.4854 0
M  V30 2622 C 255.996 1.87582 2.8465 0
M  V30 2623 H 257.189 2.72583 1.25054 0
M  V30 2624 H 254.742 1.43586 0.617467 0
M  V30 2625 H 255.477 0.941849 3.10322 0
M  V30 2626 H 255.262 2.69748 2.84567 0
M  V30 2627 H 256.752 2.08102 3.62054 0
M  V30 2628 N 257.189 -0.644168 1.43834 0
M  V30 2629 C 258.136 -1.75671 1.49694 0
M  V30 2630 C 259.106 -1.6246 0.345809 0
M  V30 2631 O 260.291 -1.82573 0.554234 0
M  V30 2632 C 257.431 -3.13867 1.43463 0
M  V30 2633 C 256.544 -3.38147 2.6885 0
M  V30 2634 C 255.679 -4.66241 2.54544 0
M  V30 2635 C 254.718 -4.83657 3.75157 0
M  V30 2636 N 253.855 -6.03016 3.59605 0
M  V30 2637 H 258.695 -1.69998 2.44754 0
M  V30 2638 H 256.232 -0.829458 1.21484 0
M  V30 2639 H 258.19 -3.9377 1.37843 0
M  V30 2640 H 256.82 -3.18588 0.519783 0
M  V30 2641 H 255.872 -2.52276 2.84712 0
M  V30 2642 H 257.184 -3.46899 3.58417 0
M  V30 2643 H 256.338 -5.54285 2.46683 0
M  V30 2644 H 255.077 -4.59826 1.62516 0
M  V30 2645 H 254.082 -3.94046 3.83416 0
M  V30 2646 H 255.307 -4.91896 4.68204 0
M  V30 2647 H 253.253 -5.97715 2.7032 0
M  V30 2648 H 253.17 -6.12766 4.42779 0
M  V30 2649 H 254.438 -6.93657 3.55613 0
M  V30 2650 N 258.668 -1.30515 -0.883378 0
M  V30 2651 C 259.631 -1.1701 -1.97082 0
M  V30 2652 C 260.631 -0.10089 -1.60483 0
M  V30 2653 O 261.821 -0.349127 -1.70666 0
M  V30 2654 C 258.953 -0.793045 -3.31547 0
M  V30 2655 H 260.146 -2.13622 -2.10489 0
M  V30 2656 H 257.699 -1.13935 -1.06998 0
M  V30 2657 H 258.434 0.172499 -3.23841 0
M  V30 2658 H 258.219 -1.56576 -3.5948 0
M  V30 2659 H 259.709 -0.722073 -4.1131 0
M  V30 2660 N 260.146 1.09593 -1.13257 0
M  V30 2661 C 261.093 2.1618 -0.808381 0
M  V30 2662 C 262.063 1.64517 0.228754 0
M  V30 2663 O 263.248 1.9053 0.101381 0
M  V30 2664 C 260.388 3.43973 -0.278675 0
M  V30 2665 C 259.501 4.09545 -1.37466 0
M  V30 2666 C 258.636 5.25088 -0.803479 0
M  V30 2667 C 257.675 5.82579 -1.87799 0
M  V30 2668 N 256.812 6.89486 -1.32488 0
M  V30 2669 H 261.652 2.43254 -1.72138 0
M  V30 2670 H 259.189 1.19392 -0.859294 0
M  V30 2671 H 261.147 4.17174 0.0465583 0
M  V30 2672 H 259.777 3.17223 0.597459 0
M  V30 2673 H 258.829 3.34226 -1.81652 0
M  V30 2674 H 260.141 4.48307 -2.18684 0
M  V30 2675 H 259.295 6.05178 -0.429427 0
M  V30 2676 H 258.034 4.87684 0.0397956 0
M  V30 2677 H 257.039 5.01152 -2.26113 0
M  V30 2678 H 258.264 6.22045 -2.72463 0
M  V30 2679 H 256.21 6.54064 -0.503575 0
M  V30 2680 H 256.127 7.27007 -2.07355 0
M  V30 2681 H 257.395 7.73336 -0.978336 0
M  V30 2682 N 261.624 0.925811 1.2754 0
M  V30 2683 C 262.873 0.561084 1.93739 0
M  V30 2684 C 263.186 -0.901685 1.73577 0
M  V30 2685 O 264.392 -1.37511 2.34101 0
M  V30 2686 C 262.848 0.952668 3.47062 0
M  V30 2687 C 262.456 2.43599 3.75983 0
M  V30 2688 C 264.2 0.659103 4.19352 0
M  V30 2689 C 262.107 2.76707 5.22673 0
M  V30 2690 H 261.037 0.206122 0.725279 0
M  V30 2691 H 263.688 1.12637 1.44863 0
M  V30 2692 H 262.07 0.316053 3.94737 0
M  V30 2693 H 263.244 3.12035 3.39073 0
M  V30 2694 H 261.559 2.70125 3.16893 0
M  V30 2695 H 264.156 0.882985 5.27359 0
M  V30 2696 H 264.499 -0.403607 4.14339 0
M  V30 2697 H 265.032 1.25473 3.77494 0
M  V30 2698 H 261.771 3.8188 5.32774 0
M  V30 2699 H 261.291 2.12919 5.60737 0
M  V30 2700 H 262.97 2.6435 5.90532 0
M  V30 2701 N 263.102 -1.41638 0.69111 0
M  V30 2702 C 264.327 -2.06148 0.227583 0
M  V30 2703 C 264.752 -1.51652 -1.11281 0
M  V30 2704 O 264.11 -0.64164 -1.69566 0
M  V30 2705 C 264.158 -3.60095 0.190858 0
M  V30 2706 O 263.262 -4.03845 -0.835664 0
M  V30 2707 H 262.603 -0.654434 0.112306 0
M  V30 2708 H 265.133 -1.81484 0.944714 0
M  V30 2709 H 265.143 -4.07995 0.020207 0
M  V30 2710 H 263.818 -3.99129 1.16915 0
M  V30 2711 H 262.395 -3.67458 -0.63473 0
M  V30 2712 N 264.58 -0.43555 -1.51462 0
M  V30 2713 C 265.512 0.41257 -2.25456 0
M  V30 2714 C 266.525 0.987822 -1.29406 0
M  V30 2715 O 267.714 0.882266 -1.55172 0
M  V30 2716 C 264.814 1.58894 -2.99342 0
M  V30 2717 C 263.987 1.13288 -4.22474 0
M  V30 2718 C 263.046 2.17917 -4.78956 0
M  V30 2719 O 262.072 1.77425 -5.40841 0
M  V30 2720 N 263.274 3.50382 -4.62832 0
M  V30 2721 H 266.039 -0.221603 -2.9888 0
M  V30 2722 H 263.6 -0.264342 -1.59727 0
M  V30 2723 H 265.592 2.28508 -3.34015 0
M  V30 2724 H 264.162 2.12849 -2.28941 0
M  V30 2725 H 263.382 0.263881 -3.93316 0
M  V30 2726 H 264.67 0.805542 -5.02383 0
M  V30 2727 H 264.068 3.86013 -4.13534 0
M  V30 2728 H 262.625 4.15895 -5.01871 0
M  V30 2729 N 266.058 1.56714 -0.166846 0
M  V30 2730 C 266.968 2.21331 0.777791 0
M  V30 2731 C 267.984 1.20358 1.25658 0
M  V30 2732 O 269.16 1.53005 1.30964 0
M  V30 2733 C 266.225 2.83787 1.99163 0
M  V30 2734 C 265.286 3.99947 1.56016 0
M  V30 2735 C 264.519 4.59415 2.71613 0
M  V30 2736 O 264.742 4.17769 3.88362 0
M  V30 2737 O 263.676 5.49359 2.45945 0
M  V30 2738 H 267.502 3.02605 0.257636 0
M  V30 2739 H 265.087 1.49275 0.0611393 0
M  V30 2740 H 266.969 3.23405 2.70161 0
M  V30 2741 H 265.644 2.05513 2.50092 0
M  V30 2742 H 264.551 3.65007 0.819809 0
M  V30 2743 H 265.884 4.79801 1.09782 0
M  V30 2744 N 267.536 -0.106894 1.57237 0
M  V30 2745 C 268.486 -1.1366 1.9765 0
M  V30 2746 C 269.47 -1.36416 0.853203 0
M  V30 2747 O 270.662 -1.37305 1.11697 0
M  V30 2748 C 267.791 -2.46 2.39455 0
M  V30 2749 C 266.877 -2.26668 3.58445 0
M  V30 2750 N 267.268 -1.77176 4.73754 0
M  V30 2751 C 265.566 -2.57279 3.64312 0
M  V30 2752 C 266.267 -1.71836 5.5574 0
M  V30 2753 N 265.243 -2.16623 4.98573 0
M  V30 2754 H 269.045 -0.74669 2.84256 0
M  V30 2755 H 266.559 -0.314483 1.59326 0
M  V30 2756 H 268.556 -3.2049 2.6663 0
M  V30 2757 H 267.216 -2.85738 1.54219 0
M  V30 2758 H 268.227 -1.46545 4.96734 0
M  V30 2759 H 264.904 -3.00622 2.89711 0
M  V30 2760 H 266.294 -1.34723 6.58255 0
M  V30 2761 N 269.014 -1.53014 -0.377408 0
M  V30 2762 C 270.425 -1.60438 -0.954798 0
M  V30 2763 C 270.776 -0.464418 -1.90624 0
M  V30 2764 O 269.901 0.41087 -2.12464 0
M  V30 2765 C 270.496 -2.90797 -1.73847 0
M  V30 2766 C 269.055 -3.00595 -2.26538 0
M  V30 2767 C 268.202 -2.55645 -1.07429 0
M  V30 2768 H 271.153 -1.57926 -0.156575 0
M  V30 2769 H 271.174 -2.77935 -2.5987 0
M  V30 2770 H 270.686 -3.73746 -1.04574 0
M  V30 2771 H 268.787 -2.22208 -2.99089 0
M  V30 2772 H 268.9 -4.05456 -2.5523 0
M  V30 2773 H 267.264 -2.10239 -1.43777 0
M  V30 2774 H 268.047 -3.41 -0.396728 0
M  V30 2775 N 270.492 0.636531 -1.44174 0
M  V30 2776 C 271.74 1.39343 -1.46383 0
M  V30 2777 C 272.061 1.94766 -0.0955715 0
M  V30 2778 O 271.331 1.75452 0.871395 0
M  V30 2779 H 269.911 0.517199 -0.538994 0
M  V30 2780 H 272.573 0.74957 -1.7991 0
M  V30 2781 H 271.669 2.22746 -2.18611 0
M  V30 2782 N 271.97 1.30982 0.876444 0
M  V30 2783 C 273.216 1.21484 1.63136 0
M  V30 2784 C 273.571 -0.226339 1.91064 0
M  V30 2785 O 272.864 -1.15788 1.52656 0
M  V30 2786 C 273.058 1.98572 2.9716 0
M  V30 2787 C 272.887 3.50039 2.82317 0
M  V30 2788 C 271.657 4.19393 2.81847 0
M  V30 2789 C 273.855 4.45111 2.57644 0
M  V30 2790 N 271.837 5.57061 2.57985 0
M  V30 2791 C 273.208 5.70402 2.42986 0
M  V30 2792 C 275.263 4.3461 2.42937 0
M  V30 2793 C 273.966 6.8638 2.15115 0
M  V30 2794 C 275.992 5.50365 2.16454 0
M  V30 2795 C 275.354 6.74642 2.02578 0
M  V30 2796 H 271.453 0.499632 0.601575 0
M  V30 2797 H 274.037 1.65094 1.03209 0
M  V30 2798 H 272.208 1.5734 3.55104 0
M  V30 2799 H 273.94 1.81146 3.61895 0
M  V30 2800 H 270.695 3.71303 2.93991 0
M  V30 2801 H 271.119 6.29529 2.49043 0
M  V30 2802 H 275.761 3.39199 2.52396 0
M  V30 2803 H 273.479 7.81824 2.04394 0
M  V30 2804 H 277.065 5.44154 2.05884 0
M  V30 2805 H 275.945 7.62699 1.82374 0
M  V30 2806 N 273.449 -1.08991 1.13837 0
M  V30 2807 C 274.359 -2.19301 0.833333 0
M  V30 2808 C 275.375 -1.73026 -0.183847 0
M  V30 2809 O 276.551 -2.01395 -0.0138092 0
M  V30 2810 C 273.616 -3.45323 0.308651 0
M  V30 2811 C 272.677 -4.06255 1.38764 0
M  V30 2812 C 271.91 -5.26262 0.887896 0
M  V30 2813 O 272.133 -5.69747 -0.27287 0
M  V30 2814 O 271.067 -5.78435 1.66421 0
M  V30 2815 H 274.893 -2.47854 1.75506 0
M  V30 2816 H 272.478 -1.18012 0.916166 0
M  V30 2817 H 274.36 -4.21394 0.0216739 0
M  V30 2818 H 273.035 -3.18362 -0.585431 0
M  V30 2819 H 271.942 -3.318 1.72799 0
M  V30 2820 H 273.275 -4.37452 2.25602 0
M  V30 2821 N 274.927 -0.932562 -1.27047 0
M  V30 2822 C 276.176 -0.571351 -1.93439 0
M  V30 2823 C 276.489 0.892467 -1.74053 0
M  V30 2824 O 277.695 1.36267 -2.34826 0
M  V30 2825 C 276.151 -0.97106 -3.46552 0
M  V30 2826 C 275.759 -2.4559 -3.74686 0
M  V30 2827 C 277.503 -0.681333 -4.18997 0
M  V30 2828 C 275.41 -2.79475 -5.21198 0
M  V30 2829 H 274.34 -0.209966 -0.724176 0
M  V30 2830 H 276.991 -1.13403 -1.44263 0
M  V30 2831 H 275.373 -0.336983 -3.94564 0
M  V30 2832 H 276.547 -3.13829 -3.37414 0
M  V30 2833 H 274.862 -2.71802 -3.15456 0
M  V30 2834 H 277.459 -0.910939 -5.26883 0
M  V30 2835 H 277.802 0.381628 -4.14547 0
M  V30 2836 H 278.335 -1.27473 -3.76823 0
M  V30 2837 H 275.074 -3.847 -5.30741 0
M  V30 2838 H 274.594 -2.1589 -5.596 0
M  V30 2839 H 276.273 -2.67478 -5.89122 0
M  V30 2840 N 276.405 1.4127 -0.698611 0
M  V30 2841 C 277.651 2.01478 -0.231207 0
M  V30 2842 C 277.984 1.55215 1.16713 0
M  V30 2843 O 277.259 0.764672 1.78838 0
M  V30 2844 C 277.542 3.58912 -0.292281 0
M  V30 2845 C 277.395 4.15293 -1.72778 0
M  V30 2846 C 278.714 4.38736 0.346194 0
M  V30 2847 H 275.833 0.732025 -0.0854878 0
M  V30 2848 H 278.475 1.67977 -0.887906 0
M  V30 2849 H 276.625 3.87582 0.26686 0
M  V30 2850 H 278.297 3.97486 -2.341 0
M  V30 2851 H 276.54 3.7022 -2.26096 0
M  V30 2852 H 277.211 5.24452 -1.72202 0
M  V30 2853 H 279.687 4.15897 -0.130035 0
M  V30 2854 H 278.563 5.48221 0.272932 0
M  V30 2855 H 278.824 4.18425 1.42734 0
M  V30 2856 N 277.883 0.443576 1.51229 0
M  V30 2857 C 279.111 -0.11929 2.06556 0
M  V30 2858 C 279.526 -1.35921 1.31038 0
M  V30 2859 O 278.883 -1.78675 0.371704 0
M  V30 2860 C 278.934 -0.435228 3.5887 0
M  V30 2861 O 278.655 0.755486 4.31537 0
M  V30 2862 C 280.156 -1.04808 4.30732 0
M  V30 2863 H 277.376 -0.0051584 0.67098 0
M  V30 2864 H 279.92 0.624453 1.94733 0
M  V30 2865 H 278.075 -1.12887 3.70588 0
M  V30 2866 H 278.489 0.483491 5.22267 0
M  V30 2867 H 279.963 -1.2191 5.3837 0
M  V30 2868 H 280.44 -2.03081 3.89429 0
M  V30 2869 H 281.046 -0.393637 4.23474 0
M  V30 2870 N 279.361 -1.56624 0.175154 0
M  V30 2871 C 280.589 -2.01374 -0.474971 0
M  V30 2872 C 281.004 -1.05537 -1.56548 0
M  V30 2873 O 280.361 -0.0568668 -1.82411 0
M  V30 2874 C 280.412 -3.45923 -1.04975 0
M  V30 2875 O 280.133 -4.381 -0.00276605 0
M  V30 2876 C 281.634 -4.06093 -1.77773 0
M  V30 2877 H 278.854 -0.659962 -0.121206 0
M  V30 2878 H 281.398 -2.02601 0.27801 0
M  V30 2879 H 279.553 -3.45458 -1.75321 0
M  V30 2880 H 279.967 -5.22753 -0.427681 0
M  V30 2881 H 281.441 -5.09147 -2.13245 0
M  V30 2882 H 281.918 -3.48405 -2.67414 0
M  V30 2883 H 282.524 -4.10272 -1.12059 0
M  V30 2884 N 280.839 0.0985539 -1.57292 0
M  V30 2885 C 281.771 1.14595 -1.98496 0
M  V30 2886 C 282.784 1.36512 -0.887031 0
M  V30 2887 O 283.973 1.35225 -1.16518 0
M  V30 2888 C 281.073 2.50216 -2.28572 0
M  V30 2889 C 280.246 2.48624 -3.59868 0
M  V30 2890 C 279.305 3.66146 -3.7792 0
M  V30 2891 O 278.331 3.48795 -4.49812 0
M  V30 2892 N 279.533 4.85496 -3.18235 0
M  V30 2893 H 282.298 0.795277 -2.88956 0
M  V30 2894 H 279.859 0.287579 -1.59325 0
M  V30 2895 H 281.851 3.27432 -2.37845 0
M  V30 2896 H 280.421 2.77387 -1.44136 0
M  V30 2897 H 279.641 1.56978 -3.61596 0
M  V30 2898 H 280.929 2.44635 -4.46129 0
M  V30 2899 H 280.327 5.02497 -2.59833 0
M  V30 2900 H 278.884 5.60317 -3.32999 0
M  V30 2901 N 282.317 1.53212 0.369288 0
M  V30 2902 C 283.564 1.69215 1.11232 0
M  V30 2903 C 283.892 0.442048 1.8941 0
M  V30 2904 O 283.147 -0.575944 1.87033 0
M  V30 2905 C 283.446 2.89101 2.10132 0
M  V30 2906 C 283.112 4.25758 1.48463 0
M  V30 2907 C 281.774 4.6292 1.31372 0
M  V30 2908 C 284.126 5.10757 1.03811 0
M  V30 2909 C 281.454 5.82722 0.68207 0
M  V30 2910 C 283.806 6.31201 0.420487 0
M  V30 2911 C 282.47 6.67079 0.237038 0
M  V30 2912 H 281.74 0.619201 0.407027 0
M  V30 2913 H 284.387 1.87391 0.394552 0
M  V30 2914 H 282.692 2.65421 2.88199 0
M  V30 2915 H 284.389 2.98676 2.6757 0
M  V30 2916 H 280.979 3.96494 1.62758 0
M  V30 2917 H 285.163 4.82599 1.1581 0
M  V30 2918 H 280.419 6.09113 0.528316 0
M  V30 2919 H 284.593 6.96368 0.0662874 0
M  V30 2920 H 282.22 7.59774 -0.254477 0
M  V30 2921 N 283.795 -0.628877 1.44509 0
M  V30 2922 C 285.043 -1.38565 1.4712 0
M  V30 2923 C 285.364 -1.94712 0.105899 0
M  V30 2924 O 284.634 -1.75912 -0.862079 0
M  V30 2925 H 283.214 -0.514333 0.541729 0
M  V30 2926 H 285.876 -0.740018 1.80305 0
M  V30 2927 H 284.972 -2.21583 2.19789 0
M  V30 2928 N 285.273 -1.31445 -0.869486 0
M  V30 2929 C 286.503 -1.23942 -1.65294 0
M  V30 2930 C 286.911 0.197561 -1.88166 0
M  V30 2931 O 286.254 1.14019 -1.44033 0
M  V30 2932 C 286.316 -1.91385 -3.04322 0
M  V30 2933 C 285.98 -3.40726 -3.04557 0
M  V30 2934 C 286.977 -4.36464 -2.82481 0
M  V30 2935 C 284.662 -3.82425 -3.25663 0
M  V30 2936 C 286.656 -5.71876 -2.8149 0
M  V30 2937 C 284.343 -5.1795 -3.243 0
M  V30 2938 C 285.341 -6.12486 -3.02241 0
M  V30 2939 O 285.029 -7.45534 -3.00724 0
M  V30 2940 H 284.761 -0.429459 -0.522054 0
M  V30 2941 H 287.315 -1.73873 -1.0935 0
M  V30 2942 H 285.545 -1.36004 -3.61994 0
M  V30 2943 H 287.234 -1.77791 -3.64891 0
M  V30 2944 H 288 -4.05576 -2.65956 0
M  V30 2945 H 283.879 -3.09274 -3.41863 0
M  V30 2946 H 287.423 -6.45638 -2.64191 0
M  V30 2947 H 283.32 -5.48473 -3.40365 0
M  V30 2948 H 284.088 -7.54713 -3.16782 0
M  V30 2949 N 286.751 1.08385 -1.14413 0
M  V30 2950 C 287.699 2.17406 -0.826888 0
M  V30 2951 C 288.693 1.6827 0.195312 0
M  V30 2952 O 289.899 1.79927 0.0513892 0
M  V30 2953 H 286.274 0.70934 -0.249681 0
M  V30 2954 H 288.245 2.41388 -1.75426 0
M  V30 2955 C 286.994 3.46215 -0.320979 0
M  V30 2956 H 286.317 3.84401 -1.0989 0
M  V30 2957 H 287.757 4.23777 -0.137549 0
M  V30 2958 C 286.216 3.23067 0.955472 0
M  V30 2959 O 286.746 3.4668 2.02918 0
M  V30 2960 N 284.952 2.7661 0.890798 0
M  V30 2961 H 284.499 2.57594 0.0168815 0
M  V30 2962 H 284.457 2.61501 1.74542 0
M  V30 2963 N 288.23 0.939286 1.26551 0
M  V30 2964 C 289.507 0.5038 1.89001 0
M  V30 2965 C 289.887 -1.01854 1.84903 0
M  V30 2966 O 289.235 -1.87773 1.30206 0
M  V30 2967 C 289.445 1.063 3.32417 0
M  V30 2968 C 290.793 1.13051 4.09273 0
M  V30 2969 O 291.817 1.01345 3.41479 0
M  V30 2970 O 290.676 1.31233 5.30509 0
M  V30 2971 H 287.77 0.163897 0.810597 0
M  V30 2972 H 290.316 1.03173 1.34735 0
M  V30 2973 H 289.088 2.10665 3.29752 0
M  V30 2974 H 288.711 0.517408 3.94219 0
M  V30 2975 N 289.708 -1.40897 0.706093 0
M  V30 2976 C 290.671 -2.29131 0.0562841 0
M  V30 2977 C 291.671 -1.44901 -0.697166 0
M  V30 2978 O 292.861 -1.65926 -0.530484 0
M  V30 2979 C 289.993 -3.27957 -0.93043 0
M  V30 2980 H 291.186 -2.88091 0.833284 0
M  V30 2981 H 288.739 -1.4906 0.470192 0
M  V30 2982 H 289.474 -2.73997 -1.73482 0
M  V30 2983 H 289.259 -3.90124 -0.393166 0
M  V30 2984 H 290.749 -3.94049 -1.38256 0
M  V30 2985 N 291.186 -0.45159 -1.50991 0
M  V30 2986 C 292.414 0.108334 -2.06616 0
M  V30 2987 C 292.829 1.35224 -1.31757 0
M  V30 2988 O 292.186 1.78475 -0.381174 0
M  V30 2989 C 292.237 0.41619 -3.59096 0
M  V30 2990 O 291.958 -0.778361 -4.3113 0
M  V30 2991 C 293.459 1.02523 -4.31282 0
M  V30 2992 H 290.679 0.00159995 -0.670998 0
M  V30 2993 H 293.223 -0.634771 -1.94399 0
M  V30 2994 H 291.378 1.10921 -3.71181 0
M  V30 2995 H 291.792 -0.511181 -5.22003 0
M  V30 2996 H 293.266 1.19053 -5.39009 0
M  V30 2997 H 293.743 2.01013 -3.905 0
M  V30 2998 H 294.349 0.371173 -4.23677 0
M  V30 2999 N 292.664 1.56529 -0.183458 0
M  V30 3000 C 293.611 2.18546 0.742055 0
M  V30 3001 C 294.581 1.12912 1.2182 0
M  V30 3002 O 295.766 1.41115 1.28418 0
M  V30 3003 C 292.906 2.83977 1.96089 0
M  V30 3004 C 292.019 4.04105 1.52719 0
M  V30 3005 C 291.154 4.57427 2.70063 0
M  V30 3006 C 290.193 5.69938 2.23243 0
M  V30 3007 N 289.33 6.17717 3.33722 0
M  V30 3008 H 294.17 2.97284 0.206432 0
M  V30 3009 H 291.707 1.46823 0.0901571 0
M  V30 3010 H 293.665 3.20077 2.67594 0
M  V30 3011 H 292.295 2.07822 2.47002 0
M  V30 3012 H 291.347 3.73745 0.708436 0
M  V30 3013 H 292.659 4.85513 1.1436 0
M  V30 3014 H 291.813 4.95772 3.49708 0
M  V30 3015 H 290.552 3.75101 3.11689 0
M  V30 3016 H 289.557 5.31133 1.42048 0
M  V30 3017 H 290.782 6.54073 1.82661 0
M  V30 3018 H 288.728 5.38317 3.74902 0
M  V30 3019 H 288.645 6.94146 2.99495 0
M  V30 3020 H 289.913 6.60713 4.13616 0
M  V30 3021 N 294.142 -0.090211 1.57342 0
M  V30 3022 C 295.367 -0.810082 1.90925 0
M  V30 3023 C 295.792 -1.71248 0.778187 0
M  V30 3024 O 295.15 -1.79278 -0.269991 0
M  V30 3025 C 295.198 -1.59529 3.23393 0
M  V30 3026 O 294.302 -2.70461 3.11327 0
M  V30 3027 H 293.643 -0.222231 0.625707 0
M  V30 3028 H 296.173 -0.0639716 2.045 0
M  V30 3029 H 296.183 -1.97847 3.5682 0
M  V30 3030 H 294.858 -0.933055 4.05299 0
M  V30 3031 H 293.435 -2.35135 2.89423 0
M  V30 3032 N 295.62 -1.53406 -0.361157 0
M  V30 3033 C 296.55 -1.83136 -1.44857 0
M  V30 3034 C 297.531 -0.685174 -1.5569 0
M  V30 3035 O 298.716 -0.93544 -1.70186 0
M  V30 3036 C 295.846 -2.02522 -2.82138 0
M  V30 3037 C 294.8 -3.18302 -2.86126 0
M  V30 3038 C 294.126 -3.22989 -4.26125 0
M  V30 3039 C 295.426 -4.56796 -2.53248 0
M  V30 3040 H 297.12 -2.74201 -1.20226 0
M  V30 3041 H 294.666 -1.31938 -0.576922 0
M  V30 3042 H 296.619 -2.21904 -3.58241 0
M  V30 3043 H 295.343 -1.08172 -3.08166 0
M  V30 3044 H 294.002 -2.98747 -2.12475 0
M  V30 3045 H 293.65 -2.26267 -4.49235 0
M  V30 3046 H 293.35 -4.00781 -4.29708 0
M  V30 3047 H 294.874 -3.44559 -5.04094 0
M  V30 3048 H 296.288 -4.7631 -3.19064 0
M  V30 3049 H 294.685 -5.36862 -2.68141 0
M  V30 3050 H 295.755 -4.61606 -1.48484 0
M  V30 3051 N 297.098 0.621204 -1.44841 0
M  V30 3052 C 298.03 1.74615 -1.48466 0
M  V30 3053 C 299.043 1.58377 -0.37691 0
M  V30 3054 O 300.232 1.66508 -0.643215 0
M  V30 3055 C 297.332 3.12459 -1.31236 0
M  V30 3056 C 296.505 3.55064 -2.55438 0
M  V30 3057 C 295.564 4.71821 -2.32963 0
M  V30 3058 O 294.59 4.79628 -3.06505 0
M  V30 3059 N 295.792 5.64186 -1.36654 0
M  V30 3060 H 298.557 1.71973 -2.45449 0
M  V30 3061 H 296.118 0.806077 -1.40407 0
M  V30 3062 H 298.11 3.88302 -1.14032 0
M  V30 3063 H 296.68 3.09686 -0.4258 0
M  V30 3064 H 295.9 2.69324 -2.87851 0
M  V30 3065 H 297.188 3.80284 -3.38026 0
M  V30 3066 H 296.586 5.6058 -0.759344 0
M  V30 3067 H 295.143 6.39618 -1.25425 0
M  V30 3068 N 298.576 1.31904 0.862503 0
M  V30 3069 C 299.804 1.24998 1.64873 0
M  V30 3070 C 300.219 -0.183425 1.87907 0
M  V30 3071 O 299.576 -1.11794 1.44251 0
M  V30 3072 C 299.627 1.99829 3.01248 0
M  V30 3073 O 299.348 3.37575 2.79239 0
M  V30 3074 C 300.849 1.99852 3.95694 0
M  V30 3075 H 298.069 0.431599 0.513773 0
M  V30 3076 H 300.613 1.73901 1.07604 0
M  V30 3077 H 298.768 1.54668 3.55185 0
M  V30 3078 H 299.182 3.75776 3.65914 0
M  V30 3079 H 300.656 2.56709 4.88676 0
M  V30 3080 H 301.133 0.982852 4.28062 0
M  V30 3081 H 301.739 2.44926 3.47694 0
M  V30 3082 N 300.054 -1.07777 1.14986 0
M  V30 3083 C 301.017 -2.13041 0.845358 0
M  V30 3084 C 302.017 -1.60071 -0.152931 0
M  V30 3085 O 303.207 -1.74033 0.0761879 0
M  V30 3086 C 300.339 -3.39896 0.261383 0
M  V30 3087 H 301.532 -2.41485 1.77834 0
M  V30 3088 H 299.085 -1.23595 0.956757 0
M  V30 3089 H 299.82 -3.17091 -0.68 0
M  V30 3090 H 299.605 -3.79642 0.980514 0
M  V30 3091 H 301.095 -4.17548 0.0657687 0
M  V30 3092 N 301.532 -0.945985 -1.26051 0
M  V30 3093 C 302.442 -0.465633 -2.29933 0
M  V30 3094 C 303.458 0.462761 -1.67733 0
M  V30 3095 O 304.634 0.341118 -1.9849 0
M  V30 3096 C 301.699 0.256994 -3.45746 0
M  V30 3097 C 300.76 -0.708549 -4.23412 0
M  V30 3098 C 299.993 -0.0203135 -5.33696 0
M  V30 3099 O 300.216 1.19571 -5.57726 0
M  V30 3100 O 299.15 -0.701459 -5.97799 0
M  V30 3101 H 302.976 -1.32866 -2.73094 0
M  V30 3102 H 300.561 -0.712071 -1.31339 0
M  V30 3103 H 302.443 0.663852 -4.16138 0
M  V30 3104 H 301.118 1.09533 -3.04605 0
M  V30 3105 H 300.025 -1.16545 -3.55483 0
M  V30 3106 H 301.358 -1.51465 -4.68315 0
M  V30 3107 N 303.011 1.40521 -0.713556 0
M  V30 3108 C 304.259 2.00527 -0.251692 0
M  V30 3109 C 304.58 1.56857 1.15848 0
M  V30 3110 O 303.85 0.807127 1.785 0
M  V30 3111 H 302.43 0.741551 -0.0900646 0
M  V30 3112 H 305.092 1.71887 -0.918733 0
M  V30 3113 H 304.188 3.10813 -0.283192 0
M  V30 3114 N 304.489 0.459591 1.5075 0
M  V30 3115 C 305.738 -0.100971 2.01447 0
M  V30 3116 C 306.051 -1.41816 1.34713 0
M  V30 3117 O 307.257 -2.06299 1.76502 0
M  V30 3118 C 305.713 -0.23047 3.59161 0
M  V30 3119 C 305.321 1.0776 4.34847 0
M  V30 3120 C 307.065 -0.743608 4.17936 0
M  V30 3121 C 304.972 0.91253 5.84317 0
M  V30 3122 H 303.902 -0.0415102 0.752856 0
M  V30 3123 H 306.553 0.592742 1.73663 0
M  V30 3124 H 304.935 -0.987703 3.83485 0
M  V30 3125 H 306.109 1.8449 4.22256 0
M  V30 3126 H 304.424 1.52097 3.87628 0
M  V30 3127 H 307.021 -0.883959 5.27343 0
M  V30 3128 H 307.364 -1.73196 3.78562 0
M  V30 3129 H 307.897 -0.04408 3.97776 0
M  V30 3130 H 304.636 1.87391 6.28144 0
M  V30 3131 H 304.156 0.185422 5.99513 0
M  V30 3132 H 305.835 0.574547 6.44444 0
M  V30 3133 N 305.967 -1.56429 0.191757 0
M  V30 3134 C 307.216 -1.9666 -0.448088 0
M  V30 3135 C 307.529 -1.08136 -1.62991 0
M  V30 3136 O 308.735 -1.38135 -2.33733 0
M  V30 3137 C 307.191 -3.49753 -0.848585 0
M  V30 3138 C 306.799 -4.46935 0.308764 0
M  V30 3139 C 308.543 -3.9876 -1.4557 0
M  V30 3140 C 306.45 -5.91293 -0.112506 0
M  V30 3141 H 305.38 -0.734312 -0.171179 0
M  V30 3142 H 308.031 -1.81301 0.283242 0
M  V30 3143 H 306.413 -3.60604 -1.63649 0
M  V30 3144 H 307.587 -4.47813 1.08627 0
M  V30 3145 H 305.902 -4.08102 0.827158 0
M  V30 3146 H 308.499 -5.04086 -1.78328 0
M  V30 3147 H 308.842 -3.42875 -2.36099 0
M  V30 3148 H 309.375 -3.9101 -0.731836 0
M  V30 3149 H 306.114 -6.51097 0.758514 0
M  V30 3150 H 305.634 -5.93676 -0.854941 0
M  V30 3151 H 307.313 -6.44663 -0.549448 0
M  V30 3152 N 307.445 0.0818655 -1.57387 0
M  V30 3153 C 308.392 1.09834 -2.0299 0
M  V30 3154 C 309.362 1.39043 -0.908639 0
M  V30 3155 O 310.547 1.50282 -1.17559 0
M  V30 3156 C 307.687 2.40971 -2.47037 0
M  V30 3157 C 306.8 2.18379 -3.7274 0
M  V30 3158 C 305.935 3.43008 -4.0561 0
M  V30 3159 C 304.974 3.15736 -5.24383 0
M  V30 3160 N 304.111 4.32667 -5.52941 0
M  V30 3161 H 308.951 0.702472 -2.89602 0
M  V30 3162 H 306.488 0.33531 -1.43227 0
M  V30 3163 H 308.446 3.1752 -2.70623 0
M  V30 3164 H 307.076 2.78379 -1.63417 0
M  V30 3165 H 306.128 1.32569 -3.56552 0
M  V30 3166 H 307.44 1.94227 -4.59431 0
M  V30 3167 H 306.594 4.27958 -4.30043 0
M  V30 3168 H 305.333 3.70225 -3.17466 0
M  V30 3169 H 304.338 2.2918 -4.99757 0
M  V30 3170 H 305.563 2.8985 -6.14136 0
M  V30 3171 H 303.509 4.59935 -4.67756 0
M  V30 3172 H 303.426 4.11753 -6.34031 0
M  V30 3173 H 304.694 5.18644 -5.81918 0
M  V30 3174 N 308.923 1.53595 0.353017 0
M  V30 3175 C 309.886 1.80232 1.41594 0
M  V30 3176 C 310.886 0.673081 1.46035 0
M  V30 3177 O 312.076 0.941335 1.46576 0
M  V30 3178 C 309.208 1.93578 2.80607 0
M  V30 3179 H 310.401 2.75174 1.19244 0
M  V30 3180 H 307.954 1.44864 0.586872 0
M  V30 3181 H 308.689 1.00746 3.08254 0
M  V30 3182 H 308.474 2.75724 2.78781 0
M  V30 3183 H 309.964 2.15735 3.57558 0
M  V30 3184 N 310.401 -0.613514 1.45168 0
M  V30 3185 C 311.631 -1.39743 1.52169 0
M  V30 3186 C 312.039 -1.88596 0.151086 0
M  V30 3187 O 311.382 -1.6251 -0.856521 0
M  V30 3188 C 311.444 -2.64035 2.43979 0
M  V30 3189 C 311.108 -2.36861 3.90827 0
M  V30 3190 C 312.105 -1.97591 4.80889 0
M  V30 3191 C 309.79 -2.49956 4.35692 0
M  V30 3192 C 311.784 -1.71768 6.1382 0
M  V30 3193 C 309.471 -2.23747 5.68665 0
M  V30 3194 C 310.469 -1.84714 6.57548 0
M  V30 3195 O 310.157 -1.58809 7.88058 0
M  V30 3196 H 309.889 -0.434382 0.517966 0
M  V30 3197 H 312.443 -0.75587 1.90986 0
M  V30 3198 H 310.673 -3.3089 2.00122 0
M  V30 3199 H 312.362 -3.26069 2.41731 0
M  V30 3200 H 313.128 -1.87015 4.47493 0
M  V30 3201 H 309.007 -2.79305 3.66756 0
M  V30 3202 H 312.551 -1.41227 6.83155 0
M  V30 3203 H 308.448 -2.33938 6.01617 0
M  V30 3204 H 309.216 -1.7291 8.00028 0
M  V30 3205 N 311.879 -1.3236 -0.855495 0
M  V30 3206 C 313.29 -1.2056 -1.42556 0
M  V30 3207 C 313.641 0.182209 -1.95352 0
M  V30 3208 O 312.766 1.08088 -1.87472 0
M  V30 3209 C 313.361 -2.1826 -2.59129 0
M  V30 3210 C 311.92 -2.10351 -3.12137 0
M  V30 3211 C 311.067 -2.06674 -1.84882 0
M  V30 3212 H 314.018 -1.442 -0.662727 0
M  V30 3213 H 314.039 -1.78064 -3.36264 0
M  V30 3214 H 313.551 -3.19257 -2.20673 0
M  V30 3215 H 311.652 -1.12599 -3.55179 0
M  V30 3216 H 311.765 -3.00135 -3.73438 0
M  V30 3217 H 310.129 -1.51901 -2.04446 0
M  V30 3218 H 310.912 -3.09451 -1.48643 0
M  V30 3219 N 313.357 1.07166 -1.15556 0
M  V30 3220 C 314.634 1.76546 -0.842069 0
M  V30 3221 C 315.014 2.00453 0.661939 0
M  V30 3222 O 314.362 1.62452 1.60691 0
M  V30 3223 C 314.572 3.07266 -1.65495 0
M  V30 3224 C 315.92 3.81578 -1.86234 0
M  V30 3225 O 316.944 3.17083 -1.62287 0
M  V30 3226 O 315.803 4.97419 -2.26355 0
M  V30 3227 H 312.897 0.766756 -0.309862 0
M  V30 3228 H 315.443 1.13514 -1.26145 0
M  V30 3229 H 314.215 2.85494 -2.67598 0
M  V30 3230 H 313.838 3.7803 -1.23203 0
M  V30 3231 N 314.835 0.952656 1.25548 0
M  V30 3232 C 315.765 0.489287 2.28316 0
M  V30 3233 C 316.746 -0.463359 1.63667 0
M  V30 3234 O 317.931 -0.36274 1.90782 0
M  V30 3235 C 315.061 -0.235603 3.465 0
M  V30 3236 C 314.015 0.631593 4.23314 0
M  V30 3237 C 313.341 -0.223923 5.34231 0
M  V30 3238 C 314.641 1.90871 4.86174 0
M  V30 3239 H 316.335 1.34822 2.67326 0
M  V30 3240 H 313.881 0.649728 1.28509 0
M  V30 3241 H 315.834 -0.570882 4.17515 0
M  V30 3242 H 314.558 -1.12877 3.06474 0
M  V30 3243 H 313.217 0.949929 3.54079 0
M  V30 3244 H 312.865 -1.11678 4.90446 0
M  V30 3245 H 312.565 0.35299 5.86539 0
M  V30 3246 H 314.089 -0.554214 6.0808 0
M  V30 3247 H 315.503 1.63997 5.49343 0
M  V30 3248 H 313.9 2.43112 5.4865 0
M  V30 3249 H 314.97 2.61304 4.08471 0
M  V30 3250 N 316.313 -1.40141 0.720998 0
M  V30 3251 C 317.59 -1.94677 0.189757 0
M  V30 3252 C 317.97 -1.65879 -1.30566 0
M  V30 3253 O 317.318 -0.979391 -2.06447 0
M  V30 3254 C 317.528 -3.45279 0.508304 0
M  V30 3255 C 318.876 -4.22209 0.449934 0
M  V30 3256 O 319.9 -3.53413 0.444677 0
M  V30 3257 O 318.759 -5.44788 0.432189 0
M  V30 3258 H 315.853 -0.826459 0.0299026 0
M  V30 3259 H 318.399 -1.49719 0.7989 0
M  V30 3260 H 317.171 -3.59619 1.54239 0
M  V30 3261 H 316.794 -3.97386 -0.130525 0
M  V30 3262 N 317.792 -0.46758 -1.50504 0
M  V30 3263 C 318.755 0.317059 -2.26996 0
M  V30 3264 C 319.755 0.923513 -1.31635 0
M  V30 3265 O 320.945 0.793239 -1.55091 0
M  V30 3266 C 318.077 1.45134 -3.08462 0
M  V30 3267 H 319.27 -0.353723 -2.97807 0
M  V30 3268 H 316.823 -0.221545 -1.54722 0
M  V30 3269 H 317.558 2.15728 -2.4214 0
M  V30 3270 H 317.343 1.02232 -3.78538 0
M  V30 3271 H 318.833 2.00493 -3.66323 0
M  V30 3272 N 319.27 1.56325 -0.20005 0
M  V30 3273 C 320.519 1.96895 0.437652 0
M  V30 3274 C 320.832 1.08999 1.62415 0
M  V30 3275 O 322.038 1.39372 2.32997 0
M  V30 3276 C 320.494 3.50198 0.830025 0
M  V30 3277 C 320.102 4.46765 -0.332461 0
M  V30 3278 C 321.846 3.99526 1.43453 0
M  V30 3279 C 319.753 5.91344 0.0811468 0
M  V30 3280 H 318.683 0.735209 0.167282 0
M  V30 3281 H 321.334 1.81148 -0.292853 0
M  V30 3282 H 319.716 3.61467 1.61734 0
M  V30 3283 H 320.89 4.47231 -1.11 0
M  V30 3284 H 319.205 4.07657 -0.848789 0
M  V30 3285 H 321.802 5.05025 1.75652 0
M  V30 3286 H 322.145 3.44122 2.34277 0
M  V30 3287 H 322.678 3.91393 0.71109 0
M  V30 3288 H 319.417 6.50685 -0.793033 0
M  V30 3289 H 318.937 5.94121 0.823445 0
M  V30 3290 H 320.616 6.44945 0.515252 0
M  V30 3291 N 320.748 -0.0735177 1.57428 0
M  V30 3292 C 321.997 -0.771809 1.86349 0
M  V30 3293 C 322.31 -1.78828 0.792452 0
M  V30 3294 O 323.516 -2.53602 0.96945 0
M  V30 3295 C 321.972 -1.42358 3.30548 0
M  V30 3296 C 321.58 -0.445761 4.45777 0
M  V30 3297 C 323.324 -2.10434 3.6867 0
M  V30 3298 C 321.231 -1.10335 5.81016 0
M  V30 3299 H 320.161 -0.291999 0.695164 0
M  V30 3300 H 322.812 -0.0250749 1.83483 0
M  V30 3301 H 321.194 -2.21852 3.28021 0
M  V30 3302 H 322.368 0.319239 4.59693 0
M  V30 3303 H 320.683 0.130457 4.16196 0
M  V30 3304 H 323.28 -2.60405 4.67004 0
M  V30 3305 H 323.623 -2.90298 2.98383 0
M  V30 3306 H 324.156 -1.37773 3.7318 0
M  V30 3307 H 320.895 -0.345061 6.54591 0
M  V30 3308 H 320.415 -1.83925 5.70904 0
M  V30 3309 H 322.094 -1.62367 6.26295 0
M  V30 3310 N 322.226 -1.5378 -0.344866 0
M  V30 3311 C 323.189 -1.80981 -1.40637 0
M  V30 3312 C 324.189 -0.680816 -1.45676 0
M  V30 3313 O 325.379 -0.949095 -1.46075 0
M  V30 3314 C 322.511 -1.95063 -2.79577 0
M  V30 3315 H 323.704 -2.75803 -1.17783 0
M  V30 3316 H 321.257 -1.45173 -0.579181 0
M  V30 3317 H 321.992 -1.02379 -3.07716 0
M  V30 3318 H 321.777 -2.77198 -2.77315 0
M  V30 3319 H 323.267 -2.17629 -3.56409 0
M  V30 3320 N 323.704 0.605807 -1.45491 0
M  V30 3321 C 325.115 1.18777 -1.44045 0
M  V30 3322 C 325.466 1.95471 -0.169001 0
M  V30 3323 O 324.591 2.0374 0.729324 0
M  V30 3324 C 325.186 2.16064 -2.60963 0
M  V30 3325 C 323.745 2.69633 -2.62631 0
M  V30 3326 C 322.892 1.45072 -2.36325 0
M  V30 3327 H 325.843 0.395017 -1.53705 0
M  V30 3328 H 325.864 2.9913 -2.35163 0
M  V30 3329 H 325.376 1.60217 -3.53486 0
M  V30 3330 H 323.477 3.29414 -1.74119 0
M  V30 3331 H 323.59 3.13944 -3.61906 0
M  V30 3332 H 321.954 1.74089 -1.85917 0
M  V30 3333 H 322.737 0.910899 -3.30995 0
M  V30 3334 N 325.182 1.32811 0.848464 0
M  V30 3335 C 326.459 1.14334 1.58704 0
M  V30 3336 C 326.839 -0.293948 2.09043 0
M  V30 3337 O 326.187 -1.29153 1.88499 0
M  V30 3338 C 326.397 2.17626 2.72837 0
M  V30 3339 C 327.745 2.51282 3.42261 0
M  V30 3340 O 328.769 2.16219 2.83068 0
M  V30 3341 O 327.628 3.11413 4.49093 0
M  V30 3342 H 324.722 0.441601 0.699226 0
M  V30 3343 H 327.268 1.44362 0.892053 0
M  V30 3344 H 326.04 3.14211 2.3321 0
M  V30 3345 H 325.663 1.88628 3.50008 0
M  V30 3346 N 326.66 -1.06551 1.16123 0
M  V30 3347 C 327.623 -2.12132 0.867906 0
M  V30 3348 C 328.623 -1.60224 -0.135944 0
M  V30 3349 O 329.813 -1.73943 0.0946422 0
M  V30 3350 C 326.945 -3.396 0.297419 0
M  V30 3351 H 328.138 -2.39586 1.80385 0
M  V30 3352 H 325.691 -1.22574 0.969812 0
M  V30 3353 H 326.426 -3.17794 -0.64633 0
M  V30 3354 H 326.211 -3.78581 1.02073 0
M  V30 3355 H 327.701 -4.17455 0.110052 0
M  V30 3356 N 328.138 -0.959301 -1.25041 0
M  V30 3357 C 329.086 -0.474437 -2.2771 0
M  V30 3358 C 330.08 0.457697 -1.631 0
M  V30 3359 O 331.286 0.333912 -1.76876 0
M  V30 3360 H 327.661 -0.134936 -0.739795 0
M  V30 3361 H 329.632 -1.35251 -2.65988 0
M  V30 3362 C 328.381 0.227884 -3.46952 0
M  V30 3363 H 327.704 -0.480248 -3.96905 0
M  V30 3364 H 329.144 0.531091 -4.20661 0
M  V30 3365 C 327.603 1.452 -3.04004 0
M  V30 3366 O 328.133 2.54949 -3.10426 0
M  V30 3367 N 326.339 1.31502 -2.59144 0
M  V30 3368 H 325.886 0.422065 -2.54119 0
M  V30 3369 H 325.844 2.13521 -2.30773 0
M  V30 3370 N 329.616 1.39756 -0.72842 0
M  V30 3371 C 330.579 2.29012 -0.0927297 0
M  V30 3372 C 331.579 1.45992 0.674025 0
M  V30 3373 O 332.769 1.66749 0.50402 0
M  V30 3374 C 329.901 3.29396 0.878137 0
M  V30 3375 H 331.094 2.86729 -0.879011 0
M  V30 3376 H 328.647 1.48293 -0.493847 0
M  V30 3377 H 329.382 2.76722 1.69101 0
M  V30 3378 H 329.167 3.907 0.331051 0
M  V30 3379 H 330.657 3.96199 1.3197 0
M  V30 3380 N 331.094 0.475555 1.50254 0
M  V30 3381 C 332.024 -0.30611 2.31485 0
M  V30 3382 C 333.005 -0.986228 1.38591 0
M  V30 3383 O 334.19 -0.982541 1.67511 0
M  V30 3384 C 331.32 -1.38588 3.1845 0
M  V30 3385 C 330.274 -0.827115 4.19932 0
M  V30 3386 C 329.6 -2.00551 4.95665 0
M  V30 3387 C 330.9 0.16463 5.2204 0
M  V30 3388 H 332.594 0.371866 2.97082 0
M  V30 3389 H 330.14 0.180282 1.42867 0
M  V30 3390 H 332.093 -1.94023 3.74076 0
M  V30 3391 H 330.817 -2.09269 2.50747 0
M  V30 3392 H 329.476 -0.294702 3.65414 0
M  V30 3393 H 329.124 -2.6994 4.2443 0
M  V30 3394 H 328.824 -1.63784 5.64313 0
M  V30 3395 H 330.348 -2.56468 5.54127 0
M  V30 3396 H 331.762 -0.300699 5.72511 0
M  V30 3397 H 330.159 0.446813 5.98434 0
M  V30 3398 H 331.229 1.08905 4.72512 0
M  V30 3399 N 332.573 -1.56217 0.208337 0
M  V30 3400 C 333.984 -1.84243 -0.301904 0
M  V30 3401 C 334.335 -1.12939 -1.60434 0
M  V30 3402 O 333.46 -0.39461 -2.12772 0
M  V30 3403 C 334.055 -3.34231 -0.554543 0
M  V30 3404 C 332.614 -3.62621 -1.00912 0
M  V30 3405 C 331.761 -2.77224 -0.064933 0
M  V30 3406 H 334.712 -1.52712 0.431833 0
M  V30 3407 H 334.733 -3.5372 -1.40223 0
M  V30 3408 H 334.245 -3.86099 0.393561 0
M  V30 3409 H 332.346 -3.16197 -1.97104 0
M  V30 3410 H 332.459 -4.7071 -0.892674 0
M  V30 3411 H 330.823 -2.48256 -0.56929 0
M  V30 3412 H 331.606 -3.31887 0.877851 0
M  V30 3413 N 334.051 0.0651679 -1.57465 0
M  V30 3414 C 335.014 1.06117 -2.03155 0
M  V30 3415 C 336.014 1.31204 -0.929632 0
M  V30 3416 O 337.204 1.26813 -1.19432 0
M  V30 3417 C 334.336 2.4032 -2.41783 0
M  V30 3418 H 335.529 0.667231 -2.92383 0
M  V30 3419 H 333.082 0.311075 -1.53173 0
M  V30 3420 H 333.817 2.84532 -1.55601 0
M  V30 3421 H 333.602 2.23451 -3.22199 0
M  V30 3422 H 335.092 3.11898 -2.77685 0
M  V30 3423 N 335.529 1.53961 0.336706 0
M  V30 3424 C 336.492 1.81724 1.39675 0
M  V30 3425 C 337.492 0.688532 1.45313 0
M  V30 3426 O 338.682 0.956829 1.45569 0
M  V30 3427 C 335.814 1.96543 2.78538 0
M  V30 3428 H 337.007 2.76424 1.16318 0
M  V30 3429 H 334.56 1.45478 0.571474 0
M  V30 3430 H 335.295 1.0401 3.07168 0
M  V30 3431 H 335.08 2.78665 2.75841 0
M  V30 3432 H 336.57 2.19516 3.5525 0
M  V30 3433 N 337.007 -0.598083 1.45811 0
M  V30 3434 C 337.97 -1.69018 1.54808 0
M  V30 3435 C 338.97 -1.55037 0.426652 0
M  V30 3436 O 340.16 -1.59932 0.690456 0
M  V30 3437 C 337.292 -3.0835 1.45371 0
M  V30 3438 H 338.485 -1.62403 2.52121 0
M  V30 3439 H 336.038 -0.814626 1.33392 0
M  V30 3440 H 336.773 -3.20534 0.492793 0
M  V30 3441 H 336.558 -3.19907 2.26721 0
M  V30 3442 H 338.048 -3.8788 1.54721 0
M  V30 3443 N 338.485 -1.33259 -0.841409 0
M  V30 3444 C 339.417 -1.19136 -1.95804 0
M  V30 3445 C 340.43 -0.122965 -1.62335 0
M  V30 3446 O 341.619 -0.373154 -1.74556 0
M  V30 3447 C 338.719 -0.804268 -3.29218 0
M  V30 3448 C 337.892 -1.96376 -3.90839 0
M  V30 3449 C 336.951 -1.55806 -5.02604 0
M  V30 3450 O 335.977 -2.27203 -5.21888 0
M  V30 3451 N 337.179 -0.461609 -5.78662 0
M  V30 3452 H 339.944 -2.15326 -2.08458 0
M  V30 3453 H 337.505 -1.25971 -1.017 0
M  V30 3454 H 339.497 -0.51501 -4.0141 0
M  V30 3455 H 338.067 0.0668809 -3.12528 0
M  V30 3456 H 337.287 -2.41879 -3.11269 0
M  V30 3457 H 338.575 -2.73966 -4.28742 0
M  V30 3458 H 337.973 0.132343 -5.65545 0
M  V30 3459 H 336.53 -0.232013 -6.51387 0
M  V30 3460 N 339.963 1.05934 -1.16686 0
M  V30 3461 C 340.926 2.11669 -0.879144 0
M  V30 3462 C 341.926 1.60294 0.127445 0
M  V30 3463 O 343.116 1.7389 -0.103865 0
M  V30 3464 C 340.248 3.39438 -0.315425 0
M  V30 3465 H 341.441 2.38626 -1.81653 0
M  V30 3466 H 338.994 1.22058 -0.976299 0
M  V30 3467 H 339.729 3.18132 0.629468 0
M  V30 3468 H 339.514 3.78034 -1.04079 0
M  V30 3469 H 341.004 4.17391 -0.132189 0
M  V30 3470 N 341.441 0.965919 1.2453 0
M  V30 3471 C 342.404 0.499547 2.2369 0
M  V30 3472 C 343.404 -0.40294 1.5567 0
M  V30 3473 O 344.594 -0.19865 1.73064 0
M  V30 3474 C 341.726 -0.276792 3.39774 0
M  V30 3475 H 342.919 1.37613 2.66463 0
M  V30 3476 H 340.472 0.750324 1.37112 0
M  V30 3477 H 341.207 -1.17055 3.02438 0
M  V30 3478 H 340.992 0.370826 3.90343 0
M  V30 3479 H 342.482 -0.592175 4.1338 0
M  V30 3480 N 342.919 -1.39368 0.735821 0
M  V30 3481 C 343.829 -2.34395 0.0979693 0
M  V30 3482 C 344.845 -1.58361 -0.720968 0
M  V30 3483 O 346.021 -1.90648 -0.649245 0
M  V30 3484 C 343.086 -3.37393 -0.797916 0
M  V30 3485 C 342.147 -4.29287 0.0333662 0
M  V30 3486 C 341.38 -5.27365 -0.819854 0
M  V30 3487 O 341.603 -5.31959 -2.05855 0
M  V30 3488 O 340.537 -6.01389 -0.248079 0
M  V30 3489 H 344.363 -2.90601 0.882315 0
M  V30 3490 H 341.948 -1.40909 0.4965 0
M  V30 3491 H 343.83 -4.00505 -1.31048 0
M  V30 3492 H 342.505 -2.83571 -1.56106 0
M  V30 3493 H 341.412 -3.69395 0.591475 0
M  V30 3494 H 342.745 -4.86317 0.758752 0
M  V30 3495 N 344.397 -0.483516 -1.5 0
M  V30 3496 C 345.345 0.318061 -2.30415 0
M  V30 3497 C 346.339 0.978988 -1.38247 0
M  V30 3498 O 347.545 0.908673 -1.55381 0
M  V30 3499 H 343.92 0.121419 -0.742133 0
M  V30 3500 H 345.891 -0.380403 -2.95965 0
M  V30 3501 C 344.64 1.38013 -3.19136 0
M  V30 3502 H 343.963 0.880952 -3.89973 0
M  V30 3503 H 345.403 1.91332 -3.78375 0
M  V30 3504 C 343.862 2.38884 -2.37563 0
M  V30 3505 O 344.392 3.44412 -2.06744 0
M  V30 3506 N 342.598 2.10912 -1.99911 0
M  V30 3507 H 342.145 1.25118 -2.25174 0
M  V30 3508 H 342.103 2.78635 -1.45636 0
M  V30 3509 N 345.875 1.56104 -0.216619 0
M  V30 3510 C 346.805 2.23063 0.690296 0
M  V30 3511 C 347.786 1.20072 1.20485 0
M  V30 3512 O 348.971 1.48643 1.24976 0
M  V30 3513 C 346.101 2.90672 1.90072 0
M  V30 3514 C 345.055 4.00092 1.5202 0
M  V30 3515 C 344.381 4.54972 2.80899 0
M  V30 3516 C 345.681 5.17398 0.71391 0
M  V30 3517 H 347.375 2.99109 0.132038 0
M  V30 3518 H 344.921 1.43866 0.0620664 0
M  V30 3519 H 346.874 3.36204 2.54057 0
M  V30 3520 H 345.598 2.12066 2.48386 0
M  V30 3521 H 344.257 3.55283 0.903839 0
M  V30 3522 H 343.905 3.73102 3.37348 0
M  V30 3523 H 343.605 5.28817 2.56176 0
M  V30 3524 H 345.129 5.0322 3.45836 0
M  V30 3525 H 346.543 5.59342 1.25735 0
M  V30 3526 H 344.94 5.97444 0.563951 0
M  V30 3527 H 346.01 4.84088 -0.280527 0
M  V30 3528 N 347.353 -0.0568162 1.57498 0
M  V30 3529 C 348.3 -1.06591 2.04712 0
M  V30 3530 C 349.27 -1.3758 0.930644 0
M  V30 3531 O 350.455 -1.48392 1.19935 0
M  V30 3532 C 347.595 -2.3701 2.50839 0
M  V30 3533 C 346.708 -2.12421 3.76167 0
M  V30 3534 C 345.843 -3.36511 4.11015 0
M  V30 3535 C 344.882 -3.07353 5.2934 0
M  V30 3536 N 344.019 -4.23816 5.59754 0
M  V30 3537 H 348.859 -0.65631 2.90683 0
M  V30 3538 H 346.396 -0.312481 1.43743 0
M  V30 3539 H 348.354 -3.13175 2.7564 0
M  V30 3540 H 346.984 -2.75744 1.67825 0
M  V30 3541 H 346.036 -1.2688 3.58616 0
M  V30 3542 H 347.348 -1.86894 4.62463 0
M  V30 3543 H 346.502 -4.21062 4.36797 0
M  V30 3544 H 345.241 -3.65128 3.23315 0
M  V30 3545 H 344.246 -2.212 5.03339 0
M  V30 3546 H 345.471 -2.80043 6.1867 0
M  V30 3547 H 343.417 -4.52436 4.75014 0
M  V30 3548 H 343.334 -4.01614 6.40501 0
M  V30 3549 H 344.602 -5.0932 5.90096 0
M  V30 3550 N 348.832 -1.54138 -0.328536 0
M  V30 3551 C 350.248 -1.44736 -0.672574 0
M  V30 3552 C 350.448 -0.616217 -1.91846 0
M  V30 3553 O 349.504 -0.113067 -2.52247 0
M  V30 3554 C 350.817 -2.884 -0.851217 0
M  V30 3555 C 352.365 -2.98271 -0.948877 0
M  V30 3556 C 352.84 -4.43074 -1.15973 0
M  V30 3557 N 354.331 -4.46665 -1.22658 0
M  V30 3558 C 355.066 -5.55857 -1.40751 0
M  V30 3559 N 354.562 -6.75026 -1.5592 0
M  V30 3560 N 356.355 -5.43495 -1.4342 0
M  V30 3561 H 348.506 -2.06661 0.490421 0
M  V30 3562 H 350.769 -0.934812 0.157579 0
M  V30 3563 H 350.475 -3.51699 -0.00704236 0
M  V30 3564 H 350.349 -3.34225 -1.74853 0
M  V30 3565 H 352.736 -2.35102 -1.78356 0
M  V30 3566 H 352.817 -2.55785 -0.0281435 0
M  V30 3567 H 352.461 -5.06827 -0.329915 0
M  V30 3568 H 352.391 -4.83165 -2.09426 0
M  V30 3569 H 354.882 -3.60797 -1.124 0
M  V30 3570 H 355.195 -7.54004 -1.69404 0
M  V30 3571 H 353.54 -6.77944 -1.53027 0
M  V30 3572 H 356.731 -4.49349 -1.31162 0
M  V30 3573 H 356.904 -6.28649 -1.57178 0
M  V30 3574 N 350.31 0.590341 -1.46126 0
M  V30 3575 C 351.258 1.72105 -1.5647 0
M  V30 3576 C 352.252 1.63756 -0.433612 0
M  V30 3577 O 353.458 1.69342 -0.610194 0
M  V30 3578 H 349.833 0.568889 -0.491802 0
M  V30 3579 H 351.804 1.6051 -2.51553 0
M  V30 3580 C 350.553 3.10493 -1.56491 0
M  V30 3581 H 349.876 3.17583 -2.4286 0
M  V30 3582 H 351.316 3.8939 -1.67785 0
M  V30 3583 C 349.775 3.3563 -0.292231 0
M  V30 3584 O 350.305 3.96875 0.620739 0
M  V30 3585 N 348.511 2.90026 -0.182523 0
M  V30 3586 H 348.058 2.40367 -0.926356 0
M  V30 3587 H 348.016 3.07218 0.668152 0
M  V30 3588 N 351.788 1.33704 0.83433 0
M  V30 3589 C 352.736 1.24323 1.96587 0
M  V30 3590 C 353.73 0.143659 1.6879 0
M  V30 3591 O 354.936 0.30791 1.77347 0
M  V30 3592 H 351.311 0.385925 0.645419 0
M  V30 3593 H 353.282 2.19978 2.01624 0
M  V30 3594 C 352.031 1.00394 3.32891 0
M  V30 3595 H 351.354 1.84231 3.54822 0
M  V30 3596 H 352.794 0.97862 4.12552 0
M  V30 3597 C 351.253 -0.293047 3.35623 0
M  V30 3598 O 351.783 -1.29823 3.80143 0
M  V30 3599 N 349.989 -0.322174 2.88809 0
M  V30 3600 H 349.536 0.496379 2.52772 0
M  V30 3601 H 349.494 -1.18977 2.91019 0
M  V30 3602 N 353.266 -1.05314 1.17247 0
M  V30 3603 C 354.196 -2.1498 0.911362 0
M  V30 3604 C 355.177 -1.69471 -0.146169 0
M  V30 3605 O 356.362 -1.942 0.003812 0
M  V30 3606 C 353.492 -3.4472 0.422528 0
M  V30 3607 C 352.446 -4.03789 1.4191 0
M  V30 3608 C 351.772 -5.28858 0.788274 0
M  V30 3609 C 353.072 -4.41418 2.7919 0
M  V30 3610 H 354.766 -2.3708 1.82848 0
M  V30 3611 H 352.312 -1.13938 0.880569 0
M  V30 3612 H 354.265 -4.20787 0.227289 0
M  V30 3613 H 352.989 -3.22269 -0.530123 0
M  V30 3614 H 351.648 -3.2979 1.60106 0
M  V30 3615 H 351.296 -5.02709 -0.171173 0
M  V30 3616 H 350.996 -5.69338 1.45353 0
M  V30 3617 H 352.52 -6.07612 0.603282 0
M  V30 3618 H 353.934 -5.08524 2.64719 0
M  V30 3619 H 352.331 -4.92913 3.42282 0
M  V30 3620 H 353.401 -3.51819 3.33693 0
M  V30 3621 N 354.744 -0.972509 -1.24016 0
M  V30 3622 C 355.707 -0.511403 -2.23422 0
M  V30 3623 C 356.707 0.394679 -1.55881 0
M  V30 3624 O 357.897 0.189469 -1.73167 0
M  V30 3625 C 355.029 0.258769 -3.39916 0
M  V30 3626 H 356.222 -1.39024 -2.6573 0
M  V30 3627 H 353.775 -0.757585 -1.36713 0
M  V30 3628 H 354.51 1.1545 -3.03054 0
M  V30 3629 H 354.295 -0.391522 -3.9014 0
M  V30 3630 H 355.785 0.570244 -4.13688 0
M  V30 3631 N 356.222 1.38976 -0.743202 0
M  V30 3632 C 357.471 1.99581 -0.291592 0
M  V30 3633 C 357.784 1.59656 1.13001 0
M  V30 3634 O 358.99 2.13157 1.68156 0
M  V30 3635 C 357.446 3.56813 -0.470391 0
M  V30 3636 C 357.054 4.05695 -1.90041 0
M  V30 3637 C 358.798 4.24423 -0.0809709 0
M  V30 3638 C 356.705 5.5553 -2.02832 0
M  V30 3639 H 355.635 0.746615 -0.105272 0
M  V30 3640 H 358.286 1.58872 -0.918258 0
M  V30 3641 H 356.668 3.95359 0.225299 0
M  V30 3642 H 357.842 3.78464 -2.62872 0
M  V30 3643 H 356.157 3.50775 -2.24379 0
M  V30 3644 H 358.754 5.34474 -0.155445 0
M  V30 3645 H 359.097 4.04962 0.96497 0
M  V30 3646 H 359.63 3.9108 -0.728124 0
M  V30 3647 H 356.369 5.79881 -3.05643 0
M  V30 3648 H 355.889 5.84537 -1.34448 0
M  V30 3649 H 357.568 6.21069 -1.81335 0
M  V30 3650 N 357.7 0.491464 1.49741 0
M  V30 3651 C 358.946 -0.0565092 2.02721 0
M  V30 3652 C 359.279 -1.37522 1.37118 0
M  V30 3653 O 358.554 -1.87866 0.503645 0
M  V30 3654 C 358.837 -0.219051 3.59433 0
M  V30 3655 C 358.69 1.12211 4.35579 0
M  V30 3656 C 360.009 -0.964157 4.29409 0
M  V30 3657 H 357.128 -0.0190627 0.736753 0
M  V30 3658 H 359.77 0.641021 1.7886 0
M  V30 3659 H 357.92 -0.813165 3.79895 0
M  V30 3660 H 359.592 1.75437 4.26637 0
M  V30 3661 H 357.835 1.71377 3.98513 0
M  V30 3662 H 358.506 0.961794 5.43556 0
M  V30 3663 H 360.982 -0.460378 4.13545 0
M  V30 3664 H 359.858 -1.04671 5.38828 0
M  V30 3665 H 360.119 -2.00563 3.93988 0
M  V30 3666 N 359.178 -1.55987 0.224894 0
M  V30 3667 C 360.426 -1.97998 -0.405099 0
M  V30 3668 C 360.747 -1.11387 -1.60056 0
M  V30 3669 O 360.017 -0.191645 -1.9496 0
M  V30 3670 H 358.597 -0.731235 -0.152658 0
M  V30 3671 H 361.259 -1.92279 0.318567 0
M  V30 3672 H 360.355 -3.03463 -0.729167 0
M  V30 3673 N 360.656 0.0484629 -1.57525 0
M  V30 3674 C 361.903 0.743125 -1.88372 0
M  V30 3675 C 362.231 1.76383 -0.819715 0
M  V30 3676 O 361.486 1.94855 0.181659 0
M  V30 3677 C 361.785 1.46632 -3.25935 0
M  V30 3678 C 361.451 0.583427 -4.4711 0
M  V30 3679 C 360.113 0.340191 -4.79996 0
M  V30 3680 C 362.465 -0.0273345 -5.21193 0
M  V30 3681 C 359.793 -0.522903 -5.84365 0
M  V30 3682 C 362.145 -0.878017 -6.26477 0
M  V30 3683 C 360.809 -1.1309 -6.5785 0
M  V30 3684 H 360.079 0.271929 -0.689301 0
M  V30 3685 H 362.726 0.00336166 -1.915 0
M  V30 3686 H 361.031 2.2789 -3.18706 0
M  V30 3687 H 362.728 2.00902 -3.47044 0
M  V30 3688 H 359.318 0.783151 -4.21384 0
M  V30 3689 H 363.502 0.147654 -4.9608 0
M  V30 3690 H 358.758 -0.727335 -6.07058 0
M  V30 3691 H 362.932 -1.35789 -6.83033 0
M  V30 3692 H 360.559 -1.80144 -7.38547 0
M  V30 3693 N 362.134 1.5431 0.320358 0
M  V30 3694 C 363.359 1.76954 1.08175 0
M  V30 3695 C 363.784 0.518193 1.80821 0
M  V30 3696 O 363.142 -0.530411 1.73368 0
M  V30 3697 C 363.19 2.96451 2.05303 0
M  V30 3698 O 362.294 2.68221 3.13259 0
M  V30 3699 H 361.635 0.586275 0.311733 0
M  V30 3700 H 364.165 2.01342 0.363676 0
M  V30 3701 H 364.175 3.23887 2.48116 0
M  V30 3702 H 362.85 3.87196 1.51829 0
M  V30 3703 H 361.427 2.51744 2.75099 0
M  V30 3704 N 363.613 -0.582584 1.46437 0
M  V30 3705 C 364.841 -1.36682 1.55324 0
M  V30 3706 C 365.256 -1.87796 0.194409 0
M  V30 3707 O 364.613 -1.63623 -0.808318 0
M  V30 3708 C 364.664 -2.55426 2.55812 0
M  V30 3709 O 364.385 -2.0643 3.86417 0
M  V30 3710 C 365.886 -3.47976 2.74641 0
M  V30 3711 H 363.106 -0.417545 0.525259 0
M  V30 3712 H 365.65 -0.708219 1.91845 0
M  V30 3713 H 363.805 -3.17275 2.22295 0
M  V30 3714 H 364.219 -2.83762 4.41111 0
M  V30 3715 H 365.693 -4.27775 3.48874 0
M  V30 3716 H 366.17 -3.99919 1.81553 0
M  V30 3717 H 366.776 -2.91962 3.09255 0
M  V30 3718 N 365.091 -1.34144 -0.827227 0
M  V30 3719 C 366.502 -1.23557 -1.39966 0
M  V30 3720 C 366.853 0.140731 -1.95695 0
M  V30 3721 O 365.978 1.04087 -1.89723 0
M  V30 3722 C 366.573 -2.23708 -2.54441 0
M  V30 3723 C 365.132 -2.16924 -3.07605 0
M  V30 3724 C 364.279 -2.10549 -1.80456 0
M  V30 3725 H 367.23 -1.45573 -0.631991 0
M  V30 3726 H 367.251 -1.85157 -3.32411 0
M  V30 3727 H 366.763 -3.23866 -2.13851 0
M  V30 3728 H 364.864 -1.20107 -3.52711 0
M  V30 3729 H 364.977 -3.07988 -3.66988 0
M  V30 3730 H 363.341 -1.56203 -2.01178 0
M  V30 3731 H 364.124 -3.12535 -1.42046 0
M  V30 3732 N 366.569 1.04691 -1.17803 0
M  V30 3733 C 367.517 2.14665 -0.895635 0
M  V30 3734 C 368.511 1.68806 0.141679 0
M  V30 3735 O 369.717 1.79999 -0.00587914 0
M  V30 3736 H 366.092 0.701038 -0.272121 0
M  V30 3737 H 368.063 2.35685 -1.83017 0
M  V30 3738 C 366.812 3.45019 -0.430962 0
M  V30 3739 H 366.135 3.8071 -1.22064 0
M  V30 3740 H 367.575 4.23125 -0.272301 0
M  V30 3741 C 366.034 3.25943 0.852207 0
M  V30 3742 O 366.564 3.5296 1.91786 0
M  V30 3743 N 364.77 2.79304 0.802346 0
M  V30 3744 H 364.317 2.57518 -0.0650788 0
M  V30 3745 H 364.275 2.66921 1.66134 0
M  V30 3746 N 368.047 0.979072 1.23499 0
M  V30 3747 C 369.293 0.648178 1.92163 0
M  V30 3748 C 369.626 -0.816049 1.76222 0
M  V30 3749 O 368.901 -1.58849 1.12237 0
M  V30 3750 C 369.184 1.03773 3.44824 0
M  V30 3751 C 369.037 2.55948 3.69879 0
M  V30 3752 C 370.356 0.580653 4.36253 0
M  V30 3753 H 367.475 0.236952 0.69787 0
M  V30 3754 H 370.117 1.22012 1.45647 0
M  V30 3755 H 368.267 0.551058 3.84572 0
M  V30 3756 H 369.939 3.12179 3.3962 0
M  V30 3757 H 368.182 2.98641 3.14636 0
M  V30 3758 H 368.853 2.78255 4.76737 0
M  V30 3759 H 371.329 0.998465 4.03943 0
M  V30 3760 H 370.205 0.881663 5.41773 0
M  V30 3761 H 370.466 -0.519052 4.39042 0
M  V30 3762 N 369.525 -1.3858 0.750561 0
M  V30 3763 C 370.458 -2.28095 0.0693139 0
M  V30 3764 C 371.436 -1.45217 -0.731491 0
M  V30 3765 O 372.62 -1.74587 -0.71076 0
M  V30 3766 C 369.747 -3.26282 -0.90871 0
M  V30 3767 C 368.793 -4.26056 -0.194507 0
M  V30 3768 S 369.626 -5.24026 1.10257 0
M  V30 3769 C 370.782 -6.2577 0.127542 0
M  V30 3770 H 371.015 -2.85526 0.8284 0
M  V30 3771 H 368.548 -1.44536 0.543014 0
M  V30 3772 H 370.506 -3.83367 -1.46766 0
M  V30 3773 H 369.167 -2.6784 -1.64075 0
M  V30 3774 H 368.36 -4.95249 -0.93512 0
M  V30 3775 H 367.962 -3.72852 0.292837 0
M  V30 3776 H 370.254 -6.73796 -0.707516 0
M  V30 3777 H 371.197 -7.03712 0.787044 0
M  V30 3778 H 371.605 -5.63938 -0.251803 0
M  V30 3779 N 371.003 -0.499398 -1.49478 0
M  V30 3780 C 372.419 -0.155261 -1.58843 0
M  V30 3781 C 372.619 1.34008 -1.50479 0
M  V30 3782 O 371.675 2.11589 -1.37791 0
M  V30 3783 C 372.988 -0.730636 -2.91689 0
M  V30 3784 C 374.536 -0.696599 -3.0515 0
M  V30 3785 C 375.011 -1.25001 -4.40612 0
M  V30 3786 N 376.502 -1.21064 -4.47099 0
M  V30 3787 C 377.237 -1.60905 -5.50361 0
M  V30 3788 N 376.733 -2.08331 -6.60735 0
M  V30 3789 N 378.526 -1.52331 -5.41065 0
M  V30 3790 H 370.677 -1.47162 -1.53158 0
M  V30 3791 H 372.94 -0.610309 -0.725415 0
M  V30 3792 H 372.646 -1.77928 -3.03372 0
M  V30 3793 H 372.52 -0.190161 -3.7672 0
M  V30 3794 H 374.907 0.343204 -2.93097 0
M  V30 3795 H 374.988 -1.2742 -2.21806 0
M  V30 3796 H 374.632 -2.28859 -4.53416 0
M  V30 3797 H 374.562 -0.64836 -5.22593 0
M  V30 3798 H 377.053 -0.863128 -3.67911 0
M  V30 3799 H 377.366 -2.36805 -7.35624 0
M  V30 3800 H 375.711 -2.12304 -6.6178 0
M  V30 3801 H 378.902 -1.151 -4.53729 0
M  V30 3802 H 379.075 -1.83704 -6.21415 0
M  V30 3803 N 372.481 1.55866 -0.233164 0
M  V30 3804 C 373.892 1.847 0.272554 0
M  V30 3805 C 374.243 1.15477 1.58617 0
M  V30 3806 O 373.368 0.42841 2.12117 0
M  V30 3807 C 373.963 3.35071 0.501299 0
M  V30 3808 C 372.522 3.6418 0.951304 0
M  V30 3809 C 371.669 2.77292 0.0208209 0
M  V30 3810 H 374.62 1.52005 -0.456074 0
M  V30 3811 H 374.641 3.55906 1.34577 0
M  V30 3812 H 374.153 3.85424 -0.454936 0
M  V30 3813 H 372.254 3.19293 1.92049 0
M  V30 3814 H 372.367 4.72071 0.817675 0
M  V30 3815 H 370.731 2.49131 0.529723 0
M  V30 3816 H 371.514 3.30448 -0.93054 0
M  V30 3817 N 373.959 -0.0401083 1.57549 0
M  V30 3818 C 375.189 -0.744115 1.92734 0
M  V30 3819 C 375.597 -1.70005 0.830348 0
M  V30 3820 O 374.94 -1.82576 -0.20286 0
M  V30 3821 C 375.002 -1.56516 3.2364 0
M  V30 3822 C 374.666 -0.7752 4.50377 0
M  V30 3823 C 375.663 -0.0803326 5.19838 0
M  V30 3824 C 373.348 -0.733002 4.96923 0
M  V30 3825 C 375.342 0.646154 6.34116 0
M  V30 3826 C 373.029 -0.00276321 6.111 0
M  V30 3827 C 374.027 0.685585 6.7955 0
M  V30 3828 O 373.715 1.40399 7.91545 0
M  V30 3829 H 373.447 -0.214861 0.640945 0
M  V30 3830 H 376.001 -0.00503675 2.05399 0
M  V30 3831 H 374.231 -2.3478 3.07271 0
M  V30 3832 H 375.92 -2.15076 3.44234 0
M  V30 3833 H 376.686 -0.104035 4.84888 0
M  V30 3834 H 372.565 -1.25827 4.43496 0
M  V30 3835 H 376.109 1.18398 6.87479 0
M  V30 3836 H 372.006 0.0229012 6.45496 0
M  V30 3837 H 372.774 1.31653 8.07843 0
M  V30 3838 N 375.437 -1.54477 -0.31217 0
M  V30 3839 C 376.683 -1.73483 -1.0503 0
M  V30 3840 C 377.016 -0.513125 -1.87298 0
M  V30 3841 O 376.291 0.489864 -1.8823 0
M  V30 3842 C 376.574 -3.01723 -1.96558 0
M  V30 3843 C 376.427 -4.3417 -1.17545 0
M  V30 3844 C 377.746 -3.25772 -2.95907 0
M  V30 3845 H 374.865 -0.631222 -0.380432 0
M  V30 3846 H 377.507 -1.87184 -0.325932 0
M  V30 3847 H 375.657 -2.90174 -2.58324 0
M  V30 3848 H 377.329 -4.5762 -0.581513 0
M  V30 3849 H 375.572 -4.31159 -0.477925 0
M  V30 3850 H 376.243 -5.20143 -1.84811 0
M  V30 3851 H 378.719 -3.36857 -2.44267 0
M  V30 3852 H 377.595 -4.16838 -3.57123 0
M  V30 3853 H 377.856 -2.43537 -3.68974 0
M  V30 3854 N 376.915 0.57481 -1.46744 0
M  V30 3855 C 377.847 1.69804 -1.53946 0
M  V30 3856 C 378.86 1.57098 -0.427106 0
M  V30 3857 O 380.049 1.64378 -0.695863 0
M  V30 3858 C 377.149 3.08125 -1.4111 0
M  V30 3859 C 376.322 3.46757 -2.66605 0
M  V30 3860 C 375.381 4.6417 -2.47855 0
M  V30 3861 O 374.407 4.69634 -3.21609 0
M  V30 3862 N 375.609 5.59553 -1.54534 0
M  V30 3863 H 378.374 1.64077 -2.50796 0
M  V30 3864 H 375.935 0.761 -1.429 0
M  V30 3865 H 377.927 3.84478 -1.26328 0
M  V30 3866 H 376.497 3.08175 -0.524109 0
M  V30 3867 H 375.717 2.6003 -2.96274 0
M  V30 3868 H 377.005 3.69337 -3.49954 0
M  V30 3869 H 376.403 5.57881 -0.937304 0
M  V30 3870 H 374.96 6.35304 -1.45711 0
M  V30 3871 N 378.394 1.34581 0.820102 0
M  V30 3872 C 379.81 1.14325 1.11364 0
M  V30 3873 C 380.01 -0.0533648 2.01429 0
M  V30 3874 O 379.066 -0.728044 2.41776 0
M  V30 3875 C 380.379 2.43983 1.75764 0
M  V30 3876 C 381.927 2.50065 1.88246 0
M  V30 3877 C 382.402 3.79732 2.56061 0
M  V30 3878 N 383.893 3.80908 2.63558 0
M  V30 3879 C 384.628 4.77961 3.16766 0
M  V30 3880 N 384.124 5.85397 3.70517 0
M  V30 3881 N 385.917 4.65413 3.15194 0
M  V30 3882 H 378.068 2.11246 0.221096 0
M  V30 3883 H 380.331 0.934289 0.160649 0
M  V30 3884 H 380.037 3.31651 1.1705 0
M  V30 3885 H 379.911 2.57531 2.75604 0
M  V30 3886 H 382.298 1.62834 2.46108 0
M  V30 3887 H 382.379 2.40442 0.873006 0
M  V30 3888 H 382.023 4.67354 1.98853 0
M  V30 3889 H 381.953 3.86639 3.57516 0
M  V30 3890 H 384.444 3.03274 2.25463 0
M  V30 3891 H 384.757 6.55463 4.09376 0
M  V30 3892 H 383.102 5.89107 3.68752 0
M  V30 3893 H 386.293 3.80627 2.72471 0
M  V30 3894 H 386.466 5.41216 3.56356 0
M  V30 3895 N 379.872 -1.04064 1.18357 0
M  V30 3896 C 381.12 -1.76915 0.977013 0
M  V30 3897 C 381.441 -1.88624 -0.494577 0
M  V30 3898 O 380.711 -1.41125 -1.3587 0
M  V30 3899 H 379.291 -0.65535 0.358504 0
M  V30 3900 H 381.953 -1.25592 1.49039 0
M  V30 3901 H 381.049 -2.78178 1.41504 0
M  V30 3902 N 381.35 -0.985608 -1.22978 0
M  V30 3903 C 382.578 -0.675582 -1.95559 0
M  V30 3904 C 382.993 0.758413 -1.72897 0
M  V30 3905 O 382.35 1.51094 -1.02357 0
M  V30 3906 C 382.401 -0.96293 -3.48439 0
M  V30 3907 O 382.122 -2.34057 -3.70336 0
M  V30 3908 C 383.623 -0.669585 -4.38214 0
M  V30 3909 H 380.843 -0.250523 -0.622478 0
M  V30 3910 H 383.387 -1.3184 -1.56328 0
M  V30 3911 H 381.542 -0.366033 -3.85667 0
M  V30 3912 H 381.956 -2.43424 -4.64591 0
M  V30 3913 H 383.43 -0.920967 -5.44263 0
M  V30 3914 H 383.907 0.396383 -4.37408 0
M  V30 3915 H 384.513 -1.2472 -4.06602 0
M  V30 3916 N 382.828 1.3818 -0.7579 0
M  V30 3917 C 384.074 2.00316 -0.316453 0
M  V30 3918 C 384.407 1.60026 1.10025 0
M  V30 3919 O 383.682 0.839835 1.75434 0
M  V30 3920 C 383.965 3.57349 -0.444245 0
M  V30 3921 C 383.818 4.07591 -1.90236 0
M  V30 3922 C 385.137 4.3981 0.1598 0
M  V30 3923 H 382.256 0.727741 -0.116459 0
M  V30 3924 H 384.898 1.6406 -0.958352 0
M  V30 3925 H 383.048 3.88365 0.102233 0
M  V30 3926 H 384.72 3.87199 -2.50748 0
M  V30 3927 H 382.963 3.60297 -2.41595 0
M  V30 3928 H 383.634 5.16677 -1.94291 0
M  V30 3929 H 386.11 4.14971 -0.306314 0
M  V30 3930 H 384.986 5.48885 0.0401675 0
M  V30 3931 H 385.247 4.24102 1.24859 0
M  V30 3932 N 384.306 0.507319 1.49211 0
M  V30 3933 C 385.253 -0.267728 2.29242 0
M  V30 3934 C 386.223 -0.954609 1.35928 0
M  V30 3935 O 387.408 -0.960046 1.64887 0
M  V30 3936 C 384.548 -1.32243 3.18756 0
M  V30 3937 C 383.661 -0.64669 4.27132 0
M  V30 3938 C 382.796 -1.68238 5.03855 0
M  V30 3939 C 381.835 -0.98885 6.0406 0
M  V30 3940 N 380.972 -1.96903 6.73924 0
M  V30 3941 H 385.812 0.420968 2.95012 0
M  V30 3942 H 383.349 0.219443 1.45454 0
M  V30 3943 H 385.307 -1.94599 3.69036 0
M  V30 3944 H 383.937 -1.97981 2.54958 0
M  V30 3945 H 382.989 0.0902926 3.80293 0
M  V30 3946 H 384.301 -0.101058 4.98698 0
M  V30 3947 H 383.455 -2.38081 5.58034 0
M  V30 3948 H 382.194 -2.26187 4.32077 0
M  V30 3949 H 381.199 -0.276222 5.49106 0
M  V30 3950 H 382.424 -0.415767 6.77826 0
M  V30 3951 H 380.37 -2.53803 6.04913 0
M  V30 3952 H 380.287 -1.47423 7.41487 0
M  V30 3953 H 381.555 -2.66015 7.32705 0
M  V30 3954 N 385.784 -1.5574 0.241426 0
M  V30 3955 C 386.694 -2.2479 -0.671305 0
M  V30 3956 C 387.71 -1.26217 -1.19772 0
M  V30 3957 O 388.886 -1.59079 -1.23514 0
M  V30 3958 C 385.951 -2.92966 -1.85396 0
M  V30 3959 C 385.012 -4.06935 -1.36756 0
M  V30 3960 C 384.245 -4.71851 -2.49384 0
M  V30 3961 O 384.468 -4.35823 -3.67987 0
M  V30 3962 O 383.402 -5.60467 -2.19454 0
M  V30 3963 H 387.228 -3.0349 -0.112966 0
M  V30 3964 H 384.813 -1.49397 0.0101513 0
M  V30 3965 H 386.695 -3.35927 -2.54423 0
M  V30 3966 H 385.37 -2.17211 -2.40002 0
M  V30 3967 H 384.277 -3.68503 -0.644726 0
M  V30 3968 H 385.61 -4.84492 -0.867647 0
M  V30 3969 N 387.262 0.0317525 -1.57568 0
M  V30 3970 C 388.509 0.723104 -1.89149 0
M  V30 3971 C 388.837 1.75504 -0.838377 0
M  V30 3972 O 388.092 1.95037 0.160982 0
M  V30 3973 C 388.391 1.43167 -3.27472 0
M  V30 3974 C 388.057 0.535972 -4.47703 0
M  V30 3975 C 386.719 0.289262 -4.8033 0
M  V30 3976 C 389.071 -0.0826125 -5.21135 0
M  V30 3977 C 386.399 -0.584853 -5.83778 0
M  V30 3978 C 388.751 -0.944414 -6.25511 0
M  V30 3979 C 387.415 -1.20061 -6.56614 0
M  V30 3980 H 386.685 0.264602 -0.692146 0
M  V30 3981 H 389.332 -0.0169496 -1.91492 0
M  V30 3982 H 387.637 2.24497 -3.21105 0
M  V30 3983 H 389.334 1.97209 -3.49155 0
M  V30 3984 H 385.924 0.738414 -4.22191 0
M  V30 3985 H 390.108 0.0950302 -4.96209 0
M  V30 3986 H 385.364 -0.79168 -6.06253 0
M  V30 3987 H 389.538 -1.43026 -6.81554 0
M  V30 3988 H 387.165 -1.87967 -7.36595 0
M  V30 3989 N 388.74 1.54641 0.303973 0
M  V30 3990 C 389.988 1.73437 1.0375 0
M  V30 3991 C 390.309 0.521449 1.87899 0
M  V30 3992 O 389.579 -0.46432 1.90318 0
M  V30 3993 H 388.159 0.639518 0.386039 0
M  V30 3994 H 390.821 1.91988 0.335675 0
M  V30 3995 H 389.917 2.62235 1.69231 0
M  V30 3996 N 390.218 -0.567019 1.47046 0
M  V30 3997 C 391.148 -1.68482 1.61667 0
M  V30 3998 C 392.129 -1.6358 0.466418 0
M  V30 3999 O 393.314 -1.81354 0.694574 0
M  V30 4000 C 390.444 -3.07124 1.62148 0
M  V30 4001 C 389.398 -3.26867 2.76301 0
M  V30 4002 C 388.724 -4.66196 2.61849 0
M  V30 4003 C 390.024 -3.13186 4.17986 0
M  V30 4004 H 391.718 -1.56502 2.5524 0
M  V30 4005 H 389.264 -0.751486 1.22836 0
M  V30 4006 H 391.217 -3.8516 1.70968 0
M  V30 4007 H 389.941 -3.2004 0.651287 0
M  V30 4008 H 388.6 -2.51237 2.66975 0
M  V30 4009 H 388.248 -4.75898 1.62879 0
M  V30 4010 H 387.948 -4.80356 3.38425 0
M  V30 4011 H 389.472 -5.46379 2.72584 0
M  V30 4012 H 390.886 -3.81049 4.2834 0
M  V30 4013 H 389.283 -3.3886 4.95272 0
M  V30 4014 H 390.353 -2.10057 4.3704 0
M  V30 4015 N 391.696 -1.35014 -0.812953 0
M  V30 4016 C 392.942 -1.29129 -1.57154 0
M  V30 4017 C 393.297 0.134922 -1.91926 0
M  V30 4018 O 392.59 1.08373 -1.58006 0
M  V30 4019 C 392.784 -2.12524 -2.87347 0
M  V30 4020 C 392.613 -3.6311 -2.65294 0
M  V30 4021 C 391.383 -4.32363 -2.61516 0
M  V30 4022 C 393.581 -4.56897 -2.36114 0
M  V30 4023 N 391.563 -5.68735 -2.31113 0
M  V30 4024 C 392.934 -5.81345 -2.15494 0
M  V30 4025 C 394.989 -4.45706 -2.21925 0
M  V30 4026 C 393.692 -6.95862 -1.82122 0
M  V30 4027 C 395.718 -5.60066 -1.89948 0
M  V30 4028 C 395.08 -6.83539 -1.7016 0
M  V30 4029 H 391.179 -0.527764 -0.577052 0
M  V30 4030 H 393.763 -1.6983 -0.952146 0
M  V30 4031 H 391.934 -1.74104 -3.47192 0
M  V30 4032 H 393.666 -1.98207 -3.5284 0
M  V30 4033 H 390.421 -3.84907 -2.75941 0
M  V30 4034 H 390.845 -6.40694 -2.18724 0
M  V30 4035 H 395.487 -3.50855 -2.35925 0
M  V30 4036 H 393.205 -7.90685 -1.6686 0
M  V30 4037 H 396.791 -5.53357 -1.79687 0
M  V30 4038 H 395.671 -7.70531 -1.45777 0
M  V30 4039 N 393.175 1.03435 -1.18907 0
M  V30 4040 C 394.452 1.73778 -0.89781 0
M  V30 4041 C 394.832 2.02458 0.597832 0
M  V30 4042 O 394.18 1.67482 1.55441 0
M  V30 4043 C 394.39 3.01845 -1.75187 0
M  V30 4044 C 395.738 3.7546 -1.9828 0
M  V30 4045 O 396.762 3.11759 -1.72293 0
M  V30 4046 O 395.621 4.89966 -2.42065 0
M  V30 4047 H 392.715 0.75651 -0.334098 0
M  V30 4048 H 395.261 1.09444 -1.29693 0
M  V30 4049 H 394.033 2.76836 -2.76545 0
M  V30 4050 H 393.656 3.73919 -1.35167 0
M  V30 4051 N 394.653 0.992116 1.22453 0
M  V30 4052 C 395.899 0.668523 1.91464 0
M  V30 4053 C 396.232 -0.797313 1.77078 0
M  V30 4054 O 395.507 -1.5765 1.13916 0
M  V30 4055 C 395.79 1.07424 3.43703 0
M  V30 4056 C 395.643 2.59857 3.67143 0
M  V30 4057 C 396.962 0.626891 4.35612 0
M  V30 4058 H 394.081 0.244341 0.695318 0
M  V30 4059 H 396.723 1.2355 1.44345 0
M  V30 4060 H 394.873 0.591816 3.83966 0
M  V30 4061 H 396.545 3.15764 3.3629 0
M  V30 4062 H 394.788 3.01961 3.11451 0
M  V30 4063 H 395.459 2.83296 4.73759 0
M  V30 4064 H 397.935 1.04125 4.02861 0
M  V30 4065 H 396.811 0.939076 5.40807 0
M  V30 4066 H 397.072 -0.472457 4.39568 0
M  V30 4067 N 396.131 -1.37776 0.765217 0
M  V30 4068 C 397.377 -2.00145 0.327072 0
M  V30 4069 C 397.71 -1.60607 -1.09175 0
M  V30 4070 O 396.985 -0.849127 -1.74986 0
M  V30 4071 C 397.268 -3.57109 0.46319 0
M  V30 4072 C 397.121 -4.06576 1.92395 0
M  V30 4073 C 398.44 -4.39888 -0.136473 0
M  V30 4074 H 395.559 -0.727113 0.120316 0
M  V30 4075 H 398.201 -1.63549 0.967039 0
M  V30 4076 H 396.351 -3.88414 -0.0816358 0
M  V30 4077 H 398.023 -3.85864 2.52798 0
M  V30 4078 H 396.266 -3.59011 2.43503 0
M  V30 4079 H 396.937 -5.15639 1.97028 0
M  V30 4080 H 399.413 -4.14803 0.328317 0
M  V30 4081 H 398.289 -5.48899 -0.0110582 0
M  V30 4082 H 398.55 -4.24758 -1.22608 0
M  V30 4083 N 397.609 -0.515225 -1.4894 0
M  V30 4084 C 398.541 0.292481 -2.27326 0
M  V30 4085 C 399.554 0.917838 -1.3446 0
M  V30 4086 O 400.743 0.798772 -1.5963 0
M  V30 4087 C 397.843 1.42803 -3.07344 0
M  V30 4088 C 397.016 0.907347 -4.27885 0
M  V30 4089 C 396.075 1.92222 -4.89834 0
M  V30 4090 O 395.101 1.48506 -5.49486 0
M  V30 4091 N 396.303 3.25355 -4.80754 0
M  V30 4092 H 399.068 -0.379721 -2.97285 0
M  V30 4093 H 396.629 -0.348638 -1.58102 0
M  V30 4094 H 398.621 2.10481 -3.45658 0
M  V30 4095 H 397.191 2.00414 -2.39902 0
M  V30 4096 H 396.411 0.0550218 -3.94162 0
M  V30 4097 H 397.699 0.538108 -5.05946 0
M  V30 4098 H 397.097 3.6355 -4.33414 0
M  V30 4099 H 395.654 3.88707 -5.23211 0
M  V30 4100 N 399.087 1.5561 -0.249682 0
M  V30 4101 C 400.019 2.18834 0.681496 0
M  V30 4102 C 401.032 1.16546 1.1367 0
M  V30 4103 O 402.221 1.43397 1.06299 0
M  V30 4104 C 399.321 2.77992 1.9384 0
M  V30 4105 C 398.494 4.05725 1.63419 0
M  V30 4106 C 397.553 4.49174 2.74096 0
M  V30 4107 O 396.579 5.15492 2.41364 0
M  V30 4108 N 397.781 4.17191 4.03649 0
M  V30 4109 H 400.546 2.9937 0.140514 0
M  V30 4110 H 398.107 1.6175 -0.0697541 0
M  V30 4111 H 400.099 3.04015 2.67127 0
M  V30 4112 H 398.669 2.01596 2.38909 0
M  V30 4113 H 397.889 3.87261 0.736358 0
M  V30 4114 H 399.177 4.88999 1.40562 0
M  V30 4115 H 398.575 3.63955 4.33074 0
M  V30 4116 H 397.132 4.48043 4.73393 0
M  V30 4117 N 400.565 -0.0233959 1.57583 0
M  V30 4118 C 401.813 -0.711654 1.89156 0
M  V30 4119 C 402.134 -1.75591 0.848096 0
M  V30 4120 O 401.404 -1.95547 -0.117566 0
M  V30 4121 H 399.984 -0.265835 0.698098 0
M  V30 4122 H 402.646 0.0119948 1.94896 0
M  V30 4123 H 401.742 -1.19766 2.88206 0
M  V30 4124 N 402.043 -1.548 -0.295768 0
M  V30 4125 C 402.99 -1.86113 -1.36494 0
M  V30 4126 C 403.96 -0.7105 -1.50137 0
M  V30 4127 O 405.145 -0.959626 -1.64912 0
M  V30 4128 C 402.285 -2.11861 -2.72413 0
M  V30 4129 C 401.398 -3.39471 -2.67177 0
M  V30 4130 C 400.533 -3.55035 -3.95125 0
M  V30 4131 C 399.572 -4.76418 -3.84308 0
M  V30 4132 N 398.709 -4.8876 -5.04042 0
M  V30 4133 H 403.549 -2.77314 -1.09091 0
M  V30 4134 H 401.086 -1.37315 -0.52753 0
M  V30 4135 H 403.044 -2.24786 -3.51464 0
M  V30 4136 H 401.674 -1.2392 -2.98066 0
M  V30 4137 H 400.726 -3.35139 -1.79962 0
M  V30 4138 H 402.038 -4.28646 -2.55076 0
M  V30 4139 H 401.192 -3.67653 -4.82614 0
M  V30 4140 H 399.931 -2.64002 -4.10066 0
M  V30 4141 H 398.936 -4.63827 -2.95202 0
M  V30 4142 H 400.161 -5.68863 -3.70906 0
M  V30 4143 H 398.107 -4.00652 -5.19436 0
M  V30 4144 H 398.024 -5.71945 -4.94384 0
M  V30 4145 H 399.292 -5.0574 -5.93167 0
M  V30 4146 N 403.521 0.559213 -1.47345 0
M  V30 4147 C 404.77 1.31281 -1.53128 0
M  V30 4148 C 405.083 1.94602 -0.197344 0
M  V30 4149 O 406.289 2.71173 -0.133154 0
M  V30 4150 C 404.745 2.38051 -2.69925 0
M  V30 4151 C 404.353 1.8093 -4.0984 0
M  V30 4152 C 406.097 3.14604 -2.84999 0
M  V30 4153 C 404.004 2.85468 -5.1794 0
M  V30 4154 H 402.934 0.493614 -0.569966 0
M  V30 4155 H 405.585 0.594155 -1.73615 0
M  V30 4156 H 403.967 3.12822 -2.42814 0
M  V30 4157 H 405.141 1.12544 -4.46845 0
M  V30 4158 H 403.456 1.16967 -3.99634 0
M  V30 4159 H 406.053 3.92666 -3.62929 0
M  V30 4160 H 406.396 3.68665 -1.93369 0
M  V30 4161 H 406.929 2.46945 -3.1187 0
M  V30 4162 H 403.668 2.36264 -6.1144 0
M  V30 4163 H 403.188 3.52269 -4.85455 0
M  V30 4164 H 404.867 3.48996 -5.44803 0
M  V30 4165 N 404.999 1.35443 0.805782 0
M  V30 4166 C 406.224 1.32037 1.59941 0
M  V30 4167 C 406.649 -0.0994215 1.87837 0
M  V30 4168 O 406.007 -1.06648 1.46615 0
M  V30 4169 C 406.055 2.13354 2.90711 0
M  V30 4170 O 405.159 1.5148 3.83572 0
M  V30 4171 H 404.5 0.452666 0.485787 0
M  V30 4172 H 407.03 1.78496 1.00002 0
M  V30 4173 H 407.04 2.25338 3.40128 0
M  V30 4174 H 405.715 3.16572 2.69732 0
M  V30 4175 H 404.292 1.4834 3.42125 0
M  V30 4176 N 406.477 -1.02803 1.19454 0
M  V30 4177 C 407.723 -1.76478 0.999171 0
M  V30 4178 C 408.056 -1.88456 -0.468828 0
M  V30 4179 O 407.331 -1.40198 -1.34814 0
M  V30 4180 C 407.614 -3.19044 1.66981 0
M  V30 4181 C 407.467 -3.14932 3.21151 0
M  V30 4182 C 408.786 -4.17456 1.39349 0
M  V30 4183 H 405.905 -0.640614 0.364393 0
M  V30 4184 H 408.547 -1.20005 1.47305 0
M  V30 4185 H 406.697 -3.67263 1.2669 0
M  V30 4186 H 408.369 -2.74605 3.70661 0
M  V30 4187 H 406.612 -2.52625 3.52652 0
M  V30 4188 H 407.283 -4.1566 3.63223 0
M  V30 4189 H 409.759 -3.77842 1.74283 0
M  V30 4190 H 408.635 -5.154 1.88823 0
M  V30 4191 H 408.896 -4.40949 0.318813 0
M  V30 4192 N 407.956 -0.998596 -1.21925 0
M  V30 4193 C 409.186 -0.695276 -1.94549 0
M  V30 4194 C 409.594 0.745079 -1.73911 0
M  V30 4195 O 408.937 1.51507 -1.03881 0
M  V30 4196 C 408.999 -0.928485 -3.47303 0
M  V30 4197 C 408.663 -2.35443 -3.91683 0
M  V30 4198 C 409.66 -3.33428 -3.98901 0
M  V30 4199 C 407.345 -2.69038 -4.24174 0
M  V30 4200 C 409.339 -4.63079 -4.37992 0
M  V30 4201 C 407.026 -3.98906 -4.62944 0
M  V30 4202 C 408.024 -4.95738 -4.69822 0
M  V30 4203 O 407.712 -6.23285 -5.07711 0
M  V30 4204 H 407.444 -0.255902 -0.625692 0
M  V30 4205 H 409.998 -1.33767 -1.5587 0
M  V30 4206 H 408.228 -0.228917 -3.86022 0
M  V30 4207 H 409.917 -0.619539 -4.01144 0
M  V30 4208 H 410.683 -3.08807 -3.73983 0
M  V30 4209 H 406.562 -1.94367 -4.18022 0
M  V30 4210 H 410.106 -5.38658 -4.43275 0
M  V30 4211 H 406.003 -4.23314 -4.87314 0
M  V30 4212 H 406.771 -6.27306 -5.25766 0
M  V30 4213 N 409.434 1.37368 -0.772513 0
M  V30 4214 C 410.68 1.99969 -0.337681 0
M  V30 4215 C 411.013 1.61184 1.08321 0
M  V30 4216 O 410.288 0.858395 1.74533 0
M  V30 4217 C 410.571 3.56858 -0.482121 0
M  V30 4218 C 410.424 4.0555 -1.94549 0
M  V30 4219 C 411.743 4.39955 0.113143 0
M  V30 4220 H 408.862 0.726464 -0.124171 0
M  V30 4221 H 411.504 1.63034 -0.975699 0
M  V30 4222 H 409.654 3.88452 0.0610361 0
M  V30 4223 H 411.326 3.84518 -2.54841 0
M  V30 4224 H 409.569 3.57715 -2.45403 0
M  V30 4225 H 410.24 5.14587 -1.9976 0
M  V30 4226 H 412.716 4.14623 -0.35031 0
M  V30 4227 H 411.592 5.48897 -0.0180514 0
M  V30 4228 H 411.853 4.25403 1.20354 0
M  V30 4229 N 410.912 0.523116 1.48665 0
M  V30 4230 C 411.875 -0.232592 2.28017 0
M  V30 4231 C 412.875 -0.874021 1.34972 0
M  V30 4232 O 414.065 -0.735132 1.57929 0
M  V30 4233 C 411.197 -1.33586 3.13636 0
M  V30 4234 H 412.39 0.464008 2.96289 0
M  V30 4235 H 409.943 0.278816 1.53793 0
M  V30 4236 H 410.678 -2.06593 2.4998 0
M  V30 4237 H 410.463 -0.881125 3.82071 0
M  V30 4238 H 411.953 -1.86759 3.73511 0
M  V30 4239 N 412.39 -1.55475 0.257931 0
M  V30 4240 C 413.338 -2.23244 -0.653076 0
M  V30 4241 C 414.332 -1.22366 -1.17144 0
M  V30 4242 O 415.538 -1.40347 -1.12706 0
M  V30 4243 H 411.913 -0.716247 -0.229117 0
M  V30 4244 H 413.884 -2.98343 -0.0584788 0
M  V30 4245 C 412.633 -2.95401 -1.83395 0
M  V30 4246 H 411.956 -3.72802 -1.44424 0
M  V30 4247 H 413.396 -3.46165 -2.44838 0
M  V30 4248 C 411.855 -1.99895 -2.71189 0
M  V30 4249 O 412.385 -1.53909 -3.71046 0
M  V30 4250 N 410.591 -1.6676 -2.3799 0
M  V30 4251 H 410.138 -2.04352 -1.56837 0
M  V30 4252 H 410.096 -1.03127 -2.97005 0
M  V30 4253 N 413.868 0.0150385 -1.57593 0
M  V30 4254 C 414.831 0.995996 -2.06428 0
M  V30 4255 C 415.831 1.2818 -0.970903 0
M  V30 4256 O 417.021 1.22949 -1.23406 0
M  V30 4257 C 414.153 2.32506 -2.49307 0
M  V30 4258 H 415.346 0.573873 -2.94358 0
M  V30 4259 H 412.899 0.262186 -1.54085 0
M  V30 4260 H 413.634 2.79438 -1.64575 0
M  V30 4261 H 413.419 2.13087 -3.29145 0
M  V30 4262 H 414.909 3.02906 -2.87468 0
M  V30 4263 N 415.346 1.54954 0.287554 0
M  V30 4264 C 416.276 1.89839 1.35954 0
M  V30 4265 C 417.257 0.758675 1.52244 0
M  V30 4266 O 418.442 1.01557 1.65529 0
M  V30 4267 C 415.572 2.15753 2.72154 0
M  V30 4268 C 414.526 3.3159 2.70614 0
M  V30 4269 C 413.852 3.42952 4.10229 0
M  V30 4270 C 415.152 4.68359 2.31165 0
M  V30 4271 H 416.846 2.79625 1.07007 0
M  V30 4272 H 414.392 1.3454 0.513316 0
M  V30 4273 H 416.345 2.38743 3.47246 0
M  V30 4274 H 415.069 1.22752 3.02654 0
M  V30 4275 H 413.728 3.08545 1.97979 0
M  V30 4276 H 413.376 2.47443 4.37928 0
M  V30 4277 H 413.076 4.20826 4.10097 0
M  V30 4278 H 414.6 3.68218 4.87081 0
M  V30 4279 H 416.014 4.9099 2.95976 0
M  V30 4280 H 414.411 5.49044 2.42221 0
M  V30 4281 H 415.481 4.68165 1.26291 0
M  V30 4282 N 416.824 -0.551391 1.4764 0
M  V30 4283 C 417.754 -1.66757 1.63445 0
M  V30 4284 C 418.735 -1.63077 0.483742 0
M  V30 4285 O 419.92 -1.80607 0.71377 0
M  V30 4286 C 417.05 -3.05387 1.65396 0
M  V30 4287 C 416.004 -3.23918 2.79752 0
M  V30 4288 C 415.33 -4.63393 2.66779 0
M  V30 4289 C 416.63 -3.08735 4.21284 0
M  V30 4290 H 418.324 -1.53786 2.56886 0
M  V30 4291 H 415.87 -0.738415 1.23626 0
M  V30 4292 H 417.823 -3.83325 1.75043 0
M  V30 4293 H 416.547 -3.19332 0.685195 0
M  V30 4294 H 415.206 -2.48391 2.69625 0
M  V30 4295 H 414.854 -4.74144 1.67918 0
M  V30 4296 H 414.554 -4.7674 3.43501 0
M  V30 4297 H 416.078 -5.43458 2.78364 0
M  V30 4298 H 417.492 -3.76484 4.32357 0
M  V30 4299 H 415.889 -3.33588 4.98838 0
M  V30 4300 H 416.959 -2.0541 4.39243 0
M  V30 4301 N 418.302 -1.35869 -0.798587 0
M  V30 4302 C 419.249 -1.29446 -1.91082 0
M  V30 4303 C 420.219 -0.16487 -1.6528 0
M  V30 4304 O 421.404 -0.349888 -1.87564 0
M  V30 4305 C 418.544 -1.0804 -3.27752 0
M  V30 4306 C 417.657 -2.29993 -3.65687 0
M  V30 4307 C 416.792 -2.01673 -4.91428 0
M  V30 4308 C 415.831 -3.19636 -5.22015 0
M  V30 4309 N 414.968 -2.91039 -6.38937 0
M  V30 4310 H 419.808 -2.24553 -1.95907 0
M  V30 4311 H 417.345 -1.11615 -0.958148 0
M  V30 4312 H 419.303 -0.936586 -4.06551 0
M  V30 4313 H 417.933 -0.16592 -3.22373 0
M  V30 4314 H 416.985 -2.55211 -2.82085 0
M  V30 4315 H 418.297 -3.18052 -3.84245 0
M  V30 4316 H 417.451 -1.84168 -5.78072 0
M  V30 4317 H 416.19 -1.10911 -4.74921 0
M  V30 4318 H 415.195 -3.37709 -4.33858 0
M  V30 4319 H 416.42 -4.11211 -5.40447 0
M  V30 4320 H 414.366 -2.0288 -6.2384 0
M  V30 4321 H 414.283 -3.72635 -6.57784 0
M  V30 4322 H 415.551 -2.77093 -7.28587 0
M  V30 4323 N 419.78 1.02168 -1.19998 0
M  V30 4324 C 420.728 2.12717 -0.940967 0
M  V30 4325 C 421.722 1.69069 0.105841 0
M  V30 4326 O 422.928 1.79946 -0.0440583 0
M  V30 4327 H 419.303 0.695108 -0.28693 0
M  V30 4328 H 421.274 2.3175 -1.87975 0
M  V30 4329 C 420.023 3.44027 -0.504049 0
M  V30 4330 H 419.346 3.78036 -1.30112 0
M  V30 4331 H 420.786 4.22452 -0.361991 0
M  V30 4332 C 419.245 3.27678 0.782878 0
M  V30 4333 O 419.775 3.56949 1.84256 0
M  V30 4334 N 417.981 2.80943 0.742921 0
M  V30 4335 H 417.528 2.57322 -0.119687 0
M  V30 4336 H 417.486 2.70385 1.60435 0
M  V30 4337 N 421.258 1.00505 1.21394 0
M  V30 4338 C 422.191 0.51032 2.22421 0
M  V30 4339 C 423.169 -0.436 1.56645 0
M  V30 4340 O 424.353 -0.358709 1.85055 0
M  V30 4341 C 421.48 -0.258733 3.3771 0
M  V30 4342 C 420.526 0.635395 4.2174 0
M  V30 4343 S 421.359 2.09783 4.92698 0
M  V30 4344 C 422.515 1.33862 6.11418 0
M  V30 4345 H 422.748 1.36637 2.64041 0
M  V30 4346 H 420.281 0.812991 1.31262 0
M  V30 4347 H 422.239 -0.696372 4.0455 0
M  V30 4348 H 420.9 -1.0902 2.94573 0
M  V30 4349 H 420.093 0.0430189 5.03982 0
M  V30 4350 H 419.695 1.01031 3.60095 0
M  V30 4351 H 421.987 0.612541 6.74725 0
M  V30 4352 H 422.93 2.13675 6.75092 0
M  V30 4353 H 423.338 0.846568 5.58116 0
M  V30 4354 N 422.737 -1.36956 0.779787 0
M  V30 4355 C 424.148 -1.82094 0.412156 0
M  V30 4356 C 424.499 -1.64926 -1.06273 0
M  V30 4357 O 423.624 -1.16483 -1.82375 0
M  V30 4358 C 424.219 -3.3059 0.741319 0
M  V30 4359 C 422.778 -3.73974 0.426641 0
M  V30 4360 C 421.925 -2.59368 0.980987 0
M  V30 4361 H 424.876 -1.25314 0.973758 0
M  V30 4362 H 424.897 -3.80489 0.028887 0
M  V30 4363 H 424.409 -3.43054 1.81482 0
M  V30 4364 H 422.51 -3.67076 -0.639215 0
M  V30 4365 H 422.623 -4.69778 0.940515 0
M  V30 4366 H 420.987 -2.51463 0.404757 0
M  V30 4367 H 421.77 -2.74621 2.06005 0
M  V30 4368 N 424.215 -0.530993 -1.48385 0
M  V30 4369 C 425.148 0.278511 -2.26494 0
M  V30 4370 C 426.126 0.943905 -1.32398 0
M  V30 4371 O 427.31 0.968098 -1.61741 0
M  V30 4372 C 424.437 1.39453 -3.08659 0
M  V30 4373 C 423.483 0.840434 -4.18137 0
M  V30 4374 S 424.316 -0.292496 -5.34701 0
M  V30 4375 C 425.472 0.825973 -6.20426 0
M  V30 4376 H 425.705 -0.384365 -2.94805 0
M  V30 4377 H 423.238 -0.316799 -1.51115 0
M  V30 4378 H 425.196 2.03382 -3.56575 0
M  V30 4379 H 423.857 2.02913 -2.3976 0
M  V30 4380 H 423.05 1.67769 -4.75257 0
M  V30 4381 H 422.652 0.277819 -3.72967 0
M  V30 4382 H 424.944 1.72438 -6.55188 0
M  V30 4383 H 425.887 0.292728 -7.07495 0
M  V30 4384 H 426.295 1.10683 -5.53543 0
M  V30 4385 N 425.693 1.55336 -0.266172 0
M  V30 4386 C 426.641 2.23587 0.641228 0
M  V30 4387 C 427.635 1.22986 1.16494 0
M  V30 4388 O 428.841 1.40943 1.1196 0
M  V30 4389 H 425.216 0.717452 0.225315 0
M  V30 4390 H 427.187 2.9837 0.0426561 0
M  V30 4391 C 425.936 2.96369 1.81826 0
M  V30 4392 H 425.259 3.73563 1.42445 0
M  V30 4393 H 426.699 3.47459 2.42998 0
M  V30 4394 C 425.158 2.0133 2.70125 0
M  V30 4395 O 425.688 1.55875 3.70224 0
M  V30 4396 N 423.894 1.6802 2.37102 0
M  V30 4397 H 423.441 2.05181 1.55751 0
M  V30 4398 H 423.399 1.047 2.96454 0
M  V30 4399 N 427.171 -0.0066808 1.57599 0
M  V30 4400 C 428.417 -0.693947 1.90558 0
M  V30 4401 C 428.75 -1.73792 0.866594 0
M  V30 4402 O 428.025 -1.94156 -0.115548 0
M  V30 4403 C 428.308 -1.34317 3.34112 0
M  V30 4404 C 428.161 -0.311189 4.48722 0
M  V30 4405 C 429.48 -2.27116 3.7697 0
M  V30 4406 H 426.599 -0.250803 0.693013 0
M  V30 4407 H 429.241 0.043242 1.89951 0
M  V30 4408 H 427.391 -1.9715 3.3476 0
M  V30 4409 H 429.063 0.316944 4.6021 0
M  V30 4410 H 427.306 0.367253 4.32243 0
M  V30 4411 H 427.977 -0.804366 5.46108 0
M  V30 4412 H 430.453 -1.74306 3.77831 0
M  V30 4413 H 429.329 -2.69511 4.78179 0
M  V30 4414 H 429.59 -3.14743 3.10466 0
M  V30 4415 N 428.649 -1.55105 -0.279332 0
M  V30 4416 C 429.897 -1.75066 -1.00977 0
M  V30 4417 C 430.218 -0.551276 -1.87045 0
M  V30 4418 O 429.488 0.433984 -1.91032 0
M  V30 4419 H 428.068 -0.645578 -0.375816 0
M  V30 4420 H 430.73 -1.92497 -0.305089 0
M  V30 4421 H 429.826 -2.64894 -1.65038 0
M  V30 4422 N 430.127 0.543554 -1.4793 0
M  V30 4423 C 431.404 1.30458 -1.4574 0
M  V30 4424 C 431.784 2.1048 -0.161692 0
M  V30 4425 O 431.132 2.11831 0.856734 0
M  V30 4426 C 431.342 2.19754 -2.71126 0
M  V30 4427 C 432.69 2.80334 -3.18901 0
M  V30 4428 O 433.714 2.30049 -2.71948 0
M  V30 4429 O 432.573 3.71766 -4.00565 0
M  V30 4430 H 429.667 0.588117 -0.581418 0
M  V30 4431 H 432.213 0.561328 -1.60147 0
M  V30 4432 H 430.985 1.60316 -3.56952 0
M  V30 4433 H 430.608 3.01351 -2.59371 0
M  V30 4434 N 431.605 1.3629 0.791371 0
M  V30 4435 C 432.83 1.33726 1.58531 0
M  V30 4436 C 433.255 -0.0794933 1.87932 0
M  V30 4437 O 432.613 -1.05087 1.47738 0
M  V30 4438 C 432.661 2.16425 2.88431 0
M  V30 4439 O 431.765 1.5554 3.81944 0
M  V30 4440 H 431.106 0.457793 0.480959 0
M  V30 4441 H 433.636 1.79547 0.981031 0
M  V30 4442 H 433.646 2.28933 3.37718 0
M  V30 4443 H 432.321 3.19415 2.66359 0
M  V30 4444 H 430.898 1.51961 3.40532 0
M  V30 4445 N 433.083 -1.0153 1.20538 0
M  V30 4446 C 434.013 -2.11972 0.979295 0
M  V30 4447 C 434.994 -1.6985 -0.0921787 0
M  V30 4448 O 436.179 -1.94089 0.0655932 0
M  V30 4449 C 433.309 -3.43201 0.531984 0
M  V30 4450 C 432.263 -3.9907 1.54685 0
M  V30 4451 C 431.589 -5.26082 0.956127 0
M  V30 4452 C 432.889 -4.32313 2.93092 0
M  V30 4453 H 434.583 -2.31143 1.90298 0
M  V30 4454 H 432.129 -1.11079 0.916372 0
M  V30 4455 H 434.082 -4.1985 0.361044 0
M  V30 4456 H 432.806 -3.23792 -0.427327 0
M  V30 4457 H 431.465 -3.2453 1.70517 0
M  V30 4458 H 431.113 -5.02999 -0.0111538 0
M  V30 4459 H 430.813 -5.64426 1.63393 0
M  V30 4460 H 432.337 -6.05386 0.796284 0
M  V30 4461 H 433.751 -4.99845 2.80763 0
M  V30 4462 H 432.148 -4.81774 3.57791 0
M  V30 4463 H 433.218 -3.41025 3.44717 0
M  V30 4464 N 434.561 -1.01147 -1.20859 0
M  V30 4465 C 435.838 -0.613136 -1.85742 0
M  V30 4466 C 436.218 0.909004 -1.90526 0
M  V30 4467 O 435.566 1.79862 -1.40932 0
M  V30 4468 C 435.776 -1.255 -3.25654 0
M  V30 4469 C 437.124 -1.3672 -4.01986 0
M  V30 4470 O 438.148 -1.21082 -3.34989 0
M  V30 4471 O 437.007 -1.6194 -5.21956 0
M  V30 4472 H 434.101 -0.210878 -0.799662 0
M  V30 4473 H 436.647 -1.10853 -1.2849 0
M  V30 4474 H 435.419 -2.29532 -3.16908 0
M  V30 4475 H 435.042 -0.746369 -3.90532 0
M  V30 4476 N 436.039 1.36541 -0.78704 0
M  V30 4477 C 437.288 1.98552 -0.35494 0
M  V30 4478 C 437.601 1.63171 1.07864 0
M  V30 4479 O 438.807 2.18399 1.61289 0
M  V30 4480 C 437.263 3.55136 -0.583671 0
M  V30 4481 C 436.871 3.99444 -2.02851 0
M  V30 4482 C 438.615 4.2395 -0.215957 0
M  V30 4483 C 436.522 5.48796 -2.20403 0
M  V30 4484 H 435.452 0.742888 -0.128972 0
M  V30 4485 H 438.103 1.5587 -0.968337 0
M  V30 4486 H 436.485 3.95875 0.0994046 0
M  V30 4487 H 437.659 3.6991 -2.74779 0
M  V30 4488 H 435.974 3.43459 -2.35425 0
M  V30 4489 H 438.571 5.33709 -0.325405 0
M  V30 4490 H 438.914 4.07827 0.835646 0
M  V30 4491 H 439.447 3.88565 -0.852175 0
M  V30 4492 H 436.186 5.69864 -3.23937 0
M  V30 4493 H 435.706 5.79964 -1.52977 0
M  V30 4494 H 437.385 6.14986 -2.01002 0
M  V30 4495 N 437.518 0.538854 1.48102 0
M  V30 4496 C 438.929 0.100679 1.86428 0
M  V30 4497 C 439.28 -1.32447 1.44749 0
M  V30 4498 O 438.405 -1.99339 0.842199 0
M  V30 4499 C 439 0.175933 3.38343 0
M  V30 4500 C 437.559 -0.207098 3.7583 0
M  V30 4501 C 436.706 0.531741 2.72154 0
M  V30 4502 H 439.657 0.749614 1.3988 0
M  V30 4503 H 439.678 -0.610144 3.75576 0
M  V30 4504 H 439.19 1.21328 3.68648 0
M  V30 4505 H 437.291 -1.24626 3.5114 0
M  V30 4506 H 437.404 0.138687 4.78899 0
M  V30 4507 H 435.768 -0.0230462 2.5469 0
M  V30 4508 H 436.551 1.56989 3.05302 0
M  V30 4509 N 438.996 -1.55193 0.274407 0
M  V30 4510 C 440.244 -1.99187 -0.341902 0
M  V30 4511 C 440.565 -1.16422 -1.56431 0
M  V30 4512 O 439.835 -0.253573 -1.94252 0
M  V30 4513 H 438.415 -0.735721 -0.129317 0
M  V30 4514 H 441.077 -1.91168 0.379578 0
M  V30 4515 H 440.173 -3.05629 -0.632253 0
M  V30 4516 N 440.474 -0.00167713 -1.576 0
M  V30 4517 C 441.723 0.682021 -1.89819 0
M  V30 4518 C 442.036 1.74844 -0.876871 0
M  V30 4519 O 443.242 2.48688 -1.08934 0
M  V30 4520 C 441.698 1.26425 -3.36964 0
M  V30 4521 C 441.306 0.232568 -4.47396 0
M  V30 4522 C 443.05 1.92604 -3.78291 0
M  V30 4523 C 440.957 0.824882 -5.85619 0
M  V30 4524 H 439.887 0.258499 -0.708304 0
M  V30 4525 H 442.538 -0.0624957 -1.83394 0
M  V30 4526 H 440.92 2.05949 -3.38232 0
M  V30 4527 H 442.094 -0.5382 -4.57646 0
M  V30 4528 H 440.409 -0.32888 -4.15099 0
M  V30 4529 H 443.006 2.37827 -4.78897 0
M  V30 4530 H 443.349 2.75732 -3.11894 0
M  V30 4531 H 443.882 1.19812 -3.79328 0
M  V30 4532 H 440.621 0.0323542 -6.55492 0
M  V30 4533 H 440.141 1.56477 -5.79029 0
M  V30 4534 H 441.82 1.32301 -6.33329 0
M  V30 4535 N 441.952 1.55251 0.271103 0
M  V30 4536 C 443.2 1.75599 1.00047 0
M  V30 4537 C 443.521 0.561188 1.8675 0
M  V30 4538 O 442.791 -0.423846 1.9126 0
M  V30 4539 H 441.371 0.647562 0.372387 0
M  V30 4540 H 444.033 1.92656 0.294876 0
M  V30 4541 H 443.129 2.65766 1.6363 0
M  V30 4542 N 443.43 -0.535701 1.48216 0
M  V30 4543 C 444.377 -1.64083 1.62312 0
M  V30 4544 C 445.347 -1.59448 0.465365 0
M  V30 4545 O 446.532 -1.77959 0.688135 0
M  V30 4546 C 443.672 -3.0236 1.66349 0
M  V30 4547 C 442.785 -3.17273 2.93193 0
M  V30 4548 C 441.92 -4.46075 2.88427 0
M  V30 4549 C 440.959 -4.54496 4.1 0
M  V30 4550 N 440.096 -5.7468 4.03345 0
M  V30 4551 H 444.936 -1.51374 2.5669 0
M  V30 4552 H 442.473 -0.737059 1.27302 0
M  V30 4553 H 444.431 -3.82461 1.66672 0
M  V30 4554 H 443.061 -3.13854 0.754672 0
M  V30 4555 H 442.113 -2.30462 3.02641 0
M  V30 4556 H 443.425 -3.19357 3.83162 0
M  V30 4557 H 442.579 -5.3446 2.87119 0
M  V30 4558 H 441.318 -4.46504 1.96177 0
M  V30 4559 H 440.323 -3.64519 4.11589 0
M  V30 4560 H 441.548 -4.5581 5.03402 0
M  V30 4561 H 439.494 -5.76017 3.13912 0
M  V30 4562 H 439.411 -5.78234 4.87013 0
M  V30 4563 H 440.679 -6.65367 4.06087 0
M  V30 4564 N 444.908 -1.36708 -0.784132 0
M  V30 4565 C 446.154 -1.31426 -1.54451 0
M  V30 4566 C 446.487 0.10476 -1.93917 0
M  V30 4567 O 445.762 1.05934 -1.6312 0
M  V30 4568 C 446.045 -2.24189 -2.818 0
M  V30 4569 C 445.898 -3.74813 -2.48667 0
M  V30 4570 C 447.217 -2.15626 -3.83658 0
M  V30 4571 H 444.336 -0.478739 -0.560337 0
M  V30 4572 H 446.978 -1.67305 -0.900498 0
M  V30 4573 H 445.128 -1.93722 -3.36755 0
M  V30 4574 H 446.8 -4.15823 -1.99722 0
M  V30 4575 H 445.043 -3.93989 -1.81535 0
M  V30 4576 H 445.714 -4.35138 -3.39646 0
M  V30 4577 H 448.19 -2.42456 -3.38163 0
M  V30 4578 H 447.066 -2.82694 -4.70506 0
M  V30 4579 H 447.327 -1.14522 -4.27009 0
M  V30 4580 N 446.386 1.0089 -1.21074 0
M  V30 4581 C 447.614 1.78191 -1.05145 0
M  V30 4582 C 448.029 1.84537 0.398952 0
M  V30 4583 O 447.386 1.30393 1.27687 0
M  V30 4584 C 447.437 3.22288 -1.63746 0
M  V30 4585 O 447.158 3.16315 -3.03111 0
M  V30 4586 C 448.659 4.16106 -1.52875 0
M  V30 4587 H 445.879 0.560129 -0.369454 0
M  V30 4588 H 448.423 1.26945 -1.60328 0
M  V30 4589 H 446.578 3.70655 -1.12664 0
M  V30 4590 H 446.992 4.06817 -3.31059 0
M  V30 4591 H 448.466 5.15026 -1.98626 0
M  V30 4592 H 448.943 4.36541 -0.482521 0
M  V30 4593 H 449.549 3.73625 -2.03185 0
M  V30 4594 N 447.864 1.01787 1.20321 0
M  V30 4595 C 449.11 0.708985 1.90003 0
M  V30 4596 C 449.443 -0.759572 1.78729 0
M  V30 4597 O 448.718 -1.55198 1.17234 0
M  V30 4598 C 449.001 1.1469 3.41348 0
M  V30 4599 C 448.854 2.67586 3.61549 0
M  V30 4600 C 450.173 0.71915 4.34185 0
M  V30 4601 H 447.292 0.259034 0.689978 0
M  V30 4602 H 449.934 1.26584 1.41692 0
M  V30 4603 H 448.084 0.673128 3.82624 0
M  V30 4604 H 449.756 3.22826 3.29517 0
M  V30 4605 H 447.999 3.085 3.04976 0
M  V30 4606 H 448.67 2.93281 4.67643 0
M  V30 4607 H 451.146 1.12647 4.00562 0
M  V30 4608 H 450.022 1.05358 5.38694 0
M  V30 4609 H 450.283 -0.379111 4.40472 0
M  V30 4610 N 449.342 -1.36122 0.79427 0
M  V30 4611 C 450.567 -2.03891 0.379871 0
M  V30 4612 C 450.992 -1.59488 -0.997251 0
M  V30 4613 O 450.35 -0.765652 -1.64339 0
M  V30 4614 C 450.398 -3.57687 0.457442 0
M  V30 4615 O 449.502 -4.08931 -0.5338 0
M  V30 4616 H 448.843 -0.6443 0.160541 0
M  V30 4617 H 451.373 -1.73976 1.07673 0
M  V30 4618 H 451.383 -4.06721 0.322792 0
M  V30 4619 H 450.058 -3.89357 1.46199 0
M  V30 4620 H 448.635 -3.71154 -0.360409 0
M  V30 4621 N 450.82 -0.546701 -1.47814 0
M  V30 4622 C 452.231 -0.110564 -1.86372 0
M  V30 4623 C 452.582 1.31678 -1.45449 0
M  V30 4624 O 451.707 1.98889 -0.852758 0
M  V30 4625 C 452.302 -0.193873 -3.38245 0
M  V30 4626 C 450.861 0.187164 -3.75934 0
M  V30 4627 C 450.008 -0.546166 -2.71868 0
M  V30 4628 H 452.959 -0.757022 -1.39481 0
M  V30 4629 H 452.98 0.590218 -3.75895 0
M  V30 4630 H 452.492 -1.23282 -3.67999 0
M  V30 4631 H 450.593 1.22762 -3.51796 0
M  V30 4632 H 450.706 -0.164083 -4.78819 0
M  V30 4633 H 449.07 0.00953904 -2.54698 0
M  V30 4634 H 449.853 -1.58606 -3.04465 0
M  V30 4635 N 452.299 1.55045 -0.282633 0
M  V30 4636 C 453.247 2.24254 0.617478 0
M  V30 4637 C 454.241 1.24215 1.15183 0
M  V30 4638 O 455.447 1.42123 1.10459 0
M  V30 4639 H 451.822 0.719801 0.217693 0
M  V30 4640 H 453.793 2.98398 0.0110076 0
M  V30 4641 C 452.542 2.98281 1.78672 0
M  V30 4642 H 451.865 3.75053 1.38475 0
M  V30 4643 H 453.305 3.50017 2.393 0
M  V30 4644 C 451.764 2.04184 2.67975 0
M  V30 4645 O 452.294 1.59792 3.6855 0
M  V30 4646 N 450.5 1.70526 2.35307 0
M  V30 4647 H 450.047 2.06821 1.53567 0
M  V30 4648 H 450.005 1.07839 2.95327 0
M  V30 4649 N 453.777 0.010035 1.57597 0
M  V30 4650 C 455.002 -0.687021 1.95691 0
M  V30 4651 C 455.427 -1.65952 0.885519 0
M  V30 4652 O 454.785 -1.80633 -0.15543 0
M  V30 4653 C 454.833 -1.3864 3.32884 0
M  V30 4654 O 453.937 -2.50115 3.27897 0
M  V30 4655 H 453.278 -0.181989 0.638573 0
M  V30 4656 H 455.808 0.0662122 2.04493 0
M  V30 4657 H 455.818 -1.74754 3.6868 0
M  V30 4658 H 454.493 -0.673411 4.10412 0
M  V30 4659 H 453.07 -2.16253 3.03791 0
M  V30 4660 N 455.255 -1.55392 -0.262866 0
M  V30 4661 C 456.165 -1.92077 -1.34698 0
M  V30 4662 C 457.181 -0.819227 -1.53508 0
M  V30 4663 O 458.357 -1.11921 -1.67439 0
M  V30 4664 C 455.422 -2.19407 -2.68443 0
M  V30 4665 C 454.483 -3.42905 -2.58292 0
M  V30 4666 C 453.716 -3.68921 -3.85659 0
M  V30 4667 O 453.939 -2.97275 -4.8681 0
M  V30 4668 O 452.873 -4.62455 -3.85252 0
M  V30 4669 H 456.699 -2.84384 -1.06581 0
M  V30 4670 H 454.284 -1.42069 -0.462264 0
M  V30 4671 H 456.166 -2.38365 -3.47506 0
M  V30 4672 H 454.841 -1.30282 -2.96325 0
M  V30 4673 H 453.748 -3.29272 -1.7757 0
M  V30 4674 H 455.081 -4.32282 -2.35358 0
M  V30 4675 N 456.733 0.527833 -1.48498 0
M  V30 4676 C 457.665 1.6482 -1.5927 0
M  V30 4677 C 458.678 1.55659 -0.476869 0
M  V30 4678 O 459.867 1.62081 -0.747806 0
M  V30 4679 C 456.967 3.0348 -1.50842 0
M  V30 4680 C 456.14 3.381 -2.77502 0
M  V30 4681 C 455.199 4.5605 -2.62497 0
M  V30 4682 O 454.225 4.59165 -3.36387 0
M  V30 4683 N 455.427 5.54353 -1.72257 0
M  V30 4684 H 458.192 1.56015 -2.55889 0
M  V30 4685 H 455.753 0.715152 -1.45249 0
M  V30 4686 H 457.745 3.80264 -1.38496 0
M  V30 4687 H 456.315 3.06352 -0.621887 0
M  V30 4688 H 455.535 2.50473 -3.04396 0
M  V30 4689 H 456.823 3.58017 -3.61527 0
M  V30 4690 H 456.221 5.54617 -1.11431 0
M  V30 4691 H 454.778 6.30347 -1.65849 0
M  V30 4692 N 458.211 1.37122 0.776871 0
M  V30 4693 C 459.459 1.31787 1.53221 0
M  V30 4694 C 459.78 -0.0987589 1.9475 0
M  V30 4695 O 459.05 -1.0417 1.65908 0
M  V30 4696 H 457.63 0.484839 0.568278 0
M  V30 4697 H 460.292 1.71556 0.924917 0
M  V30 4698 H 459.388 1.95355 2.43398 0
M  V30 4699 N 459.689 -1.00246 1.21608 0
M  V30 4700 C 460.919 -1.77373 1.05935 0
M  V30 4701 C 461.327 -1.85059 -0.393686 0
M  V30 4702 O 460.67 -1.31289 -1.28487 0
M  V30 4703 C 460.732 -3.22705 1.58435 0
M  V30 4704 C 460.396 -3.38591 3.06929 0
M  V30 4705 C 461.393 -3.2667 4.04454 0
M  V30 4706 C 459.078 -3.6395 3.46187 0
M  V30 4707 C 461.072 -3.39877 5.39224 0
M  V30 4708 C 458.759 -3.768 4.81108 0
M  V30 4709 C 459.757 -3.6477 5.77436 0
M  V30 4710 O 459.445 -3.77206 7.09909 0
M  V30 4711 H 459.177 -0.56419 0.372378 0
M  V30 4712 H 461.731 -1.26971 1.61454 0
M  V30 4713 H 459.961 -3.74255 0.973147 0
M  V30 4714 H 461.65 -3.81515 1.38568 0
M  V30 4715 H 462.416 -3.06999 3.75468 0
M  V30 4716 H 458.295 -3.72395 2.71741 0
M  V30 4717 H 461.839 -3.30404 6.14393 0
M  V30 4718 H 457.736 -3.95975 5.09779 0
M  V30 4719 H 458.504 -3.94138 7.17355 0
M  V30 4720 N 461.167 -1.02423 -1.1978 0
M  V30 4721 C 462.117 -0.571689 -2.20716 0
M  V30 4722 C 463.101 0.377077 -1.56419 0
M  V30 4723 O 464.293 0.198801 -1.7588 0
M  V30 4724 C 461.422 0.0808555 -3.43205 0
M  V30 4725 C 460.508 -0.890073 -4.14655 0
M  V30 4726 N 460.899 -2.05065 -4.62366 0
M  V30 4727 C 459.197 -0.71252 -4.40272 0
M  V30 4728 C 459.898 -2.66264 -5.17183 0
M  V30 4729 N 458.874 -1.94264 -5.07703 0
M  V30 4730 H 462.676 -1.45636 -2.55279 0
M  V30 4731 H 460.19 -0.890596 -1.35802 0
M  V30 4732 H 462.187 0.422654 -4.14752 0
M  V30 4733 H 460.847 0.961274 -3.10144 0
M  V30 4734 H 461.858 -2.43026 -4.57339 0
M  V30 4735 H 458.535 0.119199 -4.1733 0
M  V30 4736 H 459.925 -3.64526 -5.64421 0
M  V30 4737 N 462.645 1.35699 -0.801477 0
M  V30 4738 C 463.875 2.02862 -0.3912 0
M  V30 4739 C 464.283 1.60552 1.00099 0
M  V30 4740 O 463.626 0.796215 1.65548 0
M  V30 4741 C 463.688 3.57386 -0.389299 0
M  V30 4742 C 463.352 4.22943 -1.73113 0
M  V30 4743 C 464.349 4.44984 -2.68859 0
M  V30 4744 C 462.034 4.60167 -2.01373 0
M  V30 4745 C 464.028 5.03345 -3.91053 0
M  V30 4746 C 461.715 5.18243 -3.23832 0
M  V30 4747 C 462.713 5.39773 -4.1849 0
M  V30 4748 O 462.401 5.96626 -5.38788 0
M  V30 4749 H 462.133 0.657341 -0.157732 0
M  V30 4750 H 464.687 1.74407 -1.08496 0
M  V30 4751 H 462.917 3.85011 0.361031 0
M  V30 4752 H 464.606 4.059 -0.0020365 0
M  V30 4753 H 465.372 4.1661 -2.48316 0
M  V30 4754 H 461.251 4.42726 -1.28508 0
M  V30 4755 H 464.795 5.20065 -4.64949 0
M  V30 4756 H 460.692 5.46044 -3.44248 0
M  V30 4757 H 461.46 6.15082 -5.40015 0
M  V30 4758 N 464.123 0.554532 1.47522 0
M  V30 4759 C 465.033 -0.197865 2.33764 0
M  V30 4760 C 466.049 -0.914576 1.48025 0
M  V30 4761 O 467.225 -0.884067 1.80959 0
M  V30 4762 C 464.29 -1.21628 3.24665 0
M  V30 4763 C 463.351 -0.507283 4.26292 0
M  V30 4764 C 462.584 -1.47718 5.1285 0
M  V30 4765 O 462.807 -2.7118 5.01814 0
M  V30 4766 O 461.741 -1.00313 5.93482 0
M  V30 4767 H 465.567 0.50949 2.99396 0
M  V30 4768 H 463.152 0.315176 1.46038 0
M  V30 4769 H 465.034 -1.80421 3.80823 0
M  V30 4770 H 463.709 -1.9056 2.61665 0
M  V30 4771 H 462.616 0.121778 3.73902 0
M  V30 4772 H 463.949 0.140544 4.91999 0
M  V30 4773 N 465.601 -1.54893 0.290851 0
M  V30 4774 C 466.564 -2.21824 -0.576784 0
M  V30 4775 C 467.564 -1.20104 -1.06919 0
M  V30 4776 O 468.754 -1.44906 -0.966843 0
M  V30 4777 C 465.886 -2.89662 -1.79747 0
M  V30 4778 H 467.079 -2.99899 0.00784051 0
M  V30 4779 H 464.632 -1.56245 0.0415934 0
M  V30 4780 H 465.367 -2.15639 -2.42219 0
M  V30 4781 H 465.152 -3.64219 -1.45214 0
M  V30 4782 H 466.642 -3.4075 -2.4141 0
M  V30 4783 N 467.08 -0.0183926 -1.57589 0
M  V30 4784 C 468.027 0.967022 -2.09565 0
M  V30 4785 C 468.997 1.32983 -0.995225 0
M  V30 4786 O 470.182 1.42501 -1.26878 0
M  V30 4787 C 467.322 2.24772 -2.61861 0
M  V30 4788 C 466.435 1.94232 -3.85873 0
M  V30 4789 C 465.57 3.16518 -4.26603 0
M  V30 4790 C 464.609 2.81748 -5.43401 0
M  V30 4791 N 463.746 3.96626 -5.79338 0
M  V30 4792 H 468.586 0.516874 -2.93483 0
M  V30 4793 H 466.123 0.243544 -1.4507 0
M  V30 4794 H 468.081 2.99667 -2.90268 0
M  V30 4795 H 466.711 2.67423 -1.8079 0
M  V30 4796 H 465.763 1.09625 -3.64262 0
M  V30 4797 H 467.075 1.64616 -4.70853 0
M  V30 4798 H 466.229 3.99743 -4.56389 0
M  V30 4799 H 464.968 3.49286 -3.40368 0
M  V30 4800 H 463.973 1.96933 -5.1332 0
M  V30 4801 H 465.198 2.50207 -6.31327 0
M  V30 4802 H 463.144 4.29257 -4.96059 0
M  V30 4803 H 463.061 3.70598 -6.58933 0
M  V30 4804 H 464.329 4.80586 -6.13724 0
M  V30 4805 N 468.558 1.5553 0.254621 0
M  V30 4806 C 469.806 1.7665 0.981793 0
M  V30 4807 C 470.127 0.580963 1.86145 0
M  V30 4808 O 469.397 -0.403537 1.91699 0
M  V30 4809 H 467.977 0.651475 0.365498 0
M  V30 4810 H 470.639 1.92958 0.274426 0
M  V30 4811 H 469.735 2.67486 1.60802 0
M  V30 4812 N 470.036 -0.519951 1.48776 0
M  V30 4813 C 470.984 -1.64443 1.64503 0
M  V30 4814 C 471.978 -1.61501 0.511248 0
M  V30 4815 O 473.184 -1.66238 0.690294 0
M  V30 4816 H 469.559 -0.544776 0.518385 0
M  V30 4817 H 471.53 -1.48325 2.58925 0
M  V30 4818 C 470.279 -3.02673 1.71127 0
M  V30 4819 H 469.602 -3.05635 2.57735 0
M  V30 4820 H 471.042 -3.80941 1.86172 0
M  V30 4821 C 469.501 -3.33854 0.452032 0
M  V30 4822 O 470.031 -3.99385 -0.430678 0
M  V30 4823 N 468.237 -2.88825 0.32069 0
M  V30 4824 H 467.784 -2.35674 1.03998 0
M  V30 4825 H 467.742 -3.10056 -0.520814 0
M  V30 4826 N 471.514 -1.37532 -0.769588 0
M  V30 4827 C 472.762 -1.32597 -1.5252 0
M  V30 4828 C 473.083 0.0884294 -1.94799 0
M  V30 4829 O 472.353 1.03289 -1.66458 0
M  V30 4830 H 470.933 -0.487846 -0.565699 0
M  V30 4831 H 473.595 -1.72044 -0.915806 0
M  V30 4832 H 472.691 -1.96643 -2.42359 0
M  V30 4833 N 472.992 0.995999 -1.22138 0
M  V30 4834 C 474.241 1.72928 -1.03821 0
M  V30 4835 C 474.554 1.90872 0.427444 0
M  V30 4836 O 475.76 2.61496 0.730212 0
M  V30 4837 C 474.216 3.11124 -1.80913 0
M  V30 4838 C 473.824 3.01122 -3.31707 0
M  V30 4839 C 475.568 3.8852 -1.71035 0
M  V30 4840 C 473.475 4.34453 -4.01253 0
M  V30 4841 H 472.405 0.648376 -0.384869 0
M  V30 4842 H 475.056 1.11213 -1.45959 0
M  V30 4843 H 473.438 3.73503 -1.31573 0
M  V30 4844 H 474.612 2.47926 -3.88419 0
M  V30 4845 H 472.927 2.3721 -3.42228 0
M  V30 4846 H 475.524 4.872 -2.20318 0
M  V30 4847 H 475.867 4.1087 -0.670196 0
M  V30 4848 H 476.4 3.32812 -2.17902 0
M  V30 4849 H 473.139 4.17303 -5.05508 0
M  V30 4850 H 472.659 4.87574 -3.49331 0
M  V30 4851 H 474.338 5.03215 -4.06674 0
M  V30 4852 N 474.47 1.03057 1.19235 0
M  V30 4853 C 475.716 0.729098 1.89241 0
M  V30 4854 C 476.049 -0.740573 1.79525 0
M  V30 4855 O 475.324 -1.53946 1.18874 0
M  V30 4856 C 475.607 1.18304 3.40112 0
M  V30 4857 C 475.46 2.71406 3.5869 0
M  V30 4858 C 476.779 0.765161 4.33397 0
M  V30 4859 H 473.898 0.266338 0.687192 0
M  V30 4860 H 476.54 1.28079 1.40341 0
M  V30 4861 H 474.69 0.713672 3.81889 0
M  V30 4862 H 476.362 3.26303 3.26074 0
M  V30 4863 H 474.605 3.11717 3.01687 0
M  V30 4864 H 475.276 2.98225 4.64506 0
M  V30 4865 H 477.752 1.16889 3.99345 0
M  V30 4866 H 476.628 1.11065 5.37546 0
M  V30 4867 H 476.889 -0.332372 4.40849 0
M  V30 4868 N 475.948 -1.35272 0.808662 0
M  V30 4869 C 476.878 -2.32315 0.234981 0
M  V30 4870 C 477.859 -1.57572 -0.64071 0
M  V30 4871 O 479.044 -1.8563 -0.570551 0
M  V30 4872 C 476.174 -3.41801 -0.615601 0
M  V30 4873 C 475.128 -4.27694 0.161767 0
M  V30 4874 C 474.454 -5.28519 -0.810649 0
M  V30 4875 C 475.754 -5.04231 1.36193 0
M  V30 4876 H 477.448 -2.80543 1.04575 0
M  V30 4877 H 474.994 -1.3488 0.504315 0
M  V30 4878 H 476.947 -4.08693 -1.02702 0
M  V30 4879 H 475.671 -2.92186 -1.45928 0
M  V30 4880 H 474.33 -3.62384 0.554382 0
M  V30 4881 H 473.978 -4.75171 -1.64988 0
M  V30 4882 H 473.678 -5.8686 -0.294822 0
M  V30 4883 H 475.202 -5.98283 -1.22023 0
M  V30 4884 H 476.616 -5.64058 1.02528 0
M  V30 4885 H 475.013 -5.72077 1.81239 0
M  V30 4886 H 476.083 -4.34753 2.14751 0
M  V30 4887 N 477.426 -0.562348 -1.47226 0
M  V30 4888 C 478.356 0.170627 -2.32876 0
M  V30 4889 C 479.337 0.903748 -1.44106 0
M  V30 4890 O 480.522 0.883206 -1.72954 0
M  V30 4891 C 477.652 1.19786 -3.25989 0
M  V30 4892 C 476.606 0.580875 -4.2404 0
M  V30 4893 C 475.932 1.71311 -5.06514 0
M  V30 4894 C 477.232 -0.468714 -5.20193 0
M  V30 4895 H 478.926 -0.544441 -2.94408 0
M  V30 4896 H 476.472 -0.263271 -1.41573 0
M  V30 4897 H 478.425 1.71884 -3.84752 0
M  V30 4898 H 477.149 1.94294 -2.62521 0
M  V30 4899 H 475.808 0.0811538 -3.6651 0
M  V30 4900 H 475.456 2.44736 -4.39447 0
M  V30 4901 H 475.156 1.30604 -5.72902 0
M  V30 4902 H 476.68 2.23725 -5.68137 0
M  V30 4903 H 478.094 -0.0336028 -5.7329 0
M  V30 4904 H 476.491 -0.794957 -5.94811 0
M  V30 4905 H 477.561 -1.36269 -4.65359 0
M  V30 4906 N 478.904 1.54736 -0.299062 0
M  V30 4907 C 480.315 1.8569 0.193971 0
M  V30 4908 C 480.666 1.22101 1.53577 0
M  V30 4909 O 479.791 0.51799 2.10109 0
M  V30 4910 C 480.386 3.36895 0.358733 0
M  V30 4911 C 478.945 3.67887 0.795986 0
M  V30 4912 C 478.092 2.77131 -0.096807 0
M  V30 4913 H 481.043 1.49934 -0.520134 0
M  V30 4914 H 481.064 3.61294 1.19361 0
M  V30 4915 H 480.576 3.83148 -0.617998 0
M  V30 4916 H 478.677 3.27151 1.78334 0
M  V30 4917 H 478.79 4.75114 0.616718 0
M  V30 4918 H 477.154 2.51153 0.423581 0
M  V30 4919 H 477.937 3.26204 -1.06986 0
M  V30 4920 N 480.382 0.0267497 1.57577 0
M  V30 4921 C 481.292 -0.971633 2.13533 0
M  V30 4922 C 482.308 -1.35868 1.08701 0
M  V30 4923 O 483.484 -1.44058 1.40746 0
M  V30 4924 C 480.549 -2.23622 2.64941 0
M  V30 4925 C 479.61 -1.90982 3.8448 0
M  V30 4926 C 478.843 -3.11411 4.33427 0
M  V30 4927 O 479.066 -4.23992 3.81558 0
M  V30 4928 O 478 -2.93848 5.25297 0
M  V30 4929 H 481.826 -0.525853 2.99113 0
M  V30 4930 H 479.411 -0.193712 1.48139 0
M  V30 4931 H 481.293 -2.97864 2.98086 0
M  V30 4932 H 479.968 -2.67386 1.82446 0
M  V30 4933 H 478.875 -1.14132 3.56265 0
M  V30 4934 H 480.208 -1.52036 4.6813 0
M  V30 4935 N 481.861 -1.55662 -0.24637 0
M  V30 4936 C 483.277 -1.48098 -0.594907 0
M  V30 4937 C 483.477 -0.717044 -1.8831 0
M  V30 4938 O 482.533 -0.246618 -2.51293 0
M  V30 4939 C 483.846 -2.92507 -0.697146 0
M  V30 4940 C 485.394 -3.02881 -0.789436 0
M  V30 4941 C 485.869 -4.48598 -0.923232 0
M  V30 4942 N 487.36 -4.52538 -0.988088 0
M  V30 4943 C 488.095 -5.62536 -1.11089 0
M  V30 4944 N 487.591 -6.82342 -1.19919 0
M  V30 4945 N 489.384 -5.50334 -1.14408 0
M  V30 4946 H 481.535 -2.0377 0.599278 0
M  V30 4947 H 483.798 -0.925145 0.20691 0
M  V30 4948 H 483.504 -3.51242 0.179396 0
M  V30 4949 H 483.378 -3.43024 -1.5689 0
M  V30 4950 H 485.765 -2.44226 -1.65643 0
M  V30 4951 H 485.846 -2.55574 0.107482 0
M  V30 4952 H 485.49 -5.07864 -0.0607927 0
M  V30 4953 H 485.42 -4.93587 -1.8352 0
M  V30 4954 H 487.911 -3.66248 -0.931167 0
M  V30 4955 H 488.224 -7.61924 -1.29197 0
M  V30 4956 H 486.569 -6.85102 -1.16876 0
M  V30 4957 H 489.76 -4.5567 -1.07158 0
M  V30 4958 H 489.933 -6.36096 -1.23634 0
M  V30 4959 N 483.339 0.512053 -1.4905 0
M  V30 4960 C 484.585 1.26874 -1.58212 0
M  V30 4961 C 484.918 1.9241 -0.263073 0
M  V30 4962 O 484.193 1.80181 0.732476 0
M  V30 4963 C 484.476 2.34428 -2.73341 0
M  V30 4964 C 484.329 1.73466 -4.15006 0
M  V30 4965 C 485.648 3.36073 -2.84154 0
M  V30 4966 H 482.767 0.459924 -0.575881 0
M  V30 4967 H 485.409 0.568587 -1.81293 0
M  V30 4968 H 483.559 2.94146 -2.53792 0
M  V30 4969 H 485.231 1.17661 -4.46042 0
M  V30 4970 H 483.474 1.03921 -4.21168 0
M  V30 4971 H 484.145 2.51426 -4.91415 0
M  V30 4972 H 486.621 2.86332 -3.01916 0
M  V30 4973 H 485.497 4.08703 -3.66406 0
M  V30 4974 H 485.758 3.97725 -1.93048 0
M  V30 4975 N 484.817 1.37938 0.762283 0
M  V30 4976 C 486.066 1.32989 1.51647 0
M  V30 4977 C 486.379 -0.0802922 1.95435 0
M  V30 4978 O 487.585 -0.252295 2.70325 0
M  V30 4979 C 486.041 2.33485 2.73885 0
M  V30 4980 C 485.649 3.80079 2.37157 0
M  V30 4981 C 487.393 2.37563 3.51801 0
M  V30 4982 C 485.3 4.72283 3.55954 0
M  V30 4983 H 484.23 0.494301 0.56937 0
M  V30 4984 H 486.881 1.63448 0.834083 0
M  V30 4985 H 485.263 1.96056 3.44061 0
M  V30 4986 H 486.437 4.26398 1.74704 0
M  V30 4987 H 484.752 3.79037 1.72395 0
M  V30 4988 H 487.349 3.0365 4.40114 0
M  V30 4989 H 487.692 1.39199 3.92338 0
M  V30 4990 H 488.225 2.73747 2.8863 0
M  V30 4991 H 484.964 5.7181 3.2049 0
M  V30 4992 H 484.484 4.30663 4.1748 0
M  V30 4993 H 486.163 4.89876 4.22647 0
M  V30 4994 N 486.295 -0.989507 1.22664 0
M  V30 4995 C 487.542 -1.72953 1.05325 0
M  V30 4996 C 487.87 -1.90104 -0.411168 0
M  V30 4997 O 487.125 -1.44386 -1.32103 0
M  V30 4998 C 487.424 -3.13649 1.71345 0
M  V30 4999 C 487.09 -3.16403 3.21248 0
M  V30 5000 C 485.752 -3.16862 3.62149 0
M  V30 5001 C 488.104 -3.12428 4.17179 0
M  V30 5002 C 485.432 -3.11051 4.97458 0
M  V30 5003 C 487.784 -3.08159 5.52468 0
M  V30 5004 C 486.448 -3.06935 5.92746 0
M  V30 5005 H 485.718 -0.632881 0.385412 0
M  V30 5006 H 488.365 -1.15863 1.52473 0
M  V30 5007 H 486.67 -3.74069 1.16532 0
M  V30 5008 H 488.367 -3.69658 1.55416 0
M  V30 5009 H 484.957 -3.16798 2.88682 0
M  V30 5010 H 489.141 -3.11221 3.86595 0
M  V30 5011 H 484.397 -3.0845 5.27891 0
M  V30 5012 H 488.571 -3.04039 6.26525 0
M  V30 5013 H 486.198 -3.02186 6.97558 0
M  V30 5014 N 487.773 -1.03688 -1.18687 0
M  V30 5015 C 488.721 -0.618292 -2.24232 0
M  V30 5016 C 489.715 0.353045 -1.6568 0
M  V30 5017 O 490.921 0.220749 -1.78641 0
M  V30 5018 H 487.296 -0.181711 -0.729716 0
M  V30 5019 H 489.267 -1.51893 -2.56848 0
M  V30 5020 C 488.016 0.00677342 -3.47699 0
M  V30 5021 H 487.339 -0.731692 -3.93047 0
M  V30 5022 H 488.779 0.262492 -4.23187 0
M  V30 5023 C 487.238 1.25572 -3.12623 0
M  V30 5024 O 487.768 2.34691 -3.26011 0
M  V30 5025 N 485.974 1.14755 -2.66982 0
M  V30 5026 H 485.521 0.259601 -2.56289 0
M  V30 5027 H 485.479 1.98412 -2.43885 0
M  V30 5028 N 489.251 1.34841 -0.815825 0
M  V30 5029 C 490.198 2.29644 -0.230664 0
M  V30 5030 C 491.168 1.53253 0.640533 0
M  V30 5031 O 492.353 1.81653 0.583672 0
M  V30 5032 C 489.493 3.39715 0.607275 0
M  V30 5033 C 488.606 4.31056 -0.28538 0
M  V30 5034 C 487.741 5.28225 0.561446 0
M  V30 5035 C 486.78 6.11204 -0.331035 0
M  V30 5036 N 485.917 7.00483 0.476302 0
M  V30 5037 H 490.757 2.79095 -1.0445 0
M  V30 5038 H 488.294 1.37351 -0.526595 0
M  V30 5039 H 490.252 4.02208 1.10835 0
M  V30 5040 H 488.882 2.91517 1.38629 0
M  V30 5041 H 487.934 3.69487 -0.904621 0
M  V30 5042 H 489.246 4.89239 -0.97193 0
M  V30 5043 H 488.4 5.96135 1.12728 0
M  V30 5044 H 487.139 4.70562 1.28153 0
M  V30 5045 H 486.144 5.42232 -0.909069 0
M  V30 5046 H 487.369 6.70947 -1.04912 0
M  V30 5047 H 485.315 6.45296 1.18019 0
M  V30 5048 H 485.232 7.55847 -0.152008 0
M  V30 5049 H 486.5 7.7273 1.02512 0
M  V30 5050 N 490.729 0.570148 1.46925 0
M  V30 5051 C 492.006 -0.0153259 1.95594 0
M  V30 5052 C 492.386 -1.47232 1.51281 0
M  V30 5053 O 491.734 -2.15574 0.757624 0
M  V30 5054 C 491.944 0.143624 3.48704 0
M  V30 5055 C 493.292 0.00494484 4.246 0
M  V30 5056 O 494.316 0.0718214 3.56128 0
M  V30 5057 O 493.175 -0.141175 5.46318 0
M  V30 5058 H 490.269 -0.0568819 0.825041 0
M  V30 5059 H 492.815 0.637583 1.57267 0
M  V30 5060 H 491.587 1.15699 3.73804 0
M  V30 5061 H 491.21 -0.5463 3.93829 0
M  V30 5062 N 492.207 -1.54576 0.307264 0
M  V30 5063 C 493.155 -2.25208 -0.581723 0
M  V30 5064 C 494.149 -1.26031 -1.13192 0
M  V30 5065 O 495.355 -1.43862 -1.08184 0
M  V30 5066 H 491.73 -0.723173 -0.206214 0
M  V30 5067 H 493.701 -2.98378 0.0364663 0
M  V30 5068 C 492.45 -3.01086 -1.73904 0
M  V30 5069 H 491.773 -3.77208 -1.32491 0
M  V30 5070 H 493.213 -3.5378 -2.33701 0
M  V30 5071 C 491.672 -2.08422 -2.64692 0
M  V30 5072 O 492.202 -1.65636 -3.65961 0
M  V30 5073 N 490.408 -1.74247 -2.32564 0
M  V30 5074 H 489.955 -2.09238 -1.50257 0
M  V30 5075 H 489.913 -1.12524 -2.93574 0
M  V30 5076 N 493.685 -0.035106 -1.57561 0
M  V30 5077 C 494.934 0.641604 -1.91223 0
M  V30 5078 C 495.247 1.72944 -0.913761 0
M  V30 5079 O 496.453 2.46321 -1.14185 0
M  V30 5080 C 494.909 1.19249 -3.3957 0
M  V30 5081 C 494.517 0.137616 -4.47789 0
M  V30 5082 C 496.261 1.84537 -3.82291 0
M  V30 5083 C 494.168 0.700478 -5.87237 0
M  V30 5084 H 493.098 0.243417 -0.713627 0
M  V30 5085 H 495.749 -0.101382 -1.8322 0
M  V30 5086 H 494.131 1.98728 -3.42525 0
M  V30 5087 H 495.305 -0.635153 -4.56402 0
M  V30 5088 H 493.62 -0.416855 -4.14308 0
M  V30 5089 H 496.217 2.27616 -4.83834 0
M  V30 5090 H 496.56 2.69054 -3.17672 0
M  V30 5091 H 497.093 1.11739 -3.81784 0
M  V30 5092 H 493.832 -0.106693 -6.55413 0
M  V30 5093 H 493.352 1.4416 -5.82218 0
M  V30 5094 H 495.031 1.18837 -6.35993 0
M  V30 5095 N 495.163 1.55791 0.238111 0
M  V30 5096 C 496.44 1.68798 0.98826 0
M  V30 5097 C 496.82 0.577562 2.03045 0
M  V30 5098 O 496.168 -0.41778 2.24648 0
M  V30 5099 C 496.378 3.09454 1.61367 0
M  V30 5100 C 497.726 3.68335 2.11221 0
M  V30 5101 O 498.75 3.1231 1.71292 0
M  V30 5102 O 497.609 4.6657 2.84561 0
M  V30 5103 H 494.703 0.686881 0.460568 0
M  V30 5104 H 497.249 1.68118 0.231202 0
M  V30 5105 H 496.021 3.81726 0.860295 0
M  V30 5106 H 495.644 3.14182 2.4367 0
M  V30 5107 N 496.642 -0.504142 1.49319 0
M  V30 5108 C 497.589 -1.60603 1.65756 0
M  V30 5109 C 498.559 -1.58425 0.499082 0
M  V30 5110 O 499.744 -1.76459 0.725728 0
M  V30 5111 C 496.884 -2.98764 1.72726 0
M  V30 5112 C 495.997 -3.10982 2.99857 0
M  V30 5113 C 495.132 -4.39857 2.97824 0
M  V30 5114 C 494.171 -4.45697 4.19548 0
M  V30 5115 N 493.308 -5.65995 4.15444 0
M  V30 5116 H 498.148 -1.45895 2.59843 0
M  V30 5117 H 495.685 -0.709891 1.28837 0
M  V30 5118 H 497.643 -3.78839 1.74747 0
M  V30 5119 H 496.273 -3.12183 0.821075 0
M  V30 5120 H 495.325 -2.23991 3.07461 0
M  V30 5121 H 496.637 -3.11157 3.89849 0
M  V30 5122 H 495.791 -5.2825 2.98391 0
M  V30 5123 H 494.53 -4.42242 2.05604 0
M  V30 5124 H 493.535 -3.55707 4.19229 0
M  V30 5125 H 494.76 -4.4503 5.12957 0
M  V30 5126 H 492.706 -5.69229 3.26059 0
M  V30 5127 H 492.623 -5.67773 4.99169 0
M  V30 5128 H 493.891 -6.56604 4.20109 0
M  V30 5129 N 498.12 -1.38341 -0.754957 0
M  V30 5130 C 499.35 -1.37504 -1.54195 0
M  V30 5131 C 499.758 0.0373787 -1.89163 0
M  V30 5132 O 499.101 1.01402 -1.53178 0
M  V30 5133 C 499.163 -2.16488 -2.87008 0
M  V30 5134 C 498.827 -3.65311 -2.74585 0
M  V30 5135 C 499.824 -4.58834 -2.44474 0
M  V30 5136 C 497.509 -4.08649 -2.9208 0
M  V30 5137 C 499.503 -5.93675 -2.32011 0
M  V30 5138 C 497.19 -5.43571 -2.79237 0
M  V30 5139 C 498.188 -6.35898 -2.49245 0
M  V30 5140 O 497.876 -7.68338 -2.36458 0
M  V30 5141 H 497.608 -0.472159 -0.483779 0
M  V30 5142 H 500.162 -1.82515 -0.94221 0
M  V30 5143 H 498.392 -1.66194 -3.49166 0
M  V30 5144 H 500.081 -2.08076 -3.4851 0
M  V30 5145 H 500.847 -4.26657 -2.30627 0
M  V30 5146 H 496.726 -3.37134 -3.14422 0
M  V30 5147 H 500.27 -6.65706 -2.08522 0
M  V30 5148 H 496.167 -5.75345 -2.92657 0
M  V30 5149 H 496.935 -7.78845 -2.5168 0
M  V30 5150 N 499.598 0.982988 -1.23187 0
M  V30 5151 C 500.875 1.69814 -0.970707 0
M  V30 5152 C 501.255 2.04811 0.511424 0
M  V30 5153 O 500.603 1.73924 1.48198 0
M  V30 5154 C 500.813 2.94143 -1.87831 0
M  V30 5155 C 502.161 3.66712 -2.14026 0
M  V30 5156 O 503.185 3.04171 -1.8536 0
M  V30 5157 O 502.044 4.79258 -2.62629 0
M  V30 5158 H 499.138 0.741659 -0.365884 0
M  V30 5159 H 501.684 1.03844 -1.34218 0
M  V30 5160 H 500.456 2.64858 -2.88038 0
M  V30 5161 H 500.079 3.6785 -1.50905 0
M  V30 5162 N 501.076 1.04316 1.18135 0
M  V30 5163 C 502.323 0.74802 1.88178 0
M  V30 5164 C 502.651 -0.72441 1.80506 0
M  V30 5165 O 501.906 -1.54463 1.20165 0
M  V30 5166 C 502.205 1.16271 3.37958 0
M  V30 5167 C 501.871 2.63585 3.65833 0
M  V30 5168 C 500.533 3.03829 3.73151 0
M  V30 5169 C 502.885 3.58822 3.78016 0
M  V30 5170 C 500.213 4.38194 3.90132 0
M  V30 5171 C 502.565 4.92909 3.96514 0
M  V30 5172 C 501.229 5.3282 4.02068 0
M  V30 5173 H 500.499 0.27372 0.688592 0
M  V30 5174 H 503.146 1.30863 1.39811 0
M  V30 5175 H 501.451 0.520938 3.88321 0
M  V30 5176 H 503.148 0.911672 3.90499 0
M  V30 5177 H 499.738 2.31414 3.60757 0
M  V30 5178 H 503.922 3.28875 3.71692 0
M  V30 5179 H 499.178 4.68631 3.92677 0
M  V30 5180 H 503.352 5.66606 4.04883 0
M  V30 5181 H 500.979 6.36943 4.14979 0
M  V30 5182 O 502.593 -1.30005 0.958179 0
M  V30 5183 H 503.284 -1.84399 0.593022 0
M  V30 END ATOM
M  V30 BEGIN BOND
M  V30 END BOND
M  V30 END CTAB
M  END
$$$$
