drugbank_target|Q91CQ6 DNA polymerase (DB03312; DB13421)
 OpenBabel12092121123D

  0  0  0     0  0            999 V3000
M  V30 BEGIN CTAB
M  V30 COUNTS 51688 55551 0 0 0
M  V30 BEGIN ATOM
M  V30 1 H -1.547 9.37743 -1.21644 0
M  V30 2 O -1.44 8.89599 -0.40059 0
M  V30 3 P 0 8.91 0 0
M  V30 4 O 0.22 10.1746 0.733838 0
M  V30 5 O 0.79 8.73346 -1.23964 0
M  V30 6 O 0.25 7.66872 0.971405 0
M  V30 7 C -0.69 7.42405 2.04668 0
M  V30 8 C 0.04 6.86059 3.24661 0
M  V30 9 O 0.25 5.42934 3.03695 0
M  V30 10 C 1.44 7.41287 3.50796 0
M  V30 11 O 1.83 7.27073 4.86816 0
M  V30 12 C 2.32 6.5273 2.63741 0
M  V30 13 C 1.61 5.1842 2.73198 0
M  V30 14 N 1.66 4.38762 1.4784 0
M  V30 15 H -1.178 8.36899 2.3252 0
M  V30 16 H -1.45 6.70391 1.71179 0
M  V30 17 H -0.582 7.03638 4.13219 0
M  V30 18 H 2.073 4.59931 3.54016 0
M  V30 19 H 2.353 6.88995 1.59871 0
M  V30 20 H 3.344 6.4684 3.0373 0
M  V30 21 H 1.51 8.47002 3.20749 0
M  V30 22 P 3.37998 7.20834 5.23717 0
M  V30 23 O 3.59998 7.79853 6.57286 0
M  V30 24 O 4.16998 7.79239 4.12957 0
M  V30 25 O 3.62998 5.63315 5.29344 0
M  V30 26 C 2.68998 4.80255 6.01876 0
M  V30 27 C 3.41998 3.64202 6.65911 0
M  V30 28 O 3.62998 2.60694 5.64732 0
M  V30 29 C 4.81998 3.93473 7.1943 0
M  V30 30 O 5.20998 3.02071 8.21205 0
M  V30 31 C 5.69998 3.73047 5.97036 0
M  V30 32 C 4.98998 2.58828 5.25741 0
M  V30 33 N 5.03998 2.68068 3.77503 0
M  V30 34 H 2.20098 5.40332 6.79951 0
M  V30 35 H 1.93098 4.41613 5.32378 0
M  V30 36 H 2.79798 3.26331 7.47797 0
M  V30 37 P 6.75996 2.75334 8.47391 0
M  V30 38 O 6.97996 2.44571 9.90142 0
M  V30 39 O 7.54996 3.87688 7.92115 0
M  V30 40 O 7.00996 1.4459 7.59357 0
M  V30 41 C 6.06996 0.347608 7.69215 0
M  V30 42 C 6.79996 -0.96767 7.52806 0
M  V30 43 O 7.00996 -1.21036 6.1011 0
M  V30 44 C 8.19996 -1.04544 8.13308 0
M  V30 45 O 8.58996 -2.38311 8.41922 0
M  V30 46 C 9.07996 -0.491279 7.02284 0
M  V30 47 C 8.36996 -0.996264 5.77469 0
M  V30 48 N 8.41996 -0.0501916 4.62973 0
M  V30 49 H 5.58096 0.374722 8.67691 0
M  V30 50 H 5.31096 0.443485 6.90277 0
M  V30 51 H 6.17796 -1.75537 7.96793 0
M  V30 52 P 10.1399 -2.75334 8.47391 0
M  V30 53 O 10.3599 -3.84128 9.44797 0
M  V30 54 O 10.9299 -1.51947 8.68712 0
M  V30 55 O 10.3899 -3.29363 6.99321 0
M  V30 56 C 9.44994 -4.24011 6.4274 0
M  V30 57 C 10.1799 -5.20775 5.52155 0
M  V30 58 O 10.3899 -4.56534 4.22446 0
M  V30 59 C 11.5799 -5.62629 5.96531 0
M  V30 60 O 11.9699 -6.87667 5.41053 0
M  V30 61 C 12.4599 -4.52537 5.39283 0
M  V30 62 C 11.7499 -4.20027 4.08623 0
M  V30 63 N 11.7999 -2.76189 3.71603 0
M  V30 64 C 11.7199 -1.64862 4.52822 0
M  V30 65 N 11.7999 -0.512671 3.88633 0
M  V30 66 C 11.9399 -0.888083 2.54977 0
M  V30 67 C 12.0699 -0.094668 1.38677 0
M  V30 68 O 12.0899 1.13053 1.28163 0
M  V30 69 N 12.1899 -0.890102 0.232633 0
M  V30 70 C 12.1899 -2.26958 0.21772 0
M  V30 71 N 12.3199 -2.84626 -0.97925 0
M  V30 72 N 12.0599 -3.0178 1.31033 0
M  V30 73 C 11.9399 -2.26781 2.43843 0
M  V30 74 H 8.96094 -4.797 7.24003 0
M  V30 75 H 8.69094 -3.69856 5.84513 0
M  V30 76 H 9.55794 -6.10356 5.41441 0
M  V30 77 H 12.2129 -4.79061 3.27488 0
M  V30 78 H 12.4919 -3.64906 6.05785 0
M  V30 79 H 13.4839 -4.8868 5.2125 0
M  V30 80 H 11.6499 -5.66726 7.06352 0
M  V30 81 H 11.6009 -1.71169 5.60966 0
M  V30 82 H 12.2829 -0.419134 -0.644739 0
M  V30 83 H 12.3199 -3.87332 -1.06098 0
M  V30 84 H 12.4209 -2.26417 -1.82483 0
M  V30 85 P 13.5199 -7.20834 5.23717 0
M  V30 86 O 13.7399 -8.66104 5.38572 0
M  V30 87 O 14.3099 -6.33544 6.1349 0
M  V30 88 O 13.7699 -6.7751 3.72168 0
M  V30 89 C 12.8299 -7.20825 2.7076 0
M  V30 90 C 13.5599 -7.45864 1.40599 0
M  V30 91 O 13.7699 -6.17651 0.734225 0
M  V30 92 C 14.9599 -8.05808 1.51899 0
M  V30 93 O 15.3499 -8.74358 0.335205 0
M  V30 94 C 15.8399 -6.83093 1.70294 0
M  V30 95 C 15.1299 -5.79992 0.836974 0
M  V30 96 N 15.1799 -4.41864 1.38293 0
M  V30 97 C 15.0999 -3.99538 2.69438 0
M  V30 98 N 15.1799 -2.69909 2.84277 0
M  V30 99 C 15.3199 -2.21719 1.5408 0
M  V30 100 C 15.4499 -0.891712 1.06628 0
M  V30 101 O 15.4699 0.161298 1.70137 0
M  V30 102 N 15.5699 -0.856846 -0.334985 0
M  V30 103 C 15.5699 -1.9641 -1.15789 0
M  V30 104 N 15.6999 -1.72708 -2.46522 0
M  V30 105 N 15.4399 -3.21165 -0.713741 0
M  V30 106 C 15.3199 -3.26797 0.639748 0
M  V30 107 H 12.3409 -8.13644 3.0377 0
M  V30 108 H 12.0709 -6.42788 2.55485 0
M  V30 109 H 12.9379 -8.12039 0.792769 0
M  V30 110 H 15.5929 -5.80061 -0.166416 0
M  V30 111 H 15.8719 -6.51287 2.75604 0
M  V30 112 H 16.8639 -7.01734 1.34462 0
M  V30 113 H 15.0299 -8.73674 2.38337 0
M  V30 114 H 14.9809 -4.68207 3.53221 0
M  V30 115 H 15.6629 0.0398818 -0.767965 0
M  V30 116 H 15.6999 -2.50995 -3.13503 0
M  V30 117 H 15.8009 -0.759148 -2.80716 0
M  V30 118 P 16.8999 -8.91 1.09116e-15 0
M  V30 119 O 17.1199 -10.1726 -0.733694 0
M  V30 120 O 17.6899 -8.73148 1.23936 0
M  V30 121 O 17.1499 -7.66872 -0.971405 0
M  V30 122 C 16.2099 -7.42309 -2.04641 0
M  V30 123 C 16.9399 -6.86059 -3.24661 0
M  V30 124 O 17.1499 -5.42847 -3.03646 0
M  V30 125 C 18.3399 -7.41196 -3.50753 0
M  V30 126 O 18.7299 -7.27073 -4.86816 0
M  V30 127 C 19.2199 -6.5273 -2.63741 0
M  V30 128 C 18.5099 -5.1842 -2.73198 0
M  V30 129 N 18.5599 -4.38762 -1.4784 0
M  V30 130 C 18.4799 -4.81605 -0.168631 0
M  V30 131 N 18.5599 -3.85454 0.713363 0
M  V30 132 C 18.6999 -2.6994 -0.0566958 0
M  V30 133 C 18.8299 -1.34815 0.338502 0
M  V30 134 O 18.8499 -0.869548 1.47125 0
M  V30 135 N 18.9499 -0.496304 -0.77465 0
M  V30 136 C 18.9499 -0.908403 -2.09122 0
M  V30 137 N 19.0799 0.0517805 -3.00955 0
M  V30 138 N 18.8199 -2.17875 -2.46519 0
M  V30 139 C 18.6999 -3.01988 -1.4033 0
M  V30 140 H 15.7209 -8.36803 -2.32493 0
M  V30 141 H 15.4509 -6.70197 -1.71129 0
M  V30 142 H 16.3179 -7.03551 -4.13168 0
M  V30 143 H 18.9729 -4.59498 -3.54415 0
M  V30 144 H 19.2519 -6.88898 -1.59848 0
M  V30 145 H 20.2439 -6.46749 -3.03687 0
M  V30 146 H 18.4099 -8.46908 -3.20714 0
M  V30 147 H 18.3609 -5.86405 0.105564 0
M  V30 148 H 19.0429 0.483664 -0.597855 0
M  V30 149 H 19.0799 -0.187865 -4.0116 0
M  V30 150 H 19.1809 1.03585 -2.71726 0
M  V30 151 P 20.2799 -7.20834 -5.23717 0
M  V30 152 O 20.4999 -7.79853 -6.57286 0
M  V30 153 O 21.0699 -7.79239 -4.12957 0
M  V30 154 O 20.5299 -5.63315 -5.29344 0
M  V30 155 C 19.5899 -4.80255 -6.01876 0
M  V30 156 C 20.3199 -3.64202 -6.65911 0
M  V30 157 O 20.5299 -2.60694 -5.64732 0
M  V30 158 C 21.7199 -3.93473 -7.1943 0
M  V30 159 O 22.1099 -3.02071 -8.21205 0
M  V30 160 C 22.5999 -3.73047 -5.97036 0
M  V30 161 C 21.8899 -2.58828 -5.25741 0
M  V30 162 N 21.9399 -2.68068 -3.77503 0
M  V30 163 C 21.8599 -3.79715 -2.96723 0
M  V30 164 N 21.9399 -3.5377 -1.68852 0
M  V30 165 C 22.0799 -2.15054 -1.63254 0
M  V30 166 C 22.2099 -1.28964 -0.518571 0
M  V30 167 O 22.2299 -1.56826 0.679156 0
M  V30 168 N 22.3299 0.0538097 -0.918425 0
M  V30 169 C 22.3299 0.494275 -2.22578 0
M  V30 170 N 22.4599 1.81086 -2.40434 0
M  V30 171 N 22.1999 -0.313645 -3.27502 0
M  V30 172 C 22.0799 -1.61829 -2.91033 0
M  V30 173 H 19.1009 -5.40332 -6.79951 0
M  V30 174 H 18.8309 -4.41613 -5.32378 0
M  V30 175 H 19.6979 -3.26331 -7.47797 0
M  V30 176 H 22.3529 -1.63422 -5.56814 0
M  V30 177 H 22.6319 -4.63374 -5.34244 0
M  V30 178 H 23.6239 -3.44728 -6.25838 0
M  V30 179 H 21.7899 -4.96652 -7.57263 0
M  V30 180 H 21.7409 -4.80617 -3.3614 0
M  V30 181 H 22.4229 0.742702 -0.199384 0
M  V30 182 H 22.4599 2.20598 -3.35588 0
M  V30 183 H 22.5609 2.43518 -1.58945 0
M  V30 184 P 23.6599 -2.75334 -8.47391 0
M  V30 185 O 23.8799 -2.44571 -9.90142 0
M  V30 186 O 24.4499 -3.87688 -7.92115 0
M  V30 187 O 23.9099 -1.4459 -7.59357 0
M  V30 188 C 22.9699 -0.347608 -7.69215 0
M  V30 189 C 23.6999 0.96767 -7.52806 0
M  V30 190 O 23.9099 1.21036 -6.1011 0
M  V30 191 C 25.0999 1.04544 -8.13308 0
M  V30 192 O 25.4899 2.38311 -8.41922 0
M  V30 193 C 25.9799 0.491279 -7.02284 0
M  V30 194 C 25.2699 0.996264 -5.77469 0
M  V30 195 N 25.3199 0.0501916 -4.62973 0
M  V30 196 H 22.4809 -0.374722 -8.67691 0
M  V30 197 H 22.2109 -0.443485 -6.90277 0
M  V30 198 H 23.0779 1.75537 -7.96793 0
M  V30 199 P 27.0398 2.75334 -8.47391 0
M  V30 200 O 27.2598 3.84128 -9.44797 0
M  V30 201 O 27.8298 1.51947 -8.68712 0
M  V30 202 O 27.2898 3.29363 -6.99321 0
M  V30 203 C 26.3498 4.24011 -6.4274 0
M  V30 204 C 27.0798 5.20775 -5.52155 0
M  V30 205 O 27.2898 4.56534 -4.22446 0
M  V30 206 C 28.4798 5.62629 -5.96531 0
M  V30 207 O 28.8698 6.87667 -5.41053 0
M  V30 208 C 29.3598 4.52537 -5.39283 0
M  V30 209 C 28.6498 4.20027 -4.08623 0
M  V30 210 N 28.6998 2.76189 -3.71603 0
M  V30 211 H 25.8608 4.797 -7.24003 0
M  V30 212 H 25.5908 3.69856 -5.84513 0
M  V30 213 H 26.4578 6.10356 -5.41441 0
M  V30 214 P 30.4198 7.20834 -5.23717 0
M  V30 215 O 30.6398 8.66104 -5.38572 0
M  V30 216 O 31.2098 6.33544 -6.1349 0
M  V30 217 O 30.6698 6.7751 -3.72168 0
M  V30 218 C 29.7298 7.20825 -2.7076 0
M  V30 219 C 30.4598 7.45864 -1.40599 0
M  V30 220 O 30.6698 6.17651 -0.734225 0
M  V30 221 C 31.8598 8.05808 -1.51899 0
M  V30 222 O 32.2498 8.74358 -0.335205 0
M  V30 223 C 32.7398 6.83093 -1.70294 0
M  V30 224 C 32.0298 5.79992 -0.836974 0
M  V30 225 N 32.0798 4.41864 -1.38293 0
M  V30 226 H 29.2408 8.13644 -3.0377 0
M  V30 227 H 28.9708 6.42788 -2.55485 0
M  V30 228 H 29.8378 8.12039 -0.792769 0
M  V30 229 P 33.7998 8.91 -2.18232e-15 0
M  V30 230 O 34.0198 10.1726 0.733694 0
M  V30 231 O 34.5898 8.73148 -1.23936 0
M  V30 232 O 34.0498 7.66872 0.971405 0
M  V30 233 C 33.1098 7.42309 2.04641 0
M  V30 234 C 33.8398 6.86059 3.24661 0
M  V30 235 O 34.0498 5.42847 3.03646 0
M  V30 236 C 35.2398 7.41196 3.50753 0
M  V30 237 O 35.6298 7.27073 4.86816 0
M  V30 238 C 36.1198 6.5273 2.63741 0
M  V30 239 C 35.4098 5.1842 2.73198 0
M  V30 240 N 35.4598 4.38762 1.4784 0
M  V30 241 H 32.6208 8.36803 2.32493 0
M  V30 242 H 32.3508 6.70197 1.71129 0
M  V30 243 H 33.2178 7.03551 4.13168 0
M  V30 244 P 37.1798 7.20834 5.23717 0
M  V30 245 O 37.3998 7.79853 6.57286 0
M  V30 246 O 37.9698 7.79239 4.12957 0
M  V30 247 O 37.4298 5.63315 5.29344 0
M  V30 248 C 36.4898 4.80255 6.01876 0
M  V30 249 C 37.2198 3.64202 6.65911 0
M  V30 250 O 37.4298 2.60694 5.64732 0
M  V30 251 C 38.6198 3.93473 7.1943 0
M  V30 252 O 39.0098 3.02071 8.21205 0
M  V30 253 C 39.4998 3.73047 5.97036 0
M  V30 254 C 38.7898 2.58828 5.25741 0
M  V30 255 N 38.8398 2.68068 3.77503 0
M  V30 256 C 38.7598 3.79715 2.96723 0
M  V30 257 N 38.8398 3.5377 1.68852 0
M  V30 258 C 38.9798 2.15054 1.63254 0
M  V30 259 C 39.1098 1.28964 0.518571 0
M  V30 260 O 39.1298 1.56826 -0.679156 0
M  V30 261 N 39.2298 -0.0538097 0.918425 0
M  V30 262 C 39.2298 -0.494275 2.22578 0
M  V30 263 N 39.3598 -1.81086 2.40434 0
M  V30 264 N 39.0998 0.313645 3.27502 0
M  V30 265 C 38.9798 1.61829 2.91033 0
M  V30 266 H 36.0008 5.40332 6.79951 0
M  V30 267 H 35.7308 4.41613 5.32378 0
M  V30 268 H 36.5978 3.26331 7.47797 0
M  V30 269 H 39.2528 1.63422 5.56814 0
M  V30 270 H 39.5318 4.63374 5.34244 0
M  V30 271 H 40.5238 3.44728 6.25838 0
M  V30 272 H 38.6898 4.96652 7.57263 0
M  V30 273 H 38.6408 4.80617 3.3614 0
M  V30 274 H 39.3228 -0.742702 0.199384 0
M  V30 275 H 39.3598 -2.20598 3.35588 0
M  V30 276 H 39.4608 -2.43518 1.58945 0
M  V30 277 P 40.5598 2.75334 8.47391 0
M  V30 278 O 40.7798 2.44571 9.90142 0
M  V30 279 O 41.3498 3.87688 7.92115 0
M  V30 280 O 40.8098 1.4459 7.59357 0
M  V30 281 C 39.8698 0.347608 7.69215 0
M  V30 282 C 40.5998 -0.96767 7.52806 0
M  V30 283 O 40.8098 -1.21036 6.1011 0
M  V30 284 C 41.9998 -1.04544 8.13308 0
M  V30 285 O 42.3898 -2.38311 8.41922 0
M  V30 286 C 42.8798 -0.491279 7.02284 0
M  V30 287 C 42.1698 -0.996264 5.77469 0
M  V30 288 N 42.2198 -0.0501916 4.62973 0
M  V30 289 C 42.1398 1.32786 4.63244 0
M  V30 290 N 42.2198 1.86957 3.44545 0
M  V30 291 C 42.3598 0.780241 2.58481 0
M  V30 292 C 42.4898 0.738536 1.17757 0
M  V30 293 O 42.5098 1.66794 0.372349 0
M  V30 294 N 42.6098 -0.58337 0.711393 0
M  V30 295 C 42.6098 -1.70816 1.51017 0
M  V30 296 N 42.7398 -2.87826 0.880757 0
M  V30 297 N 42.4798 -1.67126 2.8339 0
M  V30 298 C 42.3598 -0.401421 3.30572 0
M  V30 299 H 39.3808 0.374722 8.67691 0
M  V30 300 H 39.1108 0.443485 6.90277 0
M  V30 301 H 39.9778 -1.75537 7.96793 0
M  V30 302 H 42.6328 -1.95076 5.46529 0
M  V30 303 H 42.9118 0.608565 7.04577 0
M  V30 304 H 43.9038 -0.889672 7.08939 0
M  V30 305 H 42.0698 -0.43308 9.04564 0
M  V30 306 H 42.0208 1.91249 5.54442 0
M  V30 307 H 42.7028 -0.718054 -0.275244 0
M  V30 308 H 42.7398 -3.75721 1.41832 0
M  V30 309 H 42.8408 -2.90436 -0.145468 0
M  V30 310 P 43.9397 -2.75334 8.47391 0
M  V30 311 O 44.1597 -3.84128 9.44797 0
M  V30 312 O 44.7297 -1.51947 8.68712 0
M  V30 313 O 44.1897 -3.29363 6.99321 0
M  V30 314 C 43.2497 -4.24011 6.4274 0
M  V30 315 C 43.9797 -5.20775 5.52155 0
M  V30 316 O 44.1897 -4.56534 4.22446 0
M  V30 317 C 45.3797 -5.62629 5.96531 0
M  V30 318 O 45.7697 -6.87667 5.41053 0
M  V30 319 C 46.2597 -4.52537 5.39283 0
M  V30 320 C 45.5497 -4.20027 4.08623 0
M  V30 321 N 45.5997 -2.76189 3.71603 0
M  V30 322 H 42.7607 -4.797 7.24003 0
M  V30 323 H 42.4907 -3.69856 5.84513 0
M  V30 324 H 43.3577 -6.10356 5.41441 0
M  V30 325 P 47.3197 -7.20834 5.23717 0
M  V30 326 O 47.5397 -8.66104 5.38572 0
M  V30 327 O 48.1097 -6.33544 6.1349 0
M  V30 328 O 47.5697 -6.7751 3.72168 0
M  V30 329 C 46.6297 -7.20825 2.7076 0
M  V30 330 C 47.3597 -7.45864 1.40599 0
M  V30 331 O 47.5697 -6.17651 0.734225 0
M  V30 332 C 48.7597 -8.05808 1.51899 0
M  V30 333 O 49.1497 -8.74358 0.335205 0
M  V30 334 C 49.6397 -6.83093 1.70294 0
M  V30 335 C 48.9297 -5.79992 0.836974 0
M  V30 336 N 48.9797 -4.41864 1.38293 0
M  V30 337 H 46.1407 -8.13644 3.0377 0
M  V30 338 H 45.8707 -6.42788 2.55485 0
M  V30 339 H 46.7377 -8.12039 0.792769 0
M  V30 340 P 50.6997 -8.91 3.27348e-15 0
M  V30 341 O 50.9197 -10.1746 -0.733838 0
M  V30 342 O 51.4897 -8.73346 1.23964 0
M  V30 343 O 50.9497 -7.66872 -0.971405 0
M  V30 344 C 50.0097 -7.42405 -2.04668 0
M  V30 345 C 50.7397 -6.86059 -3.24661 0
M  V30 346 O 50.9497 -5.42934 -3.03695 0
M  V30 347 C 52.1397 -7.41287 -3.50796 0
M  V30 348 O 52.5297 -7.27073 -4.86816 0
M  V30 349 C 53.0197 -6.5273 -2.63741 0
M  V30 350 C 52.3097 -5.1842 -2.73198 0
M  V30 351 N 52.3597 -4.38762 -1.4784 0
M  V30 352 C 52.2797 -4.83651 -0.183876 0
M  V30 353 N 52.3497 -3.88759 0.699393 0
M  V30 354 C 52.4997 -2.7404 -0.0575568 0
M  V30 355 C 52.6297 -1.37902 0.293928 0
M  V30 356 N 52.6397 -0.938021 1.54797 0
M  V30 357 N 52.7497 -0.491817 -0.70549 0
M  V30 358 C 52.7397 -0.931735 -1.95979 0
M  V30 359 N 52.6197 -2.16017 -2.41481 0
M  V30 360 C 52.4997 -3.02547 -1.39121 0
M  V30 361 H 49.5217 -8.36899 -2.3252 0
M  V30 362 H 49.2497 -6.70391 -1.71179 0
M  V30 363 H 50.1177 -7.03638 -4.13219 0
M  V30 364 H 52.7727 -4.59931 -3.54016 0
M  V30 365 H 53.0527 -6.88995 -1.59871 0
M  V30 366 H 54.0437 -6.4684 -3.0373 0
M  V30 367 H 52.2097 -8.47002 -3.20749 0
M  V30 368 H 52.1687 -5.8885 0.0765548 0
M  V30 369 H 52.5497 -1.60276 2.32875 0
M  V30 370 H 52.7387 0.0699355 1.73859 0
M  V30 371 H 52.8467 -0.165507 -2.71897 0
M  V30 372 P 54.0797 -7.20834 -5.23717 0
M  V30 373 O 54.2997 -7.80006 -6.57415 0
M  V30 374 O 54.8697 -7.79416 -4.13051 0
M  V30 375 O 54.3297 -5.63315 -5.29344 0
M  V30 376 C 53.3897 -4.80318 -6.01954 0
M  V30 377 C 54.1197 -3.64202 -6.65911 0
M  V30 378 O 54.3297 -2.60736 -5.64823 0
M  V30 379 C 55.5197 -3.93521 -7.19518 0
M  V30 380 O 55.9097 -3.02071 -8.21205 0
M  V30 381 C 56.3997 -3.73047 -5.97036 0
M  V30 382 C 55.6897 -2.58828 -5.25741 0
M  V30 383 N 55.7397 -2.68068 -3.77503 0
M  V30 384 C 55.6597 -3.80474 -2.99159 0
M  V30 385 N 55.7297 -3.55622 -1.71925 0
M  V30 386 C 55.8797 -2.1832 -1.65733 0
M  V30 387 C 56.0097 -1.28842 -0.572777 0
M  V30 388 N 56.0197 -1.66875 0.70098 0
M  V30 389 N 56.1297 0.016788 -0.859836 0
M  V30 390 C 56.1197 0.398145 -2.13316 0
M  V30 391 N 55.9997 -0.328224 -3.22333 0
M  V30 392 C 55.8797 -1.62992 -2.90383 0
M  V30 393 H 52.9017 -5.40394 -6.8003 0
M  V30 394 H 52.6297 -4.41741 -5.32532 0
M  V30 395 H 53.4977 -3.26371 -7.47889 0
M  V30 396 H 56.1527 -1.64007 -5.56746 0
M  V30 397 H 56.4327 -4.63439 -5.3432 0
M  V30 398 H 57.4237 -3.44776 -6.25925 0
M  V30 399 H 55.5897 -4.96707 -7.57347 0
M  V30 400 H 55.5487 -4.8089 -3.39924 0
M  V30 401 H 55.9297 -2.66547 0.941919 0
M  V30 402 H 56.1187 -0.965341 1.44766 0
M  V30 403 H 56.2267 1.46427 -2.29697 0
M  V30 404 P 57.4597 -2.75334 -8.47391 0
M  V30 405 O 57.6797 -2.44571 -9.90142 0
M  V30 406 O 58.2497 -3.87688 -7.92115 0
M  V30 407 O 57.7097 -1.4459 -7.59357 0
M  V30 408 C 56.7697 -0.347608 -7.69215 0
M  V30 409 C 57.4997 0.96767 -7.52806 0
M  V30 410 O 57.7097 1.21036 -6.1011 0
M  V30 411 C 58.8997 1.04544 -8.13308 0
M  V30 412 O 59.2897 2.38311 -8.41922 0
M  V30 413 C 59.7797 0.491279 -7.02284 0
M  V30 414 C 59.0697 0.996264 -5.77469 0
M  V30 415 N 59.1197 0.0501916 -4.62973 0
M  V30 416 C 59.0397 -1.32786 -4.63244 0
M  V30 417 N 59.1197 -1.86957 -3.44545 0
M  V30 418 C 59.2597 -0.780241 -2.58481 0
M  V30 419 C 59.3897 -0.738536 -1.17757 0
M  V30 420 N 59.5097 0.58337 -0.711393 0
M  V30 421 C 59.5097 1.70816 -1.51017 0
M  V30 422 N 59.6397 2.87826 -0.880757 0
M  V30 423 N 59.3797 1.67126 -2.8339 0
M  V30 424 C 59.2597 0.401421 -3.30572 0
M  V30 425 H 56.2807 -0.374722 -8.67691 0
M  V30 426 H 56.0107 -0.443485 -6.90277 0
M  V30 427 H 56.8777 1.75537 -7.96793 0
M  V30 428 P 60.8396 2.75334 -8.47391 0
M  V30 429 O 61.0596 3.84204 -9.44982 0
M  V30 430 O 61.6296 1.51982 -8.68909 0
M  V30 431 O 61.0896 3.29363 -6.99321 0
M  V30 432 C 60.1496 4.24066 -6.42823 0
M  V30 433 C 60.8796 5.20775 -5.52155 0
M  V30 434 O 61.0896 4.56607 -4.22514 0
M  V30 435 C 62.2796 5.62697 -5.96604 0
M  V30 436 O 62.6696 6.87667 -5.41053 0
M  V30 437 C 63.1596 4.52537 -5.39283 0
M  V30 438 C 62.4496 4.20027 -4.08623 0
M  V30 439 N 62.4996 2.76189 -3.71603 0
M  V30 440 C 62.4196 1.66944 -4.54297 0
M  V30 441 N 62.4896 0.536169 -3.91344 0
M  V30 442 C 62.6396 0.901569 -2.58849 0
M  V30 443 C 62.7696 0.146599 -1.40236 0
M  V30 444 N 62.7796 -1.18234 -1.37046 0
M  V30 445 N 62.8896 0.822941 -0.249738 0
M  V30 446 C 62.8796 2.15179 -0.280525 0
M  V30 447 N 62.7596 2.96414 -1.30822 0
M  V30 448 C 62.6396 2.25804 -2.44748 0
M  V30 449 H 59.6616 4.79756 -7.24086 0
M  V30 450 H 59.3896 3.69963 -5.84682 0
M  V30 451 H 60.2576 6.10431 -5.41508 0
M  V30 452 H 62.9126 4.78816 -3.28024 0
M  V30 453 H 63.1926 3.64957 -6.05871 0
M  V30 454 H 64.1836 4.88748 -5.21323 0
M  V30 455 H 62.3496 5.66789 -7.0643 0
M  V30 456 H 62.3086 1.74684 -5.62396 0
M  V30 457 H 62.6896 -1.71949 -2.24394 0
M  V30 458 H 62.8786 -1.67511 -0.470742 0
M  V30 459 H 62.9866 2.63704 0.6828 0
M  V30 460 P 64.2196 7.20834 -5.23717 0
M  V30 461 O 64.4396 8.66274 -5.38678 0
M  V30 462 O 65.0096 6.33687 -6.13629 0
M  V30 463 O 64.4696 6.7751 -3.72168 0
M  V30 464 C 63.5296 7.20919 -2.70795 0
M  V30 465 C 64.2596 7.45864 -1.40599 0
M  V30 466 O 64.4696 6.17751 -0.734343 0
M  V30 467 C 65.6596 8.05906 -1.51917 0
M  V30 468 O 66.0496 8.74358 -0.335205 0
M  V30 469 C 66.5396 6.83093 -1.70294 0
M  V30 470 C 65.8296 5.79992 -0.836974 0
M  V30 471 N 65.8796 4.41864 -1.38293 0
M  V30 472 C 65.7996 4.02089 -2.69407 0
M  V30 473 N 65.8696 2.73403 -2.85089 0
M  V30 474 C 66.0196 2.25086 -1.5642 0
M  V30 475 C 66.1496 0.942887 -1.04836 0
M  V30 476 N 66.1596 -0.150999 -1.80369 0
M  V30 477 N 66.2696 0.812565 0.28167 0
M  V30 478 C 66.2596 1.90572 1.03784 0
M  V30 479 N 66.1396 3.167 0.683905 0
M  V30 480 C 66.0196 3.26538 -0.652815 0
M  V30 481 H 63.0416 8.13738 -3.03804 0
M  V30 482 H 62.7696 6.42974 -2.55559 0
M  V30 483 H 63.6376 8.12139 -0.792866 0
M  V30 484 H 66.2926 5.80178 0.160643 0
M  V30 485 H 66.5726 6.51379 -2.75643 0
M  V30 486 H 67.5636 7.01832 -1.3448 0
M  V30 487 H 65.7296 8.73771 -2.38364 0
M  V30 488 H 65.6886 4.7189 -3.52311 0
M  V30 489 H 66.0696 -0.0721434 -2.82608 0
M  V30 490 H 66.2586 -1.0785 -1.36544 0
M  V30 491 H 66.3666 1.73207 2.10241 0
M  V30 492 P 67.5996 8.91 -4.36464e-15 0
M  V30 493 O 67.8196 10.1726 0.733694 0
M  V30 494 O 68.3896 8.73148 -1.23936 0
M  V30 495 O 67.8496 7.66872 0.971405 0
M  V30 496 C 66.9096 7.42309 2.04641 0
M  V30 497 C 67.6396 6.86059 3.24661 0
M  V30 498 O 67.8496 5.42847 3.03646 0
M  V30 499 C 69.0396 7.41196 3.50753 0
M  V30 500 O 69.4296 7.27073 4.86816 0
M  V30 501 C 69.9196 6.5273 2.63741 0
M  V30 502 C 69.2096 5.1842 2.73198 0
M  V30 503 N 69.2596 4.38762 1.4784 0
M  V30 504 H 66.4206 8.36803 2.32493 0
M  V30 505 H 66.1506 6.70197 1.71129 0
M  V30 506 H 67.0176 7.03551 4.13168 0
M  V30 507 P 70.9796 7.20834 5.23717 0
M  V30 508 O 71.1996 7.79853 6.57286 0
M  V30 509 O 71.7696 7.79239 4.12957 0
M  V30 510 O 71.2296 5.63315 5.29344 0
M  V30 511 C 70.2896 4.80255 6.01876 0
M  V30 512 C 71.0196 3.64202 6.65911 0
M  V30 513 O 71.2296 2.60694 5.64732 0
M  V30 514 C 72.4196 3.93473 7.1943 0
M  V30 515 O 72.8096 3.02071 8.21205 0
M  V30 516 C 73.2996 3.73047 5.97036 0
M  V30 517 C 72.5896 2.58828 5.25741 0
M  V30 518 N 72.6396 2.68068 3.77503 0
M  V30 519 C 72.5596 3.79715 2.96723 0
M  V30 520 N 72.6396 3.5377 1.68852 0
M  V30 521 C 72.7796 2.15054 1.63254 0
M  V30 522 C 72.9096 1.28964 0.518571 0
M  V30 523 O 72.9296 1.56826 -0.679156 0
M  V30 524 N 73.0296 -0.0538097 0.918425 0
M  V30 525 C 73.0296 -0.494275 2.22578 0
M  V30 526 N 73.1596 -1.81086 2.40434 0
M  V30 527 N 72.8996 0.313645 3.27502 0
M  V30 528 C 72.7796 1.61829 2.91033 0
M  V30 529 H 69.8006 5.40332 6.79951 0
M  V30 530 H 69.5306 4.41613 5.32378 0
M  V30 531 H 70.3976 3.26331 7.47797 0
M  V30 532 H 73.0526 1.63422 5.56814 0
M  V30 533 H 73.3316 4.63374 5.34244 0
M  V30 534 H 74.3236 3.44728 6.25838 0
M  V30 535 H 72.4896 4.96652 7.57263 0
M  V30 536 H 72.4406 4.80617 3.3614 0
M  V30 537 H 73.1226 -0.742702 0.199384 0
M  V30 538 H 73.1596 -2.20598 3.35588 0
M  V30 539 H 73.2606 -2.43518 1.58945 0
M  V30 540 P 74.3596 2.75334 8.47391 0
M  V30 541 O 74.5796 2.44571 9.90142 0
M  V30 542 O 75.1496 3.87688 7.92115 0
M  V30 543 O 74.6096 1.4459 7.59357 0
M  V30 544 C 73.6696 0.347608 7.69215 0
M  V30 545 C 74.3996 -0.96767 7.52806 0
M  V30 546 O 74.6096 -1.21036 6.1011 0
M  V30 547 C 75.7996 -1.04544 8.13308 0
M  V30 548 O 76.1896 -2.38311 8.41922 0
M  V30 549 C 76.6796 -0.491279 7.02284 0
M  V30 550 C 75.9696 -0.996264 5.77469 0
M  V30 551 N 76.0196 -0.0501916 4.62973 0
M  V30 552 H 73.1806 0.374722 8.67691 0
M  V30 553 H 72.9106 0.443485 6.90277 0
M  V30 554 H 73.7776 -1.75537 7.96793 0
M  V30 555 P 77.7395 -2.75334 8.47391 0
M  V30 556 O 77.9595 -3.84128 9.44797 0
M  V30 557 O 78.5295 -1.51947 8.68712 0
M  V30 558 O 77.9895 -3.29363 6.99321 0
M  V30 559 C 77.0495 -4.24011 6.4274 0
M  V30 560 C 77.7795 -5.20775 5.52155 0
M  V30 561 O 77.9895 -4.56534 4.22446 0
M  V30 562 C 79.1795 -5.62629 5.96531 0
M  V30 563 O 79.5695 -6.87667 5.41053 0
M  V30 564 C 80.0595 -4.52537 5.39283 0
M  V30 565 C 79.3495 -4.20027 4.08623 0
M  V30 566 N 79.3995 -2.76189 3.71603 0
M  V30 567 H 76.5605 -4.797 7.24003 0
M  V30 568 H 76.2905 -3.69856 5.84513 0
M  V30 569 H 77.1575 -6.10356 5.41441 0
M  V30 570 P 81.1195 -7.20834 5.23717 0
M  V30 571 O 81.3395 -8.66274 5.38678 0
M  V30 572 O 81.9095 -6.33687 6.13629 0
M  V30 573 O 81.3695 -6.7751 3.72168 0
M  V30 574 C 80.4295 -7.20919 2.70795 0
M  V30 575 C 81.1595 -7.45864 1.40599 0
M  V30 576 O 81.3695 -6.17751 0.734343 0
M  V30 577 C 82.5595 -8.05906 1.51917 0
M  V30 578 O 82.9495 -8.74358 0.335205 0
M  V30 579 C 83.4395 -6.83093 1.70294 0
M  V30 580 C 82.7295 -5.79992 0.836974 0
M  V30 581 N 82.7795 -4.41864 1.38293 0
M  V30 582 C 82.6995 -4.02089 2.69407 0
M  V30 583 N 82.7695 -2.73403 2.85089 0
M  V30 584 C 82.9195 -2.25086 1.5642 0
M  V30 585 C 83.0495 -0.942887 1.04836 0
M  V30 586 N 83.0595 0.150999 1.80369 0
M  V30 587 N 83.1695 -0.812565 -0.28167 0
M  V30 588 C 83.1595 -1.90572 -1.03784 0
M  V30 589 N 83.0395 -3.167 -0.683905 0
M  V30 590 C 82.9195 -3.26538 0.652815 0
M  V30 591 H 79.9415 -8.13738 3.03804 0
M  V30 592 H 79.6695 -6.42974 2.55559 0
M  V30 593 H 80.5375 -8.12139 0.792866 0
M  V30 594 H 83.1925 -5.80178 -0.160643 0
M  V30 595 H 83.4725 -6.51379 2.75643 0
M  V30 596 H 84.4635 -7.01832 1.3448 0
M  V30 597 H 82.6295 -8.73771 2.38364 0
M  V30 598 H 82.5885 -4.7189 3.52311 0
M  V30 599 H 82.9695 0.0721434 2.82608 0
M  V30 600 H 83.1585 1.0785 1.36544 0
M  V30 601 H 83.2665 -1.73207 -2.10241 0
M  V30 602 P 84.4995 -8.91 5.4558e-15 0
M  V30 603 O 84.7195 -10.1726 -0.733694 0
M  V30 604 O 85.2895 -8.73148 1.23936 0
M  V30 605 O 84.7495 -7.66872 -0.971405 0
M  V30 606 C 83.8095 -7.42309 -2.04641 0
M  V30 607 C 84.5395 -6.86059 -3.24661 0
M  V30 608 O 84.7495 -5.42847 -3.03646 0
M  V30 609 C 85.9395 -7.41196 -3.50753 0
M  V30 610 O 86.3295 -7.27073 -4.86816 0
M  V30 611 C 86.8195 -6.5273 -2.63741 0
M  V30 612 C 86.1095 -5.1842 -2.73198 0
M  V30 613 N 86.1595 -4.38762 -1.4784 0
M  V30 614 H 83.3205 -8.36803 -2.32493 0
M  V30 615 H 83.0505 -6.70197 -1.71129 0
M  V30 616 H 83.9175 -7.03551 -4.13168 0
M  V30 617 P 87.8795 -7.20834 -5.23717 0
M  V30 618 O 88.0995 -7.80006 -6.57415 0
M  V30 619 O 88.6695 -7.79416 -4.13051 0
M  V30 620 O 88.1295 -5.63315 -5.29344 0
M  V30 621 C 87.1895 -4.80318 -6.01954 0
M  V30 622 C 87.9195 -3.64202 -6.65911 0
M  V30 623 O 88.1295 -2.60736 -5.64823 0
M  V30 624 C 89.3195 -3.93521 -7.19518 0
M  V30 625 O 89.7095 -3.02071 -8.21205 0
M  V30 626 C 90.1995 -3.73047 -5.97036 0
M  V30 627 C 89.4895 -2.58828 -5.25741 0
M  V30 628 N 89.5395 -2.68068 -3.77503 0
M  V30 629 C 89.4595 -3.80474 -2.99159 0
M  V30 630 N 89.5295 -3.55622 -1.71925 0
M  V30 631 C 89.6795 -2.1832 -1.65733 0
M  V30 632 C 89.8095 -1.28842 -0.572777 0
M  V30 633 N 89.8195 -1.66875 0.70098 0
M  V30 634 N 89.9295 0.016788 -0.859836 0
M  V30 635 C 89.9195 0.398145 -2.13316 0
M  V30 636 N 89.7995 -0.328224 -3.22333 0
M  V30 637 C 89.6795 -1.62992 -2.90383 0
M  V30 638 H 86.7015 -5.40394 -6.8003 0
M  V30 639 H 86.4295 -4.41741 -5.32532 0
M  V30 640 H 87.2975 -3.26371 -7.47889 0
M  V30 641 H 89.9525 -1.64007 -5.56746 0
M  V30 642 H 90.2325 -4.63439 -5.3432 0
M  V30 643 H 91.2235 -3.44776 -6.25925 0
M  V30 644 H 89.3895 -4.96707 -7.57347 0
M  V30 645 H 89.3485 -4.8089 -3.39924 0
M  V30 646 H 89.7295 -2.66547 0.941919 0
M  V30 647 H 89.9185 -0.965341 1.44766 0
M  V30 648 H 90.0265 1.46427 -2.29697 0
M  V30 649 P 91.2595 -2.75334 -8.47391 0
M  V30 650 O 91.4795 -2.44571 -9.90142 0
M  V30 651 O 92.0495 -3.87688 -7.92115 0
M  V30 652 O 91.5095 -1.4459 -7.59357 0
M  V30 653 C 90.5695 -0.347608 -7.69215 0
M  V30 654 C 91.2995 0.96767 -7.52806 0
M  V30 655 O 91.5095 1.21036 -6.1011 0
M  V30 656 C 92.6995 1.04544 -8.13308 0
M  V30 657 O 93.0895 2.38311 -8.41922 0
M  V30 658 C 93.5795 0.491279 -7.02284 0
M  V30 659 C 92.8695 0.996264 -5.77469 0
M  V30 660 N 92.9195 0.0501916 -4.62973 0
M  V30 661 C 92.8395 -1.32786 -4.63244 0
M  V30 662 N 92.9195 -1.86957 -3.44545 0
M  V30 663 C 93.0595 -0.780241 -2.58481 0
M  V30 664 C 93.1895 -0.738536 -1.17757 0
M  V30 665 O 93.2095 -1.66794 -0.372349 0
M  V30 666 N 93.3095 0.58337 -0.711393 0
M  V30 667 C 93.3095 1.70816 -1.51017 0
M  V30 668 N 93.4395 2.87826 -0.880757 0
M  V30 669 N 93.1795 1.67126 -2.8339 0
M  V30 670 C 93.0595 0.401421 -3.30572 0
M  V30 671 H 90.0805 -0.374722 -8.67691 0
M  V30 672 H 89.8105 -0.443485 -6.90277 0
M  V30 673 H 90.6775 1.75537 -7.96793 0
M  V30 674 H 93.3325 1.95076 -5.46529 0
M  V30 675 H 93.6115 -0.608565 -7.04577 0
M  V30 676 H 94.6035 0.889672 -7.08939 0
M  V30 677 H 92.7695 0.43308 -9.04564 0
M  V30 678 H 92.7205 -1.91249 -5.54442 0
M  V30 679 H 93.4025 0.718054 0.275244 0
M  V30 680 H 93.4395 3.75721 -1.41832 0
M  V30 681 H 93.5405 2.90436 0.145468 0
M  V30 682 P 94.6394 2.75334 -8.47391 0
M  V30 683 O 94.8594 3.84128 -9.44797 0
M  V30 684 O 95.4294 1.51947 -8.68712 0
M  V30 685 O 94.8894 3.29363 -6.99321 0
M  V30 686 C 93.9494 4.24011 -6.4274 0
M  V30 687 C 94.6794 5.20775 -5.52155 0
M  V30 688 O 94.8894 4.56534 -4.22446 0
M  V30 689 C 96.0794 5.62629 -5.96531 0
M  V30 690 O 96.4694 6.87667 -5.41053 0
M  V30 691 C 96.9594 4.52537 -5.39283 0
M  V30 692 C 96.2494 4.20027 -4.08623 0
M  V30 693 N 96.2994 2.76189 -3.71603 0
M  V30 694 H 93.4604 4.797 -7.24003 0
M  V30 695 H 93.1904 3.69856 -5.84513 0
M  V30 696 H 94.0574 6.10356 -5.41441 0
M  V30 697 P 98.0194 7.20834 -5.23717 0
M  V30 698 O 98.2394 8.66104 -5.38572 0
M  V30 699 O 98.8094 6.33544 -6.1349 0
M  V30 700 O 98.2694 6.7751 -3.72168 0
M  V30 701 C 97.3294 7.20825 -2.7076 0
M  V30 702 C 98.0594 7.45864 -1.40599 0
M  V30 703 O 98.2694 6.17651 -0.734225 0
M  V30 704 C 99.4594 8.05808 -1.51899 0
M  V30 705 O 99.8494 8.74358 -0.335205 0
M  V30 706 C 100.339 6.83093 -1.70294 0
M  V30 707 C 99.6294 5.79992 -0.836974 0
M  V30 708 N 99.6794 4.41864 -1.38293 0
M  V30 709 C 99.5994 3.99538 -2.69438 0
M  V30 710 N 99.6794 2.69909 -2.84277 0
M  V30 711 C 99.8194 2.21719 -1.5408 0
M  V30 712 C 99.9494 0.891712 -1.06628 0
M  V30 713 N 100.069 0.856846 0.334985 0
M  V30 714 C 100.069 1.9641 1.15789 0
M  V30 715 N 100.199 1.72708 2.46522 0
M  V30 716 N 99.9394 3.21165 0.713741 0
M  V30 717 C 99.8194 3.26797 -0.639748 0
M  V30 718 H 96.8404 8.13644 -3.0377 0
M  V30 719 H 96.5704 6.42788 -2.55485 0
M  V30 720 H 97.4374 8.12039 -0.792769 0
M  V30 721 P 101.399 8.91 -6.54696e-15 0
M  V30 722 O 101.619 10.1726 0.733694 0
M  V30 723 O 102.189 8.73148 -1.23936 0
M  V30 724 O 101.649 7.66872 0.971405 0
M  V30 725 C 100.709 7.42309 2.04641 0
M  V30 726 C 101.439 6.86059 3.24661 0
M  V30 727 O 101.649 5.42847 3.03646 0
M  V30 728 C 102.839 7.41196 3.50753 0
M  V30 729 O 103.229 7.27073 4.86816 0
M  V30 730 C 103.719 6.5273 2.63741 0
M  V30 731 C 103.009 5.1842 2.73198 0
M  V30 732 N 103.059 4.38762 1.4784 0
M  V30 733 C 102.979 4.81605 0.168631 0
M  V30 734 N 103.059 3.85454 -0.713363 0
M  V30 735 C 103.199 2.6994 0.0566958 0
M  V30 736 C 103.329 1.34815 -0.338502 0
M  V30 737 O 103.349 0.869548 -1.47125 0
M  V30 738 N 103.449 0.496304 0.77465 0
M  V30 739 C 103.449 0.908403 2.09122 0
M  V30 740 N 103.579 -0.0517805 3.00955 0
M  V30 741 N 103.319 2.17875 2.46519 0
M  V30 742 C 103.199 3.01988 1.4033 0
M  V30 743 H 100.22 8.36803 2.32493 0
M  V30 744 H 99.9504 6.70197 1.71129 0
M  V30 745 H 100.817 7.03551 4.13168 0
M  V30 746 H 103.472 4.59498 3.54415 0
M  V30 747 H 103.751 6.88898 1.59848 0
M  V30 748 H 104.743 6.46749 3.03687 0
M  V30 749 H 102.909 8.46908 3.20714 0
M  V30 750 H 102.86 5.86405 -0.105564 0
M  V30 751 H 103.542 -0.483664 0.597855 0
M  V30 752 H 103.579 0.187865 4.0116 0
M  V30 753 H 103.68 -1.03585 2.71726 0
M  V30 754 P 104.779 7.20834 5.23717 0
M  V30 755 O 104.999 7.80006 6.57415 0
M  V30 756 O 105.569 7.79416 4.13051 0
M  V30 757 O 105.029 5.63315 5.29344 0
M  V30 758 C 104.089 4.80318 6.01954 0
M  V30 759 C 104.819 3.64202 6.65911 0
M  V30 760 O 105.029 2.60736 5.64823 0
M  V30 761 C 106.219 3.93521 7.19518 0
M  V30 762 O 106.609 3.02071 8.21205 0
M  V30 763 C 107.099 3.73047 5.97036 0
M  V30 764 C 106.389 2.58828 5.25741 0
M  V30 765 N 106.439 2.68068 3.77503 0
M  V30 766 C 106.359 3.80474 2.99159 0
M  V30 767 N 106.429 3.55622 1.71925 0
M  V30 768 C 106.579 2.1832 1.65733 0
M  V30 769 C 106.709 1.28842 0.572777 0
M  V30 770 N 106.719 1.66875 -0.70098 0
M  V30 771 N 106.829 -0.016788 0.859836 0
M  V30 772 C 106.819 -0.398145 2.13316 0
M  V30 773 N 106.699 0.328224 3.22333 0
M  V30 774 C 106.579 1.62992 2.90383 0
M  V30 775 H 103.601 5.40394 6.8003 0
M  V30 776 H 103.329 4.41741 5.32532 0
M  V30 777 H 104.197 3.26371 7.47889 0
M  V30 778 H 106.852 1.64007 5.56746 0
M  V30 779 H 107.132 4.63439 5.3432 0
M  V30 780 H 108.123 3.44776 6.25925 0
M  V30 781 H 106.289 4.96707 7.57347 0
M  V30 782 H 106.248 4.8089 3.39924 0
M  V30 783 H 106.629 2.66547 -0.941919 0
M  V30 784 H 106.818 0.965341 -1.44766 0
M  V30 785 H 106.926 -1.46427 2.29697 0
M  V30 786 P 108.159 2.75334 8.47391 0
M  V30 787 O 108.379 2.44571 9.90142 0
M  V30 788 O 108.949 3.87688 7.92115 0
M  V30 789 O 108.409 1.4459 7.59357 0
M  V30 790 C 107.469 0.347608 7.69215 0
M  V30 791 C 108.199 -0.96767 7.52806 0
M  V30 792 O 108.409 -1.21036 6.1011 0
M  V30 793 C 109.599 -1.04544 8.13308 0
M  V30 794 O 109.989 -2.38311 8.41922 0
M  V30 795 C 110.479 -0.491279 7.02284 0
M  V30 796 C 109.769 -0.996264 5.77469 0
M  V30 797 N 109.819 -0.0501916 4.62973 0
M  V30 798 C 109.739 1.32786 4.63244 0
M  V30 799 N 109.819 1.86957 3.44545 0
M  V30 800 C 109.959 0.780241 2.58481 0
M  V30 801 C 110.089 0.738536 1.17757 0
M  V30 802 O 110.109 1.66794 0.372349 0
M  V30 803 N 110.209 -0.58337 0.711393 0
M  V30 804 C 110.209 -1.70816 1.51017 0
M  V30 805 N 110.339 -2.87826 0.880757 0
M  V30 806 N 110.079 -1.67126 2.8339 0
M  V30 807 C 109.959 -0.401421 3.30572 0
M  V30 808 H 106.98 0.374722 8.67691 0
M  V30 809 H 106.71 0.443485 6.90277 0
M  V30 810 H 107.577 -1.75537 7.96793 0
M  V30 811 H 110.232 -1.95076 5.46529 0
M  V30 812 H 110.511 0.608565 7.04577 0
M  V30 813 H 111.503 -0.889672 7.08939 0
M  V30 814 H 109.669 -0.43308 9.04564 0
M  V30 815 H 109.62 1.91249 5.54442 0
M  V30 816 H 110.302 -0.718054 -0.275244 0
M  V30 817 H 110.339 -3.75721 1.41832 0
M  V30 818 H 110.44 -2.90436 -0.145468 0
M  V30 819 P 111.539 -2.75334 8.47391 0
M  V30 820 O 111.759 -3.84128 9.44797 0
M  V30 821 O 112.329 -1.51947 8.68712 0
M  V30 822 O 111.789 -3.29363 6.99321 0
M  V30 823 C 110.849 -4.24011 6.4274 0
M  V30 824 C 111.579 -5.20775 5.52155 0
M  V30 825 O 111.789 -4.56534 4.22446 0
M  V30 826 C 112.979 -5.62629 5.96531 0
M  V30 827 O 113.369 -6.87667 5.41053 0
M  V30 828 C 113.859 -4.52537 5.39283 0
M  V30 829 C 113.149 -4.20027 4.08623 0
M  V30 830 N 113.199 -2.76189 3.71603 0
M  V30 831 C 113.119 -1.64862 4.52822 0
M  V30 832 N 113.199 -0.512671 3.88633 0
M  V30 833 C 113.339 -0.888083 2.54977 0
M  V30 834 C 113.469 -0.094668 1.38677 0
M  V30 835 N 113.589 -0.890102 0.232633 0
M  V30 836 C 113.589 -2.26958 0.21772 0
M  V30 837 N 113.719 -2.84626 -0.97925 0
M  V30 838 N 113.459 -3.0178 1.31033 0
M  V30 839 C 113.339 -2.26781 2.43843 0
M  V30 840 H 110.36 -4.797 7.24003 0
M  V30 841 H 110.09 -3.69856 5.84513 0
M  V30 842 H 110.957 -6.10356 5.41441 0
M  V30 843 P 114.919 -7.20834 5.23717 0
M  V30 844 O 115.139 -8.66104 5.38572 0
M  V30 845 O 115.709 -6.33544 6.1349 0
M  V30 846 O 115.169 -6.7751 3.72168 0
M  V30 847 C 114.229 -7.20825 2.7076 0
M  V30 848 C 114.959 -7.45864 1.40599 0
M  V30 849 O 115.169 -6.17651 0.734225 0
M  V30 850 C 116.359 -8.05808 1.51899 0
M  V30 851 O 116.749 -8.74358 0.335205 0
M  V30 852 C 117.239 -6.83093 1.70294 0
M  V30 853 C 116.529 -5.79992 0.836974 0
M  V30 854 N 116.579 -4.41864 1.38293 0
M  V30 855 C 116.499 -3.99538 2.69438 0
M  V30 856 N 116.579 -2.69909 2.84277 0
M  V30 857 C 116.719 -2.21719 1.5408 0
M  V30 858 C 116.849 -0.891712 1.06628 0
M  V30 859 O 116.869 0.161298 1.70137 0
M  V30 860 N 116.969 -0.856846 -0.334985 0
M  V30 861 C 116.969 -1.9641 -1.15789 0
M  V30 862 N 117.099 -1.72708 -2.46522 0
M  V30 863 N 116.839 -3.21165 -0.713741 0
M  V30 864 C 116.719 -3.26797 0.639748 0
M  V30 865 H 113.74 -8.13644 3.0377 0
M  V30 866 H 113.47 -6.42788 2.55485 0
M  V30 867 H 114.337 -8.12039 0.792769 0
M  V30 868 H 116.992 -5.80061 -0.166416 0
M  V30 869 H 117.271 -6.51287 2.75604 0
M  V30 870 H 118.263 -7.01734 1.34462 0
M  V30 871 H 116.429 -8.73674 2.38337 0
M  V30 872 H 116.38 -4.68207 3.53221 0
M  V30 873 H 117.062 0.0398818 -0.767965 0
M  V30 874 H 117.099 -2.50995 -3.13503 0
M  V30 875 H 117.2 -0.759148 -2.80716 0
M  V30 876 P 118.299 -8.91 7.63812e-15 0
M  V30 877 O 118.519 -10.1726 -0.733694 0
M  V30 878 O 119.089 -8.73148 1.23936 0
M  V30 879 O 118.549 -7.66872 -0.971405 0
M  V30 880 C 117.609 -7.42309 -2.04641 0
M  V30 881 C 118.339 -6.86059 -3.24661 0
M  V30 882 O 118.549 -5.42847 -3.03646 0
M  V30 883 C 119.739 -7.41196 -3.50753 0
M  V30 884 O 120.129 -7.27073 -4.86816 0
M  V30 885 C 120.619 -6.5273 -2.63741 0
M  V30 886 C 119.909 -5.1842 -2.73198 0
M  V30 887 N 119.959 -4.38762 -1.4784 0
M  V30 888 H 117.12 -8.36803 -2.32493 0
M  V30 889 H 116.85 -6.70197 -1.71129 0
M  V30 890 H 117.717 -7.03551 -4.13168 0
M  V30 891 P 121.679 -7.20834 -5.23717 0
M  V30 892 O 121.899 -7.79853 -6.57286 0
M  V30 893 O 122.469 -7.79239 -4.12957 0
M  V30 894 O 121.929 -5.63315 -5.29344 0
M  V30 895 C 120.989 -4.80255 -6.01876 0
M  V30 896 C 121.719 -3.64202 -6.65911 0
M  V30 897 O 121.929 -2.60694 -5.64732 0
M  V30 898 C 123.119 -3.93473 -7.1943 0
M  V30 899 O 123.509 -3.02071 -8.21205 0
M  V30 900 C 123.999 -3.73047 -5.97036 0
M  V30 901 C 123.289 -2.58828 -5.25741 0
M  V30 902 N 123.339 -2.68068 -3.77503 0
M  V30 903 H 120.5 -5.40332 -6.79951 0
M  V30 904 H 120.23 -4.41613 -5.32378 0
M  V30 905 H 121.097 -3.26331 -7.47797 0
M  V30 906 P 125.059 -2.75334 -8.47391 0
M  V30 907 O 125.279 -2.44571 -9.90142 0
M  V30 908 O 125.849 -3.87688 -7.92115 0
M  V30 909 O 125.309 -1.4459 -7.59357 0
M  V30 910 C 124.369 -0.347608 -7.69215 0
M  V30 911 C 125.099 0.96767 -7.52806 0
M  V30 912 O 125.309 1.21036 -6.1011 0
M  V30 913 C 126.499 1.04544 -8.13308 0
M  V30 914 O 126.889 2.38311 -8.41922 0
M  V30 915 C 127.379 0.491279 -7.02284 0
M  V30 916 C 126.669 0.996264 -5.77469 0
M  V30 917 N 126.719 0.0501916 -4.62973 0
M  V30 918 H 123.88 -0.374722 -8.67691 0
M  V30 919 H 123.61 -0.443485 -6.90277 0
M  V30 920 H 124.477 1.75537 -7.96793 0
M  V30 921 P 128.439 2.75334 -8.47391 0
M  V30 922 O 128.659 3.84166 -9.4489 0
M  V30 923 O 129.229 1.51964 -8.6881 0
M  V30 924 O 128.689 3.29363 -6.99321 0
M  V30 925 C 127.749 4.24011 -6.4274 0
M  V30 926 C 128.479 5.20775 -5.52155 0
M  V30 927 O 128.689 4.56534 -4.22446 0
M  V30 928 C 129.879 5.62629 -5.96531 0
M  V30 929 O 130.269 6.87667 -5.41053 0
M  V30 930 C 130.759 4.52537 -5.39283 0
M  V30 931 C 130.049 4.20027 -4.08623 0
M  V30 932 N 130.099 2.7613 -3.71522 0
M  V30 933 C 130.249 2.43702 -2.37085 0
M  V30 934 O 130.339 3.3531 -1.54039 0
M  V30 935 N 130.299 0.951103 -2.10621 0
M  V30 936 C 130.199 0.165021 -2.93537 0
M  V30 937 N 130.249 -1.09723 -2.53253 0
M  V30 938 C 130.049 0.469576 -4.32458 0
M  V30 939 C 129.999 1.78658 -4.65921 0
M  V30 940 H 127.259 4.79645 -7.23919 0
M  V30 941 H 126.99 3.69802 -5.84429 0
M  V30 942 H 127.857 6.10431 -5.41508 0
M  V30 943 H 130.512 4.78733 -3.27967 0
M  V30 944 H 130.791 3.64957 -6.05871 0
M  V30 945 H 131.783 4.8868 -5.2125 0
M  V30 946 H 129.949 5.66726 -7.06352 0
M  V30 947 H 129.877 2.06987 -5.70299 0
M  V30 948 H 129.979 -0.314383 -5.07728 0
M  V30 949 H 130.367 -1.31363 -1.5319 0
M  V30 950 H 130.17 -1.85978 -3.21943 0
M  V30 951 P 131.819 7.20834 -5.23717 0
M  V30 952 O 132.039 8.66104 -5.38572 0
M  V30 953 O 132.609 6.33544 -6.1349 0
M  V30 954 O 132.069 6.7751 -3.72168 0
M  V30 955 C 131.129 7.20825 -2.7076 0
M  V30 956 C 131.859 7.45864 -1.40599 0
M  V30 957 O 132.069 6.17651 -0.734225 0
M  V30 958 C 133.259 8.05808 -1.51899 0
M  V30 959 O 133.649 8.74358 -0.335205 0
M  V30 960 C 134.139 6.83093 -1.70294 0
M  V30 961 C 133.429 5.79992 -0.836974 0
M  V30 962 N 133.479 4.41864 -1.38293 0
M  V30 963 H 130.64 8.13644 -3.0377 0
M  V30 964 H 130.37 6.42788 -2.55485 0
M  V30 965 H 131.237 8.12039 -0.792769 0
M  V30 966 P 135.199 8.91 -8.72928e-15 0
M  V30 967 O 135.419 10.1726 0.733694 0
M  V30 968 O 135.989 8.73148 -1.23936 0
M  V30 969 O 135.449 7.66872 0.971405 0
M  V30 970 C 134.509 7.42309 2.04641 0
M  V30 971 C 135.239 6.86059 3.24661 0
M  V30 972 O 135.449 5.42847 3.03646 0
M  V30 973 C 136.639 7.41196 3.50753 0
M  V30 974 O 137.029 7.27073 4.86816 0
M  V30 975 C 137.519 6.5273 2.63741 0
M  V30 976 C 136.809 5.1842 2.73198 0
M  V30 977 N 136.859 4.38762 1.4784 0
M  V30 978 C 136.779 4.81605 0.168631 0
M  V30 979 N 136.859 3.85454 -0.713363 0
M  V30 980 C 136.999 2.6994 0.0566958 0
M  V30 981 C 137.129 1.34815 -0.338502 0
M  V30 982 N 137.249 0.496304 0.77465 0
M  V30 983 C 137.249 0.908403 2.09122 0
M  V30 984 N 137.379 -0.0517805 3.00955 0
M  V30 985 N 137.119 2.17875 2.46519 0
M  V30 986 C 136.999 3.01988 1.4033 0
M  V30 987 H 134.02 8.36803 2.32493 0
M  V30 988 H 133.75 6.70197 1.71129 0
M  V30 989 H 134.617 7.03551 4.13168 0
M  V30 990 P 138.579 7.20834 5.23717 0
M  V30 991 O 138.799 7.79853 6.57286 0
M  V30 992 O 139.369 7.79239 4.12957 0
M  V30 993 O 138.829 5.63315 5.29344 0
M  V30 994 C 137.889 4.80255 6.01876 0
M  V30 995 C 138.619 3.64202 6.65911 0
M  V30 996 O 138.829 2.60694 5.64732 0
M  V30 997 C 140.019 3.93473 7.1943 0
M  V30 998 O 140.409 3.02071 8.21205 0
M  V30 999 C 140.899 3.73047 5.97036 0
M  V30 1000 C 140.189 2.58828 5.25741 0
M  V30 1001 N 140.239 2.68068 3.77503 0
M  V30 1002 H 137.4 5.40332 6.79951 0
M  V30 1003 H 137.13 4.41613 5.32378 0
M  V30 1004 H 137.997 3.26331 7.47797 0
M  V30 1005 P 141.959 2.75334 8.47391 0
M  V30 1006 O 142.179 2.44571 9.90142 0
M  V30 1007 O 142.749 3.87688 7.92115 0
M  V30 1008 O 142.209 1.4459 7.59357 0
M  V30 1009 C 141.269 0.347608 7.69215 0
M  V30 1010 C 141.999 -0.96767 7.52806 0
M  V30 1011 O 142.209 -1.21036 6.1011 0
M  V30 1012 C 143.399 -1.04544 8.13308 0
M  V30 1013 O 143.789 -2.38311 8.41922 0
M  V30 1014 C 144.279 -0.491279 7.02284 0
M  V30 1015 C 143.569 -0.996264 5.77469 0
M  V30 1016 N 143.619 -0.0501916 4.62973 0
M  V30 1017 H 140.78 0.374722 8.67691 0
M  V30 1018 H 140.51 0.443485 6.90277 0
M  V30 1019 H 141.377 -1.75537 7.96793 0
M  V30 1020 P 145.339 -2.75334 8.47391 0
M  V30 1021 O 145.559 -3.84128 9.44797 0
M  V30 1022 O 146.129 -1.51947 8.68712 0
M  V30 1023 O 145.589 -3.29363 6.99321 0
M  V30 1024 C 144.649 -4.24011 6.4274 0
M  V30 1025 C 145.379 -5.20775 5.52155 0
M  V30 1026 O 145.589 -4.56534 4.22446 0
M  V30 1027 C 146.779 -5.62629 5.96531 0
M  V30 1028 O 147.169 -6.87667 5.41053 0
M  V30 1029 C 147.659 -4.52537 5.39283 0
M  V30 1030 C 146.949 -4.20027 4.08623 0
M  V30 1031 N 146.999 -2.76189 3.71603 0
M  V30 1032 H 144.16 -4.797 7.24003 0
M  V30 1033 H 143.89 -3.69856 5.84513 0
M  V30 1034 H 144.757 -6.10356 5.41441 0
M  V30 1035 P 148.719 -7.20834 5.23717 0
M  V30 1036 O 148.939 -8.66189 5.38625 0
M  V30 1037 O 149.509 -6.33615 6.1356 0
M  V30 1038 O 148.969 -6.7751 3.72168 0
M  V30 1039 C 148.029 -7.20732 2.70725 0
M  V30 1040 C 148.759 -7.45864 1.40599 0
M  V30 1041 O 148.969 -6.17651 0.734225 0
M  V30 1042 C 150.159 -8.05808 1.51899 0
M  V30 1043 O 150.549 -8.74358 0.335205 0
M  V30 1044 C 151.039 -6.83093 1.70294 0
M  V30 1045 C 150.329 -5.79992 0.836974 0
M  V30 1046 N 150.379 -4.41769 1.38263 0
M  V30 1047 C 150.529 -3.38591 0.481702 0
M  V30 1048 O 150.619 -3.56839 -0.718452 0
M  V30 1049 N 150.569 -2.1206 1.03569 0
M  V30 1050 C 150.479 -1.80696 2.36966 0
M  V30 1051 C 150.329 -2.94845 3.23898 0
M  V30 1052 C 150.279 -4.19803 2.73435 0
M  V30 1053 H 147.539 -8.13644 3.0377 0
M  V30 1054 H 147.27 -6.42695 2.55448 0
M  V30 1055 H 148.137 -8.12039 0.792769 0
M  V30 1056 H 150.792 -5.79978 -0.160587 0
M  V30 1057 H 151.071 -6.51379 2.75643 0
M  V30 1058 H 152.063 -7.01734 1.34462 0
M  V30 1059 H 150.229 -8.73674 2.38337 0
M  V30 1060 H 150.158 -5.04492 3.4095 0
M  V30 1061 P 152.099 -8.91 9.82044e-15 0
M  V30 1062 O 152.319 -10.1726 -0.733694 0
M  V30 1063 O 152.889 -8.73148 1.23936 0
M  V30 1064 O 152.349 -7.66872 -0.971405 0
M  V30 1065 C 151.409 -7.42309 -2.04641 0
M  V30 1066 C 152.139 -6.86059 -3.24661 0
M  V30 1067 O 152.349 -5.42847 -3.03646 0
M  V30 1068 C 153.539 -7.41196 -3.50753 0
M  V30 1069 O 153.929 -7.27073 -4.86816 0
M  V30 1070 C 154.419 -6.5273 -2.63741 0
M  V30 1071 C 153.709 -5.1842 -2.73198 0
M  V30 1072 N 153.759 -4.38762 -1.4784 0
M  V30 1073 H 150.92 -8.36803 -2.32493 0
M  V30 1074 H 150.65 -6.70197 -1.71129 0
M  V30 1075 H 151.517 -7.03551 -4.13168 0
M  V30 1076 P 155.479 -7.20834 -5.23717 0
M  V30 1077 O 155.699 -7.79853 -6.57286 0
M  V30 1078 O 156.269 -7.79239 -4.12957 0
M  V30 1079 O 155.729 -5.63315 -5.29344 0
M  V30 1080 C 154.789 -4.80255 -6.01876 0
M  V30 1081 C 155.519 -3.64202 -6.65911 0
M  V30 1082 O 155.729 -2.60694 -5.64732 0
M  V30 1083 C 156.919 -3.93473 -7.1943 0
M  V30 1084 O 157.309 -3.02071 -8.21205 0
M  V30 1085 C 157.799 -3.73047 -5.97036 0
M  V30 1086 C 157.089 -2.58828 -5.25741 0
M  V30 1087 N 157.139 -2.68068 -3.77503 0
M  V30 1088 H 154.3 -5.40332 -6.79951 0
M  V30 1089 H 154.03 -4.41613 -5.32378 0
M  V30 1090 H 154.897 -3.26331 -7.47797 0
M  V30 1091 P 158.859 -2.75334 -8.47391 0
M  V30 1092 O 159.079 -2.44595 -9.90239 0
M  V30 1093 O 159.649 -3.87732 -7.92204 0
M  V30 1094 O 159.109 -1.4459 -7.59357 0
M  V30 1095 C 158.169 -0.347563 -7.69115 0
M  V30 1096 C 158.899 0.96767 -7.52806 0
M  V30 1097 O 159.109 1.21036 -6.1011 0
M  V30 1098 C 160.299 1.04544 -8.13308 0
M  V30 1099 O 160.689 2.38311 -8.41922 0
M  V30 1100 C 161.179 0.491279 -7.02284 0
M  V30 1101 C 160.469 0.996264 -5.77469 0
M  V30 1102 N 160.519 0.0501808 -4.62873 0
M  V30 1103 C 160.669 0.588177 -3.36904 0
M  V30 1104 O 160.759 1.78598 -3.17173 0
M  V30 1105 N 160.709 -0.329694 -2.33686 0
M  V30 1106 C 160.619 -1.6953 -2.45079 0
M  V30 1107 C 160.469 -2.16933 -3.80505 0
M  V30 1108 C 160.419 -1.30326 -4.83752 0
M  V30 1109 H 157.679 -0.374722 -8.67691 0
M  V30 1110 H 157.41 -0.443421 -6.90177 0
M  V30 1111 H 158.277 1.75537 -7.96793 0
M  V30 1112 H 160.932 1.94496 -5.46629 0
M  V30 1113 H 161.211 -0.608651 -7.04676 0
M  V30 1114 H 162.203 0.889672 -7.08939 0
M  V30 1115 H 160.369 0.43308 -9.04564 0
M  V30 1116 H 160.298 -1.68366 -5.8516 0
M  V30 1117 P 162.239 2.75334 -8.47391 0
M  V30 1118 O 162.459 3.84128 -9.44797 0
M  V30 1119 O 163.029 1.51947 -8.68712 0
M  V30 1120 O 162.489 3.29363 -6.99321 0
M  V30 1121 C 161.549 4.24011 -6.4274 0
M  V30 1122 C 162.279 5.20775 -5.52155 0
M  V30 1123 O 162.489 4.56534 -4.22446 0
M  V30 1124 C 163.679 5.62629 -5.96531 0
M  V30 1125 O 164.069 6.87667 -5.41053 0
M  V30 1126 C 164.559 4.52537 -5.39283 0
M  V30 1127 C 163.849 4.20027 -4.08623 0
M  V30 1128 N 163.899 2.76189 -3.71603 0
M  V30 1129 H 161.06 4.797 -7.24003 0
M  V30 1130 H 160.79 3.69856 -5.84513 0
M  V30 1131 H 161.657 6.10356 -5.41441 0
M  V30 1132 P 165.619 7.20834 -5.23717 0
M  V30 1133 O 165.839 8.66274 -5.38678 0
M  V30 1134 O 166.409 6.33687 -6.13629 0
M  V30 1135 O 165.869 6.7751 -3.72168 0
M  V30 1136 C 164.929 7.20919 -2.70795 0
M  V30 1137 C 165.659 7.45864 -1.40599 0
M  V30 1138 O 165.869 6.17751 -0.734343 0
M  V30 1139 C 167.059 8.05906 -1.51917 0
M  V30 1140 O 167.449 8.74358 -0.335205 0
M  V30 1141 C 167.939 6.83093 -1.70294 0
M  V30 1142 C 167.229 5.79992 -0.836974 0
M  V30 1143 N 167.279 4.41864 -1.38293 0
M  V30 1144 C 167.199 4.02089 -2.69407 0
M  V30 1145 N 167.269 2.73403 -2.85089 0
M  V30 1146 C 167.419 2.25086 -1.5642 0
M  V30 1147 C 167.549 0.942887 -1.04836 0
M  V30 1148 N 167.559 -0.150999 -1.80369 0
M  V30 1149 N 167.669 0.812565 0.28167 0
M  V30 1150 C 167.659 1.90572 1.03784 0
M  V30 1151 N 167.539 3.167 0.683905 0
M  V30 1152 C 167.419 3.26538 -0.652815 0
M  V30 1153 H 164.441 8.13738 -3.03804 0
M  V30 1154 H 164.169 6.42974 -2.55559 0
M  V30 1155 H 165.037 8.12139 -0.792866 0
M  V30 1156 H 167.692 5.80178 0.160643 0
M  V30 1157 H 167.972 6.51379 -2.75643 0
M  V30 1158 H 168.963 7.01832 -1.3448 0
M  V30 1159 H 167.129 8.73771 -2.38364 0
M  V30 1160 H 167.088 4.7189 -3.52311 0
M  V30 1161 H 167.469 -0.0721434 -2.82608 0
M  V30 1162 H 167.658 -1.0785 -1.36544 0
M  V30 1163 H 167.766 1.73207 2.10241 0
M  V30 1164 P 168.999 8.91 -1.09116e-14 0
M  V30 1165 O 169.219 10.1726 0.733694 0
M  V30 1166 O 169.789 8.73148 -1.23936 0
M  V30 1167 O 169.249 7.66872 0.971405 0
M  V30 1168 C 168.309 7.42309 2.04641 0
M  V30 1169 C 169.039 6.86059 3.24661 0
M  V30 1170 O 169.249 5.42847 3.03646 0
M  V30 1171 C 170.439 7.41196 3.50753 0
M  V30 1172 O 170.829 7.27073 4.86816 0
M  V30 1173 C 171.319 6.5273 2.63741 0
M  V30 1174 C 170.609 5.1842 2.73198 0
M  V30 1175 N 170.659 4.38762 1.4784 0
M  V30 1176 H 167.82 8.36803 2.32493 0
M  V30 1177 H 167.55 6.70197 1.71129 0
M  V30 1178 H 168.417 7.03551 4.13168 0
M  V30 1179 P 172.379 7.20834 5.23717 0
M  V30 1180 O 172.599 7.79853 6.57286 0
M  V30 1181 O 173.169 7.79239 4.12957 0
M  V30 1182 O 172.629 5.63315 5.29344 0
M  V30 1183 C 171.689 4.80255 6.01876 0
M  V30 1184 C 172.419 3.64202 6.65911 0
M  V30 1185 O 172.629 2.60694 5.64732 0
M  V30 1186 C 173.819 3.93473 7.1943 0
M  V30 1187 O 174.209 3.02071 8.21205 0
M  V30 1188 C 174.699 3.73047 5.97036 0
M  V30 1189 C 173.989 2.58828 5.25741 0
M  V30 1190 N 174.039 2.68068 3.77503 0
M  V30 1191 H 171.2 5.40332 6.79951 0
M  V30 1192 H 170.93 4.41613 5.32378 0
M  V30 1193 H 171.797 3.26331 7.47797 0
M  V30 1194 P 175.759 2.75334 8.47391 0
M  V30 1195 O 175.979 2.44571 9.90142 0
M  V30 1196 O 176.549 3.87688 7.92115 0
M  V30 1197 O 176.009 1.4459 7.59357 0
M  V30 1198 C 175.069 0.347608 7.69215 0
M  V30 1199 C 175.799 -0.96767 7.52806 0
M  V30 1200 O 176.009 -1.21036 6.1011 0
M  V30 1201 C 177.199 -1.04544 8.13308 0
M  V30 1202 O 177.589 -2.38311 8.41922 0
M  V30 1203 C 178.079 -0.491279 7.02284 0
M  V30 1204 C 177.369 -0.996264 5.77469 0
M  V30 1205 N 177.419 -0.0501916 4.62973 0
M  V30 1206 C 177.339 1.32786 4.63244 0
M  V30 1207 N 177.419 1.86957 3.44545 0
M  V30 1208 C 177.559 0.780241 2.58481 0
M  V30 1209 C 177.689 0.738536 1.17757 0
M  V30 1210 O 177.709 1.66794 0.372349 0
M  V30 1211 N 177.809 -0.58337 0.711393 0
M  V30 1212 C 177.809 -1.70816 1.51017 0
M  V30 1213 N 177.939 -2.87826 0.880757 0
M  V30 1214 N 177.679 -1.67126 2.8339 0
M  V30 1215 C 177.559 -0.401421 3.30572 0
M  V30 1216 H 174.58 0.374722 8.67691 0
M  V30 1217 H 174.31 0.443485 6.90277 0
M  V30 1218 H 175.177 -1.75537 7.96793 0
M  V30 1219 H 177.832 -1.95076 5.46529 0
M  V30 1220 H 178.111 0.608565 7.04577 0
M  V30 1221 H 179.103 -0.889672 7.08939 0
M  V30 1222 H 177.269 -0.43308 9.04564 0
M  V30 1223 H 177.22 1.91249 5.54442 0
M  V30 1224 H 177.902 -0.718054 -0.275244 0
M  V30 1225 H 177.939 -3.75721 1.41832 0
M  V30 1226 H 178.04 -2.90436 -0.145468 0
M  V30 1227 P 179.139 -2.75334 8.47391 0
M  V30 1228 O 179.359 -3.84166 9.4489 0
M  V30 1229 O 179.929 -1.51964 8.6881 0
M  V30 1230 O 179.389 -3.29363 6.99321 0
M  V30 1231 C 178.449 -4.23956 6.42656 0
M  V30 1232 C 179.179 -5.20775 5.52155 0
M  V30 1233 O 179.389 -4.56534 4.22446 0
M  V30 1234 C 180.579 -5.62629 5.96531 0
M  V30 1235 O 180.969 -6.87667 5.41053 0
M  V30 1236 C 181.459 -4.52537 5.39283 0
M  V30 1237 C 180.749 -4.20027 4.08623 0
M  V30 1238 N 180.799 -2.7613 3.71522 0
M  V30 1239 C 180.949 -2.45612 2.37989 0
M  V30 1240 O 181.039 -3.30919 1.51621 0
M  V30 1241 N 180.989 -1.10684 2.08435 0
M  V30 1242 C 180.899 -0.0690084 2.9792 0
M  V30 1243 O 180.949 1.10553 2.59426 0
M  V30 1244 C 180.749 -0.481522 4.35345 0
M  V30 1245 C 180.639 0.618778 5.36443 0
M  V30 1246 C 180.699 -1.78906 4.67968 0
M  V30 1247 H 177.959 -4.797 7.24003 0
M  V30 1248 H 177.69 -3.69802 5.84429 0
M  V30 1249 H 178.557 -6.10356 5.41441 0
M  V30 1250 H 181.212 -4.78651 3.27911 0
M  V30 1251 H 181.491 -3.64957 6.05871 0
M  V30 1252 H 182.483 -4.8868 5.2125 0
M  V30 1253 H 180.649 -5.66726 7.06352 0
M  V30 1254 H 180.578 -2.07737 5.72367 0
M  V30 1255 H 181.608 0.754375 5.86871 0
M  V30 1256 H 179.871 0.359721 6.10641 0
M  V30 1257 H 180.359 1.55533 4.8581 0
M  V30 1258 H 181.095 -0.862651 1.12037 0
M  V30 1259 P 182.519 -7.20834 5.23717 0
M  V30 1260 O 182.739 -8.66104 5.38572 0
M  V30 1261 O 183.309 -6.33544 6.1349 0
M  V30 1262 O 182.769 -6.7751 3.72168 0
M  V30 1263 C 181.829 -7.20825 2.7076 0
M  V30 1264 C 182.559 -7.45864 1.40599 0
M  V30 1265 O 182.769 -6.17651 0.734225 0
M  V30 1266 C 183.959 -8.05808 1.51899 0
M  V30 1267 O 184.349 -8.74358 0.335205 0
M  V30 1268 C 184.839 -6.83093 1.70294 0
M  V30 1269 C 184.129 -5.79992 0.836974 0
M  V30 1270 N 184.179 -4.41864 1.38293 0
M  V30 1271 H 181.34 -8.13644 3.0377 0
M  V30 1272 H 181.07 -6.42788 2.55485 0
M  V30 1273 H 181.937 -8.12039 0.792769 0
M  V30 1274 P 185.899 -8.91 -8.29613e-14 0
M  V30 1275 O 186.119 -10.1726 -0.733694 0
M  V30 1276 O 186.689 -8.73148 1.23936 0
M  V30 1277 O 186.149 -7.66872 -0.971405 0
M  V30 1278 C 185.209 -7.42309 -2.04641 0
M  V30 1279 C 185.939 -6.86059 -3.24661 0
M  V30 1280 O 186.149 -5.42847 -3.03646 0
M  V30 1281 C 187.339 -7.41196 -3.50753 0
M  V30 1282 O 187.729 -7.27073 -4.86816 0
M  V30 1283 C 188.219 -6.5273 -2.63741 0
M  V30 1284 C 187.509 -5.1842 -2.73198 0
M  V30 1285 N 187.559 -4.38762 -1.4784 0
M  V30 1286 H 184.72 -8.36803 -2.32493 0
M  V30 1287 H 184.45 -6.70197 -1.71129 0
M  V30 1288 H 185.317 -7.03551 -4.13168 0
M  V30 1289 P 189.279 -7.20834 -5.23717 0
M  V30 1290 O 189.499 -7.79853 -6.57286 0
M  V30 1291 O 190.069 -7.79239 -4.12957 0
M  V30 1292 O 189.529 -5.63315 -5.29344 0
M  V30 1293 C 188.589 -4.80255 -6.01876 0
M  V30 1294 C 189.319 -3.64202 -6.65911 0
M  V30 1295 O 189.529 -2.60694 -5.64732 0
M  V30 1296 C 190.719 -3.93473 -7.1943 0
M  V30 1297 O 191.109 -3.02071 -8.21205 0
M  V30 1298 C 191.599 -3.73047 -5.97036 0
M  V30 1299 C 190.889 -2.58828 -5.25741 0
M  V30 1300 N 190.939 -2.68068 -3.77503 0
M  V30 1301 H 188.1 -5.40332 -6.79951 0
M  V30 1302 H 187.83 -4.41613 -5.32378 0
M  V30 1303 H 188.697 -3.26331 -7.47797 0
M  V30 1304 P 192.659 -2.75334 -8.47391 0
M  V30 1305 O 192.879 -2.44571 -9.90142 0
M  V30 1306 O 193.449 -3.87688 -7.92115 0
M  V30 1307 O 192.909 -1.4459 -7.59357 0
M  V30 1308 C 191.969 -0.347608 -7.69215 0
M  V30 1309 C 192.699 0.96767 -7.52806 0
M  V30 1310 O 192.909 1.21036 -6.1011 0
M  V30 1311 C 194.099 1.04544 -8.13308 0
M  V30 1312 O 194.489 2.38311 -8.41922 0
M  V30 1313 C 194.979 0.491279 -7.02284 0
M  V30 1314 C 194.269 0.996264 -5.77469 0
M  V30 1315 N 194.319 0.0501916 -4.62973 0
M  V30 1316 H 191.48 -0.374722 -8.67691 0
M  V30 1317 H 191.21 -0.443485 -6.90277 0
M  V30 1318 H 192.077 1.75537 -7.96793 0
M  V30 1319 P 196.039 2.75334 -8.47391 0
M  V30 1320 O 196.259 3.84166 -9.4489 0
M  V30 1321 O 196.829 1.51964 -8.6881 0
M  V30 1322 O 196.289 3.29363 -6.99321 0
M  V30 1323 C 195.349 4.23956 -6.42656 0
M  V30 1324 C 196.079 5.20775 -5.52155 0
M  V30 1325 O 196.289 4.56534 -4.22446 0
M  V30 1326 C 197.479 5.62629 -5.96531 0
M  V30 1327 O 197.869 6.87667 -5.41053 0
M  V30 1328 C 198.359 4.52537 -5.39283 0
M  V30 1329 C 197.649 4.20027 -4.08623 0
M  V30 1330 N 197.699 2.7613 -3.71522 0
M  V30 1331 C 197.849 2.45612 -2.37989 0
M  V30 1332 O 197.939 3.30919 -1.51621 0
M  V30 1333 N 197.889 1.10684 -2.08435 0
M  V30 1334 C 197.799 0.0690084 -2.9792 0
M  V30 1335 O 197.849 -1.10553 -2.59426 0
M  V30 1336 C 197.649 0.481522 -4.35345 0
M  V30 1337 C 197.539 -0.618778 -5.36443 0
M  V30 1338 C 197.599 1.78906 -4.67968 0
M  V30 1339 H 194.859 4.797 -7.24003 0
M  V30 1340 H 194.59 3.69802 -5.84429 0
M  V30 1341 H 195.457 6.10356 -5.41441 0
M  V30 1342 H 198.112 4.78651 -3.27911 0
M  V30 1343 H 198.391 3.64957 -6.05871 0
M  V30 1344 H 199.383 4.8868 -5.2125 0
M  V30 1345 H 197.549 5.66726 -7.06352 0
M  V30 1346 H 197.478 2.07737 -5.72367 0
M  V30 1347 H 198.508 -0.754375 -5.86871 0
M  V30 1348 H 196.771 -0.359721 -6.10641 0
M  V30 1349 H 197.259 -1.55533 -4.8581 0
M  V30 1350 H 197.995 0.862651 -1.12037 0
M  V30 1351 P 199.419 7.20834 -5.23717 0
M  V30 1352 O 199.639 8.66104 -5.38572 0
M  V30 1353 O 200.209 6.33544 -6.1349 0
M  V30 1354 O 199.669 6.7751 -3.72168 0
M  V30 1355 C 198.729 7.20825 -2.7076 0
M  V30 1356 C 199.459 7.45864 -1.40599 0
M  V30 1357 O 199.669 6.17651 -0.734225 0
M  V30 1358 C 200.859 8.05808 -1.51899 0
M  V30 1359 O 201.249 8.74358 -0.335205 0
M  V30 1360 C 201.739 6.83093 -1.70294 0
M  V30 1361 C 201.029 5.79992 -0.836974 0
M  V30 1362 N 201.079 4.41864 -1.38293 0
M  V30 1363 C 200.999 3.99538 -2.69438 0
M  V30 1364 N 201.079 2.69909 -2.84277 0
M  V30 1365 C 201.219 2.21719 -1.5408 0
M  V30 1366 C 201.349 0.891712 -1.06628 0
M  V30 1367 O 201.369 -0.161298 -1.70137 0
M  V30 1368 N 201.469 0.856846 0.334985 0
M  V30 1369 C 201.469 1.9641 1.15789 0
M  V30 1370 N 201.599 1.72708 2.46522 0
M  V30 1371 N 201.339 3.21165 0.713741 0
M  V30 1372 C 201.219 3.26797 -0.639748 0
M  V30 1373 H 198.24 8.13644 -3.0377 0
M  V30 1374 H 197.97 6.42788 -2.55485 0
M  V30 1375 H 198.837 8.12039 -0.792769 0
M  V30 1376 H 201.492 5.80061 0.166416 0
M  V30 1377 H 201.771 6.51287 -2.75604 0
M  V30 1378 H 202.763 7.01734 -1.34462 0
M  V30 1379 H 200.929 8.73674 -2.38337 0
M  V30 1380 H 200.88 4.68207 -3.53221 0
M  V30 1381 H 201.562 -0.0398818 0.767965 0
M  V30 1382 H 201.599 2.50995 3.13503 0
M  V30 1383 H 201.7 0.759148 2.80716 0
M  V30 1384 P 202.799 8.91 2.40144e-13 0
M  V30 1385 O 203.019 10.1726 0.733694 0
M  V30 1386 O 203.589 8.73148 -1.23936 0
M  V30 1387 O 203.049 7.66872 0.971405 0
M  V30 1388 C 202.109 7.42309 2.04641 0
M  V30 1389 C 202.839 6.86059 3.24661 0
M  V30 1390 O 203.049 5.42847 3.03646 0
M  V30 1391 C 204.239 7.41196 3.50753 0
M  V30 1392 O 204.629 7.27073 4.86816 0
M  V30 1393 C 205.119 6.5273 2.63741 0
M  V30 1394 C 204.409 5.1842 2.73198 0
M  V30 1395 N 204.459 4.38762 1.4784 0
M  V30 1396 H 201.62 8.36803 2.32493 0
M  V30 1397 H 201.35 6.70197 1.71129 0
M  V30 1398 H 202.217 7.03551 4.13168 0
M  V30 1399 P 206.179 7.20834 5.23717 0
M  V30 1400 O 206.399 7.7993 6.57351 0
M  V30 1401 O 206.969 7.79328 4.13004 0
M  V30 1402 O 206.429 5.63315 5.29344 0
M  V30 1403 C 205.489 4.80193 6.01798 0
M  V30 1404 C 206.219 3.64202 6.65911 0
M  V30 1405 O 206.429 2.60694 5.64732 0
M  V30 1406 C 207.619 3.93473 7.1943 0
M  V30 1407 O 208.009 3.02071 8.21205 0
M  V30 1408 C 208.499 3.73047 5.97036 0
M  V30 1409 C 207.789 2.58828 5.25741 0
M  V30 1410 N 207.839 2.6801 3.77422 0
M  V30 1411 C 207.989 1.50443 3.07133 0
M  V30 1412 O 208.079 0.419406 3.61576 0
M  V30 1413 N 208.029 1.6403 1.69677 0
M  V30 1414 C 207.939 2.81206 0.986255 0
M  V30 1415 O 207.989 2.80892 -0.249754 0
M  V30 1416 C 207.789 3.99158 1.80325 0
M  V30 1417 C 207.679 5.29309 1.06921 0
M  V30 1418 C 207.739 3.89779 3.1476 0
M  V30 1419 H 204.999 5.40332 6.79951 0
M  V30 1420 H 204.73 4.41549 5.32301 0
M  V30 1421 H 205.597 3.26331 7.47797 0
M  V30 1422 H 208.252 1.6395 5.56554 0
M  V30 1423 H 208.531 4.63439 5.3432 0
M  V30 1424 H 209.523 3.44728 6.25838 0
M  V30 1425 H 207.689 4.96652 7.57263 0
M  V30 1426 H 207.618 4.80159 3.74441 0
M  V30 1427 H 208.648 5.81459 1.09608 0
M  V30 1428 H 206.911 5.9187 1.54487 0
M  V30 1429 H 207.399 5.10095 0.0220288 0
M  V30 1430 H 208.135 0.798962 1.16664 0
M  V30 1431 P 209.559 2.75334 8.47391 0
M  V30 1432 O 209.779 2.44571 9.90142 0
M  V30 1433 O 210.349 3.87688 7.92115 0
M  V30 1434 O 209.809 1.4459 7.59357 0
M  V30 1435 C 208.869 0.347608 7.69215 0
M  V30 1436 C 209.599 -0.96767 7.52806 0
M  V30 1437 O 209.809 -1.21036 6.1011 0
M  V30 1438 C 210.999 -1.04544 8.13308 0
M  V30 1439 O 211.389 -2.38311 8.41922 0
M  V30 1440 C 211.879 -0.491279 7.02284 0
M  V30 1441 C 211.169 -0.996264 5.77469 0
M  V30 1442 N 211.219 -0.0501916 4.62973 0
M  V30 1443 H 208.38 0.374722 8.67691 0
M  V30 1444 H 208.11 0.443485 6.90277 0
M  V30 1445 H 208.977 -1.75537 7.96793 0
M  V30 1446 P 212.939 -2.75334 8.47391 0
M  V30 1447 O 213.159 -3.84128 9.44797 0
M  V30 1448 O 213.729 -1.51947 8.68712 0
M  V30 1449 O 213.189 -3.29363 6.99321 0
M  V30 1450 C 212.249 -4.24011 6.4274 0
M  V30 1451 C 212.979 -5.20775 5.52155 0
M  V30 1452 O 213.189 -4.56534 4.22446 0
M  V30 1453 C 214.379 -5.62629 5.96531 0
M  V30 1454 O 214.769 -6.87667 5.41053 0
M  V30 1455 C 215.259 -4.52537 5.39283 0
M  V30 1456 C 214.549 -4.20027 4.08623 0
M  V30 1457 N 214.599 -2.76189 3.71603 0
M  V30 1458 C 214.519 -1.64862 4.52822 0
M  V30 1459 N 214.599 -0.512671 3.88633 0
M  V30 1460 C 214.739 -0.888083 2.54977 0
M  V30 1461 C 214.869 -0.094668 1.38677 0
M  V30 1462 N 214.989 -0.890102 0.232633 0
M  V30 1463 C 214.989 -2.26958 0.21772 0
M  V30 1464 N 215.119 -2.84626 -0.97925 0
M  V30 1465 N 214.859 -3.0178 1.31033 0
M  V30 1466 C 214.739 -2.26781 2.43843 0
M  V30 1467 H 211.76 -4.797 7.24003 0
M  V30 1468 H 211.49 -3.69856 5.84513 0
M  V30 1469 H 212.357 -6.10356 5.41441 0
M  V30 1470 P 216.319 -7.20834 5.23717 0
M  V30 1471 O 216.539 -8.66274 5.38678 0
M  V30 1472 O 217.109 -6.33687 6.13629 0
M  V30 1473 O 216.569 -6.7751 3.72168 0
M  V30 1474 C 215.629 -7.20919 2.70795 0
M  V30 1475 C 216.359 -7.45864 1.40599 0
M  V30 1476 O 216.569 -6.17751 0.734343 0
M  V30 1477 C 217.759 -8.05906 1.51917 0
M  V30 1478 O 218.149 -8.74358 0.335205 0
M  V30 1479 C 218.639 -6.83093 1.70294 0
M  V30 1480 C 217.929 -5.79992 0.836974 0
M  V30 1481 N 217.979 -4.41864 1.38293 0
M  V30 1482 H 215.141 -8.13738 3.03804 0
M  V30 1483 H 214.869 -6.42974 2.55559 0
M  V30 1484 H 215.737 -8.12139 0.792866 0
M  V30 1485 H 218.392 -5.80178 -0.160643 0
M  V30 1486 H 218.672 -6.51379 2.75643 0
M  V30 1487 H 219.663 -7.01832 1.3448 0
M  V30 1488 H 217.829 -8.73771 2.38364 0
M  V30 1489 P 219.699 -8.91 -3.97326e-13 0
M  V30 1490 O 219.919 -10.1736 -0.733766 0
M  V30 1491 O 220.489 -8.73247 1.2395 0
M  V30 1492 O 219.949 -7.66872 -0.971405 0
M  V30 1493 C 219.009 -7.42212 -2.04614 0
M  V30 1494 C 219.739 -6.86059 -3.24661 0
M  V30 1495 O 219.949 -5.42847 -3.03646 0
M  V30 1496 C 221.139 -7.41196 -3.50753 0
M  V30 1497 O 221.529 -7.27073 -4.86816 0
M  V30 1498 C 222.019 -6.5273 -2.63741 0
M  V30 1499 C 221.309 -5.1842 -2.73198 0
M  V30 1500 N 221.359 -4.38668 -1.47808 0
M  V30 1501 C 221.509 -3.02239 -1.60048 0
M  V30 1502 O 221.599 -2.46459 -2.67869 0
M  V30 1503 N 221.549 -2.32436 -0.408571 0
M  V30 1504 C 221.459 -2.85471 0.854993 0
M  V30 1505 O 221.509 -2.12566 1.8531 0
M  V30 1506 C 221.309 -4.28918 0.887335 0
M  V30 1507 C 221.199 -4.91066 2.24619 0
M  V30 1508 C 221.259 -5.00349 -0.255399 0
M  V30 1509 H 218.519 -8.36803 -2.32493 0
M  V30 1510 H 218.25 -6.701 -1.71105 0
M  V30 1511 H 219.117 -7.03551 -4.13168 0
M  V30 1512 H 221.772 -4.59773 -3.53894 0
M  V30 1513 H 222.051 -6.88995 -1.59871 0
M  V30 1514 H 223.043 -6.46749 -3.03687 0
M  V30 1515 H 221.209 -8.46908 -3.20714 0
M  V30 1516 H 221.138 -6.08548 -0.206986 0
M  V30 1517 H 222.168 -5.34836 2.53099 0
M  V30 1518 H 220.431 -5.69638 2.2291 0
M  V30 1519 H 220.919 -4.13971 2.98044 0
M  V30 1520 H 221.655 -1.33211 -0.474216 0
M  V30 1521 P 223.079 -7.20834 -5.23717 0
M  V30 1522 O 223.299 -7.7993 -6.57351 0
M  V30 1523 O 223.869 -7.79328 -4.13004 0
M  V30 1524 O 223.329 -5.63315 -5.29344 0
M  V30 1525 C 222.389 -4.80193 -6.01798 0
M  V30 1526 C 223.119 -3.64202 -6.65911 0
M  V30 1527 O 223.329 -2.60694 -5.64732 0
M  V30 1528 C 224.519 -3.93473 -7.1943 0
M  V30 1529 O 224.909 -3.02071 -8.21205 0
M  V30 1530 C 225.399 -3.73047 -5.97036 0
M  V30 1531 C 224.689 -2.58828 -5.25741 0
M  V30 1532 N 224.739 -2.6801 -3.77422 0
M  V30 1533 C 224.889 -1.50443 -3.07133 0
M  V30 1534 O 224.979 -0.419406 -3.61576 0
M  V30 1535 N 224.929 -1.6403 -1.69677 0
M  V30 1536 C 224.839 -2.81206 -0.986255 0
M  V30 1537 C 224.689 -3.99158 -1.80325 0
M  V30 1538 C 224.639 -3.89779 -3.1476 0
M  V30 1539 H 221.899 -5.40332 -6.79951 0
M  V30 1540 H 221.63 -4.41549 -5.32301 0
M  V30 1541 H 222.497 -3.26331 -7.47797 0
M  V30 1542 H 225.152 -1.6395 -5.56554 0
M  V30 1543 H 225.431 -4.63439 -5.3432 0
M  V30 1544 H 226.423 -3.44728 -6.25838 0
M  V30 1545 H 224.589 -4.96652 -7.57263 0
M  V30 1546 H 224.518 -4.80159 -3.74441 0
M  V30 1547 P 226.459 -2.75334 -8.47391 0
M  V30 1548 O 226.679 -2.44595 -9.90239 0
M  V30 1549 O 227.249 -3.87732 -7.92204 0
M  V30 1550 O 226.709 -1.4459 -7.59357 0
M  V30 1551 C 225.769 -0.347563 -7.69115 0
M  V30 1552 C 226.499 0.96767 -7.52806 0
M  V30 1553 O 226.709 1.21036 -6.1011 0
M  V30 1554 C 227.899 1.04544 -8.13308 0
M  V30 1555 O 228.289 2.38311 -8.41922 0
M  V30 1556 C 228.779 0.491279 -7.02284 0
M  V30 1557 C 228.069 0.996264 -5.77469 0
M  V30 1558 N 228.119 0.0501808 -4.62873 0
M  V30 1559 C 228.269 0.588177 -3.36904 0
M  V30 1560 O 228.359 1.78598 -3.17173 0
M  V30 1561 N 228.309 -0.329694 -2.33686 0
M  V30 1562 C 228.219 -1.6953 -2.45079 0
M  V30 1563 C 228.069 -2.16933 -3.80505 0
M  V30 1564 C 228.019 -1.30326 -4.83752 0
M  V30 1565 H 225.279 -0.374722 -8.67691 0
M  V30 1566 H 225.01 -0.443421 -6.90177 0
M  V30 1567 H 225.877 1.75537 -7.96793 0
M  V30 1568 H 228.532 1.94496 -5.46629 0
M  V30 1569 H 228.811 -0.608651 -7.04676 0
M  V30 1570 H 229.803 0.889672 -7.08939 0
M  V30 1571 H 227.969 0.43308 -9.04564 0
M  V30 1572 H 227.898 -1.68366 -5.8516 0
M  V30 1573 P 229.839 2.75334 -8.47391 0
M  V30 1574 O 230.059 3.84128 -9.44797 0
M  V30 1575 O 230.629 1.51947 -8.68712 0
M  V30 1576 O 230.089 3.29363 -6.99321 0
M  V30 1577 C 229.149 4.24011 -6.4274 0
M  V30 1578 C 229.879 5.20775 -5.52155 0
M  V30 1579 O 230.089 4.56534 -4.22446 0
M  V30 1580 C 231.279 5.62629 -5.96531 0
M  V30 1581 O 231.669 6.87667 -5.41053 0
M  V30 1582 C 232.159 4.52537 -5.39283 0
M  V30 1583 C 231.449 4.20027 -4.08623 0
M  V30 1584 N 231.499 2.76189 -3.71603 0
M  V30 1585 H 228.66 4.797 -7.24003 0
M  V30 1586 H 228.39 3.69856 -5.84513 0
M  V30 1587 H 229.257 6.10356 -5.41441 0
M  V30 1588 P 233.219 7.20834 -5.23717 0
M  V30 1589 O 233.439 8.66104 -5.38572 0
M  V30 1590 O 234.009 6.33544 -6.1349 0
M  V30 1591 O 233.469 6.7751 -3.72168 0
M  V30 1592 C 232.529 7.20825 -2.7076 0
M  V30 1593 C 233.259 7.45864 -1.40599 0
M  V30 1594 O 233.469 6.17651 -0.734225 0
M  V30 1595 C 234.659 8.05808 -1.51899 0
M  V30 1596 O 235.049 8.74358 -0.335205 0
M  V30 1597 C 235.539 6.83093 -1.70294 0
M  V30 1598 C 234.829 5.79992 -0.836974 0
M  V30 1599 N 234.879 4.41864 -1.38293 0
M  V30 1600 H 232.04 8.13644 -3.0377 0
M  V30 1601 H 231.77 6.42788 -2.55485 0
M  V30 1602 H 232.637 8.12039 -0.792769 0
M  V30 1603 P 236.599 8.91 5.54508e-13 0
M  V30 1604 O 236.819 10.1736 0.733766 0
M  V30 1605 O 237.389 8.73247 -1.2395 0
M  V30 1606 O 236.849 7.66872 0.971405 0
M  V30 1607 C 235.909 7.42309 2.04641 0
M  V30 1608 C 236.639 6.86059 3.24661 0
M  V30 1609 O 236.849 5.42847 3.03646 0
M  V30 1610 C 238.039 7.41196 3.50753 0
M  V30 1611 O 238.429 7.27073 4.86816 0
M  V30 1612 C 238.919 6.5273 2.63741 0
M  V30 1613 C 238.209 5.1842 2.73198 0
M  V30 1614 N 238.259 4.38668 1.47808 0
M  V30 1615 C 238.409 3.00789 1.58511 0
M  V30 1616 O 238.499 2.50116 2.71298 0
M  V30 1617 N 238.459 2.29703 0.253698 0
M  V30 1618 C 238.359 2.84269 -0.750133 0
M  V30 1619 N 238.409 2.06951 -1.82612 0
M  V30 1620 C 238.209 4.25803 -0.889776 0
M  V30 1621 C 238.159 4.98326 0.259363 0
M  V30 1622 H 235.419 8.36707 2.32466 0
M  V30 1623 H 235.15 6.701 1.71105 0
M  V30 1624 H 236.017 7.03638 4.13219 0
M  V30 1625 H 238.672 4.59852 3.53955 0
M  V30 1626 H 238.951 6.88995 1.59871 0
M  V30 1627 H 239.943 6.46749 3.03687 0
M  V30 1628 H 238.109 8.46908 3.20714 0
M  V30 1629 H 238.037 6.06349 0.206238 0
M  V30 1630 H 238.139 4.73163 -1.86796 0
M  V30 1631 H 238.527 1.05099 -1.72271 0
M  V30 1632 H 238.33 2.48716 -2.76361 0
M  V30 1633 P 239.979 7.20834 5.23717 0
M  V30 1634 O 240.199 7.79853 6.57286 0
M  V30 1635 O 240.769 7.79239 4.12957 0
M  V30 1636 O 240.229 5.63315 5.29344 0
M  V30 1637 C 239.289 4.80255 6.01876 0
M  V30 1638 C 240.019 3.64202 6.65911 0
M  V30 1639 O 240.229 2.60694 5.64732 0
M  V30 1640 C 241.419 3.93473 7.1943 0
M  V30 1641 O 241.809 3.02071 8.21205 0
M  V30 1642 C 242.299 3.73047 5.97036 0
M  V30 1643 C 241.589 2.58828 5.25741 0
M  V30 1644 N 241.639 2.68068 3.77503 0
M  V30 1645 H 238.8 5.40332 6.79951 0
M  V30 1646 H 238.53 4.41613 5.32378 0
M  V30 1647 H 239.397 3.26331 7.47797 0
M  V30 1648 P 243.359 2.75334 8.47391 0
M  V30 1649 O 243.579 2.44571 9.90142 0
M  V30 1650 O 244.149 3.87688 7.92115 0
M  V30 1651 O 243.609 1.4459 7.59357 0
M  V30 1652 C 242.669 0.347608 7.69215 0
M  V30 1653 C 243.399 -0.96767 7.52806 0
M  V30 1654 O 243.609 -1.21036 6.1011 0
M  V30 1655 C 244.799 -1.04544 8.13308 0
M  V30 1656 O 245.189 -2.38311 8.41922 0
M  V30 1657 C 245.679 -0.491279 7.02284 0
M  V30 1658 C 244.969 -0.996264 5.77469 0
M  V30 1659 N 245.019 -0.0501916 4.62973 0
M  V30 1660 H 242.18 0.374722 8.67691 0
M  V30 1661 H 241.91 0.443485 6.90277 0
M  V30 1662 H 242.777 -1.75537 7.96793 0
M  V30 1663 P 246.739 -2.75334 8.47391 0
M  V30 1664 O 246.959 -3.84128 9.44797 0
M  V30 1665 O 247.529 -1.51947 8.68712 0
M  V30 1666 O 246.989 -3.29363 6.99321 0
M  V30 1667 C 246.049 -4.24011 6.4274 0
M  V30 1668 C 246.779 -5.20775 5.52155 0
M  V30 1669 O 246.989 -4.56534 4.22446 0
M  V30 1670 C 248.179 -5.62629 5.96531 0
M  V30 1671 O 248.569 -6.87667 5.41053 0
M  V30 1672 C 249.059 -4.52537 5.39283 0
M  V30 1673 C 248.349 -4.20027 4.08623 0
M  V30 1674 N 248.399 -2.76189 3.71603 0
M  V30 1675 H 245.56 -4.797 7.24003 0
M  V30 1676 H 245.29 -3.69856 5.84513 0
M  V30 1677 H 246.157 -6.10356 5.41441 0
M  V30 1678 P 250.119 -7.20834 5.23717 0
M  V30 1679 O 250.339 -8.66104 5.38572 0
M  V30 1680 O 250.909 -6.33544 6.1349 0
M  V30 1681 O 250.369 -6.7751 3.72168 0
M  V30 1682 C 249.429 -7.20825 2.7076 0
M  V30 1683 C 250.159 -7.45864 1.40599 0
M  V30 1684 O 250.369 -6.17651 0.734225 0
M  V30 1685 C 251.559 -8.05808 1.51899 0
M  V30 1686 O 251.949 -8.74358 0.335205 0
M  V30 1687 C 252.439 -6.83093 1.70294 0
M  V30 1688 C 251.729 -5.79992 0.836974 0
M  V30 1689 N 251.779 -4.41864 1.38293 0
M  V30 1690 C 251.699 -3.99538 2.69438 0
M  V30 1691 N 251.779 -2.69909 2.84277 0
M  V30 1692 C 251.919 -2.21719 1.5408 0
M  V30 1693 C 252.049 -0.891712 1.06628 0
M  V30 1694 N 252.169 -0.856846 -0.334985 0
M  V30 1695 C 252.169 -1.9641 -1.15789 0
M  V30 1696 N 252.299 -1.72708 -2.46522 0
M  V30 1697 N 252.039 -3.21165 -0.713741 0
M  V30 1698 C 251.919 -3.26797 0.639748 0
M  V30 1699 H 248.94 -8.13644 3.0377 0
M  V30 1700 H 248.67 -6.42788 2.55485 0
M  V30 1701 H 249.537 -8.12039 0.792769 0
M  V30 1702 P 253.498 -8.91 -7.1169e-13 0
M  V30 1703 O 253.718 -10.1726 -0.733694 0
M  V30 1704 O 254.288 -8.73148 1.23936 0
M  V30 1705 O 253.748 -7.66872 -0.971405 0
M  V30 1706 C 252.808 -7.42309 -2.04641 0
M  V30 1707 C 253.538 -6.86059 -3.24661 0
M  V30 1708 O 253.748 -5.42847 -3.03646 0
M  V30 1709 C 254.938 -7.41196 -3.50753 0
M  V30 1710 O 255.328 -7.27073 -4.86816 0
M  V30 1711 C 255.818 -6.5273 -2.63741 0
M  V30 1712 C 255.108 -5.1842 -2.73198 0
M  V30 1713 N 255.158 -4.38762 -1.4784 0
M  V30 1714 H 252.319 -8.36803 -2.32493 0
M  V30 1715 H 252.049 -6.70197 -1.71129 0
M  V30 1716 H 252.916 -7.03551 -4.13168 0
M  V30 1717 P 256.878 -7.20834 -5.23717 0
M  V30 1718 O 257.098 -7.79853 -6.57286 0
M  V30 1719 O 257.668 -7.79239 -4.12957 0
M  V30 1720 O 257.128 -5.63315 -5.29344 0
M  V30 1721 C 256.188 -4.80255 -6.01876 0
M  V30 1722 C 256.918 -3.64202 -6.65911 0
M  V30 1723 O 257.128 -2.60694 -5.64732 0
M  V30 1724 C 258.318 -3.93473 -7.1943 0
M  V30 1725 O 258.708 -3.02071 -8.21205 0
M  V30 1726 C 259.198 -3.73047 -5.97036 0
M  V30 1727 C 258.488 -2.58828 -5.25741 0
M  V30 1728 N 258.538 -2.68068 -3.77503 0
M  V30 1729 H 255.699 -5.40332 -6.79951 0
M  V30 1730 H 255.429 -4.41613 -5.32378 0
M  V30 1731 H 256.296 -3.26331 -7.47797 0
M  V30 1732 P 260.258 -2.75334 -8.47391 0
M  V30 1733 O 260.478 -2.44619 -9.90336 0
M  V30 1734 O 261.048 -3.87776 -7.92294 0
M  V30 1735 O 260.508 -1.4459 -7.59357 0
M  V30 1736 C 259.568 -0.347653 -7.69315 0
M  V30 1737 C 260.298 0.96767 -7.52806 0
M  V30 1738 O 260.508 1.21055 -6.10208 0
M  V30 1739 C 261.698 1.04557 -8.13408 0
M  V30 1740 O 262.088 2.38311 -8.41922 0
M  V30 1741 C 262.578 0.491279 -7.02284 0
M  V30 1742 C 261.868 0.996264 -5.77469 0
M  V30 1743 N 261.918 0.0501916 -4.62973 0
M  V30 1744 C 261.838 -1.31969 -4.65661 0
M  V30 1745 N 261.908 -1.86649 -3.48119 0
M  V30 1746 C 262.058 -0.792089 -2.62406 0
M  V30 1747 C 262.188 -0.705684 -1.2207 0
M  V30 1748 N 262.198 -1.76207 -0.413762 0
M  V30 1749 N 262.308 0.518981 -0.685754 0
M  V30 1750 C 262.298 1.57595 -1.49174 0
M  V30 1751 N 262.178 1.62909 -2.80066 0
M  V30 1752 C 262.058 0.388195 -3.3073 0
M  V30 1753 H 259.08 -0.374765 -8.67791 0
M  V30 1754 H 258.808 -0.443613 -6.90476 0
M  V30 1755 H 259.676 1.75559 -7.96891 0
M  V30 1756 H 262.331 1.94563 -5.46818 0
M  V30 1757 H 262.611 -0.608651 -7.04676 0
M  V30 1758 H 263.602 0.889796 -7.09039 0
M  V30 1759 H 261.768 0.433128 -9.04664 0
M  V30 1760 H 261.727 -1.89246 -5.57664 0
M  V30 1761 H 262.108 -2.71005 -0.804694 0
M  V30 1762 H 262.297 -1.63189 0.603768 0
M  V30 1763 H 262.405 2.53475 -0.997614 0
M  V30 1764 P 263.638 2.75334 -8.47391 0
M  V30 1765 O 263.858 3.84128 -9.44797 0
M  V30 1766 O 264.428 1.51947 -8.68712 0
M  V30 1767 O 263.888 3.29363 -6.99321 0
M  V30 1768 C 262.948 4.24011 -6.4274 0
M  V30 1769 C 263.678 5.20775 -5.52155 0
M  V30 1770 O 263.888 4.56534 -4.22446 0
M  V30 1771 C 265.078 5.62629 -5.96531 0
M  V30 1772 O 265.468 6.87667 -5.41053 0
M  V30 1773 C 265.958 4.52537 -5.39283 0
M  V30 1774 C 265.248 4.20027 -4.08623 0
M  V30 1775 N 265.298 2.76189 -3.71603 0
M  V30 1776 H 262.459 4.797 -7.24003 0
M  V30 1777 H 262.189 3.69856 -5.84513 0
M  V30 1778 H 263.056 6.10356 -5.41441 0
M  V30 1779 P 267.018 7.20834 -5.23717 0
M  V30 1780 O 267.238 8.66104 -5.38572 0
M  V30 1781 O 267.808 6.33544 -6.1349 0
M  V30 1782 O 267.268 6.7751 -3.72168 0
M  V30 1783 C 266.328 7.20825 -2.7076 0
M  V30 1784 C 267.058 7.45864 -1.40599 0
M  V30 1785 O 267.268 6.17651 -0.734225 0
M  V30 1786 C 268.458 8.05808 -1.51899 0
M  V30 1787 O 268.848 8.74358 -0.335205 0
M  V30 1788 C 269.338 6.83093 -1.70294 0
M  V30 1789 C 268.628 5.79992 -0.836974 0
M  V30 1790 N 268.678 4.41864 -1.38293 0
M  V30 1791 C 268.598 3.99538 -2.69438 0
M  V30 1792 N 268.678 2.69909 -2.84277 0
M  V30 1793 C 268.818 2.21719 -1.5408 0
M  V30 1794 C 268.948 0.891712 -1.06628 0
M  V30 1795 N 269.068 0.856846 0.334985 0
M  V30 1796 C 269.068 1.9641 1.15789 0
M  V30 1797 N 269.198 1.72708 2.46522 0
M  V30 1798 N 268.938 3.21165 0.713741 0
M  V30 1799 C 268.818 3.26797 -0.639748 0
M  V30 1800 H 265.839 8.13644 -3.0377 0
M  V30 1801 H 265.569 6.42788 -2.55485 0
M  V30 1802 H 266.436 8.12039 -0.792769 0
M  V30 1803 P 270.398 8.91 8.68872e-13 0
M  V30 1804 O 270.618 10.1726 0.733694 0
M  V30 1805 O 271.188 8.73148 -1.23936 0
M  V30 1806 O 270.648 7.66872 0.971405 0
M  V30 1807 C 269.708 7.42309 2.04641 0
M  V30 1808 C 270.438 6.86059 3.24661 0
M  V30 1809 O 270.648 5.42847 3.03646 0
M  V30 1810 C 271.838 7.41196 3.50753 0
M  V30 1811 O 272.228 7.27073 4.86816 0
M  V30 1812 C 272.718 6.5273 2.63741 0
M  V30 1813 C 272.008 5.1842 2.73198 0
M  V30 1814 N 272.058 4.38762 1.4784 0
M  V30 1815 H 269.219 8.36803 2.32493 0
M  V30 1816 H 268.949 6.70197 1.71129 0
M  V30 1817 H 269.816 7.03551 4.13168 0
M  V30 1818 P 273.778 7.20834 5.23717 0
M  V30 1819 O 273.998 7.79853 6.57286 0
M  V30 1820 O 274.568 7.79239 4.12957 0
M  V30 1821 O 274.028 5.63315 5.29344 0
M  V30 1822 C 273.088 4.80255 6.01876 0
M  V30 1823 C 273.818 3.64202 6.65911 0
M  V30 1824 O 274.028 2.60694 5.64732 0
M  V30 1825 C 275.218 3.93473 7.1943 0
M  V30 1826 O 275.608 3.02071 8.21205 0
M  V30 1827 C 276.098 3.73047 5.97036 0
M  V30 1828 C 275.388 2.58828 5.25741 0
M  V30 1829 N 275.438 2.68068 3.77503 0
M  V30 1830 H 272.599 5.40332 6.79951 0
M  V30 1831 H 272.329 4.41613 5.32378 0
M  V30 1832 H 273.196 3.26331 7.47797 0
M  V30 1833 P 277.158 2.75334 8.47391 0
M  V30 1834 O 277.378 2.44571 9.90142 0
M  V30 1835 O 277.948 3.87688 7.92115 0
M  V30 1836 O 277.408 1.4459 7.59357 0
M  V30 1837 C 276.468 0.347608 7.69215 0
M  V30 1838 C 277.198 -0.96767 7.52806 0
M  V30 1839 O 277.408 -1.21036 6.1011 0
M  V30 1840 C 278.598 -1.04544 8.13308 0
M  V30 1841 O 278.988 -2.38311 8.41922 0
M  V30 1842 C 279.478 -0.491279 7.02284 0
M  V30 1843 C 278.768 -0.996264 5.77469 0
M  V30 1844 N 278.818 -0.0501916 4.62973 0
M  V30 1845 H 275.979 0.374722 8.67691 0
M  V30 1846 H 275.709 0.443485 6.90277 0
M  V30 1847 H 276.576 -1.75537 7.96793 0
M  V30 1848 P 280.538 -2.75334 8.47391 0
M  V30 1849 O 280.758 -3.84128 9.44797 0
M  V30 1850 O 281.328 -1.51947 8.68712 0
M  V30 1851 O 280.788 -3.29363 6.99321 0
M  V30 1852 C 279.848 -4.24011 6.4274 0
M  V30 1853 C 280.578 -5.20775 5.52155 0
M  V30 1854 O 280.788 -4.56534 4.22446 0
M  V30 1855 C 281.978 -5.62629 5.96531 0
M  V30 1856 O 282.368 -6.87667 5.41053 0
M  V30 1857 C 282.858 -4.52537 5.39283 0
M  V30 1858 C 282.148 -4.20027 4.08623 0
M  V30 1859 N 282.198 -2.76189 3.71603 0
M  V30 1860 H 279.359 -4.797 7.24003 0
M  V30 1861 H 279.089 -3.69856 5.84513 0
M  V30 1862 H 279.956 -6.10356 5.41441 0
M  V30 1863 P 283.918 -7.20834 5.23717 0
M  V30 1864 O 284.138 -8.66104 5.38572 0
M  V30 1865 O 284.708 -6.33544 6.1349 0
M  V30 1866 O 284.168 -6.7751 3.72168 0
M  V30 1867 C 283.228 -7.20825 2.7076 0
M  V30 1868 C 283.958 -7.45864 1.40599 0
M  V30 1869 O 284.168 -6.17651 0.734225 0
M  V30 1870 C 285.358 -8.05808 1.51899 0
M  V30 1871 O 285.748 -8.74358 0.335205 0
M  V30 1872 C 286.238 -6.83093 1.70294 0
M  V30 1873 C 285.528 -5.79992 0.836974 0
M  V30 1874 N 285.578 -4.41864 1.38293 0
M  V30 1875 H 282.739 -8.13644 3.0377 0
M  V30 1876 H 282.469 -6.42788 2.55485 0
M  V30 1877 H 283.336 -8.12039 0.792769 0
M  V30 1878 P 287.298 -8.91 -1.02605e-12 0
M  V30 1879 O 287.518 -10.1746 -0.733838 0
M  V30 1880 O 288.088 -8.73346 1.23964 0
M  V30 1881 O 287.548 -7.66872 -0.971405 0
M  V30 1882 C 286.608 -7.42405 -2.04668 0
M  V30 1883 C 287.338 -6.86059 -3.24661 0
M  V30 1884 O 287.548 -5.42934 -3.03695 0
M  V30 1885 C 288.738 -7.41287 -3.50796 0
M  V30 1886 O 289.128 -7.27073 -4.86816 0
M  V30 1887 C 289.618 -6.5273 -2.63741 0
M  V30 1888 C 288.908 -5.1842 -2.73198 0
M  V30 1889 N 288.958 -4.38762 -1.4784 0
M  V30 1890 C 288.878 -4.83651 -0.183876 0
M  V30 1891 N 288.948 -3.88759 0.699393 0
M  V30 1892 C 289.098 -2.7404 -0.0575568 0
M  V30 1893 C 289.228 -1.37902 0.293928 0
M  V30 1894 N 289.238 -0.938021 1.54797 0
M  V30 1895 N 289.348 -0.491817 -0.70549 0
M  V30 1896 C 289.338 -0.931735 -1.95979 0
M  V30 1897 N 289.218 -2.16017 -2.41481 0
M  V30 1898 C 289.098 -3.02547 -1.39121 0
M  V30 1899 H 286.12 -8.36899 -2.3252 0
M  V30 1900 H 285.848 -6.70391 -1.71179 0
M  V30 1901 H 286.716 -7.03638 -4.13219 0
M  V30 1902 H 289.371 -4.59931 -3.54016 0
M  V30 1903 H 289.651 -6.88995 -1.59871 0
M  V30 1904 H 290.642 -6.4684 -3.0373 0
M  V30 1905 H 288.808 -8.47002 -3.20749 0
M  V30 1906 H 288.767 -5.8885 0.0765548 0
M  V30 1907 H 289.148 -1.60276 2.32875 0
M  V30 1908 H 289.337 0.0699355 1.73859 0
M  V30 1909 H 289.445 -0.165507 -2.71897 0
M  V30 1910 P 290.678 -7.20834 -5.23717 0
M  V30 1911 O 290.898 -7.79853 -6.57286 0
M  V30 1912 O 291.468 -7.79239 -4.12957 0
M  V30 1913 O 290.928 -5.63315 -5.29344 0
M  V30 1914 C 289.988 -4.80255 -6.01876 0
M  V30 1915 C 290.718 -3.64202 -6.65911 0
M  V30 1916 O 290.928 -2.60694 -5.64732 0
M  V30 1917 C 292.118 -3.93473 -7.1943 0
M  V30 1918 O 292.508 -3.02071 -8.21205 0
M  V30 1919 C 292.998 -3.73047 -5.97036 0
M  V30 1920 C 292.288 -2.58828 -5.25741 0
M  V30 1921 N 292.338 -2.68068 -3.77503 0
M  V30 1922 H 289.499 -5.40332 -6.79951 0
M  V30 1923 H 289.229 -4.41613 -5.32378 0
M  V30 1924 H 290.096 -3.26331 -7.47797 0
M  V30 1925 P 294.058 -2.75334 -8.47391 0
M  V30 1926 O 294.278 -2.44571 -9.90142 0
M  V30 1927 O 294.848 -3.87688 -7.92115 0
M  V30 1928 O 294.308 -1.4459 -7.59357 0
M  V30 1929 C 293.368 -0.347608 -7.69215 0
M  V30 1930 C 294.098 0.96767 -7.52806 0
M  V30 1931 O 294.308 1.21036 -6.1011 0
M  V30 1932 C 295.498 1.04544 -8.13308 0
M  V30 1933 O 295.888 2.38311 -8.41922 0
M  V30 1934 C 296.378 0.491279 -7.02284 0
M  V30 1935 C 295.668 0.996264 -5.77469 0
M  V30 1936 N 295.718 0.0501916 -4.62973 0
M  V30 1937 H 292.879 -0.374722 -8.67691 0
M  V30 1938 H 292.609 -0.443485 -6.90277 0
M  V30 1939 H 293.476 1.75537 -7.96793 0
M  V30 1940 P 297.438 2.75334 -8.47391 0
M  V30 1941 O 297.658 3.84128 -9.44797 0
M  V30 1942 O 298.228 1.51947 -8.68712 0
M  V30 1943 O 297.688 3.29363 -6.99321 0
M  V30 1944 C 296.748 4.24011 -6.4274 0
M  V30 1945 C 297.478 5.20775 -5.52155 0
M  V30 1946 O 297.688 4.56534 -4.22446 0
M  V30 1947 C 298.878 5.62629 -5.96531 0
M  V30 1948 O 299.268 6.87667 -5.41053 0
M  V30 1949 C 299.758 4.52537 -5.39283 0
M  V30 1950 C 299.048 4.20027 -4.08623 0
M  V30 1951 N 299.098 2.76189 -3.71603 0
M  V30 1952 H 296.259 4.797 -7.24003 0
M  V30 1953 H 295.989 3.69856 -5.84513 0
M  V30 1954 H 296.856 6.10356 -5.41441 0
M  V30 1955 P 300.818 7.20834 -5.23717 0
M  V30 1956 O 301.038 8.66104 -5.38572 0
M  V30 1957 O 301.608 6.33544 -6.1349 0
M  V30 1958 O 301.068 6.7751 -3.72168 0
M  V30 1959 C 300.128 7.20825 -2.7076 0
M  V30 1960 C 300.858 7.45864 -1.40599 0
M  V30 1961 O 301.068 6.17651 -0.734225 0
M  V30 1962 C 302.258 8.05808 -1.51899 0
M  V30 1963 O 302.648 8.74358 -0.335205 0
M  V30 1964 C 303.138 6.83093 -1.70294 0
M  V30 1965 C 302.428 5.79992 -0.836974 0
M  V30 1966 N 302.478 4.41864 -1.38293 0
M  V30 1967 H 299.639 8.13644 -3.0377 0
M  V30 1968 H 299.369 6.42788 -2.55485 0
M  V30 1969 H 300.236 8.12039 -0.792769 0
M  V30 1970 P 304.198 8.91 1.18324e-12 0
M  V30 1971 O 304.418 10.1726 0.733694 0
M  V30 1972 O 304.988 8.73148 -1.23936 0
M  V30 1973 O 304.448 7.66872 0.971405 0
M  V30 1974 C 303.508 7.42309 2.04641 0
M  V30 1975 C 304.238 6.86059 3.24661 0
M  V30 1976 O 304.448 5.42847 3.03646 0
M  V30 1977 C 305.638 7.41196 3.50753 0
M  V30 1978 O 306.028 7.27073 4.86816 0
M  V30 1979 C 306.518 6.5273 2.63741 0
M  V30 1980 C 305.808 5.1842 2.73198 0
M  V30 1981 N 305.858 4.38762 1.4784 0
M  V30 1982 C 305.778 4.81605 0.168631 0
M  V30 1983 N 305.858 3.85454 -0.713363 0
M  V30 1984 C 305.998 2.6994 0.0566958 0
M  V30 1985 C 306.128 1.34815 -0.338502 0
M  V30 1986 N 306.248 0.496304 0.77465 0
M  V30 1987 C 306.248 0.908403 2.09122 0
M  V30 1988 N 306.378 -0.0517805 3.00955 0
M  V30 1989 N 306.118 2.17875 2.46519 0
M  V30 1990 C 305.998 3.01988 1.4033 0
M  V30 1991 H 303.019 8.36803 2.32493 0
M  V30 1992 H 302.749 6.70197 1.71129 0
M  V30 1993 H 303.616 7.03551 4.13168 0
M  V30 1994 P 307.578 7.20834 5.23717 0
M  V30 1995 O 307.798 7.80006 6.57415 0
M  V30 1996 O 308.368 7.79416 4.13051 0
M  V30 1997 O 307.828 5.63315 5.29344 0
M  V30 1998 C 306.888 4.80318 6.01954 0
M  V30 1999 C 307.618 3.64202 6.65911 0
M  V30 2000 O 307.828 2.60736 5.64823 0
M  V30 2001 C 309.018 3.93521 7.19518 0
M  V30 2002 O 309.408 3.02071 8.21205 0
M  V30 2003 C 309.898 3.73047 5.97036 0
M  V30 2004 C 309.188 2.58828 5.25741 0
M  V30 2005 N 309.238 2.68068 3.77503 0
M  V30 2006 C 309.158 3.80474 2.99159 0
M  V30 2007 N 309.228 3.55622 1.71925 0
M  V30 2008 C 309.378 2.1832 1.65733 0
M  V30 2009 C 309.508 1.28842 0.572777 0
M  V30 2010 N 309.518 1.66875 -0.70098 0
M  V30 2011 N 309.628 -0.016788 0.859836 0
M  V30 2012 C 309.618 -0.398145 2.13316 0
M  V30 2013 N 309.498 0.328224 3.22333 0
M  V30 2014 C 309.378 1.62992 2.90383 0
M  V30 2015 H 306.4 5.40394 6.8003 0
M  V30 2016 H 306.128 4.41741 5.32532 0
M  V30 2017 H 306.996 3.26371 7.47889 0
M  V30 2018 H 309.651 1.64007 5.56746 0
M  V30 2019 H 309.931 4.63439 5.3432 0
M  V30 2020 H 310.922 3.44776 6.25925 0
M  V30 2021 H 309.088 4.96707 7.57347 0
M  V30 2022 H 309.047 4.8089 3.39924 0
M  V30 2023 H 309.428 2.66547 -0.941919 0
M  V30 2024 H 309.617 0.965341 -1.44766 0
M  V30 2025 H 309.725 -1.46427 2.29697 0
M  V30 2026 P 310.958 2.75334 8.47391 0
M  V30 2027 O 311.178 2.44571 9.90142 0
M  V30 2028 O 311.748 3.87688 7.92115 0
M  V30 2029 O 311.208 1.4459 7.59357 0
M  V30 2030 C 310.268 0.347608 7.69215 0
M  V30 2031 C 310.998 -0.96767 7.52806 0
M  V30 2032 O 311.208 -1.21036 6.1011 0
M  V30 2033 C 312.398 -1.04544 8.13308 0
M  V30 2034 O 312.788 -2.38311 8.41922 0
M  V30 2035 C 313.278 -0.491279 7.02284 0
M  V30 2036 C 312.568 -0.996264 5.77469 0
M  V30 2037 N 312.618 -0.0501916 4.62973 0
M  V30 2038 C 312.538 1.32786 4.63244 0
M  V30 2039 N 312.618 1.86957 3.44545 0
M  V30 2040 C 312.758 0.780241 2.58481 0
M  V30 2041 C 312.888 0.738536 1.17757 0
M  V30 2042 O 312.908 1.66794 0.372349 0
M  V30 2043 N 313.008 -0.58337 0.711393 0
M  V30 2044 C 313.008 -1.70816 1.51017 0
M  V30 2045 N 313.138 -2.87826 0.880757 0
M  V30 2046 N 312.878 -1.67126 2.8339 0
M  V30 2047 C 312.758 -0.401421 3.30572 0
M  V30 2048 H 309.779 0.374722 8.67691 0
M  V30 2049 H 309.509 0.443485 6.90277 0
M  V30 2050 H 310.376 -1.75537 7.96793 0
M  V30 2051 H 313.031 -1.95076 5.46529 0
M  V30 2052 H 313.31 0.608565 7.04577 0
M  V30 2053 H 314.302 -0.889672 7.08939 0
M  V30 2054 H 312.468 -0.43308 9.04564 0
M  V30 2055 H 312.419 1.91249 5.54442 0
M  V30 2056 H 313.101 -0.718054 -0.275244 0
M  V30 2057 H 313.138 -3.75721 1.41832 0
M  V30 2058 H 313.239 -2.90436 -0.145468 0
M  V30 2059 P 314.338 -2.75334 8.47391 0
M  V30 2060 O 314.558 -3.84128 9.44797 0
M  V30 2061 O 315.128 -1.51947 8.68712 0
M  V30 2062 O 314.588 -3.29363 6.99321 0
M  V30 2063 C 313.648 -4.24011 6.4274 0
M  V30 2064 C 314.378 -5.20775 5.52155 0
M  V30 2065 O 314.588 -4.56534 4.22446 0
M  V30 2066 C 315.778 -5.62629 5.96531 0
M  V30 2067 O 316.168 -6.87667 5.41053 0
M  V30 2068 C 316.658 -4.52537 5.39283 0
M  V30 2069 C 315.948 -4.20027 4.08623 0
M  V30 2070 N 315.998 -2.76189 3.71603 0
M  V30 2071 H 313.159 -4.797 7.24003 0
M  V30 2072 H 312.889 -3.69856 5.84513 0
M  V30 2073 H 313.756 -6.10356 5.41441 0
M  V30 2074 P 317.718 -7.20834 5.23717 0
M  V30 2075 O 317.938 -8.66274 5.38678 0
M  V30 2076 O 318.508 -6.33687 6.13629 0
M  V30 2077 O 317.968 -6.7751 3.72168 0
M  V30 2078 C 317.028 -7.20919 2.70795 0
M  V30 2079 C 317.758 -7.45864 1.40599 0
M  V30 2080 O 317.968 -6.17751 0.734343 0
M  V30 2081 C 319.158 -8.05906 1.51917 0
M  V30 2082 O 319.548 -8.74358 0.335205 0
M  V30 2083 C 320.038 -6.83093 1.70294 0
M  V30 2084 C 319.328 -5.79992 0.836974 0
M  V30 2085 N 319.378 -4.41864 1.38293 0
M  V30 2086 H 316.54 -8.13738 3.03804 0
M  V30 2087 H 316.268 -6.42974 2.55559 0
M  V30 2088 H 317.136 -8.12139 0.792866 0
M  V30 2089 H 319.791 -5.80178 -0.160643 0
M  V30 2090 H 320.071 -6.51379 2.75643 0
M  V30 2091 H 321.062 -7.01832 1.3448 0
M  V30 2092 H 319.228 -8.73771 2.38364 0
M  V30 2093 P 321.098 -8.91 -1.34042e-12 0
M  V30 2094 O 321.318 -10.1726 -0.733694 0
M  V30 2095 O 321.888 -8.73148 1.23936 0
M  V30 2096 O 321.348 -7.66872 -0.971405 0
M  V30 2097 C 320.408 -7.42309 -2.04641 0
M  V30 2098 C 321.138 -6.86059 -3.24661 0
M  V30 2099 O 321.348 -5.42847 -3.03646 0
M  V30 2100 C 322.538 -7.41196 -3.50753 0
M  V30 2101 O 322.928 -7.27073 -4.86816 0
M  V30 2102 C 323.418 -6.5273 -2.63741 0
M  V30 2103 C 322.708 -5.1842 -2.73198 0
M  V30 2104 N 322.758 -4.38762 -1.4784 0
M  V30 2105 H 319.919 -8.36803 -2.32493 0
M  V30 2106 H 319.649 -6.70197 -1.71129 0
M  V30 2107 H 320.516 -7.03551 -4.13168 0
M  V30 2108 P 324.478 -7.20834 -5.23717 0
M  V30 2109 O 324.698 -7.79853 -6.57286 0
M  V30 2110 O 325.268 -7.79239 -4.12957 0
M  V30 2111 O 324.728 -5.63315 -5.29344 0
M  V30 2112 C 323.788 -4.80255 -6.01876 0
M  V30 2113 C 324.518 -3.64202 -6.65911 0
M  V30 2114 O 324.728 -2.60694 -5.64732 0
M  V30 2115 C 325.918 -3.93473 -7.1943 0
M  V30 2116 O 326.308 -3.02071 -8.21205 0
M  V30 2117 C 326.798 -3.73047 -5.97036 0
M  V30 2118 C 326.088 -2.58828 -5.25741 0
M  V30 2119 N 326.138 -2.68068 -3.77503 0
M  V30 2120 C 326.058 -3.79715 -2.96723 0
M  V30 2121 N 326.138 -3.5377 -1.68852 0
M  V30 2122 C 326.278 -2.15054 -1.63254 0
M  V30 2123 C 326.408 -1.28964 -0.518571 0
M  V30 2124 O 326.428 -1.56826 0.679156 0
M  V30 2125 N 326.528 0.0538097 -0.918425 0
M  V30 2126 C 326.528 0.494275 -2.22578 0
M  V30 2127 N 326.658 1.81086 -2.40434 0
M  V30 2128 N 326.398 -0.313645 -3.27502 0
M  V30 2129 C 326.278 -1.61829 -2.91033 0
M  V30 2130 H 323.299 -5.40332 -6.79951 0
M  V30 2131 H 323.029 -4.41613 -5.32378 0
M  V30 2132 H 323.896 -3.26331 -7.47797 0
M  V30 2133 H 326.551 -1.63422 -5.56814 0
M  V30 2134 H 326.83 -4.63374 -5.34244 0
M  V30 2135 H 327.822 -3.44728 -6.25838 0
M  V30 2136 H 325.988 -4.96652 -7.57263 0
M  V30 2137 H 325.939 -4.80617 -3.3614 0
M  V30 2138 H 326.621 0.742702 -0.199384 0
M  V30 2139 H 326.658 2.20598 -3.35588 0
M  V30 2140 H 326.759 2.43518 -1.58945 0
M  V30 2141 P 327.858 -2.75334 -8.47391 0
M  V30 2142 O 328.078 -2.44619 -9.90336 0
M  V30 2143 O 328.648 -3.87776 -7.92294 0
M  V30 2144 O 328.108 -1.4459 -7.59357 0
M  V30 2145 C 327.168 -0.347653 -7.69315 0
M  V30 2146 C 327.898 0.96767 -7.52806 0
M  V30 2147 O 328.108 1.21055 -6.10208 0
M  V30 2148 C 329.298 1.04557 -8.13408 0
M  V30 2149 O 329.688 2.38311 -8.41922 0
M  V30 2150 C 330.178 0.491279 -7.02284 0
M  V30 2151 C 329.468 0.996264 -5.77469 0
M  V30 2152 N 329.518 0.0501916 -4.62973 0
M  V30 2153 H 326.68 -0.374765 -8.67791 0
M  V30 2154 H 326.408 -0.443613 -6.90476 0
M  V30 2155 H 327.276 1.75559 -7.96891 0
M  V30 2156 H 329.931 1.94563 -5.46818 0
M  V30 2157 H 330.211 -0.608651 -7.04676 0
M  V30 2158 H 331.202 0.889796 -7.09039 0
M  V30 2159 H 329.368 0.433128 -9.04664 0
M  V30 2160 P 331.238 2.75334 -8.47391 0
M  V30 2161 O 331.458 3.84128 -9.44797 0
M  V30 2162 O 332.028 1.51947 -8.68712 0
M  V30 2163 O 331.488 3.29363 -6.99321 0
M  V30 2164 C 330.548 4.24011 -6.4274 0
M  V30 2165 C 331.278 5.20775 -5.52155 0
M  V30 2166 O 331.488 4.56534 -4.22446 0
M  V30 2167 C 332.678 5.62629 -5.96531 0
M  V30 2168 O 333.068 6.87667 -5.41053 0
M  V30 2169 C 333.558 4.52537 -5.39283 0
M  V30 2170 C 332.848 4.20027 -4.08623 0
M  V30 2171 N 332.898 2.76189 -3.71603 0
M  V30 2172 H 330.059 4.797 -7.24003 0
M  V30 2173 H 329.789 3.69856 -5.84513 0
M  V30 2174 H 330.656 6.10356 -5.41441 0
M  V30 2175 P 334.618 7.20834 -5.23717 0
M  V30 2176 O 334.838 8.66104 -5.38572 0
M  V30 2177 O 335.408 6.33544 -6.1349 0
M  V30 2178 O 334.868 6.7751 -3.72168 0
M  V30 2179 C 333.928 7.20825 -2.7076 0
M  V30 2180 C 334.658 7.45864 -1.40599 0
M  V30 2181 O 334.868 6.17651 -0.734225 0
M  V30 2182 C 336.058 8.05808 -1.51899 0
M  V30 2183 O 336.448 8.74358 -0.335205 0
M  V30 2184 C 336.938 6.83093 -1.70294 0
M  V30 2185 C 336.228 5.79992 -0.836974 0
M  V30 2186 N 336.278 4.41864 -1.38293 0
M  V30 2187 H 333.439 8.13644 -3.0377 0
M  V30 2188 H 333.169 6.42788 -2.55485 0
M  V30 2189 H 334.036 8.12039 -0.792769 0
M  V30 2190 P 337.998 8.91 1.4976e-12 0
M  V30 2191 O 338.218 10.1726 0.733694 0
M  V30 2192 O 338.788 8.73148 -1.23936 0
M  V30 2193 O 338.248 7.66872 0.971405 0
M  V30 2194 C 337.308 7.42309 2.04641 0
M  V30 2195 C 338.038 6.86059 3.24661 0
M  V30 2196 O 338.248 5.42847 3.03646 0
M  V30 2197 C 339.438 7.41196 3.50753 0
M  V30 2198 O 339.828 7.27073 4.86816 0
M  V30 2199 C 340.318 6.5273 2.63741 0
M  V30 2200 C 339.608 5.1842 2.73198 0
M  V30 2201 N 339.658 4.38762 1.4784 0
M  V30 2202 C 339.578 4.81605 0.168631 0
M  V30 2203 N 339.658 3.85454 -0.713363 0
M  V30 2204 C 339.798 2.6994 0.0566958 0
M  V30 2205 C 339.928 1.34815 -0.338502 0
M  V30 2206 N 340.048 0.496304 0.77465 0
M  V30 2207 C 340.048 0.908403 2.09122 0
M  V30 2208 N 340.178 -0.0517805 3.00955 0
M  V30 2209 N 339.918 2.17875 2.46519 0
M  V30 2210 C 339.798 3.01988 1.4033 0
M  V30 2211 H 336.819 8.36803 2.32493 0
M  V30 2212 H 336.549 6.70197 1.71129 0
M  V30 2213 H 337.416 7.03551 4.13168 0
M  V30 2214 P 341.378 7.20834 5.23717 0
M  V30 2215 O 341.598 7.80006 6.57415 0
M  V30 2216 O 342.168 7.79416 4.13051 0
M  V30 2217 O 341.628 5.63315 5.29344 0
M  V30 2218 C 340.688 4.80318 6.01954 0
M  V30 2219 C 341.418 3.64202 6.65911 0
M  V30 2220 O 341.628 2.60736 5.64823 0
M  V30 2221 C 342.818 3.93521 7.19518 0
M  V30 2222 O 343.208 3.02071 8.21205 0
M  V30 2223 C 343.698 3.73047 5.97036 0
M  V30 2224 C 342.988 2.58828 5.25741 0
M  V30 2225 N 343.038 2.68068 3.77503 0
M  V30 2226 C 342.958 3.80474 2.99159 0
M  V30 2227 N 343.028 3.55622 1.71925 0
M  V30 2228 C 343.178 2.1832 1.65733 0
M  V30 2229 C 343.308 1.28842 0.572777 0
M  V30 2230 N 343.318 1.66875 -0.70098 0
M  V30 2231 N 343.428 -0.016788 0.859836 0
M  V30 2232 C 343.418 -0.398145 2.13316 0
M  V30 2233 N 343.298 0.328224 3.22333 0
M  V30 2234 C 343.178 1.62992 2.90383 0
M  V30 2235 H 340.2 5.40394 6.8003 0
M  V30 2236 H 339.928 4.41741 5.32532 0
M  V30 2237 H 340.796 3.26371 7.47889 0
M  V30 2238 H 343.451 1.64007 5.56746 0
M  V30 2239 H 343.731 4.63439 5.3432 0
M  V30 2240 H 344.722 3.44776 6.25925 0
M  V30 2241 H 342.888 4.96707 7.57347 0
M  V30 2242 H 342.847 4.8089 3.39924 0
M  V30 2243 H 343.228 2.66547 -0.941919 0
M  V30 2244 H 343.417 0.965341 -1.44766 0
M  V30 2245 H 343.525 -1.46427 2.29697 0
M  V30 2246 P 344.758 2.75334 8.47391 0
M  V30 2247 O 344.978 2.44571 9.90142 0
M  V30 2248 O 345.548 3.87688 7.92115 0
M  V30 2249 O 345.008 1.4459 7.59357 0
M  V30 2250 C 344.068 0.347608 7.69215 0
M  V30 2251 C 344.798 -0.96767 7.52806 0
M  V30 2252 O 345.008 -1.21036 6.1011 0
M  V30 2253 C 346.198 -1.04544 8.13308 0
M  V30 2254 O 346.588 -2.38311 8.41922 0
M  V30 2255 C 347.078 -0.491279 7.02284 0
M  V30 2256 C 346.368 -0.996264 5.77469 0
M  V30 2257 N 346.418 -0.0501916 4.62973 0
M  V30 2258 H 343.579 0.374722 8.67691 0
M  V30 2259 H 343.309 0.443485 6.90277 0
M  V30 2260 H 344.176 -1.75537 7.96793 0
M  V30 2261 P 348.138 -2.75334 8.47391 0
M  V30 2262 O 348.358 -3.84128 9.44797 0
M  V30 2263 O 348.928 -1.51947 8.68712 0
M  V30 2264 O 348.388 -3.29363 6.99321 0
M  V30 2265 C 347.448 -4.24011 6.4274 0
M  V30 2266 C 348.178 -5.20775 5.52155 0
M  V30 2267 O 348.388 -4.56534 4.22446 0
M  V30 2268 C 349.578 -5.62629 5.96531 0
M  V30 2269 O 349.968 -6.87667 5.41053 0
M  V30 2270 C 350.458 -4.52537 5.39283 0
M  V30 2271 C 349.748 -4.20027 4.08623 0
M  V30 2272 N 349.798 -2.76189 3.71603 0
M  V30 2273 H 346.959 -4.797 7.24003 0
M  V30 2274 H 346.689 -3.69856 5.84513 0
M  V30 2275 H 347.556 -6.10356 5.41441 0
M  V30 2276 P 351.518 -7.20834 5.23717 0
M  V30 2277 O 351.738 -8.66104 5.38572 0
M  V30 2278 O 352.308 -6.33544 6.1349 0
M  V30 2279 O 351.768 -6.7751 3.72168 0
M  V30 2280 C 350.828 -7.20825 2.7076 0
M  V30 2281 C 351.558 -7.45864 1.40599 0
M  V30 2282 O 351.768 -6.17651 0.734225 0
M  V30 2283 C 352.958 -8.05808 1.51899 0
M  V30 2284 O 353.348 -8.74358 0.335205 0
M  V30 2285 C 353.838 -6.83093 1.70294 0
M  V30 2286 C 353.128 -5.79992 0.836974 0
M  V30 2287 N 353.178 -4.41864 1.38293 0
M  V30 2288 H 350.339 -8.13644 3.0377 0
M  V30 2289 H 350.069 -6.42788 2.55485 0
M  V30 2290 H 350.936 -8.12039 0.792769 0
M  V30 2291 P 354.898 -8.91 -1.65478e-12 0
M  V30 2292 O 355.118 -10.1736 -0.733766 0
M  V30 2293 O 355.688 -8.73247 1.2395 0
M  V30 2294 O 355.148 -7.66872 -0.971405 0
M  V30 2295 C 354.208 -7.42212 -2.04614 0
M  V30 2296 C 354.938 -6.86059 -3.24661 0
M  V30 2297 O 355.148 -5.42847 -3.03646 0
M  V30 2298 C 356.338 -7.41196 -3.50753 0
M  V30 2299 O 356.728 -7.27073 -4.86816 0
M  V30 2300 C 357.218 -6.5273 -2.63741 0
M  V30 2301 C 356.508 -5.1842 -2.73198 0
M  V30 2302 N 356.558 -4.38668 -1.47808 0
M  V30 2303 C 356.708 -3.02239 -1.60048 0
M  V30 2304 O 356.798 -2.46459 -2.67869 0
M  V30 2305 N 356.748 -2.32436 -0.408571 0
M  V30 2306 C 356.658 -2.85471 0.854993 0
M  V30 2307 C 356.508 -4.28918 0.887335 0
M  V30 2308 C 356.458 -5.00349 -0.255399 0
M  V30 2309 H 353.718 -8.36803 -2.32493 0
M  V30 2310 H 353.449 -6.701 -1.71105 0
M  V30 2311 H 354.316 -7.03551 -4.13168 0
M  V30 2312 H 356.971 -4.59773 -3.53894 0
M  V30 2313 H 357.25 -6.88995 -1.59871 0
M  V30 2314 H 358.242 -6.46749 -3.03687 0
M  V30 2315 H 356.408 -8.46908 -3.20714 0
M  V30 2316 H 356.337 -6.08548 -0.206986 0
M  V30 2317 P 358.278 -7.20834 -5.23717 0
M  V30 2318 O 358.498 -7.7993 -6.57351 0
M  V30 2319 O 359.068 -7.79328 -4.13004 0
M  V30 2320 O 358.528 -5.63315 -5.29344 0
M  V30 2321 C 357.588 -4.80255 -6.01876 0
M  V30 2322 C 358.318 -3.64202 -6.65911 0
M  V30 2323 O 358.528 -2.60694 -5.64732 0
M  V30 2324 C 359.718 -3.93473 -7.1943 0
M  V30 2325 O 360.108 -3.02071 -8.21205 0
M  V30 2326 C 360.598 -3.73047 -5.97036 0
M  V30 2327 C 359.888 -2.58828 -5.25741 0
M  V30 2328 N 359.938 -2.6801 -3.77422 0
M  V30 2329 C 360.088 -1.50173 -3.05038 0
M  V30 2330 O 360.178 -0.428832 -3.665 0
M  V30 2331 N 360.138 -1.70922 -1.55541 0
M  V30 2332 C 360.038 -2.7407 -1.06402 0
M  V30 2333 N 360.088 -2.74764 0.260931 0
M  V30 2334 C 359.888 -3.96781 -1.78296 0
M  V30 2335 C 359.838 -3.87909 -3.13891 0
M  V30 2336 H 357.098 -5.4027 -6.79873 0
M  V30 2337 H 356.829 -4.41549 -5.32301 0
M  V30 2338 H 357.696 -3.26371 -7.47889 0
M  V30 2339 H 360.351 -1.63978 -5.5665 0
M  V30 2340 H 360.63 -4.63439 -5.3432 0
M  V30 2341 H 361.622 -3.44728 -6.25838 0
M  V30 2342 H 359.788 -4.96652 -7.57263 0
M  V30 2343 H 359.716 -4.78425 -3.73088 0
M  V30 2344 H 359.818 -4.92593 -1.26997 0
M  V30 2345 H 360.206 -1.86285 0.77595 0
M  V30 2346 H 360.009 -3.63657 0.773896 0
M  V30 2347 P 361.658 -2.75334 -8.47391 0
M  V30 2348 O 361.878 -2.44571 -9.90142 0
M  V30 2349 O 362.448 -3.87688 -7.92115 0
M  V30 2350 O 361.908 -1.4459 -7.59357 0
M  V30 2351 C 360.968 -0.347608 -7.69215 0
M  V30 2352 C 361.698 0.96767 -7.52806 0
M  V30 2353 O 361.908 1.21036 -6.1011 0
M  V30 2354 C 363.098 1.04544 -8.13308 0
M  V30 2355 O 363.488 2.38311 -8.41922 0
M  V30 2356 C 363.978 0.491279 -7.02284 0
M  V30 2357 C 363.268 0.996264 -5.77469 0
M  V30 2358 N 363.318 0.0501916 -4.62973 0
M  V30 2359 C 363.238 -1.32786 -4.63244 0
M  V30 2360 N 363.318 -1.86957 -3.44545 0
M  V30 2361 C 363.458 -0.780241 -2.58481 0
M  V30 2362 C 363.588 -0.738536 -1.17757 0
M  V30 2363 O 363.608 -1.66794 -0.372349 0
M  V30 2364 N 363.708 0.58337 -0.711393 0
M  V30 2365 C 363.708 1.70816 -1.51017 0
M  V30 2366 N 363.838 2.87826 -0.880757 0
M  V30 2367 N 363.578 1.67126 -2.8339 0
M  V30 2368 C 363.458 0.401421 -3.30572 0
M  V30 2369 H 360.479 -0.374722 -8.67691 0
M  V30 2370 H 360.209 -0.443485 -6.90277 0
M  V30 2371 H 361.076 1.75537 -7.96793 0
M  V30 2372 H 363.731 1.95076 -5.46529 0
M  V30 2373 H 364.01 -0.608565 -7.04577 0
M  V30 2374 H 365.002 0.889672 -7.08939 0
M  V30 2375 H 363.168 0.43308 -9.04564 0
M  V30 2376 H 363.119 -1.91249 -5.54442 0
M  V30 2377 H 363.801 0.718054 0.275244 0
M  V30 2378 H 363.838 3.75721 -1.41832 0
M  V30 2379 H 363.939 2.90436 0.145468 0
M  V30 2380 P 365.038 2.75334 -8.47391 0
M  V30 2381 O 365.258 3.84128 -9.44797 0
M  V30 2382 O 365.828 1.51947 -8.68712 0
M  V30 2383 O 365.288 3.29363 -6.99321 0
M  V30 2384 C 364.348 4.24011 -6.4274 0
M  V30 2385 C 365.078 5.20775 -5.52155 0
M  V30 2386 O 365.288 4.56534 -4.22446 0
M  V30 2387 C 366.478 5.62629 -5.96531 0
M  V30 2388 O 366.868 6.87667 -5.41053 0
M  V30 2389 C 367.358 4.52537 -5.39283 0
M  V30 2390 C 366.648 4.20027 -4.08623 0
M  V30 2391 N 366.698 2.76189 -3.71603 0
M  V30 2392 C 366.618 1.64862 -4.52822 0
M  V30 2393 N 366.698 0.512671 -3.88633 0
M  V30 2394 C 366.838 0.888083 -2.54977 0
M  V30 2395 C 366.968 0.094668 -1.38677 0
M  V30 2396 O 366.988 -1.13053 -1.28163 0
M  V30 2397 N 367.088 0.890102 -0.232633 0
M  V30 2398 C 367.088 2.26958 -0.21772 0
M  V30 2399 N 367.218 2.84626 0.97925 0
M  V30 2400 N 366.958 3.0178 -1.31033 0
M  V30 2401 C 366.838 2.26781 -2.43843 0
M  V30 2402 H 363.859 4.797 -7.24003 0
M  V30 2403 H 363.589 3.69856 -5.84513 0
M  V30 2404 H 364.456 6.10356 -5.41441 0
M  V30 2405 H 367.111 4.79061 -3.27488 0
M  V30 2406 H 367.39 3.64906 -6.05785 0
M  V30 2407 H 368.382 4.8868 -5.2125 0
M  V30 2408 H 366.548 5.66726 -7.06352 0
M  V30 2409 H 366.499 1.71169 -5.60966 0
M  V30 2410 H 367.181 0.419134 0.644739 0
M  V30 2411 H 367.218 3.87332 1.06098 0
M  V30 2412 H 367.319 2.26417 1.82483 0
M  V30 2413 P 368.418 7.20834 -5.23717 0
M  V30 2414 O 368.638 8.66104 -5.38572 0
M  V30 2415 O 369.208 6.33544 -6.1349 0
M  V30 2416 O 368.668 6.7751 -3.72168 0
M  V30 2417 C 367.728 7.20825 -2.7076 0
M  V30 2418 C 368.458 7.45864 -1.40599 0
M  V30 2419 O 368.668 6.17651 -0.734225 0
M  V30 2420 C 369.858 8.05808 -1.51899 0
M  V30 2421 O 370.248 8.74358 -0.335205 0
M  V30 2422 C 370.738 6.83093 -1.70294 0
M  V30 2423 C 370.028 5.79992 -0.836974 0
M  V30 2424 N 370.078 4.41864 -1.38293 0
M  V30 2425 H 367.239 8.13644 -3.0377 0
M  V30 2426 H 366.969 6.42788 -2.55485 0
M  V30 2427 H 367.836 8.12039 -0.792769 0
M  V30 2428 P 371.798 8.91 1.81197e-12 0
M  V30 2429 O 372.018 10.1726 0.733694 0
M  V30 2430 O 372.588 8.73148 -1.23936 0
M  V30 2431 O 372.048 7.66872 0.971405 0
M  V30 2432 C 371.108 7.42309 2.04641 0
M  V30 2433 C 371.838 6.86059 3.24661 0
M  V30 2434 O 372.048 5.42847 3.03646 0
M  V30 2435 C 373.238 7.41196 3.50753 0
M  V30 2436 O 373.628 7.27073 4.86816 0
M  V30 2437 C 374.118 6.5273 2.63741 0
M  V30 2438 C 373.408 5.1842 2.73198 0
M  V30 2439 N 373.458 4.38762 1.4784 0
M  V30 2440 H 370.619 8.36803 2.32493 0
M  V30 2441 H 370.349 6.70197 1.71129 0
M  V30 2442 H 371.216 7.03551 4.13168 0
M  V30 2443 P 375.178 7.20834 5.23717 0
M  V30 2444 O 375.398 7.79853 6.57286 0
M  V30 2445 O 375.968 7.79239 4.12957 0
M  V30 2446 O 375.428 5.63315 5.29344 0
M  V30 2447 C 374.488 4.80255 6.01876 0
M  V30 2448 C 375.218 3.64202 6.65911 0
M  V30 2449 O 375.428 2.60694 5.64732 0
M  V30 2450 C 376.618 3.93473 7.1943 0
M  V30 2451 O 377.008 3.02071 8.21205 0
M  V30 2452 C 377.498 3.73047 5.97036 0
M  V30 2453 C 376.788 2.58828 5.25741 0
M  V30 2454 N 376.838 2.68068 3.77503 0
M  V30 2455 C 376.758 3.79715 2.96723 0
M  V30 2456 N 376.838 3.5377 1.68852 0
M  V30 2457 C 376.978 2.15054 1.63254 0
M  V30 2458 C 377.108 1.28964 0.518571 0
M  V30 2459 N 377.228 -0.0538097 0.918425 0
M  V30 2460 C 377.228 -0.494275 2.22578 0
M  V30 2461 N 377.358 -1.81086 2.40434 0
M  V30 2462 N 377.098 0.313645 3.27502 0
M  V30 2463 C 376.978 1.61829 2.91033 0
M  V30 2464 H 373.999 5.40332 6.79951 0
M  V30 2465 H 373.729 4.41613 5.32378 0
M  V30 2466 H 374.596 3.26331 7.47797 0
M  V30 2467 P 378.558 2.75334 8.47391 0
M  V30 2468 O 378.778 2.44571 9.90142 0
M  V30 2469 O 379.348 3.87688 7.92115 0
M  V30 2470 O 378.808 1.4459 7.59357 0
M  V30 2471 C 377.868 0.347608 7.69215 0
M  V30 2472 C 378.598 -0.96767 7.52806 0
M  V30 2473 O 378.808 -1.21036 6.1011 0
M  V30 2474 C 379.998 -1.04544 8.13308 0
M  V30 2475 O 380.388 -2.38311 8.41922 0
M  V30 2476 C 380.878 -0.491279 7.02284 0
M  V30 2477 C 380.168 -0.996264 5.77469 0
M  V30 2478 N 380.218 -0.0501916 4.62973 0
M  V30 2479 H 377.379 0.374722 8.67691 0
M  V30 2480 H 377.109 0.443485 6.90277 0
M  V30 2481 H 377.976 -1.75537 7.96793 0
M  V30 2482 P 381.938 -2.75334 8.47391 0
M  V30 2483 O 382.158 -3.84128 9.44797 0
M  V30 2484 O 382.728 -1.51947 8.68712 0
M  V30 2485 O 382.188 -3.29363 6.99321 0
M  V30 2486 C 381.248 -4.24011 6.4274 0
M  V30 2487 C 381.978 -5.20775 5.52155 0
M  V30 2488 O 382.188 -4.56534 4.22446 0
M  V30 2489 C 383.378 -5.62629 5.96531 0
M  V30 2490 O 383.768 -6.87667 5.41053 0
M  V30 2491 C 384.258 -4.52537 5.39283 0
M  V30 2492 C 383.548 -4.20027 4.08623 0
M  V30 2493 N 383.598 -2.76189 3.71603 0
M  V30 2494 H 380.759 -4.797 7.24003 0
M  V30 2495 H 380.489 -3.69856 5.84513 0
M  V30 2496 H 381.356 -6.10356 5.41441 0
M  V30 2497 P 385.318 -7.20834 5.23717 0
M  V30 2498 O 385.538 -8.66104 5.38572 0
M  V30 2499 O 386.108 -6.33544 6.1349 0
M  V30 2500 O 385.568 -6.7751 3.72168 0
M  V30 2501 C 384.628 -7.20825 2.7076 0
M  V30 2502 C 385.358 -7.45864 1.40599 0
M  V30 2503 O 385.568 -6.17651 0.734225 0
M  V30 2504 C 386.758 -8.05808 1.51899 0
M  V30 2505 O 387.148 -8.74358 0.335205 0
M  V30 2506 C 387.638 -6.83093 1.70294 0
M  V30 2507 C 386.928 -5.79992 0.836974 0
M  V30 2508 N 386.978 -4.41864 1.38293 0
M  V30 2509 H 384.139 -8.13644 3.0377 0
M  V30 2510 H 383.869 -6.42788 2.55485 0
M  V30 2511 H 384.736 -8.12039 0.792769 0
M  V30 2512 P 388.698 -8.91 -1.96915e-12 0
M  V30 2513 O 388.918 -10.1726 -0.733694 0
M  V30 2514 O 389.488 -8.73148 1.23936 0
M  V30 2515 O 388.948 -7.66872 -0.971405 0
M  V30 2516 C 388.008 -7.42309 -2.04641 0
M  V30 2517 C 388.738 -6.86059 -3.24661 0
M  V30 2518 O 388.948 -5.42847 -3.03646 0
M  V30 2519 C 390.138 -7.41196 -3.50753 0
M  V30 2520 O 390.528 -7.27073 -4.86816 0
M  V30 2521 C 391.018 -6.5273 -2.63741 0
M  V30 2522 C 390.308 -5.1842 -2.73198 0
M  V30 2523 N 390.358 -4.38762 -1.4784 0
M  V30 2524 C 390.278 -4.81605 -0.168631 0
M  V30 2525 N 390.358 -3.85454 0.713363 0
M  V30 2526 C 390.498 -2.6994 -0.0566958 0
M  V30 2527 C 390.628 -1.34815 0.338502 0
M  V30 2528 N 390.748 -0.496304 -0.77465 0
M  V30 2529 C 390.748 -0.908403 -2.09122 0
M  V30 2530 N 390.878 0.0517805 -3.00955 0
M  V30 2531 N 390.618 -2.17875 -2.46519 0
M  V30 2532 C 390.498 -3.01988 -1.4033 0
M  V30 2533 H 387.519 -8.36803 -2.32493 0
M  V30 2534 H 387.249 -6.70197 -1.71129 0
M  V30 2535 H 388.116 -7.03551 -4.13168 0
M  V30 2536 P 392.078 -7.20834 -5.23717 0
M  V30 2537 O 392.298 -7.79853 -6.57286 0
M  V30 2538 O 392.868 -7.79239 -4.12957 0
M  V30 2539 O 392.328 -5.63315 -5.29344 0
M  V30 2540 C 391.388 -4.80255 -6.01876 0
M  V30 2541 C 392.118 -3.64202 -6.65911 0
M  V30 2542 O 392.328 -2.60694 -5.64732 0
M  V30 2543 C 393.518 -3.93473 -7.1943 0
M  V30 2544 O 393.908 -3.02071 -8.21205 0
M  V30 2545 C 394.398 -3.73047 -5.97036 0
M  V30 2546 C 393.688 -2.58828 -5.25741 0
M  V30 2547 N 393.738 -2.68068 -3.77503 0
M  V30 2548 H 390.899 -5.40332 -6.79951 0
M  V30 2549 H 390.629 -4.41613 -5.32378 0
M  V30 2550 H 391.496 -3.26331 -7.47797 0
M  V30 2551 P 395.458 -2.75334 -8.47391 0
M  V30 2552 O 395.678 -2.44571 -9.90142 0
M  V30 2553 O 396.248 -3.87688 -7.92115 0
M  V30 2554 O 395.708 -1.4459 -7.59357 0
M  V30 2555 C 394.768 -0.347608 -7.69215 0
M  V30 2556 C 395.498 0.96767 -7.52806 0
M  V30 2557 O 395.708 1.21036 -6.1011 0
M  V30 2558 C 396.898 1.04544 -8.13308 0
M  V30 2559 O 397.288 2.38311 -8.41922 0
M  V30 2560 C 397.778 0.491279 -7.02284 0
M  V30 2561 C 397.068 0.996264 -5.77469 0
M  V30 2562 N 397.118 0.0501916 -4.62973 0
M  V30 2563 C 397.038 -1.32786 -4.63244 0
M  V30 2564 N 397.118 -1.86957 -3.44545 0
M  V30 2565 C 397.258 -0.780241 -2.58481 0
M  V30 2566 C 397.388 -0.738536 -1.17757 0
M  V30 2567 O 397.408 -1.66794 -0.372349 0
M  V30 2568 N 397.508 0.58337 -0.711393 0
M  V30 2569 C 397.508 1.70816 -1.51017 0
M  V30 2570 N 397.638 2.87826 -0.880757 0
M  V30 2571 N 397.378 1.67126 -2.8339 0
M  V30 2572 C 397.258 0.401421 -3.30572 0
M  V30 2573 H 394.279 -0.374722 -8.67691 0
M  V30 2574 H 394.009 -0.443485 -6.90277 0
M  V30 2575 H 394.876 1.75537 -7.96793 0
M  V30 2576 H 397.531 1.95076 -5.46529 0
M  V30 2577 H 397.81 -0.608565 -7.04577 0
M  V30 2578 H 398.802 0.889672 -7.08939 0
M  V30 2579 H 396.968 0.43308 -9.04564 0
M  V30 2580 H 396.919 -1.91249 -5.54442 0
M  V30 2581 H 397.601 0.718054 0.275244 0
M  V30 2582 H 397.638 3.75721 -1.41832 0
M  V30 2583 H 397.739 2.90436 0.145468 0
M  V30 2584 P 398.838 2.75334 -8.47391 0
M  V30 2585 O 399.058 3.84128 -9.44797 0
M  V30 2586 O 399.628 1.51947 -8.68712 0
M  V30 2587 O 399.088 3.29363 -6.99321 0
M  V30 2588 C 398.148 4.24011 -6.4274 0
M  V30 2589 C 398.878 5.20775 -5.52155 0
M  V30 2590 O 399.088 4.56534 -4.22446 0
M  V30 2591 C 400.278 5.62629 -5.96531 0
M  V30 2592 O 400.668 6.87667 -5.41053 0
M  V30 2593 C 401.158 4.52537 -5.39283 0
M  V30 2594 C 400.448 4.20027 -4.08623 0
M  V30 2595 N 400.498 2.76189 -3.71603 0
M  V30 2596 H 397.659 4.797 -7.24003 0
M  V30 2597 H 397.389 3.69856 -5.84513 0
M  V30 2598 H 398.256 6.10356 -5.41441 0
M  V30 2599 P 402.218 7.20834 -5.23717 0
M  V30 2600 O 402.438 8.66104 -5.38572 0
M  V30 2601 O 403.008 6.33544 -6.1349 0
M  V30 2602 O 402.468 6.7751 -3.72168 0
M  V30 2603 C 401.528 7.20825 -2.7076 0
M  V30 2604 C 402.258 7.45864 -1.40599 0
M  V30 2605 O 402.468 6.17651 -0.734225 0
M  V30 2606 C 403.658 8.05808 -1.51899 0
M  V30 2607 O 404.048 8.74358 -0.335205 0
M  V30 2608 C 404.538 6.83093 -1.70294 0
M  V30 2609 C 403.828 5.79992 -0.836974 0
M  V30 2610 N 403.878 4.41864 -1.38293 0
M  V30 2611 C 403.798 3.99538 -2.69438 0
M  V30 2612 N 403.878 2.69909 -2.84277 0
M  V30 2613 C 404.018 2.21719 -1.5408 0
M  V30 2614 C 404.148 0.891712 -1.06628 0
M  V30 2615 O 404.168 -0.161298 -1.70137 0
M  V30 2616 N 404.268 0.856846 0.334985 0
M  V30 2617 C 404.268 1.9641 1.15789 0
M  V30 2618 N 404.398 1.72708 2.46522 0
M  V30 2619 N 404.138 3.21165 0.713741 0
M  V30 2620 C 404.018 3.26797 -0.639748 0
M  V30 2621 H 401.039 8.13644 -3.0377 0
M  V30 2622 H 400.769 6.42788 -2.55485 0
M  V30 2623 H 401.636 8.12039 -0.792769 0
M  V30 2624 H 404.291 5.80061 0.166416 0
M  V30 2625 H 404.57 6.51287 -2.75604 0
M  V30 2626 H 405.562 7.01734 -1.34462 0
M  V30 2627 H 403.728 8.73674 -2.38337 0
M  V30 2628 H 403.679 4.68207 -3.53221 0
M  V30 2629 H 404.361 -0.0398818 0.767965 0
M  V30 2630 H 404.398 2.50995 3.13503 0
M  V30 2631 H 404.499 0.759148 2.80716 0
M  V30 2632 P 405.598 8.91 2.12633e-12 0
M  V30 2633 O 405.818 10.1726 0.733694 0
M  V30 2634 O 406.388 8.73148 -1.23936 0
M  V30 2635 O 405.848 7.66872 0.971405 0
M  V30 2636 C 404.908 7.42309 2.04641 0
M  V30 2637 C 405.638 6.86059 3.24661 0
M  V30 2638 O 405.848 5.42847 3.03646 0
M  V30 2639 C 407.038 7.41196 3.50753 0
M  V30 2640 O 407.428 7.27073 4.86816 0
M  V30 2641 C 407.918 6.5273 2.63741 0
M  V30 2642 C 407.208 5.1842 2.73198 0
M  V30 2643 N 407.258 4.38762 1.4784 0
M  V30 2644 C 407.178 4.81605 0.168631 0
M  V30 2645 N 407.258 3.85454 -0.713363 0
M  V30 2646 C 407.398 2.6994 0.0566958 0
M  V30 2647 C 407.528 1.34815 -0.338502 0
M  V30 2648 O 407.548 0.869548 -1.47125 0
M  V30 2649 N 407.648 0.496304 0.77465 0
M  V30 2650 C 407.648 0.908403 2.09122 0
M  V30 2651 N 407.778 -0.0517805 3.00955 0
M  V30 2652 N 407.518 2.17875 2.46519 0
M  V30 2653 C 407.398 3.01988 1.4033 0
M  V30 2654 H 404.419 8.36803 2.32493 0
M  V30 2655 H 404.149 6.70197 1.71129 0
M  V30 2656 H 405.016 7.03551 4.13168 0
M  V30 2657 H 407.671 4.59498 3.54415 0
M  V30 2658 H 407.95 6.88898 1.59848 0
M  V30 2659 H 408.942 6.46749 3.03687 0
M  V30 2660 H 407.108 8.46908 3.20714 0
M  V30 2661 H 407.059 5.86405 -0.105564 0
M  V30 2662 H 407.741 -0.483664 0.597855 0
M  V30 2663 H 407.778 0.187865 4.0116 0
M  V30 2664 H 407.879 -1.03585 2.71726 0
M  V30 2665 P 408.978 7.20834 5.23717 0
M  V30 2666 O 409.198 7.79853 6.57286 0
M  V30 2667 O 409.768 7.79239 4.12957 0
M  V30 2668 O 409.228 5.63315 5.29344 0
M  V30 2669 C 408.288 4.80255 6.01876 0
M  V30 2670 C 409.018 3.64202 6.65911 0
M  V30 2671 O 409.228 2.60694 5.64732 0
M  V30 2672 C 410.418 3.93473 7.1943 0
M  V30 2673 O 410.808 3.02071 8.21205 0
M  V30 2674 C 411.298 3.73047 5.97036 0
M  V30 2675 C 410.588 2.58828 5.25741 0
M  V30 2676 N 410.638 2.68068 3.77503 0
M  V30 2677 H 407.799 5.40332 6.79951 0
M  V30 2678 H 407.529 4.41613 5.32378 0
M  V30 2679 H 408.396 3.26331 7.47797 0
M  V30 2680 P 412.358 2.75334 8.47391 0
M  V30 2681 O 412.578 2.44619 9.90336 0
M  V30 2682 O 413.148 3.87776 7.92294 0
M  V30 2683 O 412.608 1.4459 7.59357 0
M  V30 2684 C 411.668 0.347653 7.69315 0
M  V30 2685 C 412.398 -0.96767 7.52806 0
M  V30 2686 O 412.608 -1.21055 6.10208 0
M  V30 2687 C 413.798 -1.04557 8.13408 0
M  V30 2688 O 414.188 -2.38311 8.41922 0
M  V30 2689 C 414.678 -0.491279 7.02284 0
M  V30 2690 C 413.968 -0.996264 5.77469 0
M  V30 2691 N 414.018 -0.0501916 4.62973 0
M  V30 2692 H 411.18 0.374765 8.67791 0
M  V30 2693 H 410.908 0.443613 6.90476 0
M  V30 2694 H 411.776 -1.75559 7.96891 0
M  V30 2695 H 414.431 -1.94563 5.46818 0
M  V30 2696 H 414.711 0.608651 7.04676 0
M  V30 2697 H 415.702 -0.889796 7.09039 0
M  V30 2698 H 413.868 -0.433128 9.04664 0
M  V30 2699 P 415.738 -2.75334 8.47391 0
M  V30 2700 O 415.958 -3.84128 9.44797 0
M  V30 2701 O 416.528 -1.51947 8.68712 0
M  V30 2702 O 415.988 -3.29363 6.99321 0
M  V30 2703 C 415.048 -4.24011 6.4274 0
M  V30 2704 C 415.778 -5.20775 5.52155 0
M  V30 2705 O 415.988 -4.56534 4.22446 0
M  V30 2706 C 417.178 -5.62629 5.96531 0
M  V30 2707 O 417.568 -6.87667 5.41053 0
M  V30 2708 C 418.058 -4.52537 5.39283 0
M  V30 2709 C 417.348 -4.20027 4.08623 0
M  V30 2710 N 417.398 -2.76189 3.71603 0
M  V30 2711 H 414.559 -4.797 7.24003 0
M  V30 2712 H 414.289 -3.69856 5.84513 0
M  V30 2713 H 415.156 -6.10356 5.41441 0
M  V30 2714 P 419.118 -7.20834 5.23717 0
M  V30 2715 O 419.338 -8.66104 5.38572 0
M  V30 2716 O 419.908 -6.33544 6.1349 0
M  V30 2717 O 419.368 -6.7751 3.72168 0
M  V30 2718 C 418.428 -7.20825 2.7076 0
M  V30 2719 C 419.158 -7.45864 1.40599 0
M  V30 2720 O 419.368 -6.17651 0.734225 0
M  V30 2721 C 420.558 -8.05808 1.51899 0
M  V30 2722 O 420.948 -8.74358 0.335205 0
M  V30 2723 C 421.438 -6.83093 1.70294 0
M  V30 2724 C 420.728 -5.79992 0.836974 0
M  V30 2725 N 420.778 -4.41864 1.38293 0
M  V30 2726 C 420.698 -3.99538 2.69438 0
M  V30 2727 N 420.778 -2.69909 2.84277 0
M  V30 2728 C 420.918 -2.21719 1.5408 0
M  V30 2729 C 421.048 -0.891712 1.06628 0
M  V30 2730 N 421.168 -0.856846 -0.334985 0
M  V30 2731 C 421.168 -1.9641 -1.15789 0
M  V30 2732 N 421.298 -1.72708 -2.46522 0
M  V30 2733 N 421.038 -3.21165 -0.713741 0
M  V30 2734 C 420.918 -3.26797 0.639748 0
M  V30 2735 H 417.939 -8.13644 3.0377 0
M  V30 2736 H 417.669 -6.42788 2.55485 0
M  V30 2737 H 418.536 -8.12039 0.792769 0
M  V30 2738 P 422.497 -8.91 -2.28351e-12 0
M  V30 2739 O 422.717 -10.1726 -0.733694 0
M  V30 2740 O 423.287 -8.73148 1.23936 0
M  V30 2741 O 422.747 -7.66872 -0.971405 0
M  V30 2742 C 421.807 -7.42309 -2.04641 0
M  V30 2743 C 422.537 -6.86059 -3.24661 0
M  V30 2744 O 422.747 -5.42847 -3.03646 0
M  V30 2745 C 423.937 -7.41196 -3.50753 0
M  V30 2746 O 424.327 -7.27073 -4.86816 0
M  V30 2747 C 424.817 -6.5273 -2.63741 0
M  V30 2748 C 424.107 -5.1842 -2.73198 0
M  V30 2749 N 424.157 -4.38762 -1.4784 0
M  V30 2750 C 424.077 -4.81605 -0.168631 0
M  V30 2751 N 424.157 -3.85454 0.713363 0
M  V30 2752 C 424.297 -2.6994 -0.0566958 0
M  V30 2753 C 424.427 -1.34815 0.338502 0
M  V30 2754 N 424.547 -0.496304 -0.77465 0
M  V30 2755 C 424.547 -0.908403 -2.09122 0
M  V30 2756 N 424.677 0.0517805 -3.00955 0
M  V30 2757 N 424.417 -2.17875 -2.46519 0
M  V30 2758 C 424.297 -3.01988 -1.4033 0
M  V30 2759 H 421.318 -8.36803 -2.32493 0
M  V30 2760 H 421.048 -6.70197 -1.71129 0
M  V30 2761 H 421.915 -7.03551 -4.13168 0
M  V30 2762 P 425.877 -7.20834 -5.23717 0
M  V30 2763 O 426.097 -7.79853 -6.57286 0
M  V30 2764 O 426.667 -7.79239 -4.12957 0
M  V30 2765 O 426.127 -5.63315 -5.29344 0
M  V30 2766 C 425.187 -4.80255 -6.01876 0
M  V30 2767 C 425.917 -3.64202 -6.65911 0
M  V30 2768 O 426.127 -2.60694 -5.64732 0
M  V30 2769 C 427.317 -3.93473 -7.1943 0
M  V30 2770 O 427.707 -3.02071 -8.21205 0
M  V30 2771 C 428.197 -3.73047 -5.97036 0
M  V30 2772 C 427.487 -2.58828 -5.25741 0
M  V30 2773 N 427.537 -2.68068 -3.77503 0
M  V30 2774 H 424.698 -5.40332 -6.79951 0
M  V30 2775 H 424.428 -4.41613 -5.32378 0
M  V30 2776 H 425.295 -3.26331 -7.47797 0
M  V30 2777 P 429.257 -2.75334 -8.47391 0
M  V30 2778 O 429.477 -2.44571 -9.90142 0
M  V30 2779 O 430.047 -3.87688 -7.92115 0
M  V30 2780 O 429.507 -1.4459 -7.59357 0
M  V30 2781 C 428.567 -0.347608 -7.69215 0
M  V30 2782 C 429.297 0.96767 -7.52806 0
M  V30 2783 O 429.507 1.21036 -6.1011 0
M  V30 2784 C 430.697 1.04544 -8.13308 0
M  V30 2785 O 431.087 2.38311 -8.41922 0
M  V30 2786 C 431.577 0.491279 -7.02284 0
M  V30 2787 C 430.867 0.996264 -5.77469 0
M  V30 2788 N 430.917 0.0501916 -4.62973 0
M  V30 2789 C 430.837 -1.32786 -4.63244 0
M  V30 2790 N 430.917 -1.86957 -3.44545 0
M  V30 2791 C 431.057 -0.780241 -2.58481 0
M  V30 2792 C 431.187 -0.738536 -1.17757 0
M  V30 2793 N 431.307 0.58337 -0.711393 0
M  V30 2794 C 431.307 1.70816 -1.51017 0
M  V30 2795 N 431.437 2.87826 -0.880757 0
M  V30 2796 N 431.177 1.67126 -2.8339 0
M  V30 2797 C 431.057 0.401421 -3.30572 0
M  V30 2798 H 428.078 -0.374722 -8.67691 0
M  V30 2799 H 427.808 -0.443485 -6.90277 0
M  V30 2800 H 428.675 1.75537 -7.96793 0
M  V30 2801 P 432.637 2.75334 -8.47391 0
M  V30 2802 O 432.857 3.84128 -9.44797 0
M  V30 2803 O 433.427 1.51947 -8.68712 0
M  V30 2804 O 432.887 3.29363 -6.99321 0
M  V30 2805 C 431.947 4.24011 -6.4274 0
M  V30 2806 C 432.677 5.20775 -5.52155 0
M  V30 2807 O 432.887 4.56534 -4.22446 0
M  V30 2808 C 434.077 5.62629 -5.96531 0
M  V30 2809 O 434.467 6.87667 -5.41053 0
M  V30 2810 C 434.957 4.52537 -5.39283 0
M  V30 2811 C 434.247 4.20027 -4.08623 0
M  V30 2812 N 434.297 2.76189 -3.71603 0
M  V30 2813 H 431.458 4.797 -7.24003 0
M  V30 2814 H 431.188 3.69856 -5.84513 0
M  V30 2815 H 432.055 6.10356 -5.41441 0
M  V30 2816 P 436.017 7.20834 -5.23717 0
M  V30 2817 O 436.237 8.66274 -5.38678 0
M  V30 2818 O 436.807 6.33687 -6.13629 0
M  V30 2819 O 436.267 6.7751 -3.72168 0
M  V30 2820 C 435.327 7.20919 -2.70795 0
M  V30 2821 C 436.057 7.45864 -1.40599 0
M  V30 2822 O 436.267 6.17751 -0.734343 0
M  V30 2823 C 437.457 8.05906 -1.51917 0
M  V30 2824 O 437.847 8.74358 -0.335205 0
M  V30 2825 C 438.337 6.83093 -1.70294 0
M  V30 2826 C 437.627 5.79992 -0.836974 0
M  V30 2827 N 437.677 4.41864 -1.38293 0
M  V30 2828 H 434.839 8.13738 -3.03804 0
M  V30 2829 H 434.567 6.42974 -2.55559 0
M  V30 2830 H 435.435 8.12139 -0.792866 0
M  V30 2831 H 438.09 5.80178 0.160643 0
M  V30 2832 H 438.37 6.51379 -2.75643 0
M  V30 2833 H 439.361 7.01832 -1.3448 0
M  V30 2834 H 437.527 8.73771 -2.38364 0
M  V30 2835 P 439.397 8.91 2.44069e-12 0
M  V30 2836 O 439.617 10.1726 0.733694 0
M  V30 2837 O 440.187 8.73148 -1.23936 0
M  V30 2838 O 439.647 7.66872 0.971405 0
M  V30 2839 C 438.707 7.42309 2.04641 0
M  V30 2840 C 439.437 6.86059 3.24661 0
M  V30 2841 O 439.647 5.42847 3.03646 0
M  V30 2842 C 440.837 7.41196 3.50753 0
M  V30 2843 O 441.227 7.27073 4.86816 0
M  V30 2844 C 441.717 6.5273 2.63741 0
M  V30 2845 C 441.007 5.1842 2.73198 0
M  V30 2846 N 441.057 4.38762 1.4784 0
M  V30 2847 C 440.977 4.81605 0.168631 0
M  V30 2848 N 441.057 3.85454 -0.713363 0
M  V30 2849 C 441.197 2.6994 0.0566958 0
M  V30 2850 C 441.327 1.34815 -0.338502 0
M  V30 2851 O 441.347 0.869548 -1.47125 0
M  V30 2852 N 441.447 0.496304 0.77465 0
M  V30 2853 C 441.447 0.908403 2.09122 0
M  V30 2854 N 441.577 -0.0517805 3.00955 0
M  V30 2855 N 441.317 2.17875 2.46519 0
M  V30 2856 C 441.197 3.01988 1.4033 0
M  V30 2857 H 438.218 8.36803 2.32493 0
M  V30 2858 H 437.948 6.70197 1.71129 0
M  V30 2859 H 438.815 7.03551 4.13168 0
M  V30 2860 H 441.47 4.59498 3.54415 0
M  V30 2861 H 441.749 6.88898 1.59848 0
M  V30 2862 H 442.741 6.46749 3.03687 0
M  V30 2863 H 440.907 8.46908 3.20714 0
M  V30 2864 H 440.858 5.86405 -0.105564 0
M  V30 2865 H 441.54 -0.483664 0.597855 0
M  V30 2866 H 441.577 0.187865 4.0116 0
M  V30 2867 H 441.678 -1.03585 2.71726 0
M  V30 2868 P 442.777 7.20834 5.23717 0
M  V30 2869 O 442.997 7.79853 6.57286 0
M  V30 2870 O 443.567 7.79239 4.12957 0
M  V30 2871 O 443.027 5.63315 5.29344 0
M  V30 2872 C 442.087 4.80255 6.01876 0
M  V30 2873 C 442.817 3.64202 6.65911 0
M  V30 2874 O 443.027 2.60694 5.64732 0
M  V30 2875 C 444.217 3.93473 7.1943 0
M  V30 2876 O 444.607 3.02071 8.21205 0
M  V30 2877 C 445.097 3.73047 5.97036 0
M  V30 2878 C 444.387 2.58828 5.25741 0
M  V30 2879 N 444.437 2.68068 3.77503 0
M  V30 2880 C 444.357 3.79715 2.96723 0
M  V30 2881 N 444.437 3.5377 1.68852 0
M  V30 2882 C 444.577 2.15054 1.63254 0
M  V30 2883 C 444.707 1.28964 0.518571 0
M  V30 2884 O 444.727 1.56826 -0.679156 0
M  V30 2885 N 444.827 -0.0538097 0.918425 0
M  V30 2886 C 444.827 -0.494275 2.22578 0
M  V30 2887 N 444.957 -1.81086 2.40434 0
M  V30 2888 N 444.697 0.313645 3.27502 0
M  V30 2889 C 444.577 1.61829 2.91033 0
M  V30 2890 H 441.598 5.40332 6.79951 0
M  V30 2891 H 441.328 4.41613 5.32378 0
M  V30 2892 H 442.195 3.26331 7.47797 0
M  V30 2893 H 444.85 1.63422 5.56814 0
M  V30 2894 H 445.129 4.63374 5.34244 0
M  V30 2895 H 446.121 3.44728 6.25838 0
M  V30 2896 H 444.287 4.96652 7.57263 0
M  V30 2897 H 444.238 4.80617 3.3614 0
M  V30 2898 H 444.92 -0.742702 0.199384 0
M  V30 2899 H 444.957 -2.20598 3.35588 0
M  V30 2900 H 445.058 -2.43518 1.58945 0
M  V30 2901 P 446.157 2.75334 8.47391 0
M  V30 2902 O 446.377 2.44571 9.90142 0
M  V30 2903 O 446.947 3.87688 7.92115 0
M  V30 2904 O 446.407 1.4459 7.59357 0
M  V30 2905 C 445.467 0.347608 7.69215 0
M  V30 2906 C 446.197 -0.96767 7.52806 0
M  V30 2907 O 446.407 -1.21036 6.1011 0
M  V30 2908 C 447.597 -1.04544 8.13308 0
M  V30 2909 O 447.987 -2.38311 8.41922 0
M  V30 2910 C 448.477 -0.491279 7.02284 0
M  V30 2911 C 447.767 -0.996264 5.77469 0
M  V30 2912 N 447.817 -0.0501916 4.62973 0
M  V30 2913 H 444.978 0.374722 8.67691 0
M  V30 2914 H 444.708 0.443485 6.90277 0
M  V30 2915 H 445.575 -1.75537 7.96793 0
M  V30 2916 P 449.537 -2.75334 8.47391 0
M  V30 2917 O 449.757 -3.84128 9.44797 0
M  V30 2918 O 450.327 -1.51947 8.68712 0
M  V30 2919 O 449.787 -3.29363 6.99321 0
M  V30 2920 C 448.847 -4.24011 6.4274 0
M  V30 2921 C 449.577 -5.20775 5.52155 0
M  V30 2922 O 449.787 -4.56534 4.22446 0
M  V30 2923 C 450.977 -5.62629 5.96531 0
M  V30 2924 O 451.367 -6.87667 5.41053 0
M  V30 2925 C 451.857 -4.52537 5.39283 0
M  V30 2926 C 451.147 -4.20027 4.08623 0
M  V30 2927 N 451.197 -2.76189 3.71603 0
M  V30 2928 H 448.358 -4.797 7.24003 0
M  V30 2929 H 448.088 -3.69856 5.84513 0
M  V30 2930 H 448.955 -6.10356 5.41441 0
M  V30 2931 P 452.917 -7.20834 5.23717 0
M  V30 2932 O 453.137 -8.66274 5.38678 0
M  V30 2933 O 453.707 -6.33687 6.13629 0
M  V30 2934 O 453.167 -6.7751 3.72168 0
M  V30 2935 C 452.227 -7.20919 2.70795 0
M  V30 2936 C 452.957 -7.45864 1.40599 0
M  V30 2937 O 453.167 -6.17751 0.734343 0
M  V30 2938 C 454.357 -8.05906 1.51917 0
M  V30 2939 O 454.747 -8.74358 0.335205 0
M  V30 2940 C 455.237 -6.83093 1.70294 0
M  V30 2941 C 454.527 -5.79992 0.836974 0
M  V30 2942 N 454.577 -4.41864 1.38293 0
M  V30 2943 H 451.739 -8.13738 3.03804 0
M  V30 2944 H 451.467 -6.42974 2.55559 0
M  V30 2945 H 452.335 -8.12139 0.792866 0
M  V30 2946 H 454.99 -5.80178 -0.160643 0
M  V30 2947 H 455.27 -6.51379 2.75643 0
M  V30 2948 H 456.261 -7.01832 1.3448 0
M  V30 2949 H 454.427 -8.73771 2.38364 0
M  V30 2950 P 456.297 -8.91 -2.59788e-12 0
M  V30 2951 O 456.517 -10.1746 -0.733838 0
M  V30 2952 O 457.087 -8.73346 1.23964 0
M  V30 2953 O 456.547 -7.66872 -0.971405 0
M  V30 2954 C 455.607 -7.42405 -2.04668 0
M  V30 2955 C 456.337 -6.86059 -3.24661 0
M  V30 2956 O 456.547 -5.42934 -3.03695 0
M  V30 2957 C 457.737 -7.41287 -3.50796 0
M  V30 2958 O 458.127 -7.27073 -4.86816 0
M  V30 2959 C 458.617 -6.5273 -2.63741 0
M  V30 2960 C 457.907 -5.1842 -2.73198 0
M  V30 2961 N 457.957 -4.38762 -1.4784 0
M  V30 2962 C 457.877 -4.83651 -0.183876 0
M  V30 2963 N 457.947 -3.88759 0.699393 0
M  V30 2964 C 458.097 -2.7404 -0.0575568 0
M  V30 2965 C 458.227 -1.37902 0.293928 0
M  V30 2966 N 458.237 -0.938021 1.54797 0
M  V30 2967 N 458.347 -0.491817 -0.70549 0
M  V30 2968 C 458.337 -0.931735 -1.95979 0
M  V30 2969 N 458.217 -2.16017 -2.41481 0
M  V30 2970 C 458.097 -3.02547 -1.39121 0
M  V30 2971 H 455.119 -8.36899 -2.3252 0
M  V30 2972 H 454.847 -6.70391 -1.71179 0
M  V30 2973 H 455.715 -7.03638 -4.13219 0
M  V30 2974 H 458.37 -4.59931 -3.54016 0
M  V30 2975 H 458.65 -6.88995 -1.59871 0
M  V30 2976 H 459.641 -6.4684 -3.0373 0
M  V30 2977 H 457.807 -8.47002 -3.20749 0
M  V30 2978 H 457.766 -5.8885 0.0765548 0
M  V30 2979 H 458.147 -1.60276 2.32875 0
M  V30 2980 H 458.336 0.0699355 1.73859 0
M  V30 2981 H 458.444 -0.165507 -2.71897 0
M  V30 2982 P 459.677 -7.20834 -5.23717 0
M  V30 2983 O 459.897 -7.79853 -6.57286 0
M  V30 2984 O 460.467 -7.79239 -4.12957 0
M  V30 2985 O 459.927 -5.63315 -5.29344 0
M  V30 2986 C 458.987 -4.80255 -6.01876 0
M  V30 2987 C 459.717 -3.64202 -6.65911 0
M  V30 2988 O 459.927 -2.60694 -5.64732 0
M  V30 2989 C 461.117 -3.93473 -7.1943 0
M  V30 2990 O 461.507 -3.02071 -8.21205 0
M  V30 2991 C 461.997 -3.73047 -5.97036 0
M  V30 2992 C 461.287 -2.58828 -5.25741 0
M  V30 2993 N 461.337 -2.68068 -3.77503 0
M  V30 2994 H 458.498 -5.40332 -6.79951 0
M  V30 2995 H 458.228 -4.41613 -5.32378 0
M  V30 2996 H 459.095 -3.26331 -7.47797 0
M  V30 2997 P 463.057 -2.75334 -8.47391 0
M  V30 2998 O 463.277 -2.44619 -9.90336 0
M  V30 2999 O 463.847 -3.87776 -7.92294 0
M  V30 3000 O 463.307 -1.4459 -7.59357 0
M  V30 3001 C 462.367 -0.347653 -7.69315 0
M  V30 3002 C 463.097 0.96767 -7.52806 0
M  V30 3003 O 463.307 1.21055 -6.10208 0
M  V30 3004 C 464.497 1.04557 -8.13408 0
M  V30 3005 O 464.887 2.38311 -8.41922 0
M  V30 3006 C 465.377 0.491279 -7.02284 0
M  V30 3007 C 464.667 0.996264 -5.77469 0
M  V30 3008 N 464.717 0.0501916 -4.62973 0
M  V30 3009 C 464.637 -1.31969 -4.65661 0
M  V30 3010 N 464.707 -1.86649 -3.48119 0
M  V30 3011 C 464.857 -0.792089 -2.62406 0
M  V30 3012 C 464.987 -0.705684 -1.2207 0
M  V30 3013 N 464.997 -1.76207 -0.413762 0
M  V30 3014 N 465.107 0.518981 -0.685754 0
M  V30 3015 C 465.097 1.57595 -1.49174 0
M  V30 3016 N 464.977 1.62909 -2.80066 0
M  V30 3017 C 464.857 0.388195 -3.3073 0
M  V30 3018 H 461.879 -0.374765 -8.67791 0
M  V30 3019 H 461.607 -0.443613 -6.90476 0
M  V30 3020 H 462.475 1.75559 -7.96891 0
M  V30 3021 H 465.13 1.94563 -5.46818 0
M  V30 3022 H 465.41 -0.608651 -7.04676 0
M  V30 3023 H 466.401 0.889796 -7.09039 0
M  V30 3024 H 464.567 0.433128 -9.04664 0
M  V30 3025 H 464.526 -1.89246 -5.57664 0
M  V30 3026 H 464.907 -2.71005 -0.804694 0
M  V30 3027 H 465.096 -1.63189 0.603768 0
M  V30 3028 H 465.204 2.53475 -0.997614 0
M  V30 3029 P 466.437 2.75334 -8.47391 0
M  V30 3030 O 466.657 3.84128 -9.44797 0
M  V30 3031 O 467.227 1.51947 -8.68712 0
M  V30 3032 O 466.687 3.29363 -6.99321 0
M  V30 3033 C 465.747 4.24011 -6.4274 0
M  V30 3034 C 466.477 5.20775 -5.52155 0
M  V30 3035 O 466.687 4.56534 -4.22446 0
M  V30 3036 C 467.877 5.62629 -5.96531 0
M  V30 3037 O 468.267 6.87667 -5.41053 0
M  V30 3038 C 468.757 4.52537 -5.39283 0
M  V30 3039 C 468.047 4.20027 -4.08623 0
M  V30 3040 N 468.097 2.76189 -3.71603 0
M  V30 3041 C 468.017 1.64862 -4.52822 0
M  V30 3042 N 468.097 0.512671 -3.88633 0
M  V30 3043 C 468.237 0.888083 -2.54977 0
M  V30 3044 C 468.367 0.094668 -1.38677 0
M  V30 3045 O 468.387 -1.13053 -1.28163 0
M  V30 3046 N 468.487 0.890102 -0.232633 0
M  V30 3047 C 468.487 2.26958 -0.21772 0
M  V30 3048 N 468.617 2.84626 0.97925 0
M  V30 3049 N 468.357 3.0178 -1.31033 0
M  V30 3050 C 468.237 2.26781 -2.43843 0
M  V30 3051 H 465.258 4.797 -7.24003 0
M  V30 3052 H 464.988 3.69856 -5.84513 0
M  V30 3053 H 465.855 6.10356 -5.41441 0
M  V30 3054 H 468.51 4.79061 -3.27488 0
M  V30 3055 H 468.789 3.64906 -6.05785 0
M  V30 3056 H 469.781 4.8868 -5.2125 0
M  V30 3057 H 467.947 5.66726 -7.06352 0
M  V30 3058 H 467.898 1.71169 -5.60966 0
M  V30 3059 H 468.58 0.419134 0.644739 0
M  V30 3060 H 468.617 3.87332 1.06098 0
M  V30 3061 H 468.718 2.26417 1.82483 0
M  V30 3062 P 469.817 7.20834 -5.23717 0
M  V30 3063 O 470.037 8.66104 -5.38572 0
M  V30 3064 O 470.607 6.33544 -6.1349 0
M  V30 3065 O 470.067 6.7751 -3.72168 0
M  V30 3066 C 469.127 7.20825 -2.7076 0
M  V30 3067 C 469.857 7.45864 -1.40599 0
M  V30 3068 O 470.067 6.17651 -0.734225 0
M  V30 3069 C 471.257 8.05808 -1.51899 0
M  V30 3070 O 471.647 8.74358 -0.335205 0
M  V30 3071 C 472.137 6.83093 -1.70294 0
M  V30 3072 C 471.427 5.79992 -0.836974 0
M  V30 3073 N 471.477 4.41864 -1.38293 0
M  V30 3074 H 468.638 8.13644 -3.0377 0
M  V30 3075 H 468.368 6.42788 -2.55485 0
M  V30 3076 H 469.235 8.12039 -0.792769 0
M  V30 3077 P 473.197 8.91 2.75506e-12 0
M  V30 3078 O 473.417 10.1726 0.733694 0
M  V30 3079 O 473.987 8.73148 -1.23936 0
M  V30 3080 O 473.447 7.66872 0.971405 0
M  V30 3081 C 472.507 7.42309 2.04641 0
M  V30 3082 C 473.237 6.86059 3.24661 0
M  V30 3083 O 473.447 5.42847 3.03646 0
M  V30 3084 C 474.637 7.41196 3.50753 0
M  V30 3085 O 475.027 7.27073 4.86816 0
M  V30 3086 C 475.517 6.5273 2.63741 0
M  V30 3087 C 474.807 5.1842 2.73198 0
M  V30 3088 N 474.857 4.38762 1.4784 0
M  V30 3089 H 472.018 8.36803 2.32493 0
M  V30 3090 H 471.748 6.70197 1.71129 0
M  V30 3091 H 472.615 7.03551 4.13168 0
M  V30 3092 P 476.577 7.20834 5.23717 0
M  V30 3093 O 476.797 7.79853 6.57286 0
M  V30 3094 O 477.367 7.79239 4.12957 0
M  V30 3095 O 476.827 5.63315 5.29344 0
M  V30 3096 C 475.887 4.80255 6.01876 0
M  V30 3097 C 476.617 3.64202 6.65911 0
M  V30 3098 O 476.827 2.60694 5.64732 0
M  V30 3099 C 478.017 3.93473 7.1943 0
M  V30 3100 O 478.407 3.02071 8.21205 0
M  V30 3101 C 478.897 3.73047 5.97036 0
M  V30 3102 C 478.187 2.58828 5.25741 0
M  V30 3103 N 478.237 2.68068 3.77503 0
M  V30 3104 H 475.398 5.40332 6.79951 0
M  V30 3105 H 475.128 4.41613 5.32378 0
M  V30 3106 H 475.995 3.26331 7.47797 0
M  V30 3107 P 479.957 2.75334 8.47391 0
M  V30 3108 O 480.177 2.44595 9.90239 0
M  V30 3109 O 480.747 3.87732 7.92204 0
M  V30 3110 O 480.207 1.4459 7.59357 0
M  V30 3111 C 479.267 0.347563 7.69115 0
M  V30 3112 C 479.997 -0.96767 7.52806 0
M  V30 3113 O 480.207 -1.21036 6.1011 0
M  V30 3114 C 481.397 -1.04544 8.13308 0
M  V30 3115 O 481.787 -2.38311 8.41922 0
M  V30 3116 C 482.277 -0.491279 7.02284 0
M  V30 3117 C 481.567 -0.996264 5.77469 0
M  V30 3118 N 481.617 -0.0501808 4.62873 0
M  V30 3119 C 481.767 -0.588177 3.36904 0
M  V30 3120 O 481.857 -1.78598 3.17173 0
M  V30 3121 N 481.807 0.329694 2.33686 0
M  V30 3122 C 481.717 1.6953 2.45079 0
M  V30 3123 O 481.767 2.41926 1.44899 0
M  V30 3124 C 481.567 2.16933 3.80505 0
M  V30 3125 C 481.457 3.65373 3.97621 0
M  V30 3126 C 481.517 1.30326 4.83752 0
M  V30 3127 H 478.777 0.374722 8.67691 0
M  V30 3128 H 478.508 0.443421 6.90177 0
M  V30 3129 H 479.375 -1.75537 7.96793 0
M  V30 3130 H 482.03 -1.94496 5.46629 0
M  V30 3131 H 482.309 0.608651 7.04676 0
M  V30 3132 H 483.301 -0.889672 7.08939 0
M  V30 3133 H 481.467 -0.43308 9.04564 0
M  V30 3134 H 481.396 1.68366 5.8516 0
M  V30 3135 H 482.426 4.05985 4.30448 0
M  V30 3136 H 480.689 3.88028 4.72875 0
M  V30 3137 H 481.177 4.11381 3.01609 0
M  V30 3138 H 481.913 -0.0393617 1.41345 0
M  V30 3139 P 483.337 -2.75334 8.47391 0
M  V30 3140 O 483.557 -3.84128 9.44797 0
M  V30 3141 O 484.127 -1.51947 8.68712 0
M  V30 3142 O 483.587 -3.29363 6.99321 0
M  V30 3143 C 482.647 -4.24011 6.4274 0
M  V30 3144 C 483.377 -5.20775 5.52155 0
M  V30 3145 O 483.587 -4.56534 4.22446 0
M  V30 3146 C 484.777 -5.62629 5.96531 0
M  V30 3147 O 485.167 -6.87667 5.41053 0
M  V30 3148 C 485.657 -4.52537 5.39283 0
M  V30 3149 C 484.947 -4.20027 4.08623 0
M  V30 3150 N 484.997 -2.76189 3.71603 0
M  V30 3151 H 482.158 -4.797 7.24003 0
M  V30 3152 H 481.888 -3.69856 5.84513 0
M  V30 3153 H 482.755 -6.10356 5.41441 0
M  V30 3154 P 486.717 -7.20834 5.23717 0
M  V30 3155 O 486.937 -8.66189 5.38625 0
M  V30 3156 O 487.507 -6.33615 6.1356 0
M  V30 3157 O 486.967 -6.7751 3.72168 0
M  V30 3158 C 486.027 -7.20732 2.70725 0
M  V30 3159 C 486.757 -7.45864 1.40599 0
M  V30 3160 O 486.967 -6.17651 0.734225 0
M  V30 3161 C 488.157 -8.05808 1.51899 0
M  V30 3162 O 488.547 -8.74358 0.335205 0
M  V30 3163 C 489.037 -6.83093 1.70294 0
M  V30 3164 C 488.327 -5.79992 0.836974 0
M  V30 3165 N 488.377 -4.41769 1.38263 0
M  V30 3166 C 488.527 -3.38591 0.481702 0
M  V30 3167 O 488.617 -3.56839 -0.718452 0
M  V30 3168 N 488.567 -2.1206 1.03569 0
M  V30 3169 C 488.477 -1.80696 2.36966 0
M  V30 3170 O 488.527 -0.630473 2.74862 0
M  V30 3171 C 488.327 -2.94845 3.23898 0
M  V30 3172 C 488.217 -2.65253 4.70362 0
M  V30 3173 C 488.277 -4.19803 2.73435 0
M  V30 3174 H 485.537 -8.13644 3.0377 0
M  V30 3175 H 485.268 -6.42695 2.55448 0
M  V30 3176 H 486.135 -8.12039 0.792769 0
M  V30 3177 H 488.79 -5.79978 -0.160587 0
M  V30 3178 H 489.069 -6.51379 2.75643 0
M  V30 3179 H 490.061 -7.01734 1.34462 0
M  V30 3180 H 488.227 -8.73674 2.38337 0
M  V30 3181 H 488.156 -5.04492 3.4095 0
M  V30 3182 H 489.186 -2.83924 5.1913 0
M  V30 3183 H 487.449 -3.29824 5.15163 0
M  V30 3184 H 487.937 -1.59723 4.84449 0
M  V30 3185 H 488.673 -1.35644 0.399345 0
M  V30 3186 P 490.097 -8.91 -2.91224e-12 0
M  V30 3187 O 490.317 -10.1726 -0.733694 0
M  V30 3188 O 490.887 -8.73148 1.23936 0
M  V30 3189 O 490.347 -7.66872 -0.971405 0
M  V30 3190 C 489.407 -7.42309 -2.04641 0
M  V30 3191 C 490.137 -6.86059 -3.24661 0
M  V30 3192 O 490.347 -5.42847 -3.03646 0
M  V30 3193 C 491.537 -7.41196 -3.50753 0
M  V30 3194 O 491.927 -7.27073 -4.86816 0
M  V30 3195 C 492.417 -6.5273 -2.63741 0
M  V30 3196 C 491.707 -5.1842 -2.73198 0
M  V30 3197 N 491.757 -4.38762 -1.4784 0
M  V30 3198 H 488.918 -8.36803 -2.32493 0
M  V30 3199 H 488.648 -6.70197 -1.71129 0
M  V30 3200 H 489.515 -7.03551 -4.13168 0
M  V30 3201 P 493.477 -7.20834 -5.23717 0
M  V30 3202 O 493.697 -7.79853 -6.57286 0
M  V30 3203 O 494.267 -7.79239 -4.12957 0
M  V30 3204 O 493.727 -5.63315 -5.29344 0
M  V30 3205 C 492.787 -4.80255 -6.01876 0
M  V30 3206 C 493.517 -3.64202 -6.65911 0
M  V30 3207 O 493.727 -2.60694 -5.64732 0
M  V30 3208 C 494.917 -3.93473 -7.1943 0
M  V30 3209 O 495.307 -3.02071 -8.21205 0
M  V30 3210 C 495.797 -3.73047 -5.97036 0
M  V30 3211 C 495.087 -2.58828 -5.25741 0
M  V30 3212 N 495.137 -2.68068 -3.77503 0
M  V30 3213 H 492.298 -5.40332 -6.79951 0
M  V30 3214 H 492.028 -4.41613 -5.32378 0
M  V30 3215 H 492.895 -3.26331 -7.47797 0
M  V30 3216 P 496.857 -2.75334 -8.47391 0
M  V30 3217 O 497.077 -2.44619 -9.90336 0
M  V30 3218 O 497.647 -3.87776 -7.92294 0
M  V30 3219 O 497.107 -1.4459 -7.59357 0
M  V30 3220 C 496.167 -0.347653 -7.69315 0
M  V30 3221 C 496.897 0.96767 -7.52806 0
M  V30 3222 O 497.107 1.21055 -6.10208 0
M  V30 3223 C 498.297 1.04557 -8.13408 0
M  V30 3224 O 498.687 2.38311 -8.41922 0
M  V30 3225 C 499.177 0.491279 -7.02284 0
M  V30 3226 C 498.467 0.996264 -5.77469 0
M  V30 3227 N 498.517 0.0501916 -4.62973 0
M  V30 3228 H 495.679 -0.374765 -8.67791 0
M  V30 3229 H 495.407 -0.443613 -6.90476 0
M  V30 3230 H 496.275 1.75559 -7.96891 0
M  V30 3231 H 498.93 1.94563 -5.46818 0
M  V30 3232 H 499.21 -0.608651 -7.04676 0
M  V30 3233 H 500.201 0.889796 -7.09039 0
M  V30 3234 H 498.367 0.433128 -9.04664 0
M  V30 3235 P 500.237 2.75334 -8.47391 0
M  V30 3236 O 500.457 3.84128 -9.44797 0
M  V30 3237 O 501.027 1.51947 -8.68712 0
M  V30 3238 O 500.487 3.29363 -6.99321 0
M  V30 3239 C 499.547 4.24011 -6.4274 0
M  V30 3240 C 500.277 5.20775 -5.52155 0
M  V30 3241 O 500.487 4.56534 -4.22446 0
M  V30 3242 C 501.677 5.62629 -5.96531 0
M  V30 3243 O 502.067 6.87667 -5.41053 0
M  V30 3244 C 502.557 4.52537 -5.39283 0
M  V30 3245 C 501.847 4.20027 -4.08623 0
M  V30 3246 N 501.897 2.76189 -3.71603 0
M  V30 3247 H 499.058 4.797 -7.24003 0
M  V30 3248 H 498.788 3.69856 -5.84513 0
M  V30 3249 H 499.655 6.10356 -5.41441 0
M  V30 3250 P 503.617 7.20834 -5.23717 0
M  V30 3251 O 503.837 8.66189 -5.38625 0
M  V30 3252 O 504.407 6.33615 -6.1356 0
M  V30 3253 O 503.867 6.7751 -3.72168 0
M  V30 3254 C 502.927 7.20732 -2.70725 0
M  V30 3255 C 503.657 7.45864 -1.40599 0
M  V30 3256 O 503.867 6.17651 -0.734225 0
M  V30 3257 C 505.057 8.05808 -1.51899 0
M  V30 3258 O 505.447 8.74358 -0.335205 0
M  V30 3259 C 505.937 6.83093 -1.70294 0
M  V30 3260 C 505.227 5.79992 -0.836974 0
M  V30 3261 N 505.277 4.41769 -1.38263 0
M  V30 3262 C 505.427 3.38591 -0.481702 0
M  V30 3263 O 505.517 3.56839 0.718452 0
M  V30 3264 N 505.467 2.1206 -1.03569 0
M  V30 3265 C 505.377 1.80696 -2.36966 0
M  V30 3266 C 505.227 2.94845 -3.23898 0
M  V30 3267 C 505.177 4.19803 -2.73435 0
M  V30 3268 H 502.437 8.13644 -3.0377 0
M  V30 3269 H 502.168 6.42695 -2.55448 0
M  V30 3270 H 503.035 8.12039 -0.792769 0
M  V30 3271 H 505.69 5.79978 0.160587 0
M  V30 3272 H 505.969 6.51379 -2.75643 0
M  V30 3273 H 506.961 7.01734 -1.34462 0
M  V30 3274 H 505.127 8.73674 -2.38337 0
M  V30 3275 H 505.056 5.04492 -3.4095 0
M  V30 3276 P 506.997 8.91 3.06942e-12 0
M  V30 3277 O 507.217 10.1726 0.733694 0
M  V30 3278 O 507.787 8.73148 -1.23936 0
M  V30 3279 O 507.247 7.66872 0.971405 0
M  V30 3280 C 506.307 7.42309 2.04641 0
M  V30 3281 C 507.037 6.86059 3.24661 0
M  V30 3282 O 507.247 5.42847 3.03646 0
M  V30 3283 C 508.437 7.41196 3.50753 0
M  V30 3284 O 508.827 7.27073 4.86816 0
M  V30 3285 C 509.317 6.5273 2.63741 0
M  V30 3286 C 508.607 5.1842 2.73198 0
M  V30 3287 N 508.657 4.38762 1.4784 0
M  V30 3288 H 505.818 8.36803 2.32493 0
M  V30 3289 H 505.548 6.70197 1.71129 0
M  V30 3290 H 506.415 7.03551 4.13168 0
M  V30 3291 P 510.377 7.20834 5.23717 0
M  V30 3292 O 510.597 7.79853 6.57286 0
M  V30 3293 O 511.167 7.79239 4.12957 0
M  V30 3294 O 510.627 5.63315 5.29344 0
M  V30 3295 C 509.687 4.80255 6.01876 0
M  V30 3296 C 510.417 3.64202 6.65911 0
M  V30 3297 O 510.627 2.60694 5.64732 0
M  V30 3298 C 511.817 3.93473 7.1943 0
M  V30 3299 O 512.207 3.02071 8.21205 0
M  V30 3300 C 512.697 3.73047 5.97036 0
M  V30 3301 C 511.987 2.58828 5.25741 0
M  V30 3302 N 512.037 2.68068 3.77503 0
M  V30 3303 H 509.198 5.40332 6.79951 0
M  V30 3304 H 508.928 4.41613 5.32378 0
M  V30 3305 H 509.795 3.26331 7.47797 0
M  V30 3306 P 513.757 2.75334 8.47391 0
M  V30 3307 O 513.977 2.44571 9.90142 0
M  V30 3308 O 514.547 3.87688 7.92115 0
M  V30 3309 O 514.007 1.4459 7.59357 0
M  V30 3310 C 513.067 0.347608 7.69215 0
M  V30 3311 C 513.797 -0.96767 7.52806 0
M  V30 3312 O 514.007 -1.21036 6.1011 0
M  V30 3313 C 515.197 -1.04544 8.13308 0
M  V30 3314 O 515.587 -2.38311 8.41922 0
M  V30 3315 C 516.077 -0.491279 7.02284 0
M  V30 3316 C 515.367 -0.996264 5.77469 0
M  V30 3317 N 515.417 -0.0501916 4.62973 0
M  V30 3318 H 512.578 0.374722 8.67691 0
M  V30 3319 H 512.308 0.443485 6.90277 0
M  V30 3320 H 513.175 -1.75537 7.96793 0
M  V30 3321 P 517.137 -2.75334 8.47391 0
M  V30 3322 O 517.357 -3.84128 9.44797 0
M  V30 3323 O 517.927 -1.51947 8.68712 0
M  V30 3324 O 517.387 -3.29363 6.99321 0
M  V30 3325 C 516.447 -4.24011 6.4274 0
M  V30 3326 C 517.177 -5.20775 5.52155 0
M  V30 3327 O 517.387 -4.56534 4.22446 0
M  V30 3328 C 518.577 -5.62629 5.96531 0
M  V30 3329 O 518.967 -6.87667 5.41053 0
M  V30 3330 C 519.457 -4.52537 5.39283 0
M  V30 3331 C 518.747 -4.20027 4.08623 0
M  V30 3332 N 518.797 -2.76189 3.71603 0
M  V30 3333 H 515.958 -4.797 7.24003 0
M  V30 3334 H 515.688 -3.69856 5.84513 0
M  V30 3335 H 516.555 -6.10356 5.41441 0
M  V30 3336 P 520.517 -7.20834 5.23717 0
M  V30 3337 O 520.737 -8.66104 5.38572 0
M  V30 3338 O 521.307 -6.33544 6.1349 0
M  V30 3339 O 520.767 -6.7751 3.72168 0
M  V30 3340 C 519.827 -7.20825 2.7076 0
M  V30 3341 C 520.557 -7.45864 1.40599 0
M  V30 3342 O 520.767 -6.17651 0.734225 0
M  V30 3343 C 521.957 -8.05808 1.51899 0
M  V30 3344 O 522.347 -8.74358 0.335205 0
M  V30 3345 C 522.837 -6.83093 1.70294 0
M  V30 3346 C 522.127 -5.79992 0.836974 0
M  V30 3347 N 522.177 -4.41864 1.38293 0
M  V30 3348 H 519.338 -8.13644 3.0377 0
M  V30 3349 H 519.068 -6.42788 2.55485 0
M  V30 3350 H 519.935 -8.12039 0.792769 0
M  V30 3351 P 523.897 -8.91 -3.22661e-12 0
M  V30 3352 O 524.117 -10.1726 -0.733694 0
M  V30 3353 O 524.687 -8.73148 1.23936 0
M  V30 3354 O 524.147 -7.66872 -0.971405 0
M  V30 3355 C 523.207 -7.42309 -2.04641 0
M  V30 3356 C 523.937 -6.86059 -3.24661 0
M  V30 3357 O 524.147 -5.42847 -3.03646 0
M  V30 3358 C 525.337 -7.41196 -3.50753 0
M  V30 3359 O 525.727 -7.27073 -4.86816 0
M  V30 3360 C 526.217 -6.5273 -2.63741 0
M  V30 3361 C 525.507 -5.1842 -2.73198 0
M  V30 3362 N 525.557 -4.38762 -1.4784 0
M  V30 3363 H 522.718 -8.36803 -2.32493 0
M  V30 3364 H 522.448 -6.70197 -1.71129 0
M  V30 3365 H 523.315 -7.03551 -4.13168 0
M  V30 3366 P 527.277 -7.20834 -5.23717 0
M  V30 3367 O 527.497 -7.79853 -6.57286 0
M  V30 3368 O 528.067 -7.79239 -4.12957 0
M  V30 3369 O 527.527 -5.63315 -5.29344 0
M  V30 3370 C 526.587 -4.80255 -6.01876 0
M  V30 3371 C 527.317 -3.64202 -6.65911 0
M  V30 3372 O 527.527 -2.60694 -5.64732 0
M  V30 3373 C 528.717 -3.93473 -7.1943 0
M  V30 3374 O 529.107 -3.02071 -8.21205 0
M  V30 3375 C 529.597 -3.73047 -5.97036 0
M  V30 3376 C 528.887 -2.58828 -5.25741 0
M  V30 3377 N 528.937 -2.68068 -3.77503 0
M  V30 3378 H 526.098 -5.40332 -6.79951 0
M  V30 3379 H 525.828 -4.41613 -5.32378 0
M  V30 3380 H 526.695 -3.26331 -7.47797 0
M  V30 3381 P 530.657 -2.75334 -8.47391 0
M  V30 3382 O 530.877 -2.44619 -9.90336 0
M  V30 3383 O 531.447 -3.87776 -7.92294 0
M  V30 3384 O 530.907 -1.4459 -7.59357 0
M  V30 3385 C 529.967 -0.347653 -7.69315 0
M  V30 3386 C 530.697 0.96767 -7.52806 0
M  V30 3387 O 530.907 1.21055 -6.10208 0
M  V30 3388 C 532.097 1.04557 -8.13408 0
M  V30 3389 O 532.487 2.38311 -8.41922 0
M  V30 3390 C 532.977 0.491279 -7.02284 0
M  V30 3391 C 532.267 0.996264 -5.77469 0
M  V30 3392 N 532.317 0.0501916 -4.62973 0
M  V30 3393 H 529.479 -0.374765 -8.67791 0
M  V30 3394 H 529.207 -0.443613 -6.90476 0
M  V30 3395 H 530.075 1.75559 -7.96891 0
M  V30 3396 H 532.73 1.94563 -5.46818 0
M  V30 3397 H 533.01 -0.608651 -7.04676 0
M  V30 3398 H 534.001 0.889796 -7.09039 0
M  V30 3399 H 532.167 0.433128 -9.04664 0
M  V30 3400 P 534.037 2.75334 -8.47391 0
M  V30 3401 O 534.257 3.84204 -9.44982 0
M  V30 3402 O 534.827 1.51982 -8.68909 0
M  V30 3403 O 534.287 3.29363 -6.99321 0
M  V30 3404 C 533.347 4.24066 -6.42823 0
M  V30 3405 C 534.077 5.20775 -5.52155 0
M  V30 3406 O 534.287 4.56607 -4.22514 0
M  V30 3407 C 535.477 5.62697 -5.96604 0
M  V30 3408 O 535.867 6.87667 -5.41053 0
M  V30 3409 C 536.357 4.52537 -5.39283 0
M  V30 3410 C 535.647 4.20027 -4.08623 0
M  V30 3411 N 535.697 2.76189 -3.71603 0
M  V30 3412 C 535.617 1.66944 -4.54297 0
M  V30 3413 N 535.687 0.536169 -3.91344 0
M  V30 3414 C 535.837 0.901569 -2.58849 0
M  V30 3415 C 535.967 0.146599 -1.40236 0
M  V30 3416 N 535.977 -1.18234 -1.37046 0
M  V30 3417 N 536.087 0.822941 -0.249738 0
M  V30 3418 C 536.077 2.15179 -0.280525 0
M  V30 3419 N 535.957 2.96414 -1.30822 0
M  V30 3420 C 535.837 2.25804 -2.44748 0
M  V30 3421 H 532.859 4.79756 -7.24086 0
M  V30 3422 H 532.587 3.69963 -5.84682 0
M  V30 3423 H 533.455 6.10431 -5.41508 0
M  V30 3424 H 536.11 4.78816 -3.28024 0
M  V30 3425 H 536.39 3.64957 -6.05871 0
M  V30 3426 H 537.381 4.88748 -5.21323 0
M  V30 3427 H 535.547 5.66789 -7.0643 0
M  V30 3428 H 535.506 1.74684 -5.62396 0
M  V30 3429 H 535.887 -1.71949 -2.24394 0
M  V30 3430 H 536.076 -1.67511 -0.470742 0
M  V30 3431 H 536.184 2.63704 0.6828 0
M  V30 3432 P 537.417 7.20834 -5.23717 0
M  V30 3433 O 537.637 8.66189 -5.38625 0
M  V30 3434 O 538.207 6.33615 -6.1356 0
M  V30 3435 O 537.667 6.7751 -3.72168 0
M  V30 3436 C 536.727 7.20732 -2.70725 0
M  V30 3437 C 537.457 7.45864 -1.40599 0
M  V30 3438 O 537.667 6.17651 -0.734225 0
M  V30 3439 C 538.857 8.05808 -1.51899 0
M  V30 3440 O 539.247 8.74358 -0.335205 0
M  V30 3441 C 539.737 6.83093 -1.70294 0
M  V30 3442 C 539.027 5.79992 -0.836974 0
M  V30 3443 N 539.077 4.41769 -1.38263 0
M  V30 3444 C 539.227 3.38591 -0.481702 0
M  V30 3445 O 539.317 3.56839 0.718452 0
M  V30 3446 N 539.267 2.1206 -1.03569 0
M  V30 3447 C 539.177 1.80696 -2.36966 0
M  V30 3448 C 539.027 2.94845 -3.23898 0
M  V30 3449 C 538.977 4.19803 -2.73435 0
M  V30 3450 H 536.237 8.13644 -3.0377 0
M  V30 3451 H 535.968 6.42695 -2.55448 0
M  V30 3452 H 536.835 8.12039 -0.792769 0
M  V30 3453 H 539.49 5.79978 0.160587 0
M  V30 3454 H 539.769 6.51379 -2.75643 0
M  V30 3455 H 540.761 7.01734 -1.34462 0
M  V30 3456 H 538.927 8.73674 -2.38337 0
M  V30 3457 H 538.856 5.04492 -3.4095 0
M  V30 3458 P 540.797 8.91 3.38379e-12 0
M  V30 3459 O 541.017 10.1726 0.733694 0
M  V30 3460 O 541.587 8.73148 -1.23936 0
M  V30 3461 O 541.047 7.66872 0.971405 0
M  V30 3462 C 540.107 7.42309 2.04641 0
M  V30 3463 C 540.837 6.86059 3.24661 0
M  V30 3464 O 541.047 5.42847 3.03646 0
M  V30 3465 C 542.237 7.41196 3.50753 0
M  V30 3466 O 542.627 7.27073 4.86816 0
M  V30 3467 C 543.117 6.5273 2.63741 0
M  V30 3468 C 542.407 5.1842 2.73198 0
M  V30 3469 N 542.457 4.38762 1.4784 0
M  V30 3470 C 542.377 4.81605 0.168631 0
M  V30 3471 N 542.457 3.85454 -0.713363 0
M  V30 3472 C 542.597 2.6994 0.0566958 0
M  V30 3473 C 542.727 1.34815 -0.338502 0
M  V30 3474 O 542.747 0.869548 -1.47125 0
M  V30 3475 N 542.847 0.496304 0.77465 0
M  V30 3476 C 542.847 0.908403 2.09122 0
M  V30 3477 N 542.977 -0.0517805 3.00955 0
M  V30 3478 N 542.717 2.17875 2.46519 0
M  V30 3479 C 542.597 3.01988 1.4033 0
M  V30 3480 H 539.618 8.36803 2.32493 0
M  V30 3481 H 539.348 6.70197 1.71129 0
M  V30 3482 H 540.215 7.03551 4.13168 0
M  V30 3483 H 542.87 4.59498 3.54415 0
M  V30 3484 H 543.149 6.88898 1.59848 0
M  V30 3485 H 544.141 6.46749 3.03687 0
M  V30 3486 H 542.307 8.46908 3.20714 0
M  V30 3487 H 542.258 5.86405 -0.105564 0
M  V30 3488 H 542.94 -0.483664 0.597855 0
M  V30 3489 H 542.977 0.187865 4.0116 0
M  V30 3490 H 543.078 -1.03585 2.71726 0
M  V30 3491 P 544.177 7.20834 5.23717 0
M  V30 3492 O 544.397 7.80006 6.57415 0
M  V30 3493 O 544.967 7.79416 4.13051 0
M  V30 3494 O 544.427 5.63315 5.29344 0
M  V30 3495 C 543.487 4.80318 6.01954 0
M  V30 3496 C 544.217 3.64202 6.65911 0
M  V30 3497 O 544.427 2.60736 5.64823 0
M  V30 3498 C 545.617 3.93521 7.19518 0
M  V30 3499 O 546.007 3.02071 8.21205 0
M  V30 3500 C 546.497 3.73047 5.97036 0
M  V30 3501 C 545.787 2.58828 5.25741 0
M  V30 3502 N 545.837 2.68068 3.77503 0
M  V30 3503 H 542.999 5.40394 6.8003 0
M  V30 3504 H 542.727 4.41741 5.32532 0
M  V30 3505 H 543.595 3.26371 7.47889 0
M  V30 3506 H 546.25 1.64007 5.56746 0
M  V30 3507 H 546.53 4.63439 5.3432 0
M  V30 3508 H 547.521 3.44776 6.25925 0
M  V30 3509 H 545.687 4.96707 7.57347 0
M  V30 3510 P 547.557 2.75334 8.47391 0
M  V30 3511 O 547.777 2.44571 9.90142 0
M  V30 3512 O 548.347 3.87688 7.92115 0
M  V30 3513 O 547.807 1.4459 7.59357 0
M  V30 3514 C 546.867 0.347608 7.69215 0
M  V30 3515 C 547.597 -0.96767 7.52806 0
M  V30 3516 O 547.807 -1.21036 6.1011 0
M  V30 3517 C 548.997 -1.04544 8.13308 0
M  V30 3518 O 549.387 -2.38311 8.41922 0
M  V30 3519 C 549.877 -0.491279 7.02284 0
M  V30 3520 C 549.167 -0.996264 5.77469 0
M  V30 3521 N 549.217 -0.0501916 4.62973 0
M  V30 3522 C 549.137 1.32786 4.63244 0
M  V30 3523 N 549.217 1.86957 3.44545 0
M  V30 3524 C 549.357 0.780241 2.58481 0
M  V30 3525 C 549.487 0.738536 1.17757 0
M  V30 3526 N 549.607 -0.58337 0.711393 0
M  V30 3527 C 549.607 -1.70816 1.51017 0
M  V30 3528 N 549.737 -2.87826 0.880757 0
M  V30 3529 N 549.477 -1.67126 2.8339 0
M  V30 3530 C 549.357 -0.401421 3.30572 0
M  V30 3531 H 546.378 0.374722 8.67691 0
M  V30 3532 H 546.108 0.443485 6.90277 0
M  V30 3533 H 546.975 -1.75537 7.96793 0
M  V30 3534 P 550.937 -2.75334 8.47391 0
M  V30 3535 O 551.157 -3.84204 9.44982 0
M  V30 3536 O 551.727 -1.51982 8.68909 0
M  V30 3537 O 551.187 -3.29363 6.99321 0
M  V30 3538 C 550.247 -4.24066 6.42823 0
M  V30 3539 C 550.977 -5.20775 5.52155 0
M  V30 3540 O 551.187 -4.56607 4.22514 0
M  V30 3541 C 552.377 -5.62697 5.96604 0
M  V30 3542 O 552.767 -6.87667 5.41053 0
M  V30 3543 C 553.257 -4.52537 5.39283 0
M  V30 3544 C 552.547 -4.20027 4.08623 0
M  V30 3545 N 552.597 -2.76189 3.71603 0
M  V30 3546 C 552.517 -1.66944 4.54297 0
M  V30 3547 N 552.587 -0.536169 3.91344 0
M  V30 3548 C 552.737 -0.901569 2.58849 0
M  V30 3549 C 552.867 -0.146599 1.40236 0
M  V30 3550 N 552.877 1.18234 1.37046 0
M  V30 3551 N 552.987 -0.822941 0.249738 0
M  V30 3552 C 552.977 -2.15179 0.280525 0
M  V30 3553 N 552.857 -2.96414 1.30822 0
M  V30 3554 C 552.737 -2.25804 2.44748 0
M  V30 3555 H 549.759 -4.79756 7.24086 0
M  V30 3556 H 549.487 -3.69963 5.84682 0
M  V30 3557 H 550.355 -6.10431 5.41508 0
M  V30 3558 H 553.01 -4.78816 3.28024 0
M  V30 3559 H 553.29 -3.64957 6.05871 0
M  V30 3560 H 554.281 -4.88748 5.21323 0
M  V30 3561 H 552.447 -5.66789 7.0643 0
M  V30 3562 H 552.406 -1.74684 5.62396 0
M  V30 3563 H 552.787 1.71949 2.24394 0
M  V30 3564 H 552.976 1.67511 0.470742 0
M  V30 3565 H 553.084 -2.63704 -0.6828 0
M  V30 3566 P 554.317 -7.20834 5.23717 0
M  V30 3567 O 554.537 -8.66274 5.38678 0
M  V30 3568 O 555.107 -6.33687 6.13629 0
M  V30 3569 O 554.567 -6.7751 3.72168 0
M  V30 3570 C 553.627 -7.20919 2.70795 0
M  V30 3571 C 554.357 -7.45864 1.40599 0
M  V30 3572 O 554.567 -6.17751 0.734343 0
M  V30 3573 C 555.757 -8.05906 1.51917 0
M  V30 3574 O 556.147 -8.74358 0.335205 0
M  V30 3575 C 556.637 -6.83093 1.70294 0
M  V30 3576 C 555.927 -5.79992 0.836974 0
M  V30 3577 N 555.977 -4.41864 1.38293 0
M  V30 3578 C 555.897 -4.02089 2.69407 0
M  V30 3579 N 555.967 -2.73403 2.85089 0
M  V30 3580 C 556.117 -2.25086 1.5642 0
M  V30 3581 C 556.247 -0.942887 1.04836 0
M  V30 3582 N 556.257 0.150999 1.80369 0
M  V30 3583 N 556.367 -0.812565 -0.28167 0
M  V30 3584 C 556.357 -1.90572 -1.03784 0
M  V30 3585 N 556.237 -3.167 -0.683905 0
M  V30 3586 C 556.117 -3.26538 0.652815 0
M  V30 3587 H 553.139 -8.13738 3.03804 0
M  V30 3588 H 552.867 -6.42974 2.55559 0
M  V30 3589 H 553.735 -8.12139 0.792866 0
M  V30 3590 H 556.39 -5.80178 -0.160643 0
M  V30 3591 H 556.67 -6.51379 2.75643 0
M  V30 3592 H 557.661 -7.01832 1.3448 0
M  V30 3593 H 555.827 -8.73771 2.38364 0
M  V30 3594 H 555.786 -4.7189 3.52311 0
M  V30 3595 H 556.167 0.0721434 2.82608 0
M  V30 3596 H 556.356 1.0785 1.36544 0
M  V30 3597 H 556.464 -1.73207 -2.10241 0
M  V30 3598 P 557.697 -8.91 -3.54097e-12 0
M  V30 3599 O 557.917 -10.1726 -0.733694 0
M  V30 3600 O 558.487 -8.73148 1.23936 0
M  V30 3601 O 557.947 -7.66872 -0.971405 0
M  V30 3602 C 557.007 -7.42309 -2.04641 0
M  V30 3603 C 557.737 -6.86059 -3.24661 0
M  V30 3604 O 557.947 -5.42847 -3.03646 0
M  V30 3605 C 559.137 -7.41196 -3.50753 0
M  V30 3606 O 559.527 -7.27073 -4.86816 0
M  V30 3607 C 560.017 -6.5273 -2.63741 0
M  V30 3608 C 559.307 -5.1842 -2.73198 0
M  V30 3609 N 559.357 -4.38762 -1.4784 0
M  V30 3610 H 556.518 -8.36803 -2.32493 0
M  V30 3611 H 556.248 -6.70197 -1.71129 0
M  V30 3612 H 557.115 -7.03551 -4.13168 0
M  V30 3613 P 561.077 -7.20834 -5.23717 0
M  V30 3614 O 561.297 -7.79853 -6.57286 0
M  V30 3615 O 561.867 -7.79239 -4.12957 0
M  V30 3616 O 561.327 -5.63315 -5.29344 0
M  V30 3617 C 560.387 -4.80255 -6.01876 0
M  V30 3618 C 561.117 -3.64202 -6.65911 0
M  V30 3619 O 561.327 -2.60694 -5.64732 0
M  V30 3620 C 562.517 -3.93473 -7.1943 0
M  V30 3621 O 562.907 -3.02071 -8.21205 0
M  V30 3622 C 563.397 -3.73047 -5.97036 0
M  V30 3623 C 562.687 -2.58828 -5.25741 0
M  V30 3624 N 562.737 -2.68068 -3.77503 0
M  V30 3625 H 559.898 -5.40332 -6.79951 0
M  V30 3626 H 559.628 -4.41613 -5.32378 0
M  V30 3627 H 560.495 -3.26331 -7.47797 0
M  V30 3628 P 564.457 -2.75334 -8.47391 0
M  V30 3629 O 564.677 -2.44619 -9.90336 0
M  V30 3630 O 565.247 -3.87776 -7.92294 0
M  V30 3631 O 564.707 -1.4459 -7.59357 0
M  V30 3632 C 563.767 -0.347653 -7.69315 0
M  V30 3633 C 564.497 0.96767 -7.52806 0
M  V30 3634 O 564.707 1.21055 -6.10208 0
M  V30 3635 C 565.897 1.04557 -8.13408 0
M  V30 3636 O 566.287 2.38311 -8.41922 0
M  V30 3637 C 566.777 0.491279 -7.02284 0
M  V30 3638 C 566.067 0.996264 -5.77469 0
M  V30 3639 N 566.117 0.0501916 -4.62973 0
M  V30 3640 H 563.279 -0.374765 -8.67791 0
M  V30 3641 H 563.007 -0.443613 -6.90476 0
M  V30 3642 H 563.875 1.75559 -7.96891 0
M  V30 3643 H 566.53 1.94563 -5.46818 0
M  V30 3644 H 566.81 -0.608651 -7.04676 0
M  V30 3645 H 567.801 0.889796 -7.09039 0
M  V30 3646 H 565.967 0.433128 -9.04664 0
M  V30 3647 P 567.837 2.75334 -8.47391 0
M  V30 3648 O 568.057 3.84204 -9.44982 0
M  V30 3649 O 568.627 1.51982 -8.68909 0
M  V30 3650 O 568.087 3.29363 -6.99321 0
M  V30 3651 C 567.147 4.24066 -6.42823 0
M  V30 3652 C 567.877 5.20775 -5.52155 0
M  V30 3653 O 568.087 4.56607 -4.22514 0
M  V30 3654 C 569.277 5.62697 -5.96604 0
M  V30 3655 O 569.667 6.87667 -5.41053 0
M  V30 3656 C 570.157 4.52537 -5.39283 0
M  V30 3657 C 569.447 4.20027 -4.08623 0
M  V30 3658 N 569.497 2.76189 -3.71603 0
M  V30 3659 C 569.417 1.66944 -4.54297 0
M  V30 3660 N 569.487 0.536169 -3.91344 0
M  V30 3661 C 569.637 0.901569 -2.58849 0
M  V30 3662 C 569.767 0.146599 -1.40236 0
M  V30 3663 N 569.777 -1.18234 -1.37046 0
M  V30 3664 N 569.887 0.822941 -0.249738 0
M  V30 3665 C 569.877 2.15179 -0.280525 0
M  V30 3666 N 569.757 2.96414 -1.30822 0
M  V30 3667 C 569.637 2.25804 -2.44748 0
M  V30 3668 H 566.659 4.79756 -7.24086 0
M  V30 3669 H 566.387 3.69963 -5.84682 0
M  V30 3670 H 567.255 6.10431 -5.41508 0
M  V30 3671 H 569.91 4.78816 -3.28024 0
M  V30 3672 H 570.19 3.64957 -6.05871 0
M  V30 3673 H 571.181 4.88748 -5.21323 0
M  V30 3674 H 569.347 5.66789 -7.0643 0
M  V30 3675 H 569.306 1.74684 -5.62396 0
M  V30 3676 H 569.687 -1.71949 -2.24394 0
M  V30 3677 H 569.876 -1.67511 -0.470742 0
M  V30 3678 H 569.984 2.63704 0.6828 0
M  V30 3679 P 571.217 7.20834 -5.23717 0
M  V30 3680 O 571.437 8.66104 -5.38572 0
M  V30 3681 O 572.007 6.33544 -6.1349 0
M  V30 3682 O 571.467 6.7751 -3.72168 0
M  V30 3683 C 570.527 7.20825 -2.7076 0
M  V30 3684 C 571.257 7.45864 -1.40599 0
M  V30 3685 O 571.467 6.17651 -0.734225 0
M  V30 3686 C 572.657 8.05808 -1.51899 0
M  V30 3687 O 573.047 8.74358 -0.335205 0
M  V30 3688 C 573.537 6.83093 -1.70294 0
M  V30 3689 C 572.827 5.79992 -0.836974 0
M  V30 3690 N 572.877 4.41864 -1.38293 0
M  V30 3691 C 572.797 3.99538 -2.69438 0
M  V30 3692 N 572.877 2.69909 -2.84277 0
M  V30 3693 C 573.017 2.21719 -1.5408 0
M  V30 3694 C 573.147 0.891712 -1.06628 0
M  V30 3695 N 573.267 0.856846 0.334985 0
M  V30 3696 C 573.267 1.9641 1.15789 0
M  V30 3697 N 573.397 1.72708 2.46522 0
M  V30 3698 N 573.137 3.21165 0.713741 0
M  V30 3699 C 573.017 3.26797 -0.639748 0
M  V30 3700 H 570.038 8.13644 -3.0377 0
M  V30 3701 H 569.768 6.42788 -2.55485 0
M  V30 3702 H 570.635 8.12039 -0.792769 0
M  V30 3703 P 574.597 8.91 3.69815e-12 0
M  V30 3704 O 574.817 10.1726 0.733694 0
M  V30 3705 O 575.387 8.73148 -1.23936 0
M  V30 3706 O 574.847 7.66872 0.971405 0
M  V30 3707 C 573.907 7.42309 2.04641 0
M  V30 3708 C 574.637 6.86059 3.24661 0
M  V30 3709 O 574.847 5.42847 3.03646 0
M  V30 3710 C 576.037 7.41196 3.50753 0
M  V30 3711 O 576.427 7.27073 4.86816 0
M  V30 3712 C 576.917 6.5273 2.63741 0
M  V30 3713 C 576.207 5.1842 2.73198 0
M  V30 3714 N 576.257 4.38762 1.4784 0
M  V30 3715 H 573.418 8.36803 2.32493 0
M  V30 3716 H 573.148 6.70197 1.71129 0
M  V30 3717 H 574.015 7.03551 4.13168 0
M  V30 3718 P 577.977 7.20834 5.23717 0
M  V30 3719 O 578.197 7.80006 6.57415 0
M  V30 3720 O 578.767 7.79416 4.13051 0
M  V30 3721 O 578.227 5.63315 5.29344 0
M  V30 3722 C 577.287 4.80318 6.01954 0
M  V30 3723 C 578.017 3.64202 6.65911 0
M  V30 3724 O 578.227 2.60736 5.64823 0
M  V30 3725 C 579.417 3.93521 7.19518 0
M  V30 3726 O 579.807 3.02071 8.21205 0
M  V30 3727 C 580.297 3.73047 5.97036 0
M  V30 3728 C 579.587 2.58828 5.25741 0
M  V30 3729 N 579.637 2.68068 3.77503 0
M  V30 3730 H 576.799 5.40394 6.8003 0
M  V30 3731 H 576.527 4.41741 5.32532 0
M  V30 3732 H 577.395 3.26371 7.47889 0
M  V30 3733 H 580.05 1.64007 5.56746 0
M  V30 3734 H 580.33 4.63439 5.3432 0
M  V30 3735 H 581.321 3.44776 6.25925 0
M  V30 3736 H 579.487 4.96707 7.57347 0
M  V30 3737 P 581.357 2.75334 8.47391 0
M  V30 3738 O 581.577 2.44571 9.90142 0
M  V30 3739 O 582.147 3.87688 7.92115 0
M  V30 3740 O 581.607 1.4459 7.59357 0
M  V30 3741 C 580.667 0.347608 7.69215 0
M  V30 3742 C 581.397 -0.96767 7.52806 0
M  V30 3743 O 581.607 -1.21036 6.1011 0
M  V30 3744 C 582.797 -1.04544 8.13308 0
M  V30 3745 O 583.187 -2.38311 8.41922 0
M  V30 3746 C 583.677 -0.491279 7.02284 0
M  V30 3747 C 582.967 -0.996264 5.77469 0
M  V30 3748 N 583.017 -0.0501916 4.62973 0
M  V30 3749 H 580.178 0.374722 8.67691 0
M  V30 3750 H 579.908 0.443485 6.90277 0
M  V30 3751 H 580.775 -1.75537 7.96793 0
M  V30 3752 P 584.737 -2.75334 8.47391 0
M  V30 3753 O 584.957 -3.84204 9.44982 0
M  V30 3754 O 585.527 -1.51982 8.68909 0
M  V30 3755 O 584.987 -3.29363 6.99321 0
M  V30 3756 C 584.047 -4.24066 6.42823 0
M  V30 3757 C 584.777 -5.20775 5.52155 0
M  V30 3758 O 584.987 -4.56607 4.22514 0
M  V30 3759 C 586.177 -5.62697 5.96604 0
M  V30 3760 O 586.567 -6.87667 5.41053 0
M  V30 3761 C 587.057 -4.52537 5.39283 0
M  V30 3762 C 586.347 -4.20027 4.08623 0
M  V30 3763 N 586.397 -2.76189 3.71603 0
M  V30 3764 C 586.317 -1.66944 4.54297 0
M  V30 3765 N 586.387 -0.536169 3.91344 0
M  V30 3766 C 586.537 -0.901569 2.58849 0
M  V30 3767 C 586.667 -0.146599 1.40236 0
M  V30 3768 N 586.677 1.18234 1.37046 0
M  V30 3769 N 586.787 -0.822941 0.249738 0
M  V30 3770 C 586.777 -2.15179 0.280525 0
M  V30 3771 N 586.657 -2.96414 1.30822 0
M  V30 3772 C 586.537 -2.25804 2.44748 0
M  V30 3773 H 583.559 -4.79756 7.24086 0
M  V30 3774 H 583.287 -3.69963 5.84682 0
M  V30 3775 H 584.155 -6.10431 5.41508 0
M  V30 3776 H 586.81 -4.78816 3.28024 0
M  V30 3777 H 587.09 -3.64957 6.05871 0
M  V30 3778 H 588.081 -4.88748 5.21323 0
M  V30 3779 H 586.247 -5.66789 7.0643 0
M  V30 3780 H 586.206 -1.74684 5.62396 0
M  V30 3781 H 586.587 1.71949 2.24394 0
M  V30 3782 H 586.776 1.67511 0.470742 0
M  V30 3783 H 586.884 -2.63704 -0.6828 0
M  V30 3784 P 588.117 -7.20834 5.23717 0
M  V30 3785 O 588.337 -8.66104 5.38572 0
M  V30 3786 O 588.907 -6.33544 6.1349 0
M  V30 3787 O 588.367 -6.7751 3.72168 0
M  V30 3788 C 587.427 -7.20825 2.7076 0
M  V30 3789 C 588.157 -7.45864 1.40599 0
M  V30 3790 O 588.367 -6.17651 0.734225 0
M  V30 3791 C 589.557 -8.05808 1.51899 0
M  V30 3792 O 589.947 -8.74358 0.335205 0
M  V30 3793 C 590.437 -6.83093 1.70294 0
M  V30 3794 C 589.727 -5.79992 0.836974 0
M  V30 3795 N 589.777 -4.41864 1.38293 0
M  V30 3796 H 586.938 -8.13644 3.0377 0
M  V30 3797 H 586.668 -6.42788 2.55485 0
M  V30 3798 H 587.535 -8.12039 0.792769 0
M  V30 3799 P 591.496 -8.91 -3.85533e-12 0
M  V30 3800 O 591.716 -10.1736 -0.733766 0
M  V30 3801 O 592.286 -8.73247 1.2395 0
M  V30 3802 O 591.746 -7.66872 -0.971405 0
M  V30 3803 C 590.806 -7.42212 -2.04614 0
M  V30 3804 C 591.536 -6.86059 -3.24661 0
M  V30 3805 O 591.746 -5.42847 -3.03646 0
M  V30 3806 C 592.937 -7.41196 -3.50753 0
M  V30 3807 O 593.327 -7.27073 -4.86816 0
M  V30 3808 C 593.817 -6.5273 -2.63741 0
M  V30 3809 C 593.106 -5.1842 -2.73198 0
M  V30 3810 N 593.156 -4.38668 -1.47808 0
M  V30 3811 C 593.306 -3.02239 -1.60048 0
M  V30 3812 O 593.396 -2.46459 -2.67869 0
M  V30 3813 N 593.346 -2.32436 -0.408571 0
M  V30 3814 C 593.256 -2.85471 0.854993 0
M  V30 3815 O 593.306 -2.12566 1.8531 0
M  V30 3816 C 593.106 -4.28918 0.887335 0
M  V30 3817 C 592.996 -4.91066 2.24619 0
M  V30 3818 C 593.056 -5.00349 -0.255399 0
M  V30 3819 H 590.317 -8.36803 -2.32493 0
M  V30 3820 H 590.048 -6.701 -1.71105 0
M  V30 3821 H 590.914 -7.03551 -4.13168 0
M  V30 3822 H 593.569 -4.59773 -3.53894 0
M  V30 3823 H 593.848 -6.88995 -1.59871 0
M  V30 3824 H 594.841 -6.46749 -3.03687 0
M  V30 3825 H 593.006 -8.46908 -3.20714 0
M  V30 3826 H 592.935 -6.08548 -0.206986 0
M  V30 3827 H 593.966 -5.34836 2.53099 0
M  V30 3828 H 592.228 -5.69638 2.2291 0
M  V30 3829 H 592.716 -4.13971 2.98044 0
M  V30 3830 H 593.452 -1.33211 -0.474216 0
M  V30 3831 P 594.876 -7.20834 -5.23717 0
M  V30 3832 O 595.096 -7.79853 -6.57286 0
M  V30 3833 O 595.666 -7.79239 -4.12957 0
M  V30 3834 O 595.126 -5.63315 -5.29344 0
M  V30 3835 C 594.186 -4.80255 -6.01876 0
M  V30 3836 C 594.916 -3.64202 -6.65911 0
M  V30 3837 O 595.126 -2.60694 -5.64732 0
M  V30 3838 C 596.316 -3.93473 -7.1943 0
M  V30 3839 O 596.706 -3.02071 -8.21205 0
M  V30 3840 C 597.196 -3.73047 -5.97036 0
M  V30 3841 C 596.486 -2.58828 -5.25741 0
M  V30 3842 N 596.536 -2.68068 -3.77503 0
M  V30 3843 H 593.697 -5.40332 -6.79951 0
M  V30 3844 H 593.427 -4.41613 -5.32378 0
M  V30 3845 H 594.294 -3.26331 -7.47797 0
M  V30 3846 P 598.256 -2.75334 -8.47391 0
M  V30 3847 O 598.476 -2.44595 -9.90239 0
M  V30 3848 O 599.046 -3.87732 -7.92204 0
M  V30 3849 O 598.506 -1.4459 -7.59357 0
M  V30 3850 C 597.566 -0.347563 -7.69115 0
M  V30 3851 C 598.296 0.96767 -7.52806 0
M  V30 3852 O 598.506 1.21036 -6.1011 0
M  V30 3853 C 599.696 1.04544 -8.13308 0
M  V30 3854 O 600.086 2.38311 -8.41922 0
M  V30 3855 C 600.576 0.491279 -7.02284 0
M  V30 3856 C 599.866 0.996264 -5.77469 0
M  V30 3857 N 599.916 0.0501808 -4.62873 0
M  V30 3858 C 600.066 0.588177 -3.36904 0
M  V30 3859 O 600.156 1.78598 -3.17173 0
M  V30 3860 N 600.106 -0.329694 -2.33686 0
M  V30 3861 C 600.016 -1.6953 -2.45079 0
M  V30 3862 O 600.066 -2.41926 -1.44899 0
M  V30 3863 C 599.866 -2.16933 -3.80505 0
M  V30 3864 C 599.756 -3.65373 -3.97621 0
M  V30 3865 C 599.816 -1.30326 -4.83752 0
M  V30 3866 H 597.076 -0.374722 -8.67691 0
M  V30 3867 H 596.807 -0.443421 -6.90177 0
M  V30 3868 H 597.674 1.75537 -7.96793 0
M  V30 3869 H 600.329 1.94496 -5.46629 0
M  V30 3870 H 600.608 -0.608651 -7.04676 0
M  V30 3871 H 601.6 0.889672 -7.08939 0
M  V30 3872 H 599.766 0.43308 -9.04564 0
M  V30 3873 H 599.695 -1.68366 -5.8516 0
M  V30 3874 H 600.725 -4.05985 -4.30448 0
M  V30 3875 H 598.988 -3.88028 -4.72875 0
M  V30 3876 H 599.476 -4.11381 -3.01609 0
M  V30 3877 H 600.212 0.0393617 -1.41345 0
M  V30 3878 P 601.636 2.75334 -8.47391 0
M  V30 3879 O 601.856 3.84128 -9.44797 0
M  V30 3880 O 602.426 1.51947 -8.68712 0
M  V30 3881 O 601.886 3.29363 -6.99321 0
M  V30 3882 C 600.946 4.24011 -6.4274 0
M  V30 3883 C 601.676 5.20775 -5.52155 0
M  V30 3884 O 601.886 4.56534 -4.22446 0
M  V30 3885 C 603.076 5.62629 -5.96531 0
M  V30 3886 O 603.466 6.87667 -5.41053 0
M  V30 3887 C 603.956 4.52537 -5.39283 0
M  V30 3888 C 603.246 4.20027 -4.08623 0
M  V30 3889 N 603.296 2.76189 -3.71603 0
M  V30 3890 C 603.216 1.64862 -4.52822 0
M  V30 3891 N 603.296 0.512671 -3.88633 0
M  V30 3892 C 603.436 0.888083 -2.54977 0
M  V30 3893 C 603.566 0.094668 -1.38677 0
M  V30 3894 O 603.586 -1.13053 -1.28163 0
M  V30 3895 N 603.686 0.890102 -0.232633 0
M  V30 3896 C 603.686 2.26958 -0.21772 0
M  V30 3897 N 603.816 2.84626 0.97925 0
M  V30 3898 N 603.556 3.0178 -1.31033 0
M  V30 3899 C 603.436 2.26781 -2.43843 0
M  V30 3900 H 600.457 4.797 -7.24003 0
M  V30 3901 H 600.187 3.69856 -5.84513 0
M  V30 3902 H 601.054 6.10356 -5.41441 0
M  V30 3903 H 603.709 4.79061 -3.27488 0
M  V30 3904 H 603.988 3.64906 -6.05785 0
M  V30 3905 H 604.98 4.8868 -5.2125 0
M  V30 3906 H 603.146 5.66726 -7.06352 0
M  V30 3907 H 603.097 1.71169 -5.60966 0
M  V30 3908 H 603.779 0.419134 0.644739 0
M  V30 3909 H 603.816 3.87332 1.06098 0
M  V30 3910 H 603.917 2.26417 1.82483 0
M  V30 3911 P 605.016 7.20834 -5.23717 0
M  V30 3912 O 605.236 8.66189 -5.38625 0
M  V30 3913 O 605.806 6.33615 -6.1356 0
M  V30 3914 O 605.266 6.7751 -3.72168 0
M  V30 3915 C 604.326 7.20732 -2.70725 0
M  V30 3916 C 605.056 7.45864 -1.40599 0
M  V30 3917 O 605.266 6.17651 -0.734225 0
M  V30 3918 C 606.456 8.05808 -1.51899 0
M  V30 3919 O 606.846 8.74358 -0.335205 0
M  V30 3920 C 607.336 6.83093 -1.70294 0
M  V30 3921 C 606.626 5.79992 -0.836974 0
M  V30 3922 N 606.676 4.41769 -1.38263 0
M  V30 3923 C 606.826 3.38591 -0.481702 0
M  V30 3924 O 606.916 3.56839 0.718452 0
M  V30 3925 N 606.866 2.1206 -1.03569 0
M  V30 3926 C 606.776 1.80696 -2.36966 0
M  V30 3927 O 606.826 0.630473 -2.74862 0
M  V30 3928 C 606.626 2.94845 -3.23898 0
M  V30 3929 C 606.516 2.65253 -4.70362 0
M  V30 3930 C 606.576 4.19803 -2.73435 0
M  V30 3931 H 603.836 8.13644 -3.0377 0
M  V30 3932 H 603.567 6.42695 -2.55448 0
M  V30 3933 H 604.434 8.12039 -0.792769 0
M  V30 3934 H 607.089 5.79978 0.160587 0
M  V30 3935 H 607.368 6.51379 -2.75643 0
M  V30 3936 H 608.36 7.01734 -1.34462 0
M  V30 3937 H 606.526 8.73674 -2.38337 0
M  V30 3938 H 606.455 5.04492 -3.4095 0
M  V30 3939 H 607.485 2.83924 -5.1913 0
M  V30 3940 H 605.748 3.29824 -5.15163 0
M  V30 3941 H 606.236 1.59723 -4.84449 0
M  V30 3942 H 606.972 1.35644 -0.399345 0
M  V30 3943 P 608.396 8.91 4.01252e-12 0
M  V30 3944 O 608.616 10.1726 0.733694 0
M  V30 3945 O 609.186 8.73148 -1.23936 0
M  V30 3946 O 608.646 7.66872 0.971405 0
M  V30 3947 C 607.706 7.42309 2.04641 0
M  V30 3948 C 608.436 6.86059 3.24661 0
M  V30 3949 O 608.646 5.42847 3.03646 0
M  V30 3950 C 609.836 7.41196 3.50753 0
M  V30 3951 O 610.226 7.27073 4.86816 0
M  V30 3952 C 610.716 6.5273 2.63741 0
M  V30 3953 C 610.006 5.1842 2.73198 0
M  V30 3954 N 610.056 4.38762 1.4784 0
M  V30 3955 H 607.217 8.36803 2.32493 0
M  V30 3956 H 606.947 6.70197 1.71129 0
M  V30 3957 H 607.814 7.03551 4.13168 0
M  V30 3958 P 611.776 7.20834 5.23717 0
M  V30 3959 O 611.996 7.79853 6.57286 0
M  V30 3960 O 612.566 7.79239 4.12957 0
M  V30 3961 O 612.026 5.63315 5.29344 0
M  V30 3962 C 611.086 4.80255 6.01876 0
M  V30 3963 C 611.816 3.64202 6.65911 0
M  V30 3964 O 612.026 2.60694 5.64732 0
M  V30 3965 C 613.216 3.93473 7.1943 0
M  V30 3966 O 613.606 3.02071 8.21205 0
M  V30 3967 C 614.096 3.73047 5.97036 0
M  V30 3968 C 613.386 2.58828 5.25741 0
M  V30 3969 N 613.436 2.68068 3.77503 0
M  V30 3970 H 610.597 5.40332 6.79951 0
M  V30 3971 H 610.327 4.41613 5.32378 0
M  V30 3972 H 611.194 3.26331 7.47797 0
M  V30 3973 P 615.156 2.75334 8.47391 0
M  V30 3974 O 615.376 2.44595 9.90239 0
M  V30 3975 O 615.946 3.87732 7.92204 0
M  V30 3976 O 615.406 1.4459 7.59357 0
M  V30 3977 C 614.466 0.347563 7.69115 0
M  V30 3978 C 615.196 -0.96767 7.52806 0
M  V30 3979 O 615.406 -1.21036 6.1011 0
M  V30 3980 C 616.596 -1.04544 8.13308 0
M  V30 3981 O 616.986 -2.38311 8.41922 0
M  V30 3982 C 617.476 -0.491279 7.02284 0
M  V30 3983 C 616.766 -0.996264 5.77469 0
M  V30 3984 N 616.816 -0.0501808 4.62873 0
M  V30 3985 C 616.966 -0.588177 3.36904 0
M  V30 3986 O 617.056 -1.78598 3.17173 0
M  V30 3987 N 617.006 0.329694 2.33686 0
M  V30 3988 C 616.916 1.6953 2.45079 0
M  V30 3989 O 616.966 2.41926 1.44899 0
M  V30 3990 C 616.766 2.16933 3.80505 0
M  V30 3991 C 616.656 3.65373 3.97621 0
M  V30 3992 C 616.716 1.30326 4.83752 0
M  V30 3993 H 613.976 0.374722 8.67691 0
M  V30 3994 H 613.707 0.443421 6.90177 0
M  V30 3995 H 614.574 -1.75537 7.96793 0
M  V30 3996 H 617.229 -1.94496 5.46629 0
M  V30 3997 H 617.508 0.608651 7.04676 0
M  V30 3998 H 618.5 -0.889672 7.08939 0
M  V30 3999 H 616.666 -0.43308 9.04564 0
M  V30 4000 H 616.595 1.68366 5.8516 0
M  V30 4001 H 617.625 4.05985 4.30448 0
M  V30 4002 H 615.888 3.88028 4.72875 0
M  V30 4003 H 616.376 4.11381 3.01609 0
M  V30 4004 H 617.112 -0.0393617 1.41345 0
M  V30 4005 P 618.536 -2.75334 8.47391 0
M  V30 4006 O 618.756 -3.84128 9.44797 0
M  V30 4007 O 619.326 -1.51947 8.68712 0
M  V30 4008 O 618.786 -3.29363 6.99321 0
M  V30 4009 C 617.846 -4.24011 6.4274 0
M  V30 4010 C 618.576 -5.20775 5.52155 0
M  V30 4011 O 618.786 -4.56534 4.22446 0
M  V30 4012 C 619.976 -5.62629 5.96531 0
M  V30 4013 O 620.366 -6.87667 5.41053 0
M  V30 4014 C 620.856 -4.52537 5.39283 0
M  V30 4015 C 620.146 -4.20027 4.08623 0
M  V30 4016 N 620.196 -2.76189 3.71603 0
M  V30 4017 H 617.357 -4.797 7.24003 0
M  V30 4018 H 617.087 -3.69856 5.84513 0
M  V30 4019 H 617.954 -6.10356 5.41441 0
M  V30 4020 P 621.916 -7.20834 5.23717 0
M  V30 4021 O 622.136 -8.66104 5.38572 0
M  V30 4022 O 622.706 -6.33544 6.1349 0
M  V30 4023 O 622.166 -6.7751 3.72168 0
M  V30 4024 C 621.226 -7.20825 2.7076 0
M  V30 4025 C 621.956 -7.45864 1.40599 0
M  V30 4026 O 622.166 -6.17651 0.734225 0
M  V30 4027 C 623.356 -8.05808 1.51899 0
M  V30 4028 O 623.746 -8.74358 0.335205 0
M  V30 4029 C 624.236 -6.83093 1.70294 0
M  V30 4030 C 623.526 -5.79992 0.836974 0
M  V30 4031 N 623.576 -4.41864 1.38293 0
M  V30 4032 H 620.737 -8.13644 3.0377 0
M  V30 4033 H 620.467 -6.42788 2.55485 0
M  V30 4034 H 621.334 -8.12039 0.792769 0
M  V30 4035 P 625.296 -8.91 -4.1697e-12 0
M  V30 4036 O 625.516 -10.1726 -0.733694 0
M  V30 4037 O 626.086 -8.73148 1.23936 0
M  V30 4038 O 625.546 -7.66872 -0.971405 0
M  V30 4039 C 624.606 -7.42309 -2.04641 0
M  V30 4040 C 625.336 -6.86059 -3.24661 0
M  V30 4041 O 625.546 -5.42847 -3.03646 0
M  V30 4042 C 626.736 -7.41196 -3.50753 0
M  V30 4043 O 627.126 -7.27073 -4.86816 0
M  V30 4044 C 627.616 -6.5273 -2.63741 0
M  V30 4045 C 626.906 -5.1842 -2.73198 0
M  V30 4046 N 626.956 -4.38762 -1.4784 0
M  V30 4047 C 626.876 -4.81605 -0.168631 0
M  V30 4048 N 626.956 -3.85454 0.713363 0
M  V30 4049 C 627.096 -2.6994 -0.0566958 0
M  V30 4050 C 627.226 -1.34815 0.338502 0
M  V30 4051 O 627.246 -0.869548 1.47125 0
M  V30 4052 N 627.346 -0.496304 -0.77465 0
M  V30 4053 C 627.346 -0.908403 -2.09122 0
M  V30 4054 N 627.476 0.0517805 -3.00955 0
M  V30 4055 N 627.216 -2.17875 -2.46519 0
M  V30 4056 C 627.096 -3.01988 -1.4033 0
M  V30 4057 H 624.117 -8.36803 -2.32493 0
M  V30 4058 H 623.847 -6.70197 -1.71129 0
M  V30 4059 H 624.714 -7.03551 -4.13168 0
M  V30 4060 H 627.369 -4.59498 -3.54415 0
M  V30 4061 H 627.648 -6.88898 -1.59848 0
M  V30 4062 H 628.64 -6.46749 -3.03687 0
M  V30 4063 H 626.806 -8.46908 -3.20714 0
M  V30 4064 H 626.757 -5.86405 0.105564 0
M  V30 4065 H 627.439 0.483664 -0.597855 0
M  V30 4066 H 627.476 -0.187865 -4.0116 0
M  V30 4067 H 627.577 1.03585 -2.71726 0
M  V30 4068 P 628.676 -7.20834 -5.23717 0
M  V30 4069 O 628.896 -7.79853 -6.57286 0
M  V30 4070 O 629.466 -7.79239 -4.12957 0
M  V30 4071 O 628.926 -5.63315 -5.29344 0
M  V30 4072 C 627.986 -4.80255 -6.01876 0
M  V30 4073 C 628.716 -3.64202 -6.65911 0
M  V30 4074 O 628.926 -2.60694 -5.64732 0
M  V30 4075 C 630.116 -3.93473 -7.1943 0
M  V30 4076 O 630.506 -3.02071 -8.21205 0
M  V30 4077 C 630.996 -3.73047 -5.97036 0
M  V30 4078 C 630.286 -2.58828 -5.25741 0
M  V30 4079 N 630.336 -2.68068 -3.77503 0
M  V30 4080 H 627.497 -5.40332 -6.79951 0
M  V30 4081 H 627.227 -4.41613 -5.32378 0
M  V30 4082 H 628.094 -3.26331 -7.47797 0
M  V30 4083 P 632.056 -2.75334 -8.47391 0
M  V30 4084 O 632.276 -2.44595 -9.90239 0
M  V30 4085 O 632.846 -3.87732 -7.92204 0
M  V30 4086 O 632.306 -1.4459 -7.59357 0
M  V30 4087 C 631.366 -0.347563 -7.69115 0
M  V30 4088 C 632.096 0.96767 -7.52806 0
M  V30 4089 O 632.306 1.21036 -6.1011 0
M  V30 4090 C 633.496 1.04544 -8.13308 0
M  V30 4091 O 633.886 2.38311 -8.41922 0
M  V30 4092 C 634.376 0.491279 -7.02284 0
M  V30 4093 C 633.666 0.996264 -5.77469 0
M  V30 4094 N 633.716 0.0501808 -4.62873 0
M  V30 4095 C 633.866 0.588177 -3.36904 0
M  V30 4096 O 633.956 1.78598 -3.17173 0
M  V30 4097 N 633.906 -0.329694 -2.33686 0
M  V30 4098 C 633.816 -1.6953 -2.45079 0
M  V30 4099 O 633.866 -2.41926 -1.44899 0
M  V30 4100 C 633.666 -2.16933 -3.80505 0
M  V30 4101 C 633.556 -3.65373 -3.97621 0
M  V30 4102 C 633.616 -1.30326 -4.83752 0
M  V30 4103 H 630.876 -0.374722 -8.67691 0
M  V30 4104 H 630.607 -0.443421 -6.90177 0
M  V30 4105 H 631.474 1.75537 -7.96793 0
M  V30 4106 H 634.129 1.94496 -5.46629 0
M  V30 4107 H 634.408 -0.608651 -7.04676 0
M  V30 4108 H 635.4 0.889672 -7.08939 0
M  V30 4109 H 633.566 0.43308 -9.04564 0
M  V30 4110 H 633.495 -1.68366 -5.8516 0
M  V30 4111 H 634.525 -4.05985 -4.30448 0
M  V30 4112 H 632.788 -3.88028 -4.72875 0
M  V30 4113 H 633.276 -4.11381 -3.01609 0
M  V30 4114 H 634.012 0.0393617 -1.41345 0
M  V30 4115 P 635.436 2.75334 -8.47391 0
M  V30 4116 O 635.656 3.84128 -9.44797 0
M  V30 4117 O 636.226 1.51947 -8.68712 0
M  V30 4118 O 635.686 3.29363 -6.99321 0
M  V30 4119 C 634.746 4.24011 -6.4274 0
M  V30 4120 C 635.476 5.20775 -5.52155 0
M  V30 4121 O 635.686 4.56534 -4.22446 0
M  V30 4122 C 636.876 5.62629 -5.96531 0
M  V30 4123 O 637.266 6.87667 -5.41053 0
M  V30 4124 C 637.756 4.52537 -5.39283 0
M  V30 4125 C 637.046 4.20027 -4.08623 0
M  V30 4126 N 637.096 2.76189 -3.71603 0
M  V30 4127 H 634.257 4.797 -7.24003 0
M  V30 4128 H 633.987 3.69856 -5.84513 0
M  V30 4129 H 634.854 6.10356 -5.41441 0
M  V30 4130 P 638.816 7.20834 -5.23717 0
M  V30 4131 O 639.036 8.66104 -5.38572 0
M  V30 4132 O 639.606 6.33544 -6.1349 0
M  V30 4133 O 639.066 6.7751 -3.72168 0
M  V30 4134 C 638.126 7.20825 -2.7076 0
M  V30 4135 C 638.856 7.45864 -1.40599 0
M  V30 4136 O 639.066 6.17651 -0.734225 0
M  V30 4137 C 640.256 8.05808 -1.51899 0
M  V30 4138 O 640.646 8.74358 -0.335205 0
M  V30 4139 C 641.136 6.83093 -1.70294 0
M  V30 4140 C 640.426 5.79992 -0.836974 0
M  V30 4141 N 640.476 4.41864 -1.38293 0
M  V30 4142 H 637.637 8.13644 -3.0377 0
M  V30 4143 H 637.367 6.42788 -2.55485 0
M  V30 4144 H 638.234 8.12039 -0.792769 0
M  V30 4145 P 642.196 8.91 4.32688e-12 0
M  V30 4146 O 642.416 10.1726 0.733694 0
M  V30 4147 O 642.986 8.73148 -1.23936 0
M  V30 4148 O 642.446 7.66872 0.971405 0
M  V30 4149 C 641.506 7.42309 2.04641 0
M  V30 4150 C 642.236 6.86059 3.24661 0
M  V30 4151 O 642.446 5.42847 3.03646 0
M  V30 4152 C 643.636 7.41196 3.50753 0
M  V30 4153 O 644.026 7.27073 4.86816 0
M  V30 4154 C 644.516 6.5273 2.63741 0
M  V30 4155 C 643.806 5.1842 2.73198 0
M  V30 4156 N 643.856 4.38762 1.4784 0
M  V30 4157 C 643.776 4.81605 0.168631 0
M  V30 4158 N 643.856 3.85454 -0.713363 0
M  V30 4159 C 643.996 2.6994 0.0566958 0
M  V30 4160 C 644.126 1.34815 -0.338502 0
M  V30 4161 O 644.146 0.869548 -1.47125 0
M  V30 4162 N 644.246 0.496304 0.77465 0
M  V30 4163 C 644.246 0.908403 2.09122 0
M  V30 4164 N 644.376 -0.0517805 3.00955 0
M  V30 4165 N 644.116 2.17875 2.46519 0
M  V30 4166 C 643.996 3.01988 1.4033 0
M  V30 4167 H 641.017 8.36803 2.32493 0
M  V30 4168 H 640.747 6.70197 1.71129 0
M  V30 4169 H 641.614 7.03551 4.13168 0
M  V30 4170 H 644.269 4.59498 3.54415 0
M  V30 4171 H 644.548 6.88898 1.59848 0
M  V30 4172 H 645.54 6.46749 3.03687 0
M  V30 4173 H 643.706 8.46908 3.20714 0
M  V30 4174 H 643.657 5.86405 -0.105564 0
M  V30 4175 H 644.339 -0.483664 0.597855 0
M  V30 4176 H 644.376 0.187865 4.0116 0
M  V30 4177 H 644.477 -1.03585 2.71726 0
M  V30 4178 P 645.576 7.20834 5.23717 0
M  V30 4179 O 645.796 7.80006 6.57415 0
M  V30 4180 O 646.366 7.79416 4.13051 0
M  V30 4181 O 645.826 5.63315 5.29344 0
M  V30 4182 C 644.886 4.80318 6.01954 0
M  V30 4183 C 645.616 3.64202 6.65911 0
M  V30 4184 O 645.826 2.60736 5.64823 0
M  V30 4185 C 647.016 3.93521 7.19518 0
M  V30 4186 O 647.406 3.02071 8.21205 0
M  V30 4187 C 647.896 3.73047 5.97036 0
M  V30 4188 C 647.186 2.58828 5.25741 0
M  V30 4189 N 647.236 2.68068 3.77503 0
M  V30 4190 H 644.398 5.40394 6.8003 0
M  V30 4191 H 644.126 4.41741 5.32532 0
M  V30 4192 H 644.994 3.26371 7.47889 0
M  V30 4193 H 647.649 1.64007 5.56746 0
M  V30 4194 H 647.929 4.63439 5.3432 0
M  V30 4195 H 648.92 3.44776 6.25925 0
M  V30 4196 H 647.086 4.96707 7.57347 0
M  V30 4197 P 648.956 2.75334 8.47391 0
M  V30 4198 O 649.176 2.44571 9.90142 0
M  V30 4199 O 649.746 3.87688 7.92115 0
M  V30 4200 O 649.206 1.4459 7.59357 0
M  V30 4201 C 648.266 0.347608 7.69215 0
M  V30 4202 C 648.996 -0.96767 7.52806 0
M  V30 4203 O 649.206 -1.21036 6.1011 0
M  V30 4204 C 650.396 -1.04544 8.13308 0
M  V30 4205 O 650.786 -2.38311 8.41922 0
M  V30 4206 C 651.276 -0.491279 7.02284 0
M  V30 4207 C 650.566 -0.996264 5.77469 0
M  V30 4208 N 650.616 -0.0501916 4.62973 0
M  V30 4209 C 650.536 1.32786 4.63244 0
M  V30 4210 N 650.616 1.86957 3.44545 0
M  V30 4211 C 650.756 0.780241 2.58481 0
M  V30 4212 C 650.886 0.738536 1.17757 0
M  V30 4213 N 651.006 -0.58337 0.711393 0
M  V30 4214 C 651.006 -1.70816 1.51017 0
M  V30 4215 N 651.136 -2.87826 0.880757 0
M  V30 4216 N 650.876 -1.67126 2.8339 0
M  V30 4217 C 650.756 -0.401421 3.30572 0
M  V30 4218 H 647.777 0.374722 8.67691 0
M  V30 4219 H 647.507 0.443485 6.90277 0
M  V30 4220 H 648.374 -1.75537 7.96793 0
M  V30 4221 P 652.336 -2.75334 8.47391 0
M  V30 4222 O 652.556 -3.84128 9.44797 0
M  V30 4223 O 653.126 -1.51947 8.68712 0
M  V30 4224 O 652.586 -3.29363 6.99321 0
M  V30 4225 C 651.646 -4.24011 6.4274 0
M  V30 4226 C 652.376 -5.20775 5.52155 0
M  V30 4227 O 652.586 -4.56534 4.22446 0
M  V30 4228 C 653.776 -5.62629 5.96531 0
M  V30 4229 O 654.166 -6.87667 5.41053 0
M  V30 4230 C 654.656 -4.52537 5.39283 0
M  V30 4231 C 653.946 -4.20027 4.08623 0
M  V30 4232 N 653.996 -2.76189 3.71603 0
M  V30 4233 H 651.157 -4.797 7.24003 0
M  V30 4234 H 650.887 -3.69856 5.84513 0
M  V30 4235 H 651.754 -6.10356 5.41441 0
M  V30 4236 P 655.716 -7.20834 5.23717 0
M  V30 4237 O 655.936 -8.66274 5.38678 0
M  V30 4238 O 656.506 -6.33687 6.13629 0
M  V30 4239 O 655.966 -6.7751 3.72168 0
M  V30 4240 C 655.026 -7.20919 2.70795 0
M  V30 4241 C 655.756 -7.45864 1.40599 0
M  V30 4242 O 655.966 -6.17751 0.734343 0
M  V30 4243 C 657.156 -8.05906 1.51917 0
M  V30 4244 O 657.546 -8.74358 0.335205 0
M  V30 4245 C 658.036 -6.83093 1.70294 0
M  V30 4246 C 657.326 -5.79992 0.836974 0
M  V30 4247 N 657.376 -4.41864 1.38293 0
M  V30 4248 C 657.296 -4.02089 2.69407 0
M  V30 4249 N 657.366 -2.73403 2.85089 0
M  V30 4250 C 657.516 -2.25086 1.5642 0
M  V30 4251 C 657.646 -0.942887 1.04836 0
M  V30 4252 N 657.656 0.150999 1.80369 0
M  V30 4253 N 657.766 -0.812565 -0.28167 0
M  V30 4254 C 657.756 -1.90572 -1.03784 0
M  V30 4255 N 657.636 -3.167 -0.683905 0
M  V30 4256 C 657.516 -3.26538 0.652815 0
M  V30 4257 H 654.538 -8.13738 3.03804 0
M  V30 4258 H 654.266 -6.42974 2.55559 0
M  V30 4259 H 655.134 -8.12139 0.792866 0
M  V30 4260 H 657.789 -5.80178 -0.160643 0
M  V30 4261 H 658.069 -6.51379 2.75643 0
M  V30 4262 H 659.06 -7.01832 1.3448 0
M  V30 4263 H 657.226 -8.73771 2.38364 0
M  V30 4264 H 657.185 -4.7189 3.52311 0
M  V30 4265 H 657.566 0.0721434 2.82608 0
M  V30 4266 H 657.755 1.0785 1.36544 0
M  V30 4267 H 657.863 -1.73207 -2.10241 0
M  V30 4268 P 659.096 -8.91 -4.48406e-12 0
M  V30 4269 O 659.316 -10.1726 -0.733694 0
M  V30 4270 O 659.886 -8.73148 1.23936 0
M  V30 4271 O 659.346 -7.66872 -0.971405 0
M  V30 4272 C 658.406 -7.42309 -2.04641 0
M  V30 4273 C 659.136 -6.86059 -3.24661 0
M  V30 4274 O 659.346 -5.42847 -3.03646 0
M  V30 4275 C 660.536 -7.41196 -3.50753 0
M  V30 4276 O 660.926 -7.27073 -4.86816 0
M  V30 4277 C 661.416 -6.5273 -2.63741 0
M  V30 4278 C 660.706 -5.1842 -2.73198 0
M  V30 4279 N 660.756 -4.38762 -1.4784 0
M  V30 4280 H 657.917 -8.36803 -2.32493 0
M  V30 4281 H 657.647 -6.70197 -1.71129 0
M  V30 4282 H 658.514 -7.03551 -4.13168 0
M  V30 4283 P 662.476 -7.20834 -5.23717 0
M  V30 4284 O 662.696 -7.80006 -6.57415 0
M  V30 4285 O 663.266 -7.79416 -4.13051 0
M  V30 4286 O 662.726 -5.63315 -5.29344 0
M  V30 4287 C 661.786 -4.80318 -6.01954 0
M  V30 4288 C 662.516 -3.64202 -6.65911 0
M  V30 4289 O 662.726 -2.60736 -5.64823 0
M  V30 4290 C 663.916 -3.93521 -7.19518 0
M  V30 4291 O 664.306 -3.02071 -8.21205 0
M  V30 4292 C 664.796 -3.73047 -5.97036 0
M  V30 4293 C 664.086 -2.58828 -5.25741 0
M  V30 4294 N 664.136 -2.68068 -3.77503 0
M  V30 4295 H 661.298 -5.40394 -6.8003 0
M  V30 4296 H 661.026 -4.41741 -5.32532 0
M  V30 4297 H 661.894 -3.26371 -7.47889 0
M  V30 4298 H 664.549 -1.64007 -5.56746 0
M  V30 4299 H 664.829 -4.63439 -5.3432 0
M  V30 4300 H 665.82 -3.44776 -6.25925 0
M  V30 4301 H 663.986 -4.96707 -7.57347 0
M  V30 4302 P 665.856 -2.75334 -8.47391 0
M  V30 4303 O 666.076 -2.44571 -9.90142 0
M  V30 4304 O 666.646 -3.87688 -7.92115 0
M  V30 4305 O 666.106 -1.4459 -7.59357 0
M  V30 4306 C 665.166 -0.347608 -7.69215 0
M  V30 4307 C 665.896 0.96767 -7.52806 0
M  V30 4308 O 666.106 1.21036 -6.1011 0
M  V30 4309 C 667.296 1.04544 -8.13308 0
M  V30 4310 O 667.686 2.38311 -8.41922 0
M  V30 4311 C 668.176 0.491279 -7.02284 0
M  V30 4312 C 667.466 0.996264 -5.77469 0
M  V30 4313 N 667.516 0.0501916 -4.62973 0
M  V30 4314 H 664.677 -0.374722 -8.67691 0
M  V30 4315 H 664.407 -0.443485 -6.90277 0
M  V30 4316 H 665.274 1.75537 -7.96793 0
M  V30 4317 P 669.236 2.75334 -8.47391 0
M  V30 4318 O 669.456 3.84166 -9.4489 0
M  V30 4319 O 670.026 1.51964 -8.6881 0
M  V30 4320 O 669.486 3.29363 -6.99321 0
M  V30 4321 C 668.546 4.23956 -6.42656 0
M  V30 4322 C 669.276 5.20775 -5.52155 0
M  V30 4323 O 669.486 4.56534 -4.22446 0
M  V30 4324 C 670.676 5.62629 -5.96531 0
M  V30 4325 O 671.066 6.87667 -5.41053 0
M  V30 4326 C 671.556 4.52537 -5.39283 0
M  V30 4327 C 670.846 4.20027 -4.08623 0
M  V30 4328 N 670.896 2.7613 -3.71522 0
M  V30 4329 C 671.046 2.45612 -2.37989 0
M  V30 4330 O 671.136 3.30919 -1.51621 0
M  V30 4331 N 671.086 1.10684 -2.08435 0
M  V30 4332 C 670.996 0.0690084 -2.9792 0
M  V30 4333 C 670.846 0.481522 -4.35345 0
M  V30 4334 C 670.796 1.78906 -4.67968 0
M  V30 4335 H 668.056 4.797 -7.24003 0
M  V30 4336 H 667.787 3.69802 -5.84429 0
M  V30 4337 H 668.654 6.10356 -5.41441 0
M  V30 4338 H 671.309 4.78651 -3.27911 0
M  V30 4339 H 671.588 3.64957 -6.05871 0
M  V30 4340 H 672.58 4.8868 -5.2125 0
M  V30 4341 H 670.746 5.66726 -7.06352 0
M  V30 4342 H 670.675 2.07737 -5.72367 0
M  V30 4343 P 672.616 7.20834 -5.23717 0
M  V30 4344 O 672.836 8.66104 -5.38572 0
M  V30 4345 O 673.406 6.33544 -6.1349 0
M  V30 4346 O 672.866 6.7751 -3.72168 0
M  V30 4347 C 671.926 7.20825 -2.7076 0
M  V30 4348 C 672.656 7.45864 -1.40599 0
M  V30 4349 O 672.866 6.17651 -0.734225 0
M  V30 4350 C 674.056 8.05808 -1.51899 0
M  V30 4351 O 674.446 8.74358 -0.335205 0
M  V30 4352 C 674.936 6.83093 -1.70294 0
M  V30 4353 C 674.226 5.79992 -0.836974 0
M  V30 4354 N 674.276 4.41864 -1.38293 0
M  V30 4355 C 674.196 3.99538 -2.69438 0
M  V30 4356 N 674.276 2.69909 -2.84277 0
M  V30 4357 C 674.416 2.21719 -1.5408 0
M  V30 4358 C 674.546 0.891712 -1.06628 0
M  V30 4359 O 674.566 -0.161298 -1.70137 0
M  V30 4360 N 674.666 0.856846 0.334985 0
M  V30 4361 C 674.666 1.9641 1.15789 0
M  V30 4362 N 674.796 1.72708 2.46522 0
M  V30 4363 N 674.536 3.21165 0.713741 0
M  V30 4364 C 674.416 3.26797 -0.639748 0
M  V30 4365 H 671.437 8.13644 -3.0377 0
M  V30 4366 H 671.167 6.42788 -2.55485 0
M  V30 4367 H 672.034 8.12039 -0.792769 0
M  V30 4368 H 674.689 5.80061 0.166416 0
M  V30 4369 H 674.968 6.51287 -2.75604 0
M  V30 4370 H 675.96 7.01734 -1.34462 0
M  V30 4371 H 674.126 8.73674 -2.38337 0
M  V30 4372 H 674.077 4.68207 -3.53221 0
M  V30 4373 H 674.759 -0.0398818 0.767965 0
M  V30 4374 H 674.796 2.50995 3.13503 0
M  V30 4375 H 674.897 0.759148 2.80716 0
M  V30 4376 P 675.996 8.91 4.64125e-12 0
M  V30 4377 O 676.216 10.1736 0.733766 0
M  V30 4378 O 676.786 8.73247 -1.2395 0
M  V30 4379 O 676.246 7.66872 0.971405 0
M  V30 4380 C 675.306 7.42212 2.04614 0
M  V30 4381 C 676.036 6.86059 3.24661 0
M  V30 4382 O 676.246 5.42847 3.03646 0
M  V30 4383 C 677.436 7.41196 3.50753 0
M  V30 4384 O 677.826 7.27073 4.86816 0
M  V30 4385 C 678.316 6.5273 2.63741 0
M  V30 4386 C 677.606 5.1842 2.73198 0
M  V30 4387 N 677.656 4.38668 1.47808 0
M  V30 4388 C 677.806 3.02239 1.60048 0
M  V30 4389 O 677.896 2.46459 2.67869 0
M  V30 4390 N 677.846 2.32436 0.408571 0
M  V30 4391 C 677.756 2.85471 -0.854993 0
M  V30 4392 O 677.806 2.12566 -1.8531 0
M  V30 4393 C 677.606 4.28918 -0.887335 0
M  V30 4394 C 677.496 4.91066 -2.24619 0
M  V30 4395 C 677.556 5.00349 0.255399 0
M  V30 4396 H 674.816 8.36803 2.32493 0
M  V30 4397 H 674.547 6.701 1.71105 0
M  V30 4398 H 675.414 7.03551 4.13168 0
M  V30 4399 H 678.069 4.59773 3.53894 0
M  V30 4400 H 678.348 6.88995 1.59871 0
M  V30 4401 H 679.34 6.46749 3.03687 0
M  V30 4402 H 677.506 8.46908 3.20714 0
M  V30 4403 H 677.435 6.08548 0.206986 0
M  V30 4404 H 678.465 5.34836 -2.53099 0
M  V30 4405 H 676.728 5.69638 -2.2291 0
M  V30 4406 H 677.216 4.13971 -2.98044 0
M  V30 4407 H 677.952 1.33211 0.474216 0
M  V30 4408 P 679.376 7.20834 5.23717 0
M  V30 4409 O 679.596 7.79853 6.57286 0
M  V30 4410 O 680.166 7.79239 4.12957 0
M  V30 4411 O 679.626 5.63315 5.29344 0
M  V30 4412 C 678.686 4.80255 6.01876 0
M  V30 4413 C 679.416 3.64202 6.65911 0
M  V30 4414 O 679.626 2.60694 5.64732 0
M  V30 4415 C 680.816 3.93473 7.1943 0
M  V30 4416 O 681.206 3.02071 8.21205 0
M  V30 4417 C 681.696 3.73047 5.97036 0
M  V30 4418 C 680.986 2.58828 5.25741 0
M  V30 4419 N 681.036 2.68068 3.77503 0
M  V30 4420 C 680.956 3.79715 2.96723 0
M  V30 4421 N 681.036 3.5377 1.68852 0
M  V30 4422 C 681.176 2.15054 1.63254 0
M  V30 4423 C 681.306 1.28964 0.518571 0
M  V30 4424 N 681.426 -0.0538097 0.918425 0
M  V30 4425 C 681.426 -0.494275 2.22578 0
M  V30 4426 N 681.556 -1.81086 2.40434 0
M  V30 4427 N 681.296 0.313645 3.27502 0
M  V30 4428 C 681.176 1.61829 2.91033 0
M  V30 4429 H 678.197 5.40332 6.79951 0
M  V30 4430 H 677.927 4.41613 5.32378 0
M  V30 4431 H 678.794 3.26331 7.47797 0
M  V30 4432 P 682.756 2.75334 8.47391 0
M  V30 4433 O 682.976 2.44571 9.90142 0
M  V30 4434 O 683.546 3.87688 7.92115 0
M  V30 4435 O 683.006 1.4459 7.59357 0
M  V30 4436 C 682.066 0.347608 7.69215 0
M  V30 4437 C 682.796 -0.96767 7.52806 0
M  V30 4438 O 683.006 -1.21036 6.1011 0
M  V30 4439 C 684.196 -1.04544 8.13308 0
M  V30 4440 O 684.586 -2.38311 8.41922 0
M  V30 4441 C 685.076 -0.491279 7.02284 0
M  V30 4442 C 684.366 -0.996264 5.77469 0
M  V30 4443 N 684.416 -0.0501916 4.62973 0
M  V30 4444 H 681.577 0.374722 8.67691 0
M  V30 4445 H 681.307 0.443485 6.90277 0
M  V30 4446 H 682.174 -1.75537 7.96793 0
M  V30 4447 P 686.136 -2.75334 8.47391 0
M  V30 4448 O 686.356 -3.84166 9.4489 0
M  V30 4449 O 686.926 -1.51964 8.6881 0
M  V30 4450 O 686.386 -3.29363 6.99321 0
M  V30 4451 C 685.446 -4.23956 6.42656 0
M  V30 4452 C 686.176 -5.20775 5.52155 0
M  V30 4453 O 686.386 -4.56534 4.22446 0
M  V30 4454 C 687.576 -5.62629 5.96531 0
M  V30 4455 O 687.966 -6.87667 5.41053 0
M  V30 4456 C 688.456 -4.52537 5.39283 0
M  V30 4457 C 687.746 -4.20027 4.08623 0
M  V30 4458 N 687.796 -2.7613 3.71522 0
M  V30 4459 C 687.946 -2.45612 2.37989 0
M  V30 4460 O 688.036 -3.30919 1.51621 0
M  V30 4461 N 687.986 -1.10684 2.08435 0
M  V30 4462 C 687.896 -0.0690084 2.9792 0
M  V30 4463 C 687.746 -0.481522 4.35345 0
M  V30 4464 C 687.696 -1.78906 4.67968 0
M  V30 4465 H 684.956 -4.797 7.24003 0
M  V30 4466 H 684.687 -3.69802 5.84429 0
M  V30 4467 H 685.554 -6.10356 5.41441 0
M  V30 4468 H 688.209 -4.78651 3.27911 0
M  V30 4469 H 688.488 -3.64957 6.05871 0
M  V30 4470 H 689.48 -4.8868 5.2125 0
M  V30 4471 H 687.646 -5.66726 7.06352 0
M  V30 4472 H 687.575 -2.07737 5.72367 0
M  V30 4473 P 689.516 -7.20834 5.23717 0
M  V30 4474 O 689.736 -8.66104 5.38572 0
M  V30 4475 O 690.306 -6.33544 6.1349 0
M  V30 4476 O 689.766 -6.7751 3.72168 0
M  V30 4477 C 688.826 -7.20825 2.7076 0
M  V30 4478 C 689.556 -7.45864 1.40599 0
M  V30 4479 O 689.766 -6.17651 0.734225 0
M  V30 4480 C 690.956 -8.05808 1.51899 0
M  V30 4481 O 691.346 -8.74358 0.335205 0
M  V30 4482 C 691.836 -6.83093 1.70294 0
M  V30 4483 C 691.126 -5.79992 0.836974 0
M  V30 4484 N 691.176 -4.41864 1.38293 0
M  V30 4485 H 688.337 -8.13644 3.0377 0
M  V30 4486 H 688.067 -6.42788 2.55485 0
M  V30 4487 H 688.934 -8.12039 0.792769 0
M  V30 4488 P 692.896 -8.91 -4.67181e-12 0
M  V30 4489 O 693.116 -10.1736 -0.733766 0
M  V30 4490 O 693.686 -8.73247 1.2395 0
M  V30 4491 O 693.146 -7.66872 -0.971405 0
M  V30 4492 C 692.206 -7.42212 -2.04614 0
M  V30 4493 C 692.936 -6.86059 -3.24661 0
M  V30 4494 O 693.146 -5.42847 -3.03646 0
M  V30 4495 C 694.336 -7.41196 -3.50753 0
M  V30 4496 O 694.726 -7.27073 -4.86816 0
M  V30 4497 C 695.216 -6.5273 -2.63741 0
M  V30 4498 C 694.506 -5.1842 -2.73198 0
M  V30 4499 N 694.556 -4.38668 -1.47808 0
M  V30 4500 C 694.706 -3.02239 -1.60048 0
M  V30 4501 O 694.796 -2.46459 -2.67869 0
M  V30 4502 N 694.746 -2.32436 -0.408571 0
M  V30 4503 C 694.656 -2.85471 0.854993 0
M  V30 4504 C 694.506 -4.28918 0.887335 0
M  V30 4505 C 694.456 -5.00349 -0.255399 0
M  V30 4506 H 691.716 -8.36803 -2.32493 0
M  V30 4507 H 691.447 -6.701 -1.71105 0
M  V30 4508 H 692.314 -7.03551 -4.13168 0
M  V30 4509 H 694.969 -4.59773 -3.53894 0
M  V30 4510 H 695.248 -6.88995 -1.59871 0
M  V30 4511 H 696.24 -6.46749 -3.03687 0
M  V30 4512 H 694.406 -8.46908 -3.20714 0
M  V30 4513 H 694.335 -6.08548 -0.206986 0
M  V30 4514 P 696.276 -7.20834 -5.23717 0
M  V30 4515 O 696.496 -7.80006 -6.57415 0
M  V30 4516 O 697.066 -7.79416 -4.13051 0
M  V30 4517 O 696.526 -5.63315 -5.29344 0
M  V30 4518 C 695.586 -4.80318 -6.01954 0
M  V30 4519 C 696.316 -3.64202 -6.65911 0
M  V30 4520 O 696.526 -2.60736 -5.64823 0
M  V30 4521 C 697.716 -3.93521 -7.19518 0
M  V30 4522 O 698.106 -3.02071 -8.21205 0
M  V30 4523 C 698.596 -3.73047 -5.97036 0
M  V30 4524 C 697.886 -2.58828 -5.25741 0
M  V30 4525 N 697.936 -2.68068 -3.77503 0
M  V30 4526 H 695.098 -5.40394 -6.8003 0
M  V30 4527 H 694.826 -4.41741 -5.32532 0
M  V30 4528 H 695.694 -3.26371 -7.47889 0
M  V30 4529 H 698.349 -1.64007 -5.56746 0
M  V30 4530 H 698.629 -4.63439 -5.3432 0
M  V30 4531 H 699.62 -3.44776 -6.25925 0
M  V30 4532 H 697.786 -4.96707 -7.57347 0
M  V30 4533 P 699.656 -2.75334 -8.47391 0
M  V30 4534 O 699.876 -2.44571 -9.90142 0
M  V30 4535 O 700.446 -3.87688 -7.92115 0
M  V30 4536 O 699.906 -1.4459 -7.59357 0
M  V30 4537 C 698.966 -0.347608 -7.69215 0
M  V30 4538 C 699.696 0.96767 -7.52806 0
M  V30 4539 O 699.906 1.21036 -6.1011 0
M  V30 4540 C 701.096 1.04544 -8.13308 0
M  V30 4541 O 701.486 2.38311 -8.41922 0
M  V30 4542 C 701.976 0.491279 -7.02284 0
M  V30 4543 C 701.266 0.996264 -5.77469 0
M  V30 4544 N 701.316 0.0501916 -4.62973 0
M  V30 4545 H 698.477 -0.374722 -8.67691 0
M  V30 4546 H 698.207 -0.443485 -6.90277 0
M  V30 4547 H 699.074 1.75537 -7.96793 0
M  V30 4548 P 703.036 2.75334 -8.47391 0
M  V30 4549 O 703.256 3.84128 -9.44797 0
M  V30 4550 O 703.826 1.51947 -8.68712 0
M  V30 4551 O 703.286 3.29363 -6.99321 0
M  V30 4552 C 702.346 4.24011 -6.4274 0
M  V30 4553 C 703.076 5.20775 -5.52155 0
M  V30 4554 O 703.286 4.56534 -4.22446 0
M  V30 4555 C 704.476 5.62629 -5.96531 0
M  V30 4556 O 704.866 6.87667 -5.41053 0
M  V30 4557 C 705.356 4.52537 -5.39283 0
M  V30 4558 C 704.646 4.20027 -4.08623 0
M  V30 4559 N 704.696 2.76189 -3.71603 0
M  V30 4560 H 701.857 4.797 -7.24003 0
M  V30 4561 H 701.587 3.69856 -5.84513 0
M  V30 4562 H 702.454 6.10356 -5.41441 0
M  V30 4563 P 706.416 7.20834 -5.23717 0
M  V30 4564 O 706.636 8.66104 -5.38572 0
M  V30 4565 O 707.206 6.33544 -6.1349 0
M  V30 4566 O 706.666 6.7751 -3.72168 0
M  V30 4567 C 705.726 7.20825 -2.7076 0
M  V30 4568 C 706.456 7.45864 -1.40599 0
M  V30 4569 O 706.666 6.17651 -0.734225 0
M  V30 4570 C 707.856 8.05808 -1.51899 0
M  V30 4571 O 708.246 8.74358 -0.335205 0
M  V30 4572 C 708.736 6.83093 -1.70294 0
M  V30 4573 C 708.026 5.79992 -0.836974 0
M  V30 4574 N 708.076 4.41864 -1.38293 0
M  V30 4575 H 705.237 8.13644 -3.0377 0
M  V30 4576 H 704.967 6.42788 -2.55485 0
M  V30 4577 H 705.834 8.12039 -0.792769 0
M  V30 4578 P 709.796 8.91 4.82899e-12 0
M  V30 4579 O 710.016 10.1726 0.733694 0
M  V30 4580 O 710.586 8.73148 -1.23936 0
M  V30 4581 O 710.046 7.66872 0.971405 0
M  V30 4582 C 709.106 7.42309 2.04641 0
M  V30 4583 C 709.836 6.86059 3.24661 0
M  V30 4584 O 710.046 5.42847 3.03646 0
M  V30 4585 C 711.236 7.41196 3.50753 0
M  V30 4586 O 711.626 7.27073 4.86816 0
M  V30 4587 C 712.116 6.5273 2.63741 0
M  V30 4588 C 711.406 5.1842 2.73198 0
M  V30 4589 N 711.456 4.38762 1.4784 0
M  V30 4590 H 708.617 8.36803 2.32493 0
M  V30 4591 H 708.347 6.70197 1.71129 0
M  V30 4592 H 709.214 7.03551 4.13168 0
M  V30 4593 P 713.176 7.20834 5.23717 0
M  V30 4594 O 713.396 7.79853 6.57286 0
M  V30 4595 O 713.966 7.79239 4.12957 0
M  V30 4596 O 713.426 5.63315 5.29344 0
M  V30 4597 C 712.486 4.80255 6.01876 0
M  V30 4598 C 713.216 3.64202 6.65911 0
M  V30 4599 O 713.426 2.60694 5.64732 0
M  V30 4600 C 714.616 3.93473 7.1943 0
M  V30 4601 O 715.006 3.02071 8.21205 0
M  V30 4602 C 715.496 3.73047 5.97036 0
M  V30 4603 C 714.786 2.58828 5.25741 0
M  V30 4604 N 714.836 2.68068 3.77503 0
M  V30 4605 H 711.997 5.40332 6.79951 0
M  V30 4606 H 711.727 4.41613 5.32378 0
M  V30 4607 H 712.594 3.26331 7.47797 0
M  V30 4608 P 716.556 2.75334 8.47391 0
M  V30 4609 O 716.776 2.44571 9.90142 0
M  V30 4610 O 717.346 3.87688 7.92115 0
M  V30 4611 O 716.806 1.4459 7.59357 0
M  V30 4612 C 715.866 0.347608 7.69215 0
M  V30 4613 C 716.596 -0.96767 7.52806 0
M  V30 4614 O 716.806 -1.21036 6.1011 0
M  V30 4615 C 717.996 -1.04544 8.13308 0
M  V30 4616 O 718.386 -2.38311 8.41922 0
M  V30 4617 C 718.876 -0.491279 7.02284 0
M  V30 4618 C 718.166 -0.996264 5.77469 0
M  V30 4619 N 718.216 -0.0501916 4.62973 0
M  V30 4620 H 715.377 0.374722 8.67691 0
M  V30 4621 H 715.107 0.443485 6.90277 0
M  V30 4622 H 715.974 -1.75537 7.96793 0
M  V30 4623 P 719.936 -2.75334 8.47391 0
M  V30 4624 O 720.156 -3.84128 9.44797 0
M  V30 4625 O 720.726 -1.51947 8.68712 0
M  V30 4626 O 720.186 -3.29363 6.99321 0
M  V30 4627 C 719.246 -4.24011 6.4274 0
M  V30 4628 C 719.976 -5.20775 5.52155 0
M  V30 4629 O 720.186 -4.56534 4.22446 0
M  V30 4630 C 721.376 -5.62629 5.96531 0
M  V30 4631 O 721.766 -6.87667 5.41053 0
M  V30 4632 C 722.256 -4.52537 5.39283 0
M  V30 4633 C 721.546 -4.20027 4.08623 0
M  V30 4634 N 721.596 -2.76189 3.71603 0
M  V30 4635 C 721.516 -1.64862 4.52822 0
M  V30 4636 N 721.596 -0.512671 3.88633 0
M  V30 4637 C 721.736 -0.888083 2.54977 0
M  V30 4638 C 721.866 -0.094668 1.38677 0
M  V30 4639 N 721.986 -0.890102 0.232633 0
M  V30 4640 C 721.986 -2.26958 0.21772 0
M  V30 4641 N 722.116 -2.84626 -0.97925 0
M  V30 4642 N 721.856 -3.0178 1.31033 0
M  V30 4643 C 721.736 -2.26781 2.43843 0
M  V30 4644 H 718.757 -4.797 7.24003 0
M  V30 4645 H 718.487 -3.69856 5.84513 0
M  V30 4646 H 719.354 -6.10356 5.41441 0
M  V30 4647 P 723.316 -7.20834 5.23717 0
M  V30 4648 O 723.536 -8.66274 5.38678 0
M  V30 4649 O 724.106 -6.33687 6.13629 0
M  V30 4650 O 723.566 -6.7751 3.72168 0
M  V30 4651 C 722.626 -7.20919 2.70795 0
M  V30 4652 C 723.356 -7.45864 1.40599 0
M  V30 4653 O 723.566 -6.17751 0.734343 0
M  V30 4654 C 724.756 -8.05906 1.51917 0
M  V30 4655 O 725.146 -8.74358 0.335205 0
M  V30 4656 C 725.636 -6.83093 1.70294 0
M  V30 4657 C 724.926 -5.79992 0.836974 0
M  V30 4658 N 724.976 -4.41864 1.38293 0
M  V30 4659 H 722.138 -8.13738 3.03804 0
M  V30 4660 H 721.866 -6.42974 2.55559 0
M  V30 4661 H 722.734 -8.12139 0.792866 0
M  V30 4662 H 725.389 -5.80178 -0.160643 0
M  V30 4663 H 725.669 -6.51379 2.75643 0
M  V30 4664 H 726.66 -7.01832 1.3448 0
M  V30 4665 H 724.826 -8.73771 2.38364 0
M  V30 4666 P 726.696 -8.91 -4.98617e-12 0
M  V30 4667 O 726.916 -10.1726 -0.733694 0
M  V30 4668 O 727.486 -8.73148 1.23936 0
M  V30 4669 O 726.946 -7.66872 -0.971405 0
M  V30 4670 C 726.006 -7.42309 -2.04641 0
M  V30 4671 C 726.736 -6.86059 -3.24661 0
M  V30 4672 O 726.946 -5.42847 -3.03646 0
M  V30 4673 C 728.136 -7.41196 -3.50753 0
M  V30 4674 O 728.526 -7.27073 -4.86816 0
M  V30 4675 C 729.016 -6.5273 -2.63741 0
M  V30 4676 C 728.306 -5.1842 -2.73198 0
M  V30 4677 N 728.356 -4.38762 -1.4784 0
M  V30 4678 H 725.517 -8.36803 -2.32493 0
M  V30 4679 H 725.247 -6.70197 -1.71129 0
M  V30 4680 H 726.114 -7.03551 -4.13168 0
M  V30 4681 P 730.076 -7.20834 -5.23717 0
M  V30 4682 O 730.296 -7.79853 -6.57286 0
M  V30 4683 O 730.866 -7.79239 -4.12957 0
M  V30 4684 O 730.326 -5.63315 -5.29344 0
M  V30 4685 C 729.386 -4.80255 -6.01876 0
M  V30 4686 C 730.116 -3.64202 -6.65911 0
M  V30 4687 O 730.326 -2.60694 -5.64732 0
M  V30 4688 C 731.516 -3.93473 -7.1943 0
M  V30 4689 O 731.906 -3.02071 -8.21205 0
M  V30 4690 C 732.396 -3.73047 -5.97036 0
M  V30 4691 C 731.686 -2.58828 -5.25741 0
M  V30 4692 N 731.736 -2.68068 -3.77503 0
M  V30 4693 H 728.897 -5.40332 -6.79951 0
M  V30 4694 H 728.627 -4.41613 -5.32378 0
M  V30 4695 H 729.494 -3.26331 -7.47797 0
M  V30 4696 P 733.456 -2.75334 -8.47391 0
M  V30 4697 O 733.676 -2.44595 -9.90239 0
M  V30 4698 O 734.246 -3.87732 -7.92204 0
M  V30 4699 O 733.706 -1.4459 -7.59357 0
M  V30 4700 C 732.766 -0.347608 -7.69215 0
M  V30 4701 C 733.496 0.96767 -7.52806 0
M  V30 4702 O 733.706 1.21036 -6.1011 0
M  V30 4703 C 734.896 1.04544 -8.13308 0
M  V30 4704 O 735.286 2.38311 -8.41922 0
M  V30 4705 C 735.776 0.491279 -7.02284 0
M  V30 4706 C 735.066 0.996264 -5.77469 0
M  V30 4707 N 735.116 0.0501808 -4.62873 0
M  V30 4708 C 735.266 0.578037 -3.3505 0
M  V30 4709 O 735.356 1.8073 -3.21711 0
M  V30 4710 N 735.316 -0.468541 -2.263 0
M  V30 4711 C 735.216 -1.59186 -2.47176 0
M  V30 4712 N 735.266 -2.37626 -1.40392 0
M  V30 4713 C 735.066 -2.16203 -3.77467 0
M  V30 4714 C 735.016 -1.29324 -4.8195 0
M  V30 4715 H 732.276 -0.374679 -8.67591 0
M  V30 4716 H 732.007 -0.443421 -6.90177 0
M  V30 4717 H 732.874 1.75559 -7.96891 0
M  V30 4718 H 735.529 1.94529 -5.46723 0
M  V30 4719 H 735.808 -0.608651 -7.04676 0
M  V30 4720 H 736.8 0.889672 -7.08939 0
M  V30 4721 H 734.966 0.43308 -9.04564 0
M  V30 4722 H 734.894 -1.67758 -5.83046 0
M  V30 4723 H 734.996 -3.23869 -3.92281 0
M  V30 4724 H 735.384 -1.96317 -0.467202 0
M  V30 4725 H 735.187 -3.39693 -1.51142 0
M  V30 4726 P 736.836 2.75334 -8.47391 0
M  V30 4727 O 737.056 3.84128 -9.44797 0
M  V30 4728 O 737.626 1.51947 -8.68712 0
M  V30 4729 O 737.086 3.29363 -6.99321 0
M  V30 4730 C 736.146 4.24011 -6.4274 0
M  V30 4731 C 736.876 5.20775 -5.52155 0
M  V30 4732 O 737.086 4.56534 -4.22446 0
M  V30 4733 C 738.276 5.62629 -5.96531 0
M  V30 4734 O 738.666 6.87667 -5.41053 0
M  V30 4735 C 739.156 4.52537 -5.39283 0
M  V30 4736 C 738.446 4.20027 -4.08623 0
M  V30 4737 N 738.496 2.76189 -3.71603 0
M  V30 4738 C 738.416 1.64862 -4.52822 0
M  V30 4739 N 738.496 0.512671 -3.88633 0
M  V30 4740 C 738.636 0.888083 -2.54977 0
M  V30 4741 C 738.766 0.094668 -1.38677 0
M  V30 4742 N 738.886 0.890102 -0.232633 0
M  V30 4743 C 738.886 2.26958 -0.21772 0
M  V30 4744 N 739.016 2.84626 0.97925 0
M  V30 4745 N 738.756 3.0178 -1.31033 0
M  V30 4746 C 738.636 2.26781 -2.43843 0
M  V30 4747 H 735.657 4.797 -7.24003 0
M  V30 4748 H 735.387 3.69856 -5.84513 0
M  V30 4749 H 736.254 6.10356 -5.41441 0
M  V30 4750 P 740.216 7.20834 -5.23717 0
M  V30 4751 O 740.436 8.66274 -5.38678 0
M  V30 4752 O 741.006 6.33687 -6.13629 0
M  V30 4753 O 740.466 6.7751 -3.72168 0
M  V30 4754 C 739.526 7.20919 -2.70795 0
M  V30 4755 C 740.256 7.45864 -1.40599 0
M  V30 4756 O 740.466 6.17751 -0.734343 0
M  V30 4757 C 741.656 8.05906 -1.51917 0
M  V30 4758 O 742.046 8.74358 -0.335205 0
M  V30 4759 C 742.536 6.83093 -1.70294 0
M  V30 4760 C 741.826 5.79992 -0.836974 0
M  V30 4761 N 741.876 4.41864 -1.38293 0
M  V30 4762 C 741.796 4.02089 -2.69407 0
M  V30 4763 N 741.866 2.73403 -2.85089 0
M  V30 4764 C 742.016 2.25086 -1.5642 0
M  V30 4765 C 742.146 0.942887 -1.04836 0
M  V30 4766 N 742.156 -0.150999 -1.80369 0
M  V30 4767 N 742.266 0.812565 0.28167 0
M  V30 4768 C 742.256 1.90572 1.03784 0
M  V30 4769 N 742.136 3.167 0.683905 0
M  V30 4770 C 742.016 3.26538 -0.652815 0
M  V30 4771 H 739.038 8.13738 -3.03804 0
M  V30 4772 H 738.766 6.42974 -2.55559 0
M  V30 4773 H 739.634 8.12139 -0.792866 0
M  V30 4774 H 742.289 5.80178 0.160643 0
M  V30 4775 H 742.569 6.51379 -2.75643 0
M  V30 4776 H 743.56 7.01832 -1.3448 0
M  V30 4777 H 741.726 8.73771 -2.38364 0
M  V30 4778 H 741.685 4.7189 -3.52311 0
M  V30 4779 H 742.066 -0.0721434 -2.82608 0
M  V30 4780 H 742.255 -1.0785 -1.36544 0
M  V30 4781 H 742.363 1.73207 2.10241 0
M  V30 4782 P 743.596 8.91 5.14336e-12 0
M  V30 4783 O 743.816 10.1726 0.733694 0
M  V30 4784 O 744.386 8.73148 -1.23936 0
M  V30 4785 O 743.846 7.66872 0.971405 0
M  V30 4786 C 742.906 7.42309 2.04641 0
M  V30 4787 C 743.636 6.86059 3.24661 0
M  V30 4788 O 743.846 5.42847 3.03646 0
M  V30 4789 C 745.036 7.41196 3.50753 0
M  V30 4790 O 745.426 7.27073 4.86816 0
M  V30 4791 C 745.916 6.5273 2.63741 0
M  V30 4792 C 745.206 5.1842 2.73198 0
M  V30 4793 N 745.256 4.38762 1.4784 0
M  V30 4794 H 742.417 8.36803 2.32493 0
M  V30 4795 H 742.147 6.70197 1.71129 0
M  V30 4796 H 743.014 7.03551 4.13168 0
M  V30 4797 P 746.976 7.20834 5.23717 0
M  V30 4798 O 747.196 7.79853 6.57286 0
M  V30 4799 O 747.766 7.79239 4.12957 0
M  V30 4800 O 747.226 5.63315 5.29344 0
M  V30 4801 C 746.286 4.80255 6.01876 0
M  V30 4802 C 747.016 3.64202 6.65911 0
M  V30 4803 O 747.226 2.60694 5.64732 0
M  V30 4804 C 748.416 3.93473 7.1943 0
M  V30 4805 O 748.806 3.02071 8.21205 0
M  V30 4806 C 749.296 3.73047 5.97036 0
M  V30 4807 C 748.586 2.58828 5.25741 0
M  V30 4808 N 748.636 2.68068 3.77503 0
M  V30 4809 C 748.556 3.79715 2.96723 0
M  V30 4810 N 748.636 3.5377 1.68852 0
M  V30 4811 C 748.776 2.15054 1.63254 0
M  V30 4812 C 748.906 1.28964 0.518571 0
M  V30 4813 N 749.026 -0.0538097 0.918425 0
M  V30 4814 C 749.026 -0.494275 2.22578 0
M  V30 4815 N 749.156 -1.81086 2.40434 0
M  V30 4816 N 748.896 0.313645 3.27502 0
M  V30 4817 C 748.776 1.61829 2.91033 0
M  V30 4818 H 745.797 5.40332 6.79951 0
M  V30 4819 H 745.527 4.41613 5.32378 0
M  V30 4820 H 746.394 3.26331 7.47797 0
M  V30 4821 P 750.356 2.75334 8.47391 0
M  V30 4822 O 750.576 2.44571 9.90142 0
M  V30 4823 O 751.146 3.87688 7.92115 0
M  V30 4824 O 750.606 1.4459 7.59357 0
M  V30 4825 C 749.666 0.347608 7.69215 0
M  V30 4826 C 750.396 -0.96767 7.52806 0
M  V30 4827 O 750.606 -1.21036 6.1011 0
M  V30 4828 C 751.796 -1.04544 8.13308 0
M  V30 4829 O 752.186 -2.38311 8.41922 0
M  V30 4830 C 752.676 -0.491279 7.02284 0
M  V30 4831 C 751.966 -0.996264 5.77469 0
M  V30 4832 N 752.016 -0.0501916 4.62973 0
M  V30 4833 H 749.177 0.374722 8.67691 0
M  V30 4834 H 748.907 0.443485 6.90277 0
M  V30 4835 H 749.774 -1.75537 7.96793 0
M  V30 4836 P 753.736 -2.75334 8.47391 0
M  V30 4837 O 753.956 -3.84128 9.44797 0
M  V30 4838 O 754.526 -1.51947 8.68712 0
M  V30 4839 O 753.986 -3.29363 6.99321 0
M  V30 4840 C 753.046 -4.24011 6.4274 0
M  V30 4841 C 753.776 -5.20775 5.52155 0
M  V30 4842 O 753.986 -4.56534 4.22446 0
M  V30 4843 C 755.176 -5.62629 5.96531 0
M  V30 4844 O 755.566 -6.87667 5.41053 0
M  V30 4845 C 756.056 -4.52537 5.39283 0
M  V30 4846 C 755.346 -4.20027 4.08623 0
M  V30 4847 N 755.396 -2.76189 3.71603 0
M  V30 4848 H 752.557 -4.797 7.24003 0
M  V30 4849 H 752.287 -3.69856 5.84513 0
M  V30 4850 H 753.154 -6.10356 5.41441 0
M  V30 4851 P 757.116 -7.20834 5.23717 0
M  V30 4852 O 757.336 -8.66189 5.38625 0
M  V30 4853 O 757.906 -6.33615 6.1356 0
M  V30 4854 O 757.366 -6.7751 3.72168 0
M  V30 4855 C 756.426 -7.20825 2.7076 0
M  V30 4856 C 757.156 -7.45864 1.40599 0
M  V30 4857 O 757.366 -6.17651 0.734225 0
M  V30 4858 C 758.556 -8.05808 1.51899 0
M  V30 4859 O 758.946 -8.74358 0.335205 0
M  V30 4860 C 759.436 -6.83093 1.70294 0
M  V30 4861 C 758.726 -5.79992 0.836974 0
M  V30 4862 N 758.776 -4.41769 1.38263 0
M  V30 4863 C 758.926 -3.36514 0.485617 0
M  V30 4864 O 759.016 -3.61814 -0.724703 0
M  V30 4865 N 758.976 -2.00746 1.14492 0
M  V30 4866 C 758.876 -1.85887 2.27776 0
M  V30 4867 N 758.926 -0.600907 2.69379 0
M  V30 4868 C 758.726 -2.92182 3.22265 0
M  V30 4869 C 758.676 -4.18399 2.71925 0
M  V30 4870 H 755.936 -8.1355 3.03735 0
M  V30 4871 H 755.667 -6.42695 2.55448 0
M  V30 4872 H 756.534 -8.12139 0.792866 0
M  V30 4873 H 759.189 -5.80078 -0.160615 0
M  V30 4874 H 759.468 -6.51379 2.75643 0
M  V30 4875 H 760.46 -7.01734 1.34462 0
M  V30 4876 H 758.626 -8.73674 2.38337 0
M  V30 4877 H 758.554 -5.02669 3.39718 0
M  V30 4878 H 758.656 -2.73001 4.29239 0
M  V30 4879 H 759.044 0.162318 2.01146 0
M  V30 4880 H 758.847 -0.387742 3.69773 0
M  V30 4881 P 760.496 -8.91 -5.30054e-12 0
M  V30 4882 O 760.716 -10.1726 -0.733694 0
M  V30 4883 O 761.286 -8.73148 1.23936 0
M  V30 4884 O 760.746 -7.66872 -0.971405 0
M  V30 4885 C 759.806 -7.42309 -2.04641 0
M  V30 4886 C 760.536 -6.86059 -3.24661 0
M  V30 4887 O 760.746 -5.42847 -3.03646 0
M  V30 4888 C 761.936 -7.41196 -3.50753 0
M  V30 4889 O 762.326 -7.27073 -4.86816 0
M  V30 4890 C 762.816 -6.5273 -2.63741 0
M  V30 4891 C 762.106 -5.1842 -2.73198 0
M  V30 4892 N 762.156 -4.38762 -1.4784 0
M  V30 4893 H 759.317 -8.36803 -2.32493 0
M  V30 4894 H 759.047 -6.70197 -1.71129 0
M  V30 4895 H 759.914 -7.03551 -4.13168 0
M  V30 4896 P 763.875 -7.20834 -5.23717 0
M  V30 4897 O 764.095 -7.79853 -6.57286 0
M  V30 4898 O 764.665 -7.79239 -4.12957 0
M  V30 4899 O 764.125 -5.63315 -5.29344 0
M  V30 4900 C 763.185 -4.80255 -6.01876 0
M  V30 4901 C 763.915 -3.64202 -6.65911 0
M  V30 4902 O 764.125 -2.60694 -5.64732 0
M  V30 4903 C 765.315 -3.93473 -7.1943 0
M  V30 4904 O 765.705 -3.02071 -8.21205 0
M  V30 4905 C 766.195 -3.73047 -5.97036 0
M  V30 4906 C 765.485 -2.58828 -5.25741 0
M  V30 4907 N 765.535 -2.68068 -3.77503 0
M  V30 4908 C 765.455 -3.79715 -2.96723 0
M  V30 4909 N 765.535 -3.5377 -1.68852 0
M  V30 4910 C 765.675 -2.15054 -1.63254 0
M  V30 4911 C 765.805 -1.28964 -0.518571 0
M  V30 4912 N 765.925 0.0538097 -0.918425 0
M  V30 4913 C 765.925 0.494275 -2.22578 0
M  V30 4914 N 766.055 1.81086 -2.40434 0
M  V30 4915 N 765.795 -0.313645 -3.27502 0
M  V30 4916 C 765.675 -1.61829 -2.91033 0
M  V30 4917 H 762.696 -5.40332 -6.79951 0
M  V30 4918 H 762.426 -4.41613 -5.32378 0
M  V30 4919 H 763.293 -3.26331 -7.47797 0
M  V30 4920 P 767.255 -2.75334 -8.47391 0
M  V30 4921 O 767.475 -2.44619 -9.90336 0
M  V30 4922 O 768.045 -3.87776 -7.92294 0
M  V30 4923 O 767.505 -1.4459 -7.59357 0
M  V30 4924 C 766.565 -0.347653 -7.69315 0
M  V30 4925 C 767.295 0.96767 -7.52806 0
M  V30 4926 O 767.505 1.21055 -6.10208 0
M  V30 4927 C 768.695 1.04557 -8.13408 0
M  V30 4928 O 769.085 2.38311 -8.41922 0
M  V30 4929 C 769.575 0.491279 -7.02284 0
M  V30 4930 C 768.865 0.996264 -5.77469 0
M  V30 4931 N 768.915 0.0501916 -4.62973 0
M  V30 4932 H 766.077 -0.374765 -8.67791 0
M  V30 4933 H 765.805 -0.443613 -6.90476 0
M  V30 4934 H 766.673 1.75559 -7.96891 0
M  V30 4935 H 769.328 1.94563 -5.46818 0
M  V30 4936 H 769.608 -0.608651 -7.04676 0
M  V30 4937 H 770.599 0.889796 -7.09039 0
M  V30 4938 H 768.765 0.433128 -9.04664 0
M  V30 4939 P 770.635 2.75334 -8.47391 0
M  V30 4940 O 770.855 3.84204 -9.44982 0
M  V30 4941 O 771.425 1.51982 -8.68909 0
M  V30 4942 O 770.885 3.29363 -6.99321 0
M  V30 4943 C 769.945 4.24066 -6.42823 0
M  V30 4944 C 770.675 5.20775 -5.52155 0
M  V30 4945 O 770.885 4.56607 -4.22514 0
M  V30 4946 C 772.075 5.62697 -5.96604 0
M  V30 4947 O 772.465 6.87667 -5.41053 0
M  V30 4948 C 772.955 4.52537 -5.39283 0
M  V30 4949 C 772.245 4.20027 -4.08623 0
M  V30 4950 N 772.295 2.76189 -3.71603 0
M  V30 4951 C 772.215 1.66944 -4.54297 0
M  V30 4952 N 772.285 0.536169 -3.91344 0
M  V30 4953 C 772.435 0.901569 -2.58849 0
M  V30 4954 C 772.565 0.146599 -1.40236 0
M  V30 4955 N 772.575 -1.18234 -1.37046 0
M  V30 4956 N 772.685 0.822941 -0.249738 0
M  V30 4957 C 772.675 2.15179 -0.280525 0
M  V30 4958 N 772.555 2.96414 -1.30822 0
M  V30 4959 C 772.435 2.25804 -2.44748 0
M  V30 4960 H 769.457 4.79756 -7.24086 0
M  V30 4961 H 769.185 3.69963 -5.84682 0
M  V30 4962 H 770.053 6.10431 -5.41508 0
M  V30 4963 H 772.708 4.78816 -3.28024 0
M  V30 4964 H 772.988 3.64957 -6.05871 0
M  V30 4965 H 773.979 4.88748 -5.21323 0
M  V30 4966 H 772.145 5.66789 -7.0643 0
M  V30 4967 H 772.104 1.74684 -5.62396 0
M  V30 4968 H 772.485 -1.71949 -2.24394 0
M  V30 4969 H 772.674 -1.67511 -0.470742 0
M  V30 4970 H 772.782 2.63704 0.6828 0
M  V30 4971 P 774.015 7.20834 -5.23717 0
M  V30 4972 O 774.235 8.66274 -5.38678 0
M  V30 4973 O 774.805 6.33687 -6.13629 0
M  V30 4974 O 774.265 6.7751 -3.72168 0
M  V30 4975 C 773.325 7.20919 -2.70795 0
M  V30 4976 C 774.055 7.45864 -1.40599 0
M  V30 4977 O 774.265 6.17751 -0.734343 0
M  V30 4978 C 775.455 8.05906 -1.51917 0
M  V30 4979 O 775.845 8.74358 -0.335205 0
M  V30 4980 C 776.335 6.83093 -1.70294 0
M  V30 4981 C 775.625 5.79992 -0.836974 0
M  V30 4982 N 775.675 4.41864 -1.38293 0
M  V30 4983 C 775.595 4.02089 -2.69407 0
M  V30 4984 N 775.665 2.73403 -2.85089 0
M  V30 4985 C 775.815 2.25086 -1.5642 0
M  V30 4986 C 775.945 0.942887 -1.04836 0
M  V30 4987 N 775.955 -0.150999 -1.80369 0
M  V30 4988 N 776.065 0.812565 0.28167 0
M  V30 4989 C 776.055 1.90572 1.03784 0
M  V30 4990 N 775.935 3.167 0.683905 0
M  V30 4991 C 775.815 3.26538 -0.652815 0
M  V30 4992 H 772.837 8.13738 -3.03804 0
M  V30 4993 H 772.565 6.42974 -2.55559 0
M  V30 4994 H 773.433 8.12139 -0.792866 0
M  V30 4995 H 776.088 5.80178 0.160643 0
M  V30 4996 H 776.368 6.51379 -2.75643 0
M  V30 4997 H 777.359 7.01832 -1.3448 0
M  V30 4998 H 775.525 8.73771 -2.38364 0
M  V30 4999 H 775.484 4.7189 -3.52311 0
M  V30 5000 H 775.865 -0.0721434 -2.82608 0
M  V30 5001 H 776.054 -1.0785 -1.36544 0
M  V30 5002 H 776.162 1.73207 2.10241 0
M  V30 5003 P 777.395 8.91 5.45772e-12 0
M  V30 5004 O 777.615 10.1746 0.733838 0
M  V30 5005 O 778.185 8.73346 -1.23964 0
M  V30 5006 O 777.645 7.66872 0.971405 0
M  V30 5007 C 776.705 7.42405 2.04668 0
M  V30 5008 C 777.435 6.86059 3.24661 0
M  V30 5009 O 777.645 5.42934 3.03695 0
M  V30 5010 C 778.835 7.41287 3.50796 0
M  V30 5011 O 779.225 7.27073 4.86816 0
M  V30 5012 C 779.715 6.5273 2.63741 0
M  V30 5013 C 779.005 5.1842 2.73198 0
M  V30 5014 N 779.055 4.38762 1.4784 0
M  V30 5015 C 778.975 4.83651 0.183876 0
M  V30 5016 N 779.045 3.88759 -0.699393 0
M  V30 5017 C 779.195 2.7404 0.0575568 0
M  V30 5018 C 779.325 1.37902 -0.293928 0
M  V30 5019 N 779.335 0.938021 -1.54797 0
M  V30 5020 N 779.445 0.491817 0.70549 0
M  V30 5021 C 779.435 0.931735 1.95979 0
M  V30 5022 N 779.315 2.16017 2.41481 0
M  V30 5023 C 779.195 3.02547 1.39121 0
M  V30 5024 H 776.217 8.36899 2.3252 0
M  V30 5025 H 775.945 6.70391 1.71179 0
M  V30 5026 H 776.813 7.03638 4.13219 0
M  V30 5027 H 779.468 4.59931 3.54016 0
M  V30 5028 H 779.748 6.88995 1.59871 0
M  V30 5029 H 780.739 6.4684 3.0373 0
M  V30 5030 H 778.905 8.47002 3.20749 0
M  V30 5031 H 778.864 5.8885 -0.0765548 0
M  V30 5032 H 779.245 1.60276 -2.32875 0
M  V30 5033 H 779.434 -0.0699355 -1.73859 0
M  V30 5034 H 779.542 0.165507 2.71897 0
M  V30 5035 P 780.775 7.20834 5.23717 0
M  V30 5036 O 780.995 7.79853 6.57286 0
M  V30 5037 O 781.565 7.79239 4.12957 0
M  V30 5038 O 781.025 5.63315 5.29344 0
M  V30 5039 C 780.085 4.80255 6.01876 0
M  V30 5040 C 780.815 3.64202 6.65911 0
M  V30 5041 O 781.025 2.60694 5.64732 0
M  V30 5042 C 782.215 3.93473 7.1943 0
M  V30 5043 O 782.605 3.02071 8.21205 0
M  V30 5044 C 783.095 3.73047 5.97036 0
M  V30 5045 C 782.385 2.58828 5.25741 0
M  V30 5046 N 782.435 2.68068 3.77503 0
M  V30 5047 H 779.596 5.40332 6.79951 0
M  V30 5048 H 779.326 4.41613 5.32378 0
M  V30 5049 H 780.193 3.26331 7.47797 0
M  V30 5050 P 784.155 2.75334 8.47391 0
M  V30 5051 O 784.375 2.44571 9.90142 0
M  V30 5052 O 784.945 3.87688 7.92115 0
M  V30 5053 O 784.405 1.4459 7.59357 0
M  V30 5054 C 783.465 0.347608 7.69215 0
M  V30 5055 C 784.195 -0.96767 7.52806 0
M  V30 5056 O 784.405 -1.21036 6.1011 0
M  V30 5057 C 785.595 -1.04544 8.13308 0
M  V30 5058 O 785.985 -2.38311 8.41922 0
M  V30 5059 C 786.475 -0.491279 7.02284 0
M  V30 5060 C 785.765 -0.996264 5.77469 0
M  V30 5061 N 785.815 -0.0501916 4.62973 0
M  V30 5062 C 785.735 1.32786 4.63244 0
M  V30 5063 N 785.815 1.86957 3.44545 0
M  V30 5064 C 785.955 0.780241 2.58481 0
M  V30 5065 C 786.085 0.738536 1.17757 0
M  V30 5066 N 786.205 -0.58337 0.711393 0
M  V30 5067 C 786.205 -1.70816 1.51017 0
M  V30 5068 N 786.335 -2.87826 0.880757 0
M  V30 5069 N 786.075 -1.67126 2.8339 0
M  V30 5070 C 785.955 -0.401421 3.30572 0
M  V30 5071 H 782.976 0.374722 8.67691 0
M  V30 5072 H 782.706 0.443485 6.90277 0
M  V30 5073 H 783.573 -1.75537 7.96793 0
M  V30 5074 P 787.535 -2.75334 8.47391 0
M  V30 5075 O 787.755 -3.84128 9.44797 0
M  V30 5076 O 788.325 -1.51947 8.68712 0
M  V30 5077 O 787.785 -3.29363 6.99321 0
M  V30 5078 C 786.845 -4.24011 6.4274 0
M  V30 5079 C 787.575 -5.20775 5.52155 0
M  V30 5080 O 787.785 -4.56534 4.22446 0
M  V30 5081 C 788.975 -5.62629 5.96531 0
M  V30 5082 O 789.365 -6.87667 5.41053 0
M  V30 5083 C 789.855 -4.52537 5.39283 0
M  V30 5084 C 789.145 -4.20027 4.08623 0
M  V30 5085 N 789.195 -2.76189 3.71603 0
M  V30 5086 H 786.356 -4.797 7.24003 0
M  V30 5087 H 786.086 -3.69856 5.84513 0
M  V30 5088 H 786.953 -6.10356 5.41441 0
M  V30 5089 P 790.915 -7.20834 5.23717 0
M  V30 5090 O 791.135 -8.66104 5.38572 0
M  V30 5091 O 791.705 -6.33544 6.1349 0
M  V30 5092 O 791.165 -6.7751 3.72168 0
M  V30 5093 C 790.225 -7.20825 2.7076 0
M  V30 5094 C 790.955 -7.45864 1.40599 0
M  V30 5095 O 791.165 -6.17651 0.734225 0
M  V30 5096 C 792.355 -8.05808 1.51899 0
M  V30 5097 O 792.745 -8.74358 0.335205 0
M  V30 5098 C 793.235 -6.83093 1.70294 0
M  V30 5099 C 792.525 -5.79992 0.836974 0
M  V30 5100 N 792.575 -4.41864 1.38293 0
M  V30 5101 H 789.736 -8.13644 3.0377 0
M  V30 5102 H 789.466 -6.42788 2.55485 0
M  V30 5103 H 790.333 -8.12039 0.792769 0
M  V30 5104 P 794.295 -8.91 -5.6149e-12 0
M  V30 5105 O 794.515 -10.1726 -0.733694 0
M  V30 5106 O 795.085 -8.73148 1.23936 0
M  V30 5107 O 794.545 -7.66872 -0.971405 0
M  V30 5108 C 793.605 -7.42309 -2.04641 0
M  V30 5109 C 794.335 -6.86059 -3.24661 0
M  V30 5110 O 794.545 -5.42847 -3.03646 0
M  V30 5111 C 795.735 -7.41196 -3.50753 0
M  V30 5112 O 796.125 -7.27073 -4.86816 0
M  V30 5113 C 796.615 -6.5273 -2.63741 0
M  V30 5114 C 795.905 -5.1842 -2.73198 0
M  V30 5115 N 795.955 -4.38762 -1.4784 0
M  V30 5116 H 793.116 -8.36803 -2.32493 0
M  V30 5117 H 792.846 -6.70197 -1.71129 0
M  V30 5118 H 793.713 -7.03551 -4.13168 0
M  V30 5119 P 797.675 -7.20834 -5.23717 0
M  V30 5120 O 797.895 -7.79853 -6.57286 0
M  V30 5121 O 798.465 -7.79239 -4.12957 0
M  V30 5122 O 797.925 -5.63315 -5.29344 0
M  V30 5123 C 796.985 -4.80255 -6.01876 0
M  V30 5124 C 797.715 -3.64202 -6.65911 0
M  V30 5125 O 797.925 -2.60694 -5.64732 0
M  V30 5126 C 799.115 -3.93473 -7.1943 0
M  V30 5127 O 799.505 -3.02071 -8.21205 0
M  V30 5128 C 799.995 -3.73047 -5.97036 0
M  V30 5129 C 799.285 -2.58828 -5.25741 0
M  V30 5130 N 799.335 -2.68068 -3.77503 0
M  V30 5131 C 799.255 -3.79715 -2.96723 0
M  V30 5132 N 799.335 -3.5377 -1.68852 0
M  V30 5133 C 799.475 -2.15054 -1.63254 0
M  V30 5134 C 799.605 -1.28964 -0.518571 0
M  V30 5135 O 799.625 -1.56826 0.679156 0
M  V30 5136 N 799.725 0.0538097 -0.918425 0
M  V30 5137 C 799.725 0.494275 -2.22578 0
M  V30 5138 N 799.855 1.81086 -2.40434 0
M  V30 5139 N 799.595 -0.313645 -3.27502 0
M  V30 5140 C 799.475 -1.61829 -2.91033 0
M  V30 5141 H 796.496 -5.40332 -6.79951 0
M  V30 5142 H 796.226 -4.41613 -5.32378 0
M  V30 5143 H 797.093 -3.26331 -7.47797 0
M  V30 5144 H 799.748 -1.63422 -5.56814 0
M  V30 5145 H 800.027 -4.63374 -5.34244 0
M  V30 5146 H 801.019 -3.44728 -6.25838 0
M  V30 5147 H 799.185 -4.96652 -7.57263 0
M  V30 5148 H 799.136 -4.80617 -3.3614 0
M  V30 5149 H 799.818 0.742702 -0.199384 0
M  V30 5150 H 799.855 2.20598 -3.35588 0
M  V30 5151 H 799.956 2.43518 -1.58945 0
M  V30 5152 P 801.055 -2.75334 -8.47391 0
M  V30 5153 O 801.275 -2.44619 -9.90336 0
M  V30 5154 O 801.845 -3.87776 -7.92294 0
M  V30 5155 O 801.305 -1.4459 -7.59357 0
M  V30 5156 C 800.365 -0.347653 -7.69315 0
M  V30 5157 C 801.095 0.96767 -7.52806 0
M  V30 5158 O 801.305 1.21055 -6.10208 0
M  V30 5159 C 802.495 1.04557 -8.13408 0
M  V30 5160 O 802.885 2.38311 -8.41922 0
M  V30 5161 C 803.375 0.491279 -7.02284 0
M  V30 5162 C 802.665 0.996264 -5.77469 0
M  V30 5163 N 802.715 0.0501916 -4.62973 0
M  V30 5164 C 802.635 -1.31969 -4.65661 0
M  V30 5165 N 802.705 -1.86649 -3.48119 0
M  V30 5166 C 802.855 -0.792089 -2.62406 0
M  V30 5167 C 802.985 -0.705684 -1.2207 0
M  V30 5168 N 802.995 -1.76207 -0.413762 0
M  V30 5169 N 803.105 0.518981 -0.685754 0
M  V30 5170 C 803.095 1.57595 -1.49174 0
M  V30 5171 N 802.975 1.62909 -2.80066 0
M  V30 5172 C 802.855 0.388195 -3.3073 0
M  V30 5173 H 799.877 -0.374765 -8.67791 0
M  V30 5174 H 799.605 -0.443613 -6.90476 0
M  V30 5175 H 800.473 1.75559 -7.96891 0
M  V30 5176 H 803.128 1.94563 -5.46818 0
M  V30 5177 H 803.408 -0.608651 -7.04676 0
M  V30 5178 H 804.399 0.889796 -7.09039 0
M  V30 5179 H 802.565 0.433128 -9.04664 0
M  V30 5180 H 802.524 -1.89246 -5.57664 0
M  V30 5181 H 802.905 -2.71005 -0.804694 0
M  V30 5182 H 803.094 -1.63189 0.603768 0
M  V30 5183 H 803.202 2.53475 -0.997614 0
M  V30 5184 P 804.435 2.75334 -8.47391 0
M  V30 5185 O 804.655 3.84128 -9.44797 0
M  V30 5186 O 805.225 1.51947 -8.68712 0
M  V30 5187 O 804.685 3.29363 -6.99321 0
M  V30 5188 C 803.745 4.24011 -6.4274 0
M  V30 5189 C 804.475 5.20775 -5.52155 0
M  V30 5190 O 804.685 4.56534 -4.22446 0
M  V30 5191 C 805.875 5.62629 -5.96531 0
M  V30 5192 O 806.265 6.87667 -5.41053 0
M  V30 5193 C 806.755 4.52537 -5.39283 0
M  V30 5194 C 806.045 4.20027 -4.08623 0
M  V30 5195 N 806.095 2.76189 -3.71603 0
M  V30 5196 H 803.256 4.797 -7.24003 0
M  V30 5197 H 802.986 3.69856 -5.84513 0
M  V30 5198 H 803.853 6.10356 -5.41441 0
M  V30 5199 P 807.815 7.20834 -5.23717 0
M  V30 5200 O 808.035 8.66104 -5.38572 0
M  V30 5201 O 808.605 6.33544 -6.1349 0
M  V30 5202 O 808.065 6.7751 -3.72168 0
M  V30 5203 C 807.125 7.20825 -2.7076 0
M  V30 5204 C 807.855 7.45864 -1.40599 0
M  V30 5205 O 808.065 6.17651 -0.734225 0
M  V30 5206 C 809.255 8.05808 -1.51899 0
M  V30 5207 O 809.645 8.74358 -0.335205 0
M  V30 5208 C 810.135 6.83093 -1.70294 0
M  V30 5209 C 809.425 5.79992 -0.836974 0
M  V30 5210 N 809.475 4.41864 -1.38293 0
M  V30 5211 H 806.636 8.13644 -3.0377 0
M  V30 5212 H 806.366 6.42788 -2.55485 0
M  V30 5213 H 807.233 8.12039 -0.792769 0
M  V30 5214 P 811.195 8.91 5.77209e-12 0
M  V30 5215 O 811.415 10.1726 0.733694 0
M  V30 5216 O 811.985 8.73148 -1.23936 0
M  V30 5217 O 811.445 7.66872 0.971405 0
M  V30 5218 C 810.505 7.42309 2.04641 0
M  V30 5219 C 811.235 6.86059 3.24661 0
M  V30 5220 O 811.445 5.42847 3.03646 0
M  V30 5221 C 812.635 7.41196 3.50753 0
M  V30 5222 O 813.025 7.27073 4.86816 0
M  V30 5223 C 813.515 6.5273 2.63741 0
M  V30 5224 C 812.805 5.1842 2.73198 0
M  V30 5225 N 812.855 4.38762 1.4784 0
M  V30 5226 C 812.775 4.81605 0.168631 0
M  V30 5227 N 812.855 3.85454 -0.713363 0
M  V30 5228 C 812.995 2.6994 0.0566958 0
M  V30 5229 C 813.125 1.34815 -0.338502 0
M  V30 5230 N 813.245 0.496304 0.77465 0
M  V30 5231 C 813.245 0.908403 2.09122 0
M  V30 5232 N 813.375 -0.0517805 3.00955 0
M  V30 5233 N 813.115 2.17875 2.46519 0
M  V30 5234 C 812.995 3.01988 1.4033 0
M  V30 5235 H 810.016 8.36803 2.32493 0
M  V30 5236 H 809.746 6.70197 1.71129 0
M  V30 5237 H 810.613 7.03551 4.13168 0
M  V30 5238 P 814.575 7.20834 5.23717 0
M  V30 5239 O 814.795 7.79853 6.57286 0
M  V30 5240 O 815.365 7.79239 4.12957 0
M  V30 5241 O 814.825 5.63315 5.29344 0
M  V30 5242 C 813.885 4.80255 6.01876 0
M  V30 5243 C 814.615 3.64202 6.65911 0
M  V30 5244 O 814.825 2.60694 5.64732 0
M  V30 5245 C 816.015 3.93473 7.1943 0
M  V30 5246 O 816.405 3.02071 8.21205 0
M  V30 5247 C 816.895 3.73047 5.97036 0
M  V30 5248 C 816.185 2.58828 5.25741 0
M  V30 5249 N 816.235 2.68068 3.77503 0
M  V30 5250 C 816.155 3.79715 2.96723 0
M  V30 5251 N 816.235 3.5377 1.68852 0
M  V30 5252 C 816.375 2.15054 1.63254 0
M  V30 5253 C 816.505 1.28964 0.518571 0
M  V30 5254 O 816.525 1.56826 -0.679156 0
M  V30 5255 N 816.625 -0.0538097 0.918425 0
M  V30 5256 C 816.625 -0.494275 2.22578 0
M  V30 5257 N 816.755 -1.81086 2.40434 0
M  V30 5258 N 816.495 0.313645 3.27502 0
M  V30 5259 C 816.375 1.61829 2.91033 0
M  V30 5260 H 813.396 5.40332 6.79951 0
M  V30 5261 H 813.126 4.41613 5.32378 0
M  V30 5262 H 813.993 3.26331 7.47797 0
M  V30 5263 H 816.648 1.63422 5.56814 0
M  V30 5264 H 816.927 4.63374 5.34244 0
M  V30 5265 H 817.919 3.44728 6.25838 0
M  V30 5266 H 816.085 4.96652 7.57263 0
M  V30 5267 H 816.036 4.80617 3.3614 0
M  V30 5268 H 816.718 -0.742702 0.199384 0
M  V30 5269 H 816.755 -2.20598 3.35588 0
M  V30 5270 H 816.856 -2.43518 1.58945 0
M  V30 5271 P 817.955 2.75334 8.47391 0
M  V30 5272 O 818.175 2.44571 9.90142 0
M  V30 5273 O 818.745 3.87688 7.92115 0
M  V30 5274 O 818.205 1.4459 7.59357 0
M  V30 5275 C 817.265 0.347608 7.69215 0
M  V30 5276 C 817.995 -0.96767 7.52806 0
M  V30 5277 O 818.205 -1.21036 6.1011 0
M  V30 5278 C 819.395 -1.04544 8.13308 0
M  V30 5279 O 819.785 -2.38311 8.41922 0
M  V30 5280 C 820.275 -0.491279 7.02284 0
M  V30 5281 C 819.565 -0.996264 5.77469 0
M  V30 5282 N 819.615 -0.0501916 4.62973 0
M  V30 5283 H 816.776 0.374722 8.67691 0
M  V30 5284 H 816.506 0.443485 6.90277 0
M  V30 5285 H 817.373 -1.75537 7.96793 0
M  V30 5286 P 821.335 -2.75334 8.47391 0
M  V30 5287 O 821.555 -3.84128 9.44797 0
M  V30 5288 O 822.125 -1.51947 8.68712 0
M  V30 5289 O 821.585 -3.29363 6.99321 0
M  V30 5290 C 820.645 -4.24011 6.4274 0
M  V30 5291 C 821.375 -5.20775 5.52155 0
M  V30 5292 O 821.585 -4.56534 4.22446 0
M  V30 5293 C 822.775 -5.62629 5.96531 0
M  V30 5294 O 823.165 -6.87667 5.41053 0
M  V30 5295 C 823.655 -4.52537 5.39283 0
M  V30 5296 C 822.945 -4.20027 4.08623 0
M  V30 5297 N 822.995 -2.76189 3.71603 0
M  V30 5298 H 820.156 -4.797 7.24003 0
M  V30 5299 H 819.886 -3.69856 5.84513 0
M  V30 5300 H 820.753 -6.10356 5.41441 0
M  V30 5301 P 824.715 -7.20834 5.23717 0
M  V30 5302 O 824.935 -8.66274 5.38678 0
M  V30 5303 O 825.505 -6.33687 6.13629 0
M  V30 5304 O 824.965 -6.7751 3.72168 0
M  V30 5305 C 824.025 -7.20919 2.70795 0
M  V30 5306 C 824.755 -7.45864 1.40599 0
M  V30 5307 O 824.965 -6.17751 0.734343 0
M  V30 5308 C 826.155 -8.05906 1.51917 0
M  V30 5309 O 826.545 -8.74358 0.335205 0
M  V30 5310 C 827.035 -6.83093 1.70294 0
M  V30 5311 C 826.325 -5.79992 0.836974 0
M  V30 5312 N 826.375 -4.41864 1.38293 0
M  V30 5313 C 826.295 -4.02089 2.69407 0
M  V30 5314 N 826.365 -2.73403 2.85089 0
M  V30 5315 C 826.515 -2.25086 1.5642 0
M  V30 5316 C 826.645 -0.942887 1.04836 0
M  V30 5317 N 826.655 0.150999 1.80369 0
M  V30 5318 N 826.765 -0.812565 -0.28167 0
M  V30 5319 C 826.755 -1.90572 -1.03784 0
M  V30 5320 N 826.635 -3.167 -0.683905 0
M  V30 5321 C 826.515 -3.26538 0.652815 0
M  V30 5322 H 823.537 -8.13738 3.03804 0
M  V30 5323 H 823.265 -6.42974 2.55559 0
M  V30 5324 H 824.133 -8.12139 0.792866 0
M  V30 5325 H 826.788 -5.80178 -0.160643 0
M  V30 5326 H 827.068 -6.51379 2.75643 0
M  V30 5327 H 828.059 -7.01832 1.3448 0
M  V30 5328 H 826.225 -8.73771 2.38364 0
M  V30 5329 H 826.184 -4.7189 3.52311 0
M  V30 5330 H 826.565 0.0721434 2.82608 0
M  V30 5331 H 826.754 1.0785 1.36544 0
M  V30 5332 H 826.862 -1.73207 -2.10241 0
M  V30 5333 P 828.095 -8.91 -5.92927e-12 0
M  V30 5334 O 828.315 -10.1726 -0.733694 0
M  V30 5335 O 828.885 -8.73148 1.23936 0
M  V30 5336 O 828.345 -7.66872 -0.971405 0
M  V30 5337 C 827.405 -7.42309 -2.04641 0
M  V30 5338 C 828.135 -6.86059 -3.24661 0
M  V30 5339 O 828.345 -5.42847 -3.03646 0
M  V30 5340 C 829.535 -7.41196 -3.50753 0
M  V30 5341 O 829.925 -7.27073 -4.86816 0
M  V30 5342 C 830.415 -6.5273 -2.63741 0
M  V30 5343 C 829.705 -5.1842 -2.73198 0
M  V30 5344 N 829.755 -4.38762 -1.4784 0
M  V30 5345 H 826.916 -8.36803 -2.32493 0
M  V30 5346 H 826.646 -6.70197 -1.71129 0
M  V30 5347 H 827.513 -7.03551 -4.13168 0
M  V30 5348 P 831.475 -7.20834 -5.23717 0
M  V30 5349 O 831.695 -7.80006 -6.57415 0
M  V30 5350 O 832.265 -7.79416 -4.13051 0
M  V30 5351 O 831.725 -5.63315 -5.29344 0
M  V30 5352 C 830.785 -4.80318 -6.01954 0
M  V30 5353 C 831.515 -3.64202 -6.65911 0
M  V30 5354 O 831.725 -2.60736 -5.64823 0
M  V30 5355 C 832.915 -3.93521 -7.19518 0
M  V30 5356 O 833.305 -3.02071 -8.21205 0
M  V30 5357 C 833.795 -3.73047 -5.97036 0
M  V30 5358 C 833.085 -2.58828 -5.25741 0
M  V30 5359 N 833.135 -2.68068 -3.77503 0
M  V30 5360 H 830.297 -5.40394 -6.8003 0
M  V30 5361 H 830.025 -4.41741 -5.32532 0
M  V30 5362 H 830.893 -3.26371 -7.47889 0
M  V30 5363 H 833.548 -1.64007 -5.56746 0
M  V30 5364 H 833.828 -4.63439 -5.3432 0
M  V30 5365 H 834.819 -3.44776 -6.25925 0
M  V30 5366 H 832.985 -4.96707 -7.57347 0
M  V30 5367 P 834.855 -2.75334 -8.47391 0
M  V30 5368 O 835.075 -2.44571 -9.90142 0
M  V30 5369 O 835.645 -3.87688 -7.92115 0
M  V30 5370 O 835.105 -1.4459 -7.59357 0
M  V30 5371 C 834.165 -0.347608 -7.69215 0
M  V30 5372 C 834.895 0.96767 -7.52806 0
M  V30 5373 O 835.105 1.21036 -6.1011 0
M  V30 5374 C 836.295 1.04544 -8.13308 0
M  V30 5375 O 836.685 2.38311 -8.41922 0
M  V30 5376 C 837.175 0.491279 -7.02284 0
M  V30 5377 C 836.465 0.996264 -5.77469 0
M  V30 5378 N 836.515 0.0501916 -4.62973 0
M  V30 5379 H 833.676 -0.374722 -8.67691 0
M  V30 5380 H 833.406 -0.443485 -6.90277 0
M  V30 5381 H 834.273 1.75537 -7.96793 0
M  V30 5382 P 838.235 2.75334 -8.47391 0
M  V30 5383 O 838.455 3.84128 -9.44797 0
M  V30 5384 O 839.025 1.51947 -8.68712 0
M  V30 5385 O 838.485 3.29363 -6.99321 0
M  V30 5386 C 837.545 4.24011 -6.4274 0
M  V30 5387 C 838.275 5.20775 -5.52155 0
M  V30 5388 O 838.485 4.56534 -4.22446 0
M  V30 5389 C 839.675 5.62629 -5.96531 0
M  V30 5390 O 840.065 6.87667 -5.41053 0
M  V30 5391 C 840.555 4.52537 -5.39283 0
M  V30 5392 C 839.845 4.20027 -4.08623 0
M  V30 5393 N 839.895 2.76189 -3.71603 0
M  V30 5394 H 837.056 4.797 -7.24003 0
M  V30 5395 H 836.786 3.69856 -5.84513 0
M  V30 5396 H 837.653 6.10356 -5.41441 0
M  V30 5397 P 841.615 7.20834 -5.23717 0
M  V30 5398 O 841.835 8.66274 -5.38678 0
M  V30 5399 O 842.405 6.33687 -6.13629 0
M  V30 5400 O 841.865 6.7751 -3.72168 0
M  V30 5401 C 840.925 7.20919 -2.70795 0
M  V30 5402 C 841.655 7.45864 -1.40599 0
M  V30 5403 O 841.865 6.17751 -0.734343 0
M  V30 5404 C 843.055 8.05906 -1.51917 0
M  V30 5405 O 843.445 8.74358 -0.335205 0
M  V30 5406 C 843.935 6.83093 -1.70294 0
M  V30 5407 C 843.225 5.79992 -0.836974 0
M  V30 5408 N 843.275 4.41864 -1.38293 0
M  V30 5409 C 843.195 4.02089 -2.69407 0
M  V30 5410 N 843.265 2.73403 -2.85089 0
M  V30 5411 C 843.415 2.25086 -1.5642 0
M  V30 5412 C 843.545 0.942887 -1.04836 0
M  V30 5413 N 843.555 -0.150999 -1.80369 0
M  V30 5414 N 843.665 0.812565 0.28167 0
M  V30 5415 C 843.655 1.90572 1.03784 0
M  V30 5416 N 843.535 3.167 0.683905 0
M  V30 5417 C 843.415 3.26538 -0.652815 0
M  V30 5418 H 840.437 8.13738 -3.03804 0
M  V30 5419 H 840.165 6.42974 -2.55559 0
M  V30 5420 H 841.033 8.12139 -0.792866 0
M  V30 5421 H 843.688 5.80178 0.160643 0
M  V30 5422 H 843.968 6.51379 -2.75643 0
M  V30 5423 H 844.959 7.01832 -1.3448 0
M  V30 5424 H 843.125 8.73771 -2.38364 0
M  V30 5425 H 843.084 4.7189 -3.52311 0
M  V30 5426 H 843.465 -0.0721434 -2.82608 0
M  V30 5427 H 843.654 -1.0785 -1.36544 0
M  V30 5428 H 843.762 1.73207 2.10241 0
M  V30 5429 P 844.995 8.91 6.08645e-12 0
M  V30 5430 O 845.215 10.1726 0.733694 0
M  V30 5431 O 845.785 8.73148 -1.23936 0
M  V30 5432 O 845.245 7.66872 0.971405 0
M  V30 5433 C 844.305 7.42309 2.04641 0
M  V30 5434 C 845.035 6.86059 3.24661 0
M  V30 5435 O 845.245 5.42847 3.03646 0
M  V30 5436 C 846.435 7.41196 3.50753 0
M  V30 5437 O 846.825 7.27073 4.86816 0
M  V30 5438 C 847.315 6.5273 2.63741 0
M  V30 5439 C 846.605 5.1842 2.73198 0
M  V30 5440 N 846.655 4.38762 1.4784 0
M  V30 5441 H 843.816 8.36803 2.32493 0
M  V30 5442 H 843.546 6.70197 1.71129 0
M  V30 5443 H 844.413 7.03551 4.13168 0
M  V30 5444 P 848.375 7.20834 5.23717 0
M  V30 5445 O 848.595 7.79853 6.57286 0
M  V30 5446 O 849.165 7.79239 4.12957 0
M  V30 5447 O 848.625 5.63315 5.29344 0
M  V30 5448 C 847.685 4.80255 6.01876 0
M  V30 5449 C 848.415 3.64202 6.65911 0
M  V30 5450 O 848.625 2.60694 5.64732 0
M  V30 5451 C 849.815 3.93473 7.1943 0
M  V30 5452 O 850.205 3.02071 8.21205 0
M  V30 5453 C 850.695 3.73047 5.97036 0
M  V30 5454 C 849.985 2.58828 5.25741 0
M  V30 5455 N 850.035 2.68068 3.77503 0
M  V30 5456 H 847.196 5.40332 6.79951 0
M  V30 5457 H 846.926 4.41613 5.32378 0
M  V30 5458 H 847.793 3.26331 7.47797 0
M  V30 5459 P 851.755 2.75334 8.47391 0
M  V30 5460 O 851.975 2.44571 9.90142 0
M  V30 5461 O 852.545 3.87688 7.92115 0
M  V30 5462 O 852.005 1.4459 7.59357 0
M  V30 5463 C 851.065 0.347608 7.69215 0
M  V30 5464 C 851.795 -0.96767 7.52806 0
M  V30 5465 O 852.005 -1.21036 6.1011 0
M  V30 5466 C 853.195 -1.04544 8.13308 0
M  V30 5467 O 853.585 -2.38311 8.41922 0
M  V30 5468 C 854.075 -0.491279 7.02284 0
M  V30 5469 C 853.365 -0.996264 5.77469 0
M  V30 5470 N 853.415 -0.0501916 4.62973 0
M  V30 5471 H 850.576 0.374722 8.67691 0
M  V30 5472 H 850.306 0.443485 6.90277 0
M  V30 5473 H 851.173 -1.75537 7.96793 0
M  V30 5474 P 855.135 -2.75334 8.47391 0
M  V30 5475 O 855.355 -3.84128 9.44797 0
M  V30 5476 O 855.925 -1.51947 8.68712 0
M  V30 5477 O 855.385 -3.29363 6.99321 0
M  V30 5478 C 854.445 -4.24011 6.4274 0
M  V30 5479 C 855.175 -5.20775 5.52155 0
M  V30 5480 O 855.385 -4.56534 4.22446 0
M  V30 5481 C 856.575 -5.62629 5.96531 0
M  V30 5482 O 856.965 -6.87667 5.41053 0
M  V30 5483 C 857.455 -4.52537 5.39283 0
M  V30 5484 C 856.745 -4.20027 4.08623 0
M  V30 5485 N 856.795 -2.76189 3.71603 0
M  V30 5486 H 853.956 -4.797 7.24003 0
M  V30 5487 H 853.686 -3.69856 5.84513 0
M  V30 5488 H 854.553 -6.10356 5.41441 0
M  V30 5489 P 858.515 -7.20834 5.23717 0
M  V30 5490 O 858.735 -8.66104 5.38572 0
M  V30 5491 O 859.305 -6.33544 6.1349 0
M  V30 5492 O 858.765 -6.7751 3.72168 0
M  V30 5493 C 857.825 -7.20825 2.7076 0
M  V30 5494 C 858.555 -7.45864 1.40599 0
M  V30 5495 O 858.765 -6.17651 0.734225 0
M  V30 5496 C 859.955 -8.05808 1.51899 0
M  V30 5497 O 860.345 -8.74358 0.335205 0
M  V30 5498 C 860.835 -6.83093 1.70294 0
M  V30 5499 C 860.125 -5.79992 0.836974 0
M  V30 5500 N 860.175 -4.41864 1.38293 0
M  V30 5501 C 860.095 -3.99538 2.69438 0
M  V30 5502 N 860.175 -2.69909 2.84277 0
M  V30 5503 C 860.315 -2.21719 1.5408 0
M  V30 5504 C 860.445 -0.891712 1.06628 0
M  V30 5505 N 860.565 -0.856846 -0.334985 0
M  V30 5506 C 860.565 -1.9641 -1.15789 0
M  V30 5507 N 860.695 -1.72708 -2.46522 0
M  V30 5508 N 860.435 -3.21165 -0.713741 0
M  V30 5509 C 860.315 -3.26797 0.639748 0
M  V30 5510 H 857.336 -8.13644 3.0377 0
M  V30 5511 H 857.066 -6.42788 2.55485 0
M  V30 5512 H 857.933 -8.12039 0.792769 0
M  V30 5513 P 861.895 -8.91 -6.24363e-12 0
M  V30 5514 O 862.115 -10.1736 -0.733766 0
M  V30 5515 O 862.685 -8.73247 1.2395 0
M  V30 5516 O 862.145 -7.66872 -0.971405 0
M  V30 5517 C 861.205 -7.42212 -2.04614 0
M  V30 5518 C 861.935 -6.86059 -3.24661 0
M  V30 5519 O 862.145 -5.42847 -3.03646 0
M  V30 5520 C 863.335 -7.41196 -3.50753 0
M  V30 5521 O 863.725 -7.27073 -4.86816 0
M  V30 5522 C 864.215 -6.5273 -2.63741 0
M  V30 5523 C 863.505 -5.1842 -2.73198 0
M  V30 5524 N 863.555 -4.38668 -1.47808 0
M  V30 5525 C 863.705 -3.02239 -1.60048 0
M  V30 5526 O 863.795 -2.46459 -2.67869 0
M  V30 5527 N 863.745 -2.32436 -0.408571 0
M  V30 5528 C 863.655 -2.85471 0.854993 0
M  V30 5529 O 863.705 -2.12566 1.8531 0
M  V30 5530 C 863.505 -4.28918 0.887335 0
M  V30 5531 C 863.395 -4.91066 2.24619 0
M  V30 5532 C 863.455 -5.00349 -0.255399 0
M  V30 5533 H 860.715 -8.36803 -2.32493 0
M  V30 5534 H 860.446 -6.701 -1.71105 0
M  V30 5535 H 861.313 -7.03551 -4.13168 0
M  V30 5536 H 863.968 -4.59773 -3.53894 0
M  V30 5537 H 864.247 -6.88995 -1.59871 0
M  V30 5538 H 865.239 -6.46749 -3.03687 0
M  V30 5539 H 863.405 -8.46908 -3.20714 0
M  V30 5540 H 863.334 -6.08548 -0.206986 0
M  V30 5541 H 864.364 -5.34836 2.53099 0
M  V30 5542 H 862.627 -5.69638 2.2291 0
M  V30 5543 H 863.115 -4.13971 2.98044 0
M  V30 5544 H 863.851 -1.33211 -0.474216 0
M  V30 5545 P 865.275 -7.20834 -5.23717 0
M  V30 5546 O 865.495 -7.79853 -6.57286 0
M  V30 5547 O 866.065 -7.79239 -4.12957 0
M  V30 5548 O 865.525 -5.63315 -5.29344 0
M  V30 5549 C 864.585 -4.80255 -6.01876 0
M  V30 5550 C 865.315 -3.64202 -6.65911 0
M  V30 5551 O 865.525 -2.60694 -5.64732 0
M  V30 5552 C 866.715 -3.93473 -7.1943 0
M  V30 5553 O 867.105 -3.02071 -8.21205 0
M  V30 5554 C 867.595 -3.73047 -5.97036 0
M  V30 5555 C 866.885 -2.58828 -5.25741 0
M  V30 5556 N 866.935 -2.68068 -3.77503 0
M  V30 5557 H 864.096 -5.40332 -6.79951 0
M  V30 5558 H 863.826 -4.41613 -5.32378 0
M  V30 5559 H 864.693 -3.26331 -7.47797 0
M  V30 5560 P 868.655 -2.75334 -8.47391 0
M  V30 5561 O 868.875 -2.44571 -9.90142 0
M  V30 5562 O 869.445 -3.87688 -7.92115 0
M  V30 5563 O 868.905 -1.4459 -7.59357 0
M  V30 5564 C 867.965 -0.347608 -7.69215 0
M  V30 5565 C 868.695 0.96767 -7.52806 0
M  V30 5566 O 868.905 1.21036 -6.1011 0
M  V30 5567 C 870.095 1.04544 -8.13308 0
M  V30 5568 O 870.485 2.38311 -8.41922 0
M  V30 5569 C 870.975 0.491279 -7.02284 0
M  V30 5570 C 870.265 0.996264 -5.77469 0
M  V30 5571 N 870.315 0.0501916 -4.62973 0
M  V30 5572 H 867.476 -0.374722 -8.67691 0
M  V30 5573 H 867.206 -0.443485 -6.90277 0
M  V30 5574 H 868.073 1.75537 -7.96793 0
M  V30 5575 P 872.035 2.75334 -8.47391 0
M  V30 5576 O 872.255 3.84166 -9.4489 0
M  V30 5577 O 872.825 1.51964 -8.6881 0
M  V30 5578 O 872.285 3.29363 -6.99321 0
M  V30 5579 C 871.345 4.23956 -6.42656 0
M  V30 5580 C 872.075 5.20775 -5.52155 0
M  V30 5581 O 872.285 4.56534 -4.22446 0
M  V30 5582 C 873.475 5.62629 -5.96531 0
M  V30 5583 O 873.865 6.87667 -5.41053 0
M  V30 5584 C 874.355 4.52537 -5.39283 0
M  V30 5585 C 873.645 4.20027 -4.08623 0
M  V30 5586 N 873.695 2.7613 -3.71522 0
M  V30 5587 C 873.845 2.45612 -2.37989 0
M  V30 5588 O 873.935 3.30919 -1.51621 0
M  V30 5589 N 873.885 1.10684 -2.08435 0
M  V30 5590 C 873.795 0.0690084 -2.9792 0
M  V30 5591 C 873.645 0.481522 -4.35345 0
M  V30 5592 C 873.595 1.78906 -4.67968 0
M  V30 5593 H 870.855 4.797 -7.24003 0
M  V30 5594 H 870.586 3.69802 -5.84429 0
M  V30 5595 H 871.453 6.10356 -5.41441 0
M  V30 5596 H 874.108 4.78651 -3.27911 0
M  V30 5597 H 874.387 3.64957 -6.05871 0
M  V30 5598 H 875.379 4.8868 -5.2125 0
M  V30 5599 H 873.545 5.66726 -7.06352 0
M  V30 5600 H 873.474 2.07737 -5.72367 0
M  V30 5601 P 875.415 7.20834 -5.23717 0
M  V30 5602 O 875.635 8.66189 -5.38625 0
M  V30 5603 O 876.205 6.33615 -6.1356 0
M  V30 5604 O 875.665 6.7751 -3.72168 0
M  V30 5605 C 874.725 7.20732 -2.70725 0
M  V30 5606 C 875.455 7.45864 -1.40599 0
M  V30 5607 O 875.665 6.17651 -0.734225 0
M  V30 5608 C 876.855 8.05808 -1.51899 0
M  V30 5609 O 877.245 8.74358 -0.335205 0
M  V30 5610 C 877.735 6.83093 -1.70294 0
M  V30 5611 C 877.025 5.79992 -0.836974 0
M  V30 5612 N 877.075 4.41769 -1.38263 0
M  V30 5613 C 877.225 3.38591 -0.481702 0
M  V30 5614 O 877.315 3.56839 0.718452 0
M  V30 5615 N 877.265 2.1206 -1.03569 0
M  V30 5616 C 877.175 1.80696 -2.36966 0
M  V30 5617 C 877.025 2.94845 -3.23898 0
M  V30 5618 C 876.975 4.19803 -2.73435 0
M  V30 5619 H 874.235 8.13644 -3.0377 0
M  V30 5620 H 873.966 6.42695 -2.55448 0
M  V30 5621 H 874.833 8.12039 -0.792769 0
M  V30 5622 H 877.488 5.79978 0.160587 0
M  V30 5623 H 877.767 6.51379 -2.75643 0
M  V30 5624 H 878.759 7.01734 -1.34462 0
M  V30 5625 H 876.925 8.73674 -2.38337 0
M  V30 5626 H 876.854 5.04492 -3.4095 0
M  V30 5627 P 878.795 8.91 6.40081e-12 0
M  V30 5628 O 879.015 10.1736 0.733766 0
M  V30 5629 O 879.585 8.73247 -1.2395 0
M  V30 5630 O 879.045 7.66872 0.971405 0
M  V30 5631 C 878.105 7.42212 2.04614 0
M  V30 5632 C 878.835 6.86059 3.24661 0
M  V30 5633 O 879.045 5.42847 3.03646 0
M  V30 5634 C 880.235 7.41196 3.50753 0
M  V30 5635 O 880.625 7.27073 4.86816 0
M  V30 5636 C 881.115 6.5273 2.63741 0
M  V30 5637 C 880.405 5.1842 2.73198 0
M  V30 5638 N 880.455 4.38668 1.47808 0
M  V30 5639 C 880.605 3.02239 1.60048 0
M  V30 5640 O 880.695 2.46459 2.67869 0
M  V30 5641 N 880.645 2.32436 0.408571 0
M  V30 5642 C 880.555 2.85471 -0.854993 0
M  V30 5643 C 880.405 4.28918 -0.887335 0
M  V30 5644 C 880.355 5.00349 0.255399 0
M  V30 5645 H 877.615 8.36803 2.32493 0
M  V30 5646 H 877.346 6.701 1.71105 0
M  V30 5647 H 878.213 7.03551 4.13168 0
M  V30 5648 H 880.868 4.59773 3.53894 0
M  V30 5649 H 881.147 6.88995 1.59871 0
M  V30 5650 H 882.139 6.46749 3.03687 0
M  V30 5651 H 880.305 8.46908 3.20714 0
M  V30 5652 H 880.234 6.08548 0.206986 0
M  V30 5653 P 882.175 7.20834 5.23717 0
M  V30 5654 O 882.395 7.79853 6.57286 0
M  V30 5655 O 882.965 7.79239 4.12957 0
M  V30 5656 O 882.425 5.63315 5.29344 0
M  V30 5657 C 881.485 4.80255 6.01876 0
M  V30 5658 C 882.215 3.64202 6.65911 0
M  V30 5659 O 882.425 2.60694 5.64732 0
M  V30 5660 C 883.615 3.93473 7.1943 0
M  V30 5661 O 884.005 3.02071 8.21205 0
M  V30 5662 C 884.495 3.73047 5.97036 0
M  V30 5663 C 883.785 2.58828 5.25741 0
M  V30 5664 N 883.835 2.68068 3.77503 0
M  V30 5665 H 880.996 5.40332 6.79951 0
M  V30 5666 H 880.726 4.41613 5.32378 0
M  V30 5667 H 881.593 3.26331 7.47797 0
M  V30 5668 P 885.555 2.75334 8.47391 0
M  V30 5669 O 885.775 2.44595 9.90239 0
M  V30 5670 O 886.345 3.87732 7.92204 0
M  V30 5671 O 885.805 1.4459 7.59357 0
M  V30 5672 C 884.865 0.347563 7.69115 0
M  V30 5673 C 885.595 -0.96767 7.52806 0
M  V30 5674 O 885.805 -1.21036 6.1011 0
M  V30 5675 C 886.995 -1.04544 8.13308 0
M  V30 5676 O 887.385 -2.38311 8.41922 0
M  V30 5677 C 887.875 -0.491279 7.02284 0
M  V30 5678 C 887.165 -0.996264 5.77469 0
M  V30 5679 N 887.215 -0.0501808 4.62873 0
M  V30 5680 C 887.365 -0.588177 3.36904 0
M  V30 5681 O 887.455 -1.78598 3.17173 0
M  V30 5682 N 887.405 0.329694 2.33686 0
M  V30 5683 C 887.315 1.6953 2.45079 0
M  V30 5684 O 887.365 2.41926 1.44899 0
M  V30 5685 C 887.165 2.16933 3.80505 0
M  V30 5686 C 887.055 3.65373 3.97621 0
M  V30 5687 C 887.115 1.30326 4.83752 0
M  V30 5688 H 884.375 0.374722 8.67691 0
M  V30 5689 H 884.106 0.443421 6.90177 0
M  V30 5690 H 884.973 -1.75537 7.96793 0
M  V30 5691 H 887.628 -1.94496 5.46629 0
M  V30 5692 H 887.907 0.608651 7.04676 0
M  V30 5693 H 888.899 -0.889672 7.08939 0
M  V30 5694 H 887.065 -0.43308 9.04564 0
M  V30 5695 H 886.994 1.68366 5.8516 0
M  V30 5696 H 888.024 4.05985 4.30448 0
M  V30 5697 H 886.287 3.88028 4.72875 0
M  V30 5698 H 886.775 4.11381 3.01609 0
M  V30 5699 H 887.511 -0.0393617 1.41345 0
M  V30 5700 P 888.935 -2.75334 8.47391 0
M  V30 5701 O 889.155 -3.84128 9.44797 0
M  V30 5702 O 889.725 -1.51947 8.68712 0
M  V30 5703 O 889.185 -3.29363 6.99321 0
M  V30 5704 C 888.245 -4.24011 6.4274 0
M  V30 5705 C 888.975 -5.20775 5.52155 0
M  V30 5706 O 889.185 -4.56534 4.22446 0
M  V30 5707 C 890.375 -5.62629 5.96531 0
M  V30 5708 O 890.765 -6.87667 5.41053 0
M  V30 5709 C 891.255 -4.52537 5.39283 0
M  V30 5710 C 890.545 -4.20027 4.08623 0
M  V30 5711 N 890.595 -2.76189 3.71603 0
M  V30 5712 C 890.515 -1.64862 4.52822 0
M  V30 5713 N 890.595 -0.512671 3.88633 0
M  V30 5714 C 890.735 -0.888083 2.54977 0
M  V30 5715 C 890.865 -0.094668 1.38677 0
M  V30 5716 N 890.985 -0.890102 0.232633 0
M  V30 5717 C 890.985 -2.26958 0.21772 0
M  V30 5718 N 891.115 -2.84626 -0.97925 0
M  V30 5719 N 890.855 -3.0178 1.31033 0
M  V30 5720 C 890.735 -2.26781 2.43843 0
M  V30 5721 H 887.756 -4.797 7.24003 0
M  V30 5722 H 887.486 -3.69856 5.84513 0
M  V30 5723 H 888.353 -6.10356 5.41441 0
M  V30 5724 P 892.315 -7.20834 5.23717 0
M  V30 5725 O 892.535 -8.66104 5.38572 0
M  V30 5726 O 893.105 -6.33544 6.1349 0
M  V30 5727 O 892.565 -6.7751 3.72168 0
M  V30 5728 C 891.625 -7.20825 2.7076 0
M  V30 5729 C 892.355 -7.45864 1.40599 0
M  V30 5730 O 892.565 -6.17651 0.734225 0
M  V30 5731 C 893.755 -8.05808 1.51899 0
M  V30 5732 O 894.145 -8.74358 0.335205 0
M  V30 5733 C 894.635 -6.83093 1.70294 0
M  V30 5734 C 893.925 -5.79992 0.836974 0
M  V30 5735 N 893.975 -4.41864 1.38293 0
M  V30 5736 H 891.136 -8.13644 3.0377 0
M  V30 5737 H 890.866 -6.42788 2.55485 0
M  V30 5738 H 891.733 -8.12039 0.792769 0
M  V30 5739 P 895.695 -8.91 -6.558e-12 0
M  V30 5740 O 895.915 -10.1746 -0.733838 0
M  V30 5741 O 896.485 -8.73346 1.23964 0
M  V30 5742 O 895.945 -7.66872 -0.971405 0
M  V30 5743 C 895.005 -7.42405 -2.04668 0
M  V30 5744 C 895.735 -6.86059 -3.24661 0
M  V30 5745 O 895.945 -5.42934 -3.03695 0
M  V30 5746 C 897.135 -7.41287 -3.50796 0
M  V30 5747 O 897.525 -7.27073 -4.86816 0
M  V30 5748 C 898.015 -6.5273 -2.63741 0
M  V30 5749 C 897.305 -5.1842 -2.73198 0
M  V30 5750 N 897.355 -4.38762 -1.4784 0
M  V30 5751 C 897.275 -4.83651 -0.183876 0
M  V30 5752 N 897.345 -3.88759 0.699393 0
M  V30 5753 C 897.495 -2.7404 -0.0575568 0
M  V30 5754 C 897.625 -1.37902 0.293928 0
M  V30 5755 N 897.635 -0.938021 1.54797 0
M  V30 5756 N 897.745 -0.491817 -0.70549 0
M  V30 5757 C 897.735 -0.931735 -1.95979 0
M  V30 5758 N 897.615 -2.16017 -2.41481 0
M  V30 5759 C 897.495 -3.02547 -1.39121 0
M  V30 5760 H 894.517 -8.36899 -2.3252 0
M  V30 5761 H 894.245 -6.70391 -1.71179 0
M  V30 5762 H 895.113 -7.03638 -4.13219 0
M  V30 5763 H 897.768 -4.59931 -3.54016 0
M  V30 5764 H 898.048 -6.88995 -1.59871 0
M  V30 5765 H 899.039 -6.4684 -3.0373 0
M  V30 5766 H 897.205 -8.47002 -3.20749 0
M  V30 5767 H 897.164 -5.8885 0.0765548 0
M  V30 5768 H 897.545 -1.60276 2.32875 0
M  V30 5769 H 897.734 0.0699355 1.73859 0
M  V30 5770 H 897.842 -0.165507 -2.71897 0
M  V30 5771 P 899.075 -7.20834 -5.23717 0
M  V30 5772 O 899.295 -7.79853 -6.57286 0
M  V30 5773 O 899.865 -7.79239 -4.12957 0
M  V30 5774 O 899.325 -5.63315 -5.29344 0
M  V30 5775 C 898.385 -4.80255 -6.01876 0
M  V30 5776 C 899.115 -3.64202 -6.65911 0
M  V30 5777 O 899.325 -2.60694 -5.64732 0
M  V30 5778 C 900.515 -3.93473 -7.1943 0
M  V30 5779 O 900.905 -3.02071 -8.21205 0
M  V30 5780 C 901.395 -3.73047 -5.97036 0
M  V30 5781 C 900.685 -2.58828 -5.25741 0
M  V30 5782 N 900.735 -2.68068 -3.77503 0
M  V30 5783 H 897.896 -5.40332 -6.79951 0
M  V30 5784 H 897.626 -4.41613 -5.32378 0
M  V30 5785 H 898.493 -3.26331 -7.47797 0
M  V30 5786 P 902.455 -2.75334 -8.47391 0
M  V30 5787 O 902.675 -2.44571 -9.90142 0
M  V30 5788 O 903.245 -3.87688 -7.92115 0
M  V30 5789 O 902.705 -1.4459 -7.59357 0
M  V30 5790 C 901.765 -0.347608 -7.69215 0
M  V30 5791 C 902.495 0.96767 -7.52806 0
M  V30 5792 O 902.705 1.21036 -6.1011 0
M  V30 5793 C 903.895 1.04544 -8.13308 0
M  V30 5794 O 904.285 2.38311 -8.41922 0
M  V30 5795 C 904.775 0.491279 -7.02284 0
M  V30 5796 C 904.065 0.996264 -5.77469 0
M  V30 5797 N 904.115 0.0501916 -4.62973 0
M  V30 5798 H 901.276 -0.374722 -8.67691 0
M  V30 5799 H 901.006 -0.443485 -6.90277 0
M  V30 5800 H 901.873 1.75537 -7.96793 0
M  V30 5801 P 905.835 2.75334 -8.47391 0
M  V30 5802 O 906.055 3.84166 -9.4489 0
M  V30 5803 O 906.625 1.51964 -8.6881 0
M  V30 5804 O 906.085 3.29363 -6.99321 0
M  V30 5805 C 905.145 4.23956 -6.42656 0
M  V30 5806 C 905.875 5.20775 -5.52155 0
M  V30 5807 O 906.085 4.56534 -4.22446 0
M  V30 5808 C 907.275 5.62629 -5.96531 0
M  V30 5809 O 907.665 6.87667 -5.41053 0
M  V30 5810 C 908.155 4.52537 -5.39283 0
M  V30 5811 C 907.445 4.20027 -4.08623 0
M  V30 5812 N 907.495 2.7613 -3.71522 0
M  V30 5813 C 907.645 2.45612 -2.37989 0
M  V30 5814 O 907.735 3.30919 -1.51621 0
M  V30 5815 N 907.685 1.10684 -2.08435 0
M  V30 5816 C 907.595 0.0690084 -2.9792 0
M  V30 5817 C 907.445 0.481522 -4.35345 0
M  V30 5818 C 907.395 1.78906 -4.67968 0
M  V30 5819 H 904.655 4.797 -7.24003 0
M  V30 5820 H 904.386 3.69802 -5.84429 0
M  V30 5821 H 905.253 6.10356 -5.41441 0
M  V30 5822 H 907.908 4.78651 -3.27911 0
M  V30 5823 H 908.187 3.64957 -6.05871 0
M  V30 5824 H 909.179 4.8868 -5.2125 0
M  V30 5825 H 907.345 5.66726 -7.06352 0
M  V30 5826 H 907.274 2.07737 -5.72367 0
M  V30 5827 P 909.215 7.20834 -5.23717 0
M  V30 5828 O 909.435 8.66104 -5.38572 0
M  V30 5829 O 910.005 6.33544 -6.1349 0
M  V30 5830 O 909.465 6.7751 -3.72168 0
M  V30 5831 C 908.525 7.20825 -2.7076 0
M  V30 5832 C 909.255 7.45864 -1.40599 0
M  V30 5833 O 909.465 6.17651 -0.734225 0
M  V30 5834 C 910.655 8.05808 -1.51899 0
M  V30 5835 O 911.045 8.74358 -0.335205 0
M  V30 5836 C 911.535 6.83093 -1.70294 0
M  V30 5837 C 910.825 5.79992 -0.836974 0
M  V30 5838 N 910.875 4.41864 -1.38293 0
M  V30 5839 C 910.795 3.99538 -2.69438 0
M  V30 5840 N 910.875 2.69909 -2.84277 0
M  V30 5841 C 911.015 2.21719 -1.5408 0
M  V30 5842 C 911.145 0.891712 -1.06628 0
M  V30 5843 N 911.265 0.856846 0.334985 0
M  V30 5844 C 911.265 1.9641 1.15789 0
M  V30 5845 N 911.395 1.72708 2.46522 0
M  V30 5846 N 911.135 3.21165 0.713741 0
M  V30 5847 C 911.015 3.26797 -0.639748 0
M  V30 5848 H 908.036 8.13644 -3.0377 0
M  V30 5849 H 907.766 6.42788 -2.55485 0
M  V30 5850 H 908.633 8.12039 -0.792769 0
M  V30 5851 P 912.595 8.91 6.71518e-12 0
M  V30 5852 O 912.815 10.1726 0.733694 0
M  V30 5853 O 913.385 8.73148 -1.23936 0
M  V30 5854 O 912.845 7.66872 0.971405 0
M  V30 5855 C 911.905 7.42309 2.04641 0
M  V30 5856 C 912.635 6.86059 3.24661 0
M  V30 5857 O 912.845 5.42847 3.03646 0
M  V30 5858 C 914.035 7.41196 3.50753 0
M  V30 5859 O 914.425 7.27073 4.86816 0
M  V30 5860 C 914.915 6.5273 2.63741 0
M  V30 5861 C 914.205 5.1842 2.73198 0
M  V30 5862 N 914.255 4.38762 1.4784 0
M  V30 5863 H 911.416 8.36803 2.32493 0
M  V30 5864 H 911.146 6.70197 1.71129 0
M  V30 5865 H 912.013 7.03551 4.13168 0
M  V30 5866 P 915.975 7.20834 5.23717 0
M  V30 5867 O 916.195 7.7993 6.57351 0
M  V30 5868 O 916.765 7.79328 4.13004 0
M  V30 5869 O 916.225 5.63315 5.29344 0
M  V30 5870 C 915.285 4.80193 6.01798 0
M  V30 5871 C 916.015 3.64202 6.65911 0
M  V30 5872 O 916.225 2.60694 5.64732 0
M  V30 5873 C 917.415 3.93473 7.1943 0
M  V30 5874 O 917.805 3.02071 8.21205 0
M  V30 5875 C 918.295 3.73047 5.97036 0
M  V30 5876 C 917.585 2.58828 5.25741 0
M  V30 5877 N 917.635 2.6801 3.77422 0
M  V30 5878 C 917.785 1.50443 3.07133 0
M  V30 5879 O 917.875 0.419406 3.61576 0
M  V30 5880 N 917.825 1.6403 1.69677 0
M  V30 5881 C 917.735 2.81206 0.986255 0
M  V30 5882 C 917.585 3.99158 1.80325 0
M  V30 5883 C 917.535 3.89779 3.1476 0
M  V30 5884 H 914.795 5.40332 6.79951 0
M  V30 5885 H 914.526 4.41549 5.32301 0
M  V30 5886 H 915.393 3.26331 7.47797 0
M  V30 5887 H 918.048 1.6395 5.56554 0
M  V30 5888 H 918.327 4.63439 5.3432 0
M  V30 5889 H 919.319 3.44728 6.25838 0
M  V30 5890 H 917.485 4.96652 7.57263 0
M  V30 5891 H 917.414 4.80159 3.74441 0
M  V30 5892 P 919.355 2.75334 8.47391 0
M  V30 5893 O 919.575 2.44571 9.90142 0
M  V30 5894 O 920.145 3.87688 7.92115 0
M  V30 5895 O 919.605 1.4459 7.59357 0
M  V30 5896 C 918.665 0.347608 7.69215 0
M  V30 5897 C 919.395 -0.96767 7.52806 0
M  V30 5898 O 919.605 -1.21036 6.1011 0
M  V30 5899 C 920.795 -1.04544 8.13308 0
M  V30 5900 O 921.185 -2.38311 8.41922 0
M  V30 5901 C 921.675 -0.491279 7.02284 0
M  V30 5902 C 920.965 -0.996264 5.77469 0
M  V30 5903 N 921.015 -0.0501916 4.62973 0
M  V30 5904 H 918.176 0.374722 8.67691 0
M  V30 5905 H 917.906 0.443485 6.90277 0
M  V30 5906 H 918.773 -1.75537 7.96793 0
M  V30 5907 P 922.735 -2.75334 8.47391 0
M  V30 5908 O 922.955 -3.84128 9.44797 0
M  V30 5909 O 923.525 -1.51947 8.68712 0
M  V30 5910 O 922.985 -3.29363 6.99321 0
M  V30 5911 C 922.045 -4.24011 6.4274 0
M  V30 5912 C 922.775 -5.20775 5.52155 0
M  V30 5913 O 922.985 -4.56534 4.22446 0
M  V30 5914 C 924.175 -5.62629 5.96531 0
M  V30 5915 O 924.565 -6.87667 5.41053 0
M  V30 5916 C 925.055 -4.52537 5.39283 0
M  V30 5917 C 924.345 -4.20027 4.08623 0
M  V30 5918 N 924.395 -2.76189 3.71603 0
M  V30 5919 C 924.315 -1.64862 4.52822 0
M  V30 5920 N 924.395 -0.512671 3.88633 0
M  V30 5921 C 924.535 -0.888083 2.54977 0
M  V30 5922 C 924.665 -0.094668 1.38677 0
M  V30 5923 N 924.785 -0.890102 0.232633 0
M  V30 5924 C 924.785 -2.26958 0.21772 0
M  V30 5925 N 924.915 -2.84626 -0.97925 0
M  V30 5926 N 924.655 -3.0178 1.31033 0
M  V30 5927 C 924.535 -2.26781 2.43843 0
M  V30 5928 H 921.556 -4.797 7.24003 0
M  V30 5929 H 921.286 -3.69856 5.84513 0
M  V30 5930 H 922.153 -6.10356 5.41441 0
M  V30 5931 P 926.115 -7.20834 5.23717 0
M  V30 5932 O 926.335 -8.66104 5.38572 0
M  V30 5933 O 926.905 -6.33544 6.1349 0
M  V30 5934 O 926.365 -6.7751 3.72168 0
M  V30 5935 C 925.425 -7.20825 2.7076 0
M  V30 5936 C 926.155 -7.45864 1.40599 0
M  V30 5937 O 926.365 -6.17651 0.734225 0
M  V30 5938 C 927.555 -8.05808 1.51899 0
M  V30 5939 O 927.945 -8.74358 0.335205 0
M  V30 5940 C 928.435 -6.83093 1.70294 0
M  V30 5941 C 927.725 -5.79992 0.836974 0
M  V30 5942 N 927.775 -4.41864 1.38293 0
M  V30 5943 H 924.936 -8.13644 3.0377 0
M  V30 5944 H 924.666 -6.42788 2.55485 0
M  V30 5945 H 925.533 -8.12039 0.792769 0
M  V30 5946 P 929.495 -8.91 -6.87236e-12 0
M  V30 5947 O 929.715 -10.1726 -0.733694 0
M  V30 5948 O 930.285 -8.73148 1.23936 0
M  V30 5949 O 929.745 -7.66872 -0.971405 0
M  V30 5950 C 928.805 -7.42309 -2.04641 0
M  V30 5951 C 929.535 -6.86059 -3.24661 0
M  V30 5952 O 929.745 -5.42847 -3.03646 0
M  V30 5953 C 930.935 -7.41196 -3.50753 0
M  V30 5954 O 931.325 -7.27073 -4.86816 0
M  V30 5955 C 931.815 -6.5273 -2.63741 0
M  V30 5956 C 931.105 -5.1842 -2.73198 0
M  V30 5957 N 931.155 -4.38762 -1.4784 0
M  V30 5958 C 931.075 -4.81605 -0.168631 0
M  V30 5959 N 931.155 -3.85454 0.713363 0
M  V30 5960 C 931.295 -2.6994 -0.0566958 0
M  V30 5961 C 931.425 -1.34815 0.338502 0
M  V30 5962 O 931.445 -0.869548 1.47125 0
M  V30 5963 N 931.545 -0.496304 -0.77465 0
M  V30 5964 C 931.545 -0.908403 -2.09122 0
M  V30 5965 N 931.675 0.0517805 -3.00955 0
M  V30 5966 N 931.415 -2.17875 -2.46519 0
M  V30 5967 C 931.295 -3.01988 -1.4033 0
M  V30 5968 H 928.316 -8.36803 -2.32493 0
M  V30 5969 H 928.046 -6.70197 -1.71129 0
M  V30 5970 H 928.913 -7.03551 -4.13168 0
M  V30 5971 H 931.568 -4.59498 -3.54415 0
M  V30 5972 H 931.847 -6.88898 -1.59848 0
M  V30 5973 H 932.839 -6.46749 -3.03687 0
M  V30 5974 H 931.005 -8.46908 -3.20714 0
M  V30 5975 H 930.956 -5.86405 0.105564 0
M  V30 5976 H 931.638 0.483664 -0.597855 0
M  V30 5977 H 931.675 -0.187865 -4.0116 0
M  V30 5978 H 931.776 1.03585 -2.71726 0
M  V30 5979 P 932.874 -7.20834 -5.23717 0
M  V30 5980 O 933.094 -7.79853 -6.57286 0
M  V30 5981 O 933.664 -7.79239 -4.12957 0
M  V30 5982 O 933.124 -5.63315 -5.29344 0
M  V30 5983 C 932.184 -4.80255 -6.01876 0
M  V30 5984 C 932.914 -3.64202 -6.65911 0
M  V30 5985 O 933.124 -2.60694 -5.64732 0
M  V30 5986 C 934.314 -3.93473 -7.1943 0
M  V30 5987 O 934.704 -3.02071 -8.21205 0
M  V30 5988 C 935.194 -3.73047 -5.97036 0
M  V30 5989 C 934.484 -2.58828 -5.25741 0
M  V30 5990 N 934.534 -2.68068 -3.77503 0
M  V30 5991 C 934.454 -3.79715 -2.96723 0
M  V30 5992 N 934.534 -3.5377 -1.68852 0
M  V30 5993 C 934.674 -2.15054 -1.63254 0
M  V30 5994 C 934.804 -1.28964 -0.518571 0
M  V30 5995 N 934.924 0.0538097 -0.918425 0
M  V30 5996 C 934.924 0.494275 -2.22578 0
M  V30 5997 N 935.054 1.81086 -2.40434 0
M  V30 5998 N 934.794 -0.313645 -3.27502 0
M  V30 5999 C 934.674 -1.61829 -2.91033 0
M  V30 6000 H 931.695 -5.40332 -6.79951 0
M  V30 6001 H 931.425 -4.41613 -5.32378 0
M  V30 6002 H 932.292 -3.26331 -7.47797 0
M  V30 6003 P 936.254 -2.75334 -8.47391 0
M  V30 6004 O 936.474 -2.44571 -9.90142 0
M  V30 6005 O 937.044 -3.87688 -7.92115 0
M  V30 6006 O 936.504 -1.4459 -7.59357 0
M  V30 6007 C 935.564 -0.347608 -7.69215 0
M  V30 6008 C 936.294 0.96767 -7.52806 0
M  V30 6009 O 936.504 1.21036 -6.1011 0
M  V30 6010 C 937.694 1.04544 -8.13308 0
M  V30 6011 O 938.084 2.38311 -8.41922 0
M  V30 6012 C 938.574 0.491279 -7.02284 0
M  V30 6013 C 937.864 0.996264 -5.77469 0
M  V30 6014 N 937.914 0.0501916 -4.62973 0
M  V30 6015 H 935.075 -0.374722 -8.67691 0
M  V30 6016 H 934.805 -0.443485 -6.90277 0
M  V30 6017 H 935.672 1.75537 -7.96793 0
M  V30 6018 P 939.634 2.75334 -8.47391 0
M  V30 6019 O 939.854 3.84128 -9.44797 0
M  V30 6020 O 940.424 1.51947 -8.68712 0
M  V30 6021 O 939.884 3.29363 -6.99321 0
M  V30 6022 C 938.944 4.24011 -6.4274 0
M  V30 6023 C 939.674 5.20775 -5.52155 0
M  V30 6024 O 939.884 4.56534 -4.22446 0
M  V30 6025 C 941.074 5.62629 -5.96531 0
M  V30 6026 O 941.464 6.87667 -5.41053 0
M  V30 6027 C 941.954 4.52537 -5.39283 0
M  V30 6028 C 941.244 4.20027 -4.08623 0
M  V30 6029 N 941.294 2.76189 -3.71603 0
M  V30 6030 H 938.455 4.797 -7.24003 0
M  V30 6031 H 938.185 3.69856 -5.84513 0
M  V30 6032 H 939.052 6.10356 -5.41441 0
M  V30 6033 P 943.014 7.20834 -5.23717 0
M  V30 6034 O 943.234 8.66104 -5.38572 0
M  V30 6035 O 943.804 6.33544 -6.1349 0
M  V30 6036 O 943.264 6.7751 -3.72168 0
M  V30 6037 C 942.324 7.20825 -2.7076 0
M  V30 6038 C 943.054 7.45864 -1.40599 0
M  V30 6039 O 943.264 6.17651 -0.734225 0
M  V30 6040 C 944.454 8.05808 -1.51899 0
M  V30 6041 O 944.844 8.74358 -0.335205 0
M  V30 6042 C 945.334 6.83093 -1.70294 0
M  V30 6043 C 944.624 5.79992 -0.836974 0
M  V30 6044 N 944.674 4.41864 -1.38293 0
M  V30 6045 H 941.835 8.13644 -3.0377 0
M  V30 6046 H 941.565 6.42788 -2.55485 0
M  V30 6047 H 942.432 8.12039 -0.792769 0
M  V30 6048 P 946.394 8.91 7.02954e-12 0
M  V30 6049 O 946.614 10.1736 0.733766 0
M  V30 6050 O 947.184 8.73247 -1.2395 0
M  V30 6051 O 946.644 7.66872 0.971405 0
M  V30 6052 C 945.704 7.42212 2.04614 0
M  V30 6053 C 946.434 6.86059 3.24661 0
M  V30 6054 O 946.644 5.42847 3.03646 0
M  V30 6055 C 947.834 7.41196 3.50753 0
M  V30 6056 O 948.224 7.27073 4.86816 0
M  V30 6057 C 948.714 6.5273 2.63741 0
M  V30 6058 C 948.004 5.1842 2.73198 0
M  V30 6059 N 948.054 4.38668 1.47808 0
M  V30 6060 C 948.204 3.02239 1.60048 0
M  V30 6061 O 948.294 2.46459 2.67869 0
M  V30 6062 N 948.244 2.32436 0.408571 0
M  V30 6063 C 948.154 2.85471 -0.854993 0
M  V30 6064 C 948.004 4.28918 -0.887335 0
M  V30 6065 C 947.954 5.00349 0.255399 0
M  V30 6066 H 945.214 8.36803 2.32493 0
M  V30 6067 H 944.945 6.701 1.71105 0
M  V30 6068 H 945.812 7.03551 4.13168 0
M  V30 6069 H 948.467 4.59773 3.53894 0
M  V30 6070 H 948.746 6.88995 1.59871 0
M  V30 6071 H 949.738 6.46749 3.03687 0
M  V30 6072 H 947.904 8.46908 3.20714 0
M  V30 6073 H 947.833 6.08548 0.206986 0
M  V30 6074 P 949.774 7.20834 5.23717 0
M  V30 6075 O 949.994 7.79853 6.57286 0
M  V30 6076 O 950.564 7.79239 4.12957 0
M  V30 6077 O 950.024 5.63315 5.29344 0
M  V30 6078 C 949.084 4.80255 6.01876 0
M  V30 6079 C 949.814 3.64202 6.65911 0
M  V30 6080 O 950.024 2.60694 5.64732 0
M  V30 6081 C 951.214 3.93473 7.1943 0
M  V30 6082 O 951.604 3.02071 8.21205 0
M  V30 6083 C 952.094 3.73047 5.97036 0
M  V30 6084 C 951.384 2.58828 5.25741 0
M  V30 6085 N 951.434 2.68068 3.77503 0
M  V30 6086 H 948.595 5.40332 6.79951 0
M  V30 6087 H 948.325 4.41613 5.32378 0
M  V30 6088 H 949.192 3.26331 7.47797 0
M  V30 6089 P 953.154 2.75334 8.47391 0
M  V30 6090 O 953.374 2.44595 9.90239 0
M  V30 6091 O 953.944 3.87732 7.92204 0
M  V30 6092 O 953.404 1.4459 7.59357 0
M  V30 6093 C 952.464 0.347608 7.69215 0
M  V30 6094 C 953.194 -0.96767 7.52806 0
M  V30 6095 O 953.404 -1.21036 6.1011 0
M  V30 6096 C 954.594 -1.04544 8.13308 0
M  V30 6097 O 954.984 -2.38311 8.41922 0
M  V30 6098 C 955.474 -0.491279 7.02284 0
M  V30 6099 C 954.764 -0.996264 5.77469 0
M  V30 6100 N 954.814 -0.0501808 4.62873 0
M  V30 6101 C 954.964 -0.578037 3.3505 0
M  V30 6102 O 955.054 -1.8073 3.21711 0
M  V30 6103 N 955.014 0.468541 2.263 0
M  V30 6104 C 954.914 1.59186 2.47176 0
M  V30 6105 N 954.964 2.37626 1.40392 0
M  V30 6106 C 954.764 2.16203 3.77467 0
M  V30 6107 C 954.714 1.29324 4.8195 0
M  V30 6108 H 951.974 0.374679 8.67591 0
M  V30 6109 H 951.705 0.443421 6.90177 0
M  V30 6110 H 952.572 -1.75559 7.96891 0
M  V30 6111 H 955.227 -1.94529 5.46723 0
M  V30 6112 H 955.506 0.608651 7.04676 0
M  V30 6113 H 956.498 -0.889672 7.08939 0
M  V30 6114 H 954.664 -0.43308 9.04564 0
M  V30 6115 H 954.592 1.67758 5.83046 0
M  V30 6116 H 954.694 3.23869 3.92281 0
M  V30 6117 H 955.082 1.96317 0.467202 0
M  V30 6118 H 954.885 3.39693 1.51142 0
M  V30 6119 P 956.534 -2.75334 8.47391 0
M  V30 6120 O 956.754 -3.84128 9.44797 0
M  V30 6121 O 957.324 -1.51947 8.68712 0
M  V30 6122 O 956.784 -3.29363 6.99321 0
M  V30 6123 C 955.844 -4.24011 6.4274 0
M  V30 6124 C 956.574 -5.20775 5.52155 0
M  V30 6125 O 956.784 -4.56534 4.22446 0
M  V30 6126 C 957.974 -5.62629 5.96531 0
M  V30 6127 O 958.364 -6.87667 5.41053 0
M  V30 6128 C 958.854 -4.52537 5.39283 0
M  V30 6129 C 958.144 -4.20027 4.08623 0
M  V30 6130 N 958.194 -2.76189 3.71603 0
M  V30 6131 H 955.355 -4.797 7.24003 0
M  V30 6132 H 955.085 -3.69856 5.84513 0
M  V30 6133 H 955.952 -6.10356 5.41441 0
M  V30 6134 P 959.914 -7.20834 5.23717 0
M  V30 6135 O 960.134 -8.66104 5.38572 0
M  V30 6136 O 960.704 -6.33544 6.1349 0
M  V30 6137 O 960.164 -6.7751 3.72168 0
M  V30 6138 C 959.224 -7.20825 2.7076 0
M  V30 6139 C 959.954 -7.45864 1.40599 0
M  V30 6140 O 960.164 -6.17651 0.734225 0
M  V30 6141 C 961.354 -8.05808 1.51899 0
M  V30 6142 O 961.744 -8.74358 0.335205 0
M  V30 6143 C 962.234 -6.83093 1.70294 0
M  V30 6144 C 961.524 -5.79992 0.836974 0
M  V30 6145 N 961.574 -4.41864 1.38293 0
M  V30 6146 H 958.735 -8.13644 3.0377 0
M  V30 6147 H 958.465 -6.42788 2.55485 0
M  V30 6148 H 959.332 -8.12039 0.792769 0
M  V30 6149 P 963.294 -8.91 -7.18673e-12 0
M  V30 6150 O 963.514 -10.1726 -0.733694 0
M  V30 6151 O 964.084 -8.73148 1.23936 0
M  V30 6152 O 963.544 -7.66872 -0.971405 0
M  V30 6153 C 962.604 -7.42309 -2.04641 0
M  V30 6154 C 963.334 -6.86059 -3.24661 0
M  V30 6155 O 963.544 -5.42847 -3.03646 0
M  V30 6156 C 964.734 -7.41196 -3.50753 0
M  V30 6157 O 965.124 -7.27073 -4.86816 0
M  V30 6158 C 965.614 -6.5273 -2.63741 0
M  V30 6159 C 964.904 -5.1842 -2.73198 0
M  V30 6160 N 964.954 -4.38762 -1.4784 0
M  V30 6161 H 962.115 -8.36803 -2.32493 0
M  V30 6162 H 961.845 -6.70197 -1.71129 0
M  V30 6163 H 962.712 -7.03551 -4.13168 0
M  V30 6164 P 966.674 -7.20834 -5.23717 0
M  V30 6165 O 966.894 -7.7993 -6.57351 0
M  V30 6166 O 967.464 -7.79328 -4.13004 0
M  V30 6167 O 966.924 -5.63315 -5.29344 0
M  V30 6168 C 965.984 -4.80255 -6.01876 0
M  V30 6169 C 966.714 -3.64202 -6.65911 0
M  V30 6170 O 966.924 -2.60694 -5.64732 0
M  V30 6171 C 968.114 -3.93473 -7.1943 0
M  V30 6172 O 968.504 -3.02071 -8.21205 0
M  V30 6173 C 968.994 -3.73047 -5.97036 0
M  V30 6174 C 968.284 -2.58828 -5.25741 0
M  V30 6175 N 968.334 -2.6801 -3.77422 0
M  V30 6176 C 968.484 -1.50173 -3.05038 0
M  V30 6177 O 968.574 -0.428832 -3.665 0
M  V30 6178 N 968.534 -1.70922 -1.55541 0
M  V30 6179 C 968.434 -2.7407 -1.06402 0
M  V30 6180 N 968.484 -2.74764 0.260931 0
M  V30 6181 C 968.284 -3.96781 -1.78296 0
M  V30 6182 C 968.234 -3.87909 -3.13891 0
M  V30 6183 H 965.494 -5.4027 -6.79873 0
M  V30 6184 H 965.225 -4.41549 -5.32301 0
M  V30 6185 H 966.092 -3.26371 -7.47889 0
M  V30 6186 H 968.747 -1.63978 -5.5665 0
M  V30 6187 H 969.026 -4.63439 -5.3432 0
M  V30 6188 H 970.018 -3.44728 -6.25838 0
M  V30 6189 H 968.184 -4.96652 -7.57263 0
M  V30 6190 H 968.112 -4.78425 -3.73088 0
M  V30 6191 H 968.214 -4.92593 -1.26997 0
M  V30 6192 H 968.602 -1.86285 0.77595 0
M  V30 6193 H 968.405 -3.63657 0.773896 0
M  V30 6194 P 970.054 -2.75334 -8.47391 0
M  V30 6195 O 970.274 -2.44571 -9.90142 0
M  V30 6196 O 970.844 -3.87688 -7.92115 0
M  V30 6197 O 970.304 -1.4459 -7.59357 0
M  V30 6198 C 969.364 -0.347608 -7.69215 0
M  V30 6199 C 970.094 0.96767 -7.52806 0
M  V30 6200 O 970.304 1.21036 -6.1011 0
M  V30 6201 C 971.494 1.04544 -8.13308 0
M  V30 6202 O 971.884 2.38311 -8.41922 0
M  V30 6203 C 972.374 0.491279 -7.02284 0
M  V30 6204 C 971.664 0.996264 -5.77469 0
M  V30 6205 N 971.714 0.0501916 -4.62973 0
M  V30 6206 H 968.875 -0.374722 -8.67691 0
M  V30 6207 H 968.605 -0.443485 -6.90277 0
M  V30 6208 H 969.472 1.75537 -7.96793 0
M  V30 6209 P 973.434 2.75334 -8.47391 0
M  V30 6210 O 973.654 3.84204 -9.44982 0
M  V30 6211 O 974.224 1.51982 -8.68909 0
M  V30 6212 O 973.684 3.29363 -6.99321 0
M  V30 6213 C 972.744 4.24066 -6.42823 0
M  V30 6214 C 973.474 5.20775 -5.52155 0
M  V30 6215 O 973.684 4.56607 -4.22514 0
M  V30 6216 C 974.874 5.62697 -5.96604 0
M  V30 6217 O 975.264 6.87667 -5.41053 0
M  V30 6218 C 975.754 4.52537 -5.39283 0
M  V30 6219 C 975.044 4.20027 -4.08623 0
M  V30 6220 N 975.094 2.76189 -3.71603 0
M  V30 6221 C 975.014 1.66944 -4.54297 0
M  V30 6222 N 975.084 0.536169 -3.91344 0
M  V30 6223 C 975.234 0.901569 -2.58849 0
M  V30 6224 C 975.364 0.146599 -1.40236 0
M  V30 6225 N 975.374 -1.18234 -1.37046 0
M  V30 6226 N 975.484 0.822941 -0.249738 0
M  V30 6227 C 975.474 2.15179 -0.280525 0
M  V30 6228 N 975.354 2.96414 -1.30822 0
M  V30 6229 C 975.234 2.25804 -2.44748 0
M  V30 6230 H 972.256 4.79756 -7.24086 0
M  V30 6231 H 971.984 3.69963 -5.84682 0
M  V30 6232 H 972.852 6.10431 -5.41508 0
M  V30 6233 H 975.507 4.78816 -3.28024 0
M  V30 6234 H 975.787 3.64957 -6.05871 0
M  V30 6235 H 976.778 4.88748 -5.21323 0
M  V30 6236 H 974.944 5.66789 -7.0643 0
M  V30 6237 H 974.903 1.74684 -5.62396 0
M  V30 6238 H 975.284 -1.71949 -2.24394 0
M  V30 6239 H 975.473 -1.67511 -0.470742 0
M  V30 6240 H 975.581 2.63704 0.6828 0
M  V30 6241 P 976.814 7.20834 -5.23717 0
M  V30 6242 O 977.034 8.66104 -5.38572 0
M  V30 6243 O 977.604 6.33544 -6.1349 0
M  V30 6244 O 977.064 6.7751 -3.72168 0
M  V30 6245 C 976.124 7.20825 -2.7076 0
M  V30 6246 C 976.854 7.45864 -1.40599 0
M  V30 6247 O 977.064 6.17651 -0.734225 0
M  V30 6248 C 978.254 8.05808 -1.51899 0
M  V30 6249 O 978.644 8.74358 -0.335205 0
M  V30 6250 C 979.134 6.83093 -1.70294 0
M  V30 6251 C 978.424 5.79992 -0.836974 0
M  V30 6252 N 978.474 4.41864 -1.38293 0
M  V30 6253 H 975.635 8.13644 -3.0377 0
M  V30 6254 H 975.365 6.42788 -2.55485 0
M  V30 6255 H 976.232 8.12039 -0.792769 0
M  V30 6256 P 980.194 8.91 7.34391e-12 0
M  V30 6257 O 980.414 10.1726 0.733694 0
M  V30 6258 O 980.984 8.73148 -1.23936 0
M  V30 6259 O 980.444 7.66872 0.971405 0
M  V30 6260 C 979.504 7.42309 2.04641 0
M  V30 6261 C 980.234 6.86059 3.24661 0
M  V30 6262 O 980.444 5.42847 3.03646 0
M  V30 6263 C 981.634 7.41196 3.50753 0
M  V30 6264 O 982.024 7.27073 4.86816 0
M  V30 6265 C 982.514 6.5273 2.63741 0
M  V30 6266 C 981.804 5.1842 2.73198 0
M  V30 6267 N 981.854 4.38762 1.4784 0
M  V30 6268 H 979.015 8.36803 2.32493 0
M  V30 6269 H 978.745 6.70197 1.71129 0
M  V30 6270 H 979.612 7.03551 4.13168 0
M  V30 6271 P 983.574 7.20834 5.23717 0
M  V30 6272 O 983.794 7.79853 6.57286 0
M  V30 6273 O 984.364 7.79239 4.12957 0
M  V30 6274 O 983.824 5.63315 5.29344 0
M  V30 6275 C 982.884 4.80255 6.01876 0
M  V30 6276 C 983.614 3.64202 6.65911 0
M  V30 6277 O 983.824 2.60694 5.64732 0
M  V30 6278 C 985.014 3.93473 7.1943 0
M  V30 6279 O 985.404 3.02071 8.21205 0
M  V30 6280 C 985.894 3.73047 5.97036 0
M  V30 6281 C 985.184 2.58828 5.25741 0
M  V30 6282 N 985.234 2.68068 3.77503 0
M  V30 6283 H 982.395 5.40332 6.79951 0
M  V30 6284 H 982.125 4.41613 5.32378 0
M  V30 6285 H 982.992 3.26331 7.47797 0
M  V30 6286 P 986.954 2.75334 8.47391 0
M  V30 6287 O 987.174 2.44595 9.90239 0
M  V30 6288 O 987.744 3.87732 7.92204 0
M  V30 6289 O 987.204 1.4459 7.59357 0
M  V30 6290 C 986.264 0.347563 7.69115 0
M  V30 6291 C 986.994 -0.96767 7.52806 0
M  V30 6292 O 987.204 -1.21036 6.1011 0
M  V30 6293 C 988.394 -1.04544 8.13308 0
M  V30 6294 O 988.784 -2.38311 8.41922 0
M  V30 6295 C 989.274 -0.491279 7.02284 0
M  V30 6296 C 988.564 -0.996264 5.77469 0
M  V30 6297 N 988.614 -0.0501808 4.62873 0
M  V30 6298 C 988.764 -0.588177 3.36904 0
M  V30 6299 O 988.854 -1.78598 3.17173 0
M  V30 6300 N 988.804 0.329694 2.33686 0
M  V30 6301 C 988.714 1.6953 2.45079 0
M  V30 6302 C 988.564 2.16933 3.80505 0
M  V30 6303 C 988.514 1.30326 4.83752 0
M  V30 6304 H 985.774 0.374722 8.67691 0
M  V30 6305 H 985.505 0.443421 6.90177 0
M  V30 6306 H 986.372 -1.75537 7.96793 0
M  V30 6307 H 989.027 -1.94496 5.46629 0
M  V30 6308 H 989.306 0.608651 7.04676 0
M  V30 6309 H 990.298 -0.889672 7.08939 0
M  V30 6310 H 988.464 -0.43308 9.04564 0
M  V30 6311 H 988.393 1.68366 5.8516 0
M  V30 6312 P 990.334 -2.75334 8.47391 0
M  V30 6313 O 990.554 -3.84128 9.44797 0
M  V30 6314 O 991.124 -1.51947 8.68712 0
M  V30 6315 O 990.584 -3.29363 6.99321 0
M  V30 6316 C 989.644 -4.24011 6.4274 0
M  V30 6317 C 990.374 -5.20775 5.52155 0
M  V30 6318 O 990.584 -4.56534 4.22446 0
M  V30 6319 C 991.774 -5.62629 5.96531 0
M  V30 6320 O 992.164 -6.87667 5.41053 0
M  V30 6321 C 992.654 -4.52537 5.39283 0
M  V30 6322 C 991.944 -4.20027 4.08623 0
M  V30 6323 N 991.994 -2.76189 3.71603 0
M  V30 6324 H 989.155 -4.797 7.24003 0
M  V30 6325 H 988.885 -3.69856 5.84513 0
M  V30 6326 H 989.752 -6.10356 5.41441 0
M  V30 6327 P 993.714 -7.20834 5.23717 0
M  V30 6328 O 993.934 -8.66104 5.38572 0
M  V30 6329 O 994.504 -6.33544 6.1349 0
M  V30 6330 O 993.964 -6.7751 3.72168 0
M  V30 6331 C 993.024 -7.20825 2.7076 0
M  V30 6332 C 993.754 -7.45864 1.40599 0
M  V30 6333 O 993.964 -6.17651 0.734225 0
M  V30 6334 C 995.154 -8.05808 1.51899 0
M  V30 6335 O 995.544 -8.74358 0.335205 0
M  V30 6336 C 996.034 -6.83093 1.70294 0
M  V30 6337 C 995.324 -5.79992 0.836974 0
M  V30 6338 N 995.374 -4.41864 1.38293 0
M  V30 6339 C 995.294 -3.99538 2.69438 0
M  V30 6340 N 995.374 -2.69909 2.84277 0
M  V30 6341 C 995.514 -2.21719 1.5408 0
M  V30 6342 C 995.644 -0.891712 1.06628 0
M  V30 6343 O 995.664 0.161298 1.70137 0
M  V30 6344 N 995.764 -0.856846 -0.334985 0
M  V30 6345 C 995.764 -1.9641 -1.15789 0
M  V30 6346 N 995.894 -1.72708 -2.46522 0
M  V30 6347 N 995.634 -3.21165 -0.713741 0
M  V30 6348 C 995.514 -3.26797 0.639748 0
M  V30 6349 H 992.535 -8.13644 3.0377 0
M  V30 6350 H 992.265 -6.42788 2.55485 0
M  V30 6351 H 993.132 -8.12039 0.792769 0
M  V30 6352 H 995.787 -5.80061 -0.166416 0
M  V30 6353 H 996.066 -6.51287 2.75604 0
M  V30 6354 H 997.058 -7.01734 1.34462 0
M  V30 6355 H 995.224 -8.73674 2.38337 0
M  V30 6356 H 995.175 -4.68207 3.53221 0
M  V30 6357 H 995.857 0.0398818 -0.767965 0
M  V30 6358 H 995.894 -2.50995 -3.13503 0
M  V30 6359 H 995.995 -0.759148 -2.80716 0
M  V30 6360 P 997.094 -8.91 -7.50109e-12 0
M  V30 6361 O 997.314 -10.1726 -0.733694 0
M  V30 6362 O 997.884 -8.73148 1.23936 0
M  V30 6363 O 997.344 -7.66872 -0.971405 0
M  V30 6364 C 996.404 -7.42309 -2.04641 0
M  V30 6365 C 997.134 -6.86059 -3.24661 0
M  V30 6366 O 997.344 -5.42847 -3.03646 0
M  V30 6367 C 998.534 -7.41196 -3.50753 0
M  V30 6368 O 998.924 -7.27073 -4.86816 0
M  V30 6369 C 999.414 -6.5273 -2.63741 0
M  V30 6370 C 998.704 -5.1842 -2.73198 0
M  V30 6371 N 998.754 -4.38762 -1.4784 0
M  V30 6372 C 998.674 -4.81605 -0.168631 0
M  V30 6373 N 998.754 -3.85454 0.713363 0
M  V30 6374 C 998.894 -2.6994 -0.0566958 0
M  V30 6375 C 999.024 -1.34815 0.338502 0
M  V30 6376 O 999.044 -0.869548 1.47125 0
M  V30 6377 N 999.144 -0.496304 -0.77465 0
M  V30 6378 C 999.144 -0.908403 -2.09122 0
M  V30 6379 N 999.274 0.0517805 -3.00955 0
M  V30 6380 N 999.014 -2.17875 -2.46519 0
M  V30 6381 C 998.894 -3.01988 -1.4033 0
M  V30 6382 H 995.915 -8.36803 -2.32493 0
M  V30 6383 H 995.645 -6.70197 -1.71129 0
M  V30 6384 H 996.512 -7.03551 -4.13168 0
M  V30 6385 H 999.167 -4.59498 -3.54415 0
M  V30 6386 H 999.446 -6.88898 -1.59848 0
M  V30 6387 H 1000.44 -6.46749 -3.03687 0
M  V30 6388 H 998.604 -8.46908 -3.20714 0
M  V30 6389 H 998.555 -5.86405 0.105564 0
M  V30 6390 H 999.237 0.483664 -0.597855 0
M  V30 6391 H 999.274 -0.187865 -4.0116 0
M  V30 6392 H 999.375 1.03585 -2.71726 0
M  V30 6393 P 1000.47 -7.20834 -5.23717 0
M  V30 6394 O 1000.69 -7.79853 -6.57286 0
M  V30 6395 O 1001.26 -7.79239 -4.12957 0
M  V30 6396 O 1000.72 -5.63315 -5.29344 0
M  V30 6397 C 999.784 -4.80255 -6.01876 0
M  V30 6398 C 1000.51 -3.64202 -6.65911 0
M  V30 6399 O 1000.72 -2.60694 -5.64732 0
M  V30 6400 C 1001.91 -3.93473 -7.1943 0
M  V30 6401 O 1002.3 -3.02071 -8.21205 0
M  V30 6402 C 1002.79 -3.73047 -5.97036 0
M  V30 6403 C 1002.08 -2.58828 -5.25741 0
M  V30 6404 N 1002.13 -2.68068 -3.77503 0
M  V30 6405 H 999.295 -5.40332 -6.79951 0
M  V30 6406 H 999.025 -4.41613 -5.32378 0
M  V30 6407 H 999.892 -3.26331 -7.47797 0
M  V30 6408 P 1003.85 -2.75334 -8.47391 0
M  V30 6409 O 1004.07 -2.44571 -9.90142 0
M  V30 6410 O 1004.64 -3.87688 -7.92115 0
M  V30 6411 O 1004.1 -1.4459 -7.59357 0
M  V30 6412 C 1003.16 -0.347608 -7.69215 0
M  V30 6413 C 1003.89 0.96767 -7.52806 0
M  V30 6414 O 1004.1 1.21036 -6.1011 0
M  V30 6415 C 1005.29 1.04544 -8.13308 0
M  V30 6416 O 1005.68 2.38311 -8.41922 0
M  V30 6417 C 1006.17 0.491279 -7.02284 0
M  V30 6418 C 1005.46 0.996264 -5.77469 0
M  V30 6419 N 1005.51 0.0501916 -4.62973 0
M  V30 6420 H 1002.68 -0.374722 -8.67691 0
M  V30 6421 H 1002.41 -0.443485 -6.90277 0
M  V30 6422 H 1003.27 1.75537 -7.96793 0
M  V30 6423 P 1007.23 2.75334 -8.47391 0
M  V30 6424 O 1007.45 3.84204 -9.44982 0
M  V30 6425 O 1008.02 1.51982 -8.68909 0
M  V30 6426 O 1007.48 3.29363 -6.99321 0
M  V30 6427 C 1006.54 4.24066 -6.42823 0
M  V30 6428 C 1007.27 5.20775 -5.52155 0
M  V30 6429 O 1007.48 4.56607 -4.22514 0
M  V30 6430 C 1008.67 5.62697 -5.96604 0
M  V30 6431 O 1009.06 6.87667 -5.41053 0
M  V30 6432 C 1009.55 4.52537 -5.39283 0
M  V30 6433 C 1008.84 4.20027 -4.08623 0
M  V30 6434 N 1008.89 2.76189 -3.71603 0
M  V30 6435 C 1008.81 1.66944 -4.54297 0
M  V30 6436 N 1008.88 0.536169 -3.91344 0
M  V30 6437 C 1009.03 0.901569 -2.58849 0
M  V30 6438 C 1009.16 0.146599 -1.40236 0
M  V30 6439 N 1009.17 -1.18234 -1.37046 0
M  V30 6440 N 1009.28 0.822941 -0.249738 0
M  V30 6441 C 1009.27 2.15179 -0.280525 0
M  V30 6442 N 1009.15 2.96414 -1.30822 0
M  V30 6443 C 1009.03 2.25804 -2.44748 0
M  V30 6444 H 1006.06 4.79756 -7.24086 0
M  V30 6445 H 1005.78 3.69963 -5.84682 0
M  V30 6446 H 1006.65 6.10431 -5.41508 0
M  V30 6447 H 1009.31 4.78816 -3.28024 0
M  V30 6448 H 1009.59 3.64957 -6.05871 0
M  V30 6449 H 1010.58 4.88748 -5.21323 0
M  V30 6450 H 1008.74 5.66789 -7.0643 0
M  V30 6451 H 1008.7 1.74684 -5.62396 0
M  V30 6452 H 1009.08 -1.71949 -2.24394 0
M  V30 6453 H 1009.27 -1.67511 -0.470742 0
M  V30 6454 H 1009.38 2.63704 0.6828 0
M  V30 6455 P 1010.61 7.20834 -5.23717 0
M  V30 6456 O 1010.83 8.66189 -5.38625 0
M  V30 6457 O 1011.4 6.33615 -6.1356 0
M  V30 6458 O 1010.86 6.7751 -3.72168 0
M  V30 6459 C 1009.92 7.20732 -2.70725 0
M  V30 6460 C 1010.65 7.45864 -1.40599 0
M  V30 6461 O 1010.86 6.17651 -0.734225 0
M  V30 6462 C 1012.05 8.05808 -1.51899 0
M  V30 6463 O 1012.44 8.74358 -0.335205 0
M  V30 6464 C 1012.93 6.83093 -1.70294 0
M  V30 6465 C 1012.22 5.79992 -0.836974 0
M  V30 6466 N 1012.27 4.41769 -1.38263 0
M  V30 6467 C 1012.42 3.38591 -0.481702 0
M  V30 6468 O 1012.51 3.56839 0.718452 0
M  V30 6469 N 1012.46 2.1206 -1.03569 0
M  V30 6470 C 1012.37 1.80696 -2.36966 0
M  V30 6471 O 1012.42 0.630473 -2.74862 0
M  V30 6472 C 1012.22 2.94845 -3.23898 0
M  V30 6473 C 1012.11 2.65253 -4.70362 0
M  V30 6474 C 1012.17 4.19803 -2.73435 0
M  V30 6475 H 1009.43 8.13644 -3.0377 0
M  V30 6476 H 1009.17 6.42695 -2.55448 0
M  V30 6477 H 1010.03 8.12039 -0.792769 0
M  V30 6478 H 1012.69 5.79978 0.160587 0
M  V30 6479 H 1012.97 6.51379 -2.75643 0
M  V30 6480 H 1013.96 7.01734 -1.34462 0
M  V30 6481 H 1012.12 8.73674 -2.38337 0
M  V30 6482 H 1012.05 5.04492 -3.4095 0
M  V30 6483 H 1013.08 2.83924 -5.1913 0
M  V30 6484 H 1011.35 3.29824 -5.15163 0
M  V30 6485 H 1011.83 1.59723 -4.84449 0
M  V30 6486 H 1012.57 1.35644 -0.399345 0
M  V30 6487 P 1013.99 8.91 7.65827e-12 0
M  V30 6488 O 1014.21 10.1736 0.733766 0
M  V30 6489 O 1014.78 8.73247 -1.2395 0
M  V30 6490 O 1014.24 7.66872 0.971405 0
M  V30 6491 C 1013.3 7.42212 2.04614 0
M  V30 6492 C 1014.03 6.86059 3.24661 0
M  V30 6493 O 1014.24 5.42847 3.03646 0
M  V30 6494 C 1015.43 7.41196 3.50753 0
M  V30 6495 O 1015.82 7.27073 4.86816 0
M  V30 6496 C 1016.31 6.5273 2.63741 0
M  V30 6497 C 1015.6 5.1842 2.73198 0
M  V30 6498 N 1015.65 4.38668 1.47808 0
M  V30 6499 C 1015.8 3.02239 1.60048 0
M  V30 6500 O 1015.89 2.46459 2.67869 0
M  V30 6501 N 1015.84 2.32436 0.408571 0
M  V30 6502 C 1015.75 2.85471 -0.854993 0
M  V30 6503 O 1015.8 2.12566 -1.8531 0
M  V30 6504 C 1015.6 4.28918 -0.887335 0
M  V30 6505 C 1015.49 4.91066 -2.24619 0
M  V30 6506 C 1015.55 5.00349 0.255399 0
M  V30 6507 H 1012.81 8.36803 2.32493 0
M  V30 6508 H 1012.55 6.701 1.71105 0
M  V30 6509 H 1013.41 7.03551 4.13168 0
M  V30 6510 H 1016.07 4.59773 3.53894 0
M  V30 6511 H 1016.35 6.88995 1.59871 0
M  V30 6512 H 1017.34 6.46749 3.03687 0
M  V30 6513 H 1015.5 8.46908 3.20714 0
M  V30 6514 H 1015.43 6.08548 0.206986 0
M  V30 6515 H 1016.46 5.34836 -2.53099 0
M  V30 6516 H 1014.73 5.69638 -2.2291 0
M  V30 6517 H 1015.21 4.13971 -2.98044 0
M  V30 6518 H 1015.95 1.33211 0.474216 0
M  V30 6519 P 1017.37 7.20834 5.23717 0
M  V30 6520 O 1017.59 7.79853 6.57286 0
M  V30 6521 O 1018.16 7.79239 4.12957 0
M  V30 6522 O 1017.62 5.63315 5.29344 0
M  V30 6523 C 1016.68 4.80255 6.01876 0
M  V30 6524 C 1017.41 3.64202 6.65911 0
M  V30 6525 O 1017.62 2.60694 5.64732 0
M  V30 6526 C 1018.81 3.93473 7.1943 0
M  V30 6527 O 1019.2 3.02071 8.21205 0
M  V30 6528 C 1019.69 3.73047 5.97036 0
M  V30 6529 C 1018.98 2.58828 5.25741 0
M  V30 6530 N 1019.03 2.68068 3.77503 0
M  V30 6531 C 1018.95 3.79715 2.96723 0
M  V30 6532 N 1019.03 3.5377 1.68852 0
M  V30 6533 C 1019.17 2.15054 1.63254 0
M  V30 6534 C 1019.3 1.28964 0.518571 0
M  V30 6535 N 1019.42 -0.0538097 0.918425 0
M  V30 6536 C 1019.42 -0.494275 2.22578 0
M  V30 6537 N 1019.55 -1.81086 2.40434 0
M  V30 6538 N 1019.29 0.313645 3.27502 0
M  V30 6539 C 1019.17 1.61829 2.91033 0
M  V30 6540 H 1016.19 5.40332 6.79951 0
M  V30 6541 H 1015.92 4.41613 5.32378 0
M  V30 6542 H 1016.79 3.26331 7.47797 0
M  V30 6543 P 1020.75 2.75334 8.47391 0
M  V30 6544 O 1020.97 2.44571 9.90142 0
M  V30 6545 O 1021.54 3.87688 7.92115 0
M  V30 6546 O 1021 1.4459 7.59357 0
M  V30 6547 C 1020.06 0.347608 7.69215 0
M  V30 6548 C 1020.79 -0.96767 7.52806 0
M  V30 6549 O 1021 -1.21036 6.1011 0
M  V30 6550 C 1022.19 -1.04544 8.13308 0
M  V30 6551 O 1022.58 -2.38311 8.41922 0
M  V30 6552 C 1023.07 -0.491279 7.02284 0
M  V30 6553 C 1022.36 -0.996264 5.77469 0
M  V30 6554 N 1022.41 -0.0501916 4.62973 0
M  V30 6555 H 1019.57 0.374722 8.67691 0
M  V30 6556 H 1019.3 0.443485 6.90277 0
M  V30 6557 H 1020.17 -1.75537 7.96793 0
M  V30 6558 P 1024.13 -2.75334 8.47391 0
M  V30 6559 O 1024.35 -3.84128 9.44797 0
M  V30 6560 O 1024.92 -1.51947 8.68712 0
M  V30 6561 O 1024.38 -3.29363 6.99321 0
M  V30 6562 C 1023.44 -4.24011 6.4274 0
M  V30 6563 C 1024.17 -5.20775 5.52155 0
M  V30 6564 O 1024.38 -4.56534 4.22446 0
M  V30 6565 C 1025.57 -5.62629 5.96531 0
M  V30 6566 O 1025.96 -6.87667 5.41053 0
M  V30 6567 C 1026.45 -4.52537 5.39283 0
M  V30 6568 C 1025.74 -4.20027 4.08623 0
M  V30 6569 N 1025.79 -2.76189 3.71603 0
M  V30 6570 H 1022.95 -4.797 7.24003 0
M  V30 6571 H 1022.68 -3.69856 5.84513 0
M  V30 6572 H 1023.55 -6.10356 5.41441 0
M  V30 6573 P 1027.51 -7.20834 5.23717 0
M  V30 6574 O 1027.73 -8.66104 5.38572 0
M  V30 6575 O 1028.3 -6.33544 6.1349 0
M  V30 6576 O 1027.76 -6.7751 3.72168 0
M  V30 6577 C 1026.82 -7.20825 2.7076 0
M  V30 6578 C 1027.55 -7.45864 1.40599 0
M  V30 6579 O 1027.76 -6.17651 0.734225 0
M  V30 6580 C 1028.95 -8.05808 1.51899 0
M  V30 6581 O 1029.34 -8.74358 0.335205 0
M  V30 6582 C 1029.83 -6.83093 1.70294 0
M  V30 6583 C 1029.12 -5.79992 0.836974 0
M  V30 6584 N 1029.17 -4.41864 1.38293 0
M  V30 6585 H 1026.33 -8.13644 3.0377 0
M  V30 6586 H 1026.06 -6.42788 2.55485 0
M  V30 6587 H 1026.93 -8.12039 0.792769 0
M  V30 6588 P 1030.89 -8.91 -7.81545e-12 0
M  V30 6589 O 1031.11 -10.1726 -0.733694 0
M  V30 6590 O 1031.68 -8.73148 1.23936 0
M  V30 6591 O 1031.14 -7.66872 -0.971405 0
M  V30 6592 C 1030.2 -7.42309 -2.04641 0
M  V30 6593 C 1030.93 -6.86059 -3.24661 0
M  V30 6594 O 1031.14 -5.42847 -3.03646 0
M  V30 6595 C 1032.33 -7.41196 -3.50753 0
M  V30 6596 O 1032.72 -7.27073 -4.86816 0
M  V30 6597 C 1033.21 -6.5273 -2.63741 0
M  V30 6598 C 1032.5 -5.1842 -2.73198 0
M  V30 6599 N 1032.55 -4.38762 -1.4784 0
M  V30 6600 H 1029.71 -8.36803 -2.32493 0
M  V30 6601 H 1029.44 -6.70197 -1.71129 0
M  V30 6602 H 1030.31 -7.03551 -4.13168 0
M  V30 6603 P 1034.27 -7.20834 -5.23717 0
M  V30 6604 O 1034.49 -7.79853 -6.57286 0
M  V30 6605 O 1035.06 -7.79239 -4.12957 0
M  V30 6606 O 1034.52 -5.63315 -5.29344 0
M  V30 6607 C 1033.58 -4.80255 -6.01876 0
M  V30 6608 C 1034.31 -3.64202 -6.65911 0
M  V30 6609 O 1034.52 -2.60694 -5.64732 0
M  V30 6610 C 1035.71 -3.93473 -7.1943 0
M  V30 6611 O 1036.1 -3.02071 -8.21205 0
M  V30 6612 C 1036.59 -3.73047 -5.97036 0
M  V30 6613 C 1035.88 -2.58828 -5.25741 0
M  V30 6614 N 1035.93 -2.68068 -3.77503 0
M  V30 6615 H 1033.09 -5.40332 -6.79951 0
M  V30 6616 H 1032.82 -4.41613 -5.32378 0
M  V30 6617 H 1033.69 -3.26331 -7.47797 0
M  V30 6618 P 1037.65 -2.75334 -8.47391 0
M  V30 6619 O 1037.87 -2.44571 -9.90142 0
M  V30 6620 O 1038.44 -3.87688 -7.92115 0
M  V30 6621 O 1037.9 -1.4459 -7.59357 0
M  V30 6622 C 1036.96 -0.347608 -7.69215 0
M  V30 6623 C 1037.69 0.96767 -7.52806 0
M  V30 6624 O 1037.9 1.21036 -6.1011 0
M  V30 6625 C 1039.09 1.04544 -8.13308 0
M  V30 6626 O 1039.48 2.38311 -8.41922 0
M  V30 6627 C 1039.97 0.491279 -7.02284 0
M  V30 6628 C 1039.26 0.996264 -5.77469 0
M  V30 6629 N 1039.31 0.0501916 -4.62973 0
M  V30 6630 H 1036.47 -0.374722 -8.67691 0
M  V30 6631 H 1036.2 -0.443485 -6.90277 0
M  V30 6632 H 1037.07 1.75537 -7.96793 0
M  V30 6633 P 1041.03 2.75334 -8.47391 0
M  V30 6634 O 1041.25 3.84128 -9.44797 0
M  V30 6635 O 1041.82 1.51947 -8.68712 0
M  V30 6636 O 1041.28 3.29363 -6.99321 0
M  V30 6637 C 1040.34 4.24011 -6.4274 0
M  V30 6638 C 1041.07 5.20775 -5.52155 0
M  V30 6639 O 1041.28 4.56534 -4.22446 0
M  V30 6640 C 1042.47 5.62629 -5.96531 0
M  V30 6641 O 1042.86 6.87667 -5.41053 0
M  V30 6642 C 1043.35 4.52537 -5.39283 0
M  V30 6643 C 1042.64 4.20027 -4.08623 0
M  V30 6644 N 1042.69 2.76189 -3.71603 0
M  V30 6645 C 1042.61 1.64862 -4.52822 0
M  V30 6646 N 1042.69 0.512671 -3.88633 0
M  V30 6647 C 1042.83 0.888083 -2.54977 0
M  V30 6648 C 1042.96 0.094668 -1.38677 0
M  V30 6649 O 1042.98 -1.13053 -1.28163 0
M  V30 6650 N 1043.08 0.890102 -0.232633 0
M  V30 6651 C 1043.08 2.26958 -0.21772 0
M  V30 6652 N 1043.21 2.84626 0.97925 0
M  V30 6653 N 1042.95 3.0178 -1.31033 0
M  V30 6654 C 1042.83 2.26781 -2.43843 0
M  V30 6655 H 1039.85 4.797 -7.24003 0
M  V30 6656 H 1039.58 3.69856 -5.84513 0
M  V30 6657 H 1040.45 6.10356 -5.41441 0
M  V30 6658 H 1043.11 4.79061 -3.27488 0
M  V30 6659 H 1043.39 3.64906 -6.05785 0
M  V30 6660 H 1044.38 4.8868 -5.2125 0
M  V30 6661 H 1042.54 5.66726 -7.06352 0
M  V30 6662 H 1042.49 1.71169 -5.60966 0
M  V30 6663 H 1043.18 0.419134 0.644739 0
M  V30 6664 H 1043.21 3.87332 1.06098 0
M  V30 6665 H 1043.31 2.26417 1.82483 0
M  V30 6666 P 1044.41 7.20834 -5.23717 0
M  V30 6667 O 1044.63 8.66104 -5.38572 0
M  V30 6668 O 1045.2 6.33544 -6.1349 0
M  V30 6669 O 1044.66 6.7751 -3.72168 0
M  V30 6670 C 1043.72 7.20825 -2.7076 0
M  V30 6671 C 1044.45 7.45864 -1.40599 0
M  V30 6672 O 1044.66 6.17651 -0.734225 0
M  V30 6673 C 1045.85 8.05808 -1.51899 0
M  V30 6674 O 1046.24 8.74358 -0.335205 0
M  V30 6675 C 1046.73 6.83093 -1.70294 0
M  V30 6676 C 1046.02 5.79992 -0.836974 0
M  V30 6677 N 1046.07 4.41864 -1.38293 0
M  V30 6678 H 1043.23 8.13644 -3.0377 0
M  V30 6679 H 1042.96 6.42788 -2.55485 0
M  V30 6680 H 1043.83 8.12039 -0.792769 0
M  V30 6681 P 1047.79 8.91 7.97264e-12 0
M  V30 6682 O 1048.01 10.1726 0.733694 0
M  V30 6683 O 1048.58 8.73148 -1.23936 0
M  V30 6684 O 1048.04 7.66872 0.971405 0
M  V30 6685 C 1047.1 7.42309 2.04641 0
M  V30 6686 C 1047.83 6.86059 3.24661 0
M  V30 6687 O 1048.04 5.42847 3.03646 0
M  V30 6688 C 1049.23 7.41196 3.50753 0
M  V30 6689 O 1049.62 7.27073 4.86816 0
M  V30 6690 C 1050.11 6.5273 2.63741 0
M  V30 6691 C 1049.4 5.1842 2.73198 0
M  V30 6692 N 1049.45 4.38762 1.4784 0
M  V30 6693 H 1046.61 8.36803 2.32493 0
M  V30 6694 H 1046.34 6.70197 1.71129 0
M  V30 6695 H 1047.21 7.03551 4.13168 0
M  V30 6696 P 1051.17 7.20834 5.23717 0
M  V30 6697 O 1051.39 7.7993 6.57351 0
M  V30 6698 O 1051.96 7.79328 4.13004 0
M  V30 6699 O 1051.42 5.63315 5.29344 0
M  V30 6700 C 1050.48 4.80193 6.01798 0
M  V30 6701 C 1051.21 3.64202 6.65911 0
M  V30 6702 O 1051.42 2.60694 5.64732 0
M  V30 6703 C 1052.61 3.93473 7.1943 0
M  V30 6704 O 1053 3.02071 8.21205 0
M  V30 6705 C 1053.49 3.73047 5.97036 0
M  V30 6706 C 1052.78 2.58828 5.25741 0
M  V30 6707 N 1052.83 2.6801 3.77422 0
M  V30 6708 C 1052.98 1.50443 3.07133 0
M  V30 6709 O 1053.07 0.419406 3.61576 0
M  V30 6710 N 1053.02 1.6403 1.69677 0
M  V30 6711 C 1052.93 2.81206 0.986255 0
M  V30 6712 O 1052.98 2.80892 -0.249754 0
M  V30 6713 C 1052.78 3.99158 1.80325 0
M  V30 6714 C 1052.67 5.29309 1.06921 0
M  V30 6715 C 1052.73 3.89779 3.1476 0
M  V30 6716 H 1049.99 5.40332 6.79951 0
M  V30 6717 H 1049.72 4.41549 5.32301 0
M  V30 6718 H 1050.59 3.26331 7.47797 0
M  V30 6719 H 1053.25 1.6395 5.56554 0
M  V30 6720 H 1053.53 4.63439 5.3432 0
M  V30 6721 H 1054.52 3.44728 6.25838 0
M  V30 6722 H 1052.68 4.96652 7.57263 0
M  V30 6723 H 1052.61 4.80159 3.74441 0
M  V30 6724 H 1053.64 5.81459 1.09608 0
M  V30 6725 H 1051.91 5.9187 1.54487 0
M  V30 6726 H 1052.39 5.10095 0.0220288 0
M  V30 6727 H 1053.13 0.798962 1.16664 0
M  V30 6728 P 1054.55 2.75334 8.47391 0
M  V30 6729 O 1054.77 2.44571 9.90142 0
M  V30 6730 O 1055.34 3.87688 7.92115 0
M  V30 6731 O 1054.8 1.4459 7.59357 0
M  V30 6732 C 1053.86 0.347608 7.69215 0
M  V30 6733 C 1054.59 -0.96767 7.52806 0
M  V30 6734 O 1054.8 -1.21036 6.1011 0
M  V30 6735 C 1055.99 -1.04544 8.13308 0
M  V30 6736 O 1056.38 -2.38311 8.41922 0
M  V30 6737 C 1056.87 -0.491279 7.02284 0
M  V30 6738 C 1056.16 -0.996264 5.77469 0
M  V30 6739 N 1056.21 -0.0501916 4.62973 0
M  V30 6740 H 1053.37 0.374722 8.67691 0
M  V30 6741 H 1053.1 0.443485 6.90277 0
M  V30 6742 H 1053.97 -1.75537 7.96793 0
M  V30 6743 P 1057.93 -2.75334 8.47391 0
M  V30 6744 O 1058.15 -3.84128 9.44797 0
M  V30 6745 O 1058.72 -1.51947 8.68712 0
M  V30 6746 O 1058.18 -3.29363 6.99321 0
M  V30 6747 C 1057.24 -4.24011 6.4274 0
M  V30 6748 C 1057.97 -5.20775 5.52155 0
M  V30 6749 O 1058.18 -4.56534 4.22446 0
M  V30 6750 C 1059.37 -5.62629 5.96531 0
M  V30 6751 O 1059.76 -6.87667 5.41053 0
M  V30 6752 C 1060.25 -4.52537 5.39283 0
M  V30 6753 C 1059.54 -4.20027 4.08623 0
M  V30 6754 N 1059.59 -2.76189 3.71603 0
M  V30 6755 C 1059.51 -1.64862 4.52822 0
M  V30 6756 N 1059.59 -0.512671 3.88633 0
M  V30 6757 C 1059.73 -0.888083 2.54977 0
M  V30 6758 C 1059.86 -0.094668 1.38677 0
M  V30 6759 O 1059.88 1.13053 1.28163 0
M  V30 6760 N 1059.98 -0.890102 0.232633 0
M  V30 6761 C 1059.98 -2.26958 0.21772 0
M  V30 6762 N 1060.11 -2.84626 -0.97925 0
M  V30 6763 N 1059.85 -3.0178 1.31033 0
M  V30 6764 C 1059.73 -2.26781 2.43843 0
M  V30 6765 H 1056.75 -4.797 7.24003 0
M  V30 6766 H 1056.48 -3.69856 5.84513 0
M  V30 6767 H 1057.35 -6.10356 5.41441 0
M  V30 6768 H 1060.01 -4.79061 3.27488 0
M  V30 6769 H 1060.29 -3.64906 6.05785 0
M  V30 6770 H 1061.28 -4.8868 5.2125 0
M  V30 6771 H 1059.44 -5.66726 7.06352 0
M  V30 6772 H 1059.39 -1.71169 5.60966 0
M  V30 6773 H 1060.08 -0.419134 -0.644739 0
M  V30 6774 H 1060.11 -3.87332 -1.06098 0
M  V30 6775 H 1060.21 -2.26417 -1.82483 0
M  V30 6776 P 1061.31 -7.20834 5.23717 0
M  V30 6777 O 1061.53 -8.66274 5.38678 0
M  V30 6778 O 1062.1 -6.33687 6.13629 0
M  V30 6779 O 1061.56 -6.7751 3.72168 0
M  V30 6780 C 1060.62 -7.20919 2.70795 0
M  V30 6781 C 1061.35 -7.45864 1.40599 0
M  V30 6782 O 1061.56 -6.17751 0.734343 0
M  V30 6783 C 1062.75 -8.05906 1.51917 0
M  V30 6784 O 1063.14 -8.74358 0.335205 0
M  V30 6785 C 1063.63 -6.83093 1.70294 0
M  V30 6786 C 1062.92 -5.79992 0.836974 0
M  V30 6787 N 1062.97 -4.41864 1.38293 0
M  V30 6788 H 1060.14 -8.13738 3.03804 0
M  V30 6789 H 1059.86 -6.42974 2.55559 0
M  V30 6790 H 1060.73 -8.12139 0.792866 0
M  V30 6791 H 1063.39 -5.80178 -0.160643 0
M  V30 6792 H 1063.67 -6.51379 2.75643 0
M  V30 6793 H 1064.66 -7.01832 1.3448 0
M  V30 6794 H 1062.82 -8.73771 2.38364 0
M  V30 6795 P 1064.69 -8.91 -8.12982e-12 0
M  V30 6796 O 1064.91 -10.1736 -0.733766 0
M  V30 6797 O 1065.48 -8.73247 1.2395 0
M  V30 6798 O 1064.94 -7.66872 -0.971405 0
M  V30 6799 C 1064 -7.42212 -2.04614 0
M  V30 6800 C 1064.73 -6.86059 -3.24661 0
M  V30 6801 O 1064.94 -5.42847 -3.03646 0
M  V30 6802 C 1066.13 -7.41196 -3.50753 0
M  V30 6803 O 1066.52 -7.27073 -4.86816 0
M  V30 6804 C 1067.01 -6.5273 -2.63741 0
M  V30 6805 C 1066.3 -5.1842 -2.73198 0
M  V30 6806 N 1066.35 -4.38668 -1.47808 0
M  V30 6807 C 1066.5 -3.02239 -1.60048 0
M  V30 6808 O 1066.59 -2.46459 -2.67869 0
M  V30 6809 N 1066.54 -2.32436 -0.408571 0
M  V30 6810 C 1066.45 -2.85471 0.854993 0
M  V30 6811 C 1066.3 -4.28918 0.887335 0
M  V30 6812 C 1066.25 -5.00349 -0.255399 0
M  V30 6813 H 1063.51 -8.36803 -2.32493 0
M  V30 6814 H 1063.24 -6.701 -1.71105 0
M  V30 6815 H 1064.11 -7.03551 -4.13168 0
M  V30 6816 H 1066.77 -4.59773 -3.53894 0
M  V30 6817 H 1067.05 -6.88995 -1.59871 0
M  V30 6818 H 1068.04 -6.46749 -3.03687 0
M  V30 6819 H 1066.2 -8.46908 -3.20714 0
M  V30 6820 H 1066.13 -6.08548 -0.206986 0
M  V30 6821 P 1068.07 -7.20834 -5.23717 0
M  V30 6822 O 1068.29 -7.79853 -6.57286 0
M  V30 6823 O 1068.86 -7.79239 -4.12957 0
M  V30 6824 O 1068.32 -5.63315 -5.29344 0
M  V30 6825 C 1067.38 -4.80255 -6.01876 0
M  V30 6826 C 1068.11 -3.64202 -6.65911 0
M  V30 6827 O 1068.32 -2.60694 -5.64732 0
M  V30 6828 C 1069.51 -3.93473 -7.1943 0
M  V30 6829 O 1069.9 -3.02071 -8.21205 0
M  V30 6830 C 1070.39 -3.73047 -5.97036 0
M  V30 6831 C 1069.68 -2.58828 -5.25741 0
M  V30 6832 N 1069.73 -2.68068 -3.77503 0
M  V30 6833 C 1069.65 -3.79715 -2.96723 0
M  V30 6834 N 1069.73 -3.5377 -1.68852 0
M  V30 6835 C 1069.87 -2.15054 -1.63254 0
M  V30 6836 C 1070 -1.28964 -0.518571 0
M  V30 6837 N 1070.12 0.0538097 -0.918425 0
M  V30 6838 C 1070.12 0.494275 -2.22578 0
M  V30 6839 N 1070.25 1.81086 -2.40434 0
M  V30 6840 N 1069.99 -0.313645 -3.27502 0
M  V30 6841 C 1069.87 -1.61829 -2.91033 0
M  V30 6842 H 1066.89 -5.40332 -6.79951 0
M  V30 6843 H 1066.62 -4.41613 -5.32378 0
M  V30 6844 H 1067.49 -3.26331 -7.47797 0
M  V30 6845 P 1071.45 -2.75334 -8.47391 0
M  V30 6846 O 1071.67 -2.44571 -9.90142 0
M  V30 6847 O 1072.24 -3.87688 -7.92115 0
M  V30 6848 O 1071.7 -1.4459 -7.59357 0
M  V30 6849 C 1070.76 -0.347608 -7.69215 0
M  V30 6850 C 1071.49 0.96767 -7.52806 0
M  V30 6851 O 1071.7 1.21036 -6.1011 0
M  V30 6852 C 1072.89 1.04544 -8.13308 0
M  V30 6853 O 1073.28 2.38311 -8.41922 0
M  V30 6854 C 1073.77 0.491279 -7.02284 0
M  V30 6855 C 1073.06 0.996264 -5.77469 0
M  V30 6856 N 1073.11 0.0501916 -4.62973 0
M  V30 6857 H 1070.27 -0.374722 -8.67691 0
M  V30 6858 H 1070 -0.443485 -6.90277 0
M  V30 6859 H 1070.87 1.75537 -7.96793 0
M  V30 6860 P 1074.83 2.75334 -8.47391 0
M  V30 6861 O 1075.05 3.84128 -9.44797 0
M  V30 6862 O 1075.62 1.51947 -8.68712 0
M  V30 6863 O 1075.08 3.29363 -6.99321 0
M  V30 6864 C 1074.14 4.24011 -6.4274 0
M  V30 6865 C 1074.87 5.20775 -5.52155 0
M  V30 6866 O 1075.08 4.56534 -4.22446 0
M  V30 6867 C 1076.27 5.62629 -5.96531 0
M  V30 6868 O 1076.66 6.87667 -5.41053 0
M  V30 6869 C 1077.15 4.52537 -5.39283 0
M  V30 6870 C 1076.44 4.20027 -4.08623 0
M  V30 6871 N 1076.49 2.76189 -3.71603 0
M  V30 6872 H 1073.65 4.797 -7.24003 0
M  V30 6873 H 1073.38 3.69856 -5.84513 0
M  V30 6874 H 1074.25 6.10356 -5.41441 0
M  V30 6875 P 1078.21 7.20834 -5.23717 0
M  V30 6876 O 1078.43 8.66104 -5.38572 0
M  V30 6877 O 1079 6.33544 -6.1349 0
M  V30 6878 O 1078.46 6.7751 -3.72168 0
M  V30 6879 C 1077.52 7.20825 -2.7076 0
M  V30 6880 C 1078.25 7.45864 -1.40599 0
M  V30 6881 O 1078.46 6.17651 -0.734225 0
M  V30 6882 C 1079.65 8.05808 -1.51899 0
M  V30 6883 O 1080.04 8.74358 -0.335205 0
M  V30 6884 C 1080.53 6.83093 -1.70294 0
M  V30 6885 C 1079.82 5.79992 -0.836974 0
M  V30 6886 N 1079.87 4.41864 -1.38293 0
M  V30 6887 H 1077.03 8.13644 -3.0377 0
M  V30 6888 H 1076.76 6.42788 -2.55485 0
M  V30 6889 H 1077.63 8.12039 -0.792769 0
M  V30 6890 P 1081.59 8.91 8.287e-12 0
M  V30 6891 O 1081.81 10.1726 0.733694 0
M  V30 6892 O 1082.38 8.73148 -1.23936 0
M  V30 6893 O 1081.84 7.66872 0.971405 0
M  V30 6894 C 1080.9 7.42309 2.04641 0
M  V30 6895 C 1081.63 6.86059 3.24661 0
M  V30 6896 O 1081.84 5.42847 3.03646 0
M  V30 6897 C 1083.03 7.41196 3.50753 0
M  V30 6898 O 1083.42 7.27073 4.86816 0
M  V30 6899 C 1083.91 6.5273 2.63741 0
M  V30 6900 C 1083.2 5.1842 2.73198 0
M  V30 6901 N 1083.25 4.38762 1.4784 0
M  V30 6902 C 1083.17 4.81605 0.168631 0
M  V30 6903 N 1083.25 3.85454 -0.713363 0
M  V30 6904 C 1083.39 2.6994 0.0566958 0
M  V30 6905 C 1083.52 1.34815 -0.338502 0
M  V30 6906 O 1083.54 0.869548 -1.47125 0
M  V30 6907 N 1083.64 0.496304 0.77465 0
M  V30 6908 C 1083.64 0.908403 2.09122 0
M  V30 6909 N 1083.77 -0.0517805 3.00955 0
M  V30 6910 N 1083.51 2.17875 2.46519 0
M  V30 6911 C 1083.39 3.01988 1.4033 0
M  V30 6912 H 1080.41 8.36803 2.32493 0
M  V30 6913 H 1080.14 6.70197 1.71129 0
M  V30 6914 H 1081.01 7.03551 4.13168 0
M  V30 6915 H 1083.67 4.59498 3.54415 0
M  V30 6916 H 1083.95 6.88898 1.59848 0
M  V30 6917 H 1084.94 6.46749 3.03687 0
M  V30 6918 H 1083.1 8.46908 3.20714 0
M  V30 6919 H 1083.05 5.86405 -0.105564 0
M  V30 6920 H 1083.74 -0.483664 0.597855 0
M  V30 6921 H 1083.77 0.187865 4.0116 0
M  V30 6922 H 1083.87 -1.03585 2.71726 0
M  V30 6923 P 1084.97 7.20834 5.23717 0
M  V30 6924 O 1085.19 7.79853 6.57286 0
M  V30 6925 O 1085.76 7.79239 4.12957 0
M  V30 6926 O 1085.22 5.63315 5.29344 0
M  V30 6927 C 1084.28 4.80255 6.01876 0
M  V30 6928 C 1085.01 3.64202 6.65911 0
M  V30 6929 O 1085.22 2.60694 5.64732 0
M  V30 6930 C 1086.41 3.93473 7.1943 0
M  V30 6931 O 1086.8 3.02071 8.21205 0
M  V30 6932 C 1087.29 3.73047 5.97036 0
M  V30 6933 C 1086.58 2.58828 5.25741 0
M  V30 6934 N 1086.63 2.68068 3.77503 0
M  V30 6935 C 1086.55 3.79715 2.96723 0
M  V30 6936 N 1086.63 3.5377 1.68852 0
M  V30 6937 C 1086.77 2.15054 1.63254 0
M  V30 6938 C 1086.9 1.28964 0.518571 0
M  V30 6939 N 1087.02 -0.0538097 0.918425 0
M  V30 6940 C 1087.02 -0.494275 2.22578 0
M  V30 6941 N 1087.15 -1.81086 2.40434 0
M  V30 6942 N 1086.89 0.313645 3.27502 0
M  V30 6943 C 1086.77 1.61829 2.91033 0
M  V30 6944 H 1083.79 5.40332 6.79951 0
M  V30 6945 H 1083.52 4.41613 5.32378 0
M  V30 6946 H 1084.39 3.26331 7.47797 0
M  V30 6947 P 1088.35 2.75334 8.47391 0
M  V30 6948 O 1088.57 2.44571 9.90142 0
M  V30 6949 O 1089.14 3.87688 7.92115 0
M  V30 6950 O 1088.6 1.4459 7.59357 0
M  V30 6951 C 1087.66 0.347608 7.69215 0
M  V30 6952 C 1088.39 -0.96767 7.52806 0
M  V30 6953 O 1088.6 -1.21036 6.1011 0
M  V30 6954 C 1089.79 -1.04544 8.13308 0
M  V30 6955 O 1090.18 -2.38311 8.41922 0
M  V30 6956 C 1090.67 -0.491279 7.02284 0
M  V30 6957 C 1089.96 -0.996264 5.77469 0
M  V30 6958 N 1090.01 -0.0501916 4.62973 0
M  V30 6959 H 1087.17 0.374722 8.67691 0
M  V30 6960 H 1086.9 0.443485 6.90277 0
M  V30 6961 H 1087.77 -1.75537 7.96793 0
M  V30 6962 P 1091.73 -2.75334 8.47391 0
M  V30 6963 O 1091.95 -3.84128 9.44797 0
M  V30 6964 O 1092.52 -1.51947 8.68712 0
M  V30 6965 O 1091.98 -3.29363 6.99321 0
M  V30 6966 C 1091.04 -4.24011 6.4274 0
M  V30 6967 C 1091.77 -5.20775 5.52155 0
M  V30 6968 O 1091.98 -4.56534 4.22446 0
M  V30 6969 C 1093.17 -5.62629 5.96531 0
M  V30 6970 O 1093.56 -6.87667 5.41053 0
M  V30 6971 C 1094.05 -4.52537 5.39283 0
M  V30 6972 C 1093.34 -4.20027 4.08623 0
M  V30 6973 N 1093.39 -2.76189 3.71603 0
M  V30 6974 H 1090.55 -4.797 7.24003 0
M  V30 6975 H 1090.28 -3.69856 5.84513 0
M  V30 6976 H 1091.15 -6.10356 5.41441 0
M  V30 6977 P 1095.11 -7.20834 5.23717 0
M  V30 6978 O 1095.33 -8.66189 5.38625 0
M  V30 6979 O 1095.9 -6.33615 6.1356 0
M  V30 6980 O 1095.36 -6.7751 3.72168 0
M  V30 6981 C 1094.42 -7.20732 2.70725 0
M  V30 6982 C 1095.15 -7.45864 1.40599 0
M  V30 6983 O 1095.36 -6.17651 0.734225 0
M  V30 6984 C 1096.55 -8.05808 1.51899 0
M  V30 6985 O 1096.94 -8.74358 0.335205 0
M  V30 6986 C 1097.43 -6.83093 1.70294 0
M  V30 6987 C 1096.72 -5.79992 0.836974 0
M  V30 6988 N 1096.77 -4.41769 1.38263 0
M  V30 6989 C 1096.92 -3.38591 0.481702 0
M  V30 6990 O 1097.01 -3.56839 -0.718452 0
M  V30 6991 N 1096.96 -2.1206 1.03569 0
M  V30 6992 C 1096.87 -1.80696 2.36966 0
M  V30 6993 O 1096.92 -0.630473 2.74862 0
M  V30 6994 C 1096.72 -2.94845 3.23898 0
M  V30 6995 C 1096.61 -2.65253 4.70362 0
M  V30 6996 C 1096.67 -4.19803 2.73435 0
M  V30 6997 H 1093.93 -8.13644 3.0377 0
M  V30 6998 H 1093.66 -6.42695 2.55448 0
M  V30 6999 H 1094.53 -8.12039 0.792769 0
M  V30 7000 H 1097.19 -5.79978 -0.160587 0
M  V30 7001 H 1097.47 -6.51379 2.75643 0
M  V30 7002 H 1098.46 -7.01734 1.34462 0
M  V30 7003 H 1096.62 -8.73674 2.38337 0
M  V30 7004 H 1096.55 -5.04492 3.4095 0
M  V30 7005 H 1097.58 -2.83924 5.1913 0
M  V30 7006 H 1095.85 -3.29824 5.15163 0
M  V30 7007 H 1096.33 -1.59723 4.84449 0
M  V30 7008 H 1097.07 -1.35644 0.399345 0
M  V30 7009 P 1098.49 -8.91 -8.44418e-12 0
M  V30 7010 O 1098.71 -10.1726 -0.733694 0
M  V30 7011 O 1099.28 -8.73148 1.23936 0
M  V30 7012 O 1098.74 -7.66872 -0.971405 0
M  V30 7013 C 1097.8 -7.42309 -2.04641 0
M  V30 7014 C 1098.53 -6.86059 -3.24661 0
M  V30 7015 O 1098.74 -5.42847 -3.03646 0
M  V30 7016 C 1099.93 -7.41196 -3.50753 0
M  V30 7017 O 1100.32 -7.27073 -4.86816 0
M  V30 7018 C 1100.81 -6.5273 -2.63741 0
M  V30 7019 C 1100.1 -5.1842 -2.73198 0
M  V30 7020 N 1100.15 -4.38762 -1.4784 0
M  V30 7021 H 1097.31 -8.36803 -2.32493 0
M  V30 7022 H 1097.04 -6.70197 -1.71129 0
M  V30 7023 H 1097.91 -7.03551 -4.13168 0
M  V30 7024 P 1101.87 -7.20834 -5.23717 0
M  V30 7025 O 1102.09 -7.80006 -6.57415 0
M  V30 7026 O 1102.66 -7.79416 -4.13051 0
M  V30 7027 O 1102.12 -5.63315 -5.29344 0
M  V30 7028 C 1101.18 -4.80318 -6.01954 0
M  V30 7029 C 1101.91 -3.64202 -6.65911 0
M  V30 7030 O 1102.12 -2.60736 -5.64823 0
M  V30 7031 C 1103.31 -3.93521 -7.19518 0
M  V30 7032 O 1103.7 -3.02071 -8.21205 0
M  V30 7033 C 1104.19 -3.73047 -5.97036 0
M  V30 7034 C 1103.48 -2.58828 -5.25741 0
M  V30 7035 N 1103.53 -2.68068 -3.77503 0
M  V30 7036 C 1103.45 -3.80474 -2.99159 0
M  V30 7037 N 1103.52 -3.55622 -1.71925 0
M  V30 7038 C 1103.67 -2.1832 -1.65733 0
M  V30 7039 C 1103.8 -1.28842 -0.572777 0
M  V30 7040 N 1103.81 -1.66875 0.70098 0
M  V30 7041 N 1103.92 0.016788 -0.859836 0
M  V30 7042 C 1103.91 0.398145 -2.13316 0
M  V30 7043 N 1103.79 -0.328224 -3.22333 0
M  V30 7044 C 1103.67 -1.62992 -2.90383 0
M  V30 7045 H 1100.7 -5.40394 -6.8003 0
M  V30 7046 H 1100.42 -4.41741 -5.32532 0
M  V30 7047 H 1101.29 -3.26371 -7.47889 0
M  V30 7048 H 1103.95 -1.64007 -5.56746 0
M  V30 7049 H 1104.23 -4.63439 -5.3432 0
M  V30 7050 H 1105.22 -3.44776 -6.25925 0
M  V30 7051 H 1103.38 -4.96707 -7.57347 0
M  V30 7052 H 1103.34 -4.8089 -3.39924 0
M  V30 7053 H 1103.72 -2.66547 0.941919 0
M  V30 7054 H 1103.91 -0.965341 1.44766 0
M  V30 7055 H 1104.02 1.46427 -2.29697 0
M  V30 7056 P 1105.25 -2.75334 -8.47391 0
M  V30 7057 O 1105.47 -2.44571 -9.90142 0
M  V30 7058 O 1106.04 -3.87688 -7.92115 0
M  V30 7059 O 1105.5 -1.4459 -7.59357 0
M  V30 7060 C 1104.56 -0.347608 -7.69215 0
M  V30 7061 C 1105.29 0.96767 -7.52806 0
M  V30 7062 O 1105.5 1.21036 -6.1011 0
M  V30 7063 C 1106.69 1.04544 -8.13308 0
M  V30 7064 O 1107.08 2.38311 -8.41922 0
M  V30 7065 C 1107.57 0.491279 -7.02284 0
M  V30 7066 C 1106.86 0.996264 -5.77469 0
M  V30 7067 N 1106.91 0.0501916 -4.62973 0
M  V30 7068 H 1104.07 -0.374722 -8.67691 0
M  V30 7069 H 1103.8 -0.443485 -6.90277 0
M  V30 7070 H 1104.67 1.75537 -7.96793 0
M  V30 7071 P 1108.63 2.75334 -8.47391 0
M  V30 7072 O 1108.85 3.84128 -9.44797 0
M  V30 7073 O 1109.42 1.51947 -8.68712 0
M  V30 7074 O 1108.88 3.29363 -6.99321 0
M  V30 7075 C 1107.94 4.24011 -6.4274 0
M  V30 7076 C 1108.67 5.20775 -5.52155 0
M  V30 7077 O 1108.88 4.56534 -4.22446 0
M  V30 7078 C 1110.07 5.62629 -5.96531 0
M  V30 7079 O 1110.46 6.87667 -5.41053 0
M  V30 7080 C 1110.95 4.52537 -5.39283 0
M  V30 7081 C 1110.24 4.20027 -4.08623 0
M  V30 7082 N 1110.29 2.76189 -3.71603 0
M  V30 7083 H 1107.45 4.797 -7.24003 0
M  V30 7084 H 1107.18 3.69856 -5.84513 0
M  V30 7085 H 1108.05 6.10356 -5.41441 0
M  V30 7086 P 1112.01 7.20834 -5.23717 0
M  V30 7087 O 1112.23 8.66104 -5.38572 0
M  V30 7088 O 1112.8 6.33544 -6.1349 0
M  V30 7089 O 1112.26 6.7751 -3.72168 0
M  V30 7090 C 1111.32 7.20825 -2.7076 0
M  V30 7091 C 1112.05 7.45864 -1.40599 0
M  V30 7092 O 1112.26 6.17651 -0.734225 0
M  V30 7093 C 1113.45 8.05808 -1.51899 0
M  V30 7094 O 1113.84 8.74358 -0.335205 0
M  V30 7095 C 1114.33 6.83093 -1.70294 0
M  V30 7096 C 1113.62 5.79992 -0.836974 0
M  V30 7097 N 1113.67 4.41864 -1.38293 0
M  V30 7098 C 1113.59 3.99538 -2.69438 0
M  V30 7099 N 1113.67 2.69909 -2.84277 0
M  V30 7100 C 1113.81 2.21719 -1.5408 0
M  V30 7101 C 1113.94 0.891712 -1.06628 0
M  V30 7102 N 1114.06 0.856846 0.334985 0
M  V30 7103 C 1114.06 1.9641 1.15789 0
M  V30 7104 N 1114.19 1.72708 2.46522 0
M  V30 7105 N 1113.93 3.21165 0.713741 0
M  V30 7106 C 1113.81 3.26797 -0.639748 0
M  V30 7107 H 1110.83 8.13644 -3.0377 0
M  V30 7108 H 1110.56 6.42788 -2.55485 0
M  V30 7109 H 1111.43 8.12039 -0.792769 0
M  V30 7110 P 1115.39 8.91 8.60137e-12 0
M  V30 7111 O 1115.61 10.1746 0.733838 0
M  V30 7112 O 1116.18 8.73346 -1.23964 0
M  V30 7113 O 1115.64 7.66872 0.971405 0
M  V30 7114 C 1114.7 7.42405 2.04668 0
M  V30 7115 C 1115.43 6.86059 3.24661 0
M  V30 7116 O 1115.64 5.42934 3.03695 0
M  V30 7117 C 1116.83 7.41287 3.50796 0
M  V30 7118 O 1117.22 7.27073 4.86816 0
M  V30 7119 C 1117.71 6.5273 2.63741 0
M  V30 7120 C 1117 5.1842 2.73198 0
M  V30 7121 N 1117.05 4.38762 1.4784 0
M  V30 7122 C 1116.97 4.83651 0.183876 0
M  V30 7123 N 1117.04 3.88759 -0.699393 0
M  V30 7124 C 1117.19 2.7404 0.0575568 0
M  V30 7125 C 1117.32 1.37902 -0.293928 0
M  V30 7126 N 1117.33 0.938021 -1.54797 0
M  V30 7127 N 1117.44 0.491817 0.70549 0
M  V30 7128 C 1117.43 0.931735 1.95979 0
M  V30 7129 N 1117.31 2.16017 2.41481 0
M  V30 7130 C 1117.19 3.02547 1.39121 0
M  V30 7131 H 1114.22 8.36899 2.3252 0
M  V30 7132 H 1113.94 6.70391 1.71179 0
M  V30 7133 H 1114.81 7.03638 4.13219 0
M  V30 7134 H 1117.47 4.59931 3.54016 0
M  V30 7135 H 1117.75 6.88995 1.59871 0
M  V30 7136 H 1118.74 6.4684 3.0373 0
M  V30 7137 H 1116.9 8.47002 3.20749 0
M  V30 7138 H 1116.86 5.8885 -0.0765548 0
M  V30 7139 H 1117.24 1.60276 -2.32875 0
M  V30 7140 H 1117.43 -0.0699355 -1.73859 0
M  V30 7141 H 1117.54 0.165507 2.71897 0
M  V30 7142 P 1118.77 7.20834 5.23717 0
M  V30 7143 O 1118.99 7.79853 6.57286 0
M  V30 7144 O 1119.56 7.79239 4.12957 0
M  V30 7145 O 1119.02 5.63315 5.29344 0
M  V30 7146 C 1118.08 4.80255 6.01876 0
M  V30 7147 C 1118.81 3.64202 6.65911 0
M  V30 7148 O 1119.02 2.60694 5.64732 0
M  V30 7149 C 1120.21 3.93473 7.1943 0
M  V30 7150 O 1120.6 3.02071 8.21205 0
M  V30 7151 C 1121.09 3.73047 5.97036 0
M  V30 7152 C 1120.38 2.58828 5.25741 0
M  V30 7153 N 1120.43 2.68068 3.77503 0
M  V30 7154 H 1117.59 5.40332 6.79951 0
M  V30 7155 H 1117.32 4.41613 5.32378 0
M  V30 7156 H 1118.19 3.26331 7.47797 0
M  V30 7157 P 1122.15 2.75334 8.47391 0
M  V30 7158 O 1122.37 2.44619 9.90336 0
M  V30 7159 O 1122.94 3.87776 7.92294 0
M  V30 7160 O 1122.4 1.4459 7.59357 0
M  V30 7161 C 1121.46 0.347653 7.69315 0
M  V30 7162 C 1122.19 -0.96767 7.52806 0
M  V30 7163 O 1122.4 -1.21055 6.10208 0
M  V30 7164 C 1123.59 -1.04557 8.13408 0
M  V30 7165 O 1123.98 -2.38311 8.41922 0
M  V30 7166 C 1124.47 -0.491279 7.02284 0
M  V30 7167 C 1123.76 -0.996264 5.77469 0
M  V30 7168 N 1123.81 -0.0501916 4.62973 0
M  V30 7169 H 1120.98 0.374765 8.67791 0
M  V30 7170 H 1120.7 0.443613 6.90476 0
M  V30 7171 H 1121.57 -1.75559 7.96891 0
M  V30 7172 H 1124.23 -1.94563 5.46818 0
M  V30 7173 H 1124.51 0.608651 7.04676 0
M  V30 7174 H 1125.5 -0.889796 7.09039 0
M  V30 7175 H 1123.66 -0.433128 9.04664 0
M  V30 7176 P 1125.53 -2.75334 8.47391 0
M  V30 7177 O 1125.75 -3.84204 9.44982 0
M  V30 7178 O 1126.32 -1.51982 8.68909 0
M  V30 7179 O 1125.78 -3.29363 6.99321 0
M  V30 7180 C 1124.84 -4.24066 6.42823 0
M  V30 7181 C 1125.57 -5.20775 5.52155 0
M  V30 7182 O 1125.78 -4.56607 4.22514 0
M  V30 7183 C 1126.97 -5.62697 5.96604 0
M  V30 7184 O 1127.36 -6.87667 5.41053 0
M  V30 7185 C 1127.85 -4.52537 5.39283 0
M  V30 7186 C 1127.14 -4.20027 4.08623 0
M  V30 7187 N 1127.19 -2.76189 3.71603 0
M  V30 7188 C 1127.11 -1.66944 4.54297 0
M  V30 7189 N 1127.18 -0.536169 3.91344 0
M  V30 7190 C 1127.33 -0.901569 2.58849 0
M  V30 7191 C 1127.46 -0.146599 1.40236 0
M  V30 7192 N 1127.47 1.18234 1.37046 0
M  V30 7193 N 1127.58 -0.822941 0.249738 0
M  V30 7194 C 1127.57 -2.15179 0.280525 0
M  V30 7195 N 1127.45 -2.96414 1.30822 0
M  V30 7196 C 1127.33 -2.25804 2.44748 0
M  V30 7197 H 1124.36 -4.79756 7.24086 0
M  V30 7198 H 1124.08 -3.69963 5.84682 0
M  V30 7199 H 1124.95 -6.10431 5.41508 0
M  V30 7200 H 1127.61 -4.78816 3.28024 0
M  V30 7201 H 1127.89 -3.64957 6.05871 0
M  V30 7202 H 1128.88 -4.88748 5.21323 0
M  V30 7203 H 1127.04 -5.66789 7.0643 0
M  V30 7204 H 1127 -1.74684 5.62396 0
M  V30 7205 H 1127.38 1.71949 2.24394 0
M  V30 7206 H 1127.57 1.67511 0.470742 0
M  V30 7207 H 1127.68 -2.63704 -0.6828 0
M  V30 7208 P 1128.91 -7.20834 5.23717 0
M  V30 7209 O 1129.13 -8.66104 5.38572 0
M  V30 7210 O 1129.7 -6.33544 6.1349 0
M  V30 7211 O 1129.16 -6.7751 3.72168 0
M  V30 7212 C 1128.22 -7.20825 2.7076 0
M  V30 7213 C 1128.95 -7.45864 1.40599 0
M  V30 7214 O 1129.16 -6.17651 0.734225 0
M  V30 7215 C 1130.35 -8.05808 1.51899 0
M  V30 7216 O 1130.74 -8.74358 0.335205 0
M  V30 7217 C 1131.23 -6.83093 1.70294 0
M  V30 7218 C 1130.52 -5.79992 0.836974 0
M  V30 7219 N 1130.57 -4.41864 1.38293 0
M  V30 7220 H 1127.73 -8.13644 3.0377 0
M  V30 7221 H 1127.46 -6.42788 2.55485 0
M  V30 7222 H 1128.33 -8.12039 0.792769 0
M  V30 7223 P 1132.29 -8.91 -8.75855e-12 0
M  V30 7224 O 1132.51 -10.1726 -0.733694 0
M  V30 7225 O 1133.08 -8.73148 1.23936 0
M  V30 7226 O 1132.54 -7.66872 -0.971405 0
M  V30 7227 C 1131.6 -7.42309 -2.04641 0
M  V30 7228 C 1132.33 -6.86059 -3.24661 0
M  V30 7229 O 1132.54 -5.42847 -3.03646 0
M  V30 7230 C 1133.73 -7.41196 -3.50753 0
M  V30 7231 O 1134.12 -7.27073 -4.86816 0
M  V30 7232 C 1134.61 -6.5273 -2.63741 0
M  V30 7233 C 1133.9 -5.1842 -2.73198 0
M  V30 7234 N 1133.95 -4.38762 -1.4784 0
M  V30 7235 C 1133.87 -4.81605 -0.168631 0
M  V30 7236 N 1133.95 -3.85454 0.713363 0
M  V30 7237 C 1134.09 -2.6994 -0.0566958 0
M  V30 7238 C 1134.22 -1.34815 0.338502 0
M  V30 7239 O 1134.24 -0.869548 1.47125 0
M  V30 7240 N 1134.34 -0.496304 -0.77465 0
M  V30 7241 C 1134.34 -0.908403 -2.09122 0
M  V30 7242 N 1134.47 0.0517805 -3.00955 0
M  V30 7243 N 1134.21 -2.17875 -2.46519 0
M  V30 7244 C 1134.09 -3.01988 -1.4033 0
M  V30 7245 H 1131.11 -8.36803 -2.32493 0
M  V30 7246 H 1130.84 -6.70197 -1.71129 0
M  V30 7247 H 1131.71 -7.03551 -4.13168 0
M  V30 7248 H 1134.37 -4.59498 -3.54415 0
M  V30 7249 H 1134.65 -6.88898 -1.59848 0
M  V30 7250 H 1135.64 -6.46749 -3.03687 0
M  V30 7251 H 1133.8 -8.46908 -3.20714 0
M  V30 7252 H 1133.75 -5.86405 0.105564 0
M  V30 7253 H 1134.44 0.483664 -0.597855 0
M  V30 7254 H 1134.47 -0.187865 -4.0116 0
M  V30 7255 H 1134.57 1.03585 -2.71726 0
M  V30 7256 P 1135.67 -7.20834 -5.23717 0
M  V30 7257 O 1135.89 -7.7993 -6.57351 0
M  V30 7258 O 1136.46 -7.79328 -4.13004 0
M  V30 7259 O 1135.92 -5.63315 -5.29344 0
M  V30 7260 C 1134.98 -4.80193 -6.01798 0
M  V30 7261 C 1135.71 -3.64202 -6.65911 0
M  V30 7262 O 1135.92 -2.60694 -5.64732 0
M  V30 7263 C 1137.11 -3.93473 -7.1943 0
M  V30 7264 O 1137.5 -3.02071 -8.21205 0
M  V30 7265 C 1137.99 -3.73047 -5.97036 0
M  V30 7266 C 1137.28 -2.58828 -5.25741 0
M  V30 7267 N 1137.33 -2.6801 -3.77422 0
M  V30 7268 C 1137.48 -1.50443 -3.07133 0
M  V30 7269 O 1137.57 -0.419406 -3.61576 0
M  V30 7270 N 1137.52 -1.6403 -1.69677 0
M  V30 7271 C 1137.43 -2.81206 -0.986255 0
M  V30 7272 O 1137.48 -2.80892 0.249754 0
M  V30 7273 C 1137.28 -3.99158 -1.80325 0
M  V30 7274 C 1137.17 -5.29309 -1.06921 0
M  V30 7275 C 1137.23 -3.89779 -3.1476 0
M  V30 7276 H 1134.49 -5.40332 -6.79951 0
M  V30 7277 H 1134.22 -4.41549 -5.32301 0
M  V30 7278 H 1135.09 -3.26331 -7.47797 0
M  V30 7279 H 1137.75 -1.6395 -5.56554 0
M  V30 7280 H 1138.03 -4.63439 -5.3432 0
M  V30 7281 H 1139.02 -3.44728 -6.25838 0
M  V30 7282 H 1137.18 -4.96652 -7.57263 0
M  V30 7283 H 1137.11 -4.80159 -3.74441 0
M  V30 7284 H 1138.14 -5.81459 -1.09608 0
M  V30 7285 H 1136.41 -5.9187 -1.54487 0
M  V30 7286 H 1136.89 -5.10095 -0.0220288 0
M  V30 7287 H 1137.63 -0.798962 -1.16664 0
M  V30 7288 P 1139.05 -2.75334 -8.47391 0
M  V30 7289 O 1139.27 -2.44571 -9.90142 0
M  V30 7290 O 1139.84 -3.87688 -7.92115 0
M  V30 7291 O 1139.3 -1.4459 -7.59357 0
M  V30 7292 C 1138.36 -0.347608 -7.69215 0
M  V30 7293 C 1139.09 0.96767 -7.52806 0
M  V30 7294 O 1139.3 1.21036 -6.1011 0
M  V30 7295 C 1140.49 1.04544 -8.13308 0
M  V30 7296 O 1140.88 2.38311 -8.41922 0
M  V30 7297 C 1141.37 0.491279 -7.02284 0
M  V30 7298 C 1140.66 0.996264 -5.77469 0
M  V30 7299 N 1140.71 0.0501916 -4.62973 0
M  V30 7300 H 1137.87 -0.374722 -8.67691 0
M  V30 7301 H 1137.6 -0.443485 -6.90277 0
M  V30 7302 H 1138.47 1.75537 -7.96793 0
M  V30 7303 P 1142.43 2.75334 -8.47391 0
M  V30 7304 O 1142.65 3.84128 -9.44797 0
M  V30 7305 O 1143.22 1.51947 -8.68712 0
M  V30 7306 O 1142.68 3.29363 -6.99321 0
M  V30 7307 C 1141.74 4.24011 -6.4274 0
M  V30 7308 C 1142.47 5.20775 -5.52155 0
M  V30 7309 O 1142.68 4.56534 -4.22446 0
M  V30 7310 C 1143.87 5.62629 -5.96531 0
M  V30 7311 O 1144.26 6.87667 -5.41053 0
M  V30 7312 C 1144.75 4.52537 -5.39283 0
M  V30 7313 C 1144.04 4.20027 -4.08623 0
M  V30 7314 N 1144.09 2.76189 -3.71603 0
M  V30 7315 H 1141.25 4.797 -7.24003 0
M  V30 7316 H 1140.98 3.69856 -5.84513 0
M  V30 7317 H 1141.85 6.10356 -5.41441 0
M  V30 7318 P 1145.81 7.20834 -5.23717 0
M  V30 7319 O 1146.03 8.66104 -5.38572 0
M  V30 7320 O 1146.6 6.33544 -6.1349 0
M  V30 7321 O 1146.06 6.7751 -3.72168 0
M  V30 7322 C 1145.12 7.20825 -2.7076 0
M  V30 7323 C 1145.85 7.45864 -1.40599 0
M  V30 7324 O 1146.06 6.17651 -0.734225 0
M  V30 7325 C 1147.25 8.05808 -1.51899 0
M  V30 7326 O 1147.64 8.74358 -0.335205 0
M  V30 7327 C 1148.13 6.83093 -1.70294 0
M  V30 7328 C 1147.42 5.79992 -0.836974 0
M  V30 7329 N 1147.47 4.41864 -1.38293 0
M  V30 7330 H 1144.63 8.13644 -3.0377 0
M  V30 7331 H 1144.36 6.42788 -2.55485 0
M  V30 7332 H 1145.23 8.12039 -0.792769 0
M  V30 7333 P 1149.19 8.91 8.91573e-12 0
M  V30 7334 O 1149.41 10.1726 0.733694 0
M  V30 7335 O 1149.98 8.73148 -1.23936 0
M  V30 7336 O 1149.44 7.66872 0.971405 0
M  V30 7337 C 1148.5 7.42309 2.04641 0
M  V30 7338 C 1149.23 6.86059 3.24661 0
M  V30 7339 O 1149.44 5.42847 3.03646 0
M  V30 7340 C 1150.63 7.41196 3.50753 0
M  V30 7341 O 1151.02 7.27073 4.86816 0
M  V30 7342 C 1151.51 6.5273 2.63741 0
M  V30 7343 C 1150.8 5.1842 2.73198 0
M  V30 7344 N 1150.85 4.38762 1.4784 0
M  V30 7345 H 1148.01 8.36803 2.32493 0
M  V30 7346 H 1147.74 6.70197 1.71129 0
M  V30 7347 H 1148.61 7.03551 4.13168 0
M  V30 7348 P 1152.57 7.20834 5.23717 0
M  V30 7349 O 1152.79 7.79853 6.57286 0
M  V30 7350 O 1153.36 7.79239 4.12957 0
M  V30 7351 O 1152.82 5.63315 5.29344 0
M  V30 7352 C 1151.88 4.80255 6.01876 0
M  V30 7353 C 1152.61 3.64202 6.65911 0
M  V30 7354 O 1152.82 2.60694 5.64732 0
M  V30 7355 C 1154.01 3.93473 7.1943 0
M  V30 7356 O 1154.4 3.02071 8.21205 0
M  V30 7357 C 1154.89 3.73047 5.97036 0
M  V30 7358 C 1154.18 2.58828 5.25741 0
M  V30 7359 N 1154.23 2.68068 3.77503 0
M  V30 7360 H 1151.39 5.40332 6.79951 0
M  V30 7361 H 1151.12 4.41613 5.32378 0
M  V30 7362 H 1151.99 3.26331 7.47797 0
M  V30 7363 P 1155.95 2.75334 8.47391 0
M  V30 7364 O 1156.17 2.44571 9.90142 0
M  V30 7365 O 1156.74 3.87688 7.92115 0
M  V30 7366 O 1156.2 1.4459 7.59357 0
M  V30 7367 C 1155.26 0.347608 7.69215 0
M  V30 7368 C 1155.99 -0.96767 7.52806 0
M  V30 7369 O 1156.2 -1.21036 6.1011 0
M  V30 7370 C 1157.39 -1.04544 8.13308 0
M  V30 7371 O 1157.78 -2.38311 8.41922 0
M  V30 7372 C 1158.27 -0.491279 7.02284 0
M  V30 7373 C 1157.56 -0.996264 5.77469 0
M  V30 7374 N 1157.61 -0.0501916 4.62973 0
M  V30 7375 H 1154.77 0.374722 8.67691 0
M  V30 7376 H 1154.5 0.443485 6.90277 0
M  V30 7377 H 1155.37 -1.75537 7.96793 0
M  V30 7378 P 1159.33 -2.75334 8.47391 0
M  V30 7379 O 1159.55 -3.84128 9.44797 0
M  V30 7380 O 1160.12 -1.51947 8.68712 0
M  V30 7381 O 1159.58 -3.29363 6.99321 0
M  V30 7382 C 1158.64 -4.24011 6.4274 0
M  V30 7383 C 1159.37 -5.20775 5.52155 0
M  V30 7384 O 1159.58 -4.56534 4.22446 0
M  V30 7385 C 1160.77 -5.62629 5.96531 0
M  V30 7386 O 1161.16 -6.87667 5.41053 0
M  V30 7387 C 1161.65 -4.52537 5.39283 0
M  V30 7388 C 1160.94 -4.20027 4.08623 0
M  V30 7389 N 1160.99 -2.76189 3.71603 0
M  V30 7390 H 1158.15 -4.797 7.24003 0
M  V30 7391 H 1157.88 -3.69856 5.84513 0
M  V30 7392 H 1158.75 -6.10356 5.41441 0
M  V30 7393 P 1162.71 -7.20834 5.23717 0
M  V30 7394 O 1162.93 -8.66189 5.38625 0
M  V30 7395 O 1163.5 -6.33615 6.1356 0
M  V30 7396 O 1162.96 -6.7751 3.72168 0
M  V30 7397 C 1162.02 -7.20825 2.7076 0
M  V30 7398 C 1162.75 -7.45864 1.40599 0
M  V30 7399 O 1162.96 -6.17651 0.734225 0
M  V30 7400 C 1164.15 -8.05808 1.51899 0
M  V30 7401 O 1164.54 -8.74358 0.335205 0
M  V30 7402 C 1165.03 -6.83093 1.70294 0
M  V30 7403 C 1164.32 -5.79992 0.836974 0
M  V30 7404 N 1164.37 -4.41769 1.38263 0
M  V30 7405 C 1164.52 -3.36514 0.485617 0
M  V30 7406 O 1164.61 -3.61814 -0.724703 0
M  V30 7407 N 1164.57 -2.00746 1.14492 0
M  V30 7408 C 1164.47 -1.85887 2.27776 0
M  V30 7409 N 1164.52 -0.600907 2.69379 0
M  V30 7410 C 1164.32 -2.92182 3.22265 0
M  V30 7411 C 1164.27 -4.18399 2.71925 0
M  V30 7412 H 1161.53 -8.1355 3.03735 0
M  V30 7413 H 1161.26 -6.42695 2.55448 0
M  V30 7414 H 1162.13 -8.12139 0.792866 0
M  V30 7415 H 1164.79 -5.80078 -0.160615 0
M  V30 7416 H 1165.07 -6.51379 2.75643 0
M  V30 7417 H 1166.06 -7.01734 1.34462 0
M  V30 7418 H 1164.22 -8.73674 2.38337 0
M  V30 7419 H 1164.15 -5.02669 3.39718 0
M  V30 7420 H 1164.25 -2.73001 4.29239 0
M  V30 7421 H 1164.64 0.162318 2.01146 0
M  V30 7422 H 1164.44 -0.387742 3.69773 0
M  V30 7423 P 1166.09 -8.91 -9.07291e-12 0
M  V30 7424 O 1166.31 -10.1736 -0.733766 0
M  V30 7425 O 1166.88 -8.73247 1.2395 0
M  V30 7426 O 1166.34 -7.66872 -0.971405 0
M  V30 7427 C 1165.4 -7.42212 -2.04614 0
M  V30 7428 C 1166.13 -6.86059 -3.24661 0
M  V30 7429 O 1166.34 -5.42847 -3.03646 0
M  V30 7430 C 1167.53 -7.41196 -3.50753 0
M  V30 7431 O 1167.92 -7.27073 -4.86816 0
M  V30 7432 C 1168.41 -6.5273 -2.63741 0
M  V30 7433 C 1167.7 -5.1842 -2.73198 0
M  V30 7434 N 1167.75 -4.38668 -1.47808 0
M  V30 7435 C 1167.9 -3.02239 -1.60048 0
M  V30 7436 O 1167.99 -2.46459 -2.67869 0
M  V30 7437 N 1167.94 -2.32436 -0.408571 0
M  V30 7438 C 1167.85 -2.85471 0.854993 0
M  V30 7439 O 1167.9 -2.12566 1.8531 0
M  V30 7440 C 1167.7 -4.28918 0.887335 0
M  V30 7441 C 1167.59 -4.91066 2.24619 0
M  V30 7442 C 1167.65 -5.00349 -0.255399 0
M  V30 7443 H 1164.91 -8.36803 -2.32493 0
M  V30 7444 H 1164.64 -6.701 -1.71105 0
M  V30 7445 H 1165.51 -7.03551 -4.13168 0
M  V30 7446 H 1168.17 -4.59773 -3.53894 0
M  V30 7447 H 1168.45 -6.88995 -1.59871 0
M  V30 7448 H 1169.44 -6.46749 -3.03687 0
M  V30 7449 H 1167.6 -8.46908 -3.20714 0
M  V30 7450 H 1167.53 -6.08548 -0.206986 0
M  V30 7451 H 1168.56 -5.34836 2.53099 0
M  V30 7452 H 1166.83 -5.69638 2.2291 0
M  V30 7453 H 1167.31 -4.13971 2.98044 0
M  V30 7454 H 1168.05 -1.33211 -0.474216 0
M  V30 7455 P 1169.47 -7.20834 -5.23717 0
M  V30 7456 O 1169.69 -7.80006 -6.57415 0
M  V30 7457 O 1170.26 -7.79416 -4.13051 0
M  V30 7458 O 1169.72 -5.63315 -5.29344 0
M  V30 7459 C 1168.78 -4.80318 -6.01954 0
M  V30 7460 C 1169.51 -3.64202 -6.65911 0
M  V30 7461 O 1169.72 -2.60736 -5.64823 0
M  V30 7462 C 1170.91 -3.93521 -7.19518 0
M  V30 7463 O 1171.3 -3.02071 -8.21205 0
M  V30 7464 C 1171.79 -3.73047 -5.97036 0
M  V30 7465 C 1171.08 -2.58828 -5.25741 0
M  V30 7466 N 1171.13 -2.68068 -3.77503 0
M  V30 7467 C 1171.05 -3.80474 -2.99159 0
M  V30 7468 N 1171.12 -3.55622 -1.71925 0
M  V30 7469 C 1171.27 -2.1832 -1.65733 0
M  V30 7470 C 1171.4 -1.28842 -0.572777 0
M  V30 7471 N 1171.41 -1.66875 0.70098 0
M  V30 7472 N 1171.52 0.016788 -0.859836 0
M  V30 7473 C 1171.51 0.398145 -2.13316 0
M  V30 7474 N 1171.39 -0.328224 -3.22333 0
M  V30 7475 C 1171.27 -1.62992 -2.90383 0
M  V30 7476 H 1168.3 -5.40394 -6.8003 0
M  V30 7477 H 1168.02 -4.41741 -5.32532 0
M  V30 7478 H 1168.89 -3.26371 -7.47889 0
M  V30 7479 H 1171.55 -1.64007 -5.56746 0
M  V30 7480 H 1171.83 -4.63439 -5.3432 0
M  V30 7481 H 1172.82 -3.44776 -6.25925 0
M  V30 7482 H 1170.98 -4.96707 -7.57347 0
M  V30 7483 H 1170.94 -4.8089 -3.39924 0
M  V30 7484 H 1171.32 -2.66547 0.941919 0
M  V30 7485 H 1171.51 -0.965341 1.44766 0
M  V30 7486 H 1171.62 1.46427 -2.29697 0
M  V30 7487 P 1172.85 -2.75334 -8.47391 0
M  V30 7488 O 1173.07 -2.44571 -9.90142 0
M  V30 7489 O 1173.64 -3.87688 -7.92115 0
M  V30 7490 O 1173.1 -1.4459 -7.59357 0
M  V30 7491 C 1172.16 -0.347608 -7.69215 0
M  V30 7492 C 1172.89 0.96767 -7.52806 0
M  V30 7493 O 1173.1 1.21036 -6.1011 0
M  V30 7494 C 1174.29 1.04544 -8.13308 0
M  V30 7495 O 1174.68 2.38311 -8.41922 0
M  V30 7496 C 1175.17 0.491279 -7.02284 0
M  V30 7497 C 1174.46 0.996264 -5.77469 0
M  V30 7498 N 1174.51 0.0501916 -4.62973 0
M  V30 7499 H 1171.67 -0.374722 -8.67691 0
M  V30 7500 H 1171.4 -0.443485 -6.90277 0
M  V30 7501 H 1172.27 1.75537 -7.96793 0
M  V30 7502 P 1176.23 2.75334 -8.47391 0
M  V30 7503 O 1176.45 3.84128 -9.44797 0
M  V30 7504 O 1177.02 1.51947 -8.68712 0
M  V30 7505 O 1176.48 3.29363 -6.99321 0
M  V30 7506 C 1175.54 4.24011 -6.4274 0
M  V30 7507 C 1176.27 5.20775 -5.52155 0
M  V30 7508 O 1176.48 4.56534 -4.22446 0
M  V30 7509 C 1177.67 5.62629 -5.96531 0
M  V30 7510 O 1178.06 6.87667 -5.41053 0
M  V30 7511 C 1178.55 4.52537 -5.39283 0
M  V30 7512 C 1177.84 4.20027 -4.08623 0
M  V30 7513 N 1177.89 2.76189 -3.71603 0
M  V30 7514 H 1175.05 4.797 -7.24003 0
M  V30 7515 H 1174.78 3.69856 -5.84513 0
M  V30 7516 H 1175.65 6.10356 -5.41441 0
M  V30 7517 P 1179.61 7.20834 -5.23717 0
M  V30 7518 O 1179.83 8.66104 -5.38572 0
M  V30 7519 O 1180.4 6.33544 -6.1349 0
M  V30 7520 O 1179.86 6.7751 -3.72168 0
M  V30 7521 C 1178.92 7.20825 -2.7076 0
M  V30 7522 C 1179.65 7.45864 -1.40599 0
M  V30 7523 O 1179.86 6.17651 -0.734225 0
M  V30 7524 C 1181.05 8.05808 -1.51899 0
M  V30 7525 O 1181.44 8.74358 -0.335205 0
M  V30 7526 C 1181.93 6.83093 -1.70294 0
M  V30 7527 C 1181.22 5.79992 -0.836974 0
M  V30 7528 N 1181.27 4.41864 -1.38293 0
M  V30 7529 H 1178.43 8.13644 -3.0377 0
M  V30 7530 H 1178.16 6.42788 -2.55485 0
M  V30 7531 H 1179.03 8.12039 -0.792769 0
M  V30 7532 P 1182.99 8.91 9.23009e-12 0
M  V30 7533 O 1183.21 10.1746 0.733838 0
M  V30 7534 O 1183.78 8.73346 -1.23964 0
M  V30 7535 O 1183.24 7.66872 0.971405 0
M  V30 7536 C 1182.3 7.42405 2.04668 0
M  V30 7537 C 1183.03 6.86059 3.24661 0
M  V30 7538 O 1183.24 5.42934 3.03695 0
M  V30 7539 C 1184.43 7.41287 3.50796 0
M  V30 7540 O 1184.82 7.27073 4.86816 0
M  V30 7541 C 1185.31 6.5273 2.63741 0
M  V30 7542 C 1184.6 5.1842 2.73198 0
M  V30 7543 N 1184.65 4.38762 1.4784 0
M  V30 7544 C 1184.57 4.83651 0.183876 0
M  V30 7545 N 1184.64 3.88759 -0.699393 0
M  V30 7546 C 1184.79 2.7404 0.0575568 0
M  V30 7547 C 1184.92 1.37902 -0.293928 0
M  V30 7548 N 1184.93 0.938021 -1.54797 0
M  V30 7549 N 1185.04 0.491817 0.70549 0
M  V30 7550 C 1185.03 0.931735 1.95979 0
M  V30 7551 N 1184.91 2.16017 2.41481 0
M  V30 7552 C 1184.79 3.02547 1.39121 0
M  V30 7553 H 1181.82 8.36899 2.3252 0
M  V30 7554 H 1181.54 6.70391 1.71179 0
M  V30 7555 H 1182.41 7.03638 4.13219 0
M  V30 7556 H 1185.07 4.59931 3.54016 0
M  V30 7557 H 1185.35 6.88995 1.59871 0
M  V30 7558 H 1186.34 6.4684 3.0373 0
M  V30 7559 H 1184.5 8.47002 3.20749 0
M  V30 7560 H 1184.46 5.8885 -0.0765548 0
M  V30 7561 H 1184.84 1.60276 -2.32875 0
M  V30 7562 H 1185.03 -0.0699355 -1.73859 0
M  V30 7563 H 1185.14 0.165507 2.71897 0
M  V30 7564 P 1186.37 7.20834 5.23717 0
M  V30 7565 O 1186.59 7.79853 6.57286 0
M  V30 7566 O 1187.16 7.79239 4.12957 0
M  V30 7567 O 1186.62 5.63315 5.29344 0
M  V30 7568 C 1185.68 4.80255 6.01876 0
M  V30 7569 C 1186.41 3.64202 6.65911 0
M  V30 7570 O 1186.62 2.60694 5.64732 0
M  V30 7571 C 1187.81 3.93473 7.1943 0
M  V30 7572 O 1188.2 3.02071 8.21205 0
M  V30 7573 C 1188.69 3.73047 5.97036 0
M  V30 7574 C 1187.98 2.58828 5.25741 0
M  V30 7575 N 1188.03 2.68068 3.77503 0
M  V30 7576 H 1185.19 5.40332 6.79951 0
M  V30 7577 H 1184.92 4.41613 5.32378 0
M  V30 7578 H 1185.79 3.26331 7.47797 0
M  V30 7579 P 1189.75 2.75334 8.47391 0
M  V30 7580 O 1189.97 2.44571 9.90142 0
M  V30 7581 O 1190.54 3.87688 7.92115 0
M  V30 7582 O 1190 1.4459 7.59357 0
M  V30 7583 C 1189.06 0.347608 7.69215 0
M  V30 7584 C 1189.79 -0.96767 7.52806 0
M  V30 7585 O 1190 -1.21036 6.1011 0
M  V30 7586 C 1191.19 -1.04544 8.13308 0
M  V30 7587 O 1191.58 -2.38311 8.41922 0
M  V30 7588 C 1192.07 -0.491279 7.02284 0
M  V30 7589 C 1191.36 -0.996264 5.77469 0
M  V30 7590 N 1191.41 -0.0501916 4.62973 0
M  V30 7591 H 1188.57 0.374722 8.67691 0
M  V30 7592 H 1188.3 0.443485 6.90277 0
M  V30 7593 H 1189.17 -1.75537 7.96793 0
M  V30 7594 P 1193.13 -2.75334 8.47391 0
M  V30 7595 O 1193.35 -3.84128 9.44797 0
M  V30 7596 O 1193.92 -1.51947 8.68712 0
M  V30 7597 O 1193.38 -3.29363 6.99321 0
M  V30 7598 C 1192.44 -4.24011 6.4274 0
M  V30 7599 C 1193.17 -5.20775 5.52155 0
M  V30 7600 O 1193.38 -4.56534 4.22446 0
M  V30 7601 C 1194.57 -5.62629 5.96531 0
M  V30 7602 O 1194.96 -6.87667 5.41053 0
M  V30 7603 C 1195.45 -4.52537 5.39283 0
M  V30 7604 C 1194.74 -4.20027 4.08623 0
M  V30 7605 N 1194.79 -2.76189 3.71603 0
M  V30 7606 C 1194.71 -1.64862 4.52822 0
M  V30 7607 N 1194.79 -0.512671 3.88633 0
M  V30 7608 C 1194.93 -0.888083 2.54977 0
M  V30 7609 C 1195.06 -0.094668 1.38677 0
M  V30 7610 O 1195.08 1.13053 1.28163 0
M  V30 7611 N 1195.18 -0.890102 0.232633 0
M  V30 7612 C 1195.18 -2.26958 0.21772 0
M  V30 7613 N 1195.31 -2.84626 -0.97925 0
M  V30 7614 N 1195.05 -3.0178 1.31033 0
M  V30 7615 C 1194.93 -2.26781 2.43843 0
M  V30 7616 H 1191.95 -4.797 7.24003 0
M  V30 7617 H 1191.68 -3.69856 5.84513 0
M  V30 7618 H 1192.55 -6.10356 5.41441 0
M  V30 7619 H 1195.21 -4.79061 3.27488 0
M  V30 7620 H 1195.48 -3.64906 6.05785 0
M  V30 7621 H 1196.48 -4.8868 5.2125 0
M  V30 7622 H 1194.64 -5.66726 7.06352 0
M  V30 7623 H 1194.59 -1.71169 5.60966 0
M  V30 7624 H 1195.28 -0.419134 -0.644739 0
M  V30 7625 H 1195.31 -3.87332 -1.06098 0
M  V30 7626 H 1195.41 -2.26417 -1.82483 0
M  V30 7627 P 1196.51 -7.20834 5.23717 0
M  V30 7628 O 1196.73 -8.66104 5.38572 0
M  V30 7629 O 1197.3 -6.33544 6.1349 0
M  V30 7630 O 1196.76 -6.7751 3.72168 0
M  V30 7631 C 1195.82 -7.20825 2.7076 0
M  V30 7632 C 1196.55 -7.45864 1.40599 0
M  V30 7633 O 1196.76 -6.17651 0.734225 0
M  V30 7634 C 1197.95 -8.05808 1.51899 0
M  V30 7635 O 1198.34 -8.74358 0.335205 0
M  V30 7636 C 1198.83 -6.83093 1.70294 0
M  V30 7637 C 1198.12 -5.79992 0.836974 0
M  V30 7638 N 1198.17 -4.41864 1.38293 0
M  V30 7639 C 1198.09 -3.99538 2.69438 0
M  V30 7640 N 1198.17 -2.69909 2.84277 0
M  V30 7641 C 1198.31 -2.21719 1.5408 0
M  V30 7642 C 1198.44 -0.891712 1.06628 0
M  V30 7643 O 1198.46 0.161298 1.70137 0
M  V30 7644 N 1198.56 -0.856846 -0.334985 0
M  V30 7645 C 1198.56 -1.9641 -1.15789 0
M  V30 7646 N 1198.69 -1.72708 -2.46522 0
M  V30 7647 N 1198.43 -3.21165 -0.713741 0
M  V30 7648 C 1198.31 -3.26797 0.639748 0
M  V30 7649 H 1195.33 -8.13644 3.0377 0
M  V30 7650 H 1195.06 -6.42788 2.55485 0
M  V30 7651 H 1195.93 -8.12039 0.792769 0
M  V30 7652 H 1198.59 -5.80061 -0.166416 0
M  V30 7653 H 1198.86 -6.51287 2.75604 0
M  V30 7654 H 1199.86 -7.01734 1.34462 0
M  V30 7655 H 1198.02 -8.73674 2.38337 0
M  V30 7656 H 1197.97 -4.68207 3.53221 0
M  V30 7657 H 1198.66 0.0398818 -0.767965 0
M  V30 7658 H 1198.69 -2.50995 -3.13503 0
M  V30 7659 H 1198.79 -0.759148 -2.80716 0
M  V30 7660 P 1199.89 -8.91 -9.38728e-12 0
M  V30 7661 O 1200.11 -10.1746 -0.733838 0
M  V30 7662 O 1200.68 -8.73346 1.23964 0
M  V30 7663 O 1200.14 -7.66872 -0.971405 0
M  V30 7664 C 1199.2 -7.42405 -2.04668 0
M  V30 7665 C 1199.93 -6.86059 -3.24661 0
M  V30 7666 O 1200.14 -5.42934 -3.03695 0
M  V30 7667 C 1201.33 -7.41287 -3.50796 0
M  V30 7668 O 1201.72 -7.27073 -4.86816 0
M  V30 7669 C 1202.21 -6.5273 -2.63741 0
M  V30 7670 C 1201.5 -5.1842 -2.73198 0
M  V30 7671 N 1201.55 -4.38762 -1.4784 0
M  V30 7672 H 1198.71 -8.36899 -2.3252 0
M  V30 7673 H 1198.44 -6.70391 -1.71179 0
M  V30 7674 H 1199.31 -7.03638 -4.13219 0
M  V30 7675 H 1201.97 -4.59931 -3.54016 0
M  V30 7676 H 1202.25 -6.88995 -1.59871 0
M  V30 7677 H 1203.24 -6.4684 -3.0373 0
M  V30 7678 H 1201.4 -8.47002 -3.20749 0
M  V30 7679 P 1203.27 -7.20834 -5.23717 0
M  V30 7680 O 1203.49 -7.79853 -6.57286 0
M  V30 7681 O 1204.06 -7.79239 -4.12957 0
M  V30 7682 O 1203.52 -5.63315 -5.29344 0
M  V30 7683 C 1202.58 -4.80255 -6.01876 0
M  V30 7684 C 1203.31 -3.64202 -6.65911 0
M  V30 7685 O 1203.52 -2.60694 -5.64732 0
M  V30 7686 C 1204.71 -3.93473 -7.1943 0
M  V30 7687 O 1205.1 -3.02071 -8.21205 0
M  V30 7688 C 1205.59 -3.73047 -5.97036 0
M  V30 7689 C 1204.88 -2.58828 -5.25741 0
M  V30 7690 N 1204.93 -2.68068 -3.77503 0
M  V30 7691 H 1202.09 -5.40332 -6.79951 0
M  V30 7692 H 1201.82 -4.41613 -5.32378 0
M  V30 7693 H 1202.69 -3.26331 -7.47797 0
M  V30 7694 P 1206.65 -2.75334 -8.47391 0
M  V30 7695 O 1206.87 -2.44571 -9.90142 0
M  V30 7696 O 1207.44 -3.87688 -7.92115 0
M  V30 7697 O 1206.9 -1.4459 -7.59357 0
M  V30 7698 C 1205.96 -0.347608 -7.69215 0
M  V30 7699 C 1206.69 0.96767 -7.52806 0
M  V30 7700 O 1206.9 1.21036 -6.1011 0
M  V30 7701 C 1208.09 1.04544 -8.13308 0
M  V30 7702 O 1208.48 2.38311 -8.41922 0
M  V30 7703 C 1208.97 0.491279 -7.02284 0
M  V30 7704 C 1208.26 0.996264 -5.77469 0
M  V30 7705 N 1208.31 0.0501916 -4.62973 0
M  V30 7706 H 1205.47 -0.374722 -8.67691 0
M  V30 7707 H 1205.2 -0.443485 -6.90277 0
M  V30 7708 H 1206.07 1.75537 -7.96793 0
M  V30 7709 P 1210.03 2.75334 -8.47391 0
M  V30 7710 O 1210.25 3.84128 -9.44797 0
M  V30 7711 O 1210.82 1.51947 -8.68712 0
M  V30 7712 O 1210.28 3.29363 -6.99321 0
M  V30 7713 C 1209.34 4.24011 -6.4274 0
M  V30 7714 C 1210.07 5.20775 -5.52155 0
M  V30 7715 O 1210.28 4.56534 -4.22446 0
M  V30 7716 C 1211.47 5.62629 -5.96531 0
M  V30 7717 O 1211.86 6.87667 -5.41053 0
M  V30 7718 C 1212.35 4.52537 -5.39283 0
M  V30 7719 C 1211.64 4.20027 -4.08623 0
M  V30 7720 N 1211.69 2.76189 -3.71603 0
M  V30 7721 H 1208.85 4.797 -7.24003 0
M  V30 7722 H 1208.58 3.69856 -5.84513 0
M  V30 7723 H 1209.45 6.10356 -5.41441 0
M  V30 7724 P 1213.41 7.20834 -5.23717 0
M  V30 7725 O 1213.63 8.66104 -5.38572 0
M  V30 7726 O 1214.2 6.33544 -6.1349 0
M  V30 7727 O 1213.66 6.7751 -3.72168 0
M  V30 7728 C 1212.72 7.20825 -2.7076 0
M  V30 7729 C 1213.45 7.45864 -1.40599 0
M  V30 7730 O 1213.66 6.17651 -0.734225 0
M  V30 7731 C 1214.85 8.05808 -1.51899 0
M  V30 7732 O 1215.24 8.74358 -0.335205 0
M  V30 7733 C 1215.73 6.83093 -1.70294 0
M  V30 7734 C 1215.02 5.79992 -0.836974 0
M  V30 7735 N 1215.07 4.41864 -1.38293 0
M  V30 7736 H 1212.23 8.13644 -3.0377 0
M  V30 7737 H 1211.96 6.42788 -2.55485 0
M  V30 7738 H 1212.83 8.12039 -0.792769 0
M  V30 7739 P 1216.79 8.91 9.54446e-12 0
M  V30 7740 O 1217.01 10.1746 0.733838 0
M  V30 7741 O 1217.58 8.73346 -1.23964 0
M  V30 7742 O 1217.04 7.66872 0.971405 0
M  V30 7743 C 1216.1 7.42405 2.04668 0
M  V30 7744 C 1216.83 6.86059 3.24661 0
M  V30 7745 O 1217.04 5.42934 3.03695 0
M  V30 7746 C 1218.23 7.41287 3.50796 0
M  V30 7747 O 1218.62 7.27073 4.86816 0
M  V30 7748 C 1219.11 6.5273 2.63741 0
M  V30 7749 C 1218.4 5.1842 2.73198 0
M  V30 7750 N 1218.45 4.38762 1.4784 0
M  V30 7751 C 1218.37 4.83651 0.183876 0
M  V30 7752 N 1218.44 3.88759 -0.699393 0
M  V30 7753 C 1218.59 2.7404 0.0575568 0
M  V30 7754 C 1218.72 1.37902 -0.293928 0
M  V30 7755 N 1218.73 0.938021 -1.54797 0
M  V30 7756 N 1218.84 0.491817 0.70549 0
M  V30 7757 C 1218.83 0.931735 1.95979 0
M  V30 7758 N 1218.71 2.16017 2.41481 0
M  V30 7759 C 1218.59 3.02547 1.39121 0
M  V30 7760 H 1215.61 8.36899 2.3252 0
M  V30 7761 H 1215.34 6.70391 1.71179 0
M  V30 7762 H 1216.21 7.03638 4.13219 0
M  V30 7763 H 1218.87 4.59931 3.54016 0
M  V30 7764 H 1219.15 6.88995 1.59871 0
M  V30 7765 H 1220.14 6.4684 3.0373 0
M  V30 7766 H 1218.3 8.47002 3.20749 0
M  V30 7767 H 1218.26 5.8885 -0.0765548 0
M  V30 7768 H 1218.64 1.60276 -2.32875 0
M  V30 7769 H 1218.83 -0.0699355 -1.73859 0
M  V30 7770 H 1218.94 0.165507 2.71897 0
M  V30 7771 P 1220.17 7.20834 5.23717 0
M  V30 7772 O 1220.39 7.7993 6.57351 0
M  V30 7773 O 1220.96 7.79328 4.13004 0
M  V30 7774 O 1220.42 5.63315 5.29344 0
M  V30 7775 C 1219.48 4.80193 6.01798 0
M  V30 7776 C 1220.21 3.64202 6.65911 0
M  V30 7777 O 1220.42 2.60694 5.64732 0
M  V30 7778 C 1221.61 3.93473 7.1943 0
M  V30 7779 O 1222 3.02071 8.21205 0
M  V30 7780 C 1222.49 3.73047 5.97036 0
M  V30 7781 C 1221.78 2.58828 5.25741 0
M  V30 7782 N 1221.83 2.6801 3.77422 0
M  V30 7783 C 1221.98 1.50443 3.07133 0
M  V30 7784 O 1222.07 0.419406 3.61576 0
M  V30 7785 N 1222.02 1.6403 1.69677 0
M  V30 7786 C 1221.93 2.81206 0.986255 0
M  V30 7787 C 1221.78 3.99158 1.80325 0
M  V30 7788 C 1221.73 3.89779 3.1476 0
M  V30 7789 H 1218.99 5.40332 6.79951 0
M  V30 7790 H 1218.72 4.41549 5.32301 0
M  V30 7791 H 1219.59 3.26331 7.47797 0
M  V30 7792 H 1222.25 1.6395 5.56554 0
M  V30 7793 H 1222.52 4.63439 5.3432 0
M  V30 7794 H 1223.52 3.44728 6.25838 0
M  V30 7795 H 1221.68 4.96652 7.57263 0
M  V30 7796 H 1221.61 4.80159 3.74441 0
M  V30 7797 P 1223.55 2.75334 8.47391 0
M  V30 7798 O 1223.77 2.44571 9.90142 0
M  V30 7799 O 1224.34 3.87688 7.92115 0
M  V30 7800 O 1223.8 1.4459 7.59357 0
M  V30 7801 C 1222.86 0.347608 7.69215 0
M  V30 7802 C 1223.59 -0.96767 7.52806 0
M  V30 7803 O 1223.8 -1.21036 6.1011 0
M  V30 7804 C 1224.99 -1.04544 8.13308 0
M  V30 7805 O 1225.38 -2.38311 8.41922 0
M  V30 7806 C 1225.87 -0.491279 7.02284 0
M  V30 7807 C 1225.16 -0.996264 5.77469 0
M  V30 7808 N 1225.21 -0.0501916 4.62973 0
M  V30 7809 H 1222.37 0.374722 8.67691 0
M  V30 7810 H 1222.1 0.443485 6.90277 0
M  V30 7811 H 1222.97 -1.75537 7.96793 0
M  V30 7812 P 1226.93 -2.75334 8.47391 0
M  V30 7813 O 1227.15 -3.84128 9.44797 0
M  V30 7814 O 1227.72 -1.51947 8.68712 0
M  V30 7815 O 1227.18 -3.29363 6.99321 0
M  V30 7816 C 1226.24 -4.24011 6.4274 0
M  V30 7817 C 1226.97 -5.20775 5.52155 0
M  V30 7818 O 1227.18 -4.56534 4.22446 0
M  V30 7819 C 1228.37 -5.62629 5.96531 0
M  V30 7820 O 1228.76 -6.87667 5.41053 0
M  V30 7821 C 1229.25 -4.52537 5.39283 0
M  V30 7822 C 1228.54 -4.20027 4.08623 0
M  V30 7823 N 1228.59 -2.76189 3.71603 0
M  V30 7824 H 1225.75 -4.797 7.24003 0
M  V30 7825 H 1225.48 -3.69856 5.84513 0
M  V30 7826 H 1226.35 -6.10356 5.41441 0
M  V30 7827 P 1230.31 -7.20834 5.23717 0
M  V30 7828 O 1230.53 -8.66274 5.38678 0
M  V30 7829 O 1231.1 -6.33687 6.13629 0
M  V30 7830 O 1230.56 -6.7751 3.72168 0
M  V30 7831 C 1229.62 -7.20919 2.70795 0
M  V30 7832 C 1230.35 -7.45864 1.40599 0
M  V30 7833 O 1230.56 -6.17751 0.734343 0
M  V30 7834 C 1231.75 -8.05906 1.51917 0
M  V30 7835 O 1232.14 -8.74358 0.335205 0
M  V30 7836 C 1232.63 -6.83093 1.70294 0
M  V30 7837 C 1231.92 -5.79992 0.836974 0
M  V30 7838 N 1231.97 -4.41864 1.38293 0
M  V30 7839 H 1229.13 -8.13738 3.03804 0
M  V30 7840 H 1228.86 -6.42974 2.55559 0
M  V30 7841 H 1229.73 -8.12139 0.792866 0
M  V30 7842 H 1232.39 -5.80178 -0.160643 0
M  V30 7843 H 1232.67 -6.51379 2.75643 0
M  V30 7844 H 1233.66 -7.01832 1.3448 0
M  V30 7845 H 1231.82 -8.73771 2.38364 0
M  V30 7846 P 1233.69 -8.91 -9.70164e-12 0
M  V30 7847 O 1233.91 -10.1736 -0.733766 0
M  V30 7848 O 1234.48 -8.73247 1.2395 0
M  V30 7849 O 1233.94 -7.66872 -0.971405 0
M  V30 7850 C 1233 -7.42309 -2.04641 0
M  V30 7851 C 1233.73 -6.86059 -3.24661 0
M  V30 7852 O 1233.94 -5.42847 -3.03646 0
M  V30 7853 C 1235.13 -7.41196 -3.50753 0
M  V30 7854 O 1235.52 -7.27073 -4.86816 0
M  V30 7855 C 1236.01 -6.5273 -2.63741 0
M  V30 7856 C 1235.3 -5.1842 -2.73198 0
M  V30 7857 N 1235.35 -4.38668 -1.47808 0
M  V30 7858 C 1235.5 -3.00789 -1.58511 0
M  V30 7859 O 1235.59 -2.50116 -2.71298 0
M  V30 7860 N 1235.55 -2.29703 -0.253698 0
M  V30 7861 C 1235.45 -2.84269 0.750133 0
M  V30 7862 N 1235.5 -2.06951 1.82612 0
M  V30 7863 C 1235.3 -4.25803 0.889776 0
M  V30 7864 C 1235.25 -4.98326 -0.259363 0
M  V30 7865 H 1232.51 -8.36707 -2.32466 0
M  V30 7866 H 1232.24 -6.701 -1.71105 0
M  V30 7867 H 1233.11 -7.03638 -4.13219 0
M  V30 7868 H 1235.77 -4.59852 -3.53955 0
M  V30 7869 H 1236.04 -6.88995 -1.59871 0
M  V30 7870 H 1237.04 -6.46749 -3.03687 0
M  V30 7871 H 1235.2 -8.46908 -3.20714 0
M  V30 7872 H 1235.13 -6.06349 -0.206238 0
M  V30 7873 H 1235.23 -4.73163 1.86796 0
M  V30 7874 H 1235.62 -1.05099 1.72271 0
M  V30 7875 H 1235.42 -2.48716 2.76361 0
M  V30 7876 P 1237.07 -7.20834 -5.23717 0
M  V30 7877 O 1237.29 -7.79853 -6.57286 0
M  V30 7878 O 1237.86 -7.79239 -4.12957 0
M  V30 7879 O 1237.32 -5.63315 -5.29344 0
M  V30 7880 C 1236.38 -4.80255 -6.01876 0
M  V30 7881 C 1237.11 -3.64202 -6.65911 0
M  V30 7882 O 1237.32 -2.60694 -5.64732 0
M  V30 7883 C 1238.51 -3.93473 -7.1943 0
M  V30 7884 O 1238.9 -3.02071 -8.21205 0
M  V30 7885 C 1239.39 -3.73047 -5.97036 0
M  V30 7886 C 1238.68 -2.58828 -5.25741 0
M  V30 7887 N 1238.73 -2.68068 -3.77503 0
M  V30 7888 H 1235.89 -5.40332 -6.79951 0
M  V30 7889 H 1235.62 -4.41613 -5.32378 0
M  V30 7890 H 1236.49 -3.26331 -7.47797 0
M  V30 7891 P 1240.45 -2.75334 -8.47391 0
M  V30 7892 O 1240.67 -2.44571 -9.90142 0
M  V30 7893 O 1241.24 -3.87688 -7.92115 0
M  V30 7894 O 1240.7 -1.4459 -7.59357 0
M  V30 7895 C 1239.76 -0.347608 -7.69215 0
M  V30 7896 C 1240.49 0.96767 -7.52806 0
M  V30 7897 O 1240.7 1.21036 -6.1011 0
M  V30 7898 C 1241.89 1.04544 -8.13308 0
M  V30 7899 O 1242.28 2.38311 -8.41922 0
M  V30 7900 C 1242.77 0.491279 -7.02284 0
M  V30 7901 C 1242.06 0.996264 -5.77469 0
M  V30 7902 N 1242.11 0.0501916 -4.62973 0
M  V30 7903 H 1239.27 -0.374722 -8.67691 0
M  V30 7904 H 1239 -0.443485 -6.90277 0
M  V30 7905 H 1239.87 1.75537 -7.96793 0
M  V30 7906 P 1243.83 2.75334 -8.47391 0
M  V30 7907 O 1244.05 3.84128 -9.44797 0
M  V30 7908 O 1244.62 1.51947 -8.68712 0
M  V30 7909 O 1244.08 3.29363 -6.99321 0
M  V30 7910 C 1243.14 4.24011 -6.4274 0
M  V30 7911 C 1243.87 5.20775 -5.52155 0
M  V30 7912 O 1244.08 4.56534 -4.22446 0
M  V30 7913 C 1245.27 5.62629 -5.96531 0
M  V30 7914 O 1245.66 6.87667 -5.41053 0
M  V30 7915 C 1246.15 4.52537 -5.39283 0
M  V30 7916 C 1245.44 4.20027 -4.08623 0
M  V30 7917 N 1245.49 2.76189 -3.71603 0
M  V30 7918 H 1242.65 4.797 -7.24003 0
M  V30 7919 H 1242.38 3.69856 -5.84513 0
M  V30 7920 H 1243.25 6.10356 -5.41441 0
M  V30 7921 P 1247.21 7.20834 -5.23717 0
M  V30 7922 O 1247.43 8.66104 -5.38572 0
M  V30 7923 O 1248 6.33544 -6.1349 0
M  V30 7924 O 1247.46 6.7751 -3.72168 0
M  V30 7925 C 1246.52 7.20825 -2.7076 0
M  V30 7926 C 1247.25 7.45864 -1.40599 0
M  V30 7927 O 1247.46 6.17651 -0.734225 0
M  V30 7928 C 1248.65 8.05808 -1.51899 0
M  V30 7929 O 1249.04 8.74358 -0.335205 0
M  V30 7930 C 1249.53 6.83093 -1.70294 0
M  V30 7931 C 1248.82 5.79992 -0.836974 0
M  V30 7932 N 1248.87 4.41864 -1.38293 0
M  V30 7933 H 1246.03 8.13644 -3.0377 0
M  V30 7934 H 1245.76 6.42788 -2.55485 0
M  V30 7935 H 1246.63 8.12039 -0.792769 0
M  V30 7936 P 1250.59 8.91 9.85882e-12 0
M  V30 7937 O 1250.81 10.1736 0.733766 0
M  V30 7938 O 1251.38 8.73247 -1.2395 0
M  V30 7939 O 1250.84 7.66872 0.971405 0
M  V30 7940 C 1249.9 7.42309 2.04641 0
M  V30 7941 C 1250.63 6.86059 3.24661 0
M  V30 7942 O 1250.84 5.42847 3.03646 0
M  V30 7943 C 1252.03 7.41196 3.50753 0
M  V30 7944 O 1252.42 7.27073 4.86816 0
M  V30 7945 C 1252.91 6.5273 2.63741 0
M  V30 7946 C 1252.2 5.1842 2.73198 0
M  V30 7947 N 1252.25 4.38668 1.47808 0
M  V30 7948 C 1252.4 3.00789 1.58511 0
M  V30 7949 O 1252.49 2.50116 2.71298 0
M  V30 7950 N 1252.45 2.29703 0.253698 0
M  V30 7951 C 1252.35 2.84269 -0.750133 0
M  V30 7952 N 1252.4 2.06951 -1.82612 0
M  V30 7953 C 1252.2 4.25803 -0.889776 0
M  V30 7954 C 1252.15 4.98326 0.259363 0
M  V30 7955 H 1249.41 8.36707 2.32466 0
M  V30 7956 H 1249.14 6.701 1.71105 0
M  V30 7957 H 1250.01 7.03638 4.13219 0
M  V30 7958 H 1252.67 4.59852 3.53955 0
M  V30 7959 H 1252.94 6.88995 1.59871 0
M  V30 7960 H 1253.94 6.46749 3.03687 0
M  V30 7961 H 1252.1 8.46908 3.20714 0
M  V30 7962 H 1252.03 6.06349 0.206238 0
M  V30 7963 H 1252.13 4.73163 -1.86796 0
M  V30 7964 H 1252.52 1.05099 -1.72271 0
M  V30 7965 H 1252.32 2.48716 -2.76361 0
M  V30 7966 P 1253.97 7.20834 5.23717 0
M  V30 7967 O 1254.19 7.79853 6.57286 0
M  V30 7968 O 1254.76 7.79239 4.12957 0
M  V30 7969 O 1254.22 5.63315 5.29344 0
M  V30 7970 C 1253.28 4.80255 6.01876 0
M  V30 7971 C 1254.01 3.64202 6.65911 0
M  V30 7972 O 1254.22 2.60694 5.64732 0
M  V30 7973 C 1255.41 3.93473 7.1943 0
M  V30 7974 O 1255.8 3.02071 8.21205 0
M  V30 7975 C 1256.29 3.73047 5.97036 0
M  V30 7976 C 1255.58 2.58828 5.25741 0
M  V30 7977 N 1255.63 2.68068 3.77503 0
M  V30 7978 H 1252.79 5.40332 6.79951 0
M  V30 7979 H 1252.52 4.41613 5.32378 0
M  V30 7980 H 1253.39 3.26331 7.47797 0
M  V30 7981 P 1257.35 2.75334 8.47391 0
M  V30 7982 O 1257.57 2.44619 9.90336 0
M  V30 7983 O 1258.14 3.87776 7.92294 0
M  V30 7984 O 1257.6 1.4459 7.59357 0
M  V30 7985 C 1256.66 0.347653 7.69315 0
M  V30 7986 C 1257.39 -0.96767 7.52806 0
M  V30 7987 O 1257.6 -1.21055 6.10208 0
M  V30 7988 C 1258.79 -1.04557 8.13408 0
M  V30 7989 O 1259.18 -2.38311 8.41922 0
M  V30 7990 C 1259.67 -0.491279 7.02284 0
M  V30 7991 C 1258.96 -0.996264 5.77469 0
M  V30 7992 N 1259.01 -0.0501916 4.62973 0
M  V30 7993 C 1258.93 1.31969 4.65661 0
M  V30 7994 N 1259 1.86649 3.48119 0
M  V30 7995 C 1259.15 0.792089 2.62406 0
M  V30 7996 C 1259.28 0.705684 1.2207 0
M  V30 7997 N 1259.29 1.76207 0.413762 0
M  V30 7998 N 1259.4 -0.518981 0.685754 0
M  V30 7999 C 1259.39 -1.57595 1.49174 0
M  V30 8000 N 1259.27 -1.62909 2.80066 0
M  V30 8001 C 1259.15 -0.388195 3.3073 0
M  V30 8002 H 1256.17 0.374765 8.67791 0
M  V30 8003 H 1255.9 0.443613 6.90476 0
M  V30 8004 H 1256.77 -1.75559 7.96891 0
M  V30 8005 H 1259.43 -1.94563 5.46818 0
M  V30 8006 H 1259.71 0.608651 7.04676 0
M  V30 8007 H 1260.7 -0.889796 7.09039 0
M  V30 8008 H 1258.86 -0.433128 9.04664 0
M  V30 8009 H 1258.82 1.89246 5.57664 0
M  V30 8010 H 1259.2 2.71005 0.804694 0
M  V30 8011 H 1259.39 1.63189 -0.603768 0
M  V30 8012 H 1259.5 -2.53475 0.997614 0
M  V30 8013 P 1260.73 -2.75334 8.47391 0
M  V30 8014 O 1260.95 -3.84128 9.44797 0
M  V30 8015 O 1261.52 -1.51947 8.68712 0
M  V30 8016 O 1260.98 -3.29363 6.99321 0
M  V30 8017 C 1260.04 -4.24011 6.4274 0
M  V30 8018 C 1260.77 -5.20775 5.52155 0
M  V30 8019 O 1260.98 -4.56534 4.22446 0
M  V30 8020 C 1262.17 -5.62629 5.96531 0
M  V30 8021 O 1262.56 -6.87667 5.41053 0
M  V30 8022 C 1263.05 -4.52537 5.39283 0
M  V30 8023 C 1262.34 -4.20027 4.08623 0
M  V30 8024 N 1262.39 -2.76189 3.71603 0
M  V30 8025 C 1262.31 -1.64862 4.52822 0
M  V30 8026 N 1262.39 -0.512671 3.88633 0
M  V30 8027 C 1262.53 -0.888083 2.54977 0
M  V30 8028 C 1262.66 -0.094668 1.38677 0
M  V30 8029 O 1262.68 1.13053 1.28163 0
M  V30 8030 N 1262.78 -0.890102 0.232633 0
M  V30 8031 C 1262.78 -2.26958 0.21772 0
M  V30 8032 N 1262.91 -2.84626 -0.97925 0
M  V30 8033 N 1262.65 -3.0178 1.31033 0
M  V30 8034 C 1262.53 -2.26781 2.43843 0
M  V30 8035 H 1259.55 -4.797 7.24003 0
M  V30 8036 H 1259.28 -3.69856 5.84513 0
M  V30 8037 H 1260.15 -6.10356 5.41441 0
M  V30 8038 H 1262.81 -4.79061 3.27488 0
M  V30 8039 H 1263.08 -3.64906 6.05785 0
M  V30 8040 H 1264.08 -4.8868 5.2125 0
M  V30 8041 H 1262.24 -5.66726 7.06352 0
M  V30 8042 H 1262.19 -1.71169 5.60966 0
M  V30 8043 H 1262.88 -0.419134 -0.644739 0
M  V30 8044 H 1262.91 -3.87332 -1.06098 0
M  V30 8045 H 1263.01 -2.26417 -1.82483 0
M  V30 8046 P 1264.11 -7.20834 5.23717 0
M  V30 8047 O 1264.33 -8.66104 5.38572 0
M  V30 8048 O 1264.9 -6.33544 6.1349 0
M  V30 8049 O 1264.36 -6.7751 3.72168 0
M  V30 8050 C 1263.42 -7.20825 2.7076 0
M  V30 8051 C 1264.15 -7.45864 1.40599 0
M  V30 8052 O 1264.36 -6.17651 0.734225 0
M  V30 8053 C 1265.55 -8.05808 1.51899 0
M  V30 8054 O 1265.94 -8.74358 0.335205 0
M  V30 8055 C 1266.43 -6.83093 1.70294 0
M  V30 8056 C 1265.72 -5.79992 0.836974 0
M  V30 8057 N 1265.77 -4.41864 1.38293 0
M  V30 8058 C 1265.69 -3.99538 2.69438 0
M  V30 8059 N 1265.77 -2.69909 2.84277 0
M  V30 8060 C 1265.91 -2.21719 1.5408 0
M  V30 8061 C 1266.04 -0.891712 1.06628 0
M  V30 8062 O 1266.06 0.161298 1.70137 0
M  V30 8063 N 1266.16 -0.856846 -0.334985 0
M  V30 8064 C 1266.16 -1.9641 -1.15789 0
M  V30 8065 N 1266.29 -1.72708 -2.46522 0
M  V30 8066 N 1266.03 -3.21165 -0.713741 0
M  V30 8067 C 1265.91 -3.26797 0.639748 0
M  V30 8068 H 1262.93 -8.13644 3.0377 0
M  V30 8069 H 1262.66 -6.42788 2.55485 0
M  V30 8070 H 1263.53 -8.12039 0.792769 0
M  V30 8071 H 1266.19 -5.80061 -0.166416 0
M  V30 8072 H 1266.46 -6.51287 2.75604 0
M  V30 8073 H 1267.46 -7.01734 1.34462 0
M  V30 8074 H 1265.62 -8.73674 2.38337 0
M  V30 8075 H 1265.57 -4.68207 3.53221 0
M  V30 8076 H 1266.26 0.0398818 -0.767965 0
M  V30 8077 H 1266.29 -2.50995 -3.13503 0
M  V30 8078 H 1266.39 -0.759148 -2.80716 0
M  V30 8079 P 1267.49 -8.91 -1.0016e-11 0
M  V30 8080 O 1267.71 -10.1726 -0.733694 0
M  V30 8081 O 1268.28 -8.73148 1.23936 0
M  V30 8082 O 1267.74 -7.66872 -0.971405 0
M  V30 8083 C 1266.8 -7.42309 -2.04641 0
M  V30 8084 C 1267.53 -6.86059 -3.24661 0
M  V30 8085 O 1267.74 -5.42847 -3.03646 0
M  V30 8086 C 1268.93 -7.41196 -3.50753 0
M  V30 8087 O 1269.32 -7.27073 -4.86816 0
M  V30 8088 C 1269.81 -6.5273 -2.63741 0
M  V30 8089 C 1269.1 -5.1842 -2.73198 0
M  V30 8090 N 1269.15 -4.38762 -1.4784 0
M  V30 8091 H 1266.31 -8.36803 -2.32493 0
M  V30 8092 H 1266.04 -6.70197 -1.71129 0
M  V30 8093 H 1266.91 -7.03551 -4.13168 0
M  V30 8094 P 1270.87 -7.20834 -5.23717 0
M  V30 8095 O 1271.09 -7.79853 -6.57286 0
M  V30 8096 O 1271.66 -7.79239 -4.12957 0
M  V30 8097 O 1271.12 -5.63315 -5.29344 0
M  V30 8098 C 1270.18 -4.80255 -6.01876 0
M  V30 8099 C 1270.91 -3.64202 -6.65911 0
M  V30 8100 O 1271.12 -2.60694 -5.64732 0
M  V30 8101 C 1272.31 -3.93473 -7.1943 0
M  V30 8102 O 1272.7 -3.02071 -8.21205 0
M  V30 8103 C 1273.19 -3.73047 -5.97036 0
M  V30 8104 C 1272.48 -2.58828 -5.25741 0
M  V30 8105 N 1272.53 -2.68068 -3.77503 0
M  V30 8106 H 1269.69 -5.40332 -6.79951 0
M  V30 8107 H 1269.42 -4.41613 -5.32378 0
M  V30 8108 H 1270.29 -3.26331 -7.47797 0
M  V30 8109 P 1274.25 -2.75334 -8.47391 0
M  V30 8110 O 1274.47 -2.44571 -9.90142 0
M  V30 8111 O 1275.04 -3.87688 -7.92115 0
M  V30 8112 O 1274.5 -1.4459 -7.59357 0
M  V30 8113 C 1273.56 -0.347608 -7.69215 0
M  V30 8114 C 1274.29 0.96767 -7.52806 0
M  V30 8115 O 1274.5 1.21036 -6.1011 0
M  V30 8116 C 1275.69 1.04544 -8.13308 0
M  V30 8117 O 1276.08 2.38311 -8.41922 0
M  V30 8118 C 1276.57 0.491279 -7.02284 0
M  V30 8119 C 1275.86 0.996264 -5.77469 0
M  V30 8120 N 1275.91 0.0501916 -4.62973 0
M  V30 8121 H 1273.07 -0.374722 -8.67691 0
M  V30 8122 H 1272.8 -0.443485 -6.90277 0
M  V30 8123 H 1273.67 1.75537 -7.96793 0
M  V30 8124 P 1277.63 2.75334 -8.47391 0
M  V30 8125 O 1277.85 3.84128 -9.44797 0
M  V30 8126 O 1278.42 1.51947 -8.68712 0
M  V30 8127 O 1277.88 3.29363 -6.99321 0
M  V30 8128 C 1276.94 4.24011 -6.4274 0
M  V30 8129 C 1277.67 5.20775 -5.52155 0
M  V30 8130 O 1277.88 4.56534 -4.22446 0
M  V30 8131 C 1279.07 5.62629 -5.96531 0
M  V30 8132 O 1279.46 6.87667 -5.41053 0
M  V30 8133 C 1279.95 4.52537 -5.39283 0
M  V30 8134 C 1279.24 4.20027 -4.08623 0
M  V30 8135 N 1279.29 2.76189 -3.71603 0
M  V30 8136 H 1276.45 4.797 -7.24003 0
M  V30 8137 H 1276.18 3.69856 -5.84513 0
M  V30 8138 H 1277.05 6.10356 -5.41441 0
M  V30 8139 P 1281.01 7.20834 -5.23717 0
M  V30 8140 O 1281.23 8.66274 -5.38678 0
M  V30 8141 O 1281.8 6.33687 -6.13629 0
M  V30 8142 O 1281.26 6.7751 -3.72168 0
M  V30 8143 C 1280.32 7.20919 -2.70795 0
M  V30 8144 C 1281.05 7.45864 -1.40599 0
M  V30 8145 O 1281.26 6.17751 -0.734343 0
M  V30 8146 C 1282.45 8.05906 -1.51917 0
M  V30 8147 O 1282.84 8.74358 -0.335205 0
M  V30 8148 C 1283.33 6.83093 -1.70294 0
M  V30 8149 C 1282.62 5.79992 -0.836974 0
M  V30 8150 N 1282.67 4.41864 -1.38293 0
M  V30 8151 C 1282.59 4.02089 -2.69407 0
M  V30 8152 N 1282.66 2.73403 -2.85089 0
M  V30 8153 C 1282.81 2.25086 -1.5642 0
M  V30 8154 C 1282.94 0.942887 -1.04836 0
M  V30 8155 N 1282.95 -0.150999 -1.80369 0
M  V30 8156 N 1283.06 0.812565 0.28167 0
M  V30 8157 C 1283.05 1.90572 1.03784 0
M  V30 8158 N 1282.93 3.167 0.683905 0
M  V30 8159 C 1282.81 3.26538 -0.652815 0
M  V30 8160 H 1279.83 8.13738 -3.03804 0
M  V30 8161 H 1279.56 6.42974 -2.55559 0
M  V30 8162 H 1280.43 8.12139 -0.792866 0
M  V30 8163 H 1283.09 5.80178 0.160643 0
M  V30 8164 H 1283.37 6.51379 -2.75643 0
M  V30 8165 H 1284.36 7.01832 -1.3448 0
M  V30 8166 H 1282.52 8.73771 -2.38364 0
M  V30 8167 H 1282.48 4.7189 -3.52311 0
M  V30 8168 H 1282.86 -0.0721434 -2.82608 0
M  V30 8169 H 1283.05 -1.0785 -1.36544 0
M  V30 8170 H 1283.16 1.73207 2.10241 0
M  V30 8171 P 1284.39 8.91 1.01732e-11 0
M  V30 8172 O 1284.61 10.1726 0.733694 0
M  V30 8173 O 1285.18 8.73148 -1.23936 0
M  V30 8174 O 1284.64 7.66872 0.971405 0
M  V30 8175 C 1283.7 7.42309 2.04641 0
M  V30 8176 C 1284.43 6.86059 3.24661 0
M  V30 8177 O 1284.64 5.42847 3.03646 0
M  V30 8178 C 1285.83 7.41196 3.50753 0
M  V30 8179 O 1286.22 7.27073 4.86816 0
M  V30 8180 C 1286.71 6.5273 2.63741 0
M  V30 8181 C 1286 5.1842 2.73198 0
M  V30 8182 N 1286.05 4.38762 1.4784 0
M  V30 8183 H 1283.21 8.36803 2.32493 0
M  V30 8184 H 1282.94 6.70197 1.71129 0
M  V30 8185 H 1283.81 7.03551 4.13168 0
M  V30 8186 P 1287.77 7.20834 5.23717 0
M  V30 8187 O 1287.99 7.79853 6.57286 0
M  V30 8188 O 1288.56 7.79239 4.12957 0
M  V30 8189 O 1288.02 5.63315 5.29344 0
M  V30 8190 C 1287.08 4.80255 6.01876 0
M  V30 8191 C 1287.81 3.64202 6.65911 0
M  V30 8192 O 1288.02 2.60694 5.64732 0
M  V30 8193 C 1289.21 3.93473 7.1943 0
M  V30 8194 O 1289.6 3.02071 8.21205 0
M  V30 8195 C 1290.09 3.73047 5.97036 0
M  V30 8196 C 1289.38 2.58828 5.25741 0
M  V30 8197 N 1289.43 2.68068 3.77503 0
M  V30 8198 H 1286.59 5.40332 6.79951 0
M  V30 8199 H 1286.32 4.41613 5.32378 0
M  V30 8200 H 1287.19 3.26331 7.47797 0
M  V30 8201 P 1291.15 2.75334 8.47391 0
M  V30 8202 O 1291.37 2.44571 9.90142 0
M  V30 8203 O 1291.94 3.87688 7.92115 0
M  V30 8204 O 1291.4 1.4459 7.59357 0
M  V30 8205 C 1290.46 0.347608 7.69215 0
M  V30 8206 C 1291.19 -0.96767 7.52806 0
M  V30 8207 O 1291.4 -1.21036 6.1011 0
M  V30 8208 C 1292.59 -1.04544 8.13308 0
M  V30 8209 O 1292.98 -2.38311 8.41922 0
M  V30 8210 C 1293.47 -0.491279 7.02284 0
M  V30 8211 C 1292.76 -0.996264 5.77469 0
M  V30 8212 N 1292.81 -0.0501916 4.62973 0
M  V30 8213 H 1289.97 0.374722 8.67691 0
M  V30 8214 H 1289.7 0.443485 6.90277 0
M  V30 8215 H 1290.57 -1.75537 7.96793 0
M  V30 8216 P 1294.53 -2.75334 8.47391 0
M  V30 8217 O 1294.75 -3.84204 9.44982 0
M  V30 8218 O 1295.32 -1.51982 8.68909 0
M  V30 8219 O 1294.78 -3.29363 6.99321 0
M  V30 8220 C 1293.84 -4.24066 6.42823 0
M  V30 8221 C 1294.57 -5.20775 5.52155 0
M  V30 8222 O 1294.78 -4.56607 4.22514 0
M  V30 8223 C 1295.97 -5.62697 5.96604 0
M  V30 8224 O 1296.36 -6.87667 5.41053 0
M  V30 8225 C 1296.85 -4.52537 5.39283 0
M  V30 8226 C 1296.14 -4.20027 4.08623 0
M  V30 8227 N 1296.19 -2.76189 3.71603 0
M  V30 8228 C 1296.11 -1.66944 4.54297 0
M  V30 8229 N 1296.18 -0.536169 3.91344 0
M  V30 8230 C 1296.33 -0.901569 2.58849 0
M  V30 8231 C 1296.46 -0.146599 1.40236 0
M  V30 8232 N 1296.47 1.18234 1.37046 0
M  V30 8233 N 1296.58 -0.822941 0.249738 0
M  V30 8234 C 1296.57 -2.15179 0.280525 0
M  V30 8235 N 1296.45 -2.96414 1.30822 0
M  V30 8236 C 1296.33 -2.25804 2.44748 0
M  V30 8237 H 1293.35 -4.79756 7.24086 0
M  V30 8238 H 1293.08 -3.69963 5.84682 0
M  V30 8239 H 1293.95 -6.10431 5.41508 0
M  V30 8240 H 1296.61 -4.78816 3.28024 0
M  V30 8241 H 1296.89 -3.64957 6.05871 0
M  V30 8242 H 1297.88 -4.88748 5.21323 0
M  V30 8243 H 1296.04 -5.66789 7.0643 0
M  V30 8244 H 1296 -1.74684 5.62396 0
M  V30 8245 H 1296.38 1.71949 2.24394 0
M  V30 8246 H 1296.57 1.67511 0.470742 0
M  V30 8247 H 1296.68 -2.63704 -0.6828 0
M  V30 8248 P 1297.91 -7.20834 5.23717 0
M  V30 8249 O 1298.13 -8.66104 5.38572 0
M  V30 8250 O 1298.7 -6.33544 6.1349 0
M  V30 8251 O 1298.16 -6.7751 3.72168 0
M  V30 8252 C 1297.22 -7.20825 2.7076 0
M  V30 8253 C 1297.95 -7.45864 1.40599 0
M  V30 8254 O 1298.16 -6.17651 0.734225 0
M  V30 8255 C 1299.35 -8.05808 1.51899 0
M  V30 8256 O 1299.74 -8.74358 0.335205 0
M  V30 8257 C 1300.23 -6.83093 1.70294 0
M  V30 8258 C 1299.52 -5.79992 0.836974 0
M  V30 8259 N 1299.57 -4.41864 1.38293 0
M  V30 8260 C 1299.49 -3.99538 2.69438 0
M  V30 8261 N 1299.57 -2.69909 2.84277 0
M  V30 8262 C 1299.71 -2.21719 1.5408 0
M  V30 8263 C 1299.84 -0.891712 1.06628 0
M  V30 8264 O 1299.86 0.161298 1.70137 0
M  V30 8265 N 1299.96 -0.856846 -0.334985 0
M  V30 8266 C 1299.96 -1.9641 -1.15789 0
M  V30 8267 N 1300.09 -1.72708 -2.46522 0
M  V30 8268 N 1299.83 -3.21165 -0.713741 0
M  V30 8269 C 1299.71 -3.26797 0.639748 0
M  V30 8270 H 1296.73 -8.13644 3.0377 0
M  V30 8271 H 1296.46 -6.42788 2.55485 0
M  V30 8272 H 1297.33 -8.12039 0.792769 0
M  V30 8273 H 1299.99 -5.80061 -0.166416 0
M  V30 8274 H 1300.26 -6.51287 2.75604 0
M  V30 8275 H 1301.26 -7.01734 1.34462 0
M  V30 8276 H 1299.42 -8.73674 2.38337 0
M  V30 8277 H 1299.37 -4.68207 3.53221 0
M  V30 8278 H 1300.06 0.0398818 -0.767965 0
M  V30 8279 H 1300.09 -2.50995 -3.13503 0
M  V30 8280 H 1300.19 -0.759148 -2.80716 0
M  V30 8281 P 1301.29 -8.91 -1.03304e-11 0
M  V30 8282 O 1301.51 -10.1746 -0.733838 0
M  V30 8283 O 1302.08 -8.73346 1.23964 0
M  V30 8284 O 1301.54 -7.66872 -0.971405 0
M  V30 8285 C 1300.6 -7.42405 -2.04668 0
M  V30 8286 C 1301.33 -6.86059 -3.24661 0
M  V30 8287 O 1301.54 -5.42934 -3.03695 0
M  V30 8288 C 1302.73 -7.41287 -3.50796 0
M  V30 8289 O 1303.12 -7.27073 -4.86816 0
M  V30 8290 C 1303.61 -6.5273 -2.63741 0
M  V30 8291 C 1302.9 -5.1842 -2.73198 0
M  V30 8292 N 1302.95 -4.38762 -1.4784 0
M  V30 8293 H 1300.11 -8.36899 -2.3252 0
M  V30 8294 H 1299.84 -6.70391 -1.71179 0
M  V30 8295 H 1300.71 -7.03638 -4.13219 0
M  V30 8296 H 1303.37 -4.59931 -3.54016 0
M  V30 8297 H 1303.65 -6.88995 -1.59871 0
M  V30 8298 H 1304.64 -6.4684 -3.0373 0
M  V30 8299 H 1302.8 -8.47002 -3.20749 0
M  V30 8300 P 1304.67 -7.20834 -5.23717 0
M  V30 8301 O 1304.89 -7.79853 -6.57286 0
M  V30 8302 O 1305.46 -7.79239 -4.12957 0
M  V30 8303 O 1304.92 -5.63315 -5.29344 0
M  V30 8304 C 1303.98 -4.80255 -6.01876 0
M  V30 8305 C 1304.71 -3.64202 -6.65911 0
M  V30 8306 O 1304.92 -2.60694 -5.64732 0
M  V30 8307 C 1306.11 -3.93473 -7.1943 0
M  V30 8308 O 1306.5 -3.02071 -8.21205 0
M  V30 8309 C 1306.99 -3.73047 -5.97036 0
M  V30 8310 C 1306.28 -2.58828 -5.25741 0
M  V30 8311 N 1306.33 -2.68068 -3.77503 0
M  V30 8312 H 1303.49 -5.40332 -6.79951 0
M  V30 8313 H 1303.22 -4.41613 -5.32378 0
M  V30 8314 H 1304.09 -3.26331 -7.47797 0
M  V30 8315 P 1308.05 -2.75334 -8.47391 0
M  V30 8316 O 1308.27 -2.44571 -9.90142 0
M  V30 8317 O 1308.84 -3.87688 -7.92115 0
M  V30 8318 O 1308.3 -1.4459 -7.59357 0
M  V30 8319 C 1307.36 -0.347608 -7.69215 0
M  V30 8320 C 1308.09 0.96767 -7.52806 0
M  V30 8321 O 1308.3 1.21036 -6.1011 0
M  V30 8322 C 1309.49 1.04544 -8.13308 0
M  V30 8323 O 1309.88 2.38311 -8.41922 0
M  V30 8324 C 1310.37 0.491279 -7.02284 0
M  V30 8325 C 1309.66 0.996264 -5.77469 0
M  V30 8326 N 1309.71 0.0501916 -4.62973 0
M  V30 8327 H 1306.87 -0.374722 -8.67691 0
M  V30 8328 H 1306.6 -0.443485 -6.90277 0
M  V30 8329 H 1307.47 1.75537 -7.96793 0
M  V30 8330 P 1311.43 2.75334 -8.47391 0
M  V30 8331 O 1311.65 3.84128 -9.44797 0
M  V30 8332 O 1312.22 1.51947 -8.68712 0
M  V30 8333 O 1311.68 3.29363 -6.99321 0
M  V30 8334 C 1310.74 4.24011 -6.4274 0
M  V30 8335 C 1311.47 5.20775 -5.52155 0
M  V30 8336 O 1311.68 4.56534 -4.22446 0
M  V30 8337 C 1312.87 5.62629 -5.96531 0
M  V30 8338 O 1313.26 6.87667 -5.41053 0
M  V30 8339 C 1313.75 4.52537 -5.39283 0
M  V30 8340 C 1313.04 4.20027 -4.08623 0
M  V30 8341 N 1313.09 2.76189 -3.71603 0
M  V30 8342 H 1310.25 4.797 -7.24003 0
M  V30 8343 H 1309.98 3.69856 -5.84513 0
M  V30 8344 H 1310.85 6.10356 -5.41441 0
M  V30 8345 P 1314.81 7.20834 -5.23717 0
M  V30 8346 O 1315.03 8.66104 -5.38572 0
M  V30 8347 O 1315.6 6.33544 -6.1349 0
M  V30 8348 O 1315.06 6.7751 -3.72168 0
M  V30 8349 C 1314.12 7.20825 -2.7076 0
M  V30 8350 C 1314.85 7.45864 -1.40599 0
M  V30 8351 O 1315.06 6.17651 -0.734225 0
M  V30 8352 C 1316.25 8.05808 -1.51899 0
M  V30 8353 O 1316.64 8.74358 -0.335205 0
M  V30 8354 C 1317.13 6.83093 -1.70294 0
M  V30 8355 C 1316.42 5.79992 -0.836974 0
M  V30 8356 N 1316.47 4.41864 -1.38293 0
M  V30 8357 H 1313.63 8.13644 -3.0377 0
M  V30 8358 H 1313.36 6.42788 -2.55485 0
M  V30 8359 H 1314.23 8.12039 -0.792769 0
M  V30 8360 P 1318.19 8.91 1.04876e-11 0
M  V30 8361 O 1318.41 10.1726 0.733694 0
M  V30 8362 O 1318.98 8.73148 -1.23936 0
M  V30 8363 O 1318.44 7.66872 0.971405 0
M  V30 8364 C 1317.5 7.42309 2.04641 0
M  V30 8365 C 1318.23 6.86059 3.24661 0
M  V30 8366 O 1318.44 5.42847 3.03646 0
M  V30 8367 C 1319.63 7.41196 3.50753 0
M  V30 8368 O 1320.02 7.27073 4.86816 0
M  V30 8369 C 1320.51 6.5273 2.63741 0
M  V30 8370 C 1319.8 5.1842 2.73198 0
M  V30 8371 N 1319.85 4.38762 1.4784 0
M  V30 8372 H 1317.01 8.36803 2.32493 0
M  V30 8373 H 1316.74 6.70197 1.71129 0
M  V30 8374 H 1317.61 7.03551 4.13168 0
M  V30 8375 P 1321.57 7.20834 5.23717 0
M  V30 8376 O 1321.79 7.79853 6.57286 0
M  V30 8377 O 1322.36 7.79239 4.12957 0
M  V30 8378 O 1321.82 5.63315 5.29344 0
M  V30 8379 C 1320.88 4.80255 6.01876 0
M  V30 8380 C 1321.61 3.64202 6.65911 0
M  V30 8381 O 1321.82 2.60694 5.64732 0
M  V30 8382 C 1323.01 3.93473 7.1943 0
M  V30 8383 O 1323.4 3.02071 8.21205 0
M  V30 8384 C 1323.89 3.73047 5.97036 0
M  V30 8385 C 1323.18 2.58828 5.25741 0
M  V30 8386 N 1323.23 2.68068 3.77503 0
M  V30 8387 H 1320.39 5.40332 6.79951 0
M  V30 8388 H 1320.12 4.41613 5.32378 0
M  V30 8389 H 1320.99 3.26331 7.47797 0
M  V30 8390 P 1324.95 2.75334 8.47391 0
M  V30 8391 O 1325.17 2.44571 9.90142 0
M  V30 8392 O 1325.74 3.87688 7.92115 0
M  V30 8393 O 1325.2 1.4459 7.59357 0
M  V30 8394 C 1324.26 0.347608 7.69215 0
M  V30 8395 C 1324.99 -0.96767 7.52806 0
M  V30 8396 O 1325.2 -1.21036 6.1011 0
M  V30 8397 C 1326.39 -1.04544 8.13308 0
M  V30 8398 O 1326.78 -2.38311 8.41922 0
M  V30 8399 C 1327.27 -0.491279 7.02284 0
M  V30 8400 C 1326.56 -0.996264 5.77469 0
M  V30 8401 N 1326.61 -0.0501916 4.62973 0
M  V30 8402 H 1323.77 0.374722 8.67691 0
M  V30 8403 H 1323.5 0.443485 6.90277 0
M  V30 8404 H 1324.37 -1.75537 7.96793 0
M  V30 8405 P 1328.33 -2.75334 8.47391 0
M  V30 8406 O 1328.55 -3.84128 9.44797 0
M  V30 8407 O 1329.12 -1.51947 8.68712 0
M  V30 8408 O 1328.58 -3.29363 6.99321 0
M  V30 8409 C 1327.64 -4.24011 6.4274 0
M  V30 8410 C 1328.37 -5.20775 5.52155 0
M  V30 8411 O 1328.58 -4.56534 4.22446 0
M  V30 8412 C 1329.77 -5.62629 5.96531 0
M  V30 8413 O 1330.16 -6.87667 5.41053 0
M  V30 8414 C 1330.65 -4.52537 5.39283 0
M  V30 8415 C 1329.94 -4.20027 4.08623 0
M  V30 8416 N 1329.99 -2.76189 3.71603 0
M  V30 8417 H 1327.15 -4.797 7.24003 0
M  V30 8418 H 1326.88 -3.69856 5.84513 0
M  V30 8419 H 1327.75 -6.10356 5.41441 0
M  V30 8420 P 1331.71 -7.20834 5.23717 0
M  V30 8421 O 1331.93 -8.66104 5.38572 0
M  V30 8422 O 1332.5 -6.33544 6.1349 0
M  V30 8423 O 1331.96 -6.7751 3.72168 0
M  V30 8424 C 1331.02 -7.20825 2.7076 0
M  V30 8425 C 1331.75 -7.45864 1.40599 0
M  V30 8426 O 1331.96 -6.17651 0.734225 0
M  V30 8427 C 1333.15 -8.05808 1.51899 0
M  V30 8428 O 1333.54 -8.74358 0.335205 0
M  V30 8429 C 1334.03 -6.83093 1.70294 0
M  V30 8430 C 1333.32 -5.79992 0.836974 0
M  V30 8431 N 1333.37 -4.41864 1.38293 0
M  V30 8432 H 1330.53 -8.13644 3.0377 0
M  V30 8433 H 1330.26 -6.42788 2.55485 0
M  V30 8434 H 1331.13 -8.12039 0.792769 0
M  V30 8435 P 1335.09 -8.91 -1.06447e-11 0
M  V30 8436 O 1335.31 -10.1736 -0.733766 0
M  V30 8437 O 1335.88 -8.73247 1.2395 0
M  V30 8438 O 1335.34 -7.66872 -0.971405 0
M  V30 8439 C 1334.4 -7.42309 -2.04641 0
M  V30 8440 C 1335.13 -6.86059 -3.24661 0
M  V30 8441 O 1335.34 -5.42847 -3.03646 0
M  V30 8442 C 1336.53 -7.41196 -3.50753 0
M  V30 8443 O 1336.92 -7.27073 -4.86816 0
M  V30 8444 C 1337.41 -6.5273 -2.63741 0
M  V30 8445 C 1336.7 -5.1842 -2.73198 0
M  V30 8446 N 1336.75 -4.38668 -1.47808 0
M  V30 8447 C 1336.9 -3.00789 -1.58511 0
M  V30 8448 O 1336.99 -2.50116 -2.71298 0
M  V30 8449 N 1336.95 -2.29703 -0.253698 0
M  V30 8450 C 1336.85 -2.84269 0.750133 0
M  V30 8451 N 1336.9 -2.06951 1.82612 0
M  V30 8452 C 1336.7 -4.25803 0.889776 0
M  V30 8453 C 1336.65 -4.98326 -0.259363 0
M  V30 8454 H 1333.91 -8.36707 -2.32466 0
M  V30 8455 H 1333.64 -6.701 -1.71105 0
M  V30 8456 H 1334.51 -7.03638 -4.13219 0
M  V30 8457 H 1337.17 -4.59852 -3.53955 0
M  V30 8458 H 1337.44 -6.88995 -1.59871 0
M  V30 8459 H 1338.44 -6.46749 -3.03687 0
M  V30 8460 H 1336.6 -8.46908 -3.20714 0
M  V30 8461 H 1336.53 -6.06349 -0.206238 0
M  V30 8462 H 1336.63 -4.73163 1.86796 0
M  V30 8463 H 1337.02 -1.05099 1.72271 0
M  V30 8464 H 1336.82 -2.48716 2.76361 0
M  V30 8465 P 1338.47 -7.20834 -5.23717 0
M  V30 8466 O 1338.69 -7.79853 -6.57286 0
M  V30 8467 O 1339.26 -7.79239 -4.12957 0
M  V30 8468 O 1338.72 -5.63315 -5.29344 0
M  V30 8469 C 1337.78 -4.80255 -6.01876 0
M  V30 8470 C 1338.51 -3.64202 -6.65911 0
M  V30 8471 O 1338.72 -2.60694 -5.64732 0
M  V30 8472 C 1339.91 -3.93473 -7.1943 0
M  V30 8473 O 1340.3 -3.02071 -8.21205 0
M  V30 8474 C 1340.79 -3.73047 -5.97036 0
M  V30 8475 C 1340.08 -2.58828 -5.25741 0
M  V30 8476 N 1340.13 -2.68068 -3.77503 0
M  V30 8477 H 1337.29 -5.40332 -6.79951 0
M  V30 8478 H 1337.02 -4.41613 -5.32378 0
M  V30 8479 H 1337.89 -3.26331 -7.47797 0
M  V30 8480 P 1341.85 -2.75334 -8.47391 0
M  V30 8481 O 1342.07 -2.44571 -9.90142 0
M  V30 8482 O 1342.64 -3.87688 -7.92115 0
M  V30 8483 O 1342.1 -1.4459 -7.59357 0
M  V30 8484 C 1341.16 -0.347608 -7.69215 0
M  V30 8485 C 1341.89 0.96767 -7.52806 0
M  V30 8486 O 1342.1 1.21036 -6.1011 0
M  V30 8487 C 1343.29 1.04544 -8.13308 0
M  V30 8488 O 1343.68 2.38311 -8.41922 0
M  V30 8489 C 1344.17 0.491279 -7.02284 0
M  V30 8490 C 1343.46 0.996264 -5.77469 0
M  V30 8491 N 1343.51 0.0501916 -4.62973 0
M  V30 8492 H 1340.67 -0.374722 -8.67691 0
M  V30 8493 H 1340.4 -0.443485 -6.90277 0
M  V30 8494 H 1341.27 1.75537 -7.96793 0
M  V30 8495 P 1345.23 2.75334 -8.47391 0
M  V30 8496 O 1345.45 3.84166 -9.4489 0
M  V30 8497 O 1346.02 1.51964 -8.6881 0
M  V30 8498 O 1345.48 3.29363 -6.99321 0
M  V30 8499 C 1344.54 4.23956 -6.42656 0
M  V30 8500 C 1345.27 5.20775 -5.52155 0
M  V30 8501 O 1345.48 4.56534 -4.22446 0
M  V30 8502 C 1346.67 5.62629 -5.96531 0
M  V30 8503 O 1347.06 6.87667 -5.41053 0
M  V30 8504 C 1347.55 4.52537 -5.39283 0
M  V30 8505 C 1346.84 4.20027 -4.08623 0
M  V30 8506 N 1346.89 2.7613 -3.71522 0
M  V30 8507 C 1347.04 2.45612 -2.37989 0
M  V30 8508 O 1347.13 3.30919 -1.51621 0
M  V30 8509 N 1347.08 1.10684 -2.08435 0
M  V30 8510 C 1346.99 0.0690084 -2.9792 0
M  V30 8511 C 1346.84 0.481522 -4.35345 0
M  V30 8512 C 1346.79 1.78906 -4.67968 0
M  V30 8513 H 1344.05 4.797 -7.24003 0
M  V30 8514 H 1343.78 3.69802 -5.84429 0
M  V30 8515 H 1344.65 6.10356 -5.41441 0
M  V30 8516 H 1347.31 4.78651 -3.27911 0
M  V30 8517 H 1347.58 3.64957 -6.05871 0
M  V30 8518 H 1348.58 4.8868 -5.2125 0
M  V30 8519 H 1346.74 5.66726 -7.06352 0
M  V30 8520 H 1346.67 2.07737 -5.72367 0
M  V30 8521 P 1348.61 7.20834 -5.23717 0
M  V30 8522 O 1348.83 8.66104 -5.38572 0
M  V30 8523 O 1349.4 6.33544 -6.1349 0
M  V30 8524 O 1348.86 6.7751 -3.72168 0
M  V30 8525 C 1347.92 7.20825 -2.7076 0
M  V30 8526 C 1348.65 7.45864 -1.40599 0
M  V30 8527 O 1348.86 6.17651 -0.734225 0
M  V30 8528 C 1350.05 8.05808 -1.51899 0
M  V30 8529 O 1350.44 8.74358 -0.335205 0
M  V30 8530 C 1350.93 6.83093 -1.70294 0
M  V30 8531 C 1350.22 5.79992 -0.836974 0
M  V30 8532 N 1350.27 4.41864 -1.38293 0
M  V30 8533 H 1347.43 8.13644 -3.0377 0
M  V30 8534 H 1347.16 6.42788 -2.55485 0
M  V30 8535 H 1348.03 8.12039 -0.792769 0
M  V30 8536 P 1351.99 8.91 1.08019e-11 0
M  V30 8537 O 1352.21 10.1726 0.733694 0
M  V30 8538 O 1352.78 8.73148 -1.23936 0
M  V30 8539 O 1352.24 7.66872 0.971405 0
M  V30 8540 C 1351.3 7.42309 2.04641 0
M  V30 8541 C 1352.03 6.86059 3.24661 0
M  V30 8542 O 1352.24 5.42847 3.03646 0
M  V30 8543 C 1353.43 7.41196 3.50753 0
M  V30 8544 O 1353.82 7.27073 4.86816 0
M  V30 8545 C 1354.31 6.5273 2.63741 0
M  V30 8546 C 1353.6 5.1842 2.73198 0
M  V30 8547 N 1353.65 4.38762 1.4784 0
M  V30 8548 H 1350.81 8.36803 2.32493 0
M  V30 8549 H 1350.54 6.70197 1.71129 0
M  V30 8550 H 1351.41 7.03551 4.13168 0
M  V30 8551 P 1355.37 7.20834 5.23717 0
M  V30 8552 O 1355.59 7.79853 6.57286 0
M  V30 8553 O 1356.16 7.79239 4.12957 0
M  V30 8554 O 1355.62 5.63315 5.29344 0
M  V30 8555 C 1354.68 4.80255 6.01876 0
M  V30 8556 C 1355.41 3.64202 6.65911 0
M  V30 8557 O 1355.62 2.60694 5.64732 0
M  V30 8558 C 1356.81 3.93473 7.1943 0
M  V30 8559 O 1357.2 3.02071 8.21205 0
M  V30 8560 C 1357.69 3.73047 5.97036 0
M  V30 8561 C 1356.98 2.58828 5.25741 0
M  V30 8562 N 1357.03 2.68068 3.77503 0
M  V30 8563 H 1354.19 5.40332 6.79951 0
M  V30 8564 H 1353.92 4.41613 5.32378 0
M  V30 8565 H 1354.79 3.26331 7.47797 0
M  V30 8566 P 1358.75 2.75334 8.47391 0
M  V30 8567 O 1358.97 2.44595 9.90239 0
M  V30 8568 O 1359.54 3.87732 7.92204 0
M  V30 8569 O 1359 1.4459 7.59357 0
M  V30 8570 C 1358.06 0.347563 7.69115 0
M  V30 8571 C 1358.79 -0.96767 7.52806 0
M  V30 8572 O 1359 -1.21036 6.1011 0
M  V30 8573 C 1360.19 -1.04544 8.13308 0
M  V30 8574 O 1360.58 -2.38311 8.41922 0
M  V30 8575 C 1361.07 -0.491279 7.02284 0
M  V30 8576 C 1360.36 -0.996264 5.77469 0
M  V30 8577 N 1360.41 -0.0501808 4.62873 0
M  V30 8578 C 1360.56 -0.588177 3.36904 0
M  V30 8579 O 1360.65 -1.78598 3.17173 0
M  V30 8580 N 1360.6 0.329694 2.33686 0
M  V30 8581 C 1360.51 1.6953 2.45079 0
M  V30 8582 O 1360.56 2.41926 1.44899 0
M  V30 8583 C 1360.36 2.16933 3.80505 0
M  V30 8584 C 1360.25 3.65373 3.97621 0
M  V30 8585 C 1360.31 1.30326 4.83752 0
M  V30 8586 H 1357.57 0.374722 8.67691 0
M  V30 8587 H 1357.3 0.443421 6.90177 0
M  V30 8588 H 1358.17 -1.75537 7.96793 0
M  V30 8589 H 1360.82 -1.94496 5.46629 0
M  V30 8590 H 1361.1 0.608651 7.04676 0
M  V30 8591 H 1362.1 -0.889672 7.08939 0
M  V30 8592 H 1360.26 -0.43308 9.04564 0
M  V30 8593 H 1360.19 1.68366 5.8516 0
M  V30 8594 H 1361.22 4.05985 4.30448 0
M  V30 8595 H 1359.48 3.88028 4.72875 0
M  V30 8596 H 1359.97 4.11381 3.01609 0
M  V30 8597 H 1360.71 -0.0393617 1.41345 0
M  V30 8598 P 1362.13 -2.75334 8.47391 0
M  V30 8599 O 1362.35 -3.84166 9.4489 0
M  V30 8600 O 1362.92 -1.51964 8.6881 0
M  V30 8601 O 1362.38 -3.29363 6.99321 0
M  V30 8602 C 1361.44 -4.23956 6.42656 0
M  V30 8603 C 1362.17 -5.20775 5.52155 0
M  V30 8604 O 1362.38 -4.56534 4.22446 0
M  V30 8605 C 1363.57 -5.62629 5.96531 0
M  V30 8606 O 1363.96 -6.87667 5.41053 0
M  V30 8607 C 1364.45 -4.52537 5.39283 0
M  V30 8608 C 1363.74 -4.20027 4.08623 0
M  V30 8609 N 1363.79 -2.7613 3.71522 0
M  V30 8610 C 1363.94 -2.45612 2.37989 0
M  V30 8611 O 1364.03 -3.30919 1.51621 0
M  V30 8612 N 1363.98 -1.10684 2.08435 0
M  V30 8613 C 1363.89 -0.0690084 2.9792 0
M  V30 8614 O 1363.94 1.10553 2.59426 0
M  V30 8615 C 1363.74 -0.481522 4.35345 0
M  V30 8616 C 1363.63 0.618778 5.36443 0
M  V30 8617 C 1363.69 -1.78906 4.67968 0
M  V30 8618 H 1360.95 -4.797 7.24003 0
M  V30 8619 H 1360.68 -3.69802 5.84429 0
M  V30 8620 H 1361.55 -6.10356 5.41441 0
M  V30 8621 H 1364.2 -4.78651 3.27911 0
M  V30 8622 H 1364.48 -3.64957 6.05871 0
M  V30 8623 H 1365.48 -4.8868 5.2125 0
M  V30 8624 H 1363.64 -5.66726 7.06352 0
M  V30 8625 H 1363.57 -2.07737 5.72367 0
M  V30 8626 H 1364.6 0.754375 5.86871 0
M  V30 8627 H 1362.86 0.359721 6.10641 0
M  V30 8628 H 1363.35 1.55533 4.8581 0
M  V30 8629 H 1364.09 -0.862651 1.12037 0
M  V30 8630 P 1365.51 -7.20834 5.23717 0
M  V30 8631 O 1365.73 -8.66274 5.38678 0
M  V30 8632 O 1366.3 -6.33687 6.13629 0
M  V30 8633 O 1365.76 -6.7751 3.72168 0
M  V30 8634 C 1364.82 -7.20919 2.70795 0
M  V30 8635 C 1365.55 -7.45864 1.40599 0
M  V30 8636 O 1365.76 -6.17751 0.734343 0
M  V30 8637 C 1366.95 -8.05906 1.51917 0
M  V30 8638 O 1367.34 -8.74358 0.335205 0
M  V30 8639 C 1367.83 -6.83093 1.70294 0
M  V30 8640 C 1367.12 -5.79992 0.836974 0
M  V30 8641 N 1367.17 -4.41864 1.38293 0
M  V30 8642 C 1367.09 -4.02089 2.69407 0
M  V30 8643 N 1367.16 -2.73403 2.85089 0
M  V30 8644 C 1367.31 -2.25086 1.5642 0
M  V30 8645 C 1367.44 -0.942887 1.04836 0
M  V30 8646 N 1367.45 0.150999 1.80369 0
M  V30 8647 N 1367.56 -0.812565 -0.28167 0
M  V30 8648 C 1367.55 -1.90572 -1.03784 0
M  V30 8649 N 1367.43 -3.167 -0.683905 0
M  V30 8650 C 1367.31 -3.26538 0.652815 0
M  V30 8651 H 1364.33 -8.13738 3.03804 0
M  V30 8652 H 1364.06 -6.42974 2.55559 0
M  V30 8653 H 1364.93 -8.12139 0.792866 0
M  V30 8654 H 1367.58 -5.80178 -0.160643 0
M  V30 8655 H 1367.86 -6.51379 2.75643 0
M  V30 8656 H 1368.86 -7.01832 1.3448 0
M  V30 8657 H 1367.02 -8.73771 2.38364 0
M  V30 8658 H 1366.98 -4.7189 3.52311 0
M  V30 8659 H 1367.36 0.0721434 2.82608 0
M  V30 8660 H 1367.55 1.0785 1.36544 0
M  V30 8661 H 1367.66 -1.73207 -2.10241 0
M  V30 8662 P 1368.89 -8.91 -1.09591e-11 0
M  V30 8663 O 1369.11 -10.1726 -0.733694 0
M  V30 8664 O 1369.68 -8.73148 1.23936 0
M  V30 8665 O 1369.14 -7.66872 -0.971405 0
M  V30 8666 C 1368.2 -7.42309 -2.04641 0
M  V30 8667 C 1368.93 -6.86059 -3.24661 0
M  V30 8668 O 1369.14 -5.42847 -3.03646 0
M  V30 8669 C 1370.33 -7.41196 -3.50753 0
M  V30 8670 O 1370.72 -7.27073 -4.86816 0
M  V30 8671 C 1371.21 -6.5273 -2.63741 0
M  V30 8672 C 1370.5 -5.1842 -2.73198 0
M  V30 8673 N 1370.55 -4.38762 -1.4784 0
M  V30 8674 H 1367.71 -8.36803 -2.32493 0
M  V30 8675 H 1367.44 -6.70197 -1.71129 0
M  V30 8676 H 1368.31 -7.03551 -4.13168 0
M  V30 8677 P 1372.27 -7.20834 -5.23717 0
M  V30 8678 O 1372.49 -7.79853 -6.57286 0
M  V30 8679 O 1373.06 -7.79239 -4.12957 0
M  V30 8680 O 1372.52 -5.63315 -5.29344 0
M  V30 8681 C 1371.58 -4.80255 -6.01876 0
M  V30 8682 C 1372.31 -3.64202 -6.65911 0
M  V30 8683 O 1372.52 -2.60694 -5.64732 0
M  V30 8684 C 1373.71 -3.93473 -7.1943 0
M  V30 8685 O 1374.1 -3.02071 -8.21205 0
M  V30 8686 C 1374.59 -3.73047 -5.97036 0
M  V30 8687 C 1373.88 -2.58828 -5.25741 0
M  V30 8688 N 1373.93 -2.68068 -3.77503 0
M  V30 8689 H 1371.09 -5.40332 -6.79951 0
M  V30 8690 H 1370.82 -4.41613 -5.32378 0
M  V30 8691 H 1371.69 -3.26331 -7.47797 0
M  V30 8692 P 1375.65 -2.75334 -8.47391 0
M  V30 8693 O 1375.87 -2.44619 -9.90336 0
M  V30 8694 O 1376.44 -3.87776 -7.92294 0
M  V30 8695 O 1375.9 -1.4459 -7.59357 0
M  V30 8696 C 1374.96 -0.347653 -7.69315 0
M  V30 8697 C 1375.69 0.96767 -7.52806 0
M  V30 8698 O 1375.9 1.21055 -6.10208 0
M  V30 8699 C 1377.09 1.04557 -8.13408 0
M  V30 8700 O 1377.48 2.38311 -8.41922 0
M  V30 8701 C 1377.97 0.491279 -7.02284 0
M  V30 8702 C 1377.26 0.996264 -5.77469 0
M  V30 8703 N 1377.31 0.0501916 -4.62973 0
M  V30 8704 H 1374.47 -0.374765 -8.67791 0
M  V30 8705 H 1374.2 -0.443613 -6.90476 0
M  V30 8706 H 1375.07 1.75559 -7.96891 0
M  V30 8707 H 1377.72 1.94563 -5.46818 0
M  V30 8708 H 1378 -0.608651 -7.04676 0
M  V30 8709 H 1379 0.889796 -7.09039 0
M  V30 8710 H 1377.16 0.433128 -9.04664 0
M  V30 8711 P 1379.03 2.75334 -8.47391 0
M  V30 8712 O 1379.25 3.84128 -9.44797 0
M  V30 8713 O 1379.82 1.51947 -8.68712 0
M  V30 8714 O 1379.28 3.29363 -6.99321 0
M  V30 8715 C 1378.34 4.24011 -6.4274 0
M  V30 8716 C 1379.07 5.20775 -5.52155 0
M  V30 8717 O 1379.28 4.56534 -4.22446 0
M  V30 8718 C 1380.47 5.62629 -5.96531 0
M  V30 8719 O 1380.86 6.87667 -5.41053 0
M  V30 8720 C 1381.35 4.52537 -5.39283 0
M  V30 8721 C 1380.64 4.20027 -4.08623 0
M  V30 8722 N 1380.69 2.76189 -3.71603 0
M  V30 8723 H 1377.85 4.797 -7.24003 0
M  V30 8724 H 1377.58 3.69856 -5.84513 0
M  V30 8725 H 1378.45 6.10356 -5.41441 0
M  V30 8726 P 1382.41 7.20834 -5.23717 0
M  V30 8727 O 1382.63 8.66104 -5.38572 0
M  V30 8728 O 1383.2 6.33544 -6.1349 0
M  V30 8729 O 1382.66 6.7751 -3.72168 0
M  V30 8730 C 1381.72 7.20825 -2.7076 0
M  V30 8731 C 1382.45 7.45864 -1.40599 0
M  V30 8732 O 1382.66 6.17651 -0.734225 0
M  V30 8733 C 1383.85 8.05808 -1.51899 0
M  V30 8734 O 1384.24 8.74358 -0.335205 0
M  V30 8735 C 1384.73 6.83093 -1.70294 0
M  V30 8736 C 1384.02 5.79992 -0.836974 0
M  V30 8737 N 1384.07 4.41864 -1.38293 0
M  V30 8738 H 1381.23 8.13644 -3.0377 0
M  V30 8739 H 1380.96 6.42788 -2.55485 0
M  V30 8740 H 1381.83 8.12039 -0.792769 0
M  V30 8741 P 1385.79 8.91 1.03566e-11 0
M  V30 8742 O 1386.01 10.1726 0.733694 0
M  V30 8743 O 1386.58 8.73148 -1.23936 0
M  V30 8744 O 1386.04 7.66872 0.971405 0
M  V30 8745 C 1385.1 7.42309 2.04641 0
M  V30 8746 C 1385.83 6.86059 3.24661 0
M  V30 8747 O 1386.04 5.42847 3.03646 0
M  V30 8748 C 1387.23 7.41196 3.50753 0
M  V30 8749 O 1387.62 7.27073 4.86816 0
M  V30 8750 C 1388.11 6.5273 2.63741 0
M  V30 8751 C 1387.4 5.1842 2.73198 0
M  V30 8752 N 1387.45 4.38762 1.4784 0
M  V30 8753 H 1384.61 8.36803 2.32493 0
M  V30 8754 H 1384.34 6.70197 1.71129 0
M  V30 8755 H 1385.21 7.03551 4.13168 0
M  V30 8756 P 1389.17 7.20834 5.23717 0
M  V30 8757 O 1389.39 7.79853 6.57286 0
M  V30 8758 O 1389.96 7.79239 4.12957 0
M  V30 8759 O 1389.42 5.63315 5.29344 0
M  V30 8760 C 1388.48 4.80255 6.01876 0
M  V30 8761 C 1389.21 3.64202 6.65911 0
M  V30 8762 O 1389.42 2.60694 5.64732 0
M  V30 8763 C 1390.61 3.93473 7.1943 0
M  V30 8764 O 1391 3.02071 8.21205 0
M  V30 8765 C 1391.49 3.73047 5.97036 0
M  V30 8766 C 1390.78 2.58828 5.25741 0
M  V30 8767 N 1390.83 2.68068 3.77503 0
M  V30 8768 H 1387.99 5.40332 6.79951 0
M  V30 8769 H 1387.72 4.41613 5.32378 0
M  V30 8770 H 1388.59 3.26331 7.47797 0
M  V30 8771 P 1392.55 2.75334 8.47391 0
M  V30 8772 O 1392.77 2.44571 9.90142 0
M  V30 8773 O 1393.34 3.87688 7.92115 0
M  V30 8774 O 1392.8 1.4459 7.59357 0
M  V30 8775 C 1391.86 0.347608 7.69215 0
M  V30 8776 C 1392.59 -0.96767 7.52806 0
M  V30 8777 O 1392.8 -1.21036 6.1011 0
M  V30 8778 C 1393.99 -1.04544 8.13308 0
M  V30 8779 O 1394.38 -2.38311 8.41922 0
M  V30 8780 C 1394.87 -0.491279 7.02284 0
M  V30 8781 C 1394.16 -0.996264 5.77469 0
M  V30 8782 N 1394.21 -0.0501916 4.62973 0
M  V30 8783 H 1391.37 0.374722 8.67691 0
M  V30 8784 H 1391.1 0.443485 6.90277 0
M  V30 8785 H 1391.97 -1.75537 7.96793 0
M  V30 8786 P 1395.93 -2.75334 8.47391 0
M  V30 8787 O 1396.15 -3.84128 9.44797 0
M  V30 8788 O 1396.72 -1.51947 8.68712 0
M  V30 8789 O 1396.18 -3.29363 6.99321 0
M  V30 8790 C 1395.24 -4.24011 6.4274 0
M  V30 8791 C 1395.97 -5.20775 5.52155 0
M  V30 8792 O 1396.18 -4.56534 4.22446 0
M  V30 8793 C 1397.37 -5.62629 5.96531 0
M  V30 8794 O 1397.76 -6.87667 5.41053 0
M  V30 8795 C 1398.25 -4.52537 5.39283 0
M  V30 8796 C 1397.54 -4.20027 4.08623 0
M  V30 8797 N 1397.59 -2.76189 3.71603 0
M  V30 8798 H 1394.75 -4.797 7.24003 0
M  V30 8799 H 1394.48 -3.69856 5.84513 0
M  V30 8800 H 1395.35 -6.10356 5.41441 0
M  V30 8801 P 1399.31 -7.20834 5.23717 0
M  V30 8802 O 1399.53 -8.66104 5.38572 0
M  V30 8803 O 1400.1 -6.33544 6.1349 0
M  V30 8804 O 1399.56 -6.7751 3.72168 0
M  V30 8805 C 1398.62 -7.20825 2.7076 0
M  V30 8806 C 1399.35 -7.45864 1.40599 0
M  V30 8807 O 1399.56 -6.17651 0.734225 0
M  V30 8808 C 1400.75 -8.05808 1.51899 0
M  V30 8809 O 1401.14 -8.74358 0.335205 0
M  V30 8810 C 1401.63 -6.83093 1.70294 0
M  V30 8811 C 1400.92 -5.79992 0.836974 0
M  V30 8812 N 1400.97 -4.41864 1.38293 0
M  V30 8813 C 1400.89 -3.99538 2.69438 0
M  V30 8814 N 1400.97 -2.69909 2.84277 0
M  V30 8815 C 1401.11 -2.21719 1.5408 0
M  V30 8816 C 1401.24 -0.891712 1.06628 0
M  V30 8817 O 1401.26 0.161298 1.70137 0
M  V30 8818 N 1401.36 -0.856846 -0.334985 0
M  V30 8819 C 1401.36 -1.9641 -1.15789 0
M  V30 8820 N 1401.49 -1.72708 -2.46522 0
M  V30 8821 N 1401.23 -3.21165 -0.713741 0
M  V30 8822 C 1401.11 -3.26797 0.639748 0
M  V30 8823 H 1398.13 -8.13644 3.0377 0
M  V30 8824 H 1397.86 -6.42788 2.55485 0
M  V30 8825 H 1398.73 -8.12039 0.792769 0
M  V30 8826 H 1401.38 -5.80061 -0.166416 0
M  V30 8827 H 1401.66 -6.51287 2.75604 0
M  V30 8828 H 1402.66 -7.01734 1.34462 0
M  V30 8829 H 1400.82 -8.73674 2.38337 0
M  V30 8830 H 1400.77 -4.68207 3.53221 0
M  V30 8831 H 1401.45 0.0398818 -0.767965 0
M  V30 8832 H 1401.49 -2.50995 -3.13503 0
M  V30 8833 H 1401.59 -0.759148 -2.80716 0
M  V30 8834 P 1402.69 -8.91 -9.24756e-12 0
M  V30 8835 O 1402.91 -10.1726 -0.733694 0
M  V30 8836 O 1403.48 -8.73148 1.23936 0
M  V30 8837 O 1402.94 -7.66872 -0.971405 0
M  V30 8838 C 1402 -7.42309 -2.04641 0
M  V30 8839 C 1402.73 -6.86059 -3.24661 0
M  V30 8840 O 1402.94 -5.42847 -3.03646 0
M  V30 8841 C 1404.13 -7.41196 -3.50753 0
M  V30 8842 O 1404.52 -7.27073 -4.86816 0
M  V30 8843 C 1405.01 -6.5273 -2.63741 0
M  V30 8844 C 1404.3 -5.1842 -2.73198 0
M  V30 8845 N 1404.35 -4.38762 -1.4784 0
M  V30 8846 H 1401.51 -8.36803 -2.32493 0
M  V30 8847 H 1401.24 -6.70197 -1.71129 0
M  V30 8848 H 1402.11 -7.03551 -4.13168 0
M  V30 8849 P 1406.07 -7.20834 -5.23717 0
M  V30 8850 O 1406.29 -7.7993 -6.57351 0
M  V30 8851 O 1406.86 -7.79328 -4.13004 0
M  V30 8852 O 1406.32 -5.63315 -5.29344 0
M  V30 8853 C 1405.38 -4.80255 -6.01876 0
M  V30 8854 C 1406.11 -3.64202 -6.65911 0
M  V30 8855 O 1406.32 -2.60694 -5.64732 0
M  V30 8856 C 1407.51 -3.93473 -7.1943 0
M  V30 8857 O 1407.9 -3.02071 -8.21205 0
M  V30 8858 C 1408.39 -3.73047 -5.97036 0
M  V30 8859 C 1407.68 -2.58828 -5.25741 0
M  V30 8860 N 1407.73 -2.6801 -3.77422 0
M  V30 8861 C 1407.88 -1.50173 -3.05038 0
M  V30 8862 O 1407.97 -0.428832 -3.665 0
M  V30 8863 N 1407.93 -1.70922 -1.55541 0
M  V30 8864 C 1407.83 -2.7407 -1.06402 0
M  V30 8865 N 1407.88 -2.74764 0.260931 0
M  V30 8866 C 1407.68 -3.96781 -1.78296 0
M  V30 8867 C 1407.63 -3.87909 -3.13891 0
M  V30 8868 H 1404.89 -5.4027 -6.79873 0
M  V30 8869 H 1404.62 -4.41549 -5.32301 0
M  V30 8870 H 1405.49 -3.26371 -7.47889 0
M  V30 8871 H 1408.14 -1.63978 -5.5665 0
M  V30 8872 H 1408.42 -4.63439 -5.3432 0
M  V30 8873 H 1409.42 -3.44728 -6.25838 0
M  V30 8874 H 1407.58 -4.96652 -7.57263 0
M  V30 8875 H 1407.51 -4.78425 -3.73088 0
M  V30 8876 H 1407.61 -4.92593 -1.26997 0
M  V30 8877 H 1408 -1.86285 0.77595 0
M  V30 8878 H 1407.8 -3.63657 0.773896 0
M  V30 8879 P 1409.45 -2.75334 -8.47391 0
M  V30 8880 O 1409.67 -2.44571 -9.90142 0
M  V30 8881 O 1410.24 -3.87688 -7.92115 0
M  V30 8882 O 1409.7 -1.4459 -7.59357 0
M  V30 8883 C 1408.76 -0.347608 -7.69215 0
M  V30 8884 C 1409.49 0.96767 -7.52806 0
M  V30 8885 O 1409.7 1.21036 -6.1011 0
M  V30 8886 C 1410.89 1.04544 -8.13308 0
M  V30 8887 O 1411.28 2.38311 -8.41922 0
M  V30 8888 C 1411.77 0.491279 -7.02284 0
M  V30 8889 C 1411.06 0.996264 -5.77469 0
M  V30 8890 N 1411.11 0.0501916 -4.62973 0
M  V30 8891 H 1408.27 -0.374722 -8.67691 0
M  V30 8892 H 1408 -0.443485 -6.90277 0
M  V30 8893 H 1408.87 1.75537 -7.96793 0
M  V30 8894 P 1412.83 2.75334 -8.47391 0
M  V30 8895 O 1413.05 3.84128 -9.44797 0
M  V30 8896 O 1413.62 1.51947 -8.68712 0
M  V30 8897 O 1413.08 3.29363 -6.99321 0
M  V30 8898 C 1412.14 4.24011 -6.4274 0
M  V30 8899 C 1412.87 5.20775 -5.52155 0
M  V30 8900 O 1413.08 4.56534 -4.22446 0
M  V30 8901 C 1414.27 5.62629 -5.96531 0
M  V30 8902 O 1414.66 6.87667 -5.41053 0
M  V30 8903 C 1415.15 4.52537 -5.39283 0
M  V30 8904 C 1414.44 4.20027 -4.08623 0
M  V30 8905 N 1414.49 2.76189 -3.71603 0
M  V30 8906 H 1411.65 4.797 -7.24003 0
M  V30 8907 H 1411.38 3.69856 -5.84513 0
M  V30 8908 H 1412.25 6.10356 -5.41441 0
M  V30 8909 P 1416.21 7.20834 -5.23717 0
M  V30 8910 O 1416.43 8.66104 -5.38572 0
M  V30 8911 O 1417 6.33544 -6.1349 0
M  V30 8912 O 1416.46 6.7751 -3.72168 0
M  V30 8913 C 1415.52 7.20825 -2.7076 0
M  V30 8914 C 1416.25 7.45864 -1.40599 0
M  V30 8915 O 1416.46 6.17651 -0.734225 0
M  V30 8916 C 1417.65 8.05808 -1.51899 0
M  V30 8917 O 1418.04 8.74358 -0.335205 0
M  V30 8918 C 1418.53 6.83093 -1.70294 0
M  V30 8919 C 1417.82 5.79992 -0.836974 0
M  V30 8920 N 1417.87 4.41864 -1.38293 0
M  V30 8921 H 1415.03 8.13644 -3.0377 0
M  V30 8922 H 1414.76 6.42788 -2.55485 0
M  V30 8923 H 1415.63 8.12039 -0.792769 0
M  V30 8924 P 1419.59 8.91 8.13856e-12 0
M  V30 8925 O 1419.81 10.1726 0.733694 0
M  V30 8926 O 1420.38 8.73148 -1.23936 0
M  V30 8927 O 1419.84 7.66872 0.971405 0
M  V30 8928 C 1418.9 7.42309 2.04641 0
M  V30 8929 C 1419.63 6.86059 3.24661 0
M  V30 8930 O 1419.84 5.42847 3.03646 0
M  V30 8931 C 1421.03 7.41196 3.50753 0
M  V30 8932 O 1421.42 7.27073 4.86816 0
M  V30 8933 C 1421.91 6.5273 2.63741 0
M  V30 8934 C 1421.2 5.1842 2.73198 0
M  V30 8935 N 1421.25 4.38762 1.4784 0
M  V30 8936 H 1418.41 8.36803 2.32493 0
M  V30 8937 H 1418.14 6.70197 1.71129 0
M  V30 8938 H 1419.01 7.03551 4.13168 0
M  V30 8939 P 1422.97 7.20834 5.23717 0
M  V30 8940 O 1423.19 7.79853 6.57286 0
M  V30 8941 O 1423.76 7.79239 4.12957 0
M  V30 8942 O 1423.22 5.63315 5.29344 0
M  V30 8943 C 1422.28 4.80255 6.01876 0
M  V30 8944 C 1423.01 3.64202 6.65911 0
M  V30 8945 O 1423.22 2.60694 5.64732 0
M  V30 8946 C 1424.41 3.93473 7.1943 0
M  V30 8947 O 1424.8 3.02071 8.21205 0
M  V30 8948 C 1425.29 3.73047 5.97036 0
M  V30 8949 C 1424.58 2.58828 5.25741 0
M  V30 8950 N 1424.63 2.68068 3.77503 0
M  V30 8951 H 1421.79 5.40332 6.79951 0
M  V30 8952 H 1421.52 4.41613 5.32378 0
M  V30 8953 H 1422.39 3.26331 7.47797 0
M  V30 8954 P 1426.35 2.75334 8.47391 0
M  V30 8955 O 1426.57 2.44619 9.90336 0
M  V30 8956 O 1427.14 3.87776 7.92294 0
M  V30 8957 O 1426.6 1.4459 7.59357 0
M  V30 8958 C 1425.66 0.347653 7.69315 0
M  V30 8959 C 1426.39 -0.96767 7.52806 0
M  V30 8960 O 1426.6 -1.21055 6.10208 0
M  V30 8961 C 1427.79 -1.04557 8.13408 0
M  V30 8962 O 1428.18 -2.38311 8.41922 0
M  V30 8963 C 1428.67 -0.491279 7.02284 0
M  V30 8964 C 1427.96 -0.996264 5.77469 0
M  V30 8965 N 1428.01 -0.0501916 4.62973 0
M  V30 8966 H 1425.17 0.374765 8.67791 0
M  V30 8967 H 1424.9 0.443613 6.90476 0
M  V30 8968 H 1425.77 -1.75559 7.96891 0
M  V30 8969 H 1428.42 -1.94563 5.46818 0
M  V30 8970 H 1428.7 0.608651 7.04676 0
M  V30 8971 H 1429.7 -0.889796 7.09039 0
M  V30 8972 H 1427.86 -0.433128 9.04664 0
M  V30 8973 P 1429.73 -2.75334 8.47391 0
M  V30 8974 O 1429.95 -3.84128 9.44797 0
M  V30 8975 O 1430.52 -1.51947 8.68712 0
M  V30 8976 O 1429.98 -3.29363 6.99321 0
M  V30 8977 C 1429.04 -4.24011 6.4274 0
M  V30 8978 C 1429.77 -5.20775 5.52155 0
M  V30 8979 O 1429.98 -4.56534 4.22446 0
M  V30 8980 C 1431.17 -5.62629 5.96531 0
M  V30 8981 O 1431.56 -6.87667 5.41053 0
M  V30 8982 C 1432.05 -4.52537 5.39283 0
M  V30 8983 C 1431.34 -4.20027 4.08623 0
M  V30 8984 N 1431.39 -2.76189 3.71603 0
M  V30 8985 H 1428.55 -4.797 7.24003 0
M  V30 8986 H 1428.28 -3.69856 5.84513 0
M  V30 8987 H 1429.15 -6.10356 5.41441 0
M  V30 8988 P 1433.11 -7.20834 5.23717 0
M  V30 8989 O 1433.33 -8.66104 5.38572 0
M  V30 8990 O 1433.9 -6.33544 6.1349 0
M  V30 8991 O 1433.36 -6.7751 3.72168 0
M  V30 8992 C 1432.42 -7.20825 2.7076 0
M  V30 8993 C 1433.15 -7.45864 1.40599 0
M  V30 8994 O 1433.36 -6.17651 0.734225 0
M  V30 8995 C 1434.55 -8.05808 1.51899 0
M  V30 8996 O 1434.94 -8.74358 0.335205 0
M  V30 8997 C 1435.43 -6.83093 1.70294 0
M  V30 8998 C 1434.72 -5.79992 0.836974 0
M  V30 8999 N 1434.77 -4.41864 1.38293 0
M  V30 9000 H 1431.93 -8.13644 3.0377 0
M  V30 9001 H 1431.66 -6.42788 2.55485 0
M  V30 9002 H 1432.53 -8.12039 0.792769 0
M  V30 9003 P 1436.49 -8.91 -7.02955e-12 0
M  V30 9004 O 1436.71 -10.1726 -0.733694 0
M  V30 9005 O 1437.28 -8.73148 1.23936 0
M  V30 9006 O 1436.74 -7.66872 -0.971405 0
M  V30 9007 C 1435.8 -7.42309 -2.04641 0
M  V30 9008 C 1436.53 -6.86059 -3.24661 0
M  V30 9009 O 1436.74 -5.42847 -3.03646 0
M  V30 9010 C 1437.93 -7.41196 -3.50753 0
M  V30 9011 O 1438.32 -7.27073 -4.86816 0
M  V30 9012 C 1438.81 -6.5273 -2.63741 0
M  V30 9013 C 1438.1 -5.1842 -2.73198 0
M  V30 9014 N 1438.15 -4.38762 -1.4784 0
M  V30 9015 H 1435.31 -8.36803 -2.32493 0
M  V30 9016 H 1435.04 -6.70197 -1.71129 0
M  V30 9017 H 1435.91 -7.03551 -4.13168 0
M  V30 9018 P 1439.87 -7.20834 -5.23717 0
M  V30 9019 O 1440.09 -7.79853 -6.57286 0
M  V30 9020 O 1440.66 -7.79239 -4.12957 0
M  V30 9021 O 1440.12 -5.63315 -5.29344 0
M  V30 9022 C 1439.18 -4.80255 -6.01876 0
M  V30 9023 C 1439.91 -3.64202 -6.65911 0
M  V30 9024 O 1440.12 -2.60694 -5.64732 0
M  V30 9025 C 1441.31 -3.93473 -7.1943 0
M  V30 9026 O 1441.7 -3.02071 -8.21205 0
M  V30 9027 C 1442.19 -3.73047 -5.97036 0
M  V30 9028 C 1441.48 -2.58828 -5.25741 0
M  V30 9029 N 1441.53 -2.68068 -3.77503 0
M  V30 9030 H 1438.69 -5.40332 -6.79951 0
M  V30 9031 H 1438.42 -4.41613 -5.32378 0
M  V30 9032 H 1439.29 -3.26331 -7.47797 0
M  V30 9033 P 1443.25 -2.75334 -8.47391 0
M  V30 9034 O 1443.47 -2.44619 -9.90336 0
M  V30 9035 O 1444.04 -3.87776 -7.92294 0
M  V30 9036 O 1443.5 -1.4459 -7.59357 0
M  V30 9037 C 1442.56 -0.347653 -7.69315 0
M  V30 9038 C 1443.29 0.96767 -7.52806 0
M  V30 9039 O 1443.5 1.21055 -6.10208 0
M  V30 9040 C 1444.69 1.04557 -8.13408 0
M  V30 9041 O 1445.08 2.38311 -8.41922 0
M  V30 9042 C 1445.57 0.491279 -7.02284 0
M  V30 9043 C 1444.86 0.996264 -5.77469 0
M  V30 9044 N 1444.91 0.0501916 -4.62973 0
M  V30 9045 C 1444.83 -1.31969 -4.65661 0
M  V30 9046 N 1444.9 -1.86649 -3.48119 0
M  V30 9047 C 1445.05 -0.792089 -2.62406 0
M  V30 9048 C 1445.18 -0.705684 -1.2207 0
M  V30 9049 N 1445.19 -1.76207 -0.413762 0
M  V30 9050 N 1445.3 0.518981 -0.685754 0
M  V30 9051 C 1445.29 1.57595 -1.49174 0
M  V30 9052 N 1445.17 1.62909 -2.80066 0
M  V30 9053 C 1445.05 0.388195 -3.3073 0
M  V30 9054 H 1442.07 -0.374765 -8.67791 0
M  V30 9055 H 1441.8 -0.443613 -6.90476 0
M  V30 9056 H 1442.67 1.75559 -7.96891 0
M  V30 9057 H 1445.32 1.94563 -5.46818 0
M  V30 9058 H 1445.6 -0.608651 -7.04676 0
M  V30 9059 H 1446.6 0.889796 -7.09039 0
M  V30 9060 H 1444.76 0.433128 -9.04664 0
M  V30 9061 H 1444.72 -1.89246 -5.57664 0
M  V30 9062 H 1445.1 -2.71005 -0.804694 0
M  V30 9063 H 1445.29 -1.63189 0.603768 0
M  V30 9064 H 1445.4 2.53475 -0.997614 0
M  V30 9065 P 1446.63 2.75334 -8.47391 0
M  V30 9066 O 1446.85 3.84204 -9.44982 0
M  V30 9067 O 1447.42 1.51982 -8.68909 0
M  V30 9068 O 1446.88 3.29363 -6.99321 0
M  V30 9069 C 1445.94 4.24066 -6.42823 0
M  V30 9070 C 1446.67 5.20775 -5.52155 0
M  V30 9071 O 1446.88 4.56607 -4.22514 0
M  V30 9072 C 1448.07 5.62697 -5.96604 0
M  V30 9073 O 1448.46 6.87667 -5.41053 0
M  V30 9074 C 1448.95 4.52537 -5.39283 0
M  V30 9075 C 1448.24 4.20027 -4.08623 0
M  V30 9076 N 1448.29 2.76189 -3.71603 0
M  V30 9077 C 1448.21 1.66944 -4.54297 0
M  V30 9078 N 1448.28 0.536169 -3.91344 0
M  V30 9079 C 1448.43 0.901569 -2.58849 0
M  V30 9080 C 1448.56 0.146599 -1.40236 0
M  V30 9081 N 1448.57 -1.18234 -1.37046 0
M  V30 9082 N 1448.68 0.822941 -0.249738 0
M  V30 9083 C 1448.67 2.15179 -0.280525 0
M  V30 9084 N 1448.55 2.96414 -1.30822 0
M  V30 9085 C 1448.43 2.25804 -2.44748 0
M  V30 9086 H 1445.45 4.79756 -7.24086 0
M  V30 9087 H 1445.18 3.69963 -5.84682 0
M  V30 9088 H 1446.05 6.10431 -5.41508 0
M  V30 9089 H 1448.7 4.78816 -3.28024 0
M  V30 9090 H 1448.98 3.64957 -6.05871 0
M  V30 9091 H 1449.98 4.88748 -5.21323 0
M  V30 9092 H 1448.14 5.66789 -7.0643 0
M  V30 9093 H 1448.1 1.74684 -5.62396 0
M  V30 9094 H 1448.48 -1.71949 -2.24394 0
M  V30 9095 H 1448.67 -1.67511 -0.470742 0
M  V30 9096 H 1448.78 2.63704 0.6828 0
M  V30 9097 P 1450.01 7.20834 -5.23717 0
M  V30 9098 O 1450.23 8.66104 -5.38572 0
M  V30 9099 O 1450.8 6.33544 -6.1349 0
M  V30 9100 O 1450.26 6.7751 -3.72168 0
M  V30 9101 C 1449.32 7.20825 -2.7076 0
M  V30 9102 C 1450.05 7.45864 -1.40599 0
M  V30 9103 O 1450.26 6.17651 -0.734225 0
M  V30 9104 C 1451.45 8.05808 -1.51899 0
M  V30 9105 O 1451.84 8.74358 -0.335205 0
M  V30 9106 C 1452.33 6.83093 -1.70294 0
M  V30 9107 C 1451.62 5.79992 -0.836974 0
M  V30 9108 N 1451.67 4.41864 -1.38293 0
M  V30 9109 C 1451.59 3.99538 -2.69438 0
M  V30 9110 N 1451.67 2.69909 -2.84277 0
M  V30 9111 C 1451.81 2.21719 -1.5408 0
M  V30 9112 C 1451.94 0.891712 -1.06628 0
M  V30 9113 N 1452.06 0.856846 0.334985 0
M  V30 9114 C 1452.06 1.9641 1.15789 0
M  V30 9115 N 1452.19 1.72708 2.46522 0
M  V30 9116 N 1451.93 3.21165 0.713741 0
M  V30 9117 C 1451.81 3.26797 -0.639748 0
M  V30 9118 H 1448.83 8.13644 -3.0377 0
M  V30 9119 H 1448.56 6.42788 -2.55485 0
M  V30 9120 H 1449.43 8.12039 -0.792769 0
M  V30 9121 P 1453.39 8.91 5.92055e-12 0
M  V30 9122 O 1453.61 10.1726 0.733694 0
M  V30 9123 O 1454.18 8.73148 -1.23936 0
M  V30 9124 O 1453.64 7.66872 0.971405 0
M  V30 9125 C 1452.7 7.42309 2.04641 0
M  V30 9126 C 1453.43 6.86059 3.24661 0
M  V30 9127 O 1453.64 5.42847 3.03646 0
M  V30 9128 C 1454.83 7.41196 3.50753 0
M  V30 9129 O 1455.22 7.27073 4.86816 0
M  V30 9130 C 1455.71 6.5273 2.63741 0
M  V30 9131 C 1455 5.1842 2.73198 0
M  V30 9132 N 1455.05 4.38762 1.4784 0
M  V30 9133 C 1454.97 4.81605 0.168631 0
M  V30 9134 N 1455.05 3.85454 -0.713363 0
M  V30 9135 C 1455.19 2.6994 0.0566958 0
M  V30 9136 C 1455.32 1.34815 -0.338502 0
M  V30 9137 O 1455.34 0.869548 -1.47125 0
M  V30 9138 N 1455.44 0.496304 0.77465 0
M  V30 9139 C 1455.44 0.908403 2.09122 0
M  V30 9140 N 1455.57 -0.0517805 3.00955 0
M  V30 9141 N 1455.31 2.17875 2.46519 0
M  V30 9142 C 1455.19 3.01988 1.4033 0
M  V30 9143 H 1452.21 8.36803 2.32493 0
M  V30 9144 H 1451.94 6.70197 1.71129 0
M  V30 9145 H 1452.81 7.03551 4.13168 0
M  V30 9146 H 1455.46 4.59498 3.54415 0
M  V30 9147 H 1455.74 6.88898 1.59848 0
M  V30 9148 H 1456.74 6.46749 3.03687 0
M  V30 9149 H 1454.9 8.46908 3.20714 0
M  V30 9150 H 1454.85 5.86405 -0.105564 0
M  V30 9151 H 1455.53 -0.483664 0.597855 0
M  V30 9152 H 1455.57 0.187865 4.0116 0
M  V30 9153 H 1455.67 -1.03585 2.71726 0
M  V30 9154 P 1456.77 7.20834 5.23717 0
M  V30 9155 O 1456.99 7.79853 6.57286 0
M  V30 9156 O 1457.56 7.79239 4.12957 0
M  V30 9157 O 1457.02 5.63315 5.29344 0
M  V30 9158 C 1456.08 4.80255 6.01876 0
M  V30 9159 C 1456.81 3.64202 6.65911 0
M  V30 9160 O 1457.02 2.60694 5.64732 0
M  V30 9161 C 1458.21 3.93473 7.1943 0
M  V30 9162 O 1458.6 3.02071 8.21205 0
M  V30 9163 C 1459.09 3.73047 5.97036 0
M  V30 9164 C 1458.38 2.58828 5.25741 0
M  V30 9165 N 1458.43 2.68068 3.77503 0
M  V30 9166 H 1455.59 5.40332 6.79951 0
M  V30 9167 H 1455.32 4.41613 5.32378 0
M  V30 9168 H 1456.19 3.26331 7.47797 0
M  V30 9169 P 1460.15 2.75334 8.47391 0
M  V30 9170 O 1460.37 2.44571 9.90142 0
M  V30 9171 O 1460.94 3.87688 7.92115 0
M  V30 9172 O 1460.4 1.4459 7.59357 0
M  V30 9173 C 1459.46 0.347608 7.69215 0
M  V30 9174 C 1460.19 -0.96767 7.52806 0
M  V30 9175 O 1460.4 -1.21036 6.1011 0
M  V30 9176 C 1461.59 -1.04544 8.13308 0
M  V30 9177 O 1461.98 -2.38311 8.41922 0
M  V30 9178 C 1462.47 -0.491279 7.02284 0
M  V30 9179 C 1461.76 -0.996264 5.77469 0
M  V30 9180 N 1461.81 -0.0501916 4.62973 0
M  V30 9181 H 1458.97 0.374722 8.67691 0
M  V30 9182 H 1458.7 0.443485 6.90277 0
M  V30 9183 H 1459.57 -1.75537 7.96793 0
M  V30 9184 P 1463.53 -2.75334 8.47391 0
M  V30 9185 O 1463.75 -3.84166 9.4489 0
M  V30 9186 O 1464.32 -1.51964 8.6881 0
M  V30 9187 O 1463.78 -3.29363 6.99321 0
M  V30 9188 C 1462.84 -4.23956 6.42656 0
M  V30 9189 C 1463.57 -5.20775 5.52155 0
M  V30 9190 O 1463.78 -4.56534 4.22446 0
M  V30 9191 C 1464.97 -5.62629 5.96531 0
M  V30 9192 O 1465.36 -6.87667 5.41053 0
M  V30 9193 C 1465.85 -4.52537 5.39283 0
M  V30 9194 C 1465.14 -4.20027 4.08623 0
M  V30 9195 N 1465.19 -2.7613 3.71522 0
M  V30 9196 C 1465.34 -2.45612 2.37989 0
M  V30 9197 O 1465.43 -3.30919 1.51621 0
M  V30 9198 N 1465.38 -1.10684 2.08435 0
M  V30 9199 C 1465.29 -0.0690084 2.9792 0
M  V30 9200 O 1465.34 1.10553 2.59426 0
M  V30 9201 C 1465.14 -0.481522 4.35345 0
M  V30 9202 C 1465.03 0.618778 5.36443 0
M  V30 9203 C 1465.09 -1.78906 4.67968 0
M  V30 9204 H 1462.35 -4.797 7.24003 0
M  V30 9205 H 1462.08 -3.69802 5.84429 0
M  V30 9206 H 1462.95 -6.10356 5.41441 0
M  V30 9207 H 1465.6 -4.78651 3.27911 0
M  V30 9208 H 1465.88 -3.64957 6.05871 0
M  V30 9209 H 1466.88 -4.8868 5.2125 0
M  V30 9210 H 1465.04 -5.66726 7.06352 0
M  V30 9211 H 1464.97 -2.07737 5.72367 0
M  V30 9212 H 1466 0.754375 5.86871 0
M  V30 9213 H 1464.26 0.359721 6.10641 0
M  V30 9214 H 1464.75 1.55533 4.8581 0
M  V30 9215 H 1465.49 -0.862651 1.12037 0
M  V30 9216 P 1466.91 -7.20834 5.23717 0
M  V30 9217 O 1467.13 -8.66104 5.38572 0
M  V30 9218 O 1467.7 -6.33544 6.1349 0
M  V30 9219 O 1467.16 -6.7751 3.72168 0
M  V30 9220 C 1466.22 -7.20825 2.7076 0
M  V30 9221 C 1466.95 -7.45864 1.40599 0
M  V30 9222 O 1467.16 -6.17651 0.734225 0
M  V30 9223 C 1468.35 -8.05808 1.51899 0
M  V30 9224 O 1468.74 -8.74358 0.335205 0
M  V30 9225 C 1469.23 -6.83093 1.70294 0
M  V30 9226 C 1468.52 -5.79992 0.836974 0
M  V30 9227 N 1468.57 -4.41864 1.38293 0
M  V30 9228 H 1465.73 -8.13644 3.0377 0
M  V30 9229 H 1465.46 -6.42788 2.55485 0
M  V30 9230 H 1466.33 -8.12039 0.792769 0
M  V30 9231 P 1470.29 -8.91 -4.81154e-12 0
M  V30 9232 O 1470.51 -10.1726 -0.733694 0
M  V30 9233 O 1471.08 -8.73148 1.23936 0
M  V30 9234 O 1470.54 -7.66872 -0.971405 0
M  V30 9235 C 1469.6 -7.42309 -2.04641 0
M  V30 9236 C 1470.33 -6.86059 -3.24661 0
M  V30 9237 O 1470.54 -5.42847 -3.03646 0
M  V30 9238 C 1471.73 -7.41196 -3.50753 0
M  V30 9239 O 1472.12 -7.27073 -4.86816 0
M  V30 9240 C 1472.61 -6.5273 -2.63741 0
M  V30 9241 C 1471.9 -5.1842 -2.73198 0
M  V30 9242 N 1471.95 -4.38762 -1.4784 0
M  V30 9243 H 1469.11 -8.36803 -2.32493 0
M  V30 9244 H 1468.84 -6.70197 -1.71129 0
M  V30 9245 H 1469.71 -7.03551 -4.13168 0
M  V30 9246 P 1473.67 -7.20834 -5.23717 0
M  V30 9247 O 1473.89 -7.79853 -6.57286 0
M  V30 9248 O 1474.46 -7.79239 -4.12957 0
M  V30 9249 O 1473.92 -5.63315 -5.29344 0
M  V30 9250 C 1472.98 -4.80255 -6.01876 0
M  V30 9251 C 1473.71 -3.64202 -6.65911 0
M  V30 9252 O 1473.92 -2.60694 -5.64732 0
M  V30 9253 C 1475.11 -3.93473 -7.1943 0
M  V30 9254 O 1475.5 -3.02071 -8.21205 0
M  V30 9255 C 1475.99 -3.73047 -5.97036 0
M  V30 9256 C 1475.28 -2.58828 -5.25741 0
M  V30 9257 N 1475.33 -2.68068 -3.77503 0
M  V30 9258 H 1472.49 -5.40332 -6.79951 0
M  V30 9259 H 1472.22 -4.41613 -5.32378 0
M  V30 9260 H 1473.09 -3.26331 -7.47797 0
M  V30 9261 P 1477.05 -2.75334 -8.47391 0
M  V30 9262 O 1477.27 -2.44571 -9.90142 0
M  V30 9263 O 1477.84 -3.87688 -7.92115 0
M  V30 9264 O 1477.3 -1.4459 -7.59357 0
M  V30 9265 C 1476.36 -0.347608 -7.69215 0
M  V30 9266 C 1477.09 0.96767 -7.52806 0
M  V30 9267 O 1477.3 1.21036 -6.1011 0
M  V30 9268 C 1478.49 1.04544 -8.13308 0
M  V30 9269 O 1478.88 2.38311 -8.41922 0
M  V30 9270 C 1479.37 0.491279 -7.02284 0
M  V30 9271 C 1478.66 0.996264 -5.77469 0
M  V30 9272 N 1478.71 0.0501916 -4.62973 0
M  V30 9273 H 1475.87 -0.374722 -8.67691 0
M  V30 9274 H 1475.6 -0.443485 -6.90277 0
M  V30 9275 H 1476.47 1.75537 -7.96793 0
M  V30 9276 P 1480.43 2.75334 -8.47391 0
M  V30 9277 O 1480.65 3.84128 -9.44797 0
M  V30 9278 O 1481.22 1.51947 -8.68712 0
M  V30 9279 O 1480.68 3.29363 -6.99321 0
M  V30 9280 C 1479.74 4.24011 -6.4274 0
M  V30 9281 C 1480.47 5.20775 -5.52155 0
M  V30 9282 O 1480.68 4.56534 -4.22446 0
M  V30 9283 C 1481.87 5.62629 -5.96531 0
M  V30 9284 O 1482.26 6.87667 -5.41053 0
M  V30 9285 C 1482.75 4.52537 -5.39283 0
M  V30 9286 C 1482.04 4.20027 -4.08623 0
M  V30 9287 N 1482.09 2.76189 -3.71603 0
M  V30 9288 H 1479.25 4.797 -7.24003 0
M  V30 9289 H 1478.98 3.69856 -5.84513 0
M  V30 9290 H 1479.85 6.10356 -5.41441 0
M  V30 9291 P 1483.81 7.20834 -5.23717 0
M  V30 9292 O 1484.03 8.66104 -5.38572 0
M  V30 9293 O 1484.6 6.33544 -6.1349 0
M  V30 9294 O 1484.06 6.7751 -3.72168 0
M  V30 9295 C 1483.12 7.20825 -2.7076 0
M  V30 9296 C 1483.85 7.45864 -1.40599 0
M  V30 9297 O 1484.06 6.17651 -0.734225 0
M  V30 9298 C 1485.25 8.05808 -1.51899 0
M  V30 9299 O 1485.64 8.74358 -0.335205 0
M  V30 9300 C 1486.13 6.83093 -1.70294 0
M  V30 9301 C 1485.42 5.79992 -0.836974 0
M  V30 9302 N 1485.47 4.41864 -1.38293 0
M  V30 9303 H 1482.63 8.13644 -3.0377 0
M  V30 9304 H 1482.36 6.42788 -2.55485 0
M  V30 9305 H 1483.23 8.12039 -0.792769 0
M  V30 9306 P 1487.19 8.91 3.70254e-12 0
M  V30 9307 O 1487.41 10.1726 0.733694 0
M  V30 9308 O 1487.98 8.73148 -1.23936 0
M  V30 9309 O 1487.44 7.66872 0.971405 0
M  V30 9310 C 1486.5 7.42309 2.04641 0
M  V30 9311 C 1487.23 6.86059 3.24661 0
M  V30 9312 O 1487.44 5.42847 3.03646 0
M  V30 9313 C 1488.63 7.41196 3.50753 0
M  V30 9314 O 1489.02 7.27073 4.86816 0
M  V30 9315 C 1489.51 6.5273 2.63741 0
M  V30 9316 C 1488.8 5.1842 2.73198 0
M  V30 9317 N 1488.85 4.38762 1.4784 0
M  V30 9318 H 1486.01 8.36803 2.32493 0
M  V30 9319 H 1485.74 6.70197 1.71129 0
M  V30 9320 H 1486.61 7.03551 4.13168 0
M  V30 9321 P 1490.57 7.20834 5.23717 0
M  V30 9322 O 1490.79 7.79853 6.57286 0
M  V30 9323 O 1491.36 7.79239 4.12957 0
M  V30 9324 O 1490.82 5.63315 5.29344 0
M  V30 9325 C 1489.88 4.80255 6.01876 0
M  V30 9326 C 1490.61 3.64202 6.65911 0
M  V30 9327 O 1490.82 2.60694 5.64732 0
M  V30 9328 C 1492.01 3.93473 7.1943 0
M  V30 9329 O 1492.4 3.02071 8.21205 0
M  V30 9330 C 1492.89 3.73047 5.97036 0
M  V30 9331 C 1492.18 2.58828 5.25741 0
M  V30 9332 N 1492.23 2.68068 3.77503 0
M  V30 9333 H 1489.39 5.40332 6.79951 0
M  V30 9334 H 1489.12 4.41613 5.32378 0
M  V30 9335 H 1489.99 3.26331 7.47797 0
M  V30 9336 P 1493.95 2.75334 8.47391 0
M  V30 9337 O 1494.17 2.44571 9.90142 0
M  V30 9338 O 1494.74 3.87688 7.92115 0
M  V30 9339 O 1494.2 1.4459 7.59357 0
M  V30 9340 C 1493.26 0.347608 7.69215 0
M  V30 9341 C 1493.99 -0.96767 7.52806 0
M  V30 9342 O 1494.2 -1.21036 6.1011 0
M  V30 9343 C 1495.39 -1.04544 8.13308 0
M  V30 9344 O 1495.78 -2.38311 8.41922 0
M  V30 9345 C 1496.27 -0.491279 7.02284 0
M  V30 9346 C 1495.56 -0.996264 5.77469 0
M  V30 9347 N 1495.61 -0.0501916 4.62973 0
M  V30 9348 H 1492.77 0.374722 8.67691 0
M  V30 9349 H 1492.5 0.443485 6.90277 0
M  V30 9350 H 1493.37 -1.75537 7.96793 0
M  V30 9351 P 1497.33 -2.75334 8.47391 0
M  V30 9352 O 1497.55 -3.84128 9.44797 0
M  V30 9353 O 1498.12 -1.51947 8.68712 0
M  V30 9354 O 1497.58 -3.29363 6.99321 0
M  V30 9355 C 1496.64 -4.24011 6.4274 0
M  V30 9356 C 1497.37 -5.20775 5.52155 0
M  V30 9357 O 1497.58 -4.56534 4.22446 0
M  V30 9358 C 1498.77 -5.62629 5.96531 0
M  V30 9359 O 1499.16 -6.87667 5.41053 0
M  V30 9360 C 1499.65 -4.52537 5.39283 0
M  V30 9361 C 1498.94 -4.20027 4.08623 0
M  V30 9362 N 1498.99 -2.76189 3.71603 0
M  V30 9363 H 1496.15 -4.797 7.24003 0
M  V30 9364 H 1495.88 -3.69856 5.84513 0
M  V30 9365 H 1496.75 -6.10356 5.41441 0
M  V30 9366 P 1500.71 -7.20834 5.23717 0
M  V30 9367 O 1500.93 -8.66104 5.38572 0
M  V30 9368 O 1501.5 -6.33544 6.1349 0
M  V30 9369 O 1500.96 -6.7751 3.72168 0
M  V30 9370 C 1500.02 -7.20825 2.7076 0
M  V30 9371 C 1500.75 -7.45864 1.40599 0
M  V30 9372 O 1500.96 -6.17651 0.734225 0
M  V30 9373 C 1502.15 -8.05808 1.51899 0
M  V30 9374 O 1502.54 -8.74358 0.335205 0
M  V30 9375 C 1503.03 -6.83093 1.70294 0
M  V30 9376 C 1502.32 -5.79992 0.836974 0
M  V30 9377 N 1502.37 -4.41864 1.38293 0
M  V30 9378 H 1499.53 -8.13644 3.0377 0
M  V30 9379 H 1499.26 -6.42788 2.55485 0
M  V30 9380 H 1500.13 -8.12039 0.792769 0
M  V30 9381 P 1504.09 -8.91 -2.59353e-12 0
M  V30 9382 O 1504.31 -10.1746 -0.733838 0
M  V30 9383 O 1504.88 -8.73346 1.23964 0
M  V30 9384 O 1504.34 -7.66872 -0.971405 0
M  V30 9385 C 1503.4 -7.42405 -2.04668 0
M  V30 9386 C 1504.13 -6.86059 -3.24661 0
M  V30 9387 O 1504.34 -5.42934 -3.03695 0
M  V30 9388 C 1505.53 -7.41287 -3.50796 0
M  V30 9389 O 1505.92 -7.27073 -4.86816 0
M  V30 9390 C 1506.41 -6.5273 -2.63741 0
M  V30 9391 C 1505.7 -5.1842 -2.73198 0
M  V30 9392 N 1505.75 -4.38762 -1.4784 0
M  V30 9393 H 1502.91 -8.36899 -2.3252 0
M  V30 9394 H 1502.64 -6.70391 -1.71179 0
M  V30 9395 H 1503.51 -7.03638 -4.13219 0
M  V30 9396 H 1506.16 -4.59931 -3.54016 0
M  V30 9397 H 1506.44 -6.88995 -1.59871 0
M  V30 9398 H 1507.44 -6.4684 -3.0373 0
M  V30 9399 H 1505.6 -8.47002 -3.20749 0
M  V30 9400 P 1507.47 -7.20834 -5.23717 0
M  V30 9401 O 1507.69 -7.79853 -6.57286 0
M  V30 9402 O 1508.26 -7.79239 -4.12957 0
M  V30 9403 O 1507.72 -5.63315 -5.29344 0
M  V30 9404 C 1506.78 -4.80255 -6.01876 0
M  V30 9405 C 1507.51 -3.64202 -6.65911 0
M  V30 9406 O 1507.72 -2.60694 -5.64732 0
M  V30 9407 C 1508.91 -3.93473 -7.1943 0
M  V30 9408 O 1509.3 -3.02071 -8.21205 0
M  V30 9409 C 1509.79 -3.73047 -5.97036 0
M  V30 9410 C 1509.08 -2.58828 -5.25741 0
M  V30 9411 N 1509.13 -2.68068 -3.77503 0
M  V30 9412 H 1506.29 -5.40332 -6.79951 0
M  V30 9413 H 1506.02 -4.41613 -5.32378 0
M  V30 9414 H 1506.89 -3.26331 -7.47797 0
M  V30 9415 P 1510.85 -2.75334 -8.47391 0
M  V30 9416 O 1511.07 -2.44571 -9.90142 0
M  V30 9417 O 1511.64 -3.87688 -7.92115 0
M  V30 9418 O 1511.1 -1.4459 -7.59357 0
M  V30 9419 C 1510.16 -0.347608 -7.69215 0
M  V30 9420 C 1510.89 0.96767 -7.52806 0
M  V30 9421 O 1511.1 1.21036 -6.1011 0
M  V30 9422 C 1512.29 1.04544 -8.13308 0
M  V30 9423 O 1512.68 2.38311 -8.41922 0
M  V30 9424 C 1513.17 0.491279 -7.02284 0
M  V30 9425 C 1512.46 0.996264 -5.77469 0
M  V30 9426 N 1512.51 0.0501916 -4.62973 0
M  V30 9427 H 1509.67 -0.374722 -8.67691 0
M  V30 9428 H 1509.4 -0.443485 -6.90277 0
M  V30 9429 H 1510.27 1.75537 -7.96793 0
M  V30 9430 P 1514.23 2.75334 -8.47391 0
M  V30 9431 O 1514.45 3.84204 -9.44982 0
M  V30 9432 O 1515.02 1.51982 -8.68909 0
M  V30 9433 O 1514.48 3.29363 -6.99321 0
M  V30 9434 C 1513.54 4.24066 -6.42823 0
M  V30 9435 C 1514.27 5.20775 -5.52155 0
M  V30 9436 O 1514.48 4.56607 -4.22514 0
M  V30 9437 C 1515.67 5.62697 -5.96604 0
M  V30 9438 O 1516.06 6.87667 -5.41053 0
M  V30 9439 C 1516.55 4.52537 -5.39283 0
M  V30 9440 C 1515.84 4.20027 -4.08623 0
M  V30 9441 N 1515.89 2.76189 -3.71603 0
M  V30 9442 C 1515.81 1.66944 -4.54297 0
M  V30 9443 N 1515.88 0.536169 -3.91344 0
M  V30 9444 C 1516.03 0.901569 -2.58849 0
M  V30 9445 C 1516.16 0.146599 -1.40236 0
M  V30 9446 N 1516.17 -1.18234 -1.37046 0
M  V30 9447 N 1516.28 0.822941 -0.249738 0
M  V30 9448 C 1516.27 2.15179 -0.280525 0
M  V30 9449 N 1516.15 2.96414 -1.30822 0
M  V30 9450 C 1516.03 2.25804 -2.44748 0
M  V30 9451 H 1513.05 4.79756 -7.24086 0
M  V30 9452 H 1512.78 3.69963 -5.84682 0
M  V30 9453 H 1513.65 6.10431 -5.41508 0
M  V30 9454 H 1516.3 4.78816 -3.28024 0
M  V30 9455 H 1516.58 3.64957 -6.05871 0
M  V30 9456 H 1517.58 4.88748 -5.21323 0
M  V30 9457 H 1515.74 5.66789 -7.0643 0
M  V30 9458 H 1515.7 1.74684 -5.62396 0
M  V30 9459 H 1516.08 -1.71949 -2.24394 0
M  V30 9460 H 1516.27 -1.67511 -0.470742 0
M  V30 9461 H 1516.38 2.63704 0.6828 0
M  V30 9462 P 1517.61 7.20834 -5.23717 0
M  V30 9463 O 1517.83 8.66104 -5.38572 0
M  V30 9464 O 1518.4 6.33544 -6.1349 0
M  V30 9465 O 1517.86 6.7751 -3.72168 0
M  V30 9466 C 1516.92 7.20825 -2.7076 0
M  V30 9467 C 1517.65 7.45864 -1.40599 0
M  V30 9468 O 1517.86 6.17651 -0.734225 0
M  V30 9469 C 1519.05 8.05808 -1.51899 0
M  V30 9470 O 1519.44 8.74358 -0.335205 0
M  V30 9471 C 1519.93 6.83093 -1.70294 0
M  V30 9472 C 1519.22 5.79992 -0.836974 0
M  V30 9473 N 1519.27 4.41864 -1.38293 0
M  V30 9474 H 1516.43 8.13644 -3.0377 0
M  V30 9475 H 1516.16 6.42788 -2.55485 0
M  V30 9476 H 1517.03 8.12039 -0.792769 0
M  V30 9477 P 1520.99 8.91 1.48453e-12 0
M  V30 9478 O 1521.21 10.1746 0.733838 0
M  V30 9479 O 1521.78 8.73346 -1.23964 0
M  V30 9480 O 1521.24 7.66872 0.971405 0
M  V30 9481 C 1520.3 7.42405 2.04668 0
M  V30 9482 C 1521.03 6.86059 3.24661 0
M  V30 9483 O 1521.24 5.42934 3.03695 0
M  V30 9484 C 1522.43 7.41287 3.50796 0
M  V30 9485 O 1522.82 7.27073 4.86816 0
M  V30 9486 C 1523.31 6.5273 2.63741 0
M  V30 9487 C 1522.6 5.1842 2.73198 0
M  V30 9488 N 1522.65 4.38762 1.4784 0
M  V30 9489 H 1519.81 8.36899 2.3252 0
M  V30 9490 H 1519.54 6.70391 1.71179 0
M  V30 9491 H 1520.41 7.03638 4.13219 0
M  V30 9492 H 1523.06 4.59931 3.54016 0
M  V30 9493 H 1523.34 6.88995 1.59871 0
M  V30 9494 H 1524.33 6.4684 3.0373 0
M  V30 9495 H 1522.5 8.47002 3.20749 0
M  V30 9496 P 1524.37 7.20834 5.23717 0
M  V30 9497 O 1524.59 7.7993 6.57351 0
M  V30 9498 O 1525.16 7.79328 4.13004 0
M  V30 9499 O 1524.62 5.63315 5.29344 0
M  V30 9500 C 1523.68 4.80193 6.01798 0
M  V30 9501 C 1524.41 3.64202 6.65911 0
M  V30 9502 O 1524.62 2.60694 5.64732 0
M  V30 9503 C 1525.81 3.93473 7.1943 0
M  V30 9504 O 1526.2 3.02071 8.21205 0
M  V30 9505 C 1526.69 3.73047 5.97036 0
M  V30 9506 C 1525.98 2.58828 5.25741 0
M  V30 9507 N 1526.03 2.6801 3.77422 0
M  V30 9508 C 1526.18 1.50443 3.07133 0
M  V30 9509 O 1526.27 0.419406 3.61576 0
M  V30 9510 N 1526.22 1.6403 1.69677 0
M  V30 9511 C 1526.13 2.81206 0.986255 0
M  V30 9512 O 1526.18 2.80892 -0.249754 0
M  V30 9513 C 1525.98 3.99158 1.80325 0
M  V30 9514 C 1525.87 5.29309 1.06921 0
M  V30 9515 C 1525.93 3.89779 3.1476 0
M  V30 9516 H 1523.19 5.40332 6.79951 0
M  V30 9517 H 1522.92 4.41549 5.32301 0
M  V30 9518 H 1523.79 3.26331 7.47797 0
M  V30 9519 H 1526.44 1.6395 5.56554 0
M  V30 9520 H 1526.72 4.63439 5.3432 0
M  V30 9521 H 1527.71 3.44728 6.25838 0
M  V30 9522 H 1525.88 4.96652 7.57263 0
M  V30 9523 H 1525.81 4.80159 3.74441 0
M  V30 9524 H 1526.84 5.81459 1.09608 0
M  V30 9525 H 1525.1 5.9187 1.54487 0
M  V30 9526 H 1525.59 5.10095 0.0220288 0
M  V30 9527 H 1526.33 0.798962 1.16664 0
M  V30 9528 P 1527.75 2.75334 8.47391 0
M  V30 9529 O 1527.97 2.44571 9.90142 0
M  V30 9530 O 1528.54 3.87688 7.92115 0
M  V30 9531 O 1528 1.4459 7.59357 0
M  V30 9532 C 1527.06 0.347608 7.69215 0
M  V30 9533 C 1527.79 -0.96767 7.52806 0
M  V30 9534 O 1528 -1.21036 6.1011 0
M  V30 9535 C 1529.19 -1.04544 8.13308 0
M  V30 9536 O 1529.58 -2.38311 8.41922 0
M  V30 9537 C 1530.07 -0.491279 7.02284 0
M  V30 9538 C 1529.36 -0.996264 5.77469 0
M  V30 9539 N 1529.41 -0.0501916 4.62973 0
M  V30 9540 H 1526.57 0.374722 8.67691 0
M  V30 9541 H 1526.3 0.443485 6.90277 0
M  V30 9542 H 1527.17 -1.75537 7.96793 0
M  V30 9543 P 1531.13 -2.75334 8.47391 0
M  V30 9544 O 1531.35 -3.84128 9.44797 0
M  V30 9545 O 1531.92 -1.51947 8.68712 0
M  V30 9546 O 1531.38 -3.29363 6.99321 0
M  V30 9547 C 1530.44 -4.24011 6.4274 0
M  V30 9548 C 1531.17 -5.20775 5.52155 0
M  V30 9549 O 1531.38 -4.56534 4.22446 0
M  V30 9550 C 1532.57 -5.62629 5.96531 0
M  V30 9551 O 1532.96 -6.87667 5.41053 0
M  V30 9552 C 1533.45 -4.52537 5.39283 0
M  V30 9553 C 1532.74 -4.20027 4.08623 0
M  V30 9554 N 1532.79 -2.76189 3.71603 0
M  V30 9555 H 1529.95 -4.797 7.24003 0
M  V30 9556 H 1529.68 -3.69856 5.84513 0
M  V30 9557 H 1530.55 -6.10356 5.41441 0
M  V30 9558 P 1534.51 -7.20834 5.23717 0
M  V30 9559 O 1534.73 -8.66104 5.38572 0
M  V30 9560 O 1535.3 -6.33544 6.1349 0
M  V30 9561 O 1534.76 -6.7751 3.72168 0
M  V30 9562 C 1533.82 -7.20825 2.7076 0
M  V30 9563 C 1534.55 -7.45864 1.40599 0
M  V30 9564 O 1534.76 -6.17651 0.734225 0
M  V30 9565 C 1535.95 -8.05808 1.51899 0
M  V30 9566 O 1536.34 -8.74358 0.335205 0
M  V30 9567 C 1536.83 -6.83093 1.70294 0
M  V30 9568 C 1536.12 -5.79992 0.836974 0
M  V30 9569 N 1536.17 -4.41864 1.38293 0
M  V30 9570 H 1533.33 -8.13644 3.0377 0
M  V30 9571 H 1533.06 -6.42788 2.55485 0
M  V30 9572 H 1533.93 -8.12039 0.792769 0
M  V30 9573 P 1537.89 -8.91 -3.75525e-13 0
M  V30 9574 O 1538.11 -10.1726 -0.733694 0
M  V30 9575 O 1538.68 -8.73148 1.23936 0
M  V30 9576 O 1538.14 -7.66872 -0.971405 0
M  V30 9577 C 1537.2 -7.42309 -2.04641 0
M  V30 9578 C 1537.93 -6.86059 -3.24661 0
M  V30 9579 O 1538.14 -5.42847 -3.03646 0
M  V30 9580 C 1539.33 -7.41196 -3.50753 0
M  V30 9581 O 1539.72 -7.27073 -4.86816 0
M  V30 9582 C 1540.21 -6.5273 -2.63741 0
M  V30 9583 C 1539.5 -5.1842 -2.73198 0
M  V30 9584 N 1539.55 -4.38762 -1.4784 0
M  V30 9585 H 1536.71 -8.36803 -2.32493 0
M  V30 9586 H 1536.44 -6.70197 -1.71129 0
M  V30 9587 H 1537.31 -7.03551 -4.13168 0
M  V30 9588 P 1541.27 -7.20834 -5.23717 0
M  V30 9589 O 1541.49 -7.7993 -6.57351 0
M  V30 9590 O 1542.06 -7.79328 -4.13004 0
M  V30 9591 O 1541.52 -5.63315 -5.29344 0
M  V30 9592 C 1540.58 -4.80193 -6.01798 0
M  V30 9593 C 1541.31 -3.64202 -6.65911 0
M  V30 9594 O 1541.52 -2.60694 -5.64732 0
M  V30 9595 C 1542.71 -3.93473 -7.1943 0
M  V30 9596 O 1543.1 -3.02071 -8.21205 0
M  V30 9597 C 1543.59 -3.73047 -5.97036 0
M  V30 9598 C 1542.88 -2.58828 -5.25741 0
M  V30 9599 N 1542.93 -2.6801 -3.77422 0
M  V30 9600 C 1543.08 -1.50443 -3.07133 0
M  V30 9601 O 1543.17 -0.419406 -3.61576 0
M  V30 9602 N 1543.12 -1.6403 -1.69677 0
M  V30 9603 C 1543.03 -2.81206 -0.986255 0
M  V30 9604 C 1542.88 -3.99158 -1.80325 0
M  V30 9605 C 1542.83 -3.89779 -3.1476 0
M  V30 9606 H 1540.09 -5.40332 -6.79951 0
M  V30 9607 H 1539.82 -4.41549 -5.32301 0
M  V30 9608 H 1540.69 -3.26331 -7.47797 0
M  V30 9609 H 1543.34 -1.6395 -5.56554 0
M  V30 9610 H 1543.62 -4.63439 -5.3432 0
M  V30 9611 H 1544.61 -3.44728 -6.25838 0
M  V30 9612 H 1542.78 -4.96652 -7.57263 0
M  V30 9613 H 1542.71 -4.80159 -3.74441 0
M  V30 9614 P 1544.65 -2.75334 -8.47391 0
M  V30 9615 O 1544.87 -2.44571 -9.90142 0
M  V30 9616 O 1545.44 -3.87688 -7.92115 0
M  V30 9617 O 1544.9 -1.4459 -7.59357 0
M  V30 9618 C 1543.96 -0.347608 -7.69215 0
M  V30 9619 C 1544.69 0.96767 -7.52806 0
M  V30 9620 O 1544.9 1.21036 -6.1011 0
M  V30 9621 C 1546.09 1.04544 -8.13308 0
M  V30 9622 O 1546.48 2.38311 -8.41922 0
M  V30 9623 C 1546.97 0.491279 -7.02284 0
M  V30 9624 C 1546.26 0.996264 -5.77469 0
M  V30 9625 N 1546.31 0.0501916 -4.62973 0
M  V30 9626 C 1546.23 -1.32786 -4.63244 0
M  V30 9627 N 1546.31 -1.86957 -3.44545 0
M  V30 9628 C 1546.45 -0.780241 -2.58481 0
M  V30 9629 C 1546.58 -0.738536 -1.17757 0
M  V30 9630 O 1546.6 -1.66794 -0.372349 0
M  V30 9631 N 1546.7 0.58337 -0.711393 0
M  V30 9632 C 1546.7 1.70816 -1.51017 0
M  V30 9633 N 1546.83 2.87826 -0.880757 0
M  V30 9634 N 1546.57 1.67126 -2.8339 0
M  V30 9635 C 1546.45 0.401421 -3.30572 0
M  V30 9636 H 1543.47 -0.374722 -8.67691 0
M  V30 9637 H 1543.2 -0.443485 -6.90277 0
M  V30 9638 H 1544.07 1.75537 -7.96793 0
M  V30 9639 H 1546.72 1.95076 -5.46529 0
M  V30 9640 H 1547 -0.608565 -7.04577 0
M  V30 9641 H 1547.99 0.889672 -7.08939 0
M  V30 9642 H 1546.16 0.43308 -9.04564 0
M  V30 9643 H 1546.11 -1.91249 -5.54442 0
M  V30 9644 H 1546.79 0.718054 0.275244 0
M  V30 9645 H 1546.83 3.75721 -1.41832 0
M  V30 9646 H 1546.93 2.90436 0.145468 0
M  V30 9647 P 1548.03 2.75334 -8.47391 0
M  V30 9648 O 1548.25 3.84128 -9.44797 0
M  V30 9649 O 1548.82 1.51947 -8.68712 0
M  V30 9650 O 1548.28 3.29363 -6.99321 0
M  V30 9651 C 1547.34 4.24011 -6.4274 0
M  V30 9652 C 1548.07 5.20775 -5.52155 0
M  V30 9653 O 1548.28 4.56534 -4.22446 0
M  V30 9654 C 1549.47 5.62629 -5.96531 0
M  V30 9655 O 1549.86 6.87667 -5.41053 0
M  V30 9656 C 1550.35 4.52537 -5.39283 0
M  V30 9657 C 1549.64 4.20027 -4.08623 0
M  V30 9658 N 1549.69 2.76189 -3.71603 0
M  V30 9659 H 1546.85 4.797 -7.24003 0
M  V30 9660 H 1546.58 3.69856 -5.84513 0
M  V30 9661 H 1547.45 6.10356 -5.41441 0
M  V30 9662 P 1551.41 7.20834 -5.23717 0
M  V30 9663 O 1551.63 8.66104 -5.38572 0
M  V30 9664 O 1552.2 6.33544 -6.1349 0
M  V30 9665 O 1551.66 6.7751 -3.72168 0
M  V30 9666 C 1550.72 7.20825 -2.7076 0
M  V30 9667 C 1551.45 7.45864 -1.40599 0
M  V30 9668 O 1551.66 6.17651 -0.734225 0
M  V30 9669 C 1552.85 8.05808 -1.51899 0
M  V30 9670 O 1553.24 8.74358 -0.335205 0
M  V30 9671 C 1553.73 6.83093 -1.70294 0
M  V30 9672 C 1553.02 5.79992 -0.836974 0
M  V30 9673 N 1553.07 4.41864 -1.38293 0
M  V30 9674 H 1550.23 8.13644 -3.0377 0
M  V30 9675 H 1549.96 6.42788 -2.55485 0
M  V30 9676 H 1550.83 8.12039 -0.792769 0
M  V30 9677 P 1554.79 8.91 -7.3348e-13 0
M  V30 9678 O 1555.01 10.1726 0.733694 0
M  V30 9679 O 1555.58 8.73148 -1.23936 0
M  V30 9680 O 1555.04 7.66872 0.971405 0
M  V30 9681 C 1554.1 7.42309 2.04641 0
M  V30 9682 C 1554.83 6.86059 3.24661 0
M  V30 9683 O 1555.04 5.42847 3.03646 0
M  V30 9684 C 1556.23 7.41196 3.50753 0
M  V30 9685 O 1556.62 7.27073 4.86816 0
M  V30 9686 C 1557.11 6.5273 2.63741 0
M  V30 9687 C 1556.4 5.1842 2.73198 0
M  V30 9688 N 1556.45 4.38762 1.4784 0
M  V30 9689 H 1553.61 8.36803 2.32493 0
M  V30 9690 H 1553.34 6.70197 1.71129 0
M  V30 9691 H 1554.21 7.03551 4.13168 0
M  V30 9692 P 1558.17 7.20834 5.23717 0
M  V30 9693 O 1558.39 7.79853 6.57286 0
M  V30 9694 O 1558.96 7.79239 4.12957 0
M  V30 9695 O 1558.42 5.63315 5.29344 0
M  V30 9696 C 1557.48 4.80255 6.01876 0
M  V30 9697 C 1558.21 3.64202 6.65911 0
M  V30 9698 O 1558.42 2.60694 5.64732 0
M  V30 9699 C 1559.61 3.93473 7.1943 0
M  V30 9700 O 1560 3.02071 8.21205 0
M  V30 9701 C 1560.49 3.73047 5.97036 0
M  V30 9702 C 1559.78 2.58828 5.25741 0
M  V30 9703 N 1559.83 2.68068 3.77503 0
M  V30 9704 H 1556.99 5.40332 6.79951 0
M  V30 9705 H 1556.72 4.41613 5.32378 0
M  V30 9706 H 1557.59 3.26331 7.47797 0
M  V30 9707 P 1561.55 2.75334 8.47391 0
M  V30 9708 O 1561.77 2.44595 9.90239 0
M  V30 9709 O 1562.34 3.87732 7.92204 0
M  V30 9710 O 1561.8 1.4459 7.59357 0
M  V30 9711 C 1560.86 0.347563 7.69115 0
M  V30 9712 C 1561.59 -0.96767 7.52806 0
M  V30 9713 O 1561.8 -1.21036 6.1011 0
M  V30 9714 C 1562.99 -1.04544 8.13308 0
M  V30 9715 O 1563.38 -2.38311 8.41922 0
M  V30 9716 C 1563.87 -0.491279 7.02284 0
M  V30 9717 C 1563.16 -0.996264 5.77469 0
M  V30 9718 N 1563.21 -0.0501808 4.62873 0
M  V30 9719 C 1563.36 -0.588177 3.36904 0
M  V30 9720 O 1563.45 -1.78598 3.17173 0
M  V30 9721 N 1563.4 0.329694 2.33686 0
M  V30 9722 C 1563.31 1.6953 2.45079 0
M  V30 9723 O 1563.36 2.41926 1.44899 0
M  V30 9724 C 1563.16 2.16933 3.80505 0
M  V30 9725 C 1563.05 3.65373 3.97621 0
M  V30 9726 C 1563.11 1.30326 4.83752 0
M  V30 9727 H 1560.37 0.374722 8.67691 0
M  V30 9728 H 1560.1 0.443421 6.90177 0
M  V30 9729 H 1560.97 -1.75537 7.96793 0
M  V30 9730 H 1563.62 -1.94496 5.46629 0
M  V30 9731 H 1563.9 0.608651 7.04676 0
M  V30 9732 H 1564.89 -0.889672 7.08939 0
M  V30 9733 H 1563.06 -0.43308 9.04564 0
M  V30 9734 H 1562.99 1.68366 5.8516 0
M  V30 9735 H 1564.02 4.05985 4.30448 0
M  V30 9736 H 1562.28 3.88028 4.72875 0
M  V30 9737 H 1562.77 4.11381 3.01609 0
M  V30 9738 H 1563.51 -0.0393617 1.41345 0
M  V30 9739 P 1564.93 -2.75334 8.47391 0
M  V30 9740 O 1565.15 -3.84128 9.44797 0
M  V30 9741 O 1565.72 -1.51947 8.68712 0
M  V30 9742 O 1565.18 -3.29363 6.99321 0
M  V30 9743 C 1564.24 -4.24011 6.4274 0
M  V30 9744 C 1564.97 -5.20775 5.52155 0
M  V30 9745 O 1565.18 -4.56534 4.22446 0
M  V30 9746 C 1566.37 -5.62629 5.96531 0
M  V30 9747 O 1566.76 -6.87667 5.41053 0
M  V30 9748 C 1567.25 -4.52537 5.39283 0
M  V30 9749 C 1566.54 -4.20027 4.08623 0
M  V30 9750 N 1566.59 -2.76189 3.71603 0
M  V30 9751 C 1566.51 -1.64862 4.52822 0
M  V30 9752 N 1566.59 -0.512671 3.88633 0
M  V30 9753 C 1566.73 -0.888083 2.54977 0
M  V30 9754 C 1566.86 -0.094668 1.38677 0
M  V30 9755 O 1566.88 1.13053 1.28163 0
M  V30 9756 N 1566.98 -0.890102 0.232633 0
M  V30 9757 C 1566.98 -2.26958 0.21772 0
M  V30 9758 N 1567.11 -2.84626 -0.97925 0
M  V30 9759 N 1566.85 -3.0178 1.31033 0
M  V30 9760 C 1566.73 -2.26781 2.43843 0
M  V30 9761 H 1563.75 -4.797 7.24003 0
M  V30 9762 H 1563.48 -3.69856 5.84513 0
M  V30 9763 H 1564.35 -6.10356 5.41441 0
M  V30 9764 H 1567 -4.79061 3.27488 0
M  V30 9765 H 1567.28 -3.64906 6.05785 0
M  V30 9766 H 1568.27 -4.8868 5.2125 0
M  V30 9767 H 1566.44 -5.66726 7.06352 0
M  V30 9768 H 1566.39 -1.71169 5.60966 0
M  V30 9769 H 1567.07 -0.419134 -0.644739 0
M  V30 9770 H 1567.11 -3.87332 -1.06098 0
M  V30 9771 H 1567.21 -2.26417 -1.82483 0
M  V30 9772 P 1568.31 -7.20834 5.23717 0
M  V30 9773 O 1568.53 -8.66189 5.38625 0
M  V30 9774 O 1569.1 -6.33615 6.1356 0
M  V30 9775 O 1568.56 -6.7751 3.72168 0
M  V30 9776 C 1567.62 -7.20732 2.70725 0
M  V30 9777 C 1568.35 -7.45864 1.40599 0
M  V30 9778 O 1568.56 -6.17651 0.734225 0
M  V30 9779 C 1569.75 -8.05808 1.51899 0
M  V30 9780 O 1570.14 -8.74358 0.335205 0
M  V30 9781 C 1570.63 -6.83093 1.70294 0
M  V30 9782 C 1569.92 -5.79992 0.836974 0
M  V30 9783 N 1569.97 -4.41769 1.38263 0
M  V30 9784 C 1570.12 -3.38591 0.481702 0
M  V30 9785 O 1570.21 -3.56839 -0.718452 0
M  V30 9786 N 1570.16 -2.1206 1.03569 0
M  V30 9787 C 1570.07 -1.80696 2.36966 0
M  V30 9788 C 1569.92 -2.94845 3.23898 0
M  V30 9789 C 1569.87 -4.19803 2.73435 0
M  V30 9790 H 1567.13 -8.13644 3.0377 0
M  V30 9791 H 1566.86 -6.42695 2.55448 0
M  V30 9792 H 1567.73 -8.12039 0.792769 0
M  V30 9793 H 1570.38 -5.79978 -0.160587 0
M  V30 9794 H 1570.66 -6.51379 2.75643 0
M  V30 9795 H 1571.65 -7.01734 1.34462 0
M  V30 9796 H 1569.82 -8.73674 2.38337 0
M  V30 9797 H 1569.75 -5.04492 3.4095 0
M  V30 9798 P 1571.69 -8.91 1.84249e-12 0
M  V30 9799 O 1571.91 -10.1726 -0.733694 0
M  V30 9800 O 1572.48 -8.73148 1.23936 0
M  V30 9801 O 1571.94 -7.66872 -0.971405 0
M  V30 9802 C 1571 -7.42309 -2.04641 0
M  V30 9803 C 1571.73 -6.86059 -3.24661 0
M  V30 9804 O 1571.94 -5.42847 -3.03646 0
M  V30 9805 C 1573.13 -7.41196 -3.50753 0
M  V30 9806 O 1573.52 -7.27073 -4.86816 0
M  V30 9807 C 1574.01 -6.5273 -2.63741 0
M  V30 9808 C 1573.3 -5.1842 -2.73198 0
M  V30 9809 N 1573.35 -4.38762 -1.4784 0
M  V30 9810 H 1570.51 -8.36803 -2.32493 0
M  V30 9811 H 1570.24 -6.70197 -1.71129 0
M  V30 9812 H 1571.11 -7.03551 -4.13168 0
M  V30 9813 P 1575.07 -7.20834 -5.23717 0
M  V30 9814 O 1575.29 -7.79853 -6.57286 0
M  V30 9815 O 1575.86 -7.79239 -4.12957 0
M  V30 9816 O 1575.32 -5.63315 -5.29344 0
M  V30 9817 C 1574.38 -4.80255 -6.01876 0
M  V30 9818 C 1575.11 -3.64202 -6.65911 0
M  V30 9819 O 1575.32 -2.60694 -5.64732 0
M  V30 9820 C 1576.51 -3.93473 -7.1943 0
M  V30 9821 O 1576.9 -3.02071 -8.21205 0
M  V30 9822 C 1577.39 -3.73047 -5.97036 0
M  V30 9823 C 1576.68 -2.58828 -5.25741 0
M  V30 9824 N 1576.73 -2.68068 -3.77503 0
M  V30 9825 H 1573.89 -5.40332 -6.79951 0
M  V30 9826 H 1573.62 -4.41613 -5.32378 0
M  V30 9827 H 1574.49 -3.26331 -7.47797 0
M  V30 9828 P 1578.45 -2.75334 -8.47391 0
M  V30 9829 O 1578.67 -2.44571 -9.90142 0
M  V30 9830 O 1579.24 -3.87688 -7.92115 0
M  V30 9831 O 1578.7 -1.4459 -7.59357 0
M  V30 9832 C 1577.76 -0.347608 -7.69215 0
M  V30 9833 C 1578.49 0.96767 -7.52806 0
M  V30 9834 O 1578.7 1.21036 -6.1011 0
M  V30 9835 C 1579.89 1.04544 -8.13308 0
M  V30 9836 O 1580.28 2.38311 -8.41922 0
M  V30 9837 C 1580.77 0.491279 -7.02284 0
M  V30 9838 C 1580.06 0.996264 -5.77469 0
M  V30 9839 N 1580.11 0.0501916 -4.62973 0
M  V30 9840 H 1577.27 -0.374722 -8.67691 0
M  V30 9841 H 1577 -0.443485 -6.90277 0
M  V30 9842 H 1577.87 1.75537 -7.96793 0
M  V30 9843 P 1581.83 2.75334 -8.47391 0
M  V30 9844 O 1582.05 3.84128 -9.44797 0
M  V30 9845 O 1582.62 1.51947 -8.68712 0
M  V30 9846 O 1582.08 3.29363 -6.99321 0
M  V30 9847 C 1581.14 4.24011 -6.4274 0
M  V30 9848 C 1581.87 5.20775 -5.52155 0
M  V30 9849 O 1582.08 4.56534 -4.22446 0
M  V30 9850 C 1583.27 5.62629 -5.96531 0
M  V30 9851 O 1583.66 6.87667 -5.41053 0
M  V30 9852 C 1584.15 4.52537 -5.39283 0
M  V30 9853 C 1583.44 4.20027 -4.08623 0
M  V30 9854 N 1583.49 2.76189 -3.71603 0
M  V30 9855 H 1580.65 4.797 -7.24003 0
M  V30 9856 H 1580.38 3.69856 -5.84513 0
M  V30 9857 H 1581.25 6.10356 -5.41441 0
M  V30 9858 P 1585.21 7.20834 -5.23717 0
M  V30 9859 O 1585.43 8.66104 -5.38572 0
M  V30 9860 O 1586 6.33544 -6.1349 0
M  V30 9861 O 1585.46 6.7751 -3.72168 0
M  V30 9862 C 1584.52 7.20825 -2.7076 0
M  V30 9863 C 1585.25 7.45864 -1.40599 0
M  V30 9864 O 1585.46 6.17651 -0.734225 0
M  V30 9865 C 1586.65 8.05808 -1.51899 0
M  V30 9866 O 1587.04 8.74358 -0.335205 0
M  V30 9867 C 1587.53 6.83093 -1.70294 0
M  V30 9868 C 1586.82 5.79992 -0.836974 0
M  V30 9869 N 1586.87 4.41864 -1.38293 0
M  V30 9870 H 1584.03 8.13644 -3.0377 0
M  V30 9871 H 1583.76 6.42788 -2.55485 0
M  V30 9872 H 1584.63 8.12039 -0.792769 0
M  V30 9873 P 1588.59 8.91 -2.95149e-12 0
M  V30 9874 O 1588.81 10.1726 0.733694 0
M  V30 9875 O 1589.38 8.73148 -1.23936 0
M  V30 9876 O 1588.84 7.66872 0.971405 0
M  V30 9877 C 1587.9 7.42309 2.04641 0
M  V30 9878 C 1588.63 6.86059 3.24661 0
M  V30 9879 O 1588.84 5.42847 3.03646 0
M  V30 9880 C 1590.03 7.41196 3.50753 0
M  V30 9881 O 1590.42 7.27073 4.86816 0
M  V30 9882 C 1590.91 6.5273 2.63741 0
M  V30 9883 C 1590.2 5.1842 2.73198 0
M  V30 9884 N 1590.25 4.38762 1.4784 0
M  V30 9885 H 1587.41 8.36803 2.32493 0
M  V30 9886 H 1587.14 6.70197 1.71129 0
M  V30 9887 H 1588.01 7.03551 4.13168 0
M  V30 9888 P 1591.97 7.20834 5.23717 0
M  V30 9889 O 1592.19 7.80006 6.57415 0
M  V30 9890 O 1592.76 7.79416 4.13051 0
M  V30 9891 O 1592.22 5.63315 5.29344 0
M  V30 9892 C 1591.28 4.80318 6.01954 0
M  V30 9893 C 1592.01 3.64202 6.65911 0
M  V30 9894 O 1592.22 2.60736 5.64823 0
M  V30 9895 C 1593.41 3.93521 7.19518 0
M  V30 9896 O 1593.8 3.02071 8.21205 0
M  V30 9897 C 1594.29 3.73047 5.97036 0
M  V30 9898 C 1593.58 2.58828 5.25741 0
M  V30 9899 N 1593.63 2.68068 3.77503 0
M  V30 9900 H 1590.79 5.40394 6.8003 0
M  V30 9901 H 1590.52 4.41741 5.32532 0
M  V30 9902 H 1591.39 3.26371 7.47889 0
M  V30 9903 H 1594.04 1.64007 5.56746 0
M  V30 9904 H 1594.32 4.63439 5.3432 0
M  V30 9905 H 1595.31 3.44776 6.25925 0
M  V30 9906 H 1593.48 4.96707 7.57347 0
M  V30 9907 P 1595.35 2.75334 8.47391 0
M  V30 9908 O 1595.57 2.44571 9.90142 0
M  V30 9909 O 1596.14 3.87688 7.92115 0
M  V30 9910 O 1595.6 1.4459 7.59357 0
M  V30 9911 C 1594.66 0.347608 7.69215 0
M  V30 9912 C 1595.39 -0.96767 7.52806 0
M  V30 9913 O 1595.6 -1.21036 6.1011 0
M  V30 9914 C 1596.79 -1.04544 8.13308 0
M  V30 9915 O 1597.18 -2.38311 8.41922 0
M  V30 9916 C 1597.67 -0.491279 7.02284 0
M  V30 9917 C 1596.96 -0.996264 5.77469 0
M  V30 9918 N 1597.01 -0.0501916 4.62973 0
M  V30 9919 H 1594.17 0.374722 8.67691 0
M  V30 9920 H 1593.9 0.443485 6.90277 0
M  V30 9921 H 1594.77 -1.75537 7.96793 0
M  V30 9922 P 1598.73 -2.75334 8.47391 0
M  V30 9923 O 1598.95 -3.84128 9.44797 0
M  V30 9924 O 1599.52 -1.51947 8.68712 0
M  V30 9925 O 1598.98 -3.29363 6.99321 0
M  V30 9926 C 1598.04 -4.24011 6.4274 0
M  V30 9927 C 1598.77 -5.20775 5.52155 0
M  V30 9928 O 1598.98 -4.56534 4.22446 0
M  V30 9929 C 1600.17 -5.62629 5.96531 0
M  V30 9930 O 1600.56 -6.87667 5.41053 0
M  V30 9931 C 1601.05 -4.52537 5.39283 0
M  V30 9932 C 1600.34 -4.20027 4.08623 0
M  V30 9933 N 1600.39 -2.76189 3.71603 0
M  V30 9934 H 1597.55 -4.797 7.24003 0
M  V30 9935 H 1597.28 -3.69856 5.84513 0
M  V30 9936 H 1598.15 -6.10356 5.41441 0
M  V30 9937 P 1602.11 -7.20834 5.23717 0
M  V30 9938 O 1602.33 -8.66104 5.38572 0
M  V30 9939 O 1602.9 -6.33544 6.1349 0
M  V30 9940 O 1602.36 -6.7751 3.72168 0
M  V30 9941 C 1601.42 -7.20825 2.7076 0
M  V30 9942 C 1602.15 -7.45864 1.40599 0
M  V30 9943 O 1602.36 -6.17651 0.734225 0
M  V30 9944 C 1603.55 -8.05808 1.51899 0
M  V30 9945 O 1603.94 -8.74358 0.335205 0
M  V30 9946 C 1604.43 -6.83093 1.70294 0
M  V30 9947 C 1603.72 -5.79992 0.836974 0
M  V30 9948 N 1603.77 -4.41864 1.38293 0
M  V30 9949 H 1600.93 -8.13644 3.0377 0
M  V30 9950 H 1600.66 -6.42788 2.55485 0
M  V30 9951 H 1601.53 -8.12039 0.792769 0
M  V30 9952 P 1605.49 -8.91 4.0605e-12 0
M  V30 9953 O 1605.71 -10.1726 -0.733694 0
M  V30 9954 O 1606.28 -8.73148 1.23936 0
M  V30 9955 O 1605.74 -7.66872 -0.971405 0
M  V30 9956 C 1604.8 -7.42309 -2.04641 0
M  V30 9957 C 1605.53 -6.86059 -3.24661 0
M  V30 9958 O 1605.74 -5.42847 -3.03646 0
M  V30 9959 C 1606.93 -7.41196 -3.50753 0
M  V30 9960 O 1607.32 -7.27073 -4.86816 0
M  V30 9961 C 1607.81 -6.5273 -2.63741 0
M  V30 9962 C 1607.1 -5.1842 -2.73198 0
M  V30 9963 N 1607.15 -4.38762 -1.4784 0
M  V30 9964 H 1604.31 -8.36803 -2.32493 0
M  V30 9965 H 1604.04 -6.70197 -1.71129 0
M  V30 9966 H 1604.91 -7.03551 -4.13168 0
M  V30 9967 P 1608.87 -7.20834 -5.23717 0
M  V30 9968 O 1609.09 -7.80006 -6.57415 0
M  V30 9969 O 1609.66 -7.79416 -4.13051 0
M  V30 9970 O 1609.12 -5.63315 -5.29344 0
M  V30 9971 C 1608.18 -4.80318 -6.01954 0
M  V30 9972 C 1608.91 -3.64202 -6.65911 0
M  V30 9973 O 1609.12 -2.60736 -5.64823 0
M  V30 9974 C 1610.31 -3.93521 -7.19518 0
M  V30 9975 O 1610.7 -3.02071 -8.21205 0
M  V30 9976 C 1611.19 -3.73047 -5.97036 0
M  V30 9977 C 1610.48 -2.58828 -5.25741 0
M  V30 9978 N 1610.53 -2.68068 -3.77503 0
M  V30 9979 C 1610.45 -3.80474 -2.99159 0
M  V30 9980 N 1610.52 -3.55622 -1.71925 0
M  V30 9981 C 1610.67 -2.1832 -1.65733 0
M  V30 9982 C 1610.8 -1.28842 -0.572777 0
M  V30 9983 N 1610.81 -1.66875 0.70098 0
M  V30 9984 N 1610.92 0.016788 -0.859836 0
M  V30 9985 C 1610.91 0.398145 -2.13316 0
M  V30 9986 N 1610.79 -0.328224 -3.22333 0
M  V30 9987 C 1610.67 -1.62992 -2.90383 0
M  V30 9988 H 1607.69 -5.40394 -6.8003 0
M  V30 9989 H 1607.42 -4.41741 -5.32532 0
M  V30 9990 H 1608.29 -3.26371 -7.47889 0
M  V30 9991 H 1610.94 -1.64007 -5.56746 0
M  V30 9992 H 1611.22 -4.63439 -5.3432 0
M  V30 9993 H 1612.21 -3.44776 -6.25925 0
M  V30 9994 H 1610.38 -4.96707 -7.57347 0
M  V30 9995 H 1610.34 -4.8089 -3.39924 0
M  V30 9996 H 1610.72 -2.66547 0.941919 0
M  V30 9997 H 1610.91 -0.965341 1.44766 0
M  V30 9998 H 1611.02 1.46427 -2.29697 0
M  V30 9999 P 1612.25 -2.75334 -8.47391 0
M  V30 10000 O 1612.47 -2.44571 -9.90142 0
M  V30 10001 O 1613.04 -3.87688 -7.92115 0
M  V30 10002 O 1612.5 -1.4459 -7.59357 0
M  V30 10003 C 1611.56 -0.347608 -7.69215 0
M  V30 10004 C 1612.29 0.96767 -7.52806 0
M  V30 10005 O 1612.5 1.21036 -6.1011 0
M  V30 10006 C 1613.69 1.04544 -8.13308 0
M  V30 10007 O 1614.08 2.38311 -8.41922 0
M  V30 10008 C 1614.57 0.491279 -7.02284 0
M  V30 10009 C 1613.86 0.996264 -5.77469 0
M  V30 10010 N 1613.91 0.0501916 -4.62973 0
M  V30 10011 H 1611.07 -0.374722 -8.67691 0
M  V30 10012 H 1610.8 -0.443485 -6.90277 0
M  V30 10013 H 1611.67 1.75537 -7.96793 0
M  V30 10014 P 1615.63 2.75334 -8.47391 0
M  V30 10015 O 1615.85 3.84128 -9.44797 0
M  V30 10016 O 1616.42 1.51947 -8.68712 0
M  V30 10017 O 1615.88 3.29363 -6.99321 0
M  V30 10018 C 1614.94 4.24011 -6.4274 0
M  V30 10019 C 1615.67 5.20775 -5.52155 0
M  V30 10020 O 1615.88 4.56534 -4.22446 0
M  V30 10021 C 1617.07 5.62629 -5.96531 0
M  V30 10022 O 1617.46 6.87667 -5.41053 0
M  V30 10023 C 1617.95 4.52537 -5.39283 0
M  V30 10024 C 1617.24 4.20027 -4.08623 0
M  V30 10025 N 1617.29 2.76189 -3.71603 0
M  V30 10026 H 1614.45 4.797 -7.24003 0
M  V30 10027 H 1614.18 3.69856 -5.84513 0
M  V30 10028 H 1615.05 6.10356 -5.41441 0
M  V30 10029 P 1619.01 7.20834 -5.23717 0
M  V30 10030 O 1619.23 8.66189 -5.38625 0
M  V30 10031 O 1619.8 6.33615 -6.1356 0
M  V30 10032 O 1619.26 6.7751 -3.72168 0
M  V30 10033 C 1618.32 7.20732 -2.70725 0
M  V30 10034 C 1619.05 7.45864 -1.40599 0
M  V30 10035 O 1619.26 6.17651 -0.734225 0
M  V30 10036 C 1620.45 8.05808 -1.51899 0
M  V30 10037 O 1620.84 8.74358 -0.335205 0
M  V30 10038 C 1621.33 6.83093 -1.70294 0
M  V30 10039 C 1620.62 5.79992 -0.836974 0
M  V30 10040 N 1620.67 4.41769 -1.38263 0
M  V30 10041 C 1620.82 3.38591 -0.481702 0
M  V30 10042 O 1620.91 3.56839 0.718452 0
M  V30 10043 N 1620.86 2.1206 -1.03569 0
M  V30 10044 C 1620.77 1.80696 -2.36966 0
M  V30 10045 O 1620.82 0.630473 -2.74862 0
M  V30 10046 C 1620.62 2.94845 -3.23898 0
M  V30 10047 C 1620.51 2.65253 -4.70362 0
M  V30 10048 C 1620.57 4.19803 -2.73435 0
M  V30 10049 H 1617.83 8.13644 -3.0377 0
M  V30 10050 H 1617.56 6.42695 -2.55448 0
M  V30 10051 H 1618.43 8.12039 -0.792769 0
M  V30 10052 H 1621.08 5.79978 0.160587 0
M  V30 10053 H 1621.36 6.51379 -2.75643 0
M  V30 10054 H 1622.35 7.01734 -1.34462 0
M  V30 10055 H 1620.52 8.73674 -2.38337 0
M  V30 10056 H 1620.45 5.04492 -3.4095 0
M  V30 10057 H 1621.48 2.83924 -5.1913 0
M  V30 10058 H 1619.74 3.29824 -5.15163 0
M  V30 10059 H 1620.23 1.59723 -4.84449 0
M  V30 10060 H 1620.97 1.35644 -0.399345 0
M  V30 10061 P 1622.39 8.91 -5.1695e-12 0
M  V30 10062 O 1622.61 10.1726 0.733694 0
M  V30 10063 O 1623.18 8.73148 -1.23936 0
M  V30 10064 O 1622.64 7.66872 0.971405 0
M  V30 10065 C 1621.7 7.42309 2.04641 0
M  V30 10066 C 1622.43 6.86059 3.24661 0
M  V30 10067 O 1622.64 5.42847 3.03646 0
M  V30 10068 C 1623.83 7.41196 3.50753 0
M  V30 10069 O 1624.22 7.27073 4.86816 0
M  V30 10070 C 1624.71 6.5273 2.63741 0
M  V30 10071 C 1624 5.1842 2.73198 0
M  V30 10072 N 1624.05 4.38762 1.4784 0
M  V30 10073 H 1621.21 8.36803 2.32493 0
M  V30 10074 H 1620.94 6.70197 1.71129 0
M  V30 10075 H 1621.81 7.03551 4.13168 0
M  V30 10076 P 1625.77 7.20834 5.23717 0
M  V30 10077 O 1625.99 7.79853 6.57286 0
M  V30 10078 O 1626.56 7.79239 4.12957 0
M  V30 10079 O 1626.02 5.63315 5.29344 0
M  V30 10080 C 1625.08 4.80255 6.01876 0
M  V30 10081 C 1625.81 3.64202 6.65911 0
M  V30 10082 O 1626.02 2.60694 5.64732 0
M  V30 10083 C 1627.21 3.93473 7.1943 0
M  V30 10084 O 1627.6 3.02071 8.21205 0
M  V30 10085 C 1628.09 3.73047 5.97036 0
M  V30 10086 C 1627.38 2.58828 5.25741 0
M  V30 10087 N 1627.43 2.68068 3.77503 0
M  V30 10088 H 1624.59 5.40332 6.79951 0
M  V30 10089 H 1624.32 4.41613 5.32378 0
M  V30 10090 H 1625.19 3.26331 7.47797 0
M  V30 10091 P 1629.15 2.75334 8.47391 0
M  V30 10092 O 1629.37 2.44595 9.90239 0
M  V30 10093 O 1629.94 3.87732 7.92204 0
M  V30 10094 O 1629.4 1.4459 7.59357 0
M  V30 10095 C 1628.46 0.347563 7.69115 0
M  V30 10096 C 1629.19 -0.96767 7.52806 0
M  V30 10097 O 1629.4 -1.21036 6.1011 0
M  V30 10098 C 1630.59 -1.04544 8.13308 0
M  V30 10099 O 1630.98 -2.38311 8.41922 0
M  V30 10100 C 1631.47 -0.491279 7.02284 0
M  V30 10101 C 1630.76 -0.996264 5.77469 0
M  V30 10102 N 1630.81 -0.0501808 4.62873 0
M  V30 10103 C 1630.96 -0.588177 3.36904 0
M  V30 10104 O 1631.05 -1.78598 3.17173 0
M  V30 10105 N 1631 0.329694 2.33686 0
M  V30 10106 C 1630.91 1.6953 2.45079 0
M  V30 10107 C 1630.76 2.16933 3.80505 0
M  V30 10108 C 1630.71 1.30326 4.83752 0
M  V30 10109 H 1627.97 0.374722 8.67691 0
M  V30 10110 H 1627.7 0.443421 6.90177 0
M  V30 10111 H 1628.57 -1.75537 7.96793 0
M  V30 10112 H 1631.22 -1.94496 5.46629 0
M  V30 10113 H 1631.5 0.608651 7.04676 0
M  V30 10114 H 1632.49 -0.889672 7.08939 0
M  V30 10115 H 1630.66 -0.43308 9.04564 0
M  V30 10116 H 1630.59 1.68366 5.8516 0
M  V30 10117 P 1632.53 -2.75334 8.47391 0
M  V30 10118 O 1632.75 -3.84128 9.44797 0
M  V30 10119 O 1633.32 -1.51947 8.68712 0
M  V30 10120 O 1632.78 -3.29363 6.99321 0
M  V30 10121 C 1631.84 -4.24011 6.4274 0
M  V30 10122 C 1632.57 -5.20775 5.52155 0
M  V30 10123 O 1632.78 -4.56534 4.22446 0
M  V30 10124 C 1633.97 -5.62629 5.96531 0
M  V30 10125 O 1634.36 -6.87667 5.41053 0
M  V30 10126 C 1634.85 -4.52537 5.39283 0
M  V30 10127 C 1634.14 -4.20027 4.08623 0
M  V30 10128 N 1634.19 -2.76189 3.71603 0
M  V30 10129 H 1631.35 -4.797 7.24003 0
M  V30 10130 H 1631.08 -3.69856 5.84513 0
M  V30 10131 H 1631.95 -6.10356 5.41441 0
M  V30 10132 P 1635.91 -7.20834 5.23717 0
M  V30 10133 O 1636.13 -8.66104 5.38572 0
M  V30 10134 O 1636.7 -6.33544 6.1349 0
M  V30 10135 O 1636.16 -6.7751 3.72168 0
M  V30 10136 C 1635.22 -7.20825 2.7076 0
M  V30 10137 C 1635.95 -7.45864 1.40599 0
M  V30 10138 O 1636.16 -6.17651 0.734225 0
M  V30 10139 C 1637.35 -8.05808 1.51899 0
M  V30 10140 O 1637.74 -8.74358 0.335205 0
M  V30 10141 C 1638.23 -6.83093 1.70294 0
M  V30 10142 C 1637.52 -5.79992 0.836974 0
M  V30 10143 N 1637.57 -4.41864 1.38293 0
M  V30 10144 H 1634.73 -8.13644 3.0377 0
M  V30 10145 H 1634.46 -6.42788 2.55485 0
M  V30 10146 H 1635.33 -8.12039 0.792769 0
M  V30 10147 P 1639.29 -8.91 6.2785e-12 0
M  V30 10148 O 1639.51 -10.1726 -0.733694 0
M  V30 10149 O 1640.08 -8.73148 1.23936 0
M  V30 10150 O 1639.54 -7.66872 -0.971405 0
M  V30 10151 C 1638.6 -7.42309 -2.04641 0
M  V30 10152 C 1639.33 -6.86059 -3.24661 0
M  V30 10153 O 1639.54 -5.42847 -3.03646 0
M  V30 10154 C 1640.73 -7.41196 -3.50753 0
M  V30 10155 O 1641.12 -7.27073 -4.86816 0
M  V30 10156 C 1641.61 -6.5273 -2.63741 0
M  V30 10157 C 1640.9 -5.1842 -2.73198 0
M  V30 10158 N 1640.95 -4.38762 -1.4784 0
M  V30 10159 H 1638.11 -8.36803 -2.32493 0
M  V30 10160 H 1637.84 -6.70197 -1.71129 0
M  V30 10161 H 1638.71 -7.03551 -4.13168 0
M  V30 10162 P 1642.67 -7.20834 -5.23717 0
M  V30 10163 O 1642.89 -7.79853 -6.57286 0
M  V30 10164 O 1643.46 -7.79239 -4.12957 0
M  V30 10165 O 1642.92 -5.63315 -5.29344 0
M  V30 10166 C 1641.98 -4.80255 -6.01876 0
M  V30 10167 C 1642.71 -3.64202 -6.65911 0
M  V30 10168 O 1642.92 -2.60694 -5.64732 0
M  V30 10169 C 1644.11 -3.93473 -7.1943 0
M  V30 10170 O 1644.5 -3.02071 -8.21205 0
M  V30 10171 C 1644.99 -3.73047 -5.97036 0
M  V30 10172 C 1644.28 -2.58828 -5.25741 0
M  V30 10173 N 1644.33 -2.68068 -3.77503 0
M  V30 10174 H 1641.49 -5.40332 -6.79951 0
M  V30 10175 H 1641.22 -4.41613 -5.32378 0
M  V30 10176 H 1642.09 -3.26331 -7.47797 0
M  V30 10177 P 1646.05 -2.75334 -8.47391 0
M  V30 10178 O 1646.27 -2.44571 -9.90142 0
M  V30 10179 O 1646.84 -3.87688 -7.92115 0
M  V30 10180 O 1646.3 -1.4459 -7.59357 0
M  V30 10181 C 1645.36 -0.347608 -7.69215 0
M  V30 10182 C 1646.09 0.96767 -7.52806 0
M  V30 10183 O 1646.3 1.21036 -6.1011 0
M  V30 10184 C 1647.49 1.04544 -8.13308 0
M  V30 10185 O 1647.88 2.38311 -8.41922 0
M  V30 10186 C 1648.37 0.491279 -7.02284 0
M  V30 10187 C 1647.66 0.996264 -5.77469 0
M  V30 10188 N 1647.71 0.0501916 -4.62973 0
M  V30 10189 H 1644.87 -0.374722 -8.67691 0
M  V30 10190 H 1644.6 -0.443485 -6.90277 0
M  V30 10191 H 1645.47 1.75537 -7.96793 0
M  V30 10192 P 1649.43 2.75334 -8.47391 0
M  V30 10193 O 1649.65 3.84128 -9.44797 0
M  V30 10194 O 1650.22 1.51947 -8.68712 0
M  V30 10195 O 1649.68 3.29363 -6.99321 0
M  V30 10196 C 1648.74 4.24011 -6.4274 0
M  V30 10197 C 1649.47 5.20775 -5.52155 0
M  V30 10198 O 1649.68 4.56534 -4.22446 0
M  V30 10199 C 1650.87 5.62629 -5.96531 0
M  V30 10200 O 1651.26 6.87667 -5.41053 0
M  V30 10201 C 1651.75 4.52537 -5.39283 0
M  V30 10202 C 1651.04 4.20027 -4.08623 0
M  V30 10203 N 1651.09 2.76189 -3.71603 0
M  V30 10204 C 1651.01 1.64862 -4.52822 0
M  V30 10205 N 1651.09 0.512671 -3.88633 0
M  V30 10206 C 1651.23 0.888083 -2.54977 0
M  V30 10207 C 1651.36 0.094668 -1.38677 0
M  V30 10208 O 1651.38 -1.13053 -1.28163 0
M  V30 10209 N 1651.48 0.890102 -0.232633 0
M  V30 10210 C 1651.48 2.26958 -0.21772 0
M  V30 10211 N 1651.61 2.84626 0.97925 0
M  V30 10212 N 1651.35 3.0178 -1.31033 0
M  V30 10213 C 1651.23 2.26781 -2.43843 0
M  V30 10214 H 1648.25 4.797 -7.24003 0
M  V30 10215 H 1647.98 3.69856 -5.84513 0
M  V30 10216 H 1648.85 6.10356 -5.41441 0
M  V30 10217 H 1651.5 4.79061 -3.27488 0
M  V30 10218 H 1651.78 3.64906 -6.05785 0
M  V30 10219 H 1652.77 4.8868 -5.2125 0
M  V30 10220 H 1650.94 5.66726 -7.06352 0
M  V30 10221 H 1650.89 1.71169 -5.60966 0
M  V30 10222 H 1651.57 0.419134 0.644739 0
M  V30 10223 H 1651.61 3.87332 1.06098 0
M  V30 10224 H 1651.71 2.26417 1.82483 0
M  V30 10225 P 1652.81 7.20834 -5.23717 0
M  V30 10226 O 1653.03 8.66189 -5.38625 0
M  V30 10227 O 1653.6 6.33615 -6.1356 0
M  V30 10228 O 1653.06 6.7751 -3.72168 0
M  V30 10229 C 1652.12 7.20732 -2.70725 0
M  V30 10230 C 1652.85 7.45864 -1.40599 0
M  V30 10231 O 1653.06 6.17651 -0.734225 0
M  V30 10232 C 1654.25 8.05808 -1.51899 0
M  V30 10233 O 1654.64 8.74358 -0.335205 0
M  V30 10234 C 1655.13 6.83093 -1.70294 0
M  V30 10235 C 1654.42 5.79992 -0.836974 0
M  V30 10236 N 1654.47 4.41769 -1.38263 0
M  V30 10237 C 1654.62 3.38591 -0.481702 0
M  V30 10238 O 1654.71 3.56839 0.718452 0
M  V30 10239 N 1654.66 2.1206 -1.03569 0
M  V30 10240 C 1654.57 1.80696 -2.36966 0
M  V30 10241 C 1654.42 2.94845 -3.23898 0
M  V30 10242 C 1654.37 4.19803 -2.73435 0
M  V30 10243 H 1651.63 8.13644 -3.0377 0
M  V30 10244 H 1651.36 6.42695 -2.55448 0
M  V30 10245 H 1652.23 8.12039 -0.792769 0
M  V30 10246 H 1654.88 5.79978 0.160587 0
M  V30 10247 H 1655.16 6.51379 -2.75643 0
M  V30 10248 H 1656.15 7.01734 -1.34462 0
M  V30 10249 H 1654.32 8.73674 -2.38337 0
M  V30 10250 H 1654.25 5.04492 -3.4095 0
M  V30 10251 P 1656.19 8.91 -7.38751e-12 0
M  V30 10252 O 1656.41 10.1726 0.733694 0
M  V30 10253 O 1656.98 8.73148 -1.23936 0
M  V30 10254 O 1656.44 7.66872 0.971405 0
M  V30 10255 C 1655.5 7.42309 2.04641 0
M  V30 10256 C 1656.23 6.86059 3.24661 0
M  V30 10257 O 1656.44 5.42847 3.03646 0
M  V30 10258 C 1657.63 7.41196 3.50753 0
M  V30 10259 O 1658.02 7.27073 4.86816 0
M  V30 10260 C 1658.51 6.5273 2.63741 0
M  V30 10261 C 1657.8 5.1842 2.73198 0
M  V30 10262 N 1657.85 4.38762 1.4784 0
M  V30 10263 C 1657.77 4.81605 0.168631 0
M  V30 10264 N 1657.85 3.85454 -0.713363 0
M  V30 10265 C 1657.99 2.6994 0.0566958 0
M  V30 10266 C 1658.12 1.34815 -0.338502 0
M  V30 10267 O 1658.14 0.869548 -1.47125 0
M  V30 10268 N 1658.24 0.496304 0.77465 0
M  V30 10269 C 1658.24 0.908403 2.09122 0
M  V30 10270 N 1658.37 -0.0517805 3.00955 0
M  V30 10271 N 1658.11 2.17875 2.46519 0
M  V30 10272 C 1657.99 3.01988 1.4033 0
M  V30 10273 H 1655.01 8.36803 2.32493 0
M  V30 10274 H 1654.74 6.70197 1.71129 0
M  V30 10275 H 1655.61 7.03551 4.13168 0
M  V30 10276 H 1658.26 4.59498 3.54415 0
M  V30 10277 H 1658.54 6.88898 1.59848 0
M  V30 10278 H 1659.53 6.46749 3.03687 0
M  V30 10279 H 1657.7 8.46908 3.20714 0
M  V30 10280 H 1657.65 5.86405 -0.105564 0
M  V30 10281 H 1658.33 -0.483664 0.597855 0
M  V30 10282 H 1658.37 0.187865 4.0116 0
M  V30 10283 H 1658.47 -1.03585 2.71726 0
M  V30 10284 P 1659.57 7.20834 5.23717 0
M  V30 10285 O 1659.79 7.79853 6.57286 0
M  V30 10286 O 1660.36 7.79239 4.12957 0
M  V30 10287 O 1659.82 5.63315 5.29344 0
M  V30 10288 C 1658.88 4.80255 6.01876 0
M  V30 10289 C 1659.61 3.64202 6.65911 0
M  V30 10290 O 1659.82 2.60694 5.64732 0
M  V30 10291 C 1661.01 3.93473 7.1943 0
M  V30 10292 O 1661.4 3.02071 8.21205 0
M  V30 10293 C 1661.89 3.73047 5.97036 0
M  V30 10294 C 1661.18 2.58828 5.25741 0
M  V30 10295 N 1661.23 2.68068 3.77503 0
M  V30 10296 C 1661.15 3.79715 2.96723 0
M  V30 10297 N 1661.23 3.5377 1.68852 0
M  V30 10298 C 1661.37 2.15054 1.63254 0
M  V30 10299 C 1661.5 1.28964 0.518571 0
M  V30 10300 N 1661.62 -0.0538097 0.918425 0
M  V30 10301 C 1661.62 -0.494275 2.22578 0
M  V30 10302 N 1661.75 -1.81086 2.40434 0
M  V30 10303 N 1661.49 0.313645 3.27502 0
M  V30 10304 C 1661.37 1.61829 2.91033 0
M  V30 10305 H 1658.39 5.40332 6.79951 0
M  V30 10306 H 1658.12 4.41613 5.32378 0
M  V30 10307 H 1658.99 3.26331 7.47797 0
M  V30 10308 P 1662.95 2.75334 8.47391 0
M  V30 10309 O 1663.17 2.44619 9.90336 0
M  V30 10310 O 1663.74 3.87776 7.92294 0
M  V30 10311 O 1663.2 1.4459 7.59357 0
M  V30 10312 C 1662.26 0.347653 7.69315 0
M  V30 10313 C 1662.99 -0.96767 7.52806 0
M  V30 10314 O 1663.2 -1.21055 6.10208 0
M  V30 10315 C 1664.39 -1.04557 8.13408 0
M  V30 10316 O 1664.78 -2.38311 8.41922 0
M  V30 10317 C 1665.27 -0.491279 7.02284 0
M  V30 10318 C 1664.56 -0.996264 5.77469 0
M  V30 10319 N 1664.61 -0.0501916 4.62973 0
M  V30 10320 H 1661.77 0.374765 8.67791 0
M  V30 10321 H 1661.5 0.443613 6.90476 0
M  V30 10322 H 1662.37 -1.75559 7.96891 0
M  V30 10323 H 1665.02 -1.94563 5.46818 0
M  V30 10324 H 1665.3 0.608651 7.04676 0
M  V30 10325 H 1666.29 -0.889796 7.09039 0
M  V30 10326 H 1664.46 -0.433128 9.04664 0
M  V30 10327 P 1666.33 -2.75334 8.47391 0
M  V30 10328 O 1666.55 -3.84128 9.44797 0
M  V30 10329 O 1667.12 -1.51947 8.68712 0
M  V30 10330 O 1666.58 -3.29363 6.99321 0
M  V30 10331 C 1665.64 -4.24011 6.4274 0
M  V30 10332 C 1666.37 -5.20775 5.52155 0
M  V30 10333 O 1666.58 -4.56534 4.22446 0
M  V30 10334 C 1667.77 -5.62629 5.96531 0
M  V30 10335 O 1668.16 -6.87667 5.41053 0
M  V30 10336 C 1668.65 -4.52537 5.39283 0
M  V30 10337 C 1667.94 -4.20027 4.08623 0
M  V30 10338 N 1667.99 -2.76189 3.71603 0
M  V30 10339 H 1665.15 -4.797 7.24003 0
M  V30 10340 H 1664.88 -3.69856 5.84513 0
M  V30 10341 H 1665.75 -6.10356 5.41441 0
M  V30 10342 P 1669.71 -7.20834 5.23717 0
M  V30 10343 O 1669.93 -8.66104 5.38572 0
M  V30 10344 O 1670.5 -6.33544 6.1349 0
M  V30 10345 O 1669.96 -6.7751 3.72168 0
M  V30 10346 C 1669.02 -7.20825 2.7076 0
M  V30 10347 C 1669.75 -7.45864 1.40599 0
M  V30 10348 O 1669.96 -6.17651 0.734225 0
M  V30 10349 C 1671.15 -8.05808 1.51899 0
M  V30 10350 O 1671.54 -8.74358 0.335205 0
M  V30 10351 C 1672.03 -6.83093 1.70294 0
M  V30 10352 C 1671.32 -5.79992 0.836974 0
M  V30 10353 N 1671.37 -4.41864 1.38293 0
M  V30 10354 C 1671.29 -3.99538 2.69438 0
M  V30 10355 N 1671.37 -2.69909 2.84277 0
M  V30 10356 C 1671.51 -2.21719 1.5408 0
M  V30 10357 C 1671.64 -0.891712 1.06628 0
M  V30 10358 O 1671.66 0.161298 1.70137 0
M  V30 10359 N 1671.76 -0.856846 -0.334985 0
M  V30 10360 C 1671.76 -1.9641 -1.15789 0
M  V30 10361 N 1671.89 -1.72708 -2.46522 0
M  V30 10362 N 1671.63 -3.21165 -0.713741 0
M  V30 10363 C 1671.51 -3.26797 0.639748 0
M  V30 10364 H 1668.53 -8.13644 3.0377 0
M  V30 10365 H 1668.26 -6.42788 2.55485 0
M  V30 10366 H 1669.13 -8.12039 0.792769 0
M  V30 10367 H 1671.78 -5.80061 -0.166416 0
M  V30 10368 H 1672.06 -6.51287 2.75604 0
M  V30 10369 H 1673.05 -7.01734 1.34462 0
M  V30 10370 H 1671.22 -8.73674 2.38337 0
M  V30 10371 H 1671.17 -4.68207 3.53221 0
M  V30 10372 H 1671.85 0.0398818 -0.767965 0
M  V30 10373 H 1671.89 -2.50995 -3.13503 0
M  V30 10374 H 1671.99 -0.759148 -2.80716 0
M  V30 10375 P 1673.09 -8.91 8.49651e-12 0
M  V30 10376 O 1673.31 -10.1726 -0.733694 0
M  V30 10377 O 1673.88 -8.73148 1.23936 0
M  V30 10378 O 1673.34 -7.66872 -0.971405 0
M  V30 10379 C 1672.4 -7.42309 -2.04641 0
M  V30 10380 C 1673.13 -6.86059 -3.24661 0
M  V30 10381 O 1673.34 -5.42847 -3.03646 0
M  V30 10382 C 1674.53 -7.41196 -3.50753 0
M  V30 10383 O 1674.92 -7.27073 -4.86816 0
M  V30 10384 C 1675.41 -6.5273 -2.63741 0
M  V30 10385 C 1674.7 -5.1842 -2.73198 0
M  V30 10386 N 1674.75 -4.38762 -1.4784 0
M  V30 10387 C 1674.67 -4.81605 -0.168631 0
M  V30 10388 N 1674.75 -3.85454 0.713363 0
M  V30 10389 C 1674.89 -2.6994 -0.0566958 0
M  V30 10390 C 1675.02 -1.34815 0.338502 0
M  V30 10391 N 1675.14 -0.496304 -0.77465 0
M  V30 10392 C 1675.14 -0.908403 -2.09122 0
M  V30 10393 N 1675.27 0.0517805 -3.00955 0
M  V30 10394 N 1675.01 -2.17875 -2.46519 0
M  V30 10395 C 1674.89 -3.01988 -1.4033 0
M  V30 10396 H 1671.91 -8.36803 -2.32493 0
M  V30 10397 H 1671.64 -6.70197 -1.71129 0
M  V30 10398 H 1672.51 -7.03551 -4.13168 0
M  V30 10399 P 1676.47 -7.20834 -5.23717 0
M  V30 10400 O 1676.69 -7.79853 -6.57286 0
M  V30 10401 O 1677.26 -7.79239 -4.12957 0
M  V30 10402 O 1676.72 -5.63315 -5.29344 0
M  V30 10403 C 1675.78 -4.80255 -6.01876 0
M  V30 10404 C 1676.51 -3.64202 -6.65911 0
M  V30 10405 O 1676.72 -2.60694 -5.64732 0
M  V30 10406 C 1677.91 -3.93473 -7.1943 0
M  V30 10407 O 1678.3 -3.02071 -8.21205 0
M  V30 10408 C 1678.79 -3.73047 -5.97036 0
M  V30 10409 C 1678.08 -2.58828 -5.25741 0
M  V30 10410 N 1678.13 -2.68068 -3.77503 0
M  V30 10411 C 1678.05 -3.79715 -2.96723 0
M  V30 10412 N 1678.13 -3.5377 -1.68852 0
M  V30 10413 C 1678.27 -2.15054 -1.63254 0
M  V30 10414 C 1678.4 -1.28964 -0.518571 0
M  V30 10415 O 1678.42 -1.56826 0.679156 0
M  V30 10416 N 1678.52 0.0538097 -0.918425 0
M  V30 10417 C 1678.52 0.494275 -2.22578 0
M  V30 10418 N 1678.65 1.81086 -2.40434 0
M  V30 10419 N 1678.39 -0.313645 -3.27502 0
M  V30 10420 C 1678.27 -1.61829 -2.91033 0
M  V30 10421 H 1675.29 -5.40332 -6.79951 0
M  V30 10422 H 1675.02 -4.41613 -5.32378 0
M  V30 10423 H 1675.89 -3.26331 -7.47797 0
M  V30 10424 H 1678.54 -1.63422 -5.56814 0
M  V30 10425 H 1678.82 -4.63374 -5.34244 0
M  V30 10426 H 1679.81 -3.44728 -6.25838 0
M  V30 10427 H 1677.98 -4.96652 -7.57263 0
M  V30 10428 H 1677.93 -4.80617 -3.3614 0
M  V30 10429 H 1678.61 0.742702 -0.199384 0
M  V30 10430 H 1678.65 2.20598 -3.35588 0
M  V30 10431 H 1678.75 2.43518 -1.58945 0
M  V30 10432 P 1679.85 -2.75334 -8.47391 0
M  V30 10433 O 1680.07 -2.44571 -9.90142 0
M  V30 10434 O 1680.64 -3.87688 -7.92115 0
M  V30 10435 O 1680.1 -1.4459 -7.59357 0
M  V30 10436 C 1679.16 -0.347608 -7.69215 0
M  V30 10437 C 1679.89 0.96767 -7.52806 0
M  V30 10438 O 1680.1 1.21036 -6.1011 0
M  V30 10439 C 1681.29 1.04544 -8.13308 0
M  V30 10440 O 1681.68 2.38311 -8.41922 0
M  V30 10441 C 1682.17 0.491279 -7.02284 0
M  V30 10442 C 1681.46 0.996264 -5.77469 0
M  V30 10443 N 1681.51 0.0501916 -4.62973 0
M  V30 10444 H 1678.67 -0.374722 -8.67691 0
M  V30 10445 H 1678.4 -0.443485 -6.90277 0
M  V30 10446 H 1679.27 1.75537 -7.96793 0
M  V30 10447 P 1683.23 2.75334 -8.47391 0
M  V30 10448 O 1683.45 3.84128 -9.44797 0
M  V30 10449 O 1684.02 1.51947 -8.68712 0
M  V30 10450 O 1683.48 3.29363 -6.99321 0
M  V30 10451 C 1682.54 4.24011 -6.4274 0
M  V30 10452 C 1683.27 5.20775 -5.52155 0
M  V30 10453 O 1683.48 4.56534 -4.22446 0
M  V30 10454 C 1684.67 5.62629 -5.96531 0
M  V30 10455 O 1685.06 6.87667 -5.41053 0
M  V30 10456 C 1685.55 4.52537 -5.39283 0
M  V30 10457 C 1684.84 4.20027 -4.08623 0
M  V30 10458 N 1684.89 2.76189 -3.71603 0
M  V30 10459 H 1682.05 4.797 -7.24003 0
M  V30 10460 H 1681.78 3.69856 -5.84513 0
M  V30 10461 H 1682.65 6.10356 -5.41441 0
M  V30 10462 P 1686.61 7.20834 -5.23717 0
M  V30 10463 O 1686.83 8.66104 -5.38572 0
M  V30 10464 O 1687.4 6.33544 -6.1349 0
M  V30 10465 O 1686.86 6.7751 -3.72168 0
M  V30 10466 C 1685.92 7.20825 -2.7076 0
M  V30 10467 C 1686.65 7.45864 -1.40599 0
M  V30 10468 O 1686.86 6.17651 -0.734225 0
M  V30 10469 C 1688.05 8.05808 -1.51899 0
M  V30 10470 O 1688.44 8.74358 -0.335205 0
M  V30 10471 C 1688.93 6.83093 -1.70294 0
M  V30 10472 C 1688.22 5.79992 -0.836974 0
M  V30 10473 N 1688.27 4.41864 -1.38293 0
M  V30 10474 C 1688.19 3.99538 -2.69438 0
M  V30 10475 N 1688.27 2.69909 -2.84277 0
M  V30 10476 C 1688.41 2.21719 -1.5408 0
M  V30 10477 C 1688.54 0.891712 -1.06628 0
M  V30 10478 N 1688.66 0.856846 0.334985 0
M  V30 10479 C 1688.66 1.9641 1.15789 0
M  V30 10480 N 1688.79 1.72708 2.46522 0
M  V30 10481 N 1688.53 3.21165 0.713741 0
M  V30 10482 C 1688.41 3.26797 -0.639748 0
M  V30 10483 H 1685.43 8.13644 -3.0377 0
M  V30 10484 H 1685.16 6.42788 -2.55485 0
M  V30 10485 H 1686.03 8.12039 -0.792769 0
M  V30 10486 P 1689.99 8.91 -9.60552e-12 0
M  V30 10487 O 1690.21 10.1726 0.733694 0
M  V30 10488 O 1690.78 8.73148 -1.23936 0
M  V30 10489 O 1690.24 7.66872 0.971405 0
M  V30 10490 C 1689.3 7.42309 2.04641 0
M  V30 10491 C 1690.03 6.86059 3.24661 0
M  V30 10492 O 1690.24 5.42847 3.03646 0
M  V30 10493 C 1691.43 7.41196 3.50753 0
M  V30 10494 O 1691.82 7.27073 4.86816 0
M  V30 10495 C 1692.31 6.5273 2.63741 0
M  V30 10496 C 1691.6 5.1842 2.73198 0
M  V30 10497 N 1691.65 4.38762 1.4784 0
M  V30 10498 H 1688.81 8.36803 2.32493 0
M  V30 10499 H 1688.54 6.70197 1.71129 0
M  V30 10500 H 1689.41 7.03551 4.13168 0
M  V30 10501 P 1693.37 7.20834 5.23717 0
M  V30 10502 O 1693.59 7.80006 6.57415 0
M  V30 10503 O 1694.16 7.79416 4.13051 0
M  V30 10504 O 1693.62 5.63315 5.29344 0
M  V30 10505 C 1692.68 4.80318 6.01954 0
M  V30 10506 C 1693.41 3.64202 6.65911 0
M  V30 10507 O 1693.62 2.60736 5.64823 0
M  V30 10508 C 1694.81 3.93521 7.19518 0
M  V30 10509 O 1695.2 3.02071 8.21205 0
M  V30 10510 C 1695.69 3.73047 5.97036 0
M  V30 10511 C 1694.98 2.58828 5.25741 0
M  V30 10512 N 1695.03 2.68068 3.77503 0
M  V30 10513 H 1692.19 5.40394 6.8003 0
M  V30 10514 H 1691.92 4.41741 5.32532 0
M  V30 10515 H 1692.79 3.26371 7.47889 0
M  V30 10516 H 1695.44 1.64007 5.56746 0
M  V30 10517 H 1695.72 4.63439 5.3432 0
M  V30 10518 H 1696.71 3.44776 6.25925 0
M  V30 10519 H 1694.88 4.96707 7.57347 0
M  V30 10520 P 1696.75 2.75334 8.47391 0
M  V30 10521 O 1696.97 2.44571 9.90142 0
M  V30 10522 O 1697.54 3.87688 7.92115 0
M  V30 10523 O 1697 1.4459 7.59357 0
M  V30 10524 C 1696.06 0.347608 7.69215 0
M  V30 10525 C 1696.79 -0.96767 7.52806 0
M  V30 10526 O 1697 -1.21036 6.1011 0
M  V30 10527 C 1698.19 -1.04544 8.13308 0
M  V30 10528 O 1698.58 -2.38311 8.41922 0
M  V30 10529 C 1699.07 -0.491279 7.02284 0
M  V30 10530 C 1698.36 -0.996264 5.77469 0
M  V30 10531 N 1698.41 -0.0501916 4.62973 0
M  V30 10532 H 1695.57 0.374722 8.67691 0
M  V30 10533 H 1695.3 0.443485 6.90277 0
M  V30 10534 H 1696.17 -1.75537 7.96793 0
M  V30 10535 P 1700.13 -2.75334 8.47391 0
M  V30 10536 O 1700.35 -3.84128 9.44797 0
M  V30 10537 O 1700.92 -1.51947 8.68712 0
M  V30 10538 O 1700.38 -3.29363 6.99321 0
M  V30 10539 C 1699.44 -4.24011 6.4274 0
M  V30 10540 C 1700.17 -5.20775 5.52155 0
M  V30 10541 O 1700.38 -4.56534 4.22446 0
M  V30 10542 C 1701.57 -5.62629 5.96531 0
M  V30 10543 O 1701.96 -6.87667 5.41053 0
M  V30 10544 C 1702.45 -4.52537 5.39283 0
M  V30 10545 C 1701.74 -4.20027 4.08623 0
M  V30 10546 N 1701.79 -2.76189 3.71603 0
M  V30 10547 H 1698.95 -4.797 7.24003 0
M  V30 10548 H 1698.68 -3.69856 5.84513 0
M  V30 10549 H 1699.55 -6.10356 5.41441 0
M  V30 10550 P 1703.51 -7.20834 5.23717 0
M  V30 10551 O 1703.73 -8.66104 5.38572 0
M  V30 10552 O 1704.3 -6.33544 6.1349 0
M  V30 10553 O 1703.76 -6.7751 3.72168 0
M  V30 10554 C 1702.82 -7.20825 2.7076 0
M  V30 10555 C 1703.55 -7.45864 1.40599 0
M  V30 10556 O 1703.76 -6.17651 0.734225 0
M  V30 10557 C 1704.95 -8.05808 1.51899 0
M  V30 10558 O 1705.34 -8.74358 0.335205 0
M  V30 10559 C 1705.83 -6.83093 1.70294 0
M  V30 10560 C 1705.12 -5.79992 0.836974 0
M  V30 10561 N 1705.17 -4.41864 1.38293 0
M  V30 10562 C 1705.09 -3.99538 2.69438 0
M  V30 10563 N 1705.17 -2.69909 2.84277 0
M  V30 10564 C 1705.31 -2.21719 1.5408 0
M  V30 10565 C 1705.44 -0.891712 1.06628 0
M  V30 10566 O 1705.46 0.161298 1.70137 0
M  V30 10567 N 1705.56 -0.856846 -0.334985 0
M  V30 10568 C 1705.56 -1.9641 -1.15789 0
M  V30 10569 N 1705.69 -1.72708 -2.46522 0
M  V30 10570 N 1705.43 -3.21165 -0.713741 0
M  V30 10571 C 1705.31 -3.26797 0.639748 0
M  V30 10572 H 1702.33 -8.13644 3.0377 0
M  V30 10573 H 1702.06 -6.42788 2.55485 0
M  V30 10574 H 1702.93 -8.12039 0.792769 0
M  V30 10575 H 1705.58 -5.80061 -0.166416 0
M  V30 10576 H 1705.86 -6.51287 2.75604 0
M  V30 10577 H 1706.85 -7.01734 1.34462 0
M  V30 10578 H 1705.02 -8.73674 2.38337 0
M  V30 10579 H 1704.97 -4.68207 3.53221 0
M  V30 10580 H 1705.65 0.0398818 -0.767965 0
M  V30 10581 H 1705.69 -2.50995 -3.13503 0
M  V30 10582 H 1705.79 -0.759148 -2.80716 0
M  V30 10583 P 1706.89 -8.91 1.07145e-11 0
M  V30 10584 O 1707.11 -10.1726 -0.733694 0
M  V30 10585 O 1707.68 -8.73148 1.23936 0
M  V30 10586 O 1707.14 -7.66872 -0.971405 0
M  V30 10587 C 1706.2 -7.42309 -2.04641 0
M  V30 10588 C 1706.93 -6.86059 -3.24661 0
M  V30 10589 O 1707.14 -5.42847 -3.03646 0
M  V30 10590 C 1708.33 -7.41196 -3.50753 0
M  V30 10591 O 1708.72 -7.27073 -4.86816 0
M  V30 10592 C 1709.21 -6.5273 -2.63741 0
M  V30 10593 C 1708.5 -5.1842 -2.73198 0
M  V30 10594 N 1708.55 -4.38762 -1.4784 0
M  V30 10595 H 1705.71 -8.36803 -2.32493 0
M  V30 10596 H 1705.44 -6.70197 -1.71129 0
M  V30 10597 H 1706.31 -7.03551 -4.13168 0
M  V30 10598 P 1710.27 -7.20834 -5.23717 0
M  V30 10599 O 1710.49 -7.79853 -6.57286 0
M  V30 10600 O 1711.06 -7.79239 -4.12957 0
M  V30 10601 O 1710.52 -5.63315 -5.29344 0
M  V30 10602 C 1709.58 -4.80255 -6.01876 0
M  V30 10603 C 1710.31 -3.64202 -6.65911 0
M  V30 10604 O 1710.52 -2.60694 -5.64732 0
M  V30 10605 C 1711.71 -3.93473 -7.1943 0
M  V30 10606 O 1712.1 -3.02071 -8.21205 0
M  V30 10607 C 1712.59 -3.73047 -5.97036 0
M  V30 10608 C 1711.88 -2.58828 -5.25741 0
M  V30 10609 N 1711.93 -2.68068 -3.77503 0
M  V30 10610 H 1709.09 -5.40332 -6.79951 0
M  V30 10611 H 1708.82 -4.41613 -5.32378 0
M  V30 10612 H 1709.69 -3.26331 -7.47797 0
M  V30 10613 P 1713.65 -2.75334 -8.47391 0
M  V30 10614 O 1713.87 -2.44619 -9.90336 0
M  V30 10615 O 1714.44 -3.87776 -7.92294 0
M  V30 10616 O 1713.9 -1.4459 -7.59357 0
M  V30 10617 C 1712.96 -0.347653 -7.69315 0
M  V30 10618 C 1713.69 0.96767 -7.52806 0
M  V30 10619 O 1713.9 1.21055 -6.10208 0
M  V30 10620 C 1715.09 1.04557 -8.13408 0
M  V30 10621 O 1715.48 2.38311 -8.41922 0
M  V30 10622 C 1715.97 0.491279 -7.02284 0
M  V30 10623 C 1715.26 0.996264 -5.77469 0
M  V30 10624 N 1715.31 0.0501916 -4.62973 0
M  V30 10625 H 1712.47 -0.374765 -8.67791 0
M  V30 10626 H 1712.2 -0.443613 -6.90476 0
M  V30 10627 H 1713.07 1.75559 -7.96891 0
M  V30 10628 H 1715.72 1.94563 -5.46818 0
M  V30 10629 H 1716 -0.608651 -7.04676 0
M  V30 10630 H 1716.99 0.889796 -7.09039 0
M  V30 10631 H 1715.16 0.433128 -9.04664 0
M  V30 10632 P 1717.03 2.75334 -8.47391 0
M  V30 10633 O 1717.25 3.84128 -9.44797 0
M  V30 10634 O 1717.82 1.51947 -8.68712 0
M  V30 10635 O 1717.28 3.29363 -6.99321 0
M  V30 10636 C 1716.34 4.24011 -6.4274 0
M  V30 10637 C 1717.07 5.20775 -5.52155 0
M  V30 10638 O 1717.28 4.56534 -4.22446 0
M  V30 10639 C 1718.47 5.62629 -5.96531 0
M  V30 10640 O 1718.86 6.87667 -5.41053 0
M  V30 10641 C 1719.35 4.52537 -5.39283 0
M  V30 10642 C 1718.64 4.20027 -4.08623 0
M  V30 10643 N 1718.69 2.76189 -3.71603 0
M  V30 10644 H 1715.85 4.797 -7.24003 0
M  V30 10645 H 1715.58 3.69856 -5.84513 0
M  V30 10646 H 1716.45 6.10356 -5.41441 0
M  V30 10647 P 1720.41 7.20834 -5.23717 0
M  V30 10648 O 1720.63 8.66104 -5.38572 0
M  V30 10649 O 1721.2 6.33544 -6.1349 0
M  V30 10650 O 1720.66 6.7751 -3.72168 0
M  V30 10651 C 1719.72 7.20825 -2.7076 0
M  V30 10652 C 1720.45 7.45864 -1.40599 0
M  V30 10653 O 1720.66 6.17651 -0.734225 0
M  V30 10654 C 1721.85 8.05808 -1.51899 0
M  V30 10655 O 1722.24 8.74358 -0.335205 0
M  V30 10656 C 1722.73 6.83093 -1.70294 0
M  V30 10657 C 1722.02 5.79992 -0.836974 0
M  V30 10658 N 1722.07 4.41864 -1.38293 0
M  V30 10659 H 1719.23 8.13644 -3.0377 0
M  V30 10660 H 1718.96 6.42788 -2.55485 0
M  V30 10661 H 1719.83 8.12039 -0.792769 0
M  V30 10662 P 1723.79 8.91 -1.18235e-11 0
M  V30 10663 O 1724.01 10.1726 0.733694 0
M  V30 10664 O 1724.58 8.73148 -1.23936 0
M  V30 10665 O 1724.04 7.66872 0.971405 0
M  V30 10666 C 1723.1 7.42309 2.04641 0
M  V30 10667 C 1723.83 6.86059 3.24661 0
M  V30 10668 O 1724.04 5.42847 3.03646 0
M  V30 10669 C 1725.23 7.41196 3.50753 0
M  V30 10670 O 1725.62 7.27073 4.86816 0
M  V30 10671 C 1726.11 6.5273 2.63741 0
M  V30 10672 C 1725.4 5.1842 2.73198 0
M  V30 10673 N 1725.45 4.38762 1.4784 0
M  V30 10674 H 1722.61 8.36803 2.32493 0
M  V30 10675 H 1722.34 6.70197 1.71129 0
M  V30 10676 H 1723.21 7.03551 4.13168 0
M  V30 10677 P 1727.17 7.20834 5.23717 0
M  V30 10678 O 1727.39 7.79853 6.57286 0
M  V30 10679 O 1727.96 7.79239 4.12957 0
M  V30 10680 O 1727.42 5.63315 5.29344 0
M  V30 10681 C 1726.48 4.80255 6.01876 0
M  V30 10682 C 1727.21 3.64202 6.65911 0
M  V30 10683 O 1727.42 2.60694 5.64732 0
M  V30 10684 C 1728.61 3.93473 7.1943 0
M  V30 10685 O 1729 3.02071 8.21205 0
M  V30 10686 C 1729.49 3.73047 5.97036 0
M  V30 10687 C 1728.78 2.58828 5.25741 0
M  V30 10688 N 1728.83 2.68068 3.77503 0
M  V30 10689 C 1728.75 3.79715 2.96723 0
M  V30 10690 N 1728.83 3.5377 1.68852 0
M  V30 10691 C 1728.97 2.15054 1.63254 0
M  V30 10692 C 1729.1 1.28964 0.518571 0
M  V30 10693 N 1729.22 -0.0538097 0.918425 0
M  V30 10694 C 1729.22 -0.494275 2.22578 0
M  V30 10695 N 1729.35 -1.81086 2.40434 0
M  V30 10696 N 1729.09 0.313645 3.27502 0
M  V30 10697 C 1728.97 1.61829 2.91033 0
M  V30 10698 H 1725.99 5.40332 6.79951 0
M  V30 10699 H 1725.72 4.41613 5.32378 0
M  V30 10700 H 1726.59 3.26331 7.47797 0
M  V30 10701 P 1730.55 2.75334 8.47391 0
M  V30 10702 O 1730.77 2.44571 9.90142 0
M  V30 10703 O 1731.34 3.87688 7.92115 0
M  V30 10704 O 1730.8 1.4459 7.59357 0
M  V30 10705 C 1729.86 0.347608 7.69215 0
M  V30 10706 C 1730.59 -0.96767 7.52806 0
M  V30 10707 O 1730.8 -1.21036 6.1011 0
M  V30 10708 C 1731.99 -1.04544 8.13308 0
M  V30 10709 O 1732.38 -2.38311 8.41922 0
M  V30 10710 C 1732.87 -0.491279 7.02284 0
M  V30 10711 C 1732.16 -0.996264 5.77469 0
M  V30 10712 N 1732.21 -0.0501916 4.62973 0
M  V30 10713 H 1729.37 0.374722 8.67691 0
M  V30 10714 H 1729.1 0.443485 6.90277 0
M  V30 10715 H 1729.97 -1.75537 7.96793 0
M  V30 10716 P 1733.93 -2.75334 8.47391 0
M  V30 10717 O 1734.15 -3.84128 9.44797 0
M  V30 10718 O 1734.72 -1.51947 8.68712 0
M  V30 10719 O 1734.18 -3.29363 6.99321 0
M  V30 10720 C 1733.24 -4.24011 6.4274 0
M  V30 10721 C 1733.97 -5.20775 5.52155 0
M  V30 10722 O 1734.18 -4.56534 4.22446 0
M  V30 10723 C 1735.37 -5.62629 5.96531 0
M  V30 10724 O 1735.76 -6.87667 5.41053 0
M  V30 10725 C 1736.25 -4.52537 5.39283 0
M  V30 10726 C 1735.54 -4.20027 4.08623 0
M  V30 10727 N 1735.59 -2.76189 3.71603 0
M  V30 10728 H 1732.75 -4.797 7.24003 0
M  V30 10729 H 1732.48 -3.69856 5.84513 0
M  V30 10730 H 1733.35 -6.10356 5.41441 0
M  V30 10731 P 1737.31 -7.20834 5.23717 0
M  V30 10732 O 1737.53 -8.66104 5.38572 0
M  V30 10733 O 1738.1 -6.33544 6.1349 0
M  V30 10734 O 1737.56 -6.7751 3.72168 0
M  V30 10735 C 1736.62 -7.20825 2.7076 0
M  V30 10736 C 1737.35 -7.45864 1.40599 0
M  V30 10737 O 1737.56 -6.17651 0.734225 0
M  V30 10738 C 1738.75 -8.05808 1.51899 0
M  V30 10739 O 1739.14 -8.74358 0.335205 0
M  V30 10740 C 1739.63 -6.83093 1.70294 0
M  V30 10741 C 1738.92 -5.79992 0.836974 0
M  V30 10742 N 1738.97 -4.41864 1.38293 0
M  V30 10743 H 1736.13 -8.13644 3.0377 0
M  V30 10744 H 1735.86 -6.42788 2.55485 0
M  V30 10745 H 1736.73 -8.12039 0.792769 0
M  V30 10746 P 1740.69 -8.91 1.29325e-11 0
M  V30 10747 O 1740.91 -10.1726 -0.733694 0
M  V30 10748 O 1741.48 -8.73148 1.23936 0
M  V30 10749 O 1740.94 -7.66872 -0.971405 0
M  V30 10750 C 1740 -7.42309 -2.04641 0
M  V30 10751 C 1740.73 -6.86059 -3.24661 0
M  V30 10752 O 1740.94 -5.42847 -3.03646 0
M  V30 10753 C 1742.13 -7.41196 -3.50753 0
M  V30 10754 O 1742.52 -7.27073 -4.86816 0
M  V30 10755 C 1743.01 -6.5273 -2.63741 0
M  V30 10756 C 1742.3 -5.1842 -2.73198 0
M  V30 10757 N 1742.35 -4.38762 -1.4784 0
M  V30 10758 H 1739.51 -8.36803 -2.32493 0
M  V30 10759 H 1739.24 -6.70197 -1.71129 0
M  V30 10760 H 1740.11 -7.03551 -4.13168 0
M  V30 10761 P 1744.07 -7.20834 -5.23717 0
M  V30 10762 O 1744.29 -7.79853 -6.57286 0
M  V30 10763 O 1744.86 -7.79239 -4.12957 0
M  V30 10764 O 1744.32 -5.63315 -5.29344 0
M  V30 10765 C 1743.38 -4.80255 -6.01876 0
M  V30 10766 C 1744.11 -3.64202 -6.65911 0
M  V30 10767 O 1744.32 -2.60694 -5.64732 0
M  V30 10768 C 1745.51 -3.93473 -7.1943 0
M  V30 10769 O 1745.9 -3.02071 -8.21205 0
M  V30 10770 C 1746.39 -3.73047 -5.97036 0
M  V30 10771 C 1745.68 -2.58828 -5.25741 0
M  V30 10772 N 1745.73 -2.68068 -3.77503 0
M  V30 10773 H 1742.89 -5.40332 -6.79951 0
M  V30 10774 H 1742.62 -4.41613 -5.32378 0
M  V30 10775 H 1743.49 -3.26331 -7.47797 0
M  V30 10776 P 1747.45 -2.75334 -8.47391 0
M  V30 10777 O 1747.67 -2.44571 -9.90142 0
M  V30 10778 O 1748.24 -3.87688 -7.92115 0
M  V30 10779 O 1747.7 -1.4459 -7.59357 0
M  V30 10780 C 1746.76 -0.347608 -7.69215 0
M  V30 10781 C 1747.49 0.96767 -7.52806 0
M  V30 10782 O 1747.7 1.21036 -6.1011 0
M  V30 10783 C 1748.89 1.04544 -8.13308 0
M  V30 10784 O 1749.28 2.38311 -8.41922 0
M  V30 10785 C 1749.77 0.491279 -7.02284 0
M  V30 10786 C 1749.06 0.996264 -5.77469 0
M  V30 10787 N 1749.11 0.0501916 -4.62973 0
M  V30 10788 H 1746.27 -0.374722 -8.67691 0
M  V30 10789 H 1746 -0.443485 -6.90277 0
M  V30 10790 H 1746.87 1.75537 -7.96793 0
M  V30 10791 P 1750.83 2.75334 -8.47391 0
M  V30 10792 O 1751.05 3.84128 -9.44797 0
M  V30 10793 O 1751.62 1.51947 -8.68712 0
M  V30 10794 O 1751.08 3.29363 -6.99321 0
M  V30 10795 C 1750.14 4.24011 -6.4274 0
M  V30 10796 C 1750.87 5.20775 -5.52155 0
M  V30 10797 O 1751.08 4.56534 -4.22446 0
M  V30 10798 C 1752.27 5.62629 -5.96531 0
M  V30 10799 O 1752.66 6.87667 -5.41053 0
M  V30 10800 C 1753.15 4.52537 -5.39283 0
M  V30 10801 C 1752.44 4.20027 -4.08623 0
M  V30 10802 N 1752.49 2.76189 -3.71603 0
M  V30 10803 C 1752.41 1.64862 -4.52822 0
M  V30 10804 N 1752.49 0.512671 -3.88633 0
M  V30 10805 C 1752.63 0.888083 -2.54977 0
M  V30 10806 C 1752.76 0.094668 -1.38677 0
M  V30 10807 O 1752.78 -1.13053 -1.28163 0
M  V30 10808 N 1752.88 0.890102 -0.232633 0
M  V30 10809 C 1752.88 2.26958 -0.21772 0
M  V30 10810 N 1753.01 2.84626 0.97925 0
M  V30 10811 N 1752.75 3.0178 -1.31033 0
M  V30 10812 C 1752.63 2.26781 -2.43843 0
M  V30 10813 H 1749.65 4.797 -7.24003 0
M  V30 10814 H 1749.38 3.69856 -5.84513 0
M  V30 10815 H 1750.25 6.10356 -5.41441 0
M  V30 10816 H 1752.9 4.79061 -3.27488 0
M  V30 10817 H 1753.18 3.64906 -6.05785 0
M  V30 10818 H 1754.17 4.8868 -5.2125 0
M  V30 10819 H 1752.34 5.66726 -7.06352 0
M  V30 10820 H 1752.29 1.71169 -5.60966 0
M  V30 10821 H 1752.97 0.419134 0.644739 0
M  V30 10822 H 1753.01 3.87332 1.06098 0
M  V30 10823 H 1753.11 2.26417 1.82483 0
M  V30 10824 P 1754.21 7.20834 -5.23717 0
M  V30 10825 O 1754.43 8.66274 -5.38678 0
M  V30 10826 O 1755 6.33687 -6.13629 0
M  V30 10827 O 1754.46 6.7751 -3.72168 0
M  V30 10828 C 1753.52 7.20919 -2.70795 0
M  V30 10829 C 1754.25 7.45864 -1.40599 0
M  V30 10830 O 1754.46 6.17751 -0.734343 0
M  V30 10831 C 1755.65 8.05906 -1.51917 0
M  V30 10832 O 1756.04 8.74358 -0.335205 0
M  V30 10833 C 1756.53 6.83093 -1.70294 0
M  V30 10834 C 1755.82 5.79992 -0.836974 0
M  V30 10835 N 1755.87 4.41864 -1.38293 0
M  V30 10836 H 1753.03 8.13738 -3.03804 0
M  V30 10837 H 1752.76 6.42974 -2.55559 0
M  V30 10838 H 1753.63 8.12139 -0.792866 0
M  V30 10839 H 1756.28 5.80178 0.160643 0
M  V30 10840 H 1756.56 6.51379 -2.75643 0
M  V30 10841 H 1757.55 7.01832 -1.3448 0
M  V30 10842 H 1755.72 8.73771 -2.38364 0
M  V30 10843 P 1757.59 8.91 -1.40415e-11 0
M  V30 10844 O 1757.81 10.1726 0.733694 0
M  V30 10845 O 1758.38 8.73148 -1.23936 0
M  V30 10846 O 1757.84 7.66872 0.971405 0
M  V30 10847 C 1756.9 7.42309 2.04641 0
M  V30 10848 C 1757.63 6.86059 3.24661 0
M  V30 10849 O 1757.84 5.42847 3.03646 0
M  V30 10850 C 1759.03 7.41196 3.50753 0
M  V30 10851 O 1759.42 7.27073 4.86816 0
M  V30 10852 C 1759.91 6.5273 2.63741 0
M  V30 10853 C 1759.2 5.1842 2.73198 0
M  V30 10854 N 1759.25 4.38762 1.4784 0
M  V30 10855 H 1756.41 8.36803 2.32493 0
M  V30 10856 H 1756.14 6.70197 1.71129 0
M  V30 10857 H 1757.01 7.03551 4.13168 0
M  V30 10858 P 1760.97 7.20834 5.23717 0
M  V30 10859 O 1761.19 7.79853 6.57286 0
M  V30 10860 O 1761.76 7.79239 4.12957 0
M  V30 10861 O 1761.22 5.63315 5.29344 0
M  V30 10862 C 1760.28 4.80255 6.01876 0
M  V30 10863 C 1761.01 3.64202 6.65911 0
M  V30 10864 O 1761.22 2.60694 5.64732 0
M  V30 10865 C 1762.41 3.93473 7.1943 0
M  V30 10866 O 1762.8 3.02071 8.21205 0
M  V30 10867 C 1763.29 3.73047 5.97036 0
M  V30 10868 C 1762.58 2.58828 5.25741 0
M  V30 10869 N 1762.63 2.68068 3.77503 0
M  V30 10870 H 1759.79 5.40332 6.79951 0
M  V30 10871 H 1759.52 4.41613 5.32378 0
M  V30 10872 H 1760.39 3.26331 7.47797 0
M  V30 10873 P 1764.35 2.75334 8.47391 0
M  V30 10874 O 1764.57 2.44571 9.90142 0
M  V30 10875 O 1765.14 3.87688 7.92115 0
M  V30 10876 O 1764.6 1.4459 7.59357 0
M  V30 10877 C 1763.66 0.347608 7.69215 0
M  V30 10878 C 1764.39 -0.96767 7.52806 0
M  V30 10879 O 1764.6 -1.21036 6.1011 0
M  V30 10880 C 1765.79 -1.04544 8.13308 0
M  V30 10881 O 1766.18 -2.38311 8.41922 0
M  V30 10882 C 1766.67 -0.491279 7.02284 0
M  V30 10883 C 1765.96 -0.996264 5.77469 0
M  V30 10884 N 1766.01 -0.0501916 4.62973 0
M  V30 10885 H 1763.17 0.374722 8.67691 0
M  V30 10886 H 1762.9 0.443485 6.90277 0
M  V30 10887 H 1763.77 -1.75537 7.96793 0
M  V30 10888 P 1767.73 -2.75334 8.47391 0
M  V30 10889 O 1767.95 -3.84128 9.44797 0
M  V30 10890 O 1768.52 -1.51947 8.68712 0
M  V30 10891 O 1767.98 -3.29363 6.99321 0
M  V30 10892 C 1767.04 -4.24011 6.4274 0
M  V30 10893 C 1767.77 -5.20775 5.52155 0
M  V30 10894 O 1767.98 -4.56534 4.22446 0
M  V30 10895 C 1769.17 -5.62629 5.96531 0
M  V30 10896 O 1769.56 -6.87667 5.41053 0
M  V30 10897 C 1770.05 -4.52537 5.39283 0
M  V30 10898 C 1769.34 -4.20027 4.08623 0
M  V30 10899 N 1769.39 -2.76189 3.71603 0
M  V30 10900 H 1766.55 -4.797 7.24003 0
M  V30 10901 H 1766.28 -3.69856 5.84513 0
M  V30 10902 H 1767.15 -6.10356 5.41441 0
M  V30 10903 P 1771.11 -7.20834 5.23717 0
M  V30 10904 O 1771.33 -8.66274 5.38678 0
M  V30 10905 O 1771.9 -6.33687 6.13629 0
M  V30 10906 O 1771.36 -6.7751 3.72168 0
M  V30 10907 C 1770.42 -7.20919 2.70795 0
M  V30 10908 C 1771.15 -7.45864 1.40599 0
M  V30 10909 O 1771.36 -6.17751 0.734343 0
M  V30 10910 C 1772.55 -8.05906 1.51917 0
M  V30 10911 O 1772.94 -8.74358 0.335205 0
M  V30 10912 C 1773.43 -6.83093 1.70294 0
M  V30 10913 C 1772.72 -5.79992 0.836974 0
M  V30 10914 N 1772.77 -4.41864 1.38293 0
M  V30 10915 H 1769.93 -8.13738 3.03804 0
M  V30 10916 H 1769.66 -6.42974 2.55559 0
M  V30 10917 H 1770.53 -8.12139 0.792866 0
M  V30 10918 H 1773.18 -5.80178 -0.160643 0
M  V30 10919 H 1773.46 -6.51379 2.75643 0
M  V30 10920 H 1774.45 -7.01832 1.3448 0
M  V30 10921 H 1772.62 -8.73771 2.38364 0
M  V30 10922 P 1774.49 -8.91 1.51505e-11 0
M  V30 10923 O 1774.71 -10.1736 -0.733766 0
M  V30 10924 O 1775.28 -8.73247 1.2395 0
M  V30 10925 O 1774.74 -7.66872 -0.971405 0
M  V30 10926 C 1773.8 -7.42212 -2.04614 0
M  V30 10927 C 1774.53 -6.86059 -3.24661 0
M  V30 10928 O 1774.74 -5.42847 -3.03646 0
M  V30 10929 C 1775.93 -7.41196 -3.50753 0
M  V30 10930 O 1776.32 -7.27073 -4.86816 0
M  V30 10931 C 1776.81 -6.5273 -2.63741 0
M  V30 10932 C 1776.1 -5.1842 -2.73198 0
M  V30 10933 N 1776.15 -4.38668 -1.47808 0
M  V30 10934 C 1776.3 -3.02239 -1.60048 0
M  V30 10935 O 1776.39 -2.46459 -2.67869 0
M  V30 10936 N 1776.34 -2.32436 -0.408571 0
M  V30 10937 C 1776.25 -2.85471 0.854993 0
M  V30 10938 C 1776.1 -4.28918 0.887335 0
M  V30 10939 C 1776.05 -5.00349 -0.255399 0
M  V30 10940 H 1773.31 -8.36803 -2.32493 0
M  V30 10941 H 1773.04 -6.701 -1.71105 0
M  V30 10942 H 1773.91 -7.03551 -4.13168 0
M  V30 10943 H 1776.56 -4.59773 -3.53894 0
M  V30 10944 H 1776.84 -6.88995 -1.59871 0
M  V30 10945 H 1777.83 -6.46749 -3.03687 0
M  V30 10946 H 1776 -8.46908 -3.20714 0
M  V30 10947 H 1775.93 -6.08548 -0.206986 0
M  V30 10948 P 1777.87 -7.20834 -5.23717 0
M  V30 10949 O 1778.09 -7.79853 -6.57286 0
M  V30 10950 O 1778.66 -7.79239 -4.12957 0
M  V30 10951 O 1778.12 -5.63315 -5.29344 0
M  V30 10952 C 1777.18 -4.80255 -6.01876 0
M  V30 10953 C 1777.91 -3.64202 -6.65911 0
M  V30 10954 O 1778.12 -2.60694 -5.64732 0
M  V30 10955 C 1779.31 -3.93473 -7.1943 0
M  V30 10956 O 1779.7 -3.02071 -8.21205 0
M  V30 10957 C 1780.19 -3.73047 -5.97036 0
M  V30 10958 C 1779.48 -2.58828 -5.25741 0
M  V30 10959 N 1779.53 -2.68068 -3.77503 0
M  V30 10960 C 1779.45 -3.79715 -2.96723 0
M  V30 10961 N 1779.53 -3.5377 -1.68852 0
M  V30 10962 C 1779.67 -2.15054 -1.63254 0
M  V30 10963 C 1779.8 -1.28964 -0.518571 0
M  V30 10964 O 1779.82 -1.56826 0.679156 0
M  V30 10965 N 1779.92 0.0538097 -0.918425 0
M  V30 10966 C 1779.92 0.494275 -2.22578 0
M  V30 10967 N 1780.05 1.81086 -2.40434 0
M  V30 10968 N 1779.79 -0.313645 -3.27502 0
M  V30 10969 C 1779.67 -1.61829 -2.91033 0
M  V30 10970 H 1776.69 -5.40332 -6.79951 0
M  V30 10971 H 1776.42 -4.41613 -5.32378 0
M  V30 10972 H 1777.29 -3.26331 -7.47797 0
M  V30 10973 H 1779.94 -1.63422 -5.56814 0
M  V30 10974 H 1780.22 -4.63374 -5.34244 0
M  V30 10975 H 1781.21 -3.44728 -6.25838 0
M  V30 10976 H 1779.38 -4.96652 -7.57263 0
M  V30 10977 H 1779.33 -4.80617 -3.3614 0
M  V30 10978 H 1780.01 0.742702 -0.199384 0
M  V30 10979 H 1780.05 2.20598 -3.35588 0
M  V30 10980 H 1780.15 2.43518 -1.58945 0
M  V30 10981 P 1781.25 -2.75334 -8.47391 0
M  V30 10982 O 1781.47 -2.44571 -9.90142 0
M  V30 10983 O 1782.04 -3.87688 -7.92115 0
M  V30 10984 O 1781.5 -1.4459 -7.59357 0
M  V30 10985 C 1780.56 -0.347608 -7.69215 0
M  V30 10986 C 1781.29 0.96767 -7.52806 0
M  V30 10987 O 1781.5 1.21036 -6.1011 0
M  V30 10988 C 1782.69 1.04544 -8.13308 0
M  V30 10989 O 1783.08 2.38311 -8.41922 0
M  V30 10990 C 1783.57 0.491279 -7.02284 0
M  V30 10991 C 1782.86 0.996264 -5.77469 0
M  V30 10992 N 1782.91 0.0501916 -4.62973 0
M  V30 10993 H 1780.07 -0.374722 -8.67691 0
M  V30 10994 H 1779.8 -0.443485 -6.90277 0
M  V30 10995 H 1780.67 1.75537 -7.96793 0
M  V30 10996 P 1784.63 2.75334 -8.47391 0
M  V30 10997 O 1784.85 3.84128 -9.44797 0
M  V30 10998 O 1785.42 1.51947 -8.68712 0
M  V30 10999 O 1784.88 3.29363 -6.99321 0
M  V30 11000 C 1783.94 4.24011 -6.4274 0
M  V30 11001 C 1784.67 5.20775 -5.52155 0
M  V30 11002 O 1784.88 4.56534 -4.22446 0
M  V30 11003 C 1786.07 5.62629 -5.96531 0
M  V30 11004 O 1786.46 6.87667 -5.41053 0
M  V30 11005 C 1786.95 4.52537 -5.39283 0
M  V30 11006 C 1786.24 4.20027 -4.08623 0
M  V30 11007 N 1786.29 2.76189 -3.71603 0
M  V30 11008 H 1783.45 4.797 -7.24003 0
M  V30 11009 H 1783.18 3.69856 -5.84513 0
M  V30 11010 H 1784.05 6.10356 -5.41441 0
M  V30 11011 P 1788.01 7.20834 -5.23717 0
M  V30 11012 O 1788.23 8.66189 -5.38625 0
M  V30 11013 O 1788.8 6.33615 -6.1356 0
M  V30 11014 O 1788.26 6.7751 -3.72168 0
M  V30 11015 C 1787.32 7.20732 -2.70725 0
M  V30 11016 C 1788.05 7.45864 -1.40599 0
M  V30 11017 O 1788.26 6.17651 -0.734225 0
M  V30 11018 C 1789.45 8.05808 -1.51899 0
M  V30 11019 O 1789.84 8.74358 -0.335205 0
M  V30 11020 C 1790.33 6.83093 -1.70294 0
M  V30 11021 C 1789.62 5.79992 -0.836974 0
M  V30 11022 N 1789.67 4.41769 -1.38263 0
M  V30 11023 C 1789.82 3.38591 -0.481702 0
M  V30 11024 O 1789.91 3.56839 0.718452 0
M  V30 11025 N 1789.86 2.1206 -1.03569 0
M  V30 11026 C 1789.77 1.80696 -2.36966 0
M  V30 11027 O 1789.82 0.630473 -2.74862 0
M  V30 11028 C 1789.62 2.94845 -3.23898 0
M  V30 11029 C 1789.51 2.65253 -4.70362 0
M  V30 11030 C 1789.57 4.19803 -2.73435 0
M  V30 11031 H 1786.83 8.13644 -3.0377 0
M  V30 11032 H 1786.56 6.42695 -2.55448 0
M  V30 11033 H 1787.43 8.12039 -0.792769 0
M  V30 11034 H 1790.08 5.79978 0.160587 0
M  V30 11035 H 1790.36 6.51379 -2.75643 0
M  V30 11036 H 1791.35 7.01734 -1.34462 0
M  V30 11037 H 1789.52 8.73674 -2.38337 0
M  V30 11038 H 1789.45 5.04492 -3.4095 0
M  V30 11039 H 1790.48 2.83924 -5.1913 0
M  V30 11040 H 1788.74 3.29824 -5.15163 0
M  V30 11041 H 1789.23 1.59723 -4.84449 0
M  V30 11042 H 1789.97 1.35644 -0.399345 0
M  V30 11043 P 1791.39 8.91 -1.62595e-11 0
M  V30 11044 O 1791.61 10.1726 0.733694 0
M  V30 11045 O 1792.18 8.73148 -1.23936 0
M  V30 11046 O 1791.64 7.66872 0.971405 0
M  V30 11047 C 1790.7 7.42309 2.04641 0
M  V30 11048 C 1791.43 6.86059 3.24661 0
M  V30 11049 O 1791.64 5.42847 3.03646 0
M  V30 11050 C 1792.83 7.41196 3.50753 0
M  V30 11051 O 1793.22 7.27073 4.86816 0
M  V30 11052 C 1793.71 6.5273 2.63741 0
M  V30 11053 C 1793 5.1842 2.73198 0
M  V30 11054 N 1793.05 4.38762 1.4784 0
M  V30 11055 H 1790.21 8.36803 2.32493 0
M  V30 11056 H 1789.94 6.70197 1.71129 0
M  V30 11057 H 1790.81 7.03551 4.13168 0
M  V30 11058 P 1794.77 7.20834 5.23717 0
M  V30 11059 O 1794.99 7.79853 6.57286 0
M  V30 11060 O 1795.56 7.79239 4.12957 0
M  V30 11061 O 1795.02 5.63315 5.29344 0
M  V30 11062 C 1794.08 4.80255 6.01876 0
M  V30 11063 C 1794.81 3.64202 6.65911 0
M  V30 11064 O 1795.02 2.60694 5.64732 0
M  V30 11065 C 1796.21 3.93473 7.1943 0
M  V30 11066 O 1796.6 3.02071 8.21205 0
M  V30 11067 C 1797.09 3.73047 5.97036 0
M  V30 11068 C 1796.38 2.58828 5.25741 0
M  V30 11069 N 1796.43 2.68068 3.77503 0
M  V30 11070 H 1793.59 5.40332 6.79951 0
M  V30 11071 H 1793.32 4.41613 5.32378 0
M  V30 11072 H 1794.19 3.26331 7.47797 0
M  V30 11073 P 1798.15 2.75334 8.47391 0
M  V30 11074 O 1798.37 2.44571 9.90142 0
M  V30 11075 O 1798.94 3.87688 7.92115 0
M  V30 11076 O 1798.4 1.4459 7.59357 0
M  V30 11077 C 1797.46 0.347608 7.69215 0
M  V30 11078 C 1798.19 -0.96767 7.52806 0
M  V30 11079 O 1798.4 -1.21036 6.1011 0
M  V30 11080 C 1799.59 -1.04544 8.13308 0
M  V30 11081 O 1799.98 -2.38311 8.41922 0
M  V30 11082 C 1800.47 -0.491279 7.02284 0
M  V30 11083 C 1799.76 -0.996264 5.77469 0
M  V30 11084 N 1799.81 -0.0501916 4.62973 0
M  V30 11085 H 1796.97 0.374722 8.67691 0
M  V30 11086 H 1796.7 0.443485 6.90277 0
M  V30 11087 H 1797.57 -1.75537 7.96793 0
M  V30 11088 P 1801.53 -2.75334 8.47391 0
M  V30 11089 O 1801.75 -3.84128 9.44797 0
M  V30 11090 O 1802.32 -1.51947 8.68712 0
M  V30 11091 O 1801.78 -3.29363 6.99321 0
M  V30 11092 C 1800.84 -4.24011 6.4274 0
M  V30 11093 C 1801.57 -5.20775 5.52155 0
M  V30 11094 O 1801.78 -4.56534 4.22446 0
M  V30 11095 C 1802.97 -5.62629 5.96531 0
M  V30 11096 O 1803.36 -6.87667 5.41053 0
M  V30 11097 C 1803.85 -4.52537 5.39283 0
M  V30 11098 C 1803.14 -4.20027 4.08623 0
M  V30 11099 N 1803.19 -2.76189 3.71603 0
M  V30 11100 H 1800.35 -4.797 7.24003 0
M  V30 11101 H 1800.08 -3.69856 5.84513 0
M  V30 11102 H 1800.95 -6.10356 5.41441 0
M  V30 11103 P 1804.91 -7.20834 5.23717 0
M  V30 11104 O 1805.13 -8.66104 5.38572 0
M  V30 11105 O 1805.7 -6.33544 6.1349 0
M  V30 11106 O 1805.16 -6.7751 3.72168 0
M  V30 11107 C 1804.22 -7.20825 2.7076 0
M  V30 11108 C 1804.95 -7.45864 1.40599 0
M  V30 11109 O 1805.16 -6.17651 0.734225 0
M  V30 11110 C 1806.35 -8.05808 1.51899 0
M  V30 11111 O 1806.74 -8.74358 0.335205 0
M  V30 11112 C 1807.23 -6.83093 1.70294 0
M  V30 11113 C 1806.52 -5.79992 0.836974 0
M  V30 11114 N 1806.57 -4.41864 1.38293 0
M  V30 11115 H 1803.73 -8.13644 3.0377 0
M  V30 11116 H 1803.46 -6.42788 2.55485 0
M  V30 11117 H 1804.33 -8.12039 0.792769 0
M  V30 11118 P 1808.29 -8.91 1.73686e-11 0
M  V30 11119 O 1808.51 -10.1726 -0.733694 0
M  V30 11120 O 1809.08 -8.73148 1.23936 0
M  V30 11121 O 1808.54 -7.66872 -0.971405 0
M  V30 11122 C 1807.6 -7.42309 -2.04641 0
M  V30 11123 C 1808.33 -6.86059 -3.24661 0
M  V30 11124 O 1808.54 -5.42847 -3.03646 0
M  V30 11125 C 1809.73 -7.41196 -3.50753 0
M  V30 11126 O 1810.12 -7.27073 -4.86816 0
M  V30 11127 C 1810.61 -6.5273 -2.63741 0
M  V30 11128 C 1809.9 -5.1842 -2.73198 0
M  V30 11129 N 1809.95 -4.38762 -1.4784 0
M  V30 11130 H 1807.11 -8.36803 -2.32493 0
M  V30 11131 H 1806.84 -6.70197 -1.71129 0
M  V30 11132 H 1807.71 -7.03551 -4.13168 0
M  V30 11133 P 1811.67 -7.20834 -5.23717 0
M  V30 11134 O 1811.89 -7.79853 -6.57286 0
M  V30 11135 O 1812.46 -7.79239 -4.12957 0
M  V30 11136 O 1811.92 -5.63315 -5.29344 0
M  V30 11137 C 1810.98 -4.80255 -6.01876 0
M  V30 11138 C 1811.71 -3.64202 -6.65911 0
M  V30 11139 O 1811.92 -2.60694 -5.64732 0
M  V30 11140 C 1813.11 -3.93473 -7.1943 0
M  V30 11141 O 1813.5 -3.02071 -8.21205 0
M  V30 11142 C 1813.99 -3.73047 -5.97036 0
M  V30 11143 C 1813.28 -2.58828 -5.25741 0
M  V30 11144 N 1813.33 -2.68068 -3.77503 0
M  V30 11145 H 1810.49 -5.40332 -6.79951 0
M  V30 11146 H 1810.22 -4.41613 -5.32378 0
M  V30 11147 H 1811.09 -3.26331 -7.47797 0
M  V30 11148 P 1815.05 -2.75334 -8.47391 0
M  V30 11149 O 1815.27 -2.44595 -9.90239 0
M  V30 11150 O 1815.84 -3.87732 -7.92204 0
M  V30 11151 O 1815.3 -1.4459 -7.59357 0
M  V30 11152 C 1814.36 -0.347563 -7.69115 0
M  V30 11153 C 1815.09 0.96767 -7.52806 0
M  V30 11154 O 1815.3 1.21036 -6.1011 0
M  V30 11155 C 1816.49 1.04544 -8.13308 0
M  V30 11156 O 1816.88 2.38311 -8.41922 0
M  V30 11157 C 1817.37 0.491279 -7.02284 0
M  V30 11158 C 1816.66 0.996264 -5.77469 0
M  V30 11159 N 1816.71 0.0501808 -4.62873 0
M  V30 11160 C 1816.86 0.588177 -3.36904 0
M  V30 11161 O 1816.95 1.78598 -3.17173 0
M  V30 11162 N 1816.9 -0.329694 -2.33686 0
M  V30 11163 C 1816.81 -1.6953 -2.45079 0
M  V30 11164 C 1816.66 -2.16933 -3.80505 0
M  V30 11165 C 1816.61 -1.30326 -4.83752 0
M  V30 11166 H 1813.87 -0.374722 -8.67691 0
M  V30 11167 H 1813.6 -0.443421 -6.90177 0
M  V30 11168 H 1814.47 1.75537 -7.96793 0
M  V30 11169 H 1817.12 1.94496 -5.46629 0
M  V30 11170 H 1817.4 -0.608651 -7.04676 0
M  V30 11171 H 1818.39 0.889672 -7.08939 0
M  V30 11172 H 1816.56 0.43308 -9.04564 0
M  V30 11173 H 1816.49 -1.68366 -5.8516 0
M  V30 11174 P 1818.43 2.75334 -8.47391 0
M  V30 11175 O 1818.65 3.84128 -9.44797 0
M  V30 11176 O 1819.22 1.51947 -8.68712 0
M  V30 11177 O 1818.68 3.29363 -6.99321 0
M  V30 11178 C 1817.74 4.24011 -6.4274 0
M  V30 11179 C 1818.47 5.20775 -5.52155 0
M  V30 11180 O 1818.68 4.56534 -4.22446 0
M  V30 11181 C 1819.87 5.62629 -5.96531 0
M  V30 11182 O 1820.26 6.87667 -5.41053 0
M  V30 11183 C 1820.75 4.52537 -5.39283 0
M  V30 11184 C 1820.04 4.20027 -4.08623 0
M  V30 11185 N 1820.09 2.76189 -3.71603 0
M  V30 11186 H 1817.25 4.797 -7.24003 0
M  V30 11187 H 1816.98 3.69856 -5.84513 0
M  V30 11188 H 1817.85 6.10356 -5.41441 0
M  V30 11189 P 1821.81 7.20834 -5.23717 0
M  V30 11190 O 1822.03 8.66104 -5.38572 0
M  V30 11191 O 1822.6 6.33544 -6.1349 0
M  V30 11192 O 1822.06 6.7751 -3.72168 0
M  V30 11193 C 1821.12 7.20825 -2.7076 0
M  V30 11194 C 1821.85 7.45864 -1.40599 0
M  V30 11195 O 1822.06 6.17651 -0.734225 0
M  V30 11196 C 1823.25 8.05808 -1.51899 0
M  V30 11197 O 1823.64 8.74358 -0.335205 0
M  V30 11198 C 1824.13 6.83093 -1.70294 0
M  V30 11199 C 1823.42 5.79992 -0.836974 0
M  V30 11200 N 1823.47 4.41864 -1.38293 0
M  V30 11201 H 1820.63 8.13644 -3.0377 0
M  V30 11202 H 1820.36 6.42788 -2.55485 0
M  V30 11203 H 1821.23 8.12039 -0.792769 0
M  V30 11204 P 1825.19 8.91 -1.84776e-11 0
M  V30 11205 O 1825.41 10.1726 0.733694 0
M  V30 11206 O 1825.98 8.73148 -1.23936 0
M  V30 11207 O 1825.44 7.66872 0.971405 0
M  V30 11208 C 1824.5 7.42309 2.04641 0
M  V30 11209 C 1825.23 6.86059 3.24661 0
M  V30 11210 O 1825.44 5.42847 3.03646 0
M  V30 11211 C 1826.63 7.41196 3.50753 0
M  V30 11212 O 1827.02 7.27073 4.86816 0
M  V30 11213 C 1827.51 6.5273 2.63741 0
M  V30 11214 C 1826.8 5.1842 2.73198 0
M  V30 11215 N 1826.85 4.38762 1.4784 0
M  V30 11216 H 1824.01 8.36803 2.32493 0
M  V30 11217 H 1823.74 6.70197 1.71129 0
M  V30 11218 H 1824.61 7.03551 4.13168 0
M  V30 11219 P 1828.57 7.20834 5.23717 0
M  V30 11220 O 1828.79 7.80006 6.57415 0
M  V30 11221 O 1829.36 7.79416 4.13051 0
M  V30 11222 O 1828.82 5.63315 5.29344 0
M  V30 11223 C 1827.88 4.80318 6.01954 0
M  V30 11224 C 1828.61 3.64202 6.65911 0
M  V30 11225 O 1828.82 2.60736 5.64823 0
M  V30 11226 C 1830.01 3.93521 7.19518 0
M  V30 11227 O 1830.4 3.02071 8.21205 0
M  V30 11228 C 1830.89 3.73047 5.97036 0
M  V30 11229 C 1830.18 2.58828 5.25741 0
M  V30 11230 N 1830.23 2.68068 3.77503 0
M  V30 11231 C 1830.15 3.80474 2.99159 0
M  V30 11232 N 1830.22 3.55622 1.71925 0
M  V30 11233 C 1830.37 2.1832 1.65733 0
M  V30 11234 C 1830.5 1.28842 0.572777 0
M  V30 11235 N 1830.51 1.66875 -0.70098 0
M  V30 11236 N 1830.62 -0.016788 0.859836 0
M  V30 11237 C 1830.61 -0.398145 2.13316 0
M  V30 11238 N 1830.49 0.328224 3.22333 0
M  V30 11239 C 1830.37 1.62992 2.90383 0
M  V30 11240 H 1827.39 5.40394 6.8003 0
M  V30 11241 H 1827.12 4.41741 5.32532 0
M  V30 11242 H 1827.99 3.26371 7.47889 0
M  V30 11243 H 1830.64 1.64007 5.56746 0
M  V30 11244 H 1830.92 4.63439 5.3432 0
M  V30 11245 H 1831.91 3.44776 6.25925 0
M  V30 11246 H 1830.08 4.96707 7.57347 0
M  V30 11247 H 1830.04 4.8089 3.39924 0
M  V30 11248 H 1830.42 2.66547 -0.941919 0
M  V30 11249 H 1830.61 0.965341 -1.44766 0
M  V30 11250 H 1830.72 -1.46427 2.29697 0
M  V30 11251 P 1831.95 2.75334 8.47391 0
M  V30 11252 O 1832.17 2.44571 9.90142 0
M  V30 11253 O 1832.74 3.87688 7.92115 0
M  V30 11254 O 1832.2 1.4459 7.59357 0
M  V30 11255 C 1831.26 0.347608 7.69215 0
M  V30 11256 C 1831.99 -0.96767 7.52806 0
M  V30 11257 O 1832.2 -1.21036 6.1011 0
M  V30 11258 C 1833.39 -1.04544 8.13308 0
M  V30 11259 O 1833.78 -2.38311 8.41922 0
M  V30 11260 C 1834.27 -0.491279 7.02284 0
M  V30 11261 C 1833.56 -0.996264 5.77469 0
M  V30 11262 N 1833.61 -0.0501916 4.62973 0
M  V30 11263 H 1830.77 0.374722 8.67691 0
M  V30 11264 H 1830.5 0.443485 6.90277 0
M  V30 11265 H 1831.37 -1.75537 7.96793 0
M  V30 11266 P 1835.33 -2.75334 8.47391 0
M  V30 11267 O 1835.55 -3.84204 9.44982 0
M  V30 11268 O 1836.12 -1.51982 8.68909 0
M  V30 11269 O 1835.58 -3.29363 6.99321 0
M  V30 11270 C 1834.64 -4.24066 6.42823 0
M  V30 11271 C 1835.37 -5.20775 5.52155 0
M  V30 11272 O 1835.58 -4.56607 4.22514 0
M  V30 11273 C 1836.77 -5.62697 5.96604 0
M  V30 11274 O 1837.16 -6.87667 5.41053 0
M  V30 11275 C 1837.65 -4.52537 5.39283 0
M  V30 11276 C 1836.94 -4.20027 4.08623 0
M  V30 11277 N 1836.99 -2.76189 3.71603 0
M  V30 11278 C 1836.91 -1.66944 4.54297 0
M  V30 11279 N 1836.98 -0.536169 3.91344 0
M  V30 11280 C 1837.13 -0.901569 2.58849 0
M  V30 11281 C 1837.26 -0.146599 1.40236 0
M  V30 11282 N 1837.27 1.18234 1.37046 0
M  V30 11283 N 1837.38 -0.822941 0.249738 0
M  V30 11284 C 1837.37 -2.15179 0.280525 0
M  V30 11285 N 1837.25 -2.96414 1.30822 0
M  V30 11286 C 1837.13 -2.25804 2.44748 0
M  V30 11287 H 1834.15 -4.79756 7.24086 0
M  V30 11288 H 1833.88 -3.69963 5.84682 0
M  V30 11289 H 1834.75 -6.10431 5.41508 0
M  V30 11290 H 1837.4 -4.78816 3.28024 0
M  V30 11291 H 1837.68 -3.64957 6.05871 0
M  V30 11292 H 1838.67 -4.88748 5.21323 0
M  V30 11293 H 1836.84 -5.66789 7.0643 0
M  V30 11294 H 1836.8 -1.74684 5.62396 0
M  V30 11295 H 1837.18 1.71949 2.24394 0
M  V30 11296 H 1837.37 1.67511 0.470742 0
M  V30 11297 H 1837.48 -2.63704 -0.6828 0
M  V30 11298 P 1838.71 -7.20834 5.23717 0
M  V30 11299 O 1838.93 -8.66104 5.38572 0
M  V30 11300 O 1839.5 -6.33544 6.1349 0
M  V30 11301 O 1838.96 -6.7751 3.72168 0
M  V30 11302 C 1838.02 -7.20825 2.7076 0
M  V30 11303 C 1838.75 -7.45864 1.40599 0
M  V30 11304 O 1838.96 -6.17651 0.734225 0
M  V30 11305 C 1840.15 -8.05808 1.51899 0
M  V30 11306 O 1840.54 -8.74358 0.335205 0
M  V30 11307 C 1841.03 -6.83093 1.70294 0
M  V30 11308 C 1840.32 -5.79992 0.836974 0
M  V30 11309 N 1840.37 -4.41864 1.38293 0
M  V30 11310 H 1837.53 -8.13644 3.0377 0
M  V30 11311 H 1837.26 -6.42788 2.55485 0
M  V30 11312 H 1838.13 -8.12039 0.792769 0
M  V30 11313 P 1842.09 -8.91 1.95866e-11 0
M  V30 11314 O 1842.31 -10.1746 -0.733838 0
M  V30 11315 O 1842.88 -8.73346 1.23964 0
M  V30 11316 O 1842.34 -7.66872 -0.971405 0
M  V30 11317 C 1841.4 -7.42405 -2.04668 0
M  V30 11318 C 1842.13 -6.86059 -3.24661 0
M  V30 11319 O 1842.34 -5.42934 -3.03695 0
M  V30 11320 C 1843.53 -7.41287 -3.50796 0
M  V30 11321 O 1843.92 -7.27073 -4.86816 0
M  V30 11322 C 1844.41 -6.5273 -2.63741 0
M  V30 11323 C 1843.7 -5.1842 -2.73198 0
M  V30 11324 N 1843.75 -4.38762 -1.4784 0
M  V30 11325 C 1843.67 -4.83651 -0.183876 0
M  V30 11326 N 1843.74 -3.88759 0.699393 0
M  V30 11327 C 1843.89 -2.7404 -0.0575568 0
M  V30 11328 C 1844.02 -1.37902 0.293928 0
M  V30 11329 N 1844.03 -0.938021 1.54797 0
M  V30 11330 N 1844.14 -0.491817 -0.70549 0
M  V30 11331 C 1844.13 -0.931735 -1.95979 0
M  V30 11332 N 1844.01 -2.16017 -2.41481 0
M  V30 11333 C 1843.89 -3.02547 -1.39121 0
M  V30 11334 H 1840.91 -8.36899 -2.3252 0
M  V30 11335 H 1840.64 -6.70391 -1.71179 0
M  V30 11336 H 1841.51 -7.03638 -4.13219 0
M  V30 11337 H 1844.16 -4.59931 -3.54016 0
M  V30 11338 H 1844.44 -6.88995 -1.59871 0
M  V30 11339 H 1845.43 -6.4684 -3.0373 0
M  V30 11340 H 1843.6 -8.47002 -3.20749 0
M  V30 11341 H 1843.56 -5.8885 0.0765548 0
M  V30 11342 H 1843.94 -1.60276 2.32875 0
M  V30 11343 H 1844.13 0.0699355 1.73859 0
M  V30 11344 H 1844.24 -0.165507 -2.71897 0
M  V30 11345 P 1845.47 -7.20834 -5.23717 0
M  V30 11346 O 1845.69 -7.79853 -6.57286 0
M  V30 11347 O 1846.26 -7.79239 -4.12957 0
M  V30 11348 O 1845.72 -5.63315 -5.29344 0
M  V30 11349 C 1844.78 -4.80255 -6.01876 0
M  V30 11350 C 1845.51 -3.64202 -6.65911 0
M  V30 11351 O 1845.72 -2.60694 -5.64732 0
M  V30 11352 C 1846.91 -3.93473 -7.1943 0
M  V30 11353 O 1847.3 -3.02071 -8.21205 0
M  V30 11354 C 1847.79 -3.73047 -5.97036 0
M  V30 11355 C 1847.08 -2.58828 -5.25741 0
M  V30 11356 N 1847.13 -2.68068 -3.77503 0
M  V30 11357 H 1844.29 -5.40332 -6.79951 0
M  V30 11358 H 1844.02 -4.41613 -5.32378 0
M  V30 11359 H 1844.89 -3.26331 -7.47797 0
M  V30 11360 P 1848.85 -2.75334 -8.47391 0
M  V30 11361 O 1849.07 -2.44571 -9.90142 0
M  V30 11362 O 1849.64 -3.87688 -7.92115 0
M  V30 11363 O 1849.1 -1.4459 -7.59357 0
M  V30 11364 C 1848.16 -0.347608 -7.69215 0
M  V30 11365 C 1848.89 0.96767 -7.52806 0
M  V30 11366 O 1849.1 1.21036 -6.1011 0
M  V30 11367 C 1850.29 1.04544 -8.13308 0
M  V30 11368 O 1850.68 2.38311 -8.41922 0
M  V30 11369 C 1851.17 0.491279 -7.02284 0
M  V30 11370 C 1850.46 0.996264 -5.77469 0
M  V30 11371 N 1850.51 0.0501916 -4.62973 0
M  V30 11372 H 1847.67 -0.374722 -8.67691 0
M  V30 11373 H 1847.4 -0.443485 -6.90277 0
M  V30 11374 H 1848.27 1.75537 -7.96793 0
M  V30 11375 P 1852.23 2.75334 -8.47391 0
M  V30 11376 O 1852.45 3.84128 -9.44797 0
M  V30 11377 O 1853.02 1.51947 -8.68712 0
M  V30 11378 O 1852.48 3.29363 -6.99321 0
M  V30 11379 C 1851.54 4.24011 -6.4274 0
M  V30 11380 C 1852.27 5.20775 -5.52155 0
M  V30 11381 O 1852.48 4.56534 -4.22446 0
M  V30 11382 C 1853.67 5.62629 -5.96531 0
M  V30 11383 O 1854.06 6.87667 -5.41053 0
M  V30 11384 C 1854.55 4.52537 -5.39283 0
M  V30 11385 C 1853.84 4.20027 -4.08623 0
M  V30 11386 N 1853.89 2.76189 -3.71603 0
M  V30 11387 H 1851.05 4.797 -7.24003 0
M  V30 11388 H 1850.78 3.69856 -5.84513 0
M  V30 11389 H 1851.65 6.10356 -5.41441 0
M  V30 11390 P 1855.61 7.20834 -5.23717 0
M  V30 11391 O 1855.83 8.66104 -5.38572 0
M  V30 11392 O 1856.4 6.33544 -6.1349 0
M  V30 11393 O 1855.86 6.7751 -3.72168 0
M  V30 11394 C 1854.92 7.20825 -2.7076 0
M  V30 11395 C 1855.65 7.45864 -1.40599 0
M  V30 11396 O 1855.86 6.17651 -0.734225 0
M  V30 11397 C 1857.05 8.05808 -1.51899 0
M  V30 11398 O 1857.44 8.74358 -0.335205 0
M  V30 11399 C 1857.93 6.83093 -1.70294 0
M  V30 11400 C 1857.22 5.79992 -0.836974 0
M  V30 11401 N 1857.27 4.41864 -1.38293 0
M  V30 11402 H 1854.43 8.13644 -3.0377 0
M  V30 11403 H 1854.16 6.42788 -2.55485 0
M  V30 11404 H 1855.03 8.12039 -0.792769 0
M  V30 11405 P 1858.99 8.91 -2.06956e-11 0
M  V30 11406 O 1859.21 10.1726 0.733694 0
M  V30 11407 O 1859.78 8.73148 -1.23936 0
M  V30 11408 O 1859.24 7.66872 0.971405 0
M  V30 11409 C 1858.3 7.42309 2.04641 0
M  V30 11410 C 1859.03 6.86059 3.24661 0
M  V30 11411 O 1859.24 5.42847 3.03646 0
M  V30 11412 C 1860.43 7.41196 3.50753 0
M  V30 11413 O 1860.82 7.27073 4.86816 0
M  V30 11414 C 1861.31 6.5273 2.63741 0
M  V30 11415 C 1860.6 5.1842 2.73198 0
M  V30 11416 N 1860.65 4.38762 1.4784 0
M  V30 11417 H 1857.81 8.36803 2.32493 0
M  V30 11418 H 1857.54 6.70197 1.71129 0
M  V30 11419 H 1858.41 7.03551 4.13168 0
M  V30 11420 P 1862.37 7.20834 5.23717 0
M  V30 11421 O 1862.59 7.79853 6.57286 0
M  V30 11422 O 1863.16 7.79239 4.12957 0
M  V30 11423 O 1862.62 5.63315 5.29344 0
M  V30 11424 C 1861.68 4.80255 6.01876 0
M  V30 11425 C 1862.41 3.64202 6.65911 0
M  V30 11426 O 1862.62 2.60694 5.64732 0
M  V30 11427 C 1863.81 3.93473 7.1943 0
M  V30 11428 O 1864.2 3.02071 8.21205 0
M  V30 11429 C 1864.69 3.73047 5.97036 0
M  V30 11430 C 1863.98 2.58828 5.25741 0
M  V30 11431 N 1864.03 2.68068 3.77503 0
M  V30 11432 H 1861.19 5.40332 6.79951 0
M  V30 11433 H 1860.92 4.41613 5.32378 0
M  V30 11434 H 1861.79 3.26331 7.47797 0
M  V30 11435 P 1865.75 2.75334 8.47391 0
M  V30 11436 O 1865.97 2.44571 9.90142 0
M  V30 11437 O 1866.54 3.87688 7.92115 0
M  V30 11438 O 1866 1.4459 7.59357 0
M  V30 11439 C 1865.06 0.347608 7.69215 0
M  V30 11440 C 1865.79 -0.96767 7.52806 0
M  V30 11441 O 1866 -1.21036 6.1011 0
M  V30 11442 C 1867.19 -1.04544 8.13308 0
M  V30 11443 O 1867.58 -2.38311 8.41922 0
M  V30 11444 C 1868.07 -0.491279 7.02284 0
M  V30 11445 C 1867.36 -0.996264 5.77469 0
M  V30 11446 N 1867.41 -0.0501916 4.62973 0
M  V30 11447 H 1864.57 0.374722 8.67691 0
M  V30 11448 H 1864.3 0.443485 6.90277 0
M  V30 11449 H 1865.17 -1.75537 7.96793 0
M  V30 11450 P 1869.13 -2.75334 8.47391 0
M  V30 11451 O 1869.35 -3.84128 9.44797 0
M  V30 11452 O 1869.92 -1.51947 8.68712 0
M  V30 11453 O 1869.38 -3.29363 6.99321 0
M  V30 11454 C 1868.44 -4.24011 6.4274 0
M  V30 11455 C 1869.17 -5.20775 5.52155 0
M  V30 11456 O 1869.38 -4.56534 4.22446 0
M  V30 11457 C 1870.57 -5.62629 5.96531 0
M  V30 11458 O 1870.96 -6.87667 5.41053 0
M  V30 11459 C 1871.45 -4.52537 5.39283 0
M  V30 11460 C 1870.74 -4.20027 4.08623 0
M  V30 11461 N 1870.79 -2.76189 3.71603 0
M  V30 11462 H 1867.95 -4.797 7.24003 0
M  V30 11463 H 1867.68 -3.69856 5.84513 0
M  V30 11464 H 1868.55 -6.10356 5.41441 0
M  V30 11465 P 1872.51 -7.20834 5.23717 0
M  V30 11466 O 1872.73 -8.66104 5.38572 0
M  V30 11467 O 1873.3 -6.33544 6.1349 0
M  V30 11468 O 1872.76 -6.7751 3.72168 0
M  V30 11469 C 1871.82 -7.20825 2.7076 0
M  V30 11470 C 1872.55 -7.45864 1.40599 0
M  V30 11471 O 1872.76 -6.17651 0.734225 0
M  V30 11472 C 1873.95 -8.05808 1.51899 0
M  V30 11473 O 1874.34 -8.74358 0.335205 0
M  V30 11474 C 1874.83 -6.83093 1.70294 0
M  V30 11475 C 1874.12 -5.79992 0.836974 0
M  V30 11476 N 1874.17 -4.41864 1.38293 0
M  V30 11477 H 1871.33 -8.13644 3.0377 0
M  V30 11478 H 1871.06 -6.42788 2.55485 0
M  V30 11479 H 1871.93 -8.12039 0.792769 0
M  V30 11480 P 1875.89 -8.91 2.18046e-11 0
M  V30 11481 O 1876.11 -10.1726 -0.733694 0
M  V30 11482 O 1876.68 -8.73148 1.23936 0
M  V30 11483 O 1876.14 -7.66872 -0.971405 0
M  V30 11484 C 1875.2 -7.42309 -2.04641 0
M  V30 11485 C 1875.93 -6.86059 -3.24661 0
M  V30 11486 O 1876.14 -5.42847 -3.03646 0
M  V30 11487 C 1877.33 -7.41196 -3.50753 0
M  V30 11488 O 1877.72 -7.27073 -4.86816 0
M  V30 11489 C 1878.21 -6.5273 -2.63741 0
M  V30 11490 C 1877.5 -5.1842 -2.73198 0
M  V30 11491 N 1877.55 -4.38762 -1.4784 0
M  V30 11492 H 1874.71 -8.36803 -2.32493 0
M  V30 11493 H 1874.44 -6.70197 -1.71129 0
M  V30 11494 H 1875.31 -7.03551 -4.13168 0
M  V30 11495 P 1879.27 -7.20834 -5.23717 0
M  V30 11496 O 1879.49 -7.7993 -6.57351 0
M  V30 11497 O 1880.06 -7.79328 -4.13004 0
M  V30 11498 O 1879.52 -5.63315 -5.29344 0
M  V30 11499 C 1878.58 -4.80193 -6.01798 0
M  V30 11500 C 1879.31 -3.64202 -6.65911 0
M  V30 11501 O 1879.52 -2.60694 -5.64732 0
M  V30 11502 C 1880.71 -3.93473 -7.1943 0
M  V30 11503 O 1881.1 -3.02071 -8.21205 0
M  V30 11504 C 1881.59 -3.73047 -5.97036 0
M  V30 11505 C 1880.88 -2.58828 -5.25741 0
M  V30 11506 N 1880.93 -2.6801 -3.77422 0
M  V30 11507 C 1881.08 -1.50443 -3.07133 0
M  V30 11508 O 1881.17 -0.419406 -3.61576 0
M  V30 11509 N 1881.12 -1.6403 -1.69677 0
M  V30 11510 C 1881.03 -2.81206 -0.986255 0
M  V30 11511 C 1880.88 -3.99158 -1.80325 0
M  V30 11512 C 1880.83 -3.89779 -3.1476 0
M  V30 11513 H 1878.09 -5.40332 -6.79951 0
M  V30 11514 H 1877.82 -4.41549 -5.32301 0
M  V30 11515 H 1878.69 -3.26331 -7.47797 0
M  V30 11516 H 1881.34 -1.6395 -5.56554 0
M  V30 11517 H 1881.62 -4.63439 -5.3432 0
M  V30 11518 H 1882.61 -3.44728 -6.25838 0
M  V30 11519 H 1880.78 -4.96652 -7.57263 0
M  V30 11520 H 1880.71 -4.80159 -3.74441 0
M  V30 11521 P 1882.65 -2.75334 -8.47391 0
M  V30 11522 O 1882.87 -2.44571 -9.90142 0
M  V30 11523 O 1883.44 -3.87688 -7.92115 0
M  V30 11524 O 1882.9 -1.4459 -7.59357 0
M  V30 11525 C 1881.96 -0.347608 -7.69215 0
M  V30 11526 C 1882.69 0.96767 -7.52806 0
M  V30 11527 O 1882.9 1.21036 -6.1011 0
M  V30 11528 C 1884.09 1.04544 -8.13308 0
M  V30 11529 O 1884.48 2.38311 -8.41922 0
M  V30 11530 C 1884.97 0.491279 -7.02284 0
M  V30 11531 C 1884.26 0.996264 -5.77469 0
M  V30 11532 N 1884.31 0.0501916 -4.62973 0
M  V30 11533 C 1884.23 -1.32786 -4.63244 0
M  V30 11534 N 1884.31 -1.86957 -3.44545 0
M  V30 11535 C 1884.45 -0.780241 -2.58481 0
M  V30 11536 C 1884.58 -0.738536 -1.17757 0
M  V30 11537 N 1884.7 0.58337 -0.711393 0
M  V30 11538 C 1884.7 1.70816 -1.51017 0
M  V30 11539 N 1884.83 2.87826 -0.880757 0
M  V30 11540 N 1884.57 1.67126 -2.8339 0
M  V30 11541 C 1884.45 0.401421 -3.30572 0
M  V30 11542 H 1881.47 -0.374722 -8.67691 0
M  V30 11543 H 1881.2 -0.443485 -6.90277 0
M  V30 11544 H 1882.07 1.75537 -7.96793 0
M  V30 11545 P 1886.03 2.75334 -8.47391 0
M  V30 11546 O 1886.25 3.84128 -9.44797 0
M  V30 11547 O 1886.82 1.51947 -8.68712 0
M  V30 11548 O 1886.28 3.29363 -6.99321 0
M  V30 11549 C 1885.34 4.24011 -6.4274 0
M  V30 11550 C 1886.07 5.20775 -5.52155 0
M  V30 11551 O 1886.28 4.56534 -4.22446 0
M  V30 11552 C 1887.47 5.62629 -5.96531 0
M  V30 11553 O 1887.86 6.87667 -5.41053 0
M  V30 11554 C 1888.35 4.52537 -5.39283 0
M  V30 11555 C 1887.64 4.20027 -4.08623 0
M  V30 11556 N 1887.69 2.76189 -3.71603 0
M  V30 11557 H 1884.85 4.797 -7.24003 0
M  V30 11558 H 1884.58 3.69856 -5.84513 0
M  V30 11559 H 1885.45 6.10356 -5.41441 0
M  V30 11560 P 1889.41 7.20834 -5.23717 0
M  V30 11561 O 1889.63 8.66104 -5.38572 0
M  V30 11562 O 1890.2 6.33544 -6.1349 0
M  V30 11563 O 1889.66 6.7751 -3.72168 0
M  V30 11564 C 1888.72 7.20825 -2.7076 0
M  V30 11565 C 1889.45 7.45864 -1.40599 0
M  V30 11566 O 1889.66 6.17651 -0.734225 0
M  V30 11567 C 1890.85 8.05808 -1.51899 0
M  V30 11568 O 1891.24 8.74358 -0.335205 0
M  V30 11569 C 1891.73 6.83093 -1.70294 0
M  V30 11570 C 1891.02 5.79992 -0.836974 0
M  V30 11571 N 1891.07 4.41864 -1.38293 0
M  V30 11572 H 1888.23 8.13644 -3.0377 0
M  V30 11573 H 1887.96 6.42788 -2.55485 0
M  V30 11574 H 1888.83 8.12039 -0.792769 0
M  V30 11575 P 1892.79 8.91 -2.29136e-11 0
M  V30 11576 O 1893.01 10.1726 0.733694 0
M  V30 11577 O 1893.58 8.73148 -1.23936 0
M  V30 11578 O 1893.04 7.66872 0.971405 0
M  V30 11579 C 1892.1 7.42309 2.04641 0
M  V30 11580 C 1892.83 6.86059 3.24661 0
M  V30 11581 O 1893.04 5.42847 3.03646 0
M  V30 11582 C 1894.23 7.41196 3.50753 0
M  V30 11583 O 1894.62 7.27073 4.86816 0
M  V30 11584 C 1895.11 6.5273 2.63741 0
M  V30 11585 C 1894.4 5.1842 2.73198 0
M  V30 11586 N 1894.45 4.38762 1.4784 0
M  V30 11587 H 1891.61 8.36803 2.32493 0
M  V30 11588 H 1891.34 6.70197 1.71129 0
M  V30 11589 H 1892.21 7.03551 4.13168 0
M  V30 11590 P 1896.17 7.20834 5.23717 0
M  V30 11591 O 1896.39 7.80006 6.57415 0
M  V30 11592 O 1896.96 7.79416 4.13051 0
M  V30 11593 O 1896.42 5.63315 5.29344 0
M  V30 11594 C 1895.48 4.80318 6.01954 0
M  V30 11595 C 1896.21 3.64202 6.65911 0
M  V30 11596 O 1896.42 2.60736 5.64823 0
M  V30 11597 C 1897.61 3.93521 7.19518 0
M  V30 11598 O 1898 3.02071 8.21205 0
M  V30 11599 C 1898.49 3.73047 5.97036 0
M  V30 11600 C 1897.78 2.58828 5.25741 0
M  V30 11601 N 1897.83 2.68068 3.77503 0
M  V30 11602 C 1897.75 3.80474 2.99159 0
M  V30 11603 N 1897.82 3.55622 1.71925 0
M  V30 11604 C 1897.97 2.1832 1.65733 0
M  V30 11605 C 1898.1 1.28842 0.572777 0
M  V30 11606 N 1898.11 1.66875 -0.70098 0
M  V30 11607 N 1898.22 -0.016788 0.859836 0
M  V30 11608 C 1898.21 -0.398145 2.13316 0
M  V30 11609 N 1898.09 0.328224 3.22333 0
M  V30 11610 C 1897.97 1.62992 2.90383 0
M  V30 11611 H 1894.99 5.40394 6.8003 0
M  V30 11612 H 1894.72 4.41741 5.32532 0
M  V30 11613 H 1895.59 3.26371 7.47889 0
M  V30 11614 H 1898.24 1.64007 5.56746 0
M  V30 11615 H 1898.52 4.63439 5.3432 0
M  V30 11616 H 1899.51 3.44776 6.25925 0
M  V30 11617 H 1897.68 4.96707 7.57347 0
M  V30 11618 H 1897.64 4.8089 3.39924 0
M  V30 11619 H 1898.02 2.66547 -0.941919 0
M  V30 11620 H 1898.21 0.965341 -1.44766 0
M  V30 11621 H 1898.32 -1.46427 2.29697 0
M  V30 11622 P 1899.55 2.75334 8.47391 0
M  V30 11623 O 1899.77 2.44595 9.90239 0
M  V30 11624 O 1900.34 3.87732 7.92204 0
M  V30 11625 O 1899.8 1.4459 7.59357 0
M  V30 11626 C 1898.86 0.347563 7.69115 0
M  V30 11627 C 1899.59 -0.96767 7.52806 0
M  V30 11628 O 1899.8 -1.21036 6.1011 0
M  V30 11629 C 1900.99 -1.04544 8.13308 0
M  V30 11630 O 1901.38 -2.38311 8.41922 0
M  V30 11631 C 1901.87 -0.491279 7.02284 0
M  V30 11632 C 1901.16 -0.996264 5.77469 0
M  V30 11633 N 1901.21 -0.0501808 4.62873 0
M  V30 11634 C 1901.36 -0.588177 3.36904 0
M  V30 11635 O 1901.45 -1.78598 3.17173 0
M  V30 11636 N 1901.4 0.329694 2.33686 0
M  V30 11637 C 1901.31 1.6953 2.45079 0
M  V30 11638 C 1901.16 2.16933 3.80505 0
M  V30 11639 C 1901.11 1.30326 4.83752 0
M  V30 11640 H 1898.37 0.374722 8.67691 0
M  V30 11641 H 1898.1 0.443421 6.90177 0
M  V30 11642 H 1898.97 -1.75537 7.96793 0
M  V30 11643 H 1901.62 -1.94496 5.46629 0
M  V30 11644 H 1901.9 0.608651 7.04676 0
M  V30 11645 H 1902.89 -0.889672 7.08939 0
M  V30 11646 H 1901.06 -0.43308 9.04564 0
M  V30 11647 H 1900.99 1.68366 5.8516 0
M  V30 11648 P 1902.93 -2.75334 8.47391 0
M  V30 11649 O 1903.15 -3.84166 9.4489 0
M  V30 11650 O 1903.72 -1.51964 8.6881 0
M  V30 11651 O 1903.18 -3.29363 6.99321 0
M  V30 11652 C 1902.24 -4.23956 6.42656 0
M  V30 11653 C 1902.97 -5.20775 5.52155 0
M  V30 11654 O 1903.18 -4.56534 4.22446 0
M  V30 11655 C 1904.37 -5.62629 5.96531 0
M  V30 11656 O 1904.76 -6.87667 5.41053 0
M  V30 11657 C 1905.25 -4.52537 5.39283 0
M  V30 11658 C 1904.54 -4.20027 4.08623 0
M  V30 11659 N 1904.59 -2.7613 3.71522 0
M  V30 11660 C 1904.74 -2.45612 2.37989 0
M  V30 11661 O 1904.83 -3.30919 1.51621 0
M  V30 11662 N 1904.78 -1.10684 2.08435 0
M  V30 11663 C 1904.69 -0.0690084 2.9792 0
M  V30 11664 C 1904.54 -0.481522 4.35345 0
M  V30 11665 C 1904.49 -1.78906 4.67968 0
M  V30 11666 H 1901.75 -4.797 7.24003 0
M  V30 11667 H 1901.48 -3.69802 5.84429 0
M  V30 11668 H 1902.35 -6.10356 5.41441 0
M  V30 11669 H 1905 -4.78651 3.27911 0
M  V30 11670 H 1905.28 -3.64957 6.05871 0
M  V30 11671 H 1906.27 -4.8868 5.2125 0
M  V30 11672 H 1904.44 -5.66726 7.06352 0
M  V30 11673 H 1904.37 -2.07737 5.72367 0
M  V30 11674 P 1906.31 -7.20834 5.23717 0
M  V30 11675 O 1906.53 -8.66274 5.38678 0
M  V30 11676 O 1907.1 -6.33687 6.13629 0
M  V30 11677 O 1906.56 -6.7751 3.72168 0
M  V30 11678 C 1905.62 -7.20919 2.70795 0
M  V30 11679 C 1906.35 -7.45864 1.40599 0
M  V30 11680 O 1906.56 -6.17751 0.734343 0
M  V30 11681 C 1907.75 -8.05906 1.51917 0
M  V30 11682 O 1908.14 -8.74358 0.335205 0
M  V30 11683 C 1908.63 -6.83093 1.70294 0
M  V30 11684 C 1907.92 -5.79992 0.836974 0
M  V30 11685 N 1907.97 -4.41864 1.38293 0
M  V30 11686 C 1907.89 -4.02089 2.69407 0
M  V30 11687 N 1907.96 -2.73403 2.85089 0
M  V30 11688 C 1908.11 -2.25086 1.5642 0
M  V30 11689 C 1908.24 -0.942887 1.04836 0
M  V30 11690 N 1908.25 0.150999 1.80369 0
M  V30 11691 N 1908.36 -0.812565 -0.28167 0
M  V30 11692 C 1908.35 -1.90572 -1.03784 0
M  V30 11693 N 1908.23 -3.167 -0.683905 0
M  V30 11694 C 1908.11 -3.26538 0.652815 0
M  V30 11695 H 1905.13 -8.13738 3.03804 0
M  V30 11696 H 1904.86 -6.42974 2.55559 0
M  V30 11697 H 1905.73 -8.12139 0.792866 0
M  V30 11698 H 1908.38 -5.80178 -0.160643 0
M  V30 11699 H 1908.66 -6.51379 2.75643 0
M  V30 11700 H 1909.65 -7.01832 1.3448 0
M  V30 11701 H 1907.82 -8.73771 2.38364 0
M  V30 11702 H 1907.78 -4.7189 3.52311 0
M  V30 11703 H 1908.16 0.0721434 2.82608 0
M  V30 11704 H 1908.35 1.0785 1.36544 0
M  V30 11705 H 1908.46 -1.73207 -2.10241 0
M  V30 11706 P 1909.69 -8.91 2.40226e-11 0
M  V30 11707 O 1909.91 -10.1746 -0.733838 0
M  V30 11708 O 1910.48 -8.73346 1.23964 0
M  V30 11709 O 1909.94 -7.66872 -0.971405 0
M  V30 11710 C 1909 -7.42405 -2.04668 0
M  V30 11711 C 1909.73 -6.86059 -3.24661 0
M  V30 11712 O 1909.94 -5.42934 -3.03695 0
M  V30 11713 C 1911.13 -7.41287 -3.50796 0
M  V30 11714 O 1911.52 -7.27073 -4.86816 0
M  V30 11715 C 1912.01 -6.5273 -2.63741 0
M  V30 11716 C 1911.3 -5.1842 -2.73198 0
M  V30 11717 N 1911.35 -4.38762 -1.4784 0
M  V30 11718 C 1911.27 -4.83651 -0.183876 0
M  V30 11719 N 1911.34 -3.88759 0.699393 0
M  V30 11720 C 1911.49 -2.7404 -0.0575568 0
M  V30 11721 C 1911.62 -1.37902 0.293928 0
M  V30 11722 N 1911.63 -0.938021 1.54797 0
M  V30 11723 N 1911.74 -0.491817 -0.70549 0
M  V30 11724 C 1911.73 -0.931735 -1.95979 0
M  V30 11725 N 1911.61 -2.16017 -2.41481 0
M  V30 11726 C 1911.49 -3.02547 -1.39121 0
M  V30 11727 H 1908.51 -8.36899 -2.3252 0
M  V30 11728 H 1908.24 -6.70391 -1.71179 0
M  V30 11729 H 1909.11 -7.03638 -4.13219 0
M  V30 11730 H 1911.76 -4.59931 -3.54016 0
M  V30 11731 H 1912.04 -6.88995 -1.59871 0
M  V30 11732 H 1913.03 -6.4684 -3.0373 0
M  V30 11733 H 1911.2 -8.47002 -3.20749 0
M  V30 11734 H 1911.16 -5.8885 0.0765548 0
M  V30 11735 H 1911.54 -1.60276 2.32875 0
M  V30 11736 H 1911.73 0.0699355 1.73859 0
M  V30 11737 H 1911.84 -0.165507 -2.71897 0
M  V30 11738 P 1913.07 -7.20834 -5.23717 0
M  V30 11739 O 1913.29 -7.79853 -6.57286 0
M  V30 11740 O 1913.86 -7.79239 -4.12957 0
M  V30 11741 O 1913.32 -5.63315 -5.29344 0
M  V30 11742 C 1912.38 -4.80255 -6.01876 0
M  V30 11743 C 1913.11 -3.64202 -6.65911 0
M  V30 11744 O 1913.32 -2.60694 -5.64732 0
M  V30 11745 C 1914.51 -3.93473 -7.1943 0
M  V30 11746 O 1914.9 -3.02071 -8.21205 0
M  V30 11747 C 1915.39 -3.73047 -5.97036 0
M  V30 11748 C 1914.68 -2.58828 -5.25741 0
M  V30 11749 N 1914.73 -2.68068 -3.77503 0
M  V30 11750 C 1914.65 -3.79715 -2.96723 0
M  V30 11751 N 1914.73 -3.5377 -1.68852 0
M  V30 11752 C 1914.87 -2.15054 -1.63254 0
M  V30 11753 C 1915 -1.28964 -0.518571 0
M  V30 11754 O 1915.02 -1.56826 0.679156 0
M  V30 11755 N 1915.12 0.0538097 -0.918425 0
M  V30 11756 C 1915.12 0.494275 -2.22578 0
M  V30 11757 N 1915.25 1.81086 -2.40434 0
M  V30 11758 N 1914.99 -0.313645 -3.27502 0
M  V30 11759 C 1914.87 -1.61829 -2.91033 0
M  V30 11760 H 1911.89 -5.40332 -6.79951 0
M  V30 11761 H 1911.62 -4.41613 -5.32378 0
M  V30 11762 H 1912.49 -3.26331 -7.47797 0
M  V30 11763 H 1915.14 -1.63422 -5.56814 0
M  V30 11764 H 1915.42 -4.63374 -5.34244 0
M  V30 11765 H 1916.41 -3.44728 -6.25838 0
M  V30 11766 H 1914.58 -4.96652 -7.57263 0
M  V30 11767 H 1914.53 -4.80617 -3.3614 0
M  V30 11768 H 1915.21 0.742702 -0.199384 0
M  V30 11769 H 1915.25 2.20598 -3.35588 0
M  V30 11770 H 1915.35 2.43518 -1.58945 0
M  V30 11771 P 1916.45 -2.75334 -8.47391 0
M  V30 11772 O 1916.67 -2.44571 -9.90142 0
M  V30 11773 O 1917.24 -3.87688 -7.92115 0
M  V30 11774 O 1916.7 -1.4459 -7.59357 0
M  V30 11775 C 1915.76 -0.347608 -7.69215 0
M  V30 11776 C 1916.49 0.96767 -7.52806 0
M  V30 11777 O 1916.7 1.21036 -6.1011 0
M  V30 11778 C 1917.89 1.04544 -8.13308 0
M  V30 11779 O 1918.28 2.38311 -8.41922 0
M  V30 11780 C 1918.77 0.491279 -7.02284 0
M  V30 11781 C 1918.06 0.996264 -5.77469 0
M  V30 11782 N 1918.11 0.0501916 -4.62973 0
M  V30 11783 H 1915.27 -0.374722 -8.67691 0
M  V30 11784 H 1915 -0.443485 -6.90277 0
M  V30 11785 H 1915.87 1.75537 -7.96793 0
M  V30 11786 P 1919.83 2.75334 -8.47391 0
M  V30 11787 O 1920.05 3.84204 -9.44982 0
M  V30 11788 O 1920.62 1.51982 -8.68909 0
M  V30 11789 O 1920.08 3.29363 -6.99321 0
M  V30 11790 C 1919.14 4.24066 -6.42823 0
M  V30 11791 C 1919.87 5.20775 -5.52155 0
M  V30 11792 O 1920.08 4.56607 -4.22514 0
M  V30 11793 C 1921.27 5.62697 -5.96604 0
M  V30 11794 O 1921.66 6.87667 -5.41053 0
M  V30 11795 C 1922.15 4.52537 -5.39283 0
M  V30 11796 C 1921.44 4.20027 -4.08623 0
M  V30 11797 N 1921.49 2.76189 -3.71603 0
M  V30 11798 C 1921.41 1.66944 -4.54297 0
M  V30 11799 N 1921.48 0.536169 -3.91344 0
M  V30 11800 C 1921.63 0.901569 -2.58849 0
M  V30 11801 C 1921.76 0.146599 -1.40236 0
M  V30 11802 N 1921.77 -1.18234 -1.37046 0
M  V30 11803 N 1921.88 0.822941 -0.249738 0
M  V30 11804 C 1921.87 2.15179 -0.280525 0
M  V30 11805 N 1921.75 2.96414 -1.30822 0
M  V30 11806 C 1921.63 2.25804 -2.44748 0
M  V30 11807 H 1918.65 4.79756 -7.24086 0
M  V30 11808 H 1918.38 3.69963 -5.84682 0
M  V30 11809 H 1919.25 6.10431 -5.41508 0
M  V30 11810 H 1921.9 4.78816 -3.28024 0
M  V30 11811 H 1922.18 3.64957 -6.05871 0
M  V30 11812 H 1923.17 4.88748 -5.21323 0
M  V30 11813 H 1921.34 5.66789 -7.0643 0
M  V30 11814 H 1921.3 1.74684 -5.62396 0
M  V30 11815 H 1921.68 -1.71949 -2.24394 0
M  V30 11816 H 1921.87 -1.67511 -0.470742 0
M  V30 11817 H 1921.98 2.63704 0.6828 0
M  V30 11818 P 1923.21 7.20834 -5.23717 0
M  V30 11819 O 1923.43 8.66104 -5.38572 0
M  V30 11820 O 1924 6.33544 -6.1349 0
M  V30 11821 O 1923.46 6.7751 -3.72168 0
M  V30 11822 C 1922.52 7.20825 -2.7076 0
M  V30 11823 C 1923.25 7.45864 -1.40599 0
M  V30 11824 O 1923.46 6.17651 -0.734225 0
M  V30 11825 C 1924.65 8.05808 -1.51899 0
M  V30 11826 O 1925.04 8.74358 -0.335205 0
M  V30 11827 C 1925.53 6.83093 -1.70294 0
M  V30 11828 C 1924.82 5.79992 -0.836974 0
M  V30 11829 N 1924.87 4.41864 -1.38293 0
M  V30 11830 H 1922.03 8.13644 -3.0377 0
M  V30 11831 H 1921.76 6.42788 -2.55485 0
M  V30 11832 H 1922.63 8.12039 -0.792769 0
M  V30 11833 P 1926.59 8.91 -2.51316e-11 0
M  V30 11834 O 1926.81 10.1726 0.733694 0
M  V30 11835 O 1927.38 8.73148 -1.23936 0
M  V30 11836 O 1926.84 7.66872 0.971405 0
M  V30 11837 C 1925.9 7.42309 2.04641 0
M  V30 11838 C 1926.63 6.86059 3.24661 0
M  V30 11839 O 1926.84 5.42847 3.03646 0
M  V30 11840 C 1928.03 7.41196 3.50753 0
M  V30 11841 O 1928.42 7.27073 4.86816 0
M  V30 11842 C 1928.91 6.5273 2.63741 0
M  V30 11843 C 1928.2 5.1842 2.73198 0
M  V30 11844 N 1928.25 4.38762 1.4784 0
M  V30 11845 C 1928.17 4.81605 0.168631 0
M  V30 11846 N 1928.25 3.85454 -0.713363 0
M  V30 11847 C 1928.39 2.6994 0.0566958 0
M  V30 11848 C 1928.52 1.34815 -0.338502 0
M  V30 11849 N 1928.64 0.496304 0.77465 0
M  V30 11850 C 1928.64 0.908403 2.09122 0
M  V30 11851 N 1928.77 -0.0517805 3.00955 0
M  V30 11852 N 1928.51 2.17875 2.46519 0
M  V30 11853 C 1928.39 3.01988 1.4033 0
M  V30 11854 H 1925.41 8.36803 2.32493 0
M  V30 11855 H 1925.14 6.70197 1.71129 0
M  V30 11856 H 1926.01 7.03551 4.13168 0
M  V30 11857 P 1929.97 7.20834 5.23717 0
M  V30 11858 O 1930.19 7.79853 6.57286 0
M  V30 11859 O 1930.76 7.79239 4.12957 0
M  V30 11860 O 1930.22 5.63315 5.29344 0
M  V30 11861 C 1929.28 4.80255 6.01876 0
M  V30 11862 C 1930.01 3.64202 6.65911 0
M  V30 11863 O 1930.22 2.60694 5.64732 0
M  V30 11864 C 1931.41 3.93473 7.1943 0
M  V30 11865 O 1931.8 3.02071 8.21205 0
M  V30 11866 C 1932.29 3.73047 5.97036 0
M  V30 11867 C 1931.58 2.58828 5.25741 0
M  V30 11868 N 1931.63 2.68068 3.77503 0
M  V30 11869 C 1931.55 3.79715 2.96723 0
M  V30 11870 N 1931.63 3.5377 1.68852 0
M  V30 11871 C 1931.77 2.15054 1.63254 0
M  V30 11872 C 1931.9 1.28964 0.518571 0
M  V30 11873 O 1931.92 1.56826 -0.679156 0
M  V30 11874 N 1932.02 -0.0538097 0.918425 0
M  V30 11875 C 1932.02 -0.494275 2.22578 0
M  V30 11876 N 1932.15 -1.81086 2.40434 0
M  V30 11877 N 1931.89 0.313645 3.27502 0
M  V30 11878 C 1931.77 1.61829 2.91033 0
M  V30 11879 H 1928.79 5.40332 6.79951 0
M  V30 11880 H 1928.52 4.41613 5.32378 0
M  V30 11881 H 1929.39 3.26331 7.47797 0
M  V30 11882 H 1932.04 1.63422 5.56814 0
M  V30 11883 H 1932.32 4.63374 5.34244 0
M  V30 11884 H 1933.31 3.44728 6.25838 0
M  V30 11885 H 1931.48 4.96652 7.57263 0
M  V30 11886 H 1931.43 4.80617 3.3614 0
M  V30 11887 H 1932.11 -0.742702 0.199384 0
M  V30 11888 H 1932.15 -2.20598 3.35588 0
M  V30 11889 H 1932.25 -2.43518 1.58945 0
M  V30 11890 P 1933.35 2.75334 8.47391 0
M  V30 11891 O 1933.57 2.44571 9.90142 0
M  V30 11892 O 1934.14 3.87688 7.92115 0
M  V30 11893 O 1933.6 1.4459 7.59357 0
M  V30 11894 C 1932.66 0.347608 7.69215 0
M  V30 11895 C 1933.39 -0.96767 7.52806 0
M  V30 11896 O 1933.6 -1.21036 6.1011 0
M  V30 11897 C 1934.79 -1.04544 8.13308 0
M  V30 11898 O 1935.18 -2.38311 8.41922 0
M  V30 11899 C 1935.67 -0.491279 7.02284 0
M  V30 11900 C 1934.96 -0.996264 5.77469 0
M  V30 11901 N 1935.01 -0.0501916 4.62973 0
M  V30 11902 H 1932.17 0.374722 8.67691 0
M  V30 11903 H 1931.9 0.443485 6.90277 0
M  V30 11904 H 1932.77 -1.75537 7.96793 0
M  V30 11905 P 1936.73 -2.75334 8.47391 0
M  V30 11906 O 1936.95 -3.84128 9.44797 0
M  V30 11907 O 1937.52 -1.51947 8.68712 0
M  V30 11908 O 1936.98 -3.29363 6.99321 0
M  V30 11909 C 1936.04 -4.24011 6.4274 0
M  V30 11910 C 1936.77 -5.20775 5.52155 0
M  V30 11911 O 1936.98 -4.56534 4.22446 0
M  V30 11912 C 1938.17 -5.62629 5.96531 0
M  V30 11913 O 1938.56 -6.87667 5.41053 0
M  V30 11914 C 1939.05 -4.52537 5.39283 0
M  V30 11915 C 1938.34 -4.20027 4.08623 0
M  V30 11916 N 1938.39 -2.76189 3.71603 0
M  V30 11917 H 1935.55 -4.797 7.24003 0
M  V30 11918 H 1935.28 -3.69856 5.84513 0
M  V30 11919 H 1936.15 -6.10356 5.41441 0
M  V30 11920 P 1940.11 -7.20834 5.23717 0
M  V30 11921 O 1940.33 -8.66104 5.38572 0
M  V30 11922 O 1940.9 -6.33544 6.1349 0
M  V30 11923 O 1940.36 -6.7751 3.72168 0
M  V30 11924 C 1939.42 -7.20825 2.7076 0
M  V30 11925 C 1940.15 -7.45864 1.40599 0
M  V30 11926 O 1940.36 -6.17651 0.734225 0
M  V30 11927 C 1941.55 -8.05808 1.51899 0
M  V30 11928 O 1941.94 -8.74358 0.335205 0
M  V30 11929 C 1942.43 -6.83093 1.70294 0
M  V30 11930 C 1941.72 -5.79992 0.836974 0
M  V30 11931 N 1941.77 -4.41864 1.38293 0
M  V30 11932 C 1941.69 -3.99538 2.69438 0
M  V30 11933 N 1941.77 -2.69909 2.84277 0
M  V30 11934 C 1941.91 -2.21719 1.5408 0
M  V30 11935 C 1942.04 -0.891712 1.06628 0
M  V30 11936 O 1942.06 0.161298 1.70137 0
M  V30 11937 N 1942.16 -0.856846 -0.334985 0
M  V30 11938 C 1942.16 -1.9641 -1.15789 0
M  V30 11939 N 1942.29 -1.72708 -2.46522 0
M  V30 11940 N 1942.03 -3.21165 -0.713741 0
M  V30 11941 C 1941.91 -3.26797 0.639748 0
M  V30 11942 H 1938.93 -8.13644 3.0377 0
M  V30 11943 H 1938.66 -6.42788 2.55485 0
M  V30 11944 H 1939.53 -8.12039 0.792769 0
M  V30 11945 H 1942.18 -5.80061 -0.166416 0
M  V30 11946 H 1942.46 -6.51287 2.75604 0
M  V30 11947 H 1943.45 -7.01734 1.34462 0
M  V30 11948 H 1941.62 -8.73674 2.38337 0
M  V30 11949 H 1941.57 -4.68207 3.53221 0
M  V30 11950 H 1942.25 0.0398818 -0.767965 0
M  V30 11951 H 1942.29 -2.50995 -3.13503 0
M  V30 11952 H 1942.39 -0.759148 -2.80716 0
M  V30 11953 P 1943.49 -8.91 2.62406e-11 0
M  V30 11954 O 1943.71 -10.1726 -0.733694 0
M  V30 11955 O 1944.28 -8.73148 1.23936 0
M  V30 11956 O 1943.74 -7.66872 -0.971405 0
M  V30 11957 C 1942.8 -7.42309 -2.04641 0
M  V30 11958 C 1943.53 -6.86059 -3.24661 0
M  V30 11959 O 1943.74 -5.42847 -3.03646 0
M  V30 11960 C 1944.93 -7.41196 -3.50753 0
M  V30 11961 O 1945.32 -7.27073 -4.86816 0
M  V30 11962 C 1945.81 -6.5273 -2.63741 0
M  V30 11963 C 1945.1 -5.1842 -2.73198 0
M  V30 11964 N 1945.15 -4.38762 -1.4784 0
M  V30 11965 H 1942.31 -8.36803 -2.32493 0
M  V30 11966 H 1942.04 -6.70197 -1.71129 0
M  V30 11967 H 1942.91 -7.03551 -4.13168 0
M  V30 11968 P 1946.87 -7.20834 -5.23717 0
M  V30 11969 O 1947.09 -7.7993 -6.57351 0
M  V30 11970 O 1947.66 -7.79328 -4.13004 0
M  V30 11971 O 1947.12 -5.63315 -5.29344 0
M  V30 11972 C 1946.18 -4.80193 -6.01798 0
M  V30 11973 C 1946.91 -3.64202 -6.65911 0
M  V30 11974 O 1947.12 -2.60694 -5.64732 0
M  V30 11975 C 1948.31 -3.93473 -7.1943 0
M  V30 11976 O 1948.7 -3.02071 -8.21205 0
M  V30 11977 C 1949.19 -3.73047 -5.97036 0
M  V30 11978 C 1948.48 -2.58828 -5.25741 0
M  V30 11979 N 1948.53 -2.6801 -3.77422 0
M  V30 11980 C 1948.68 -1.50443 -3.07133 0
M  V30 11981 O 1948.77 -0.419406 -3.61576 0
M  V30 11982 N 1948.72 -1.6403 -1.69677 0
M  V30 11983 C 1948.63 -2.81206 -0.986255 0
M  V30 11984 C 1948.48 -3.99158 -1.80325 0
M  V30 11985 C 1948.43 -3.89779 -3.1476 0
M  V30 11986 H 1945.69 -5.40332 -6.79951 0
M  V30 11987 H 1945.42 -4.41549 -5.32301 0
M  V30 11988 H 1946.29 -3.26331 -7.47797 0
M  V30 11989 H 1948.94 -1.6395 -5.56554 0
M  V30 11990 H 1949.22 -4.63439 -5.3432 0
M  V30 11991 H 1950.21 -3.44728 -6.25838 0
M  V30 11992 H 1948.38 -4.96652 -7.57263 0
M  V30 11993 H 1948.31 -4.80159 -3.74441 0
M  V30 11994 P 1950.25 -2.75334 -8.47391 0
M  V30 11995 O 1950.47 -2.44595 -9.90239 0
M  V30 11996 O 1951.04 -3.87732 -7.92204 0
M  V30 11997 O 1950.5 -1.4459 -7.59357 0
M  V30 11998 C 1949.56 -0.347608 -7.69215 0
M  V30 11999 C 1950.29 0.96767 -7.52806 0
M  V30 12000 O 1950.5 1.21036 -6.1011 0
M  V30 12001 C 1951.69 1.04544 -8.13308 0
M  V30 12002 O 1952.08 2.38311 -8.41922 0
M  V30 12003 C 1952.57 0.491279 -7.02284 0
M  V30 12004 C 1951.86 0.996264 -5.77469 0
M  V30 12005 N 1951.91 0.0501808 -4.62873 0
M  V30 12006 C 1952.06 0.578037 -3.3505 0
M  V30 12007 O 1952.15 1.8073 -3.21711 0
M  V30 12008 N 1952.11 -0.468541 -2.263 0
M  V30 12009 C 1952.01 -1.59186 -2.47176 0
M  V30 12010 N 1952.06 -2.37626 -1.40392 0
M  V30 12011 C 1951.86 -2.16203 -3.77467 0
M  V30 12012 C 1951.81 -1.29324 -4.8195 0
M  V30 12013 H 1949.07 -0.374679 -8.67591 0
M  V30 12014 H 1948.8 -0.443421 -6.90177 0
M  V30 12015 H 1949.67 1.75559 -7.96891 0
M  V30 12016 H 1952.32 1.94529 -5.46723 0
M  V30 12017 H 1952.6 -0.608651 -7.04676 0
M  V30 12018 H 1953.59 0.889672 -7.08939 0
M  V30 12019 H 1951.76 0.43308 -9.04564 0
M  V30 12020 H 1951.69 -1.67758 -5.83046 0
M  V30 12021 H 1951.79 -3.23869 -3.92281 0
M  V30 12022 H 1952.18 -1.96317 -0.467202 0
M  V30 12023 H 1951.98 -3.39693 -1.51142 0
M  V30 12024 P 1953.63 2.75334 -8.47391 0
M  V30 12025 O 1953.85 3.84128 -9.44797 0
M  V30 12026 O 1954.42 1.51947 -8.68712 0
M  V30 12027 O 1953.88 3.29363 -6.99321 0
M  V30 12028 C 1952.94 4.24011 -6.4274 0
M  V30 12029 C 1953.67 5.20775 -5.52155 0
M  V30 12030 O 1953.88 4.56534 -4.22446 0
M  V30 12031 C 1955.07 5.62629 -5.96531 0
M  V30 12032 O 1955.46 6.87667 -5.41053 0
M  V30 12033 C 1955.95 4.52537 -5.39283 0
M  V30 12034 C 1955.24 4.20027 -4.08623 0
M  V30 12035 N 1955.29 2.76189 -3.71603 0
M  V30 12036 H 1952.45 4.797 -7.24003 0
M  V30 12037 H 1952.18 3.69856 -5.84513 0
M  V30 12038 H 1953.05 6.10356 -5.41441 0
M  V30 12039 P 1957.01 7.20834 -5.23717 0
M  V30 12040 O 1957.23 8.66104 -5.38572 0
M  V30 12041 O 1957.8 6.33544 -6.1349 0
M  V30 12042 O 1957.26 6.7751 -3.72168 0
M  V30 12043 C 1956.32 7.20825 -2.7076 0
M  V30 12044 C 1957.05 7.45864 -1.40599 0
M  V30 12045 O 1957.26 6.17651 -0.734225 0
M  V30 12046 C 1958.45 8.05808 -1.51899 0
M  V30 12047 O 1958.84 8.74358 -0.335205 0
M  V30 12048 C 1959.33 6.83093 -1.70294 0
M  V30 12049 C 1958.62 5.79992 -0.836974 0
M  V30 12050 N 1958.67 4.41864 -1.38293 0
M  V30 12051 H 1955.83 8.13644 -3.0377 0
M  V30 12052 H 1955.56 6.42788 -2.55485 0
M  V30 12053 H 1956.43 8.12039 -0.792769 0
M  V30 12054 P 1960.39 8.91 -2.73496e-11 0
M  V30 12055 O 1960.61 10.1726 0.733694 0
M  V30 12056 O 1961.18 8.73148 -1.23936 0
M  V30 12057 O 1960.64 7.66872 0.971405 0
M  V30 12058 C 1959.7 7.42309 2.04641 0
M  V30 12059 C 1960.43 6.86059 3.24661 0
M  V30 12060 O 1960.64 5.42847 3.03646 0
M  V30 12061 C 1961.83 7.41196 3.50753 0
M  V30 12062 O 1962.22 7.27073 4.86816 0
M  V30 12063 C 1962.71 6.5273 2.63741 0
M  V30 12064 C 1962 5.1842 2.73198 0
M  V30 12065 N 1962.05 4.38762 1.4784 0
M  V30 12066 H 1959.21 8.36803 2.32493 0
M  V30 12067 H 1958.94 6.70197 1.71129 0
M  V30 12068 H 1959.81 7.03551 4.13168 0
M  V30 12069 P 1963.77 7.20834 5.23717 0
M  V30 12070 O 1963.99 7.79853 6.57286 0
M  V30 12071 O 1964.56 7.79239 4.12957 0
M  V30 12072 O 1964.02 5.63315 5.29344 0
M  V30 12073 C 1963.08 4.80255 6.01876 0
M  V30 12074 C 1963.81 3.64202 6.65911 0
M  V30 12075 O 1964.02 2.60694 5.64732 0
M  V30 12076 C 1965.21 3.93473 7.1943 0
M  V30 12077 O 1965.6 3.02071 8.21205 0
M  V30 12078 C 1966.09 3.73047 5.97036 0
M  V30 12079 C 1965.38 2.58828 5.25741 0
M  V30 12080 N 1965.43 2.68068 3.77503 0
M  V30 12081 H 1962.59 5.40332 6.79951 0
M  V30 12082 H 1962.32 4.41613 5.32378 0
M  V30 12083 H 1963.19 3.26331 7.47797 0
M  V30 12084 P 1967.15 2.75334 8.47391 0
M  V30 12085 O 1967.37 2.44571 9.90142 0
M  V30 12086 O 1967.94 3.87688 7.92115 0
M  V30 12087 O 1967.4 1.4459 7.59357 0
M  V30 12088 C 1966.46 0.347608 7.69215 0
M  V30 12089 C 1967.19 -0.96767 7.52806 0
M  V30 12090 O 1967.4 -1.21036 6.1011 0
M  V30 12091 C 1968.59 -1.04544 8.13308 0
M  V30 12092 O 1968.98 -2.38311 8.41922 0
M  V30 12093 C 1969.47 -0.491279 7.02284 0
M  V30 12094 C 1968.76 -0.996264 5.77469 0
M  V30 12095 N 1968.81 -0.0501916 4.62973 0
M  V30 12096 H 1965.97 0.374722 8.67691 0
M  V30 12097 H 1965.7 0.443485 6.90277 0
M  V30 12098 H 1966.57 -1.75537 7.96793 0
M  V30 12099 P 1970.53 -2.75334 8.47391 0
M  V30 12100 O 1970.75 -3.84128 9.44797 0
M  V30 12101 O 1971.32 -1.51947 8.68712 0
M  V30 12102 O 1970.78 -3.29363 6.99321 0
M  V30 12103 C 1969.84 -4.24011 6.4274 0
M  V30 12104 C 1970.57 -5.20775 5.52155 0
M  V30 12105 O 1970.78 -4.56534 4.22446 0
M  V30 12106 C 1971.97 -5.62629 5.96531 0
M  V30 12107 O 1972.36 -6.87667 5.41053 0
M  V30 12108 C 1972.85 -4.52537 5.39283 0
M  V30 12109 C 1972.14 -4.20027 4.08623 0
M  V30 12110 N 1972.19 -2.76189 3.71603 0
M  V30 12111 H 1969.35 -4.797 7.24003 0
M  V30 12112 H 1969.08 -3.69856 5.84513 0
M  V30 12113 H 1969.95 -6.10356 5.41441 0
M  V30 12114 P 1973.91 -7.20834 5.23717 0
M  V30 12115 O 1974.13 -8.66104 5.38572 0
M  V30 12116 O 1974.7 -6.33544 6.1349 0
M  V30 12117 O 1974.16 -6.7751 3.72168 0
M  V30 12118 C 1973.22 -7.20825 2.7076 0
M  V30 12119 C 1973.95 -7.45864 1.40599 0
M  V30 12120 O 1974.16 -6.17651 0.734225 0
M  V30 12121 C 1975.35 -8.05808 1.51899 0
M  V30 12122 O 1975.74 -8.74358 0.335205 0
M  V30 12123 C 1976.23 -6.83093 1.70294 0
M  V30 12124 C 1975.52 -5.79992 0.836974 0
M  V30 12125 N 1975.57 -4.41864 1.38293 0
M  V30 12126 H 1972.73 -8.13644 3.0377 0
M  V30 12127 H 1972.46 -6.42788 2.55485 0
M  V30 12128 H 1973.33 -8.12039 0.792769 0
M  V30 12129 P 1977.29 -8.91 2.84586e-11 0
M  V30 12130 O 1977.51 -10.1726 -0.733694 0
M  V30 12131 O 1978.08 -8.73148 1.23936 0
M  V30 12132 O 1977.54 -7.66872 -0.971405 0
M  V30 12133 C 1976.6 -7.42309 -2.04641 0
M  V30 12134 C 1977.33 -6.86059 -3.24661 0
M  V30 12135 O 1977.54 -5.42847 -3.03646 0
M  V30 12136 C 1978.73 -7.41196 -3.50753 0
M  V30 12137 O 1979.12 -7.27073 -4.86816 0
M  V30 12138 C 1979.61 -6.5273 -2.63741 0
M  V30 12139 C 1978.9 -5.1842 -2.73198 0
M  V30 12140 N 1978.95 -4.38762 -1.4784 0
M  V30 12141 C 1978.87 -4.81605 -0.168631 0
M  V30 12142 N 1978.95 -3.85454 0.713363 0
M  V30 12143 C 1979.09 -2.6994 -0.0566958 0
M  V30 12144 C 1979.22 -1.34815 0.338502 0
M  V30 12145 O 1979.24 -0.869548 1.47125 0
M  V30 12146 N 1979.34 -0.496304 -0.77465 0
M  V30 12147 C 1979.34 -0.908403 -2.09122 0
M  V30 12148 N 1979.47 0.0517805 -3.00955 0
M  V30 12149 N 1979.21 -2.17875 -2.46519 0
M  V30 12150 C 1979.09 -3.01988 -1.4033 0
M  V30 12151 H 1976.11 -8.36803 -2.32493 0
M  V30 12152 H 1975.84 -6.70197 -1.71129 0
M  V30 12153 H 1976.71 -7.03551 -4.13168 0
M  V30 12154 H 1979.36 -4.59498 -3.54415 0
M  V30 12155 H 1979.64 -6.88898 -1.59848 0
M  V30 12156 H 1980.63 -6.46749 -3.03687 0
M  V30 12157 H 1978.8 -8.46908 -3.20714 0
M  V30 12158 H 1978.75 -5.86405 0.105564 0
M  V30 12159 H 1979.43 0.483664 -0.597855 0
M  V30 12160 H 1979.47 -0.187865 -4.0116 0
M  V30 12161 H 1979.57 1.03585 -2.71726 0
M  V30 12162 P 1980.67 -7.20834 -5.23717 0
M  V30 12163 O 1980.89 -7.79853 -6.57286 0
M  V30 12164 O 1981.46 -7.79239 -4.12957 0
M  V30 12165 O 1980.92 -5.63315 -5.29344 0
M  V30 12166 C 1979.98 -4.80255 -6.01876 0
M  V30 12167 C 1980.71 -3.64202 -6.65911 0
M  V30 12168 O 1980.92 -2.60694 -5.64732 0
M  V30 12169 C 1982.11 -3.93473 -7.1943 0
M  V30 12170 O 1982.5 -3.02071 -8.21205 0
M  V30 12171 C 1982.99 -3.73047 -5.97036 0
M  V30 12172 C 1982.28 -2.58828 -5.25741 0
M  V30 12173 N 1982.33 -2.68068 -3.77503 0
M  V30 12174 H 1979.49 -5.40332 -6.79951 0
M  V30 12175 H 1979.22 -4.41613 -5.32378 0
M  V30 12176 H 1980.09 -3.26331 -7.47797 0
M  V30 12177 P 1984.05 -2.75334 -8.47391 0
M  V30 12178 O 1984.27 -2.44571 -9.90142 0
M  V30 12179 O 1984.84 -3.87688 -7.92115 0
M  V30 12180 O 1984.3 -1.4459 -7.59357 0
M  V30 12181 C 1983.36 -0.347608 -7.69215 0
M  V30 12182 C 1984.09 0.96767 -7.52806 0
M  V30 12183 O 1984.3 1.21036 -6.1011 0
M  V30 12184 C 1985.49 1.04544 -8.13308 0
M  V30 12185 O 1985.88 2.38311 -8.41922 0
M  V30 12186 C 1986.37 0.491279 -7.02284 0
M  V30 12187 C 1985.66 0.996264 -5.77469 0
M  V30 12188 N 1985.71 0.0501916 -4.62973 0
M  V30 12189 H 1982.87 -0.374722 -8.67691 0
M  V30 12190 H 1982.6 -0.443485 -6.90277 0
M  V30 12191 H 1983.47 1.75537 -7.96793 0
M  V30 12192 P 1987.43 2.75334 -8.47391 0
M  V30 12193 O 1987.65 3.84128 -9.44797 0
M  V30 12194 O 1988.22 1.51947 -8.68712 0
M  V30 12195 O 1987.68 3.29363 -6.99321 0
M  V30 12196 C 1986.74 4.24011 -6.4274 0
M  V30 12197 C 1987.47 5.20775 -5.52155 0
M  V30 12198 O 1987.68 4.56534 -4.22446 0
M  V30 12199 C 1988.87 5.62629 -5.96531 0
M  V30 12200 O 1989.26 6.87667 -5.41053 0
M  V30 12201 C 1989.75 4.52537 -5.39283 0
M  V30 12202 C 1989.04 4.20027 -4.08623 0
M  V30 12203 N 1989.09 2.76189 -3.71603 0
M  V30 12204 H 1986.25 4.797 -7.24003 0
M  V30 12205 H 1985.98 3.69856 -5.84513 0
M  V30 12206 H 1986.85 6.10356 -5.41441 0
M  V30 12207 P 1990.81 7.20834 -5.23717 0
M  V30 12208 O 1991.03 8.66104 -5.38572 0
M  V30 12209 O 1991.6 6.33544 -6.1349 0
M  V30 12210 O 1991.06 6.7751 -3.72168 0
M  V30 12211 C 1990.12 7.20825 -2.7076 0
M  V30 12212 C 1990.85 7.45864 -1.40599 0
M  V30 12213 O 1991.06 6.17651 -0.734225 0
M  V30 12214 C 1992.25 8.05808 -1.51899 0
M  V30 12215 O 1992.64 8.74358 -0.335205 0
M  V30 12216 C 1993.13 6.83093 -1.70294 0
M  V30 12217 C 1992.42 5.79992 -0.836974 0
M  V30 12218 N 1992.47 4.41864 -1.38293 0
M  V30 12219 H 1989.63 8.13644 -3.0377 0
M  V30 12220 H 1989.36 6.42788 -2.55485 0
M  V30 12221 H 1990.23 8.12039 -0.792769 0
M  V30 12222 P 1994.19 8.91 -2.95676e-11 0
M  V30 12223 O 1994.41 10.1726 0.733694 0
M  V30 12224 O 1994.98 8.73148 -1.23936 0
M  V30 12225 O 1994.44 7.66872 0.971405 0
M  V30 12226 C 1993.5 7.42309 2.04641 0
M  V30 12227 C 1994.23 6.86059 3.24661 0
M  V30 12228 O 1994.44 5.42847 3.03646 0
M  V30 12229 C 1995.63 7.41196 3.50753 0
M  V30 12230 O 1996.02 7.27073 4.86816 0
M  V30 12231 C 1996.51 6.5273 2.63741 0
M  V30 12232 C 1995.8 5.1842 2.73198 0
M  V30 12233 N 1995.85 4.38762 1.4784 0
M  V30 12234 H 1993.01 8.36803 2.32493 0
M  V30 12235 H 1992.74 6.70197 1.71129 0
M  V30 12236 H 1993.61 7.03551 4.13168 0
M  V30 12237 P 1997.57 7.20834 5.23717 0
M  V30 12238 O 1997.79 7.79853 6.57286 0
M  V30 12239 O 1998.36 7.79239 4.12957 0
M  V30 12240 O 1997.82 5.63315 5.29344 0
M  V30 12241 C 1996.88 4.80255 6.01876 0
M  V30 12242 C 1997.61 3.64202 6.65911 0
M  V30 12243 O 1997.82 2.60694 5.64732 0
M  V30 12244 C 1999.01 3.93473 7.1943 0
M  V30 12245 O 1999.4 3.02071 8.21205 0
M  V30 12246 C 1999.89 3.73047 5.97036 0
M  V30 12247 C 1999.18 2.58828 5.25741 0
M  V30 12248 N 1999.23 2.68068 3.77503 0
M  V30 12249 H 1996.39 5.40332 6.79951 0
M  V30 12250 H 1996.12 4.41613 5.32378 0
M  V30 12251 H 1996.99 3.26331 7.47797 0
M  V30 12252 P 2000.95 2.75334 8.47391 0
M  V30 12253 O 2001.17 2.44571 9.90142 0
M  V30 12254 O 2001.74 3.87688 7.92115 0
M  V30 12255 O 2001.2 1.4459 7.59357 0
M  V30 12256 C 2000.26 0.347608 7.69215 0
M  V30 12257 C 2000.99 -0.96767 7.52806 0
M  V30 12258 O 2001.2 -1.21036 6.1011 0
M  V30 12259 C 2002.39 -1.04544 8.13308 0
M  V30 12260 O 2002.78 -2.38311 8.41922 0
M  V30 12261 C 2003.27 -0.491279 7.02284 0
M  V30 12262 C 2002.56 -0.996264 5.77469 0
M  V30 12263 N 2002.61 -0.0501916 4.62973 0
M  V30 12264 H 1999.77 0.374722 8.67691 0
M  V30 12265 H 1999.5 0.443485 6.90277 0
M  V30 12266 H 2000.37 -1.75537 7.96793 0
M  V30 12267 P 2004.33 -2.75334 8.47391 0
M  V30 12268 O 2004.55 -3.84128 9.44797 0
M  V30 12269 O 2005.12 -1.51947 8.68712 0
M  V30 12270 O 2004.58 -3.29363 6.99321 0
M  V30 12271 C 2003.64 -4.24011 6.4274 0
M  V30 12272 C 2004.37 -5.20775 5.52155 0
M  V30 12273 O 2004.58 -4.56534 4.22446 0
M  V30 12274 C 2005.77 -5.62629 5.96531 0
M  V30 12275 O 2006.16 -6.87667 5.41053 0
M  V30 12276 C 2006.65 -4.52537 5.39283 0
M  V30 12277 C 2005.94 -4.20027 4.08623 0
M  V30 12278 N 2005.99 -2.76189 3.71603 0
M  V30 12279 H 2003.15 -4.797 7.24003 0
M  V30 12280 H 2002.88 -3.69856 5.84513 0
M  V30 12281 H 2003.75 -6.10356 5.41441 0
M  V30 12282 P 2007.71 -7.20834 5.23717 0
M  V30 12283 O 2007.93 -8.66274 5.38678 0
M  V30 12284 O 2008.5 -6.33687 6.13629 0
M  V30 12285 O 2007.96 -6.7751 3.72168 0
M  V30 12286 C 2007.02 -7.20919 2.70795 0
M  V30 12287 C 2007.75 -7.45864 1.40599 0
M  V30 12288 O 2007.96 -6.17751 0.734343 0
M  V30 12289 C 2009.15 -8.05906 1.51917 0
M  V30 12290 O 2009.54 -8.74358 0.335205 0
M  V30 12291 C 2010.03 -6.83093 1.70294 0
M  V30 12292 C 2009.32 -5.79992 0.836974 0
M  V30 12293 N 2009.37 -4.41864 1.38293 0
M  V30 12294 H 2006.53 -8.13738 3.03804 0
M  V30 12295 H 2006.26 -6.42974 2.55559 0
M  V30 12296 H 2007.13 -8.12139 0.792866 0
M  V30 12297 H 2009.78 -5.80178 -0.160643 0
M  V30 12298 H 2010.06 -6.51379 2.75643 0
M  V30 12299 H 2011.05 -7.01832 1.3448 0
M  V30 12300 H 2009.22 -8.73771 2.38364 0
M  V30 12301 P 2011.09 -8.91 3.06766e-11 0
M  V30 12302 O 2011.31 -10.1726 -0.733694 0
M  V30 12303 O 2011.88 -8.73148 1.23936 0
M  V30 12304 O 2011.34 -7.66872 -0.971405 0
M  V30 12305 C 2010.4 -7.42309 -2.04641 0
M  V30 12306 C 2011.13 -6.86059 -3.24661 0
M  V30 12307 O 2011.34 -5.42847 -3.03646 0
M  V30 12308 C 2012.53 -7.41196 -3.50753 0
M  V30 12309 O 2012.92 -7.27073 -4.86816 0
M  V30 12310 C 2013.41 -6.5273 -2.63741 0
M  V30 12311 C 2012.7 -5.1842 -2.73198 0
M  V30 12312 N 2012.75 -4.38762 -1.4784 0
M  V30 12313 H 2009.91 -8.36803 -2.32493 0
M  V30 12314 H 2009.64 -6.70197 -1.71129 0
M  V30 12315 H 2010.51 -7.03551 -4.13168 0
M  V30 12316 P 2014.47 -7.20834 -5.23717 0
M  V30 12317 O 2014.69 -7.79853 -6.57286 0
M  V30 12318 O 2015.26 -7.79239 -4.12957 0
M  V30 12319 O 2014.72 -5.63315 -5.29344 0
M  V30 12320 C 2013.78 -4.80255 -6.01876 0
M  V30 12321 C 2014.51 -3.64202 -6.65911 0
M  V30 12322 O 2014.72 -2.60694 -5.64732 0
M  V30 12323 C 2015.91 -3.93473 -7.1943 0
M  V30 12324 O 2016.3 -3.02071 -8.21205 0
M  V30 12325 C 2016.79 -3.73047 -5.97036 0
M  V30 12326 C 2016.08 -2.58828 -5.25741 0
M  V30 12327 N 2016.13 -2.68068 -3.77503 0
M  V30 12328 H 2013.29 -5.40332 -6.79951 0
M  V30 12329 H 2013.02 -4.41613 -5.32378 0
M  V30 12330 H 2013.89 -3.26331 -7.47797 0
M  V30 12331 P 2017.85 -2.75334 -8.47391 0
M  V30 12332 O 2018.07 -2.44571 -9.90142 0
M  V30 12333 O 2018.64 -3.87688 -7.92115 0
M  V30 12334 O 2018.1 -1.4459 -7.59357 0
M  V30 12335 C 2017.16 -0.347608 -7.69215 0
M  V30 12336 C 2017.89 0.96767 -7.52806 0
M  V30 12337 O 2018.1 1.21036 -6.1011 0
M  V30 12338 C 2019.29 1.04544 -8.13308 0
M  V30 12339 O 2019.68 2.38311 -8.41922 0
M  V30 12340 C 2020.17 0.491279 -7.02284 0
M  V30 12341 C 2019.46 0.996264 -5.77469 0
M  V30 12342 N 2019.51 0.0501916 -4.62973 0
M  V30 12343 H 2016.67 -0.374722 -8.67691 0
M  V30 12344 H 2016.4 -0.443485 -6.90277 0
M  V30 12345 H 2017.27 1.75537 -7.96793 0
M  V30 12346 P 2021.23 2.75334 -8.47391 0
M  V30 12347 O 2021.45 3.84128 -9.44797 0
M  V30 12348 O 2022.02 1.51947 -8.68712 0
M  V30 12349 O 2021.48 3.29363 -6.99321 0
M  V30 12350 C 2020.54 4.24011 -6.4274 0
M  V30 12351 C 2021.27 5.20775 -5.52155 0
M  V30 12352 O 2021.48 4.56534 -4.22446 0
M  V30 12353 C 2022.67 5.62629 -5.96531 0
M  V30 12354 O 2023.06 6.87667 -5.41053 0
M  V30 12355 C 2023.55 4.52537 -5.39283 0
M  V30 12356 C 2022.84 4.20027 -4.08623 0
M  V30 12357 N 2022.89 2.76189 -3.71603 0
M  V30 12358 H 2020.05 4.797 -7.24003 0
M  V30 12359 H 2019.78 3.69856 -5.84513 0
M  V30 12360 H 2020.65 6.10356 -5.41441 0
M  V30 12361 P 2024.61 7.20834 -5.23717 0
M  V30 12362 O 2024.83 8.66274 -5.38678 0
M  V30 12363 O 2025.4 6.33687 -6.13629 0
M  V30 12364 O 2024.86 6.7751 -3.72168 0
M  V30 12365 C 2023.92 7.20919 -2.70795 0
M  V30 12366 C 2024.65 7.45864 -1.40599 0
M  V30 12367 O 2024.86 6.17751 -0.734343 0
M  V30 12368 C 2026.05 8.05906 -1.51917 0
M  V30 12369 O 2026.44 8.74358 -0.335205 0
M  V30 12370 C 2026.93 6.83093 -1.70294 0
M  V30 12371 C 2026.22 5.79992 -0.836974 0
M  V30 12372 N 2026.27 4.41864 -1.38293 0
M  V30 12373 C 2026.19 4.02089 -2.69407 0
M  V30 12374 N 2026.26 2.73403 -2.85089 0
M  V30 12375 C 2026.41 2.25086 -1.5642 0
M  V30 12376 C 2026.54 0.942887 -1.04836 0
M  V30 12377 N 2026.55 -0.150999 -1.80369 0
M  V30 12378 N 2026.66 0.812565 0.28167 0
M  V30 12379 C 2026.65 1.90572 1.03784 0
M  V30 12380 N 2026.53 3.167 0.683905 0
M  V30 12381 C 2026.41 3.26538 -0.652815 0
M  V30 12382 H 2023.43 8.13738 -3.03804 0
M  V30 12383 H 2023.16 6.42974 -2.55559 0
M  V30 12384 H 2024.03 8.12139 -0.792866 0
M  V30 12385 H 2026.68 5.80178 0.160643 0
M  V30 12386 H 2026.96 6.51379 -2.75643 0
M  V30 12387 H 2027.95 7.01832 -1.3448 0
M  V30 12388 H 2026.12 8.73771 -2.38364 0
M  V30 12389 H 2026.08 4.7189 -3.52311 0
M  V30 12390 H 2026.46 -0.0721434 -2.82608 0
M  V30 12391 H 2026.65 -1.0785 -1.36544 0
M  V30 12392 H 2026.76 1.73207 2.10241 0
M  V30 12393 P 2027.99 8.91 -3.17856e-11 0
M  V30 12394 O 2028.21 10.1726 0.733694 0
M  V30 12395 O 2028.78 8.73148 -1.23936 0
M  V30 12396 O 2028.24 7.66872 0.971405 0
M  V30 12397 C 2027.3 7.42309 2.04641 0
M  V30 12398 C 2028.03 6.86059 3.24661 0
M  V30 12399 O 2028.24 5.42847 3.03646 0
M  V30 12400 C 2029.43 7.41196 3.50753 0
M  V30 12401 O 2029.82 7.27073 4.86816 0
M  V30 12402 C 2030.31 6.5273 2.63741 0
M  V30 12403 C 2029.6 5.1842 2.73198 0
M  V30 12404 N 2029.65 4.38762 1.4784 0
M  V30 12405 H 2026.81 8.36803 2.32493 0
M  V30 12406 H 2026.54 6.70197 1.71129 0
M  V30 12407 H 2027.41 7.03551 4.13168 0
M  V30 12408 P 2031.37 7.20834 5.23717 0
M  V30 12409 O 2031.59 7.80006 6.57415 0
M  V30 12410 O 2032.16 7.79416 4.13051 0
M  V30 12411 O 2031.62 5.63315 5.29344 0
M  V30 12412 C 2030.68 4.80318 6.01954 0
M  V30 12413 C 2031.41 3.64202 6.65911 0
M  V30 12414 O 2031.62 2.60736 5.64823 0
M  V30 12415 C 2032.81 3.93521 7.19518 0
M  V30 12416 O 2033.2 3.02071 8.21205 0
M  V30 12417 C 2033.69 3.73047 5.97036 0
M  V30 12418 C 2032.98 2.58828 5.25741 0
M  V30 12419 N 2033.03 2.68068 3.77503 0
M  V30 12420 C 2032.95 3.80474 2.99159 0
M  V30 12421 N 2033.02 3.55622 1.71925 0
M  V30 12422 C 2033.17 2.1832 1.65733 0
M  V30 12423 C 2033.3 1.28842 0.572777 0
M  V30 12424 N 2033.31 1.66875 -0.70098 0
M  V30 12425 N 2033.42 -0.016788 0.859836 0
M  V30 12426 C 2033.41 -0.398145 2.13316 0
M  V30 12427 N 2033.29 0.328224 3.22333 0
M  V30 12428 C 2033.17 1.62992 2.90383 0
M  V30 12429 H 2030.19 5.40394 6.8003 0
M  V30 12430 H 2029.92 4.41741 5.32532 0
M  V30 12431 H 2030.79 3.26371 7.47889 0
M  V30 12432 H 2033.44 1.64007 5.56746 0
M  V30 12433 H 2033.72 4.63439 5.3432 0
M  V30 12434 H 2034.71 3.44776 6.25925 0
M  V30 12435 H 2032.88 4.96707 7.57347 0
M  V30 12436 H 2032.84 4.8089 3.39924 0
M  V30 12437 H 2033.22 2.66547 -0.941919 0
M  V30 12438 H 2033.41 0.965341 -1.44766 0
M  V30 12439 H 2033.51 -1.46427 2.29697 0
M  V30 12440 P 2034.75 2.75334 8.47391 0
M  V30 12441 O 2034.97 2.44571 9.90142 0
M  V30 12442 O 2035.54 3.87688 7.92115 0
M  V30 12443 O 2035 1.4459 7.59357 0
M  V30 12444 C 2034.06 0.347608 7.69215 0
M  V30 12445 C 2034.79 -0.96767 7.52806 0
M  V30 12446 O 2035 -1.21036 6.1011 0
M  V30 12447 C 2036.19 -1.04544 8.13308 0
M  V30 12448 O 2036.58 -2.38311 8.41922 0
M  V30 12449 C 2037.07 -0.491279 7.02284 0
M  V30 12450 C 2036.36 -0.996264 5.77469 0
M  V30 12451 N 2036.41 -0.0501916 4.62973 0
M  V30 12452 C 2036.33 1.32786 4.63244 0
M  V30 12453 N 2036.41 1.86957 3.44545 0
M  V30 12454 C 2036.55 0.780241 2.58481 0
M  V30 12455 C 2036.68 0.738536 1.17757 0
M  V30 12456 N 2036.8 -0.58337 0.711393 0
M  V30 12457 C 2036.8 -1.70816 1.51017 0
M  V30 12458 N 2036.93 -2.87826 0.880757 0
M  V30 12459 N 2036.67 -1.67126 2.8339 0
M  V30 12460 C 2036.55 -0.401421 3.30572 0
M  V30 12461 H 2033.57 0.374722 8.67691 0
M  V30 12462 H 2033.3 0.443485 6.90277 0
M  V30 12463 H 2034.17 -1.75537 7.96793 0
M  V30 12464 P 2038.13 -2.75334 8.47391 0
M  V30 12465 O 2038.35 -3.84128 9.44797 0
M  V30 12466 O 2038.92 -1.51947 8.68712 0
M  V30 12467 O 2038.38 -3.29363 6.99321 0
M  V30 12468 C 2037.44 -4.24011 6.4274 0
M  V30 12469 C 2038.17 -5.20775 5.52155 0
M  V30 12470 O 2038.38 -4.56534 4.22446 0
M  V30 12471 C 2039.57 -5.62629 5.96531 0
M  V30 12472 O 2039.96 -6.87667 5.41053 0
M  V30 12473 C 2040.45 -4.52537 5.39283 0
M  V30 12474 C 2039.74 -4.20027 4.08623 0
M  V30 12475 N 2039.79 -2.76189 3.71603 0
M  V30 12476 H 2036.95 -4.797 7.24003 0
M  V30 12477 H 2036.68 -3.69856 5.84513 0
M  V30 12478 H 2037.55 -6.10356 5.41441 0
M  V30 12479 P 2041.51 -7.20834 5.23717 0
M  V30 12480 O 2041.73 -8.66274 5.38678 0
M  V30 12481 O 2042.3 -6.33687 6.13629 0
M  V30 12482 O 2041.76 -6.7751 3.72168 0
M  V30 12483 C 2040.82 -7.20919 2.70795 0
M  V30 12484 C 2041.55 -7.45864 1.40599 0
M  V30 12485 O 2041.76 -6.17751 0.734343 0
M  V30 12486 C 2042.95 -8.05906 1.51917 0
M  V30 12487 O 2043.34 -8.74358 0.335205 0
M  V30 12488 C 2043.83 -6.83093 1.70294 0
M  V30 12489 C 2043.12 -5.79992 0.836974 0
M  V30 12490 N 2043.17 -4.41864 1.38293 0
M  V30 12491 C 2043.09 -4.02089 2.69407 0
M  V30 12492 N 2043.16 -2.73403 2.85089 0
M  V30 12493 C 2043.31 -2.25086 1.5642 0
M  V30 12494 C 2043.44 -0.942887 1.04836 0
M  V30 12495 N 2043.45 0.150999 1.80369 0
M  V30 12496 N 2043.56 -0.812565 -0.28167 0
M  V30 12497 C 2043.55 -1.90572 -1.03784 0
M  V30 12498 N 2043.43 -3.167 -0.683905 0
M  V30 12499 C 2043.31 -3.26538 0.652815 0
M  V30 12500 H 2040.33 -8.13738 3.03804 0
M  V30 12501 H 2040.06 -6.42974 2.55559 0
M  V30 12502 H 2040.93 -8.12139 0.792866 0
M  V30 12503 H 2043.58 -5.80178 -0.160643 0
M  V30 12504 H 2043.86 -6.51379 2.75643 0
M  V30 12505 H 2044.85 -7.01832 1.3448 0
M  V30 12506 H 2043.02 -8.73771 2.38364 0
M  V30 12507 H 2042.98 -4.7189 3.52311 0
M  V30 12508 H 2043.36 0.0721434 2.82608 0
M  V30 12509 H 2043.55 1.0785 1.36544 0
M  V30 12510 H 2043.65 -1.73207 -2.10241 0
M  V30 12511 P 2044.89 -8.91 3.28946e-11 0
M  V30 12512 O 2045.11 -10.1726 -0.733694 0
M  V30 12513 O 2045.68 -8.73148 1.23936 0
M  V30 12514 O 2045.14 -7.66872 -0.971405 0
M  V30 12515 C 2044.2 -7.42309 -2.04641 0
M  V30 12516 C 2044.93 -6.86059 -3.24661 0
M  V30 12517 O 2045.14 -5.42847 -3.03646 0
M  V30 12518 C 2046.33 -7.41196 -3.50753 0
M  V30 12519 O 2046.72 -7.27073 -4.86816 0
M  V30 12520 C 2047.21 -6.5273 -2.63741 0
M  V30 12521 C 2046.5 -5.1842 -2.73198 0
M  V30 12522 N 2046.55 -4.38762 -1.4784 0
M  V30 12523 C 2046.47 -4.81605 -0.168631 0
M  V30 12524 N 2046.55 -3.85454 0.713363 0
M  V30 12525 C 2046.69 -2.6994 -0.0566958 0
M  V30 12526 C 2046.82 -1.34815 0.338502 0
M  V30 12527 O 2046.84 -0.869548 1.47125 0
M  V30 12528 N 2046.94 -0.496304 -0.77465 0
M  V30 12529 C 2046.94 -0.908403 -2.09122 0
M  V30 12530 N 2047.07 0.0517805 -3.00955 0
M  V30 12531 N 2046.81 -2.17875 -2.46519 0
M  V30 12532 C 2046.69 -3.01988 -1.4033 0
M  V30 12533 H 2043.71 -8.36803 -2.32493 0
M  V30 12534 H 2043.44 -6.70197 -1.71129 0
M  V30 12535 H 2044.31 -7.03551 -4.13168 0
M  V30 12536 H 2046.96 -4.59498 -3.54415 0
M  V30 12537 H 2047.24 -6.88898 -1.59848 0
M  V30 12538 H 2048.23 -6.46749 -3.03687 0
M  V30 12539 H 2046.4 -8.46908 -3.20714 0
M  V30 12540 H 2046.35 -5.86405 0.105564 0
M  V30 12541 H 2047.03 0.483664 -0.597855 0
M  V30 12542 H 2047.07 -0.187865 -4.0116 0
M  V30 12543 H 2047.17 1.03585 -2.71726 0
M  V30 12544 P 2048.27 -7.20834 -5.23717 0
M  V30 12545 O 2048.49 -7.79853 -6.57286 0
M  V30 12546 O 2049.06 -7.79239 -4.12957 0
M  V30 12547 O 2048.52 -5.63315 -5.29344 0
M  V30 12548 C 2047.58 -4.80255 -6.01876 0
M  V30 12549 C 2048.31 -3.64202 -6.65911 0
M  V30 12550 O 2048.52 -2.60694 -5.64732 0
M  V30 12551 C 2049.71 -3.93473 -7.1943 0
M  V30 12552 O 2050.1 -3.02071 -8.21205 0
M  V30 12553 C 2050.59 -3.73047 -5.97036 0
M  V30 12554 C 2049.88 -2.58828 -5.25741 0
M  V30 12555 N 2049.93 -2.68068 -3.77503 0
M  V30 12556 H 2047.09 -5.40332 -6.79951 0
M  V30 12557 H 2046.82 -4.41613 -5.32378 0
M  V30 12558 H 2047.69 -3.26331 -7.47797 0
M  V30 12559 P 2051.65 -2.75334 -8.47391 0
M  V30 12560 O 2051.87 -2.44571 -9.90142 0
M  V30 12561 O 2052.44 -3.87688 -7.92115 0
M  V30 12562 O 2051.9 -1.4459 -7.59357 0
M  V30 12563 C 2050.96 -0.347608 -7.69215 0
M  V30 12564 C 2051.69 0.96767 -7.52806 0
M  V30 12565 O 2051.9 1.21036 -6.1011 0
M  V30 12566 C 2053.09 1.04544 -8.13308 0
M  V30 12567 O 2053.48 2.38311 -8.41922 0
M  V30 12568 C 2053.97 0.491279 -7.02284 0
M  V30 12569 C 2053.26 0.996264 -5.77469 0
M  V30 12570 N 2053.31 0.0501916 -4.62973 0
M  V30 12571 H 2050.47 -0.374722 -8.67691 0
M  V30 12572 H 2050.2 -0.443485 -6.90277 0
M  V30 12573 H 2051.07 1.75537 -7.96793 0
M  V30 12574 P 2055.03 2.75334 -8.47391 0
M  V30 12575 O 2055.25 3.84128 -9.44797 0
M  V30 12576 O 2055.82 1.51947 -8.68712 0
M  V30 12577 O 2055.28 3.29363 -6.99321 0
M  V30 12578 C 2054.34 4.24011 -6.4274 0
M  V30 12579 C 2055.07 5.20775 -5.52155 0
M  V30 12580 O 2055.28 4.56534 -4.22446 0
M  V30 12581 C 2056.47 5.62629 -5.96531 0
M  V30 12582 O 2056.86 6.87667 -5.41053 0
M  V30 12583 C 2057.35 4.52537 -5.39283 0
M  V30 12584 C 2056.64 4.20027 -4.08623 0
M  V30 12585 N 2056.69 2.76189 -3.71603 0
M  V30 12586 H 2053.85 4.797 -7.24003 0
M  V30 12587 H 2053.58 3.69856 -5.84513 0
M  V30 12588 H 2054.45 6.10356 -5.41441 0
M  V30 12589 P 2058.41 7.20834 -5.23717 0
M  V30 12590 O 2058.63 8.66189 -5.38625 0
M  V30 12591 O 2059.2 6.33615 -6.1356 0
M  V30 12592 O 2058.66 6.7751 -3.72168 0
M  V30 12593 C 2057.72 7.20732 -2.70725 0
M  V30 12594 C 2058.45 7.45864 -1.40599 0
M  V30 12595 O 2058.66 6.17651 -0.734225 0
M  V30 12596 C 2059.85 8.05808 -1.51899 0
M  V30 12597 O 2060.24 8.74358 -0.335205 0
M  V30 12598 C 2060.73 6.83093 -1.70294 0
M  V30 12599 C 2060.02 5.79992 -0.836974 0
M  V30 12600 N 2060.07 4.41769 -1.38263 0
M  V30 12601 C 2060.22 3.38591 -0.481702 0
M  V30 12602 O 2060.31 3.56839 0.718452 0
M  V30 12603 N 2060.26 2.1206 -1.03569 0
M  V30 12604 C 2060.17 1.80696 -2.36966 0
M  V30 12605 O 2060.22 0.630473 -2.74862 0
M  V30 12606 C 2060.02 2.94845 -3.23898 0
M  V30 12607 C 2059.91 2.65253 -4.70362 0
M  V30 12608 C 2059.97 4.19803 -2.73435 0
M  V30 12609 H 2057.23 8.13644 -3.0377 0
M  V30 12610 H 2056.96 6.42695 -2.55448 0
M  V30 12611 H 2057.83 8.12039 -0.792769 0
M  V30 12612 H 2060.48 5.79978 0.160587 0
M  V30 12613 H 2060.76 6.51379 -2.75643 0
M  V30 12614 H 2061.75 7.01734 -1.34462 0
M  V30 12615 H 2059.92 8.73674 -2.38337 0
M  V30 12616 H 2059.85 5.04492 -3.4095 0
M  V30 12617 H 2060.88 2.83924 -5.1913 0
M  V30 12618 H 2059.14 3.29824 -5.15163 0
M  V30 12619 H 2059.63 1.59723 -4.84449 0
M  V30 12620 H 2060.36 1.35644 -0.399345 0
M  V30 12621 P 2061.79 8.91 -3.40036e-11 0
M  V30 12622 O 2062.01 10.1726 0.733694 0
M  V30 12623 O 2062.58 8.73148 -1.23936 0
M  V30 12624 O 2062.04 7.66872 0.971405 0
M  V30 12625 C 2061.1 7.42309 2.04641 0
M  V30 12626 C 2061.83 6.86059 3.24661 0
M  V30 12627 O 2062.04 5.42847 3.03646 0
M  V30 12628 C 2063.23 7.41196 3.50753 0
M  V30 12629 O 2063.62 7.27073 4.86816 0
M  V30 12630 C 2064.11 6.5273 2.63741 0
M  V30 12631 C 2063.4 5.1842 2.73198 0
M  V30 12632 N 2063.45 4.38762 1.4784 0
M  V30 12633 C 2063.37 4.81605 0.168631 0
M  V30 12634 N 2063.45 3.85454 -0.713363 0
M  V30 12635 C 2063.59 2.6994 0.0566958 0
M  V30 12636 C 2063.72 1.34815 -0.338502 0
M  V30 12637 N 2063.84 0.496304 0.77465 0
M  V30 12638 C 2063.84 0.908403 2.09122 0
M  V30 12639 N 2063.97 -0.0517805 3.00955 0
M  V30 12640 N 2063.71 2.17875 2.46519 0
M  V30 12641 C 2063.59 3.01988 1.4033 0
M  V30 12642 H 2060.61 8.36803 2.32493 0
M  V30 12643 H 2060.34 6.70197 1.71129 0
M  V30 12644 H 2061.21 7.03551 4.13168 0
M  V30 12645 P 2065.17 7.20834 5.23717 0
M  V30 12646 O 2065.39 7.7993 6.57351 0
M  V30 12647 O 2065.96 7.79328 4.13004 0
M  V30 12648 O 2065.42 5.63315 5.29344 0
M  V30 12649 C 2064.48 4.80193 6.01798 0
M  V30 12650 C 2065.21 3.64202 6.65911 0
M  V30 12651 O 2065.42 2.60694 5.64732 0
M  V30 12652 C 2066.61 3.93473 7.1943 0
M  V30 12653 O 2067 3.02071 8.21205 0
M  V30 12654 C 2067.49 3.73047 5.97036 0
M  V30 12655 C 2066.78 2.58828 5.25741 0
M  V30 12656 N 2066.83 2.6801 3.77422 0
M  V30 12657 C 2066.98 1.50443 3.07133 0
M  V30 12658 O 2067.07 0.419406 3.61576 0
M  V30 12659 N 2067.02 1.6403 1.69677 0
M  V30 12660 C 2066.93 2.81206 0.986255 0
M  V30 12661 O 2066.98 2.80892 -0.249754 0
M  V30 12662 C 2066.78 3.99158 1.80325 0
M  V30 12663 C 2066.67 5.29309 1.06921 0
M  V30 12664 C 2066.73 3.89779 3.1476 0
M  V30 12665 H 2063.99 5.40332 6.79951 0
M  V30 12666 H 2063.72 4.41549 5.32301 0
M  V30 12667 H 2064.59 3.26331 7.47797 0
M  V30 12668 H 2067.24 1.6395 5.56554 0
M  V30 12669 H 2067.52 4.63439 5.3432 0
M  V30 12670 H 2068.51 3.44728 6.25838 0
M  V30 12671 H 2066.68 4.96652 7.57263 0
M  V30 12672 H 2066.61 4.80159 3.74441 0
M  V30 12673 H 2067.64 5.81459 1.09608 0
M  V30 12674 H 2065.9 5.9187 1.54487 0
M  V30 12675 H 2066.39 5.10095 0.0220288 0
M  V30 12676 H 2067.12 0.798962 1.16664 0
M  V30 12677 P 2068.55 2.75334 8.47391 0
M  V30 12678 O 2068.77 2.44571 9.90142 0
M  V30 12679 O 2069.34 3.87688 7.92115 0
M  V30 12680 O 2068.8 1.4459 7.59357 0
M  V30 12681 C 2067.86 0.347608 7.69215 0
M  V30 12682 C 2068.59 -0.96767 7.52806 0
M  V30 12683 O 2068.8 -1.21036 6.1011 0
M  V30 12684 C 2069.99 -1.04544 8.13308 0
M  V30 12685 O 2070.38 -2.38311 8.41922 0
M  V30 12686 C 2070.87 -0.491279 7.02284 0
M  V30 12687 C 2070.16 -0.996264 5.77469 0
M  V30 12688 N 2070.21 -0.0501916 4.62973 0
M  V30 12689 H 2067.37 0.374722 8.67691 0
M  V30 12690 H 2067.1 0.443485 6.90277 0
M  V30 12691 H 2067.97 -1.75537 7.96793 0
M  V30 12692 P 2071.93 -2.75334 8.47391 0
M  V30 12693 O 2072.15 -3.84166 9.4489 0
M  V30 12694 O 2072.72 -1.51964 8.6881 0
M  V30 12695 O 2072.18 -3.29363 6.99321 0
M  V30 12696 C 2071.24 -4.23956 6.42656 0
M  V30 12697 C 2071.97 -5.20775 5.52155 0
M  V30 12698 O 2072.18 -4.56534 4.22446 0
M  V30 12699 C 2073.37 -5.62629 5.96531 0
M  V30 12700 O 2073.76 -6.87667 5.41053 0
M  V30 12701 C 2074.25 -4.52537 5.39283 0
M  V30 12702 C 2073.54 -4.20027 4.08623 0
M  V30 12703 N 2073.59 -2.7613 3.71522 0
M  V30 12704 C 2073.74 -2.45612 2.37989 0
M  V30 12705 O 2073.83 -3.30919 1.51621 0
M  V30 12706 N 2073.78 -1.10684 2.08435 0
M  V30 12707 C 2073.69 -0.0690084 2.9792 0
M  V30 12708 C 2073.54 -0.481522 4.35345 0
M  V30 12709 C 2073.49 -1.78906 4.67968 0
M  V30 12710 H 2070.75 -4.797 7.24003 0
M  V30 12711 H 2070.48 -3.69802 5.84429 0
M  V30 12712 H 2071.35 -6.10356 5.41441 0
M  V30 12713 H 2074 -4.78651 3.27911 0
M  V30 12714 H 2074.28 -3.64957 6.05871 0
M  V30 12715 H 2075.27 -4.8868 5.2125 0
M  V30 12716 H 2073.44 -5.66726 7.06352 0
M  V30 12717 H 2073.37 -2.07737 5.72367 0
M  V30 12718 P 2075.31 -7.20834 5.23717 0
M  V30 12719 O 2075.53 -8.66104 5.38572 0
M  V30 12720 O 2076.1 -6.33544 6.1349 0
M  V30 12721 O 2075.56 -6.7751 3.72168 0
M  V30 12722 C 2074.62 -7.20825 2.7076 0
M  V30 12723 C 2075.35 -7.45864 1.40599 0
M  V30 12724 O 2075.56 -6.17651 0.734225 0
M  V30 12725 C 2076.75 -8.05808 1.51899 0
M  V30 12726 O 2077.14 -8.74358 0.335205 0
M  V30 12727 C 2077.63 -6.83093 1.70294 0
M  V30 12728 C 2076.92 -5.79992 0.836974 0
M  V30 12729 N 2076.97 -4.41864 1.38293 0
M  V30 12730 H 2074.13 -8.13644 3.0377 0
M  V30 12731 H 2073.86 -6.42788 2.55485 0
M  V30 12732 H 2074.73 -8.12039 0.792769 0
M  V30 12733 P 2078.69 -8.91 3.51126e-11 0
M  V30 12734 O 2078.91 -10.1726 -0.733694 0
M  V30 12735 O 2079.48 -8.73148 1.23936 0
M  V30 12736 O 2078.94 -7.66872 -0.971405 0
M  V30 12737 C 2078 -7.42309 -2.04641 0
M  V30 12738 C 2078.73 -6.86059 -3.24661 0
M  V30 12739 O 2078.94 -5.42847 -3.03646 0
M  V30 12740 C 2080.13 -7.41196 -3.50753 0
M  V30 12741 O 2080.52 -7.27073 -4.86816 0
M  V30 12742 C 2081.01 -6.5273 -2.63741 0
M  V30 12743 C 2080.3 -5.1842 -2.73198 0
M  V30 12744 N 2080.35 -4.38762 -1.4784 0
M  V30 12745 C 2080.27 -4.81605 -0.168631 0
M  V30 12746 N 2080.35 -3.85454 0.713363 0
M  V30 12747 C 2080.49 -2.6994 -0.0566958 0
M  V30 12748 C 2080.62 -1.34815 0.338502 0
M  V30 12749 O 2080.64 -0.869548 1.47125 0
M  V30 12750 N 2080.74 -0.496304 -0.77465 0
M  V30 12751 C 2080.74 -0.908403 -2.09122 0
M  V30 12752 N 2080.87 0.0517805 -3.00955 0
M  V30 12753 N 2080.61 -2.17875 -2.46519 0
M  V30 12754 C 2080.49 -3.01988 -1.4033 0
M  V30 12755 H 2077.51 -8.36803 -2.32493 0
M  V30 12756 H 2077.24 -6.70197 -1.71129 0
M  V30 12757 H 2078.11 -7.03551 -4.13168 0
M  V30 12758 H 2080.76 -4.59498 -3.54415 0
M  V30 12759 H 2081.04 -6.88898 -1.59848 0
M  V30 12760 H 2082.03 -6.46749 -3.03687 0
M  V30 12761 H 2080.2 -8.46908 -3.20714 0
M  V30 12762 H 2080.15 -5.86405 0.105564 0
M  V30 12763 H 2080.83 0.483664 -0.597855 0
M  V30 12764 H 2080.87 -0.187865 -4.0116 0
M  V30 12765 H 2080.97 1.03585 -2.71726 0
M  V30 12766 P 2082.07 -7.20834 -5.23717 0
M  V30 12767 O 2082.29 -7.79853 -6.57286 0
M  V30 12768 O 2082.86 -7.79239 -4.12957 0
M  V30 12769 O 2082.32 -5.63315 -5.29344 0
M  V30 12770 C 2081.38 -4.80255 -6.01876 0
M  V30 12771 C 2082.11 -3.64202 -6.65911 0
M  V30 12772 O 2082.32 -2.60694 -5.64732 0
M  V30 12773 C 2083.51 -3.93473 -7.1943 0
M  V30 12774 O 2083.9 -3.02071 -8.21205 0
M  V30 12775 C 2084.39 -3.73047 -5.97036 0
M  V30 12776 C 2083.68 -2.58828 -5.25741 0
M  V30 12777 N 2083.73 -2.68068 -3.77503 0
M  V30 12778 H 2080.89 -5.40332 -6.79951 0
M  V30 12779 H 2080.62 -4.41613 -5.32378 0
M  V30 12780 H 2081.49 -3.26331 -7.47797 0
M  V30 12781 P 2085.45 -2.75334 -8.47391 0
M  V30 12782 O 2085.67 -2.44571 -9.90142 0
M  V30 12783 O 2086.24 -3.87688 -7.92115 0
M  V30 12784 O 2085.7 -1.4459 -7.59357 0
M  V30 12785 C 2084.76 -0.347608 -7.69215 0
M  V30 12786 C 2085.49 0.96767 -7.52806 0
M  V30 12787 O 2085.7 1.21036 -6.1011 0
M  V30 12788 C 2086.89 1.04544 -8.13308 0
M  V30 12789 O 2087.28 2.38311 -8.41922 0
M  V30 12790 C 2087.77 0.491279 -7.02284 0
M  V30 12791 C 2087.06 0.996264 -5.77469 0
M  V30 12792 N 2087.11 0.0501916 -4.62973 0
M  V30 12793 H 2084.27 -0.374722 -8.67691 0
M  V30 12794 H 2084 -0.443485 -6.90277 0
M  V30 12795 H 2084.87 1.75537 -7.96793 0
M  V30 12796 P 2088.83 2.75334 -8.47391 0
M  V30 12797 O 2089.05 3.84128 -9.44797 0
M  V30 12798 O 2089.62 1.51947 -8.68712 0
M  V30 12799 O 2089.08 3.29363 -6.99321 0
M  V30 12800 C 2088.14 4.24011 -6.4274 0
M  V30 12801 C 2088.87 5.20775 -5.52155 0
M  V30 12802 O 2089.08 4.56534 -4.22446 0
M  V30 12803 C 2090.27 5.62629 -5.96531 0
M  V30 12804 O 2090.66 6.87667 -5.41053 0
M  V30 12805 C 2091.15 4.52537 -5.39283 0
M  V30 12806 C 2090.44 4.20027 -4.08623 0
M  V30 12807 N 2090.49 2.76189 -3.71603 0
M  V30 12808 H 2087.65 4.797 -7.24003 0
M  V30 12809 H 2087.38 3.69856 -5.84513 0
M  V30 12810 H 2088.25 6.10356 -5.41441 0
M  V30 12811 P 2092.21 7.20834 -5.23717 0
M  V30 12812 O 2092.43 8.66104 -5.38572 0
M  V30 12813 O 2093 6.33544 -6.1349 0
M  V30 12814 O 2092.46 6.7751 -3.72168 0
M  V30 12815 C 2091.52 7.20825 -2.7076 0
M  V30 12816 C 2092.25 7.45864 -1.40599 0
M  V30 12817 O 2092.46 6.17651 -0.734225 0
M  V30 12818 C 2093.65 8.05808 -1.51899 0
M  V30 12819 O 2094.04 8.74358 -0.335205 0
M  V30 12820 C 2094.53 6.83093 -1.70294 0
M  V30 12821 C 2093.82 5.79992 -0.836974 0
M  V30 12822 N 2093.87 4.41864 -1.38293 0
M  V30 12823 C 2093.79 3.99538 -2.69438 0
M  V30 12824 N 2093.87 2.69909 -2.84277 0
M  V30 12825 C 2094.01 2.21719 -1.5408 0
M  V30 12826 C 2094.14 0.891712 -1.06628 0
M  V30 12827 N 2094.26 0.856846 0.334985 0
M  V30 12828 C 2094.26 1.9641 1.15789 0
M  V30 12829 N 2094.39 1.72708 2.46522 0
M  V30 12830 N 2094.13 3.21165 0.713741 0
M  V30 12831 C 2094.01 3.26797 -0.639748 0
M  V30 12832 H 2091.03 8.13644 -3.0377 0
M  V30 12833 H 2090.76 6.42788 -2.55485 0
M  V30 12834 H 2091.63 8.12039 -0.792769 0
M  V30 12835 P 2095.59 8.91 -3.62216e-11 0
M  V30 12836 O 2095.81 10.1726 0.733694 0
M  V30 12837 O 2096.38 8.73148 -1.23936 0
M  V30 12838 O 2095.84 7.66872 0.971405 0
M  V30 12839 C 2094.9 7.42309 2.04641 0
M  V30 12840 C 2095.63 6.86059 3.24661 0
M  V30 12841 O 2095.84 5.42847 3.03646 0
M  V30 12842 C 2097.03 7.41196 3.50753 0
M  V30 12843 O 2097.42 7.27073 4.86816 0
M  V30 12844 C 2097.91 6.5273 2.63741 0
M  V30 12845 C 2097.2 5.1842 2.73198 0
M  V30 12846 N 2097.25 4.38762 1.4784 0
M  V30 12847 H 2094.41 8.36803 2.32493 0
M  V30 12848 H 2094.14 6.70197 1.71129 0
M  V30 12849 H 2095.01 7.03551 4.13168 0
M  V30 12850 P 2098.97 7.20834 5.23717 0
M  V30 12851 O 2099.19 7.79853 6.57286 0
M  V30 12852 O 2099.76 7.79239 4.12957 0
M  V30 12853 O 2099.22 5.63315 5.29344 0
M  V30 12854 C 2098.28 4.80255 6.01876 0
M  V30 12855 C 2099.01 3.64202 6.65911 0
M  V30 12856 O 2099.22 2.60694 5.64732 0
M  V30 12857 C 2100.41 3.93473 7.1943 0
M  V30 12858 O 2100.8 3.02071 8.21205 0
M  V30 12859 C 2101.29 3.73047 5.97036 0
M  V30 12860 C 2100.58 2.58828 5.25741 0
M  V30 12861 N 2100.63 2.68068 3.77503 0
M  V30 12862 H 2097.79 5.40332 6.79951 0
M  V30 12863 H 2097.52 4.41613 5.32378 0
M  V30 12864 H 2098.39 3.26331 7.47797 0
M  V30 12865 P 2102.35 2.75334 8.47391 0
M  V30 12866 O 2102.57 2.44595 9.90239 0
M  V30 12867 O 2103.14 3.87732 7.92204 0
M  V30 12868 O 2102.6 1.4459 7.59357 0
M  V30 12869 C 2101.66 0.347563 7.69115 0
M  V30 12870 C 2102.39 -0.96767 7.52806 0
M  V30 12871 O 2102.6 -1.21036 6.1011 0
M  V30 12872 C 2103.79 -1.04544 8.13308 0
M  V30 12873 O 2104.18 -2.38311 8.41922 0
M  V30 12874 C 2104.67 -0.491279 7.02284 0
M  V30 12875 C 2103.96 -0.996264 5.77469 0
M  V30 12876 N 2104.01 -0.0501808 4.62873 0
M  V30 12877 C 2104.16 -0.588177 3.36904 0
M  V30 12878 O 2104.25 -1.78598 3.17173 0
M  V30 12879 N 2104.2 0.329694 2.33686 0
M  V30 12880 C 2104.11 1.6953 2.45079 0
M  V30 12881 O 2104.16 2.41926 1.44899 0
M  V30 12882 C 2103.96 2.16933 3.80505 0
M  V30 12883 C 2103.85 3.65373 3.97621 0
M  V30 12884 C 2103.91 1.30326 4.83752 0
M  V30 12885 H 2101.17 0.374722 8.67691 0
M  V30 12886 H 2100.9 0.443421 6.90177 0
M  V30 12887 H 2101.77 -1.75537 7.96793 0
M  V30 12888 H 2104.42 -1.94496 5.46629 0
M  V30 12889 H 2104.7 0.608651 7.04676 0
M  V30 12890 H 2105.69 -0.889672 7.08939 0
M  V30 12891 H 2103.86 -0.43308 9.04564 0
M  V30 12892 H 2103.79 1.68366 5.8516 0
M  V30 12893 H 2104.82 4.05985 4.30448 0
M  V30 12894 H 2103.08 3.88028 4.72875 0
M  V30 12895 H 2103.57 4.11381 3.01609 0
M  V30 12896 H 2104.3 -0.0393617 1.41345 0
M  V30 12897 P 2105.73 -2.75334 8.47391 0
M  V30 12898 O 2105.95 -3.84166 9.4489 0
M  V30 12899 O 2106.52 -1.51964 8.6881 0
M  V30 12900 O 2105.98 -3.29363 6.99321 0
M  V30 12901 C 2105.04 -4.24011 6.4274 0
M  V30 12902 C 2105.77 -5.20775 5.52155 0
M  V30 12903 O 2105.98 -4.56534 4.22446 0
M  V30 12904 C 2107.17 -5.62629 5.96531 0
M  V30 12905 O 2107.56 -6.87667 5.41053 0
M  V30 12906 C 2108.05 -4.52537 5.39283 0
M  V30 12907 C 2107.34 -4.20027 4.08623 0
M  V30 12908 N 2107.39 -2.7613 3.71522 0
M  V30 12909 C 2107.54 -2.43702 2.37085 0
M  V30 12910 O 2107.63 -3.3531 1.54039 0
M  V30 12911 N 2107.59 -0.951103 2.10621 0
M  V30 12912 C 2107.49 -0.165021 2.93537 0
M  V30 12913 N 2107.54 1.09723 2.53253 0
M  V30 12914 C 2107.34 -0.469576 4.32458 0
M  V30 12915 C 2107.29 -1.78658 4.65921 0
M  V30 12916 H 2104.55 -4.79645 7.23919 0
M  V30 12917 H 2104.28 -3.69802 5.84429 0
M  V30 12918 H 2105.15 -6.10431 5.41508 0
M  V30 12919 H 2107.8 -4.78733 3.27967 0
M  V30 12920 H 2108.08 -3.64957 6.05871 0
M  V30 12921 H 2109.07 -4.8868 5.2125 0
M  V30 12922 H 2107.24 -5.66726 7.06352 0
M  V30 12923 H 2107.17 -2.06987 5.70299 0
M  V30 12924 H 2107.27 0.314383 5.07728 0
M  V30 12925 H 2107.66 1.31363 1.5319 0
M  V30 12926 H 2107.46 1.85978 3.21943 0
M  V30 12927 P 2109.11 -7.20834 5.23717 0
M  V30 12928 O 2109.33 -8.66104 5.38572 0
M  V30 12929 O 2109.9 -6.33544 6.1349 0
M  V30 12930 O 2109.36 -6.7751 3.72168 0
M  V30 12931 C 2108.42 -7.20825 2.7076 0
M  V30 12932 C 2109.15 -7.45864 1.40599 0
M  V30 12933 O 2109.36 -6.17651 0.734225 0
M  V30 12934 C 2110.55 -8.05808 1.51899 0
M  V30 12935 O 2110.94 -8.74358 0.335205 0
M  V30 12936 C 2111.43 -6.83093 1.70294 0
M  V30 12937 C 2110.72 -5.79992 0.836974 0
M  V30 12938 N 2110.77 -4.41864 1.38293 0
M  V30 12939 H 2107.93 -8.13644 3.0377 0
M  V30 12940 H 2107.66 -6.42788 2.55485 0
M  V30 12941 H 2108.53 -8.12039 0.792769 0
M  V30 12942 P 2112.49 -8.91 3.73306e-11 0
M  V30 12943 O 2112.71 -10.1726 -0.733694 0
M  V30 12944 O 2113.28 -8.73148 1.23936 0
M  V30 12945 O 2112.74 -7.66872 -0.971405 0
M  V30 12946 C 2111.8 -7.42309 -2.04641 0
M  V30 12947 C 2112.53 -6.86059 -3.24661 0
M  V30 12948 O 2112.74 -5.42847 -3.03646 0
M  V30 12949 C 2113.93 -7.41196 -3.50753 0
M  V30 12950 O 2114.32 -7.27073 -4.86816 0
M  V30 12951 C 2114.81 -6.5273 -2.63741 0
M  V30 12952 C 2114.1 -5.1842 -2.73198 0
M  V30 12953 N 2114.15 -4.38762 -1.4784 0
M  V30 12954 H 2111.31 -8.36803 -2.32493 0
M  V30 12955 H 2111.04 -6.70197 -1.71129 0
M  V30 12956 H 2111.91 -7.03551 -4.13168 0
M  V30 12957 P 2115.87 -7.20834 -5.23717 0
M  V30 12958 O 2116.09 -7.79853 -6.57286 0
M  V30 12959 O 2116.66 -7.79239 -4.12957 0
M  V30 12960 O 2116.12 -5.63315 -5.29344 0
M  V30 12961 C 2115.18 -4.80255 -6.01876 0
M  V30 12962 C 2115.91 -3.64202 -6.65911 0
M  V30 12963 O 2116.12 -2.60694 -5.64732 0
M  V30 12964 C 2117.31 -3.93473 -7.1943 0
M  V30 12965 O 2117.7 -3.02071 -8.21205 0
M  V30 12966 C 2118.19 -3.73047 -5.97036 0
M  V30 12967 C 2117.48 -2.58828 -5.25741 0
M  V30 12968 N 2117.53 -2.68068 -3.77503 0
M  V30 12969 C 2117.45 -3.79715 -2.96723 0
M  V30 12970 N 2117.53 -3.5377 -1.68852 0
M  V30 12971 C 2117.67 -2.15054 -1.63254 0
M  V30 12972 C 2117.8 -1.28964 -0.518571 0
M  V30 12973 N 2117.92 0.0538097 -0.918425 0
M  V30 12974 C 2117.92 0.494275 -2.22578 0
M  V30 12975 N 2118.05 1.81086 -2.40434 0
M  V30 12976 N 2117.79 -0.313645 -3.27502 0
M  V30 12977 C 2117.67 -1.61829 -2.91033 0
M  V30 12978 H 2114.69 -5.40332 -6.79951 0
M  V30 12979 H 2114.42 -4.41613 -5.32378 0
M  V30 12980 H 2115.29 -3.26331 -7.47797 0
M  V30 12981 P 2119.25 -2.75334 -8.47391 0
M  V30 12982 O 2119.47 -2.44571 -9.90142 0
M  V30 12983 O 2120.04 -3.87688 -7.92115 0
M  V30 12984 O 2119.5 -1.4459 -7.59357 0
M  V30 12985 C 2118.56 -0.347608 -7.69215 0
M  V30 12986 C 2119.29 0.96767 -7.52806 0
M  V30 12987 O 2119.5 1.21036 -6.1011 0
M  V30 12988 C 2120.69 1.04544 -8.13308 0
M  V30 12989 O 2121.08 2.38311 -8.41922 0
M  V30 12990 C 2121.57 0.491279 -7.02284 0
M  V30 12991 C 2120.86 0.996264 -5.77469 0
M  V30 12992 N 2120.91 0.0501916 -4.62973 0
M  V30 12993 H 2118.07 -0.374722 -8.67691 0
M  V30 12994 H 2117.8 -0.443485 -6.90277 0
M  V30 12995 H 2118.67 1.75537 -7.96793 0
M  V30 12996 P 2122.63 2.75334 -8.47391 0
M  V30 12997 O 2122.85 3.84204 -9.44982 0
M  V30 12998 O 2123.42 1.51982 -8.68909 0
M  V30 12999 O 2122.88 3.29363 -6.99321 0
M  V30 13000 C 2121.94 4.24066 -6.42823 0
M  V30 13001 C 2122.67 5.20775 -5.52155 0
M  V30 13002 O 2122.88 4.56607 -4.22514 0
M  V30 13003 C 2124.07 5.62697 -5.96604 0
M  V30 13004 O 2124.46 6.87667 -5.41053 0
M  V30 13005 C 2124.95 4.52537 -5.39283 0
M  V30 13006 C 2124.24 4.20027 -4.08623 0
M  V30 13007 N 2124.29 2.76189 -3.71603 0
M  V30 13008 C 2124.21 1.66944 -4.54297 0
M  V30 13009 N 2124.28 0.536169 -3.91344 0
M  V30 13010 C 2124.43 0.901569 -2.58849 0
M  V30 13011 C 2124.56 0.146599 -1.40236 0
M  V30 13012 N 2124.57 -1.18234 -1.37046 0
M  V30 13013 N 2124.68 0.822941 -0.249738 0
M  V30 13014 C 2124.67 2.15179 -0.280525 0
M  V30 13015 N 2124.55 2.96414 -1.30822 0
M  V30 13016 C 2124.43 2.25804 -2.44748 0
M  V30 13017 H 2121.45 4.79756 -7.24086 0
M  V30 13018 H 2121.18 3.69963 -5.84682 0
M  V30 13019 H 2122.05 6.10431 -5.41508 0
M  V30 13020 H 2124.7 4.78816 -3.28024 0
M  V30 13021 H 2124.98 3.64957 -6.05871 0
M  V30 13022 H 2125.97 4.88748 -5.21323 0
M  V30 13023 H 2124.14 5.66789 -7.0643 0
M  V30 13024 H 2124.1 1.74684 -5.62396 0
M  V30 13025 H 2124.48 -1.71949 -2.24394 0
M  V30 13026 H 2124.67 -1.67511 -0.470742 0
M  V30 13027 H 2124.77 2.63704 0.6828 0
M  V30 13028 P 2126.01 7.20834 -5.23717 0
M  V30 13029 O 2126.23 8.66104 -5.38572 0
M  V30 13030 O 2126.8 6.33544 -6.1349 0
M  V30 13031 O 2126.26 6.7751 -3.72168 0
M  V30 13032 C 2125.32 7.20825 -2.7076 0
M  V30 13033 C 2126.05 7.45864 -1.40599 0
M  V30 13034 O 2126.26 6.17651 -0.734225 0
M  V30 13035 C 2127.45 8.05808 -1.51899 0
M  V30 13036 O 2127.84 8.74358 -0.335205 0
M  V30 13037 C 2128.33 6.83093 -1.70294 0
M  V30 13038 C 2127.62 5.79992 -0.836974 0
M  V30 13039 N 2127.67 4.41864 -1.38293 0
M  V30 13040 H 2124.83 8.13644 -3.0377 0
M  V30 13041 H 2124.56 6.42788 -2.55485 0
M  V30 13042 H 2125.43 8.12039 -0.792769 0
M  V30 13043 P 2129.39 8.91 -3.84396e-11 0
M  V30 13044 O 2129.61 10.1726 0.733694 0
M  V30 13045 O 2130.18 8.73148 -1.23936 0
M  V30 13046 O 2129.64 7.66872 0.971405 0
M  V30 13047 C 2128.7 7.42309 2.04641 0
M  V30 13048 C 2129.43 6.86059 3.24661 0
M  V30 13049 O 2129.64 5.42847 3.03646 0
M  V30 13050 C 2130.83 7.41196 3.50753 0
M  V30 13051 O 2131.22 7.27073 4.86816 0
M  V30 13052 C 2131.71 6.5273 2.63741 0
M  V30 13053 C 2131 5.1842 2.73198 0
M  V30 13054 N 2131.05 4.38762 1.4784 0
M  V30 13055 H 2128.21 8.36803 2.32493 0
M  V30 13056 H 2127.94 6.70197 1.71129 0
M  V30 13057 H 2128.81 7.03551 4.13168 0
M  V30 13058 P 2132.77 7.20834 5.23717 0
M  V30 13059 O 2132.99 7.79853 6.57286 0
M  V30 13060 O 2133.56 7.79239 4.12957 0
M  V30 13061 O 2133.02 5.63315 5.29344 0
M  V30 13062 C 2132.08 4.80255 6.01876 0
M  V30 13063 C 2132.81 3.64202 6.65911 0
M  V30 13064 O 2133.02 2.60694 5.64732 0
M  V30 13065 C 2134.21 3.93473 7.1943 0
M  V30 13066 O 2134.6 3.02071 8.21205 0
M  V30 13067 C 2135.09 3.73047 5.97036 0
M  V30 13068 C 2134.38 2.58828 5.25741 0
M  V30 13069 N 2134.43 2.68068 3.77503 0
M  V30 13070 H 2131.59 5.40332 6.79951 0
M  V30 13071 H 2131.32 4.41613 5.32378 0
M  V30 13072 H 2132.19 3.26331 7.47797 0
M  V30 13073 P 2136.15 2.75334 8.47391 0
M  V30 13074 O 2136.37 2.44571 9.90142 0
M  V30 13075 O 2136.94 3.87688 7.92115 0
M  V30 13076 O 2136.4 1.4459 7.59357 0
M  V30 13077 C 2135.46 0.347608 7.69215 0
M  V30 13078 C 2136.19 -0.96767 7.52806 0
M  V30 13079 O 2136.4 -1.21036 6.1011 0
M  V30 13080 C 2137.59 -1.04544 8.13308 0
M  V30 13081 O 2137.98 -2.38311 8.41922 0
M  V30 13082 C 2138.47 -0.491279 7.02284 0
M  V30 13083 C 2137.76 -0.996264 5.77469 0
M  V30 13084 N 2137.81 -0.0501916 4.62973 0
M  V30 13085 C 2137.73 1.32786 4.63244 0
M  V30 13086 N 2137.81 1.86957 3.44545 0
M  V30 13087 C 2137.95 0.780241 2.58481 0
M  V30 13088 C 2138.08 0.738536 1.17757 0
M  V30 13089 O 2138.1 1.66794 0.372349 0
M  V30 13090 N 2138.2 -0.58337 0.711393 0
M  V30 13091 C 2138.2 -1.70816 1.51017 0
M  V30 13092 N 2138.33 -2.87826 0.880757 0
M  V30 13093 N 2138.07 -1.67126 2.8339 0
M  V30 13094 C 2137.95 -0.401421 3.30572 0
M  V30 13095 H 2134.97 0.374722 8.67691 0
M  V30 13096 H 2134.7 0.443485 6.90277 0
M  V30 13097 H 2135.57 -1.75537 7.96793 0
M  V30 13098 H 2138.22 -1.95076 5.46529 0
M  V30 13099 H 2138.5 0.608565 7.04577 0
M  V30 13100 H 2139.49 -0.889672 7.08939 0
M  V30 13101 H 2137.66 -0.43308 9.04564 0
M  V30 13102 H 2137.61 1.91249 5.54442 0
M  V30 13103 H 2138.29 -0.718054 -0.275244 0
M  V30 13104 H 2138.33 -3.75721 1.41832 0
M  V30 13105 H 2138.43 -2.90436 -0.145468 0
M  V30 13106 P 2139.53 -2.75334 8.47391 0
M  V30 13107 O 2139.75 -3.84128 9.44797 0
M  V30 13108 O 2140.32 -1.51947 8.68712 0
M  V30 13109 O 2139.78 -3.29363 6.99321 0
M  V30 13110 C 2138.84 -4.24011 6.4274 0
M  V30 13111 C 2139.57 -5.20775 5.52155 0
M  V30 13112 O 2139.78 -4.56534 4.22446 0
M  V30 13113 C 2140.97 -5.62629 5.96531 0
M  V30 13114 O 2141.36 -6.87667 5.41053 0
M  V30 13115 C 2141.85 -4.52537 5.39283 0
M  V30 13116 C 2141.14 -4.20027 4.08623 0
M  V30 13117 N 2141.19 -2.76189 3.71603 0
M  V30 13118 H 2138.35 -4.797 7.24003 0
M  V30 13119 H 2138.08 -3.69856 5.84513 0
M  V30 13120 H 2138.95 -6.10356 5.41441 0
M  V30 13121 P 2142.91 -7.20834 5.23717 0
M  V30 13122 O 2143.13 -8.66104 5.38572 0
M  V30 13123 O 2143.7 -6.33544 6.1349 0
M  V30 13124 O 2143.16 -6.7751 3.72168 0
M  V30 13125 C 2142.22 -7.20825 2.7076 0
M  V30 13126 C 2142.95 -7.45864 1.40599 0
M  V30 13127 O 2143.16 -6.17651 0.734225 0
M  V30 13128 C 2144.35 -8.05808 1.51899 0
M  V30 13129 O 2144.74 -8.74358 0.335205 0
M  V30 13130 C 2145.23 -6.83093 1.70294 0
M  V30 13131 C 2144.52 -5.79992 0.836974 0
M  V30 13132 N 2144.57 -4.41864 1.38293 0
M  V30 13133 H 2141.73 -8.13644 3.0377 0
M  V30 13134 H 2141.46 -6.42788 2.55485 0
M  V30 13135 H 2142.33 -8.12039 0.792769 0
M  V30 13136 P 2146.29 -8.91 3.95487e-11 0
M  V30 13137 O 2146.51 -10.1726 -0.733694 0
M  V30 13138 O 2147.08 -8.73148 1.23936 0
M  V30 13139 O 2146.54 -7.66872 -0.971405 0
M  V30 13140 C 2145.6 -7.42309 -2.04641 0
M  V30 13141 C 2146.33 -6.86059 -3.24661 0
M  V30 13142 O 2146.54 -5.42847 -3.03646 0
M  V30 13143 C 2147.73 -7.41196 -3.50753 0
M  V30 13144 O 2148.12 -7.27073 -4.86816 0
M  V30 13145 C 2148.61 -6.5273 -2.63741 0
M  V30 13146 C 2147.9 -5.1842 -2.73198 0
M  V30 13147 N 2147.95 -4.38762 -1.4784 0
M  V30 13148 H 2145.11 -8.36803 -2.32493 0
M  V30 13149 H 2144.84 -6.70197 -1.71129 0
M  V30 13150 H 2145.71 -7.03551 -4.13168 0
M  V30 13151 P 2149.67 -7.20834 -5.23717 0
M  V30 13152 O 2149.89 -7.79853 -6.57286 0
M  V30 13153 O 2150.46 -7.79239 -4.12957 0
M  V30 13154 O 2149.92 -5.63315 -5.29344 0
M  V30 13155 C 2148.98 -4.80255 -6.01876 0
M  V30 13156 C 2149.71 -3.64202 -6.65911 0
M  V30 13157 O 2149.92 -2.60694 -5.64732 0
M  V30 13158 C 2151.11 -3.93473 -7.1943 0
M  V30 13159 O 2151.5 -3.02071 -8.21205 0
M  V30 13160 C 2151.99 -3.73047 -5.97036 0
M  V30 13161 C 2151.28 -2.58828 -5.25741 0
M  V30 13162 N 2151.33 -2.68068 -3.77503 0
M  V30 13163 H 2148.49 -5.40332 -6.79951 0
M  V30 13164 H 2148.22 -4.41613 -5.32378 0
M  V30 13165 H 2149.09 -3.26331 -7.47797 0
M  V30 13166 P 2153.05 -2.75334 -8.47391 0
M  V30 13167 O 2153.27 -2.44571 -9.90142 0
M  V30 13168 O 2153.84 -3.87688 -7.92115 0
M  V30 13169 O 2153.3 -1.4459 -7.59357 0
M  V30 13170 C 2152.36 -0.347608 -7.69215 0
M  V30 13171 C 2153.09 0.96767 -7.52806 0
M  V30 13172 O 2153.3 1.21036 -6.1011 0
M  V30 13173 C 2154.49 1.04544 -8.13308 0
M  V30 13174 O 2154.88 2.38311 -8.41922 0
M  V30 13175 C 2155.37 0.491279 -7.02284 0
M  V30 13176 C 2154.66 0.996264 -5.77469 0
M  V30 13177 N 2154.71 0.0501916 -4.62973 0
M  V30 13178 H 2151.87 -0.374722 -8.67691 0
M  V30 13179 H 2151.6 -0.443485 -6.90277 0
M  V30 13180 H 2152.47 1.75537 -7.96793 0
M  V30 13181 P 2156.43 2.75334 -8.47391 0
M  V30 13182 O 2156.65 3.84166 -9.4489 0
M  V30 13183 O 2157.22 1.51964 -8.6881 0
M  V30 13184 O 2156.68 3.29363 -6.99321 0
M  V30 13185 C 2155.74 4.23956 -6.42656 0
M  V30 13186 C 2156.47 5.20775 -5.52155 0
M  V30 13187 O 2156.68 4.56534 -4.22446 0
M  V30 13188 C 2157.87 5.62629 -5.96531 0
M  V30 13189 O 2158.26 6.87667 -5.41053 0
M  V30 13190 C 2158.75 4.52537 -5.39283 0
M  V30 13191 C 2158.04 4.20027 -4.08623 0
M  V30 13192 N 2158.09 2.7613 -3.71522 0
M  V30 13193 C 2158.24 2.45612 -2.37989 0
M  V30 13194 O 2158.33 3.30919 -1.51621 0
M  V30 13195 N 2158.28 1.10684 -2.08435 0
M  V30 13196 C 2158.19 0.0690084 -2.9792 0
M  V30 13197 O 2158.24 -1.10553 -2.59426 0
M  V30 13198 C 2158.04 0.481522 -4.35345 0
M  V30 13199 C 2157.93 -0.618778 -5.36443 0
M  V30 13200 C 2157.99 1.78906 -4.67968 0
M  V30 13201 H 2155.25 4.797 -7.24003 0
M  V30 13202 H 2154.98 3.69802 -5.84429 0
M  V30 13203 H 2155.85 6.10356 -5.41441 0
M  V30 13204 H 2158.5 4.78651 -3.27911 0
M  V30 13205 H 2158.78 3.64957 -6.05871 0
M  V30 13206 H 2159.77 4.8868 -5.2125 0
M  V30 13207 H 2157.94 5.66726 -7.06352 0
M  V30 13208 H 2157.87 2.07737 -5.72367 0
M  V30 13209 H 2158.9 -0.754375 -5.86871 0
M  V30 13210 H 2157.16 -0.359721 -6.10641 0
M  V30 13211 H 2157.65 -1.55533 -4.8581 0
M  V30 13212 H 2158.38 0.862651 -1.12037 0
M  V30 13213 P 2159.81 7.20834 -5.23717 0
M  V30 13214 O 2160.03 8.66104 -5.38572 0
M  V30 13215 O 2160.6 6.33544 -6.1349 0
M  V30 13216 O 2160.06 6.7751 -3.72168 0
M  V30 13217 C 2159.12 7.20825 -2.7076 0
M  V30 13218 C 2159.85 7.45864 -1.40599 0
M  V30 13219 O 2160.06 6.17651 -0.734225 0
M  V30 13220 C 2161.25 8.05808 -1.51899 0
M  V30 13221 O 2161.64 8.74358 -0.335205 0
M  V30 13222 C 2162.13 6.83093 -1.70294 0
M  V30 13223 C 2161.42 5.79992 -0.836974 0
M  V30 13224 N 2161.47 4.41864 -1.38293 0
M  V30 13225 H 2158.63 8.13644 -3.0377 0
M  V30 13226 H 2158.36 6.42788 -2.55485 0
M  V30 13227 H 2159.23 8.12039 -0.792769 0
M  V30 13228 P 2163.19 8.91 -4.06577e-11 0
M  V30 13229 O 2163.41 10.1726 0.733694 0
M  V30 13230 O 2163.98 8.73148 -1.23936 0
M  V30 13231 O 2163.44 7.66872 0.971405 0
M  V30 13232 C 2162.5 7.42309 2.04641 0
M  V30 13233 C 2163.23 6.86059 3.24661 0
M  V30 13234 O 2163.44 5.42847 3.03646 0
M  V30 13235 C 2164.63 7.41196 3.50753 0
M  V30 13236 O 2165.02 7.27073 4.86816 0
M  V30 13237 C 2165.51 6.5273 2.63741 0
M  V30 13238 C 2164.8 5.1842 2.73198 0
M  V30 13239 N 2164.85 4.38762 1.4784 0
M  V30 13240 C 2164.77 4.81605 0.168631 0
M  V30 13241 N 2164.85 3.85454 -0.713363 0
M  V30 13242 C 2164.99 2.6994 0.0566958 0
M  V30 13243 C 2165.12 1.34815 -0.338502 0
M  V30 13244 O 2165.14 0.869548 -1.47125 0
M  V30 13245 N 2165.24 0.496304 0.77465 0
M  V30 13246 C 2165.24 0.908403 2.09122 0
M  V30 13247 N 2165.37 -0.0517805 3.00955 0
M  V30 13248 N 2165.11 2.17875 2.46519 0
M  V30 13249 C 2164.99 3.01988 1.4033 0
M  V30 13250 H 2162.01 8.36803 2.32493 0
M  V30 13251 H 2161.74 6.70197 1.71129 0
M  V30 13252 H 2162.61 7.03551 4.13168 0
M  V30 13253 H 2165.26 4.59498 3.54415 0
M  V30 13254 H 2165.54 6.88898 1.59848 0
M  V30 13255 H 2166.53 6.46749 3.03687 0
M  V30 13256 H 2164.7 8.46908 3.20714 0
M  V30 13257 H 2164.65 5.86405 -0.105564 0
M  V30 13258 H 2165.33 -0.483664 0.597855 0
M  V30 13259 H 2165.37 0.187865 4.0116 0
M  V30 13260 H 2165.47 -1.03585 2.71726 0
M  V30 13261 P 2166.57 7.20834 5.23717 0
M  V30 13262 O 2166.79 7.79853 6.57286 0
M  V30 13263 O 2167.36 7.79239 4.12957 0
M  V30 13264 O 2166.82 5.63315 5.29344 0
M  V30 13265 C 2165.88 4.80255 6.01876 0
M  V30 13266 C 2166.61 3.64202 6.65911 0
M  V30 13267 O 2166.82 2.60694 5.64732 0
M  V30 13268 C 2168.01 3.93473 7.1943 0
M  V30 13269 O 2168.4 3.02071 8.21205 0
M  V30 13270 C 2168.89 3.73047 5.97036 0
M  V30 13271 C 2168.18 2.58828 5.25741 0
M  V30 13272 N 2168.23 2.68068 3.77503 0
M  V30 13273 C 2168.15 3.79715 2.96723 0
M  V30 13274 N 2168.23 3.5377 1.68852 0
M  V30 13275 C 2168.37 2.15054 1.63254 0
M  V30 13276 C 2168.5 1.28964 0.518571 0
M  V30 13277 N 2168.62 -0.0538097 0.918425 0
M  V30 13278 C 2168.62 -0.494275 2.22578 0
M  V30 13279 N 2168.75 -1.81086 2.40434 0
M  V30 13280 N 2168.49 0.313645 3.27502 0
M  V30 13281 C 2168.37 1.61829 2.91033 0
M  V30 13282 H 2165.39 5.40332 6.79951 0
M  V30 13283 H 2165.12 4.41613 5.32378 0
M  V30 13284 H 2165.99 3.26331 7.47797 0
M  V30 13285 P 2169.95 2.75334 8.47391 0
M  V30 13286 O 2170.17 2.44571 9.90142 0
M  V30 13287 O 2170.74 3.87688 7.92115 0
M  V30 13288 O 2170.2 1.4459 7.59357 0
M  V30 13289 C 2169.26 0.347608 7.69215 0
M  V30 13290 C 2169.99 -0.96767 7.52806 0
M  V30 13291 O 2170.2 -1.21036 6.1011 0
M  V30 13292 C 2171.39 -1.04544 8.13308 0
M  V30 13293 O 2171.78 -2.38311 8.41922 0
M  V30 13294 C 2172.27 -0.491279 7.02284 0
M  V30 13295 C 2171.56 -0.996264 5.77469 0
M  V30 13296 N 2171.61 -0.0501916 4.62973 0
M  V30 13297 H 2168.77 0.374722 8.67691 0
M  V30 13298 H 2168.5 0.443485 6.90277 0
M  V30 13299 H 2169.37 -1.75537 7.96793 0
M  V30 13300 P 2173.33 -2.75334 8.47391 0
M  V30 13301 O 2173.55 -3.84128 9.44797 0
M  V30 13302 O 2174.12 -1.51947 8.68712 0
M  V30 13303 O 2173.58 -3.29363 6.99321 0
M  V30 13304 C 2172.64 -4.24011 6.4274 0
M  V30 13305 C 2173.37 -5.20775 5.52155 0
M  V30 13306 O 2173.58 -4.56534 4.22446 0
M  V30 13307 C 2174.77 -5.62629 5.96531 0
M  V30 13308 O 2175.16 -6.87667 5.41053 0
M  V30 13309 C 2175.65 -4.52537 5.39283 0
M  V30 13310 C 2174.94 -4.20027 4.08623 0
M  V30 13311 N 2174.99 -2.76189 3.71603 0
M  V30 13312 C 2174.91 -1.64862 4.52822 0
M  V30 13313 N 2174.99 -0.512671 3.88633 0
M  V30 13314 C 2175.13 -0.888083 2.54977 0
M  V30 13315 C 2175.26 -0.094668 1.38677 0
M  V30 13316 N 2175.38 -0.890102 0.232633 0
M  V30 13317 C 2175.38 -2.26958 0.21772 0
M  V30 13318 N 2175.51 -2.84626 -0.97925 0
M  V30 13319 N 2175.25 -3.0178 1.31033 0
M  V30 13320 C 2175.13 -2.26781 2.43843 0
M  V30 13321 H 2172.15 -4.797 7.24003 0
M  V30 13322 H 2171.88 -3.69856 5.84513 0
M  V30 13323 H 2172.75 -6.10356 5.41441 0
M  V30 13324 P 2176.71 -7.20834 5.23717 0
M  V30 13325 O 2176.93 -8.66104 5.38572 0
M  V30 13326 O 2177.5 -6.33544 6.1349 0
M  V30 13327 O 2176.96 -6.7751 3.72168 0
M  V30 13328 C 2176.02 -7.20825 2.7076 0
M  V30 13329 C 2176.75 -7.45864 1.40599 0
M  V30 13330 O 2176.96 -6.17651 0.734225 0
M  V30 13331 C 2178.15 -8.05808 1.51899 0
M  V30 13332 O 2178.54 -8.74358 0.335205 0
M  V30 13333 C 2179.03 -6.83093 1.70294 0
M  V30 13334 C 2178.32 -5.79992 0.836974 0
M  V30 13335 N 2178.37 -4.41864 1.38293 0
M  V30 13336 C 2178.29 -3.99538 2.69438 0
M  V30 13337 N 2178.37 -2.69909 2.84277 0
M  V30 13338 C 2178.51 -2.21719 1.5408 0
M  V30 13339 C 2178.64 -0.891712 1.06628 0
M  V30 13340 O 2178.66 0.161298 1.70137 0
M  V30 13341 N 2178.76 -0.856846 -0.334985 0
M  V30 13342 C 2178.76 -1.9641 -1.15789 0
M  V30 13343 N 2178.89 -1.72708 -2.46522 0
M  V30 13344 N 2178.63 -3.21165 -0.713741 0
M  V30 13345 C 2178.51 -3.26797 0.639748 0
M  V30 13346 H 2175.53 -8.13644 3.0377 0
M  V30 13347 H 2175.26 -6.42788 2.55485 0
M  V30 13348 H 2176.13 -8.12039 0.792769 0
M  V30 13349 H 2178.78 -5.80061 -0.166416 0
M  V30 13350 H 2179.06 -6.51287 2.75604 0
M  V30 13351 H 2180.05 -7.01734 1.34462 0
M  V30 13352 H 2178.22 -8.73674 2.38337 0
M  V30 13353 H 2178.17 -4.68207 3.53221 0
M  V30 13354 H 2178.85 0.0398818 -0.767965 0
M  V30 13355 H 2178.89 -2.50995 -3.13503 0
M  V30 13356 H 2178.99 -0.759148 -2.80716 0
M  V30 13357 P 2180.09 -8.91 4.17667e-11 0
M  V30 13358 O 2180.31 -10.1746 -0.733838 0
M  V30 13359 O 2180.88 -8.73346 1.23964 0
M  V30 13360 O 2180.34 -7.66872 -0.971405 0
M  V30 13361 C 2179.4 -7.42405 -2.04668 0
M  V30 13362 C 2180.13 -6.86059 -3.24661 0
M  V30 13363 O 2180.34 -5.42934 -3.03695 0
M  V30 13364 C 2181.53 -7.41287 -3.50796 0
M  V30 13365 O 2181.92 -7.27073 -4.86816 0
M  V30 13366 C 2182.41 -6.5273 -2.63741 0
M  V30 13367 C 2181.7 -5.1842 -2.73198 0
M  V30 13368 N 2181.75 -4.38762 -1.4784 0
M  V30 13369 C 2181.67 -4.83651 -0.183876 0
M  V30 13370 N 2181.74 -3.88759 0.699393 0
M  V30 13371 C 2181.89 -2.7404 -0.0575568 0
M  V30 13372 C 2182.02 -1.37902 0.293928 0
M  V30 13373 N 2182.03 -0.938021 1.54797 0
M  V30 13374 N 2182.14 -0.491817 -0.70549 0
M  V30 13375 C 2182.13 -0.931735 -1.95979 0
M  V30 13376 N 2182.01 -2.16017 -2.41481 0
M  V30 13377 C 2181.89 -3.02547 -1.39121 0
M  V30 13378 H 2178.91 -8.36899 -2.3252 0
M  V30 13379 H 2178.64 -6.70391 -1.71179 0
M  V30 13380 H 2179.51 -7.03638 -4.13219 0
M  V30 13381 H 2182.16 -4.59931 -3.54016 0
M  V30 13382 H 2182.44 -6.88995 -1.59871 0
M  V30 13383 H 2183.43 -6.4684 -3.0373 0
M  V30 13384 H 2181.6 -8.47002 -3.20749 0
M  V30 13385 H 2181.56 -5.8885 0.0765548 0
M  V30 13386 H 2181.94 -1.60276 2.32875 0
M  V30 13387 H 2182.13 0.0699355 1.73859 0
M  V30 13388 H 2182.23 -0.165507 -2.71897 0
M  V30 13389 P 2183.47 -7.20834 -5.23717 0
M  V30 13390 O 2183.69 -7.79853 -6.57286 0
M  V30 13391 O 2184.26 -7.79239 -4.12957 0
M  V30 13392 O 2183.72 -5.63315 -5.29344 0
M  V30 13393 C 2182.78 -4.80255 -6.01876 0
M  V30 13394 C 2183.51 -3.64202 -6.65911 0
M  V30 13395 O 2183.72 -2.60694 -5.64732 0
M  V30 13396 C 2184.91 -3.93473 -7.1943 0
M  V30 13397 O 2185.3 -3.02071 -8.21205 0
M  V30 13398 C 2185.79 -3.73047 -5.97036 0
M  V30 13399 C 2185.08 -2.58828 -5.25741 0
M  V30 13400 N 2185.13 -2.68068 -3.77503 0
M  V30 13401 C 2185.05 -3.79715 -2.96723 0
M  V30 13402 N 2185.13 -3.5377 -1.68852 0
M  V30 13403 C 2185.27 -2.15054 -1.63254 0
M  V30 13404 C 2185.4 -1.28964 -0.518571 0
M  V30 13405 O 2185.42 -1.56826 0.679156 0
M  V30 13406 N 2185.52 0.0538097 -0.918425 0
M  V30 13407 C 2185.52 0.494275 -2.22578 0
M  V30 13408 N 2185.65 1.81086 -2.40434 0
M  V30 13409 N 2185.39 -0.313645 -3.27502 0
M  V30 13410 C 2185.27 -1.61829 -2.91033 0
M  V30 13411 H 2182.29 -5.40332 -6.79951 0
M  V30 13412 H 2182.02 -4.41613 -5.32378 0
M  V30 13413 H 2182.89 -3.26331 -7.47797 0
M  V30 13414 H 2185.54 -1.63422 -5.56814 0
M  V30 13415 H 2185.82 -4.63374 -5.34244 0
M  V30 13416 H 2186.81 -3.44728 -6.25838 0
M  V30 13417 H 2184.98 -4.96652 -7.57263 0
M  V30 13418 H 2184.93 -4.80617 -3.3614 0
M  V30 13419 H 2185.61 0.742702 -0.199384 0
M  V30 13420 H 2185.65 2.20598 -3.35588 0
M  V30 13421 H 2185.75 2.43518 -1.58945 0
M  V30 13422 P 2186.85 -2.75334 -8.47391 0
M  V30 13423 O 2187.07 -2.44571 -9.90142 0
M  V30 13424 O 2187.64 -3.87688 -7.92115 0
M  V30 13425 O 2187.1 -1.4459 -7.59357 0
M  V30 13426 C 2186.16 -0.347608 -7.69215 0
M  V30 13427 C 2186.89 0.96767 -7.52806 0
M  V30 13428 O 2187.1 1.21036 -6.1011 0
M  V30 13429 C 2188.29 1.04544 -8.13308 0
M  V30 13430 O 2188.68 2.38311 -8.41922 0
M  V30 13431 C 2189.17 0.491279 -7.02284 0
M  V30 13432 C 2188.46 0.996264 -5.77469 0
M  V30 13433 N 2188.51 0.0501916 -4.62973 0
M  V30 13434 C 2188.43 -1.32786 -4.63244 0
M  V30 13435 N 2188.51 -1.86957 -3.44545 0
M  V30 13436 C 2188.65 -0.780241 -2.58481 0
M  V30 13437 C 2188.78 -0.738536 -1.17757 0
M  V30 13438 O 2188.8 -1.66794 -0.372349 0
M  V30 13439 N 2188.9 0.58337 -0.711393 0
M  V30 13440 C 2188.9 1.70816 -1.51017 0
M  V30 13441 N 2189.03 2.87826 -0.880757 0
M  V30 13442 N 2188.77 1.67126 -2.8339 0
M  V30 13443 C 2188.65 0.401421 -3.30572 0
M  V30 13444 H 2185.67 -0.374722 -8.67691 0
M  V30 13445 H 2185.4 -0.443485 -6.90277 0
M  V30 13446 H 2186.27 1.75537 -7.96793 0
M  V30 13447 H 2188.92 1.95076 -5.46529 0
M  V30 13448 H 2189.2 -0.608565 -7.04577 0
M  V30 13449 H 2190.19 0.889672 -7.08939 0
M  V30 13450 H 2188.36 0.43308 -9.04564 0
M  V30 13451 H 2188.31 -1.91249 -5.54442 0
M  V30 13452 H 2188.99 0.718054 0.275244 0
M  V30 13453 H 2189.03 3.75721 -1.41832 0
M  V30 13454 H 2189.13 2.90436 0.145468 0
M  V30 13455 P 2190.23 2.75334 -8.47391 0
M  V30 13456 O 2190.45 3.84128 -9.44797 0
M  V30 13457 O 2191.02 1.51947 -8.68712 0
M  V30 13458 O 2190.48 3.29363 -6.99321 0
M  V30 13459 C 2189.54 4.24011 -6.4274 0
M  V30 13460 C 2190.27 5.20775 -5.52155 0
M  V30 13461 O 2190.48 4.56534 -4.22446 0
M  V30 13462 C 2191.67 5.62629 -5.96531 0
M  V30 13463 O 2192.06 6.87667 -5.41053 0
M  V30 13464 C 2192.55 4.52537 -5.39283 0
M  V30 13465 C 2191.84 4.20027 -4.08623 0
M  V30 13466 N 2191.89 2.76189 -3.71603 0
M  V30 13467 H 2189.05 4.797 -7.24003 0
M  V30 13468 H 2188.78 3.69856 -5.84513 0
M  V30 13469 H 2189.65 6.10356 -5.41441 0
M  V30 13470 P 2193.61 7.20834 -5.23717 0
M  V30 13471 O 2193.83 8.66274 -5.38678 0
M  V30 13472 O 2194.4 6.33687 -6.13629 0
M  V30 13473 O 2193.86 6.7751 -3.72168 0
M  V30 13474 C 2192.92 7.20919 -2.70795 0
M  V30 13475 C 2193.65 7.45864 -1.40599 0
M  V30 13476 O 2193.86 6.17751 -0.734343 0
M  V30 13477 C 2195.05 8.05906 -1.51917 0
M  V30 13478 O 2195.44 8.74358 -0.335205 0
M  V30 13479 C 2195.93 6.83093 -1.70294 0
M  V30 13480 C 2195.22 5.79992 -0.836974 0
M  V30 13481 N 2195.27 4.41864 -1.38293 0
M  V30 13482 C 2195.19 4.02089 -2.69407 0
M  V30 13483 N 2195.26 2.73403 -2.85089 0
M  V30 13484 C 2195.41 2.25086 -1.5642 0
M  V30 13485 C 2195.54 0.942887 -1.04836 0
M  V30 13486 N 2195.55 -0.150999 -1.80369 0
M  V30 13487 N 2195.66 0.812565 0.28167 0
M  V30 13488 C 2195.65 1.90572 1.03784 0
M  V30 13489 N 2195.53 3.167 0.683905 0
M  V30 13490 C 2195.41 3.26538 -0.652815 0
M  V30 13491 H 2192.43 8.13738 -3.03804 0
M  V30 13492 H 2192.16 6.42974 -2.55559 0
M  V30 13493 H 2193.03 8.12139 -0.792866 0
M  V30 13494 H 2195.68 5.80178 0.160643 0
M  V30 13495 H 2195.96 6.51379 -2.75643 0
M  V30 13496 H 2196.95 7.01832 -1.3448 0
M  V30 13497 H 2195.12 8.73771 -2.38364 0
M  V30 13498 H 2195.08 4.7189 -3.52311 0
M  V30 13499 H 2195.46 -0.0721434 -2.82608 0
M  V30 13500 H 2195.65 -1.0785 -1.36544 0
M  V30 13501 H 2195.75 1.73207 2.10241 0
M  V30 13502 P 2196.99 8.91 -4.28757e-11 0
M  V30 13503 O 2197.21 10.1726 0.733694 0
M  V30 13504 O 2197.78 8.73148 -1.23936 0
M  V30 13505 O 2197.24 7.66872 0.971405 0
M  V30 13506 C 2196.3 7.42309 2.04641 0
M  V30 13507 C 2197.03 6.86059 3.24661 0
M  V30 13508 O 2197.24 5.42847 3.03646 0
M  V30 13509 C 2198.43 7.41196 3.50753 0
M  V30 13510 O 2198.82 7.27073 4.86816 0
M  V30 13511 C 2199.31 6.5273 2.63741 0
M  V30 13512 C 2198.6 5.1842 2.73198 0
M  V30 13513 N 2198.65 4.38762 1.4784 0
M  V30 13514 H 2195.81 8.36803 2.32493 0
M  V30 13515 H 2195.54 6.70197 1.71129 0
M  V30 13516 H 2196.4 7.03551 4.13168 0
M  V30 13517 P 2200.37 7.20834 5.23717 0
M  V30 13518 O 2200.59 7.79853 6.57286 0
M  V30 13519 O 2201.16 7.79239 4.12957 0
M  V30 13520 O 2200.62 5.63315 5.29344 0
M  V30 13521 C 2199.68 4.80255 6.01876 0
M  V30 13522 C 2200.41 3.64202 6.65911 0
M  V30 13523 O 2200.62 2.60694 5.64732 0
M  V30 13524 C 2201.81 3.93473 7.1943 0
M  V30 13525 O 2202.2 3.02071 8.21205 0
M  V30 13526 C 2202.69 3.73047 5.97036 0
M  V30 13527 C 2201.98 2.58828 5.25741 0
M  V30 13528 N 2202.03 2.68068 3.77503 0
M  V30 13529 H 2199.19 5.40332 6.79951 0
M  V30 13530 H 2198.92 4.41613 5.32378 0
M  V30 13531 H 2199.78 3.26331 7.47797 0
M  V30 13532 P 2203.75 2.75334 8.47391 0
M  V30 13533 O 2203.97 2.44571 9.90142 0
M  V30 13534 O 2204.54 3.87688 7.92115 0
M  V30 13535 O 2204 1.4459 7.59357 0
M  V30 13536 C 2203.06 0.347608 7.69215 0
M  V30 13537 C 2203.79 -0.96767 7.52806 0
M  V30 13538 O 2204 -1.21036 6.1011 0
M  V30 13539 C 2205.19 -1.04544 8.13308 0
M  V30 13540 O 2205.58 -2.38311 8.41922 0
M  V30 13541 C 2206.07 -0.491279 7.02284 0
M  V30 13542 C 2205.36 -0.996264 5.77469 0
M  V30 13543 N 2205.41 -0.0501916 4.62973 0
M  V30 13544 C 2205.33 1.32786 4.63244 0
M  V30 13545 N 2205.41 1.86957 3.44545 0
M  V30 13546 C 2205.55 0.780241 2.58481 0
M  V30 13547 C 2205.68 0.738536 1.17757 0
M  V30 13548 N 2205.8 -0.58337 0.711393 0
M  V30 13549 C 2205.8 -1.70816 1.51017 0
M  V30 13550 N 2205.93 -2.87826 0.880757 0
M  V30 13551 N 2205.67 -1.67126 2.8339 0
M  V30 13552 C 2205.55 -0.401421 3.30572 0
M  V30 13553 H 2202.57 0.374722 8.67691 0
M  V30 13554 H 2202.3 0.443485 6.90277 0
M  V30 13555 H 2203.16 -1.75537 7.96793 0
M  V30 13556 P 2207.13 -2.75334 8.47391 0
M  V30 13557 O 2207.35 -3.84128 9.44797 0
M  V30 13558 O 2207.92 -1.51947 8.68712 0
M  V30 13559 O 2207.38 -3.29363 6.99321 0
M  V30 13560 C 2206.44 -4.24011 6.4274 0
M  V30 13561 C 2207.17 -5.20775 5.52155 0
M  V30 13562 O 2207.38 -4.56534 4.22446 0
M  V30 13563 C 2208.57 -5.62629 5.96531 0
M  V30 13564 O 2208.96 -6.87667 5.41053 0
M  V30 13565 C 2209.45 -4.52537 5.39283 0
M  V30 13566 C 2208.74 -4.20027 4.08623 0
M  V30 13567 N 2208.79 -2.76189 3.71603 0
M  V30 13568 H 2205.95 -4.797 7.24003 0
M  V30 13569 H 2205.68 -3.69856 5.84513 0
M  V30 13570 H 2206.54 -6.10356 5.41441 0
M  V30 13571 P 2210.51 -7.20834 5.23717 0
M  V30 13572 O 2210.73 -8.66274 5.38678 0
M  V30 13573 O 2211.3 -6.33687 6.13629 0
M  V30 13574 O 2210.76 -6.7751 3.72168 0
M  V30 13575 C 2209.82 -7.20919 2.70795 0
M  V30 13576 C 2210.55 -7.45864 1.40599 0
M  V30 13577 O 2210.76 -6.17751 0.734343 0
M  V30 13578 C 2211.95 -8.05906 1.51917 0
M  V30 13579 O 2212.34 -8.74358 0.335205 0
M  V30 13580 C 2212.83 -6.83093 1.70294 0
M  V30 13581 C 2212.12 -5.79992 0.836974 0
M  V30 13582 N 2212.17 -4.41864 1.38293 0
M  V30 13583 C 2212.09 -4.02089 2.69407 0
M  V30 13584 N 2212.16 -2.73403 2.85089 0
M  V30 13585 C 2212.31 -2.25086 1.5642 0
M  V30 13586 C 2212.44 -0.942887 1.04836 0
M  V30 13587 N 2212.45 0.150999 1.80369 0
M  V30 13588 N 2212.56 -0.812565 -0.28167 0
M  V30 13589 C 2212.55 -1.90572 -1.03784 0
M  V30 13590 N 2212.43 -3.167 -0.683905 0
M  V30 13591 C 2212.31 -3.26538 0.652815 0
M  V30 13592 H 2209.33 -8.13738 3.03804 0
M  V30 13593 H 2209.06 -6.42974 2.55559 0
M  V30 13594 H 2209.92 -8.12139 0.792866 0
M  V30 13595 H 2212.58 -5.80178 -0.160643 0
M  V30 13596 H 2212.86 -6.51379 2.75643 0
M  V30 13597 H 2213.85 -7.01832 1.3448 0
M  V30 13598 H 2212.02 -8.73771 2.38364 0
M  V30 13599 H 2211.98 -4.7189 3.52311 0
M  V30 13600 H 2212.36 0.0721434 2.82608 0
M  V30 13601 H 2212.55 1.0785 1.36544 0
M  V30 13602 H 2212.65 -1.73207 -2.10241 0
M  V30 13603 P 2213.89 -8.91 4.39847e-11 0
M  V30 13604 O 2214.11 -10.1746 -0.733838 0
M  V30 13605 O 2214.68 -8.73346 1.23964 0
M  V30 13606 O 2214.14 -7.66872 -0.971405 0
M  V30 13607 C 2213.2 -7.42405 -2.04668 0
M  V30 13608 C 2213.93 -6.86059 -3.24661 0
M  V30 13609 O 2214.14 -5.42934 -3.03695 0
M  V30 13610 C 2215.33 -7.41287 -3.50796 0
M  V30 13611 O 2215.72 -7.27073 -4.86816 0
M  V30 13612 C 2216.21 -6.5273 -2.63741 0
M  V30 13613 C 2215.5 -5.1842 -2.73198 0
M  V30 13614 N 2215.55 -4.38762 -1.4784 0
M  V30 13615 C 2215.47 -4.83651 -0.183876 0
M  V30 13616 N 2215.54 -3.88759 0.699393 0
M  V30 13617 C 2215.69 -2.7404 -0.0575568 0
M  V30 13618 C 2215.82 -1.37902 0.293928 0
M  V30 13619 N 2215.83 -0.938021 1.54797 0
M  V30 13620 N 2215.94 -0.491817 -0.70549 0
M  V30 13621 C 2215.93 -0.931735 -1.95979 0
M  V30 13622 N 2215.81 -2.16017 -2.41481 0
M  V30 13623 C 2215.69 -3.02547 -1.39121 0
M  V30 13624 H 2212.71 -8.36899 -2.3252 0
M  V30 13625 H 2212.44 -6.70391 -1.71179 0
M  V30 13626 H 2213.3 -7.03638 -4.13219 0
M  V30 13627 H 2215.96 -4.59931 -3.54016 0
M  V30 13628 H 2216.24 -6.88995 -1.59871 0
M  V30 13629 H 2217.23 -6.4684 -3.0373 0
M  V30 13630 H 2215.4 -8.47002 -3.20749 0
M  V30 13631 H 2215.36 -5.8885 0.0765548 0
M  V30 13632 H 2215.74 -1.60276 2.32875 0
M  V30 13633 H 2215.93 0.0699355 1.73859 0
M  V30 13634 H 2216.03 -0.165507 -2.71897 0
M  V30 13635 P 2217.27 -7.20834 -5.23717 0
M  V30 13636 O 2217.49 -7.80006 -6.57415 0
M  V30 13637 O 2218.06 -7.79416 -4.13051 0
M  V30 13638 O 2217.52 -5.63315 -5.29344 0
M  V30 13639 C 2216.58 -4.80318 -6.01954 0
M  V30 13640 C 2217.31 -3.64202 -6.65911 0
M  V30 13641 O 2217.52 -2.60736 -5.64823 0
M  V30 13642 C 2218.71 -3.93521 -7.19518 0
M  V30 13643 O 2219.1 -3.02071 -8.21205 0
M  V30 13644 C 2219.59 -3.73047 -5.97036 0
M  V30 13645 C 2218.88 -2.58828 -5.25741 0
M  V30 13646 N 2218.93 -2.68068 -3.77503 0
M  V30 13647 C 2218.85 -3.80474 -2.99159 0
M  V30 13648 N 2218.92 -3.55622 -1.71925 0
M  V30 13649 C 2219.07 -2.1832 -1.65733 0
M  V30 13650 C 2219.2 -1.28842 -0.572777 0
M  V30 13651 N 2219.21 -1.66875 0.70098 0
M  V30 13652 N 2219.32 0.016788 -0.859836 0
M  V30 13653 C 2219.31 0.398145 -2.13316 0
M  V30 13654 N 2219.19 -0.328224 -3.22333 0
M  V30 13655 C 2219.07 -1.62992 -2.90383 0
M  V30 13656 H 2216.09 -5.40394 -6.8003 0
M  V30 13657 H 2215.82 -4.41741 -5.32532 0
M  V30 13658 H 2216.68 -3.26371 -7.47889 0
M  V30 13659 H 2219.34 -1.64007 -5.56746 0
M  V30 13660 H 2219.62 -4.63439 -5.3432 0
M  V30 13661 H 2220.61 -3.44776 -6.25925 0
M  V30 13662 H 2218.78 -4.96707 -7.57347 0
M  V30 13663 H 2218.74 -4.8089 -3.39924 0
M  V30 13664 H 2219.12 -2.66547 0.941919 0
M  V30 13665 H 2219.31 -0.965341 1.44766 0
M  V30 13666 H 2219.41 1.46427 -2.29697 0
M  V30 13667 P 2220.65 -2.75334 -8.47391 0
M  V30 13668 O 2220.87 -2.44571 -9.90142 0
M  V30 13669 O 2221.44 -3.87688 -7.92115 0
M  V30 13670 O 2220.9 -1.4459 -7.59357 0
M  V30 13671 C 2219.96 -0.347608 -7.69215 0
M  V30 13672 C 2220.69 0.96767 -7.52806 0
M  V30 13673 O 2220.9 1.21036 -6.1011 0
M  V30 13674 C 2222.09 1.04544 -8.13308 0
M  V30 13675 O 2222.48 2.38311 -8.41922 0
M  V30 13676 C 2222.97 0.491279 -7.02284 0
M  V30 13677 C 2222.26 0.996264 -5.77469 0
M  V30 13678 N 2222.31 0.0501916 -4.62973 0
M  V30 13679 C 2222.23 -1.32786 -4.63244 0
M  V30 13680 N 2222.31 -1.86957 -3.44545 0
M  V30 13681 C 2222.45 -0.780241 -2.58481 0
M  V30 13682 C 2222.58 -0.738536 -1.17757 0
M  V30 13683 N 2222.7 0.58337 -0.711393 0
M  V30 13684 C 2222.7 1.70816 -1.51017 0
M  V30 13685 N 2222.83 2.87826 -0.880757 0
M  V30 13686 N 2222.57 1.67126 -2.8339 0
M  V30 13687 C 2222.45 0.401421 -3.30572 0
M  V30 13688 H 2219.47 -0.374722 -8.67691 0
M  V30 13689 H 2219.2 -0.443485 -6.90277 0
M  V30 13690 H 2220.06 1.75537 -7.96793 0
M  V30 13691 P 2224.03 2.75334 -8.47391 0
M  V30 13692 O 2224.25 3.84128 -9.44797 0
M  V30 13693 O 2224.82 1.51947 -8.68712 0
M  V30 13694 O 2224.28 3.29363 -6.99321 0
M  V30 13695 C 2223.34 4.24011 -6.4274 0
M  V30 13696 C 2224.07 5.20775 -5.52155 0
M  V30 13697 O 2224.28 4.56534 -4.22446 0
M  V30 13698 C 2225.47 5.62629 -5.96531 0
M  V30 13699 O 2225.86 6.87667 -5.41053 0
M  V30 13700 C 2226.35 4.52537 -5.39283 0
M  V30 13701 C 2225.64 4.20027 -4.08623 0
M  V30 13702 N 2225.69 2.76189 -3.71603 0
M  V30 13703 H 2222.85 4.797 -7.24003 0
M  V30 13704 H 2222.58 3.69856 -5.84513 0
M  V30 13705 H 2223.44 6.10356 -5.41441 0
M  V30 13706 P 2227.41 7.20834 -5.23717 0
M  V30 13707 O 2227.63 8.66104 -5.38572 0
M  V30 13708 O 2228.2 6.33544 -6.1349 0
M  V30 13709 O 2227.66 6.7751 -3.72168 0
M  V30 13710 C 2226.72 7.20825 -2.7076 0
M  V30 13711 C 2227.45 7.45864 -1.40599 0
M  V30 13712 O 2227.66 6.17651 -0.734225 0
M  V30 13713 C 2228.85 8.05808 -1.51899 0
M  V30 13714 O 2229.24 8.74358 -0.335205 0
M  V30 13715 C 2229.73 6.83093 -1.70294 0
M  V30 13716 C 2229.02 5.79992 -0.836974 0
M  V30 13717 N 2229.07 4.41864 -1.38293 0
M  V30 13718 H 2226.23 8.13644 -3.0377 0
M  V30 13719 H 2225.96 6.42788 -2.55485 0
M  V30 13720 H 2226.82 8.12039 -0.792769 0
M  V30 13721 P 2230.79 8.91 -4.50937e-11 0
M  V30 13722 O 2231.01 10.1726 0.733694 0
M  V30 13723 O 2231.58 8.73148 -1.23936 0
M  V30 13724 O 2231.04 7.66872 0.971405 0
M  V30 13725 C 2230.1 7.42309 2.04641 0
M  V30 13726 C 2230.83 6.86059 3.24661 0
M  V30 13727 O 2231.04 5.42847 3.03646 0
M  V30 13728 C 2232.23 7.41196 3.50753 0
M  V30 13729 O 2232.62 7.27073 4.86816 0
M  V30 13730 C 2233.11 6.5273 2.63741 0
M  V30 13731 C 2232.4 5.1842 2.73198 0
M  V30 13732 N 2232.45 4.38762 1.4784 0
M  V30 13733 H 2229.61 8.36803 2.32493 0
M  V30 13734 H 2229.34 6.70197 1.71129 0
M  V30 13735 H 2230.2 7.03551 4.13168 0
M  V30 13736 P 2234.17 7.20834 5.23717 0
M  V30 13737 O 2234.39 7.79853 6.57286 0
M  V30 13738 O 2234.96 7.79239 4.12957 0
M  V30 13739 O 2234.42 5.63315 5.29344 0
M  V30 13740 C 2233.48 4.80255 6.01876 0
M  V30 13741 C 2234.21 3.64202 6.65911 0
M  V30 13742 O 2234.42 2.60694 5.64732 0
M  V30 13743 C 2235.61 3.93473 7.1943 0
M  V30 13744 O 2236 3.02071 8.21205 0
M  V30 13745 C 2236.49 3.73047 5.97036 0
M  V30 13746 C 2235.78 2.58828 5.25741 0
M  V30 13747 N 2235.83 2.68068 3.77503 0
M  V30 13748 H 2232.99 5.40332 6.79951 0
M  V30 13749 H 2232.72 4.41613 5.32378 0
M  V30 13750 H 2233.58 3.26331 7.47797 0
M  V30 13751 P 2237.55 2.75334 8.47391 0
M  V30 13752 O 2237.77 2.44571 9.90142 0
M  V30 13753 O 2238.34 3.87688 7.92115 0
M  V30 13754 O 2237.8 1.4459 7.59357 0
M  V30 13755 C 2236.86 0.347608 7.69215 0
M  V30 13756 C 2237.59 -0.96767 7.52806 0
M  V30 13757 O 2237.8 -1.21036 6.1011 0
M  V30 13758 C 2238.99 -1.04544 8.13308 0
M  V30 13759 O 2239.38 -2.38311 8.41922 0
M  V30 13760 C 2239.87 -0.491279 7.02284 0
M  V30 13761 C 2239.16 -0.996264 5.77469 0
M  V30 13762 N 2239.21 -0.0501916 4.62973 0
M  V30 13763 C 2239.13 1.32786 4.63244 0
M  V30 13764 N 2239.21 1.86957 3.44545 0
M  V30 13765 C 2239.35 0.780241 2.58481 0
M  V30 13766 C 2239.48 0.738536 1.17757 0
M  V30 13767 N 2239.6 -0.58337 0.711393 0
M  V30 13768 C 2239.6 -1.70816 1.51017 0
M  V30 13769 N 2239.73 -2.87826 0.880757 0
M  V30 13770 N 2239.47 -1.67126 2.8339 0
M  V30 13771 C 2239.35 -0.401421 3.30572 0
M  V30 13772 H 2236.37 0.374722 8.67691 0
M  V30 13773 H 2236.1 0.443485 6.90277 0
M  V30 13774 H 2236.96 -1.75537 7.96793 0
M  V30 13775 P 2240.93 -2.75334 8.47391 0
M  V30 13776 O 2241.15 -3.84128 9.44797 0
M  V30 13777 O 2241.72 -1.51947 8.68712 0
M  V30 13778 O 2241.18 -3.29363 6.99321 0
M  V30 13779 C 2240.24 -4.24011 6.4274 0
M  V30 13780 C 2240.97 -5.20775 5.52155 0
M  V30 13781 O 2241.18 -4.56534 4.22446 0
M  V30 13782 C 2242.37 -5.62629 5.96531 0
M  V30 13783 O 2242.76 -6.87667 5.41053 0
M  V30 13784 C 2243.25 -4.52537 5.39283 0
M  V30 13785 C 2242.54 -4.20027 4.08623 0
M  V30 13786 N 2242.59 -2.76189 3.71603 0
M  V30 13787 H 2239.75 -4.797 7.24003 0
M  V30 13788 H 2239.48 -3.69856 5.84513 0
M  V30 13789 H 2240.34 -6.10356 5.41441 0
M  V30 13790 P 2244.31 -7.20834 5.23717 0
M  V30 13791 O 2244.53 -8.66104 5.38572 0
M  V30 13792 O 2245.1 -6.33544 6.1349 0
M  V30 13793 O 2244.56 -6.7751 3.72168 0
M  V30 13794 C 2243.62 -7.20825 2.7076 0
M  V30 13795 C 2244.35 -7.45864 1.40599 0
M  V30 13796 O 2244.56 -6.17651 0.734225 0
M  V30 13797 C 2245.75 -8.05808 1.51899 0
M  V30 13798 O 2246.14 -8.74358 0.335205 0
M  V30 13799 C 2246.63 -6.83093 1.70294 0
M  V30 13800 C 2245.92 -5.79992 0.836974 0
M  V30 13801 N 2245.97 -4.41864 1.38293 0
M  V30 13802 H 2243.13 -8.13644 3.0377 0
M  V30 13803 H 2242.86 -6.42788 2.55485 0
M  V30 13804 H 2243.72 -8.12039 0.792769 0
M  V30 13805 P 2247.69 -8.91 4.62027e-11 0
M  V30 13806 O 2247.91 -10.1726 -0.733694 0
M  V30 13807 O 2248.48 -8.73148 1.23936 0
M  V30 13808 O 2247.94 -7.66872 -0.971405 0
M  V30 13809 C 2247 -7.42309 -2.04641 0
M  V30 13810 C 2247.73 -6.86059 -3.24661 0
M  V30 13811 O 2247.94 -5.42847 -3.03646 0
M  V30 13812 C 2249.13 -7.41196 -3.50753 0
M  V30 13813 O 2249.52 -7.27073 -4.86816 0
M  V30 13814 C 2250.01 -6.5273 -2.63741 0
M  V30 13815 C 2249.3 -5.1842 -2.73198 0
M  V30 13816 N 2249.35 -4.38762 -1.4784 0
M  V30 13817 H 2246.51 -8.36803 -2.32493 0
M  V30 13818 H 2246.24 -6.70197 -1.71129 0
M  V30 13819 H 2247.1 -7.03551 -4.13168 0
M  V30 13820 P 2251.07 -7.20834 -5.23717 0
M  V30 13821 O 2251.29 -7.79853 -6.57286 0
M  V30 13822 O 2251.86 -7.79239 -4.12957 0
M  V30 13823 O 2251.32 -5.63315 -5.29344 0
M  V30 13824 C 2250.38 -4.80255 -6.01876 0
M  V30 13825 C 2251.11 -3.64202 -6.65911 0
M  V30 13826 O 2251.32 -2.60694 -5.64732 0
M  V30 13827 C 2252.51 -3.93473 -7.1943 0
M  V30 13828 O 2252.9 -3.02071 -8.21205 0
M  V30 13829 C 2253.39 -3.73047 -5.97036 0
M  V30 13830 C 2252.68 -2.58828 -5.25741 0
M  V30 13831 N 2252.73 -2.68068 -3.77503 0
M  V30 13832 H 2249.89 -5.40332 -6.79951 0
M  V30 13833 H 2249.62 -4.41613 -5.32378 0
M  V30 13834 H 2250.48 -3.26331 -7.47797 0
M  V30 13835 P 2254.45 -2.75334 -8.47391 0
M  V30 13836 O 2254.67 -2.44571 -9.90142 0
M  V30 13837 O 2255.24 -3.87688 -7.92115 0
M  V30 13838 O 2254.7 -1.4459 -7.59357 0
M  V30 13839 C 2253.76 -0.347608 -7.69215 0
M  V30 13840 C 2254.49 0.96767 -7.52806 0
M  V30 13841 O 2254.7 1.21036 -6.1011 0
M  V30 13842 C 2255.89 1.04544 -8.13308 0
M  V30 13843 O 2256.28 2.38311 -8.41922 0
M  V30 13844 C 2256.77 0.491279 -7.02284 0
M  V30 13845 C 2256.06 0.996264 -5.77469 0
M  V30 13846 N 2256.11 0.0501916 -4.62973 0
M  V30 13847 C 2256.03 -1.32786 -4.63244 0
M  V30 13848 N 2256.11 -1.86957 -3.44545 0
M  V30 13849 C 2256.25 -0.780241 -2.58481 0
M  V30 13850 C 2256.38 -0.738536 -1.17757 0
M  V30 13851 O 2256.4 -1.66794 -0.372349 0
M  V30 13852 N 2256.5 0.58337 -0.711393 0
M  V30 13853 C 2256.5 1.70816 -1.51017 0
M  V30 13854 N 2256.63 2.87826 -0.880757 0
M  V30 13855 N 2256.37 1.67126 -2.8339 0
M  V30 13856 C 2256.25 0.401421 -3.30572 0
M  V30 13857 H 2253.27 -0.374722 -8.67691 0
M  V30 13858 H 2253 -0.443485 -6.90277 0
M  V30 13859 H 2253.86 1.75537 -7.96793 0
M  V30 13860 H 2256.52 1.95076 -5.46529 0
M  V30 13861 H 2256.8 -0.608565 -7.04577 0
M  V30 13862 H 2257.79 0.889672 -7.08939 0
M  V30 13863 H 2255.96 0.43308 -9.04564 0
M  V30 13864 H 2255.91 -1.91249 -5.54442 0
M  V30 13865 H 2256.59 0.718054 0.275244 0
M  V30 13866 H 2256.63 3.75721 -1.41832 0
M  V30 13867 H 2256.73 2.90436 0.145468 0
M  V30 13868 P 2257.83 2.75334 -8.47391 0
M  V30 13869 O 2258.05 3.84128 -9.44797 0
M  V30 13870 O 2258.62 1.51947 -8.68712 0
M  V30 13871 O 2258.08 3.29363 -6.99321 0
M  V30 13872 C 2257.14 4.24011 -6.4274 0
M  V30 13873 C 2257.87 5.20775 -5.52155 0
M  V30 13874 O 2258.08 4.56534 -4.22446 0
M  V30 13875 C 2259.27 5.62629 -5.96531 0
M  V30 13876 O 2259.66 6.87667 -5.41053 0
M  V30 13877 C 2260.15 4.52537 -5.39283 0
M  V30 13878 C 2259.44 4.20027 -4.08623 0
M  V30 13879 N 2259.49 2.76189 -3.71603 0
M  V30 13880 H 2256.65 4.797 -7.24003 0
M  V30 13881 H 2256.38 3.69856 -5.84513 0
M  V30 13882 H 2257.24 6.10356 -5.41441 0
M  V30 13883 P 2261.21 7.20834 -5.23717 0
M  V30 13884 O 2261.43 8.66104 -5.38572 0
M  V30 13885 O 2262 6.33544 -6.1349 0
M  V30 13886 O 2261.46 6.7751 -3.72168 0
M  V30 13887 C 2260.52 7.20825 -2.7076 0
M  V30 13888 C 2261.25 7.45864 -1.40599 0
M  V30 13889 O 2261.46 6.17651 -0.734225 0
M  V30 13890 C 2262.65 8.05808 -1.51899 0
M  V30 13891 O 2263.04 8.74358 -0.335205 0
M  V30 13892 C 2263.53 6.83093 -1.70294 0
M  V30 13893 C 2262.82 5.79992 -0.836974 0
M  V30 13894 N 2262.87 4.41864 -1.38293 0
M  V30 13895 H 2260.03 8.13644 -3.0377 0
M  V30 13896 H 2259.76 6.42788 -2.55485 0
M  V30 13897 H 2260.62 8.12039 -0.792769 0
M  V30 13898 P 2264.59 8.91 -4.73117e-11 0
M  V30 13899 O 2264.81 10.1726 0.733694 0
M  V30 13900 O 2265.38 8.73148 -1.23936 0
M  V30 13901 O 2264.84 7.66872 0.971405 0
M  V30 13902 C 2263.9 7.42309 2.04641 0
M  V30 13903 C 2264.63 6.86059 3.24661 0
M  V30 13904 O 2264.84 5.42847 3.03646 0
M  V30 13905 C 2266.03 7.41196 3.50753 0
M  V30 13906 O 2266.42 7.27073 4.86816 0
M  V30 13907 C 2266.91 6.5273 2.63741 0
M  V30 13908 C 2266.2 5.1842 2.73198 0
M  V30 13909 N 2266.25 4.38762 1.4784 0
M  V30 13910 H 2263.41 8.36803 2.32493 0
M  V30 13911 H 2263.14 6.70197 1.71129 0
M  V30 13912 H 2264 7.03551 4.13168 0
M  V30 13913 P 2267.97 7.20834 5.23717 0
M  V30 13914 O 2268.19 7.79853 6.57286 0
M  V30 13915 O 2268.76 7.79239 4.12957 0
M  V30 13916 O 2268.22 5.63315 5.29344 0
M  V30 13917 C 2267.28 4.80255 6.01876 0
M  V30 13918 C 2268.01 3.64202 6.65911 0
M  V30 13919 O 2268.22 2.60694 5.64732 0
M  V30 13920 C 2269.41 3.93473 7.1943 0
M  V30 13921 O 2269.8 3.02071 8.21205 0
M  V30 13922 C 2270.29 3.73047 5.97036 0
M  V30 13923 C 2269.58 2.58828 5.25741 0
M  V30 13924 N 2269.63 2.68068 3.77503 0
M  V30 13925 H 2266.79 5.40332 6.79951 0
M  V30 13926 H 2266.52 4.41613 5.32378 0
M  V30 13927 H 2267.38 3.26331 7.47797 0
M  V30 13928 P 2271.35 2.75334 8.47391 0
M  V30 13929 O 2271.57 2.44571 9.90142 0
M  V30 13930 O 2272.14 3.87688 7.92115 0
M  V30 13931 O 2271.6 1.4459 7.59357 0
M  V30 13932 C 2270.66 0.347608 7.69215 0
M  V30 13933 C 2271.39 -0.96767 7.52806 0
M  V30 13934 O 2271.6 -1.21036 6.1011 0
M  V30 13935 C 2272.79 -1.04544 8.13308 0
M  V30 13936 O 2273.18 -2.38311 8.41922 0
M  V30 13937 C 2273.67 -0.491279 7.02284 0
M  V30 13938 C 2272.96 -0.996264 5.77469 0
M  V30 13939 N 2273.01 -0.0501916 4.62973 0
M  V30 13940 H 2270.17 0.374722 8.67691 0
M  V30 13941 H 2269.9 0.443485 6.90277 0
M  V30 13942 H 2270.76 -1.75537 7.96793 0
M  V30 13943 P 2274.73 -2.75334 8.47391 0
M  V30 13944 O 2274.95 -3.84128 9.44797 0
M  V30 13945 O 2275.52 -1.51947 8.68712 0
M  V30 13946 O 2274.98 -3.29363 6.99321 0
M  V30 13947 C 2274.04 -4.24011 6.4274 0
M  V30 13948 C 2274.77 -5.20775 5.52155 0
M  V30 13949 O 2274.98 -4.56534 4.22446 0
M  V30 13950 C 2276.17 -5.62629 5.96531 0
M  V30 13951 O 2276.56 -6.87667 5.41053 0
M  V30 13952 C 2277.05 -4.52537 5.39283 0
M  V30 13953 C 2276.34 -4.20027 4.08623 0
M  V30 13954 N 2276.39 -2.76189 3.71603 0
M  V30 13955 C 2276.31 -1.64862 4.52822 0
M  V30 13956 N 2276.39 -0.512671 3.88633 0
M  V30 13957 C 2276.53 -0.888083 2.54977 0
M  V30 13958 C 2276.66 -0.094668 1.38677 0
M  V30 13959 N 2276.78 -0.890102 0.232633 0
M  V30 13960 C 2276.78 -2.26958 0.21772 0
M  V30 13961 N 2276.91 -2.84626 -0.97925 0
M  V30 13962 N 2276.65 -3.0178 1.31033 0
M  V30 13963 C 2276.53 -2.26781 2.43843 0
M  V30 13964 H 2273.55 -4.797 7.24003 0
M  V30 13965 H 2273.28 -3.69856 5.84513 0
M  V30 13966 H 2274.14 -6.10356 5.41441 0
M  V30 13967 P 2278.11 -7.20834 5.23717 0
M  V30 13968 O 2278.33 -8.66104 5.38572 0
M  V30 13969 O 2278.9 -6.33544 6.1349 0
M  V30 13970 O 2278.36 -6.7751 3.72168 0
M  V30 13971 C 2277.42 -7.20825 2.7076 0
M  V30 13972 C 2278.15 -7.45864 1.40599 0
M  V30 13973 O 2278.36 -6.17651 0.734225 0
M  V30 13974 C 2279.55 -8.05808 1.51899 0
M  V30 13975 O 2279.94 -8.74358 0.335205 0
M  V30 13976 C 2280.43 -6.83093 1.70294 0
M  V30 13977 C 2279.72 -5.79992 0.836974 0
M  V30 13978 N 2279.77 -4.41864 1.38293 0
M  V30 13979 H 2276.93 -8.13644 3.0377 0
M  V30 13980 H 2276.66 -6.42788 2.55485 0
M  V30 13981 H 2277.52 -8.12039 0.792769 0
M  V30 13982 P 2281.49 -8.91 4.84207e-11 0
M  V30 13983 O 2281.71 -10.1726 -0.733694 0
M  V30 13984 O 2282.28 -8.73148 1.23936 0
M  V30 13985 O 2281.74 -7.66872 -0.971405 0
M  V30 13986 C 2280.8 -7.42309 -2.04641 0
M  V30 13987 C 2281.53 -6.86059 -3.24661 0
M  V30 13988 O 2281.74 -5.42847 -3.03646 0
M  V30 13989 C 2282.93 -7.41196 -3.50753 0
M  V30 13990 O 2283.32 -7.27073 -4.86816 0
M  V30 13991 C 2283.81 -6.5273 -2.63741 0
M  V30 13992 C 2283.1 -5.1842 -2.73198 0
M  V30 13993 N 2283.15 -4.38762 -1.4784 0
M  V30 13994 H 2280.31 -8.36803 -2.32493 0
M  V30 13995 H 2280.04 -6.70197 -1.71129 0
M  V30 13996 H 2280.9 -7.03551 -4.13168 0
M  V30 13997 P 2284.87 -7.20834 -5.23717 0
M  V30 13998 O 2285.09 -7.79853 -6.57286 0
M  V30 13999 O 2285.66 -7.79239 -4.12957 0
M  V30 14000 O 2285.12 -5.63315 -5.29344 0
M  V30 14001 C 2284.18 -4.80255 -6.01876 0
M  V30 14002 C 2284.91 -3.64202 -6.65911 0
M  V30 14003 O 2285.12 -2.60694 -5.64732 0
M  V30 14004 C 2286.31 -3.93473 -7.1943 0
M  V30 14005 O 2286.7 -3.02071 -8.21205 0
M  V30 14006 C 2287.19 -3.73047 -5.97036 0
M  V30 14007 C 2286.48 -2.58828 -5.25741 0
M  V30 14008 N 2286.53 -2.68068 -3.77503 0
M  V30 14009 C 2286.45 -3.79715 -2.96723 0
M  V30 14010 N 2286.53 -3.5377 -1.68852 0
M  V30 14011 C 2286.67 -2.15054 -1.63254 0
M  V30 14012 C 2286.8 -1.28964 -0.518571 0
M  V30 14013 O 2286.82 -1.56826 0.679156 0
M  V30 14014 N 2286.92 0.0538097 -0.918425 0
M  V30 14015 C 2286.92 0.494275 -2.22578 0
M  V30 14016 N 2287.05 1.81086 -2.40434 0
M  V30 14017 N 2286.79 -0.313645 -3.27502 0
M  V30 14018 C 2286.67 -1.61829 -2.91033 0
M  V30 14019 H 2283.69 -5.40332 -6.79951 0
M  V30 14020 H 2283.42 -4.41613 -5.32378 0
M  V30 14021 H 2284.28 -3.26331 -7.47797 0
M  V30 14022 H 2286.94 -1.63422 -5.56814 0
M  V30 14023 H 2287.22 -4.63374 -5.34244 0
M  V30 14024 H 2288.21 -3.44728 -6.25838 0
M  V30 14025 H 2286.38 -4.96652 -7.57263 0
M  V30 14026 H 2286.33 -4.80617 -3.3614 0
M  V30 14027 H 2287.01 0.742702 -0.199384 0
M  V30 14028 H 2287.05 2.20598 -3.35588 0
M  V30 14029 H 2287.15 2.43518 -1.58945 0
M  V30 14030 P 2288.25 -2.75334 -8.47391 0
M  V30 14031 O 2288.47 -2.44571 -9.90142 0
M  V30 14032 O 2289.04 -3.87688 -7.92115 0
M  V30 14033 O 2288.5 -1.4459 -7.59357 0
M  V30 14034 C 2287.56 -0.347608 -7.69215 0
M  V30 14035 C 2288.29 0.96767 -7.52806 0
M  V30 14036 O 2288.5 1.21036 -6.1011 0
M  V30 14037 C 2289.69 1.04544 -8.13308 0
M  V30 14038 O 2290.08 2.38311 -8.41922 0
M  V30 14039 C 2290.57 0.491279 -7.02284 0
M  V30 14040 C 2289.86 0.996264 -5.77469 0
M  V30 14041 N 2289.91 0.0501916 -4.62973 0
M  V30 14042 C 2289.83 -1.32786 -4.63244 0
M  V30 14043 N 2289.91 -1.86957 -3.44545 0
M  V30 14044 C 2290.05 -0.780241 -2.58481 0
M  V30 14045 C 2290.18 -0.738536 -1.17757 0
M  V30 14046 O 2290.2 -1.66794 -0.372349 0
M  V30 14047 N 2290.3 0.58337 -0.711393 0
M  V30 14048 C 2290.3 1.70816 -1.51017 0
M  V30 14049 N 2290.43 2.87826 -0.880757 0
M  V30 14050 N 2290.17 1.67126 -2.8339 0
M  V30 14051 C 2290.05 0.401421 -3.30572 0
M  V30 14052 H 2287.07 -0.374722 -8.67691 0
M  V30 14053 H 2286.8 -0.443485 -6.90277 0
M  V30 14054 H 2287.66 1.75537 -7.96793 0
M  V30 14055 H 2290.32 1.95076 -5.46529 0
M  V30 14056 H 2290.6 -0.608565 -7.04577 0
M  V30 14057 H 2291.59 0.889672 -7.08939 0
M  V30 14058 H 2289.76 0.43308 -9.04564 0
M  V30 14059 H 2289.71 -1.91249 -5.54442 0
M  V30 14060 H 2290.39 0.718054 0.275244 0
M  V30 14061 H 2290.43 3.75721 -1.41832 0
M  V30 14062 H 2290.53 2.90436 0.145468 0
M  V30 14063 P 2291.63 2.75334 -8.47391 0
M  V30 14064 O 2291.85 3.84128 -9.44797 0
M  V30 14065 O 2292.42 1.51947 -8.68712 0
M  V30 14066 O 2291.88 3.29363 -6.99321 0
M  V30 14067 C 2290.94 4.24011 -6.4274 0
M  V30 14068 C 2291.67 5.20775 -5.52155 0
M  V30 14069 O 2291.88 4.56534 -4.22446 0
M  V30 14070 C 2293.07 5.62629 -5.96531 0
M  V30 14071 O 2293.46 6.87667 -5.41053 0
M  V30 14072 C 2293.95 4.52537 -5.39283 0
M  V30 14073 C 2293.24 4.20027 -4.08623 0
M  V30 14074 N 2293.29 2.76189 -3.71603 0
M  V30 14075 C 2293.21 1.64862 -4.52822 0
M  V30 14076 N 2293.29 0.512671 -3.88633 0
M  V30 14077 C 2293.43 0.888083 -2.54977 0
M  V30 14078 C 2293.56 0.094668 -1.38677 0
M  V30 14079 O 2293.58 -1.13053 -1.28163 0
M  V30 14080 N 2293.68 0.890102 -0.232633 0
M  V30 14081 C 2293.68 2.26958 -0.21772 0
M  V30 14082 N 2293.81 2.84626 0.97925 0
M  V30 14083 N 2293.55 3.0178 -1.31033 0
M  V30 14084 C 2293.43 2.26781 -2.43843 0
M  V30 14085 H 2290.45 4.797 -7.24003 0
M  V30 14086 H 2290.18 3.69856 -5.84513 0
M  V30 14087 H 2291.04 6.10356 -5.41441 0
M  V30 14088 H 2293.7 4.79061 -3.27488 0
M  V30 14089 H 2293.98 3.64906 -6.05785 0
M  V30 14090 H 2294.97 4.8868 -5.2125 0
M  V30 14091 H 2293.14 5.66726 -7.06352 0
M  V30 14092 H 2293.09 1.71169 -5.60966 0
M  V30 14093 H 2293.77 0.419134 0.644739 0
M  V30 14094 H 2293.81 3.87332 1.06098 0
M  V30 14095 H 2293.91 2.26417 1.82483 0
M  V30 14096 P 2295.01 7.20834 -5.23717 0
M  V30 14097 O 2295.23 8.66104 -5.38572 0
M  V30 14098 O 2295.8 6.33544 -6.1349 0
M  V30 14099 O 2295.26 6.7751 -3.72168 0
M  V30 14100 C 2294.32 7.20825 -2.7076 0
M  V30 14101 C 2295.05 7.45864 -1.40599 0
M  V30 14102 O 2295.26 6.17651 -0.734225 0
M  V30 14103 C 2296.45 8.05808 -1.51899 0
M  V30 14104 O 2296.84 8.74358 -0.335205 0
M  V30 14105 C 2297.33 6.83093 -1.70294 0
M  V30 14106 C 2296.62 5.79992 -0.836974 0
M  V30 14107 N 2296.67 4.41864 -1.38293 0
M  V30 14108 H 2293.83 8.13644 -3.0377 0
M  V30 14109 H 2293.56 6.42788 -2.55485 0
M  V30 14110 H 2294.42 8.12039 -0.792769 0
M  V30 14111 P 2298.39 8.91 -4.95297e-11 0
M  V30 14112 O 2298.61 10.1726 0.733694 0
M  V30 14113 O 2299.18 8.73148 -1.23936 0
M  V30 14114 O 2298.64 7.66872 0.971405 0
M  V30 14115 C 2297.7 7.42309 2.04641 0
M  V30 14116 C 2298.43 6.86059 3.24661 0
M  V30 14117 O 2298.64 5.42847 3.03646 0
M  V30 14118 C 2299.83 7.41196 3.50753 0
M  V30 14119 O 2300.22 7.27073 4.86816 0
M  V30 14120 C 2300.71 6.5273 2.63741 0
M  V30 14121 C 2300 5.1842 2.73198 0
M  V30 14122 N 2300.05 4.38762 1.4784 0
M  V30 14123 C 2299.97 4.81605 0.168631 0
M  V30 14124 N 2300.05 3.85454 -0.713363 0
M  V30 14125 C 2300.19 2.6994 0.0566958 0
M  V30 14126 C 2300.32 1.34815 -0.338502 0
M  V30 14127 N 2300.44 0.496304 0.77465 0
M  V30 14128 C 2300.44 0.908403 2.09122 0
M  V30 14129 N 2300.57 -0.0517805 3.00955 0
M  V30 14130 N 2300.31 2.17875 2.46519 0
M  V30 14131 C 2300.19 3.01988 1.4033 0
M  V30 14132 H 2297.21 8.36803 2.32493 0
M  V30 14133 H 2296.94 6.70197 1.71129 0
M  V30 14134 H 2297.8 7.03551 4.13168 0
M  V30 14135 P 2301.77 7.20834 5.23717 0
M  V30 14136 O 2301.99 7.79853 6.57286 0
M  V30 14137 O 2302.56 7.79239 4.12957 0
M  V30 14138 O 2302.02 5.63315 5.29344 0
M  V30 14139 C 2301.08 4.80255 6.01876 0
M  V30 14140 C 2301.81 3.64202 6.65911 0
M  V30 14141 O 2302.02 2.60694 5.64732 0
M  V30 14142 C 2303.21 3.93473 7.1943 0
M  V30 14143 O 2303.6 3.02071 8.21205 0
M  V30 14144 C 2304.09 3.73047 5.97036 0
M  V30 14145 C 2303.38 2.58828 5.25741 0
M  V30 14146 N 2303.43 2.68068 3.77503 0
M  V30 14147 H 2300.59 5.40332 6.79951 0
M  V30 14148 H 2300.32 4.41613 5.32378 0
M  V30 14149 H 2301.18 3.26331 7.47797 0
M  V30 14150 P 2305.15 2.75334 8.47391 0
M  V30 14151 O 2305.37 2.44571 9.90142 0
M  V30 14152 O 2305.94 3.87688 7.92115 0
M  V30 14153 O 2305.4 1.4459 7.59357 0
M  V30 14154 C 2304.46 0.347608 7.69215 0
M  V30 14155 C 2305.19 -0.96767 7.52806 0
M  V30 14156 O 2305.4 -1.21036 6.1011 0
M  V30 14157 C 2306.59 -1.04544 8.13308 0
M  V30 14158 O 2306.98 -2.38311 8.41922 0
M  V30 14159 C 2307.47 -0.491279 7.02284 0
M  V30 14160 C 2306.76 -0.996264 5.77469 0
M  V30 14161 N 2306.81 -0.0501916 4.62973 0
M  V30 14162 H 2303.97 0.374722 8.67691 0
M  V30 14163 H 2303.7 0.443485 6.90277 0
M  V30 14164 H 2304.56 -1.75537 7.96793 0
M  V30 14165 P 2308.53 -2.75334 8.47391 0
M  V30 14166 O 2308.75 -3.84128 9.44797 0
M  V30 14167 O 2309.32 -1.51947 8.68712 0
M  V30 14168 O 2308.78 -3.29363 6.99321 0
M  V30 14169 C 2307.84 -4.24011 6.4274 0
M  V30 14170 C 2308.57 -5.20775 5.52155 0
M  V30 14171 O 2308.78 -4.56534 4.22446 0
M  V30 14172 C 2309.97 -5.62629 5.96531 0
M  V30 14173 O 2310.36 -6.87667 5.41053 0
M  V30 14174 C 2310.85 -4.52537 5.39283 0
M  V30 14175 C 2310.14 -4.20027 4.08623 0
M  V30 14176 N 2310.19 -2.76189 3.71603 0
M  V30 14177 H 2307.35 -4.797 7.24003 0
M  V30 14178 H 2307.08 -3.69856 5.84513 0
M  V30 14179 H 2307.94 -6.10356 5.41441 0
M  V30 14180 P 2311.91 -7.20834 5.23717 0
M  V30 14181 O 2312.13 -8.66104 5.38572 0
M  V30 14182 O 2312.7 -6.33544 6.1349 0
M  V30 14183 O 2312.16 -6.7751 3.72168 0
M  V30 14184 C 2311.22 -7.20825 2.7076 0
M  V30 14185 C 2311.95 -7.45864 1.40599 0
M  V30 14186 O 2312.16 -6.17651 0.734225 0
M  V30 14187 C 2313.35 -8.05808 1.51899 0
M  V30 14188 O 2313.74 -8.74358 0.335205 0
M  V30 14189 C 2314.23 -6.83093 1.70294 0
M  V30 14190 C 2313.52 -5.79992 0.836974 0
M  V30 14191 N 2313.57 -4.41864 1.38293 0
M  V30 14192 C 2313.49 -3.99538 2.69438 0
M  V30 14193 N 2313.57 -2.69909 2.84277 0
M  V30 14194 C 2313.71 -2.21719 1.5408 0
M  V30 14195 C 2313.84 -0.891712 1.06628 0
M  V30 14196 O 2313.86 0.161298 1.70137 0
M  V30 14197 N 2313.96 -0.856846 -0.334985 0
M  V30 14198 C 2313.96 -1.9641 -1.15789 0
M  V30 14199 N 2314.09 -1.72708 -2.46522 0
M  V30 14200 N 2313.83 -3.21165 -0.713741 0
M  V30 14201 C 2313.71 -3.26797 0.639748 0
M  V30 14202 H 2310.73 -8.13644 3.0377 0
M  V30 14203 H 2310.46 -6.42788 2.55485 0
M  V30 14204 H 2311.32 -8.12039 0.792769 0
M  V30 14205 H 2313.98 -5.80061 -0.166416 0
M  V30 14206 H 2314.26 -6.51287 2.75604 0
M  V30 14207 H 2315.25 -7.01734 1.34462 0
M  V30 14208 H 2313.42 -8.73674 2.38337 0
M  V30 14209 H 2313.37 -4.68207 3.53221 0
M  V30 14210 H 2314.05 0.0398818 -0.767965 0
M  V30 14211 H 2314.09 -2.50995 -3.13503 0
M  V30 14212 H 2314.19 -0.759148 -2.80716 0
M  V30 14213 P 2315.29 -8.91 5.06387e-11 0
M  V30 14214 O 2315.51 -10.1746 -0.733838 0
M  V30 14215 O 2316.08 -8.73346 1.23964 0
M  V30 14216 O 2315.54 -7.66872 -0.971405 0
M  V30 14217 C 2314.6 -7.42405 -2.04668 0
M  V30 14218 C 2315.33 -6.86059 -3.24661 0
M  V30 14219 O 2315.54 -5.42934 -3.03695 0
M  V30 14220 C 2316.73 -7.41287 -3.50796 0
M  V30 14221 O 2317.12 -7.27073 -4.86816 0
M  V30 14222 C 2317.61 -6.5273 -2.63741 0
M  V30 14223 C 2316.9 -5.1842 -2.73198 0
M  V30 14224 N 2316.95 -4.38762 -1.4784 0
M  V30 14225 C 2316.87 -4.83651 -0.183876 0
M  V30 14226 N 2316.94 -3.88759 0.699393 0
M  V30 14227 C 2317.09 -2.7404 -0.0575568 0
M  V30 14228 C 2317.22 -1.37902 0.293928 0
M  V30 14229 N 2317.23 -0.938021 1.54797 0
M  V30 14230 N 2317.34 -0.491817 -0.70549 0
M  V30 14231 C 2317.33 -0.931735 -1.95979 0
M  V30 14232 N 2317.21 -2.16017 -2.41481 0
M  V30 14233 C 2317.09 -3.02547 -1.39121 0
M  V30 14234 H 2314.11 -8.36899 -2.3252 0
M  V30 14235 H 2313.84 -6.70391 -1.71179 0
M  V30 14236 H 2314.7 -7.03638 -4.13219 0
M  V30 14237 H 2317.36 -4.59931 -3.54016 0
M  V30 14238 H 2317.64 -6.88995 -1.59871 0
M  V30 14239 H 2318.63 -6.4684 -3.0373 0
M  V30 14240 H 2316.8 -8.47002 -3.20749 0
M  V30 14241 H 2316.76 -5.8885 0.0765548 0
M  V30 14242 H 2317.14 -1.60276 2.32875 0
M  V30 14243 H 2317.33 0.0699355 1.73859 0
M  V30 14244 H 2317.43 -0.165507 -2.71897 0
M  V30 14245 P 2318.67 -7.20834 -5.23717 0
M  V30 14246 O 2318.89 -7.79853 -6.57286 0
M  V30 14247 O 2319.46 -7.79239 -4.12957 0
M  V30 14248 O 2318.92 -5.63315 -5.29344 0
M  V30 14249 C 2317.98 -4.80255 -6.01876 0
M  V30 14250 C 2318.71 -3.64202 -6.65911 0
M  V30 14251 O 2318.92 -2.60694 -5.64732 0
M  V30 14252 C 2320.11 -3.93473 -7.1943 0
M  V30 14253 O 2320.5 -3.02071 -8.21205 0
M  V30 14254 C 2320.99 -3.73047 -5.97036 0
M  V30 14255 C 2320.28 -2.58828 -5.25741 0
M  V30 14256 N 2320.33 -2.68068 -3.77503 0
M  V30 14257 C 2320.25 -3.79715 -2.96723 0
M  V30 14258 N 2320.33 -3.5377 -1.68852 0
M  V30 14259 C 2320.47 -2.15054 -1.63254 0
M  V30 14260 C 2320.6 -1.28964 -0.518571 0
M  V30 14261 N 2320.72 0.0538097 -0.918425 0
M  V30 14262 C 2320.72 0.494275 -2.22578 0
M  V30 14263 N 2320.85 1.81086 -2.40434 0
M  V30 14264 N 2320.59 -0.313645 -3.27502 0
M  V30 14265 C 2320.47 -1.61829 -2.91033 0
M  V30 14266 H 2317.49 -5.40332 -6.79951 0
M  V30 14267 H 2317.22 -4.41613 -5.32378 0
M  V30 14268 H 2318.08 -3.26331 -7.47797 0
M  V30 14269 P 2322.05 -2.75334 -8.47391 0
M  V30 14270 O 2322.27 -2.44571 -9.90142 0
M  V30 14271 O 2322.84 -3.87688 -7.92115 0
M  V30 14272 O 2322.3 -1.4459 -7.59357 0
M  V30 14273 C 2321.36 -0.347608 -7.69215 0
M  V30 14274 C 2322.09 0.96767 -7.52806 0
M  V30 14275 O 2322.3 1.21036 -6.1011 0
M  V30 14276 C 2323.49 1.04544 -8.13308 0
M  V30 14277 O 2323.88 2.38311 -8.41922 0
M  V30 14278 C 2324.37 0.491279 -7.02284 0
M  V30 14279 C 2323.66 0.996264 -5.77469 0
M  V30 14280 N 2323.71 0.0501916 -4.62973 0
M  V30 14281 H 2320.87 -0.374722 -8.67691 0
M  V30 14282 H 2320.6 -0.443485 -6.90277 0
M  V30 14283 H 2321.46 1.75537 -7.96793 0
M  V30 14284 P 2325.43 2.75334 -8.47391 0
M  V30 14285 O 2325.65 3.84166 -9.4489 0
M  V30 14286 O 2326.22 1.51964 -8.6881 0
M  V30 14287 O 2325.68 3.29363 -6.99321 0
M  V30 14288 C 2324.74 4.23956 -6.42656 0
M  V30 14289 C 2325.47 5.20775 -5.52155 0
M  V30 14290 O 2325.68 4.56534 -4.22446 0
M  V30 14291 C 2326.87 5.62629 -5.96531 0
M  V30 14292 O 2327.26 6.87667 -5.41053 0
M  V30 14293 C 2327.75 4.52537 -5.39283 0
M  V30 14294 C 2327.04 4.20027 -4.08623 0
M  V30 14295 N 2327.09 2.7613 -3.71522 0
M  V30 14296 C 2327.24 2.45612 -2.37989 0
M  V30 14297 O 2327.33 3.30919 -1.51621 0
M  V30 14298 N 2327.28 1.10684 -2.08435 0
M  V30 14299 C 2327.19 0.0690084 -2.9792 0
M  V30 14300 O 2327.24 -1.10553 -2.59426 0
M  V30 14301 C 2327.04 0.481522 -4.35345 0
M  V30 14302 C 2326.93 -0.618778 -5.36443 0
M  V30 14303 C 2326.99 1.78906 -4.67968 0
M  V30 14304 H 2324.25 4.797 -7.24003 0
M  V30 14305 H 2323.98 3.69802 -5.84429 0
M  V30 14306 H 2324.84 6.10356 -5.41441 0
M  V30 14307 H 2327.5 4.78651 -3.27911 0
M  V30 14308 H 2327.78 3.64957 -6.05871 0
M  V30 14309 H 2328.77 4.8868 -5.2125 0
M  V30 14310 H 2326.94 5.66726 -7.06352 0
M  V30 14311 H 2326.87 2.07737 -5.72367 0
M  V30 14312 H 2327.9 -0.754375 -5.86871 0
M  V30 14313 H 2326.16 -0.359721 -6.10641 0
M  V30 14314 H 2326.65 -1.55533 -4.8581 0
M  V30 14315 H 2327.38 0.862651 -1.12037 0
M  V30 14316 P 2328.81 7.20834 -5.23717 0
M  V30 14317 O 2329.03 8.66274 -5.38678 0
M  V30 14318 O 2329.6 6.33687 -6.13629 0
M  V30 14319 O 2329.06 6.7751 -3.72168 0
M  V30 14320 C 2328.12 7.20919 -2.70795 0
M  V30 14321 C 2328.85 7.45864 -1.40599 0
M  V30 14322 O 2329.06 6.17751 -0.734343 0
M  V30 14323 C 2330.25 8.05906 -1.51917 0
M  V30 14324 O 2330.64 8.74358 -0.335205 0
M  V30 14325 C 2331.13 6.83093 -1.70294 0
M  V30 14326 C 2330.42 5.79992 -0.836974 0
M  V30 14327 N 2330.47 4.41864 -1.38293 0
M  V30 14328 C 2330.39 4.02089 -2.69407 0
M  V30 14329 N 2330.46 2.73403 -2.85089 0
M  V30 14330 C 2330.61 2.25086 -1.5642 0
M  V30 14331 C 2330.74 0.942887 -1.04836 0
M  V30 14332 N 2330.75 -0.150999 -1.80369 0
M  V30 14333 N 2330.86 0.812565 0.28167 0
M  V30 14334 C 2330.85 1.90572 1.03784 0
M  V30 14335 N 2330.73 3.167 0.683905 0
M  V30 14336 C 2330.61 3.26538 -0.652815 0
M  V30 14337 H 2327.63 8.13738 -3.03804 0
M  V30 14338 H 2327.36 6.42974 -2.55559 0
M  V30 14339 H 2328.22 8.12139 -0.792866 0
M  V30 14340 H 2330.88 5.80178 0.160643 0
M  V30 14341 H 2331.16 6.51379 -2.75643 0
M  V30 14342 H 2332.15 7.01832 -1.3448 0
M  V30 14343 H 2330.32 8.73771 -2.38364 0
M  V30 14344 H 2330.28 4.7189 -3.52311 0
M  V30 14345 H 2330.66 -0.0721434 -2.82608 0
M  V30 14346 H 2330.85 -1.0785 -1.36544 0
M  V30 14347 H 2330.95 1.73207 2.10241 0
M  V30 14348 P 2332.19 8.91 -5.17477e-11 0
M  V30 14349 O 2332.41 10.1726 0.733694 0
M  V30 14350 O 2332.98 8.73148 -1.23936 0
M  V30 14351 O 2332.44 7.66872 0.971405 0
M  V30 14352 C 2331.5 7.42309 2.04641 0
M  V30 14353 C 2332.23 6.86059 3.24661 0
M  V30 14354 O 2332.44 5.42847 3.03646 0
M  V30 14355 C 2333.63 7.41196 3.50753 0
M  V30 14356 O 2334.02 7.27073 4.86816 0
M  V30 14357 C 2334.51 6.5273 2.63741 0
M  V30 14358 C 2333.8 5.1842 2.73198 0
M  V30 14359 N 2333.85 4.38762 1.4784 0
M  V30 14360 C 2333.77 4.81605 0.168631 0
M  V30 14361 N 2333.85 3.85454 -0.713363 0
M  V30 14362 C 2333.99 2.6994 0.0566958 0
M  V30 14363 C 2334.12 1.34815 -0.338502 0
M  V30 14364 O 2334.14 0.869548 -1.47125 0
M  V30 14365 N 2334.24 0.496304 0.77465 0
M  V30 14366 C 2334.24 0.908403 2.09122 0
M  V30 14367 N 2334.37 -0.0517805 3.00955 0
M  V30 14368 N 2334.11 2.17875 2.46519 0
M  V30 14369 C 2333.99 3.01988 1.4033 0
M  V30 14370 H 2331.01 8.36803 2.32493 0
M  V30 14371 H 2330.74 6.70197 1.71129 0
M  V30 14372 H 2331.6 7.03551 4.13168 0
M  V30 14373 H 2334.26 4.59498 3.54415 0
M  V30 14374 H 2334.54 6.88898 1.59848 0
M  V30 14375 H 2335.53 6.46749 3.03687 0
M  V30 14376 H 2333.7 8.46908 3.20714 0
M  V30 14377 H 2333.65 5.86405 -0.105564 0
M  V30 14378 H 2334.33 -0.483664 0.597855 0
M  V30 14379 H 2334.37 0.187865 4.0116 0
M  V30 14380 H 2334.47 -1.03585 2.71726 0
M  V30 14381 P 2335.57 7.20834 5.23717 0
M  V30 14382 O 2335.79 7.79853 6.57286 0
M  V30 14383 O 2336.36 7.79239 4.12957 0
M  V30 14384 O 2335.82 5.63315 5.29344 0
M  V30 14385 C 2334.88 4.80255 6.01876 0
M  V30 14386 C 2335.61 3.64202 6.65911 0
M  V30 14387 O 2335.82 2.60694 5.64732 0
M  V30 14388 C 2337.01 3.93473 7.1943 0
M  V30 14389 O 2337.4 3.02071 8.21205 0
M  V30 14390 C 2337.89 3.73047 5.97036 0
M  V30 14391 C 2337.18 2.58828 5.25741 0
M  V30 14392 N 2337.23 2.68068 3.77503 0
M  V30 14393 C 2337.15 3.79715 2.96723 0
M  V30 14394 N 2337.23 3.5377 1.68852 0
M  V30 14395 C 2337.37 2.15054 1.63254 0
M  V30 14396 C 2337.5 1.28964 0.518571 0
M  V30 14397 N 2337.62 -0.0538097 0.918425 0
M  V30 14398 C 2337.62 -0.494275 2.22578 0
M  V30 14399 N 2337.75 -1.81086 2.40434 0
M  V30 14400 N 2337.49 0.313645 3.27502 0
M  V30 14401 C 2337.37 1.61829 2.91033 0
M  V30 14402 H 2334.39 5.40332 6.79951 0
M  V30 14403 H 2334.12 4.41613 5.32378 0
M  V30 14404 H 2334.98 3.26331 7.47797 0
M  V30 14405 P 2338.95 2.75334 8.47391 0
M  V30 14406 O 2339.17 2.44619 9.90336 0
M  V30 14407 O 2339.74 3.87776 7.92294 0
M  V30 14408 O 2339.2 1.4459 7.59357 0
M  V30 14409 C 2338.26 0.347653 7.69315 0
M  V30 14410 C 2338.99 -0.96767 7.52806 0
M  V30 14411 O 2339.2 -1.21055 6.10208 0
M  V30 14412 C 2340.39 -1.04557 8.13408 0
M  V30 14413 O 2340.78 -2.38311 8.41922 0
M  V30 14414 C 2341.27 -0.491279 7.02284 0
M  V30 14415 C 2340.56 -0.996264 5.77469 0
M  V30 14416 N 2340.61 -0.0501916 4.62973 0
M  V30 14417 H 2337.77 0.374765 8.67791 0
M  V30 14418 H 2337.5 0.443613 6.90476 0
M  V30 14419 H 2338.36 -1.75559 7.96891 0
M  V30 14420 H 2341.02 -1.94563 5.46818 0
M  V30 14421 H 2341.3 0.608651 7.04676 0
M  V30 14422 H 2342.29 -0.889796 7.09039 0
M  V30 14423 H 2340.46 -0.433128 9.04664 0
M  V30 14424 P 2342.33 -2.75334 8.47391 0
M  V30 14425 O 2342.55 -3.84128 9.44797 0
M  V30 14426 O 2343.12 -1.51947 8.68712 0
M  V30 14427 O 2342.58 -3.29363 6.99321 0
M  V30 14428 C 2341.64 -4.24011 6.4274 0
M  V30 14429 C 2342.37 -5.20775 5.52155 0
M  V30 14430 O 2342.58 -4.56534 4.22446 0
M  V30 14431 C 2343.77 -5.62629 5.96531 0
M  V30 14432 O 2344.16 -6.87667 5.41053 0
M  V30 14433 C 2344.65 -4.52537 5.39283 0
M  V30 14434 C 2343.94 -4.20027 4.08623 0
M  V30 14435 N 2343.99 -2.76189 3.71603 0
M  V30 14436 H 2341.15 -4.797 7.24003 0
M  V30 14437 H 2340.88 -3.69856 5.84513 0
M  V30 14438 H 2341.74 -6.10356 5.41441 0
M  V30 14439 P 2345.71 -7.20834 5.23717 0
M  V30 14440 O 2345.93 -8.66104 5.38572 0
M  V30 14441 O 2346.5 -6.33544 6.1349 0
M  V30 14442 O 2345.96 -6.7751 3.72168 0
M  V30 14443 C 2345.02 -7.20825 2.7076 0
M  V30 14444 C 2345.75 -7.45864 1.40599 0
M  V30 14445 O 2345.96 -6.17651 0.734225 0
M  V30 14446 C 2347.15 -8.05808 1.51899 0
M  V30 14447 O 2347.54 -8.74358 0.335205 0
M  V30 14448 C 2348.03 -6.83093 1.70294 0
M  V30 14449 C 2347.32 -5.79992 0.836974 0
M  V30 14450 N 2347.37 -4.41864 1.38293 0
M  V30 14451 C 2347.29 -3.99538 2.69438 0
M  V30 14452 N 2347.37 -2.69909 2.84277 0
M  V30 14453 C 2347.51 -2.21719 1.5408 0
M  V30 14454 C 2347.64 -0.891712 1.06628 0
M  V30 14455 O 2347.66 0.161298 1.70137 0
M  V30 14456 N 2347.76 -0.856846 -0.334985 0
M  V30 14457 C 2347.76 -1.9641 -1.15789 0
M  V30 14458 N 2347.89 -1.72708 -2.46522 0
M  V30 14459 N 2347.63 -3.21165 -0.713741 0
M  V30 14460 C 2347.51 -3.26797 0.639748 0
M  V30 14461 H 2344.53 -8.13644 3.0377 0
M  V30 14462 H 2344.26 -6.42788 2.55485 0
M  V30 14463 H 2345.12 -8.12039 0.792769 0
M  V30 14464 H 2347.78 -5.80061 -0.166416 0
M  V30 14465 H 2348.06 -6.51287 2.75604 0
M  V30 14466 H 2349.05 -7.01734 1.34462 0
M  V30 14467 H 2347.22 -8.73674 2.38337 0
M  V30 14468 H 2347.17 -4.68207 3.53221 0
M  V30 14469 H 2347.85 0.0398818 -0.767965 0
M  V30 14470 H 2347.89 -2.50995 -3.13503 0
M  V30 14471 H 2347.99 -0.759148 -2.80716 0
M  V30 14472 P 2349.09 -8.91 5.28567e-11 0
M  V30 14473 O 2349.31 -10.1736 -0.733766 0
M  V30 14474 O 2349.88 -8.73247 1.2395 0
M  V30 14475 O 2349.34 -7.66872 -0.971405 0
M  V30 14476 C 2348.4 -7.42212 -2.04614 0
M  V30 14477 C 2349.13 -6.86059 -3.24661 0
M  V30 14478 O 2349.34 -5.42847 -3.03646 0
M  V30 14479 C 2350.53 -7.41196 -3.50753 0
M  V30 14480 O 2350.92 -7.27073 -4.86816 0
M  V30 14481 C 2351.41 -6.5273 -2.63741 0
M  V30 14482 C 2350.7 -5.1842 -2.73198 0
M  V30 14483 N 2350.75 -4.38668 -1.47808 0
M  V30 14484 C 2350.9 -3.02239 -1.60048 0
M  V30 14485 O 2350.99 -2.46459 -2.67869 0
M  V30 14486 N 2350.94 -2.32436 -0.408571 0
M  V30 14487 C 2350.85 -2.85471 0.854993 0
M  V30 14488 C 2350.7 -4.28918 0.887335 0
M  V30 14489 C 2350.65 -5.00349 -0.255399 0
M  V30 14490 H 2347.91 -8.36803 -2.32493 0
M  V30 14491 H 2347.64 -6.701 -1.71105 0
M  V30 14492 H 2348.5 -7.03551 -4.13168 0
M  V30 14493 H 2351.16 -4.59773 -3.53894 0
M  V30 14494 H 2351.44 -6.88995 -1.59871 0
M  V30 14495 H 2352.43 -6.46749 -3.03687 0
M  V30 14496 H 2350.6 -8.46908 -3.20714 0
M  V30 14497 H 2350.53 -6.08548 -0.206986 0
M  V30 14498 P 2352.47 -7.20834 -5.23717 0
M  V30 14499 O 2352.69 -7.79853 -6.57286 0
M  V30 14500 O 2353.26 -7.79239 -4.12957 0
M  V30 14501 O 2352.72 -5.63315 -5.29344 0
M  V30 14502 C 2351.78 -4.80255 -6.01876 0
M  V30 14503 C 2352.51 -3.64202 -6.65911 0
M  V30 14504 O 2352.72 -2.60694 -5.64732 0
M  V30 14505 C 2353.91 -3.93473 -7.1943 0
M  V30 14506 O 2354.3 -3.02071 -8.21205 0
M  V30 14507 C 2354.79 -3.73047 -5.97036 0
M  V30 14508 C 2354.08 -2.58828 -5.25741 0
M  V30 14509 N 2354.13 -2.68068 -3.77503 0
M  V30 14510 H 2351.29 -5.40332 -6.79951 0
M  V30 14511 H 2351.02 -4.41613 -5.32378 0
M  V30 14512 H 2351.88 -3.26331 -7.47797 0
M  V30 14513 P 2355.85 -2.75334 -8.47391 0
M  V30 14514 O 2356.07 -2.44571 -9.90142 0
M  V30 14515 O 2356.64 -3.87688 -7.92115 0
M  V30 14516 O 2356.1 -1.4459 -7.59357 0
M  V30 14517 C 2355.16 -0.347608 -7.69215 0
M  V30 14518 C 2355.89 0.96767 -7.52806 0
M  V30 14519 O 2356.1 1.21036 -6.1011 0
M  V30 14520 C 2357.29 1.04544 -8.13308 0
M  V30 14521 O 2357.68 2.38311 -8.41922 0
M  V30 14522 C 2358.17 0.491279 -7.02284 0
M  V30 14523 C 2357.46 0.996264 -5.77469 0
M  V30 14524 N 2357.51 0.0501916 -4.62973 0
M  V30 14525 C 2357.43 -1.32786 -4.63244 0
M  V30 14526 N 2357.51 -1.86957 -3.44545 0
M  V30 14527 C 2357.65 -0.780241 -2.58481 0
M  V30 14528 C 2357.78 -0.738536 -1.17757 0
M  V30 14529 O 2357.8 -1.66794 -0.372349 0
M  V30 14530 N 2357.9 0.58337 -0.711393 0
M  V30 14531 C 2357.9 1.70816 -1.51017 0
M  V30 14532 N 2358.03 2.87826 -0.880757 0
M  V30 14533 N 2357.77 1.67126 -2.8339 0
M  V30 14534 C 2357.65 0.401421 -3.30572 0
M  V30 14535 H 2354.67 -0.374722 -8.67691 0
M  V30 14536 H 2354.4 -0.443485 -6.90277 0
M  V30 14537 H 2355.26 1.75537 -7.96793 0
M  V30 14538 H 2357.92 1.95076 -5.46529 0
M  V30 14539 H 2358.2 -0.608565 -7.04577 0
M  V30 14540 H 2359.19 0.889672 -7.08939 0
M  V30 14541 H 2357.36 0.43308 -9.04564 0
M  V30 14542 H 2357.31 -1.91249 -5.54442 0
M  V30 14543 H 2357.99 0.718054 0.275244 0
M  V30 14544 H 2358.03 3.75721 -1.41832 0
M  V30 14545 H 2358.13 2.90436 0.145468 0
M  V30 14546 P 2359.23 2.75334 -8.47391 0
M  V30 14547 O 2359.45 3.84204 -9.44982 0
M  V30 14548 O 2360.02 1.51982 -8.68909 0
M  V30 14549 O 2359.48 3.29363 -6.99321 0
M  V30 14550 C 2358.54 4.24066 -6.42823 0
M  V30 14551 C 2359.27 5.20775 -5.52155 0
M  V30 14552 O 2359.48 4.56607 -4.22514 0
M  V30 14553 C 2360.67 5.62697 -5.96604 0
M  V30 14554 O 2361.06 6.87667 -5.41053 0
M  V30 14555 C 2361.55 4.52537 -5.39283 0
M  V30 14556 C 2360.84 4.20027 -4.08623 0
M  V30 14557 N 2360.89 2.76189 -3.71603 0
M  V30 14558 C 2360.81 1.66944 -4.54297 0
M  V30 14559 N 2360.88 0.536169 -3.91344 0
M  V30 14560 C 2361.03 0.901569 -2.58849 0
M  V30 14561 C 2361.16 0.146599 -1.40236 0
M  V30 14562 N 2361.17 -1.18234 -1.37046 0
M  V30 14563 N 2361.28 0.822941 -0.249738 0
M  V30 14564 C 2361.27 2.15179 -0.280525 0
M  V30 14565 N 2361.15 2.96414 -1.30822 0
M  V30 14566 C 2361.03 2.25804 -2.44748 0
M  V30 14567 H 2358.05 4.79756 -7.24086 0
M  V30 14568 H 2357.78 3.69963 -5.84682 0
M  V30 14569 H 2358.64 6.10431 -5.41508 0
M  V30 14570 H 2361.3 4.78816 -3.28024 0
M  V30 14571 H 2361.58 3.64957 -6.05871 0
M  V30 14572 H 2362.57 4.88748 -5.21323 0
M  V30 14573 H 2360.74 5.66789 -7.0643 0
M  V30 14574 H 2360.7 1.74684 -5.62396 0
M  V30 14575 H 2361.08 -1.71949 -2.24394 0
M  V30 14576 H 2361.27 -1.67511 -0.470742 0
M  V30 14577 H 2361.37 2.63704 0.6828 0
M  V30 14578 P 2362.61 7.20834 -5.23717 0
M  V30 14579 O 2362.83 8.66104 -5.38572 0
M  V30 14580 O 2363.4 6.33544 -6.1349 0
M  V30 14581 O 2362.86 6.7751 -3.72168 0
M  V30 14582 C 2361.92 7.20825 -2.7076 0
M  V30 14583 C 2362.65 7.45864 -1.40599 0
M  V30 14584 O 2362.86 6.17651 -0.734225 0
M  V30 14585 C 2364.05 8.05808 -1.51899 0
M  V30 14586 O 2364.44 8.74358 -0.335205 0
M  V30 14587 C 2364.93 6.83093 -1.70294 0
M  V30 14588 C 2364.22 5.79992 -0.836974 0
M  V30 14589 N 2364.27 4.41864 -1.38293 0
M  V30 14590 C 2364.19 3.99538 -2.69438 0
M  V30 14591 N 2364.27 2.69909 -2.84277 0
M  V30 14592 C 2364.41 2.21719 -1.5408 0
M  V30 14593 C 2364.54 0.891712 -1.06628 0
M  V30 14594 N 2364.66 0.856846 0.334985 0
M  V30 14595 C 2364.66 1.9641 1.15789 0
M  V30 14596 N 2364.79 1.72708 2.46522 0
M  V30 14597 N 2364.53 3.21165 0.713741 0
M  V30 14598 C 2364.41 3.26797 -0.639748 0
M  V30 14599 H 2361.43 8.13644 -3.0377 0
M  V30 14600 H 2361.16 6.42788 -2.55485 0
M  V30 14601 H 2362.02 8.12039 -0.792769 0
M  V30 14602 P 2365.99 8.91 -5.39657e-11 0
M  V30 14603 O 2366.21 10.1726 0.733694 0
M  V30 14604 O 2366.78 8.73148 -1.23936 0
M  V30 14605 O 2366.24 7.66872 0.971405 0
M  V30 14606 C 2365.3 7.42309 2.04641 0
M  V30 14607 C 2366.03 6.86059 3.24661 0
M  V30 14608 O 2366.24 5.42847 3.03646 0
M  V30 14609 C 2367.43 7.41196 3.50753 0
M  V30 14610 O 2367.82 7.27073 4.86816 0
M  V30 14611 C 2368.31 6.5273 2.63741 0
M  V30 14612 C 2367.6 5.1842 2.73198 0
M  V30 14613 N 2367.65 4.38762 1.4784 0
M  V30 14614 H 2364.81 8.36803 2.32493 0
M  V30 14615 H 2364.54 6.70197 1.71129 0
M  V30 14616 H 2365.4 7.03551 4.13168 0
M  V30 14617 P 2369.37 7.20834 5.23717 0
M  V30 14618 O 2369.59 7.79853 6.57286 0
M  V30 14619 O 2370.16 7.79239 4.12957 0
M  V30 14620 O 2369.62 5.63315 5.29344 0
M  V30 14621 C 2368.68 4.80255 6.01876 0
M  V30 14622 C 2369.41 3.64202 6.65911 0
M  V30 14623 O 2369.62 2.60694 5.64732 0
M  V30 14624 C 2370.81 3.93473 7.1943 0
M  V30 14625 O 2371.2 3.02071 8.21205 0
M  V30 14626 C 2371.69 3.73047 5.97036 0
M  V30 14627 C 2370.98 2.58828 5.25741 0
M  V30 14628 N 2371.03 2.68068 3.77503 0
M  V30 14629 H 2368.19 5.40332 6.79951 0
M  V30 14630 H 2367.92 4.41613 5.32378 0
M  V30 14631 H 2368.78 3.26331 7.47797 0
M  V30 14632 P 2372.75 2.75334 8.47391 0
M  V30 14633 O 2372.97 2.44571 9.90142 0
M  V30 14634 O 2373.54 3.87688 7.92115 0
M  V30 14635 O 2373 1.4459 7.59357 0
M  V30 14636 C 2372.06 0.347608 7.69215 0
M  V30 14637 C 2372.79 -0.96767 7.52806 0
M  V30 14638 O 2373 -1.21036 6.1011 0
M  V30 14639 C 2374.19 -1.04544 8.13308 0
M  V30 14640 O 2374.58 -2.38311 8.41922 0
M  V30 14641 C 2375.07 -0.491279 7.02284 0
M  V30 14642 C 2374.36 -0.996264 5.77469 0
M  V30 14643 N 2374.41 -0.0501916 4.62973 0
M  V30 14644 H 2371.57 0.374722 8.67691 0
M  V30 14645 H 2371.3 0.443485 6.90277 0
M  V30 14646 H 2372.16 -1.75537 7.96793 0
M  V30 14647 P 2376.13 -2.75334 8.47391 0
M  V30 14648 O 2376.35 -3.84128 9.44797 0
M  V30 14649 O 2376.92 -1.51947 8.68712 0
M  V30 14650 O 2376.38 -3.29363 6.99321 0
M  V30 14651 C 2375.44 -4.24011 6.4274 0
M  V30 14652 C 2376.17 -5.20775 5.52155 0
M  V30 14653 O 2376.38 -4.56534 4.22446 0
M  V30 14654 C 2377.57 -5.62629 5.96531 0
M  V30 14655 O 2377.96 -6.87667 5.41053 0
M  V30 14656 C 2378.45 -4.52537 5.39283 0
M  V30 14657 C 2377.74 -4.20027 4.08623 0
M  V30 14658 N 2377.79 -2.76189 3.71603 0
M  V30 14659 H 2374.95 -4.797 7.24003 0
M  V30 14660 H 2374.68 -3.69856 5.84513 0
M  V30 14661 H 2375.54 -6.10356 5.41441 0
M  V30 14662 P 2379.51 -7.20834 5.23717 0
M  V30 14663 O 2379.73 -8.66189 5.38625 0
M  V30 14664 O 2380.3 -6.33615 6.1356 0
M  V30 14665 O 2379.76 -6.7751 3.72168 0
M  V30 14666 C 2378.82 -7.20732 2.70725 0
M  V30 14667 C 2379.55 -7.45864 1.40599 0
M  V30 14668 O 2379.76 -6.17651 0.734225 0
M  V30 14669 C 2380.95 -8.05808 1.51899 0
M  V30 14670 O 2381.34 -8.74358 0.335205 0
M  V30 14671 C 2381.83 -6.83093 1.70294 0
M  V30 14672 C 2381.12 -5.79992 0.836974 0
M  V30 14673 N 2381.17 -4.41769 1.38263 0
M  V30 14674 C 2381.32 -3.38591 0.481702 0
M  V30 14675 O 2381.41 -3.56839 -0.718452 0
M  V30 14676 N 2381.36 -2.1206 1.03569 0
M  V30 14677 C 2381.27 -1.80696 2.36966 0
M  V30 14678 O 2381.32 -0.630473 2.74862 0
M  V30 14679 C 2381.12 -2.94845 3.23898 0
M  V30 14680 C 2381.01 -2.65253 4.70362 0
M  V30 14681 C 2381.07 -4.19803 2.73435 0
M  V30 14682 H 2378.33 -8.13644 3.0377 0
M  V30 14683 H 2378.06 -6.42695 2.55448 0
M  V30 14684 H 2378.92 -8.12039 0.792769 0
M  V30 14685 H 2381.58 -5.79978 -0.160587 0
M  V30 14686 H 2381.86 -6.51379 2.75643 0
M  V30 14687 H 2382.85 -7.01734 1.34462 0
M  V30 14688 H 2381.02 -8.73674 2.38337 0
M  V30 14689 H 2380.94 -5.04492 3.4095 0
M  V30 14690 H 2381.97 -2.83924 5.1913 0
M  V30 14691 H 2380.24 -3.29824 5.15163 0
M  V30 14692 H 2380.73 -1.59723 4.84449 0
M  V30 14693 H 2381.46 -1.35644 0.399345 0
M  V30 14694 P 2382.89 -8.91 5.50747e-11 0
M  V30 14695 O 2383.11 -10.1726 -0.733694 0
M  V30 14696 O 2383.68 -8.73148 1.23936 0
M  V30 14697 O 2383.14 -7.66872 -0.971405 0
M  V30 14698 C 2382.2 -7.42309 -2.04641 0
M  V30 14699 C 2382.93 -6.86059 -3.24661 0
M  V30 14700 O 2383.14 -5.42847 -3.03646 0
M  V30 14701 C 2384.33 -7.41196 -3.50753 0
M  V30 14702 O 2384.72 -7.27073 -4.86816 0
M  V30 14703 C 2385.21 -6.5273 -2.63741 0
M  V30 14704 C 2384.5 -5.1842 -2.73198 0
M  V30 14705 N 2384.55 -4.38762 -1.4784 0
M  V30 14706 H 2381.71 -8.36803 -2.32493 0
M  V30 14707 H 2381.44 -6.70197 -1.71129 0
M  V30 14708 H 2382.3 -7.03551 -4.13168 0
M  V30 14709 P 2386.27 -7.20834 -5.23717 0
M  V30 14710 O 2386.49 -7.79853 -6.57286 0
M  V30 14711 O 2387.06 -7.79239 -4.12957 0
M  V30 14712 O 2386.52 -5.63315 -5.29344 0
M  V30 14713 C 2385.58 -4.80255 -6.01876 0
M  V30 14714 C 2386.31 -3.64202 -6.65911 0
M  V30 14715 O 2386.52 -2.60694 -5.64732 0
M  V30 14716 C 2387.71 -3.93473 -7.1943 0
M  V30 14717 O 2388.1 -3.02071 -8.21205 0
M  V30 14718 C 2388.59 -3.73047 -5.97036 0
M  V30 14719 C 2387.88 -2.58828 -5.25741 0
M  V30 14720 N 2387.93 -2.68068 -3.77503 0
M  V30 14721 C 2387.85 -3.79715 -2.96723 0
M  V30 14722 N 2387.93 -3.5377 -1.68852 0
M  V30 14723 C 2388.07 -2.15054 -1.63254 0
M  V30 14724 C 2388.2 -1.28964 -0.518571 0
M  V30 14725 O 2388.22 -1.56826 0.679156 0
M  V30 14726 N 2388.32 0.0538097 -0.918425 0
M  V30 14727 C 2388.32 0.494275 -2.22578 0
M  V30 14728 N 2388.45 1.81086 -2.40434 0
M  V30 14729 N 2388.19 -0.313645 -3.27502 0
M  V30 14730 C 2388.07 -1.61829 -2.91033 0
M  V30 14731 H 2385.09 -5.40332 -6.79951 0
M  V30 14732 H 2384.82 -4.41613 -5.32378 0
M  V30 14733 H 2385.68 -3.26331 -7.47797 0
M  V30 14734 H 2388.34 -1.63422 -5.56814 0
M  V30 14735 H 2388.62 -4.63374 -5.34244 0
M  V30 14736 H 2389.61 -3.44728 -6.25838 0
M  V30 14737 H 2387.78 -4.96652 -7.57263 0
M  V30 14738 H 2387.73 -4.80617 -3.3614 0
M  V30 14739 H 2388.41 0.742702 -0.199384 0
M  V30 14740 H 2388.45 2.20598 -3.35588 0
M  V30 14741 H 2388.55 2.43518 -1.58945 0
M  V30 14742 P 2389.65 -2.75334 -8.47391 0
M  V30 14743 O 2389.87 -2.44571 -9.90142 0
M  V30 14744 O 2390.44 -3.87688 -7.92115 0
M  V30 14745 O 2389.9 -1.4459 -7.59357 0
M  V30 14746 C 2388.96 -0.347608 -7.69215 0
M  V30 14747 C 2389.69 0.96767 -7.52806 0
M  V30 14748 O 2389.9 1.21036 -6.1011 0
M  V30 14749 C 2391.09 1.04544 -8.13308 0
M  V30 14750 O 2391.48 2.38311 -8.41922 0
M  V30 14751 C 2391.97 0.491279 -7.02284 0
M  V30 14752 C 2391.26 0.996264 -5.77469 0
M  V30 14753 N 2391.31 0.0501916 -4.62973 0
M  V30 14754 H 2388.47 -0.374722 -8.67691 0
M  V30 14755 H 2388.2 -0.443485 -6.90277 0
M  V30 14756 H 2389.06 1.75537 -7.96793 0
M  V30 14757 P 2393.03 2.75334 -8.47391 0
M  V30 14758 O 2393.25 3.84204 -9.44982 0
M  V30 14759 O 2393.82 1.51982 -8.68909 0
M  V30 14760 O 2393.28 3.29363 -6.99321 0
M  V30 14761 C 2392.34 4.24066 -6.42823 0
M  V30 14762 C 2393.07 5.20775 -5.52155 0
M  V30 14763 O 2393.28 4.56607 -4.22514 0
M  V30 14764 C 2394.47 5.62697 -5.96604 0
M  V30 14765 O 2394.86 6.87667 -5.41053 0
M  V30 14766 C 2395.35 4.52537 -5.39283 0
M  V30 14767 C 2394.64 4.20027 -4.08623 0
M  V30 14768 N 2394.69 2.76189 -3.71603 0
M  V30 14769 H 2391.85 4.79756 -7.24086 0
M  V30 14770 H 2391.58 3.69963 -5.84682 0
M  V30 14771 H 2392.44 6.10431 -5.41508 0
M  V30 14772 H 2395.1 4.78816 -3.28024 0
M  V30 14773 H 2395.38 3.64957 -6.05871 0
M  V30 14774 H 2396.37 4.88748 -5.21323 0
M  V30 14775 H 2394.54 5.66789 -7.0643 0
M  V30 14776 P 2396.41 7.20834 -5.23717 0
M  V30 14777 O 2396.63 8.66104 -5.38572 0
M  V30 14778 O 2397.2 6.33544 -6.1349 0
M  V30 14779 O 2396.66 6.7751 -3.72168 0
M  V30 14780 C 2395.72 7.20825 -2.7076 0
M  V30 14781 C 2396.45 7.45864 -1.40599 0
M  V30 14782 O 2396.66 6.17651 -0.734225 0
M  V30 14783 C 2397.85 8.05808 -1.51899 0
M  V30 14784 O 2398.24 8.74358 -0.335205 0
M  V30 14785 C 2398.73 6.83093 -1.70294 0
M  V30 14786 C 2398.02 5.79992 -0.836974 0
M  V30 14787 N 2398.07 4.41864 -1.38293 0
M  V30 14788 H 2395.23 8.13644 -3.0377 0
M  V30 14789 H 2394.96 6.42788 -2.55485 0
M  V30 14790 H 2395.82 8.12039 -0.792769 0
M  V30 14791 P 2399.79 8.91 -5.61837e-11 0
M  V30 14792 O 2400.01 10.1726 0.733694 0
M  V30 14793 O 2400.58 8.73148 -1.23936 0
M  V30 14794 O 2400.04 7.66872 0.971405 0
M  V30 14795 C 2399.1 7.42309 2.04641 0
M  V30 14796 C 2399.83 6.86059 3.24661 0
M  V30 14797 O 2400.04 5.42847 3.03646 0
M  V30 14798 C 2401.23 7.41196 3.50753 0
M  V30 14799 O 2401.62 7.27073 4.86816 0
M  V30 14800 C 2402.11 6.5273 2.63741 0
M  V30 14801 C 2401.4 5.1842 2.73198 0
M  V30 14802 N 2401.45 4.38762 1.4784 0
M  V30 14803 H 2398.61 8.36803 2.32493 0
M  V30 14804 H 2398.34 6.70197 1.71129 0
M  V30 14805 H 2399.2 7.03551 4.13168 0
M  V30 14806 P 2403.17 7.20834 5.23717 0
M  V30 14807 O 2403.39 7.79853 6.57286 0
M  V30 14808 O 2403.96 7.79239 4.12957 0
M  V30 14809 O 2403.42 5.63315 5.29344 0
M  V30 14810 C 2402.48 4.80255 6.01876 0
M  V30 14811 C 2403.21 3.64202 6.65911 0
M  V30 14812 O 2403.42 2.60694 5.64732 0
M  V30 14813 C 2404.61 3.93473 7.1943 0
M  V30 14814 O 2405 3.02071 8.21205 0
M  V30 14815 C 2405.49 3.73047 5.97036 0
M  V30 14816 C 2404.78 2.58828 5.25741 0
M  V30 14817 N 2404.83 2.68068 3.77503 0
M  V30 14818 H 2401.99 5.40332 6.79951 0
M  V30 14819 H 2401.72 4.41613 5.32378 0
M  V30 14820 H 2402.58 3.26331 7.47797 0
M  V30 14821 P 2406.55 2.75334 8.47391 0
M  V30 14822 O 2406.77 2.44571 9.90142 0
M  V30 14823 O 2407.34 3.87688 7.92115 0
M  V30 14824 O 2406.8 1.4459 7.59357 0
M  V30 14825 C 2405.86 0.347608 7.69215 0
M  V30 14826 C 2406.59 -0.96767 7.52806 0
M  V30 14827 O 2406.8 -1.21036 6.1011 0
M  V30 14828 C 2407.99 -1.04544 8.13308 0
M  V30 14829 O 2408.38 -2.38311 8.41922 0
M  V30 14830 C 2408.87 -0.491279 7.02284 0
M  V30 14831 C 2408.16 -0.996264 5.77469 0
M  V30 14832 N 2408.21 -0.0501916 4.62973 0
M  V30 14833 H 2405.37 0.374722 8.67691 0
M  V30 14834 H 2405.1 0.443485 6.90277 0
M  V30 14835 H 2405.96 -1.75537 7.96793 0
M  V30 14836 P 2409.93 -2.75334 8.47391 0
M  V30 14837 O 2410.15 -3.84128 9.44797 0
M  V30 14838 O 2410.72 -1.51947 8.68712 0
M  V30 14839 O 2410.18 -3.29363 6.99321 0
M  V30 14840 C 2409.24 -4.24011 6.4274 0
M  V30 14841 C 2409.97 -5.20775 5.52155 0
M  V30 14842 O 2410.18 -4.56534 4.22446 0
M  V30 14843 C 2411.37 -5.62629 5.96531 0
M  V30 14844 O 2411.76 -6.87667 5.41053 0
M  V30 14845 C 2412.25 -4.52537 5.39283 0
M  V30 14846 C 2411.54 -4.20027 4.08623 0
M  V30 14847 N 2411.59 -2.76189 3.71603 0
M  V30 14848 H 2408.75 -4.797 7.24003 0
M  V30 14849 H 2408.48 -3.69856 5.84513 0
M  V30 14850 H 2409.34 -6.10356 5.41441 0
M  V30 14851 P 2413.31 -7.20834 5.23717 0
M  V30 14852 O 2413.53 -8.66104 5.38572 0
M  V30 14853 O 2414.1 -6.33544 6.1349 0
M  V30 14854 O 2413.56 -6.7751 3.72168 0
M  V30 14855 C 2412.62 -7.20825 2.7076 0
M  V30 14856 C 2413.35 -7.45864 1.40599 0
M  V30 14857 O 2413.56 -6.17651 0.734225 0
M  V30 14858 C 2414.75 -8.05808 1.51899 0
M  V30 14859 O 2415.14 -8.74358 0.335205 0
M  V30 14860 C 2415.63 -6.83093 1.70294 0
M  V30 14861 C 2414.92 -5.79992 0.836974 0
M  V30 14862 N 2414.97 -4.41864 1.38293 0
M  V30 14863 C 2414.89 -3.99538 2.69438 0
M  V30 14864 N 2414.97 -2.69909 2.84277 0
M  V30 14865 C 2415.11 -2.21719 1.5408 0
M  V30 14866 C 2415.24 -0.891712 1.06628 0
M  V30 14867 O 2415.26 0.161298 1.70137 0
M  V30 14868 N 2415.36 -0.856846 -0.334985 0
M  V30 14869 C 2415.36 -1.9641 -1.15789 0
M  V30 14870 N 2415.49 -1.72708 -2.46522 0
M  V30 14871 N 2415.23 -3.21165 -0.713741 0
M  V30 14872 C 2415.11 -3.26797 0.639748 0
M  V30 14873 H 2412.13 -8.13644 3.0377 0
M  V30 14874 H 2411.86 -6.42788 2.55485 0
M  V30 14875 H 2412.72 -8.12039 0.792769 0
M  V30 14876 H 2415.38 -5.80061 -0.166416 0
M  V30 14877 H 2415.66 -6.51287 2.75604 0
M  V30 14878 H 2416.65 -7.01734 1.34462 0
M  V30 14879 H 2414.82 -8.73674 2.38337 0
M  V30 14880 H 2414.77 -4.68207 3.53221 0
M  V30 14881 H 2415.45 0.0398818 -0.767965 0
M  V30 14882 H 2415.49 -2.50995 -3.13503 0
M  V30 14883 H 2415.59 -0.759148 -2.80716 0
M  V30 14884 P 2416.69 -8.91 5.72927e-11 0
M  V30 14885 O 2416.91 -10.1726 -0.733694 0
M  V30 14886 O 2417.48 -8.73148 1.23936 0
M  V30 14887 O 2416.94 -7.66872 -0.971405 0
M  V30 14888 C 2416 -7.42309 -2.04641 0
M  V30 14889 C 2416.73 -6.86059 -3.24661 0
M  V30 14890 O 2416.94 -5.42847 -3.03646 0
M  V30 14891 C 2418.13 -7.41196 -3.50753 0
M  V30 14892 O 2418.52 -7.27073 -4.86816 0
M  V30 14893 C 2419.01 -6.5273 -2.63741 0
M  V30 14894 C 2418.3 -5.1842 -2.73198 0
M  V30 14895 N 2418.35 -4.38762 -1.4784 0
M  V30 14896 H 2415.51 -8.36803 -2.32493 0
M  V30 14897 H 2415.24 -6.70197 -1.71129 0
M  V30 14898 H 2416.1 -7.03551 -4.13168 0
M  V30 14899 P 2420.07 -7.20834 -5.23717 0
M  V30 14900 O 2420.29 -7.79853 -6.57286 0
M  V30 14901 O 2420.86 -7.79239 -4.12957 0
M  V30 14902 O 2420.32 -5.63315 -5.29344 0
M  V30 14903 C 2419.38 -4.80255 -6.01876 0
M  V30 14904 C 2420.11 -3.64202 -6.65911 0
M  V30 14905 O 2420.32 -2.60694 -5.64732 0
M  V30 14906 C 2421.51 -3.93473 -7.1943 0
M  V30 14907 O 2421.9 -3.02071 -8.21205 0
M  V30 14908 C 2422.39 -3.73047 -5.97036 0
M  V30 14909 C 2421.68 -2.58828 -5.25741 0
M  V30 14910 N 2421.73 -2.68068 -3.77503 0
M  V30 14911 H 2418.89 -5.40332 -6.79951 0
M  V30 14912 H 2418.62 -4.41613 -5.32378 0
M  V30 14913 H 2419.48 -3.26331 -7.47797 0
M  V30 14914 P 2423.45 -2.75334 -8.47391 0
M  V30 14915 O 2423.67 -2.44571 -9.90142 0
M  V30 14916 O 2424.24 -3.87688 -7.92115 0
M  V30 14917 O 2423.7 -1.4459 -7.59357 0
M  V30 14918 C 2422.76 -0.347608 -7.69215 0
M  V30 14919 C 2423.49 0.96767 -7.52806 0
M  V30 14920 O 2423.7 1.21036 -6.1011 0
M  V30 14921 C 2424.89 1.04544 -8.13308 0
M  V30 14922 O 2425.28 2.38311 -8.41922 0
M  V30 14923 C 2425.77 0.491279 -7.02284 0
M  V30 14924 C 2425.06 0.996264 -5.77469 0
M  V30 14925 N 2425.11 0.0501916 -4.62973 0
M  V30 14926 H 2422.27 -0.374722 -8.67691 0
M  V30 14927 H 2422 -0.443485 -6.90277 0
M  V30 14928 H 2422.86 1.75537 -7.96793 0
M  V30 14929 P 2426.83 2.75334 -8.47391 0
M  V30 14930 O 2427.05 3.84204 -9.44982 0
M  V30 14931 O 2427.62 1.51982 -8.68909 0
M  V30 14932 O 2427.08 3.29363 -6.99321 0
M  V30 14933 C 2426.14 4.24066 -6.42823 0
M  V30 14934 C 2426.87 5.20775 -5.52155 0
M  V30 14935 O 2427.08 4.56607 -4.22514 0
M  V30 14936 C 2428.27 5.62697 -5.96604 0
M  V30 14937 O 2428.66 6.87667 -5.41053 0
M  V30 14938 C 2429.15 4.52537 -5.39283 0
M  V30 14939 C 2428.44 4.20027 -4.08623 0
M  V30 14940 N 2428.49 2.76189 -3.71603 0
M  V30 14941 C 2428.41 1.66944 -4.54297 0
M  V30 14942 N 2428.48 0.536169 -3.91344 0
M  V30 14943 C 2428.63 0.901569 -2.58849 0
M  V30 14944 C 2428.76 0.146599 -1.40236 0
M  V30 14945 N 2428.77 -1.18234 -1.37046 0
M  V30 14946 N 2428.88 0.822941 -0.249738 0
M  V30 14947 C 2428.87 2.15179 -0.280525 0
M  V30 14948 N 2428.75 2.96414 -1.30822 0
M  V30 14949 C 2428.63 2.25804 -2.44748 0
M  V30 14950 H 2425.65 4.79756 -7.24086 0
M  V30 14951 H 2425.38 3.69963 -5.84682 0
M  V30 14952 H 2426.24 6.10431 -5.41508 0
M  V30 14953 H 2428.9 4.78816 -3.28024 0
M  V30 14954 H 2429.18 3.64957 -6.05871 0
M  V30 14955 H 2430.17 4.88748 -5.21323 0
M  V30 14956 H 2428.34 5.66789 -7.0643 0
M  V30 14957 H 2428.29 1.74684 -5.62396 0
M  V30 14958 H 2428.68 -1.71949 -2.24394 0
M  V30 14959 H 2428.86 -1.67511 -0.470742 0
M  V30 14960 H 2428.97 2.63704 0.6828 0
M  V30 14961 P 2430.21 7.20834 -5.23717 0
M  V30 14962 O 2430.43 8.66104 -5.38572 0
M  V30 14963 O 2431 6.33544 -6.1349 0
M  V30 14964 O 2430.46 6.7751 -3.72168 0
M  V30 14965 C 2429.52 7.20825 -2.7076 0
M  V30 14966 C 2430.25 7.45864 -1.40599 0
M  V30 14967 O 2430.46 6.17651 -0.734225 0
M  V30 14968 C 2431.65 8.05808 -1.51899 0
M  V30 14969 O 2432.04 8.74358 -0.335205 0
M  V30 14970 C 2432.53 6.83093 -1.70294 0
M  V30 14971 C 2431.82 5.79992 -0.836974 0
M  V30 14972 N 2431.87 4.41864 -1.38293 0
M  V30 14973 H 2429.03 8.13644 -3.0377 0
M  V30 14974 H 2428.76 6.42788 -2.55485 0
M  V30 14975 H 2429.62 8.12039 -0.792769 0
M  V30 14976 P 2433.59 8.91 -5.84017e-11 0
M  V30 14977 O 2433.81 10.1726 0.733694 0
M  V30 14978 O 2434.38 8.73148 -1.23936 0
M  V30 14979 O 2433.84 7.66872 0.971405 0
M  V30 14980 C 2432.9 7.42309 2.04641 0
M  V30 14981 C 2433.63 6.86059 3.24661 0
M  V30 14982 O 2433.84 5.42847 3.03646 0
M  V30 14983 C 2435.03 7.41196 3.50753 0
M  V30 14984 O 2435.42 7.27073 4.86816 0
M  V30 14985 C 2435.91 6.5273 2.63741 0
M  V30 14986 C 2435.2 5.1842 2.73198 0
M  V30 14987 N 2435.25 4.38762 1.4784 0
M  V30 14988 H 2432.41 8.36803 2.32493 0
M  V30 14989 H 2432.14 6.70197 1.71129 0
M  V30 14990 H 2433 7.03551 4.13168 0
M  V30 14991 P 2436.97 7.20834 5.23717 0
M  V30 14992 O 2437.19 7.7993 6.57351 0
M  V30 14993 O 2437.76 7.79328 4.13004 0
M  V30 14994 O 2437.22 5.63315 5.29344 0
M  V30 14995 C 2436.28 4.80193 6.01798 0
M  V30 14996 C 2437.01 3.64202 6.65911 0
M  V30 14997 O 2437.22 2.60694 5.64732 0
M  V30 14998 C 2438.41 3.93473 7.1943 0
M  V30 14999 O 2438.8 3.02071 8.21205 0
M  V30 15000 C 2439.29 3.73047 5.97036 0
M  V30 15001 C 2438.58 2.58828 5.25741 0
M  V30 15002 N 2438.63 2.6801 3.77422 0
M  V30 15003 C 2438.78 1.50443 3.07133 0
M  V30 15004 O 2438.87 0.419406 3.61576 0
M  V30 15005 N 2438.82 1.6403 1.69677 0
M  V30 15006 C 2438.73 2.81206 0.986255 0
M  V30 15007 C 2438.58 3.99158 1.80325 0
M  V30 15008 C 2438.53 3.89779 3.1476 0
M  V30 15009 H 2435.79 5.40332 6.79951 0
M  V30 15010 H 2435.52 4.41549 5.32301 0
M  V30 15011 H 2436.38 3.26331 7.47797 0
M  V30 15012 H 2439.04 1.6395 5.56554 0
M  V30 15013 H 2439.32 4.63439 5.3432 0
M  V30 15014 H 2440.31 3.44728 6.25838 0
M  V30 15015 H 2438.48 4.96652 7.57263 0
M  V30 15016 H 2438.4 4.80159 3.74441 0
M  V30 15017 P 2440.35 2.75334 8.47391 0
M  V30 15018 O 2440.57 2.44571 9.90142 0
M  V30 15019 O 2441.14 3.87688 7.92115 0
M  V30 15020 O 2440.6 1.4459 7.59357 0
M  V30 15021 C 2439.66 0.347608 7.69215 0
M  V30 15022 C 2440.39 -0.96767 7.52806 0
M  V30 15023 O 2440.6 -1.21036 6.1011 0
M  V30 15024 C 2441.79 -1.04544 8.13308 0
M  V30 15025 O 2442.18 -2.38311 8.41922 0
M  V30 15026 C 2442.67 -0.491279 7.02284 0
M  V30 15027 C 2441.96 -0.996264 5.77469 0
M  V30 15028 N 2442.01 -0.0501916 4.62973 0
M  V30 15029 H 2439.17 0.374722 8.67691 0
M  V30 15030 H 2438.9 0.443485 6.90277 0
M  V30 15031 H 2439.76 -1.75537 7.96793 0
M  V30 15032 P 2443.73 -2.75334 8.47391 0
M  V30 15033 O 2443.95 -3.84128 9.44797 0
M  V30 15034 O 2444.52 -1.51947 8.68712 0
M  V30 15035 O 2443.98 -3.29363 6.99321 0
M  V30 15036 C 2443.04 -4.24011 6.4274 0
M  V30 15037 C 2443.77 -5.20775 5.52155 0
M  V30 15038 O 2443.98 -4.56534 4.22446 0
M  V30 15039 C 2445.17 -5.62629 5.96531 0
M  V30 15040 O 2445.56 -6.87667 5.41053 0
M  V30 15041 C 2446.05 -4.52537 5.39283 0
M  V30 15042 C 2445.34 -4.20027 4.08623 0
M  V30 15043 N 2445.39 -2.76189 3.71603 0
M  V30 15044 H 2442.55 -4.797 7.24003 0
M  V30 15045 H 2442.28 -3.69856 5.84513 0
M  V30 15046 H 2443.14 -6.10356 5.41441 0
M  V30 15047 P 2447.11 -7.20834 5.23717 0
M  V30 15048 O 2447.33 -8.66104 5.38572 0
M  V30 15049 O 2447.9 -6.33544 6.1349 0
M  V30 15050 O 2447.36 -6.7751 3.72168 0
M  V30 15051 C 2446.42 -7.20825 2.7076 0
M  V30 15052 C 2447.15 -7.45864 1.40599 0
M  V30 15053 O 2447.36 -6.17651 0.734225 0
M  V30 15054 C 2448.55 -8.05808 1.51899 0
M  V30 15055 O 2448.94 -8.74358 0.335205 0
M  V30 15056 C 2449.43 -6.83093 1.70294 0
M  V30 15057 C 2448.72 -5.79992 0.836974 0
M  V30 15058 N 2448.77 -4.41864 1.38293 0
M  V30 15059 H 2445.93 -8.13644 3.0377 0
M  V30 15060 H 2445.66 -6.42788 2.55485 0
M  V30 15061 H 2446.52 -8.12039 0.792769 0
M  V30 15062 P 2450.49 -8.91 5.95107e-11 0
M  V30 15063 O 2450.71 -10.1726 -0.733694 0
M  V30 15064 O 2451.28 -8.73148 1.23936 0
M  V30 15065 O 2450.74 -7.66872 -0.971405 0
M  V30 15066 C 2449.8 -7.42309 -2.04641 0
M  V30 15067 C 2450.53 -6.86059 -3.24661 0
M  V30 15068 O 2450.74 -5.42847 -3.03646 0
M  V30 15069 C 2451.93 -7.41196 -3.50753 0
M  V30 15070 O 2452.32 -7.27073 -4.86816 0
M  V30 15071 C 2452.81 -6.5273 -2.63741 0
M  V30 15072 C 2452.1 -5.1842 -2.73198 0
M  V30 15073 N 2452.15 -4.38762 -1.4784 0
M  V30 15074 H 2449.31 -8.36803 -2.32493 0
M  V30 15075 H 2449.04 -6.70197 -1.71129 0
M  V30 15076 H 2449.9 -7.03551 -4.13168 0
M  V30 15077 P 2453.87 -7.20834 -5.23717 0
M  V30 15078 O 2454.09 -7.79853 -6.57286 0
M  V30 15079 O 2454.66 -7.79239 -4.12957 0
M  V30 15080 O 2454.12 -5.63315 -5.29344 0
M  V30 15081 C 2453.18 -4.80255 -6.01876 0
M  V30 15082 C 2453.91 -3.64202 -6.65911 0
M  V30 15083 O 2454.12 -2.60694 -5.64732 0
M  V30 15084 C 2455.31 -3.93473 -7.1943 0
M  V30 15085 O 2455.7 -3.02071 -8.21205 0
M  V30 15086 C 2456.19 -3.73047 -5.97036 0
M  V30 15087 C 2455.48 -2.58828 -5.25741 0
M  V30 15088 N 2455.53 -2.68068 -3.77503 0
M  V30 15089 H 2452.69 -5.40332 -6.79951 0
M  V30 15090 H 2452.42 -4.41613 -5.32378 0
M  V30 15091 H 2453.28 -3.26331 -7.47797 0
M  V30 15092 P 2457.25 -2.75334 -8.47391 0
M  V30 15093 O 2457.47 -2.44619 -9.90336 0
M  V30 15094 O 2458.04 -3.87776 -7.92294 0
M  V30 15095 O 2457.5 -1.4459 -7.59357 0
M  V30 15096 C 2456.56 -0.347653 -7.69315 0
M  V30 15097 C 2457.29 0.96767 -7.52806 0
M  V30 15098 O 2457.5 1.21055 -6.10208 0
M  V30 15099 C 2458.69 1.04557 -8.13408 0
M  V30 15100 O 2459.08 2.38311 -8.41922 0
M  V30 15101 C 2459.57 0.491279 -7.02284 0
M  V30 15102 C 2458.86 0.996264 -5.77469 0
M  V30 15103 N 2458.91 0.0501916 -4.62973 0
M  V30 15104 C 2458.83 -1.31969 -4.65661 0
M  V30 15105 N 2458.9 -1.86649 -3.48119 0
M  V30 15106 C 2459.05 -0.792089 -2.62406 0
M  V30 15107 C 2459.18 -0.705684 -1.2207 0
M  V30 15108 N 2459.19 -1.76207 -0.413762 0
M  V30 15109 N 2459.3 0.518981 -0.685754 0
M  V30 15110 C 2459.29 1.57595 -1.49174 0
M  V30 15111 N 2459.17 1.62909 -2.80066 0
M  V30 15112 C 2459.05 0.388195 -3.3073 0
M  V30 15113 H 2456.07 -0.374765 -8.67791 0
M  V30 15114 H 2455.8 -0.443613 -6.90476 0
M  V30 15115 H 2456.66 1.75559 -7.96891 0
M  V30 15116 H 2459.32 1.94563 -5.46818 0
M  V30 15117 H 2459.6 -0.608651 -7.04676 0
M  V30 15118 H 2460.59 0.889796 -7.09039 0
M  V30 15119 H 2458.76 0.433128 -9.04664 0
M  V30 15120 H 2458.71 -1.89246 -5.57664 0
M  V30 15121 H 2459.1 -2.71005 -0.804694 0
M  V30 15122 H 2459.28 -1.63189 0.603768 0
M  V30 15123 H 2459.39 2.53475 -0.997614 0
M  V30 15124 P 2460.63 2.75334 -8.47391 0
M  V30 15125 O 2460.85 3.84204 -9.44982 0
M  V30 15126 O 2461.42 1.51982 -8.68909 0
M  V30 15127 O 2460.88 3.29363 -6.99321 0
M  V30 15128 C 2459.94 4.24066 -6.42823 0
M  V30 15129 C 2460.67 5.20775 -5.52155 0
M  V30 15130 O 2460.88 4.56607 -4.22514 0
M  V30 15131 C 2462.07 5.62697 -5.96604 0
M  V30 15132 O 2462.46 6.87667 -5.41053 0
M  V30 15133 C 2462.95 4.52537 -5.39283 0
M  V30 15134 C 2462.24 4.20027 -4.08623 0
M  V30 15135 N 2462.29 2.76189 -3.71603 0
M  V30 15136 H 2459.45 4.79756 -7.24086 0
M  V30 15137 H 2459.18 3.69963 -5.84682 0
M  V30 15138 H 2460.04 6.10431 -5.41508 0
M  V30 15139 H 2462.7 4.78816 -3.28024 0
M  V30 15140 H 2462.98 3.64957 -6.05871 0
M  V30 15141 H 2463.97 4.88748 -5.21323 0
M  V30 15142 H 2462.14 5.66789 -7.0643 0
M  V30 15143 P 2464.01 7.20834 -5.23717 0
M  V30 15144 O 2464.23 8.66104 -5.38572 0
M  V30 15145 O 2464.8 6.33544 -6.1349 0
M  V30 15146 O 2464.26 6.7751 -3.72168 0
M  V30 15147 C 2463.32 7.20825 -2.7076 0
M  V30 15148 C 2464.05 7.45864 -1.40599 0
M  V30 15149 O 2464.26 6.17651 -0.734225 0
M  V30 15150 C 2465.45 8.05808 -1.51899 0
M  V30 15151 O 2465.84 8.74358 -0.335205 0
M  V30 15152 C 2466.33 6.83093 -1.70294 0
M  V30 15153 C 2465.62 5.79992 -0.836974 0
M  V30 15154 N 2465.67 4.41864 -1.38293 0
M  V30 15155 H 2462.83 8.13644 -3.0377 0
M  V30 15156 H 2462.56 6.42788 -2.55485 0
M  V30 15157 H 2463.42 8.12039 -0.792769 0
M  V30 15158 P 2467.39 8.91 -6.06197e-11 0
M  V30 15159 O 2467.61 10.1726 0.733694 0
M  V30 15160 O 2468.18 8.73148 -1.23936 0
M  V30 15161 O 2467.64 7.66872 0.971405 0
M  V30 15162 C 2466.7 7.42309 2.04641 0
M  V30 15163 C 2467.43 6.86059 3.24661 0
M  V30 15164 O 2467.64 5.42847 3.03646 0
M  V30 15165 C 2468.83 7.41196 3.50753 0
M  V30 15166 O 2469.22 7.27073 4.86816 0
M  V30 15167 C 2469.71 6.5273 2.63741 0
M  V30 15168 C 2469 5.1842 2.73198 0
M  V30 15169 N 2469.05 4.38762 1.4784 0
M  V30 15170 H 2466.21 8.36803 2.32493 0
M  V30 15171 H 2465.94 6.70197 1.71129 0
M  V30 15172 H 2466.8 7.03551 4.13168 0
M  V30 15173 P 2470.77 7.20834 5.23717 0
M  V30 15174 O 2470.99 7.7993 6.57351 0
M  V30 15175 O 2471.56 7.79328 4.13004 0
M  V30 15176 O 2471.02 5.63315 5.29344 0
M  V30 15177 C 2470.08 4.80255 6.01876 0
M  V30 15178 C 2470.81 3.64202 6.65911 0
M  V30 15179 O 2471.02 2.60694 5.64732 0
M  V30 15180 C 2472.21 3.93473 7.1943 0
M  V30 15181 O 2472.6 3.02071 8.21205 0
M  V30 15182 C 2473.09 3.73047 5.97036 0
M  V30 15183 C 2472.38 2.58828 5.25741 0
M  V30 15184 N 2472.43 2.6801 3.77422 0
M  V30 15185 C 2472.58 1.50173 3.05038 0
M  V30 15186 O 2472.67 0.428832 3.665 0
M  V30 15187 N 2472.63 1.70922 1.55541 0
M  V30 15188 C 2472.53 2.7407 1.06402 0
M  V30 15189 N 2472.58 2.74764 -0.260931 0
M  V30 15190 C 2472.38 3.96781 1.78296 0
M  V30 15191 C 2472.33 3.87909 3.13891 0
M  V30 15192 H 2469.59 5.4027 6.79873 0
M  V30 15193 H 2469.32 4.41549 5.32301 0
M  V30 15194 H 2470.18 3.26371 7.47889 0
M  V30 15195 H 2472.84 1.63978 5.5665 0
M  V30 15196 H 2473.12 4.63439 5.3432 0
M  V30 15197 H 2474.11 3.44728 6.25838 0
M  V30 15198 H 2472.28 4.96652 7.57263 0
M  V30 15199 H 2472.2 4.78425 3.73088 0
M  V30 15200 H 2472.31 4.92593 1.26997 0
M  V30 15201 H 2472.69 1.86285 -0.77595 0
M  V30 15202 H 2472.5 3.63657 -0.773896 0
M  V30 15203 P 2474.15 2.75334 8.47391 0
M  V30 15204 O 2474.37 2.44571 9.90142 0
M  V30 15205 O 2474.94 3.87688 7.92115 0
M  V30 15206 O 2474.4 1.4459 7.59357 0
M  V30 15207 C 2473.46 0.347608 7.69215 0
M  V30 15208 C 2474.19 -0.96767 7.52806 0
M  V30 15209 O 2474.4 -1.21036 6.1011 0
M  V30 15210 C 2475.59 -1.04544 8.13308 0
M  V30 15211 O 2475.98 -2.38311 8.41922 0
M  V30 15212 C 2476.47 -0.491279 7.02284 0
M  V30 15213 C 2475.76 -0.996264 5.77469 0
M  V30 15214 N 2475.81 -0.0501916 4.62973 0
M  V30 15215 H 2472.97 0.374722 8.67691 0
M  V30 15216 H 2472.7 0.443485 6.90277 0
M  V30 15217 H 2473.56 -1.75537 7.96793 0
M  V30 15218 P 2477.53 -2.75334 8.47391 0
M  V30 15219 O 2477.75 -3.84128 9.44797 0
M  V30 15220 O 2478.32 -1.51947 8.68712 0
M  V30 15221 O 2477.78 -3.29363 6.99321 0
M  V30 15222 C 2476.84 -4.24011 6.4274 0
M  V30 15223 C 2477.57 -5.20775 5.52155 0
M  V30 15224 O 2477.78 -4.56534 4.22446 0
M  V30 15225 C 2478.97 -5.62629 5.96531 0
M  V30 15226 O 2479.36 -6.87667 5.41053 0
M  V30 15227 C 2479.85 -4.52537 5.39283 0
M  V30 15228 C 2479.14 -4.20027 4.08623 0
M  V30 15229 N 2479.19 -2.76189 3.71603 0
M  V30 15230 H 2476.35 -4.797 7.24003 0
M  V30 15231 H 2476.08 -3.69856 5.84513 0
M  V30 15232 H 2476.94 -6.10356 5.41441 0
M  V30 15233 P 2480.91 -7.20834 5.23717 0
M  V30 15234 O 2481.13 -8.66189 5.38625 0
M  V30 15235 O 2481.7 -6.33615 6.1356 0
M  V30 15236 O 2481.16 -6.7751 3.72168 0
M  V30 15237 C 2480.22 -7.20732 2.70725 0
M  V30 15238 C 2480.95 -7.45864 1.40599 0
M  V30 15239 O 2481.16 -6.17651 0.734225 0
M  V30 15240 C 2482.35 -8.05808 1.51899 0
M  V30 15241 O 2482.74 -8.74358 0.335205 0
M  V30 15242 C 2483.23 -6.83093 1.70294 0
M  V30 15243 C 2482.52 -5.79992 0.836974 0
M  V30 15244 N 2482.57 -4.41769 1.38263 0
M  V30 15245 C 2482.72 -3.38591 0.481702 0
M  V30 15246 O 2482.81 -3.56839 -0.718452 0
M  V30 15247 N 2482.76 -2.1206 1.03569 0
M  V30 15248 C 2482.67 -1.80696 2.36966 0
M  V30 15249 O 2482.72 -0.630473 2.74862 0
M  V30 15250 C 2482.52 -2.94845 3.23898 0
M  V30 15251 C 2482.41 -2.65253 4.70362 0
M  V30 15252 C 2482.47 -4.19803 2.73435 0
M  V30 15253 H 2479.73 -8.13644 3.0377 0
M  V30 15254 H 2479.46 -6.42695 2.55448 0
M  V30 15255 H 2480.32 -8.12039 0.792769 0
M  V30 15256 H 2482.98 -5.79978 -0.160587 0
M  V30 15257 H 2483.26 -6.51379 2.75643 0
M  V30 15258 H 2484.25 -7.01734 1.34462 0
M  V30 15259 H 2482.42 -8.73674 2.38337 0
M  V30 15260 H 2482.34 -5.04492 3.4095 0
M  V30 15261 H 2483.37 -2.83924 5.1913 0
M  V30 15262 H 2481.64 -3.29824 5.15163 0
M  V30 15263 H 2482.13 -1.59723 4.84449 0
M  V30 15264 H 2482.86 -1.35644 0.399345 0
M  V30 15265 P 2484.29 -8.91 6.17288e-11 0
M  V30 15266 O 2484.51 -10.1726 -0.733694 0
M  V30 15267 O 2485.08 -8.73148 1.23936 0
M  V30 15268 O 2484.54 -7.66872 -0.971405 0
M  V30 15269 C 2483.6 -7.42309 -2.04641 0
M  V30 15270 C 2484.33 -6.86059 -3.24661 0
M  V30 15271 O 2484.54 -5.42847 -3.03646 0
M  V30 15272 C 2485.73 -7.41196 -3.50753 0
M  V30 15273 O 2486.12 -7.27073 -4.86816 0
M  V30 15274 C 2486.61 -6.5273 -2.63741 0
M  V30 15275 C 2485.9 -5.1842 -2.73198 0
M  V30 15276 N 2485.95 -4.38762 -1.4784 0
M  V30 15277 H 2483.11 -8.36803 -2.32493 0
M  V30 15278 H 2482.84 -6.70197 -1.71129 0
M  V30 15279 H 2483.7 -7.03551 -4.13168 0
M  V30 15280 P 2487.67 -7.20834 -5.23717 0
M  V30 15281 O 2487.89 -7.79853 -6.57286 0
M  V30 15282 O 2488.46 -7.79239 -4.12957 0
M  V30 15283 O 2487.92 -5.63315 -5.29344 0
M  V30 15284 C 2486.98 -4.80255 -6.01876 0
M  V30 15285 C 2487.71 -3.64202 -6.65911 0
M  V30 15286 O 2487.92 -2.60694 -5.64732 0
M  V30 15287 C 2489.11 -3.93473 -7.1943 0
M  V30 15288 O 2489.5 -3.02071 -8.21205 0
M  V30 15289 C 2489.99 -3.73047 -5.97036 0
M  V30 15290 C 2489.28 -2.58828 -5.25741 0
M  V30 15291 N 2489.33 -2.68068 -3.77503 0
M  V30 15292 H 2486.49 -5.40332 -6.79951 0
M  V30 15293 H 2486.22 -4.41613 -5.32378 0
M  V30 15294 H 2487.08 -3.26331 -7.47797 0
M  V30 15295 P 2491.05 -2.75334 -8.47391 0
M  V30 15296 O 2491.27 -2.44571 -9.90142 0
M  V30 15297 O 2491.84 -3.87688 -7.92115 0
M  V30 15298 O 2491.3 -1.4459 -7.59357 0
M  V30 15299 C 2490.36 -0.347608 -7.69215 0
M  V30 15300 C 2491.09 0.96767 -7.52806 0
M  V30 15301 O 2491.3 1.21036 -6.1011 0
M  V30 15302 C 2492.49 1.04544 -8.13308 0
M  V30 15303 O 2492.88 2.38311 -8.41922 0
M  V30 15304 C 2493.37 0.491279 -7.02284 0
M  V30 15305 C 2492.66 0.996264 -5.77469 0
M  V30 15306 N 2492.71 0.0501916 -4.62973 0
M  V30 15307 H 2489.87 -0.374722 -8.67691 0
M  V30 15308 H 2489.6 -0.443485 -6.90277 0
M  V30 15309 H 2490.46 1.75537 -7.96793 0
M  V30 15310 P 2494.43 2.75334 -8.47391 0
M  V30 15311 O 2494.65 3.84128 -9.44797 0
M  V30 15312 O 2495.22 1.51947 -8.68712 0
M  V30 15313 O 2494.68 3.29363 -6.99321 0
M  V30 15314 C 2493.74 4.24011 -6.4274 0
M  V30 15315 C 2494.47 5.20775 -5.52155 0
M  V30 15316 O 2494.68 4.56534 -4.22446 0
M  V30 15317 C 2495.87 5.62629 -5.96531 0
M  V30 15318 O 2496.26 6.87667 -5.41053 0
M  V30 15319 C 2496.75 4.52537 -5.39283 0
M  V30 15320 C 2496.04 4.20027 -4.08623 0
M  V30 15321 N 2496.09 2.76189 -3.71603 0
M  V30 15322 C 2496.01 1.64862 -4.52822 0
M  V30 15323 N 2496.09 0.512671 -3.88633 0
M  V30 15324 C 2496.23 0.888083 -2.54977 0
M  V30 15325 C 2496.36 0.094668 -1.38677 0
M  V30 15326 N 2496.48 0.890102 -0.232633 0
M  V30 15327 C 2496.48 2.26958 -0.21772 0
M  V30 15328 N 2496.61 2.84626 0.97925 0
M  V30 15329 N 2496.35 3.0178 -1.31033 0
M  V30 15330 C 2496.23 2.26781 -2.43843 0
M  V30 15331 H 2493.25 4.797 -7.24003 0
M  V30 15332 H 2492.98 3.69856 -5.84513 0
M  V30 15333 H 2493.84 6.10356 -5.41441 0
M  V30 15334 P 2497.81 7.20834 -5.23717 0
M  V30 15335 O 2498.03 8.66274 -5.38678 0
M  V30 15336 O 2498.6 6.33687 -6.13629 0
M  V30 15337 O 2498.06 6.7751 -3.72168 0
M  V30 15338 C 2497.12 7.20919 -2.70795 0
M  V30 15339 C 2497.85 7.45864 -1.40599 0
M  V30 15340 O 2498.06 6.17751 -0.734343 0
M  V30 15341 C 2499.25 8.05906 -1.51917 0
M  V30 15342 O 2499.64 8.74358 -0.335205 0
M  V30 15343 C 2500.13 6.83093 -1.70294 0
M  V30 15344 C 2499.42 5.79992 -0.836974 0
M  V30 15345 N 2499.47 4.41864 -1.38293 0
M  V30 15346 C 2499.39 4.02089 -2.69407 0
M  V30 15347 N 2499.46 2.73403 -2.85089 0
M  V30 15348 C 2499.61 2.25086 -1.5642 0
M  V30 15349 C 2499.74 0.942887 -1.04836 0
M  V30 15350 N 2499.75 -0.150999 -1.80369 0
M  V30 15351 N 2499.86 0.812565 0.28167 0
M  V30 15352 C 2499.85 1.90572 1.03784 0
M  V30 15353 N 2499.73 3.167 0.683905 0
M  V30 15354 C 2499.61 3.26538 -0.652815 0
M  V30 15355 H 2496.63 8.13738 -3.03804 0
M  V30 15356 H 2496.36 6.42974 -2.55559 0
M  V30 15357 H 2497.22 8.12139 -0.792866 0
M  V30 15358 H 2499.88 5.80178 0.160643 0
M  V30 15359 H 2500.16 6.51379 -2.75643 0
M  V30 15360 H 2501.15 7.01832 -1.3448 0
M  V30 15361 H 2499.32 8.73771 -2.38364 0
M  V30 15362 H 2499.27 4.7189 -3.52311 0
M  V30 15363 H 2499.66 -0.0721434 -2.82608 0
M  V30 15364 H 2499.84 -1.0785 -1.36544 0
M  V30 15365 H 2499.95 1.73207 2.10241 0
M  V30 15366 P 2501.19 8.91 -6.28378e-11 0
M  V30 15367 O 2501.41 10.1726 0.733694 0
M  V30 15368 O 2501.98 8.73148 -1.23936 0
M  V30 15369 O 2501.44 7.66872 0.971405 0
M  V30 15370 C 2500.5 7.42309 2.04641 0
M  V30 15371 C 2501.23 6.86059 3.24661 0
M  V30 15372 O 2501.44 5.42847 3.03646 0
M  V30 15373 C 2502.63 7.41196 3.50753 0
M  V30 15374 O 2503.02 7.27073 4.86816 0
M  V30 15375 C 2503.51 6.5273 2.63741 0
M  V30 15376 C 2502.8 5.1842 2.73198 0
M  V30 15377 N 2502.85 4.38762 1.4784 0
M  V30 15378 H 2500.01 8.36803 2.32493 0
M  V30 15379 H 2499.74 6.70197 1.71129 0
M  V30 15380 H 2500.6 7.03551 4.13168 0
M  V30 15381 P 2504.57 7.20834 5.23717 0
M  V30 15382 O 2504.79 7.80006 6.57415 0
M  V30 15383 O 2505.36 7.79416 4.13051 0
M  V30 15384 O 2504.82 5.63315 5.29344 0
M  V30 15385 C 2503.88 4.80318 6.01954 0
M  V30 15386 C 2504.61 3.64202 6.65911 0
M  V30 15387 O 2504.82 2.60736 5.64823 0
M  V30 15388 C 2506.01 3.93521 7.19518 0
M  V30 15389 O 2506.4 3.02071 8.21205 0
M  V30 15390 C 2506.89 3.73047 5.97036 0
M  V30 15391 C 2506.18 2.58828 5.25741 0
M  V30 15392 N 2506.23 2.68068 3.77503 0
M  V30 15393 C 2506.15 3.80474 2.99159 0
M  V30 15394 N 2506.22 3.55622 1.71925 0
M  V30 15395 C 2506.37 2.1832 1.65733 0
M  V30 15396 C 2506.5 1.28842 0.572777 0
M  V30 15397 N 2506.51 1.66875 -0.70098 0
M  V30 15398 N 2506.62 -0.016788 0.859836 0
M  V30 15399 C 2506.61 -0.398145 2.13316 0
M  V30 15400 N 2506.49 0.328224 3.22333 0
M  V30 15401 C 2506.37 1.62992 2.90383 0
M  V30 15402 H 2503.39 5.40394 6.8003 0
M  V30 15403 H 2503.12 4.41741 5.32532 0
M  V30 15404 H 2503.98 3.26371 7.47889 0
M  V30 15405 H 2506.64 1.64007 5.56746 0
M  V30 15406 H 2506.92 4.63439 5.3432 0
M  V30 15407 H 2507.91 3.44776 6.25925 0
M  V30 15408 H 2506.08 4.96707 7.57347 0
M  V30 15409 H 2506.03 4.8089 3.39924 0
M  V30 15410 H 2506.42 2.66547 -0.941919 0
M  V30 15411 H 2506.6 0.965341 -1.44766 0
M  V30 15412 H 2506.71 -1.46427 2.29697 0
M  V30 15413 P 2507.95 2.75334 8.47391 0
M  V30 15414 O 2508.17 2.44571 9.90142 0
M  V30 15415 O 2508.74 3.87688 7.92115 0
M  V30 15416 O 2508.2 1.4459 7.59357 0
M  V30 15417 C 2507.26 0.347608 7.69215 0
M  V30 15418 C 2507.99 -0.96767 7.52806 0
M  V30 15419 O 2508.2 -1.21036 6.1011 0
M  V30 15420 C 2509.39 -1.04544 8.13308 0
M  V30 15421 O 2509.78 -2.38311 8.41922 0
M  V30 15422 C 2510.27 -0.491279 7.02284 0
M  V30 15423 C 2509.56 -0.996264 5.77469 0
M  V30 15424 N 2509.61 -0.0501916 4.62973 0
M  V30 15425 H 2506.77 0.374722 8.67691 0
M  V30 15426 H 2506.5 0.443485 6.90277 0
M  V30 15427 H 2507.36 -1.75537 7.96793 0
M  V30 15428 P 2511.33 -2.75334 8.47391 0
M  V30 15429 O 2511.55 -3.84204 9.44982 0
M  V30 15430 O 2512.12 -1.51982 8.68909 0
M  V30 15431 O 2511.58 -3.29363 6.99321 0
M  V30 15432 C 2510.64 -4.24066 6.42823 0
M  V30 15433 C 2511.37 -5.20775 5.52155 0
M  V30 15434 O 2511.58 -4.56607 4.22514 0
M  V30 15435 C 2512.77 -5.62697 5.96604 0
M  V30 15436 O 2513.16 -6.87667 5.41053 0
M  V30 15437 C 2513.65 -4.52537 5.39283 0
M  V30 15438 C 2512.94 -4.20027 4.08623 0
M  V30 15439 N 2512.99 -2.76189 3.71603 0
M  V30 15440 C 2512.91 -1.66944 4.54297 0
M  V30 15441 N 2512.98 -0.536169 3.91344 0
M  V30 15442 C 2513.13 -0.901569 2.58849 0
M  V30 15443 C 2513.26 -0.146599 1.40236 0
M  V30 15444 N 2513.27 1.18234 1.37046 0
M  V30 15445 N 2513.38 -0.822941 0.249738 0
M  V30 15446 C 2513.37 -2.15179 0.280525 0
M  V30 15447 N 2513.25 -2.96414 1.30822 0
M  V30 15448 C 2513.13 -2.25804 2.44748 0
M  V30 15449 H 2510.15 -4.79756 7.24086 0
M  V30 15450 H 2509.88 -3.69963 5.84682 0
M  V30 15451 H 2510.74 -6.10431 5.41508 0
M  V30 15452 H 2513.4 -4.78816 3.28024 0
M  V30 15453 H 2513.68 -3.64957 6.05871 0
M  V30 15454 H 2514.67 -4.88748 5.21323 0
M  V30 15455 H 2512.84 -5.66789 7.0643 0
M  V30 15456 H 2512.79 -1.74684 5.62396 0
M  V30 15457 H 2513.18 1.71949 2.24394 0
M  V30 15458 H 2513.36 1.67511 0.470742 0
M  V30 15459 H 2513.47 -2.63704 -0.6828 0
M  V30 15460 P 2514.71 -7.20834 5.23717 0
M  V30 15461 O 2514.93 -8.66274 5.38678 0
M  V30 15462 O 2515.5 -6.33687 6.13629 0
M  V30 15463 O 2514.96 -6.7751 3.72168 0
M  V30 15464 C 2514.02 -7.20919 2.70795 0
M  V30 15465 C 2514.75 -7.45864 1.40599 0
M  V30 15466 O 2514.96 -6.17751 0.734343 0
M  V30 15467 C 2516.15 -8.05906 1.51917 0
M  V30 15468 O 2516.54 -8.74358 0.335205 0
M  V30 15469 C 2517.03 -6.83093 1.70294 0
M  V30 15470 C 2516.32 -5.79992 0.836974 0
M  V30 15471 N 2516.37 -4.41864 1.38293 0
M  V30 15472 H 2513.53 -8.13738 3.03804 0
M  V30 15473 H 2513.26 -6.42974 2.55559 0
M  V30 15474 H 2514.12 -8.12139 0.792866 0
M  V30 15475 H 2516.78 -5.80178 -0.160643 0
M  V30 15476 H 2517.06 -6.51379 2.75643 0
M  V30 15477 H 2518.05 -7.01832 1.3448 0
M  V30 15478 H 2516.22 -8.73771 2.38364 0
M  V30 15479 P 2518.09 -8.91 6.39468e-11 0
M  V30 15480 O 2518.31 -10.1726 -0.733694 0
M  V30 15481 O 2518.88 -8.73148 1.23936 0
M  V30 15482 O 2518.34 -7.66872 -0.971405 0
M  V30 15483 C 2517.4 -7.42309 -2.04641 0
M  V30 15484 C 2518.13 -6.86059 -3.24661 0
M  V30 15485 O 2518.34 -5.42847 -3.03646 0
M  V30 15486 C 2519.53 -7.41196 -3.50753 0
M  V30 15487 O 2519.92 -7.27073 -4.86816 0
M  V30 15488 C 2520.41 -6.5273 -2.63741 0
M  V30 15489 C 2519.7 -5.1842 -2.73198 0
M  V30 15490 N 2519.75 -4.38762 -1.4784 0
M  V30 15491 H 2516.91 -8.36803 -2.32493 0
M  V30 15492 H 2516.64 -6.70197 -1.71129 0
M  V30 15493 H 2517.5 -7.03551 -4.13168 0
M  V30 15494 P 2521.47 -7.20834 -5.23717 0
M  V30 15495 O 2521.69 -7.79853 -6.57286 0
M  V30 15496 O 2522.26 -7.79239 -4.12957 0
M  V30 15497 O 2521.72 -5.63315 -5.29344 0
M  V30 15498 C 2520.78 -4.80255 -6.01876 0
M  V30 15499 C 2521.51 -3.64202 -6.65911 0
M  V30 15500 O 2521.72 -2.60694 -5.64732 0
M  V30 15501 C 2522.91 -3.93473 -7.1943 0
M  V30 15502 O 2523.3 -3.02071 -8.21205 0
M  V30 15503 C 2523.79 -3.73047 -5.97036 0
M  V30 15504 C 2523.08 -2.58828 -5.25741 0
M  V30 15505 N 2523.13 -2.68068 -3.77503 0
M  V30 15506 H 2520.29 -5.40332 -6.79951 0
M  V30 15507 H 2520.02 -4.41613 -5.32378 0
M  V30 15508 H 2520.88 -3.26331 -7.47797 0
M  V30 15509 P 2524.85 -2.75334 -8.47391 0
M  V30 15510 O 2525.07 -2.44619 -9.90336 0
M  V30 15511 O 2525.64 -3.87776 -7.92294 0
M  V30 15512 O 2525.1 -1.4459 -7.59357 0
M  V30 15513 C 2524.16 -0.347653 -7.69315 0
M  V30 15514 C 2524.89 0.96767 -7.52806 0
M  V30 15515 O 2525.1 1.21055 -6.10208 0
M  V30 15516 C 2526.29 1.04557 -8.13408 0
M  V30 15517 O 2526.68 2.38311 -8.41922 0
M  V30 15518 C 2527.17 0.491279 -7.02284 0
M  V30 15519 C 2526.46 0.996264 -5.77469 0
M  V30 15520 N 2526.51 0.0501916 -4.62973 0
M  V30 15521 C 2526.43 -1.31969 -4.65661 0
M  V30 15522 N 2526.5 -1.86649 -3.48119 0
M  V30 15523 C 2526.65 -0.792089 -2.62406 0
M  V30 15524 C 2526.78 -0.705684 -1.2207 0
M  V30 15525 N 2526.79 -1.76207 -0.413762 0
M  V30 15526 N 2526.9 0.518981 -0.685754 0
M  V30 15527 C 2526.89 1.57595 -1.49174 0
M  V30 15528 N 2526.77 1.62909 -2.80066 0
M  V30 15529 C 2526.65 0.388195 -3.3073 0
M  V30 15530 H 2523.67 -0.374765 -8.67791 0
M  V30 15531 H 2523.4 -0.443613 -6.90476 0
M  V30 15532 H 2524.26 1.75559 -7.96891 0
M  V30 15533 H 2526.92 1.94563 -5.46818 0
M  V30 15534 H 2527.2 -0.608651 -7.04676 0
M  V30 15535 H 2528.19 0.889796 -7.09039 0
M  V30 15536 H 2526.36 0.433128 -9.04664 0
M  V30 15537 H 2526.31 -1.89246 -5.57664 0
M  V30 15538 H 2526.7 -2.71005 -0.804694 0
M  V30 15539 H 2526.88 -1.63189 0.603768 0
M  V30 15540 H 2526.99 2.53475 -0.997614 0
M  V30 15541 P 2528.23 2.75334 -8.47391 0
M  V30 15542 O 2528.45 3.84128 -9.44797 0
M  V30 15543 O 2529.02 1.51947 -8.68712 0
M  V30 15544 O 2528.48 3.29363 -6.99321 0
M  V30 15545 C 2527.54 4.24011 -6.4274 0
M  V30 15546 C 2528.27 5.20775 -5.52155 0
M  V30 15547 O 2528.48 4.56534 -4.22446 0
M  V30 15548 C 2529.67 5.62629 -5.96531 0
M  V30 15549 O 2530.06 6.87667 -5.41053 0
M  V30 15550 C 2530.55 4.52537 -5.39283 0
M  V30 15551 C 2529.84 4.20027 -4.08623 0
M  V30 15552 N 2529.89 2.76189 -3.71603 0
M  V30 15553 C 2529.81 1.64862 -4.52822 0
M  V30 15554 N 2529.89 0.512671 -3.88633 0
M  V30 15555 C 2530.03 0.888083 -2.54977 0
M  V30 15556 C 2530.16 0.094668 -1.38677 0
M  V30 15557 O 2530.18 -1.13053 -1.28163 0
M  V30 15558 N 2530.28 0.890102 -0.232633 0
M  V30 15559 C 2530.28 2.26958 -0.21772 0
M  V30 15560 N 2530.41 2.84626 0.97925 0
M  V30 15561 N 2530.15 3.0178 -1.31033 0
M  V30 15562 C 2530.03 2.26781 -2.43843 0
M  V30 15563 H 2527.05 4.797 -7.24003 0
M  V30 15564 H 2526.78 3.69856 -5.84513 0
M  V30 15565 H 2527.64 6.10356 -5.41441 0
M  V30 15566 H 2530.3 4.79061 -3.27488 0
M  V30 15567 H 2530.58 3.64906 -6.05785 0
M  V30 15568 H 2531.57 4.8868 -5.2125 0
M  V30 15569 H 2529.74 5.66726 -7.06352 0
M  V30 15570 H 2529.69 1.71169 -5.60966 0
M  V30 15571 H 2530.37 0.419134 0.644739 0
M  V30 15572 H 2530.41 3.87332 1.06098 0
M  V30 15573 H 2530.51 2.26417 1.82483 0
M  V30 15574 P 2531.61 7.20834 -5.23717 0
M  V30 15575 O 2531.83 8.66104 -5.38572 0
M  V30 15576 O 2532.4 6.33544 -6.1349 0
M  V30 15577 O 2531.86 6.7751 -3.72168 0
M  V30 15578 C 2530.92 7.20825 -2.7076 0
M  V30 15579 C 2531.65 7.45864 -1.40599 0
M  V30 15580 O 2531.86 6.17651 -0.734225 0
M  V30 15581 C 2533.05 8.05808 -1.51899 0
M  V30 15582 O 2533.44 8.74358 -0.335205 0
M  V30 15583 C 2533.93 6.83093 -1.70294 0
M  V30 15584 C 2533.22 5.79992 -0.836974 0
M  V30 15585 N 2533.27 4.41864 -1.38293 0
M  V30 15586 H 2530.43 8.13644 -3.0377 0
M  V30 15587 H 2530.16 6.42788 -2.55485 0
M  V30 15588 H 2531.02 8.12039 -0.792769 0
M  V30 15589 P 2534.99 8.91 -6.50558e-11 0
M  V30 15590 O 2535.21 10.1726 0.733694 0
M  V30 15591 O 2535.78 8.73148 -1.23936 0
M  V30 15592 O 2535.24 7.66872 0.971405 0
M  V30 15593 C 2534.3 7.42309 2.04641 0
M  V30 15594 C 2535.03 6.86059 3.24661 0
M  V30 15595 O 2535.24 5.42847 3.03646 0
M  V30 15596 C 2536.43 7.41196 3.50753 0
M  V30 15597 O 2536.82 7.27073 4.86816 0
M  V30 15598 C 2537.31 6.5273 2.63741 0
M  V30 15599 C 2536.6 5.1842 2.73198 0
M  V30 15600 N 2536.65 4.38762 1.4784 0
M  V30 15601 H 2533.81 8.36803 2.32493 0
M  V30 15602 H 2533.54 6.70197 1.71129 0
M  V30 15603 H 2534.4 7.03551 4.13168 0
M  V30 15604 P 2538.36 7.20834 5.23717 0
M  V30 15605 O 2538.58 7.7993 6.57351 0
M  V30 15606 O 2539.15 7.79328 4.13004 0
M  V30 15607 O 2538.61 5.63315 5.29344 0
M  V30 15608 C 2537.67 4.80193 6.01798 0
M  V30 15609 C 2538.4 3.64202 6.65911 0
M  V30 15610 O 2538.61 2.60694 5.64732 0
M  V30 15611 C 2539.8 3.93473 7.1943 0
M  V30 15612 O 2540.19 3.02071 8.21205 0
M  V30 15613 C 2540.68 3.73047 5.97036 0
M  V30 15614 C 2539.97 2.58828 5.25741 0
M  V30 15615 N 2540.02 2.6801 3.77422 0
M  V30 15616 C 2540.17 1.50443 3.07133 0
M  V30 15617 O 2540.26 0.419406 3.61576 0
M  V30 15618 N 2540.21 1.6403 1.69677 0
M  V30 15619 C 2540.12 2.81206 0.986255 0
M  V30 15620 C 2539.97 3.99158 1.80325 0
M  V30 15621 C 2539.92 3.89779 3.1476 0
M  V30 15622 H 2537.18 5.40332 6.79951 0
M  V30 15623 H 2536.92 4.41549 5.32301 0
M  V30 15624 H 2537.78 3.26331 7.47797 0
M  V30 15625 H 2540.44 1.6395 5.56554 0
M  V30 15626 H 2540.72 4.63439 5.3432 0
M  V30 15627 H 2541.71 3.44728 6.25838 0
M  V30 15628 H 2539.87 4.96652 7.57263 0
M  V30 15629 H 2539.8 4.80159 3.74441 0
M  V30 15630 P 2541.74 2.75334 8.47391 0
M  V30 15631 O 2541.96 2.44571 9.90142 0
M  V30 15632 O 2542.53 3.87688 7.92115 0
M  V30 15633 O 2541.99 1.4459 7.59357 0
M  V30 15634 C 2541.05 0.347608 7.69215 0
M  V30 15635 C 2541.78 -0.96767 7.52806 0
M  V30 15636 O 2541.99 -1.21036 6.1011 0
M  V30 15637 C 2543.18 -1.04544 8.13308 0
M  V30 15638 O 2543.57 -2.38311 8.41922 0
M  V30 15639 C 2544.06 -0.491279 7.02284 0
M  V30 15640 C 2543.35 -0.996264 5.77469 0
M  V30 15641 N 2543.4 -0.0501916 4.62973 0
M  V30 15642 H 2540.57 0.374722 8.67691 0
M  V30 15643 H 2540.3 0.443485 6.90277 0
M  V30 15644 H 2541.16 -1.75537 7.96793 0
M  V30 15645 P 2545.12 -2.75334 8.47391 0
M  V30 15646 O 2545.34 -3.84128 9.44797 0
M  V30 15647 O 2545.91 -1.51947 8.68712 0
M  V30 15648 O 2545.37 -3.29363 6.99321 0
M  V30 15649 C 2544.43 -4.24011 6.4274 0
M  V30 15650 C 2545.16 -5.20775 5.52155 0
M  V30 15651 O 2545.37 -4.56534 4.22446 0
M  V30 15652 C 2546.56 -5.62629 5.96531 0
M  V30 15653 O 2546.95 -6.87667 5.41053 0
M  V30 15654 C 2547.44 -4.52537 5.39283 0
M  V30 15655 C 2546.73 -4.20027 4.08623 0
M  V30 15656 N 2546.78 -2.76189 3.71603 0
M  V30 15657 H 2543.95 -4.797 7.24003 0
M  V30 15658 H 2543.68 -3.69856 5.84513 0
M  V30 15659 H 2544.54 -6.10356 5.41441 0
M  V30 15660 P 2548.5 -7.20834 5.23717 0
M  V30 15661 O 2548.72 -8.66104 5.38572 0
M  V30 15662 O 2549.29 -6.33544 6.1349 0
M  V30 15663 O 2548.75 -6.7751 3.72168 0
M  V30 15664 C 2547.81 -7.20825 2.7076 0
M  V30 15665 C 2548.54 -7.45864 1.40599 0
M  V30 15666 O 2548.75 -6.17651 0.734225 0
M  V30 15667 C 2549.94 -8.05808 1.51899 0
M  V30 15668 O 2550.33 -8.74358 0.335205 0
M  V30 15669 C 2550.82 -6.83093 1.70294 0
M  V30 15670 C 2550.11 -5.79992 0.836974 0
M  V30 15671 N 2550.16 -4.41864 1.38293 0
M  V30 15672 H 2547.33 -8.13644 3.0377 0
M  V30 15673 H 2547.06 -6.42788 2.55485 0
M  V30 15674 H 2547.92 -8.12039 0.792769 0
M  V30 15675 P 2551.88 -8.91 6.61648e-11 0
M  V30 15676 O 2552.1 -10.1726 -0.733694 0
M  V30 15677 O 2552.67 -8.73148 1.23936 0
M  V30 15678 O 2552.13 -7.66872 -0.971405 0
M  V30 15679 C 2551.19 -7.42309 -2.04641 0
M  V30 15680 C 2551.92 -6.86059 -3.24661 0
M  V30 15681 O 2552.13 -5.42847 -3.03646 0
M  V30 15682 C 2553.32 -7.41196 -3.50753 0
M  V30 15683 O 2553.71 -7.27073 -4.86816 0
M  V30 15684 C 2554.2 -6.5273 -2.63741 0
M  V30 15685 C 2553.49 -5.1842 -2.73198 0
M  V30 15686 N 2553.54 -4.38762 -1.4784 0
M  V30 15687 H 2550.71 -8.36803 -2.32493 0
M  V30 15688 H 2550.44 -6.70197 -1.71129 0
M  V30 15689 H 2551.3 -7.03551 -4.13168 0
M  V30 15690 P 2555.26 -7.20834 -5.23717 0
M  V30 15691 O 2555.48 -7.79853 -6.57286 0
M  V30 15692 O 2556.05 -7.79239 -4.12957 0
M  V30 15693 O 2555.51 -5.63315 -5.29344 0
M  V30 15694 C 2554.57 -4.80255 -6.01876 0
M  V30 15695 C 2555.3 -3.64202 -6.65911 0
M  V30 15696 O 2555.51 -2.60694 -5.64732 0
M  V30 15697 C 2556.7 -3.93473 -7.1943 0
M  V30 15698 O 2557.09 -3.02071 -8.21205 0
M  V30 15699 C 2557.58 -3.73047 -5.97036 0
M  V30 15700 C 2556.87 -2.58828 -5.25741 0
M  V30 15701 N 2556.92 -2.68068 -3.77503 0
M  V30 15702 H 2554.09 -5.40332 -6.79951 0
M  V30 15703 H 2553.82 -4.41613 -5.32378 0
M  V30 15704 H 2554.68 -3.26331 -7.47797 0
M  V30 15705 P 2558.64 -2.75334 -8.47391 0
M  V30 15706 O 2558.86 -2.44571 -9.90142 0
M  V30 15707 O 2559.43 -3.87688 -7.92115 0
M  V30 15708 O 2558.89 -1.4459 -7.59357 0
M  V30 15709 C 2557.95 -0.347608 -7.69215 0
M  V30 15710 C 2558.68 0.96767 -7.52806 0
M  V30 15711 O 2558.89 1.21036 -6.1011 0
M  V30 15712 C 2560.08 1.04544 -8.13308 0
M  V30 15713 O 2560.47 2.38311 -8.41922 0
M  V30 15714 C 2560.96 0.491279 -7.02284 0
M  V30 15715 C 2560.25 0.996264 -5.77469 0
M  V30 15716 N 2560.3 0.0501916 -4.62973 0
M  V30 15717 C 2560.22 -1.32786 -4.63244 0
M  V30 15718 N 2560.3 -1.86957 -3.44545 0
M  V30 15719 C 2560.44 -0.780241 -2.58481 0
M  V30 15720 C 2560.57 -0.738536 -1.17757 0
M  V30 15721 O 2560.59 -1.66794 -0.372349 0
M  V30 15722 N 2560.69 0.58337 -0.711393 0
M  V30 15723 C 2560.69 1.70816 -1.51017 0
M  V30 15724 N 2560.82 2.87826 -0.880757 0
M  V30 15725 N 2560.56 1.67126 -2.8339 0
M  V30 15726 C 2560.44 0.401421 -3.30572 0
M  V30 15727 H 2557.47 -0.374722 -8.67691 0
M  V30 15728 H 2557.2 -0.443485 -6.90277 0
M  V30 15729 H 2558.06 1.75537 -7.96793 0
M  V30 15730 H 2560.72 1.95076 -5.46529 0
M  V30 15731 H 2561 -0.608565 -7.04577 0
M  V30 15732 H 2561.99 0.889672 -7.08939 0
M  V30 15733 H 2560.15 0.43308 -9.04564 0
M  V30 15734 H 2560.11 -1.91249 -5.54442 0
M  V30 15735 H 2560.79 0.718054 0.275244 0
M  V30 15736 H 2560.82 3.75721 -1.41832 0
M  V30 15737 H 2560.93 2.90436 0.145468 0
M  V30 15738 P 2562.02 2.75334 -8.47391 0
M  V30 15739 O 2562.24 3.84128 -9.44797 0
M  V30 15740 O 2562.81 1.51947 -8.68712 0
M  V30 15741 O 2562.27 3.29363 -6.99321 0
M  V30 15742 C 2561.33 4.24011 -6.4274 0
M  V30 15743 C 2562.06 5.20775 -5.52155 0
M  V30 15744 O 2562.27 4.56534 -4.22446 0
M  V30 15745 C 2563.46 5.62629 -5.96531 0
M  V30 15746 O 2563.85 6.87667 -5.41053 0
M  V30 15747 C 2564.34 4.52537 -5.39283 0
M  V30 15748 C 2563.63 4.20027 -4.08623 0
M  V30 15749 N 2563.68 2.76189 -3.71603 0
M  V30 15750 C 2563.6 1.64862 -4.52822 0
M  V30 15751 N 2563.68 0.512671 -3.88633 0
M  V30 15752 C 2563.82 0.888083 -2.54977 0
M  V30 15753 C 2563.95 0.094668 -1.38677 0
M  V30 15754 O 2563.97 -1.13053 -1.28163 0
M  V30 15755 N 2564.07 0.890102 -0.232633 0
M  V30 15756 C 2564.07 2.26958 -0.21772 0
M  V30 15757 N 2564.2 2.84626 0.97925 0
M  V30 15758 N 2563.94 3.0178 -1.31033 0
M  V30 15759 C 2563.82 2.26781 -2.43843 0
M  V30 15760 H 2560.85 4.797 -7.24003 0
M  V30 15761 H 2560.58 3.69856 -5.84513 0
M  V30 15762 H 2561.44 6.10356 -5.41441 0
M  V30 15763 H 2564.1 4.79061 -3.27488 0
M  V30 15764 H 2564.38 3.64906 -6.05785 0
M  V30 15765 H 2565.37 4.8868 -5.2125 0
M  V30 15766 H 2563.53 5.66726 -7.06352 0
M  V30 15767 H 2563.49 1.71169 -5.60966 0
M  V30 15768 H 2564.17 0.419134 0.644739 0
M  V30 15769 H 2564.2 3.87332 1.06098 0
M  V30 15770 H 2564.31 2.26417 1.82483 0
M  V30 15771 P 2565.4 7.20834 -5.23717 0
M  V30 15772 O 2565.62 8.66104 -5.38572 0
M  V30 15773 O 2566.19 6.33544 -6.1349 0
M  V30 15774 O 2565.65 6.7751 -3.72168 0
M  V30 15775 C 2564.71 7.20825 -2.7076 0
M  V30 15776 C 2565.44 7.45864 -1.40599 0
M  V30 15777 O 2565.65 6.17651 -0.734225 0
M  V30 15778 C 2566.84 8.05808 -1.51899 0
M  V30 15779 O 2567.23 8.74358 -0.335205 0
M  V30 15780 C 2567.72 6.83093 -1.70294 0
M  V30 15781 C 2567.01 5.79992 -0.836974 0
M  V30 15782 N 2567.06 4.41864 -1.38293 0
M  V30 15783 C 2566.98 3.99538 -2.69438 0
M  V30 15784 N 2567.06 2.69909 -2.84277 0
M  V30 15785 C 2567.2 2.21719 -1.5408 0
M  V30 15786 C 2567.33 0.891712 -1.06628 0
M  V30 15787 N 2567.45 0.856846 0.334985 0
M  V30 15788 C 2567.45 1.9641 1.15789 0
M  V30 15789 N 2567.58 1.72708 2.46522 0
M  V30 15790 N 2567.32 3.21165 0.713741 0
M  V30 15791 C 2567.2 3.26797 -0.639748 0
M  V30 15792 H 2564.23 8.13644 -3.0377 0
M  V30 15793 H 2563.96 6.42788 -2.55485 0
M  V30 15794 H 2564.82 8.12039 -0.792769 0
M  V30 15795 P 2568.78 8.91 -6.72738e-11 0
M  V30 15796 O 2569 10.1726 0.733694 0
M  V30 15797 O 2569.57 8.73148 -1.23936 0
M  V30 15798 O 2569.03 7.66872 0.971405 0
M  V30 15799 C 2568.09 7.42309 2.04641 0
M  V30 15800 C 2568.82 6.86059 3.24661 0
M  V30 15801 O 2569.03 5.42847 3.03646 0
M  V30 15802 C 2570.22 7.41196 3.50753 0
M  V30 15803 O 2570.61 7.27073 4.86816 0
M  V30 15804 C 2571.1 6.5273 2.63741 0
M  V30 15805 C 2570.39 5.1842 2.73198 0
M  V30 15806 N 2570.44 4.38762 1.4784 0
M  V30 15807 C 2570.36 4.81605 0.168631 0
M  V30 15808 N 2570.44 3.85454 -0.713363 0
M  V30 15809 C 2570.58 2.6994 0.0566958 0
M  V30 15810 C 2570.71 1.34815 -0.338502 0
M  V30 15811 N 2570.83 0.496304 0.77465 0
M  V30 15812 C 2570.83 0.908403 2.09122 0
M  V30 15813 N 2570.96 -0.0517805 3.00955 0
M  V30 15814 N 2570.7 2.17875 2.46519 0
M  V30 15815 C 2570.58 3.01988 1.4033 0
M  V30 15816 H 2567.61 8.36803 2.32493 0
M  V30 15817 H 2567.34 6.70197 1.71129 0
M  V30 15818 H 2568.2 7.03551 4.13168 0
M  V30 15819 P 2572.16 7.20834 5.23717 0
M  V30 15820 O 2572.38 7.79853 6.57286 0
M  V30 15821 O 2572.95 7.79239 4.12957 0
M  V30 15822 O 2572.41 5.63315 5.29344 0
M  V30 15823 C 2571.47 4.80255 6.01876 0
M  V30 15824 C 2572.2 3.64202 6.65911 0
M  V30 15825 O 2572.41 2.60694 5.64732 0
M  V30 15826 C 2573.6 3.93473 7.1943 0
M  V30 15827 O 2573.99 3.02071 8.21205 0
M  V30 15828 C 2574.48 3.73047 5.97036 0
M  V30 15829 C 2573.77 2.58828 5.25741 0
M  V30 15830 N 2573.82 2.68068 3.77503 0
M  V30 15831 H 2570.99 5.40332 6.79951 0
M  V30 15832 H 2570.72 4.41613 5.32378 0
M  V30 15833 H 2571.58 3.26331 7.47797 0
M  V30 15834 P 2575.54 2.75334 8.47391 0
M  V30 15835 O 2575.76 2.44571 9.90142 0
M  V30 15836 O 2576.33 3.87688 7.92115 0
M  V30 15837 O 2575.79 1.4459 7.59357 0
M  V30 15838 C 2574.85 0.347608 7.69215 0
M  V30 15839 C 2575.58 -0.96767 7.52806 0
M  V30 15840 O 2575.79 -1.21036 6.1011 0
M  V30 15841 C 2576.98 -1.04544 8.13308 0
M  V30 15842 O 2577.37 -2.38311 8.41922 0
M  V30 15843 C 2577.86 -0.491279 7.02284 0
M  V30 15844 C 2577.15 -0.996264 5.77469 0
M  V30 15845 N 2577.2 -0.0501916 4.62973 0
M  V30 15846 H 2574.37 0.374722 8.67691 0
M  V30 15847 H 2574.1 0.443485 6.90277 0
M  V30 15848 H 2574.96 -1.75537 7.96793 0
M  V30 15849 P 2578.92 -2.75334 8.47391 0
M  V30 15850 O 2579.14 -3.84128 9.44797 0
M  V30 15851 O 2579.71 -1.51947 8.68712 0
M  V30 15852 O 2579.17 -3.29363 6.99321 0
M  V30 15853 C 2578.23 -4.24011 6.4274 0
M  V30 15854 C 2578.96 -5.20775 5.52155 0
M  V30 15855 O 2579.17 -4.56534 4.22446 0
M  V30 15856 C 2580.36 -5.62629 5.96531 0
M  V30 15857 O 2580.75 -6.87667 5.41053 0
M  V30 15858 C 2581.24 -4.52537 5.39283 0
M  V30 15859 C 2580.53 -4.20027 4.08623 0
M  V30 15860 N 2580.58 -2.76189 3.71603 0
M  V30 15861 H 2577.75 -4.797 7.24003 0
M  V30 15862 H 2577.48 -3.69856 5.84513 0
M  V30 15863 H 2578.34 -6.10356 5.41441 0
M  V30 15864 P 2582.3 -7.20834 5.23717 0
M  V30 15865 O 2582.52 -8.66104 5.38572 0
M  V30 15866 O 2583.09 -6.33544 6.1349 0
M  V30 15867 O 2582.55 -6.7751 3.72168 0
M  V30 15868 C 2581.61 -7.20825 2.7076 0
M  V30 15869 C 2582.34 -7.45864 1.40599 0
M  V30 15870 O 2582.55 -6.17651 0.734225 0
M  V30 15871 C 2583.74 -8.05808 1.51899 0
M  V30 15872 O 2584.13 -8.74358 0.335205 0
M  V30 15873 C 2584.62 -6.83093 1.70294 0
M  V30 15874 C 2583.91 -5.79992 0.836974 0
M  V30 15875 N 2583.96 -4.41864 1.38293 0
M  V30 15876 H 2581.13 -8.13644 3.0377 0
M  V30 15877 H 2580.86 -6.42788 2.55485 0
M  V30 15878 H 2581.72 -8.12039 0.792769 0
M  V30 15879 P 2585.68 -8.91 6.83828e-11 0
M  V30 15880 O 2585.9 -10.1726 -0.733694 0
M  V30 15881 O 2586.47 -8.73148 1.23936 0
M  V30 15882 O 2585.93 -7.66872 -0.971405 0
M  V30 15883 C 2584.99 -7.42309 -2.04641 0
M  V30 15884 C 2585.72 -6.86059 -3.24661 0
M  V30 15885 O 2585.93 -5.42847 -3.03646 0
M  V30 15886 C 2587.12 -7.41196 -3.50753 0
M  V30 15887 O 2587.51 -7.27073 -4.86816 0
M  V30 15888 C 2588 -6.5273 -2.63741 0
M  V30 15889 C 2587.29 -5.1842 -2.73198 0
M  V30 15890 N 2587.34 -4.38762 -1.4784 0
M  V30 15891 H 2584.51 -8.36803 -2.32493 0
M  V30 15892 H 2584.24 -6.70197 -1.71129 0
M  V30 15893 H 2585.1 -7.03551 -4.13168 0
M  V30 15894 P 2589.06 -7.20834 -5.23717 0
M  V30 15895 O 2589.28 -7.80006 -6.57415 0
M  V30 15896 O 2589.85 -7.79416 -4.13051 0
M  V30 15897 O 2589.31 -5.63315 -5.29344 0
M  V30 15898 C 2588.37 -4.80318 -6.01954 0
M  V30 15899 C 2589.1 -3.64202 -6.65911 0
M  V30 15900 O 2589.31 -2.60736 -5.64823 0
M  V30 15901 C 2590.5 -3.93521 -7.19518 0
M  V30 15902 O 2590.89 -3.02071 -8.21205 0
M  V30 15903 C 2591.38 -3.73047 -5.97036 0
M  V30 15904 C 2590.67 -2.58828 -5.25741 0
M  V30 15905 N 2590.72 -2.68068 -3.77503 0
M  V30 15906 C 2590.64 -3.80474 -2.99159 0
M  V30 15907 N 2590.71 -3.55622 -1.71925 0
M  V30 15908 C 2590.86 -2.1832 -1.65733 0
M  V30 15909 C 2590.99 -1.28842 -0.572777 0
M  V30 15910 N 2591 -1.66875 0.70098 0
M  V30 15911 N 2591.11 0.016788 -0.859836 0
M  V30 15912 C 2591.1 0.398145 -2.13316 0
M  V30 15913 N 2590.98 -0.328224 -3.22333 0
M  V30 15914 C 2590.86 -1.62992 -2.90383 0
M  V30 15915 H 2587.89 -5.40394 -6.8003 0
M  V30 15916 H 2587.61 -4.41741 -5.32532 0
M  V30 15917 H 2588.48 -3.26371 -7.47889 0
M  V30 15918 H 2591.14 -1.64007 -5.56746 0
M  V30 15919 H 2591.42 -4.63439 -5.3432 0
M  V30 15920 H 2592.41 -3.44776 -6.25925 0
M  V30 15921 H 2590.57 -4.96707 -7.57347 0
M  V30 15922 H 2590.53 -4.8089 -3.39924 0
M  V30 15923 H 2590.91 -2.66547 0.941919 0
M  V30 15924 H 2591.1 -0.965341 1.44766 0
M  V30 15925 H 2591.21 1.46427 -2.29697 0
M  V30 15926 P 2592.44 -2.75334 -8.47391 0
M  V30 15927 O 2592.66 -2.44619 -9.90336 0
M  V30 15928 O 2593.23 -3.87776 -7.92294 0
M  V30 15929 O 2592.69 -1.4459 -7.59357 0
M  V30 15930 C 2591.75 -0.347653 -7.69315 0
M  V30 15931 C 2592.48 0.96767 -7.52806 0
M  V30 15932 O 2592.69 1.21055 -6.10208 0
M  V30 15933 C 2593.88 1.04557 -8.13408 0
M  V30 15934 O 2594.27 2.38311 -8.41922 0
M  V30 15935 C 2594.76 0.491279 -7.02284 0
M  V30 15936 C 2594.05 0.996264 -5.77469 0
M  V30 15937 N 2594.1 0.0501916 -4.62973 0
M  V30 15938 H 2591.27 -0.374765 -8.67791 0
M  V30 15939 H 2590.99 -0.443613 -6.90476 0
M  V30 15940 H 2591.86 1.75559 -7.96891 0
M  V30 15941 H 2594.52 1.94563 -5.46818 0
M  V30 15942 H 2594.8 -0.608651 -7.04676 0
M  V30 15943 H 2595.79 0.889796 -7.09039 0
M  V30 15944 H 2593.95 0.433128 -9.04664 0
M  V30 15945 P 2595.82 2.75334 -8.47391 0
M  V30 15946 O 2596.04 3.84128 -9.44797 0
M  V30 15947 O 2596.61 1.51947 -8.68712 0
M  V30 15948 O 2596.07 3.29363 -6.99321 0
M  V30 15949 C 2595.13 4.24011 -6.4274 0
M  V30 15950 C 2595.86 5.20775 -5.52155 0
M  V30 15951 O 2596.07 4.56534 -4.22446 0
M  V30 15952 C 2597.26 5.62629 -5.96531 0
M  V30 15953 O 2597.65 6.87667 -5.41053 0
M  V30 15954 C 2598.14 4.52537 -5.39283 0
M  V30 15955 C 2597.43 4.20027 -4.08623 0
M  V30 15956 N 2597.48 2.76189 -3.71603 0
M  V30 15957 H 2594.65 4.797 -7.24003 0
M  V30 15958 H 2594.38 3.69856 -5.84513 0
M  V30 15959 H 2595.24 6.10356 -5.41441 0
M  V30 15960 P 2599.2 7.20834 -5.23717 0
M  V30 15961 O 2599.42 8.66104 -5.38572 0
M  V30 15962 O 2599.99 6.33544 -6.1349 0
M  V30 15963 O 2599.45 6.7751 -3.72168 0
M  V30 15964 C 2598.51 7.20825 -2.7076 0
M  V30 15965 C 2599.24 7.45864 -1.40599 0
M  V30 15966 O 2599.45 6.17651 -0.734225 0
M  V30 15967 C 2600.64 8.05808 -1.51899 0
M  V30 15968 O 2601.03 8.74358 -0.335205 0
M  V30 15969 C 2601.52 6.83093 -1.70294 0
M  V30 15970 C 2600.81 5.79992 -0.836974 0
M  V30 15971 N 2600.86 4.41864 -1.38293 0
M  V30 15972 C 2600.78 3.99538 -2.69438 0
M  V30 15973 N 2600.86 2.69909 -2.84277 0
M  V30 15974 C 2601 2.21719 -1.5408 0
M  V30 15975 C 2601.13 0.891712 -1.06628 0
M  V30 15976 N 2601.25 0.856846 0.334985 0
M  V30 15977 C 2601.25 1.9641 1.15789 0
M  V30 15978 N 2601.38 1.72708 2.46522 0
M  V30 15979 N 2601.12 3.21165 0.713741 0
M  V30 15980 C 2601 3.26797 -0.639748 0
M  V30 15981 H 2598.03 8.13644 -3.0377 0
M  V30 15982 H 2597.76 6.42788 -2.55485 0
M  V30 15983 H 2598.62 8.12039 -0.792769 0
M  V30 15984 P 2602.58 8.91 -6.94918e-11 0
M  V30 15985 O 2602.8 10.1726 0.733694 0
M  V30 15986 O 2603.37 8.73148 -1.23936 0
M  V30 15987 O 2602.83 7.66872 0.971405 0
M  V30 15988 C 2601.89 7.42309 2.04641 0
M  V30 15989 C 2602.62 6.86059 3.24661 0
M  V30 15990 O 2602.83 5.42847 3.03646 0
M  V30 15991 C 2604.02 7.41196 3.50753 0
M  V30 15992 O 2604.41 7.27073 4.86816 0
M  V30 15993 C 2604.9 6.5273 2.63741 0
M  V30 15994 C 2604.19 5.1842 2.73198 0
M  V30 15995 N 2604.24 4.38762 1.4784 0
M  V30 15996 H 2601.41 8.36803 2.32493 0
M  V30 15997 H 2601.14 6.70197 1.71129 0
M  V30 15998 H 2602 7.03551 4.13168 0
M  V30 15999 P 2605.96 7.20834 5.23717 0
M  V30 16000 O 2606.18 7.79853 6.57286 0
M  V30 16001 O 2606.75 7.79239 4.12957 0
M  V30 16002 O 2606.21 5.63315 5.29344 0
M  V30 16003 C 2605.27 4.80255 6.01876 0
M  V30 16004 C 2606 3.64202 6.65911 0
M  V30 16005 O 2606.21 2.60694 5.64732 0
M  V30 16006 C 2607.4 3.93473 7.1943 0
M  V30 16007 O 2607.79 3.02071 8.21205 0
M  V30 16008 C 2608.28 3.73047 5.97036 0
M  V30 16009 C 2607.57 2.58828 5.25741 0
M  V30 16010 N 2607.62 2.68068 3.77503 0
M  V30 16011 H 2604.79 5.40332 6.79951 0
M  V30 16012 H 2604.52 4.41613 5.32378 0
M  V30 16013 H 2605.38 3.26331 7.47797 0
M  V30 16014 P 2609.34 2.75334 8.47391 0
M  V30 16015 O 2609.56 2.44571 9.90142 0
M  V30 16016 O 2610.13 3.87688 7.92115 0
M  V30 16017 O 2609.59 1.4459 7.59357 0
M  V30 16018 C 2608.65 0.347608 7.69215 0
M  V30 16019 C 2609.38 -0.96767 7.52806 0
M  V30 16020 O 2609.59 -1.21036 6.1011 0
M  V30 16021 C 2610.78 -1.04544 8.13308 0
M  V30 16022 O 2611.17 -2.38311 8.41922 0
M  V30 16023 C 2611.66 -0.491279 7.02284 0
M  V30 16024 C 2610.95 -0.996264 5.77469 0
M  V30 16025 N 2611 -0.0501916 4.62973 0
M  V30 16026 H 2608.17 0.374722 8.67691 0
M  V30 16027 H 2607.9 0.443485 6.90277 0
M  V30 16028 H 2608.76 -1.75537 7.96793 0
M  V30 16029 P 2612.72 -2.75334 8.47391 0
M  V30 16030 O 2612.94 -3.84128 9.44797 0
M  V30 16031 O 2613.51 -1.51947 8.68712 0
M  V30 16032 O 2612.97 -3.29363 6.99321 0
M  V30 16033 C 2612.03 -4.24011 6.4274 0
M  V30 16034 C 2612.76 -5.20775 5.52155 0
M  V30 16035 O 2612.97 -4.56534 4.22446 0
M  V30 16036 C 2614.16 -5.62629 5.96531 0
M  V30 16037 O 2614.55 -6.87667 5.41053 0
M  V30 16038 C 2615.04 -4.52537 5.39283 0
M  V30 16039 C 2614.33 -4.20027 4.08623 0
M  V30 16040 N 2614.38 -2.76189 3.71603 0
M  V30 16041 H 2611.55 -4.797 7.24003 0
M  V30 16042 H 2611.28 -3.69856 5.84513 0
M  V30 16043 H 2612.14 -6.10356 5.41441 0
M  V30 16044 P 2616.1 -7.20834 5.23717 0
M  V30 16045 O 2616.32 -8.66104 5.38572 0
M  V30 16046 O 2616.89 -6.33544 6.1349 0
M  V30 16047 O 2616.35 -6.7751 3.72168 0
M  V30 16048 C 2615.41 -7.20825 2.7076 0
M  V30 16049 C 2616.14 -7.45864 1.40599 0
M  V30 16050 O 2616.35 -6.17651 0.734225 0
M  V30 16051 C 2617.54 -8.05808 1.51899 0
M  V30 16052 O 2617.93 -8.74358 0.335205 0
M  V30 16053 C 2618.42 -6.83093 1.70294 0
M  V30 16054 C 2617.71 -5.79992 0.836974 0
M  V30 16055 N 2617.76 -4.41864 1.38293 0
M  V30 16056 H 2614.93 -8.13644 3.0377 0
M  V30 16057 H 2614.66 -6.42788 2.55485 0
M  V30 16058 H 2615.52 -8.12039 0.792769 0
M  V30 16059 P 2619.48 -8.91 7.06008e-11 0
M  V30 16060 O 2619.7 -10.1726 -0.733694 0
M  V30 16061 O 2620.27 -8.73148 1.23936 0
M  V30 16062 O 2619.73 -7.66872 -0.971405 0
M  V30 16063 C 2618.79 -7.42309 -2.04641 0
M  V30 16064 C 2619.52 -6.86059 -3.24661 0
M  V30 16065 O 2619.73 -5.42847 -3.03646 0
M  V30 16066 C 2620.92 -7.41196 -3.50753 0
M  V30 16067 O 2621.31 -7.27073 -4.86816 0
M  V30 16068 C 2621.8 -6.5273 -2.63741 0
M  V30 16069 C 2621.09 -5.1842 -2.73198 0
M  V30 16070 N 2621.14 -4.38762 -1.4784 0
M  V30 16071 H 2618.31 -8.36803 -2.32493 0
M  V30 16072 H 2618.04 -6.70197 -1.71129 0
M  V30 16073 H 2618.9 -7.03551 -4.13168 0
M  V30 16074 P 2622.86 -7.20834 -5.23717 0
M  V30 16075 O 2623.08 -7.79853 -6.57286 0
M  V30 16076 O 2623.65 -7.79239 -4.12957 0
M  V30 16077 O 2623.11 -5.63315 -5.29344 0
M  V30 16078 C 2622.17 -4.80255 -6.01876 0
M  V30 16079 C 2622.9 -3.64202 -6.65911 0
M  V30 16080 O 2623.11 -2.60694 -5.64732 0
M  V30 16081 C 2624.3 -3.93473 -7.1943 0
M  V30 16082 O 2624.69 -3.02071 -8.21205 0
M  V30 16083 C 2625.18 -3.73047 -5.97036 0
M  V30 16084 C 2624.47 -2.58828 -5.25741 0
M  V30 16085 N 2624.52 -2.68068 -3.77503 0
M  V30 16086 H 2621.69 -5.40332 -6.79951 0
M  V30 16087 H 2621.42 -4.41613 -5.32378 0
M  V30 16088 H 2622.28 -3.26331 -7.47797 0
M  V30 16089 P 2626.24 -2.75334 -8.47391 0
M  V30 16090 O 2626.46 -2.44571 -9.90142 0
M  V30 16091 O 2627.03 -3.87688 -7.92115 0
M  V30 16092 O 2626.49 -1.4459 -7.59357 0
M  V30 16093 C 2625.55 -0.347608 -7.69215 0
M  V30 16094 C 2626.28 0.96767 -7.52806 0
M  V30 16095 O 2626.49 1.21036 -6.1011 0
M  V30 16096 C 2627.68 1.04544 -8.13308 0
M  V30 16097 O 2628.07 2.38311 -8.41922 0
M  V30 16098 C 2628.56 0.491279 -7.02284 0
M  V30 16099 C 2627.85 0.996264 -5.77469 0
M  V30 16100 N 2627.9 0.0501916 -4.62973 0
M  V30 16101 H 2625.07 -0.374722 -8.67691 0
M  V30 16102 H 2624.8 -0.443485 -6.90277 0
M  V30 16103 H 2625.66 1.75537 -7.96793 0
M  V30 16104 P 2629.62 2.75334 -8.47391 0
M  V30 16105 O 2629.84 3.84128 -9.44797 0
M  V30 16106 O 2630.41 1.51947 -8.68712 0
M  V30 16107 O 2629.87 3.29363 -6.99321 0
M  V30 16108 C 2628.93 4.24011 -6.4274 0
M  V30 16109 C 2629.66 5.20775 -5.52155 0
M  V30 16110 O 2629.87 4.56534 -4.22446 0
M  V30 16111 C 2631.06 5.62629 -5.96531 0
M  V30 16112 O 2631.45 6.87667 -5.41053 0
M  V30 16113 C 2631.94 4.52537 -5.39283 0
M  V30 16114 C 2631.23 4.20027 -4.08623 0
M  V30 16115 N 2631.28 2.76189 -3.71603 0
M  V30 16116 C 2631.2 1.64862 -4.52822 0
M  V30 16117 N 2631.28 0.512671 -3.88633 0
M  V30 16118 C 2631.42 0.888083 -2.54977 0
M  V30 16119 C 2631.55 0.094668 -1.38677 0
M  V30 16120 N 2631.67 0.890102 -0.232633 0
M  V30 16121 C 2631.67 2.26958 -0.21772 0
M  V30 16122 N 2631.8 2.84626 0.97925 0
M  V30 16123 N 2631.54 3.0178 -1.31033 0
M  V30 16124 C 2631.42 2.26781 -2.43843 0
M  V30 16125 H 2628.45 4.797 -7.24003 0
M  V30 16126 H 2628.18 3.69856 -5.84513 0
M  V30 16127 H 2629.04 6.10356 -5.41441 0
M  V30 16128 P 2633 7.20834 -5.23717 0
M  V30 16129 O 2633.22 8.66104 -5.38572 0
M  V30 16130 O 2633.79 6.33544 -6.1349 0
M  V30 16131 O 2633.25 6.7751 -3.72168 0
M  V30 16132 C 2632.31 7.20825 -2.7076 0
M  V30 16133 C 2633.04 7.45864 -1.40599 0
M  V30 16134 O 2633.25 6.17651 -0.734225 0
M  V30 16135 C 2634.44 8.05808 -1.51899 0
M  V30 16136 O 2634.83 8.74358 -0.335205 0
M  V30 16137 C 2635.32 6.83093 -1.70294 0
M  V30 16138 C 2634.61 5.79992 -0.836974 0
M  V30 16139 N 2634.66 4.41864 -1.38293 0
M  V30 16140 H 2631.83 8.13644 -3.0377 0
M  V30 16141 H 2631.56 6.42788 -2.55485 0
M  V30 16142 H 2632.42 8.12039 -0.792769 0
M  V30 16143 P 2636.38 8.91 -7.17098e-11 0
M  V30 16144 O 2636.6 10.1746 0.733838 0
M  V30 16145 O 2637.17 8.73346 -1.23964 0
M  V30 16146 O 2636.63 7.66872 0.971405 0
M  V30 16147 C 2635.69 7.42405 2.04668 0
M  V30 16148 C 2636.42 6.86059 3.24661 0
M  V30 16149 O 2636.63 5.42934 3.03695 0
M  V30 16150 C 2637.82 7.41287 3.50796 0
M  V30 16151 O 2638.21 7.27073 4.86816 0
M  V30 16152 C 2638.7 6.5273 2.63741 0
M  V30 16153 C 2637.99 5.1842 2.73198 0
M  V30 16154 N 2638.04 4.38762 1.4784 0
M  V30 16155 H 2635.21 8.36899 2.3252 0
M  V30 16156 H 2634.93 6.70391 1.71179 0
M  V30 16157 H 2635.8 7.03638 4.13219 0
M  V30 16158 H 2638.46 4.59931 3.54016 0
M  V30 16159 H 2638.74 6.88995 1.59871 0
M  V30 16160 H 2639.73 6.4684 3.0373 0
M  V30 16161 H 2637.89 8.47002 3.20749 0
M  V30 16162 P 2639.76 7.20834 5.23717 0
M  V30 16163 O 2639.98 7.79853 6.57286 0
M  V30 16164 O 2640.55 7.79239 4.12957 0
M  V30 16165 O 2640.01 5.63315 5.29344 0
M  V30 16166 C 2639.07 4.80255 6.01876 0
M  V30 16167 C 2639.8 3.64202 6.65911 0
M  V30 16168 O 2640.01 2.60694 5.64732 0
M  V30 16169 C 2641.2 3.93473 7.1943 0
M  V30 16170 O 2641.59 3.02071 8.21205 0
M  V30 16171 C 2642.08 3.73047 5.97036 0
M  V30 16172 C 2641.37 2.58828 5.25741 0
M  V30 16173 N 2641.42 2.68068 3.77503 0
M  V30 16174 H 2638.59 5.40332 6.79951 0
M  V30 16175 H 2638.32 4.41613 5.32378 0
M  V30 16176 H 2639.18 3.26331 7.47797 0
M  V30 16177 P 2643.14 2.75334 8.47391 0
M  V30 16178 O 2643.36 2.44619 9.90336 0
M  V30 16179 O 2643.93 3.87776 7.92294 0
M  V30 16180 O 2643.39 1.4459 7.59357 0
M  V30 16181 C 2642.45 0.347653 7.69315 0
M  V30 16182 C 2643.18 -0.96767 7.52806 0
M  V30 16183 O 2643.39 -1.21055 6.10208 0
M  V30 16184 C 2644.58 -1.04557 8.13408 0
M  V30 16185 O 2644.97 -2.38311 8.41922 0
M  V30 16186 C 2645.46 -0.491279 7.02284 0
M  V30 16187 C 2644.75 -0.996264 5.77469 0
M  V30 16188 N 2644.8 -0.0501916 4.62973 0
M  V30 16189 C 2644.72 1.31969 4.65661 0
M  V30 16190 N 2644.79 1.86649 3.48119 0
M  V30 16191 C 2644.94 0.792089 2.62406 0
M  V30 16192 C 2645.07 0.705684 1.2207 0
M  V30 16193 N 2645.08 1.76207 0.413762 0
M  V30 16194 N 2645.19 -0.518981 0.685754 0
M  V30 16195 C 2645.18 -1.57595 1.49174 0
M  V30 16196 N 2645.06 -1.62909 2.80066 0
M  V30 16197 C 2644.94 -0.388195 3.3073 0
M  V30 16198 H 2641.97 0.374765 8.67791 0
M  V30 16199 H 2641.69 0.443613 6.90476 0
M  V30 16200 H 2642.56 -1.75559 7.96891 0
M  V30 16201 H 2645.22 -1.94563 5.46818 0
M  V30 16202 H 2645.5 0.608651 7.04676 0
M  V30 16203 H 2646.49 -0.889796 7.09039 0
M  V30 16204 H 2644.65 -0.433128 9.04664 0
M  V30 16205 H 2644.61 1.89246 5.57664 0
M  V30 16206 H 2644.99 2.71005 0.804694 0
M  V30 16207 H 2645.18 1.63189 -0.603768 0
M  V30 16208 H 2645.29 -2.53475 0.997614 0
M  V30 16209 P 2646.52 -2.75334 8.47391 0
M  V30 16210 O 2646.74 -3.84204 9.44982 0
M  V30 16211 O 2647.31 -1.51982 8.68909 0
M  V30 16212 O 2646.77 -3.29363 6.99321 0
M  V30 16213 C 2645.83 -4.24066 6.42823 0
M  V30 16214 C 2646.56 -5.20775 5.52155 0
M  V30 16215 O 2646.77 -4.56607 4.22514 0
M  V30 16216 C 2647.96 -5.62697 5.96604 0
M  V30 16217 O 2648.35 -6.87667 5.41053 0
M  V30 16218 C 2648.84 -4.52537 5.39283 0
M  V30 16219 C 2648.13 -4.20027 4.08623 0
M  V30 16220 N 2648.18 -2.76189 3.71603 0
M  V30 16221 H 2645.35 -4.79756 7.24086 0
M  V30 16222 H 2645.07 -3.69963 5.84682 0
M  V30 16223 H 2645.94 -6.10431 5.41508 0
M  V30 16224 H 2648.6 -4.78816 3.28024 0
M  V30 16225 H 2648.88 -3.64957 6.05871 0
M  V30 16226 H 2649.87 -4.88748 5.21323 0
M  V30 16227 H 2648.03 -5.66789 7.0643 0
M  V30 16228 P 2649.9 -7.20834 5.23717 0
M  V30 16229 O 2650.12 -8.66104 5.38572 0
M  V30 16230 O 2650.69 -6.33544 6.1349 0
M  V30 16231 O 2650.15 -6.7751 3.72168 0
M  V30 16232 C 2649.21 -7.20825 2.7076 0
M  V30 16233 C 2649.94 -7.45864 1.40599 0
M  V30 16234 O 2650.15 -6.17651 0.734225 0
M  V30 16235 C 2651.34 -8.05808 1.51899 0
M  V30 16236 O 2651.73 -8.74358 0.335205 0
M  V30 16237 C 2652.22 -6.83093 1.70294 0
M  V30 16238 C 2651.51 -5.79992 0.836974 0
M  V30 16239 N 2651.56 -4.41864 1.38293 0
M  V30 16240 C 2651.48 -3.99538 2.69438 0
M  V30 16241 N 2651.56 -2.69909 2.84277 0
M  V30 16242 C 2651.7 -2.21719 1.5408 0
M  V30 16243 C 2651.83 -0.891712 1.06628 0
M  V30 16244 N 2651.95 -0.856846 -0.334985 0
M  V30 16245 C 2651.95 -1.9641 -1.15789 0
M  V30 16246 N 2652.08 -1.72708 -2.46522 0
M  V30 16247 N 2651.82 -3.21165 -0.713741 0
M  V30 16248 C 2651.7 -3.26797 0.639748 0
M  V30 16249 H 2648.73 -8.13644 3.0377 0
M  V30 16250 H 2648.46 -6.42788 2.55485 0
M  V30 16251 H 2649.32 -8.12039 0.792769 0
M  V30 16252 P 2653.28 -8.91 7.28188e-11 0
M  V30 16253 O 2653.5 -10.1726 -0.733694 0
M  V30 16254 O 2654.07 -8.73148 1.23936 0
M  V30 16255 O 2653.53 -7.66872 -0.971405 0
M  V30 16256 C 2652.59 -7.42309 -2.04641 0
M  V30 16257 C 2653.32 -6.86059 -3.24661 0
M  V30 16258 O 2653.53 -5.42847 -3.03646 0
M  V30 16259 C 2654.72 -7.41196 -3.50753 0
M  V30 16260 O 2655.11 -7.27073 -4.86816 0
M  V30 16261 C 2655.6 -6.5273 -2.63741 0
M  V30 16262 C 2654.89 -5.1842 -2.73198 0
M  V30 16263 N 2654.94 -4.38762 -1.4784 0
M  V30 16264 H 2652.11 -8.36803 -2.32493 0
M  V30 16265 H 2651.84 -6.70197 -1.71129 0
M  V30 16266 H 2652.7 -7.03551 -4.13168 0
M  V30 16267 P 2656.66 -7.20834 -5.23717 0
M  V30 16268 O 2656.88 -7.79853 -6.57286 0
M  V30 16269 O 2657.45 -7.79239 -4.12957 0
M  V30 16270 O 2656.91 -5.63315 -5.29344 0
M  V30 16271 C 2655.97 -4.80255 -6.01876 0
M  V30 16272 C 2656.7 -3.64202 -6.65911 0
M  V30 16273 O 2656.91 -2.60694 -5.64732 0
M  V30 16274 C 2658.1 -3.93473 -7.1943 0
M  V30 16275 O 2658.49 -3.02071 -8.21205 0
M  V30 16276 C 2658.98 -3.73047 -5.97036 0
M  V30 16277 C 2658.27 -2.58828 -5.25741 0
M  V30 16278 N 2658.32 -2.68068 -3.77503 0
M  V30 16279 H 2655.49 -5.40332 -6.79951 0
M  V30 16280 H 2655.22 -4.41613 -5.32378 0
M  V30 16281 H 2656.08 -3.26331 -7.47797 0
M  V30 16282 P 2660.04 -2.75334 -8.47391 0
M  V30 16283 O 2660.26 -2.44571 -9.90142 0
M  V30 16284 O 2660.83 -3.87688 -7.92115 0
M  V30 16285 O 2660.29 -1.4459 -7.59357 0
M  V30 16286 C 2659.35 -0.347608 -7.69215 0
M  V30 16287 C 2660.08 0.96767 -7.52806 0
M  V30 16288 O 2660.29 1.21036 -6.1011 0
M  V30 16289 C 2661.48 1.04544 -8.13308 0
M  V30 16290 O 2661.87 2.38311 -8.41922 0
M  V30 16291 C 2662.36 0.491279 -7.02284 0
M  V30 16292 C 2661.65 0.996264 -5.77469 0
M  V30 16293 N 2661.7 0.0501916 -4.62973 0
M  V30 16294 H 2658.87 -0.374722 -8.67691 0
M  V30 16295 H 2658.6 -0.443485 -6.90277 0
M  V30 16296 H 2659.46 1.75537 -7.96793 0
M  V30 16297 P 2663.42 2.75334 -8.47391 0
M  V30 16298 O 2663.64 3.84128 -9.44797 0
M  V30 16299 O 2664.21 1.51947 -8.68712 0
M  V30 16300 O 2663.67 3.29363 -6.99321 0
M  V30 16301 C 2662.73 4.24011 -6.4274 0
M  V30 16302 C 2663.46 5.20775 -5.52155 0
M  V30 16303 O 2663.67 4.56534 -4.22446 0
M  V30 16304 C 2664.86 5.62629 -5.96531 0
M  V30 16305 O 2665.25 6.87667 -5.41053 0
M  V30 16306 C 2665.74 4.52537 -5.39283 0
M  V30 16307 C 2665.03 4.20027 -4.08623 0
M  V30 16308 N 2665.08 2.76189 -3.71603 0
M  V30 16309 C 2665 1.64862 -4.52822 0
M  V30 16310 N 2665.08 0.512671 -3.88633 0
M  V30 16311 C 2665.22 0.888083 -2.54977 0
M  V30 16312 C 2665.35 0.094668 -1.38677 0
M  V30 16313 N 2665.47 0.890102 -0.232633 0
M  V30 16314 C 2665.47 2.26958 -0.21772 0
M  V30 16315 N 2665.6 2.84626 0.97925 0
M  V30 16316 N 2665.34 3.0178 -1.31033 0
M  V30 16317 C 2665.22 2.26781 -2.43843 0
M  V30 16318 H 2662.25 4.797 -7.24003 0
M  V30 16319 H 2661.98 3.69856 -5.84513 0
M  V30 16320 H 2662.84 6.10356 -5.41441 0
M  V30 16321 P 2666.8 7.20834 -5.23717 0
M  V30 16322 O 2667.02 8.66104 -5.38572 0
M  V30 16323 O 2667.59 6.33544 -6.1349 0
M  V30 16324 O 2667.05 6.7751 -3.72168 0
M  V30 16325 C 2666.11 7.20825 -2.7076 0
M  V30 16326 C 2666.84 7.45864 -1.40599 0
M  V30 16327 O 2667.05 6.17651 -0.734225 0
M  V30 16328 C 2668.24 8.05808 -1.51899 0
M  V30 16329 O 2668.63 8.74358 -0.335205 0
M  V30 16330 C 2669.12 6.83093 -1.70294 0
M  V30 16331 C 2668.41 5.79992 -0.836974 0
M  V30 16332 N 2668.46 4.41864 -1.38293 0
M  V30 16333 H 2665.63 8.13644 -3.0377 0
M  V30 16334 H 2665.36 6.42788 -2.55485 0
M  V30 16335 H 2666.22 8.12039 -0.792769 0
M  V30 16336 P 2670.18 8.91 -7.39278e-11 0
M  V30 16337 O 2670.4 10.1726 0.733694 0
M  V30 16338 O 2670.97 8.73148 -1.23936 0
M  V30 16339 O 2670.43 7.66872 0.971405 0
M  V30 16340 C 2669.49 7.42309 2.04641 0
M  V30 16341 C 2670.22 6.86059 3.24661 0
M  V30 16342 O 2670.43 5.42847 3.03646 0
M  V30 16343 C 2671.62 7.41196 3.50753 0
M  V30 16344 O 2672.01 7.27073 4.86816 0
M  V30 16345 C 2672.5 6.5273 2.63741 0
M  V30 16346 C 2671.79 5.1842 2.73198 0
M  V30 16347 N 2671.84 4.38762 1.4784 0
M  V30 16348 C 2671.76 4.81605 0.168631 0
M  V30 16349 N 2671.84 3.85454 -0.713363 0
M  V30 16350 C 2671.98 2.6994 0.0566958 0
M  V30 16351 C 2672.11 1.34815 -0.338502 0
M  V30 16352 N 2672.23 0.496304 0.77465 0
M  V30 16353 C 2672.23 0.908403 2.09122 0
M  V30 16354 N 2672.36 -0.0517805 3.00955 0
M  V30 16355 N 2672.1 2.17875 2.46519 0
M  V30 16356 C 2671.98 3.01988 1.4033 0
M  V30 16357 H 2669.01 8.36803 2.32493 0
M  V30 16358 H 2668.74 6.70197 1.71129 0
M  V30 16359 H 2669.6 7.03551 4.13168 0
M  V30 16360 P 2673.56 7.20834 5.23717 0
M  V30 16361 O 2673.78 7.79853 6.57286 0
M  V30 16362 O 2674.35 7.79239 4.12957 0
M  V30 16363 O 2673.81 5.63315 5.29344 0
M  V30 16364 C 2672.87 4.80255 6.01876 0
M  V30 16365 C 2673.6 3.64202 6.65911 0
M  V30 16366 O 2673.81 2.60694 5.64732 0
M  V30 16367 C 2675 3.93473 7.1943 0
M  V30 16368 O 2675.39 3.02071 8.21205 0
M  V30 16369 C 2675.88 3.73047 5.97036 0
M  V30 16370 C 2675.17 2.58828 5.25741 0
M  V30 16371 N 2675.22 2.68068 3.77503 0
M  V30 16372 H 2672.39 5.40332 6.79951 0
M  V30 16373 H 2672.12 4.41613 5.32378 0
M  V30 16374 H 2672.98 3.26331 7.47797 0
M  V30 16375 P 2676.94 2.75334 8.47391 0
M  V30 16376 O 2677.16 2.44571 9.90142 0
M  V30 16377 O 2677.73 3.87688 7.92115 0
M  V30 16378 O 2677.19 1.4459 7.59357 0
M  V30 16379 C 2676.25 0.347608 7.69215 0
M  V30 16380 C 2676.98 -0.96767 7.52806 0
M  V30 16381 O 2677.19 -1.21036 6.1011 0
M  V30 16382 C 2678.38 -1.04544 8.13308 0
M  V30 16383 O 2678.77 -2.38311 8.41922 0
M  V30 16384 C 2679.26 -0.491279 7.02284 0
M  V30 16385 C 2678.55 -0.996264 5.77469 0
M  V30 16386 N 2678.6 -0.0501916 4.62973 0
M  V30 16387 H 2675.77 0.374722 8.67691 0
M  V30 16388 H 2675.5 0.443485 6.90277 0
M  V30 16389 H 2676.36 -1.75537 7.96793 0
M  V30 16390 P 2680.32 -2.75334 8.47391 0
M  V30 16391 O 2680.54 -3.84128 9.44797 0
M  V30 16392 O 2681.11 -1.51947 8.68712 0
M  V30 16393 O 2680.57 -3.29363 6.99321 0
M  V30 16394 C 2679.63 -4.24011 6.4274 0
M  V30 16395 C 2680.36 -5.20775 5.52155 0
M  V30 16396 O 2680.57 -4.56534 4.22446 0
M  V30 16397 C 2681.76 -5.62629 5.96531 0
M  V30 16398 O 2682.15 -6.87667 5.41053 0
M  V30 16399 C 2682.64 -4.52537 5.39283 0
M  V30 16400 C 2681.93 -4.20027 4.08623 0
M  V30 16401 N 2681.98 -2.76189 3.71603 0
M  V30 16402 H 2679.15 -4.797 7.24003 0
M  V30 16403 H 2678.88 -3.69856 5.84513 0
M  V30 16404 H 2679.74 -6.10356 5.41441 0
M  V30 16405 P 2683.7 -7.20834 5.23717 0
M  V30 16406 O 2683.92 -8.66104 5.38572 0
M  V30 16407 O 2684.49 -6.33544 6.1349 0
M  V30 16408 O 2683.95 -6.7751 3.72168 0
M  V30 16409 C 2683.01 -7.20825 2.7076 0
M  V30 16410 C 2683.74 -7.45864 1.40599 0
M  V30 16411 O 2683.95 -6.17651 0.734225 0
M  V30 16412 C 2685.14 -8.05808 1.51899 0
M  V30 16413 O 2685.53 -8.74358 0.335205 0
M  V30 16414 C 2686.02 -6.83093 1.70294 0
M  V30 16415 C 2685.31 -5.79992 0.836974 0
M  V30 16416 N 2685.36 -4.41864 1.38293 0
M  V30 16417 H 2682.53 -8.13644 3.0377 0
M  V30 16418 H 2682.26 -6.42788 2.55485 0
M  V30 16419 H 2683.12 -8.12039 0.792769 0
M  V30 16420 P 2687.08 -8.91 7.50368e-11 0
M  V30 16421 O 2687.3 -10.1726 -0.733694 0
M  V30 16422 O 2687.87 -8.73148 1.23936 0
M  V30 16423 O 2687.33 -7.66872 -0.971405 0
M  V30 16424 C 2686.39 -7.42309 -2.04641 0
M  V30 16425 C 2687.12 -6.86059 -3.24661 0
M  V30 16426 O 2687.33 -5.42847 -3.03646 0
M  V30 16427 C 2688.52 -7.41196 -3.50753 0
M  V30 16428 O 2688.91 -7.27073 -4.86816 0
M  V30 16429 C 2689.4 -6.5273 -2.63741 0
M  V30 16430 C 2688.69 -5.1842 -2.73198 0
M  V30 16431 N 2688.74 -4.38762 -1.4784 0
M  V30 16432 H 2685.91 -8.36803 -2.32493 0
M  V30 16433 H 2685.64 -6.70197 -1.71129 0
M  V30 16434 H 2686.5 -7.03551 -4.13168 0
M  V30 16435 P 2690.46 -7.20834 -5.23717 0
M  V30 16436 O 2690.68 -7.79853 -6.57286 0
M  V30 16437 O 2691.25 -7.79239 -4.12957 0
M  V30 16438 O 2690.71 -5.63315 -5.29344 0
M  V30 16439 C 2689.77 -4.80255 -6.01876 0
M  V30 16440 C 2690.5 -3.64202 -6.65911 0
M  V30 16441 O 2690.71 -2.60694 -5.64732 0
M  V30 16442 C 2691.9 -3.93473 -7.1943 0
M  V30 16443 O 2692.29 -3.02071 -8.21205 0
M  V30 16444 C 2692.78 -3.73047 -5.97036 0
M  V30 16445 C 2692.07 -2.58828 -5.25741 0
M  V30 16446 N 2692.12 -2.68068 -3.77503 0
M  V30 16447 H 2689.29 -5.40332 -6.79951 0
M  V30 16448 H 2689.02 -4.41613 -5.32378 0
M  V30 16449 H 2689.88 -3.26331 -7.47797 0
M  V30 16450 P 2693.84 -2.75334 -8.47391 0
M  V30 16451 O 2694.06 -2.44571 -9.90142 0
M  V30 16452 O 2694.63 -3.87688 -7.92115 0
M  V30 16453 O 2694.09 -1.4459 -7.59357 0
M  V30 16454 C 2693.15 -0.347608 -7.69215 0
M  V30 16455 C 2693.88 0.96767 -7.52806 0
M  V30 16456 O 2694.09 1.21036 -6.1011 0
M  V30 16457 C 2695.28 1.04544 -8.13308 0
M  V30 16458 O 2695.67 2.38311 -8.41922 0
M  V30 16459 C 2696.16 0.491279 -7.02284 0
M  V30 16460 C 2695.45 0.996264 -5.77469 0
M  V30 16461 N 2695.5 0.0501916 -4.62973 0
M  V30 16462 H 2692.67 -0.374722 -8.67691 0
M  V30 16463 H 2692.4 -0.443485 -6.90277 0
M  V30 16464 H 2693.26 1.75537 -7.96793 0
M  V30 16465 P 2697.22 2.75334 -8.47391 0
M  V30 16466 O 2697.44 3.84128 -9.44797 0
M  V30 16467 O 2698.01 1.51947 -8.68712 0
M  V30 16468 O 2697.47 3.29363 -6.99321 0
M  V30 16469 C 2696.53 4.24011 -6.4274 0
M  V30 16470 C 2697.26 5.20775 -5.52155 0
M  V30 16471 O 2697.47 4.56534 -4.22446 0
M  V30 16472 C 2698.66 5.62629 -5.96531 0
M  V30 16473 O 2699.05 6.87667 -5.41053 0
M  V30 16474 C 2699.54 4.52537 -5.39283 0
M  V30 16475 C 2698.83 4.20027 -4.08623 0
M  V30 16476 N 2698.88 2.76189 -3.71603 0
M  V30 16477 H 2696.05 4.797 -7.24003 0
M  V30 16478 H 2695.78 3.69856 -5.84513 0
M  V30 16479 H 2696.64 6.10356 -5.41441 0
M  V30 16480 P 2700.6 7.20834 -5.23717 0
M  V30 16481 O 2700.82 8.66274 -5.38678 0
M  V30 16482 O 2701.39 6.33687 -6.13629 0
M  V30 16483 O 2700.85 6.7751 -3.72168 0
M  V30 16484 C 2699.91 7.20919 -2.70795 0
M  V30 16485 C 2700.64 7.45864 -1.40599 0
M  V30 16486 O 2700.85 6.17751 -0.734343 0
M  V30 16487 C 2702.04 8.05906 -1.51917 0
M  V30 16488 O 2702.43 8.74358 -0.335205 0
M  V30 16489 C 2702.92 6.83093 -1.70294 0
M  V30 16490 C 2702.21 5.79992 -0.836974 0
M  V30 16491 N 2702.26 4.41864 -1.38293 0
M  V30 16492 C 2702.18 4.02089 -2.69407 0
M  V30 16493 N 2702.25 2.73403 -2.85089 0
M  V30 16494 C 2702.4 2.25086 -1.5642 0
M  V30 16495 C 2702.53 0.942887 -1.04836 0
M  V30 16496 N 2702.54 -0.150999 -1.80369 0
M  V30 16497 N 2702.65 0.812565 0.28167 0
M  V30 16498 C 2702.64 1.90572 1.03784 0
M  V30 16499 N 2702.52 3.167 0.683905 0
M  V30 16500 C 2702.4 3.26538 -0.652815 0
M  V30 16501 H 2699.43 8.13738 -3.03804 0
M  V30 16502 H 2699.15 6.42974 -2.55559 0
M  V30 16503 H 2700.02 8.12139 -0.792866 0
M  V30 16504 H 2702.68 5.80178 0.160643 0
M  V30 16505 H 2702.96 6.51379 -2.75643 0
M  V30 16506 H 2703.95 7.01832 -1.3448 0
M  V30 16507 H 2702.11 8.73771 -2.38364 0
M  V30 16508 H 2702.07 4.7189 -3.52311 0
M  V30 16509 H 2702.45 -0.0721434 -2.82608 0
M  V30 16510 H 2702.64 -1.0785 -1.36544 0
M  V30 16511 H 2702.75 1.73207 2.10241 0
M  V30 16512 P 2703.98 8.91 -7.61458e-11 0
M  V30 16513 O 2704.2 10.1726 0.733694 0
M  V30 16514 O 2704.77 8.73148 -1.23936 0
M  V30 16515 O 2704.23 7.66872 0.971405 0
M  V30 16516 C 2703.29 7.42309 2.04641 0
M  V30 16517 C 2704.02 6.86059 3.24661 0
M  V30 16518 O 2704.23 5.42847 3.03646 0
M  V30 16519 C 2705.42 7.41196 3.50753 0
M  V30 16520 O 2705.81 7.27073 4.86816 0
M  V30 16521 C 2706.3 6.5273 2.63741 0
M  V30 16522 C 2705.59 5.1842 2.73198 0
M  V30 16523 N 2705.64 4.38762 1.4784 0
M  V30 16524 H 2702.81 8.36803 2.32493 0
M  V30 16525 H 2702.54 6.70197 1.71129 0
M  V30 16526 H 2703.4 7.03551 4.13168 0
M  V30 16527 P 2707.36 7.20834 5.23717 0
M  V30 16528 O 2707.58 7.79853 6.57286 0
M  V30 16529 O 2708.15 7.79239 4.12957 0
M  V30 16530 O 2707.61 5.63315 5.29344 0
M  V30 16531 C 2706.67 4.80255 6.01876 0
M  V30 16532 C 2707.4 3.64202 6.65911 0
M  V30 16533 O 2707.61 2.60694 5.64732 0
M  V30 16534 C 2708.8 3.93473 7.1943 0
M  V30 16535 O 2709.19 3.02071 8.21205 0
M  V30 16536 C 2709.68 3.73047 5.97036 0
M  V30 16537 C 2708.97 2.58828 5.25741 0
M  V30 16538 N 2709.02 2.68068 3.77503 0
M  V30 16539 H 2706.18 5.40332 6.79951 0
M  V30 16540 H 2705.91 4.41613 5.32378 0
M  V30 16541 H 2706.78 3.26331 7.47797 0
M  V30 16542 P 2710.74 2.75334 8.47391 0
M  V30 16543 O 2710.96 2.44571 9.90142 0
M  V30 16544 O 2711.53 3.87688 7.92115 0
M  V30 16545 O 2710.99 1.4459 7.59357 0
M  V30 16546 C 2710.05 0.347608 7.69215 0
M  V30 16547 C 2710.78 -0.96767 7.52806 0
M  V30 16548 O 2710.99 -1.21036 6.1011 0
M  V30 16549 C 2712.18 -1.04544 8.13308 0
M  V30 16550 O 2712.57 -2.38311 8.41922 0
M  V30 16551 C 2713.06 -0.491279 7.02284 0
M  V30 16552 C 2712.35 -0.996264 5.77469 0
M  V30 16553 N 2712.4 -0.0501916 4.62973 0
M  V30 16554 H 2709.56 0.374722 8.67691 0
M  V30 16555 H 2709.29 0.443485 6.90277 0
M  V30 16556 H 2710.16 -1.75537 7.96793 0
M  V30 16557 P 2714.12 -2.75334 8.47391 0
M  V30 16558 O 2714.34 -3.84128 9.44797 0
M  V30 16559 O 2714.91 -1.51947 8.68712 0
M  V30 16560 O 2714.37 -3.29363 6.99321 0
M  V30 16561 C 2713.43 -4.24011 6.4274 0
M  V30 16562 C 2714.16 -5.20775 5.52155 0
M  V30 16563 O 2714.37 -4.56534 4.22446 0
M  V30 16564 C 2715.56 -5.62629 5.96531 0
M  V30 16565 O 2715.95 -6.87667 5.41053 0
M  V30 16566 C 2716.44 -4.52537 5.39283 0
M  V30 16567 C 2715.73 -4.20027 4.08623 0
M  V30 16568 N 2715.78 -2.76189 3.71603 0
M  V30 16569 H 2712.94 -4.797 7.24003 0
M  V30 16570 H 2712.67 -3.69856 5.84513 0
M  V30 16571 H 2713.54 -6.10356 5.41441 0
M  V30 16572 P 2717.5 -7.20834 5.23717 0
M  V30 16573 O 2717.72 -8.66104 5.38572 0
M  V30 16574 O 2718.29 -6.33544 6.1349 0
M  V30 16575 O 2717.75 -6.7751 3.72168 0
M  V30 16576 C 2716.81 -7.20825 2.7076 0
M  V30 16577 C 2717.54 -7.45864 1.40599 0
M  V30 16578 O 2717.75 -6.17651 0.734225 0
M  V30 16579 C 2718.94 -8.05808 1.51899 0
M  V30 16580 O 2719.33 -8.74358 0.335205 0
M  V30 16581 C 2719.82 -6.83093 1.70294 0
M  V30 16582 C 2719.11 -5.79992 0.836974 0
M  V30 16583 N 2719.16 -4.41864 1.38293 0
M  V30 16584 H 2716.32 -8.13644 3.0377 0
M  V30 16585 H 2716.05 -6.42788 2.55485 0
M  V30 16586 H 2716.92 -8.12039 0.792769 0
M  V30 16587 P 2720.88 -8.91 7.72548e-11 0
M  V30 16588 O 2721.1 -10.1726 -0.733694 0
M  V30 16589 O 2721.67 -8.73148 1.23936 0
M  V30 16590 O 2721.13 -7.66872 -0.971405 0
M  V30 16591 C 2720.19 -7.42309 -2.04641 0
M  V30 16592 C 2720.92 -6.86059 -3.24661 0
M  V30 16593 O 2721.13 -5.42847 -3.03646 0
M  V30 16594 C 2722.32 -7.41196 -3.50753 0
M  V30 16595 O 2722.71 -7.27073 -4.86816 0
M  V30 16596 C 2723.2 -6.5273 -2.63741 0
M  V30 16597 C 2722.49 -5.1842 -2.73198 0
M  V30 16598 N 2722.54 -4.38762 -1.4784 0
M  V30 16599 H 2719.7 -8.36803 -2.32493 0
M  V30 16600 H 2719.43 -6.70197 -1.71129 0
M  V30 16601 H 2720.3 -7.03551 -4.13168 0
M  V30 16602 P 2724.26 -7.20834 -5.23717 0
M  V30 16603 O 2724.48 -7.79853 -6.57286 0
M  V30 16604 O 2725.05 -7.79239 -4.12957 0
M  V30 16605 O 2724.51 -5.63315 -5.29344 0
M  V30 16606 C 2723.57 -4.80255 -6.01876 0
M  V30 16607 C 2724.3 -3.64202 -6.65911 0
M  V30 16608 O 2724.51 -2.60694 -5.64732 0
M  V30 16609 C 2725.7 -3.93473 -7.1943 0
M  V30 16610 O 2726.09 -3.02071 -8.21205 0
M  V30 16611 C 2726.58 -3.73047 -5.97036 0
M  V30 16612 C 2725.87 -2.58828 -5.25741 0
M  V30 16613 N 2725.92 -2.68068 -3.77503 0
M  V30 16614 H 2723.08 -5.40332 -6.79951 0
M  V30 16615 H 2722.81 -4.41613 -5.32378 0
M  V30 16616 H 2723.68 -3.26331 -7.47797 0
M  V30 16617 P 2727.64 -2.75334 -8.47391 0
M  V30 16618 O 2727.86 -2.44619 -9.90336 0
M  V30 16619 O 2728.43 -3.87776 -7.92294 0
M  V30 16620 O 2727.89 -1.4459 -7.59357 0
M  V30 16621 C 2726.95 -0.347653 -7.69315 0
M  V30 16622 C 2727.68 0.96767 -7.52806 0
M  V30 16623 O 2727.89 1.21055 -6.10208 0
M  V30 16624 C 2729.08 1.04557 -8.13408 0
M  V30 16625 O 2729.47 2.38311 -8.41922 0
M  V30 16626 C 2729.96 0.491279 -7.02284 0
M  V30 16627 C 2729.25 0.996264 -5.77469 0
M  V30 16628 N 2729.3 0.0501916 -4.62973 0
M  V30 16629 C 2729.22 -1.31969 -4.65661 0
M  V30 16630 N 2729.29 -1.86649 -3.48119 0
M  V30 16631 C 2729.44 -0.792089 -2.62406 0
M  V30 16632 C 2729.57 -0.705684 -1.2207 0
M  V30 16633 N 2729.58 -1.76207 -0.413762 0
M  V30 16634 N 2729.69 0.518981 -0.685754 0
M  V30 16635 C 2729.68 1.57595 -1.49174 0
M  V30 16636 N 2729.56 1.62909 -2.80066 0
M  V30 16637 C 2729.44 0.388195 -3.3073 0
M  V30 16638 H 2726.47 -0.374765 -8.67791 0
M  V30 16639 H 2726.19 -0.443613 -6.90476 0
M  V30 16640 H 2727.06 1.75559 -7.96891 0
M  V30 16641 H 2729.72 1.94563 -5.46818 0
M  V30 16642 H 2730 -0.608651 -7.04676 0
M  V30 16643 H 2730.99 0.889796 -7.09039 0
M  V30 16644 H 2729.15 0.433128 -9.04664 0
M  V30 16645 H 2729.11 -1.89246 -5.57664 0
M  V30 16646 H 2729.49 -2.71005 -0.804694 0
M  V30 16647 H 2729.68 -1.63189 0.603768 0
M  V30 16648 H 2729.79 2.53475 -0.997614 0
M  V30 16649 P 2731.02 2.75334 -8.47391 0
M  V30 16650 O 2731.24 3.84204 -9.44982 0
M  V30 16651 O 2731.81 1.51982 -8.68909 0
M  V30 16652 O 2731.27 3.29363 -6.99321 0
M  V30 16653 C 2730.33 4.24066 -6.42823 0
M  V30 16654 C 2731.06 5.20775 -5.52155 0
M  V30 16655 O 2731.27 4.56607 -4.22514 0
M  V30 16656 C 2732.46 5.62697 -5.96604 0
M  V30 16657 O 2732.85 6.87667 -5.41053 0
M  V30 16658 C 2733.34 4.52537 -5.39283 0
M  V30 16659 C 2732.63 4.20027 -4.08623 0
M  V30 16660 N 2732.68 2.76189 -3.71603 0
M  V30 16661 C 2732.6 1.66944 -4.54297 0
M  V30 16662 N 2732.67 0.536169 -3.91344 0
M  V30 16663 C 2732.82 0.901569 -2.58849 0
M  V30 16664 C 2732.95 0.146599 -1.40236 0
M  V30 16665 N 2732.96 -1.18234 -1.37046 0
M  V30 16666 N 2733.07 0.822941 -0.249738 0
M  V30 16667 C 2733.06 2.15179 -0.280525 0
M  V30 16668 N 2732.94 2.96414 -1.30822 0
M  V30 16669 C 2732.82 2.25804 -2.44748 0
M  V30 16670 H 2729.85 4.79756 -7.24086 0
M  V30 16671 H 2729.57 3.69963 -5.84682 0
M  V30 16672 H 2730.44 6.10431 -5.41508 0
M  V30 16673 H 2733.1 4.78816 -3.28024 0
M  V30 16674 H 2733.38 3.64957 -6.05871 0
M  V30 16675 H 2734.37 4.88748 -5.21323 0
M  V30 16676 H 2732.53 5.66789 -7.0643 0
M  V30 16677 H 2732.49 1.74684 -5.62396 0
M  V30 16678 H 2732.87 -1.71949 -2.24394 0
M  V30 16679 H 2733.06 -1.67511 -0.470742 0
M  V30 16680 H 2733.17 2.63704 0.6828 0
M  V30 16681 P 2734.4 7.20834 -5.23717 0
M  V30 16682 O 2734.62 8.66104 -5.38572 0
M  V30 16683 O 2735.19 6.33544 -6.1349 0
M  V30 16684 O 2734.65 6.7751 -3.72168 0
M  V30 16685 C 2733.71 7.20825 -2.7076 0
M  V30 16686 C 2734.44 7.45864 -1.40599 0
M  V30 16687 O 2734.65 6.17651 -0.734225 0
M  V30 16688 C 2735.84 8.05808 -1.51899 0
M  V30 16689 O 2736.23 8.74358 -0.335205 0
M  V30 16690 C 2736.72 6.83093 -1.70294 0
M  V30 16691 C 2736.01 5.79992 -0.836974 0
M  V30 16692 N 2736.06 4.41864 -1.38293 0
M  V30 16693 H 2733.22 8.13644 -3.0377 0
M  V30 16694 H 2732.95 6.42788 -2.55485 0
M  V30 16695 H 2733.82 8.12039 -0.792769 0
M  V30 16696 P 2737.78 8.91 -7.83638e-11 0
M  V30 16697 O 2738 10.1726 0.733694 0
M  V30 16698 O 2738.57 8.73148 -1.23936 0
M  V30 16699 O 2738.03 7.66872 0.971405 0
M  V30 16700 C 2737.09 7.42309 2.04641 0
M  V30 16701 C 2737.82 6.86059 3.24661 0
M  V30 16702 O 2738.03 5.42847 3.03646 0
M  V30 16703 C 2739.22 7.41196 3.50753 0
M  V30 16704 O 2739.61 7.27073 4.86816 0
M  V30 16705 C 2740.1 6.5273 2.63741 0
M  V30 16706 C 2739.39 5.1842 2.73198 0
M  V30 16707 N 2739.44 4.38762 1.4784 0
M  V30 16708 H 2736.6 8.36803 2.32493 0
M  V30 16709 H 2736.33 6.70197 1.71129 0
M  V30 16710 H 2737.2 7.03551 4.13168 0
M  V30 16711 P 2741.16 7.20834 5.23717 0
M  V30 16712 O 2741.38 7.79853 6.57286 0
M  V30 16713 O 2741.95 7.79239 4.12957 0
M  V30 16714 O 2741.41 5.63315 5.29344 0
M  V30 16715 C 2740.47 4.80255 6.01876 0
M  V30 16716 C 2741.2 3.64202 6.65911 0
M  V30 16717 O 2741.41 2.60694 5.64732 0
M  V30 16718 C 2742.6 3.93473 7.1943 0
M  V30 16719 O 2742.99 3.02071 8.21205 0
M  V30 16720 C 2743.48 3.73047 5.97036 0
M  V30 16721 C 2742.77 2.58828 5.25741 0
M  V30 16722 N 2742.82 2.68068 3.77503 0
M  V30 16723 H 2739.98 5.40332 6.79951 0
M  V30 16724 H 2739.71 4.41613 5.32378 0
M  V30 16725 H 2740.58 3.26331 7.47797 0
M  V30 16726 P 2744.54 2.75334 8.47391 0
M  V30 16727 O 2744.76 2.44571 9.90142 0
M  V30 16728 O 2745.33 3.87688 7.92115 0
M  V30 16729 O 2744.79 1.4459 7.59357 0
M  V30 16730 C 2743.85 0.347608 7.69215 0
M  V30 16731 C 2744.58 -0.96767 7.52806 0
M  V30 16732 O 2744.79 -1.21036 6.1011 0
M  V30 16733 C 2745.98 -1.04544 8.13308 0
M  V30 16734 O 2746.37 -2.38311 8.41922 0
M  V30 16735 C 2746.86 -0.491279 7.02284 0
M  V30 16736 C 2746.15 -0.996264 5.77469 0
M  V30 16737 N 2746.2 -0.0501916 4.62973 0
M  V30 16738 H 2743.36 0.374722 8.67691 0
M  V30 16739 H 2743.09 0.443485 6.90277 0
M  V30 16740 H 2743.96 -1.75537 7.96793 0
M  V30 16741 P 2747.92 -2.75334 8.47391 0
M  V30 16742 O 2748.14 -3.84166 9.4489 0
M  V30 16743 O 2748.71 -1.51964 8.6881 0
M  V30 16744 O 2748.17 -3.29363 6.99321 0
M  V30 16745 C 2747.23 -4.24011 6.4274 0
M  V30 16746 C 2747.96 -5.20775 5.52155 0
M  V30 16747 O 2748.17 -4.56534 4.22446 0
M  V30 16748 C 2749.36 -5.62629 5.96531 0
M  V30 16749 O 2749.75 -6.87667 5.41053 0
M  V30 16750 C 2750.24 -4.52537 5.39283 0
M  V30 16751 C 2749.53 -4.20027 4.08623 0
M  V30 16752 N 2749.58 -2.7613 3.71522 0
M  V30 16753 C 2749.73 -2.43702 2.37085 0
M  V30 16754 O 2749.82 -3.3531 1.54039 0
M  V30 16755 N 2749.78 -0.951103 2.10621 0
M  V30 16756 C 2749.68 -0.165021 2.93537 0
M  V30 16757 N 2749.73 1.09723 2.53253 0
M  V30 16758 C 2749.53 -0.469576 4.32458 0
M  V30 16759 C 2749.48 -1.78658 4.65921 0
M  V30 16760 H 2746.74 -4.79645 7.23919 0
M  V30 16761 H 2746.47 -3.69802 5.84429 0
M  V30 16762 H 2747.34 -6.10431 5.41508 0
M  V30 16763 H 2750 -4.78733 3.27967 0
M  V30 16764 H 2750.28 -3.64957 6.05871 0
M  V30 16765 H 2751.27 -4.8868 5.2125 0
M  V30 16766 H 2749.43 -5.66726 7.06352 0
M  V30 16767 H 2749.36 -2.06987 5.70299 0
M  V30 16768 H 2749.46 0.314383 5.07728 0
M  V30 16769 H 2749.85 1.31363 1.5319 0
M  V30 16770 H 2749.65 1.85978 3.21943 0
M  V30 16771 P 2751.3 -7.20834 5.23717 0
M  V30 16772 O 2751.52 -8.66104 5.38572 0
M  V30 16773 O 2752.09 -6.33544 6.1349 0
M  V30 16774 O 2751.55 -6.7751 3.72168 0
M  V30 16775 C 2750.61 -7.20825 2.7076 0
M  V30 16776 C 2751.34 -7.45864 1.40599 0
M  V30 16777 O 2751.55 -6.17651 0.734225 0
M  V30 16778 C 2752.74 -8.05808 1.51899 0
M  V30 16779 O 2753.13 -8.74358 0.335205 0
M  V30 16780 C 2753.62 -6.83093 1.70294 0
M  V30 16781 C 2752.91 -5.79992 0.836974 0
M  V30 16782 N 2752.96 -4.41864 1.38293 0
M  V30 16783 H 2750.12 -8.13644 3.0377 0
M  V30 16784 H 2749.85 -6.42788 2.55485 0
M  V30 16785 H 2750.72 -8.12039 0.792769 0
M  V30 16786 P 2754.68 -8.91 7.94728e-11 0
M  V30 16787 O 2754.9 -10.1726 -0.733694 0
M  V30 16788 O 2755.47 -8.73148 1.23936 0
M  V30 16789 O 2754.93 -7.66872 -0.971405 0
M  V30 16790 C 2753.99 -7.42309 -2.04641 0
M  V30 16791 C 2754.72 -6.86059 -3.24661 0
M  V30 16792 O 2754.93 -5.42847 -3.03646 0
M  V30 16793 C 2756.12 -7.41196 -3.50753 0
M  V30 16794 O 2756.51 -7.27073 -4.86816 0
M  V30 16795 C 2757 -6.5273 -2.63741 0
M  V30 16796 C 2756.29 -5.1842 -2.73198 0
M  V30 16797 N 2756.34 -4.38762 -1.4784 0
M  V30 16798 H 2753.5 -8.36803 -2.32493 0
M  V30 16799 H 2753.23 -6.70197 -1.71129 0
M  V30 16800 H 2754.1 -7.03551 -4.13168 0
M  V30 16801 P 2758.06 -7.20834 -5.23717 0
M  V30 16802 O 2758.28 -7.79853 -6.57286 0
M  V30 16803 O 2758.85 -7.79239 -4.12957 0
M  V30 16804 O 2758.31 -5.63315 -5.29344 0
M  V30 16805 C 2757.37 -4.80255 -6.01876 0
M  V30 16806 C 2758.1 -3.64202 -6.65911 0
M  V30 16807 O 2758.31 -2.60694 -5.64732 0
M  V30 16808 C 2759.5 -3.93473 -7.1943 0
M  V30 16809 O 2759.89 -3.02071 -8.21205 0
M  V30 16810 C 2760.38 -3.73047 -5.97036 0
M  V30 16811 C 2759.67 -2.58828 -5.25741 0
M  V30 16812 N 2759.72 -2.68068 -3.77503 0
M  V30 16813 H 2756.88 -5.40332 -6.79951 0
M  V30 16814 H 2756.61 -4.41613 -5.32378 0
M  V30 16815 H 2757.48 -3.26331 -7.47797 0
M  V30 16816 P 2761.44 -2.75334 -8.47391 0
M  V30 16817 O 2761.66 -2.44595 -9.90239 0
M  V30 16818 O 2762.23 -3.87732 -7.92204 0
M  V30 16819 O 2761.69 -1.4459 -7.59357 0
M  V30 16820 C 2760.75 -0.347563 -7.69115 0
M  V30 16821 C 2761.48 0.96767 -7.52806 0
M  V30 16822 O 2761.69 1.21036 -6.1011 0
M  V30 16823 C 2762.88 1.04544 -8.13308 0
M  V30 16824 O 2763.27 2.38311 -8.41922 0
M  V30 16825 C 2763.76 0.491279 -7.02284 0
M  V30 16826 C 2763.05 0.996264 -5.77469 0
M  V30 16827 N 2763.1 0.0501808 -4.62873 0
M  V30 16828 C 2763.25 0.588177 -3.36904 0
M  V30 16829 O 2763.34 1.78598 -3.17173 0
M  V30 16830 N 2763.29 -0.329694 -2.33686 0
M  V30 16831 C 2763.2 -1.6953 -2.45079 0
M  V30 16832 C 2763.05 -2.16933 -3.80505 0
M  V30 16833 C 2763 -1.30326 -4.83752 0
M  V30 16834 H 2760.26 -0.374722 -8.67691 0
M  V30 16835 H 2759.99 -0.443421 -6.90177 0
M  V30 16836 H 2760.86 1.75537 -7.96793 0
M  V30 16837 H 2763.52 1.94496 -5.46629 0
M  V30 16838 H 2763.8 -0.608651 -7.04676 0
M  V30 16839 H 2764.79 0.889672 -7.08939 0
M  V30 16840 H 2762.95 0.43308 -9.04564 0
M  V30 16841 H 2762.88 -1.68366 -5.8516 0
M  V30 16842 P 2764.82 2.75334 -8.47391 0
M  V30 16843 O 2765.04 3.84128 -9.44797 0
M  V30 16844 O 2765.61 1.51947 -8.68712 0
M  V30 16845 O 2765.07 3.29363 -6.99321 0
M  V30 16846 C 2764.13 4.24011 -6.4274 0
M  V30 16847 C 2764.86 5.20775 -5.52155 0
M  V30 16848 O 2765.07 4.56534 -4.22446 0
M  V30 16849 C 2766.26 5.62629 -5.96531 0
M  V30 16850 O 2766.65 6.87667 -5.41053 0
M  V30 16851 C 2767.14 4.52537 -5.39283 0
M  V30 16852 C 2766.43 4.20027 -4.08623 0
M  V30 16853 N 2766.48 2.76189 -3.71603 0
M  V30 16854 C 2766.4 1.64862 -4.52822 0
M  V30 16855 N 2766.48 0.512671 -3.88633 0
M  V30 16856 C 2766.62 0.888083 -2.54977 0
M  V30 16857 C 2766.75 0.094668 -1.38677 0
M  V30 16858 O 2766.77 -1.13053 -1.28163 0
M  V30 16859 N 2766.87 0.890102 -0.232633 0
M  V30 16860 C 2766.87 2.26958 -0.21772 0
M  V30 16861 N 2767 2.84626 0.97925 0
M  V30 16862 N 2766.74 3.0178 -1.31033 0
M  V30 16863 C 2766.62 2.26781 -2.43843 0
M  V30 16864 H 2763.64 4.797 -7.24003 0
M  V30 16865 H 2763.37 3.69856 -5.84513 0
M  V30 16866 H 2764.24 6.10356 -5.41441 0
M  V30 16867 H 2766.9 4.79061 -3.27488 0
M  V30 16868 H 2767.18 3.64906 -6.05785 0
M  V30 16869 H 2768.17 4.8868 -5.2125 0
M  V30 16870 H 2766.33 5.66726 -7.06352 0
M  V30 16871 H 2766.28 1.71169 -5.60966 0
M  V30 16872 H 2766.97 0.419134 0.644739 0
M  V30 16873 H 2767 3.87332 1.06098 0
M  V30 16874 H 2767.1 2.26417 1.82483 0
M  V30 16875 P 2768.2 7.20834 -5.23717 0
M  V30 16876 O 2768.42 8.66104 -5.38572 0
M  V30 16877 O 2768.99 6.33544 -6.1349 0
M  V30 16878 O 2768.45 6.7751 -3.72168 0
M  V30 16879 C 2767.51 7.20825 -2.7076 0
M  V30 16880 C 2768.24 7.45864 -1.40599 0
M  V30 16881 O 2768.45 6.17651 -0.734225 0
M  V30 16882 C 2769.64 8.05808 -1.51899 0
M  V30 16883 O 2770.03 8.74358 -0.335205 0
M  V30 16884 C 2770.52 6.83093 -1.70294 0
M  V30 16885 C 2769.81 5.79992 -0.836974 0
M  V30 16886 N 2769.86 4.41864 -1.38293 0
M  V30 16887 H 2767.02 8.13644 -3.0377 0
M  V30 16888 H 2766.75 6.42788 -2.55485 0
M  V30 16889 H 2767.62 8.12039 -0.792769 0
M  V30 16890 P 2771.58 8.91 -8.05818e-11 0
M  V30 16891 O 2771.8 10.1736 0.733766 0
M  V30 16892 O 2772.37 8.73247 -1.2395 0
M  V30 16893 O 2771.83 7.66872 0.971405 0
M  V30 16894 C 2770.89 7.42212 2.04614 0
M  V30 16895 C 2771.62 6.86059 3.24661 0
M  V30 16896 O 2771.83 5.42847 3.03646 0
M  V30 16897 C 2773.02 7.41196 3.50753 0
M  V30 16898 O 2773.41 7.27073 4.86816 0
M  V30 16899 C 2773.9 6.5273 2.63741 0
M  V30 16900 C 2773.19 5.1842 2.73198 0
M  V30 16901 N 2773.24 4.38668 1.47808 0
M  V30 16902 C 2773.39 3.02239 1.60048 0
M  V30 16903 O 2773.48 2.46459 2.67869 0
M  V30 16904 N 2773.43 2.32436 0.408571 0
M  V30 16905 C 2773.34 2.85471 -0.854993 0
M  V30 16906 O 2773.39 2.12566 -1.8531 0
M  V30 16907 C 2773.19 4.28918 -0.887335 0
M  V30 16908 C 2773.08 4.91066 -2.24619 0
M  V30 16909 C 2773.14 5.00349 0.255399 0
M  V30 16910 H 2770.4 8.36803 2.32493 0
M  V30 16911 H 2770.13 6.701 1.71105 0
M  V30 16912 H 2771 7.03551 4.13168 0
M  V30 16913 H 2773.66 4.59773 3.53894 0
M  V30 16914 H 2773.94 6.88995 1.59871 0
M  V30 16915 H 2774.93 6.46749 3.03687 0
M  V30 16916 H 2773.09 8.46908 3.20714 0
M  V30 16917 H 2773.02 6.08548 0.206986 0
M  V30 16918 H 2774.05 5.34836 -2.53099 0
M  V30 16919 H 2772.32 5.69638 -2.2291 0
M  V30 16920 H 2772.8 4.13971 -2.98044 0
M  V30 16921 H 2773.54 1.33211 0.474216 0
M  V30 16922 P 2774.96 7.20834 5.23717 0
M  V30 16923 O 2775.18 7.79853 6.57286 0
M  V30 16924 O 2775.75 7.79239 4.12957 0
M  V30 16925 O 2775.21 5.63315 5.29344 0
M  V30 16926 C 2774.27 4.80255 6.01876 0
M  V30 16927 C 2775 3.64202 6.65911 0
M  V30 16928 O 2775.21 2.60694 5.64732 0
M  V30 16929 C 2776.4 3.93473 7.1943 0
M  V30 16930 O 2776.79 3.02071 8.21205 0
M  V30 16931 C 2777.28 3.73047 5.97036 0
M  V30 16932 C 2776.57 2.58828 5.25741 0
M  V30 16933 N 2776.62 2.68068 3.77503 0
M  V30 16934 C 2776.54 3.79715 2.96723 0
M  V30 16935 N 2776.62 3.5377 1.68852 0
M  V30 16936 C 2776.76 2.15054 1.63254 0
M  V30 16937 C 2776.89 1.28964 0.518571 0
M  V30 16938 O 2776.91 1.56826 -0.679156 0
M  V30 16939 N 2777.01 -0.0538097 0.918425 0
M  V30 16940 C 2777.01 -0.494275 2.22578 0
M  V30 16941 N 2777.14 -1.81086 2.40434 0
M  V30 16942 N 2776.88 0.313645 3.27502 0
M  V30 16943 C 2776.76 1.61829 2.91033 0
M  V30 16944 H 2773.78 5.40332 6.79951 0
M  V30 16945 H 2773.51 4.41613 5.32378 0
M  V30 16946 H 2774.38 3.26331 7.47797 0
M  V30 16947 H 2777.04 1.63422 5.56814 0
M  V30 16948 H 2777.32 4.63374 5.34244 0
M  V30 16949 H 2778.31 3.44728 6.25838 0
M  V30 16950 H 2776.47 4.96652 7.57263 0
M  V30 16951 H 2776.42 4.80617 3.3614 0
M  V30 16952 H 2777.11 -0.742702 0.199384 0
M  V30 16953 H 2777.14 -2.20598 3.35588 0
M  V30 16954 H 2777.24 -2.43518 1.58945 0
M  V30 16955 P 2778.34 2.75334 8.47391 0
M  V30 16956 O 2778.56 2.44571 9.90142 0
M  V30 16957 O 2779.13 3.87688 7.92115 0
M  V30 16958 O 2778.59 1.4459 7.59357 0
M  V30 16959 C 2777.65 0.347608 7.69215 0
M  V30 16960 C 2778.38 -0.96767 7.52806 0
M  V30 16961 O 2778.59 -1.21036 6.1011 0
M  V30 16962 C 2779.78 -1.04544 8.13308 0
M  V30 16963 O 2780.17 -2.38311 8.41922 0
M  V30 16964 C 2780.66 -0.491279 7.02284 0
M  V30 16965 C 2779.95 -0.996264 5.77469 0
M  V30 16966 N 2780 -0.0501916 4.62973 0
M  V30 16967 H 2777.16 0.374722 8.67691 0
M  V30 16968 H 2776.89 0.443485 6.90277 0
M  V30 16969 H 2777.76 -1.75537 7.96793 0
M  V30 16970 P 2781.72 -2.75334 8.47391 0
M  V30 16971 O 2781.94 -3.84128 9.44797 0
M  V30 16972 O 2782.51 -1.51947 8.68712 0
M  V30 16973 O 2781.97 -3.29363 6.99321 0
M  V30 16974 C 2781.03 -4.24011 6.4274 0
M  V30 16975 C 2781.76 -5.20775 5.52155 0
M  V30 16976 O 2781.97 -4.56534 4.22446 0
M  V30 16977 C 2783.16 -5.62629 5.96531 0
M  V30 16978 O 2783.55 -6.87667 5.41053 0
M  V30 16979 C 2784.04 -4.52537 5.39283 0
M  V30 16980 C 2783.33 -4.20027 4.08623 0
M  V30 16981 N 2783.38 -2.76189 3.71603 0
M  V30 16982 H 2780.54 -4.797 7.24003 0
M  V30 16983 H 2780.27 -3.69856 5.84513 0
M  V30 16984 H 2781.14 -6.10356 5.41441 0
M  V30 16985 P 2785.1 -7.20834 5.23717 0
M  V30 16986 O 2785.32 -8.66274 5.38678 0
M  V30 16987 O 2785.89 -6.33687 6.13629 0
M  V30 16988 O 2785.35 -6.7751 3.72168 0
M  V30 16989 C 2784.41 -7.20919 2.70795 0
M  V30 16990 C 2785.14 -7.45864 1.40599 0
M  V30 16991 O 2785.35 -6.17751 0.734343 0
M  V30 16992 C 2786.54 -8.05906 1.51917 0
M  V30 16993 O 2786.93 -8.74358 0.335205 0
M  V30 16994 C 2787.42 -6.83093 1.70294 0
M  V30 16995 C 2786.71 -5.79992 0.836974 0
M  V30 16996 N 2786.76 -4.41864 1.38293 0
M  V30 16997 H 2783.93 -8.13738 3.03804 0
M  V30 16998 H 2783.65 -6.42974 2.55559 0
M  V30 16999 H 2784.52 -8.12139 0.792866 0
M  V30 17000 H 2787.18 -5.80178 -0.160643 0
M  V30 17001 H 2787.46 -6.51379 2.75643 0
M  V30 17002 H 2788.45 -7.01832 1.3448 0
M  V30 17003 H 2786.61 -8.73771 2.38364 0
M  V30 17004 P 2788.48 -8.91 8.16908e-11 0
M  V30 17005 O 2788.7 -10.1726 -0.733694 0
M  V30 17006 O 2789.27 -8.73148 1.23936 0
M  V30 17007 O 2788.73 -7.66872 -0.971405 0
M  V30 17008 C 2787.79 -7.42309 -2.04641 0
M  V30 17009 C 2788.52 -6.86059 -3.24661 0
M  V30 17010 O 2788.73 -5.42847 -3.03646 0
M  V30 17011 C 2789.92 -7.41196 -3.50753 0
M  V30 17012 O 2790.31 -7.27073 -4.86816 0
M  V30 17013 C 2790.8 -6.5273 -2.63741 0
M  V30 17014 C 2790.09 -5.1842 -2.73198 0
M  V30 17015 N 2790.14 -4.38762 -1.4784 0
M  V30 17016 C 2790.06 -4.81605 -0.168631 0
M  V30 17017 N 2790.14 -3.85454 0.713363 0
M  V30 17018 C 2790.28 -2.6994 -0.0566958 0
M  V30 17019 C 2790.41 -1.34815 0.338502 0
M  V30 17020 O 2790.43 -0.869548 1.47125 0
M  V30 17021 N 2790.53 -0.496304 -0.77465 0
M  V30 17022 C 2790.53 -0.908403 -2.09122 0
M  V30 17023 N 2790.66 0.0517805 -3.00955 0
M  V30 17024 N 2790.4 -2.17875 -2.46519 0
M  V30 17025 C 2790.28 -3.01988 -1.4033 0
M  V30 17026 H 2787.3 -8.36803 -2.32493 0
M  V30 17027 H 2787.03 -6.70197 -1.71129 0
M  V30 17028 H 2787.9 -7.03551 -4.13168 0
M  V30 17029 H 2790.56 -4.59498 -3.54415 0
M  V30 17030 H 2790.84 -6.88898 -1.59848 0
M  V30 17031 H 2791.83 -6.46749 -3.03687 0
M  V30 17032 H 2789.99 -8.46908 -3.20714 0
M  V30 17033 H 2789.94 -5.86405 0.105564 0
M  V30 17034 H 2790.63 0.483664 -0.597855 0
M  V30 17035 H 2790.66 -0.187865 -4.0116 0
M  V30 17036 H 2790.76 1.03585 -2.71726 0
M  V30 17037 P 2791.86 -7.20834 -5.23717 0
M  V30 17038 O 2792.08 -7.79853 -6.57286 0
M  V30 17039 O 2792.65 -7.79239 -4.12957 0
M  V30 17040 O 2792.11 -5.63315 -5.29344 0
M  V30 17041 C 2791.17 -4.80255 -6.01876 0
M  V30 17042 C 2791.9 -3.64202 -6.65911 0
M  V30 17043 O 2792.11 -2.60694 -5.64732 0
M  V30 17044 C 2793.3 -3.93473 -7.1943 0
M  V30 17045 O 2793.69 -3.02071 -8.21205 0
M  V30 17046 C 2794.18 -3.73047 -5.97036 0
M  V30 17047 C 2793.47 -2.58828 -5.25741 0
M  V30 17048 N 2793.52 -2.68068 -3.77503 0
M  V30 17049 H 2790.68 -5.40332 -6.79951 0
M  V30 17050 H 2790.41 -4.41613 -5.32378 0
M  V30 17051 H 2791.28 -3.26331 -7.47797 0
M  V30 17052 P 2795.24 -2.75334 -8.47391 0
M  V30 17053 O 2795.46 -2.44571 -9.90142 0
M  V30 17054 O 2796.03 -3.87688 -7.92115 0
M  V30 17055 O 2795.49 -1.4459 -7.59357 0
M  V30 17056 C 2794.55 -0.347608 -7.69215 0
M  V30 17057 C 2795.28 0.96767 -7.52806 0
M  V30 17058 O 2795.49 1.21036 -6.1011 0
M  V30 17059 C 2796.68 1.04544 -8.13308 0
M  V30 17060 O 2797.07 2.38311 -8.41922 0
M  V30 17061 C 2797.56 0.491279 -7.02284 0
M  V30 17062 C 2796.85 0.996264 -5.77469 0
M  V30 17063 N 2796.9 0.0501916 -4.62973 0
M  V30 17064 H 2794.06 -0.374722 -8.67691 0
M  V30 17065 H 2793.79 -0.443485 -6.90277 0
M  V30 17066 H 2794.66 1.75537 -7.96793 0
M  V30 17067 P 2798.62 2.75334 -8.47391 0
M  V30 17068 O 2798.84 3.84128 -9.44797 0
M  V30 17069 O 2799.41 1.51947 -8.68712 0
M  V30 17070 O 2798.87 3.29363 -6.99321 0
M  V30 17071 C 2797.93 4.24011 -6.4274 0
M  V30 17072 C 2798.66 5.20775 -5.52155 0
M  V30 17073 O 2798.87 4.56534 -4.22446 0
M  V30 17074 C 2800.06 5.62629 -5.96531 0
M  V30 17075 O 2800.45 6.87667 -5.41053 0
M  V30 17076 C 2800.94 4.52537 -5.39283 0
M  V30 17077 C 2800.23 4.20027 -4.08623 0
M  V30 17078 N 2800.28 2.76189 -3.71603 0
M  V30 17079 H 2797.44 4.797 -7.24003 0
M  V30 17080 H 2797.17 3.69856 -5.84513 0
M  V30 17081 H 2798.04 6.10356 -5.41441 0
M  V30 17082 P 2802 7.20834 -5.23717 0
M  V30 17083 O 2802.22 8.66189 -5.38625 0
M  V30 17084 O 2802.79 6.33615 -6.1356 0
M  V30 17085 O 2802.25 6.7751 -3.72168 0
M  V30 17086 C 2801.31 7.20825 -2.7076 0
M  V30 17087 C 2802.04 7.45864 -1.40599 0
M  V30 17088 O 2802.25 6.17651 -0.734225 0
M  V30 17089 C 2803.44 8.05808 -1.51899 0
M  V30 17090 O 2803.83 8.74358 -0.335205 0
M  V30 17091 C 2804.32 6.83093 -1.70294 0
M  V30 17092 C 2803.61 5.79992 -0.836974 0
M  V30 17093 N 2803.66 4.41769 -1.38263 0
M  V30 17094 C 2803.81 3.36514 -0.485617 0
M  V30 17095 O 2803.9 3.61814 0.724703 0
M  V30 17096 N 2803.86 2.00746 -1.14492 0
M  V30 17097 C 2803.76 1.85887 -2.27776 0
M  V30 17098 N 2803.81 0.600907 -2.69379 0
M  V30 17099 C 2803.61 2.92182 -3.22265 0
M  V30 17100 C 2803.56 4.18399 -2.71925 0
M  V30 17101 H 2800.82 8.1355 -3.03735 0
M  V30 17102 H 2800.55 6.42695 -2.55448 0
M  V30 17103 H 2801.42 8.12139 -0.792866 0
M  V30 17104 H 2804.08 5.80078 0.160615 0
M  V30 17105 H 2804.36 6.51379 -2.75643 0
M  V30 17106 H 2805.35 7.01734 -1.34462 0
M  V30 17107 H 2803.51 8.73674 -2.38337 0
M  V30 17108 H 2803.44 5.02669 -3.39718 0
M  V30 17109 H 2803.54 2.73001 -4.29239 0
M  V30 17110 H 2803.93 -0.162318 -2.01146 0
M  V30 17111 H 2803.73 0.387742 -3.69773 0
M  V30 17112 P 2805.38 8.91 -8.27998e-11 0
M  V30 17113 O 2805.6 10.1726 0.733694 0
M  V30 17114 O 2806.17 8.73148 -1.23936 0
M  V30 17115 O 2805.63 7.66872 0.971405 0
M  V30 17116 C 2804.69 7.42309 2.04641 0
M  V30 17117 C 2805.42 6.86059 3.24661 0
M  V30 17118 O 2805.63 5.42847 3.03646 0
M  V30 17119 C 2806.82 7.41196 3.50753 0
M  V30 17120 O 2807.21 7.27073 4.86816 0
M  V30 17121 C 2807.7 6.5273 2.63741 0
M  V30 17122 C 2806.99 5.1842 2.73198 0
M  V30 17123 N 2807.04 4.38762 1.4784 0
M  V30 17124 H 2804.2 8.36803 2.32493 0
M  V30 17125 H 2803.93 6.70197 1.71129 0
M  V30 17126 H 2804.8 7.03551 4.13168 0
M  V30 17127 P 2808.76 7.20834 5.23717 0
M  V30 17128 O 2808.98 7.80006 6.57415 0
M  V30 17129 O 2809.55 7.79416 4.13051 0
M  V30 17130 O 2809.01 5.63315 5.29344 0
M  V30 17131 C 2808.07 4.80318 6.01954 0
M  V30 17132 C 2808.8 3.64202 6.65911 0
M  V30 17133 O 2809.01 2.60736 5.64823 0
M  V30 17134 C 2810.2 3.93521 7.19518 0
M  V30 17135 O 2810.59 3.02071 8.21205 0
M  V30 17136 C 2811.08 3.73047 5.97036 0
M  V30 17137 C 2810.37 2.58828 5.25741 0
M  V30 17138 N 2810.42 2.68068 3.77503 0
M  V30 17139 H 2807.59 5.40394 6.8003 0
M  V30 17140 H 2807.31 4.41741 5.32532 0
M  V30 17141 H 2808.18 3.26371 7.47889 0
M  V30 17142 H 2810.84 1.64007 5.56746 0
M  V30 17143 H 2811.12 4.63439 5.3432 0
M  V30 17144 H 2812.11 3.44776 6.25925 0
M  V30 17145 H 2810.27 4.96707 7.57347 0
M  V30 17146 P 2812.14 2.75334 8.47391 0
M  V30 17147 O 2812.36 2.44571 9.90142 0
M  V30 17148 O 2812.93 3.87688 7.92115 0
M  V30 17149 O 2812.39 1.4459 7.59357 0
M  V30 17150 C 2811.45 0.347608 7.69215 0
M  V30 17151 C 2812.18 -0.96767 7.52806 0
M  V30 17152 O 2812.39 -1.21036 6.1011 0
M  V30 17153 C 2813.58 -1.04544 8.13308 0
M  V30 17154 O 2813.97 -2.38311 8.41922 0
M  V30 17155 C 2814.46 -0.491279 7.02284 0
M  V30 17156 C 2813.75 -0.996264 5.77469 0
M  V30 17157 N 2813.8 -0.0501916 4.62973 0
M  V30 17158 H 2810.96 0.374722 8.67691 0
M  V30 17159 H 2810.69 0.443485 6.90277 0
M  V30 17160 H 2811.56 -1.75537 7.96793 0
M  V30 17161 P 2815.52 -2.75334 8.47391 0
M  V30 17162 O 2815.74 -3.84204 9.44982 0
M  V30 17163 O 2816.31 -1.51982 8.68909 0
M  V30 17164 O 2815.77 -3.29363 6.99321 0
M  V30 17165 C 2814.83 -4.24066 6.42823 0
M  V30 17166 C 2815.56 -5.20775 5.52155 0
M  V30 17167 O 2815.77 -4.56607 4.22514 0
M  V30 17168 C 2816.96 -5.62697 5.96604 0
M  V30 17169 O 2817.35 -6.87667 5.41053 0
M  V30 17170 C 2817.84 -4.52537 5.39283 0
M  V30 17171 C 2817.13 -4.20027 4.08623 0
M  V30 17172 N 2817.18 -2.76189 3.71603 0
M  V30 17173 C 2817.1 -1.66944 4.54297 0
M  V30 17174 N 2817.17 -0.536169 3.91344 0
M  V30 17175 C 2817.32 -0.901569 2.58849 0
M  V30 17176 C 2817.45 -0.146599 1.40236 0
M  V30 17177 N 2817.46 1.18234 1.37046 0
M  V30 17178 N 2817.57 -0.822941 0.249738 0
M  V30 17179 C 2817.56 -2.15179 0.280525 0
M  V30 17180 N 2817.44 -2.96414 1.30822 0
M  V30 17181 C 2817.32 -2.25804 2.44748 0
M  V30 17182 H 2814.35 -4.79756 7.24086 0
M  V30 17183 H 2814.07 -3.69963 5.84682 0
M  V30 17184 H 2814.94 -6.10431 5.41508 0
M  V30 17185 H 2817.6 -4.78816 3.28024 0
M  V30 17186 H 2817.88 -3.64957 6.05871 0
M  V30 17187 H 2818.87 -4.88748 5.21323 0
M  V30 17188 H 2817.03 -5.66789 7.0643 0
M  V30 17189 H 2816.99 -1.74684 5.62396 0
M  V30 17190 H 2817.37 1.71949 2.24394 0
M  V30 17191 H 2817.56 1.67511 0.470742 0
M  V30 17192 H 2817.67 -2.63704 -0.6828 0
M  V30 17193 P 2818.9 -7.20834 5.23717 0
M  V30 17194 O 2819.12 -8.66274 5.38678 0
M  V30 17195 O 2819.69 -6.33687 6.13629 0
M  V30 17196 O 2819.15 -6.7751 3.72168 0
M  V30 17197 C 2818.21 -7.20919 2.70795 0
M  V30 17198 C 2818.94 -7.45864 1.40599 0
M  V30 17199 O 2819.15 -6.17751 0.734343 0
M  V30 17200 C 2820.34 -8.05906 1.51917 0
M  V30 17201 O 2820.73 -8.74358 0.335205 0
M  V30 17202 C 2821.22 -6.83093 1.70294 0
M  V30 17203 C 2820.51 -5.79992 0.836974 0
M  V30 17204 N 2820.56 -4.41864 1.38293 0
M  V30 17205 C 2820.48 -4.02089 2.69407 0
M  V30 17206 N 2820.55 -2.73403 2.85089 0
M  V30 17207 C 2820.7 -2.25086 1.5642 0
M  V30 17208 C 2820.83 -0.942887 1.04836 0
M  V30 17209 N 2820.84 0.150999 1.80369 0
M  V30 17210 N 2820.95 -0.812565 -0.28167 0
M  V30 17211 C 2820.94 -1.90572 -1.03784 0
M  V30 17212 N 2820.82 -3.167 -0.683905 0
M  V30 17213 C 2820.7 -3.26538 0.652815 0
M  V30 17214 H 2817.73 -8.13738 3.03804 0
M  V30 17215 H 2817.45 -6.42974 2.55559 0
M  V30 17216 H 2818.32 -8.12139 0.792866 0
M  V30 17217 H 2820.98 -5.80178 -0.160643 0
M  V30 17218 H 2821.26 -6.51379 2.75643 0
M  V30 17219 H 2822.25 -7.01832 1.3448 0
M  V30 17220 H 2820.41 -8.73771 2.38364 0
M  V30 17221 H 2820.37 -4.7189 3.52311 0
M  V30 17222 H 2820.75 0.0721434 2.82608 0
M  V30 17223 H 2820.94 1.0785 1.36544 0
M  V30 17224 H 2821.05 -1.73207 -2.10241 0
M  V30 17225 P 2822.28 -8.91 8.39088e-11 0
M  V30 17226 O 2822.5 -10.1736 -0.733766 0
M  V30 17227 O 2823.07 -8.73247 1.2395 0
M  V30 17228 O 2822.53 -7.66872 -0.971405 0
M  V30 17229 C 2821.59 -7.42212 -2.04614 0
M  V30 17230 C 2822.32 -6.86059 -3.24661 0
M  V30 17231 O 2822.53 -5.42847 -3.03646 0
M  V30 17232 C 2823.72 -7.41196 -3.50753 0
M  V30 17233 O 2824.11 -7.27073 -4.86816 0
M  V30 17234 C 2824.6 -6.5273 -2.63741 0
M  V30 17235 C 2823.89 -5.1842 -2.73198 0
M  V30 17236 N 2823.94 -4.38668 -1.47808 0
M  V30 17237 C 2824.09 -3.02239 -1.60048 0
M  V30 17238 O 2824.18 -2.46459 -2.67869 0
M  V30 17239 N 2824.13 -2.32436 -0.408571 0
M  V30 17240 C 2824.04 -2.85471 0.854993 0
M  V30 17241 O 2824.09 -2.12566 1.8531 0
M  V30 17242 C 2823.89 -4.28918 0.887335 0
M  V30 17243 C 2823.78 -4.91066 2.24619 0
M  V30 17244 C 2823.84 -5.00349 -0.255399 0
M  V30 17245 H 2821.1 -8.36803 -2.32493 0
M  V30 17246 H 2820.83 -6.701 -1.71105 0
M  V30 17247 H 2821.7 -7.03551 -4.13168 0
M  V30 17248 H 2824.36 -4.59773 -3.53894 0
M  V30 17249 H 2824.64 -6.88995 -1.59871 0
M  V30 17250 H 2825.63 -6.46749 -3.03687 0
M  V30 17251 H 2823.79 -8.46908 -3.20714 0
M  V30 17252 H 2823.72 -6.08548 -0.206986 0
M  V30 17253 H 2824.75 -5.34836 2.53099 0
M  V30 17254 H 2823.02 -5.69638 2.2291 0
M  V30 17255 H 2823.5 -4.13971 2.98044 0
M  V30 17256 H 2824.24 -1.33211 -0.474216 0
M  V30 17257 P 2825.66 -7.20834 -5.23717 0
M  V30 17258 O 2825.88 -7.79853 -6.57286 0
M  V30 17259 O 2826.45 -7.79239 -4.12957 0
M  V30 17260 O 2825.91 -5.63315 -5.29344 0
M  V30 17261 C 2824.97 -4.80255 -6.01876 0
M  V30 17262 C 2825.7 -3.64202 -6.65911 0
M  V30 17263 O 2825.91 -2.60694 -5.64732 0
M  V30 17264 C 2827.1 -3.93473 -7.1943 0
M  V30 17265 O 2827.49 -3.02071 -8.21205 0
M  V30 17266 C 2827.98 -3.73047 -5.97036 0
M  V30 17267 C 2827.27 -2.58828 -5.25741 0
M  V30 17268 N 2827.32 -2.68068 -3.77503 0
M  V30 17269 H 2824.48 -5.40332 -6.79951 0
M  V30 17270 H 2824.21 -4.41613 -5.32378 0
M  V30 17271 H 2825.08 -3.26331 -7.47797 0
M  V30 17272 P 2829.04 -2.75334 -8.47391 0
M  V30 17273 O 2829.26 -2.44595 -9.90239 0
M  V30 17274 O 2829.83 -3.87732 -7.92204 0
M  V30 17275 O 2829.29 -1.4459 -7.59357 0
M  V30 17276 C 2828.35 -0.347563 -7.69115 0
M  V30 17277 C 2829.08 0.96767 -7.52806 0
M  V30 17278 O 2829.29 1.21036 -6.1011 0
M  V30 17279 C 2830.48 1.04544 -8.13308 0
M  V30 17280 O 2830.87 2.38311 -8.41922 0
M  V30 17281 C 2831.36 0.491279 -7.02284 0
M  V30 17282 C 2830.65 0.996264 -5.77469 0
M  V30 17283 N 2830.7 0.0501808 -4.62873 0
M  V30 17284 C 2830.85 0.588177 -3.36904 0
M  V30 17285 O 2830.94 1.78598 -3.17173 0
M  V30 17286 N 2830.89 -0.329694 -2.33686 0
M  V30 17287 C 2830.8 -1.6953 -2.45079 0
M  V30 17288 O 2830.85 -2.41926 -1.44899 0
M  V30 17289 C 2830.65 -2.16933 -3.80505 0
M  V30 17290 C 2830.54 -3.65373 -3.97621 0
M  V30 17291 C 2830.6 -1.30326 -4.83752 0
M  V30 17292 H 2827.86 -0.374722 -8.67691 0
M  V30 17293 H 2827.59 -0.443421 -6.90177 0
M  V30 17294 H 2828.46 1.75537 -7.96793 0
M  V30 17295 H 2831.12 1.94496 -5.46629 0
M  V30 17296 H 2831.4 -0.608651 -7.04676 0
M  V30 17297 H 2832.39 0.889672 -7.08939 0
M  V30 17298 H 2830.55 0.43308 -9.04564 0
M  V30 17299 H 2830.48 -1.68366 -5.8516 0
M  V30 17300 H 2831.51 -4.05985 -4.30448 0
M  V30 17301 H 2829.78 -3.88028 -4.72875 0
M  V30 17302 H 2830.26 -4.11381 -3.01609 0
M  V30 17303 H 2831 0.0393617 -1.41345 0
M  V30 17304 P 2832.42 2.75334 -8.47391 0
M  V30 17305 O 2832.64 3.84166 -9.4489 0
M  V30 17306 O 2833.21 1.51964 -8.6881 0
M  V30 17307 O 2832.67 3.29363 -6.99321 0
M  V30 17308 C 2831.73 4.23956 -6.42656 0
M  V30 17309 C 2832.46 5.20775 -5.52155 0
M  V30 17310 O 2832.67 4.56534 -4.22446 0
M  V30 17311 C 2833.86 5.62629 -5.96531 0
M  V30 17312 O 2834.25 6.87667 -5.41053 0
M  V30 17313 C 2834.74 4.52537 -5.39283 0
M  V30 17314 C 2834.03 4.20027 -4.08623 0
M  V30 17315 N 2834.08 2.7613 -3.71522 0
M  V30 17316 C 2834.23 2.45612 -2.37989 0
M  V30 17317 O 2834.32 3.30919 -1.51621 0
M  V30 17318 N 2834.27 1.10684 -2.08435 0
M  V30 17319 C 2834.18 0.0690084 -2.9792 0
M  V30 17320 O 2834.23 -1.10553 -2.59426 0
M  V30 17321 C 2834.03 0.481522 -4.35345 0
M  V30 17322 C 2833.92 -0.618778 -5.36443 0
M  V30 17323 C 2833.98 1.78906 -4.67968 0
M  V30 17324 H 2831.24 4.797 -7.24003 0
M  V30 17325 H 2830.97 3.69802 -5.84429 0
M  V30 17326 H 2831.84 6.10356 -5.41441 0
M  V30 17327 H 2834.5 4.78651 -3.27911 0
M  V30 17328 H 2834.78 3.64957 -6.05871 0
M  V30 17329 H 2835.77 4.8868 -5.2125 0
M  V30 17330 H 2833.93 5.66726 -7.06352 0
M  V30 17331 H 2833.86 2.07737 -5.72367 0
M  V30 17332 H 2834.89 -0.754375 -5.86871 0
M  V30 17333 H 2833.16 -0.359721 -6.10641 0
M  V30 17334 H 2833.64 -1.55533 -4.8581 0
M  V30 17335 H 2834.38 0.862651 -1.12037 0
M  V30 17336 P 2835.8 7.20834 -5.23717 0
M  V30 17337 O 2836.02 8.66104 -5.38572 0
M  V30 17338 O 2836.59 6.33544 -6.1349 0
M  V30 17339 O 2836.05 6.7751 -3.72168 0
M  V30 17340 C 2835.11 7.20825 -2.7076 0
M  V30 17341 C 2835.84 7.45864 -1.40599 0
M  V30 17342 O 2836.05 6.17651 -0.734225 0
M  V30 17343 C 2837.24 8.05808 -1.51899 0
M  V30 17344 O 2837.63 8.74358 -0.335205 0
M  V30 17345 C 2838.12 6.83093 -1.70294 0
M  V30 17346 C 2837.41 5.79992 -0.836974 0
M  V30 17347 N 2837.46 4.41864 -1.38293 0
M  V30 17348 H 2834.62 8.13644 -3.0377 0
M  V30 17349 H 2834.35 6.42788 -2.55485 0
M  V30 17350 H 2835.22 8.12039 -0.792769 0
M  V30 17351 P 2839.18 8.91 -8.50179e-11 0
M  V30 17352 O 2839.4 10.1726 0.733694 0
M  V30 17353 O 2839.97 8.73148 -1.23936 0
M  V30 17354 O 2839.43 7.66872 0.971405 0
M  V30 17355 C 2838.49 7.42309 2.04641 0
M  V30 17356 C 2839.22 6.86059 3.24661 0
M  V30 17357 O 2839.43 5.42847 3.03646 0
M  V30 17358 C 2840.62 7.41196 3.50753 0
M  V30 17359 O 2841.01 7.27073 4.86816 0
M  V30 17360 C 2841.5 6.5273 2.63741 0
M  V30 17361 C 2840.79 5.1842 2.73198 0
M  V30 17362 N 2840.84 4.38762 1.4784 0
M  V30 17363 C 2840.76 4.81605 0.168631 0
M  V30 17364 N 2840.84 3.85454 -0.713363 0
M  V30 17365 C 2840.98 2.6994 0.0566958 0
M  V30 17366 C 2841.11 1.34815 -0.338502 0
M  V30 17367 O 2841.13 0.869548 -1.47125 0
M  V30 17368 N 2841.23 0.496304 0.77465 0
M  V30 17369 C 2841.23 0.908403 2.09122 0
M  V30 17370 N 2841.36 -0.0517805 3.00955 0
M  V30 17371 N 2841.1 2.17875 2.46519 0
M  V30 17372 C 2840.98 3.01988 1.4033 0
M  V30 17373 H 2838 8.36803 2.32493 0
M  V30 17374 H 2837.73 6.70197 1.71129 0
M  V30 17375 H 2838.6 7.03551 4.13168 0
M  V30 17376 H 2841.26 4.59498 3.54415 0
M  V30 17377 H 2841.54 6.88898 1.59848 0
M  V30 17378 H 2842.53 6.46749 3.03687 0
M  V30 17379 H 2840.69 8.46908 3.20714 0
M  V30 17380 H 2840.64 5.86405 -0.105564 0
M  V30 17381 H 2841.33 -0.483664 0.597855 0
M  V30 17382 H 2841.36 0.187865 4.0116 0
M  V30 17383 H 2841.46 -1.03585 2.71726 0
M  V30 17384 P 2842.56 7.20834 5.23717 0
M  V30 17385 O 2842.78 7.79853 6.57286 0
M  V30 17386 O 2843.35 7.79239 4.12957 0
M  V30 17387 O 2842.81 5.63315 5.29344 0
M  V30 17388 C 2841.87 4.80255 6.01876 0
M  V30 17389 C 2842.6 3.64202 6.65911 0
M  V30 17390 O 2842.81 2.60694 5.64732 0
M  V30 17391 C 2844 3.93473 7.1943 0
M  V30 17392 O 2844.39 3.02071 8.21205 0
M  V30 17393 C 2844.88 3.73047 5.97036 0
M  V30 17394 C 2844.17 2.58828 5.25741 0
M  V30 17395 N 2844.22 2.68068 3.77503 0
M  V30 17396 C 2844.14 3.79715 2.96723 0
M  V30 17397 N 2844.22 3.5377 1.68852 0
M  V30 17398 C 2844.36 2.15054 1.63254 0
M  V30 17399 C 2844.49 1.28964 0.518571 0
M  V30 17400 N 2844.61 -0.0538097 0.918425 0
M  V30 17401 C 2844.61 -0.494275 2.22578 0
M  V30 17402 N 2844.74 -1.81086 2.40434 0
M  V30 17403 N 2844.48 0.313645 3.27502 0
M  V30 17404 C 2844.36 1.61829 2.91033 0
M  V30 17405 H 2841.38 5.40332 6.79951 0
M  V30 17406 H 2841.11 4.41613 5.32378 0
M  V30 17407 H 2841.98 3.26331 7.47797 0
M  V30 17408 P 2845.94 2.75334 8.47391 0
M  V30 17409 O 2846.16 2.44571 9.90142 0
M  V30 17410 O 2846.73 3.87688 7.92115 0
M  V30 17411 O 2846.19 1.4459 7.59357 0
M  V30 17412 C 2845.25 0.347608 7.69215 0
M  V30 17413 C 2845.98 -0.96767 7.52806 0
M  V30 17414 O 2846.19 -1.21036 6.1011 0
M  V30 17415 C 2847.38 -1.04544 8.13308 0
M  V30 17416 O 2847.77 -2.38311 8.41922 0
M  V30 17417 C 2848.26 -0.491279 7.02284 0
M  V30 17418 C 2847.55 -0.996264 5.77469 0
M  V30 17419 N 2847.6 -0.0501916 4.62973 0
M  V30 17420 H 2844.76 0.374722 8.67691 0
M  V30 17421 H 2844.49 0.443485 6.90277 0
M  V30 17422 H 2845.36 -1.75537 7.96793 0
M  V30 17423 P 2849.32 -2.75334 8.47391 0
M  V30 17424 O 2849.54 -3.84204 9.44982 0
M  V30 17425 O 2850.11 -1.51982 8.68909 0
M  V30 17426 O 2849.57 -3.29363 6.99321 0
M  V30 17427 C 2848.63 -4.24066 6.42823 0
M  V30 17428 C 2849.36 -5.20775 5.52155 0
M  V30 17429 O 2849.57 -4.56607 4.22514 0
M  V30 17430 C 2850.76 -5.62697 5.96604 0
M  V30 17431 O 2851.15 -6.87667 5.41053 0
M  V30 17432 C 2851.64 -4.52537 5.39283 0
M  V30 17433 C 2850.93 -4.20027 4.08623 0
M  V30 17434 N 2850.98 -2.76189 3.71603 0
M  V30 17435 H 2848.15 -4.79756 7.24086 0
M  V30 17436 H 2847.87 -3.69963 5.84682 0
M  V30 17437 H 2848.74 -6.10431 5.41508 0
M  V30 17438 H 2851.4 -4.78816 3.28024 0
M  V30 17439 H 2851.68 -3.64957 6.05871 0
M  V30 17440 H 2852.67 -4.88748 5.21323 0
M  V30 17441 H 2850.83 -5.66789 7.0643 0
M  V30 17442 P 2852.7 -7.20834 5.23717 0
M  V30 17443 O 2852.92 -8.66104 5.38572 0
M  V30 17444 O 2853.49 -6.33544 6.1349 0
M  V30 17445 O 2852.95 -6.7751 3.72168 0
M  V30 17446 C 2852.01 -7.20825 2.7076 0
M  V30 17447 C 2852.74 -7.45864 1.40599 0
M  V30 17448 O 2852.95 -6.17651 0.734225 0
M  V30 17449 C 2854.14 -8.05808 1.51899 0
M  V30 17450 O 2854.53 -8.74358 0.335205 0
M  V30 17451 C 2855.02 -6.83093 1.70294 0
M  V30 17452 C 2854.31 -5.79992 0.836974 0
M  V30 17453 N 2854.36 -4.41864 1.38293 0
M  V30 17454 H 2851.52 -8.13644 3.0377 0
M  V30 17455 H 2851.25 -6.42788 2.55485 0
M  V30 17456 H 2852.12 -8.12039 0.792769 0
M  V30 17457 P 2856.08 -8.91 8.61269e-11 0
M  V30 17458 O 2856.3 -10.1726 -0.733694 0
M  V30 17459 O 2856.87 -8.73148 1.23936 0
M  V30 17460 O 2856.33 -7.66872 -0.971405 0
M  V30 17461 C 2855.39 -7.42309 -2.04641 0
M  V30 17462 C 2856.12 -6.86059 -3.24661 0
M  V30 17463 O 2856.33 -5.42847 -3.03646 0
M  V30 17464 C 2857.52 -7.41196 -3.50753 0
M  V30 17465 O 2857.91 -7.27073 -4.86816 0
M  V30 17466 C 2858.4 -6.5273 -2.63741 0
M  V30 17467 C 2857.69 -5.1842 -2.73198 0
M  V30 17468 N 2857.74 -4.38762 -1.4784 0
M  V30 17469 H 2854.9 -8.36803 -2.32493 0
M  V30 17470 H 2854.63 -6.70197 -1.71129 0
M  V30 17471 H 2855.5 -7.03551 -4.13168 0
M  V30 17472 P 2859.46 -7.20834 -5.23717 0
M  V30 17473 O 2859.68 -7.80006 -6.57415 0
M  V30 17474 O 2860.25 -7.79416 -4.13051 0
M  V30 17475 O 2859.71 -5.63315 -5.29344 0
M  V30 17476 C 2858.77 -4.80318 -6.01954 0
M  V30 17477 C 2859.5 -3.64202 -6.65911 0
M  V30 17478 O 2859.71 -2.60736 -5.64823 0
M  V30 17479 C 2860.9 -3.93521 -7.19518 0
M  V30 17480 O 2861.29 -3.02071 -8.21205 0
M  V30 17481 C 2861.78 -3.73047 -5.97036 0
M  V30 17482 C 2861.07 -2.58828 -5.25741 0
M  V30 17483 N 2861.12 -2.68068 -3.77503 0
M  V30 17484 C 2861.04 -3.80474 -2.99159 0
M  V30 17485 N 2861.11 -3.55622 -1.71925 0
M  V30 17486 C 2861.26 -2.1832 -1.65733 0
M  V30 17487 C 2861.39 -1.28842 -0.572777 0
M  V30 17488 N 2861.4 -1.66875 0.70098 0
M  V30 17489 N 2861.51 0.016788 -0.859836 0
M  V30 17490 C 2861.5 0.398145 -2.13316 0
M  V30 17491 N 2861.38 -0.328224 -3.22333 0
M  V30 17492 C 2861.26 -1.62992 -2.90383 0
M  V30 17493 H 2858.29 -5.40394 -6.8003 0
M  V30 17494 H 2858.01 -4.41741 -5.32532 0
M  V30 17495 H 2858.88 -3.26371 -7.47889 0
M  V30 17496 H 2861.54 -1.64007 -5.56746 0
M  V30 17497 H 2861.82 -4.63439 -5.3432 0
M  V30 17498 H 2862.81 -3.44776 -6.25925 0
M  V30 17499 H 2860.97 -4.96707 -7.57347 0
M  V30 17500 H 2860.93 -4.8089 -3.39924 0
M  V30 17501 H 2861.31 -2.66547 0.941919 0
M  V30 17502 H 2861.5 -0.965341 1.44766 0
M  V30 17503 H 2861.61 1.46427 -2.29697 0
M  V30 17504 P 2862.84 -2.75334 -8.47391 0
M  V30 17505 O 2863.06 -2.44595 -9.90239 0
M  V30 17506 O 2863.63 -3.87732 -7.92204 0
M  V30 17507 O 2863.09 -1.4459 -7.59357 0
M  V30 17508 C 2862.15 -0.347563 -7.69115 0
M  V30 17509 C 2862.88 0.96767 -7.52806 0
M  V30 17510 O 2863.09 1.21036 -6.1011 0
M  V30 17511 C 2864.28 1.04544 -8.13308 0
M  V30 17512 O 2864.67 2.38311 -8.41922 0
M  V30 17513 C 2865.16 0.491279 -7.02284 0
M  V30 17514 C 2864.45 0.996264 -5.77469 0
M  V30 17515 N 2864.5 0.0501808 -4.62873 0
M  V30 17516 C 2864.65 0.588177 -3.36904 0
M  V30 17517 O 2864.74 1.78598 -3.17173 0
M  V30 17518 N 2864.69 -0.329694 -2.33686 0
M  V30 17519 C 2864.6 -1.6953 -2.45079 0
M  V30 17520 O 2864.65 -2.41926 -1.44899 0
M  V30 17521 C 2864.45 -2.16933 -3.80505 0
M  V30 17522 C 2864.34 -3.65373 -3.97621 0
M  V30 17523 C 2864.4 -1.30326 -4.83752 0
M  V30 17524 H 2861.66 -0.374722 -8.67691 0
M  V30 17525 H 2861.39 -0.443421 -6.90177 0
M  V30 17526 H 2862.26 1.75537 -7.96793 0
M  V30 17527 H 2864.92 1.94496 -5.46629 0
M  V30 17528 H 2865.2 -0.608651 -7.04676 0
M  V30 17529 H 2866.19 0.889672 -7.08939 0
M  V30 17530 H 2864.35 0.43308 -9.04564 0
M  V30 17531 H 2864.28 -1.68366 -5.8516 0
M  V30 17532 H 2865.31 -4.05985 -4.30448 0
M  V30 17533 H 2863.58 -3.88028 -4.72875 0
M  V30 17534 H 2864.06 -4.11381 -3.01609 0
M  V30 17535 H 2864.8 0.0393617 -1.41345 0
M  V30 17536 P 2866.22 2.75334 -8.47391 0
M  V30 17537 O 2866.44 3.84128 -9.44797 0
M  V30 17538 O 2867.01 1.51947 -8.68712 0
M  V30 17539 O 2866.47 3.29363 -6.99321 0
M  V30 17540 C 2865.53 4.24011 -6.4274 0
M  V30 17541 C 2866.26 5.20775 -5.52155 0
M  V30 17542 O 2866.47 4.56534 -4.22446 0
M  V30 17543 C 2867.66 5.62629 -5.96531 0
M  V30 17544 O 2868.05 6.87667 -5.41053 0
M  V30 17545 C 2868.54 4.52537 -5.39283 0
M  V30 17546 C 2867.83 4.20027 -4.08623 0
M  V30 17547 N 2867.88 2.76189 -3.71603 0
M  V30 17548 C 2867.8 1.64862 -4.52822 0
M  V30 17549 N 2867.88 0.512671 -3.88633 0
M  V30 17550 C 2868.02 0.888083 -2.54977 0
M  V30 17551 C 2868.15 0.094668 -1.38677 0
M  V30 17552 N 2868.27 0.890102 -0.232633 0
M  V30 17553 C 2868.27 2.26958 -0.21772 0
M  V30 17554 N 2868.4 2.84626 0.97925 0
M  V30 17555 N 2868.14 3.0178 -1.31033 0
M  V30 17556 C 2868.02 2.26781 -2.43843 0
M  V30 17557 H 2865.04 4.797 -7.24003 0
M  V30 17558 H 2864.77 3.69856 -5.84513 0
M  V30 17559 H 2865.64 6.10356 -5.41441 0
M  V30 17560 P 2869.6 7.20834 -5.23717 0
M  V30 17561 O 2869.82 8.66104 -5.38572 0
M  V30 17562 O 2870.39 6.33544 -6.1349 0
M  V30 17563 O 2869.85 6.7751 -3.72168 0
M  V30 17564 C 2868.91 7.20825 -2.7076 0
M  V30 17565 C 2869.64 7.45864 -1.40599 0
M  V30 17566 O 2869.85 6.17651 -0.734225 0
M  V30 17567 C 2871.04 8.05808 -1.51899 0
M  V30 17568 O 2871.43 8.74358 -0.335205 0
M  V30 17569 C 2871.92 6.83093 -1.70294 0
M  V30 17570 C 2871.21 5.79992 -0.836974 0
M  V30 17571 N 2871.26 4.41864 -1.38293 0
M  V30 17572 H 2868.42 8.13644 -3.0377 0
M  V30 17573 H 2868.15 6.42788 -2.55485 0
M  V30 17574 H 2869.02 8.12039 -0.792769 0
M  V30 17575 P 2872.98 8.91 -8.72359e-11 0
M  V30 17576 O 2873.2 10.1736 0.733766 0
M  V30 17577 O 2873.77 8.73247 -1.2395 0
M  V30 17578 O 2873.23 7.66872 0.971405 0
M  V30 17579 C 2872.29 7.42212 2.04614 0
M  V30 17580 C 2873.02 6.86059 3.24661 0
M  V30 17581 O 2873.23 5.42847 3.03646 0
M  V30 17582 C 2874.42 7.41196 3.50753 0
M  V30 17583 O 2874.81 7.27073 4.86816 0
M  V30 17584 C 2875.3 6.5273 2.63741 0
M  V30 17585 C 2874.59 5.1842 2.73198 0
M  V30 17586 N 2874.64 4.38668 1.47808 0
M  V30 17587 C 2874.79 3.02239 1.60048 0
M  V30 17588 O 2874.88 2.46459 2.67869 0
M  V30 17589 N 2874.83 2.32436 0.408571 0
M  V30 17590 C 2874.74 2.85471 -0.854993 0
M  V30 17591 C 2874.59 4.28918 -0.887335 0
M  V30 17592 C 2874.54 5.00349 0.255399 0
M  V30 17593 H 2871.8 8.36803 2.32493 0
M  V30 17594 H 2871.53 6.701 1.71105 0
M  V30 17595 H 2872.4 7.03551 4.13168 0
M  V30 17596 H 2875.06 4.59773 3.53894 0
M  V30 17597 H 2875.34 6.88995 1.59871 0
M  V30 17598 H 2876.33 6.46749 3.03687 0
M  V30 17599 H 2874.49 8.46908 3.20714 0
M  V30 17600 H 2874.42 6.08548 0.206986 0
M  V30 17601 P 2876.36 7.20834 5.23717 0
M  V30 17602 O 2876.58 7.79853 6.57286 0
M  V30 17603 O 2877.15 7.79239 4.12957 0
M  V30 17604 O 2876.61 5.63315 5.29344 0
M  V30 17605 C 2875.67 4.80255 6.01876 0
M  V30 17606 C 2876.4 3.64202 6.65911 0
M  V30 17607 O 2876.61 2.60694 5.64732 0
M  V30 17608 C 2877.8 3.93473 7.1943 0
M  V30 17609 O 2878.19 3.02071 8.21205 0
M  V30 17610 C 2878.68 3.73047 5.97036 0
M  V30 17611 C 2877.97 2.58828 5.25741 0
M  V30 17612 N 2878.02 2.68068 3.77503 0
M  V30 17613 H 2875.18 5.40332 6.79951 0
M  V30 17614 H 2874.91 4.41613 5.32378 0
M  V30 17615 H 2875.78 3.26331 7.47797 0
M  V30 17616 P 2879.74 2.75334 8.47391 0
M  V30 17617 O 2879.96 2.44619 9.90336 0
M  V30 17618 O 2880.53 3.87776 7.92294 0
M  V30 17619 O 2879.99 1.4459 7.59357 0
M  V30 17620 C 2879.05 0.347653 7.69315 0
M  V30 17621 C 2879.78 -0.96767 7.52806 0
M  V30 17622 O 2879.99 -1.21055 6.10208 0
M  V30 17623 C 2881.18 -1.04557 8.13408 0
M  V30 17624 O 2881.57 -2.38311 8.41922 0
M  V30 17625 C 2882.06 -0.491279 7.02284 0
M  V30 17626 C 2881.35 -0.996264 5.77469 0
M  V30 17627 N 2881.4 -0.0501916 4.62973 0
M  V30 17628 H 2878.56 0.374765 8.67791 0
M  V30 17629 H 2878.29 0.443613 6.90476 0
M  V30 17630 H 2879.16 -1.75559 7.96891 0
M  V30 17631 H 2881.82 -1.94563 5.46818 0
M  V30 17632 H 2882.1 0.608651 7.04676 0
M  V30 17633 H 2883.09 -0.889796 7.09039 0
M  V30 17634 H 2881.25 -0.433128 9.04664 0
M  V30 17635 P 2883.12 -2.75334 8.47391 0
M  V30 17636 O 2883.34 -3.84204 9.44982 0
M  V30 17637 O 2883.91 -1.51982 8.68909 0
M  V30 17638 O 2883.37 -3.29363 6.99321 0
M  V30 17639 C 2882.43 -4.24066 6.42823 0
M  V30 17640 C 2883.16 -5.20775 5.52155 0
M  V30 17641 O 2883.37 -4.56607 4.22514 0
M  V30 17642 C 2884.56 -5.62697 5.96604 0
M  V30 17643 O 2884.95 -6.87667 5.41053 0
M  V30 17644 C 2885.44 -4.52537 5.39283 0
M  V30 17645 C 2884.73 -4.20027 4.08623 0
M  V30 17646 N 2884.78 -2.76189 3.71603 0
M  V30 17647 C 2884.7 -1.66944 4.54297 0
M  V30 17648 N 2884.77 -0.536169 3.91344 0
M  V30 17649 C 2884.92 -0.901569 2.58849 0
M  V30 17650 C 2885.05 -0.146599 1.40236 0
M  V30 17651 N 2885.06 1.18234 1.37046 0
M  V30 17652 N 2885.17 -0.822941 0.249738 0
M  V30 17653 C 2885.16 -2.15179 0.280525 0
M  V30 17654 N 2885.04 -2.96414 1.30822 0
M  V30 17655 C 2884.92 -2.25804 2.44748 0
M  V30 17656 H 2881.94 -4.79756 7.24086 0
M  V30 17657 H 2881.67 -3.69963 5.84682 0
M  V30 17658 H 2882.54 -6.10431 5.41508 0
M  V30 17659 H 2885.2 -4.78816 3.28024 0
M  V30 17660 H 2885.48 -3.64957 6.05871 0
M  V30 17661 H 2886.47 -4.88748 5.21323 0
M  V30 17662 H 2884.63 -5.66789 7.0643 0
M  V30 17663 H 2884.59 -1.74684 5.62396 0
M  V30 17664 H 2884.97 1.71949 2.24394 0
M  V30 17665 H 2885.16 1.67511 0.470742 0
M  V30 17666 H 2885.27 -2.63704 -0.6828 0
M  V30 17667 P 2886.5 -7.20834 5.23717 0
M  V30 17668 O 2886.72 -8.66104 5.38572 0
M  V30 17669 O 2887.29 -6.33544 6.1349 0
M  V30 17670 O 2886.75 -6.7751 3.72168 0
M  V30 17671 C 2885.81 -7.20825 2.7076 0
M  V30 17672 C 2886.54 -7.45864 1.40599 0
M  V30 17673 O 2886.75 -6.17651 0.734225 0
M  V30 17674 C 2887.94 -8.05808 1.51899 0
M  V30 17675 O 2888.33 -8.74358 0.335205 0
M  V30 17676 C 2888.82 -6.83093 1.70294 0
M  V30 17677 C 2888.11 -5.79992 0.836974 0
M  V30 17678 N 2888.16 -4.41864 1.38293 0
M  V30 17679 C 2888.08 -3.99538 2.69438 0
M  V30 17680 N 2888.16 -2.69909 2.84277 0
M  V30 17681 C 2888.3 -2.21719 1.5408 0
M  V30 17682 C 2888.43 -0.891712 1.06628 0
M  V30 17683 N 2888.55 -0.856846 -0.334985 0
M  V30 17684 C 2888.55 -1.9641 -1.15789 0
M  V30 17685 N 2888.68 -1.72708 -2.46522 0
M  V30 17686 N 2888.42 -3.21165 -0.713741 0
M  V30 17687 C 2888.3 -3.26797 0.639748 0
M  V30 17688 H 2885.32 -8.13644 3.0377 0
M  V30 17689 H 2885.05 -6.42788 2.55485 0
M  V30 17690 H 2885.92 -8.12039 0.792769 0
M  V30 17691 P 2889.88 -8.91 8.83449e-11 0
M  V30 17692 O 2890.1 -10.1746 -0.733838 0
M  V30 17693 O 2890.67 -8.73346 1.23964 0
M  V30 17694 O 2890.13 -7.66872 -0.971405 0
M  V30 17695 C 2889.19 -7.42405 -2.04668 0
M  V30 17696 C 2889.92 -6.86059 -3.24661 0
M  V30 17697 O 2890.13 -5.42934 -3.03695 0
M  V30 17698 C 2891.32 -7.41287 -3.50796 0
M  V30 17699 O 2891.71 -7.27073 -4.86816 0
M  V30 17700 C 2892.2 -6.5273 -2.63741 0
M  V30 17701 C 2891.49 -5.1842 -2.73198 0
M  V30 17702 N 2891.54 -4.38762 -1.4784 0
M  V30 17703 H 2888.7 -8.36899 -2.3252 0
M  V30 17704 H 2888.43 -6.70391 -1.71179 0
M  V30 17705 H 2889.3 -7.03638 -4.13219 0
M  V30 17706 H 2891.96 -4.59931 -3.54016 0
M  V30 17707 H 2892.24 -6.88995 -1.59871 0
M  V30 17708 H 2893.23 -6.4684 -3.0373 0
M  V30 17709 H 2891.39 -8.47002 -3.20749 0
M  V30 17710 P 2893.26 -7.20834 -5.23717 0
M  V30 17711 O 2893.48 -7.80006 -6.57415 0
M  V30 17712 O 2894.05 -7.79416 -4.13051 0
M  V30 17713 O 2893.51 -5.63315 -5.29344 0
M  V30 17714 C 2892.57 -4.80318 -6.01954 0
M  V30 17715 C 2893.3 -3.64202 -6.65911 0
M  V30 17716 O 2893.51 -2.60736 -5.64823 0
M  V30 17717 C 2894.7 -3.93521 -7.19518 0
M  V30 17718 O 2895.09 -3.02071 -8.21205 0
M  V30 17719 C 2895.58 -3.73047 -5.97036 0
M  V30 17720 C 2894.87 -2.58828 -5.25741 0
M  V30 17721 N 2894.92 -2.68068 -3.77503 0
M  V30 17722 C 2894.84 -3.80474 -2.99159 0
M  V30 17723 N 2894.91 -3.55622 -1.71925 0
M  V30 17724 C 2895.06 -2.1832 -1.65733 0
M  V30 17725 C 2895.19 -1.28842 -0.572777 0
M  V30 17726 N 2895.2 -1.66875 0.70098 0
M  V30 17727 N 2895.31 0.016788 -0.859836 0
M  V30 17728 C 2895.3 0.398145 -2.13316 0
M  V30 17729 N 2895.18 -0.328224 -3.22333 0
M  V30 17730 C 2895.06 -1.62992 -2.90383 0
M  V30 17731 H 2892.08 -5.40394 -6.8003 0
M  V30 17732 H 2891.81 -4.41741 -5.32532 0
M  V30 17733 H 2892.68 -3.26371 -7.47889 0
M  V30 17734 H 2895.34 -1.64007 -5.56746 0
M  V30 17735 H 2895.62 -4.63439 -5.3432 0
M  V30 17736 H 2896.61 -3.44776 -6.25925 0
M  V30 17737 H 2894.77 -4.96707 -7.57347 0
M  V30 17738 H 2894.73 -4.8089 -3.39924 0
M  V30 17739 H 2895.11 -2.66547 0.941919 0
M  V30 17740 H 2895.3 -0.965341 1.44766 0
M  V30 17741 H 2895.41 1.46427 -2.29697 0
M  V30 17742 P 2896.64 -2.75334 -8.47391 0
M  V30 17743 O 2896.86 -2.44619 -9.90336 0
M  V30 17744 O 2897.43 -3.87776 -7.92294 0
M  V30 17745 O 2896.89 -1.4459 -7.59357 0
M  V30 17746 C 2895.95 -0.347653 -7.69315 0
M  V30 17747 C 2896.68 0.96767 -7.52806 0
M  V30 17748 O 2896.89 1.21055 -6.10208 0
M  V30 17749 C 2898.08 1.04557 -8.13408 0
M  V30 17750 O 2898.47 2.38311 -8.41922 0
M  V30 17751 C 2898.96 0.491279 -7.02284 0
M  V30 17752 C 2898.25 0.996264 -5.77469 0
M  V30 17753 N 2898.3 0.0501916 -4.62973 0
M  V30 17754 C 2898.22 -1.31969 -4.65661 0
M  V30 17755 N 2898.29 -1.86649 -3.48119 0
M  V30 17756 C 2898.44 -0.792089 -2.62406 0
M  V30 17757 C 2898.57 -0.705684 -1.2207 0
M  V30 17758 N 2898.58 -1.76207 -0.413762 0
M  V30 17759 N 2898.69 0.518981 -0.685754 0
M  V30 17760 C 2898.68 1.57595 -1.49174 0
M  V30 17761 N 2898.56 1.62909 -2.80066 0
M  V30 17762 C 2898.44 0.388195 -3.3073 0
M  V30 17763 H 2895.46 -0.374765 -8.67791 0
M  V30 17764 H 2895.19 -0.443613 -6.90476 0
M  V30 17765 H 2896.06 1.75559 -7.96891 0
M  V30 17766 H 2898.72 1.94563 -5.46818 0
M  V30 17767 H 2899 -0.608651 -7.04676 0
M  V30 17768 H 2899.99 0.889796 -7.09039 0
M  V30 17769 H 2898.15 0.433128 -9.04664 0
M  V30 17770 H 2898.11 -1.89246 -5.57664 0
M  V30 17771 H 2898.49 -2.71005 -0.804694 0
M  V30 17772 H 2898.68 -1.63189 0.603768 0
M  V30 17773 H 2898.79 2.53475 -0.997614 0
M  V30 17774 P 2900.02 2.75334 -8.47391 0
M  V30 17775 O 2900.24 3.84128 -9.44797 0
M  V30 17776 O 2900.81 1.51947 -8.68712 0
M  V30 17777 O 2900.27 3.29363 -6.99321 0
M  V30 17778 C 2899.33 4.24011 -6.4274 0
M  V30 17779 C 2900.06 5.20775 -5.52155 0
M  V30 17780 O 2900.27 4.56534 -4.22446 0
M  V30 17781 C 2901.46 5.62629 -5.96531 0
M  V30 17782 O 2901.85 6.87667 -5.41053 0
M  V30 17783 C 2902.34 4.52537 -5.39283 0
M  V30 17784 C 2901.63 4.20027 -4.08623 0
M  V30 17785 N 2901.68 2.76189 -3.71603 0
M  V30 17786 H 2898.84 4.797 -7.24003 0
M  V30 17787 H 2898.57 3.69856 -5.84513 0
M  V30 17788 H 2899.44 6.10356 -5.41441 0
M  V30 17789 P 2903.4 7.20834 -5.23717 0
M  V30 17790 O 2903.62 8.66104 -5.38572 0
M  V30 17791 O 2904.19 6.33544 -6.1349 0
M  V30 17792 O 2903.65 6.7751 -3.72168 0
M  V30 17793 C 2902.71 7.20825 -2.7076 0
M  V30 17794 C 2903.44 7.45864 -1.40599 0
M  V30 17795 O 2903.65 6.17651 -0.734225 0
M  V30 17796 C 2904.84 8.05808 -1.51899 0
M  V30 17797 O 2905.23 8.74358 -0.335205 0
M  V30 17798 C 2905.72 6.83093 -1.70294 0
M  V30 17799 C 2905.01 5.79992 -0.836974 0
M  V30 17800 N 2905.06 4.41864 -1.38293 0
M  V30 17801 H 2902.22 8.13644 -3.0377 0
M  V30 17802 H 2901.95 6.42788 -2.55485 0
M  V30 17803 H 2902.82 8.12039 -0.792769 0
M  V30 17804 P 2906.78 8.91 -8.94539e-11 0
M  V30 17805 O 2907 10.1726 0.733694 0
M  V30 17806 O 2907.57 8.73148 -1.23936 0
M  V30 17807 O 2907.03 7.66872 0.971405 0
M  V30 17808 C 2906.09 7.42309 2.04641 0
M  V30 17809 C 2906.82 6.86059 3.24661 0
M  V30 17810 O 2907.03 5.42847 3.03646 0
M  V30 17811 C 2908.22 7.41196 3.50753 0
M  V30 17812 O 2908.61 7.27073 4.86816 0
M  V30 17813 C 2909.1 6.5273 2.63741 0
M  V30 17814 C 2908.39 5.1842 2.73198 0
M  V30 17815 N 2908.44 4.38762 1.4784 0
M  V30 17816 H 2905.6 8.36803 2.32493 0
M  V30 17817 H 2905.33 6.70197 1.71129 0
M  V30 17818 H 2906.2 7.03551 4.13168 0
M  V30 17819 P 2910.16 7.20834 5.23717 0
M  V30 17820 O 2910.38 7.79853 6.57286 0
M  V30 17821 O 2910.95 7.79239 4.12957 0
M  V30 17822 O 2910.41 5.63315 5.29344 0
M  V30 17823 C 2909.47 4.80255 6.01876 0
M  V30 17824 C 2910.2 3.64202 6.65911 0
M  V30 17825 O 2910.41 2.60694 5.64732 0
M  V30 17826 C 2911.6 3.93473 7.1943 0
M  V30 17827 O 2911.99 3.02071 8.21205 0
M  V30 17828 C 2912.48 3.73047 5.97036 0
M  V30 17829 C 2911.77 2.58828 5.25741 0
M  V30 17830 N 2911.82 2.68068 3.77503 0
M  V30 17831 H 2908.98 5.40332 6.79951 0
M  V30 17832 H 2908.71 4.41613 5.32378 0
M  V30 17833 H 2909.58 3.26331 7.47797 0
M  V30 17834 P 2913.54 2.75334 8.47391 0
M  V30 17835 O 2913.76 2.44571 9.90142 0
M  V30 17836 O 2914.33 3.87688 7.92115 0
M  V30 17837 O 2913.79 1.4459 7.59357 0
M  V30 17838 C 2912.85 0.347608 7.69215 0
M  V30 17839 C 2913.58 -0.96767 7.52806 0
M  V30 17840 O 2913.79 -1.21036 6.1011 0
M  V30 17841 C 2914.98 -1.04544 8.13308 0
M  V30 17842 O 2915.37 -2.38311 8.41922 0
M  V30 17843 C 2915.86 -0.491279 7.02284 0
M  V30 17844 C 2915.15 -0.996264 5.77469 0
M  V30 17845 N 2915.2 -0.0501916 4.62973 0
M  V30 17846 H 2912.36 0.374722 8.67691 0
M  V30 17847 H 2912.09 0.443485 6.90277 0
M  V30 17848 H 2912.96 -1.75537 7.96793 0
M  V30 17849 P 2916.92 -2.75334 8.47391 0
M  V30 17850 O 2917.14 -3.84204 9.44982 0
M  V30 17851 O 2917.71 -1.51982 8.68909 0
M  V30 17852 O 2917.17 -3.29363 6.99321 0
M  V30 17853 C 2916.23 -4.24066 6.42823 0
M  V30 17854 C 2916.96 -5.20775 5.52155 0
M  V30 17855 O 2917.17 -4.56607 4.22514 0
M  V30 17856 C 2918.36 -5.62697 5.96604 0
M  V30 17857 O 2918.75 -6.87667 5.41053 0
M  V30 17858 C 2919.24 -4.52537 5.39283 0
M  V30 17859 C 2918.53 -4.20027 4.08623 0
M  V30 17860 N 2918.58 -2.76189 3.71603 0
M  V30 17861 C 2918.5 -1.66944 4.54297 0
M  V30 17862 N 2918.57 -0.536169 3.91344 0
M  V30 17863 C 2918.72 -0.901569 2.58849 0
M  V30 17864 C 2918.85 -0.146599 1.40236 0
M  V30 17865 N 2918.86 1.18234 1.37046 0
M  V30 17866 N 2918.97 -0.822941 0.249738 0
M  V30 17867 C 2918.96 -2.15179 0.280525 0
M  V30 17868 N 2918.84 -2.96414 1.30822 0
M  V30 17869 C 2918.72 -2.25804 2.44748 0
M  V30 17870 H 2915.74 -4.79756 7.24086 0
M  V30 17871 H 2915.47 -3.69963 5.84682 0
M  V30 17872 H 2916.34 -6.10431 5.41508 0
M  V30 17873 H 2919 -4.78816 3.28024 0
M  V30 17874 H 2919.28 -3.64957 6.05871 0
M  V30 17875 H 2920.27 -4.88748 5.21323 0
M  V30 17876 H 2918.43 -5.66789 7.0643 0
M  V30 17877 H 2918.39 -1.74684 5.62396 0
M  V30 17878 H 2918.77 1.71949 2.24394 0
M  V30 17879 H 2918.96 1.67511 0.470742 0
M  V30 17880 H 2919.07 -2.63704 -0.6828 0
M  V30 17881 P 2920.3 -7.20834 5.23717 0
M  V30 17882 O 2920.52 -8.66104 5.38572 0
M  V30 17883 O 2921.09 -6.33544 6.1349 0
M  V30 17884 O 2920.55 -6.7751 3.72168 0
M  V30 17885 C 2919.61 -7.20825 2.7076 0
M  V30 17886 C 2920.34 -7.45864 1.40599 0
M  V30 17887 O 2920.55 -6.17651 0.734225 0
M  V30 17888 C 2921.74 -8.05808 1.51899 0
M  V30 17889 O 2922.13 -8.74358 0.335205 0
M  V30 17890 C 2922.62 -6.83093 1.70294 0
M  V30 17891 C 2921.91 -5.79992 0.836974 0
M  V30 17892 N 2921.96 -4.41864 1.38293 0
M  V30 17893 H 2919.12 -8.13644 3.0377 0
M  V30 17894 H 2918.85 -6.42788 2.55485 0
M  V30 17895 H 2919.72 -8.12039 0.792769 0
M  V30 17896 P 2923.68 -8.91 9.05629e-11 0
M  V30 17897 O 2923.9 -10.1726 -0.733694 0
M  V30 17898 O 2924.47 -8.73148 1.23936 0
M  V30 17899 O 2923.93 -7.66872 -0.971405 0
M  V30 17900 C 2922.99 -7.42309 -2.04641 0
M  V30 17901 C 2923.72 -6.86059 -3.24661 0
M  V30 17902 O 2923.93 -5.42847 -3.03646 0
M  V30 17903 C 2925.12 -7.41196 -3.50753 0
M  V30 17904 O 2925.51 -7.27073 -4.86816 0
M  V30 17905 C 2926 -6.5273 -2.63741 0
M  V30 17906 C 2925.29 -5.1842 -2.73198 0
M  V30 17907 N 2925.34 -4.38762 -1.4784 0
M  V30 17908 H 2922.5 -8.36803 -2.32493 0
M  V30 17909 H 2922.23 -6.70197 -1.71129 0
M  V30 17910 H 2923.1 -7.03551 -4.13168 0
M  V30 17911 P 2927.06 -7.20834 -5.23717 0
M  V30 17912 O 2927.28 -7.79853 -6.57286 0
M  V30 17913 O 2927.85 -7.79239 -4.12957 0
M  V30 17914 O 2927.31 -5.63315 -5.29344 0
M  V30 17915 C 2926.37 -4.80255 -6.01876 0
M  V30 17916 C 2927.1 -3.64202 -6.65911 0
M  V30 17917 O 2927.31 -2.60694 -5.64732 0
M  V30 17918 C 2928.5 -3.93473 -7.1943 0
M  V30 17919 O 2928.89 -3.02071 -8.21205 0
M  V30 17920 C 2929.38 -3.73047 -5.97036 0
M  V30 17921 C 2928.67 -2.58828 -5.25741 0
M  V30 17922 N 2928.72 -2.68068 -3.77503 0
M  V30 17923 H 2925.88 -5.40332 -6.79951 0
M  V30 17924 H 2925.61 -4.41613 -5.32378 0
M  V30 17925 H 2926.48 -3.26331 -7.47797 0
M  V30 17926 P 2930.44 -2.75334 -8.47391 0
M  V30 17927 O 2930.66 -2.44571 -9.90142 0
M  V30 17928 O 2931.23 -3.87688 -7.92115 0
M  V30 17929 O 2930.69 -1.4459 -7.59357 0
M  V30 17930 C 2929.75 -0.347608 -7.69215 0
M  V30 17931 C 2930.48 0.96767 -7.52806 0
M  V30 17932 O 2930.69 1.21036 -6.1011 0
M  V30 17933 C 2931.88 1.04544 -8.13308 0
M  V30 17934 O 2932.27 2.38311 -8.41922 0
M  V30 17935 C 2932.76 0.491279 -7.02284 0
M  V30 17936 C 2932.05 0.996264 -5.77469 0
M  V30 17937 N 2932.1 0.0501916 -4.62973 0
M  V30 17938 H 2929.26 -0.374722 -8.67691 0
M  V30 17939 H 2928.99 -0.443485 -6.90277 0
M  V30 17940 H 2929.86 1.75537 -7.96793 0
M  V30 17941 P 2933.82 2.75334 -8.47391 0
M  V30 17942 O 2934.04 3.84204 -9.44982 0
M  V30 17943 O 2934.61 1.51982 -8.68909 0
M  V30 17944 O 2934.07 3.29363 -6.99321 0
M  V30 17945 C 2933.13 4.24066 -6.42823 0
M  V30 17946 C 2933.86 5.20775 -5.52155 0
M  V30 17947 O 2934.07 4.56607 -4.22514 0
M  V30 17948 C 2935.26 5.62697 -5.96604 0
M  V30 17949 O 2935.65 6.87667 -5.41053 0
M  V30 17950 C 2936.14 4.52537 -5.39283 0
M  V30 17951 C 2935.43 4.20027 -4.08623 0
M  V30 17952 N 2935.48 2.76189 -3.71603 0
M  V30 17953 C 2935.4 1.66944 -4.54297 0
M  V30 17954 N 2935.47 0.536169 -3.91344 0
M  V30 17955 C 2935.62 0.901569 -2.58849 0
M  V30 17956 C 2935.75 0.146599 -1.40236 0
M  V30 17957 N 2935.76 -1.18234 -1.37046 0
M  V30 17958 N 2935.87 0.822941 -0.249738 0
M  V30 17959 C 2935.86 2.15179 -0.280525 0
M  V30 17960 N 2935.74 2.96414 -1.30822 0
M  V30 17961 C 2935.62 2.25804 -2.44748 0
M  V30 17962 H 2932.64 4.79756 -7.24086 0
M  V30 17963 H 2932.37 3.69963 -5.84682 0
M  V30 17964 H 2933.24 6.10431 -5.41508 0
M  V30 17965 H 2935.9 4.78816 -3.28024 0
M  V30 17966 H 2936.18 3.64957 -6.05871 0
M  V30 17967 H 2937.17 4.88748 -5.21323 0
M  V30 17968 H 2935.33 5.66789 -7.0643 0
M  V30 17969 H 2935.29 1.74684 -5.62396 0
M  V30 17970 H 2935.67 -1.71949 -2.24394 0
M  V30 17971 H 2935.86 -1.67511 -0.470742 0
M  V30 17972 H 2935.97 2.63704 0.6828 0
M  V30 17973 P 2937.2 7.20834 -5.23717 0
M  V30 17974 O 2937.42 8.66274 -5.38678 0
M  V30 17975 O 2937.99 6.33687 -6.13629 0
M  V30 17976 O 2937.45 6.7751 -3.72168 0
M  V30 17977 C 2936.51 7.20919 -2.70795 0
M  V30 17978 C 2937.24 7.45864 -1.40599 0
M  V30 17979 O 2937.45 6.17751 -0.734343 0
M  V30 17980 C 2938.64 8.05906 -1.51917 0
M  V30 17981 O 2939.03 8.74358 -0.335205 0
M  V30 17982 C 2939.52 6.83093 -1.70294 0
M  V30 17983 C 2938.81 5.79992 -0.836974 0
M  V30 17984 N 2938.86 4.41864 -1.38293 0
M  V30 17985 C 2938.78 4.02089 -2.69407 0
M  V30 17986 N 2938.85 2.73403 -2.85089 0
M  V30 17987 C 2939 2.25086 -1.5642 0
M  V30 17988 C 2939.13 0.942887 -1.04836 0
M  V30 17989 N 2939.14 -0.150999 -1.80369 0
M  V30 17990 N 2939.25 0.812565 0.28167 0
M  V30 17991 C 2939.24 1.90572 1.03784 0
M  V30 17992 N 2939.12 3.167 0.683905 0
M  V30 17993 C 2939 3.26538 -0.652815 0
M  V30 17994 H 2936.02 8.13738 -3.03804 0
M  V30 17995 H 2935.75 6.42974 -2.55559 0
M  V30 17996 H 2936.62 8.12139 -0.792866 0
M  V30 17997 H 2939.28 5.80178 0.160643 0
M  V30 17998 H 2939.56 6.51379 -2.75643 0
M  V30 17999 H 2940.55 7.01832 -1.3448 0
M  V30 18000 H 2938.71 8.73771 -2.38364 0
M  V30 18001 H 2938.67 4.7189 -3.52311 0
M  V30 18002 H 2939.05 -0.0721434 -2.82608 0
M  V30 18003 H 2939.24 -1.0785 -1.36544 0
M  V30 18004 H 2939.35 1.73207 2.10241 0
M  V30 18005 P 2940.58 8.91 -9.16719e-11 0
M  V30 18006 O 2940.8 10.1726 0.733694 0
M  V30 18007 O 2941.37 8.73148 -1.23936 0
M  V30 18008 O 2940.83 7.66872 0.971405 0
M  V30 18009 C 2939.89 7.42309 2.04641 0
M  V30 18010 C 2940.62 6.86059 3.24661 0
M  V30 18011 O 2940.83 5.42847 3.03646 0
M  V30 18012 C 2942.02 7.41196 3.50753 0
M  V30 18013 O 2942.41 7.27073 4.86816 0
M  V30 18014 C 2942.9 6.5273 2.63741 0
M  V30 18015 C 2942.19 5.1842 2.73198 0
M  V30 18016 N 2942.24 4.38762 1.4784 0
M  V30 18017 H 2939.4 8.36803 2.32493 0
M  V30 18018 H 2939.13 6.70197 1.71129 0
M  V30 18019 H 2940 7.03551 4.13168 0
M  V30 18020 P 2943.96 7.20834 5.23717 0
M  V30 18021 O 2944.18 7.80006 6.57415 0
M  V30 18022 O 2944.75 7.79416 4.13051 0
M  V30 18023 O 2944.21 5.63315 5.29344 0
M  V30 18024 C 2943.27 4.80318 6.01954 0
M  V30 18025 C 2944 3.64202 6.65911 0
M  V30 18026 O 2944.21 2.60736 5.64823 0
M  V30 18027 C 2945.4 3.93521 7.19518 0
M  V30 18028 O 2945.79 3.02071 8.21205 0
M  V30 18029 C 2946.28 3.73047 5.97036 0
M  V30 18030 C 2945.57 2.58828 5.25741 0
M  V30 18031 N 2945.62 2.68068 3.77503 0
M  V30 18032 H 2942.78 5.40394 6.8003 0
M  V30 18033 H 2942.51 4.41741 5.32532 0
M  V30 18034 H 2943.38 3.26371 7.47889 0
M  V30 18035 H 2946.04 1.64007 5.56746 0
M  V30 18036 H 2946.32 4.63439 5.3432 0
M  V30 18037 H 2947.31 3.44776 6.25925 0
M  V30 18038 H 2945.47 4.96707 7.57347 0
M  V30 18039 P 2947.34 2.75334 8.47391 0
M  V30 18040 O 2947.56 2.44571 9.90142 0
M  V30 18041 O 2948.13 3.87688 7.92115 0
M  V30 18042 O 2947.59 1.4459 7.59357 0
M  V30 18043 C 2946.65 0.347608 7.69215 0
M  V30 18044 C 2947.38 -0.96767 7.52806 0
M  V30 18045 O 2947.59 -1.21036 6.1011 0
M  V30 18046 C 2948.78 -1.04544 8.13308 0
M  V30 18047 O 2949.17 -2.38311 8.41922 0
M  V30 18048 C 2949.66 -0.491279 7.02284 0
M  V30 18049 C 2948.95 -0.996264 5.77469 0
M  V30 18050 N 2949 -0.0501916 4.62973 0
M  V30 18051 C 2948.92 1.32786 4.63244 0
M  V30 18052 N 2949 1.86957 3.44545 0
M  V30 18053 C 2949.14 0.780241 2.58481 0
M  V30 18054 C 2949.27 0.738536 1.17757 0
M  V30 18055 N 2949.39 -0.58337 0.711393 0
M  V30 18056 C 2949.39 -1.70816 1.51017 0
M  V30 18057 N 2949.52 -2.87826 0.880757 0
M  V30 18058 N 2949.26 -1.67126 2.8339 0
M  V30 18059 C 2949.14 -0.401421 3.30572 0
M  V30 18060 H 2946.16 0.374722 8.67691 0
M  V30 18061 H 2945.89 0.443485 6.90277 0
M  V30 18062 H 2946.76 -1.75537 7.96793 0
M  V30 18063 P 2950.72 -2.75334 8.47391 0
M  V30 18064 O 2950.94 -3.84204 9.44982 0
M  V30 18065 O 2951.51 -1.51982 8.68909 0
M  V30 18066 O 2950.97 -3.29363 6.99321 0
M  V30 18067 C 2950.03 -4.24066 6.42823 0
M  V30 18068 C 2950.76 -5.20775 5.52155 0
M  V30 18069 O 2950.97 -4.56607 4.22514 0
M  V30 18070 C 2952.16 -5.62697 5.96604 0
M  V30 18071 O 2952.55 -6.87667 5.41053 0
M  V30 18072 C 2953.04 -4.52537 5.39283 0
M  V30 18073 C 2952.33 -4.20027 4.08623 0
M  V30 18074 N 2952.38 -2.76189 3.71603 0
M  V30 18075 C 2952.3 -1.66944 4.54297 0
M  V30 18076 N 2952.37 -0.536169 3.91344 0
M  V30 18077 C 2952.52 -0.901569 2.58849 0
M  V30 18078 C 2952.65 -0.146599 1.40236 0
M  V30 18079 N 2952.66 1.18234 1.37046 0
M  V30 18080 N 2952.77 -0.822941 0.249738 0
M  V30 18081 C 2952.76 -2.15179 0.280525 0
M  V30 18082 N 2952.64 -2.96414 1.30822 0
M  V30 18083 C 2952.52 -2.25804 2.44748 0
M  V30 18084 H 2949.54 -4.79756 7.24086 0
M  V30 18085 H 2949.27 -3.69963 5.84682 0
M  V30 18086 H 2950.14 -6.10431 5.41508 0
M  V30 18087 H 2952.8 -4.78816 3.28024 0
M  V30 18088 H 2953.08 -3.64957 6.05871 0
M  V30 18089 H 2954.07 -4.88748 5.21323 0
M  V30 18090 H 2952.23 -5.66789 7.0643 0
M  V30 18091 H 2952.19 -1.74684 5.62396 0
M  V30 18092 H 2952.57 1.71949 2.24394 0
M  V30 18093 H 2952.76 1.67511 0.470742 0
M  V30 18094 H 2952.87 -2.63704 -0.6828 0
M  V30 18095 P 2954.1 -7.20834 5.23717 0
M  V30 18096 O 2954.32 -8.66104 5.38572 0
M  V30 18097 O 2954.89 -6.33544 6.1349 0
M  V30 18098 O 2954.35 -6.7751 3.72168 0
M  V30 18099 C 2953.41 -7.20825 2.7076 0
M  V30 18100 C 2954.14 -7.45864 1.40599 0
M  V30 18101 O 2954.35 -6.17651 0.734225 0
M  V30 18102 C 2955.54 -8.05808 1.51899 0
M  V30 18103 O 2955.93 -8.74358 0.335205 0
M  V30 18104 C 2956.42 -6.83093 1.70294 0
M  V30 18105 C 2955.71 -5.79992 0.836974 0
M  V30 18106 N 2955.76 -4.41864 1.38293 0
M  V30 18107 H 2952.92 -8.13644 3.0377 0
M  V30 18108 H 2952.65 -6.42788 2.55485 0
M  V30 18109 H 2953.52 -8.12039 0.792769 0
M  V30 18110 P 2957.48 -8.91 9.27809e-11 0
M  V30 18111 O 2957.7 -10.1726 -0.733694 0
M  V30 18112 O 2958.27 -8.73148 1.23936 0
M  V30 18113 O 2957.73 -7.66872 -0.971405 0
M  V30 18114 C 2956.79 -7.42309 -2.04641 0
M  V30 18115 C 2957.52 -6.86059 -3.24661 0
M  V30 18116 O 2957.73 -5.42847 -3.03646 0
M  V30 18117 C 2958.92 -7.41196 -3.50753 0
M  V30 18118 O 2959.31 -7.27073 -4.86816 0
M  V30 18119 C 2959.8 -6.5273 -2.63741 0
M  V30 18120 C 2959.09 -5.1842 -2.73198 0
M  V30 18121 N 2959.14 -4.38762 -1.4784 0
M  V30 18122 C 2959.06 -4.81605 -0.168631 0
M  V30 18123 N 2959.14 -3.85454 0.713363 0
M  V30 18124 C 2959.28 -2.6994 -0.0566958 0
M  V30 18125 C 2959.41 -1.34815 0.338502 0
M  V30 18126 O 2959.43 -0.869548 1.47125 0
M  V30 18127 N 2959.53 -0.496304 -0.77465 0
M  V30 18128 C 2959.53 -0.908403 -2.09122 0
M  V30 18129 N 2959.66 0.0517805 -3.00955 0
M  V30 18130 N 2959.4 -2.17875 -2.46519 0
M  V30 18131 C 2959.28 -3.01988 -1.4033 0
M  V30 18132 H 2956.3 -8.36803 -2.32493 0
M  V30 18133 H 2956.03 -6.70197 -1.71129 0
M  V30 18134 H 2956.9 -7.03551 -4.13168 0
M  V30 18135 H 2959.56 -4.59498 -3.54415 0
M  V30 18136 H 2959.83 -6.88898 -1.59848 0
M  V30 18137 H 2960.83 -6.46749 -3.03687 0
M  V30 18138 H 2958.99 -8.46908 -3.20714 0
M  V30 18139 H 2958.94 -5.86405 0.105564 0
M  V30 18140 H 2959.63 0.483664 -0.597855 0
M  V30 18141 H 2959.66 -0.187865 -4.0116 0
M  V30 18142 H 2959.76 1.03585 -2.71726 0
M  V30 18143 P 2960.86 -7.20834 -5.23717 0
M  V30 18144 O 2961.08 -7.79853 -6.57286 0
M  V30 18145 O 2961.65 -7.79239 -4.12957 0
M  V30 18146 O 2961.11 -5.63315 -5.29344 0
M  V30 18147 C 2960.17 -4.80255 -6.01876 0
M  V30 18148 C 2960.9 -3.64202 -6.65911 0
M  V30 18149 O 2961.11 -2.60694 -5.64732 0
M  V30 18150 C 2962.3 -3.93473 -7.1943 0
M  V30 18151 O 2962.69 -3.02071 -8.21205 0
M  V30 18152 C 2963.18 -3.73047 -5.97036 0
M  V30 18153 C 2962.47 -2.58828 -5.25741 0
M  V30 18154 N 2962.52 -2.68068 -3.77503 0
M  V30 18155 H 2959.68 -5.40332 -6.79951 0
M  V30 18156 H 2959.41 -4.41613 -5.32378 0
M  V30 18157 H 2960.28 -3.26331 -7.47797 0
M  V30 18158 P 2964.24 -2.75334 -8.47391 0
M  V30 18159 O 2964.46 -2.44595 -9.90239 0
M  V30 18160 O 2965.03 -3.87732 -7.92204 0
M  V30 18161 O 2964.49 -1.4459 -7.59357 0
M  V30 18162 C 2963.55 -0.347563 -7.69115 0
M  V30 18163 C 2964.28 0.96767 -7.52806 0
M  V30 18164 O 2964.49 1.21036 -6.1011 0
M  V30 18165 C 2965.68 1.04544 -8.13308 0
M  V30 18166 O 2966.07 2.38311 -8.41922 0
M  V30 18167 C 2966.56 0.491279 -7.02284 0
M  V30 18168 C 2965.85 0.996264 -5.77469 0
M  V30 18169 N 2965.9 0.0501808 -4.62873 0
M  V30 18170 C 2966.05 0.588177 -3.36904 0
M  V30 18171 O 2966.14 1.78598 -3.17173 0
M  V30 18172 N 2966.09 -0.329694 -2.33686 0
M  V30 18173 C 2966 -1.6953 -2.45079 0
M  V30 18174 C 2965.85 -2.16933 -3.80505 0
M  V30 18175 C 2965.8 -1.30326 -4.83752 0
M  V30 18176 H 2963.06 -0.374722 -8.67691 0
M  V30 18177 H 2962.79 -0.443421 -6.90177 0
M  V30 18178 H 2963.66 1.75537 -7.96793 0
M  V30 18179 H 2966.32 1.94496 -5.46629 0
M  V30 18180 H 2966.59 -0.608651 -7.04676 0
M  V30 18181 H 2967.59 0.889672 -7.08939 0
M  V30 18182 H 2965.75 0.43308 -9.04564 0
M  V30 18183 H 2965.68 -1.68366 -5.8516 0
M  V30 18184 P 2967.62 2.75334 -8.47391 0
M  V30 18185 O 2967.84 3.84128 -9.44797 0
M  V30 18186 O 2968.41 1.51947 -8.68712 0
M  V30 18187 O 2967.87 3.29363 -6.99321 0
M  V30 18188 C 2966.93 4.24011 -6.4274 0
M  V30 18189 C 2967.66 5.20775 -5.52155 0
M  V30 18190 O 2967.87 4.56534 -4.22446 0
M  V30 18191 C 2969.06 5.62629 -5.96531 0
M  V30 18192 O 2969.45 6.87667 -5.41053 0
M  V30 18193 C 2969.94 4.52537 -5.39283 0
M  V30 18194 C 2969.23 4.20027 -4.08623 0
M  V30 18195 N 2969.28 2.76189 -3.71603 0
M  V30 18196 H 2966.44 4.797 -7.24003 0
M  V30 18197 H 2966.17 3.69856 -5.84513 0
M  V30 18198 H 2967.04 6.10356 -5.41441 0
M  V30 18199 P 2971 7.20834 -5.23717 0
M  V30 18200 O 2971.22 8.66274 -5.38678 0
M  V30 18201 O 2971.79 6.33687 -6.13629 0
M  V30 18202 O 2971.25 6.7751 -3.72168 0
M  V30 18203 C 2970.31 7.20919 -2.70795 0
M  V30 18204 C 2971.04 7.45864 -1.40599 0
M  V30 18205 O 2971.25 6.17751 -0.734343 0
M  V30 18206 C 2972.44 8.05906 -1.51917 0
M  V30 18207 O 2972.83 8.74358 -0.335205 0
M  V30 18208 C 2973.32 6.83093 -1.70294 0
M  V30 18209 C 2972.61 5.79992 -0.836974 0
M  V30 18210 N 2972.66 4.41864 -1.38293 0
M  V30 18211 H 2969.82 8.13738 -3.03804 0
M  V30 18212 H 2969.55 6.42974 -2.55559 0
M  V30 18213 H 2970.42 8.12139 -0.792866 0
M  V30 18214 H 2973.08 5.80178 0.160643 0
M  V30 18215 H 2973.36 6.51379 -2.75643 0
M  V30 18216 H 2974.35 7.01832 -1.3448 0
M  V30 18217 H 2972.51 8.73771 -2.38364 0
M  V30 18218 P 2974.38 8.91 -9.38899e-11 0
M  V30 18219 O 2974.6 10.1726 0.733694 0
M  V30 18220 O 2975.17 8.73148 -1.23936 0
M  V30 18221 O 2974.63 7.66872 0.971405 0
M  V30 18222 C 2973.69 7.42309 2.04641 0
M  V30 18223 C 2974.42 6.86059 3.24661 0
M  V30 18224 O 2974.63 5.42847 3.03646 0
M  V30 18225 C 2975.82 7.41196 3.50753 0
M  V30 18226 O 2976.21 7.27073 4.86816 0
M  V30 18227 C 2976.7 6.5273 2.63741 0
M  V30 18228 C 2975.99 5.1842 2.73198 0
M  V30 18229 N 2976.04 4.38762 1.4784 0
M  V30 18230 C 2975.96 4.81605 0.168631 0
M  V30 18231 N 2976.04 3.85454 -0.713363 0
M  V30 18232 C 2976.18 2.6994 0.0566958 0
M  V30 18233 C 2976.31 1.34815 -0.338502 0
M  V30 18234 N 2976.43 0.496304 0.77465 0
M  V30 18235 C 2976.43 0.908403 2.09122 0
M  V30 18236 N 2976.56 -0.0517805 3.00955 0
M  V30 18237 N 2976.3 2.17875 2.46519 0
M  V30 18238 C 2976.18 3.01988 1.4033 0
M  V30 18239 H 2973.2 8.36803 2.32493 0
M  V30 18240 H 2972.93 6.70197 1.71129 0
M  V30 18241 H 2973.8 7.03551 4.13168 0
M  V30 18242 P 2977.76 7.20834 5.23717 0
M  V30 18243 O 2977.98 7.79853 6.57286 0
M  V30 18244 O 2978.55 7.79239 4.12957 0
M  V30 18245 O 2978.01 5.63315 5.29344 0
M  V30 18246 C 2977.07 4.80255 6.01876 0
M  V30 18247 C 2977.8 3.64202 6.65911 0
M  V30 18248 O 2978.01 2.60694 5.64732 0
M  V30 18249 C 2979.2 3.93473 7.1943 0
M  V30 18250 O 2979.59 3.02071 8.21205 0
M  V30 18251 C 2980.08 3.73047 5.97036 0
M  V30 18252 C 2979.37 2.58828 5.25741 0
M  V30 18253 N 2979.42 2.68068 3.77503 0
M  V30 18254 H 2976.58 5.40332 6.79951 0
M  V30 18255 H 2976.31 4.41613 5.32378 0
M  V30 18256 H 2977.18 3.26331 7.47797 0
M  V30 18257 P 2981.14 2.75334 8.47391 0
M  V30 18258 O 2981.36 2.44571 9.90142 0
M  V30 18259 O 2981.93 3.87688 7.92115 0
M  V30 18260 O 2981.39 1.4459 7.59357 0
M  V30 18261 C 2980.45 0.347608 7.69215 0
M  V30 18262 C 2981.18 -0.96767 7.52806 0
M  V30 18263 O 2981.39 -1.21036 6.1011 0
M  V30 18264 C 2982.58 -1.04544 8.13308 0
M  V30 18265 O 2982.97 -2.38311 8.41922 0
M  V30 18266 C 2983.46 -0.491279 7.02284 0
M  V30 18267 C 2982.75 -0.996264 5.77469 0
M  V30 18268 N 2982.8 -0.0501916 4.62973 0
M  V30 18269 H 2979.96 0.374722 8.67691 0
M  V30 18270 H 2979.69 0.443485 6.90277 0
M  V30 18271 H 2980.56 -1.75537 7.96793 0
M  V30 18272 P 2984.52 -2.75334 8.47391 0
M  V30 18273 O 2984.74 -3.84166 9.4489 0
M  V30 18274 O 2985.31 -1.51964 8.6881 0
M  V30 18275 O 2984.77 -3.29363 6.99321 0
M  V30 18276 C 2983.83 -4.23956 6.42656 0
M  V30 18277 C 2984.56 -5.20775 5.52155 0
M  V30 18278 O 2984.77 -4.56534 4.22446 0
M  V30 18279 C 2985.96 -5.62629 5.96531 0
M  V30 18280 O 2986.35 -6.87667 5.41053 0
M  V30 18281 C 2986.84 -4.52537 5.39283 0
M  V30 18282 C 2986.13 -4.20027 4.08623 0
M  V30 18283 N 2986.18 -2.7613 3.71522 0
M  V30 18284 C 2986.33 -2.45612 2.37989 0
M  V30 18285 O 2986.42 -3.30919 1.51621 0
M  V30 18286 N 2986.37 -1.10684 2.08435 0
M  V30 18287 C 2986.28 -0.0690084 2.9792 0
M  V30 18288 C 2986.13 -0.481522 4.35345 0
M  V30 18289 C 2986.08 -1.78906 4.67968 0
M  V30 18290 H 2983.34 -4.797 7.24003 0
M  V30 18291 H 2983.07 -3.69802 5.84429 0
M  V30 18292 H 2983.94 -6.10356 5.41441 0
M  V30 18293 H 2986.6 -4.78651 3.27911 0
M  V30 18294 H 2986.87 -3.64957 6.05871 0
M  V30 18295 H 2987.87 -4.8868 5.2125 0
M  V30 18296 H 2986.03 -5.66726 7.06352 0
M  V30 18297 H 2985.96 -2.07737 5.72367 0
M  V30 18298 P 2987.9 -7.20834 5.23717 0
M  V30 18299 O 2988.12 -8.66104 5.38572 0
M  V30 18300 O 2988.69 -6.33544 6.1349 0
M  V30 18301 O 2988.15 -6.7751 3.72168 0
M  V30 18302 C 2987.21 -7.20825 2.7076 0
M  V30 18303 C 2987.94 -7.45864 1.40599 0
M  V30 18304 O 2988.15 -6.17651 0.734225 0
M  V30 18305 C 2989.34 -8.05808 1.51899 0
M  V30 18306 O 2989.73 -8.74358 0.335205 0
M  V30 18307 C 2990.22 -6.83093 1.70294 0
M  V30 18308 C 2989.51 -5.79992 0.836974 0
M  V30 18309 N 2989.56 -4.41864 1.38293 0
M  V30 18310 C 2989.48 -3.99538 2.69438 0
M  V30 18311 N 2989.56 -2.69909 2.84277 0
M  V30 18312 C 2989.7 -2.21719 1.5408 0
M  V30 18313 C 2989.83 -0.891712 1.06628 0
M  V30 18314 O 2989.85 0.161298 1.70137 0
M  V30 18315 N 2989.95 -0.856846 -0.334985 0
M  V30 18316 C 2989.95 -1.9641 -1.15789 0
M  V30 18317 N 2990.08 -1.72708 -2.46522 0
M  V30 18318 N 2989.82 -3.21165 -0.713741 0
M  V30 18319 C 2989.7 -3.26797 0.639748 0
M  V30 18320 H 2986.72 -8.13644 3.0377 0
M  V30 18321 H 2986.45 -6.42788 2.55485 0
M  V30 18322 H 2987.32 -8.12039 0.792769 0
M  V30 18323 H 2989.98 -5.80061 -0.166416 0
M  V30 18324 H 2990.25 -6.51287 2.75604 0
M  V30 18325 H 2991.25 -7.01734 1.34462 0
M  V30 18326 H 2989.41 -8.73674 2.38337 0
M  V30 18327 H 2989.36 -4.68207 3.53221 0
M  V30 18328 H 2990.05 0.0398818 -0.767965 0
M  V30 18329 H 2990.08 -2.50995 -3.13503 0
M  V30 18330 H 2990.18 -0.759148 -2.80716 0
M  V30 18331 P 2991.28 -8.91 9.49989e-11 0
M  V30 18332 O 2991.5 -10.1726 -0.733694 0
M  V30 18333 O 2992.07 -8.73148 1.23936 0
M  V30 18334 O 2991.53 -7.66872 -0.971405 0
M  V30 18335 C 2990.59 -7.42309 -2.04641 0
M  V30 18336 C 2991.32 -6.86059 -3.24661 0
M  V30 18337 O 2991.53 -5.42847 -3.03646 0
M  V30 18338 C 2992.72 -7.41196 -3.50753 0
M  V30 18339 O 2993.11 -7.27073 -4.86816 0
M  V30 18340 C 2993.6 -6.5273 -2.63741 0
M  V30 18341 C 2992.89 -5.1842 -2.73198 0
M  V30 18342 N 2992.94 -4.38762 -1.4784 0
M  V30 18343 H 2990.1 -8.36803 -2.32493 0
M  V30 18344 H 2989.83 -6.70197 -1.71129 0
M  V30 18345 H 2990.7 -7.03551 -4.13168 0
M  V30 18346 P 2994.66 -7.20834 -5.23717 0
M  V30 18347 O 2994.88 -7.7993 -6.57351 0
M  V30 18348 O 2995.45 -7.79328 -4.13004 0
M  V30 18349 O 2994.91 -5.63315 -5.29344 0
M  V30 18350 C 2993.97 -4.80193 -6.01798 0
M  V30 18351 C 2994.7 -3.64202 -6.65911 0
M  V30 18352 O 2994.91 -2.60694 -5.64732 0
M  V30 18353 C 2996.1 -3.93473 -7.1943 0
M  V30 18354 O 2996.49 -3.02071 -8.21205 0
M  V30 18355 C 2996.98 -3.73047 -5.97036 0
M  V30 18356 C 2996.27 -2.58828 -5.25741 0
M  V30 18357 N 2996.32 -2.6801 -3.77422 0
M  V30 18358 C 2996.47 -1.50443 -3.07133 0
M  V30 18359 O 2996.56 -0.419406 -3.61576 0
M  V30 18360 N 2996.51 -1.6403 -1.69677 0
M  V30 18361 C 2996.42 -2.81206 -0.986255 0
M  V30 18362 O 2996.47 -2.80892 0.249754 0
M  V30 18363 C 2996.27 -3.99158 -1.80325 0
M  V30 18364 C 2996.16 -5.29309 -1.06921 0
M  V30 18365 C 2996.22 -3.89779 -3.1476 0
M  V30 18366 H 2993.48 -5.40332 -6.79951 0
M  V30 18367 H 2993.21 -4.41549 -5.32301 0
M  V30 18368 H 2994.08 -3.26331 -7.47797 0
M  V30 18369 H 2996.74 -1.6395 -5.56554 0
M  V30 18370 H 2997.01 -4.63439 -5.3432 0
M  V30 18371 H 2998.01 -3.44728 -6.25838 0
M  V30 18372 H 2996.17 -4.96652 -7.57263 0
M  V30 18373 H 2996.1 -4.80159 -3.74441 0
M  V30 18374 H 2997.13 -5.81459 -1.09608 0
M  V30 18375 H 2995.39 -5.9187 -1.54487 0
M  V30 18376 H 2995.88 -5.10095 -0.0220288 0
M  V30 18377 H 2996.62 -0.798962 -1.16664 0
M  V30 18378 P 2998.04 -2.75334 -8.47391 0
M  V30 18379 O 2998.26 -2.44571 -9.90142 0
M  V30 18380 O 2998.83 -3.87688 -7.92115 0
M  V30 18381 O 2998.29 -1.4459 -7.59357 0
M  V30 18382 C 2997.35 -0.347608 -7.69215 0
M  V30 18383 C 2998.08 0.96767 -7.52806 0
M  V30 18384 O 2998.29 1.21036 -6.1011 0
M  V30 18385 C 2999.48 1.04544 -8.13308 0
M  V30 18386 O 2999.87 2.38311 -8.41922 0
M  V30 18387 C 3000.36 0.491279 -7.02284 0
M  V30 18388 C 2999.65 0.996264 -5.77469 0
M  V30 18389 N 2999.7 0.0501916 -4.62973 0
M  V30 18390 H 2996.86 -0.374722 -8.67691 0
M  V30 18391 H 2996.59 -0.443485 -6.90277 0
M  V30 18392 H 2997.46 1.75537 -7.96793 0
M  V30 18393 P 3001.42 2.75334 -8.47391 0
M  V30 18394 O 3001.64 3.84128 -9.44797 0
M  V30 18395 O 3002.21 1.51947 -8.68712 0
M  V30 18396 O 3001.67 3.29363 -6.99321 0
M  V30 18397 C 3000.73 4.24011 -6.4274 0
M  V30 18398 C 3001.46 5.20775 -5.52155 0
M  V30 18399 O 3001.67 4.56534 -4.22446 0
M  V30 18400 C 3002.86 5.62629 -5.96531 0
M  V30 18401 O 3003.25 6.87667 -5.41053 0
M  V30 18402 C 3003.74 4.52537 -5.39283 0
M  V30 18403 C 3003.03 4.20027 -4.08623 0
M  V30 18404 N 3003.08 2.76189 -3.71603 0
M  V30 18405 H 3000.24 4.797 -7.24003 0
M  V30 18406 H 2999.97 3.69856 -5.84513 0
M  V30 18407 H 3000.84 6.10356 -5.41441 0
M  V30 18408 P 3004.8 7.20834 -5.23717 0
M  V30 18409 O 3005.02 8.66104 -5.38572 0
M  V30 18410 O 3005.59 6.33544 -6.1349 0
M  V30 18411 O 3005.05 6.7751 -3.72168 0
M  V30 18412 C 3004.11 7.20825 -2.7076 0
M  V30 18413 C 3004.84 7.45864 -1.40599 0
M  V30 18414 O 3005.05 6.17651 -0.734225 0
M  V30 18415 C 3006.24 8.05808 -1.51899 0
M  V30 18416 O 3006.63 8.74358 -0.335205 0
M  V30 18417 C 3007.12 6.83093 -1.70294 0
M  V30 18418 C 3006.41 5.79992 -0.836974 0
M  V30 18419 N 3006.46 4.41864 -1.38293 0
M  V30 18420 H 3003.62 8.13644 -3.0377 0
M  V30 18421 H 3003.35 6.42788 -2.55485 0
M  V30 18422 H 3004.22 8.12039 -0.792769 0
M  V30 18423 P 3008.18 8.91 -9.61079e-11 0
M  V30 18424 O 3008.4 10.1726 0.733694 0
M  V30 18425 O 3008.97 8.73148 -1.23936 0
M  V30 18426 O 3008.43 7.66872 0.971405 0
M  V30 18427 C 3007.49 7.42309 2.04641 0
M  V30 18428 C 3008.22 6.86059 3.24661 0
M  V30 18429 O 3008.43 5.42847 3.03646 0
M  V30 18430 C 3009.62 7.41196 3.50753 0
M  V30 18431 O 3010.01 7.27073 4.86816 0
M  V30 18432 C 3010.5 6.5273 2.63741 0
M  V30 18433 C 3009.79 5.1842 2.73198 0
M  V30 18434 N 3009.84 4.38762 1.4784 0
M  V30 18435 H 3007 8.36803 2.32493 0
M  V30 18436 H 3006.73 6.70197 1.71129 0
M  V30 18437 H 3007.6 7.03551 4.13168 0
M  V30 18438 P 3011.56 7.20834 5.23717 0
M  V30 18439 O 3011.78 7.79853 6.57286 0
M  V30 18440 O 3012.35 7.79239 4.12957 0
M  V30 18441 O 3011.81 5.63315 5.29344 0
M  V30 18442 C 3010.87 4.80255 6.01876 0
M  V30 18443 C 3011.6 3.64202 6.65911 0
M  V30 18444 O 3011.81 2.60694 5.64732 0
M  V30 18445 C 3013 3.93473 7.1943 0
M  V30 18446 O 3013.39 3.02071 8.21205 0
M  V30 18447 C 3013.88 3.73047 5.97036 0
M  V30 18448 C 3013.17 2.58828 5.25741 0
M  V30 18449 N 3013.22 2.68068 3.77503 0
M  V30 18450 H 3010.38 5.40332 6.79951 0
M  V30 18451 H 3010.11 4.41613 5.32378 0
M  V30 18452 H 3010.98 3.26331 7.47797 0
M  V30 18453 P 3014.94 2.75334 8.47391 0
M  V30 18454 O 3015.16 2.44571 9.90142 0
M  V30 18455 O 3015.73 3.87688 7.92115 0
M  V30 18456 O 3015.19 1.4459 7.59357 0
M  V30 18457 C 3014.25 0.347608 7.69215 0
M  V30 18458 C 3014.98 -0.96767 7.52806 0
M  V30 18459 O 3015.19 -1.21036 6.1011 0
M  V30 18460 C 3016.38 -1.04544 8.13308 0
M  V30 18461 O 3016.77 -2.38311 8.41922 0
M  V30 18462 C 3017.26 -0.491279 7.02284 0
M  V30 18463 C 3016.55 -0.996264 5.77469 0
M  V30 18464 N 3016.6 -0.0501916 4.62973 0
M  V30 18465 H 3013.76 0.374722 8.67691 0
M  V30 18466 H 3013.49 0.443485 6.90277 0
M  V30 18467 H 3014.36 -1.75537 7.96793 0
M  V30 18468 P 3018.32 -2.75334 8.47391 0
M  V30 18469 O 3018.54 -3.84166 9.4489 0
M  V30 18470 O 3019.11 -1.51964 8.6881 0
M  V30 18471 O 3018.57 -3.29363 6.99321 0
M  V30 18472 C 3017.63 -4.24011 6.4274 0
M  V30 18473 C 3018.36 -5.20775 5.52155 0
M  V30 18474 O 3018.57 -4.56534 4.22446 0
M  V30 18475 C 3019.76 -5.62629 5.96531 0
M  V30 18476 O 3020.15 -6.87667 5.41053 0
M  V30 18477 C 3020.64 -4.52537 5.39283 0
M  V30 18478 C 3019.93 -4.20027 4.08623 0
M  V30 18479 N 3019.98 -2.7613 3.71522 0
M  V30 18480 C 3020.13 -2.43702 2.37085 0
M  V30 18481 O 3020.22 -3.3531 1.54039 0
M  V30 18482 N 3020.18 -0.951103 2.10621 0
M  V30 18483 C 3020.08 -0.165021 2.93537 0
M  V30 18484 N 3020.13 1.09723 2.53253 0
M  V30 18485 C 3019.93 -0.469576 4.32458 0
M  V30 18486 C 3019.88 -1.78658 4.65921 0
M  V30 18487 H 3017.14 -4.79645 7.23919 0
M  V30 18488 H 3016.87 -3.69802 5.84429 0
M  V30 18489 H 3017.74 -6.10431 5.41508 0
M  V30 18490 H 3020.4 -4.78733 3.27967 0
M  V30 18491 H 3020.67 -3.64957 6.05871 0
M  V30 18492 H 3021.67 -4.8868 5.2125 0
M  V30 18493 H 3019.83 -5.66726 7.06352 0
M  V30 18494 H 3019.76 -2.06987 5.70299 0
M  V30 18495 H 3019.86 0.314383 5.07728 0
M  V30 18496 H 3020.25 1.31363 1.5319 0
M  V30 18497 H 3020.05 1.85978 3.21943 0
M  V30 18498 P 3021.7 -7.20834 5.23717 0
M  V30 18499 O 3021.92 -8.66104 5.38572 0
M  V30 18500 O 3022.49 -6.33544 6.1349 0
M  V30 18501 O 3021.95 -6.7751 3.72168 0
M  V30 18502 C 3021.01 -7.20825 2.7076 0
M  V30 18503 C 3021.74 -7.45864 1.40599 0
M  V30 18504 O 3021.95 -6.17651 0.734225 0
M  V30 18505 C 3023.14 -8.05808 1.51899 0
M  V30 18506 O 3023.53 -8.74358 0.335205 0
M  V30 18507 C 3024.02 -6.83093 1.70294 0
M  V30 18508 C 3023.31 -5.79992 0.836974 0
M  V30 18509 N 3023.36 -4.41864 1.38293 0
M  V30 18510 C 3023.28 -3.99538 2.69438 0
M  V30 18511 N 3023.36 -2.69909 2.84277 0
M  V30 18512 C 3023.5 -2.21719 1.5408 0
M  V30 18513 C 3023.63 -0.891712 1.06628 0
M  V30 18514 N 3023.75 -0.856846 -0.334985 0
M  V30 18515 C 3023.75 -1.9641 -1.15789 0
M  V30 18516 N 3023.88 -1.72708 -2.46522 0
M  V30 18517 N 3023.62 -3.21165 -0.713741 0
M  V30 18518 C 3023.5 -3.26797 0.639748 0
M  V30 18519 H 3020.52 -8.13644 3.0377 0
M  V30 18520 H 3020.25 -6.42788 2.55485 0
M  V30 18521 H 3021.12 -8.12039 0.792769 0
M  V30 18522 P 3025.08 -8.91 9.72169e-11 0
M  V30 18523 O 3025.3 -10.1726 -0.733694 0
M  V30 18524 O 3025.87 -8.73148 1.23936 0
M  V30 18525 O 3025.33 -7.66872 -0.971405 0
M  V30 18526 C 3024.39 -7.42309 -2.04641 0
M  V30 18527 C 3025.12 -6.86059 -3.24661 0
M  V30 18528 O 3025.33 -5.42847 -3.03646 0
M  V30 18529 C 3026.52 -7.41196 -3.50753 0
M  V30 18530 O 3026.91 -7.27073 -4.86816 0
M  V30 18531 C 3027.4 -6.5273 -2.63741 0
M  V30 18532 C 3026.69 -5.1842 -2.73198 0
M  V30 18533 N 3026.74 -4.38762 -1.4784 0
M  V30 18534 C 3026.66 -4.81605 -0.168631 0
M  V30 18535 N 3026.74 -3.85454 0.713363 0
M  V30 18536 C 3026.88 -2.6994 -0.0566958 0
M  V30 18537 C 3027.01 -1.34815 0.338502 0
M  V30 18538 O 3027.03 -0.869548 1.47125 0
M  V30 18539 N 3027.13 -0.496304 -0.77465 0
M  V30 18540 C 3027.13 -0.908403 -2.09122 0
M  V30 18541 N 3027.26 0.0517805 -3.00955 0
M  V30 18542 N 3027 -2.17875 -2.46519 0
M  V30 18543 C 3026.88 -3.01988 -1.4033 0
M  V30 18544 H 3023.9 -8.36803 -2.32493 0
M  V30 18545 H 3023.63 -6.70197 -1.71129 0
M  V30 18546 H 3024.5 -7.03551 -4.13168 0
M  V30 18547 H 3027.16 -4.59498 -3.54415 0
M  V30 18548 H 3027.43 -6.88898 -1.59848 0
M  V30 18549 H 3028.43 -6.46749 -3.03687 0
M  V30 18550 H 3026.59 -8.46908 -3.20714 0
M  V30 18551 H 3026.54 -5.86405 0.105564 0
M  V30 18552 H 3027.23 0.483664 -0.597855 0
M  V30 18553 H 3027.26 -0.187865 -4.0116 0
M  V30 18554 H 3027.36 1.03585 -2.71726 0
M  V30 18555 P 3028.46 -7.20834 -5.23717 0
M  V30 18556 O 3028.68 -7.79853 -6.57286 0
M  V30 18557 O 3029.25 -7.79239 -4.12957 0
M  V30 18558 O 3028.71 -5.63315 -5.29344 0
M  V30 18559 C 3027.77 -4.80255 -6.01876 0
M  V30 18560 C 3028.5 -3.64202 -6.65911 0
M  V30 18561 O 3028.71 -2.60694 -5.64732 0
M  V30 18562 C 3029.9 -3.93473 -7.1943 0
M  V30 18563 O 3030.29 -3.02071 -8.21205 0
M  V30 18564 C 3030.78 -3.73047 -5.97036 0
M  V30 18565 C 3030.07 -2.58828 -5.25741 0
M  V30 18566 N 3030.12 -2.68068 -3.77503 0
M  V30 18567 H 3027.28 -5.40332 -6.79951 0
M  V30 18568 H 3027.01 -4.41613 -5.32378 0
M  V30 18569 H 3027.88 -3.26331 -7.47797 0
M  V30 18570 P 3031.84 -2.75334 -8.47391 0
M  V30 18571 O 3032.06 -2.44595 -9.90239 0
M  V30 18572 O 3032.63 -3.87732 -7.92204 0
M  V30 18573 O 3032.09 -1.4459 -7.59357 0
M  V30 18574 C 3031.15 -0.347563 -7.69115 0
M  V30 18575 C 3031.88 0.96767 -7.52806 0
M  V30 18576 O 3032.09 1.21036 -6.1011 0
M  V30 18577 C 3033.28 1.04544 -8.13308 0
M  V30 18578 O 3033.67 2.38311 -8.41922 0
M  V30 18579 C 3034.16 0.491279 -7.02284 0
M  V30 18580 C 3033.45 0.996264 -5.77469 0
M  V30 18581 N 3033.5 0.0501808 -4.62873 0
M  V30 18582 C 3033.65 0.588177 -3.36904 0
M  V30 18583 O 3033.74 1.78598 -3.17173 0
M  V30 18584 N 3033.69 -0.329694 -2.33686 0
M  V30 18585 C 3033.6 -1.6953 -2.45079 0
M  V30 18586 O 3033.65 -2.41926 -1.44899 0
M  V30 18587 C 3033.45 -2.16933 -3.80505 0
M  V30 18588 C 3033.34 -3.65373 -3.97621 0
M  V30 18589 C 3033.4 -1.30326 -4.83752 0
M  V30 18590 H 3030.66 -0.374722 -8.67691 0
M  V30 18591 H 3030.39 -0.443421 -6.90177 0
M  V30 18592 H 3031.26 1.75537 -7.96793 0
M  V30 18593 H 3033.92 1.94496 -5.46629 0
M  V30 18594 H 3034.19 -0.608651 -7.04676 0
M  V30 18595 H 3035.19 0.889672 -7.08939 0
M  V30 18596 H 3033.35 0.43308 -9.04564 0
M  V30 18597 H 3033.28 -1.68366 -5.8516 0
M  V30 18598 H 3034.31 -4.05985 -4.30448 0
M  V30 18599 H 3032.57 -3.88028 -4.72875 0
M  V30 18600 H 3033.06 -4.11381 -3.01609 0
M  V30 18601 H 3033.8 0.0393617 -1.41345 0
M  V30 18602 P 3035.22 2.75334 -8.47391 0
M  V30 18603 O 3035.44 3.84204 -9.44982 0
M  V30 18604 O 3036.01 1.51982 -8.68909 0
M  V30 18605 O 3035.47 3.29363 -6.99321 0
M  V30 18606 C 3034.53 4.24066 -6.42823 0
M  V30 18607 C 3035.26 5.20775 -5.52155 0
M  V30 18608 O 3035.47 4.56607 -4.22514 0
M  V30 18609 C 3036.66 5.62697 -5.96604 0
M  V30 18610 O 3037.05 6.87667 -5.41053 0
M  V30 18611 C 3037.54 4.52537 -5.39283 0
M  V30 18612 C 3036.83 4.20027 -4.08623 0
M  V30 18613 N 3036.88 2.76189 -3.71603 0
M  V30 18614 C 3036.8 1.66944 -4.54297 0
M  V30 18615 N 3036.87 0.536169 -3.91344 0
M  V30 18616 C 3037.02 0.901569 -2.58849 0
M  V30 18617 C 3037.15 0.146599 -1.40236 0
M  V30 18618 N 3037.16 -1.18234 -1.37046 0
M  V30 18619 N 3037.27 0.822941 -0.249738 0
M  V30 18620 C 3037.26 2.15179 -0.280525 0
M  V30 18621 N 3037.14 2.96414 -1.30822 0
M  V30 18622 C 3037.02 2.25804 -2.44748 0
M  V30 18623 H 3034.04 4.79756 -7.24086 0
M  V30 18624 H 3033.77 3.69963 -5.84682 0
M  V30 18625 H 3034.64 6.10431 -5.41508 0
M  V30 18626 H 3037.3 4.78816 -3.28024 0
M  V30 18627 H 3037.58 3.64957 -6.05871 0
M  V30 18628 H 3038.57 4.88748 -5.21323 0
M  V30 18629 H 3036.73 5.66789 -7.0643 0
M  V30 18630 H 3036.69 1.74684 -5.62396 0
M  V30 18631 H 3037.07 -1.71949 -2.24394 0
M  V30 18632 H 3037.26 -1.67511 -0.470742 0
M  V30 18633 H 3037.37 2.63704 0.6828 0
M  V30 18634 P 3038.6 7.20834 -5.23717 0
M  V30 18635 O 3038.82 8.66274 -5.38678 0
M  V30 18636 O 3039.39 6.33687 -6.13629 0
M  V30 18637 O 3038.85 6.7751 -3.72168 0
M  V30 18638 C 3037.91 7.20919 -2.70795 0
M  V30 18639 C 3038.64 7.45864 -1.40599 0
M  V30 18640 O 3038.85 6.17751 -0.734343 0
M  V30 18641 C 3040.04 8.05906 -1.51917 0
M  V30 18642 O 3040.43 8.74358 -0.335205 0
M  V30 18643 C 3040.92 6.83093 -1.70294 0
M  V30 18644 C 3040.21 5.79992 -0.836974 0
M  V30 18645 N 3040.26 4.41864 -1.38293 0
M  V30 18646 C 3040.18 4.02089 -2.69407 0
M  V30 18647 N 3040.25 2.73403 -2.85089 0
M  V30 18648 C 3040.4 2.25086 -1.5642 0
M  V30 18649 C 3040.53 0.942887 -1.04836 0
M  V30 18650 N 3040.54 -0.150999 -1.80369 0
M  V30 18651 N 3040.65 0.812565 0.28167 0
M  V30 18652 C 3040.64 1.90572 1.03784 0
M  V30 18653 N 3040.52 3.167 0.683905 0
M  V30 18654 C 3040.4 3.26538 -0.652815 0
M  V30 18655 H 3037.42 8.13738 -3.03804 0
M  V30 18656 H 3037.15 6.42974 -2.55559 0
M  V30 18657 H 3038.02 8.12139 -0.792866 0
M  V30 18658 H 3040.68 5.80178 0.160643 0
M  V30 18659 H 3040.96 6.51379 -2.75643 0
M  V30 18660 H 3041.95 7.01832 -1.3448 0
M  V30 18661 H 3040.11 8.73771 -2.38364 0
M  V30 18662 H 3040.07 4.7189 -3.52311 0
M  V30 18663 H 3040.45 -0.0721434 -2.82608 0
M  V30 18664 H 3040.64 -1.0785 -1.36544 0
M  V30 18665 H 3040.75 1.73207 2.10241 0
M  V30 18666 P 3041.98 8.91 -9.83259e-11 0
M  V30 18667 O 3042.2 10.1726 0.733694 0
M  V30 18668 O 3042.77 8.73148 -1.23936 0
M  V30 18669 O 3042.23 7.66872 0.971405 0
M  V30 18670 C 3041.29 7.42309 2.04641 0
M  V30 18671 C 3042.02 6.86059 3.24661 0
M  V30 18672 O 3042.23 5.42847 3.03646 0
M  V30 18673 C 3043.42 7.41196 3.50753 0
M  V30 18674 O 3043.81 7.27073 4.86816 0
M  V30 18675 C 3044.3 6.5273 2.63741 0
M  V30 18676 C 3043.59 5.1842 2.73198 0
M  V30 18677 N 3043.64 4.38762 1.4784 0
M  V30 18678 C 3043.56 4.81605 0.168631 0
M  V30 18679 N 3043.64 3.85454 -0.713363 0
M  V30 18680 C 3043.78 2.6994 0.0566958 0
M  V30 18681 C 3043.91 1.34815 -0.338502 0
M  V30 18682 O 3043.93 0.869548 -1.47125 0
M  V30 18683 N 3044.03 0.496304 0.77465 0
M  V30 18684 C 3044.03 0.908403 2.09122 0
M  V30 18685 N 3044.16 -0.0517805 3.00955 0
M  V30 18686 N 3043.9 2.17875 2.46519 0
M  V30 18687 C 3043.78 3.01988 1.4033 0
M  V30 18688 H 3040.8 8.36803 2.32493 0
M  V30 18689 H 3040.53 6.70197 1.71129 0
M  V30 18690 H 3041.4 7.03551 4.13168 0
M  V30 18691 H 3044.06 4.59498 3.54415 0
M  V30 18692 H 3044.33 6.88898 1.59848 0
M  V30 18693 H 3045.33 6.46749 3.03687 0
M  V30 18694 H 3043.49 8.46908 3.20714 0
M  V30 18695 H 3043.44 5.86405 -0.105564 0
M  V30 18696 H 3044.13 -0.483664 0.597855 0
M  V30 18697 H 3044.16 0.187865 4.0116 0
M  V30 18698 H 3044.26 -1.03585 2.71726 0
M  V30 18699 P 3045.36 7.20834 5.23717 0
M  V30 18700 O 3045.58 7.79853 6.57286 0
M  V30 18701 O 3046.15 7.79239 4.12957 0
M  V30 18702 O 3045.61 5.63315 5.29344 0
M  V30 18703 C 3044.67 4.80255 6.01876 0
M  V30 18704 C 3045.4 3.64202 6.65911 0
M  V30 18705 O 3045.61 2.60694 5.64732 0
M  V30 18706 C 3046.8 3.93473 7.1943 0
M  V30 18707 O 3047.19 3.02071 8.21205 0
M  V30 18708 C 3047.68 3.73047 5.97036 0
M  V30 18709 C 3046.97 2.58828 5.25741 0
M  V30 18710 N 3047.02 2.68068 3.77503 0
M  V30 18711 H 3044.18 5.40332 6.79951 0
M  V30 18712 H 3043.91 4.41613 5.32378 0
M  V30 18713 H 3044.78 3.26331 7.47797 0
M  V30 18714 P 3048.74 2.75334 8.47391 0
M  V30 18715 O 3048.96 2.44595 9.90239 0
M  V30 18716 O 3049.53 3.87732 7.92204 0
M  V30 18717 O 3048.99 1.4459 7.59357 0
M  V30 18718 C 3048.05 0.347563 7.69115 0
M  V30 18719 C 3048.78 -0.96767 7.52806 0
M  V30 18720 O 3048.99 -1.21036 6.1011 0
M  V30 18721 C 3050.18 -1.04544 8.13308 0
M  V30 18722 O 3050.57 -2.38311 8.41922 0
M  V30 18723 C 3051.06 -0.491279 7.02284 0
M  V30 18724 C 3050.35 -0.996264 5.77469 0
M  V30 18725 N 3050.4 -0.0501808 4.62873 0
M  V30 18726 C 3050.55 -0.588177 3.36904 0
M  V30 18727 O 3050.64 -1.78598 3.17173 0
M  V30 18728 N 3050.59 0.329694 2.33686 0
M  V30 18729 C 3050.5 1.6953 2.45079 0
M  V30 18730 O 3050.55 2.41926 1.44899 0
M  V30 18731 C 3050.35 2.16933 3.80505 0
M  V30 18732 C 3050.24 3.65373 3.97621 0
M  V30 18733 C 3050.3 1.30326 4.83752 0
M  V30 18734 H 3047.56 0.374722 8.67691 0
M  V30 18735 H 3047.29 0.443421 6.90177 0
M  V30 18736 H 3048.16 -1.75537 7.96793 0
M  V30 18737 H 3050.81 -1.94496 5.46629 0
M  V30 18738 H 3051.09 0.608651 7.04676 0
M  V30 18739 H 3052.09 -0.889672 7.08939 0
M  V30 18740 H 3050.25 -0.43308 9.04564 0
M  V30 18741 H 3050.18 1.68366 5.8516 0
M  V30 18742 H 3051.21 4.05985 4.30448 0
M  V30 18743 H 3049.47 3.88028 4.72875 0
M  V30 18744 H 3049.96 4.11381 3.01609 0
M  V30 18745 H 3050.7 -0.0393617 1.41345 0
M  V30 18746 P 3052.12 -2.75334 8.47391 0
M  V30 18747 O 3052.34 -3.84204 9.44982 0
M  V30 18748 O 3052.91 -1.51982 8.68909 0
M  V30 18749 O 3052.37 -3.29363 6.99321 0
M  V30 18750 C 3051.43 -4.24066 6.42823 0
M  V30 18751 C 3052.16 -5.20775 5.52155 0
M  V30 18752 O 3052.37 -4.56607 4.22514 0
M  V30 18753 C 3053.56 -5.62697 5.96604 0
M  V30 18754 O 3053.95 -6.87667 5.41053 0
M  V30 18755 C 3054.44 -4.52537 5.39283 0
M  V30 18756 C 3053.73 -4.20027 4.08623 0
M  V30 18757 N 3053.78 -2.76189 3.71603 0
M  V30 18758 C 3053.7 -1.66944 4.54297 0
M  V30 18759 N 3053.77 -0.536169 3.91344 0
M  V30 18760 C 3053.92 -0.901569 2.58849 0
M  V30 18761 C 3054.05 -0.146599 1.40236 0
M  V30 18762 N 3054.06 1.18234 1.37046 0
M  V30 18763 N 3054.17 -0.822941 0.249738 0
M  V30 18764 C 3054.16 -2.15179 0.280525 0
M  V30 18765 N 3054.04 -2.96414 1.30822 0
M  V30 18766 C 3053.92 -2.25804 2.44748 0
M  V30 18767 H 3050.94 -4.79756 7.24086 0
M  V30 18768 H 3050.67 -3.69963 5.84682 0
M  V30 18769 H 3051.54 -6.10431 5.41508 0
M  V30 18770 H 3054.19 -4.78816 3.28024 0
M  V30 18771 H 3054.47 -3.64957 6.05871 0
M  V30 18772 H 3055.47 -4.88748 5.21323 0
M  V30 18773 H 3053.63 -5.66789 7.0643 0
M  V30 18774 H 3053.59 -1.74684 5.62396 0
M  V30 18775 H 3053.97 1.71949 2.24394 0
M  V30 18776 H 3054.16 1.67511 0.470742 0
M  V30 18777 H 3054.27 -2.63704 -0.6828 0
M  V30 18778 P 3055.5 -7.20834 5.23717 0
M  V30 18779 O 3055.72 -8.66274 5.38678 0
M  V30 18780 O 3056.29 -6.33687 6.13629 0
M  V30 18781 O 3055.75 -6.7751 3.72168 0
M  V30 18782 C 3054.81 -7.20919 2.70795 0
M  V30 18783 C 3055.54 -7.45864 1.40599 0
M  V30 18784 O 3055.75 -6.17751 0.734343 0
M  V30 18785 C 3056.94 -8.05906 1.51917 0
M  V30 18786 O 3057.33 -8.74358 0.335205 0
M  V30 18787 C 3057.82 -6.83093 1.70294 0
M  V30 18788 C 3057.11 -5.79992 0.836974 0
M  V30 18789 N 3057.16 -4.41864 1.38293 0
M  V30 18790 H 3054.32 -8.13738 3.03804 0
M  V30 18791 H 3054.05 -6.42974 2.55559 0
M  V30 18792 H 3054.92 -8.12139 0.792866 0
M  V30 18793 H 3057.57 -5.80178 -0.160643 0
M  V30 18794 H 3057.85 -6.51379 2.75643 0
M  V30 18795 H 3058.85 -7.01832 1.3448 0
M  V30 18796 H 3057.01 -8.73771 2.38364 0
M  V30 18797 P 3058.88 -8.91 9.94349e-11 0
M  V30 18798 O 3059.1 -10.1726 -0.733694 0
M  V30 18799 O 3059.67 -8.73148 1.23936 0
M  V30 18800 O 3059.13 -7.66872 -0.971405 0
M  V30 18801 C 3058.19 -7.42309 -2.04641 0
M  V30 18802 C 3058.92 -6.86059 -3.24661 0
M  V30 18803 O 3059.13 -5.42847 -3.03646 0
M  V30 18804 C 3060.32 -7.41196 -3.50753 0
M  V30 18805 O 3060.71 -7.27073 -4.86816 0
M  V30 18806 C 3061.2 -6.5273 -2.63741 0
M  V30 18807 C 3060.49 -5.1842 -2.73198 0
M  V30 18808 N 3060.54 -4.38762 -1.4784 0
M  V30 18809 C 3060.46 -4.81605 -0.168631 0
M  V30 18810 N 3060.54 -3.85454 0.713363 0
M  V30 18811 C 3060.68 -2.6994 -0.0566958 0
M  V30 18812 C 3060.81 -1.34815 0.338502 0
M  V30 18813 O 3060.83 -0.869548 1.47125 0
M  V30 18814 N 3060.93 -0.496304 -0.77465 0
M  V30 18815 C 3060.93 -0.908403 -2.09122 0
M  V30 18816 N 3061.06 0.0517805 -3.00955 0
M  V30 18817 N 3060.8 -2.17875 -2.46519 0
M  V30 18818 C 3060.68 -3.01988 -1.4033 0
M  V30 18819 H 3057.7 -8.36803 -2.32493 0
M  V30 18820 H 3057.43 -6.70197 -1.71129 0
M  V30 18821 H 3058.3 -7.03551 -4.13168 0
M  V30 18822 H 3060.95 -4.59498 -3.54415 0
M  V30 18823 H 3061.23 -6.88898 -1.59848 0
M  V30 18824 H 3062.23 -6.46749 -3.03687 0
M  V30 18825 H 3060.39 -8.46908 -3.20714 0
M  V30 18826 H 3060.34 -5.86405 0.105564 0
M  V30 18827 H 3061.02 0.483664 -0.597855 0
M  V30 18828 H 3061.06 -0.187865 -4.0116 0
M  V30 18829 H 3061.16 1.03585 -2.71726 0
M  V30 18830 P 3062.26 -7.20834 -5.23717 0
M  V30 18831 O 3062.48 -7.79853 -6.57286 0
M  V30 18832 O 3063.05 -7.79239 -4.12957 0
M  V30 18833 O 3062.51 -5.63315 -5.29344 0
M  V30 18834 C 3061.57 -4.80255 -6.01876 0
M  V30 18835 C 3062.3 -3.64202 -6.65911 0
M  V30 18836 O 3062.51 -2.60694 -5.64732 0
M  V30 18837 C 3063.7 -3.93473 -7.1943 0
M  V30 18838 O 3064.09 -3.02071 -8.21205 0
M  V30 18839 C 3064.58 -3.73047 -5.97036 0
M  V30 18840 C 3063.87 -2.58828 -5.25741 0
M  V30 18841 N 3063.92 -2.68068 -3.77503 0
M  V30 18842 H 3061.08 -5.40332 -6.79951 0
M  V30 18843 H 3060.81 -4.41613 -5.32378 0
M  V30 18844 H 3061.68 -3.26331 -7.47797 0
M  V30 18845 P 3065.64 -2.75334 -8.47391 0
M  V30 18846 O 3065.86 -2.44571 -9.90142 0
M  V30 18847 O 3066.43 -3.87688 -7.92115 0
M  V30 18848 O 3065.89 -1.4459 -7.59357 0
M  V30 18849 C 3064.95 -0.347608 -7.69215 0
M  V30 18850 C 3065.68 0.96767 -7.52806 0
M  V30 18851 O 3065.89 1.21036 -6.1011 0
M  V30 18852 C 3067.08 1.04544 -8.13308 0
M  V30 18853 O 3067.47 2.38311 -8.41922 0
M  V30 18854 C 3067.96 0.491279 -7.02284 0
M  V30 18855 C 3067.25 0.996264 -5.77469 0
M  V30 18856 N 3067.3 0.0501916 -4.62973 0
M  V30 18857 H 3064.46 -0.374722 -8.67691 0
M  V30 18858 H 3064.19 -0.443485 -6.90277 0
M  V30 18859 H 3065.06 1.75537 -7.96793 0
M  V30 18860 P 3069.02 2.75334 -8.47391 0
M  V30 18861 O 3069.24 3.84204 -9.44982 0
M  V30 18862 O 3069.81 1.51982 -8.68909 0
M  V30 18863 O 3069.27 3.29363 -6.99321 0
M  V30 18864 C 3068.33 4.24066 -6.42823 0
M  V30 18865 C 3069.06 5.20775 -5.52155 0
M  V30 18866 O 3069.27 4.56607 -4.22514 0
M  V30 18867 C 3070.46 5.62697 -5.96604 0
M  V30 18868 O 3070.85 6.87667 -5.41053 0
M  V30 18869 C 3071.34 4.52537 -5.39283 0
M  V30 18870 C 3070.63 4.20027 -4.08623 0
M  V30 18871 N 3070.68 2.76189 -3.71603 0
M  V30 18872 H 3067.84 4.79756 -7.24086 0
M  V30 18873 H 3067.57 3.69963 -5.84682 0
M  V30 18874 H 3068.44 6.10431 -5.41508 0
M  V30 18875 H 3071.09 4.78816 -3.28024 0
M  V30 18876 H 3071.37 3.64957 -6.05871 0
M  V30 18877 H 3072.37 4.88748 -5.21323 0
M  V30 18878 H 3070.53 5.66789 -7.0643 0
M  V30 18879 P 3072.4 7.20834 -5.23717 0
M  V30 18880 O 3072.62 8.66274 -5.38678 0
M  V30 18881 O 3073.19 6.33687 -6.13629 0
M  V30 18882 O 3072.65 6.7751 -3.72168 0
M  V30 18883 C 3071.71 7.20919 -2.70795 0
M  V30 18884 C 3072.44 7.45864 -1.40599 0
M  V30 18885 O 3072.65 6.17751 -0.734343 0
M  V30 18886 C 3073.84 8.05906 -1.51917 0
M  V30 18887 O 3074.23 8.74358 -0.335205 0
M  V30 18888 C 3074.72 6.83093 -1.70294 0
M  V30 18889 C 3074.01 5.79992 -0.836974 0
M  V30 18890 N 3074.06 4.41864 -1.38293 0
M  V30 18891 C 3073.98 4.02089 -2.69407 0
M  V30 18892 N 3074.05 2.73403 -2.85089 0
M  V30 18893 C 3074.2 2.25086 -1.5642 0
M  V30 18894 C 3074.33 0.942887 -1.04836 0
M  V30 18895 N 3074.34 -0.150999 -1.80369 0
M  V30 18896 N 3074.45 0.812565 0.28167 0
M  V30 18897 C 3074.44 1.90572 1.03784 0
M  V30 18898 N 3074.32 3.167 0.683905 0
M  V30 18899 C 3074.2 3.26538 -0.652815 0
M  V30 18900 H 3071.22 8.13738 -3.03804 0
M  V30 18901 H 3070.95 6.42974 -2.55559 0
M  V30 18902 H 3071.82 8.12139 -0.792866 0
M  V30 18903 H 3074.47 5.80178 0.160643 0
M  V30 18904 H 3074.75 6.51379 -2.75643 0
M  V30 18905 H 3075.75 7.01832 -1.3448 0
M  V30 18906 H 3073.91 8.73771 -2.38364 0
M  V30 18907 H 3073.87 4.7189 -3.52311 0
M  V30 18908 H 3074.25 -0.0721434 -2.82608 0
M  V30 18909 H 3074.44 -1.0785 -1.36544 0
M  V30 18910 H 3074.55 1.73207 2.10241 0
M  V30 18911 P 3075.78 8.91 -1.00544e-10 0
M  V30 18912 O 3076 10.1726 0.733694 0
M  V30 18913 O 3076.57 8.73148 -1.23936 0
M  V30 18914 O 3076.03 7.66872 0.971405 0
M  V30 18915 C 3075.09 7.42309 2.04641 0
M  V30 18916 C 3075.82 6.86059 3.24661 0
M  V30 18917 O 3076.03 5.42847 3.03646 0
M  V30 18918 C 3077.22 7.41196 3.50753 0
M  V30 18919 O 3077.61 7.27073 4.86816 0
M  V30 18920 C 3078.1 6.5273 2.63741 0
M  V30 18921 C 3077.39 5.1842 2.73198 0
M  V30 18922 N 3077.44 4.38762 1.4784 0
M  V30 18923 H 3074.6 8.36803 2.32493 0
M  V30 18924 H 3074.33 6.70197 1.71129 0
M  V30 18925 H 3075.2 7.03551 4.13168 0
M  V30 18926 P 3079.16 7.20834 5.23717 0
M  V30 18927 O 3079.38 7.80006 6.57415 0
M  V30 18928 O 3079.95 7.79416 4.13051 0
M  V30 18929 O 3079.41 5.63315 5.29344 0
M  V30 18930 C 3078.47 4.80318 6.01954 0
M  V30 18931 C 3079.2 3.64202 6.65911 0
M  V30 18932 O 3079.41 2.60736 5.64823 0
M  V30 18933 C 3080.6 3.93521 7.19518 0
M  V30 18934 O 3080.99 3.02071 8.21205 0
M  V30 18935 C 3081.48 3.73047 5.97036 0
M  V30 18936 C 3080.77 2.58828 5.25741 0
M  V30 18937 N 3080.82 2.68068 3.77503 0
M  V30 18938 H 3077.98 5.40394 6.8003 0
M  V30 18939 H 3077.71 4.41741 5.32532 0
M  V30 18940 H 3078.58 3.26371 7.47889 0
M  V30 18941 H 3081.23 1.64007 5.56746 0
M  V30 18942 H 3081.51 4.63439 5.3432 0
M  V30 18943 H 3082.51 3.44776 6.25925 0
M  V30 18944 H 3080.67 4.96707 7.57347 0
M  V30 18945 P 3082.54 2.75334 8.47391 0
M  V30 18946 O 3082.76 2.44571 9.90142 0
M  V30 18947 O 3083.33 3.87688 7.92115 0
M  V30 18948 O 3082.79 1.4459 7.59357 0
M  V30 18949 C 3081.85 0.347608 7.69215 0
M  V30 18950 C 3082.58 -0.96767 7.52806 0
M  V30 18951 O 3082.79 -1.21036 6.1011 0
M  V30 18952 C 3083.98 -1.04544 8.13308 0
M  V30 18953 O 3084.37 -2.38311 8.41922 0
M  V30 18954 C 3084.86 -0.491279 7.02284 0
M  V30 18955 C 3084.15 -0.996264 5.77469 0
M  V30 18956 N 3084.2 -0.0501916 4.62973 0
M  V30 18957 H 3081.36 0.374722 8.67691 0
M  V30 18958 H 3081.09 0.443485 6.90277 0
M  V30 18959 H 3081.96 -1.75537 7.96793 0
M  V30 18960 P 3085.92 -2.75334 8.47391 0
M  V30 18961 O 3086.14 -3.84128 9.44797 0
M  V30 18962 O 3086.71 -1.51947 8.68712 0
M  V30 18963 O 3086.17 -3.29363 6.99321 0
M  V30 18964 C 3085.23 -4.24011 6.4274 0
M  V30 18965 C 3085.96 -5.20775 5.52155 0
M  V30 18966 O 3086.17 -4.56534 4.22446 0
M  V30 18967 C 3087.36 -5.62629 5.96531 0
M  V30 18968 O 3087.75 -6.87667 5.41053 0
M  V30 18969 C 3088.24 -4.52537 5.39283 0
M  V30 18970 C 3087.53 -4.20027 4.08623 0
M  V30 18971 N 3087.58 -2.76189 3.71603 0
M  V30 18972 H 3084.74 -4.797 7.24003 0
M  V30 18973 H 3084.47 -3.69856 5.84513 0
M  V30 18974 H 3085.34 -6.10356 5.41441 0
M  V30 18975 P 3089.3 -7.20834 5.23717 0
M  V30 18976 O 3089.52 -8.66104 5.38572 0
M  V30 18977 O 3090.09 -6.33544 6.1349 0
M  V30 18978 O 3089.55 -6.7751 3.72168 0
M  V30 18979 C 3088.61 -7.20825 2.7076 0
M  V30 18980 C 3089.34 -7.45864 1.40599 0
M  V30 18981 O 3089.55 -6.17651 0.734225 0
M  V30 18982 C 3090.74 -8.05808 1.51899 0
M  V30 18983 O 3091.13 -8.74358 0.335205 0
M  V30 18984 C 3091.62 -6.83093 1.70294 0
M  V30 18985 C 3090.91 -5.79992 0.836974 0
M  V30 18986 N 3090.96 -4.41864 1.38293 0
M  V30 18987 C 3090.88 -3.99538 2.69438 0
M  V30 18988 N 3090.96 -2.69909 2.84277 0
M  V30 18989 C 3091.1 -2.21719 1.5408 0
M  V30 18990 C 3091.23 -0.891712 1.06628 0
M  V30 18991 N 3091.35 -0.856846 -0.334985 0
M  V30 18992 C 3091.35 -1.9641 -1.15789 0
M  V30 18993 N 3091.48 -1.72708 -2.46522 0
M  V30 18994 N 3091.22 -3.21165 -0.713741 0
M  V30 18995 C 3091.1 -3.26797 0.639748 0
M  V30 18996 H 3088.12 -8.13644 3.0377 0
M  V30 18997 H 3087.85 -6.42788 2.55485 0
M  V30 18998 H 3088.72 -8.12039 0.792769 0
M  V30 18999 P 3092.68 -8.91 1.01653e-10 0
M  V30 19000 O 3092.9 -10.1746 -0.733838 0
M  V30 19001 O 3093.47 -8.73346 1.23964 0
M  V30 19002 O 3092.93 -7.66872 -0.971405 0
M  V30 19003 C 3091.99 -7.42405 -2.04668 0
M  V30 19004 C 3092.72 -6.86059 -3.24661 0
M  V30 19005 O 3092.93 -5.42934 -3.03695 0
M  V30 19006 C 3094.12 -7.41287 -3.50796 0
M  V30 19007 O 3094.51 -7.27073 -4.86816 0
M  V30 19008 C 3095 -6.5273 -2.63741 0
M  V30 19009 C 3094.29 -5.1842 -2.73198 0
M  V30 19010 N 3094.34 -4.38762 -1.4784 0
M  V30 19011 C 3094.26 -4.83651 -0.183876 0
M  V30 19012 N 3094.33 -3.88759 0.699393 0
M  V30 19013 C 3094.48 -2.7404 -0.0575568 0
M  V30 19014 C 3094.61 -1.37902 0.293928 0
M  V30 19015 N 3094.62 -0.938021 1.54797 0
M  V30 19016 N 3094.73 -0.491817 -0.70549 0
M  V30 19017 C 3094.72 -0.931735 -1.95979 0
M  V30 19018 N 3094.6 -2.16017 -2.41481 0
M  V30 19019 C 3094.48 -3.02547 -1.39121 0
M  V30 19020 H 3091.5 -8.36899 -2.3252 0
M  V30 19021 H 3091.23 -6.70391 -1.71179 0
M  V30 19022 H 3092.1 -7.03638 -4.13219 0
M  V30 19023 H 3094.75 -4.59931 -3.54016 0
M  V30 19024 H 3095.03 -6.88995 -1.59871 0
M  V30 19025 H 3096.03 -6.4684 -3.0373 0
M  V30 19026 H 3094.19 -8.47002 -3.20749 0
M  V30 19027 H 3094.15 -5.8885 0.0765548 0
M  V30 19028 H 3094.53 -1.60276 2.32875 0
M  V30 19029 H 3094.72 0.0699355 1.73859 0
M  V30 19030 H 3094.83 -0.165507 -2.71897 0
M  V30 19031 P 3096.06 -7.20834 -5.23717 0
M  V30 19032 O 3096.28 -7.79853 -6.57286 0
M  V30 19033 O 3096.85 -7.79239 -4.12957 0
M  V30 19034 O 3096.31 -5.63315 -5.29344 0
M  V30 19035 C 3095.37 -4.80255 -6.01876 0
M  V30 19036 C 3096.1 -3.64202 -6.65911 0
M  V30 19037 O 3096.31 -2.60694 -5.64732 0
M  V30 19038 C 3097.5 -3.93473 -7.1943 0
M  V30 19039 O 3097.89 -3.02071 -8.21205 0
M  V30 19040 C 3098.38 -3.73047 -5.97036 0
M  V30 19041 C 3097.67 -2.58828 -5.25741 0
M  V30 19042 N 3097.72 -2.68068 -3.77503 0
M  V30 19043 H 3094.88 -5.40332 -6.79951 0
M  V30 19044 H 3094.61 -4.41613 -5.32378 0
M  V30 19045 H 3095.48 -3.26331 -7.47797 0
M  V30 19046 P 3099.44 -2.75334 -8.47391 0
M  V30 19047 O 3099.66 -2.44571 -9.90142 0
M  V30 19048 O 3100.23 -3.87688 -7.92115 0
M  V30 19049 O 3099.69 -1.4459 -7.59357 0
M  V30 19050 C 3098.75 -0.347608 -7.69215 0
M  V30 19051 C 3099.48 0.96767 -7.52806 0
M  V30 19052 O 3099.69 1.21036 -6.1011 0
M  V30 19053 C 3100.88 1.04544 -8.13308 0
M  V30 19054 O 3101.27 2.38311 -8.41922 0
M  V30 19055 C 3101.76 0.491279 -7.02284 0
M  V30 19056 C 3101.05 0.996264 -5.77469 0
M  V30 19057 N 3101.1 0.0501916 -4.62973 0
M  V30 19058 H 3098.26 -0.374722 -8.67691 0
M  V30 19059 H 3097.99 -0.443485 -6.90277 0
M  V30 19060 H 3098.86 1.75537 -7.96793 0
M  V30 19061 P 3102.82 2.75334 -8.47391 0
M  V30 19062 O 3103.04 3.84128 -9.44797 0
M  V30 19063 O 3103.61 1.51947 -8.68712 0
M  V30 19064 O 3103.07 3.29363 -6.99321 0
M  V30 19065 C 3102.13 4.24011 -6.4274 0
M  V30 19066 C 3102.86 5.20775 -5.52155 0
M  V30 19067 O 3103.07 4.56534 -4.22446 0
M  V30 19068 C 3104.26 5.62629 -5.96531 0
M  V30 19069 O 3104.65 6.87667 -5.41053 0
M  V30 19070 C 3105.14 4.52537 -5.39283 0
M  V30 19071 C 3104.43 4.20027 -4.08623 0
M  V30 19072 N 3104.48 2.76189 -3.71603 0
M  V30 19073 H 3101.64 4.797 -7.24003 0
M  V30 19074 H 3101.37 3.69856 -5.84513 0
M  V30 19075 H 3102.24 6.10356 -5.41441 0
M  V30 19076 P 3106.2 7.20834 -5.23717 0
M  V30 19077 O 3106.42 8.66104 -5.38572 0
M  V30 19078 O 3106.99 6.33544 -6.1349 0
M  V30 19079 O 3106.45 6.7751 -3.72168 0
M  V30 19080 C 3105.51 7.20825 -2.7076 0
M  V30 19081 C 3106.24 7.45864 -1.40599 0
M  V30 19082 O 3106.45 6.17651 -0.734225 0
M  V30 19083 C 3107.64 8.05808 -1.51899 0
M  V30 19084 O 3108.03 8.74358 -0.335205 0
M  V30 19085 C 3108.52 6.83093 -1.70294 0
M  V30 19086 C 3107.81 5.79992 -0.836974 0
M  V30 19087 N 3107.86 4.41864 -1.38293 0
M  V30 19088 H 3105.02 8.13644 -3.0377 0
M  V30 19089 H 3104.75 6.42788 -2.55485 0
M  V30 19090 H 3105.62 8.12039 -0.792769 0
M  V30 19091 P 3109.58 8.91 -1.02762e-10 0
M  V30 19092 O 3109.8 10.1726 0.733694 0
M  V30 19093 O 3110.37 8.73148 -1.23936 0
M  V30 19094 O 3109.83 7.66872 0.971405 0
M  V30 19095 C 3108.89 7.42309 2.04641 0
M  V30 19096 C 3109.62 6.86059 3.24661 0
M  V30 19097 O 3109.83 5.42847 3.03646 0
M  V30 19098 C 3111.02 7.41196 3.50753 0
M  V30 19099 O 3111.41 7.27073 4.86816 0
M  V30 19100 C 3111.9 6.5273 2.63741 0
M  V30 19101 C 3111.19 5.1842 2.73198 0
M  V30 19102 N 3111.24 4.38762 1.4784 0
M  V30 19103 H 3108.4 8.36803 2.32493 0
M  V30 19104 H 3108.13 6.70197 1.71129 0
M  V30 19105 H 3109 7.03551 4.13168 0
M  V30 19106 P 3112.96 7.20834 5.23717 0
M  V30 19107 O 3113.18 7.79853 6.57286 0
M  V30 19108 O 3113.75 7.79239 4.12957 0
M  V30 19109 O 3113.21 5.63315 5.29344 0
M  V30 19110 C 3112.27 4.80255 6.01876 0
M  V30 19111 C 3113 3.64202 6.65911 0
M  V30 19112 O 3113.21 2.60694 5.64732 0
M  V30 19113 C 3114.4 3.93473 7.1943 0
M  V30 19114 O 3114.79 3.02071 8.21205 0
M  V30 19115 C 3115.28 3.73047 5.97036 0
M  V30 19116 C 3114.57 2.58828 5.25741 0
M  V30 19117 N 3114.62 2.68068 3.77503 0
M  V30 19118 H 3111.78 5.40332 6.79951 0
M  V30 19119 H 3111.51 4.41613 5.32378 0
M  V30 19120 H 3112.38 3.26331 7.47797 0
M  V30 19121 P 3116.34 2.75334 8.47391 0
M  V30 19122 O 3116.56 2.44571 9.90142 0
M  V30 19123 O 3117.13 3.87688 7.92115 0
M  V30 19124 O 3116.59 1.4459 7.59357 0
M  V30 19125 C 3115.65 0.347608 7.69215 0
M  V30 19126 C 3116.38 -0.96767 7.52806 0
M  V30 19127 O 3116.59 -1.21036 6.1011 0
M  V30 19128 C 3117.78 -1.04544 8.13308 0
M  V30 19129 O 3118.17 -2.38311 8.41922 0
M  V30 19130 C 3118.66 -0.491279 7.02284 0
M  V30 19131 C 3117.95 -0.996264 5.77469 0
M  V30 19132 N 3118 -0.0501916 4.62973 0
M  V30 19133 H 3115.16 0.374722 8.67691 0
M  V30 19134 H 3114.89 0.443485 6.90277 0
M  V30 19135 H 3115.76 -1.75537 7.96793 0
M  V30 19136 P 3119.72 -2.75334 8.47391 0
M  V30 19137 O 3119.94 -3.84128 9.44797 0
M  V30 19138 O 3120.51 -1.51947 8.68712 0
M  V30 19139 O 3119.97 -3.29363 6.99321 0
M  V30 19140 C 3119.03 -4.24011 6.4274 0
M  V30 19141 C 3119.76 -5.20775 5.52155 0
M  V30 19142 O 3119.97 -4.56534 4.22446 0
M  V30 19143 C 3121.16 -5.62629 5.96531 0
M  V30 19144 O 3121.55 -6.87667 5.41053 0
M  V30 19145 C 3122.04 -4.52537 5.39283 0
M  V30 19146 C 3121.33 -4.20027 4.08623 0
M  V30 19147 N 3121.38 -2.76189 3.71603 0
M  V30 19148 H 3118.54 -4.797 7.24003 0
M  V30 19149 H 3118.27 -3.69856 5.84513 0
M  V30 19150 H 3119.14 -6.10356 5.41441 0
M  V30 19151 P 3123.1 -7.20834 5.23717 0
M  V30 19152 O 3123.32 -8.66104 5.38572 0
M  V30 19153 O 3123.89 -6.33544 6.1349 0
M  V30 19154 O 3123.35 -6.7751 3.72168 0
M  V30 19155 C 3122.41 -7.20825 2.7076 0
M  V30 19156 C 3123.14 -7.45864 1.40599 0
M  V30 19157 O 3123.35 -6.17651 0.734225 0
M  V30 19158 C 3124.54 -8.05808 1.51899 0
M  V30 19159 O 3124.93 -8.74358 0.335205 0
M  V30 19160 C 3125.42 -6.83093 1.70294 0
M  V30 19161 C 3124.71 -5.79992 0.836974 0
M  V30 19162 N 3124.76 -4.41864 1.38293 0
M  V30 19163 H 3121.92 -8.13644 3.0377 0
M  V30 19164 H 3121.65 -6.42788 2.55485 0
M  V30 19165 H 3122.52 -8.12039 0.792769 0
M  V30 19166 P 3126.48 -8.91 1.03871e-10 0
M  V30 19167 O 3126.7 -10.1736 -0.733766 0
M  V30 19168 O 3127.27 -8.73247 1.2395 0
M  V30 19169 O 3126.73 -7.66872 -0.971405 0
M  V30 19170 C 3125.79 -7.42309 -2.04641 0
M  V30 19171 C 3126.52 -6.86059 -3.24661 0
M  V30 19172 O 3126.73 -5.42847 -3.03646 0
M  V30 19173 C 3127.92 -7.41196 -3.50753 0
M  V30 19174 O 3128.31 -7.27073 -4.86816 0
M  V30 19175 C 3128.8 -6.5273 -2.63741 0
M  V30 19176 C 3128.09 -5.1842 -2.73198 0
M  V30 19177 N 3128.14 -4.38668 -1.47808 0
M  V30 19178 C 3128.29 -3.00789 -1.58511 0
M  V30 19179 O 3128.38 -2.50116 -2.71298 0
M  V30 19180 N 3128.34 -2.29703 -0.253698 0
M  V30 19181 C 3128.24 -2.84269 0.750133 0
M  V30 19182 N 3128.29 -2.06951 1.82612 0
M  V30 19183 C 3128.09 -4.25803 0.889776 0
M  V30 19184 C 3128.04 -4.98326 -0.259363 0
M  V30 19185 H 3125.3 -8.36707 -2.32466 0
M  V30 19186 H 3125.03 -6.701 -1.71105 0
M  V30 19187 H 3125.9 -7.03638 -4.13219 0
M  V30 19188 H 3128.55 -4.59852 -3.53955 0
M  V30 19189 H 3128.83 -6.88995 -1.59871 0
M  V30 19190 H 3129.83 -6.46749 -3.03687 0
M  V30 19191 H 3127.99 -8.46908 -3.20714 0
M  V30 19192 H 3127.92 -6.06349 -0.206238 0
M  V30 19193 H 3128.02 -4.73163 1.86796 0
M  V30 19194 H 3128.41 -1.05099 1.72271 0
M  V30 19195 H 3128.21 -2.48716 2.76361 0
M  V30 19196 P 3129.86 -7.20834 -5.23717 0
M  V30 19197 O 3130.08 -7.79853 -6.57286 0
M  V30 19198 O 3130.65 -7.79239 -4.12957 0
M  V30 19199 O 3130.11 -5.63315 -5.29344 0
M  V30 19200 C 3129.17 -4.80255 -6.01876 0
M  V30 19201 C 3129.9 -3.64202 -6.65911 0
M  V30 19202 O 3130.11 -2.60694 -5.64732 0
M  V30 19203 C 3131.3 -3.93473 -7.1943 0
M  V30 19204 O 3131.69 -3.02071 -8.21205 0
M  V30 19205 C 3132.18 -3.73047 -5.97036 0
M  V30 19206 C 3131.47 -2.58828 -5.25741 0
M  V30 19207 N 3131.52 -2.68068 -3.77503 0
M  V30 19208 H 3128.68 -5.40332 -6.79951 0
M  V30 19209 H 3128.41 -4.41613 -5.32378 0
M  V30 19210 H 3129.28 -3.26331 -7.47797 0
M  V30 19211 P 3133.24 -2.75334 -8.47391 0
M  V30 19212 O 3133.46 -2.44571 -9.90142 0
M  V30 19213 O 3134.03 -3.87688 -7.92115 0
M  V30 19214 O 3133.49 -1.4459 -7.59357 0
M  V30 19215 C 3132.55 -0.347608 -7.69215 0
M  V30 19216 C 3133.28 0.96767 -7.52806 0
M  V30 19217 O 3133.49 1.21036 -6.1011 0
M  V30 19218 C 3134.68 1.04544 -8.13308 0
M  V30 19219 O 3135.07 2.38311 -8.41922 0
M  V30 19220 C 3135.56 0.491279 -7.02284 0
M  V30 19221 C 3134.85 0.996264 -5.77469 0
M  V30 19222 N 3134.9 0.0501916 -4.62973 0
M  V30 19223 H 3132.06 -0.374722 -8.67691 0
M  V30 19224 H 3131.79 -0.443485 -6.90277 0
M  V30 19225 H 3132.66 1.75537 -7.96793 0
M  V30 19226 P 3136.62 2.75334 -8.47391 0
M  V30 19227 O 3136.84 3.84166 -9.4489 0
M  V30 19228 O 3137.41 1.51964 -8.6881 0
M  V30 19229 O 3136.87 3.29363 -6.99321 0
M  V30 19230 C 3135.93 4.23956 -6.42656 0
M  V30 19231 C 3136.66 5.20775 -5.52155 0
M  V30 19232 O 3136.87 4.56534 -4.22446 0
M  V30 19233 C 3138.06 5.62629 -5.96531 0
M  V30 19234 O 3138.45 6.87667 -5.41053 0
M  V30 19235 C 3138.94 4.52537 -5.39283 0
M  V30 19236 C 3138.23 4.20027 -4.08623 0
M  V30 19237 N 3138.28 2.7613 -3.71522 0
M  V30 19238 C 3138.43 2.45612 -2.37989 0
M  V30 19239 O 3138.52 3.30919 -1.51621 0
M  V30 19240 N 3138.47 1.10684 -2.08435 0
M  V30 19241 C 3138.38 0.0690084 -2.9792 0
M  V30 19242 O 3138.43 -1.10553 -2.59426 0
M  V30 19243 C 3138.23 0.481522 -4.35345 0
M  V30 19244 C 3138.12 -0.618778 -5.36443 0
M  V30 19245 C 3138.18 1.78906 -4.67968 0
M  V30 19246 H 3135.44 4.797 -7.24003 0
M  V30 19247 H 3135.17 3.69802 -5.84429 0
M  V30 19248 H 3136.04 6.10356 -5.41441 0
M  V30 19249 H 3138.69 4.78651 -3.27911 0
M  V30 19250 H 3138.97 3.64957 -6.05871 0
M  V30 19251 H 3139.97 4.8868 -5.2125 0
M  V30 19252 H 3138.13 5.66726 -7.06352 0
M  V30 19253 H 3138.06 2.07737 -5.72367 0
M  V30 19254 H 3139.09 -0.754375 -5.86871 0
M  V30 19255 H 3137.35 -0.359721 -6.10641 0
M  V30 19256 H 3137.84 -1.55533 -4.8581 0
M  V30 19257 H 3138.58 0.862651 -1.12037 0
M  V30 19258 P 3140 7.20834 -5.23717 0
M  V30 19259 O 3140.22 8.66104 -5.38572 0
M  V30 19260 O 3140.79 6.33544 -6.1349 0
M  V30 19261 O 3140.25 6.7751 -3.72168 0
M  V30 19262 C 3139.31 7.20825 -2.7076 0
M  V30 19263 C 3140.04 7.45864 -1.40599 0
M  V30 19264 O 3140.25 6.17651 -0.734225 0
M  V30 19265 C 3141.44 8.05808 -1.51899 0
M  V30 19266 O 3141.83 8.74358 -0.335205 0
M  V30 19267 C 3142.32 6.83093 -1.70294 0
M  V30 19268 C 3141.61 5.79992 -0.836974 0
M  V30 19269 N 3141.66 4.41864 -1.38293 0
M  V30 19270 H 3138.82 8.13644 -3.0377 0
M  V30 19271 H 3138.55 6.42788 -2.55485 0
M  V30 19272 H 3139.42 8.12039 -0.792769 0
M  V30 19273 P 3143.38 8.91 -1.0498e-10 0
M  V30 19274 O 3143.6 10.1736 0.733766 0
M  V30 19275 O 3144.17 8.73247 -1.2395 0
M  V30 19276 O 3143.63 7.66872 0.971405 0
M  V30 19277 C 3142.69 7.42212 2.04614 0
M  V30 19278 C 3143.42 6.86059 3.24661 0
M  V30 19279 O 3143.63 5.42847 3.03646 0
M  V30 19280 C 3144.82 7.41196 3.50753 0
M  V30 19281 O 3145.21 7.27073 4.86816 0
M  V30 19282 C 3145.7 6.5273 2.63741 0
M  V30 19283 C 3144.99 5.1842 2.73198 0
M  V30 19284 N 3145.04 4.38668 1.47808 0
M  V30 19285 C 3145.19 3.02239 1.60048 0
M  V30 19286 O 3145.28 2.46459 2.67869 0
M  V30 19287 N 3145.23 2.32436 0.408571 0
M  V30 19288 C 3145.14 2.85471 -0.854993 0
M  V30 19289 O 3145.19 2.12566 -1.8531 0
M  V30 19290 C 3144.99 4.28918 -0.887335 0
M  V30 19291 C 3144.88 4.91066 -2.24619 0
M  V30 19292 C 3144.94 5.00349 0.255399 0
M  V30 19293 H 3142.2 8.36803 2.32493 0
M  V30 19294 H 3141.93 6.701 1.71105 0
M  V30 19295 H 3142.8 7.03551 4.13168 0
M  V30 19296 H 3145.45 4.59773 3.53894 0
M  V30 19297 H 3145.73 6.88995 1.59871 0
M  V30 19298 H 3146.73 6.46749 3.03687 0
M  V30 19299 H 3144.89 8.46908 3.20714 0
M  V30 19300 H 3144.82 6.08548 0.206986 0
M  V30 19301 H 3145.85 5.34836 -2.53099 0
M  V30 19302 H 3144.11 5.69638 -2.2291 0
M  V30 19303 H 3144.6 4.13971 -2.98044 0
M  V30 19304 H 3145.34 1.33211 0.474216 0
M  V30 19305 P 3146.76 7.20834 5.23717 0
M  V30 19306 O 3146.98 7.79853 6.57286 0
M  V30 19307 O 3147.55 7.79239 4.12957 0
M  V30 19308 O 3147.01 5.63315 5.29344 0
M  V30 19309 C 3146.07 4.80255 6.01876 0
M  V30 19310 C 3146.8 3.64202 6.65911 0
M  V30 19311 O 3147.01 2.60694 5.64732 0
M  V30 19312 C 3148.2 3.93473 7.1943 0
M  V30 19313 O 3148.59 3.02071 8.21205 0
M  V30 19314 C 3149.08 3.73047 5.97036 0
M  V30 19315 C 3148.37 2.58828 5.25741 0
M  V30 19316 N 3148.42 2.68068 3.77503 0
M  V30 19317 H 3145.58 5.40332 6.79951 0
M  V30 19318 H 3145.31 4.41613 5.32378 0
M  V30 19319 H 3146.18 3.26331 7.47797 0
M  V30 19320 P 3150.14 2.75334 8.47391 0
M  V30 19321 O 3150.36 2.44571 9.90142 0
M  V30 19322 O 3150.93 3.87688 7.92115 0
M  V30 19323 O 3150.39 1.4459 7.59357 0
M  V30 19324 C 3149.45 0.347608 7.69215 0
M  V30 19325 C 3150.18 -0.96767 7.52806 0
M  V30 19326 O 3150.39 -1.21036 6.1011 0
M  V30 19327 C 3151.58 -1.04544 8.13308 0
M  V30 19328 O 3151.97 -2.38311 8.41922 0
M  V30 19329 C 3152.46 -0.491279 7.02284 0
M  V30 19330 C 3151.75 -0.996264 5.77469 0
M  V30 19331 N 3151.8 -0.0501916 4.62973 0
M  V30 19332 H 3148.96 0.374722 8.67691 0
M  V30 19333 H 3148.69 0.443485 6.90277 0
M  V30 19334 H 3149.56 -1.75537 7.96793 0
M  V30 19335 P 3153.52 -2.75334 8.47391 0
M  V30 19336 O 3153.74 -3.84128 9.44797 0
M  V30 19337 O 3154.31 -1.51947 8.68712 0
M  V30 19338 O 3153.77 -3.29363 6.99321 0
M  V30 19339 C 3152.83 -4.24011 6.4274 0
M  V30 19340 C 3153.56 -5.20775 5.52155 0
M  V30 19341 O 3153.77 -4.56534 4.22446 0
M  V30 19342 C 3154.96 -5.62629 5.96531 0
M  V30 19343 O 3155.35 -6.87667 5.41053 0
M  V30 19344 C 3155.84 -4.52537 5.39283 0
M  V30 19345 C 3155.13 -4.20027 4.08623 0
M  V30 19346 N 3155.18 -2.76189 3.71603 0
M  V30 19347 H 3152.34 -4.797 7.24003 0
M  V30 19348 H 3152.07 -3.69856 5.84513 0
M  V30 19349 H 3152.94 -6.10356 5.41441 0
M  V30 19350 P 3156.9 -7.20834 5.23717 0
M  V30 19351 O 3157.12 -8.66104 5.38572 0
M  V30 19352 O 3157.69 -6.33544 6.1349 0
M  V30 19353 O 3157.15 -6.7751 3.72168 0
M  V30 19354 C 3156.21 -7.20825 2.7076 0
M  V30 19355 C 3156.94 -7.45864 1.40599 0
M  V30 19356 O 3157.15 -6.17651 0.734225 0
M  V30 19357 C 3158.34 -8.05808 1.51899 0
M  V30 19358 O 3158.73 -8.74358 0.335205 0
M  V30 19359 C 3159.22 -6.83093 1.70294 0
M  V30 19360 C 3158.51 -5.79992 0.836974 0
M  V30 19361 N 3158.56 -4.41864 1.38293 0
M  V30 19362 H 3155.72 -8.13644 3.0377 0
M  V30 19363 H 3155.45 -6.42788 2.55485 0
M  V30 19364 H 3156.32 -8.12039 0.792769 0
M  V30 19365 P 3160.28 -8.91 1.06089e-10 0
M  V30 19366 O 3160.5 -10.1726 -0.733694 0
M  V30 19367 O 3161.07 -8.73148 1.23936 0
M  V30 19368 O 3160.53 -7.66872 -0.971405 0
M  V30 19369 C 3159.59 -7.42309 -2.04641 0
M  V30 19370 C 3160.32 -6.86059 -3.24661 0
M  V30 19371 O 3160.53 -5.42847 -3.03646 0
M  V30 19372 C 3161.72 -7.41196 -3.50753 0
M  V30 19373 O 3162.11 -7.27073 -4.86816 0
M  V30 19374 C 3162.6 -6.5273 -2.63741 0
M  V30 19375 C 3161.89 -5.1842 -2.73198 0
M  V30 19376 N 3161.94 -4.38762 -1.4784 0
M  V30 19377 H 3159.1 -8.36803 -2.32493 0
M  V30 19378 H 3158.83 -6.70197 -1.71129 0
M  V30 19379 H 3159.7 -7.03551 -4.13168 0
M  V30 19380 P 3163.66 -7.20834 -5.23717 0
M  V30 19381 O 3163.88 -7.80006 -6.57415 0
M  V30 19382 O 3164.45 -7.79416 -4.13051 0
M  V30 19383 O 3163.91 -5.63315 -5.29344 0
M  V30 19384 C 3162.97 -4.80318 -6.01954 0
M  V30 19385 C 3163.7 -3.64202 -6.65911 0
M  V30 19386 O 3163.91 -2.60736 -5.64823 0
M  V30 19387 C 3165.1 -3.93521 -7.19518 0
M  V30 19388 O 3165.49 -3.02071 -8.21205 0
M  V30 19389 C 3165.98 -3.73047 -5.97036 0
M  V30 19390 C 3165.27 -2.58828 -5.25741 0
M  V30 19391 N 3165.32 -2.68068 -3.77503 0
M  V30 19392 C 3165.24 -3.80474 -2.99159 0
M  V30 19393 N 3165.31 -3.55622 -1.71925 0
M  V30 19394 C 3165.46 -2.1832 -1.65733 0
M  V30 19395 C 3165.59 -1.28842 -0.572777 0
M  V30 19396 N 3165.6 -1.66875 0.70098 0
M  V30 19397 N 3165.71 0.016788 -0.859836 0
M  V30 19398 C 3165.7 0.398145 -2.13316 0
M  V30 19399 N 3165.58 -0.328224 -3.22333 0
M  V30 19400 C 3165.46 -1.62992 -2.90383 0
M  V30 19401 H 3162.48 -5.40394 -6.8003 0
M  V30 19402 H 3162.21 -4.41741 -5.32532 0
M  V30 19403 H 3163.08 -3.26371 -7.47889 0
M  V30 19404 H 3165.73 -1.64007 -5.56746 0
M  V30 19405 H 3166.01 -4.63439 -5.3432 0
M  V30 19406 H 3167.01 -3.44776 -6.25925 0
M  V30 19407 H 3165.17 -4.96707 -7.57347 0
M  V30 19408 H 3165.13 -4.8089 -3.39924 0
M  V30 19409 H 3165.51 -2.66547 0.941919 0
M  V30 19410 H 3165.7 -0.965341 1.44766 0
M  V30 19411 H 3165.81 1.46427 -2.29697 0
M  V30 19412 P 3167.04 -2.75334 -8.47391 0
M  V30 19413 O 3167.26 -2.44571 -9.90142 0
M  V30 19414 O 3167.83 -3.87688 -7.92115 0
M  V30 19415 O 3167.29 -1.4459 -7.59357 0
M  V30 19416 C 3166.35 -0.347608 -7.69215 0
M  V30 19417 C 3167.08 0.96767 -7.52806 0
M  V30 19418 O 3167.29 1.21036 -6.1011 0
M  V30 19419 C 3168.48 1.04544 -8.13308 0
M  V30 19420 O 3168.87 2.38311 -8.41922 0
M  V30 19421 C 3169.36 0.491279 -7.02284 0
M  V30 19422 C 3168.65 0.996264 -5.77469 0
M  V30 19423 N 3168.7 0.0501916 -4.62973 0
M  V30 19424 H 3165.86 -0.374722 -8.67691 0
M  V30 19425 H 3165.59 -0.443485 -6.90277 0
M  V30 19426 H 3166.46 1.75537 -7.96793 0
M  V30 19427 P 3170.42 2.75334 -8.47391 0
M  V30 19428 O 3170.64 3.84128 -9.44797 0
M  V30 19429 O 3171.21 1.51947 -8.68712 0
M  V30 19430 O 3170.67 3.29363 -6.99321 0
M  V30 19431 C 3169.73 4.24011 -6.4274 0
M  V30 19432 C 3170.46 5.20775 -5.52155 0
M  V30 19433 O 3170.67 4.56534 -4.22446 0
M  V30 19434 C 3171.86 5.62629 -5.96531 0
M  V30 19435 O 3172.25 6.87667 -5.41053 0
M  V30 19436 C 3172.74 4.52537 -5.39283 0
M  V30 19437 C 3172.03 4.20027 -4.08623 0
M  V30 19438 N 3172.08 2.76189 -3.71603 0
M  V30 19439 H 3169.24 4.797 -7.24003 0
M  V30 19440 H 3168.97 3.69856 -5.84513 0
M  V30 19441 H 3169.84 6.10356 -5.41441 0
M  V30 19442 P 3173.8 7.20834 -5.23717 0
M  V30 19443 O 3174.02 8.66104 -5.38572 0
M  V30 19444 O 3174.59 6.33544 -6.1349 0
M  V30 19445 O 3174.05 6.7751 -3.72168 0
M  V30 19446 C 3173.11 7.20825 -2.7076 0
M  V30 19447 C 3173.84 7.45864 -1.40599 0
M  V30 19448 O 3174.05 6.17651 -0.734225 0
M  V30 19449 C 3175.24 8.05808 -1.51899 0
M  V30 19450 O 3175.63 8.74358 -0.335205 0
M  V30 19451 C 3176.12 6.83093 -1.70294 0
M  V30 19452 C 3175.41 5.79992 -0.836974 0
M  V30 19453 N 3175.46 4.41864 -1.38293 0
M  V30 19454 H 3172.62 8.13644 -3.0377 0
M  V30 19455 H 3172.35 6.42788 -2.55485 0
M  V30 19456 H 3173.22 8.12039 -0.792769 0
M  V30 19457 P 3177.18 8.91 -1.07198e-10 0
M  V30 19458 O 3177.4 10.1736 0.733766 0
M  V30 19459 O 3177.97 8.73247 -1.2395 0
M  V30 19460 O 3177.43 7.66872 0.971405 0
M  V30 19461 C 3176.49 7.42212 2.04614 0
M  V30 19462 C 3177.22 6.86059 3.24661 0
M  V30 19463 O 3177.43 5.42847 3.03646 0
M  V30 19464 C 3178.62 7.41196 3.50753 0
M  V30 19465 O 3179.01 7.27073 4.86816 0
M  V30 19466 C 3179.5 6.5273 2.63741 0
M  V30 19467 C 3178.79 5.1842 2.73198 0
M  V30 19468 N 3178.84 4.38668 1.47808 0
M  V30 19469 C 3178.99 3.02239 1.60048 0
M  V30 19470 O 3179.08 2.46459 2.67869 0
M  V30 19471 N 3179.03 2.32436 0.408571 0
M  V30 19472 C 3178.94 2.85471 -0.854993 0
M  V30 19473 C 3178.79 4.28918 -0.887335 0
M  V30 19474 C 3178.74 5.00349 0.255399 0
M  V30 19475 H 3176 8.36803 2.32493 0
M  V30 19476 H 3175.73 6.701 1.71105 0
M  V30 19477 H 3176.6 7.03551 4.13168 0
M  V30 19478 H 3179.25 4.59773 3.53894 0
M  V30 19479 H 3179.53 6.88995 1.59871 0
M  V30 19480 H 3180.53 6.46749 3.03687 0
M  V30 19481 H 3178.69 8.46908 3.20714 0
M  V30 19482 H 3178.62 6.08548 0.206986 0
M  V30 19483 P 3180.56 7.20834 5.23717 0
M  V30 19484 O 3180.78 7.79853 6.57286 0
M  V30 19485 O 3181.35 7.79239 4.12957 0
M  V30 19486 O 3180.81 5.63315 5.29344 0
M  V30 19487 C 3179.87 4.80255 6.01876 0
M  V30 19488 C 3180.6 3.64202 6.65911 0
M  V30 19489 O 3180.81 2.60694 5.64732 0
M  V30 19490 C 3182 3.93473 7.1943 0
M  V30 19491 O 3182.39 3.02071 8.21205 0
M  V30 19492 C 3182.88 3.73047 5.97036 0
M  V30 19493 C 3182.17 2.58828 5.25741 0
M  V30 19494 N 3182.22 2.68068 3.77503 0
M  V30 19495 H 3179.38 5.40332 6.79951 0
M  V30 19496 H 3179.11 4.41613 5.32378 0
M  V30 19497 H 3179.98 3.26331 7.47797 0
M  V30 19498 P 3183.94 2.75334 8.47391 0
M  V30 19499 O 3184.16 2.44571 9.90142 0
M  V30 19500 O 3184.73 3.87688 7.92115 0
M  V30 19501 O 3184.19 1.4459 7.59357 0
M  V30 19502 C 3183.25 0.347608 7.69215 0
M  V30 19503 C 3183.98 -0.96767 7.52806 0
M  V30 19504 O 3184.19 -1.21036 6.1011 0
M  V30 19505 C 3185.38 -1.04544 8.13308 0
M  V30 19506 O 3185.77 -2.38311 8.41922 0
M  V30 19507 C 3186.26 -0.491279 7.02284 0
M  V30 19508 C 3185.55 -0.996264 5.77469 0
M  V30 19509 N 3185.6 -0.0501916 4.62973 0
M  V30 19510 C 3185.52 1.32786 4.63244 0
M  V30 19511 N 3185.6 1.86957 3.44545 0
M  V30 19512 C 3185.74 0.780241 2.58481 0
M  V30 19513 C 3185.87 0.738536 1.17757 0
M  V30 19514 O 3185.89 1.66794 0.372349 0
M  V30 19515 N 3185.99 -0.58337 0.711393 0
M  V30 19516 C 3185.99 -1.70816 1.51017 0
M  V30 19517 N 3186.12 -2.87826 0.880757 0
M  V30 19518 N 3185.86 -1.67126 2.8339 0
M  V30 19519 C 3185.74 -0.401421 3.30572 0
M  V30 19520 H 3182.76 0.374722 8.67691 0
M  V30 19521 H 3182.49 0.443485 6.90277 0
M  V30 19522 H 3183.36 -1.75537 7.96793 0
M  V30 19523 H 3186.01 -1.95076 5.46529 0
M  V30 19524 H 3186.29 0.608565 7.04577 0
M  V30 19525 H 3187.29 -0.889672 7.08939 0
M  V30 19526 H 3185.45 -0.43308 9.04564 0
M  V30 19527 H 3185.4 1.91249 5.54442 0
M  V30 19528 H 3186.08 -0.718054 -0.275244 0
M  V30 19529 H 3186.12 -3.75721 1.41832 0
M  V30 19530 H 3186.22 -2.90436 -0.145468 0
M  V30 19531 P 3187.32 -2.75334 8.47391 0
M  V30 19532 O 3187.54 -3.84128 9.44797 0
M  V30 19533 O 3188.11 -1.51947 8.68712 0
M  V30 19534 O 3187.57 -3.29363 6.99321 0
M  V30 19535 C 3186.63 -4.24011 6.4274 0
M  V30 19536 C 3187.36 -5.20775 5.52155 0
M  V30 19537 O 3187.57 -4.56534 4.22446 0
M  V30 19538 C 3188.76 -5.62629 5.96531 0
M  V30 19539 O 3189.15 -6.87667 5.41053 0
M  V30 19540 C 3189.64 -4.52537 5.39283 0
M  V30 19541 C 3188.93 -4.20027 4.08623 0
M  V30 19542 N 3188.98 -2.76189 3.71603 0
M  V30 19543 H 3186.14 -4.797 7.24003 0
M  V30 19544 H 3185.87 -3.69856 5.84513 0
M  V30 19545 H 3186.74 -6.10356 5.41441 0
M  V30 19546 P 3190.7 -7.20834 5.23717 0
M  V30 19547 O 3190.92 -8.66104 5.38572 0
M  V30 19548 O 3191.49 -6.33544 6.1349 0
M  V30 19549 O 3190.95 -6.7751 3.72168 0
M  V30 19550 C 3190.01 -7.20825 2.7076 0
M  V30 19551 C 3190.74 -7.45864 1.40599 0
M  V30 19552 O 3190.95 -6.17651 0.734225 0
M  V30 19553 C 3192.14 -8.05808 1.51899 0
M  V30 19554 O 3192.53 -8.74358 0.335205 0
M  V30 19555 C 3193.02 -6.83093 1.70294 0
M  V30 19556 C 3192.31 -5.79992 0.836974 0
M  V30 19557 N 3192.36 -4.41864 1.38293 0
M  V30 19558 H 3189.52 -8.13644 3.0377 0
M  V30 19559 H 3189.25 -6.42788 2.55485 0
M  V30 19560 H 3190.12 -8.12039 0.792769 0
M  V30 19561 P 3194.08 -8.91 1.08307e-10 0
M  V30 19562 O 3194.3 -10.1736 -0.733766 0
M  V30 19563 O 3194.87 -8.73247 1.2395 0
M  V30 19564 O 3194.33 -7.66872 -0.971405 0
M  V30 19565 C 3193.39 -7.42212 -2.04614 0
M  V30 19566 C 3194.12 -6.86059 -3.24661 0
M  V30 19567 O 3194.33 -5.42847 -3.03646 0
M  V30 19568 C 3195.52 -7.41196 -3.50753 0
M  V30 19569 O 3195.91 -7.27073 -4.86816 0
M  V30 19570 C 3196.4 -6.5273 -2.63741 0
M  V30 19571 C 3195.69 -5.1842 -2.73198 0
M  V30 19572 N 3195.74 -4.38668 -1.47808 0
M  V30 19573 C 3195.89 -3.02239 -1.60048 0
M  V30 19574 O 3195.98 -2.46459 -2.67869 0
M  V30 19575 N 3195.93 -2.32436 -0.408571 0
M  V30 19576 C 3195.84 -2.85471 0.854993 0
M  V30 19577 C 3195.69 -4.28918 0.887335 0
M  V30 19578 C 3195.64 -5.00349 -0.255399 0
M  V30 19579 H 3192.9 -8.36803 -2.32493 0
M  V30 19580 H 3192.63 -6.701 -1.71105 0
M  V30 19581 H 3193.5 -7.03551 -4.13168 0
M  V30 19582 H 3196.15 -4.59773 -3.53894 0
M  V30 19583 H 3196.43 -6.88995 -1.59871 0
M  V30 19584 H 3197.43 -6.46749 -3.03687 0
M  V30 19585 H 3195.59 -8.46908 -3.20714 0
M  V30 19586 H 3195.52 -6.08548 -0.206986 0
M  V30 19587 P 3197.46 -7.20834 -5.23717 0
M  V30 19588 O 3197.68 -7.79853 -6.57286 0
M  V30 19589 O 3198.25 -7.79239 -4.12957 0
M  V30 19590 O 3197.71 -5.63315 -5.29344 0
M  V30 19591 C 3196.77 -4.80255 -6.01876 0
M  V30 19592 C 3197.5 -3.64202 -6.65911 0
M  V30 19593 O 3197.71 -2.60694 -5.64732 0
M  V30 19594 C 3198.9 -3.93473 -7.1943 0
M  V30 19595 O 3199.29 -3.02071 -8.21205 0
M  V30 19596 C 3199.78 -3.73047 -5.97036 0
M  V30 19597 C 3199.07 -2.58828 -5.25741 0
M  V30 19598 N 3199.12 -2.68068 -3.77503 0
M  V30 19599 C 3199.04 -3.79715 -2.96723 0
M  V30 19600 N 3199.12 -3.5377 -1.68852 0
M  V30 19601 C 3199.26 -2.15054 -1.63254 0
M  V30 19602 C 3199.39 -1.28964 -0.518571 0
M  V30 19603 O 3199.41 -1.56826 0.679156 0
M  V30 19604 N 3199.51 0.0538097 -0.918425 0
M  V30 19605 C 3199.51 0.494275 -2.22578 0
M  V30 19606 N 3199.64 1.81086 -2.40434 0
M  V30 19607 N 3199.38 -0.313645 -3.27502 0
M  V30 19608 C 3199.26 -1.61829 -2.91033 0
M  V30 19609 H 3196.28 -5.40332 -6.79951 0
M  V30 19610 H 3196.01 -4.41613 -5.32378 0
M  V30 19611 H 3196.88 -3.26331 -7.47797 0
M  V30 19612 H 3199.53 -1.63422 -5.56814 0
M  V30 19613 H 3199.81 -4.63374 -5.34244 0
M  V30 19614 H 3200.81 -3.44728 -6.25838 0
M  V30 19615 H 3198.97 -4.96652 -7.57263 0
M  V30 19616 H 3198.92 -4.80617 -3.3614 0
M  V30 19617 H 3199.6 0.742702 -0.199384 0
M  V30 19618 H 3199.64 2.20598 -3.35588 0
M  V30 19619 H 3199.74 2.43518 -1.58945 0
M  V30 19620 P 3200.84 -2.75334 -8.47391 0
M  V30 19621 O 3201.06 -2.44571 -9.90142 0
M  V30 19622 O 3201.63 -3.87688 -7.92115 0
M  V30 19623 O 3201.09 -1.4459 -7.59357 0
M  V30 19624 C 3200.15 -0.347608 -7.69215 0
M  V30 19625 C 3200.88 0.96767 -7.52806 0
M  V30 19626 O 3201.09 1.21036 -6.1011 0
M  V30 19627 C 3202.28 1.04544 -8.13308 0
M  V30 19628 O 3202.67 2.38311 -8.41922 0
M  V30 19629 C 3203.16 0.491279 -7.02284 0
M  V30 19630 C 3202.45 0.996264 -5.77469 0
M  V30 19631 N 3202.5 0.0501916 -4.62973 0
M  V30 19632 C 3202.42 -1.32786 -4.63244 0
M  V30 19633 N 3202.5 -1.86957 -3.44545 0
M  V30 19634 C 3202.64 -0.780241 -2.58481 0
M  V30 19635 C 3202.77 -0.738536 -1.17757 0
M  V30 19636 O 3202.79 -1.66794 -0.372349 0
M  V30 19637 N 3202.89 0.58337 -0.711393 0
M  V30 19638 C 3202.89 1.70816 -1.51017 0
M  V30 19639 N 3203.02 2.87826 -0.880757 0
M  V30 19640 N 3202.76 1.67126 -2.8339 0
M  V30 19641 C 3202.64 0.401421 -3.30572 0
M  V30 19642 H 3199.66 -0.374722 -8.67691 0
M  V30 19643 H 3199.39 -0.443485 -6.90277 0
M  V30 19644 H 3200.26 1.75537 -7.96793 0
M  V30 19645 H 3202.91 1.95076 -5.46529 0
M  V30 19646 H 3203.19 -0.608565 -7.04577 0
M  V30 19647 H 3204.19 0.889672 -7.08939 0
M  V30 19648 H 3202.35 0.43308 -9.04564 0
M  V30 19649 H 3202.3 -1.91249 -5.54442 0
M  V30 19650 H 3202.98 0.718054 0.275244 0
M  V30 19651 H 3203.02 3.75721 -1.41832 0
M  V30 19652 H 3203.12 2.90436 0.145468 0
M  V30 19653 P 3204.22 2.75334 -8.47391 0
M  V30 19654 O 3204.44 3.84128 -9.44797 0
M  V30 19655 O 3205.01 1.51947 -8.68712 0
M  V30 19656 O 3204.47 3.29363 -6.99321 0
M  V30 19657 C 3203.53 4.24011 -6.4274 0
M  V30 19658 C 3204.26 5.20775 -5.52155 0
M  V30 19659 O 3204.47 4.56534 -4.22446 0
M  V30 19660 C 3205.66 5.62629 -5.96531 0
M  V30 19661 O 3206.05 6.87667 -5.41053 0
M  V30 19662 C 3206.54 4.52537 -5.39283 0
M  V30 19663 C 3205.83 4.20027 -4.08623 0
M  V30 19664 N 3205.88 2.76189 -3.71603 0
M  V30 19665 H 3203.04 4.797 -7.24003 0
M  V30 19666 H 3202.77 3.69856 -5.84513 0
M  V30 19667 H 3203.64 6.10356 -5.41441 0
M  V30 19668 P 3207.6 7.20834 -5.23717 0
M  V30 19669 O 3207.82 8.66274 -5.38678 0
M  V30 19670 O 3208.39 6.33687 -6.13629 0
M  V30 19671 O 3207.85 6.7751 -3.72168 0
M  V30 19672 C 3206.91 7.20919 -2.70795 0
M  V30 19673 C 3207.64 7.45864 -1.40599 0
M  V30 19674 O 3207.85 6.17751 -0.734343 0
M  V30 19675 C 3209.04 8.05906 -1.51917 0
M  V30 19676 O 3209.43 8.74358 -0.335205 0
M  V30 19677 C 3209.92 6.83093 -1.70294 0
M  V30 19678 C 3209.21 5.79992 -0.836974 0
M  V30 19679 N 3209.26 4.41864 -1.38293 0
M  V30 19680 H 3206.42 8.13738 -3.03804 0
M  V30 19681 H 3206.15 6.42974 -2.55559 0
M  V30 19682 H 3207.02 8.12139 -0.792866 0
M  V30 19683 H 3209.67 5.80178 0.160643 0
M  V30 19684 H 3209.95 6.51379 -2.75643 0
M  V30 19685 H 3210.95 7.01832 -1.3448 0
M  V30 19686 H 3209.11 8.73771 -2.38364 0
M  V30 19687 P 3210.98 8.91 -1.09416e-10 0
M  V30 19688 O 3211.2 10.1726 0.733694 0
M  V30 19689 O 3211.77 8.73148 -1.23936 0
M  V30 19690 O 3211.23 7.66872 0.971405 0
M  V30 19691 C 3210.29 7.42309 2.04641 0
M  V30 19692 C 3211.02 6.86059 3.24661 0
M  V30 19693 O 3211.23 5.42847 3.03646 0
M  V30 19694 C 3212.42 7.41196 3.50753 0
M  V30 19695 O 3212.81 7.27073 4.86816 0
M  V30 19696 C 3213.3 6.5273 2.63741 0
M  V30 19697 C 3212.59 5.1842 2.73198 0
M  V30 19698 N 3212.64 4.38762 1.4784 0
M  V30 19699 H 3209.8 8.36803 2.32493 0
M  V30 19700 H 3209.53 6.70197 1.71129 0
M  V30 19701 H 3210.4 7.03551 4.13168 0
M  V30 19702 P 3214.36 7.20834 5.23717 0
M  V30 19703 O 3214.58 7.79853 6.57286 0
M  V30 19704 O 3215.15 7.79239 4.12957 0
M  V30 19705 O 3214.61 5.63315 5.29344 0
M  V30 19706 C 3213.67 4.80255 6.01876 0
M  V30 19707 C 3214.4 3.64202 6.65911 0
M  V30 19708 O 3214.61 2.60694 5.64732 0
M  V30 19709 C 3215.8 3.93473 7.1943 0
M  V30 19710 O 3216.19 3.02071 8.21205 0
M  V30 19711 C 3216.68 3.73047 5.97036 0
M  V30 19712 C 3215.97 2.58828 5.25741 0
M  V30 19713 N 3216.02 2.68068 3.77503 0
M  V30 19714 H 3213.18 5.40332 6.79951 0
M  V30 19715 H 3212.91 4.41613 5.32378 0
M  V30 19716 H 3213.78 3.26331 7.47797 0
M  V30 19717 P 3217.74 2.75334 8.47391 0
M  V30 19718 O 3217.96 2.44571 9.90142 0
M  V30 19719 O 3218.53 3.87688 7.92115 0
M  V30 19720 O 3217.99 1.4459 7.59357 0
M  V30 19721 C 3217.05 0.347608 7.69215 0
M  V30 19722 C 3217.78 -0.96767 7.52806 0
M  V30 19723 O 3217.99 -1.21036 6.1011 0
M  V30 19724 C 3219.18 -1.04544 8.13308 0
M  V30 19725 O 3219.57 -2.38311 8.41922 0
M  V30 19726 C 3220.06 -0.491279 7.02284 0
M  V30 19727 C 3219.35 -0.996264 5.77469 0
M  V30 19728 N 3219.4 -0.0501916 4.62973 0
M  V30 19729 H 3216.56 0.374722 8.67691 0
M  V30 19730 H 3216.29 0.443485 6.90277 0
M  V30 19731 H 3217.16 -1.75537 7.96793 0
M  V30 19732 P 3221.12 -2.75334 8.47391 0
M  V30 19733 O 3221.34 -3.84128 9.44797 0
M  V30 19734 O 3221.91 -1.51947 8.68712 0
M  V30 19735 O 3221.37 -3.29363 6.99321 0
M  V30 19736 C 3220.43 -4.24011 6.4274 0
M  V30 19737 C 3221.16 -5.20775 5.52155 0
M  V30 19738 O 3221.37 -4.56534 4.22446 0
M  V30 19739 C 3222.56 -5.62629 5.96531 0
M  V30 19740 O 3222.95 -6.87667 5.41053 0
M  V30 19741 C 3223.44 -4.52537 5.39283 0
M  V30 19742 C 3222.73 -4.20027 4.08623 0
M  V30 19743 N 3222.78 -2.76189 3.71603 0
M  V30 19744 C 3222.7 -1.64862 4.52822 0
M  V30 19745 N 3222.78 -0.512671 3.88633 0
M  V30 19746 C 3222.92 -0.888083 2.54977 0
M  V30 19747 C 3223.05 -0.094668 1.38677 0
M  V30 19748 O 3223.07 1.13053 1.28163 0
M  V30 19749 N 3223.17 -0.890102 0.232633 0
M  V30 19750 C 3223.17 -2.26958 0.21772 0
M  V30 19751 N 3223.3 -2.84626 -0.97925 0
M  V30 19752 N 3223.04 -3.0178 1.31033 0
M  V30 19753 C 3222.92 -2.26781 2.43843 0
M  V30 19754 H 3219.94 -4.797 7.24003 0
M  V30 19755 H 3219.67 -3.69856 5.84513 0
M  V30 19756 H 3220.54 -6.10356 5.41441 0
M  V30 19757 H 3223.19 -4.79061 3.27488 0
M  V30 19758 H 3223.47 -3.64906 6.05785 0
M  V30 19759 H 3224.46 -4.8868 5.2125 0
M  V30 19760 H 3222.63 -5.66726 7.06352 0
M  V30 19761 H 3222.58 -1.71169 5.60966 0
M  V30 19762 H 3223.26 -0.419134 -0.644739 0
M  V30 19763 H 3223.3 -3.87332 -1.06098 0
M  V30 19764 H 3223.4 -2.26417 -1.82483 0
M  V30 19765 P 3224.5 -7.20834 5.23717 0
M  V30 19766 O 3224.72 -8.66104 5.38572 0
M  V30 19767 O 3225.29 -6.33544 6.1349 0
M  V30 19768 O 3224.75 -6.7751 3.72168 0
M  V30 19769 C 3223.81 -7.20825 2.7076 0
M  V30 19770 C 3224.54 -7.45864 1.40599 0
M  V30 19771 O 3224.75 -6.17651 0.734225 0
M  V30 19772 C 3225.94 -8.05808 1.51899 0
M  V30 19773 O 3226.33 -8.74358 0.335205 0
M  V30 19774 C 3226.82 -6.83093 1.70294 0
M  V30 19775 C 3226.11 -5.79992 0.836974 0
M  V30 19776 N 3226.16 -4.41864 1.38293 0
M  V30 19777 H 3223.32 -8.13644 3.0377 0
M  V30 19778 H 3223.05 -6.42788 2.55485 0
M  V30 19779 H 3223.92 -8.12039 0.792769 0
M  V30 19780 P 3227.88 -8.91 1.10525e-10 0
M  V30 19781 O 3228.1 -10.1726 -0.733694 0
M  V30 19782 O 3228.67 -8.73148 1.23936 0
M  V30 19783 O 3228.13 -7.66872 -0.971405 0
M  V30 19784 C 3227.19 -7.42309 -2.04641 0
M  V30 19785 C 3227.92 -6.86059 -3.24661 0
M  V30 19786 O 3228.13 -5.42847 -3.03646 0
M  V30 19787 C 3229.32 -7.41196 -3.50753 0
M  V30 19788 O 3229.71 -7.27073 -4.86816 0
M  V30 19789 C 3230.2 -6.5273 -2.63741 0
M  V30 19790 C 3229.49 -5.1842 -2.73198 0
M  V30 19791 N 3229.54 -4.38762 -1.4784 0
M  V30 19792 H 3226.7 -8.36803 -2.32493 0
M  V30 19793 H 3226.43 -6.70197 -1.71129 0
M  V30 19794 H 3227.3 -7.03551 -4.13168 0
M  V30 19795 P 3231.26 -7.20834 -5.23717 0
M  V30 19796 O 3231.48 -7.79853 -6.57286 0
M  V30 19797 O 3232.05 -7.79239 -4.12957 0
M  V30 19798 O 3231.51 -5.63315 -5.29344 0
M  V30 19799 C 3230.57 -4.80255 -6.01876 0
M  V30 19800 C 3231.3 -3.64202 -6.65911 0
M  V30 19801 O 3231.51 -2.60694 -5.64732 0
M  V30 19802 C 3232.7 -3.93473 -7.1943 0
M  V30 19803 O 3233.09 -3.02071 -8.21205 0
M  V30 19804 C 3233.58 -3.73047 -5.97036 0
M  V30 19805 C 3232.87 -2.58828 -5.25741 0
M  V30 19806 N 3232.92 -2.68068 -3.77503 0
M  V30 19807 H 3230.08 -5.40332 -6.79951 0
M  V30 19808 H 3229.81 -4.41613 -5.32378 0
M  V30 19809 H 3230.68 -3.26331 -7.47797 0
M  V30 19810 P 3234.64 -2.75334 -8.47391 0
M  V30 19811 O 3234.86 -2.44571 -9.90142 0
M  V30 19812 O 3235.43 -3.87688 -7.92115 0
M  V30 19813 O 3234.89 -1.4459 -7.59357 0
M  V30 19814 C 3233.95 -0.347608 -7.69215 0
M  V30 19815 C 3234.68 0.96767 -7.52806 0
M  V30 19816 O 3234.89 1.21036 -6.1011 0
M  V30 19817 C 3236.08 1.04544 -8.13308 0
M  V30 19818 O 3236.47 2.38311 -8.41922 0
M  V30 19819 C 3236.96 0.491279 -7.02284 0
M  V30 19820 C 3236.25 0.996264 -5.77469 0
M  V30 19821 N 3236.3 0.0501916 -4.62973 0
M  V30 19822 H 3233.46 -0.374722 -8.67691 0
M  V30 19823 H 3233.19 -0.443485 -6.90277 0
M  V30 19824 H 3234.06 1.75537 -7.96793 0
M  V30 19825 P 3238.02 2.75334 -8.47391 0
M  V30 19826 O 3238.24 3.84128 -9.44797 0
M  V30 19827 O 3238.81 1.51947 -8.68712 0
M  V30 19828 O 3238.27 3.29363 -6.99321 0
M  V30 19829 C 3237.33 4.24011 -6.4274 0
M  V30 19830 C 3238.06 5.20775 -5.52155 0
M  V30 19831 O 3238.27 4.56534 -4.22446 0
M  V30 19832 C 3239.46 5.62629 -5.96531 0
M  V30 19833 O 3239.85 6.87667 -5.41053 0
M  V30 19834 C 3240.34 4.52537 -5.39283 0
M  V30 19835 C 3239.63 4.20027 -4.08623 0
M  V30 19836 N 3239.68 2.76189 -3.71603 0
M  V30 19837 C 3239.6 1.64862 -4.52822 0
M  V30 19838 N 3239.68 0.512671 -3.88633 0
M  V30 19839 C 3239.82 0.888083 -2.54977 0
M  V30 19840 C 3239.95 0.094668 -1.38677 0
M  V30 19841 N 3240.07 0.890102 -0.232633 0
M  V30 19842 C 3240.07 2.26958 -0.21772 0
M  V30 19843 N 3240.2 2.84626 0.97925 0
M  V30 19844 N 3239.94 3.0178 -1.31033 0
M  V30 19845 C 3239.82 2.26781 -2.43843 0
M  V30 19846 H 3236.84 4.797 -7.24003 0
M  V30 19847 H 3236.57 3.69856 -5.84513 0
M  V30 19848 H 3237.44 6.10356 -5.41441 0
M  V30 19849 P 3241.4 7.20834 -5.23717 0
M  V30 19850 O 3241.62 8.66104 -5.38572 0
M  V30 19851 O 3242.19 6.33544 -6.1349 0
M  V30 19852 O 3241.65 6.7751 -3.72168 0
M  V30 19853 C 3240.71 7.20825 -2.7076 0
M  V30 19854 C 3241.44 7.45864 -1.40599 0
M  V30 19855 O 3241.65 6.17651 -0.734225 0
M  V30 19856 C 3242.84 8.05808 -1.51899 0
M  V30 19857 O 3243.23 8.74358 -0.335205 0
M  V30 19858 C 3243.72 6.83093 -1.70294 0
M  V30 19859 C 3243.01 5.79992 -0.836974 0
M  V30 19860 N 3243.06 4.41864 -1.38293 0
M  V30 19861 H 3240.22 8.13644 -3.0377 0
M  V30 19862 H 3239.95 6.42788 -2.55485 0
M  V30 19863 H 3240.82 8.12039 -0.792769 0
M  V30 19864 P 3244.78 8.91 -1.11634e-10 0
M  V30 19865 O 3245 10.1726 0.733694 0
M  V30 19866 O 3245.57 8.73148 -1.23936 0
M  V30 19867 O 3245.03 7.66872 0.971405 0
M  V30 19868 C 3244.09 7.42309 2.04641 0
M  V30 19869 C 3244.82 6.86059 3.24661 0
M  V30 19870 O 3245.03 5.42847 3.03646 0
M  V30 19871 C 3246.22 7.41196 3.50753 0
M  V30 19872 O 3246.61 7.27073 4.86816 0
M  V30 19873 C 3247.1 6.5273 2.63741 0
M  V30 19874 C 3246.39 5.1842 2.73198 0
M  V30 19875 N 3246.44 4.38762 1.4784 0
M  V30 19876 H 3243.6 8.36803 2.32493 0
M  V30 19877 H 3243.33 6.70197 1.71129 0
M  V30 19878 H 3244.2 7.03551 4.13168 0
M  V30 19879 P 3248.16 7.20834 5.23717 0
M  V30 19880 O 3248.38 7.79853 6.57286 0
M  V30 19881 O 3248.95 7.79239 4.12957 0
M  V30 19882 O 3248.41 5.63315 5.29344 0
M  V30 19883 C 3247.47 4.80255 6.01876 0
M  V30 19884 C 3248.2 3.64202 6.65911 0
M  V30 19885 O 3248.41 2.60694 5.64732 0
M  V30 19886 C 3249.6 3.93473 7.1943 0
M  V30 19887 O 3249.99 3.02071 8.21205 0
M  V30 19888 C 3250.48 3.73047 5.97036 0
M  V30 19889 C 3249.77 2.58828 5.25741 0
M  V30 19890 N 3249.82 2.68068 3.77503 0
M  V30 19891 H 3246.98 5.40332 6.79951 0
M  V30 19892 H 3246.71 4.41613 5.32378 0
M  V30 19893 H 3247.58 3.26331 7.47797 0
M  V30 19894 P 3251.54 2.75334 8.47391 0
M  V30 19895 O 3251.76 2.44595 9.90239 0
M  V30 19896 O 3252.33 3.87732 7.92204 0
M  V30 19897 O 3251.79 1.4459 7.59357 0
M  V30 19898 C 3250.85 0.347608 7.69215 0
M  V30 19899 C 3251.58 -0.96767 7.52806 0
M  V30 19900 O 3251.79 -1.21036 6.1011 0
M  V30 19901 C 3252.98 -1.04544 8.13308 0
M  V30 19902 O 3253.37 -2.38311 8.41922 0
M  V30 19903 C 3253.86 -0.491279 7.02284 0
M  V30 19904 C 3253.15 -0.996264 5.77469 0
M  V30 19905 N 3253.2 -0.0501808 4.62873 0
M  V30 19906 C 3253.35 -0.578037 3.3505 0
M  V30 19907 O 3253.44 -1.8073 3.21711 0
M  V30 19908 N 3253.4 0.468541 2.263 0
M  V30 19909 C 3253.3 1.59186 2.47176 0
M  V30 19910 N 3253.35 2.37626 1.40392 0
M  V30 19911 C 3253.15 2.16203 3.77467 0
M  V30 19912 C 3253.1 1.29324 4.8195 0
M  V30 19913 H 3250.36 0.374679 8.67591 0
M  V30 19914 H 3250.09 0.443421 6.90177 0
M  V30 19915 H 3250.96 -1.75559 7.96891 0
M  V30 19916 H 3253.61 -1.94529 5.46723 0
M  V30 19917 H 3253.89 0.608651 7.04676 0
M  V30 19918 H 3254.88 -0.889672 7.08939 0
M  V30 19919 H 3253.05 -0.43308 9.04564 0
M  V30 19920 H 3252.98 1.67758 5.83046 0
M  V30 19921 H 3253.08 3.23869 3.92281 0
M  V30 19922 H 3253.47 1.96317 0.467202 0
M  V30 19923 H 3253.27 3.39693 1.51142 0
M  V30 19924 P 3254.92 -2.75334 8.47391 0
M  V30 19925 O 3255.14 -3.84204 9.44982 0
M  V30 19926 O 3255.71 -1.51982 8.68909 0
M  V30 19927 O 3255.17 -3.29363 6.99321 0
M  V30 19928 C 3254.23 -4.24066 6.42823 0
M  V30 19929 C 3254.96 -5.20775 5.52155 0
M  V30 19930 O 3255.17 -4.56607 4.22514 0
M  V30 19931 C 3256.36 -5.62697 5.96604 0
M  V30 19932 O 3256.75 -6.87667 5.41053 0
M  V30 19933 C 3257.24 -4.52537 5.39283 0
M  V30 19934 C 3256.53 -4.20027 4.08623 0
M  V30 19935 N 3256.58 -2.76189 3.71603 0
M  V30 19936 C 3256.5 -1.66944 4.54297 0
M  V30 19937 N 3256.57 -0.536169 3.91344 0
M  V30 19938 C 3256.72 -0.901569 2.58849 0
M  V30 19939 C 3256.85 -0.146599 1.40236 0
M  V30 19940 N 3256.86 1.18234 1.37046 0
M  V30 19941 N 3256.97 -0.822941 0.249738 0
M  V30 19942 C 3256.96 -2.15179 0.280525 0
M  V30 19943 N 3256.84 -2.96414 1.30822 0
M  V30 19944 C 3256.72 -2.25804 2.44748 0
M  V30 19945 H 3253.74 -4.79756 7.24086 0
M  V30 19946 H 3253.47 -3.69963 5.84682 0
M  V30 19947 H 3254.34 -6.10431 5.41508 0
M  V30 19948 H 3256.99 -4.78816 3.28024 0
M  V30 19949 H 3257.27 -3.64957 6.05871 0
M  V30 19950 H 3258.26 -4.88748 5.21323 0
M  V30 19951 H 3256.43 -5.66789 7.0643 0
M  V30 19952 H 3256.39 -1.74684 5.62396 0
M  V30 19953 H 3256.77 1.71949 2.24394 0
M  V30 19954 H 3256.96 1.67511 0.470742 0
M  V30 19955 H 3257.07 -2.63704 -0.6828 0
M  V30 19956 P 3258.3 -7.20834 5.23717 0
M  V30 19957 O 3258.52 -8.66104 5.38572 0
M  V30 19958 O 3259.09 -6.33544 6.1349 0
M  V30 19959 O 3258.55 -6.7751 3.72168 0
M  V30 19960 C 3257.61 -7.20825 2.7076 0
M  V30 19961 C 3258.34 -7.45864 1.40599 0
M  V30 19962 O 3258.55 -6.17651 0.734225 0
M  V30 19963 C 3259.74 -8.05808 1.51899 0
M  V30 19964 O 3260.13 -8.74358 0.335205 0
M  V30 19965 C 3260.62 -6.83093 1.70294 0
M  V30 19966 C 3259.91 -5.79992 0.836974 0
M  V30 19967 N 3259.96 -4.41864 1.38293 0
M  V30 19968 H 3257.12 -8.13644 3.0377 0
M  V30 19969 H 3256.85 -6.42788 2.55485 0
M  V30 19970 H 3257.72 -8.12039 0.792769 0
M  V30 19971 P 3261.68 -8.91 1.12743e-10 0
M  V30 19972 O 3261.9 -10.1726 -0.733694 0
M  V30 19973 O 3262.47 -8.73148 1.23936 0
M  V30 19974 O 3261.93 -7.66872 -0.971405 0
M  V30 19975 C 3260.99 -7.42309 -2.04641 0
M  V30 19976 C 3261.72 -6.86059 -3.24661 0
M  V30 19977 O 3261.93 -5.42847 -3.03646 0
M  V30 19978 C 3263.12 -7.41196 -3.50753 0
M  V30 19979 O 3263.51 -7.27073 -4.86816 0
M  V30 19980 C 3264 -6.5273 -2.63741 0
M  V30 19981 C 3263.29 -5.1842 -2.73198 0
M  V30 19982 N 3263.34 -4.38762 -1.4784 0
M  V30 19983 H 3260.5 -8.36803 -2.32493 0
M  V30 19984 H 3260.23 -6.70197 -1.71129 0
M  V30 19985 H 3261.1 -7.03551 -4.13168 0
M  V30 19986 P 3265.06 -7.20834 -5.23717 0
M  V30 19987 O 3265.28 -7.79853 -6.57286 0
M  V30 19988 O 3265.85 -7.79239 -4.12957 0
M  V30 19989 O 3265.31 -5.63315 -5.29344 0
M  V30 19990 C 3264.37 -4.80255 -6.01876 0
M  V30 19991 C 3265.1 -3.64202 -6.65911 0
M  V30 19992 O 3265.31 -2.60694 -5.64732 0
M  V30 19993 C 3266.5 -3.93473 -7.1943 0
M  V30 19994 O 3266.89 -3.02071 -8.21205 0
M  V30 19995 C 3267.38 -3.73047 -5.97036 0
M  V30 19996 C 3266.67 -2.58828 -5.25741 0
M  V30 19997 N 3266.72 -2.68068 -3.77503 0
M  V30 19998 H 3263.88 -5.40332 -6.79951 0
M  V30 19999 H 3263.61 -4.41613 -5.32378 0
M  V30 20000 H 3264.48 -3.26331 -7.47797 0
M  V30 20001 P 3268.44 -2.75334 -8.47391 0
M  V30 20002 O 3268.66 -2.44571 -9.90142 0
M  V30 20003 O 3269.23 -3.87688 -7.92115 0
M  V30 20004 O 3268.69 -1.4459 -7.59357 0
M  V30 20005 C 3267.75 -0.347608 -7.69215 0
M  V30 20006 C 3268.48 0.96767 -7.52806 0
M  V30 20007 O 3268.69 1.21036 -6.1011 0
M  V30 20008 C 3269.88 1.04544 -8.13308 0
M  V30 20009 O 3270.27 2.38311 -8.41922 0
M  V30 20010 C 3270.76 0.491279 -7.02284 0
M  V30 20011 C 3270.05 0.996264 -5.77469 0
M  V30 20012 N 3270.1 0.0501916 -4.62973 0
M  V30 20013 C 3270.02 -1.32786 -4.63244 0
M  V30 20014 N 3270.1 -1.86957 -3.44545 0
M  V30 20015 C 3270.24 -0.780241 -2.58481 0
M  V30 20016 C 3270.37 -0.738536 -1.17757 0
M  V30 20017 N 3270.49 0.58337 -0.711393 0
M  V30 20018 C 3270.49 1.70816 -1.51017 0
M  V30 20019 N 3270.62 2.87826 -0.880757 0
M  V30 20020 N 3270.36 1.67126 -2.8339 0
M  V30 20021 C 3270.24 0.401421 -3.30572 0
M  V30 20022 H 3267.26 -0.374722 -8.67691 0
M  V30 20023 H 3266.99 -0.443485 -6.90277 0
M  V30 20024 H 3267.86 1.75537 -7.96793 0
M  V30 20025 P 3271.82 2.75334 -8.47391 0
M  V30 20026 O 3272.04 3.84166 -9.4489 0
M  V30 20027 O 3272.61 1.51964 -8.6881 0
M  V30 20028 O 3272.07 3.29363 -6.99321 0
M  V30 20029 C 3271.13 4.23956 -6.42656 0
M  V30 20030 C 3271.86 5.20775 -5.52155 0
M  V30 20031 O 3272.07 4.56534 -4.22446 0
M  V30 20032 C 3273.26 5.62629 -5.96531 0
M  V30 20033 O 3273.65 6.87667 -5.41053 0
M  V30 20034 C 3274.14 4.52537 -5.39283 0
M  V30 20035 C 3273.43 4.20027 -4.08623 0
M  V30 20036 N 3273.48 2.7613 -3.71522 0
M  V30 20037 C 3273.63 2.45612 -2.37989 0
M  V30 20038 O 3273.72 3.30919 -1.51621 0
M  V30 20039 N 3273.67 1.10684 -2.08435 0
M  V30 20040 C 3273.58 0.0690084 -2.9792 0
M  V30 20041 O 3273.63 -1.10553 -2.59426 0
M  V30 20042 C 3273.43 0.481522 -4.35345 0
M  V30 20043 C 3273.32 -0.618778 -5.36443 0
M  V30 20044 C 3273.38 1.78906 -4.67968 0
M  V30 20045 H 3270.64 4.797 -7.24003 0
M  V30 20046 H 3270.37 3.69802 -5.84429 0
M  V30 20047 H 3271.24 6.10356 -5.41441 0
M  V30 20048 H 3273.89 4.78651 -3.27911 0
M  V30 20049 H 3274.17 3.64957 -6.05871 0
M  V30 20050 H 3275.16 4.8868 -5.2125 0
M  V30 20051 H 3273.33 5.66726 -7.06352 0
M  V30 20052 H 3273.26 2.07737 -5.72367 0
M  V30 20053 H 3274.29 -0.754375 -5.86871 0
M  V30 20054 H 3272.55 -0.359721 -6.10641 0
M  V30 20055 H 3273.04 -1.55533 -4.8581 0
M  V30 20056 H 3273.78 0.862651 -1.12037 0
M  V30 20057 P 3275.2 7.20834 -5.23717 0
M  V30 20058 O 3275.42 8.66104 -5.38572 0
M  V30 20059 O 3275.99 6.33544 -6.1349 0
M  V30 20060 O 3275.45 6.7751 -3.72168 0
M  V30 20061 C 3274.51 7.20825 -2.7076 0
M  V30 20062 C 3275.24 7.45864 -1.40599 0
M  V30 20063 O 3275.45 6.17651 -0.734225 0
M  V30 20064 C 3276.64 8.05808 -1.51899 0
M  V30 20065 O 3277.03 8.74358 -0.335205 0
M  V30 20066 C 3277.52 6.83093 -1.70294 0
M  V30 20067 C 3276.81 5.79992 -0.836974 0
M  V30 20068 N 3276.86 4.41864 -1.38293 0
M  V30 20069 H 3274.02 8.13644 -3.0377 0
M  V30 20070 H 3273.75 6.42788 -2.55485 0
M  V30 20071 H 3274.62 8.12039 -0.792769 0
M  V30 20072 P 3278.58 8.91 -1.13852e-10 0
M  V30 20073 O 3278.8 10.1726 0.733694 0
M  V30 20074 O 3279.37 8.73148 -1.23936 0
M  V30 20075 O 3278.83 7.66872 0.971405 0
M  V30 20076 C 3277.89 7.42309 2.04641 0
M  V30 20077 C 3278.62 6.86059 3.24661 0
M  V30 20078 O 3278.83 5.42847 3.03646 0
M  V30 20079 C 3280.02 7.41196 3.50753 0
M  V30 20080 O 3280.41 7.27073 4.86816 0
M  V30 20081 C 3280.9 6.5273 2.63741 0
M  V30 20082 C 3280.19 5.1842 2.73198 0
M  V30 20083 N 3280.24 4.38762 1.4784 0
M  V30 20084 C 3280.16 4.81605 0.168631 0
M  V30 20085 N 3280.24 3.85454 -0.713363 0
M  V30 20086 C 3280.38 2.6994 0.0566958 0
M  V30 20087 C 3280.51 1.34815 -0.338502 0
M  V30 20088 N 3280.63 0.496304 0.77465 0
M  V30 20089 C 3280.63 0.908403 2.09122 0
M  V30 20090 N 3280.76 -0.0517805 3.00955 0
M  V30 20091 N 3280.5 2.17875 2.46519 0
M  V30 20092 C 3280.38 3.01988 1.4033 0
M  V30 20093 H 3277.4 8.36803 2.32493 0
M  V30 20094 H 3277.13 6.70197 1.71129 0
M  V30 20095 H 3278 7.03551 4.13168 0
M  V30 20096 P 3281.96 7.20834 5.23717 0
M  V30 20097 O 3282.18 7.80006 6.57415 0
M  V30 20098 O 3282.75 7.79416 4.13051 0
M  V30 20099 O 3282.21 5.63315 5.29344 0
M  V30 20100 C 3281.27 4.80318 6.01954 0
M  V30 20101 C 3282 3.64202 6.65911 0
M  V30 20102 O 3282.21 2.60736 5.64823 0
M  V30 20103 C 3283.4 3.93521 7.19518 0
M  V30 20104 O 3283.79 3.02071 8.21205 0
M  V30 20105 C 3284.28 3.73047 5.97036 0
M  V30 20106 C 3283.57 2.58828 5.25741 0
M  V30 20107 N 3283.62 2.68068 3.77503 0
M  V30 20108 C 3283.54 3.80474 2.99159 0
M  V30 20109 N 3283.61 3.55622 1.71925 0
M  V30 20110 C 3283.76 2.1832 1.65733 0
M  V30 20111 C 3283.89 1.28842 0.572777 0
M  V30 20112 N 3283.9 1.66875 -0.70098 0
M  V30 20113 N 3284.01 -0.016788 0.859836 0
M  V30 20114 C 3284 -0.398145 2.13316 0
M  V30 20115 N 3283.88 0.328224 3.22333 0
M  V30 20116 C 3283.76 1.62992 2.90383 0
M  V30 20117 H 3280.78 5.40394 6.8003 0
M  V30 20118 H 3280.51 4.41741 5.32532 0
M  V30 20119 H 3281.38 3.26371 7.47889 0
M  V30 20120 H 3284.03 1.64007 5.56746 0
M  V30 20121 H 3284.31 4.63439 5.3432 0
M  V30 20122 H 3285.3 3.44776 6.25925 0
M  V30 20123 H 3283.47 4.96707 7.57347 0
M  V30 20124 H 3283.43 4.8089 3.39924 0
M  V30 20125 H 3283.81 2.66547 -0.941919 0
M  V30 20126 H 3284 0.965341 -1.44766 0
M  V30 20127 H 3284.11 -1.46427 2.29697 0
M  V30 20128 P 3285.34 2.75334 8.47391 0
M  V30 20129 O 3285.56 2.44571 9.90142 0
M  V30 20130 O 3286.13 3.87688 7.92115 0
M  V30 20131 O 3285.59 1.4459 7.59357 0
M  V30 20132 C 3284.65 0.347608 7.69215 0
M  V30 20133 C 3285.38 -0.96767 7.52806 0
M  V30 20134 O 3285.59 -1.21036 6.1011 0
M  V30 20135 C 3286.78 -1.04544 8.13308 0
M  V30 20136 O 3287.17 -2.38311 8.41922 0
M  V30 20137 C 3287.66 -0.491279 7.02284 0
M  V30 20138 C 3286.95 -0.996264 5.77469 0
M  V30 20139 N 3287 -0.0501916 4.62973 0
M  V30 20140 H 3284.16 0.374722 8.67691 0
M  V30 20141 H 3283.89 0.443485 6.90277 0
M  V30 20142 H 3284.76 -1.75537 7.96793 0
M  V30 20143 P 3288.72 -2.75334 8.47391 0
M  V30 20144 O 3288.94 -3.84128 9.44797 0
M  V30 20145 O 3289.51 -1.51947 8.68712 0
M  V30 20146 O 3288.97 -3.29363 6.99321 0
M  V30 20147 C 3288.03 -4.24011 6.4274 0
M  V30 20148 C 3288.76 -5.20775 5.52155 0
M  V30 20149 O 3288.97 -4.56534 4.22446 0
M  V30 20150 C 3290.16 -5.62629 5.96531 0
M  V30 20151 O 3290.55 -6.87667 5.41053 0
M  V30 20152 C 3291.04 -4.52537 5.39283 0
M  V30 20153 C 3290.33 -4.20027 4.08623 0
M  V30 20154 N 3290.38 -2.76189 3.71603 0
M  V30 20155 H 3287.54 -4.797 7.24003 0
M  V30 20156 H 3287.27 -3.69856 5.84513 0
M  V30 20157 H 3288.14 -6.10356 5.41441 0
M  V30 20158 P 3292.1 -7.20834 5.23717 0
M  V30 20159 O 3292.32 -8.66104 5.38572 0
M  V30 20160 O 3292.89 -6.33544 6.1349 0
M  V30 20161 O 3292.35 -6.7751 3.72168 0
M  V30 20162 C 3291.41 -7.20825 2.7076 0
M  V30 20163 C 3292.14 -7.45864 1.40599 0
M  V30 20164 O 3292.35 -6.17651 0.734225 0
M  V30 20165 C 3293.54 -8.05808 1.51899 0
M  V30 20166 O 3293.93 -8.74358 0.335205 0
M  V30 20167 C 3294.42 -6.83093 1.70294 0
M  V30 20168 C 3293.71 -5.79992 0.836974 0
M  V30 20169 N 3293.76 -4.41864 1.38293 0
M  V30 20170 H 3290.92 -8.13644 3.0377 0
M  V30 20171 H 3290.65 -6.42788 2.55485 0
M  V30 20172 H 3291.52 -8.12039 0.792769 0
M  V30 20173 P 3295.48 -8.91 1.14961e-10 0
M  V30 20174 O 3295.7 -10.1726 -0.733694 0
M  V30 20175 O 3296.27 -8.73148 1.23936 0
M  V30 20176 O 3295.73 -7.66872 -0.971405 0
M  V30 20177 C 3294.79 -7.42309 -2.04641 0
M  V30 20178 C 3295.52 -6.86059 -3.24661 0
M  V30 20179 O 3295.73 -5.42847 -3.03646 0
M  V30 20180 C 3296.92 -7.41196 -3.50753 0
M  V30 20181 O 3297.31 -7.27073 -4.86816 0
M  V30 20182 C 3297.8 -6.5273 -2.63741 0
M  V30 20183 C 3297.09 -5.1842 -2.73198 0
M  V30 20184 N 3297.14 -4.38762 -1.4784 0
M  V30 20185 H 3294.3 -8.36803 -2.32493 0
M  V30 20186 H 3294.03 -6.70197 -1.71129 0
M  V30 20187 H 3294.9 -7.03551 -4.13168 0
M  V30 20188 P 3298.86 -7.20834 -5.23717 0
M  V30 20189 O 3299.08 -7.79853 -6.57286 0
M  V30 20190 O 3299.65 -7.79239 -4.12957 0
M  V30 20191 O 3299.11 -5.63315 -5.29344 0
M  V30 20192 C 3298.17 -4.80255 -6.01876 0
M  V30 20193 C 3298.9 -3.64202 -6.65911 0
M  V30 20194 O 3299.11 -2.60694 -5.64732 0
M  V30 20195 C 3300.3 -3.93473 -7.1943 0
M  V30 20196 O 3300.69 -3.02071 -8.21205 0
M  V30 20197 C 3301.18 -3.73047 -5.97036 0
M  V30 20198 C 3300.47 -2.58828 -5.25741 0
M  V30 20199 N 3300.52 -2.68068 -3.77503 0
M  V30 20200 H 3297.68 -5.40332 -6.79951 0
M  V30 20201 H 3297.41 -4.41613 -5.32378 0
M  V30 20202 H 3298.28 -3.26331 -7.47797 0
M  V30 20203 P 3302.24 -2.75334 -8.47391 0
M  V30 20204 O 3302.46 -2.44571 -9.90142 0
M  V30 20205 O 3303.03 -3.87688 -7.92115 0
M  V30 20206 O 3302.49 -1.4459 -7.59357 0
M  V30 20207 C 3301.55 -0.347608 -7.69215 0
M  V30 20208 C 3302.28 0.96767 -7.52806 0
M  V30 20209 O 3302.49 1.21036 -6.1011 0
M  V30 20210 C 3303.68 1.04544 -8.13308 0
M  V30 20211 O 3304.07 2.38311 -8.41922 0
M  V30 20212 C 3304.56 0.491279 -7.02284 0
M  V30 20213 C 3303.85 0.996264 -5.77469 0
M  V30 20214 N 3303.9 0.0501916 -4.62973 0
M  V30 20215 H 3301.06 -0.374722 -8.67691 0
M  V30 20216 H 3300.79 -0.443485 -6.90277 0
M  V30 20217 H 3301.66 1.75537 -7.96793 0
M  V30 20218 P 3305.62 2.75334 -8.47391 0
M  V30 20219 O 3305.84 3.84166 -9.4489 0
M  V30 20220 O 3306.41 1.51964 -8.6881 0
M  V30 20221 O 3305.87 3.29363 -6.99321 0
M  V30 20222 C 3304.93 4.23956 -6.42656 0
M  V30 20223 C 3305.66 5.20775 -5.52155 0
M  V30 20224 O 3305.87 4.56534 -4.22446 0
M  V30 20225 C 3307.06 5.62629 -5.96531 0
M  V30 20226 O 3307.45 6.87667 -5.41053 0
M  V30 20227 C 3307.94 4.52537 -5.39283 0
M  V30 20228 C 3307.23 4.20027 -4.08623 0
M  V30 20229 N 3307.28 2.7613 -3.71522 0
M  V30 20230 C 3307.43 2.45612 -2.37989 0
M  V30 20231 O 3307.52 3.30919 -1.51621 0
M  V30 20232 N 3307.47 1.10684 -2.08435 0
M  V30 20233 C 3307.38 0.0690084 -2.9792 0
M  V30 20234 C 3307.23 0.481522 -4.35345 0
M  V30 20235 C 3307.18 1.78906 -4.67968 0
M  V30 20236 H 3304.44 4.797 -7.24003 0
M  V30 20237 H 3304.17 3.69802 -5.84429 0
M  V30 20238 H 3305.04 6.10356 -5.41441 0
M  V30 20239 H 3307.69 4.78651 -3.27911 0
M  V30 20240 H 3307.97 3.64957 -6.05871 0
M  V30 20241 H 3308.96 4.8868 -5.2125 0
M  V30 20242 H 3307.13 5.66726 -7.06352 0
M  V30 20243 H 3307.06 2.07737 -5.72367 0
M  V30 20244 P 3309 7.20834 -5.23717 0
M  V30 20245 O 3309.22 8.66104 -5.38572 0
M  V30 20246 O 3309.79 6.33544 -6.1349 0
M  V30 20247 O 3309.25 6.7751 -3.72168 0
M  V30 20248 C 3308.31 7.20825 -2.7076 0
M  V30 20249 C 3309.04 7.45864 -1.40599 0
M  V30 20250 O 3309.25 6.17651 -0.734225 0
M  V30 20251 C 3310.44 8.05808 -1.51899 0
M  V30 20252 O 3310.83 8.74358 -0.335205 0
M  V30 20253 C 3311.32 6.83093 -1.70294 0
M  V30 20254 C 3310.61 5.79992 -0.836974 0
M  V30 20255 N 3310.66 4.41864 -1.38293 0
M  V30 20256 H 3307.82 8.13644 -3.0377 0
M  V30 20257 H 3307.55 6.42788 -2.55485 0
M  V30 20258 H 3308.42 8.12039 -0.792769 0
M  V30 20259 P 3312.38 8.91 -1.1607e-10 0
M  V30 20260 O 3312.6 10.1726 0.733694 0
M  V30 20261 O 3313.17 8.73148 -1.23936 0
M  V30 20262 O 3312.63 7.66872 0.971405 0
M  V30 20263 C 3311.69 7.42309 2.04641 0
M  V30 20264 C 3312.42 6.86059 3.24661 0
M  V30 20265 O 3312.63 5.42847 3.03646 0
M  V30 20266 C 3313.82 7.41196 3.50753 0
M  V30 20267 O 3314.21 7.27073 4.86816 0
M  V30 20268 C 3314.7 6.5273 2.63741 0
M  V30 20269 C 3313.99 5.1842 2.73198 0
M  V30 20270 N 3314.04 4.38762 1.4784 0
M  V30 20271 H 3311.2 8.36803 2.32493 0
M  V30 20272 H 3310.93 6.70197 1.71129 0
M  V30 20273 H 3311.8 7.03551 4.13168 0
M  V30 20274 P 3315.76 7.20834 5.23717 0
M  V30 20275 O 3315.98 7.7993 6.57351 0
M  V30 20276 O 3316.55 7.79328 4.13004 0
M  V30 20277 O 3316.01 5.63315 5.29344 0
M  V30 20278 C 3315.07 4.80193 6.01798 0
M  V30 20279 C 3315.8 3.64202 6.65911 0
M  V30 20280 O 3316.01 2.60694 5.64732 0
M  V30 20281 C 3317.2 3.93473 7.1943 0
M  V30 20282 O 3317.59 3.02071 8.21205 0
M  V30 20283 C 3318.08 3.73047 5.97036 0
M  V30 20284 C 3317.37 2.58828 5.25741 0
M  V30 20285 N 3317.42 2.6801 3.77422 0
M  V30 20286 C 3317.57 1.50443 3.07133 0
M  V30 20287 O 3317.66 0.419406 3.61576 0
M  V30 20288 N 3317.61 1.6403 1.69677 0
M  V30 20289 C 3317.52 2.81206 0.986255 0
M  V30 20290 O 3317.57 2.80892 -0.249754 0
M  V30 20291 C 3317.37 3.99158 1.80325 0
M  V30 20292 C 3317.26 5.29309 1.06921 0
M  V30 20293 C 3317.32 3.89779 3.1476 0
M  V30 20294 H 3314.58 5.40332 6.79951 0
M  V30 20295 H 3314.31 4.41549 5.32301 0
M  V30 20296 H 3315.18 3.26331 7.47797 0
M  V30 20297 H 3317.83 1.6395 5.56554 0
M  V30 20298 H 3318.11 4.63439 5.3432 0
M  V30 20299 H 3319.1 3.44728 6.25838 0
M  V30 20300 H 3317.27 4.96652 7.57263 0
M  V30 20301 H 3317.2 4.80159 3.74441 0
M  V30 20302 H 3318.23 5.81459 1.09608 0
M  V30 20303 H 3316.49 5.9187 1.54487 0
M  V30 20304 H 3316.98 5.10095 0.0220288 0
M  V30 20305 H 3317.72 0.798962 1.16664 0
M  V30 20306 P 3319.14 2.75334 8.47391 0
M  V30 20307 O 3319.36 2.44571 9.90142 0
M  V30 20308 O 3319.93 3.87688 7.92115 0
M  V30 20309 O 3319.39 1.4459 7.59357 0
M  V30 20310 C 3318.45 0.347608 7.69215 0
M  V30 20311 C 3319.18 -0.96767 7.52806 0
M  V30 20312 O 3319.39 -1.21036 6.1011 0
M  V30 20313 C 3320.58 -1.04544 8.13308 0
M  V30 20314 O 3320.97 -2.38311 8.41922 0
M  V30 20315 C 3321.46 -0.491279 7.02284 0
M  V30 20316 C 3320.75 -0.996264 5.77469 0
M  V30 20317 N 3320.8 -0.0501916 4.62973 0
M  V30 20318 H 3317.96 0.374722 8.67691 0
M  V30 20319 H 3317.69 0.443485 6.90277 0
M  V30 20320 H 3318.56 -1.75537 7.96793 0
M  V30 20321 P 3322.52 -2.75334 8.47391 0
M  V30 20322 O 3322.74 -3.84128 9.44797 0
M  V30 20323 O 3323.31 -1.51947 8.68712 0
M  V30 20324 O 3322.77 -3.29363 6.99321 0
M  V30 20325 C 3321.83 -4.24011 6.4274 0
M  V30 20326 C 3322.56 -5.20775 5.52155 0
M  V30 20327 O 3322.77 -4.56534 4.22446 0
M  V30 20328 C 3323.96 -5.62629 5.96531 0
M  V30 20329 O 3324.35 -6.87667 5.41053 0
M  V30 20330 C 3324.84 -4.52537 5.39283 0
M  V30 20331 C 3324.13 -4.20027 4.08623 0
M  V30 20332 N 3324.18 -2.76189 3.71603 0
M  V30 20333 H 3321.34 -4.797 7.24003 0
M  V30 20334 H 3321.07 -3.69856 5.84513 0
M  V30 20335 H 3321.94 -6.10356 5.41441 0
M  V30 20336 P 3325.9 -7.20834 5.23717 0
M  V30 20337 O 3326.12 -8.66104 5.38572 0
M  V30 20338 O 3326.69 -6.33544 6.1349 0
M  V30 20339 O 3326.15 -6.7751 3.72168 0
M  V30 20340 C 3325.21 -7.20825 2.7076 0
M  V30 20341 C 3325.94 -7.45864 1.40599 0
M  V30 20342 O 3326.15 -6.17651 0.734225 0
M  V30 20343 C 3327.34 -8.05808 1.51899 0
M  V30 20344 O 3327.73 -8.74358 0.335205 0
M  V30 20345 C 3328.22 -6.83093 1.70294 0
M  V30 20346 C 3327.51 -5.79992 0.836974 0
M  V30 20347 N 3327.56 -4.41864 1.38293 0
M  V30 20348 C 3327.48 -3.99538 2.69438 0
M  V30 20349 N 3327.56 -2.69909 2.84277 0
M  V30 20350 C 3327.7 -2.21719 1.5408 0
M  V30 20351 C 3327.83 -0.891712 1.06628 0
M  V30 20352 O 3327.85 0.161298 1.70137 0
M  V30 20353 N 3327.95 -0.856846 -0.334985 0
M  V30 20354 C 3327.95 -1.9641 -1.15789 0
M  V30 20355 N 3328.08 -1.72708 -2.46522 0
M  V30 20356 N 3327.82 -3.21165 -0.713741 0
M  V30 20357 C 3327.7 -3.26797 0.639748 0
M  V30 20358 H 3324.72 -8.13644 3.0377 0
M  V30 20359 H 3324.45 -6.42788 2.55485 0
M  V30 20360 H 3325.32 -8.12039 0.792769 0
M  V30 20361 H 3327.97 -5.80061 -0.166416 0
M  V30 20362 H 3328.25 -6.51287 2.75604 0
M  V30 20363 H 3329.24 -7.01734 1.34462 0
M  V30 20364 H 3327.41 -8.73674 2.38337 0
M  V30 20365 H 3327.36 -4.68207 3.53221 0
M  V30 20366 H 3328.04 0.0398818 -0.767965 0
M  V30 20367 H 3328.08 -2.50995 -3.13503 0
M  V30 20368 H 3328.18 -0.759148 -2.80716 0
M  V30 20369 P 3329.28 -8.91 1.17179e-10 0
M  V30 20370 O 3329.5 -10.1746 -0.733838 0
M  V30 20371 O 3330.07 -8.73346 1.23964 0
M  V30 20372 O 3329.53 -7.66872 -0.971405 0
M  V30 20373 C 3328.59 -7.42405 -2.04668 0
M  V30 20374 C 3329.32 -6.86059 -3.24661 0
M  V30 20375 O 3329.53 -5.42934 -3.03695 0
M  V30 20376 C 3330.72 -7.41287 -3.50796 0
M  V30 20377 O 3331.11 -7.27073 -4.86816 0
M  V30 20378 C 3331.6 -6.5273 -2.63741 0
M  V30 20379 C 3330.89 -5.1842 -2.73198 0
M  V30 20380 N 3330.94 -4.38762 -1.4784 0
M  V30 20381 C 3330.86 -4.83651 -0.183876 0
M  V30 20382 N 3330.93 -3.88759 0.699393 0
M  V30 20383 C 3331.08 -2.7404 -0.0575568 0
M  V30 20384 C 3331.21 -1.37902 0.293928 0
M  V30 20385 N 3331.22 -0.938021 1.54797 0
M  V30 20386 N 3331.33 -0.491817 -0.70549 0
M  V30 20387 C 3331.32 -0.931735 -1.95979 0
M  V30 20388 N 3331.2 -2.16017 -2.41481 0
M  V30 20389 C 3331.08 -3.02547 -1.39121 0
M  V30 20390 H 3328.1 -8.36899 -2.3252 0
M  V30 20391 H 3327.83 -6.70391 -1.71179 0
M  V30 20392 H 3328.7 -7.03638 -4.13219 0
M  V30 20393 H 3331.35 -4.59931 -3.54016 0
M  V30 20394 H 3331.63 -6.88995 -1.59871 0
M  V30 20395 H 3332.62 -6.4684 -3.0373 0
M  V30 20396 H 3330.79 -8.47002 -3.20749 0
M  V30 20397 H 3330.75 -5.8885 0.0765548 0
M  V30 20398 H 3331.13 -1.60276 2.32875 0
M  V30 20399 H 3331.32 0.0699355 1.73859 0
M  V30 20400 H 3331.43 -0.165507 -2.71897 0
M  V30 20401 P 3332.66 -7.20834 -5.23717 0
M  V30 20402 O 3332.88 -7.80006 -6.57415 0
M  V30 20403 O 3333.45 -7.79416 -4.13051 0
M  V30 20404 O 3332.91 -5.63315 -5.29344 0
M  V30 20405 C 3331.97 -4.80318 -6.01954 0
M  V30 20406 C 3332.7 -3.64202 -6.65911 0
M  V30 20407 O 3332.91 -2.60736 -5.64823 0
M  V30 20408 C 3334.1 -3.93521 -7.19518 0
M  V30 20409 O 3334.49 -3.02071 -8.21205 0
M  V30 20410 C 3334.98 -3.73047 -5.97036 0
M  V30 20411 C 3334.27 -2.58828 -5.25741 0
M  V30 20412 N 3334.32 -2.68068 -3.77503 0
M  V30 20413 C 3334.24 -3.80474 -2.99159 0
M  V30 20414 N 3334.31 -3.55622 -1.71925 0
M  V30 20415 C 3334.46 -2.1832 -1.65733 0
M  V30 20416 C 3334.59 -1.28842 -0.572777 0
M  V30 20417 N 3334.6 -1.66875 0.70098 0
M  V30 20418 N 3334.71 0.016788 -0.859836 0
M  V30 20419 C 3334.7 0.398145 -2.13316 0
M  V30 20420 N 3334.58 -0.328224 -3.22333 0
M  V30 20421 C 3334.46 -1.62992 -2.90383 0
M  V30 20422 H 3331.48 -5.40394 -6.8003 0
M  V30 20423 H 3331.21 -4.41741 -5.32532 0
M  V30 20424 H 3332.08 -3.26371 -7.47889 0
M  V30 20425 H 3334.73 -1.64007 -5.56746 0
M  V30 20426 H 3335.01 -4.63439 -5.3432 0
M  V30 20427 H 3336 -3.44776 -6.25925 0
M  V30 20428 H 3334.17 -4.96707 -7.57347 0
M  V30 20429 H 3334.13 -4.8089 -3.39924 0
M  V30 20430 H 3334.51 -2.66547 0.941919 0
M  V30 20431 H 3334.7 -0.965341 1.44766 0
M  V30 20432 H 3334.81 1.46427 -2.29697 0
M  V30 20433 P 3336.04 -2.75334 -8.47391 0
M  V30 20434 O 3336.26 -2.44619 -9.90336 0
M  V30 20435 O 3336.83 -3.87776 -7.92294 0
M  V30 20436 O 3336.29 -1.4459 -7.59357 0
M  V30 20437 C 3335.35 -0.347653 -7.69315 0
M  V30 20438 C 3336.08 0.96767 -7.52806 0
M  V30 20439 O 3336.29 1.21055 -6.10208 0
M  V30 20440 C 3337.48 1.04557 -8.13408 0
M  V30 20441 O 3337.87 2.38311 -8.41922 0
M  V30 20442 C 3338.36 0.491279 -7.02284 0
M  V30 20443 C 3337.65 0.996264 -5.77469 0
M  V30 20444 N 3337.7 0.0501916 -4.62973 0
M  V30 20445 C 3337.62 -1.31969 -4.65661 0
M  V30 20446 N 3337.69 -1.86649 -3.48119 0
M  V30 20447 C 3337.84 -0.792089 -2.62406 0
M  V30 20448 C 3337.97 -0.705684 -1.2207 0
M  V30 20449 N 3337.98 -1.76207 -0.413762 0
M  V30 20450 N 3338.09 0.518981 -0.685754 0
M  V30 20451 C 3338.08 1.57595 -1.49174 0
M  V30 20452 N 3337.96 1.62909 -2.80066 0
M  V30 20453 C 3337.84 0.388195 -3.3073 0
M  V30 20454 H 3334.86 -0.374765 -8.67791 0
M  V30 20455 H 3334.59 -0.443613 -6.90476 0
M  V30 20456 H 3335.46 1.75559 -7.96891 0
M  V30 20457 H 3338.11 1.94563 -5.46818 0
M  V30 20458 H 3338.39 -0.608651 -7.04676 0
M  V30 20459 H 3339.38 0.889796 -7.09039 0
M  V30 20460 H 3337.55 0.433128 -9.04664 0
M  V30 20461 H 3337.51 -1.89246 -5.57664 0
M  V30 20462 H 3337.89 -2.71005 -0.804694 0
M  V30 20463 H 3338.08 -1.63189 0.603768 0
M  V30 20464 H 3338.19 2.53475 -0.997614 0
M  V30 20465 P 3339.42 2.75334 -8.47391 0
M  V30 20466 O 3339.64 3.84204 -9.44982 0
M  V30 20467 O 3340.21 1.51982 -8.68909 0
M  V30 20468 O 3339.67 3.29363 -6.99321 0
M  V30 20469 C 3338.73 4.24066 -6.42823 0
M  V30 20470 C 3339.46 5.20775 -5.52155 0
M  V30 20471 O 3339.67 4.56607 -4.22514 0
M  V30 20472 C 3340.86 5.62697 -5.96604 0
M  V30 20473 O 3341.25 6.87667 -5.41053 0
M  V30 20474 C 3341.74 4.52537 -5.39283 0
M  V30 20475 C 3341.03 4.20027 -4.08623 0
M  V30 20476 N 3341.08 2.76189 -3.71603 0
M  V30 20477 C 3341 1.66944 -4.54297 0
M  V30 20478 N 3341.07 0.536169 -3.91344 0
M  V30 20479 C 3341.22 0.901569 -2.58849 0
M  V30 20480 C 3341.35 0.146599 -1.40236 0
M  V30 20481 N 3341.36 -1.18234 -1.37046 0
M  V30 20482 N 3341.47 0.822941 -0.249738 0
M  V30 20483 C 3341.46 2.15179 -0.280525 0
M  V30 20484 N 3341.34 2.96414 -1.30822 0
M  V30 20485 C 3341.22 2.25804 -2.44748 0
M  V30 20486 H 3338.24 4.79756 -7.24086 0
M  V30 20487 H 3337.97 3.69963 -5.84682 0
M  V30 20488 H 3338.84 6.10431 -5.41508 0
M  V30 20489 H 3341.49 4.78816 -3.28024 0
M  V30 20490 H 3341.77 3.64957 -6.05871 0
M  V30 20491 H 3342.76 4.88748 -5.21323 0
M  V30 20492 H 3340.93 5.66789 -7.0643 0
M  V30 20493 H 3340.89 1.74684 -5.62396 0
M  V30 20494 H 3341.27 -1.71949 -2.24394 0
M  V30 20495 H 3341.46 -1.67511 -0.470742 0
M  V30 20496 H 3341.57 2.63704 0.6828 0
M  V30 20497 P 3342.8 7.20834 -5.23717 0
M  V30 20498 O 3343.02 8.66104 -5.38572 0
M  V30 20499 O 3343.59 6.33544 -6.1349 0
M  V30 20500 O 3343.05 6.7751 -3.72168 0
M  V30 20501 C 3342.11 7.20825 -2.7076 0
M  V30 20502 C 3342.84 7.45864 -1.40599 0
M  V30 20503 O 3343.05 6.17651 -0.734225 0
M  V30 20504 C 3344.24 8.05808 -1.51899 0
M  V30 20505 O 3344.63 8.74358 -0.335205 0
M  V30 20506 C 3345.12 6.83093 -1.70294 0
M  V30 20507 C 3344.41 5.79992 -0.836974 0
M  V30 20508 N 3344.46 4.41864 -1.38293 0
M  V30 20509 H 3341.62 8.13644 -3.0377 0
M  V30 20510 H 3341.35 6.42788 -2.55485 0
M  V30 20511 H 3342.22 8.12039 -0.792769 0
M  V30 20512 P 3346.18 8.91 -1.18288e-10 0
M  V30 20513 O 3346.4 10.1746 0.733838 0
M  V30 20514 O 3346.97 8.73346 -1.23964 0
M  V30 20515 O 3346.43 7.66872 0.971405 0
M  V30 20516 C 3345.49 7.42405 2.04668 0
M  V30 20517 C 3346.22 6.86059 3.24661 0
M  V30 20518 O 3346.43 5.42934 3.03695 0
M  V30 20519 C 3347.62 7.41287 3.50796 0
M  V30 20520 O 3348.01 7.27073 4.86816 0
M  V30 20521 C 3348.5 6.5273 2.63741 0
M  V30 20522 C 3347.79 5.1842 2.73198 0
M  V30 20523 N 3347.84 4.38762 1.4784 0
M  V30 20524 C 3347.76 4.83651 0.183876 0
M  V30 20525 N 3347.83 3.88759 -0.699393 0
M  V30 20526 C 3347.98 2.7404 0.0575568 0
M  V30 20527 C 3348.11 1.37902 -0.293928 0
M  V30 20528 N 3348.12 0.938021 -1.54797 0
M  V30 20529 N 3348.23 0.491817 0.70549 0
M  V30 20530 C 3348.22 0.931735 1.95979 0
M  V30 20531 N 3348.1 2.16017 2.41481 0
M  V30 20532 C 3347.98 3.02547 1.39121 0
M  V30 20533 H 3345 8.36899 2.3252 0
M  V30 20534 H 3344.73 6.70391 1.71179 0
M  V30 20535 H 3345.6 7.03638 4.13219 0
M  V30 20536 H 3348.25 4.59931 3.54016 0
M  V30 20537 H 3348.53 6.88995 1.59871 0
M  V30 20538 H 3349.52 6.4684 3.0373 0
M  V30 20539 H 3347.69 8.47002 3.20749 0
M  V30 20540 H 3347.65 5.8885 -0.0765548 0
M  V30 20541 H 3348.03 1.60276 -2.32875 0
M  V30 20542 H 3348.22 -0.0699355 -1.73859 0
M  V30 20543 H 3348.33 0.165507 2.71897 0
M  V30 20544 P 3349.56 7.20834 5.23717 0
M  V30 20545 O 3349.78 7.79853 6.57286 0
M  V30 20546 O 3350.35 7.79239 4.12957 0
M  V30 20547 O 3349.81 5.63315 5.29344 0
M  V30 20548 C 3348.87 4.80255 6.01876 0
M  V30 20549 C 3349.6 3.64202 6.65911 0
M  V30 20550 O 3349.81 2.60694 5.64732 0
M  V30 20551 C 3351 3.93473 7.1943 0
M  V30 20552 O 3351.39 3.02071 8.21205 0
M  V30 20553 C 3351.88 3.73047 5.97036 0
M  V30 20554 C 3351.17 2.58828 5.25741 0
M  V30 20555 N 3351.22 2.68068 3.77503 0
M  V30 20556 H 3348.38 5.40332 6.79951 0
M  V30 20557 H 3348.11 4.41613 5.32378 0
M  V30 20558 H 3348.98 3.26331 7.47797 0
M  V30 20559 P 3352.94 2.75334 8.47391 0
M  V30 20560 O 3353.16 2.44571 9.90142 0
M  V30 20561 O 3353.73 3.87688 7.92115 0
M  V30 20562 O 3353.19 1.4459 7.59357 0
M  V30 20563 C 3352.25 0.347608 7.69215 0
M  V30 20564 C 3352.98 -0.96767 7.52806 0
M  V30 20565 O 3353.19 -1.21036 6.1011 0
M  V30 20566 C 3354.38 -1.04544 8.13308 0
M  V30 20567 O 3354.77 -2.38311 8.41922 0
M  V30 20568 C 3355.26 -0.491279 7.02284 0
M  V30 20569 C 3354.55 -0.996264 5.77469 0
M  V30 20570 N 3354.6 -0.0501916 4.62973 0
M  V30 20571 C 3354.52 1.32786 4.63244 0
M  V30 20572 N 3354.6 1.86957 3.44545 0
M  V30 20573 C 3354.74 0.780241 2.58481 0
M  V30 20574 C 3354.87 0.738536 1.17757 0
M  V30 20575 N 3354.99 -0.58337 0.711393 0
M  V30 20576 C 3354.99 -1.70816 1.51017 0
M  V30 20577 N 3355.12 -2.87826 0.880757 0
M  V30 20578 N 3354.86 -1.67126 2.8339 0
M  V30 20579 C 3354.74 -0.401421 3.30572 0
M  V30 20580 H 3351.76 0.374722 8.67691 0
M  V30 20581 H 3351.49 0.443485 6.90277 0
M  V30 20582 H 3352.36 -1.75537 7.96793 0
M  V30 20583 P 3356.32 -2.75334 8.47391 0
M  V30 20584 O 3356.54 -3.84128 9.44797 0
M  V30 20585 O 3357.11 -1.51947 8.68712 0
M  V30 20586 O 3356.57 -3.29363 6.99321 0
M  V30 20587 C 3355.63 -4.24011 6.4274 0
M  V30 20588 C 3356.36 -5.20775 5.52155 0
M  V30 20589 O 3356.57 -4.56534 4.22446 0
M  V30 20590 C 3357.76 -5.62629 5.96531 0
M  V30 20591 O 3358.15 -6.87667 5.41053 0
M  V30 20592 C 3358.64 -4.52537 5.39283 0
M  V30 20593 C 3357.93 -4.20027 4.08623 0
M  V30 20594 N 3357.98 -2.76189 3.71603 0
M  V30 20595 H 3355.14 -4.797 7.24003 0
M  V30 20596 H 3354.87 -3.69856 5.84513 0
M  V30 20597 H 3355.74 -6.10356 5.41441 0
M  V30 20598 P 3359.7 -7.20834 5.23717 0
M  V30 20599 O 3359.92 -8.66274 5.38678 0
M  V30 20600 O 3360.49 -6.33687 6.13629 0
M  V30 20601 O 3359.95 -6.7751 3.72168 0
M  V30 20602 C 3359.01 -7.20919 2.70795 0
M  V30 20603 C 3359.74 -7.45864 1.40599 0
M  V30 20604 O 3359.95 -6.17751 0.734343 0
M  V30 20605 C 3361.14 -8.05906 1.51917 0
M  V30 20606 O 3361.53 -8.74358 0.335205 0
M  V30 20607 C 3362.02 -6.83093 1.70294 0
M  V30 20608 C 3361.31 -5.79992 0.836974 0
M  V30 20609 N 3361.36 -4.41864 1.38293 0
M  V30 20610 C 3361.28 -4.02089 2.69407 0
M  V30 20611 N 3361.35 -2.73403 2.85089 0
M  V30 20612 C 3361.5 -2.25086 1.5642 0
M  V30 20613 C 3361.63 -0.942887 1.04836 0
M  V30 20614 N 3361.64 0.150999 1.80369 0
M  V30 20615 N 3361.75 -0.812565 -0.28167 0
M  V30 20616 C 3361.74 -1.90572 -1.03784 0
M  V30 20617 N 3361.62 -3.167 -0.683905 0
M  V30 20618 C 3361.5 -3.26538 0.652815 0
M  V30 20619 H 3358.52 -8.13738 3.03804 0
M  V30 20620 H 3358.25 -6.42974 2.55559 0
M  V30 20621 H 3359.12 -8.12139 0.792866 0
M  V30 20622 H 3361.77 -5.80178 -0.160643 0
M  V30 20623 H 3362.05 -6.51379 2.75643 0
M  V30 20624 H 3363.04 -7.01832 1.3448 0
M  V30 20625 H 3361.21 -8.73771 2.38364 0
M  V30 20626 H 3361.17 -4.7189 3.52311 0
M  V30 20627 H 3361.55 0.0721434 2.82608 0
M  V30 20628 H 3361.74 1.0785 1.36544 0
M  V30 20629 H 3361.85 -1.73207 -2.10241 0
M  V30 20630 P 3363.08 -8.91 1.19397e-10 0
M  V30 20631 O 3363.3 -10.1726 -0.733694 0
M  V30 20632 O 3363.87 -8.73148 1.23936 0
M  V30 20633 O 3363.33 -7.66872 -0.971405 0
M  V30 20634 C 3362.39 -7.42309 -2.04641 0
M  V30 20635 C 3363.12 -6.86059 -3.24661 0
M  V30 20636 O 3363.33 -5.42847 -3.03646 0
M  V30 20637 C 3364.52 -7.41196 -3.50753 0
M  V30 20638 O 3364.91 -7.27073 -4.86816 0
M  V30 20639 C 3365.4 -6.5273 -2.63741 0
M  V30 20640 C 3364.69 -5.1842 -2.73198 0
M  V30 20641 N 3364.74 -4.38762 -1.4784 0
M  V30 20642 H 3361.9 -8.36803 -2.32493 0
M  V30 20643 H 3361.63 -6.70197 -1.71129 0
M  V30 20644 H 3362.5 -7.03551 -4.13168 0
M  V30 20645 P 3366.46 -7.20834 -5.23717 0
M  V30 20646 O 3366.68 -7.79853 -6.57286 0
M  V30 20647 O 3367.25 -7.79239 -4.12957 0
M  V30 20648 O 3366.71 -5.63315 -5.29344 0
M  V30 20649 C 3365.77 -4.80255 -6.01876 0
M  V30 20650 C 3366.5 -3.64202 -6.65911 0
M  V30 20651 O 3366.71 -2.60694 -5.64732 0
M  V30 20652 C 3367.9 -3.93473 -7.1943 0
M  V30 20653 O 3368.29 -3.02071 -8.21205 0
M  V30 20654 C 3368.78 -3.73047 -5.97036 0
M  V30 20655 C 3368.07 -2.58828 -5.25741 0
M  V30 20656 N 3368.12 -2.68068 -3.77503 0
M  V30 20657 H 3365.28 -5.40332 -6.79951 0
M  V30 20658 H 3365.01 -4.41613 -5.32378 0
M  V30 20659 H 3365.88 -3.26331 -7.47797 0
M  V30 20660 P 3369.84 -2.75334 -8.47391 0
M  V30 20661 O 3370.06 -2.44619 -9.90336 0
M  V30 20662 O 3370.63 -3.87776 -7.92294 0
M  V30 20663 O 3370.09 -1.4459 -7.59357 0
M  V30 20664 C 3369.15 -0.347653 -7.69315 0
M  V30 20665 C 3369.88 0.96767 -7.52806 0
M  V30 20666 O 3370.09 1.21055 -6.10208 0
M  V30 20667 C 3371.28 1.04557 -8.13408 0
M  V30 20668 O 3371.67 2.38311 -8.41922 0
M  V30 20669 C 3372.16 0.491279 -7.02284 0
M  V30 20670 C 3371.45 0.996264 -5.77469 0
M  V30 20671 N 3371.5 0.0501916 -4.62973 0
M  V30 20672 H 3368.66 -0.374765 -8.67791 0
M  V30 20673 H 3368.39 -0.443613 -6.90476 0
M  V30 20674 H 3369.26 1.75559 -7.96891 0
M  V30 20675 H 3371.91 1.94563 -5.46818 0
M  V30 20676 H 3372.19 -0.608651 -7.04676 0
M  V30 20677 H 3373.18 0.889796 -7.09039 0
M  V30 20678 H 3371.35 0.433128 -9.04664 0
M  V30 20679 P 3373.22 2.75334 -8.47391 0
M  V30 20680 O 3373.44 3.84128 -9.44797 0
M  V30 20681 O 3374.01 1.51947 -8.68712 0
M  V30 20682 O 3373.47 3.29363 -6.99321 0
M  V30 20683 C 3372.53 4.24011 -6.4274 0
M  V30 20684 C 3373.26 5.20775 -5.52155 0
M  V30 20685 O 3373.47 4.56534 -4.22446 0
M  V30 20686 C 3374.66 5.62629 -5.96531 0
M  V30 20687 O 3375.05 6.87667 -5.41053 0
M  V30 20688 C 3375.54 4.52537 -5.39283 0
M  V30 20689 C 3374.83 4.20027 -4.08623 0
M  V30 20690 N 3374.88 2.76189 -3.71603 0
M  V30 20691 H 3372.04 4.797 -7.24003 0
M  V30 20692 H 3371.77 3.69856 -5.84513 0
M  V30 20693 H 3372.64 6.10356 -5.41441 0
M  V30 20694 P 3376.6 7.20834 -5.23717 0
M  V30 20695 O 3376.82 8.66274 -5.38678 0
M  V30 20696 O 3377.39 6.33687 -6.13629 0
M  V30 20697 O 3376.85 6.7751 -3.72168 0
M  V30 20698 C 3375.91 7.20919 -2.70795 0
M  V30 20699 C 3376.64 7.45864 -1.40599 0
M  V30 20700 O 3376.85 6.17751 -0.734343 0
M  V30 20701 C 3378.04 8.05906 -1.51917 0
M  V30 20702 O 3378.43 8.74358 -0.335205 0
M  V30 20703 C 3378.92 6.83093 -1.70294 0
M  V30 20704 C 3378.21 5.79992 -0.836974 0
M  V30 20705 N 3378.26 4.41864 -1.38293 0
M  V30 20706 C 3378.18 4.02089 -2.69407 0
M  V30 20707 N 3378.25 2.73403 -2.85089 0
M  V30 20708 C 3378.4 2.25086 -1.5642 0
M  V30 20709 C 3378.53 0.942887 -1.04836 0
M  V30 20710 N 3378.54 -0.150999 -1.80369 0
M  V30 20711 N 3378.65 0.812565 0.28167 0
M  V30 20712 C 3378.64 1.90572 1.03784 0
M  V30 20713 N 3378.52 3.167 0.683905 0
M  V30 20714 C 3378.4 3.26538 -0.652815 0
M  V30 20715 H 3375.42 8.13738 -3.03804 0
M  V30 20716 H 3375.15 6.42974 -2.55559 0
M  V30 20717 H 3376.02 8.12139 -0.792866 0
M  V30 20718 H 3378.67 5.80178 0.160643 0
M  V30 20719 H 3378.95 6.51379 -2.75643 0
M  V30 20720 H 3379.94 7.01832 -1.3448 0
M  V30 20721 H 3378.11 8.73771 -2.38364 0
M  V30 20722 H 3378.07 4.7189 -3.52311 0
M  V30 20723 H 3378.45 -0.0721434 -2.82608 0
M  V30 20724 H 3378.64 -1.0785 -1.36544 0
M  V30 20725 H 3378.75 1.73207 2.10241 0
M  V30 20726 P 3379.98 8.91 -1.20506e-10 0
M  V30 20727 O 3380.2 10.1726 0.733694 0
M  V30 20728 O 3380.77 8.73148 -1.23936 0
M  V30 20729 O 3380.23 7.66872 0.971405 0
M  V30 20730 C 3379.29 7.42309 2.04641 0
M  V30 20731 C 3380.02 6.86059 3.24661 0
M  V30 20732 O 3380.23 5.42847 3.03646 0
M  V30 20733 C 3381.42 7.41196 3.50753 0
M  V30 20734 O 3381.81 7.27073 4.86816 0
M  V30 20735 C 3382.3 6.5273 2.63741 0
M  V30 20736 C 3381.59 5.1842 2.73198 0
M  V30 20737 N 3381.64 4.38762 1.4784 0
M  V30 20738 C 3381.56 4.81605 0.168631 0
M  V30 20739 N 3381.64 3.85454 -0.713363 0
M  V30 20740 C 3381.78 2.6994 0.0566958 0
M  V30 20741 C 3381.91 1.34815 -0.338502 0
M  V30 20742 N 3382.03 0.496304 0.77465 0
M  V30 20743 C 3382.03 0.908403 2.09122 0
M  V30 20744 N 3382.16 -0.0517805 3.00955 0
M  V30 20745 N 3381.9 2.17875 2.46519 0
M  V30 20746 C 3381.78 3.01988 1.4033 0
M  V30 20747 H 3378.8 8.36803 2.32493 0
M  V30 20748 H 3378.53 6.70197 1.71129 0
M  V30 20749 H 3379.4 7.03551 4.13168 0
M  V30 20750 P 3383.36 7.20834 5.23717 0
M  V30 20751 O 3383.58 7.79853 6.57286 0
M  V30 20752 O 3384.15 7.79239 4.12957 0
M  V30 20753 O 3383.61 5.63315 5.29344 0
M  V30 20754 C 3382.67 4.80255 6.01876 0
M  V30 20755 C 3383.4 3.64202 6.65911 0
M  V30 20756 O 3383.61 2.60694 5.64732 0
M  V30 20757 C 3384.8 3.93473 7.1943 0
M  V30 20758 O 3385.19 3.02071 8.21205 0
M  V30 20759 C 3385.68 3.73047 5.97036 0
M  V30 20760 C 3384.97 2.58828 5.25741 0
M  V30 20761 N 3385.02 2.68068 3.77503 0
M  V30 20762 H 3382.18 5.40332 6.79951 0
M  V30 20763 H 3381.91 4.41613 5.32378 0
M  V30 20764 H 3382.78 3.26331 7.47797 0
M  V30 20765 P 3386.74 2.75334 8.47391 0
M  V30 20766 O 3386.96 2.44571 9.90142 0
M  V30 20767 O 3387.53 3.87688 7.92115 0
M  V30 20768 O 3386.99 1.4459 7.59357 0
M  V30 20769 C 3386.05 0.347608 7.69215 0
M  V30 20770 C 3386.78 -0.96767 7.52806 0
M  V30 20771 O 3386.99 -1.21036 6.1011 0
M  V30 20772 C 3388.18 -1.04544 8.13308 0
M  V30 20773 O 3388.57 -2.38311 8.41922 0
M  V30 20774 C 3389.06 -0.491279 7.02284 0
M  V30 20775 C 3388.35 -0.996264 5.77469 0
M  V30 20776 N 3388.4 -0.0501916 4.62973 0
M  V30 20777 H 3385.56 0.374722 8.67691 0
M  V30 20778 H 3385.29 0.443485 6.90277 0
M  V30 20779 H 3386.16 -1.75537 7.96793 0
M  V30 20780 P 3390.12 -2.75334 8.47391 0
M  V30 20781 O 3390.34 -3.84128 9.44797 0
M  V30 20782 O 3390.91 -1.51947 8.68712 0
M  V30 20783 O 3390.37 -3.29363 6.99321 0
M  V30 20784 C 3389.43 -4.24011 6.4274 0
M  V30 20785 C 3390.16 -5.20775 5.52155 0
M  V30 20786 O 3390.37 -4.56534 4.22446 0
M  V30 20787 C 3391.56 -5.62629 5.96531 0
M  V30 20788 O 3391.95 -6.87667 5.41053 0
M  V30 20789 C 3392.44 -4.52537 5.39283 0
M  V30 20790 C 3391.73 -4.20027 4.08623 0
M  V30 20791 N 3391.78 -2.76189 3.71603 0
M  V30 20792 H 3388.94 -4.797 7.24003 0
M  V30 20793 H 3388.67 -3.69856 5.84513 0
M  V30 20794 H 3389.54 -6.10356 5.41441 0
M  V30 20795 P 3393.5 -7.20834 5.23717 0
M  V30 20796 O 3393.72 -8.66104 5.38572 0
M  V30 20797 O 3394.29 -6.33544 6.1349 0
M  V30 20798 O 3393.75 -6.7751 3.72168 0
M  V30 20799 C 3392.81 -7.20825 2.7076 0
M  V30 20800 C 3393.54 -7.45864 1.40599 0
M  V30 20801 O 3393.75 -6.17651 0.734225 0
M  V30 20802 C 3394.94 -8.05808 1.51899 0
M  V30 20803 O 3395.33 -8.74358 0.335205 0
M  V30 20804 C 3395.82 -6.83093 1.70294 0
M  V30 20805 C 3395.11 -5.79992 0.836974 0
M  V30 20806 N 3395.16 -4.41864 1.38293 0
M  V30 20807 H 3392.32 -8.13644 3.0377 0
M  V30 20808 H 3392.05 -6.42788 2.55485 0
M  V30 20809 H 3392.92 -8.12039 0.792769 0
M  V30 20810 P 3396.88 -8.91 1.21615e-10 0
M  V30 20811 O 3397.1 -10.1726 -0.733694 0
M  V30 20812 O 3397.67 -8.73148 1.23936 0
M  V30 20813 O 3397.13 -7.66872 -0.971405 0
M  V30 20814 C 3396.19 -7.42309 -2.04641 0
M  V30 20815 C 3396.92 -6.86059 -3.24661 0
M  V30 20816 O 3397.13 -5.42847 -3.03646 0
M  V30 20817 C 3398.32 -7.41196 -3.50753 0
M  V30 20818 O 3398.71 -7.27073 -4.86816 0
M  V30 20819 C 3399.2 -6.5273 -2.63741 0
M  V30 20820 C 3398.49 -5.1842 -2.73198 0
M  V30 20821 N 3398.54 -4.38762 -1.4784 0
M  V30 20822 C 3398.46 -4.81605 -0.168631 0
M  V30 20823 N 3398.54 -3.85454 0.713363 0
M  V30 20824 C 3398.68 -2.6994 -0.0566958 0
M  V30 20825 C 3398.81 -1.34815 0.338502 0
M  V30 20826 O 3398.83 -0.869548 1.47125 0
M  V30 20827 N 3398.93 -0.496304 -0.77465 0
M  V30 20828 C 3398.93 -0.908403 -2.09122 0
M  V30 20829 N 3399.06 0.0517805 -3.00955 0
M  V30 20830 N 3398.8 -2.17875 -2.46519 0
M  V30 20831 C 3398.68 -3.01988 -1.4033 0
M  V30 20832 H 3395.7 -8.36803 -2.32493 0
M  V30 20833 H 3395.43 -6.70197 -1.71129 0
M  V30 20834 H 3396.3 -7.03551 -4.13168 0
M  V30 20835 H 3398.95 -4.59498 -3.54415 0
M  V30 20836 H 3399.23 -6.88898 -1.59848 0
M  V30 20837 H 3400.22 -6.46749 -3.03687 0
M  V30 20838 H 3398.39 -8.46908 -3.20714 0
M  V30 20839 H 3398.34 -5.86405 0.105564 0
M  V30 20840 H 3399.02 0.483664 -0.597855 0
M  V30 20841 H 3399.06 -0.187865 -4.0116 0
M  V30 20842 H 3399.16 1.03585 -2.71726 0
M  V30 20843 P 3400.26 -7.20834 -5.23717 0
M  V30 20844 O 3400.48 -7.79853 -6.57286 0
M  V30 20845 O 3401.05 -7.79239 -4.12957 0
M  V30 20846 O 3400.51 -5.63315 -5.29344 0
M  V30 20847 C 3399.57 -4.80255 -6.01876 0
M  V30 20848 C 3400.3 -3.64202 -6.65911 0
M  V30 20849 O 3400.51 -2.60694 -5.64732 0
M  V30 20850 C 3401.7 -3.93473 -7.1943 0
M  V30 20851 O 3402.09 -3.02071 -8.21205 0
M  V30 20852 C 3402.58 -3.73047 -5.97036 0
M  V30 20853 C 3401.87 -2.58828 -5.25741 0
M  V30 20854 N 3401.92 -2.68068 -3.77503 0
M  V30 20855 H 3399.08 -5.40332 -6.79951 0
M  V30 20856 H 3398.81 -4.41613 -5.32378 0
M  V30 20857 H 3399.68 -3.26331 -7.47797 0
M  V30 20858 P 3403.64 -2.75334 -8.47391 0
M  V30 20859 O 3403.86 -2.44571 -9.90142 0
M  V30 20860 O 3404.43 -3.87688 -7.92115 0
M  V30 20861 O 3403.89 -1.4459 -7.59357 0
M  V30 20862 C 3402.95 -0.347608 -7.69215 0
M  V30 20863 C 3403.68 0.96767 -7.52806 0
M  V30 20864 O 3403.89 1.21036 -6.1011 0
M  V30 20865 C 3405.08 1.04544 -8.13308 0
M  V30 20866 O 3405.47 2.38311 -8.41922 0
M  V30 20867 C 3405.96 0.491279 -7.02284 0
M  V30 20868 C 3405.25 0.996264 -5.77469 0
M  V30 20869 N 3405.3 0.0501916 -4.62973 0
M  V30 20870 H 3402.46 -0.374722 -8.67691 0
M  V30 20871 H 3402.19 -0.443485 -6.90277 0
M  V30 20872 H 3403.06 1.75537 -7.96793 0
M  V30 20873 P 3407.02 2.75334 -8.47391 0
M  V30 20874 O 3407.24 3.84204 -9.44982 0
M  V30 20875 O 3407.81 1.51982 -8.68909 0
M  V30 20876 O 3407.27 3.29363 -6.99321 0
M  V30 20877 C 3406.33 4.24066 -6.42823 0
M  V30 20878 C 3407.06 5.20775 -5.52155 0
M  V30 20879 O 3407.27 4.56607 -4.22514 0
M  V30 20880 C 3408.46 5.62697 -5.96604 0
M  V30 20881 O 3408.85 6.87667 -5.41053 0
M  V30 20882 C 3409.34 4.52537 -5.39283 0
M  V30 20883 C 3408.63 4.20027 -4.08623 0
M  V30 20884 N 3408.68 2.76189 -3.71603 0
M  V30 20885 C 3408.6 1.66944 -4.54297 0
M  V30 20886 N 3408.67 0.536169 -3.91344 0
M  V30 20887 C 3408.82 0.901569 -2.58849 0
M  V30 20888 C 3408.95 0.146599 -1.40236 0
M  V30 20889 N 3408.96 -1.18234 -1.37046 0
M  V30 20890 N 3409.07 0.822941 -0.249738 0
M  V30 20891 C 3409.06 2.15179 -0.280525 0
M  V30 20892 N 3408.94 2.96414 -1.30822 0
M  V30 20893 C 3408.82 2.25804 -2.44748 0
M  V30 20894 H 3405.84 4.79756 -7.24086 0
M  V30 20895 H 3405.57 3.69963 -5.84682 0
M  V30 20896 H 3406.44 6.10431 -5.41508 0
M  V30 20897 H 3409.09 4.78816 -3.28024 0
M  V30 20898 H 3409.37 3.64957 -6.05871 0
M  V30 20899 H 3410.36 4.88748 -5.21323 0
M  V30 20900 H 3408.53 5.66789 -7.0643 0
M  V30 20901 H 3408.49 1.74684 -5.62396 0
M  V30 20902 H 3408.87 -1.71949 -2.24394 0
M  V30 20903 H 3409.06 -1.67511 -0.470742 0
M  V30 20904 H 3409.17 2.63704 0.6828 0
M  V30 20905 P 3410.4 7.20834 -5.23717 0
M  V30 20906 O 3410.62 8.66104 -5.38572 0
M  V30 20907 O 3411.19 6.33544 -6.1349 0
M  V30 20908 O 3410.65 6.7751 -3.72168 0
M  V30 20909 C 3409.71 7.20825 -2.7076 0
M  V30 20910 C 3410.44 7.45864 -1.40599 0
M  V30 20911 O 3410.65 6.17651 -0.734225 0
M  V30 20912 C 3411.84 8.05808 -1.51899 0
M  V30 20913 O 3412.23 8.74358 -0.335205 0
M  V30 20914 C 3412.72 6.83093 -1.70294 0
M  V30 20915 C 3412.01 5.79992 -0.836974 0
M  V30 20916 N 3412.06 4.41864 -1.38293 0
M  V30 20917 H 3409.22 8.13644 -3.0377 0
M  V30 20918 H 3408.95 6.42788 -2.55485 0
M  V30 20919 H 3409.82 8.12039 -0.792769 0
M  V30 20920 P 3413.78 8.91 -1.22724e-10 0
M  V30 20921 O 3414 10.1726 0.733694 0
M  V30 20922 O 3414.57 8.73148 -1.23936 0
M  V30 20923 O 3414.03 7.66872 0.971405 0
M  V30 20924 C 3413.09 7.42309 2.04641 0
M  V30 20925 C 3413.82 6.86059 3.24661 0
M  V30 20926 O 3414.03 5.42847 3.03646 0
M  V30 20927 C 3415.22 7.41196 3.50753 0
M  V30 20928 O 3415.61 7.27073 4.86816 0
M  V30 20929 C 3416.1 6.5273 2.63741 0
M  V30 20930 C 3415.39 5.1842 2.73198 0
M  V30 20931 N 3415.44 4.38762 1.4784 0
M  V30 20932 C 3415.36 4.81605 0.168631 0
M  V30 20933 N 3415.44 3.85454 -0.713363 0
M  V30 20934 C 3415.58 2.6994 0.0566958 0
M  V30 20935 C 3415.71 1.34815 -0.338502 0
M  V30 20936 O 3415.73 0.869548 -1.47125 0
M  V30 20937 N 3415.83 0.496304 0.77465 0
M  V30 20938 C 3415.83 0.908403 2.09122 0
M  V30 20939 N 3415.96 -0.0517805 3.00955 0
M  V30 20940 N 3415.7 2.17875 2.46519 0
M  V30 20941 C 3415.58 3.01988 1.4033 0
M  V30 20942 H 3412.6 8.36803 2.32493 0
M  V30 20943 H 3412.33 6.70197 1.71129 0
M  V30 20944 H 3413.2 7.03551 4.13168 0
M  V30 20945 H 3415.85 4.59498 3.54415 0
M  V30 20946 H 3416.13 6.88898 1.59848 0
M  V30 20947 H 3417.12 6.46749 3.03687 0
M  V30 20948 H 3415.29 8.46908 3.20714 0
M  V30 20949 H 3415.24 5.86405 -0.105564 0
M  V30 20950 H 3415.92 -0.483664 0.597855 0
M  V30 20951 H 3415.96 0.187865 4.0116 0
M  V30 20952 H 3416.06 -1.03585 2.71726 0
M  V30 20953 P 3417.16 7.20834 5.23717 0
M  V30 20954 O 3417.38 7.80006 6.57415 0
M  V30 20955 O 3417.95 7.79416 4.13051 0
M  V30 20956 O 3417.41 5.63315 5.29344 0
M  V30 20957 C 3416.47 4.80318 6.01954 0
M  V30 20958 C 3417.2 3.64202 6.65911 0
M  V30 20959 O 3417.41 2.60736 5.64823 0
M  V30 20960 C 3418.6 3.93521 7.19518 0
M  V30 20961 O 3418.99 3.02071 8.21205 0
M  V30 20962 C 3419.48 3.73047 5.97036 0
M  V30 20963 C 3418.77 2.58828 5.25741 0
M  V30 20964 N 3418.82 2.68068 3.77503 0
M  V30 20965 C 3418.74 3.80474 2.99159 0
M  V30 20966 N 3418.81 3.55622 1.71925 0
M  V30 20967 C 3418.96 2.1832 1.65733 0
M  V30 20968 C 3419.09 1.28842 0.572777 0
M  V30 20969 N 3419.1 1.66875 -0.70098 0
M  V30 20970 N 3419.21 -0.016788 0.859836 0
M  V30 20971 C 3419.2 -0.398145 2.13316 0
M  V30 20972 N 3419.08 0.328224 3.22333 0
M  V30 20973 C 3418.96 1.62992 2.90383 0
M  V30 20974 H 3415.98 5.40394 6.8003 0
M  V30 20975 H 3415.71 4.41741 5.32532 0
M  V30 20976 H 3416.58 3.26371 7.47889 0
M  V30 20977 H 3419.23 1.64007 5.56746 0
M  V30 20978 H 3419.51 4.63439 5.3432 0
M  V30 20979 H 3420.5 3.44776 6.25925 0
M  V30 20980 H 3418.67 4.96707 7.57347 0
M  V30 20981 H 3418.63 4.8089 3.39924 0
M  V30 20982 H 3419.01 2.66547 -0.941919 0
M  V30 20983 H 3419.2 0.965341 -1.44766 0
M  V30 20984 H 3419.31 -1.46427 2.29697 0
M  V30 20985 P 3420.54 2.75334 8.47391 0
M  V30 20986 O 3420.76 2.44571 9.90142 0
M  V30 20987 O 3421.33 3.87688 7.92115 0
M  V30 20988 O 3420.79 1.4459 7.59357 0
M  V30 20989 C 3419.85 0.347608 7.69215 0
M  V30 20990 C 3420.58 -0.96767 7.52806 0
M  V30 20991 O 3420.79 -1.21036 6.1011 0
M  V30 20992 C 3421.98 -1.04544 8.13308 0
M  V30 20993 O 3422.37 -2.38311 8.41922 0
M  V30 20994 C 3422.86 -0.491279 7.02284 0
M  V30 20995 C 3422.15 -0.996264 5.77469 0
M  V30 20996 N 3422.2 -0.0501916 4.62973 0
M  V30 20997 H 3419.36 0.374722 8.67691 0
M  V30 20998 H 3419.09 0.443485 6.90277 0
M  V30 20999 H 3419.96 -1.75537 7.96793 0
M  V30 21000 P 3423.92 -2.75334 8.47391 0
M  V30 21001 O 3424.14 -3.84128 9.44797 0
M  V30 21002 O 3424.71 -1.51947 8.68712 0
M  V30 21003 O 3424.17 -3.29363 6.99321 0
M  V30 21004 C 3423.23 -4.24011 6.4274 0
M  V30 21005 C 3423.96 -5.20775 5.52155 0
M  V30 21006 O 3424.17 -4.56534 4.22446 0
M  V30 21007 C 3425.36 -5.62629 5.96531 0
M  V30 21008 O 3425.75 -6.87667 5.41053 0
M  V30 21009 C 3426.24 -4.52537 5.39283 0
M  V30 21010 C 3425.53 -4.20027 4.08623 0
M  V30 21011 N 3425.58 -2.76189 3.71603 0
M  V30 21012 H 3422.74 -4.797 7.24003 0
M  V30 21013 H 3422.47 -3.69856 5.84513 0
M  V30 21014 H 3423.34 -6.10356 5.41441 0
M  V30 21015 P 3427.3 -7.20834 5.23717 0
M  V30 21016 O 3427.52 -8.66104 5.38572 0
M  V30 21017 O 3428.09 -6.33544 6.1349 0
M  V30 21018 O 3427.55 -6.7751 3.72168 0
M  V30 21019 C 3426.61 -7.20825 2.7076 0
M  V30 21020 C 3427.34 -7.45864 1.40599 0
M  V30 21021 O 3427.55 -6.17651 0.734225 0
M  V30 21022 C 3428.74 -8.05808 1.51899 0
M  V30 21023 O 3429.13 -8.74358 0.335205 0
M  V30 21024 C 3429.62 -6.83093 1.70294 0
M  V30 21025 C 3428.91 -5.79992 0.836974 0
M  V30 21026 N 3428.96 -4.41864 1.38293 0
M  V30 21027 H 3426.12 -8.13644 3.0377 0
M  V30 21028 H 3425.85 -6.42788 2.55485 0
M  V30 21029 H 3426.72 -8.12039 0.792769 0
M  V30 21030 P 3430.68 -8.91 1.23833e-10 0
M  V30 21031 O 3430.9 -10.1726 -0.733694 0
M  V30 21032 O 3431.47 -8.73148 1.23936 0
M  V30 21033 O 3430.93 -7.66872 -0.971405 0
M  V30 21034 C 3429.99 -7.42309 -2.04641 0
M  V30 21035 C 3430.72 -6.86059 -3.24661 0
M  V30 21036 O 3430.93 -5.42847 -3.03646 0
M  V30 21037 C 3432.12 -7.41196 -3.50753 0
M  V30 21038 O 3432.51 -7.27073 -4.86816 0
M  V30 21039 C 3433 -6.5273 -2.63741 0
M  V30 21040 C 3432.29 -5.1842 -2.73198 0
M  V30 21041 N 3432.34 -4.38762 -1.4784 0
M  V30 21042 H 3429.5 -8.36803 -2.32493 0
M  V30 21043 H 3429.23 -6.70197 -1.71129 0
M  V30 21044 H 3430.1 -7.03551 -4.13168 0
M  V30 21045 P 3434.06 -7.20834 -5.23717 0
M  V30 21046 O 3434.28 -7.80006 -6.57415 0
M  V30 21047 O 3434.85 -7.79416 -4.13051 0
M  V30 21048 O 3434.31 -5.63315 -5.29344 0
M  V30 21049 C 3433.37 -4.80318 -6.01954 0
M  V30 21050 C 3434.1 -3.64202 -6.65911 0
M  V30 21051 O 3434.31 -2.60736 -5.64823 0
M  V30 21052 C 3435.5 -3.93521 -7.19518 0
M  V30 21053 O 3435.89 -3.02071 -8.21205 0
M  V30 21054 C 3436.38 -3.73047 -5.97036 0
M  V30 21055 C 3435.67 -2.58828 -5.25741 0
M  V30 21056 N 3435.72 -2.68068 -3.77503 0
M  V30 21057 C 3435.64 -3.80474 -2.99159 0
M  V30 21058 N 3435.71 -3.55622 -1.71925 0
M  V30 21059 C 3435.86 -2.1832 -1.65733 0
M  V30 21060 C 3435.99 -1.28842 -0.572777 0
M  V30 21061 N 3436 -1.66875 0.70098 0
M  V30 21062 N 3436.11 0.016788 -0.859836 0
M  V30 21063 C 3436.1 0.398145 -2.13316 0
M  V30 21064 N 3435.98 -0.328224 -3.22333 0
M  V30 21065 C 3435.86 -1.62992 -2.90383 0
M  V30 21066 H 3432.88 -5.40394 -6.8003 0
M  V30 21067 H 3432.61 -4.41741 -5.32532 0
M  V30 21068 H 3433.48 -3.26371 -7.47889 0
M  V30 21069 H 3436.13 -1.64007 -5.56746 0
M  V30 21070 H 3436.41 -4.63439 -5.3432 0
M  V30 21071 H 3437.4 -3.44776 -6.25925 0
M  V30 21072 H 3435.57 -4.96707 -7.57347 0
M  V30 21073 H 3435.53 -4.8089 -3.39924 0
M  V30 21074 H 3435.91 -2.66547 0.941919 0
M  V30 21075 H 3436.1 -0.965341 1.44766 0
M  V30 21076 H 3436.21 1.46427 -2.29697 0
M  V30 21077 P 3437.44 -2.75334 -8.47391 0
M  V30 21078 O 3437.66 -2.44619 -9.90336 0
M  V30 21079 O 3438.23 -3.87776 -7.92294 0
M  V30 21080 O 3437.69 -1.4459 -7.59357 0
M  V30 21081 C 3436.75 -0.347653 -7.69315 0
M  V30 21082 C 3437.48 0.96767 -7.52806 0
M  V30 21083 O 3437.69 1.21055 -6.10208 0
M  V30 21084 C 3438.88 1.04557 -8.13408 0
M  V30 21085 O 3439.27 2.38311 -8.41922 0
M  V30 21086 C 3439.76 0.491279 -7.02284 0
M  V30 21087 C 3439.05 0.996264 -5.77469 0
M  V30 21088 N 3439.1 0.0501916 -4.62973 0
M  V30 21089 H 3436.26 -0.374765 -8.67791 0
M  V30 21090 H 3435.99 -0.443613 -6.90476 0
M  V30 21091 H 3436.86 1.75559 -7.96891 0
M  V30 21092 H 3439.51 1.94563 -5.46818 0
M  V30 21093 H 3439.79 -0.608651 -7.04676 0
M  V30 21094 H 3440.78 0.889796 -7.09039 0
M  V30 21095 H 3438.95 0.433128 -9.04664 0
M  V30 21096 P 3440.82 2.75334 -8.47391 0
M  V30 21097 O 3441.04 3.84128 -9.44797 0
M  V30 21098 O 3441.61 1.51947 -8.68712 0
M  V30 21099 O 3441.07 3.29363 -6.99321 0
M  V30 21100 C 3440.13 4.24011 -6.4274 0
M  V30 21101 C 3440.86 5.20775 -5.52155 0
M  V30 21102 O 3441.07 4.56534 -4.22446 0
M  V30 21103 C 3442.26 5.62629 -5.96531 0
M  V30 21104 O 3442.65 6.87667 -5.41053 0
M  V30 21105 C 3443.14 4.52537 -5.39283 0
M  V30 21106 C 3442.43 4.20027 -4.08623 0
M  V30 21107 N 3442.48 2.76189 -3.71603 0
M  V30 21108 C 3442.4 1.64862 -4.52822 0
M  V30 21109 N 3442.48 0.512671 -3.88633 0
M  V30 21110 C 3442.62 0.888083 -2.54977 0
M  V30 21111 C 3442.75 0.094668 -1.38677 0
M  V30 21112 N 3442.87 0.890102 -0.232633 0
M  V30 21113 C 3442.87 2.26958 -0.21772 0
M  V30 21114 N 3443 2.84626 0.97925 0
M  V30 21115 N 3442.74 3.0178 -1.31033 0
M  V30 21116 C 3442.62 2.26781 -2.43843 0
M  V30 21117 H 3439.64 4.797 -7.24003 0
M  V30 21118 H 3439.37 3.69856 -5.84513 0
M  V30 21119 H 3440.24 6.10356 -5.41441 0
M  V30 21120 P 3444.2 7.20834 -5.23717 0
M  V30 21121 O 3444.42 8.66104 -5.38572 0
M  V30 21122 O 3444.99 6.33544 -6.1349 0
M  V30 21123 O 3444.45 6.7751 -3.72168 0
M  V30 21124 C 3443.51 7.20825 -2.7076 0
M  V30 21125 C 3444.24 7.45864 -1.40599 0
M  V30 21126 O 3444.45 6.17651 -0.734225 0
M  V30 21127 C 3445.64 8.05808 -1.51899 0
M  V30 21128 O 3446.03 8.74358 -0.335205 0
M  V30 21129 C 3446.52 6.83093 -1.70294 0
M  V30 21130 C 3445.81 5.79992 -0.836974 0
M  V30 21131 N 3445.86 4.41864 -1.38293 0
M  V30 21132 C 3445.78 3.99538 -2.69438 0
M  V30 21133 N 3445.86 2.69909 -2.84277 0
M  V30 21134 C 3446 2.21719 -1.5408 0
M  V30 21135 C 3446.13 0.891712 -1.06628 0
M  V30 21136 N 3446.25 0.856846 0.334985 0
M  V30 21137 C 3446.25 1.9641 1.15789 0
M  V30 21138 N 3446.38 1.72708 2.46522 0
M  V30 21139 N 3446.12 3.21165 0.713741 0
M  V30 21140 C 3446 3.26797 -0.639748 0
M  V30 21141 H 3443.02 8.13644 -3.0377 0
M  V30 21142 H 3442.75 6.42788 -2.55485 0
M  V30 21143 H 3443.62 8.12039 -0.792769 0
M  V30 21144 P 3447.58 8.91 -1.24942e-10 0
M  V30 21145 O 3447.8 10.1726 0.733694 0
M  V30 21146 O 3448.37 8.73148 -1.23936 0
M  V30 21147 O 3447.83 7.66872 0.971405 0
M  V30 21148 C 3446.89 7.42309 2.04641 0
M  V30 21149 C 3447.62 6.86059 3.24661 0
M  V30 21150 O 3447.83 5.42847 3.03646 0
M  V30 21151 C 3449.02 7.41196 3.50753 0
M  V30 21152 O 3449.41 7.27073 4.86816 0
M  V30 21153 C 3449.9 6.5273 2.63741 0
M  V30 21154 C 3449.19 5.1842 2.73198 0
M  V30 21155 N 3449.24 4.38762 1.4784 0
M  V30 21156 H 3446.4 8.36803 2.32493 0
M  V30 21157 H 3446.13 6.70197 1.71129 0
M  V30 21158 H 3447 7.03551 4.13168 0
M  V30 21159 P 3450.96 7.20834 5.23717 0
M  V30 21160 O 3451.18 7.7993 6.57351 0
M  V30 21161 O 3451.75 7.79328 4.13004 0
M  V30 21162 O 3451.21 5.63315 5.29344 0
M  V30 21163 C 3450.27 4.80193 6.01798 0
M  V30 21164 C 3451 3.64202 6.65911 0
M  V30 21165 O 3451.21 2.60694 5.64732 0
M  V30 21166 C 3452.4 3.93473 7.1943 0
M  V30 21167 O 3452.79 3.02071 8.21205 0
M  V30 21168 C 3453.28 3.73047 5.97036 0
M  V30 21169 C 3452.57 2.58828 5.25741 0
M  V30 21170 N 3452.62 2.6801 3.77422 0
M  V30 21171 C 3452.77 1.50443 3.07133 0
M  V30 21172 O 3452.86 0.419406 3.61576 0
M  V30 21173 N 3452.81 1.6403 1.69677 0
M  V30 21174 C 3452.72 2.81206 0.986255 0
M  V30 21175 O 3452.77 2.80892 -0.249754 0
M  V30 21176 C 3452.57 3.99158 1.80325 0
M  V30 21177 C 3452.46 5.29309 1.06921 0
M  V30 21178 C 3452.52 3.89779 3.1476 0
M  V30 21179 H 3449.78 5.40332 6.79951 0
M  V30 21180 H 3449.51 4.41549 5.32301 0
M  V30 21181 H 3450.38 3.26331 7.47797 0
M  V30 21182 H 3453.03 1.6395 5.56554 0
M  V30 21183 H 3453.31 4.63439 5.3432 0
M  V30 21184 H 3454.3 3.44728 6.25838 0
M  V30 21185 H 3452.47 4.96652 7.57263 0
M  V30 21186 H 3452.4 4.80159 3.74441 0
M  V30 21187 H 3453.43 5.81459 1.09608 0
M  V30 21188 H 3451.69 5.9187 1.54487 0
M  V30 21189 H 3452.18 5.10095 0.0220288 0
M  V30 21190 H 3452.92 0.798962 1.16664 0
M  V30 21191 P 3454.34 2.75334 8.47391 0
M  V30 21192 O 3454.56 2.44571 9.90142 0
M  V30 21193 O 3455.13 3.87688 7.92115 0
M  V30 21194 O 3454.59 1.4459 7.59357 0
M  V30 21195 C 3453.65 0.347608 7.69215 0
M  V30 21196 C 3454.38 -0.96767 7.52806 0
M  V30 21197 O 3454.59 -1.21036 6.1011 0
M  V30 21198 C 3455.78 -1.04544 8.13308 0
M  V30 21199 O 3456.17 -2.38311 8.41922 0
M  V30 21200 C 3456.66 -0.491279 7.02284 0
M  V30 21201 C 3455.95 -0.996264 5.77469 0
M  V30 21202 N 3456 -0.0501916 4.62973 0
M  V30 21203 H 3453.16 0.374722 8.67691 0
M  V30 21204 H 3452.89 0.443485 6.90277 0
M  V30 21205 H 3453.76 -1.75537 7.96793 0
M  V30 21206 P 3457.72 -2.75334 8.47391 0
M  V30 21207 O 3457.94 -3.84128 9.44797 0
M  V30 21208 O 3458.51 -1.51947 8.68712 0
M  V30 21209 O 3457.97 -3.29363 6.99321 0
M  V30 21210 C 3457.03 -4.24011 6.4274 0
M  V30 21211 C 3457.76 -5.20775 5.52155 0
M  V30 21212 O 3457.97 -4.56534 4.22446 0
M  V30 21213 C 3459.16 -5.62629 5.96531 0
M  V30 21214 O 3459.55 -6.87667 5.41053 0
M  V30 21215 C 3460.04 -4.52537 5.39283 0
M  V30 21216 C 3459.33 -4.20027 4.08623 0
M  V30 21217 N 3459.38 -2.76189 3.71603 0
M  V30 21218 H 3456.54 -4.797 7.24003 0
M  V30 21219 H 3456.27 -3.69856 5.84513 0
M  V30 21220 H 3457.14 -6.10356 5.41441 0
M  V30 21221 P 3461.1 -7.20834 5.23717 0
M  V30 21222 O 3461.32 -8.66104 5.38572 0
M  V30 21223 O 3461.89 -6.33544 6.1349 0
M  V30 21224 O 3461.35 -6.7751 3.72168 0
M  V30 21225 C 3460.41 -7.20825 2.7076 0
M  V30 21226 C 3461.14 -7.45864 1.40599 0
M  V30 21227 O 3461.35 -6.17651 0.734225 0
M  V30 21228 C 3462.54 -8.05808 1.51899 0
M  V30 21229 O 3462.93 -8.74358 0.335205 0
M  V30 21230 C 3463.42 -6.83093 1.70294 0
M  V30 21231 C 3462.71 -5.79992 0.836974 0
M  V30 21232 N 3462.76 -4.41864 1.38293 0
M  V30 21233 H 3459.92 -8.13644 3.0377 0
M  V30 21234 H 3459.65 -6.42788 2.55485 0
M  V30 21235 H 3460.52 -8.12039 0.792769 0
M  V30 21236 P 3464.48 -8.91 1.26051e-10 0
M  V30 21237 O 3464.7 -10.1726 -0.733694 0
M  V30 21238 O 3465.27 -8.73148 1.23936 0
M  V30 21239 O 3464.73 -7.66872 -0.971405 0
M  V30 21240 C 3463.79 -7.42309 -2.04641 0
M  V30 21241 C 3464.52 -6.86059 -3.24661 0
M  V30 21242 O 3464.73 -5.42847 -3.03646 0
M  V30 21243 C 3465.92 -7.41196 -3.50753 0
M  V30 21244 O 3466.31 -7.27073 -4.86816 0
M  V30 21245 C 3466.8 -6.5273 -2.63741 0
M  V30 21246 C 3466.09 -5.1842 -2.73198 0
M  V30 21247 N 3466.14 -4.38762 -1.4784 0
M  V30 21248 C 3466.06 -4.81605 -0.168631 0
M  V30 21249 N 3466.14 -3.85454 0.713363 0
M  V30 21250 C 3466.28 -2.6994 -0.0566958 0
M  V30 21251 C 3466.41 -1.34815 0.338502 0
M  V30 21252 N 3466.53 -0.496304 -0.77465 0
M  V30 21253 C 3466.53 -0.908403 -2.09122 0
M  V30 21254 N 3466.66 0.0517805 -3.00955 0
M  V30 21255 N 3466.4 -2.17875 -2.46519 0
M  V30 21256 C 3466.28 -3.01988 -1.4033 0
M  V30 21257 H 3463.3 -8.36803 -2.32493 0
M  V30 21258 H 3463.03 -6.70197 -1.71129 0
M  V30 21259 H 3463.9 -7.03551 -4.13168 0
M  V30 21260 P 3467.86 -7.20834 -5.23717 0
M  V30 21261 O 3468.08 -7.79853 -6.57286 0
M  V30 21262 O 3468.65 -7.79239 -4.12957 0
M  V30 21263 O 3468.11 -5.63315 -5.29344 0
M  V30 21264 C 3467.17 -4.80255 -6.01876 0
M  V30 21265 C 3467.9 -3.64202 -6.65911 0
M  V30 21266 O 3468.11 -2.60694 -5.64732 0
M  V30 21267 C 3469.3 -3.93473 -7.1943 0
M  V30 21268 O 3469.69 -3.02071 -8.21205 0
M  V30 21269 C 3470.18 -3.73047 -5.97036 0
M  V30 21270 C 3469.47 -2.58828 -5.25741 0
M  V30 21271 N 3469.52 -2.68068 -3.77503 0
M  V30 21272 H 3466.68 -5.40332 -6.79951 0
M  V30 21273 H 3466.41 -4.41613 -5.32378 0
M  V30 21274 H 3467.28 -3.26331 -7.47797 0
M  V30 21275 P 3471.24 -2.75334 -8.47391 0
M  V30 21276 O 3471.46 -2.44571 -9.90142 0
M  V30 21277 O 3472.03 -3.87688 -7.92115 0
M  V30 21278 O 3471.49 -1.4459 -7.59357 0
M  V30 21279 C 3470.55 -0.347608 -7.69215 0
M  V30 21280 C 3471.28 0.96767 -7.52806 0
M  V30 21281 O 3471.49 1.21036 -6.1011 0
M  V30 21282 C 3472.68 1.04544 -8.13308 0
M  V30 21283 O 3473.07 2.38311 -8.41922 0
M  V30 21284 C 3473.56 0.491279 -7.02284 0
M  V30 21285 C 3472.85 0.996264 -5.77469 0
M  V30 21286 N 3472.9 0.0501916 -4.62973 0
M  V30 21287 H 3470.06 -0.374722 -8.67691 0
M  V30 21288 H 3469.79 -0.443485 -6.90277 0
M  V30 21289 H 3470.66 1.75537 -7.96793 0
M  V30 21290 P 3474.62 2.75334 -8.47391 0
M  V30 21291 O 3474.84 3.84128 -9.44797 0
M  V30 21292 O 3475.41 1.51947 -8.68712 0
M  V30 21293 O 3474.87 3.29363 -6.99321 0
M  V30 21294 C 3473.93 4.24011 -6.4274 0
M  V30 21295 C 3474.66 5.20775 -5.52155 0
M  V30 21296 O 3474.87 4.56534 -4.22446 0
M  V30 21297 C 3476.06 5.62629 -5.96531 0
M  V30 21298 O 3476.45 6.87667 -5.41053 0
M  V30 21299 C 3476.94 4.52537 -5.39283 0
M  V30 21300 C 3476.23 4.20027 -4.08623 0
M  V30 21301 N 3476.28 2.76189 -3.71603 0
M  V30 21302 H 3473.44 4.797 -7.24003 0
M  V30 21303 H 3473.17 3.69856 -5.84513 0
M  V30 21304 H 3474.04 6.10356 -5.41441 0
M  V30 21305 P 3478 7.20834 -5.23717 0
M  V30 21306 O 3478.22 8.66104 -5.38572 0
M  V30 21307 O 3478.79 6.33544 -6.1349 0
M  V30 21308 O 3478.25 6.7751 -3.72168 0
M  V30 21309 C 3477.31 7.20825 -2.7076 0
M  V30 21310 C 3478.04 7.45864 -1.40599 0
M  V30 21311 O 3478.25 6.17651 -0.734225 0
M  V30 21312 C 3479.44 8.05808 -1.51899 0
M  V30 21313 O 3479.83 8.74358 -0.335205 0
M  V30 21314 C 3480.32 6.83093 -1.70294 0
M  V30 21315 C 3479.61 5.79992 -0.836974 0
M  V30 21316 N 3479.66 4.41864 -1.38293 0
M  V30 21317 H 3476.82 8.13644 -3.0377 0
M  V30 21318 H 3476.55 6.42788 -2.55485 0
M  V30 21319 H 3477.42 8.12039 -0.792769 0
M  V30 21320 P 3481.38 8.91 -1.2716e-10 0
M  V30 21321 O 3481.6 10.1726 0.733694 0
M  V30 21322 O 3482.17 8.73148 -1.23936 0
M  V30 21323 O 3481.63 7.66872 0.971405 0
M  V30 21324 C 3480.69 7.42309 2.04641 0
M  V30 21325 C 3481.42 6.86059 3.24661 0
M  V30 21326 O 3481.63 5.42847 3.03646 0
M  V30 21327 C 3482.82 7.41196 3.50753 0
M  V30 21328 O 3483.21 7.27073 4.86816 0
M  V30 21329 C 3483.7 6.5273 2.63741 0
M  V30 21330 C 3482.99 5.1842 2.73198 0
M  V30 21331 N 3483.04 4.38762 1.4784 0
M  V30 21332 H 3480.2 8.36803 2.32493 0
M  V30 21333 H 3479.93 6.70197 1.71129 0
M  V30 21334 H 3480.8 7.03551 4.13168 0
M  V30 21335 P 3484.76 7.20834 5.23717 0
M  V30 21336 O 3484.98 7.79853 6.57286 0
M  V30 21337 O 3485.55 7.79239 4.12957 0
M  V30 21338 O 3485.01 5.63315 5.29344 0
M  V30 21339 C 3484.07 4.80255 6.01876 0
M  V30 21340 C 3484.8 3.64202 6.65911 0
M  V30 21341 O 3485.01 2.60694 5.64732 0
M  V30 21342 C 3486.2 3.93473 7.1943 0
M  V30 21343 O 3486.59 3.02071 8.21205 0
M  V30 21344 C 3487.08 3.73047 5.97036 0
M  V30 21345 C 3486.37 2.58828 5.25741 0
M  V30 21346 N 3486.42 2.68068 3.77503 0
M  V30 21347 H 3483.58 5.40332 6.79951 0
M  V30 21348 H 3483.31 4.41613 5.32378 0
M  V30 21349 H 3484.18 3.26331 7.47797 0
M  V30 21350 P 3488.14 2.75334 8.47391 0
M  V30 21351 O 3488.36 2.44571 9.90142 0
M  V30 21352 O 3488.93 3.87688 7.92115 0
M  V30 21353 O 3488.39 1.4459 7.59357 0
M  V30 21354 C 3487.45 0.347608 7.69215 0
M  V30 21355 C 3488.18 -0.96767 7.52806 0
M  V30 21356 O 3488.39 -1.21036 6.1011 0
M  V30 21357 C 3489.58 -1.04544 8.13308 0
M  V30 21358 O 3489.97 -2.38311 8.41922 0
M  V30 21359 C 3490.46 -0.491279 7.02284 0
M  V30 21360 C 3489.75 -0.996264 5.77469 0
M  V30 21361 N 3489.8 -0.0501916 4.62973 0
M  V30 21362 H 3486.96 0.374722 8.67691 0
M  V30 21363 H 3486.69 0.443485 6.90277 0
M  V30 21364 H 3487.56 -1.75537 7.96793 0
M  V30 21365 P 3491.52 -2.75334 8.47391 0
M  V30 21366 O 3491.74 -3.84166 9.4489 0
M  V30 21367 O 3492.31 -1.51964 8.6881 0
M  V30 21368 O 3491.77 -3.29363 6.99321 0
M  V30 21369 C 3490.83 -4.23956 6.42656 0
M  V30 21370 C 3491.56 -5.20775 5.52155 0
M  V30 21371 O 3491.77 -4.56534 4.22446 0
M  V30 21372 C 3492.96 -5.62629 5.96531 0
M  V30 21373 O 3493.35 -6.87667 5.41053 0
M  V30 21374 C 3493.84 -4.52537 5.39283 0
M  V30 21375 C 3493.13 -4.20027 4.08623 0
M  V30 21376 N 3493.18 -2.7613 3.71522 0
M  V30 21377 C 3493.33 -2.45612 2.37989 0
M  V30 21378 O 3493.42 -3.30919 1.51621 0
M  V30 21379 N 3493.37 -1.10684 2.08435 0
M  V30 21380 C 3493.28 -0.0690084 2.9792 0
M  V30 21381 O 3493.33 1.10553 2.59426 0
M  V30 21382 C 3493.13 -0.481522 4.35345 0
M  V30 21383 C 3493.02 0.618778 5.36443 0
M  V30 21384 C 3493.08 -1.78906 4.67968 0
M  V30 21385 H 3490.34 -4.797 7.24003 0
M  V30 21386 H 3490.07 -3.69802 5.84429 0
M  V30 21387 H 3490.94 -6.10356 5.41441 0
M  V30 21388 H 3493.59 -4.78651 3.27911 0
M  V30 21389 H 3493.87 -3.64957 6.05871 0
M  V30 21390 H 3494.86 -4.8868 5.2125 0
M  V30 21391 H 3493.03 -5.66726 7.06352 0
M  V30 21392 H 3492.96 -2.07737 5.72367 0
M  V30 21393 H 3493.99 0.754375 5.86871 0
M  V30 21394 H 3492.25 0.359721 6.10641 0
M  V30 21395 H 3492.74 1.55533 4.8581 0
M  V30 21396 H 3493.48 -0.862651 1.12037 0
M  V30 21397 P 3494.9 -7.20834 5.23717 0
M  V30 21398 O 3495.12 -8.66274 5.38678 0
M  V30 21399 O 3495.69 -6.33687 6.13629 0
M  V30 21400 O 3495.15 -6.7751 3.72168 0
M  V30 21401 C 3494.21 -7.20919 2.70795 0
M  V30 21402 C 3494.94 -7.45864 1.40599 0
M  V30 21403 O 3495.15 -6.17751 0.734343 0
M  V30 21404 C 3496.34 -8.05906 1.51917 0
M  V30 21405 O 3496.73 -8.74358 0.335205 0
M  V30 21406 C 3497.22 -6.83093 1.70294 0
M  V30 21407 C 3496.51 -5.79992 0.836974 0
M  V30 21408 N 3496.56 -4.41864 1.38293 0
M  V30 21409 C 3496.48 -4.02089 2.69407 0
M  V30 21410 N 3496.55 -2.73403 2.85089 0
M  V30 21411 C 3496.7 -2.25086 1.5642 0
M  V30 21412 C 3496.83 -0.942887 1.04836 0
M  V30 21413 N 3496.84 0.150999 1.80369 0
M  V30 21414 N 3496.95 -0.812565 -0.28167 0
M  V30 21415 C 3496.94 -1.90572 -1.03784 0
M  V30 21416 N 3496.82 -3.167 -0.683905 0
M  V30 21417 C 3496.7 -3.26538 0.652815 0
M  V30 21418 H 3493.72 -8.13738 3.03804 0
M  V30 21419 H 3493.45 -6.42974 2.55559 0
M  V30 21420 H 3494.32 -8.12139 0.792866 0
M  V30 21421 H 3496.97 -5.80178 -0.160643 0
M  V30 21422 H 3497.25 -6.51379 2.75643 0
M  V30 21423 H 3498.24 -7.01832 1.3448 0
M  V30 21424 H 3496.41 -8.73771 2.38364 0
M  V30 21425 H 3496.37 -4.7189 3.52311 0
M  V30 21426 H 3496.75 0.0721434 2.82608 0
M  V30 21427 H 3496.94 1.0785 1.36544 0
M  V30 21428 H 3497.05 -1.73207 -2.10241 0
M  V30 21429 P 3498.28 -8.91 1.28269e-10 0
M  V30 21430 O 3498.5 -10.1726 -0.733694 0
M  V30 21431 O 3499.07 -8.73148 1.23936 0
M  V30 21432 O 3498.53 -7.66872 -0.971405 0
M  V30 21433 C 3497.59 -7.42309 -2.04641 0
M  V30 21434 C 3498.32 -6.86059 -3.24661 0
M  V30 21435 O 3498.53 -5.42847 -3.03646 0
M  V30 21436 C 3499.72 -7.41196 -3.50753 0
M  V30 21437 O 3500.11 -7.27073 -4.86816 0
M  V30 21438 C 3500.6 -6.5273 -2.63741 0
M  V30 21439 C 3499.89 -5.1842 -2.73198 0
M  V30 21440 N 3499.94 -4.38762 -1.4784 0
M  V30 21441 H 3497.1 -8.36803 -2.32493 0
M  V30 21442 H 3496.83 -6.70197 -1.71129 0
M  V30 21443 H 3497.7 -7.03551 -4.13168 0
M  V30 21444 P 3501.66 -7.20834 -5.23717 0
M  V30 21445 O 3501.88 -7.79853 -6.57286 0
M  V30 21446 O 3502.45 -7.79239 -4.12957 0
M  V30 21447 O 3501.91 -5.63315 -5.29344 0
M  V30 21448 C 3500.97 -4.80255 -6.01876 0
M  V30 21449 C 3501.7 -3.64202 -6.65911 0
M  V30 21450 O 3501.91 -2.60694 -5.64732 0
M  V30 21451 C 3503.1 -3.93473 -7.1943 0
M  V30 21452 O 3503.49 -3.02071 -8.21205 0
M  V30 21453 C 3503.98 -3.73047 -5.97036 0
M  V30 21454 C 3503.27 -2.58828 -5.25741 0
M  V30 21455 N 3503.32 -2.68068 -3.77503 0
M  V30 21456 H 3500.48 -5.40332 -6.79951 0
M  V30 21457 H 3500.21 -4.41613 -5.32378 0
M  V30 21458 H 3501.08 -3.26331 -7.47797 0
M  V30 21459 P 3505.04 -2.75334 -8.47391 0
M  V30 21460 O 3505.26 -2.44571 -9.90142 0
M  V30 21461 O 3505.83 -3.87688 -7.92115 0
M  V30 21462 O 3505.29 -1.4459 -7.59357 0
M  V30 21463 C 3504.35 -0.347608 -7.69215 0
M  V30 21464 C 3505.08 0.96767 -7.52806 0
M  V30 21465 O 3505.29 1.21036 -6.1011 0
M  V30 21466 C 3506.48 1.04544 -8.13308 0
M  V30 21467 O 3506.87 2.38311 -8.41922 0
M  V30 21468 C 3507.36 0.491279 -7.02284 0
M  V30 21469 C 3506.65 0.996264 -5.77469 0
M  V30 21470 N 3506.7 0.0501916 -4.62973 0
M  V30 21471 H 3503.86 -0.374722 -8.67691 0
M  V30 21472 H 3503.59 -0.443485 -6.90277 0
M  V30 21473 H 3504.46 1.75537 -7.96793 0
M  V30 21474 P 3508.42 2.75334 -8.47391 0
M  V30 21475 O 3508.64 3.84128 -9.44797 0
M  V30 21476 O 3509.21 1.51947 -8.68712 0
M  V30 21477 O 3508.67 3.29363 -6.99321 0
M  V30 21478 C 3507.73 4.24011 -6.4274 0
M  V30 21479 C 3508.46 5.20775 -5.52155 0
M  V30 21480 O 3508.67 4.56534 -4.22446 0
M  V30 21481 C 3509.86 5.62629 -5.96531 0
M  V30 21482 O 3510.25 6.87667 -5.41053 0
M  V30 21483 C 3510.74 4.52537 -5.39283 0
M  V30 21484 C 3510.03 4.20027 -4.08623 0
M  V30 21485 N 3510.08 2.76189 -3.71603 0
M  V30 21486 C 3510 1.64862 -4.52822 0
M  V30 21487 N 3510.08 0.512671 -3.88633 0
M  V30 21488 C 3510.22 0.888083 -2.54977 0
M  V30 21489 C 3510.35 0.094668 -1.38677 0
M  V30 21490 N 3510.47 0.890102 -0.232633 0
M  V30 21491 C 3510.47 2.26958 -0.21772 0
M  V30 21492 N 3510.6 2.84626 0.97925 0
M  V30 21493 N 3510.34 3.0178 -1.31033 0
M  V30 21494 C 3510.22 2.26781 -2.43843 0
M  V30 21495 H 3507.24 4.797 -7.24003 0
M  V30 21496 H 3506.97 3.69856 -5.84513 0
M  V30 21497 H 3507.84 6.10356 -5.41441 0
M  V30 21498 P 3511.8 7.20834 -5.23717 0
M  V30 21499 O 3512.02 8.66274 -5.38678 0
M  V30 21500 O 3512.59 6.33687 -6.13629 0
M  V30 21501 O 3512.05 6.7751 -3.72168 0
M  V30 21502 C 3511.11 7.20919 -2.70795 0
M  V30 21503 C 3511.84 7.45864 -1.40599 0
M  V30 21504 O 3512.05 6.17751 -0.734343 0
M  V30 21505 C 3513.24 8.05906 -1.51917 0
M  V30 21506 O 3513.63 8.74358 -0.335205 0
M  V30 21507 C 3514.12 6.83093 -1.70294 0
M  V30 21508 C 3513.41 5.79992 -0.836974 0
M  V30 21509 N 3513.46 4.41864 -1.38293 0
M  V30 21510 H 3510.62 8.13738 -3.03804 0
M  V30 21511 H 3510.35 6.42974 -2.55559 0
M  V30 21512 H 3511.22 8.12139 -0.792866 0
M  V30 21513 H 3513.87 5.80178 0.160643 0
M  V30 21514 H 3514.15 6.51379 -2.75643 0
M  V30 21515 H 3515.14 7.01832 -1.3448 0
M  V30 21516 H 3513.31 8.73771 -2.38364 0
M  V30 21517 P 3515.18 8.91 -1.29378e-10 0
M  V30 21518 O 3515.4 10.1726 0.733694 0
M  V30 21519 O 3515.97 8.73148 -1.23936 0
M  V30 21520 O 3515.43 7.66872 0.971405 0
M  V30 21521 C 3514.49 7.42309 2.04641 0
M  V30 21522 C 3515.22 6.86059 3.24661 0
M  V30 21523 O 3515.43 5.42847 3.03646 0
M  V30 21524 C 3516.62 7.41196 3.50753 0
M  V30 21525 O 3517.01 7.27073 4.86816 0
M  V30 21526 C 3517.5 6.5273 2.63741 0
M  V30 21527 C 3516.79 5.1842 2.73198 0
M  V30 21528 N 3516.84 4.38762 1.4784 0
M  V30 21529 H 3514 8.36803 2.32493 0
M  V30 21530 H 3513.73 6.70197 1.71129 0
M  V30 21531 H 3514.6 7.03551 4.13168 0
M  V30 21532 P 3518.56 7.20834 5.23717 0
M  V30 21533 O 3518.78 7.79853 6.57286 0
M  V30 21534 O 3519.35 7.79239 4.12957 0
M  V30 21535 O 3518.81 5.63315 5.29344 0
M  V30 21536 C 3517.87 4.80255 6.01876 0
M  V30 21537 C 3518.6 3.64202 6.65911 0
M  V30 21538 O 3518.81 2.60694 5.64732 0
M  V30 21539 C 3520 3.93473 7.1943 0
M  V30 21540 O 3520.39 3.02071 8.21205 0
M  V30 21541 C 3520.88 3.73047 5.97036 0
M  V30 21542 C 3520.17 2.58828 5.25741 0
M  V30 21543 N 3520.22 2.68068 3.77503 0
M  V30 21544 C 3520.14 3.79715 2.96723 0
M  V30 21545 N 3520.22 3.5377 1.68852 0
M  V30 21546 C 3520.36 2.15054 1.63254 0
M  V30 21547 C 3520.49 1.28964 0.518571 0
M  V30 21548 N 3520.61 -0.0538097 0.918425 0
M  V30 21549 C 3520.61 -0.494275 2.22578 0
M  V30 21550 N 3520.74 -1.81086 2.40434 0
M  V30 21551 N 3520.48 0.313645 3.27502 0
M  V30 21552 C 3520.36 1.61829 2.91033 0
M  V30 21553 H 3517.38 5.40332 6.79951 0
M  V30 21554 H 3517.11 4.41613 5.32378 0
M  V30 21555 H 3517.98 3.26331 7.47797 0
M  V30 21556 P 3521.94 2.75334 8.47391 0
M  V30 21557 O 3522.16 2.44619 9.90336 0
M  V30 21558 O 3522.73 3.87776 7.92294 0
M  V30 21559 O 3522.19 1.4459 7.59357 0
M  V30 21560 C 3521.25 0.347653 7.69315 0
M  V30 21561 C 3521.98 -0.96767 7.52806 0
M  V30 21562 O 3522.19 -1.21055 6.10208 0
M  V30 21563 C 3523.38 -1.04557 8.13408 0
M  V30 21564 O 3523.77 -2.38311 8.41922 0
M  V30 21565 C 3524.26 -0.491279 7.02284 0
M  V30 21566 C 3523.55 -0.996264 5.77469 0
M  V30 21567 N 3523.6 -0.0501916 4.62973 0
M  V30 21568 C 3523.52 1.31969 4.65661 0
M  V30 21569 N 3523.59 1.86649 3.48119 0
M  V30 21570 C 3523.74 0.792089 2.62406 0
M  V30 21571 C 3523.87 0.705684 1.2207 0
M  V30 21572 N 3523.88 1.76207 0.413762 0
M  V30 21573 N 3523.99 -0.518981 0.685754 0
M  V30 21574 C 3523.98 -1.57595 1.49174 0
M  V30 21575 N 3523.86 -1.62909 2.80066 0
M  V30 21576 C 3523.74 -0.388195 3.3073 0
M  V30 21577 H 3520.76 0.374765 8.67791 0
M  V30 21578 H 3520.49 0.443613 6.90476 0
M  V30 21579 H 3521.36 -1.75559 7.96891 0
M  V30 21580 H 3524.01 -1.94563 5.46818 0
M  V30 21581 H 3524.29 0.608651 7.04676 0
M  V30 21582 H 3525.28 -0.889796 7.09039 0
M  V30 21583 H 3523.45 -0.433128 9.04664 0
M  V30 21584 H 3523.41 1.89246 5.57664 0
M  V30 21585 H 3523.79 2.71005 0.804694 0
M  V30 21586 H 3523.98 1.63189 -0.603768 0
M  V30 21587 H 3524.09 -2.53475 0.997614 0
M  V30 21588 P 3525.32 -2.75334 8.47391 0
M  V30 21589 O 3525.54 -3.84166 9.4489 0
M  V30 21590 O 3526.11 -1.51964 8.6881 0
M  V30 21591 O 3525.57 -3.29363 6.99321 0
M  V30 21592 C 3524.63 -4.23956 6.42656 0
M  V30 21593 C 3525.36 -5.20775 5.52155 0
M  V30 21594 O 3525.57 -4.56534 4.22446 0
M  V30 21595 C 3526.76 -5.62629 5.96531 0
M  V30 21596 O 3527.15 -6.87667 5.41053 0
M  V30 21597 C 3527.64 -4.52537 5.39283 0
M  V30 21598 C 3526.93 -4.20027 4.08623 0
M  V30 21599 N 3526.98 -2.7613 3.71522 0
M  V30 21600 C 3527.13 -2.45612 2.37989 0
M  V30 21601 O 3527.22 -3.30919 1.51621 0
M  V30 21602 N 3527.17 -1.10684 2.08435 0
M  V30 21603 C 3527.08 -0.0690084 2.9792 0
M  V30 21604 C 3526.93 -0.481522 4.35345 0
M  V30 21605 C 3526.88 -1.78906 4.67968 0
M  V30 21606 H 3524.14 -4.797 7.24003 0
M  V30 21607 H 3523.87 -3.69802 5.84429 0
M  V30 21608 H 3524.74 -6.10356 5.41441 0
M  V30 21609 H 3527.39 -4.78651 3.27911 0
M  V30 21610 H 3527.67 -3.64957 6.05871 0
M  V30 21611 H 3528.66 -4.8868 5.2125 0
M  V30 21612 H 3526.83 -5.66726 7.06352 0
M  V30 21613 H 3526.76 -2.07737 5.72367 0
M  V30 21614 P 3528.7 -7.20834 5.23717 0
M  V30 21615 O 3528.92 -8.66189 5.38625 0
M  V30 21616 O 3529.49 -6.33615 6.1356 0
M  V30 21617 O 3528.95 -6.7751 3.72168 0
M  V30 21618 C 3528.01 -7.20732 2.70725 0
M  V30 21619 C 3528.74 -7.45864 1.40599 0
M  V30 21620 O 3528.95 -6.17651 0.734225 0
M  V30 21621 C 3530.14 -8.05808 1.51899 0
M  V30 21622 O 3530.53 -8.74358 0.335205 0
M  V30 21623 C 3531.02 -6.83093 1.70294 0
M  V30 21624 C 3530.31 -5.79992 0.836974 0
M  V30 21625 N 3530.36 -4.41769 1.38263 0
M  V30 21626 C 3530.51 -3.38591 0.481702 0
M  V30 21627 O 3530.6 -3.56839 -0.718452 0
M  V30 21628 N 3530.55 -2.1206 1.03569 0
M  V30 21629 C 3530.46 -1.80696 2.36966 0
M  V30 21630 O 3530.51 -0.630473 2.74862 0
M  V30 21631 C 3530.31 -2.94845 3.23898 0
M  V30 21632 C 3530.2 -2.65253 4.70362 0
M  V30 21633 C 3530.26 -4.19803 2.73435 0
M  V30 21634 H 3527.52 -8.13644 3.0377 0
M  V30 21635 H 3527.25 -6.42695 2.55448 0
M  V30 21636 H 3528.12 -8.12039 0.792769 0
M  V30 21637 H 3530.77 -5.79978 -0.160587 0
M  V30 21638 H 3531.05 -6.51379 2.75643 0
M  V30 21639 H 3532.04 -7.01734 1.34462 0
M  V30 21640 H 3530.21 -8.73674 2.38337 0
M  V30 21641 H 3530.14 -5.04492 3.4095 0
M  V30 21642 H 3531.17 -2.83924 5.1913 0
M  V30 21643 H 3529.43 -3.29824 5.15163 0
M  V30 21644 H 3529.92 -1.59723 4.84449 0
M  V30 21645 H 3530.66 -1.35644 0.399345 0
M  V30 21646 P 3532.08 -8.91 1.30487e-10 0
M  V30 21647 O 3532.3 -10.1726 -0.733694 0
M  V30 21648 O 3532.87 -8.73148 1.23936 0
M  V30 21649 O 3532.33 -7.66872 -0.971405 0
M  V30 21650 C 3531.39 -7.42309 -2.04641 0
M  V30 21651 C 3532.12 -6.86059 -3.24661 0
M  V30 21652 O 3532.33 -5.42847 -3.03646 0
M  V30 21653 C 3533.52 -7.41196 -3.50753 0
M  V30 21654 O 3533.91 -7.27073 -4.86816 0
M  V30 21655 C 3534.4 -6.5273 -2.63741 0
M  V30 21656 C 3533.69 -5.1842 -2.73198 0
M  V30 21657 N 3533.74 -4.38762 -1.4784 0
M  V30 21658 H 3530.9 -8.36803 -2.32493 0
M  V30 21659 H 3530.63 -6.70197 -1.71129 0
M  V30 21660 H 3531.5 -7.03551 -4.13168 0
M  V30 21661 P 3535.46 -7.20834 -5.23717 0
M  V30 21662 O 3535.68 -7.79853 -6.57286 0
M  V30 21663 O 3536.25 -7.79239 -4.12957 0
M  V30 21664 O 3535.71 -5.63315 -5.29344 0
M  V30 21665 C 3534.77 -4.80255 -6.01876 0
M  V30 21666 C 3535.5 -3.64202 -6.65911 0
M  V30 21667 O 3535.71 -2.60694 -5.64732 0
M  V30 21668 C 3536.9 -3.93473 -7.1943 0
M  V30 21669 O 3537.29 -3.02071 -8.21205 0
M  V30 21670 C 3537.78 -3.73047 -5.97036 0
M  V30 21671 C 3537.07 -2.58828 -5.25741 0
M  V30 21672 N 3537.12 -2.68068 -3.77503 0
M  V30 21673 H 3534.28 -5.40332 -6.79951 0
M  V30 21674 H 3534.01 -4.41613 -5.32378 0
M  V30 21675 H 3534.88 -3.26331 -7.47797 0
M  V30 21676 P 3538.84 -2.75334 -8.47391 0
M  V30 21677 O 3539.06 -2.44571 -9.90142 0
M  V30 21678 O 3539.63 -3.87688 -7.92115 0
M  V30 21679 O 3539.09 -1.4459 -7.59357 0
M  V30 21680 C 3538.15 -0.347608 -7.69215 0
M  V30 21681 C 3538.88 0.96767 -7.52806 0
M  V30 21682 O 3539.09 1.21036 -6.1011 0
M  V30 21683 C 3540.28 1.04544 -8.13308 0
M  V30 21684 O 3540.67 2.38311 -8.41922 0
M  V30 21685 C 3541.16 0.491279 -7.02284 0
M  V30 21686 C 3540.45 0.996264 -5.77469 0
M  V30 21687 N 3540.5 0.0501916 -4.62973 0
M  V30 21688 C 3540.42 -1.32786 -4.63244 0
M  V30 21689 N 3540.5 -1.86957 -3.44545 0
M  V30 21690 C 3540.64 -0.780241 -2.58481 0
M  V30 21691 C 3540.77 -0.738536 -1.17757 0
M  V30 21692 N 3540.89 0.58337 -0.711393 0
M  V30 21693 C 3540.89 1.70816 -1.51017 0
M  V30 21694 N 3541.02 2.87826 -0.880757 0
M  V30 21695 N 3540.76 1.67126 -2.8339 0
M  V30 21696 C 3540.64 0.401421 -3.30572 0
M  V30 21697 H 3537.66 -0.374722 -8.67691 0
M  V30 21698 H 3537.39 -0.443485 -6.90277 0
M  V30 21699 H 3538.26 1.75537 -7.96793 0
M  V30 21700 P 3542.22 2.75334 -8.47391 0
M  V30 21701 O 3542.44 3.84128 -9.44797 0
M  V30 21702 O 3543.01 1.51947 -8.68712 0
M  V30 21703 O 3542.47 3.29363 -6.99321 0
M  V30 21704 C 3541.53 4.24011 -6.4274 0
M  V30 21705 C 3542.26 5.20775 -5.52155 0
M  V30 21706 O 3542.47 4.56534 -4.22446 0
M  V30 21707 C 3543.66 5.62629 -5.96531 0
M  V30 21708 O 3544.05 6.87667 -5.41053 0
M  V30 21709 C 3544.54 4.52537 -5.39283 0
M  V30 21710 C 3543.83 4.20027 -4.08623 0
M  V30 21711 N 3543.88 2.76189 -3.71603 0
M  V30 21712 H 3541.04 4.797 -7.24003 0
M  V30 21713 H 3540.77 3.69856 -5.84513 0
M  V30 21714 H 3541.64 6.10356 -5.41441 0
M  V30 21715 P 3545.6 7.20834 -5.23717 0
M  V30 21716 O 3545.82 8.66274 -5.38678 0
M  V30 21717 O 3546.39 6.33687 -6.13629 0
M  V30 21718 O 3545.85 6.7751 -3.72168 0
M  V30 21719 C 3544.91 7.20919 -2.70795 0
M  V30 21720 C 3545.64 7.45864 -1.40599 0
M  V30 21721 O 3545.85 6.17751 -0.734343 0
M  V30 21722 C 3547.04 8.05906 -1.51917 0
M  V30 21723 O 3547.43 8.74358 -0.335205 0
M  V30 21724 C 3547.92 6.83093 -1.70294 0
M  V30 21725 C 3547.21 5.79992 -0.836974 0
M  V30 21726 N 3547.26 4.41864 -1.38293 0
M  V30 21727 C 3547.18 4.02089 -2.69407 0
M  V30 21728 N 3547.25 2.73403 -2.85089 0
M  V30 21729 C 3547.4 2.25086 -1.5642 0
M  V30 21730 C 3547.53 0.942887 -1.04836 0
M  V30 21731 N 3547.54 -0.150999 -1.80369 0
M  V30 21732 N 3547.65 0.812565 0.28167 0
M  V30 21733 C 3547.64 1.90572 1.03784 0
M  V30 21734 N 3547.52 3.167 0.683905 0
M  V30 21735 C 3547.4 3.26538 -0.652815 0
M  V30 21736 H 3544.42 8.13738 -3.03804 0
M  V30 21737 H 3544.15 6.42974 -2.55559 0
M  V30 21738 H 3545.02 8.12139 -0.792866 0
M  V30 21739 H 3547.67 5.80178 0.160643 0
M  V30 21740 H 3547.95 6.51379 -2.75643 0
M  V30 21741 H 3548.94 7.01832 -1.3448 0
M  V30 21742 H 3547.11 8.73771 -2.38364 0
M  V30 21743 H 3547.07 4.7189 -3.52311 0
M  V30 21744 H 3547.45 -0.0721434 -2.82608 0
M  V30 21745 H 3547.64 -1.0785 -1.36544 0
M  V30 21746 H 3547.75 1.73207 2.10241 0
M  V30 21747 P 3548.98 8.91 -1.31596e-10 0
M  V30 21748 O 3549.2 10.1746 0.733838 0
M  V30 21749 O 3549.77 8.73346 -1.23964 0
M  V30 21750 O 3549.23 7.66872 0.971405 0
M  V30 21751 C 3548.29 7.42405 2.04668 0
M  V30 21752 C 3549.02 6.86059 3.24661 0
M  V30 21753 O 3549.23 5.42934 3.03695 0
M  V30 21754 C 3550.42 7.41287 3.50796 0
M  V30 21755 O 3550.81 7.27073 4.86816 0
M  V30 21756 C 3551.3 6.5273 2.63741 0
M  V30 21757 C 3550.59 5.1842 2.73198 0
M  V30 21758 N 3550.64 4.38762 1.4784 0
M  V30 21759 H 3547.8 8.36899 2.3252 0
M  V30 21760 H 3547.53 6.70391 1.71179 0
M  V30 21761 H 3548.4 7.03638 4.13219 0
M  V30 21762 H 3551.05 4.59931 3.54016 0
M  V30 21763 H 3551.33 6.88995 1.59871 0
M  V30 21764 H 3552.32 6.4684 3.0373 0
M  V30 21765 H 3550.49 8.47002 3.20749 0
M  V30 21766 P 3552.36 7.20834 5.23717 0
M  V30 21767 O 3552.58 7.79853 6.57286 0
M  V30 21768 O 3553.15 7.79239 4.12957 0
M  V30 21769 O 3552.61 5.63315 5.29344 0
M  V30 21770 C 3551.67 4.80255 6.01876 0
M  V30 21771 C 3552.4 3.64202 6.65911 0
M  V30 21772 O 3552.61 2.60694 5.64732 0
M  V30 21773 C 3553.8 3.93473 7.1943 0
M  V30 21774 O 3554.19 3.02071 8.21205 0
M  V30 21775 C 3554.68 3.73047 5.97036 0
M  V30 21776 C 3553.97 2.58828 5.25741 0
M  V30 21777 N 3554.02 2.68068 3.77503 0
M  V30 21778 H 3551.18 5.40332 6.79951 0
M  V30 21779 H 3550.91 4.41613 5.32378 0
M  V30 21780 H 3551.78 3.26331 7.47797 0
M  V30 21781 P 3555.74 2.75334 8.47391 0
M  V30 21782 O 3555.96 2.44595 9.90239 0
M  V30 21783 O 3556.53 3.87732 7.92204 0
M  V30 21784 O 3555.99 1.4459 7.59357 0
M  V30 21785 C 3555.05 0.347563 7.69115 0
M  V30 21786 C 3555.78 -0.96767 7.52806 0
M  V30 21787 O 3555.99 -1.21036 6.1011 0
M  V30 21788 C 3557.18 -1.04544 8.13308 0
M  V30 21789 O 3557.57 -2.38311 8.41922 0
M  V30 21790 C 3558.06 -0.491279 7.02284 0
M  V30 21791 C 3557.35 -0.996264 5.77469 0
M  V30 21792 N 3557.4 -0.0501808 4.62873 0
M  V30 21793 C 3557.55 -0.588177 3.36904 0
M  V30 21794 O 3557.64 -1.78598 3.17173 0
M  V30 21795 N 3557.59 0.329694 2.33686 0
M  V30 21796 C 3557.5 1.6953 2.45079 0
M  V30 21797 O 3557.55 2.41926 1.44899 0
M  V30 21798 C 3557.35 2.16933 3.80505 0
M  V30 21799 C 3557.24 3.65373 3.97621 0
M  V30 21800 C 3557.3 1.30326 4.83752 0
M  V30 21801 H 3554.56 0.374722 8.67691 0
M  V30 21802 H 3554.29 0.443421 6.90177 0
M  V30 21803 H 3555.16 -1.75537 7.96793 0
M  V30 21804 H 3557.81 -1.94496 5.46629 0
M  V30 21805 H 3558.09 0.608651 7.04676 0
M  V30 21806 H 3559.08 -0.889672 7.08939 0
M  V30 21807 H 3557.25 -0.43308 9.04564 0
M  V30 21808 H 3557.18 1.68366 5.8516 0
M  V30 21809 H 3558.21 4.05985 4.30448 0
M  V30 21810 H 3556.47 3.88028 4.72875 0
M  V30 21811 H 3556.96 4.11381 3.01609 0
M  V30 21812 H 3557.69 -0.0393617 1.41345 0
M  V30 21813 P 3559.12 -2.75334 8.47391 0
M  V30 21814 O 3559.34 -3.84128 9.44797 0
M  V30 21815 O 3559.91 -1.51947 8.68712 0
M  V30 21816 O 3559.37 -3.29363 6.99321 0
M  V30 21817 C 3558.43 -4.24011 6.4274 0
M  V30 21818 C 3559.16 -5.20775 5.52155 0
M  V30 21819 O 3559.37 -4.56534 4.22446 0
M  V30 21820 C 3560.56 -5.62629 5.96531 0
M  V30 21821 O 3560.95 -6.87667 5.41053 0
M  V30 21822 C 3561.44 -4.52537 5.39283 0
M  V30 21823 C 3560.73 -4.20027 4.08623 0
M  V30 21824 N 3560.78 -2.76189 3.71603 0
M  V30 21825 H 3557.94 -4.797 7.24003 0
M  V30 21826 H 3557.67 -3.69856 5.84513 0
M  V30 21827 H 3558.54 -6.10356 5.41441 0
M  V30 21828 P 3562.5 -7.20834 5.23717 0
M  V30 21829 O 3562.72 -8.66189 5.38625 0
M  V30 21830 O 3563.29 -6.33615 6.1356 0
M  V30 21831 O 3562.75 -6.7751 3.72168 0
M  V30 21832 C 3561.81 -7.20732 2.70725 0
M  V30 21833 C 3562.54 -7.45864 1.40599 0
M  V30 21834 O 3562.75 -6.17651 0.734225 0
M  V30 21835 C 3563.94 -8.05808 1.51899 0
M  V30 21836 O 3564.33 -8.74358 0.335205 0
M  V30 21837 C 3564.82 -6.83093 1.70294 0
M  V30 21838 C 3564.11 -5.79992 0.836974 0
M  V30 21839 N 3564.16 -4.41769 1.38263 0
M  V30 21840 C 3564.31 -3.38591 0.481702 0
M  V30 21841 O 3564.4 -3.56839 -0.718452 0
M  V30 21842 N 3564.35 -2.1206 1.03569 0
M  V30 21843 C 3564.26 -1.80696 2.36966 0
M  V30 21844 C 3564.11 -2.94845 3.23898 0
M  V30 21845 C 3564.06 -4.19803 2.73435 0
M  V30 21846 H 3561.32 -8.13644 3.0377 0
M  V30 21847 H 3561.05 -6.42695 2.55448 0
M  V30 21848 H 3561.92 -8.12039 0.792769 0
M  V30 21849 H 3564.57 -5.79978 -0.160587 0
M  V30 21850 H 3564.85 -6.51379 2.75643 0
M  V30 21851 H 3565.84 -7.01734 1.34462 0
M  V30 21852 H 3564.01 -8.73674 2.38337 0
M  V30 21853 H 3563.94 -5.04492 3.4095 0
M  V30 21854 P 3565.88 -8.91 1.32705e-10 0
M  V30 21855 O 3566.1 -10.1736 -0.733766 0
M  V30 21856 O 3566.67 -8.73247 1.2395 0
M  V30 21857 O 3566.13 -7.66872 -0.971405 0
M  V30 21858 C 3565.19 -7.42212 -2.04614 0
M  V30 21859 C 3565.92 -6.86059 -3.24661 0
M  V30 21860 O 3566.13 -5.42847 -3.03646 0
M  V30 21861 C 3567.32 -7.41196 -3.50753 0
M  V30 21862 O 3567.71 -7.27073 -4.86816 0
M  V30 21863 C 3568.2 -6.5273 -2.63741 0
M  V30 21864 C 3567.49 -5.1842 -2.73198 0
M  V30 21865 N 3567.54 -4.38668 -1.47808 0
M  V30 21866 C 3567.69 -3.02239 -1.60048 0
M  V30 21867 O 3567.78 -2.46459 -2.67869 0
M  V30 21868 N 3567.73 -2.32436 -0.408571 0
M  V30 21869 C 3567.64 -2.85471 0.854993 0
M  V30 21870 C 3567.49 -4.28918 0.887335 0
M  V30 21871 C 3567.44 -5.00349 -0.255399 0
M  V30 21872 H 3564.7 -8.36803 -2.32493 0
M  V30 21873 H 3564.43 -6.701 -1.71105 0
M  V30 21874 H 3565.3 -7.03551 -4.13168 0
M  V30 21875 H 3567.95 -4.59773 -3.53894 0
M  V30 21876 H 3568.23 -6.88995 -1.59871 0
M  V30 21877 H 3569.22 -6.46749 -3.03687 0
M  V30 21878 H 3567.39 -8.46908 -3.20714 0
M  V30 21879 H 3567.32 -6.08548 -0.206986 0
M  V30 21880 P 3569.26 -7.20834 -5.23717 0
M  V30 21881 O 3569.48 -7.79853 -6.57286 0
M  V30 21882 O 3570.05 -7.79239 -4.12957 0
M  V30 21883 O 3569.51 -5.63315 -5.29344 0
M  V30 21884 C 3568.57 -4.80255 -6.01876 0
M  V30 21885 C 3569.3 -3.64202 -6.65911 0
M  V30 21886 O 3569.51 -2.60694 -5.64732 0
M  V30 21887 C 3570.7 -3.93473 -7.1943 0
M  V30 21888 O 3571.09 -3.02071 -8.21205 0
M  V30 21889 C 3571.58 -3.73047 -5.97036 0
M  V30 21890 C 3570.87 -2.58828 -5.25741 0
M  V30 21891 N 3570.92 -2.68068 -3.77503 0
M  V30 21892 H 3568.08 -5.40332 -6.79951 0
M  V30 21893 H 3567.81 -4.41613 -5.32378 0
M  V30 21894 H 3568.68 -3.26331 -7.47797 0
M  V30 21895 P 3572.64 -2.75334 -8.47391 0
M  V30 21896 O 3572.86 -2.44571 -9.90142 0
M  V30 21897 O 3573.43 -3.87688 -7.92115 0
M  V30 21898 O 3572.89 -1.4459 -7.59357 0
M  V30 21899 C 3571.95 -0.347608 -7.69215 0
M  V30 21900 C 3572.68 0.96767 -7.52806 0
M  V30 21901 O 3572.89 1.21036 -6.1011 0
M  V30 21902 C 3574.08 1.04544 -8.13308 0
M  V30 21903 O 3574.47 2.38311 -8.41922 0
M  V30 21904 C 3574.96 0.491279 -7.02284 0
M  V30 21905 C 3574.25 0.996264 -5.77469 0
M  V30 21906 N 3574.3 0.0501916 -4.62973 0
M  V30 21907 H 3571.46 -0.374722 -8.67691 0
M  V30 21908 H 3571.19 -0.443485 -6.90277 0
M  V30 21909 H 3572.06 1.75537 -7.96793 0
M  V30 21910 P 3576.02 2.75334 -8.47391 0
M  V30 21911 O 3576.24 3.84204 -9.44982 0
M  V30 21912 O 3576.81 1.51982 -8.68909 0
M  V30 21913 O 3576.27 3.29363 -6.99321 0
M  V30 21914 C 3575.33 4.24066 -6.42823 0
M  V30 21915 C 3576.06 5.20775 -5.52155 0
M  V30 21916 O 3576.27 4.56607 -4.22514 0
M  V30 21917 C 3577.46 5.62697 -5.96604 0
M  V30 21918 O 3577.85 6.87667 -5.41053 0
M  V30 21919 C 3578.34 4.52537 -5.39283 0
M  V30 21920 C 3577.63 4.20027 -4.08623 0
M  V30 21921 N 3577.68 2.76189 -3.71603 0
M  V30 21922 H 3574.84 4.79756 -7.24086 0
M  V30 21923 H 3574.57 3.69963 -5.84682 0
M  V30 21924 H 3575.44 6.10431 -5.41508 0
M  V30 21925 H 3578.09 4.78816 -3.28024 0
M  V30 21926 H 3578.37 3.64957 -6.05871 0
M  V30 21927 H 3579.36 4.88748 -5.21323 0
M  V30 21928 H 3577.53 5.66789 -7.0643 0
M  V30 21929 P 3579.4 7.20834 -5.23717 0
M  V30 21930 O 3579.62 8.66274 -5.38678 0
M  V30 21931 O 3580.19 6.33687 -6.13629 0
M  V30 21932 O 3579.65 6.7751 -3.72168 0
M  V30 21933 C 3578.71 7.20919 -2.70795 0
M  V30 21934 C 3579.44 7.45864 -1.40599 0
M  V30 21935 O 3579.65 6.17751 -0.734343 0
M  V30 21936 C 3580.84 8.05906 -1.51917 0
M  V30 21937 O 3581.23 8.74358 -0.335205 0
M  V30 21938 C 3581.72 6.83093 -1.70294 0
M  V30 21939 C 3581.01 5.79992 -0.836974 0
M  V30 21940 N 3581.06 4.41864 -1.38293 0
M  V30 21941 C 3580.98 4.02089 -2.69407 0
M  V30 21942 N 3581.05 2.73403 -2.85089 0
M  V30 21943 C 3581.2 2.25086 -1.5642 0
M  V30 21944 C 3581.33 0.942887 -1.04836 0
M  V30 21945 N 3581.34 -0.150999 -1.80369 0
M  V30 21946 N 3581.45 0.812565 0.28167 0
M  V30 21947 C 3581.44 1.90572 1.03784 0
M  V30 21948 N 3581.32 3.167 0.683905 0
M  V30 21949 C 3581.2 3.26538 -0.652815 0
M  V30 21950 H 3578.22 8.13738 -3.03804 0
M  V30 21951 H 3577.95 6.42974 -2.55559 0
M  V30 21952 H 3578.82 8.12139 -0.792866 0
M  V30 21953 H 3581.47 5.80178 0.160643 0
M  V30 21954 H 3581.75 6.51379 -2.75643 0
M  V30 21955 H 3582.74 7.01832 -1.3448 0
M  V30 21956 H 3580.91 8.73771 -2.38364 0
M  V30 21957 H 3580.87 4.7189 -3.52311 0
M  V30 21958 H 3581.25 -0.0721434 -2.82608 0
M  V30 21959 H 3581.44 -1.0785 -1.36544 0
M  V30 21960 H 3581.55 1.73207 2.10241 0
M  V30 21961 P 3582.78 8.91 -1.33814e-10 0
M  V30 21962 O 3583 10.1726 0.733694 0
M  V30 21963 O 3583.57 8.73148 -1.23936 0
M  V30 21964 O 3583.03 7.66872 0.971405 0
M  V30 21965 C 3582.09 7.42309 2.04641 0
M  V30 21966 C 3582.82 6.86059 3.24661 0
M  V30 21967 O 3583.03 5.42847 3.03646 0
M  V30 21968 C 3584.22 7.41196 3.50753 0
M  V30 21969 O 3584.61 7.27073 4.86816 0
M  V30 21970 C 3585.1 6.5273 2.63741 0
M  V30 21971 C 3584.39 5.1842 2.73198 0
M  V30 21972 N 3584.44 4.38762 1.4784 0
M  V30 21973 C 3584.36 4.81605 0.168631 0
M  V30 21974 N 3584.44 3.85454 -0.713363 0
M  V30 21975 C 3584.58 2.6994 0.0566958 0
M  V30 21976 C 3584.71 1.34815 -0.338502 0
M  V30 21977 N 3584.83 0.496304 0.77465 0
M  V30 21978 C 3584.83 0.908403 2.09122 0
M  V30 21979 N 3584.96 -0.0517805 3.00955 0
M  V30 21980 N 3584.7 2.17875 2.46519 0
M  V30 21981 C 3584.58 3.01988 1.4033 0
M  V30 21982 H 3581.6 8.36803 2.32493 0
M  V30 21983 H 3581.33 6.70197 1.71129 0
M  V30 21984 H 3582.2 7.03551 4.13168 0
M  V30 21985 P 3586.16 7.20834 5.23717 0
M  V30 21986 O 3586.38 7.79853 6.57286 0
M  V30 21987 O 3586.95 7.79239 4.12957 0
M  V30 21988 O 3586.41 5.63315 5.29344 0
M  V30 21989 C 3585.47 4.80255 6.01876 0
M  V30 21990 C 3586.2 3.64202 6.65911 0
M  V30 21991 O 3586.41 2.60694 5.64732 0
M  V30 21992 C 3587.6 3.93473 7.1943 0
M  V30 21993 O 3587.99 3.02071 8.21205 0
M  V30 21994 C 3588.48 3.73047 5.97036 0
M  V30 21995 C 3587.77 2.58828 5.25741 0
M  V30 21996 N 3587.82 2.68068 3.77503 0
M  V30 21997 C 3587.74 3.79715 2.96723 0
M  V30 21998 N 3587.82 3.5377 1.68852 0
M  V30 21999 C 3587.96 2.15054 1.63254 0
M  V30 22000 C 3588.09 1.28964 0.518571 0
M  V30 22001 N 3588.21 -0.0538097 0.918425 0
M  V30 22002 C 3588.21 -0.494275 2.22578 0
M  V30 22003 N 3588.34 -1.81086 2.40434 0
M  V30 22004 N 3588.08 0.313645 3.27502 0
M  V30 22005 C 3587.96 1.61829 2.91033 0
M  V30 22006 H 3584.98 5.40332 6.79951 0
M  V30 22007 H 3584.71 4.41613 5.32378 0
M  V30 22008 H 3585.58 3.26331 7.47797 0
M  V30 22009 P 3589.54 2.75334 8.47391 0
M  V30 22010 O 3589.76 2.44619 9.90336 0
M  V30 22011 O 3590.33 3.87776 7.92294 0
M  V30 22012 O 3589.79 1.4459 7.59357 0
M  V30 22013 C 3588.85 0.347653 7.69315 0
M  V30 22014 C 3589.58 -0.96767 7.52806 0
M  V30 22015 O 3589.79 -1.21055 6.10208 0
M  V30 22016 C 3590.98 -1.04557 8.13408 0
M  V30 22017 O 3591.37 -2.38311 8.41922 0
M  V30 22018 C 3591.86 -0.491279 7.02284 0
M  V30 22019 C 3591.15 -0.996264 5.77469 0
M  V30 22020 N 3591.2 -0.0501916 4.62973 0
M  V30 22021 C 3591.12 1.31969 4.65661 0
M  V30 22022 N 3591.19 1.86649 3.48119 0
M  V30 22023 C 3591.34 0.792089 2.62406 0
M  V30 22024 C 3591.47 0.705684 1.2207 0
M  V30 22025 N 3591.48 1.76207 0.413762 0
M  V30 22026 N 3591.59 -0.518981 0.685754 0
M  V30 22027 C 3591.58 -1.57595 1.49174 0
M  V30 22028 N 3591.46 -1.62909 2.80066 0
M  V30 22029 C 3591.34 -0.388195 3.3073 0
M  V30 22030 H 3588.36 0.374765 8.67791 0
M  V30 22031 H 3588.09 0.443613 6.90476 0
M  V30 22032 H 3588.96 -1.75559 7.96891 0
M  V30 22033 H 3591.61 -1.94563 5.46818 0
M  V30 22034 H 3591.89 0.608651 7.04676 0
M  V30 22035 H 3592.88 -0.889796 7.09039 0
M  V30 22036 H 3591.05 -0.433128 9.04664 0
M  V30 22037 H 3591.01 1.89246 5.57664 0
M  V30 22038 H 3591.39 2.71005 0.804694 0
M  V30 22039 H 3591.58 1.63189 -0.603768 0
M  V30 22040 H 3591.69 -2.53475 0.997614 0
M  V30 22041 P 3592.92 -2.75334 8.47391 0
M  V30 22042 O 3593.14 -3.84128 9.44797 0
M  V30 22043 O 3593.71 -1.51947 8.68712 0
M  V30 22044 O 3593.17 -3.29363 6.99321 0
M  V30 22045 C 3592.23 -4.24011 6.4274 0
M  V30 22046 C 3592.96 -5.20775 5.52155 0
M  V30 22047 O 3593.17 -4.56534 4.22446 0
M  V30 22048 C 3594.36 -5.62629 5.96531 0
M  V30 22049 O 3594.75 -6.87667 5.41053 0
M  V30 22050 C 3595.24 -4.52537 5.39283 0
M  V30 22051 C 3594.53 -4.20027 4.08623 0
M  V30 22052 N 3594.58 -2.76189 3.71603 0
M  V30 22053 H 3591.74 -4.797 7.24003 0
M  V30 22054 H 3591.47 -3.69856 5.84513 0
M  V30 22055 H 3592.34 -6.10356 5.41441 0
M  V30 22056 P 3596.3 -7.20834 5.23717 0
M  V30 22057 O 3596.52 -8.66104 5.38572 0
M  V30 22058 O 3597.09 -6.33544 6.1349 0
M  V30 22059 O 3596.55 -6.7751 3.72168 0
M  V30 22060 C 3595.61 -7.20825 2.7076 0
M  V30 22061 C 3596.34 -7.45864 1.40599 0
M  V30 22062 O 3596.55 -6.17651 0.734225 0
M  V30 22063 C 3597.74 -8.05808 1.51899 0
M  V30 22064 O 3598.13 -8.74358 0.335205 0
M  V30 22065 C 3598.62 -6.83093 1.70294 0
M  V30 22066 C 3597.91 -5.79992 0.836974 0
M  V30 22067 N 3597.96 -4.41864 1.38293 0
M  V30 22068 H 3595.12 -8.13644 3.0377 0
M  V30 22069 H 3594.85 -6.42788 2.55485 0
M  V30 22070 H 3595.72 -8.12039 0.792769 0
M  V30 22071 P 3599.68 -8.91 1.34923e-10 0
M  V30 22072 O 3599.9 -10.1726 -0.733694 0
M  V30 22073 O 3600.47 -8.73148 1.23936 0
M  V30 22074 O 3599.93 -7.66872 -0.971405 0
M  V30 22075 C 3598.99 -7.42309 -2.04641 0
M  V30 22076 C 3599.72 -6.86059 -3.24661 0
M  V30 22077 O 3599.93 -5.42847 -3.03646 0
M  V30 22078 C 3601.12 -7.41196 -3.50753 0
M  V30 22079 O 3601.51 -7.27073 -4.86816 0
M  V30 22080 C 3602 -6.5273 -2.63741 0
M  V30 22081 C 3601.29 -5.1842 -2.73198 0
M  V30 22082 N 3601.34 -4.38762 -1.4784 0
M  V30 22083 H 3598.5 -8.36803 -2.32493 0
M  V30 22084 H 3598.23 -6.70197 -1.71129 0
M  V30 22085 H 3599.1 -7.03551 -4.13168 0
M  V30 22086 P 3603.06 -7.20834 -5.23717 0
M  V30 22087 O 3603.28 -7.79853 -6.57286 0
M  V30 22088 O 3603.85 -7.79239 -4.12957 0
M  V30 22089 O 3603.31 -5.63315 -5.29344 0
M  V30 22090 C 3602.37 -4.80255 -6.01876 0
M  V30 22091 C 3603.1 -3.64202 -6.65911 0
M  V30 22092 O 3603.31 -2.60694 -5.64732 0
M  V30 22093 C 3604.5 -3.93473 -7.1943 0
M  V30 22094 O 3604.89 -3.02071 -8.21205 0
M  V30 22095 C 3605.38 -3.73047 -5.97036 0
M  V30 22096 C 3604.67 -2.58828 -5.25741 0
M  V30 22097 N 3604.72 -2.68068 -3.77503 0
M  V30 22098 H 3601.88 -5.40332 -6.79951 0
M  V30 22099 H 3601.61 -4.41613 -5.32378 0
M  V30 22100 H 3602.48 -3.26331 -7.47797 0
M  V30 22101 P 3606.44 -2.75334 -8.47391 0
M  V30 22102 O 3606.66 -2.44571 -9.90142 0
M  V30 22103 O 3607.23 -3.87688 -7.92115 0
M  V30 22104 O 3606.69 -1.4459 -7.59357 0
M  V30 22105 C 3605.75 -0.347608 -7.69215 0
M  V30 22106 C 3606.48 0.96767 -7.52806 0
M  V30 22107 O 3606.69 1.21036 -6.1011 0
M  V30 22108 C 3607.88 1.04544 -8.13308 0
M  V30 22109 O 3608.27 2.38311 -8.41922 0
M  V30 22110 C 3608.76 0.491279 -7.02284 0
M  V30 22111 C 3608.05 0.996264 -5.77469 0
M  V30 22112 N 3608.1 0.0501916 -4.62973 0
M  V30 22113 H 3605.26 -0.374722 -8.67691 0
M  V30 22114 H 3604.99 -0.443485 -6.90277 0
M  V30 22115 H 3605.86 1.75537 -7.96793 0
M  V30 22116 P 3609.82 2.75334 -8.47391 0
M  V30 22117 O 3610.04 3.84128 -9.44797 0
M  V30 22118 O 3610.61 1.51947 -8.68712 0
M  V30 22119 O 3610.07 3.29363 -6.99321 0
M  V30 22120 C 3609.13 4.24011 -6.4274 0
M  V30 22121 C 3609.86 5.20775 -5.52155 0
M  V30 22122 O 3610.07 4.56534 -4.22446 0
M  V30 22123 C 3611.26 5.62629 -5.96531 0
M  V30 22124 O 3611.65 6.87667 -5.41053 0
M  V30 22125 C 3612.14 4.52537 -5.39283 0
M  V30 22126 C 3611.43 4.20027 -4.08623 0
M  V30 22127 N 3611.48 2.76189 -3.71603 0
M  V30 22128 H 3608.64 4.797 -7.24003 0
M  V30 22129 H 3608.37 3.69856 -5.84513 0
M  V30 22130 H 3609.24 6.10356 -5.41441 0
M  V30 22131 P 3613.2 7.20834 -5.23717 0
M  V30 22132 O 3613.42 8.66104 -5.38572 0
M  V30 22133 O 3613.99 6.33544 -6.1349 0
M  V30 22134 O 3613.45 6.7751 -3.72168 0
M  V30 22135 C 3612.51 7.20825 -2.7076 0
M  V30 22136 C 3613.24 7.45864 -1.40599 0
M  V30 22137 O 3613.45 6.17651 -0.734225 0
M  V30 22138 C 3614.64 8.05808 -1.51899 0
M  V30 22139 O 3615.03 8.74358 -0.335205 0
M  V30 22140 C 3615.52 6.83093 -1.70294 0
M  V30 22141 C 3614.81 5.79992 -0.836974 0
M  V30 22142 N 3614.86 4.41864 -1.38293 0
M  V30 22143 H 3612.02 8.13644 -3.0377 0
M  V30 22144 H 3611.75 6.42788 -2.55485 0
M  V30 22145 H 3612.62 8.12039 -0.792769 0
M  V30 22146 P 3616.58 8.91 -1.36032e-10 0
M  V30 22147 O 3616.8 10.1726 0.733694 0
M  V30 22148 O 3617.37 8.73148 -1.23936 0
M  V30 22149 O 3616.83 7.66872 0.971405 0
M  V30 22150 C 3615.89 7.42309 2.04641 0
M  V30 22151 C 3616.62 6.86059 3.24661 0
M  V30 22152 O 3616.83 5.42847 3.03646 0
M  V30 22153 C 3618.02 7.41196 3.50753 0
M  V30 22154 O 3618.41 7.27073 4.86816 0
M  V30 22155 C 3618.9 6.5273 2.63741 0
M  V30 22156 C 3618.19 5.1842 2.73198 0
M  V30 22157 N 3618.24 4.38762 1.4784 0
M  V30 22158 C 3618.16 4.81605 0.168631 0
M  V30 22159 N 3618.24 3.85454 -0.713363 0
M  V30 22160 C 3618.38 2.6994 0.0566958 0
M  V30 22161 C 3618.51 1.34815 -0.338502 0
M  V30 22162 N 3618.63 0.496304 0.77465 0
M  V30 22163 C 3618.63 0.908403 2.09122 0
M  V30 22164 N 3618.76 -0.0517805 3.00955 0
M  V30 22165 N 3618.5 2.17875 2.46519 0
M  V30 22166 C 3618.38 3.01988 1.4033 0
M  V30 22167 H 3615.4 8.36803 2.32493 0
M  V30 22168 H 3615.13 6.70197 1.71129 0
M  V30 22169 H 3616 7.03551 4.13168 0
M  V30 22170 P 3619.96 7.20834 5.23717 0
M  V30 22171 O 3620.18 7.79853 6.57286 0
M  V30 22172 O 3620.75 7.79239 4.12957 0
M  V30 22173 O 3620.21 5.63315 5.29344 0
M  V30 22174 C 3619.27 4.80255 6.01876 0
M  V30 22175 C 3620 3.64202 6.65911 0
M  V30 22176 O 3620.21 2.60694 5.64732 0
M  V30 22177 C 3621.4 3.93473 7.1943 0
M  V30 22178 O 3621.79 3.02071 8.21205 0
M  V30 22179 C 3622.28 3.73047 5.97036 0
M  V30 22180 C 3621.57 2.58828 5.25741 0
M  V30 22181 N 3621.62 2.68068 3.77503 0
M  V30 22182 H 3618.78 5.40332 6.79951 0
M  V30 22183 H 3618.51 4.41613 5.32378 0
M  V30 22184 H 3619.38 3.26331 7.47797 0
M  V30 22185 P 3623.34 2.75334 8.47391 0
M  V30 22186 O 3623.56 2.44571 9.90142 0
M  V30 22187 O 3624.13 3.87688 7.92115 0
M  V30 22188 O 3623.59 1.4459 7.59357 0
M  V30 22189 C 3622.65 0.347608 7.69215 0
M  V30 22190 C 3623.38 -0.96767 7.52806 0
M  V30 22191 O 3623.59 -1.21036 6.1011 0
M  V30 22192 C 3624.78 -1.04544 8.13308 0
M  V30 22193 O 3625.17 -2.38311 8.41922 0
M  V30 22194 C 3625.66 -0.491279 7.02284 0
M  V30 22195 C 3624.95 -0.996264 5.77469 0
M  V30 22196 N 3625 -0.0501916 4.62973 0
M  V30 22197 H 3622.16 0.374722 8.67691 0
M  V30 22198 H 3621.89 0.443485 6.90277 0
M  V30 22199 H 3622.76 -1.75537 7.96793 0
M  V30 22200 P 3626.72 -2.75334 8.47391 0
M  V30 22201 O 3626.94 -3.84166 9.4489 0
M  V30 22202 O 3627.51 -1.51964 8.6881 0
M  V30 22203 O 3626.97 -3.29363 6.99321 0
M  V30 22204 C 3626.03 -4.23956 6.42656 0
M  V30 22205 C 3626.76 -5.20775 5.52155 0
M  V30 22206 O 3626.97 -4.56534 4.22446 0
M  V30 22207 C 3628.16 -5.62629 5.96531 0
M  V30 22208 O 3628.55 -6.87667 5.41053 0
M  V30 22209 C 3629.04 -4.52537 5.39283 0
M  V30 22210 C 3628.33 -4.20027 4.08623 0
M  V30 22211 N 3628.38 -2.7613 3.71522 0
M  V30 22212 C 3628.53 -2.45612 2.37989 0
M  V30 22213 O 3628.62 -3.30919 1.51621 0
M  V30 22214 N 3628.57 -1.10684 2.08435 0
M  V30 22215 C 3628.48 -0.0690084 2.9792 0
M  V30 22216 C 3628.33 -0.481522 4.35345 0
M  V30 22217 C 3628.28 -1.78906 4.67968 0
M  V30 22218 H 3625.54 -4.797 7.24003 0
M  V30 22219 H 3625.27 -3.69802 5.84429 0
M  V30 22220 H 3626.14 -6.10356 5.41441 0
M  V30 22221 H 3628.79 -4.78651 3.27911 0
M  V30 22222 H 3629.07 -3.64957 6.05871 0
M  V30 22223 H 3630.06 -4.8868 5.2125 0
M  V30 22224 H 3628.23 -5.66726 7.06352 0
M  V30 22225 H 3628.16 -2.07737 5.72367 0
M  V30 22226 P 3630.1 -7.20834 5.23717 0
M  V30 22227 O 3630.32 -8.66104 5.38572 0
M  V30 22228 O 3630.89 -6.33544 6.1349 0
M  V30 22229 O 3630.35 -6.7751 3.72168 0
M  V30 22230 C 3629.41 -7.20825 2.7076 0
M  V30 22231 C 3630.14 -7.45864 1.40599 0
M  V30 22232 O 3630.35 -6.17651 0.734225 0
M  V30 22233 C 3631.54 -8.05808 1.51899 0
M  V30 22234 O 3631.93 -8.74358 0.335205 0
M  V30 22235 C 3632.42 -6.83093 1.70294 0
M  V30 22236 C 3631.71 -5.79992 0.836974 0
M  V30 22237 N 3631.76 -4.41864 1.38293 0
M  V30 22238 H 3628.92 -8.13644 3.0377 0
M  V30 22239 H 3628.65 -6.42788 2.55485 0
M  V30 22240 H 3629.52 -8.12039 0.792769 0
M  V30 22241 P 3633.48 -8.91 1.37141e-10 0
M  V30 22242 O 3633.7 -10.1726 -0.733694 0
M  V30 22243 O 3634.27 -8.73148 1.23936 0
M  V30 22244 O 3633.73 -7.66872 -0.971405 0
M  V30 22245 C 3632.79 -7.42309 -2.04641 0
M  V30 22246 C 3633.52 -6.86059 -3.24661 0
M  V30 22247 O 3633.73 -5.42847 -3.03646 0
M  V30 22248 C 3634.92 -7.41196 -3.50753 0
M  V30 22249 O 3635.31 -7.27073 -4.86816 0
M  V30 22250 C 3635.8 -6.5273 -2.63741 0
M  V30 22251 C 3635.09 -5.1842 -2.73198 0
M  V30 22252 N 3635.14 -4.38762 -1.4784 0
M  V30 22253 H 3632.3 -8.36803 -2.32493 0
M  V30 22254 H 3632.03 -6.70197 -1.71129 0
M  V30 22255 H 3632.9 -7.03551 -4.13168 0
M  V30 22256 P 3636.86 -7.20834 -5.23717 0
M  V30 22257 O 3637.08 -7.79853 -6.57286 0
M  V30 22258 O 3637.65 -7.79239 -4.12957 0
M  V30 22259 O 3637.11 -5.63315 -5.29344 0
M  V30 22260 C 3636.17 -4.80255 -6.01876 0
M  V30 22261 C 3636.9 -3.64202 -6.65911 0
M  V30 22262 O 3637.11 -2.60694 -5.64732 0
M  V30 22263 C 3638.3 -3.93473 -7.1943 0
M  V30 22264 O 3638.69 -3.02071 -8.21205 0
M  V30 22265 C 3639.18 -3.73047 -5.97036 0
M  V30 22266 C 3638.47 -2.58828 -5.25741 0
M  V30 22267 N 3638.52 -2.68068 -3.77503 0
M  V30 22268 H 3635.68 -5.40332 -6.79951 0
M  V30 22269 H 3635.41 -4.41613 -5.32378 0
M  V30 22270 H 3636.28 -3.26331 -7.47797 0
M  V30 22271 P 3640.24 -2.75334 -8.47391 0
M  V30 22272 O 3640.46 -2.44619 -9.90336 0
M  V30 22273 O 3641.03 -3.87776 -7.92294 0
M  V30 22274 O 3640.49 -1.4459 -7.59357 0
M  V30 22275 C 3639.55 -0.347653 -7.69315 0
M  V30 22276 C 3640.28 0.96767 -7.52806 0
M  V30 22277 O 3640.49 1.21055 -6.10208 0
M  V30 22278 C 3641.68 1.04557 -8.13408 0
M  V30 22279 O 3642.07 2.38311 -8.41922 0
M  V30 22280 C 3642.56 0.491279 -7.02284 0
M  V30 22281 C 3641.85 0.996264 -5.77469 0
M  V30 22282 N 3641.9 0.0501916 -4.62973 0
M  V30 22283 C 3641.82 -1.31969 -4.65661 0
M  V30 22284 N 3641.89 -1.86649 -3.48119 0
M  V30 22285 C 3642.04 -0.792089 -2.62406 0
M  V30 22286 C 3642.17 -0.705684 -1.2207 0
M  V30 22287 N 3642.18 -1.76207 -0.413762 0
M  V30 22288 N 3642.29 0.518981 -0.685754 0
M  V30 22289 C 3642.28 1.57595 -1.49174 0
M  V30 22290 N 3642.16 1.62909 -2.80066 0
M  V30 22291 C 3642.04 0.388195 -3.3073 0
M  V30 22292 H 3639.06 -0.374765 -8.67791 0
M  V30 22293 H 3638.79 -0.443613 -6.90476 0
M  V30 22294 H 3639.66 1.75559 -7.96891 0
M  V30 22295 H 3642.31 1.94563 -5.46818 0
M  V30 22296 H 3642.59 -0.608651 -7.04676 0
M  V30 22297 H 3643.58 0.889796 -7.09039 0
M  V30 22298 H 3641.75 0.433128 -9.04664 0
M  V30 22299 H 3641.71 -1.89246 -5.57664 0
M  V30 22300 H 3642.09 -2.71005 -0.804694 0
M  V30 22301 H 3642.28 -1.63189 0.603768 0
M  V30 22302 H 3642.39 2.53475 -0.997614 0
M  V30 22303 P 3643.62 2.75334 -8.47391 0
M  V30 22304 O 3643.84 3.84128 -9.44797 0
M  V30 22305 O 3644.41 1.51947 -8.68712 0
M  V30 22306 O 3643.87 3.29363 -6.99321 0
M  V30 22307 C 3642.93 4.24011 -6.4274 0
M  V30 22308 C 3643.66 5.20775 -5.52155 0
M  V30 22309 O 3643.87 4.56534 -4.22446 0
M  V30 22310 C 3645.06 5.62629 -5.96531 0
M  V30 22311 O 3645.45 6.87667 -5.41053 0
M  V30 22312 C 3645.94 4.52537 -5.39283 0
M  V30 22313 C 3645.23 4.20027 -4.08623 0
M  V30 22314 N 3645.28 2.76189 -3.71603 0
M  V30 22315 H 3642.44 4.797 -7.24003 0
M  V30 22316 H 3642.17 3.69856 -5.84513 0
M  V30 22317 H 3643.04 6.10356 -5.41441 0
M  V30 22318 P 3647 7.20834 -5.23717 0
M  V30 22319 O 3647.22 8.66189 -5.38625 0
M  V30 22320 O 3647.79 6.33615 -6.1356 0
M  V30 22321 O 3647.25 6.7751 -3.72168 0
M  V30 22322 C 3646.31 7.20732 -2.70725 0
M  V30 22323 C 3647.04 7.45864 -1.40599 0
M  V30 22324 O 3647.25 6.17651 -0.734225 0
M  V30 22325 C 3648.44 8.05808 -1.51899 0
M  V30 22326 O 3648.83 8.74358 -0.335205 0
M  V30 22327 C 3649.32 6.83093 -1.70294 0
M  V30 22328 C 3648.61 5.79992 -0.836974 0
M  V30 22329 N 3648.66 4.41769 -1.38263 0
M  V30 22330 C 3648.81 3.38591 -0.481702 0
M  V30 22331 O 3648.9 3.56839 0.718452 0
M  V30 22332 N 3648.85 2.1206 -1.03569 0
M  V30 22333 C 3648.76 1.80696 -2.36966 0
M  V30 22334 O 3648.81 0.630473 -2.74862 0
M  V30 22335 C 3648.61 2.94845 -3.23898 0
M  V30 22336 C 3648.5 2.65253 -4.70362 0
M  V30 22337 C 3648.56 4.19803 -2.73435 0
M  V30 22338 H 3645.82 8.13644 -3.0377 0
M  V30 22339 H 3645.55 6.42695 -2.55448 0
M  V30 22340 H 3646.42 8.12039 -0.792769 0
M  V30 22341 H 3649.07 5.79978 0.160587 0
M  V30 22342 H 3649.35 6.51379 -2.75643 0
M  V30 22343 H 3650.34 7.01734 -1.34462 0
M  V30 22344 H 3648.51 8.73674 -2.38337 0
M  V30 22345 H 3648.44 5.04492 -3.4095 0
M  V30 22346 H 3649.47 2.83924 -5.1913 0
M  V30 22347 H 3647.73 3.29824 -5.15163 0
M  V30 22348 H 3648.22 1.59723 -4.84449 0
M  V30 22349 H 3648.95 1.35644 -0.399345 0
M  V30 22350 P 3650.38 8.91 -1.3825e-10 0
M  V30 22351 O 3650.6 10.1726 0.733694 0
M  V30 22352 O 3651.17 8.73148 -1.23936 0
M  V30 22353 O 3650.63 7.66872 0.971405 0
M  V30 22354 C 3649.69 7.42309 2.04641 0
M  V30 22355 C 3650.42 6.86059 3.24661 0
M  V30 22356 O 3650.63 5.42847 3.03646 0
M  V30 22357 C 3651.82 7.41196 3.50753 0
M  V30 22358 O 3652.21 7.27073 4.86816 0
M  V30 22359 C 3652.7 6.5273 2.63741 0
M  V30 22360 C 3651.99 5.1842 2.73198 0
M  V30 22361 N 3652.04 4.38762 1.4784 0
M  V30 22362 C 3651.96 4.81605 0.168631 0
M  V30 22363 N 3652.04 3.85454 -0.713363 0
M  V30 22364 C 3652.18 2.6994 0.0566958 0
M  V30 22365 C 3652.31 1.34815 -0.338502 0
M  V30 22366 N 3652.43 0.496304 0.77465 0
M  V30 22367 C 3652.43 0.908403 2.09122 0
M  V30 22368 N 3652.56 -0.0517805 3.00955 0
M  V30 22369 N 3652.3 2.17875 2.46519 0
M  V30 22370 C 3652.18 3.01988 1.4033 0
M  V30 22371 H 3649.2 8.36803 2.32493 0
M  V30 22372 H 3648.93 6.70197 1.71129 0
M  V30 22373 H 3649.8 7.03551 4.13168 0
M  V30 22374 P 3653.76 7.20834 5.23717 0
M  V30 22375 O 3653.98 7.79853 6.57286 0
M  V30 22376 O 3654.55 7.79239 4.12957 0
M  V30 22377 O 3654.01 5.63315 5.29344 0
M  V30 22378 C 3653.07 4.80255 6.01876 0
M  V30 22379 C 3653.8 3.64202 6.65911 0
M  V30 22380 O 3654.01 2.60694 5.64732 0
M  V30 22381 C 3655.2 3.93473 7.1943 0
M  V30 22382 O 3655.59 3.02071 8.21205 0
M  V30 22383 C 3656.08 3.73047 5.97036 0
M  V30 22384 C 3655.37 2.58828 5.25741 0
M  V30 22385 N 3655.42 2.68068 3.77503 0
M  V30 22386 H 3652.58 5.40332 6.79951 0
M  V30 22387 H 3652.31 4.41613 5.32378 0
M  V30 22388 H 3653.18 3.26331 7.47797 0
M  V30 22389 P 3657.14 2.75334 8.47391 0
M  V30 22390 O 3657.36 2.44571 9.90142 0
M  V30 22391 O 3657.93 3.87688 7.92115 0
M  V30 22392 O 3657.39 1.4459 7.59357 0
M  V30 22393 C 3656.45 0.347608 7.69215 0
M  V30 22394 C 3657.18 -0.96767 7.52806 0
M  V30 22395 O 3657.39 -1.21036 6.1011 0
M  V30 22396 C 3658.58 -1.04544 8.13308 0
M  V30 22397 O 3658.97 -2.38311 8.41922 0
M  V30 22398 C 3659.46 -0.491279 7.02284 0
M  V30 22399 C 3658.75 -0.996264 5.77469 0
M  V30 22400 N 3658.8 -0.0501916 4.62973 0
M  V30 22401 H 3655.96 0.374722 8.67691 0
M  V30 22402 H 3655.69 0.443485 6.90277 0
M  V30 22403 H 3656.56 -1.75537 7.96793 0
M  V30 22404 P 3660.52 -2.75334 8.47391 0
M  V30 22405 O 3660.74 -3.84128 9.44797 0
M  V30 22406 O 3661.31 -1.51947 8.68712 0
M  V30 22407 O 3660.77 -3.29363 6.99321 0
M  V30 22408 C 3659.83 -4.24011 6.4274 0
M  V30 22409 C 3660.56 -5.20775 5.52155 0
M  V30 22410 O 3660.77 -4.56534 4.22446 0
M  V30 22411 C 3661.96 -5.62629 5.96531 0
M  V30 22412 O 3662.35 -6.87667 5.41053 0
M  V30 22413 C 3662.84 -4.52537 5.39283 0
M  V30 22414 C 3662.13 -4.20027 4.08623 0
M  V30 22415 N 3662.18 -2.76189 3.71603 0
M  V30 22416 H 3659.34 -4.797 7.24003 0
M  V30 22417 H 3659.07 -3.69856 5.84513 0
M  V30 22418 H 3659.94 -6.10356 5.41441 0
M  V30 22419 P 3663.9 -7.20834 5.23717 0
M  V30 22420 O 3664.12 -8.66104 5.38572 0
M  V30 22421 O 3664.69 -6.33544 6.1349 0
M  V30 22422 O 3664.15 -6.7751 3.72168 0
M  V30 22423 C 3663.21 -7.20825 2.7076 0
M  V30 22424 C 3663.94 -7.45864 1.40599 0
M  V30 22425 O 3664.15 -6.17651 0.734225 0
M  V30 22426 C 3665.34 -8.05808 1.51899 0
M  V30 22427 O 3665.73 -8.74358 0.335205 0
M  V30 22428 C 3666.22 -6.83093 1.70294 0
M  V30 22429 C 3665.51 -5.79992 0.836974 0
M  V30 22430 N 3665.56 -4.41864 1.38293 0
M  V30 22431 H 3662.72 -8.13644 3.0377 0
M  V30 22432 H 3662.45 -6.42788 2.55485 0
M  V30 22433 H 3663.32 -8.12039 0.792769 0
M  V30 22434 P 3667.28 -8.91 1.39359e-10 0
M  V30 22435 O 3667.5 -10.1736 -0.733766 0
M  V30 22436 O 3668.07 -8.73247 1.2395 0
M  V30 22437 O 3667.53 -7.66872 -0.971405 0
M  V30 22438 C 3666.59 -7.42212 -2.04614 0
M  V30 22439 C 3667.32 -6.86059 -3.24661 0
M  V30 22440 O 3667.53 -5.42847 -3.03646 0
M  V30 22441 C 3668.72 -7.41196 -3.50753 0
M  V30 22442 O 3669.11 -7.27073 -4.86816 0
M  V30 22443 C 3669.6 -6.5273 -2.63741 0
M  V30 22444 C 3668.89 -5.1842 -2.73198 0
M  V30 22445 N 3668.94 -4.38668 -1.47808 0
M  V30 22446 C 3669.09 -3.02239 -1.60048 0
M  V30 22447 O 3669.18 -2.46459 -2.67869 0
M  V30 22448 N 3669.13 -2.32436 -0.408571 0
M  V30 22449 C 3669.04 -2.85471 0.854993 0
M  V30 22450 O 3669.09 -2.12566 1.8531 0
M  V30 22451 C 3668.89 -4.28918 0.887335 0
M  V30 22452 C 3668.78 -4.91066 2.24619 0
M  V30 22453 C 3668.84 -5.00349 -0.255399 0
M  V30 22454 H 3666.1 -8.36803 -2.32493 0
M  V30 22455 H 3665.83 -6.701 -1.71105 0
M  V30 22456 H 3666.7 -7.03551 -4.13168 0
M  V30 22457 H 3669.35 -4.59773 -3.53894 0
M  V30 22458 H 3669.63 -6.88995 -1.59871 0
M  V30 22459 H 3670.62 -6.46749 -3.03687 0
M  V30 22460 H 3668.79 -8.46908 -3.20714 0
M  V30 22461 H 3668.72 -6.08548 -0.206986 0
M  V30 22462 H 3669.75 -5.34836 2.53099 0
M  V30 22463 H 3668.01 -5.69638 2.2291 0
M  V30 22464 H 3668.5 -4.13971 2.98044 0
M  V30 22465 H 3669.23 -1.33211 -0.474216 0
M  V30 22466 P 3670.66 -7.20834 -5.23717 0
M  V30 22467 O 3670.88 -7.79853 -6.57286 0
M  V30 22468 O 3671.45 -7.79239 -4.12957 0
M  V30 22469 O 3670.91 -5.63315 -5.29344 0
M  V30 22470 C 3669.97 -4.80255 -6.01876 0
M  V30 22471 C 3670.7 -3.64202 -6.65911 0
M  V30 22472 O 3670.91 -2.60694 -5.64732 0
M  V30 22473 C 3672.1 -3.93473 -7.1943 0
M  V30 22474 O 3672.49 -3.02071 -8.21205 0
M  V30 22475 C 3672.98 -3.73047 -5.97036 0
M  V30 22476 C 3672.27 -2.58828 -5.25741 0
M  V30 22477 N 3672.32 -2.68068 -3.77503 0
M  V30 22478 H 3669.48 -5.40332 -6.79951 0
M  V30 22479 H 3669.21 -4.41613 -5.32378 0
M  V30 22480 H 3670.08 -3.26331 -7.47797 0
M  V30 22481 P 3674.04 -2.75334 -8.47391 0
M  V30 22482 O 3674.26 -2.44619 -9.90336 0
M  V30 22483 O 3674.83 -3.87776 -7.92294 0
M  V30 22484 O 3674.29 -1.4459 -7.59357 0
M  V30 22485 C 3673.35 -0.347653 -7.69315 0
M  V30 22486 C 3674.08 0.96767 -7.52806 0
M  V30 22487 O 3674.29 1.21055 -6.10208 0
M  V30 22488 C 3675.48 1.04557 -8.13408 0
M  V30 22489 O 3675.87 2.38311 -8.41922 0
M  V30 22490 C 3676.36 0.491279 -7.02284 0
M  V30 22491 C 3675.65 0.996264 -5.77469 0
M  V30 22492 N 3675.7 0.0501916 -4.62973 0
M  V30 22493 C 3675.62 -1.31969 -4.65661 0
M  V30 22494 N 3675.69 -1.86649 -3.48119 0
M  V30 22495 C 3675.84 -0.792089 -2.62406 0
M  V30 22496 C 3675.97 -0.705684 -1.2207 0
M  V30 22497 N 3675.98 -1.76207 -0.413762 0
M  V30 22498 N 3676.09 0.518981 -0.685754 0
M  V30 22499 C 3676.08 1.57595 -1.49174 0
M  V30 22500 N 3675.96 1.62909 -2.80066 0
M  V30 22501 C 3675.84 0.388195 -3.3073 0
M  V30 22502 H 3672.86 -0.374765 -8.67791 0
M  V30 22503 H 3672.59 -0.443613 -6.90476 0
M  V30 22504 H 3673.46 1.75559 -7.96891 0
M  V30 22505 H 3676.11 1.94563 -5.46818 0
M  V30 22506 H 3676.39 -0.608651 -7.04676 0
M  V30 22507 H 3677.38 0.889796 -7.09039 0
M  V30 22508 H 3675.55 0.433128 -9.04664 0
M  V30 22509 H 3675.51 -1.89246 -5.57664 0
M  V30 22510 H 3675.89 -2.71005 -0.804694 0
M  V30 22511 H 3676.08 -1.63189 0.603768 0
M  V30 22512 H 3676.19 2.53475 -0.997614 0
M  V30 22513 P 3677.42 2.75334 -8.47391 0
M  V30 22514 O 3677.64 3.84128 -9.44797 0
M  V30 22515 O 3678.21 1.51947 -8.68712 0
M  V30 22516 O 3677.67 3.29363 -6.99321 0
M  V30 22517 C 3676.73 4.24011 -6.4274 0
M  V30 22518 C 3677.46 5.20775 -5.52155 0
M  V30 22519 O 3677.67 4.56534 -4.22446 0
M  V30 22520 C 3678.86 5.62629 -5.96531 0
M  V30 22521 O 3679.25 6.87667 -5.41053 0
M  V30 22522 C 3679.74 4.52537 -5.39283 0
M  V30 22523 C 3679.03 4.20027 -4.08623 0
M  V30 22524 N 3679.08 2.76189 -3.71603 0
M  V30 22525 C 3679 1.64862 -4.52822 0
M  V30 22526 N 3679.08 0.512671 -3.88633 0
M  V30 22527 C 3679.22 0.888083 -2.54977 0
M  V30 22528 C 3679.35 0.094668 -1.38677 0
M  V30 22529 N 3679.47 0.890102 -0.232633 0
M  V30 22530 C 3679.47 2.26958 -0.21772 0
M  V30 22531 N 3679.6 2.84626 0.97925 0
M  V30 22532 N 3679.34 3.0178 -1.31033 0
M  V30 22533 C 3679.22 2.26781 -2.43843 0
M  V30 22534 H 3676.24 4.797 -7.24003 0
M  V30 22535 H 3675.97 3.69856 -5.84513 0
M  V30 22536 H 3676.84 6.10356 -5.41441 0
M  V30 22537 P 3680.8 7.20834 -5.23717 0
M  V30 22538 O 3681.02 8.66104 -5.38572 0
M  V30 22539 O 3681.59 6.33544 -6.1349 0
M  V30 22540 O 3681.05 6.7751 -3.72168 0
M  V30 22541 C 3680.11 7.20825 -2.7076 0
M  V30 22542 C 3680.84 7.45864 -1.40599 0
M  V30 22543 O 3681.05 6.17651 -0.734225 0
M  V30 22544 C 3682.24 8.05808 -1.51899 0
M  V30 22545 O 3682.63 8.74358 -0.335205 0
M  V30 22546 C 3683.12 6.83093 -1.70294 0
M  V30 22547 C 3682.41 5.79992 -0.836974 0
M  V30 22548 N 3682.46 4.41864 -1.38293 0
M  V30 22549 H 3679.62 8.13644 -3.0377 0
M  V30 22550 H 3679.35 6.42788 -2.55485 0
M  V30 22551 H 3680.22 8.12039 -0.792769 0
M  V30 22552 P 3684.18 8.91 -1.40468e-10 0
M  V30 22553 O 3684.4 10.1746 0.733838 0
M  V30 22554 O 3684.97 8.73346 -1.23964 0
M  V30 22555 O 3684.43 7.66872 0.971405 0
M  V30 22556 C 3683.49 7.42405 2.04668 0
M  V30 22557 C 3684.22 6.86059 3.24661 0
M  V30 22558 O 3684.43 5.42934 3.03695 0
M  V30 22559 C 3685.62 7.41287 3.50796 0
M  V30 22560 O 3686.01 7.27073 4.86816 0
M  V30 22561 C 3686.5 6.5273 2.63741 0
M  V30 22562 C 3685.79 5.1842 2.73198 0
M  V30 22563 N 3685.84 4.38762 1.4784 0
M  V30 22564 C 3685.76 4.83651 0.183876 0
M  V30 22565 N 3685.83 3.88759 -0.699393 0
M  V30 22566 C 3685.98 2.7404 0.0575568 0
M  V30 22567 C 3686.11 1.37902 -0.293928 0
M  V30 22568 N 3686.12 0.938021 -1.54797 0
M  V30 22569 N 3686.23 0.491817 0.70549 0
M  V30 22570 C 3686.22 0.931735 1.95979 0
M  V30 22571 N 3686.1 2.16017 2.41481 0
M  V30 22572 C 3685.98 3.02547 1.39121 0
M  V30 22573 H 3683 8.36899 2.3252 0
M  V30 22574 H 3682.73 6.70391 1.71179 0
M  V30 22575 H 3683.6 7.03638 4.13219 0
M  V30 22576 H 3686.25 4.59931 3.54016 0
M  V30 22577 H 3686.53 6.88995 1.59871 0
M  V30 22578 H 3687.52 6.4684 3.0373 0
M  V30 22579 H 3685.69 8.47002 3.20749 0
M  V30 22580 H 3685.65 5.8885 -0.0765548 0
M  V30 22581 H 3686.03 1.60276 -2.32875 0
M  V30 22582 H 3686.22 -0.0699355 -1.73859 0
M  V30 22583 H 3686.33 0.165507 2.71897 0
M  V30 22584 P 3687.56 7.20834 5.23717 0
M  V30 22585 O 3687.78 7.80006 6.57415 0
M  V30 22586 O 3688.35 7.79416 4.13051 0
M  V30 22587 O 3687.81 5.63315 5.29344 0
M  V30 22588 C 3686.87 4.80318 6.01954 0
M  V30 22589 C 3687.6 3.64202 6.65911 0
M  V30 22590 O 3687.81 2.60736 5.64823 0
M  V30 22591 C 3689 3.93521 7.19518 0
M  V30 22592 O 3689.39 3.02071 8.21205 0
M  V30 22593 C 3689.88 3.73047 5.97036 0
M  V30 22594 C 3689.17 2.58828 5.25741 0
M  V30 22595 N 3689.22 2.68068 3.77503 0
M  V30 22596 C 3689.14 3.80474 2.99159 0
M  V30 22597 N 3689.21 3.55622 1.71925 0
M  V30 22598 C 3689.36 2.1832 1.65733 0
M  V30 22599 C 3689.49 1.28842 0.572777 0
M  V30 22600 N 3689.5 1.66875 -0.70098 0
M  V30 22601 N 3689.61 -0.016788 0.859836 0
M  V30 22602 C 3689.6 -0.398145 2.13316 0
M  V30 22603 N 3689.48 0.328224 3.22333 0
M  V30 22604 C 3689.36 1.62992 2.90383 0
M  V30 22605 H 3686.38 5.40394 6.8003 0
M  V30 22606 H 3686.11 4.41741 5.32532 0
M  V30 22607 H 3686.98 3.26371 7.47889 0
M  V30 22608 H 3689.63 1.64007 5.56746 0
M  V30 22609 H 3689.91 4.63439 5.3432 0
M  V30 22610 H 3690.9 3.44776 6.25925 0
M  V30 22611 H 3689.07 4.96707 7.57347 0
M  V30 22612 H 3689.03 4.8089 3.39924 0
M  V30 22613 H 3689.41 2.66547 -0.941919 0
M  V30 22614 H 3689.6 0.965341 -1.44766 0
M  V30 22615 H 3689.71 -1.46427 2.29697 0
M  V30 22616 P 3690.94 2.75334 8.47391 0
M  V30 22617 O 3691.16 2.44571 9.90142 0
M  V30 22618 O 3691.73 3.87688 7.92115 0
M  V30 22619 O 3691.19 1.4459 7.59357 0
M  V30 22620 C 3690.25 0.347608 7.69215 0
M  V30 22621 C 3690.98 -0.96767 7.52806 0
M  V30 22622 O 3691.19 -1.21036 6.1011 0
M  V30 22623 C 3692.38 -1.04544 8.13308 0
M  V30 22624 O 3692.77 -2.38311 8.41922 0
M  V30 22625 C 3693.26 -0.491279 7.02284 0
M  V30 22626 C 3692.55 -0.996264 5.77469 0
M  V30 22627 N 3692.6 -0.0501916 4.62973 0
M  V30 22628 H 3689.76 0.374722 8.67691 0
M  V30 22629 H 3689.49 0.443485 6.90277 0
M  V30 22630 H 3690.36 -1.75537 7.96793 0
M  V30 22631 P 3694.32 -2.75334 8.47391 0
M  V30 22632 O 3694.54 -3.84128 9.44797 0
M  V30 22633 O 3695.11 -1.51947 8.68712 0
M  V30 22634 O 3694.57 -3.29363 6.99321 0
M  V30 22635 C 3693.63 -4.24011 6.4274 0
M  V30 22636 C 3694.36 -5.20775 5.52155 0
M  V30 22637 O 3694.57 -4.56534 4.22446 0
M  V30 22638 C 3695.76 -5.62629 5.96531 0
M  V30 22639 O 3696.15 -6.87667 5.41053 0
M  V30 22640 C 3696.64 -4.52537 5.39283 0
M  V30 22641 C 3695.93 -4.20027 4.08623 0
M  V30 22642 N 3695.98 -2.76189 3.71603 0
M  V30 22643 C 3695.9 -1.64862 4.52822 0
M  V30 22644 N 3695.98 -0.512671 3.88633 0
M  V30 22645 C 3696.12 -0.888083 2.54977 0
M  V30 22646 C 3696.25 -0.094668 1.38677 0
M  V30 22647 N 3696.37 -0.890102 0.232633 0
M  V30 22648 C 3696.37 -2.26958 0.21772 0
M  V30 22649 N 3696.5 -2.84626 -0.97925 0
M  V30 22650 N 3696.24 -3.0178 1.31033 0
M  V30 22651 C 3696.12 -2.26781 2.43843 0
M  V30 22652 H 3693.14 -4.797 7.24003 0
M  V30 22653 H 3692.87 -3.69856 5.84513 0
M  V30 22654 H 3693.74 -6.10356 5.41441 0
M  V30 22655 P 3697.7 -7.20834 5.23717 0
M  V30 22656 O 3697.92 -8.66104 5.38572 0
M  V30 22657 O 3698.49 -6.33544 6.1349 0
M  V30 22658 O 3697.95 -6.7751 3.72168 0
M  V30 22659 C 3697.01 -7.20825 2.7076 0
M  V30 22660 C 3697.74 -7.45864 1.40599 0
M  V30 22661 O 3697.95 -6.17651 0.734225 0
M  V30 22662 C 3699.14 -8.05808 1.51899 0
M  V30 22663 O 3699.53 -8.74358 0.335205 0
M  V30 22664 C 3700.02 -6.83093 1.70294 0
M  V30 22665 C 3699.31 -5.79992 0.836974 0
M  V30 22666 N 3699.36 -4.41864 1.38293 0
M  V30 22667 H 3696.52 -8.13644 3.0377 0
M  V30 22668 H 3696.25 -6.42788 2.55485 0
M  V30 22669 H 3697.12 -8.12039 0.792769 0
M  V30 22670 P 3701.08 -8.91 1.41577e-10 0
M  V30 22671 O 3701.3 -10.1726 -0.733694 0
M  V30 22672 O 3701.87 -8.73148 1.23936 0
M  V30 22673 O 3701.33 -7.66872 -0.971405 0
M  V30 22674 C 3700.39 -7.42309 -2.04641 0
M  V30 22675 C 3701.12 -6.86059 -3.24661 0
M  V30 22676 O 3701.33 -5.42847 -3.03646 0
M  V30 22677 C 3702.52 -7.41196 -3.50753 0
M  V30 22678 O 3702.91 -7.27073 -4.86816 0
M  V30 22679 C 3703.4 -6.5273 -2.63741 0
M  V30 22680 C 3702.69 -5.1842 -2.73198 0
M  V30 22681 N 3702.74 -4.38762 -1.4784 0
M  V30 22682 H 3699.9 -8.36803 -2.32493 0
M  V30 22683 H 3699.63 -6.70197 -1.71129 0
M  V30 22684 H 3700.5 -7.03551 -4.13168 0
M  V30 22685 P 3704.46 -7.20834 -5.23717 0
M  V30 22686 O 3704.68 -7.79853 -6.57286 0
M  V30 22687 O 3705.25 -7.79239 -4.12957 0
M  V30 22688 O 3704.71 -5.63315 -5.29344 0
M  V30 22689 C 3703.77 -4.80255 -6.01876 0
M  V30 22690 C 3704.5 -3.64202 -6.65911 0
M  V30 22691 O 3704.71 -2.60694 -5.64732 0
M  V30 22692 C 3705.9 -3.93473 -7.1943 0
M  V30 22693 O 3706.29 -3.02071 -8.21205 0
M  V30 22694 C 3706.78 -3.73047 -5.97036 0
M  V30 22695 C 3706.07 -2.58828 -5.25741 0
M  V30 22696 N 3706.12 -2.68068 -3.77503 0
M  V30 22697 H 3703.28 -5.40332 -6.79951 0
M  V30 22698 H 3703.01 -4.41613 -5.32378 0
M  V30 22699 H 3703.88 -3.26331 -7.47797 0
M  V30 22700 P 3707.84 -2.75334 -8.47391 0
M  V30 22701 O 3708.06 -2.44619 -9.90336 0
M  V30 22702 O 3708.63 -3.87776 -7.92294 0
M  V30 22703 O 3708.09 -1.4459 -7.59357 0
M  V30 22704 C 3707.15 -0.347653 -7.69315 0
M  V30 22705 C 3707.88 0.96767 -7.52806 0
M  V30 22706 O 3708.09 1.21055 -6.10208 0
M  V30 22707 C 3709.28 1.04557 -8.13408 0
M  V30 22708 O 3709.67 2.38311 -8.41922 0
M  V30 22709 C 3710.16 0.491279 -7.02284 0
M  V30 22710 C 3709.45 0.996264 -5.77469 0
M  V30 22711 N 3709.5 0.0501916 -4.62973 0
M  V30 22712 C 3709.42 -1.31969 -4.65661 0
M  V30 22713 N 3709.49 -1.86649 -3.48119 0
M  V30 22714 C 3709.64 -0.792089 -2.62406 0
M  V30 22715 C 3709.77 -0.705684 -1.2207 0
M  V30 22716 N 3709.78 -1.76207 -0.413762 0
M  V30 22717 N 3709.89 0.518981 -0.685754 0
M  V30 22718 C 3709.88 1.57595 -1.49174 0
M  V30 22719 N 3709.76 1.62909 -2.80066 0
M  V30 22720 C 3709.64 0.388195 -3.3073 0
M  V30 22721 H 3706.66 -0.374765 -8.67791 0
M  V30 22722 H 3706.39 -0.443613 -6.90476 0
M  V30 22723 H 3707.26 1.75559 -7.96891 0
M  V30 22724 H 3709.91 1.94563 -5.46818 0
M  V30 22725 H 3710.19 -0.608651 -7.04676 0
M  V30 22726 H 3711.18 0.889796 -7.09039 0
M  V30 22727 H 3709.35 0.433128 -9.04664 0
M  V30 22728 H 3709.31 -1.89246 -5.57664 0
M  V30 22729 H 3709.69 -2.71005 -0.804694 0
M  V30 22730 H 3709.88 -1.63189 0.603768 0
M  V30 22731 H 3709.99 2.53475 -0.997614 0
M  V30 22732 P 3711.22 2.75334 -8.47391 0
M  V30 22733 O 3711.44 3.84204 -9.44982 0
M  V30 22734 O 3712.01 1.51982 -8.68909 0
M  V30 22735 O 3711.47 3.29363 -6.99321 0
M  V30 22736 C 3710.53 4.24066 -6.42823 0
M  V30 22737 C 3711.26 5.20775 -5.52155 0
M  V30 22738 O 3711.47 4.56607 -4.22514 0
M  V30 22739 C 3712.66 5.62697 -5.96604 0
M  V30 22740 O 3713.05 6.87667 -5.41053 0
M  V30 22741 C 3713.54 4.52537 -5.39283 0
M  V30 22742 C 3712.83 4.20027 -4.08623 0
M  V30 22743 N 3712.88 2.76189 -3.71603 0
M  V30 22744 C 3712.8 1.66944 -4.54297 0
M  V30 22745 N 3712.87 0.536169 -3.91344 0
M  V30 22746 C 3713.02 0.901569 -2.58849 0
M  V30 22747 C 3713.15 0.146599 -1.40236 0
M  V30 22748 N 3713.16 -1.18234 -1.37046 0
M  V30 22749 N 3713.27 0.822941 -0.249738 0
M  V30 22750 C 3713.26 2.15179 -0.280525 0
M  V30 22751 N 3713.14 2.96414 -1.30822 0
M  V30 22752 C 3713.02 2.25804 -2.44748 0
M  V30 22753 H 3710.04 4.79756 -7.24086 0
M  V30 22754 H 3709.77 3.69963 -5.84682 0
M  V30 22755 H 3710.64 6.10431 -5.41508 0
M  V30 22756 H 3713.29 4.78816 -3.28024 0
M  V30 22757 H 3713.57 3.64957 -6.05871 0
M  V30 22758 H 3714.56 4.88748 -5.21323 0
M  V30 22759 H 3712.73 5.66789 -7.0643 0
M  V30 22760 H 3712.69 1.74684 -5.62396 0
M  V30 22761 H 3713.07 -1.71949 -2.24394 0
M  V30 22762 H 3713.26 -1.67511 -0.470742 0
M  V30 22763 H 3713.37 2.63704 0.6828 0
M  V30 22764 P 3714.6 7.20834 -5.23717 0
M  V30 22765 O 3714.82 8.66274 -5.38678 0
M  V30 22766 O 3715.39 6.33687 -6.13629 0
M  V30 22767 O 3714.85 6.7751 -3.72168 0
M  V30 22768 C 3713.91 7.20919 -2.70795 0
M  V30 22769 C 3714.64 7.45864 -1.40599 0
M  V30 22770 O 3714.85 6.17751 -0.734343 0
M  V30 22771 C 3716.04 8.05906 -1.51917 0
M  V30 22772 O 3716.43 8.74358 -0.335205 0
M  V30 22773 C 3716.92 6.83093 -1.70294 0
M  V30 22774 C 3716.21 5.79992 -0.836974 0
M  V30 22775 N 3716.26 4.41864 -1.38293 0
M  V30 22776 C 3716.18 4.02089 -2.69407 0
M  V30 22777 N 3716.25 2.73403 -2.85089 0
M  V30 22778 C 3716.4 2.25086 -1.5642 0
M  V30 22779 C 3716.53 0.942887 -1.04836 0
M  V30 22780 N 3716.54 -0.150999 -1.80369 0
M  V30 22781 N 3716.65 0.812565 0.28167 0
M  V30 22782 C 3716.64 1.90572 1.03784 0
M  V30 22783 N 3716.52 3.167 0.683905 0
M  V30 22784 C 3716.4 3.26538 -0.652815 0
M  V30 22785 H 3713.42 8.13738 -3.03804 0
M  V30 22786 H 3713.15 6.42974 -2.55559 0
M  V30 22787 H 3714.02 8.12139 -0.792866 0
M  V30 22788 H 3716.67 5.80178 0.160643 0
M  V30 22789 H 3716.95 6.51379 -2.75643 0
M  V30 22790 H 3717.94 7.01832 -1.3448 0
M  V30 22791 H 3716.11 8.73771 -2.38364 0
M  V30 22792 H 3716.07 4.7189 -3.52311 0
M  V30 22793 H 3716.45 -0.0721434 -2.82608 0
M  V30 22794 H 3716.64 -1.0785 -1.36544 0
M  V30 22795 H 3716.75 1.73207 2.10241 0
M  V30 22796 P 3717.98 8.91 -1.42686e-10 0
M  V30 22797 O 3718.2 10.1726 0.733694 0
M  V30 22798 O 3718.77 8.73148 -1.23936 0
M  V30 22799 O 3718.23 7.66872 0.971405 0
M  V30 22800 C 3717.29 7.42309 2.04641 0
M  V30 22801 C 3718.02 6.86059 3.24661 0
M  V30 22802 O 3718.23 5.42847 3.03646 0
M  V30 22803 C 3719.42 7.41196 3.50753 0
M  V30 22804 O 3719.81 7.27073 4.86816 0
M  V30 22805 C 3720.3 6.5273 2.63741 0
M  V30 22806 C 3719.59 5.1842 2.73198 0
M  V30 22807 N 3719.64 4.38762 1.4784 0
M  V30 22808 H 3716.8 8.36803 2.32493 0
M  V30 22809 H 3716.53 6.70197 1.71129 0
M  V30 22810 H 3717.4 7.03551 4.13168 0
M  V30 22811 P 3721.36 7.20834 5.23717 0
M  V30 22812 O 3721.58 7.79853 6.57286 0
M  V30 22813 O 3722.15 7.79239 4.12957 0
M  V30 22814 O 3721.61 5.63315 5.29344 0
M  V30 22815 C 3720.67 4.80255 6.01876 0
M  V30 22816 C 3721.4 3.64202 6.65911 0
M  V30 22817 O 3721.61 2.60694 5.64732 0
M  V30 22818 C 3722.8 3.93473 7.1943 0
M  V30 22819 O 3723.19 3.02071 8.21205 0
M  V30 22820 C 3723.68 3.73047 5.97036 0
M  V30 22821 C 3722.97 2.58828 5.25741 0
M  V30 22822 N 3723.02 2.68068 3.77503 0
M  V30 22823 C 3722.94 3.79715 2.96723 0
M  V30 22824 N 3723.02 3.5377 1.68852 0
M  V30 22825 C 3723.16 2.15054 1.63254 0
M  V30 22826 C 3723.29 1.28964 0.518571 0
M  V30 22827 O 3723.31 1.56826 -0.679156 0
M  V30 22828 N 3723.41 -0.0538097 0.918425 0
M  V30 22829 C 3723.41 -0.494275 2.22578 0
M  V30 22830 N 3723.54 -1.81086 2.40434 0
M  V30 22831 N 3723.28 0.313645 3.27502 0
M  V30 22832 C 3723.16 1.61829 2.91033 0
M  V30 22833 H 3720.18 5.40332 6.79951 0
M  V30 22834 H 3719.91 4.41613 5.32378 0
M  V30 22835 H 3720.78 3.26331 7.47797 0
M  V30 22836 H 3723.43 1.63422 5.56814 0
M  V30 22837 H 3723.71 4.63374 5.34244 0
M  V30 22838 H 3724.7 3.44728 6.25838 0
M  V30 22839 H 3722.87 4.96652 7.57263 0
M  V30 22840 H 3722.82 4.80617 3.3614 0
M  V30 22841 H 3723.5 -0.742702 0.199384 0
M  V30 22842 H 3723.54 -2.20598 3.35588 0
M  V30 22843 H 3723.64 -2.43518 1.58945 0
M  V30 22844 P 3724.74 2.75334 8.47391 0
M  V30 22845 O 3724.96 2.44571 9.90142 0
M  V30 22846 O 3725.53 3.87688 7.92115 0
M  V30 22847 O 3724.99 1.4459 7.59357 0
M  V30 22848 C 3724.05 0.347608 7.69215 0
M  V30 22849 C 3724.78 -0.96767 7.52806 0
M  V30 22850 O 3724.99 -1.21036 6.1011 0
M  V30 22851 C 3726.18 -1.04544 8.13308 0
M  V30 22852 O 3726.57 -2.38311 8.41922 0
M  V30 22853 C 3727.06 -0.491279 7.02284 0
M  V30 22854 C 3726.35 -0.996264 5.77469 0
M  V30 22855 N 3726.4 -0.0501916 4.62973 0
M  V30 22856 H 3723.56 0.374722 8.67691 0
M  V30 22857 H 3723.29 0.443485 6.90277 0
M  V30 22858 H 3724.16 -1.75537 7.96793 0
M  V30 22859 P 3728.12 -2.75334 8.47391 0
M  V30 22860 O 3728.34 -3.84128 9.44797 0
M  V30 22861 O 3728.91 -1.51947 8.68712 0
M  V30 22862 O 3728.37 -3.29363 6.99321 0
M  V30 22863 C 3727.43 -4.24011 6.4274 0
M  V30 22864 C 3728.16 -5.20775 5.52155 0
M  V30 22865 O 3728.37 -4.56534 4.22446 0
M  V30 22866 C 3729.56 -5.62629 5.96531 0
M  V30 22867 O 3729.95 -6.87667 5.41053 0
M  V30 22868 C 3730.44 -4.52537 5.39283 0
M  V30 22869 C 3729.73 -4.20027 4.08623 0
M  V30 22870 N 3729.78 -2.76189 3.71603 0
M  V30 22871 H 3726.94 -4.797 7.24003 0
M  V30 22872 H 3726.67 -3.69856 5.84513 0
M  V30 22873 H 3727.54 -6.10356 5.41441 0
M  V30 22874 P 3731.5 -7.20834 5.23717 0
M  V30 22875 O 3731.72 -8.66104 5.38572 0
M  V30 22876 O 3732.29 -6.33544 6.1349 0
M  V30 22877 O 3731.75 -6.7751 3.72168 0
M  V30 22878 C 3730.81 -7.20825 2.7076 0
M  V30 22879 C 3731.54 -7.45864 1.40599 0
M  V30 22880 O 3731.75 -6.17651 0.734225 0
M  V30 22881 C 3732.94 -8.05808 1.51899 0
M  V30 22882 O 3733.33 -8.74358 0.335205 0
M  V30 22883 C 3733.82 -6.83093 1.70294 0
M  V30 22884 C 3733.11 -5.79992 0.836974 0
M  V30 22885 N 3733.16 -4.41864 1.38293 0
M  V30 22886 H 3730.32 -8.13644 3.0377 0
M  V30 22887 H 3730.05 -6.42788 2.55485 0
M  V30 22888 H 3730.92 -8.12039 0.792769 0
M  V30 22889 P 3734.88 -8.91 1.43795e-10 0
M  V30 22890 O 3735.1 -10.1746 -0.733838 0
M  V30 22891 O 3735.67 -8.73346 1.23964 0
M  V30 22892 O 3735.13 -7.66872 -0.971405 0
M  V30 22893 C 3734.19 -7.42405 -2.04668 0
M  V30 22894 C 3734.92 -6.86059 -3.24661 0
M  V30 22895 O 3735.13 -5.42934 -3.03695 0
M  V30 22896 C 3736.32 -7.41287 -3.50796 0
M  V30 22897 O 3736.71 -7.27073 -4.86816 0
M  V30 22898 C 3737.2 -6.5273 -2.63741 0
M  V30 22899 C 3736.49 -5.1842 -2.73198 0
M  V30 22900 N 3736.54 -4.38762 -1.4784 0
M  V30 22901 C 3736.46 -4.83651 -0.183876 0
M  V30 22902 N 3736.53 -3.88759 0.699393 0
M  V30 22903 C 3736.68 -2.7404 -0.0575568 0
M  V30 22904 C 3736.81 -1.37902 0.293928 0
M  V30 22905 N 3736.82 -0.938021 1.54797 0
M  V30 22906 N 3736.93 -0.491817 -0.70549 0
M  V30 22907 C 3736.92 -0.931735 -1.95979 0
M  V30 22908 N 3736.8 -2.16017 -2.41481 0
M  V30 22909 C 3736.68 -3.02547 -1.39121 0
M  V30 22910 H 3733.7 -8.36899 -2.3252 0
M  V30 22911 H 3733.43 -6.70391 -1.71179 0
M  V30 22912 H 3734.3 -7.03638 -4.13219 0
M  V30 22913 H 3736.95 -4.59931 -3.54016 0
M  V30 22914 H 3737.23 -6.88995 -1.59871 0
M  V30 22915 H 3738.22 -6.4684 -3.0373 0
M  V30 22916 H 3736.39 -8.47002 -3.20749 0
M  V30 22917 H 3736.35 -5.8885 0.0765548 0
M  V30 22918 H 3736.73 -1.60276 2.32875 0
M  V30 22919 H 3736.92 0.0699355 1.73859 0
M  V30 22920 H 3737.02 -0.165507 -2.71897 0
M  V30 22921 P 3738.26 -7.20834 -5.23717 0
M  V30 22922 O 3738.48 -7.79853 -6.57286 0
M  V30 22923 O 3739.05 -7.79239 -4.12957 0
M  V30 22924 O 3738.51 -5.63315 -5.29344 0
M  V30 22925 C 3737.57 -4.80255 -6.01876 0
M  V30 22926 C 3738.3 -3.64202 -6.65911 0
M  V30 22927 O 3738.51 -2.60694 -5.64732 0
M  V30 22928 C 3739.7 -3.93473 -7.1943 0
M  V30 22929 O 3740.09 -3.02071 -8.21205 0
M  V30 22930 C 3740.58 -3.73047 -5.97036 0
M  V30 22931 C 3739.87 -2.58828 -5.25741 0
M  V30 22932 N 3739.92 -2.68068 -3.77503 0
M  V30 22933 H 3737.08 -5.40332 -6.79951 0
M  V30 22934 H 3736.81 -4.41613 -5.32378 0
M  V30 22935 H 3737.68 -3.26331 -7.47797 0
M  V30 22936 P 3741.64 -2.75334 -8.47391 0
M  V30 22937 O 3741.86 -2.44571 -9.90142 0
M  V30 22938 O 3742.43 -3.87688 -7.92115 0
M  V30 22939 O 3741.89 -1.4459 -7.59357 0
M  V30 22940 C 3740.95 -0.347608 -7.69215 0
M  V30 22941 C 3741.68 0.96767 -7.52806 0
M  V30 22942 O 3741.89 1.21036 -6.1011 0
M  V30 22943 C 3743.08 1.04544 -8.13308 0
M  V30 22944 O 3743.47 2.38311 -8.41922 0
M  V30 22945 C 3743.96 0.491279 -7.02284 0
M  V30 22946 C 3743.25 0.996264 -5.77469 0
M  V30 22947 N 3743.3 0.0501916 -4.62973 0
M  V30 22948 H 3740.46 -0.374722 -8.67691 0
M  V30 22949 H 3740.19 -0.443485 -6.90277 0
M  V30 22950 H 3741.06 1.75537 -7.96793 0
M  V30 22951 P 3745.02 2.75334 -8.47391 0
M  V30 22952 O 3745.24 3.84204 -9.44982 0
M  V30 22953 O 3745.81 1.51982 -8.68909 0
M  V30 22954 O 3745.27 3.29363 -6.99321 0
M  V30 22955 C 3744.33 4.24066 -6.42823 0
M  V30 22956 C 3745.06 5.20775 -5.52155 0
M  V30 22957 O 3745.27 4.56607 -4.22514 0
M  V30 22958 C 3746.46 5.62697 -5.96604 0
M  V30 22959 O 3746.85 6.87667 -5.41053 0
M  V30 22960 C 3747.34 4.52537 -5.39283 0
M  V30 22961 C 3746.63 4.20027 -4.08623 0
M  V30 22962 N 3746.68 2.76189 -3.71603 0
M  V30 22963 C 3746.6 1.66944 -4.54297 0
M  V30 22964 N 3746.67 0.536169 -3.91344 0
M  V30 22965 C 3746.82 0.901569 -2.58849 0
M  V30 22966 C 3746.95 0.146599 -1.40236 0
M  V30 22967 N 3746.96 -1.18234 -1.37046 0
M  V30 22968 N 3747.07 0.822941 -0.249738 0
M  V30 22969 C 3747.06 2.15179 -0.280525 0
M  V30 22970 N 3746.94 2.96414 -1.30822 0
M  V30 22971 C 3746.82 2.25804 -2.44748 0
M  V30 22972 H 3743.84 4.79756 -7.24086 0
M  V30 22973 H 3743.57 3.69963 -5.84682 0
M  V30 22974 H 3744.44 6.10431 -5.41508 0
M  V30 22975 H 3747.09 4.78816 -3.28024 0
M  V30 22976 H 3747.37 3.64957 -6.05871 0
M  V30 22977 H 3748.36 4.88748 -5.21323 0
M  V30 22978 H 3746.53 5.66789 -7.0643 0
M  V30 22979 H 3746.49 1.74684 -5.62396 0
M  V30 22980 H 3746.87 -1.71949 -2.24394 0
M  V30 22981 H 3747.06 -1.67511 -0.470742 0
M  V30 22982 H 3747.16 2.63704 0.6828 0
M  V30 22983 P 3748.4 7.20834 -5.23717 0
M  V30 22984 O 3748.62 8.66274 -5.38678 0
M  V30 22985 O 3749.19 6.33687 -6.13629 0
M  V30 22986 O 3748.65 6.7751 -3.72168 0
M  V30 22987 C 3747.71 7.20919 -2.70795 0
M  V30 22988 C 3748.44 7.45864 -1.40599 0
M  V30 22989 O 3748.65 6.17751 -0.734343 0
M  V30 22990 C 3749.84 8.05906 -1.51917 0
M  V30 22991 O 3750.23 8.74358 -0.335205 0
M  V30 22992 C 3750.72 6.83093 -1.70294 0
M  V30 22993 C 3750.01 5.79992 -0.836974 0
M  V30 22994 N 3750.06 4.41864 -1.38293 0
M  V30 22995 C 3749.98 4.02089 -2.69407 0
M  V30 22996 N 3750.05 2.73403 -2.85089 0
M  V30 22997 C 3750.2 2.25086 -1.5642 0
M  V30 22998 C 3750.33 0.942887 -1.04836 0
M  V30 22999 N 3750.34 -0.150999 -1.80369 0
M  V30 23000 N 3750.45 0.812565 0.28167 0
M  V30 23001 C 3750.44 1.90572 1.03784 0
M  V30 23002 N 3750.32 3.167 0.683905 0
M  V30 23003 C 3750.2 3.26538 -0.652815 0
M  V30 23004 H 3747.22 8.13738 -3.03804 0
M  V30 23005 H 3746.95 6.42974 -2.55559 0
M  V30 23006 H 3747.82 8.12139 -0.792866 0
M  V30 23007 H 3750.47 5.80178 0.160643 0
M  V30 23008 H 3750.75 6.51379 -2.75643 0
M  V30 23009 H 3751.74 7.01832 -1.3448 0
M  V30 23010 H 3749.91 8.73771 -2.38364 0
M  V30 23011 H 3749.87 4.7189 -3.52311 0
M  V30 23012 H 3750.25 -0.0721434 -2.82608 0
M  V30 23013 H 3750.44 -1.0785 -1.36544 0
M  V30 23014 H 3750.54 1.73207 2.10241 0
M  V30 23015 P 3751.78 8.91 -1.44904e-10 0
M  V30 23016 O 3752 10.1726 0.733694 0
M  V30 23017 O 3752.57 8.73148 -1.23936 0
M  V30 23018 O 3752.03 7.66872 0.971405 0
M  V30 23019 C 3751.09 7.42309 2.04641 0
M  V30 23020 C 3751.82 6.86059 3.24661 0
M  V30 23021 O 3752.03 5.42847 3.03646 0
M  V30 23022 C 3753.22 7.41196 3.50753 0
M  V30 23023 O 3753.61 7.27073 4.86816 0
M  V30 23024 C 3754.1 6.5273 2.63741 0
M  V30 23025 C 3753.39 5.1842 2.73198 0
M  V30 23026 N 3753.44 4.38762 1.4784 0
M  V30 23027 H 3750.6 8.36803 2.32493 0
M  V30 23028 H 3750.33 6.70197 1.71129 0
M  V30 23029 H 3751.2 7.03551 4.13168 0
M  V30 23030 P 3755.16 7.20834 5.23717 0
M  V30 23031 O 3755.38 7.79853 6.57286 0
M  V30 23032 O 3755.95 7.79239 4.12957 0
M  V30 23033 O 3755.41 5.63315 5.29344 0
M  V30 23034 C 3754.47 4.80255 6.01876 0
M  V30 23035 C 3755.2 3.64202 6.65911 0
M  V30 23036 O 3755.41 2.60694 5.64732 0
M  V30 23037 C 3756.6 3.93473 7.1943 0
M  V30 23038 O 3756.99 3.02071 8.21205 0
M  V30 23039 C 3757.48 3.73047 5.97036 0
M  V30 23040 C 3756.77 2.58828 5.25741 0
M  V30 23041 N 3756.82 2.68068 3.77503 0
M  V30 23042 H 3753.98 5.40332 6.79951 0
M  V30 23043 H 3753.71 4.41613 5.32378 0
M  V30 23044 H 3754.58 3.26331 7.47797 0
M  V30 23045 P 3758.54 2.75334 8.47391 0
M  V30 23046 O 3758.76 2.44571 9.90142 0
M  V30 23047 O 3759.33 3.87688 7.92115 0
M  V30 23048 O 3758.79 1.4459 7.59357 0
M  V30 23049 C 3757.85 0.347608 7.69215 0
M  V30 23050 C 3758.58 -0.96767 7.52806 0
M  V30 23051 O 3758.79 -1.21036 6.1011 0
M  V30 23052 C 3759.98 -1.04544 8.13308 0
M  V30 23053 O 3760.37 -2.38311 8.41922 0
M  V30 23054 C 3760.86 -0.491279 7.02284 0
M  V30 23055 C 3760.15 -0.996264 5.77469 0
M  V30 23056 N 3760.2 -0.0501916 4.62973 0
M  V30 23057 H 3757.36 0.374722 8.67691 0
M  V30 23058 H 3757.09 0.443485 6.90277 0
M  V30 23059 H 3757.96 -1.75537 7.96793 0
M  V30 23060 P 3761.92 -2.75334 8.47391 0
M  V30 23061 O 3762.14 -3.84128 9.44797 0
M  V30 23062 O 3762.71 -1.51947 8.68712 0
M  V30 23063 O 3762.17 -3.29363 6.99321 0
M  V30 23064 C 3761.23 -4.24011 6.4274 0
M  V30 23065 C 3761.96 -5.20775 5.52155 0
M  V30 23066 O 3762.17 -4.56534 4.22446 0
M  V30 23067 C 3763.36 -5.62629 5.96531 0
M  V30 23068 O 3763.75 -6.87667 5.41053 0
M  V30 23069 C 3764.24 -4.52537 5.39283 0
M  V30 23070 C 3763.53 -4.20027 4.08623 0
M  V30 23071 N 3763.58 -2.76189 3.71603 0
M  V30 23072 H 3760.74 -4.797 7.24003 0
M  V30 23073 H 3760.47 -3.69856 5.84513 0
M  V30 23074 H 3761.34 -6.10356 5.41441 0
M  V30 23075 P 3765.3 -7.20834 5.23717 0
M  V30 23076 O 3765.52 -8.66274 5.38678 0
M  V30 23077 O 3766.09 -6.33687 6.13629 0
M  V30 23078 O 3765.55 -6.7751 3.72168 0
M  V30 23079 C 3764.61 -7.20919 2.70795 0
M  V30 23080 C 3765.34 -7.45864 1.40599 0
M  V30 23081 O 3765.55 -6.17751 0.734343 0
M  V30 23082 C 3766.74 -8.05906 1.51917 0
M  V30 23083 O 3767.13 -8.74358 0.335205 0
M  V30 23084 C 3767.62 -6.83093 1.70294 0
M  V30 23085 C 3766.91 -5.79992 0.836974 0
M  V30 23086 N 3766.96 -4.41864 1.38293 0
M  V30 23087 C 3766.88 -4.02089 2.69407 0
M  V30 23088 N 3766.95 -2.73403 2.85089 0
M  V30 23089 C 3767.1 -2.25086 1.5642 0
M  V30 23090 C 3767.23 -0.942887 1.04836 0
M  V30 23091 N 3767.24 0.150999 1.80369 0
M  V30 23092 N 3767.35 -0.812565 -0.28167 0
M  V30 23093 C 3767.34 -1.90572 -1.03784 0
M  V30 23094 N 3767.22 -3.167 -0.683905 0
M  V30 23095 C 3767.1 -3.26538 0.652815 0
M  V30 23096 H 3764.12 -8.13738 3.03804 0
M  V30 23097 H 3763.85 -6.42974 2.55559 0
M  V30 23098 H 3764.72 -8.12139 0.792866 0
M  V30 23099 H 3767.37 -5.80178 -0.160643 0
M  V30 23100 H 3767.65 -6.51379 2.75643 0
M  V30 23101 H 3768.64 -7.01832 1.3448 0
M  V30 23102 H 3766.81 -8.73771 2.38364 0
M  V30 23103 H 3766.77 -4.7189 3.52311 0
M  V30 23104 H 3767.15 0.0721434 2.82608 0
M  V30 23105 H 3767.34 1.0785 1.36544 0
M  V30 23106 H 3767.44 -1.73207 -2.10241 0
M  V30 23107 P 3768.68 -8.91 1.46013e-10 0
M  V30 23108 O 3768.9 -10.1726 -0.733694 0
M  V30 23109 O 3769.47 -8.73148 1.23936 0
M  V30 23110 O 3768.93 -7.66872 -0.971405 0
M  V30 23111 C 3767.99 -7.42309 -2.04641 0
M  V30 23112 C 3768.72 -6.86059 -3.24661 0
M  V30 23113 O 3768.93 -5.42847 -3.03646 0
M  V30 23114 C 3770.12 -7.41196 -3.50753 0
M  V30 23115 O 3770.51 -7.27073 -4.86816 0
M  V30 23116 C 3771 -6.5273 -2.63741 0
M  V30 23117 C 3770.29 -5.1842 -2.73198 0
M  V30 23118 N 3770.34 -4.38762 -1.4784 0
M  V30 23119 H 3767.5 -8.36803 -2.32493 0
M  V30 23120 H 3767.23 -6.70197 -1.71129 0
M  V30 23121 H 3768.1 -7.03551 -4.13168 0
M  V30 23122 P 3772.06 -7.20834 -5.23717 0
M  V30 23123 O 3772.28 -7.79853 -6.57286 0
M  V30 23124 O 3772.85 -7.79239 -4.12957 0
M  V30 23125 O 3772.31 -5.63315 -5.29344 0
M  V30 23126 C 3771.37 -4.80255 -6.01876 0
M  V30 23127 C 3772.1 -3.64202 -6.65911 0
M  V30 23128 O 3772.31 -2.60694 -5.64732 0
M  V30 23129 C 3773.5 -3.93473 -7.1943 0
M  V30 23130 O 3773.89 -3.02071 -8.21205 0
M  V30 23131 C 3774.38 -3.73047 -5.97036 0
M  V30 23132 C 3773.67 -2.58828 -5.25741 0
M  V30 23133 N 3773.72 -2.68068 -3.77503 0
M  V30 23134 C 3773.64 -3.79715 -2.96723 0
M  V30 23135 N 3773.72 -3.5377 -1.68852 0
M  V30 23136 C 3773.86 -2.15054 -1.63254 0
M  V30 23137 C 3773.99 -1.28964 -0.518571 0
M  V30 23138 N 3774.11 0.0538097 -0.918425 0
M  V30 23139 C 3774.11 0.494275 -2.22578 0
M  V30 23140 N 3774.24 1.81086 -2.40434 0
M  V30 23141 N 3773.98 -0.313645 -3.27502 0
M  V30 23142 C 3773.86 -1.61829 -2.91033 0
M  V30 23143 H 3770.88 -5.40332 -6.79951 0
M  V30 23144 H 3770.61 -4.41613 -5.32378 0
M  V30 23145 H 3771.48 -3.26331 -7.47797 0
M  V30 23146 P 3775.44 -2.75334 -8.47391 0
M  V30 23147 O 3775.66 -2.44571 -9.90142 0
M  V30 23148 O 3776.23 -3.87688 -7.92115 0
M  V30 23149 O 3775.69 -1.4459 -7.59357 0
M  V30 23150 C 3774.75 -0.347608 -7.69215 0
M  V30 23151 C 3775.48 0.96767 -7.52806 0
M  V30 23152 O 3775.69 1.21036 -6.1011 0
M  V30 23153 C 3776.88 1.04544 -8.13308 0
M  V30 23154 O 3777.27 2.38311 -8.41922 0
M  V30 23155 C 3777.76 0.491279 -7.02284 0
M  V30 23156 C 3777.05 0.996264 -5.77469 0
M  V30 23157 N 3777.1 0.0501916 -4.62973 0
M  V30 23158 H 3774.26 -0.374722 -8.67691 0
M  V30 23159 H 3773.99 -0.443485 -6.90277 0
M  V30 23160 H 3774.86 1.75537 -7.96793 0
M  V30 23161 P 3778.82 2.75334 -8.47391 0
M  V30 23162 O 3779.04 3.84128 -9.44797 0
M  V30 23163 O 3779.61 1.51947 -8.68712 0
M  V30 23164 O 3779.07 3.29363 -6.99321 0
M  V30 23165 C 3778.13 4.24011 -6.4274 0
M  V30 23166 C 3778.86 5.20775 -5.52155 0
M  V30 23167 O 3779.07 4.56534 -4.22446 0
M  V30 23168 C 3780.26 5.62629 -5.96531 0
M  V30 23169 O 3780.65 6.87667 -5.41053 0
M  V30 23170 C 3781.14 4.52537 -5.39283 0
M  V30 23171 C 3780.43 4.20027 -4.08623 0
M  V30 23172 N 3780.48 2.76189 -3.71603 0
M  V30 23173 C 3780.4 1.64862 -4.52822 0
M  V30 23174 N 3780.48 0.512671 -3.88633 0
M  V30 23175 C 3780.62 0.888083 -2.54977 0
M  V30 23176 C 3780.75 0.094668 -1.38677 0
M  V30 23177 N 3780.87 0.890102 -0.232633 0
M  V30 23178 C 3780.87 2.26958 -0.21772 0
M  V30 23179 N 3781 2.84626 0.97925 0
M  V30 23180 N 3780.74 3.0178 -1.31033 0
M  V30 23181 C 3780.62 2.26781 -2.43843 0
M  V30 23182 H 3777.64 4.797 -7.24003 0
M  V30 23183 H 3777.37 3.69856 -5.84513 0
M  V30 23184 H 3778.24 6.10356 -5.41441 0
M  V30 23185 P 3782.2 7.20834 -5.23717 0
M  V30 23186 O 3782.42 8.66104 -5.38572 0
M  V30 23187 O 3782.99 6.33544 -6.1349 0
M  V30 23188 O 3782.45 6.7751 -3.72168 0
M  V30 23189 C 3781.51 7.20825 -2.7076 0
M  V30 23190 C 3782.24 7.45864 -1.40599 0
M  V30 23191 O 3782.45 6.17651 -0.734225 0
M  V30 23192 C 3783.64 8.05808 -1.51899 0
M  V30 23193 O 3784.03 8.74358 -0.335205 0
M  V30 23194 C 3784.52 6.83093 -1.70294 0
M  V30 23195 C 3783.81 5.79992 -0.836974 0
M  V30 23196 N 3783.86 4.41864 -1.38293 0
M  V30 23197 H 3781.02 8.13644 -3.0377 0
M  V30 23198 H 3780.75 6.42788 -2.55485 0
M  V30 23199 H 3781.62 8.12039 -0.792769 0
M  V30 23200 P 3785.58 8.91 -1.47122e-10 0
M  V30 23201 O 3785.8 10.1736 0.733766 0
M  V30 23202 O 3786.37 8.73247 -1.2395 0
M  V30 23203 O 3785.83 7.66872 0.971405 0
M  V30 23204 C 3784.89 7.42212 2.04614 0
M  V30 23205 C 3785.62 6.86059 3.24661 0
M  V30 23206 O 3785.83 5.42847 3.03646 0
M  V30 23207 C 3787.02 7.41196 3.50753 0
M  V30 23208 O 3787.41 7.27073 4.86816 0
M  V30 23209 C 3787.9 6.5273 2.63741 0
M  V30 23210 C 3787.19 5.1842 2.73198 0
M  V30 23211 N 3787.24 4.38668 1.47808 0
M  V30 23212 C 3787.39 3.02239 1.60048 0
M  V30 23213 O 3787.48 2.46459 2.67869 0
M  V30 23214 N 3787.43 2.32436 0.408571 0
M  V30 23215 C 3787.34 2.85471 -0.854993 0
M  V30 23216 O 3787.39 2.12566 -1.8531 0
M  V30 23217 C 3787.19 4.28918 -0.887335 0
M  V30 23218 C 3787.08 4.91066 -2.24619 0
M  V30 23219 C 3787.14 5.00349 0.255399 0
M  V30 23220 H 3784.4 8.36803 2.32493 0
M  V30 23221 H 3784.13 6.701 1.71105 0
M  V30 23222 H 3785 7.03551 4.13168 0
M  V30 23223 H 3787.65 4.59773 3.53894 0
M  V30 23224 H 3787.93 6.88995 1.59871 0
M  V30 23225 H 3788.92 6.46749 3.03687 0
M  V30 23226 H 3787.09 8.46908 3.20714 0
M  V30 23227 H 3787.02 6.08548 0.206986 0
M  V30 23228 H 3788.05 5.34836 -2.53099 0
M  V30 23229 H 3786.31 5.69638 -2.2291 0
M  V30 23230 H 3786.8 4.13971 -2.98044 0
M  V30 23231 H 3787.53 1.33211 0.474216 0
M  V30 23232 P 3788.96 7.20834 5.23717 0
M  V30 23233 O 3789.18 7.79853 6.57286 0
M  V30 23234 O 3789.75 7.79239 4.12957 0
M  V30 23235 O 3789.21 5.63315 5.29344 0
M  V30 23236 C 3788.27 4.80255 6.01876 0
M  V30 23237 C 3789 3.64202 6.65911 0
M  V30 23238 O 3789.21 2.60694 5.64732 0
M  V30 23239 C 3790.4 3.93473 7.1943 0
M  V30 23240 O 3790.79 3.02071 8.21205 0
M  V30 23241 C 3791.28 3.73047 5.97036 0
M  V30 23242 C 3790.57 2.58828 5.25741 0
M  V30 23243 N 3790.62 2.68068 3.77503 0
M  V30 23244 H 3787.78 5.40332 6.79951 0
M  V30 23245 H 3787.51 4.41613 5.32378 0
M  V30 23246 H 3788.38 3.26331 7.47797 0
M  V30 23247 P 3792.34 2.75334 8.47391 0
M  V30 23248 O 3792.56 2.44571 9.90142 0
M  V30 23249 O 3793.13 3.87688 7.92115 0
M  V30 23250 O 3792.59 1.4459 7.59357 0
M  V30 23251 C 3791.65 0.347608 7.69215 0
M  V30 23252 C 3792.38 -0.96767 7.52806 0
M  V30 23253 O 3792.59 -1.21036 6.1011 0
M  V30 23254 C 3793.78 -1.04544 8.13308 0
M  V30 23255 O 3794.17 -2.38311 8.41922 0
M  V30 23256 C 3794.66 -0.491279 7.02284 0
M  V30 23257 C 3793.95 -0.996264 5.77469 0
M  V30 23258 N 3794 -0.0501916 4.62973 0
M  V30 23259 H 3791.16 0.374722 8.67691 0
M  V30 23260 H 3790.89 0.443485 6.90277 0
M  V30 23261 H 3791.76 -1.75537 7.96793 0
M  V30 23262 P 3795.72 -2.75334 8.47391 0
M  V30 23263 O 3795.94 -3.84204 9.44982 0
M  V30 23264 O 3796.51 -1.51982 8.68909 0
M  V30 23265 O 3795.97 -3.29363 6.99321 0
M  V30 23266 C 3795.03 -4.24066 6.42823 0
M  V30 23267 C 3795.76 -5.20775 5.52155 0
M  V30 23268 O 3795.97 -4.56607 4.22514 0
M  V30 23269 C 3797.16 -5.62697 5.96604 0
M  V30 23270 O 3797.55 -6.87667 5.41053 0
M  V30 23271 C 3798.04 -4.52537 5.39283 0
M  V30 23272 C 3797.33 -4.20027 4.08623 0
M  V30 23273 N 3797.38 -2.76189 3.71603 0
M  V30 23274 H 3794.54 -4.79756 7.24086 0
M  V30 23275 H 3794.27 -3.69963 5.84682 0
M  V30 23276 H 3795.14 -6.10431 5.41508 0
M  V30 23277 H 3797.79 -4.78816 3.28024 0
M  V30 23278 H 3798.07 -3.64957 6.05871 0
M  V30 23279 H 3799.06 -4.88748 5.21323 0
M  V30 23280 H 3797.23 -5.66789 7.0643 0
M  V30 23281 P 3799.1 -7.20834 5.23717 0
M  V30 23282 O 3799.32 -8.66274 5.38678 0
M  V30 23283 O 3799.89 -6.33687 6.13629 0
M  V30 23284 O 3799.35 -6.7751 3.72168 0
M  V30 23285 C 3798.41 -7.20919 2.70795 0
M  V30 23286 C 3799.14 -7.45864 1.40599 0
M  V30 23287 O 3799.35 -6.17751 0.734343 0
M  V30 23288 C 3800.54 -8.05906 1.51917 0
M  V30 23289 O 3800.93 -8.74358 0.335205 0
M  V30 23290 C 3801.42 -6.83093 1.70294 0
M  V30 23291 C 3800.71 -5.79992 0.836974 0
M  V30 23292 N 3800.76 -4.41864 1.38293 0
M  V30 23293 C 3800.68 -4.02089 2.69407 0
M  V30 23294 N 3800.75 -2.73403 2.85089 0
M  V30 23295 C 3800.9 -2.25086 1.5642 0
M  V30 23296 C 3801.03 -0.942887 1.04836 0
M  V30 23297 N 3801.04 0.150999 1.80369 0
M  V30 23298 N 3801.15 -0.812565 -0.28167 0
M  V30 23299 C 3801.14 -1.90572 -1.03784 0
M  V30 23300 N 3801.02 -3.167 -0.683905 0
M  V30 23301 C 3800.9 -3.26538 0.652815 0
M  V30 23302 H 3797.92 -8.13738 3.03804 0
M  V30 23303 H 3797.65 -6.42974 2.55559 0
M  V30 23304 H 3798.52 -8.12139 0.792866 0
M  V30 23305 H 3801.17 -5.80178 -0.160643 0
M  V30 23306 H 3801.45 -6.51379 2.75643 0
M  V30 23307 H 3802.44 -7.01832 1.3448 0
M  V30 23308 H 3800.61 -8.73771 2.38364 0
M  V30 23309 H 3800.57 -4.7189 3.52311 0
M  V30 23310 H 3800.95 0.0721434 2.82608 0
M  V30 23311 H 3801.14 1.0785 1.36544 0
M  V30 23312 H 3801.24 -1.73207 -2.10241 0
M  V30 23313 P 3802.48 -8.91 1.48231e-10 0
M  V30 23314 O 3802.7 -10.1726 -0.733694 0
M  V30 23315 O 3803.27 -8.73148 1.23936 0
M  V30 23316 O 3802.73 -7.66872 -0.971405 0
M  V30 23317 C 3801.79 -7.42309 -2.04641 0
M  V30 23318 C 3802.52 -6.86059 -3.24661 0
M  V30 23319 O 3802.73 -5.42847 -3.03646 0
M  V30 23320 C 3803.92 -7.41196 -3.50753 0
M  V30 23321 O 3804.31 -7.27073 -4.86816 0
M  V30 23322 C 3804.8 -6.5273 -2.63741 0
M  V30 23323 C 3804.09 -5.1842 -2.73198 0
M  V30 23324 N 3804.14 -4.38762 -1.4784 0
M  V30 23325 H 3801.3 -8.36803 -2.32493 0
M  V30 23326 H 3801.03 -6.70197 -1.71129 0
M  V30 23327 H 3801.9 -7.03551 -4.13168 0
M  V30 23328 P 3805.86 -7.20834 -5.23717 0
M  V30 23329 O 3806.08 -7.79853 -6.57286 0
M  V30 23330 O 3806.65 -7.79239 -4.12957 0
M  V30 23331 O 3806.11 -5.63315 -5.29344 0
M  V30 23332 C 3805.17 -4.80255 -6.01876 0
M  V30 23333 C 3805.9 -3.64202 -6.65911 0
M  V30 23334 O 3806.11 -2.60694 -5.64732 0
M  V30 23335 C 3807.3 -3.93473 -7.1943 0
M  V30 23336 O 3807.69 -3.02071 -8.21205 0
M  V30 23337 C 3808.18 -3.73047 -5.97036 0
M  V30 23338 C 3807.47 -2.58828 -5.25741 0
M  V30 23339 N 3807.52 -2.68068 -3.77503 0
M  V30 23340 H 3804.68 -5.40332 -6.79951 0
M  V30 23341 H 3804.41 -4.41613 -5.32378 0
M  V30 23342 H 3805.28 -3.26331 -7.47797 0
M  V30 23343 P 3809.24 -2.75334 -8.47391 0
M  V30 23344 O 3809.46 -2.44571 -9.90142 0
M  V30 23345 O 3810.03 -3.87688 -7.92115 0
M  V30 23346 O 3809.49 -1.4459 -7.59357 0
M  V30 23347 C 3808.55 -0.347608 -7.69215 0
M  V30 23348 C 3809.28 0.96767 -7.52806 0
M  V30 23349 O 3809.49 1.21036 -6.1011 0
M  V30 23350 C 3810.68 1.04544 -8.13308 0
M  V30 23351 O 3811.07 2.38311 -8.41922 0
M  V30 23352 C 3811.56 0.491279 -7.02284 0
M  V30 23353 C 3810.85 0.996264 -5.77469 0
M  V30 23354 N 3810.9 0.0501916 -4.62973 0
M  V30 23355 H 3808.06 -0.374722 -8.67691 0
M  V30 23356 H 3807.79 -0.443485 -6.90277 0
M  V30 23357 H 3808.66 1.75537 -7.96793 0
M  V30 23358 P 3812.62 2.75334 -8.47391 0
M  V30 23359 O 3812.84 3.84128 -9.44797 0
M  V30 23360 O 3813.41 1.51947 -8.68712 0
M  V30 23361 O 3812.87 3.29363 -6.99321 0
M  V30 23362 C 3811.93 4.24011 -6.4274 0
M  V30 23363 C 3812.66 5.20775 -5.52155 0
M  V30 23364 O 3812.87 4.56534 -4.22446 0
M  V30 23365 C 3814.06 5.62629 -5.96531 0
M  V30 23366 O 3814.45 6.87667 -5.41053 0
M  V30 23367 C 3814.94 4.52537 -5.39283 0
M  V30 23368 C 3814.23 4.20027 -4.08623 0
M  V30 23369 N 3814.28 2.76189 -3.71603 0
M  V30 23370 C 3814.2 1.64862 -4.52822 0
M  V30 23371 N 3814.28 0.512671 -3.88633 0
M  V30 23372 C 3814.42 0.888083 -2.54977 0
M  V30 23373 C 3814.55 0.094668 -1.38677 0
M  V30 23374 O 3814.57 -1.13053 -1.28163 0
M  V30 23375 N 3814.67 0.890102 -0.232633 0
M  V30 23376 C 3814.67 2.26958 -0.21772 0
M  V30 23377 N 3814.8 2.84626 0.97925 0
M  V30 23378 N 3814.54 3.0178 -1.31033 0
M  V30 23379 C 3814.42 2.26781 -2.43843 0
M  V30 23380 H 3811.44 4.797 -7.24003 0
M  V30 23381 H 3811.17 3.69856 -5.84513 0
M  V30 23382 H 3812.04 6.10356 -5.41441 0
M  V30 23383 H 3814.69 4.79061 -3.27488 0
M  V30 23384 H 3814.97 3.64906 -6.05785 0
M  V30 23385 H 3815.96 4.8868 -5.2125 0
M  V30 23386 H 3814.13 5.66726 -7.06352 0
M  V30 23387 H 3814.08 1.71169 -5.60966 0
M  V30 23388 H 3814.76 0.419134 0.644739 0
M  V30 23389 H 3814.8 3.87332 1.06098 0
M  V30 23390 H 3814.9 2.26417 1.82483 0
M  V30 23391 P 3816 7.20834 -5.23717 0
M  V30 23392 O 3816.22 8.66104 -5.38572 0
M  V30 23393 O 3816.79 6.33544 -6.1349 0
M  V30 23394 O 3816.25 6.7751 -3.72168 0
M  V30 23395 C 3815.31 7.20825 -2.7076 0
M  V30 23396 C 3816.04 7.45864 -1.40599 0
M  V30 23397 O 3816.25 6.17651 -0.734225 0
M  V30 23398 C 3817.44 8.05808 -1.51899 0
M  V30 23399 O 3817.83 8.74358 -0.335205 0
M  V30 23400 C 3818.32 6.83093 -1.70294 0
M  V30 23401 C 3817.61 5.79992 -0.836974 0
M  V30 23402 N 3817.66 4.41864 -1.38293 0
M  V30 23403 C 3817.58 3.99538 -2.69438 0
M  V30 23404 N 3817.66 2.69909 -2.84277 0
M  V30 23405 C 3817.8 2.21719 -1.5408 0
M  V30 23406 C 3817.93 0.891712 -1.06628 0
M  V30 23407 O 3817.95 -0.161298 -1.70137 0
M  V30 23408 N 3818.05 0.856846 0.334985 0
M  V30 23409 C 3818.05 1.9641 1.15789 0
M  V30 23410 N 3818.18 1.72708 2.46522 0
M  V30 23411 N 3817.92 3.21165 0.713741 0
M  V30 23412 C 3817.8 3.26797 -0.639748 0
M  V30 23413 H 3814.82 8.13644 -3.0377 0
M  V30 23414 H 3814.55 6.42788 -2.55485 0
M  V30 23415 H 3815.42 8.12039 -0.792769 0
M  V30 23416 H 3818.07 5.80061 0.166416 0
M  V30 23417 H 3818.35 6.51287 -2.75604 0
M  V30 23418 H 3819.34 7.01734 -1.34462 0
M  V30 23419 H 3817.51 8.73674 -2.38337 0
M  V30 23420 H 3817.46 4.68207 -3.53221 0
M  V30 23421 H 3818.14 -0.0398818 0.767965 0
M  V30 23422 H 3818.18 2.50995 3.13503 0
M  V30 23423 H 3818.28 0.759148 2.80716 0
M  V30 23424 P 3819.38 8.91 -1.4934e-10 0
M  V30 23425 O 3819.6 10.1746 0.733838 0
M  V30 23426 O 3820.17 8.73346 -1.23964 0
M  V30 23427 O 3819.63 7.66872 0.971405 0
M  V30 23428 C 3818.69 7.42405 2.04668 0
M  V30 23429 C 3819.42 6.86059 3.24661 0
M  V30 23430 O 3819.63 5.42934 3.03695 0
M  V30 23431 C 3820.82 7.41287 3.50796 0
M  V30 23432 O 3821.21 7.27073 4.86816 0
M  V30 23433 C 3821.7 6.5273 2.63741 0
M  V30 23434 C 3820.99 5.1842 2.73198 0
M  V30 23435 N 3821.04 4.38762 1.4784 0
M  V30 23436 C 3820.96 4.83651 0.183876 0
M  V30 23437 N 3821.03 3.88759 -0.699393 0
M  V30 23438 C 3821.18 2.7404 0.0575568 0
M  V30 23439 C 3821.31 1.37902 -0.293928 0
M  V30 23440 N 3821.32 0.938021 -1.54797 0
M  V30 23441 N 3821.43 0.491817 0.70549 0
M  V30 23442 C 3821.42 0.931735 1.95979 0
M  V30 23443 N 3821.3 2.16017 2.41481 0
M  V30 23444 C 3821.18 3.02547 1.39121 0
M  V30 23445 H 3818.2 8.36899 2.3252 0
M  V30 23446 H 3817.93 6.70391 1.71179 0
M  V30 23447 H 3818.8 7.03638 4.13219 0
M  V30 23448 H 3821.45 4.59931 3.54016 0
M  V30 23449 H 3821.73 6.88995 1.59871 0
M  V30 23450 H 3822.72 6.4684 3.0373 0
M  V30 23451 H 3820.89 8.47002 3.20749 0
M  V30 23452 H 3820.85 5.8885 -0.0765548 0
M  V30 23453 H 3821.23 1.60276 -2.32875 0
M  V30 23454 H 3821.42 -0.0699355 -1.73859 0
M  V30 23455 H 3821.52 0.165507 2.71897 0
M  V30 23456 P 3822.76 7.20834 5.23717 0
M  V30 23457 O 3822.98 7.79853 6.57286 0
M  V30 23458 O 3823.55 7.79239 4.12957 0
M  V30 23459 O 3823.01 5.63315 5.29344 0
M  V30 23460 C 3822.07 4.80255 6.01876 0
M  V30 23461 C 3822.8 3.64202 6.65911 0
M  V30 23462 O 3823.01 2.60694 5.64732 0
M  V30 23463 C 3824.2 3.93473 7.1943 0
M  V30 23464 O 3824.59 3.02071 8.21205 0
M  V30 23465 C 3825.08 3.73047 5.97036 0
M  V30 23466 C 3824.37 2.58828 5.25741 0
M  V30 23467 N 3824.42 2.68068 3.77503 0
M  V30 23468 H 3821.58 5.40332 6.79951 0
M  V30 23469 H 3821.31 4.41613 5.32378 0
M  V30 23470 H 3822.18 3.26331 7.47797 0
M  V30 23471 P 3826.14 2.75334 8.47391 0
M  V30 23472 O 3826.36 2.44571 9.90142 0
M  V30 23473 O 3826.93 3.87688 7.92115 0
M  V30 23474 O 3826.39 1.4459 7.59357 0
M  V30 23475 C 3825.45 0.347608 7.69215 0
M  V30 23476 C 3826.18 -0.96767 7.52806 0
M  V30 23477 O 3826.39 -1.21036 6.1011 0
M  V30 23478 C 3827.58 -1.04544 8.13308 0
M  V30 23479 O 3827.97 -2.38311 8.41922 0
M  V30 23480 C 3828.46 -0.491279 7.02284 0
M  V30 23481 C 3827.75 -0.996264 5.77469 0
M  V30 23482 N 3827.8 -0.0501916 4.62973 0
M  V30 23483 H 3824.96 0.374722 8.67691 0
M  V30 23484 H 3824.69 0.443485 6.90277 0
M  V30 23485 H 3825.56 -1.75537 7.96793 0
M  V30 23486 P 3829.52 -2.75334 8.47391 0
M  V30 23487 O 3829.74 -3.84128 9.44797 0
M  V30 23488 O 3830.31 -1.51947 8.68712 0
M  V30 23489 O 3829.77 -3.29363 6.99321 0
M  V30 23490 C 3828.83 -4.24011 6.4274 0
M  V30 23491 C 3829.56 -5.20775 5.52155 0
M  V30 23492 O 3829.77 -4.56534 4.22446 0
M  V30 23493 C 3830.96 -5.62629 5.96531 0
M  V30 23494 O 3831.35 -6.87667 5.41053 0
M  V30 23495 C 3831.84 -4.52537 5.39283 0
M  V30 23496 C 3831.13 -4.20027 4.08623 0
M  V30 23497 N 3831.18 -2.76189 3.71603 0
M  V30 23498 H 3828.34 -4.797 7.24003 0
M  V30 23499 H 3828.07 -3.69856 5.84513 0
M  V30 23500 H 3828.94 -6.10356 5.41441 0
M  V30 23501 P 3832.9 -7.20834 5.23717 0
M  V30 23502 O 3833.12 -8.66104 5.38572 0
M  V30 23503 O 3833.69 -6.33544 6.1349 0
M  V30 23504 O 3833.15 -6.7751 3.72168 0
M  V30 23505 C 3832.21 -7.20825 2.7076 0
M  V30 23506 C 3832.94 -7.45864 1.40599 0
M  V30 23507 O 3833.15 -6.17651 0.734225 0
M  V30 23508 C 3834.34 -8.05808 1.51899 0
M  V30 23509 O 3834.73 -8.74358 0.335205 0
M  V30 23510 C 3835.22 -6.83093 1.70294 0
M  V30 23511 C 3834.51 -5.79992 0.836974 0
M  V30 23512 N 3834.56 -4.41864 1.38293 0
M  V30 23513 C 3834.48 -3.99538 2.69438 0
M  V30 23514 N 3834.56 -2.69909 2.84277 0
M  V30 23515 C 3834.7 -2.21719 1.5408 0
M  V30 23516 C 3834.83 -0.891712 1.06628 0
M  V30 23517 N 3834.95 -0.856846 -0.334985 0
M  V30 23518 C 3834.95 -1.9641 -1.15789 0
M  V30 23519 N 3835.08 -1.72708 -2.46522 0
M  V30 23520 N 3834.82 -3.21165 -0.713741 0
M  V30 23521 C 3834.7 -3.26797 0.639748 0
M  V30 23522 H 3831.72 -8.13644 3.0377 0
M  V30 23523 H 3831.45 -6.42788 2.55485 0
M  V30 23524 H 3832.32 -8.12039 0.792769 0
M  V30 23525 P 3836.28 -8.91 1.50449e-10 0
M  V30 23526 O 3836.5 -10.1726 -0.733694 0
M  V30 23527 O 3837.07 -8.73148 1.23936 0
M  V30 23528 O 3836.53 -7.66872 -0.971405 0
M  V30 23529 C 3835.59 -7.42309 -2.04641 0
M  V30 23530 C 3836.32 -6.86059 -3.24661 0
M  V30 23531 O 3836.53 -5.42847 -3.03646 0
M  V30 23532 C 3837.72 -7.41196 -3.50753 0
M  V30 23533 O 3838.11 -7.27073 -4.86816 0
M  V30 23534 C 3838.6 -6.5273 -2.63741 0
M  V30 23535 C 3837.89 -5.1842 -2.73198 0
M  V30 23536 N 3837.94 -4.38762 -1.4784 0
M  V30 23537 H 3835.1 -8.36803 -2.32493 0
M  V30 23538 H 3834.83 -6.70197 -1.71129 0
M  V30 23539 H 3835.7 -7.03551 -4.13168 0
M  V30 23540 P 3839.66 -7.20834 -5.23717 0
M  V30 23541 O 3839.88 -7.79853 -6.57286 0
M  V30 23542 O 3840.45 -7.79239 -4.12957 0
M  V30 23543 O 3839.91 -5.63315 -5.29344 0
M  V30 23544 C 3838.97 -4.80255 -6.01876 0
M  V30 23545 C 3839.7 -3.64202 -6.65911 0
M  V30 23546 O 3839.91 -2.60694 -5.64732 0
M  V30 23547 C 3841.1 -3.93473 -7.1943 0
M  V30 23548 O 3841.49 -3.02071 -8.21205 0
M  V30 23549 C 3841.98 -3.73047 -5.97036 0
M  V30 23550 C 3841.27 -2.58828 -5.25741 0
M  V30 23551 N 3841.32 -2.68068 -3.77503 0
M  V30 23552 H 3838.48 -5.40332 -6.79951 0
M  V30 23553 H 3838.21 -4.41613 -5.32378 0
M  V30 23554 H 3839.08 -3.26331 -7.47797 0
M  V30 23555 P 3843.04 -2.75334 -8.47391 0
M  V30 23556 O 3843.26 -2.44571 -9.90142 0
M  V30 23557 O 3843.83 -3.87688 -7.92115 0
M  V30 23558 O 3843.29 -1.4459 -7.59357 0
M  V30 23559 C 3842.35 -0.347608 -7.69215 0
M  V30 23560 C 3843.08 0.96767 -7.52806 0
M  V30 23561 O 3843.29 1.21036 -6.1011 0
M  V30 23562 C 3844.48 1.04544 -8.13308 0
M  V30 23563 O 3844.87 2.38311 -8.41922 0
M  V30 23564 C 3845.36 0.491279 -7.02284 0
M  V30 23565 C 3844.65 0.996264 -5.77469 0
M  V30 23566 N 3844.7 0.0501916 -4.62973 0
M  V30 23567 H 3841.86 -0.374722 -8.67691 0
M  V30 23568 H 3841.59 -0.443485 -6.90277 0
M  V30 23569 H 3842.46 1.75537 -7.96793 0
M  V30 23570 P 3846.42 2.75334 -8.47391 0
M  V30 23571 O 3846.64 3.84128 -9.44797 0
M  V30 23572 O 3847.21 1.51947 -8.68712 0
M  V30 23573 O 3846.67 3.29363 -6.99321 0
M  V30 23574 C 3845.73 4.24011 -6.4274 0
M  V30 23575 C 3846.46 5.20775 -5.52155 0
M  V30 23576 O 3846.67 4.56534 -4.22446 0
M  V30 23577 C 3847.86 5.62629 -5.96531 0
M  V30 23578 O 3848.25 6.87667 -5.41053 0
M  V30 23579 C 3848.74 4.52537 -5.39283 0
M  V30 23580 C 3848.03 4.20027 -4.08623 0
M  V30 23581 N 3848.08 2.76189 -3.71603 0
M  V30 23582 H 3845.24 4.797 -7.24003 0
M  V30 23583 H 3844.97 3.69856 -5.84513 0
M  V30 23584 H 3845.84 6.10356 -5.41441 0
M  V30 23585 P 3849.8 7.20834 -5.23717 0
M  V30 23586 O 3850.02 8.66104 -5.38572 0
M  V30 23587 O 3850.59 6.33544 -6.1349 0
M  V30 23588 O 3850.05 6.7751 -3.72168 0
M  V30 23589 C 3849.11 7.20825 -2.7076 0
M  V30 23590 C 3849.84 7.45864 -1.40599 0
M  V30 23591 O 3850.05 6.17651 -0.734225 0
M  V30 23592 C 3851.24 8.05808 -1.51899 0
M  V30 23593 O 3851.63 8.74358 -0.335205 0
M  V30 23594 C 3852.12 6.83093 -1.70294 0
M  V30 23595 C 3851.41 5.79992 -0.836974 0
M  V30 23596 N 3851.46 4.41864 -1.38293 0
M  V30 23597 H 3848.62 8.13644 -3.0377 0
M  V30 23598 H 3848.35 6.42788 -2.55485 0
M  V30 23599 H 3849.22 8.12039 -0.792769 0
M  V30 23600 P 3853.18 8.91 -1.51558e-10 0
M  V30 23601 O 3853.4 10.1726 0.733694 0
M  V30 23602 O 3853.97 8.73148 -1.23936 0
M  V30 23603 O 3853.43 7.66872 0.971405 0
M  V30 23604 C 3852.49 7.42309 2.04641 0
M  V30 23605 C 3853.22 6.86059 3.24661 0
M  V30 23606 O 3853.43 5.42847 3.03646 0
M  V30 23607 C 3854.62 7.41196 3.50753 0
M  V30 23608 O 3855.01 7.27073 4.86816 0
M  V30 23609 C 3855.5 6.5273 2.63741 0
M  V30 23610 C 3854.79 5.1842 2.73198 0
M  V30 23611 N 3854.84 4.38762 1.4784 0
M  V30 23612 H 3852 8.36803 2.32493 0
M  V30 23613 H 3851.73 6.70197 1.71129 0
M  V30 23614 H 3852.6 7.03551 4.13168 0
M  V30 23615 P 3856.56 7.20834 5.23717 0
M  V30 23616 O 3856.78 7.79853 6.57286 0
M  V30 23617 O 3857.35 7.79239 4.12957 0
M  V30 23618 O 3856.81 5.63315 5.29344 0
M  V30 23619 C 3855.87 4.80255 6.01876 0
M  V30 23620 C 3856.6 3.64202 6.65911 0
M  V30 23621 O 3856.81 2.60694 5.64732 0
M  V30 23622 C 3858 3.93473 7.1943 0
M  V30 23623 O 3858.39 3.02071 8.21205 0
M  V30 23624 C 3858.88 3.73047 5.97036 0
M  V30 23625 C 3858.17 2.58828 5.25741 0
M  V30 23626 N 3858.22 2.68068 3.77503 0
M  V30 23627 H 3855.38 5.40332 6.79951 0
M  V30 23628 H 3855.11 4.41613 5.32378 0
M  V30 23629 H 3855.98 3.26331 7.47797 0
M  V30 23630 P 3859.94 2.75334 8.47391 0
M  V30 23631 O 3860.16 2.44619 9.90336 0
M  V30 23632 O 3860.73 3.87776 7.92294 0
M  V30 23633 O 3860.19 1.4459 7.59357 0
M  V30 23634 C 3859.25 0.347653 7.69315 0
M  V30 23635 C 3859.98 -0.96767 7.52806 0
M  V30 23636 O 3860.19 -1.21055 6.10208 0
M  V30 23637 C 3861.38 -1.04557 8.13408 0
M  V30 23638 O 3861.77 -2.38311 8.41922 0
M  V30 23639 C 3862.26 -0.491279 7.02284 0
M  V30 23640 C 3861.55 -0.996264 5.77469 0
M  V30 23641 N 3861.6 -0.0501916 4.62973 0
M  V30 23642 C 3861.52 1.31969 4.65661 0
M  V30 23643 N 3861.59 1.86649 3.48119 0
M  V30 23644 C 3861.74 0.792089 2.62406 0
M  V30 23645 C 3861.87 0.705684 1.2207 0
M  V30 23646 N 3861.88 1.76207 0.413762 0
M  V30 23647 N 3861.99 -0.518981 0.685754 0
M  V30 23648 C 3861.98 -1.57595 1.49174 0
M  V30 23649 N 3861.86 -1.62909 2.80066 0
M  V30 23650 C 3861.74 -0.388195 3.3073 0
M  V30 23651 H 3858.76 0.374765 8.67791 0
M  V30 23652 H 3858.49 0.443613 6.90476 0
M  V30 23653 H 3859.36 -1.75559 7.96891 0
M  V30 23654 H 3862.01 -1.94563 5.46818 0
M  V30 23655 H 3862.29 0.608651 7.04676 0
M  V30 23656 H 3863.28 -0.889796 7.09039 0
M  V30 23657 H 3861.45 -0.433128 9.04664 0
M  V30 23658 H 3861.41 1.89246 5.57664 0
M  V30 23659 H 3861.79 2.71005 0.804694 0
M  V30 23660 H 3861.98 1.63189 -0.603768 0
M  V30 23661 H 3862.08 -2.53475 0.997614 0
M  V30 23662 P 3863.32 -2.75334 8.47391 0
M  V30 23663 O 3863.54 -3.84128 9.44797 0
M  V30 23664 O 3864.11 -1.51947 8.68712 0
M  V30 23665 O 3863.57 -3.29363 6.99321 0
M  V30 23666 C 3862.63 -4.24011 6.4274 0
M  V30 23667 C 3863.36 -5.20775 5.52155 0
M  V30 23668 O 3863.57 -4.56534 4.22446 0
M  V30 23669 C 3864.76 -5.62629 5.96531 0
M  V30 23670 O 3865.15 -6.87667 5.41053 0
M  V30 23671 C 3865.64 -4.52537 5.39283 0
M  V30 23672 C 3864.93 -4.20027 4.08623 0
M  V30 23673 N 3864.98 -2.76189 3.71603 0
M  V30 23674 H 3862.14 -4.797 7.24003 0
M  V30 23675 H 3861.87 -3.69856 5.84513 0
M  V30 23676 H 3862.74 -6.10356 5.41441 0
M  V30 23677 P 3866.7 -7.20834 5.23717 0
M  V30 23678 O 3866.92 -8.66104 5.38572 0
M  V30 23679 O 3867.49 -6.33544 6.1349 0
M  V30 23680 O 3866.95 -6.7751 3.72168 0
M  V30 23681 C 3866.01 -7.20825 2.7076 0
M  V30 23682 C 3866.74 -7.45864 1.40599 0
M  V30 23683 O 3866.95 -6.17651 0.734225 0
M  V30 23684 C 3868.14 -8.05808 1.51899 0
M  V30 23685 O 3868.53 -8.74358 0.335205 0
M  V30 23686 C 3869.02 -6.83093 1.70294 0
M  V30 23687 C 3868.31 -5.79992 0.836974 0
M  V30 23688 N 3868.36 -4.41864 1.38293 0
M  V30 23689 H 3865.52 -8.13644 3.0377 0
M  V30 23690 H 3865.25 -6.42788 2.55485 0
M  V30 23691 H 3866.12 -8.12039 0.792769 0
M  V30 23692 P 3870.08 -8.91 1.52667e-10 0
M  V30 23693 O 3870.3 -10.1726 -0.733694 0
M  V30 23694 O 3870.87 -8.73148 1.23936 0
M  V30 23695 O 3870.33 -7.66872 -0.971405 0
M  V30 23696 C 3869.39 -7.42309 -2.04641 0
M  V30 23697 C 3870.12 -6.86059 -3.24661 0
M  V30 23698 O 3870.33 -5.42847 -3.03646 0
M  V30 23699 C 3871.52 -7.41196 -3.50753 0
M  V30 23700 O 3871.91 -7.27073 -4.86816 0
M  V30 23701 C 3872.4 -6.5273 -2.63741 0
M  V30 23702 C 3871.69 -5.1842 -2.73198 0
M  V30 23703 N 3871.74 -4.38762 -1.4784 0
M  V30 23704 H 3868.9 -8.36803 -2.32493 0
M  V30 23705 H 3868.63 -6.70197 -1.71129 0
M  V30 23706 H 3869.5 -7.03551 -4.13168 0
M  V30 23707 P 3873.46 -7.20834 -5.23717 0
M  V30 23708 O 3873.68 -7.80006 -6.57415 0
M  V30 23709 O 3874.25 -7.79416 -4.13051 0
M  V30 23710 O 3873.71 -5.63315 -5.29344 0
M  V30 23711 C 3872.77 -4.80318 -6.01954 0
M  V30 23712 C 3873.5 -3.64202 -6.65911 0
M  V30 23713 O 3873.71 -2.60736 -5.64823 0
M  V30 23714 C 3874.9 -3.93521 -7.19518 0
M  V30 23715 O 3875.29 -3.02071 -8.21205 0
M  V30 23716 C 3875.78 -3.73047 -5.97036 0
M  V30 23717 C 3875.07 -2.58828 -5.25741 0
M  V30 23718 N 3875.12 -2.68068 -3.77503 0
M  V30 23719 C 3875.04 -3.80474 -2.99159 0
M  V30 23720 N 3875.11 -3.55622 -1.71925 0
M  V30 23721 C 3875.26 -2.1832 -1.65733 0
M  V30 23722 C 3875.39 -1.28842 -0.572777 0
M  V30 23723 N 3875.4 -1.66875 0.70098 0
M  V30 23724 N 3875.51 0.016788 -0.859836 0
M  V30 23725 C 3875.5 0.398145 -2.13316 0
M  V30 23726 N 3875.38 -0.328224 -3.22333 0
M  V30 23727 C 3875.26 -1.62992 -2.90383 0
M  V30 23728 H 3872.28 -5.40394 -6.8003 0
M  V30 23729 H 3872.01 -4.41741 -5.32532 0
M  V30 23730 H 3872.88 -3.26371 -7.47889 0
M  V30 23731 H 3875.53 -1.64007 -5.56746 0
M  V30 23732 H 3875.81 -4.63439 -5.3432 0
M  V30 23733 H 3876.8 -3.44776 -6.25925 0
M  V30 23734 H 3874.97 -4.96707 -7.57347 0
M  V30 23735 H 3874.93 -4.8089 -3.39924 0
M  V30 23736 H 3875.31 -2.66547 0.941919 0
M  V30 23737 H 3875.5 -0.965341 1.44766 0
M  V30 23738 H 3875.6 1.46427 -2.29697 0
M  V30 23739 P 3876.84 -2.75334 -8.47391 0
M  V30 23740 O 3877.06 -2.44595 -9.90239 0
M  V30 23741 O 3877.63 -3.87732 -7.92204 0
M  V30 23742 O 3877.09 -1.4459 -7.59357 0
M  V30 23743 C 3876.15 -0.347563 -7.69115 0
M  V30 23744 C 3876.88 0.96767 -7.52806 0
M  V30 23745 O 3877.09 1.21036 -6.1011 0
M  V30 23746 C 3878.28 1.04544 -8.13308 0
M  V30 23747 O 3878.67 2.38311 -8.41922 0
M  V30 23748 C 3879.16 0.491279 -7.02284 0
M  V30 23749 C 3878.45 0.996264 -5.77469 0
M  V30 23750 N 3878.5 0.0501808 -4.62873 0
M  V30 23751 C 3878.65 0.588177 -3.36904 0
M  V30 23752 O 3878.74 1.78598 -3.17173 0
M  V30 23753 N 3878.69 -0.329694 -2.33686 0
M  V30 23754 C 3878.6 -1.6953 -2.45079 0
M  V30 23755 C 3878.45 -2.16933 -3.80505 0
M  V30 23756 C 3878.4 -1.30326 -4.83752 0
M  V30 23757 H 3875.66 -0.374722 -8.67691 0
M  V30 23758 H 3875.39 -0.443421 -6.90177 0
M  V30 23759 H 3876.26 1.75537 -7.96793 0
M  V30 23760 H 3878.91 1.94496 -5.46629 0
M  V30 23761 H 3879.19 -0.608651 -7.04676 0
M  V30 23762 H 3880.18 0.889672 -7.08939 0
M  V30 23763 H 3878.35 0.43308 -9.04564 0
M  V30 23764 H 3878.28 -1.68366 -5.8516 0
M  V30 23765 P 3880.22 2.75334 -8.47391 0
M  V30 23766 O 3880.44 3.84204 -9.44982 0
M  V30 23767 O 3881.01 1.51982 -8.68909 0
M  V30 23768 O 3880.47 3.29363 -6.99321 0
M  V30 23769 C 3879.53 4.24066 -6.42823 0
M  V30 23770 C 3880.26 5.20775 -5.52155 0
M  V30 23771 O 3880.47 4.56607 -4.22514 0
M  V30 23772 C 3881.66 5.62697 -5.96604 0
M  V30 23773 O 3882.05 6.87667 -5.41053 0
M  V30 23774 C 3882.54 4.52537 -5.39283 0
M  V30 23775 C 3881.83 4.20027 -4.08623 0
M  V30 23776 N 3881.88 2.76189 -3.71603 0
M  V30 23777 C 3881.8 1.66944 -4.54297 0
M  V30 23778 N 3881.87 0.536169 -3.91344 0
M  V30 23779 C 3882.02 0.901569 -2.58849 0
M  V30 23780 C 3882.15 0.146599 -1.40236 0
M  V30 23781 N 3882.16 -1.18234 -1.37046 0
M  V30 23782 N 3882.27 0.822941 -0.249738 0
M  V30 23783 C 3882.26 2.15179 -0.280525 0
M  V30 23784 N 3882.14 2.96414 -1.30822 0
M  V30 23785 C 3882.02 2.25804 -2.44748 0
M  V30 23786 H 3879.04 4.79756 -7.24086 0
M  V30 23787 H 3878.77 3.69963 -5.84682 0
M  V30 23788 H 3879.64 6.10431 -5.41508 0
M  V30 23789 H 3882.29 4.78816 -3.28024 0
M  V30 23790 H 3882.57 3.64957 -6.05871 0
M  V30 23791 H 3883.56 4.88748 -5.21323 0
M  V30 23792 H 3881.73 5.66789 -7.0643 0
M  V30 23793 H 3881.69 1.74684 -5.62396 0
M  V30 23794 H 3882.07 -1.71949 -2.24394 0
M  V30 23795 H 3882.26 -1.67511 -0.470742 0
M  V30 23796 H 3882.36 2.63704 0.6828 0
M  V30 23797 P 3883.6 7.20834 -5.23717 0
M  V30 23798 O 3883.82 8.66104 -5.38572 0
M  V30 23799 O 3884.39 6.33544 -6.1349 0
M  V30 23800 O 3883.85 6.7751 -3.72168 0
M  V30 23801 C 3882.91 7.20825 -2.7076 0
M  V30 23802 C 3883.64 7.45864 -1.40599 0
M  V30 23803 O 3883.85 6.17651 -0.734225 0
M  V30 23804 C 3885.04 8.05808 -1.51899 0
M  V30 23805 O 3885.43 8.74358 -0.335205 0
M  V30 23806 C 3885.92 6.83093 -1.70294 0
M  V30 23807 C 3885.21 5.79992 -0.836974 0
M  V30 23808 N 3885.26 4.41864 -1.38293 0
M  V30 23809 H 3882.42 8.13644 -3.0377 0
M  V30 23810 H 3882.15 6.42788 -2.55485 0
M  V30 23811 H 3883.02 8.12039 -0.792769 0
M  V30 23812 P 3886.98 8.91 -1.53776e-10 0
M  V30 23813 O 3887.2 10.1746 0.733838 0
M  V30 23814 O 3887.77 8.73346 -1.23964 0
M  V30 23815 O 3887.23 7.66872 0.971405 0
M  V30 23816 C 3886.29 7.42405 2.04668 0
M  V30 23817 C 3887.02 6.86059 3.24661 0
M  V30 23818 O 3887.23 5.42934 3.03695 0
M  V30 23819 C 3888.42 7.41287 3.50796 0
M  V30 23820 O 3888.81 7.27073 4.86816 0
M  V30 23821 C 3889.3 6.5273 2.63741 0
M  V30 23822 C 3888.59 5.1842 2.73198 0
M  V30 23823 N 3888.64 4.38762 1.4784 0
M  V30 23824 C 3888.56 4.83651 0.183876 0
M  V30 23825 N 3888.63 3.88759 -0.699393 0
M  V30 23826 C 3888.78 2.7404 0.0575568 0
M  V30 23827 C 3888.91 1.37902 -0.293928 0
M  V30 23828 N 3888.92 0.938021 -1.54797 0
M  V30 23829 N 3889.03 0.491817 0.70549 0
M  V30 23830 C 3889.02 0.931735 1.95979 0
M  V30 23831 N 3888.9 2.16017 2.41481 0
M  V30 23832 C 3888.78 3.02547 1.39121 0
M  V30 23833 H 3885.8 8.36899 2.3252 0
M  V30 23834 H 3885.53 6.70391 1.71179 0
M  V30 23835 H 3886.4 7.03638 4.13219 0
M  V30 23836 H 3889.05 4.59931 3.54016 0
M  V30 23837 H 3889.33 6.88995 1.59871 0
M  V30 23838 H 3890.32 6.4684 3.0373 0
M  V30 23839 H 3888.49 8.47002 3.20749 0
M  V30 23840 H 3888.45 5.8885 -0.0765548 0
M  V30 23841 H 3888.83 1.60276 -2.32875 0
M  V30 23842 H 3889.02 -0.0699355 -1.73859 0
M  V30 23843 H 3889.12 0.165507 2.71897 0
M  V30 23844 P 3890.36 7.20834 5.23717 0
M  V30 23845 O 3890.58 7.80006 6.57415 0
M  V30 23846 O 3891.15 7.79416 4.13051 0
M  V30 23847 O 3890.61 5.63315 5.29344 0
M  V30 23848 C 3889.67 4.80318 6.01954 0
M  V30 23849 C 3890.4 3.64202 6.65911 0
M  V30 23850 O 3890.61 2.60736 5.64823 0
M  V30 23851 C 3891.8 3.93521 7.19518 0
M  V30 23852 O 3892.19 3.02071 8.21205 0
M  V30 23853 C 3892.68 3.73047 5.97036 0
M  V30 23854 C 3891.97 2.58828 5.25741 0
M  V30 23855 N 3892.02 2.68068 3.77503 0
M  V30 23856 H 3889.18 5.40394 6.8003 0
M  V30 23857 H 3888.91 4.41741 5.32532 0
M  V30 23858 H 3889.77 3.26371 7.47889 0
M  V30 23859 H 3892.43 1.64007 5.56746 0
M  V30 23860 H 3892.71 4.63439 5.3432 0
M  V30 23861 H 3893.7 3.44776 6.25925 0
M  V30 23862 H 3891.87 4.96707 7.57347 0
M  V30 23863 P 3893.74 2.75334 8.47391 0
M  V30 23864 O 3893.96 2.44571 9.90142 0
M  V30 23865 O 3894.53 3.87688 7.92115 0
M  V30 23866 O 3893.99 1.4459 7.59357 0
M  V30 23867 C 3893.05 0.347608 7.69215 0
M  V30 23868 C 3893.78 -0.96767 7.52806 0
M  V30 23869 O 3893.99 -1.21036 6.1011 0
M  V30 23870 C 3895.18 -1.04544 8.13308 0
M  V30 23871 O 3895.57 -2.38311 8.41922 0
M  V30 23872 C 3896.06 -0.491279 7.02284 0
M  V30 23873 C 3895.35 -0.996264 5.77469 0
M  V30 23874 N 3895.4 -0.0501916 4.62973 0
M  V30 23875 C 3895.32 1.32786 4.63244 0
M  V30 23876 N 3895.4 1.86957 3.44545 0
M  V30 23877 C 3895.54 0.780241 2.58481 0
M  V30 23878 C 3895.67 0.738536 1.17757 0
M  V30 23879 O 3895.69 1.66794 0.372349 0
M  V30 23880 N 3895.79 -0.58337 0.711393 0
M  V30 23881 C 3895.79 -1.70816 1.51017 0
M  V30 23882 N 3895.92 -2.87826 0.880757 0
M  V30 23883 N 3895.66 -1.67126 2.8339 0
M  V30 23884 C 3895.54 -0.401421 3.30572 0
M  V30 23885 H 3892.56 0.374722 8.67691 0
M  V30 23886 H 3892.29 0.443485 6.90277 0
M  V30 23887 H 3893.15 -1.75537 7.96793 0
M  V30 23888 H 3895.81 -1.95076 5.46529 0
M  V30 23889 H 3896.09 0.608565 7.04577 0
M  V30 23890 H 3897.08 -0.889672 7.08939 0
M  V30 23891 H 3895.25 -0.43308 9.04564 0
M  V30 23892 H 3895.2 1.91249 5.54442 0
M  V30 23893 H 3895.88 -0.718054 -0.275244 0
M  V30 23894 H 3895.92 -3.75721 1.41832 0
M  V30 23895 H 3896.02 -2.90436 -0.145468 0
M  V30 23896 P 3897.12 -2.75334 8.47391 0
M  V30 23897 O 3897.34 -3.84128 9.44797 0
M  V30 23898 O 3897.91 -1.51947 8.68712 0
M  V30 23899 O 3897.37 -3.29363 6.99321 0
M  V30 23900 C 3896.43 -4.24011 6.4274 0
M  V30 23901 C 3897.16 -5.20775 5.52155 0
M  V30 23902 O 3897.37 -4.56534 4.22446 0
M  V30 23903 C 3898.56 -5.62629 5.96531 0
M  V30 23904 O 3898.95 -6.87667 5.41053 0
M  V30 23905 C 3899.44 -4.52537 5.39283 0
M  V30 23906 C 3898.73 -4.20027 4.08623 0
M  V30 23907 N 3898.78 -2.76189 3.71603 0
M  V30 23908 H 3895.94 -4.797 7.24003 0
M  V30 23909 H 3895.67 -3.69856 5.84513 0
M  V30 23910 H 3896.53 -6.10356 5.41441 0
M  V30 23911 P 3900.5 -7.20834 5.23717 0
M  V30 23912 O 3900.72 -8.66274 5.38678 0
M  V30 23913 O 3901.29 -6.33687 6.13629 0
M  V30 23914 O 3900.75 -6.7751 3.72168 0
M  V30 23915 C 3899.81 -7.20919 2.70795 0
M  V30 23916 C 3900.54 -7.45864 1.40599 0
M  V30 23917 O 3900.75 -6.17751 0.734343 0
M  V30 23918 C 3901.94 -8.05906 1.51917 0
M  V30 23919 O 3902.33 -8.74358 0.335205 0
M  V30 23920 C 3902.82 -6.83093 1.70294 0
M  V30 23921 C 3902.11 -5.79992 0.836974 0
M  V30 23922 N 3902.16 -4.41864 1.38293 0
M  V30 23923 C 3902.08 -4.02089 2.69407 0
M  V30 23924 N 3902.15 -2.73403 2.85089 0
M  V30 23925 C 3902.3 -2.25086 1.5642 0
M  V30 23926 C 3902.43 -0.942887 1.04836 0
M  V30 23927 N 3902.44 0.150999 1.80369 0
M  V30 23928 N 3902.55 -0.812565 -0.28167 0
M  V30 23929 C 3902.54 -1.90572 -1.03784 0
M  V30 23930 N 3902.42 -3.167 -0.683905 0
M  V30 23931 C 3902.3 -3.26538 0.652815 0
M  V30 23932 H 3899.32 -8.13738 3.03804 0
M  V30 23933 H 3899.05 -6.42974 2.55559 0
M  V30 23934 H 3899.91 -8.12139 0.792866 0
M  V30 23935 H 3902.57 -5.80178 -0.160643 0
M  V30 23936 H 3902.85 -6.51379 2.75643 0
M  V30 23937 H 3903.84 -7.01832 1.3448 0
M  V30 23938 H 3902.01 -8.73771 2.38364 0
M  V30 23939 H 3901.97 -4.7189 3.52311 0
M  V30 23940 H 3902.35 0.0721434 2.82608 0
M  V30 23941 H 3902.54 1.0785 1.36544 0
M  V30 23942 H 3902.64 -1.73207 -2.10241 0
M  V30 23943 P 3903.88 -8.91 1.54885e-10 0
M  V30 23944 O 3904.1 -10.1726 -0.733694 0
M  V30 23945 O 3904.67 -8.73148 1.23936 0
M  V30 23946 O 3904.13 -7.66872 -0.971405 0
M  V30 23947 C 3903.19 -7.42309 -2.04641 0
M  V30 23948 C 3903.92 -6.86059 -3.24661 0
M  V30 23949 O 3904.13 -5.42847 -3.03646 0
M  V30 23950 C 3905.32 -7.41196 -3.50753 0
M  V30 23951 O 3905.71 -7.27073 -4.86816 0
M  V30 23952 C 3906.2 -6.5273 -2.63741 0
M  V30 23953 C 3905.49 -5.1842 -2.73198 0
M  V30 23954 N 3905.54 -4.38762 -1.4784 0
M  V30 23955 H 3902.7 -8.36803 -2.32493 0
M  V30 23956 H 3902.43 -6.70197 -1.71129 0
M  V30 23957 H 3903.29 -7.03551 -4.13168 0
M  V30 23958 P 3907.26 -7.20834 -5.23717 0
M  V30 23959 O 3907.48 -7.79853 -6.57286 0
M  V30 23960 O 3908.05 -7.79239 -4.12957 0
M  V30 23961 O 3907.51 -5.63315 -5.29344 0
M  V30 23962 C 3906.57 -4.80255 -6.01876 0
M  V30 23963 C 3907.3 -3.64202 -6.65911 0
M  V30 23964 O 3907.51 -2.60694 -5.64732 0
M  V30 23965 C 3908.7 -3.93473 -7.1943 0
M  V30 23966 O 3909.09 -3.02071 -8.21205 0
M  V30 23967 C 3909.58 -3.73047 -5.97036 0
M  V30 23968 C 3908.87 -2.58828 -5.25741 0
M  V30 23969 N 3908.92 -2.68068 -3.77503 0
M  V30 23970 H 3906.08 -5.40332 -6.79951 0
M  V30 23971 H 3905.81 -4.41613 -5.32378 0
M  V30 23972 H 3906.67 -3.26331 -7.47797 0
M  V30 23973 P 3910.64 -2.75334 -8.47391 0
M  V30 23974 O 3910.86 -2.44595 -9.90239 0
M  V30 23975 O 3911.43 -3.87732 -7.92204 0
M  V30 23976 O 3910.89 -1.4459 -7.59357 0
M  V30 23977 C 3909.95 -0.347563 -7.69115 0
M  V30 23978 C 3910.68 0.96767 -7.52806 0
M  V30 23979 O 3910.89 1.21036 -6.1011 0
M  V30 23980 C 3912.08 1.04544 -8.13308 0
M  V30 23981 O 3912.47 2.38311 -8.41922 0
M  V30 23982 C 3912.96 0.491279 -7.02284 0
M  V30 23983 C 3912.25 0.996264 -5.77469 0
M  V30 23984 N 3912.3 0.0501808 -4.62873 0
M  V30 23985 C 3912.45 0.588177 -3.36904 0
M  V30 23986 O 3912.54 1.78598 -3.17173 0
M  V30 23987 N 3912.49 -0.329694 -2.33686 0
M  V30 23988 C 3912.4 -1.6953 -2.45079 0
M  V30 23989 O 3912.45 -2.41926 -1.44899 0
M  V30 23990 C 3912.25 -2.16933 -3.80505 0
M  V30 23991 C 3912.14 -3.65373 -3.97621 0
M  V30 23992 C 3912.2 -1.30326 -4.83752 0
M  V30 23993 H 3909.46 -0.374722 -8.67691 0
M  V30 23994 H 3909.19 -0.443421 -6.90177 0
M  V30 23995 H 3910.05 1.75537 -7.96793 0
M  V30 23996 H 3912.71 1.94496 -5.46629 0
M  V30 23997 H 3912.99 -0.608651 -7.04676 0
M  V30 23998 H 3913.98 0.889672 -7.08939 0
M  V30 23999 H 3912.15 0.43308 -9.04564 0
M  V30 24000 H 3912.08 -1.68366 -5.8516 0
M  V30 24001 H 3913.11 -4.05985 -4.30448 0
M  V30 24002 H 3911.37 -3.88028 -4.72875 0
M  V30 24003 H 3911.86 -4.11381 -3.01609 0
M  V30 24004 H 3912.59 0.0393617 -1.41345 0
M  V30 24005 P 3914.02 2.75334 -8.47391 0
M  V30 24006 O 3914.24 3.84128 -9.44797 0
M  V30 24007 O 3914.81 1.51947 -8.68712 0
M  V30 24008 O 3914.27 3.29363 -6.99321 0
M  V30 24009 C 3913.33 4.24011 -6.4274 0
M  V30 24010 C 3914.06 5.20775 -5.52155 0
M  V30 24011 O 3914.27 4.56534 -4.22446 0
M  V30 24012 C 3915.46 5.62629 -5.96531 0
M  V30 24013 O 3915.85 6.87667 -5.41053 0
M  V30 24014 C 3916.34 4.52537 -5.39283 0
M  V30 24015 C 3915.63 4.20027 -4.08623 0
M  V30 24016 N 3915.68 2.76189 -3.71603 0
M  V30 24017 H 3912.84 4.797 -7.24003 0
M  V30 24018 H 3912.57 3.69856 -5.84513 0
M  V30 24019 H 3913.43 6.10356 -5.41441 0
M  V30 24020 P 3917.4 7.20834 -5.23717 0
M  V30 24021 O 3917.62 8.66189 -5.38625 0
M  V30 24022 O 3918.19 6.33615 -6.1356 0
M  V30 24023 O 3917.65 6.7751 -3.72168 0
M  V30 24024 C 3916.71 7.20732 -2.70725 0
M  V30 24025 C 3917.44 7.45864 -1.40599 0
M  V30 24026 O 3917.65 6.17651 -0.734225 0
M  V30 24027 C 3918.84 8.05808 -1.51899 0
M  V30 24028 O 3919.23 8.74358 -0.335205 0
M  V30 24029 C 3919.72 6.83093 -1.70294 0
M  V30 24030 C 3919.01 5.79992 -0.836974 0
M  V30 24031 N 3919.06 4.41769 -1.38263 0
M  V30 24032 C 3919.21 3.38591 -0.481702 0
M  V30 24033 O 3919.3 3.56839 0.718452 0
M  V30 24034 N 3919.25 2.1206 -1.03569 0
M  V30 24035 C 3919.16 1.80696 -2.36966 0
M  V30 24036 C 3919.01 2.94845 -3.23898 0
M  V30 24037 C 3918.96 4.19803 -2.73435 0
M  V30 24038 H 3916.22 8.13644 -3.0377 0
M  V30 24039 H 3915.95 6.42695 -2.55448 0
M  V30 24040 H 3916.81 8.12039 -0.792769 0
M  V30 24041 H 3919.47 5.79978 0.160587 0
M  V30 24042 H 3919.75 6.51379 -2.75643 0
M  V30 24043 H 3920.74 7.01734 -1.34462 0
M  V30 24044 H 3918.91 8.73674 -2.38337 0
M  V30 24045 H 3918.84 5.04492 -3.4095 0
M  V30 24046 P 3920.78 8.91 -1.55994e-10 0
M  V30 24047 O 3921 10.1736 0.733766 0
M  V30 24048 O 3921.57 8.73247 -1.2395 0
M  V30 24049 O 3921.03 7.66872 0.971405 0
M  V30 24050 C 3920.09 7.42212 2.04614 0
M  V30 24051 C 3920.82 6.86059 3.24661 0
M  V30 24052 O 3921.03 5.42847 3.03646 0
M  V30 24053 C 3922.22 7.41196 3.50753 0
M  V30 24054 O 3922.61 7.27073 4.86816 0
M  V30 24055 C 3923.1 6.5273 2.63741 0
M  V30 24056 C 3922.39 5.1842 2.73198 0
M  V30 24057 N 3922.44 4.38668 1.47808 0
M  V30 24058 C 3922.59 3.02239 1.60048 0
M  V30 24059 O 3922.68 2.46459 2.67869 0
M  V30 24060 N 3922.63 2.32436 0.408571 0
M  V30 24061 C 3922.54 2.85471 -0.854993 0
M  V30 24062 C 3922.39 4.28918 -0.887335 0
M  V30 24063 C 3922.34 5.00349 0.255399 0
M  V30 24064 H 3919.6 8.36803 2.32493 0
M  V30 24065 H 3919.33 6.701 1.71105 0
M  V30 24066 H 3920.19 7.03551 4.13168 0
M  V30 24067 H 3922.85 4.59773 3.53894 0
M  V30 24068 H 3923.13 6.88995 1.59871 0
M  V30 24069 H 3924.12 6.46749 3.03687 0
M  V30 24070 H 3922.29 8.46908 3.20714 0
M  V30 24071 H 3922.22 6.08548 0.206986 0
M  V30 24072 P 3924.16 7.20834 5.23717 0
M  V30 24073 O 3924.38 7.79853 6.57286 0
M  V30 24074 O 3924.95 7.79239 4.12957 0
M  V30 24075 O 3924.41 5.63315 5.29344 0
M  V30 24076 C 3923.47 4.80255 6.01876 0
M  V30 24077 C 3924.2 3.64202 6.65911 0
M  V30 24078 O 3924.41 2.60694 5.64732 0
M  V30 24079 C 3925.6 3.93473 7.1943 0
M  V30 24080 O 3925.99 3.02071 8.21205 0
M  V30 24081 C 3926.48 3.73047 5.97036 0
M  V30 24082 C 3925.77 2.58828 5.25741 0
M  V30 24083 N 3925.82 2.68068 3.77503 0
M  V30 24084 H 3922.98 5.40332 6.79951 0
M  V30 24085 H 3922.71 4.41613 5.32378 0
M  V30 24086 H 3923.57 3.26331 7.47797 0
M  V30 24087 P 3927.54 2.75334 8.47391 0
M  V30 24088 O 3927.76 2.44571 9.90142 0
M  V30 24089 O 3928.33 3.87688 7.92115 0
M  V30 24090 O 3927.79 1.4459 7.59357 0
M  V30 24091 C 3926.85 0.347608 7.69215 0
M  V30 24092 C 3927.58 -0.96767 7.52806 0
M  V30 24093 O 3927.79 -1.21036 6.1011 0
M  V30 24094 C 3928.98 -1.04544 8.13308 0
M  V30 24095 O 3929.37 -2.38311 8.41922 0
M  V30 24096 C 3929.86 -0.491279 7.02284 0
M  V30 24097 C 3929.15 -0.996264 5.77469 0
M  V30 24098 N 3929.2 -0.0501916 4.62973 0
M  V30 24099 H 3926.36 0.374722 8.67691 0
M  V30 24100 H 3926.09 0.443485 6.90277 0
M  V30 24101 H 3926.95 -1.75537 7.96793 0
M  V30 24102 P 3930.92 -2.75334 8.47391 0
M  V30 24103 O 3931.14 -3.84204 9.44982 0
M  V30 24104 O 3931.71 -1.51982 8.68909 0
M  V30 24105 O 3931.17 -3.29363 6.99321 0
M  V30 24106 C 3930.23 -4.24066 6.42823 0
M  V30 24107 C 3930.96 -5.20775 5.52155 0
M  V30 24108 O 3931.17 -4.56607 4.22514 0
M  V30 24109 C 3932.36 -5.62697 5.96604 0
M  V30 24110 O 3932.75 -6.87667 5.41053 0
M  V30 24111 C 3933.24 -4.52537 5.39283 0
M  V30 24112 C 3932.53 -4.20027 4.08623 0
M  V30 24113 N 3932.58 -2.76189 3.71603 0
M  V30 24114 H 3929.74 -4.79756 7.24086 0
M  V30 24115 H 3929.47 -3.69963 5.84682 0
M  V30 24116 H 3930.33 -6.10431 5.41508 0
M  V30 24117 H 3932.99 -4.78816 3.28024 0
M  V30 24118 H 3933.27 -3.64957 6.05871 0
M  V30 24119 H 3934.26 -4.88748 5.21323 0
M  V30 24120 H 3932.43 -5.66789 7.0643 0
M  V30 24121 P 3934.3 -7.20834 5.23717 0
M  V30 24122 O 3934.52 -8.66104 5.38572 0
M  V30 24123 O 3935.09 -6.33544 6.1349 0
M  V30 24124 O 3934.55 -6.7751 3.72168 0
M  V30 24125 C 3933.61 -7.20825 2.7076 0
M  V30 24126 C 3934.34 -7.45864 1.40599 0
M  V30 24127 O 3934.55 -6.17651 0.734225 0
M  V30 24128 C 3935.74 -8.05808 1.51899 0
M  V30 24129 O 3936.13 -8.74358 0.335205 0
M  V30 24130 C 3936.62 -6.83093 1.70294 0
M  V30 24131 C 3935.91 -5.79992 0.836974 0
M  V30 24132 N 3935.96 -4.41864 1.38293 0
M  V30 24133 H 3933.12 -8.13644 3.0377 0
M  V30 24134 H 3932.85 -6.42788 2.55485 0
M  V30 24135 H 3933.71 -8.12039 0.792769 0
M  V30 24136 P 3937.68 -8.91 1.57103e-10 0
M  V30 24137 O 3937.9 -10.1726 -0.733694 0
M  V30 24138 O 3938.47 -8.73148 1.23936 0
M  V30 24139 O 3937.93 -7.66872 -0.971405 0
M  V30 24140 C 3936.99 -7.42309 -2.04641 0
M  V30 24141 C 3937.72 -6.86059 -3.24661 0
M  V30 24142 O 3937.93 -5.42847 -3.03646 0
M  V30 24143 C 3939.12 -7.41196 -3.50753 0
M  V30 24144 O 3939.51 -7.27073 -4.86816 0
M  V30 24145 C 3940 -6.5273 -2.63741 0
M  V30 24146 C 3939.29 -5.1842 -2.73198 0
M  V30 24147 N 3939.34 -4.38762 -1.4784 0
M  V30 24148 H 3936.5 -8.36803 -2.32493 0
M  V30 24149 H 3936.23 -6.70197 -1.71129 0
M  V30 24150 H 3937.09 -7.03551 -4.13168 0
M  V30 24151 P 3941.06 -7.20834 -5.23717 0
M  V30 24152 O 3941.28 -7.79853 -6.57286 0
M  V30 24153 O 3941.85 -7.79239 -4.12957 0
M  V30 24154 O 3941.31 -5.63315 -5.29344 0
M  V30 24155 C 3940.37 -4.80255 -6.01876 0
M  V30 24156 C 3941.1 -3.64202 -6.65911 0
M  V30 24157 O 3941.31 -2.60694 -5.64732 0
M  V30 24158 C 3942.5 -3.93473 -7.1943 0
M  V30 24159 O 3942.89 -3.02071 -8.21205 0
M  V30 24160 C 3943.38 -3.73047 -5.97036 0
M  V30 24161 C 3942.67 -2.58828 -5.25741 0
M  V30 24162 N 3942.72 -2.68068 -3.77503 0
M  V30 24163 C 3942.64 -3.79715 -2.96723 0
M  V30 24164 N 3942.72 -3.5377 -1.68852 0
M  V30 24165 C 3942.86 -2.15054 -1.63254 0
M  V30 24166 C 3942.99 -1.28964 -0.518571 0
M  V30 24167 O 3943.01 -1.56826 0.679156 0
M  V30 24168 N 3943.11 0.0538097 -0.918425 0
M  V30 24169 C 3943.11 0.494275 -2.22578 0
M  V30 24170 N 3943.24 1.81086 -2.40434 0
M  V30 24171 N 3942.98 -0.313645 -3.27502 0
M  V30 24172 C 3942.86 -1.61829 -2.91033 0
M  V30 24173 H 3939.88 -5.40332 -6.79951 0
M  V30 24174 H 3939.61 -4.41613 -5.32378 0
M  V30 24175 H 3940.47 -3.26331 -7.47797 0
M  V30 24176 H 3943.13 -1.63422 -5.56814 0
M  V30 24177 H 3943.41 -4.63374 -5.34244 0
M  V30 24178 H 3944.4 -3.44728 -6.25838 0
M  V30 24179 H 3942.57 -4.96652 -7.57263 0
M  V30 24180 H 3942.52 -4.80617 -3.3614 0
M  V30 24181 H 3943.2 0.742702 -0.199384 0
M  V30 24182 H 3943.24 2.20598 -3.35588 0
M  V30 24183 H 3943.34 2.43518 -1.58945 0
M  V30 24184 P 3944.44 -2.75334 -8.47391 0
M  V30 24185 O 3944.66 -2.44619 -9.90336 0
M  V30 24186 O 3945.23 -3.87776 -7.92294 0
M  V30 24187 O 3944.69 -1.4459 -7.59357 0
M  V30 24188 C 3943.75 -0.347653 -7.69315 0
M  V30 24189 C 3944.48 0.96767 -7.52806 0
M  V30 24190 O 3944.69 1.21055 -6.10208 0
M  V30 24191 C 3945.88 1.04557 -8.13408 0
M  V30 24192 O 3946.27 2.38311 -8.41922 0
M  V30 24193 C 3946.76 0.491279 -7.02284 0
M  V30 24194 C 3946.05 0.996264 -5.77469 0
M  V30 24195 N 3946.1 0.0501916 -4.62973 0
M  V30 24196 C 3946.02 -1.31969 -4.65661 0
M  V30 24197 N 3946.09 -1.86649 -3.48119 0
M  V30 24198 C 3946.24 -0.792089 -2.62406 0
M  V30 24199 C 3946.37 -0.705684 -1.2207 0
M  V30 24200 N 3946.38 -1.76207 -0.413762 0
M  V30 24201 N 3946.49 0.518981 -0.685754 0
M  V30 24202 C 3946.48 1.57595 -1.49174 0
M  V30 24203 N 3946.36 1.62909 -2.80066 0
M  V30 24204 C 3946.24 0.388195 -3.3073 0
M  V30 24205 H 3943.26 -0.374765 -8.67791 0
M  V30 24206 H 3942.99 -0.443613 -6.90476 0
M  V30 24207 H 3943.85 1.75559 -7.96891 0
M  V30 24208 H 3946.51 1.94563 -5.46818 0
M  V30 24209 H 3946.79 -0.608651 -7.04676 0
M  V30 24210 H 3947.78 0.889796 -7.09039 0
M  V30 24211 H 3945.95 0.433128 -9.04664 0
M  V30 24212 H 3945.91 -1.89246 -5.57664 0
M  V30 24213 H 3946.29 -2.71005 -0.804694 0
M  V30 24214 H 3946.48 -1.63189 0.603768 0
M  V30 24215 H 3946.58 2.53475 -0.997614 0
M  V30 24216 P 3947.82 2.75334 -8.47391 0
M  V30 24217 O 3948.04 3.84204 -9.44982 0
M  V30 24218 O 3948.61 1.51982 -8.68909 0
M  V30 24219 O 3948.07 3.29363 -6.99321 0
M  V30 24220 C 3947.13 4.24066 -6.42823 0
M  V30 24221 C 3947.86 5.20775 -5.52155 0
M  V30 24222 O 3948.07 4.56607 -4.22514 0
M  V30 24223 C 3949.26 5.62697 -5.96604 0
M  V30 24224 O 3949.65 6.87667 -5.41053 0
M  V30 24225 C 3950.14 4.52537 -5.39283 0
M  V30 24226 C 3949.43 4.20027 -4.08623 0
M  V30 24227 N 3949.48 2.76189 -3.71603 0
M  V30 24228 C 3949.4 1.66944 -4.54297 0
M  V30 24229 N 3949.47 0.536169 -3.91344 0
M  V30 24230 C 3949.62 0.901569 -2.58849 0
M  V30 24231 C 3949.75 0.146599 -1.40236 0
M  V30 24232 N 3949.76 -1.18234 -1.37046 0
M  V30 24233 N 3949.87 0.822941 -0.249738 0
M  V30 24234 C 3949.86 2.15179 -0.280525 0
M  V30 24235 N 3949.74 2.96414 -1.30822 0
M  V30 24236 C 3949.62 2.25804 -2.44748 0
M  V30 24237 H 3946.64 4.79756 -7.24086 0
M  V30 24238 H 3946.37 3.69963 -5.84682 0
M  V30 24239 H 3947.23 6.10431 -5.41508 0
M  V30 24240 H 3949.89 4.78816 -3.28024 0
M  V30 24241 H 3950.17 3.64957 -6.05871 0
M  V30 24242 H 3951.16 4.88748 -5.21323 0
M  V30 24243 H 3949.33 5.66789 -7.0643 0
M  V30 24244 H 3949.29 1.74684 -5.62396 0
M  V30 24245 H 3949.67 -1.71949 -2.24394 0
M  V30 24246 H 3949.86 -1.67511 -0.470742 0
M  V30 24247 H 3949.96 2.63704 0.6828 0
M  V30 24248 P 3951.2 7.20834 -5.23717 0
M  V30 24249 O 3951.42 8.66189 -5.38625 0
M  V30 24250 O 3951.99 6.33615 -6.1356 0
M  V30 24251 O 3951.45 6.7751 -3.72168 0
M  V30 24252 C 3950.51 7.20825 -2.7076 0
M  V30 24253 C 3951.24 7.45864 -1.40599 0
M  V30 24254 O 3951.45 6.17651 -0.734225 0
M  V30 24255 C 3952.64 8.05808 -1.51899 0
M  V30 24256 O 3953.03 8.74358 -0.335205 0
M  V30 24257 C 3953.52 6.83093 -1.70294 0
M  V30 24258 C 3952.81 5.79992 -0.836974 0
M  V30 24259 N 3952.86 4.41769 -1.38263 0
M  V30 24260 C 3953.01 3.36514 -0.485617 0
M  V30 24261 O 3953.1 3.61814 0.724703 0
M  V30 24262 N 3953.06 2.00746 -1.14492 0
M  V30 24263 C 3952.96 1.85887 -2.27776 0
M  V30 24264 N 3953.01 0.600907 -2.69379 0
M  V30 24265 C 3952.81 2.92182 -3.22265 0
M  V30 24266 C 3952.76 4.18399 -2.71925 0
M  V30 24267 H 3950.02 8.1355 -3.03735 0
M  V30 24268 H 3949.75 6.42695 -2.55448 0
M  V30 24269 H 3950.61 8.12139 -0.792866 0
M  V30 24270 H 3953.27 5.80078 0.160615 0
M  V30 24271 H 3953.55 6.51379 -2.75643 0
M  V30 24272 H 3954.54 7.01734 -1.34462 0
M  V30 24273 H 3952.71 8.73674 -2.38337 0
M  V30 24274 H 3952.63 5.02669 -3.39718 0
M  V30 24275 H 3952.74 2.73001 -4.29239 0
M  V30 24276 H 3953.12 -0.162318 -2.01146 0
M  V30 24277 H 3952.93 0.387742 -3.69773 0
M  V30 24278 P 3954.58 8.91 -1.58212e-10 0
M  V30 24279 O 3954.8 10.1726 0.733694 0
M  V30 24280 O 3955.37 8.73148 -1.23936 0
M  V30 24281 O 3954.83 7.66872 0.971405 0
M  V30 24282 C 3953.89 7.42309 2.04641 0
M  V30 24283 C 3954.62 6.86059 3.24661 0
M  V30 24284 O 3954.83 5.42847 3.03646 0
M  V30 24285 C 3956.02 7.41196 3.50753 0
M  V30 24286 O 3956.41 7.27073 4.86816 0
M  V30 24287 C 3956.9 6.5273 2.63741 0
M  V30 24288 C 3956.19 5.1842 2.73198 0
M  V30 24289 N 3956.24 4.38762 1.4784 0
M  V30 24290 H 3953.4 8.36803 2.32493 0
M  V30 24291 H 3953.13 6.70197 1.71129 0
M  V30 24292 H 3953.99 7.03551 4.13168 0
M  V30 24293 P 3957.96 7.20834 5.23717 0
M  V30 24294 O 3958.18 7.7993 6.57351 0
M  V30 24295 O 3958.75 7.79328 4.13004 0
M  V30 24296 O 3958.21 5.63315 5.29344 0
M  V30 24297 C 3957.27 4.80193 6.01798 0
M  V30 24298 C 3958 3.64202 6.65911 0
M  V30 24299 O 3958.21 2.60694 5.64732 0
M  V30 24300 C 3959.4 3.93473 7.1943 0
M  V30 24301 O 3959.79 3.02071 8.21205 0
M  V30 24302 C 3960.28 3.73047 5.97036 0
M  V30 24303 C 3959.57 2.58828 5.25741 0
M  V30 24304 N 3959.62 2.6801 3.77422 0
M  V30 24305 C 3959.77 1.50443 3.07133 0
M  V30 24306 O 3959.86 0.419406 3.61576 0
M  V30 24307 N 3959.81 1.6403 1.69677 0
M  V30 24308 C 3959.72 2.81206 0.986255 0
M  V30 24309 O 3959.77 2.80892 -0.249754 0
M  V30 24310 C 3959.57 3.99158 1.80325 0
M  V30 24311 C 3959.46 5.29309 1.06921 0
M  V30 24312 C 3959.52 3.89779 3.1476 0
M  V30 24313 H 3956.78 5.40332 6.79951 0
M  V30 24314 H 3956.51 4.41549 5.32301 0
M  V30 24315 H 3957.37 3.26331 7.47797 0
M  V30 24316 H 3960.03 1.6395 5.56554 0
M  V30 24317 H 3960.31 4.63439 5.3432 0
M  V30 24318 H 3961.3 3.44728 6.25838 0
M  V30 24319 H 3959.47 4.96652 7.57263 0
M  V30 24320 H 3959.4 4.80159 3.74441 0
M  V30 24321 H 3960.43 5.81459 1.09608 0
M  V30 24322 H 3958.69 5.9187 1.54487 0
M  V30 24323 H 3959.18 5.10095 0.0220288 0
M  V30 24324 H 3959.91 0.798962 1.16664 0
M  V30 24325 P 3961.34 2.75334 8.47391 0
M  V30 24326 O 3961.56 2.44571 9.90142 0
M  V30 24327 O 3962.13 3.87688 7.92115 0
M  V30 24328 O 3961.59 1.4459 7.59357 0
M  V30 24329 C 3960.65 0.347608 7.69215 0
M  V30 24330 C 3961.38 -0.96767 7.52806 0
M  V30 24331 O 3961.59 -1.21036 6.1011 0
M  V30 24332 C 3962.78 -1.04544 8.13308 0
M  V30 24333 O 3963.17 -2.38311 8.41922 0
M  V30 24334 C 3963.66 -0.491279 7.02284 0
M  V30 24335 C 3962.95 -0.996264 5.77469 0
M  V30 24336 N 3963 -0.0501916 4.62973 0
M  V30 24337 H 3960.16 0.374722 8.67691 0
M  V30 24338 H 3959.89 0.443485 6.90277 0
M  V30 24339 H 3960.75 -1.75537 7.96793 0
M  V30 24340 P 3964.72 -2.75334 8.47391 0
M  V30 24341 O 3964.94 -3.84128 9.44797 0
M  V30 24342 O 3965.51 -1.51947 8.68712 0
M  V30 24343 O 3964.97 -3.29363 6.99321 0
M  V30 24344 C 3964.03 -4.24011 6.4274 0
M  V30 24345 C 3964.76 -5.20775 5.52155 0
M  V30 24346 O 3964.97 -4.56534 4.22446 0
M  V30 24347 C 3966.16 -5.62629 5.96531 0
M  V30 24348 O 3966.55 -6.87667 5.41053 0
M  V30 24349 C 3967.04 -4.52537 5.39283 0
M  V30 24350 C 3966.33 -4.20027 4.08623 0
M  V30 24351 N 3966.38 -2.76189 3.71603 0
M  V30 24352 H 3963.54 -4.797 7.24003 0
M  V30 24353 H 3963.27 -3.69856 5.84513 0
M  V30 24354 H 3964.13 -6.10356 5.41441 0
M  V30 24355 P 3968.1 -7.20834 5.23717 0
M  V30 24356 O 3968.32 -8.66274 5.38678 0
M  V30 24357 O 3968.89 -6.33687 6.13629 0
M  V30 24358 O 3968.35 -6.7751 3.72168 0
M  V30 24359 C 3967.41 -7.20919 2.70795 0
M  V30 24360 C 3968.14 -7.45864 1.40599 0
M  V30 24361 O 3968.35 -6.17751 0.734343 0
M  V30 24362 C 3969.54 -8.05906 1.51917 0
M  V30 24363 O 3969.93 -8.74358 0.335205 0
M  V30 24364 C 3970.42 -6.83093 1.70294 0
M  V30 24365 C 3969.71 -5.79992 0.836974 0
M  V30 24366 N 3969.76 -4.41864 1.38293 0
M  V30 24367 C 3969.68 -4.02089 2.69407 0
M  V30 24368 N 3969.75 -2.73403 2.85089 0
M  V30 24369 C 3969.9 -2.25086 1.5642 0
M  V30 24370 C 3970.03 -0.942887 1.04836 0
M  V30 24371 N 3970.04 0.150999 1.80369 0
M  V30 24372 N 3970.15 -0.812565 -0.28167 0
M  V30 24373 C 3970.14 -1.90572 -1.03784 0
M  V30 24374 N 3970.02 -3.167 -0.683905 0
M  V30 24375 C 3969.9 -3.26538 0.652815 0
M  V30 24376 H 3966.92 -8.13738 3.03804 0
M  V30 24377 H 3966.65 -6.42974 2.55559 0
M  V30 24378 H 3967.51 -8.12139 0.792866 0
M  V30 24379 H 3970.17 -5.80178 -0.160643 0
M  V30 24380 H 3970.45 -6.51379 2.75643 0
M  V30 24381 H 3971.44 -7.01832 1.3448 0
M  V30 24382 H 3969.61 -8.73771 2.38364 0
M  V30 24383 H 3969.57 -4.7189 3.52311 0
M  V30 24384 H 3969.95 0.0721434 2.82608 0
M  V30 24385 H 3970.14 1.0785 1.36544 0
M  V30 24386 H 3970.24 -1.73207 -2.10241 0
M  V30 24387 P 3971.48 -8.91 1.59321e-10 0
M  V30 24388 O 3971.7 -10.1726 -0.733694 0
M  V30 24389 O 3972.27 -8.73148 1.23936 0
M  V30 24390 O 3971.73 -7.66872 -0.971405 0
M  V30 24391 C 3970.79 -7.42309 -2.04641 0
M  V30 24392 C 3971.52 -6.86059 -3.24661 0
M  V30 24393 O 3971.73 -5.42847 -3.03646 0
M  V30 24394 C 3972.92 -7.41196 -3.50753 0
M  V30 24395 O 3973.31 -7.27073 -4.86816 0
M  V30 24396 C 3973.8 -6.5273 -2.63741 0
M  V30 24397 C 3973.09 -5.1842 -2.73198 0
M  V30 24398 N 3973.14 -4.38762 -1.4784 0
M  V30 24399 H 3970.3 -8.36803 -2.32493 0
M  V30 24400 H 3970.03 -6.70197 -1.71129 0
M  V30 24401 H 3970.89 -7.03551 -4.13168 0
M  V30 24402 P 3974.86 -7.20834 -5.23717 0
M  V30 24403 O 3975.08 -7.79853 -6.57286 0
M  V30 24404 O 3975.65 -7.79239 -4.12957 0
M  V30 24405 O 3975.11 -5.63315 -5.29344 0
M  V30 24406 C 3974.17 -4.80255 -6.01876 0
M  V30 24407 C 3974.9 -3.64202 -6.65911 0
M  V30 24408 O 3975.11 -2.60694 -5.64732 0
M  V30 24409 C 3976.3 -3.93473 -7.1943 0
M  V30 24410 O 3976.69 -3.02071 -8.21205 0
M  V30 24411 C 3977.18 -3.73047 -5.97036 0
M  V30 24412 C 3976.47 -2.58828 -5.25741 0
M  V30 24413 N 3976.52 -2.68068 -3.77503 0
M  V30 24414 H 3973.68 -5.40332 -6.79951 0
M  V30 24415 H 3973.41 -4.41613 -5.32378 0
M  V30 24416 H 3974.27 -3.26331 -7.47797 0
M  V30 24417 P 3978.24 -2.75334 -8.47391 0
M  V30 24418 O 3978.46 -2.44571 -9.90142 0
M  V30 24419 O 3979.03 -3.87688 -7.92115 0
M  V30 24420 O 3978.49 -1.4459 -7.59357 0
M  V30 24421 C 3977.55 -0.347608 -7.69215 0
M  V30 24422 C 3978.28 0.96767 -7.52806 0
M  V30 24423 O 3978.49 1.21036 -6.1011 0
M  V30 24424 C 3979.68 1.04544 -8.13308 0
M  V30 24425 O 3980.07 2.38311 -8.41922 0
M  V30 24426 C 3980.56 0.491279 -7.02284 0
M  V30 24427 C 3979.85 0.996264 -5.77469 0
M  V30 24428 N 3979.9 0.0501916 -4.62973 0
M  V30 24429 C 3979.82 -1.32786 -4.63244 0
M  V30 24430 N 3979.9 -1.86957 -3.44545 0
M  V30 24431 C 3980.04 -0.780241 -2.58481 0
M  V30 24432 C 3980.17 -0.738536 -1.17757 0
M  V30 24433 O 3980.19 -1.66794 -0.372349 0
M  V30 24434 N 3980.29 0.58337 -0.711393 0
M  V30 24435 C 3980.29 1.70816 -1.51017 0
M  V30 24436 N 3980.42 2.87826 -0.880757 0
M  V30 24437 N 3980.16 1.67126 -2.8339 0
M  V30 24438 C 3980.04 0.401421 -3.30572 0
M  V30 24439 H 3977.06 -0.374722 -8.67691 0
M  V30 24440 H 3976.79 -0.443485 -6.90277 0
M  V30 24441 H 3977.65 1.75537 -7.96793 0
M  V30 24442 H 3980.31 1.95076 -5.46529 0
M  V30 24443 H 3980.59 -0.608565 -7.04577 0
M  V30 24444 H 3981.58 0.889672 -7.08939 0
M  V30 24445 H 3979.75 0.43308 -9.04564 0
M  V30 24446 H 3979.7 -1.91249 -5.54442 0
M  V30 24447 H 3980.38 0.718054 0.275244 0
M  V30 24448 H 3980.42 3.75721 -1.41832 0
M  V30 24449 H 3980.52 2.90436 0.145468 0
M  V30 24450 P 3981.62 2.75334 -8.47391 0
M  V30 24451 O 3981.84 3.84128 -9.44797 0
M  V30 24452 O 3982.41 1.51947 -8.68712 0
M  V30 24453 O 3981.87 3.29363 -6.99321 0
M  V30 24454 C 3980.93 4.24011 -6.4274 0
M  V30 24455 C 3981.66 5.20775 -5.52155 0
M  V30 24456 O 3981.87 4.56534 -4.22446 0
M  V30 24457 C 3983.06 5.62629 -5.96531 0
M  V30 24458 O 3983.45 6.87667 -5.41053 0
M  V30 24459 C 3983.94 4.52537 -5.39283 0
M  V30 24460 C 3983.23 4.20027 -4.08623 0
M  V30 24461 N 3983.28 2.76189 -3.71603 0
M  V30 24462 H 3980.44 4.797 -7.24003 0
M  V30 24463 H 3980.17 3.69856 -5.84513 0
M  V30 24464 H 3981.03 6.10356 -5.41441 0
M  V30 24465 P 3985 7.20834 -5.23717 0
M  V30 24466 O 3985.22 8.66104 -5.38572 0
M  V30 24467 O 3985.79 6.33544 -6.1349 0
M  V30 24468 O 3985.25 6.7751 -3.72168 0
M  V30 24469 C 3984.31 7.20825 -2.7076 0
M  V30 24470 C 3985.04 7.45864 -1.40599 0
M  V30 24471 O 3985.25 6.17651 -0.734225 0
M  V30 24472 C 3986.44 8.05808 -1.51899 0
M  V30 24473 O 3986.83 8.74358 -0.335205 0
M  V30 24474 C 3987.32 6.83093 -1.70294 0
M  V30 24475 C 3986.61 5.79992 -0.836974 0
M  V30 24476 N 3986.66 4.41864 -1.38293 0
M  V30 24477 H 3983.82 8.13644 -3.0377 0
M  V30 24478 H 3983.55 6.42788 -2.55485 0
M  V30 24479 H 3984.41 8.12039 -0.792769 0
M  V30 24480 P 3988.38 8.91 -1.6043e-10 0
M  V30 24481 O 3988.6 10.1746 0.733838 0
M  V30 24482 O 3989.17 8.73346 -1.23964 0
M  V30 24483 O 3988.63 7.66872 0.971405 0
M  V30 24484 C 3987.69 7.42405 2.04668 0
M  V30 24485 C 3988.42 6.86059 3.24661 0
M  V30 24486 O 3988.63 5.42934 3.03695 0
M  V30 24487 C 3989.82 7.41287 3.50796 0
M  V30 24488 O 3990.21 7.27073 4.86816 0
M  V30 24489 C 3990.7 6.5273 2.63741 0
M  V30 24490 C 3989.99 5.1842 2.73198 0
M  V30 24491 N 3990.04 4.38762 1.4784 0
M  V30 24492 C 3989.96 4.83651 0.183876 0
M  V30 24493 N 3990.03 3.88759 -0.699393 0
M  V30 24494 C 3990.18 2.7404 0.0575568 0
M  V30 24495 C 3990.31 1.37902 -0.293928 0
M  V30 24496 N 3990.32 0.938021 -1.54797 0
M  V30 24497 N 3990.43 0.491817 0.70549 0
M  V30 24498 C 3990.42 0.931735 1.95979 0
M  V30 24499 N 3990.3 2.16017 2.41481 0
M  V30 24500 C 3990.18 3.02547 1.39121 0
M  V30 24501 H 3987.2 8.36899 2.3252 0
M  V30 24502 H 3986.93 6.70391 1.71179 0
M  V30 24503 H 3987.79 7.03638 4.13219 0
M  V30 24504 H 3990.45 4.59931 3.54016 0
M  V30 24505 H 3990.73 6.88995 1.59871 0
M  V30 24506 H 3991.72 6.4684 3.0373 0
M  V30 24507 H 3989.89 8.47002 3.20749 0
M  V30 24508 H 3989.85 5.8885 -0.0765548 0
M  V30 24509 H 3990.23 1.60276 -2.32875 0
M  V30 24510 H 3990.42 -0.0699355 -1.73859 0
M  V30 24511 H 3990.52 0.165507 2.71897 0
M  V30 24512 P 3991.76 7.20834 5.23717 0
M  V30 24513 O 3991.98 7.79853 6.57286 0
M  V30 24514 O 3992.55 7.79239 4.12957 0
M  V30 24515 O 3992.01 5.63315 5.29344 0
M  V30 24516 C 3991.07 4.80255 6.01876 0
M  V30 24517 C 3991.8 3.64202 6.65911 0
M  V30 24518 O 3992.01 2.60694 5.64732 0
M  V30 24519 C 3993.2 3.93473 7.1943 0
M  V30 24520 O 3993.59 3.02071 8.21205 0
M  V30 24521 C 3994.08 3.73047 5.97036 0
M  V30 24522 C 3993.37 2.58828 5.25741 0
M  V30 24523 N 3993.42 2.68068 3.77503 0
M  V30 24524 H 3990.58 5.40332 6.79951 0
M  V30 24525 H 3990.31 4.41613 5.32378 0
M  V30 24526 H 3991.17 3.26331 7.47797 0
M  V30 24527 P 3995.14 2.75334 8.47391 0
M  V30 24528 O 3995.36 2.44571 9.90142 0
M  V30 24529 O 3995.93 3.87688 7.92115 0
M  V30 24530 O 3995.39 1.4459 7.59357 0
M  V30 24531 C 3994.45 0.347608 7.69215 0
M  V30 24532 C 3995.18 -0.96767 7.52806 0
M  V30 24533 O 3995.39 -1.21036 6.1011 0
M  V30 24534 C 3996.58 -1.04544 8.13308 0
M  V30 24535 O 3996.97 -2.38311 8.41922 0
M  V30 24536 C 3997.46 -0.491279 7.02284 0
M  V30 24537 C 3996.75 -0.996264 5.77469 0
M  V30 24538 N 3996.8 -0.0501916 4.62973 0
M  V30 24539 H 3993.96 0.374722 8.67691 0
M  V30 24540 H 3993.69 0.443485 6.90277 0
M  V30 24541 H 3994.55 -1.75537 7.96793 0
M  V30 24542 P 3998.52 -2.75334 8.47391 0
M  V30 24543 O 3998.74 -3.84166 9.4489 0
M  V30 24544 O 3999.31 -1.51964 8.6881 0
M  V30 24545 O 3998.77 -3.29363 6.99321 0
M  V30 24546 C 3997.83 -4.23956 6.42656 0
M  V30 24547 C 3998.56 -5.20775 5.52155 0
M  V30 24548 O 3998.77 -4.56534 4.22446 0
M  V30 24549 C 3999.96 -5.62629 5.96531 0
M  V30 24550 O 4000.35 -6.87667 5.41053 0
M  V30 24551 C 4000.84 -4.52537 5.39283 0
M  V30 24552 C 4000.13 -4.20027 4.08623 0
M  V30 24553 N 4000.18 -2.7613 3.71522 0
M  V30 24554 C 4000.33 -2.45612 2.37989 0
M  V30 24555 O 4000.42 -3.30919 1.51621 0
M  V30 24556 N 4000.37 -1.10684 2.08435 0
M  V30 24557 C 4000.28 -0.0690084 2.9792 0
M  V30 24558 O 4000.33 1.10553 2.59426 0
M  V30 24559 C 4000.13 -0.481522 4.35345 0
M  V30 24560 C 4000.02 0.618778 5.36443 0
M  V30 24561 C 4000.08 -1.78906 4.67968 0
M  V30 24562 H 3997.34 -4.797 7.24003 0
M  V30 24563 H 3997.07 -3.69802 5.84429 0
M  V30 24564 H 3997.93 -6.10356 5.41441 0
M  V30 24565 H 4000.59 -4.78651 3.27911 0
M  V30 24566 H 4000.87 -3.64957 6.05871 0
M  V30 24567 H 4001.86 -4.8868 5.2125 0
M  V30 24568 H 4000.03 -5.66726 7.06352 0
M  V30 24569 H 3999.96 -2.07737 5.72367 0
M  V30 24570 H 4000.99 0.754375 5.86871 0
M  V30 24571 H 3999.25 0.359721 6.10641 0
M  V30 24572 H 3999.74 1.55533 4.8581 0
M  V30 24573 H 4000.47 -0.862651 1.12037 0
M  V30 24574 P 4001.9 -7.20834 5.23717 0
M  V30 24575 O 4002.12 -8.66104 5.38572 0
M  V30 24576 O 4002.69 -6.33544 6.1349 0
M  V30 24577 O 4002.15 -6.7751 3.72168 0
M  V30 24578 C 4001.21 -7.20825 2.7076 0
M  V30 24579 C 4001.94 -7.45864 1.40599 0
M  V30 24580 O 4002.15 -6.17651 0.734225 0
M  V30 24581 C 4003.34 -8.05808 1.51899 0
M  V30 24582 O 4003.73 -8.74358 0.335205 0
M  V30 24583 C 4004.22 -6.83093 1.70294 0
M  V30 24584 C 4003.51 -5.79992 0.836974 0
M  V30 24585 N 4003.56 -4.41864 1.38293 0
M  V30 24586 H 4000.72 -8.13644 3.0377 0
M  V30 24587 H 4000.45 -6.42788 2.55485 0
M  V30 24588 H 4001.31 -8.12039 0.792769 0
M  V30 24589 P 4005.28 -8.91 1.61539e-10 0
M  V30 24590 O 4005.5 -10.1726 -0.733694 0
M  V30 24591 O 4006.07 -8.73148 1.23936 0
M  V30 24592 O 4005.53 -7.66872 -0.971405 0
M  V30 24593 C 4004.59 -7.42309 -2.04641 0
M  V30 24594 C 4005.32 -6.86059 -3.24661 0
M  V30 24595 O 4005.53 -5.42847 -3.03646 0
M  V30 24596 C 4006.72 -7.41196 -3.50753 0
M  V30 24597 O 4007.11 -7.27073 -4.86816 0
M  V30 24598 C 4007.6 -6.5273 -2.63741 0
M  V30 24599 C 4006.89 -5.1842 -2.73198 0
M  V30 24600 N 4006.94 -4.38762 -1.4784 0
M  V30 24601 H 4004.1 -8.36803 -2.32493 0
M  V30 24602 H 4003.83 -6.70197 -1.71129 0
M  V30 24603 H 4004.69 -7.03551 -4.13168 0
M  V30 24604 P 4008.66 -7.20834 -5.23717 0
M  V30 24605 O 4008.88 -7.79853 -6.57286 0
M  V30 24606 O 4009.45 -7.79239 -4.12957 0
M  V30 24607 O 4008.91 -5.63315 -5.29344 0
M  V30 24608 C 4007.97 -4.80255 -6.01876 0
M  V30 24609 C 4008.7 -3.64202 -6.65911 0
M  V30 24610 O 4008.91 -2.60694 -5.64732 0
M  V30 24611 C 4010.1 -3.93473 -7.1943 0
M  V30 24612 O 4010.49 -3.02071 -8.21205 0
M  V30 24613 C 4010.98 -3.73047 -5.97036 0
M  V30 24614 C 4010.27 -2.58828 -5.25741 0
M  V30 24615 N 4010.32 -2.68068 -3.77503 0
M  V30 24616 H 4007.48 -5.40332 -6.79951 0
M  V30 24617 H 4007.21 -4.41613 -5.32378 0
M  V30 24618 H 4008.07 -3.26331 -7.47797 0
M  V30 24619 P 4012.04 -2.75334 -8.47391 0
M  V30 24620 O 4012.26 -2.44571 -9.90142 0
M  V30 24621 O 4012.83 -3.87688 -7.92115 0
M  V30 24622 O 4012.29 -1.4459 -7.59357 0
M  V30 24623 C 4011.35 -0.347608 -7.69215 0
M  V30 24624 C 4012.08 0.96767 -7.52806 0
M  V30 24625 O 4012.29 1.21036 -6.1011 0
M  V30 24626 C 4013.48 1.04544 -8.13308 0
M  V30 24627 O 4013.87 2.38311 -8.41922 0
M  V30 24628 C 4014.36 0.491279 -7.02284 0
M  V30 24629 C 4013.65 0.996264 -5.77469 0
M  V30 24630 N 4013.7 0.0501916 -4.62973 0
M  V30 24631 H 4010.86 -0.374722 -8.67691 0
M  V30 24632 H 4010.59 -0.443485 -6.90277 0
M  V30 24633 H 4011.45 1.75537 -7.96793 0
M  V30 24634 P 4015.42 2.75334 -8.47391 0
M  V30 24635 O 4015.64 3.84128 -9.44797 0
M  V30 24636 O 4016.21 1.51947 -8.68712 0
M  V30 24637 O 4015.67 3.29363 -6.99321 0
M  V30 24638 C 4014.73 4.24011 -6.4274 0
M  V30 24639 C 4015.46 5.20775 -5.52155 0
M  V30 24640 O 4015.67 4.56534 -4.22446 0
M  V30 24641 C 4016.86 5.62629 -5.96531 0
M  V30 24642 O 4017.25 6.87667 -5.41053 0
M  V30 24643 C 4017.74 4.52537 -5.39283 0
M  V30 24644 C 4017.03 4.20027 -4.08623 0
M  V30 24645 N 4017.08 2.76189 -3.71603 0
M  V30 24646 H 4014.24 4.797 -7.24003 0
M  V30 24647 H 4013.97 3.69856 -5.84513 0
M  V30 24648 H 4014.83 6.10356 -5.41441 0
M  V30 24649 P 4018.8 7.20834 -5.23717 0
M  V30 24650 O 4019.02 8.66104 -5.38572 0
M  V30 24651 O 4019.59 6.33544 -6.1349 0
M  V30 24652 O 4019.05 6.7751 -3.72168 0
M  V30 24653 C 4018.11 7.20825 -2.7076 0
M  V30 24654 C 4018.84 7.45864 -1.40599 0
M  V30 24655 O 4019.05 6.17651 -0.734225 0
M  V30 24656 C 4020.24 8.05808 -1.51899 0
M  V30 24657 O 4020.63 8.74358 -0.335205 0
M  V30 24658 C 4021.12 6.83093 -1.70294 0
M  V30 24659 C 4020.41 5.79992 -0.836974 0
M  V30 24660 N 4020.46 4.41864 -1.38293 0
M  V30 24661 C 4020.38 3.99538 -2.69438 0
M  V30 24662 N 4020.46 2.69909 -2.84277 0
M  V30 24663 C 4020.6 2.21719 -1.5408 0
M  V30 24664 C 4020.73 0.891712 -1.06628 0
M  V30 24665 N 4020.85 0.856846 0.334985 0
M  V30 24666 C 4020.85 1.9641 1.15789 0
M  V30 24667 N 4020.98 1.72708 2.46522 0
M  V30 24668 N 4020.72 3.21165 0.713741 0
M  V30 24669 C 4020.6 3.26797 -0.639748 0
M  V30 24670 H 4017.62 8.13644 -3.0377 0
M  V30 24671 H 4017.35 6.42788 -2.55485 0
M  V30 24672 H 4018.21 8.12039 -0.792769 0
M  V30 24673 P 4022.18 8.91 -1.62648e-10 0
M  V30 24674 O 4022.4 10.1726 0.733694 0
M  V30 24675 O 4022.97 8.73148 -1.23936 0
M  V30 24676 O 4022.43 7.66872 0.971405 0
M  V30 24677 C 4021.49 7.42309 2.04641 0
M  V30 24678 C 4022.22 6.86059 3.24661 0
M  V30 24679 O 4022.43 5.42847 3.03646 0
M  V30 24680 C 4023.62 7.41196 3.50753 0
M  V30 24681 O 4024.01 7.27073 4.86816 0
M  V30 24682 C 4024.5 6.5273 2.63741 0
M  V30 24683 C 4023.79 5.1842 2.73198 0
M  V30 24684 N 4023.84 4.38762 1.4784 0
M  V30 24685 H 4021 8.36803 2.32493 0
M  V30 24686 H 4020.73 6.70197 1.71129 0
M  V30 24687 H 4021.59 7.03551 4.13168 0
M  V30 24688 P 4025.56 7.20834 5.23717 0
M  V30 24689 O 4025.78 7.79853 6.57286 0
M  V30 24690 O 4026.35 7.79239 4.12957 0
M  V30 24691 O 4025.81 5.63315 5.29344 0
M  V30 24692 C 4024.87 4.80255 6.01876 0
M  V30 24693 C 4025.6 3.64202 6.65911 0
M  V30 24694 O 4025.81 2.60694 5.64732 0
M  V30 24695 C 4027 3.93473 7.1943 0
M  V30 24696 O 4027.39 3.02071 8.21205 0
M  V30 24697 C 4027.88 3.73047 5.97036 0
M  V30 24698 C 4027.17 2.58828 5.25741 0
M  V30 24699 N 4027.22 2.68068 3.77503 0
M  V30 24700 H 4024.38 5.40332 6.79951 0
M  V30 24701 H 4024.11 4.41613 5.32378 0
M  V30 24702 H 4024.97 3.26331 7.47797 0
M  V30 24703 P 4028.94 2.75334 8.47391 0
M  V30 24704 O 4029.16 2.44571 9.90142 0
M  V30 24705 O 4029.73 3.87688 7.92115 0
M  V30 24706 O 4029.19 1.4459 7.59357 0
M  V30 24707 C 4028.25 0.347608 7.69215 0
M  V30 24708 C 4028.98 -0.96767 7.52806 0
M  V30 24709 O 4029.19 -1.21036 6.1011 0
M  V30 24710 C 4030.38 -1.04544 8.13308 0
M  V30 24711 O 4030.77 -2.38311 8.41922 0
M  V30 24712 C 4031.26 -0.491279 7.02284 0
M  V30 24713 C 4030.55 -0.996264 5.77469 0
M  V30 24714 N 4030.6 -0.0501916 4.62973 0
M  V30 24715 H 4027.76 0.374722 8.67691 0
M  V30 24716 H 4027.49 0.443485 6.90277 0
M  V30 24717 H 4028.35 -1.75537 7.96793 0
M  V30 24718 P 4032.32 -2.75334 8.47391 0
M  V30 24719 O 4032.54 -3.84128 9.44797 0
M  V30 24720 O 4033.11 -1.51947 8.68712 0
M  V30 24721 O 4032.57 -3.29363 6.99321 0
M  V30 24722 C 4031.63 -4.24011 6.4274 0
M  V30 24723 C 4032.36 -5.20775 5.52155 0
M  V30 24724 O 4032.57 -4.56534 4.22446 0
M  V30 24725 C 4033.76 -5.62629 5.96531 0
M  V30 24726 O 4034.15 -6.87667 5.41053 0
M  V30 24727 C 4034.64 -4.52537 5.39283 0
M  V30 24728 C 4033.93 -4.20027 4.08623 0
M  V30 24729 N 4033.98 -2.76189 3.71603 0
M  V30 24730 H 4031.14 -4.797 7.24003 0
M  V30 24731 H 4030.87 -3.69856 5.84513 0
M  V30 24732 H 4031.73 -6.10356 5.41441 0
M  V30 24733 P 4035.7 -7.20834 5.23717 0
M  V30 24734 O 4035.92 -8.66104 5.38572 0
M  V30 24735 O 4036.49 -6.33544 6.1349 0
M  V30 24736 O 4035.95 -6.7751 3.72168 0
M  V30 24737 C 4035.01 -7.20825 2.7076 0
M  V30 24738 C 4035.74 -7.45864 1.40599 0
M  V30 24739 O 4035.95 -6.17651 0.734225 0
M  V30 24740 C 4037.14 -8.05808 1.51899 0
M  V30 24741 O 4037.53 -8.74358 0.335205 0
M  V30 24742 C 4038.02 -6.83093 1.70294 0
M  V30 24743 C 4037.31 -5.79992 0.836974 0
M  V30 24744 N 4037.36 -4.41864 1.38293 0
M  V30 24745 H 4034.52 -8.13644 3.0377 0
M  V30 24746 H 4034.25 -6.42788 2.55485 0
M  V30 24747 H 4035.11 -8.12039 0.792769 0
M  V30 24748 P 4039.08 -8.91 1.63757e-10 0
M  V30 24749 O 4039.3 -10.1746 -0.733838 0
M  V30 24750 O 4039.87 -8.73346 1.23964 0
M  V30 24751 O 4039.33 -7.66872 -0.971405 0
M  V30 24752 C 4038.39 -7.42405 -2.04668 0
M  V30 24753 C 4039.12 -6.86059 -3.24661 0
M  V30 24754 O 4039.33 -5.42934 -3.03695 0
M  V30 24755 C 4040.52 -7.41287 -3.50796 0
M  V30 24756 O 4040.91 -7.27073 -4.86816 0
M  V30 24757 C 4041.4 -6.5273 -2.63741 0
M  V30 24758 C 4040.69 -5.1842 -2.73198 0
M  V30 24759 N 4040.74 -4.38762 -1.4784 0
M  V30 24760 H 4037.9 -8.36899 -2.3252 0
M  V30 24761 H 4037.63 -6.70391 -1.71179 0
M  V30 24762 H 4038.49 -7.03638 -4.13219 0
M  V30 24763 H 4041.15 -4.59931 -3.54016 0
M  V30 24764 H 4041.43 -6.88995 -1.59871 0
M  V30 24765 H 4042.42 -6.4684 -3.0373 0
M  V30 24766 H 4040.59 -8.47002 -3.20749 0
M  V30 24767 P 4042.46 -7.20834 -5.23717 0
M  V30 24768 O 4042.68 -7.80006 -6.57415 0
M  V30 24769 O 4043.25 -7.79416 -4.13051 0
M  V30 24770 O 4042.71 -5.63315 -5.29344 0
M  V30 24771 C 4041.77 -4.80318 -6.01954 0
M  V30 24772 C 4042.5 -3.64202 -6.65911 0
M  V30 24773 O 4042.71 -2.60736 -5.64823 0
M  V30 24774 C 4043.9 -3.93521 -7.19518 0
M  V30 24775 O 4044.29 -3.02071 -8.21205 0
M  V30 24776 C 4044.78 -3.73047 -5.97036 0
M  V30 24777 C 4044.07 -2.58828 -5.25741 0
M  V30 24778 N 4044.12 -2.68068 -3.77503 0
M  V30 24779 H 4041.28 -5.40394 -6.8003 0
M  V30 24780 H 4041.01 -4.41741 -5.32532 0
M  V30 24781 H 4041.87 -3.26371 -7.47889 0
M  V30 24782 H 4044.53 -1.64007 -5.56746 0
M  V30 24783 H 4044.81 -4.63439 -5.3432 0
M  V30 24784 H 4045.8 -3.44776 -6.25925 0
M  V30 24785 H 4043.97 -4.96707 -7.57347 0
M  V30 24786 P 4045.84 -2.75334 -8.47391 0
M  V30 24787 O 4046.06 -2.44571 -9.90142 0
M  V30 24788 O 4046.63 -3.87688 -7.92115 0
M  V30 24789 O 4046.09 -1.4459 -7.59357 0
M  V30 24790 C 4045.15 -0.347608 -7.69215 0
M  V30 24791 C 4045.88 0.96767 -7.52806 0
M  V30 24792 O 4046.09 1.21036 -6.1011 0
M  V30 24793 C 4047.28 1.04544 -8.13308 0
M  V30 24794 O 4047.67 2.38311 -8.41922 0
M  V30 24795 C 4048.16 0.491279 -7.02284 0
M  V30 24796 C 4047.45 0.996264 -5.77469 0
M  V30 24797 N 4047.5 0.0501916 -4.62973 0
M  V30 24798 H 4044.66 -0.374722 -8.67691 0
M  V30 24799 H 4044.39 -0.443485 -6.90277 0
M  V30 24800 H 4045.25 1.75537 -7.96793 0
M  V30 24801 P 4049.22 2.75334 -8.47391 0
M  V30 24802 O 4049.44 3.84128 -9.44797 0
M  V30 24803 O 4050.01 1.51947 -8.68712 0
M  V30 24804 O 4049.47 3.29363 -6.99321 0
M  V30 24805 C 4048.53 4.24011 -6.4274 0
M  V30 24806 C 4049.26 5.20775 -5.52155 0
M  V30 24807 O 4049.47 4.56534 -4.22446 0
M  V30 24808 C 4050.66 5.62629 -5.96531 0
M  V30 24809 O 4051.05 6.87667 -5.41053 0
M  V30 24810 C 4051.54 4.52537 -5.39283 0
M  V30 24811 C 4050.83 4.20027 -4.08623 0
M  V30 24812 N 4050.88 2.76189 -3.71603 0
M  V30 24813 H 4048.04 4.797 -7.24003 0
M  V30 24814 H 4047.77 3.69856 -5.84513 0
M  V30 24815 H 4048.63 6.10356 -5.41441 0
M  V30 24816 P 4052.6 7.20834 -5.23717 0
M  V30 24817 O 4052.82 8.66104 -5.38572 0
M  V30 24818 O 4053.39 6.33544 -6.1349 0
M  V30 24819 O 4052.85 6.7751 -3.72168 0
M  V30 24820 C 4051.91 7.20825 -2.7076 0
M  V30 24821 C 4052.64 7.45864 -1.40599 0
M  V30 24822 O 4052.85 6.17651 -0.734225 0
M  V30 24823 C 4054.04 8.05808 -1.51899 0
M  V30 24824 O 4054.43 8.74358 -0.335205 0
M  V30 24825 C 4054.92 6.83093 -1.70294 0
M  V30 24826 C 4054.21 5.79992 -0.836974 0
M  V30 24827 N 4054.26 4.41864 -1.38293 0
M  V30 24828 H 4051.42 8.13644 -3.0377 0
M  V30 24829 H 4051.15 6.42788 -2.55485 0
M  V30 24830 H 4052.01 8.12039 -0.792769 0
M  V30 24831 P 4055.98 8.91 -1.64866e-10 0
M  V30 24832 O 4056.2 10.1726 0.733694 0
M  V30 24833 O 4056.77 8.73148 -1.23936 0
M  V30 24834 O 4056.23 7.66872 0.971405 0
M  V30 24835 C 4055.29 7.42309 2.04641 0
M  V30 24836 C 4056.02 6.86059 3.24661 0
M  V30 24837 O 4056.23 5.42847 3.03646 0
M  V30 24838 C 4057.42 7.41196 3.50753 0
M  V30 24839 O 4057.81 7.27073 4.86816 0
M  V30 24840 C 4058.3 6.5273 2.63741 0
M  V30 24841 C 4057.59 5.1842 2.73198 0
M  V30 24842 N 4057.64 4.38762 1.4784 0
M  V30 24843 H 4054.8 8.36803 2.32493 0
M  V30 24844 H 4054.53 6.70197 1.71129 0
M  V30 24845 H 4055.39 7.03551 4.13168 0
M  V30 24846 P 4059.36 7.20834 5.23717 0
M  V30 24847 O 4059.58 7.79853 6.57286 0
M  V30 24848 O 4060.15 7.79239 4.12957 0
M  V30 24849 O 4059.61 5.63315 5.29344 0
M  V30 24850 C 4058.67 4.80255 6.01876 0
M  V30 24851 C 4059.4 3.64202 6.65911 0
M  V30 24852 O 4059.61 2.60694 5.64732 0
M  V30 24853 C 4060.8 3.93473 7.1943 0
M  V30 24854 O 4061.19 3.02071 8.21205 0
M  V30 24855 C 4061.68 3.73047 5.97036 0
M  V30 24856 C 4060.97 2.58828 5.25741 0
M  V30 24857 N 4061.02 2.68068 3.77503 0
M  V30 24858 H 4058.18 5.40332 6.79951 0
M  V30 24859 H 4057.91 4.41613 5.32378 0
M  V30 24860 H 4058.77 3.26331 7.47797 0
M  V30 24861 P 4062.74 2.75334 8.47391 0
M  V30 24862 O 4062.96 2.44619 9.90336 0
M  V30 24863 O 4063.53 3.87776 7.92294 0
M  V30 24864 O 4062.99 1.4459 7.59357 0
M  V30 24865 C 4062.05 0.347653 7.69315 0
M  V30 24866 C 4062.78 -0.96767 7.52806 0
M  V30 24867 O 4062.99 -1.21055 6.10208 0
M  V30 24868 C 4064.18 -1.04557 8.13408 0
M  V30 24869 O 4064.57 -2.38311 8.41922 0
M  V30 24870 C 4065.06 -0.491279 7.02284 0
M  V30 24871 C 4064.35 -0.996264 5.77469 0
M  V30 24872 N 4064.4 -0.0501916 4.62973 0
M  V30 24873 C 4064.32 1.31969 4.65661 0
M  V30 24874 N 4064.39 1.86649 3.48119 0
M  V30 24875 C 4064.54 0.792089 2.62406 0
M  V30 24876 C 4064.67 0.705684 1.2207 0
M  V30 24877 N 4064.68 1.76207 0.413762 0
M  V30 24878 N 4064.79 -0.518981 0.685754 0
M  V30 24879 C 4064.78 -1.57595 1.49174 0
M  V30 24880 N 4064.66 -1.62909 2.80066 0
M  V30 24881 C 4064.54 -0.388195 3.3073 0
M  V30 24882 H 4061.56 0.374765 8.67791 0
M  V30 24883 H 4061.29 0.443613 6.90476 0
M  V30 24884 H 4062.15 -1.75559 7.96891 0
M  V30 24885 H 4064.81 -1.94563 5.46818 0
M  V30 24886 H 4065.09 0.608651 7.04676 0
M  V30 24887 H 4066.08 -0.889796 7.09039 0
M  V30 24888 H 4064.25 -0.433128 9.04664 0
M  V30 24889 H 4064.2 1.89246 5.57664 0
M  V30 24890 H 4064.59 2.71005 0.804694 0
M  V30 24891 H 4064.77 1.63189 -0.603768 0
M  V30 24892 H 4064.88 -2.53475 0.997614 0
M  V30 24893 P 4066.12 -2.75334 8.47391 0
M  V30 24894 O 4066.34 -3.84204 9.44982 0
M  V30 24895 O 4066.91 -1.51982 8.68909 0
M  V30 24896 O 4066.37 -3.29363 6.99321 0
M  V30 24897 C 4065.43 -4.24066 6.42823 0
M  V30 24898 C 4066.16 -5.20775 5.52155 0
M  V30 24899 O 4066.37 -4.56607 4.22514 0
M  V30 24900 C 4067.56 -5.62697 5.96604 0
M  V30 24901 O 4067.95 -6.87667 5.41053 0
M  V30 24902 C 4068.44 -4.52537 5.39283 0
M  V30 24903 C 4067.73 -4.20027 4.08623 0
M  V30 24904 N 4067.78 -2.76189 3.71603 0
M  V30 24905 C 4067.7 -1.66944 4.54297 0
M  V30 24906 N 4067.77 -0.536169 3.91344 0
M  V30 24907 C 4067.92 -0.901569 2.58849 0
M  V30 24908 C 4068.05 -0.146599 1.40236 0
M  V30 24909 N 4068.06 1.18234 1.37046 0
M  V30 24910 N 4068.17 -0.822941 0.249738 0
M  V30 24911 C 4068.16 -2.15179 0.280525 0
M  V30 24912 N 4068.04 -2.96414 1.30822 0
M  V30 24913 C 4067.92 -2.25804 2.44748 0
M  V30 24914 H 4064.94 -4.79756 7.24086 0
M  V30 24915 H 4064.67 -3.69963 5.84682 0
M  V30 24916 H 4065.53 -6.10431 5.41508 0
M  V30 24917 H 4068.19 -4.78816 3.28024 0
M  V30 24918 H 4068.47 -3.64957 6.05871 0
M  V30 24919 H 4069.46 -4.88748 5.21323 0
M  V30 24920 H 4067.63 -5.66789 7.0643 0
M  V30 24921 H 4067.58 -1.74684 5.62396 0
M  V30 24922 H 4067.97 1.71949 2.24394 0
M  V30 24923 H 4068.15 1.67511 0.470742 0
M  V30 24924 H 4068.26 -2.63704 -0.6828 0
M  V30 24925 P 4069.5 -7.20834 5.23717 0
M  V30 24926 O 4069.72 -8.66104 5.38572 0
M  V30 24927 O 4070.29 -6.33544 6.1349 0
M  V30 24928 O 4069.75 -6.7751 3.72168 0
M  V30 24929 C 4068.81 -7.20825 2.7076 0
M  V30 24930 C 4069.54 -7.45864 1.40599 0
M  V30 24931 O 4069.75 -6.17651 0.734225 0
M  V30 24932 C 4070.94 -8.05808 1.51899 0
M  V30 24933 O 4071.33 -8.74358 0.335205 0
M  V30 24934 C 4071.82 -6.83093 1.70294 0
M  V30 24935 C 4071.11 -5.79992 0.836974 0
M  V30 24936 N 4071.16 -4.41864 1.38293 0
M  V30 24937 C 4071.08 -3.99538 2.69438 0
M  V30 24938 N 4071.16 -2.69909 2.84277 0
M  V30 24939 C 4071.3 -2.21719 1.5408 0
M  V30 24940 C 4071.43 -0.891712 1.06628 0
M  V30 24941 N 4071.55 -0.856846 -0.334985 0
M  V30 24942 C 4071.55 -1.9641 -1.15789 0
M  V30 24943 N 4071.68 -1.72708 -2.46522 0
M  V30 24944 N 4071.42 -3.21165 -0.713741 0
M  V30 24945 C 4071.3 -3.26797 0.639748 0
M  V30 24946 H 4068.32 -8.13644 3.0377 0
M  V30 24947 H 4068.05 -6.42788 2.55485 0
M  V30 24948 H 4068.91 -8.12039 0.792769 0
M  V30 24949 P 4072.88 -8.91 1.65975e-10 0
M  V30 24950 O 4073.1 -10.1726 -0.733694 0
M  V30 24951 O 4073.67 -8.73148 1.23936 0
M  V30 24952 O 4073.13 -7.66872 -0.971405 0
M  V30 24953 C 4072.19 -7.42309 -2.04641 0
M  V30 24954 C 4072.92 -6.86059 -3.24661 0
M  V30 24955 O 4073.13 -5.42847 -3.03646 0
M  V30 24956 C 4074.32 -7.41196 -3.50753 0
M  V30 24957 O 4074.71 -7.27073 -4.86816 0
M  V30 24958 C 4075.2 -6.5273 -2.63741 0
M  V30 24959 C 4074.49 -5.1842 -2.73198 0
M  V30 24960 N 4074.54 -4.38762 -1.4784 0
M  V30 24961 H 4071.7 -8.36803 -2.32493 0
M  V30 24962 H 4071.43 -6.70197 -1.71129 0
M  V30 24963 H 4072.29 -7.03551 -4.13168 0
M  V30 24964 P 4076.26 -7.20834 -5.23717 0
M  V30 24965 O 4076.48 -7.79853 -6.57286 0
M  V30 24966 O 4077.05 -7.79239 -4.12957 0
M  V30 24967 O 4076.51 -5.63315 -5.29344 0
M  V30 24968 C 4075.57 -4.80255 -6.01876 0
M  V30 24969 C 4076.3 -3.64202 -6.65911 0
M  V30 24970 O 4076.51 -2.60694 -5.64732 0
M  V30 24971 C 4077.7 -3.93473 -7.1943 0
M  V30 24972 O 4078.09 -3.02071 -8.21205 0
M  V30 24973 C 4078.58 -3.73047 -5.97036 0
M  V30 24974 C 4077.87 -2.58828 -5.25741 0
M  V30 24975 N 4077.92 -2.68068 -3.77503 0
M  V30 24976 C 4077.84 -3.79715 -2.96723 0
M  V30 24977 N 4077.92 -3.5377 -1.68852 0
M  V30 24978 C 4078.06 -2.15054 -1.63254 0
M  V30 24979 C 4078.19 -1.28964 -0.518571 0
M  V30 24980 N 4078.31 0.0538097 -0.918425 0
M  V30 24981 C 4078.31 0.494275 -2.22578 0
M  V30 24982 N 4078.44 1.81086 -2.40434 0
M  V30 24983 N 4078.18 -0.313645 -3.27502 0
M  V30 24984 C 4078.06 -1.61829 -2.91033 0
M  V30 24985 H 4075.08 -5.40332 -6.79951 0
M  V30 24986 H 4074.81 -4.41613 -5.32378 0
M  V30 24987 H 4075.67 -3.26331 -7.47797 0
M  V30 24988 P 4079.64 -2.75334 -8.47391 0
M  V30 24989 O 4079.86 -2.44619 -9.90336 0
M  V30 24990 O 4080.43 -3.87776 -7.92294 0
M  V30 24991 O 4079.89 -1.4459 -7.59357 0
M  V30 24992 C 4078.95 -0.347653 -7.69315 0
M  V30 24993 C 4079.68 0.96767 -7.52806 0
M  V30 24994 O 4079.89 1.21055 -6.10208 0
M  V30 24995 C 4081.08 1.04557 -8.13408 0
M  V30 24996 O 4081.47 2.38311 -8.41922 0
M  V30 24997 C 4081.96 0.491279 -7.02284 0
M  V30 24998 C 4081.25 0.996264 -5.77469 0
M  V30 24999 N 4081.3 0.0501916 -4.62973 0
M  V30 25000 C 4081.22 -1.31969 -4.65661 0
M  V30 25001 N 4081.29 -1.86649 -3.48119 0
M  V30 25002 C 4081.44 -0.792089 -2.62406 0
M  V30 25003 C 4081.57 -0.705684 -1.2207 0
M  V30 25004 N 4081.58 -1.76207 -0.413762 0
M  V30 25005 N 4081.69 0.518981 -0.685754 0
M  V30 25006 C 4081.68 1.57595 -1.49174 0
M  V30 25007 N 4081.56 1.62909 -2.80066 0
M  V30 25008 C 4081.44 0.388195 -3.3073 0
M  V30 25009 H 4078.46 -0.374765 -8.67791 0
M  V30 25010 H 4078.19 -0.443613 -6.90476 0
M  V30 25011 H 4079.05 1.75559 -7.96891 0
M  V30 25012 H 4081.71 1.94563 -5.46818 0
M  V30 25013 H 4081.99 -0.608651 -7.04676 0
M  V30 25014 H 4082.98 0.889796 -7.09039 0
M  V30 25015 H 4081.15 0.433128 -9.04664 0
M  V30 25016 H 4081.1 -1.89246 -5.57664 0
M  V30 25017 H 4081.49 -2.71005 -0.804694 0
M  V30 25018 H 4081.67 -1.63189 0.603768 0
M  V30 25019 H 4081.78 2.53475 -0.997614 0
M  V30 25020 P 4083.02 2.75334 -8.47391 0
M  V30 25021 O 4083.24 3.84204 -9.44982 0
M  V30 25022 O 4083.81 1.51982 -8.68909 0
M  V30 25023 O 4083.27 3.29363 -6.99321 0
M  V30 25024 C 4082.33 4.24066 -6.42823 0
M  V30 25025 C 4083.06 5.20775 -5.52155 0
M  V30 25026 O 4083.27 4.56607 -4.22514 0
M  V30 25027 C 4084.46 5.62697 -5.96604 0
M  V30 25028 O 4084.85 6.87667 -5.41053 0
M  V30 25029 C 4085.34 4.52537 -5.39283 0
M  V30 25030 C 4084.63 4.20027 -4.08623 0
M  V30 25031 N 4084.68 2.76189 -3.71603 0
M  V30 25032 C 4084.6 1.66944 -4.54297 0
M  V30 25033 N 4084.67 0.536169 -3.91344 0
M  V30 25034 C 4084.82 0.901569 -2.58849 0
M  V30 25035 C 4084.95 0.146599 -1.40236 0
M  V30 25036 N 4084.96 -1.18234 -1.37046 0
M  V30 25037 N 4085.07 0.822941 -0.249738 0
M  V30 25038 C 4085.06 2.15179 -0.280525 0
M  V30 25039 N 4084.94 2.96414 -1.30822 0
M  V30 25040 C 4084.82 2.25804 -2.44748 0
M  V30 25041 H 4081.84 4.79756 -7.24086 0
M  V30 25042 H 4081.57 3.69963 -5.84682 0
M  V30 25043 H 4082.43 6.10431 -5.41508 0
M  V30 25044 H 4085.09 4.78816 -3.28024 0
M  V30 25045 H 4085.37 3.64957 -6.05871 0
M  V30 25046 H 4086.36 4.88748 -5.21323 0
M  V30 25047 H 4084.53 5.66789 -7.0643 0
M  V30 25048 H 4084.48 1.74684 -5.62396 0
M  V30 25049 H 4084.87 -1.71949 -2.24394 0
M  V30 25050 H 4085.05 -1.67511 -0.470742 0
M  V30 25051 H 4085.16 2.63704 0.6828 0
M  V30 25052 P 4086.4 7.20834 -5.23717 0
M  V30 25053 O 4086.62 8.66104 -5.38572 0
M  V30 25054 O 4087.19 6.33544 -6.1349 0
M  V30 25055 O 4086.65 6.7751 -3.72168 0
M  V30 25056 C 4085.71 7.20825 -2.7076 0
M  V30 25057 C 4086.44 7.45864 -1.40599 0
M  V30 25058 O 4086.65 6.17651 -0.734225 0
M  V30 25059 C 4087.84 8.05808 -1.51899 0
M  V30 25060 O 4088.23 8.74358 -0.335205 0
M  V30 25061 C 4088.72 6.83093 -1.70294 0
M  V30 25062 C 4088.01 5.79992 -0.836974 0
M  V30 25063 N 4088.06 4.41864 -1.38293 0
M  V30 25064 C 4087.98 3.99538 -2.69438 0
M  V30 25065 N 4088.06 2.69909 -2.84277 0
M  V30 25066 C 4088.2 2.21719 -1.5408 0
M  V30 25067 C 4088.33 0.891712 -1.06628 0
M  V30 25068 O 4088.35 -0.161298 -1.70137 0
M  V30 25069 N 4088.45 0.856846 0.334985 0
M  V30 25070 C 4088.45 1.9641 1.15789 0
M  V30 25071 N 4088.58 1.72708 2.46522 0
M  V30 25072 N 4088.32 3.21165 0.713741 0
M  V30 25073 C 4088.2 3.26797 -0.639748 0
M  V30 25074 H 4085.22 8.13644 -3.0377 0
M  V30 25075 H 4084.95 6.42788 -2.55485 0
M  V30 25076 H 4085.81 8.12039 -0.792769 0
M  V30 25077 H 4088.47 5.80061 0.166416 0
M  V30 25078 H 4088.75 6.51287 -2.75604 0
M  V30 25079 H 4089.74 7.01734 -1.34462 0
M  V30 25080 H 4087.91 8.73674 -2.38337 0
M  V30 25081 H 4087.86 4.68207 -3.53221 0
M  V30 25082 H 4088.54 -0.0398818 0.767965 0
M  V30 25083 H 4088.58 2.50995 3.13503 0
M  V30 25084 H 4088.68 0.759148 2.80716 0
M  V30 25085 P 4089.78 8.91 -1.67084e-10 0
M  V30 25086 O 4090 10.1726 0.733694 0
M  V30 25087 O 4090.57 8.73148 -1.23936 0
M  V30 25088 O 4090.03 7.66872 0.971405 0
M  V30 25089 C 4089.09 7.42309 2.04641 0
M  V30 25090 C 4089.82 6.86059 3.24661 0
M  V30 25091 O 4090.03 5.42847 3.03646 0
M  V30 25092 C 4091.22 7.41196 3.50753 0
M  V30 25093 O 4091.61 7.27073 4.86816 0
M  V30 25094 C 4092.1 6.5273 2.63741 0
M  V30 25095 C 4091.39 5.1842 2.73198 0
M  V30 25096 N 4091.44 4.38762 1.4784 0
M  V30 25097 H 4088.6 8.36803 2.32493 0
M  V30 25098 H 4088.33 6.70197 1.71129 0
M  V30 25099 H 4089.19 7.03551 4.13168 0
M  V30 25100 P 4093.16 7.20834 5.23717 0
M  V30 25101 O 4093.38 7.79853 6.57286 0
M  V30 25102 O 4093.95 7.79239 4.12957 0
M  V30 25103 O 4093.41 5.63315 5.29344 0
M  V30 25104 C 4092.47 4.80255 6.01876 0
M  V30 25105 C 4093.2 3.64202 6.65911 0
M  V30 25106 O 4093.41 2.60694 5.64732 0
M  V30 25107 C 4094.6 3.93473 7.1943 0
M  V30 25108 O 4094.99 3.02071 8.21205 0
M  V30 25109 C 4095.48 3.73047 5.97036 0
M  V30 25110 C 4094.77 2.58828 5.25741 0
M  V30 25111 N 4094.82 2.68068 3.77503 0
M  V30 25112 C 4094.74 3.79715 2.96723 0
M  V30 25113 N 4094.82 3.5377 1.68852 0
M  V30 25114 C 4094.96 2.15054 1.63254 0
M  V30 25115 C 4095.09 1.28964 0.518571 0
M  V30 25116 O 4095.11 1.56826 -0.679156 0
M  V30 25117 N 4095.21 -0.0538097 0.918425 0
M  V30 25118 C 4095.21 -0.494275 2.22578 0
M  V30 25119 N 4095.34 -1.81086 2.40434 0
M  V30 25120 N 4095.08 0.313645 3.27502 0
M  V30 25121 C 4094.96 1.61829 2.91033 0
M  V30 25122 H 4091.98 5.40332 6.79951 0
M  V30 25123 H 4091.71 4.41613 5.32378 0
M  V30 25124 H 4092.57 3.26331 7.47797 0
M  V30 25125 H 4095.23 1.63422 5.56814 0
M  V30 25126 H 4095.51 4.63374 5.34244 0
M  V30 25127 H 4096.5 3.44728 6.25838 0
M  V30 25128 H 4094.67 4.96652 7.57263 0
M  V30 25129 H 4094.62 4.80617 3.3614 0
M  V30 25130 H 4095.3 -0.742702 0.199384 0
M  V30 25131 H 4095.34 -2.20598 3.35588 0
M  V30 25132 H 4095.44 -2.43518 1.58945 0
M  V30 25133 P 4096.54 2.75334 8.47391 0
M  V30 25134 O 4096.76 2.44619 9.90336 0
M  V30 25135 O 4097.33 3.87776 7.92294 0
M  V30 25136 O 4096.79 1.4459 7.59357 0
M  V30 25137 C 4095.85 0.347653 7.69315 0
M  V30 25138 C 4096.58 -0.96767 7.52806 0
M  V30 25139 O 4096.79 -1.21055 6.10208 0
M  V30 25140 C 4097.98 -1.04557 8.13408 0
M  V30 25141 O 4098.37 -2.38311 8.41922 0
M  V30 25142 C 4098.86 -0.491279 7.02284 0
M  V30 25143 C 4098.15 -0.996264 5.77469 0
M  V30 25144 N 4098.2 -0.0501916 4.62973 0
M  V30 25145 C 4098.12 1.31969 4.65661 0
M  V30 25146 N 4098.19 1.86649 3.48119 0
M  V30 25147 C 4098.34 0.792089 2.62406 0
M  V30 25148 C 4098.47 0.705684 1.2207 0
M  V30 25149 N 4098.48 1.76207 0.413762 0
M  V30 25150 N 4098.59 -0.518981 0.685754 0
M  V30 25151 C 4098.58 -1.57595 1.49174 0
M  V30 25152 N 4098.46 -1.62909 2.80066 0
M  V30 25153 C 4098.34 -0.388195 3.3073 0
M  V30 25154 H 4095.36 0.374765 8.67791 0
M  V30 25155 H 4095.09 0.443613 6.90476 0
M  V30 25156 H 4095.95 -1.75559 7.96891 0
M  V30 25157 H 4098.61 -1.94563 5.46818 0
M  V30 25158 H 4098.89 0.608651 7.04676 0
M  V30 25159 H 4099.88 -0.889796 7.09039 0
M  V30 25160 H 4098.05 -0.433128 9.04664 0
M  V30 25161 H 4098 1.89246 5.57664 0
M  V30 25162 H 4098.39 2.71005 0.804694 0
M  V30 25163 H 4098.57 1.63189 -0.603768 0
M  V30 25164 H 4098.68 -2.53475 0.997614 0
M  V30 25165 P 4099.92 -2.75334 8.47391 0
M  V30 25166 O 4100.14 -3.84128 9.44797 0
M  V30 25167 O 4100.71 -1.51947 8.68712 0
M  V30 25168 O 4100.17 -3.29363 6.99321 0
M  V30 25169 C 4099.23 -4.24011 6.4274 0
M  V30 25170 C 4099.96 -5.20775 5.52155 0
M  V30 25171 O 4100.17 -4.56534 4.22446 0
M  V30 25172 C 4101.36 -5.62629 5.96531 0
M  V30 25173 O 4101.75 -6.87667 5.41053 0
M  V30 25174 C 4102.24 -4.52537 5.39283 0
M  V30 25175 C 4101.53 -4.20027 4.08623 0
M  V30 25176 N 4101.58 -2.76189 3.71603 0
M  V30 25177 H 4098.74 -4.797 7.24003 0
M  V30 25178 H 4098.47 -3.69856 5.84513 0
M  V30 25179 H 4099.33 -6.10356 5.41441 0
M  V30 25180 P 4103.3 -7.20834 5.23717 0
M  V30 25181 O 4103.52 -8.66104 5.38572 0
M  V30 25182 O 4104.09 -6.33544 6.1349 0
M  V30 25183 O 4103.55 -6.7751 3.72168 0
M  V30 25184 C 4102.61 -7.20825 2.7076 0
M  V30 25185 C 4103.34 -7.45864 1.40599 0
M  V30 25186 O 4103.55 -6.17651 0.734225 0
M  V30 25187 C 4104.74 -8.05808 1.51899 0
M  V30 25188 O 4105.13 -8.74358 0.335205 0
M  V30 25189 C 4105.62 -6.83093 1.70294 0
M  V30 25190 C 4104.91 -5.79992 0.836974 0
M  V30 25191 N 4104.96 -4.41864 1.38293 0
M  V30 25192 C 4104.88 -3.99538 2.69438 0
M  V30 25193 N 4104.96 -2.69909 2.84277 0
M  V30 25194 C 4105.1 -2.21719 1.5408 0
M  V30 25195 C 4105.23 -0.891712 1.06628 0
M  V30 25196 O 4105.25 0.161298 1.70137 0
M  V30 25197 N 4105.35 -0.856846 -0.334985 0
M  V30 25198 C 4105.35 -1.9641 -1.15789 0
M  V30 25199 N 4105.48 -1.72708 -2.46522 0
M  V30 25200 N 4105.22 -3.21165 -0.713741 0
M  V30 25201 C 4105.1 -3.26797 0.639748 0
M  V30 25202 H 4102.12 -8.13644 3.0377 0
M  V30 25203 H 4101.85 -6.42788 2.55485 0
M  V30 25204 H 4102.71 -8.12039 0.792769 0
M  V30 25205 H 4105.37 -5.80061 -0.166416 0
M  V30 25206 H 4105.65 -6.51287 2.75604 0
M  V30 25207 H 4106.64 -7.01734 1.34462 0
M  V30 25208 H 4104.81 -8.73674 2.38337 0
M  V30 25209 H 4104.76 -4.68207 3.53221 0
M  V30 25210 H 4105.44 0.0398818 -0.767965 0
M  V30 25211 H 4105.48 -2.50995 -3.13503 0
M  V30 25212 H 4105.58 -0.759148 -2.80716 0
M  V30 25213 P 4106.68 -8.91 1.68193e-10 0
M  V30 25214 O 4106.9 -10.1746 -0.733838 0
M  V30 25215 O 4107.47 -8.73346 1.23964 0
M  V30 25216 O 4106.93 -7.66872 -0.971405 0
M  V30 25217 C 4105.99 -7.42405 -2.04668 0
M  V30 25218 C 4106.72 -6.86059 -3.24661 0
M  V30 25219 O 4106.93 -5.42934 -3.03695 0
M  V30 25220 C 4108.12 -7.41287 -3.50796 0
M  V30 25221 O 4108.51 -7.27073 -4.86816 0
M  V30 25222 C 4109 -6.5273 -2.63741 0
M  V30 25223 C 4108.29 -5.1842 -2.73198 0
M  V30 25224 N 4108.34 -4.38762 -1.4784 0
M  V30 25225 C 4108.26 -4.83651 -0.183876 0
M  V30 25226 N 4108.33 -3.88759 0.699393 0
M  V30 25227 C 4108.48 -2.7404 -0.0575568 0
M  V30 25228 C 4108.61 -1.37902 0.293928 0
M  V30 25229 N 4108.62 -0.938021 1.54797 0
M  V30 25230 N 4108.73 -0.491817 -0.70549 0
M  V30 25231 C 4108.72 -0.931735 -1.95979 0
M  V30 25232 N 4108.6 -2.16017 -2.41481 0
M  V30 25233 C 4108.48 -3.02547 -1.39121 0
M  V30 25234 H 4105.5 -8.36899 -2.3252 0
M  V30 25235 H 4105.23 -6.70391 -1.71179 0
M  V30 25236 H 4106.09 -7.03638 -4.13219 0
M  V30 25237 H 4108.75 -4.59931 -3.54016 0
M  V30 25238 H 4109.03 -6.88995 -1.59871 0
M  V30 25239 H 4110.02 -6.4684 -3.0373 0
M  V30 25240 H 4108.19 -8.47002 -3.20749 0
M  V30 25241 H 4108.14 -5.8885 0.0765548 0
M  V30 25242 H 4108.53 -1.60276 2.32875 0
M  V30 25243 H 4108.71 0.0699355 1.73859 0
M  V30 25244 H 4108.82 -0.165507 -2.71897 0
M  V30 25245 P 4110.06 -7.20834 -5.23717 0
M  V30 25246 O 4110.28 -7.79853 -6.57286 0
M  V30 25247 O 4110.85 -7.79239 -4.12957 0
M  V30 25248 O 4110.31 -5.63315 -5.29344 0
M  V30 25249 C 4109.37 -4.80255 -6.01876 0
M  V30 25250 C 4110.1 -3.64202 -6.65911 0
M  V30 25251 O 4110.31 -2.60694 -5.64732 0
M  V30 25252 C 4111.5 -3.93473 -7.1943 0
M  V30 25253 O 4111.89 -3.02071 -8.21205 0
M  V30 25254 C 4112.38 -3.73047 -5.97036 0
M  V30 25255 C 4111.67 -2.58828 -5.25741 0
M  V30 25256 N 4111.72 -2.68068 -3.77503 0
M  V30 25257 C 4111.64 -3.79715 -2.96723 0
M  V30 25258 N 4111.72 -3.5377 -1.68852 0
M  V30 25259 C 4111.86 -2.15054 -1.63254 0
M  V30 25260 C 4111.99 -1.28964 -0.518571 0
M  V30 25261 O 4112.01 -1.56826 0.679156 0
M  V30 25262 N 4112.11 0.0538097 -0.918425 0
M  V30 25263 C 4112.11 0.494275 -2.22578 0
M  V30 25264 N 4112.24 1.81086 -2.40434 0
M  V30 25265 N 4111.98 -0.313645 -3.27502 0
M  V30 25266 C 4111.86 -1.61829 -2.91033 0
M  V30 25267 H 4108.88 -5.40332 -6.79951 0
M  V30 25268 H 4108.61 -4.41613 -5.32378 0
M  V30 25269 H 4109.47 -3.26331 -7.47797 0
M  V30 25270 H 4112.13 -1.63422 -5.56814 0
M  V30 25271 H 4112.41 -4.63374 -5.34244 0
M  V30 25272 H 4113.4 -3.44728 -6.25838 0
M  V30 25273 H 4111.57 -4.96652 -7.57263 0
M  V30 25274 H 4111.52 -4.80617 -3.3614 0
M  V30 25275 H 4112.2 0.742702 -0.199384 0
M  V30 25276 H 4112.24 2.20598 -3.35588 0
M  V30 25277 H 4112.34 2.43518 -1.58945 0
M  V30 25278 P 4113.44 -2.75334 -8.47391 0
M  V30 25279 O 4113.66 -2.44619 -9.90336 0
M  V30 25280 O 4114.23 -3.87776 -7.92294 0
M  V30 25281 O 4113.69 -1.4459 -7.59357 0
M  V30 25282 C 4112.75 -0.347653 -7.69315 0
M  V30 25283 C 4113.48 0.96767 -7.52806 0
M  V30 25284 O 4113.69 1.21055 -6.10208 0
M  V30 25285 C 4114.88 1.04557 -8.13408 0
M  V30 25286 O 4115.27 2.38311 -8.41922 0
M  V30 25287 C 4115.76 0.491279 -7.02284 0
M  V30 25288 C 4115.05 0.996264 -5.77469 0
M  V30 25289 N 4115.1 0.0501916 -4.62973 0
M  V30 25290 C 4115.02 -1.31969 -4.65661 0
M  V30 25291 N 4115.09 -1.86649 -3.48119 0
M  V30 25292 C 4115.24 -0.792089 -2.62406 0
M  V30 25293 C 4115.37 -0.705684 -1.2207 0
M  V30 25294 N 4115.38 -1.76207 -0.413762 0
M  V30 25295 N 4115.49 0.518981 -0.685754 0
M  V30 25296 C 4115.48 1.57595 -1.49174 0
M  V30 25297 N 4115.36 1.62909 -2.80066 0
M  V30 25298 C 4115.24 0.388195 -3.3073 0
M  V30 25299 H 4112.26 -0.374765 -8.67791 0
M  V30 25300 H 4111.99 -0.443613 -6.90476 0
M  V30 25301 H 4112.85 1.75559 -7.96891 0
M  V30 25302 H 4115.51 1.94563 -5.46818 0
M  V30 25303 H 4115.79 -0.608651 -7.04676 0
M  V30 25304 H 4116.78 0.889796 -7.09039 0
M  V30 25305 H 4114.95 0.433128 -9.04664 0
M  V30 25306 H 4114.9 -1.89246 -5.57664 0
M  V30 25307 H 4115.29 -2.71005 -0.804694 0
M  V30 25308 H 4115.47 -1.63189 0.603768 0
M  V30 25309 H 4115.58 2.53475 -0.997614 0
M  V30 25310 P 4116.82 2.75334 -8.47391 0
M  V30 25311 O 4117.04 3.84166 -9.4489 0
M  V30 25312 O 4117.61 1.51964 -8.6881 0
M  V30 25313 O 4117.07 3.29363 -6.99321 0
M  V30 25314 C 4116.13 4.23956 -6.42656 0
M  V30 25315 C 4116.86 5.20775 -5.52155 0
M  V30 25316 O 4117.07 4.56534 -4.22446 0
M  V30 25317 C 4118.26 5.62629 -5.96531 0
M  V30 25318 O 4118.65 6.87667 -5.41053 0
M  V30 25319 C 4119.14 4.52537 -5.39283 0
M  V30 25320 C 4118.43 4.20027 -4.08623 0
M  V30 25321 N 4118.48 2.7613 -3.71522 0
M  V30 25322 C 4118.63 2.45612 -2.37989 0
M  V30 25323 O 4118.72 3.30919 -1.51621 0
M  V30 25324 N 4118.67 1.10684 -2.08435 0
M  V30 25325 C 4118.58 0.0690084 -2.9792 0
M  V30 25326 O 4118.63 -1.10553 -2.59426 0
M  V30 25327 C 4118.43 0.481522 -4.35345 0
M  V30 25328 C 4118.32 -0.618778 -5.36443 0
M  V30 25329 C 4118.38 1.78906 -4.67968 0
M  V30 25330 H 4115.64 4.797 -7.24003 0
M  V30 25331 H 4115.37 3.69802 -5.84429 0
M  V30 25332 H 4116.23 6.10356 -5.41441 0
M  V30 25333 H 4118.89 4.78651 -3.27911 0
M  V30 25334 H 4119.17 3.64957 -6.05871 0
M  V30 25335 H 4120.16 4.8868 -5.2125 0
M  V30 25336 H 4118.33 5.66726 -7.06352 0
M  V30 25337 H 4118.25 2.07737 -5.72367 0
M  V30 25338 H 4119.28 -0.754375 -5.86871 0
M  V30 25339 H 4117.55 -0.359721 -6.10641 0
M  V30 25340 H 4118.04 -1.55533 -4.8581 0
M  V30 25341 H 4118.77 0.862651 -1.12037 0
M  V30 25342 P 4120.2 7.20834 -5.23717 0
M  V30 25343 O 4120.42 8.66274 -5.38678 0
M  V30 25344 O 4120.99 6.33687 -6.13629 0
M  V30 25345 O 4120.45 6.7751 -3.72168 0
M  V30 25346 C 4119.51 7.20919 -2.70795 0
M  V30 25347 C 4120.24 7.45864 -1.40599 0
M  V30 25348 O 4120.45 6.17751 -0.734343 0
M  V30 25349 C 4121.64 8.05906 -1.51917 0
M  V30 25350 O 4122.03 8.74358 -0.335205 0
M  V30 25351 C 4122.52 6.83093 -1.70294 0
M  V30 25352 C 4121.81 5.79992 -0.836974 0
M  V30 25353 N 4121.86 4.41864 -1.38293 0
M  V30 25354 C 4121.78 4.02089 -2.69407 0
M  V30 25355 N 4121.85 2.73403 -2.85089 0
M  V30 25356 C 4122 2.25086 -1.5642 0
M  V30 25357 C 4122.13 0.942887 -1.04836 0
M  V30 25358 N 4122.14 -0.150999 -1.80369 0
M  V30 25359 N 4122.25 0.812565 0.28167 0
M  V30 25360 C 4122.24 1.90572 1.03784 0
M  V30 25361 N 4122.12 3.167 0.683905 0
M  V30 25362 C 4122 3.26538 -0.652815 0
M  V30 25363 H 4119.02 8.13738 -3.03804 0
M  V30 25364 H 4118.75 6.42974 -2.55559 0
M  V30 25365 H 4119.61 8.12139 -0.792866 0
M  V30 25366 H 4122.27 5.80178 0.160643 0
M  V30 25367 H 4122.55 6.51379 -2.75643 0
M  V30 25368 H 4123.54 7.01832 -1.3448 0
M  V30 25369 H 4121.71 8.73771 -2.38364 0
M  V30 25370 H 4121.66 4.7189 -3.52311 0
M  V30 25371 H 4122.05 -0.0721434 -2.82608 0
M  V30 25372 H 4122.23 -1.0785 -1.36544 0
M  V30 25373 H 4122.34 1.73207 2.10241 0
M  V30 25374 P 4123.58 8.91 -1.69302e-10 0
M  V30 25375 O 4123.8 10.1726 0.733694 0
M  V30 25376 O 4124.37 8.73148 -1.23936 0
M  V30 25377 O 4123.83 7.66872 0.971405 0
M  V30 25378 C 4122.89 7.42309 2.04641 0
M  V30 25379 C 4123.62 6.86059 3.24661 0
M  V30 25380 O 4123.83 5.42847 3.03646 0
M  V30 25381 C 4125.02 7.41196 3.50753 0
M  V30 25382 O 4125.41 7.27073 4.86816 0
M  V30 25383 C 4125.9 6.5273 2.63741 0
M  V30 25384 C 4125.19 5.1842 2.73198 0
M  V30 25385 N 4125.24 4.38762 1.4784 0
M  V30 25386 H 4122.4 8.36803 2.32493 0
M  V30 25387 H 4122.13 6.70197 1.71129 0
M  V30 25388 H 4122.99 7.03551 4.13168 0
M  V30 25389 P 4126.96 7.20834 5.23717 0
M  V30 25390 O 4127.18 7.79853 6.57286 0
M  V30 25391 O 4127.75 7.79239 4.12957 0
M  V30 25392 O 4127.21 5.63315 5.29344 0
M  V30 25393 C 4126.27 4.80255 6.01876 0
M  V30 25394 C 4127 3.64202 6.65911 0
M  V30 25395 O 4127.21 2.60694 5.64732 0
M  V30 25396 C 4128.4 3.93473 7.1943 0
M  V30 25397 O 4128.79 3.02071 8.21205 0
M  V30 25398 C 4129.28 3.73047 5.97036 0
M  V30 25399 C 4128.57 2.58828 5.25741 0
M  V30 25400 N 4128.62 2.68068 3.77503 0
M  V30 25401 H 4125.78 5.40332 6.79951 0
M  V30 25402 H 4125.51 4.41613 5.32378 0
M  V30 25403 H 4126.37 3.26331 7.47797 0
M  V30 25404 P 4130.34 2.75334 8.47391 0
M  V30 25405 O 4130.56 2.44595 9.90239 0
M  V30 25406 O 4131.13 3.87732 7.92204 0
M  V30 25407 O 4130.59 1.4459 7.59357 0
M  V30 25408 C 4129.65 0.347563 7.69115 0
M  V30 25409 C 4130.38 -0.96767 7.52806 0
M  V30 25410 O 4130.59 -1.21036 6.1011 0
M  V30 25411 C 4131.78 -1.04544 8.13308 0
M  V30 25412 O 4132.17 -2.38311 8.41922 0
M  V30 25413 C 4132.66 -0.491279 7.02284 0
M  V30 25414 C 4131.95 -0.996264 5.77469 0
M  V30 25415 N 4132 -0.0501808 4.62873 0
M  V30 25416 C 4132.15 -0.588177 3.36904 0
M  V30 25417 O 4132.24 -1.78598 3.17173 0
M  V30 25418 N 4132.19 0.329694 2.33686 0
M  V30 25419 C 4132.1 1.6953 2.45079 0
M  V30 25420 O 4132.15 2.41926 1.44899 0
M  V30 25421 C 4131.95 2.16933 3.80505 0
M  V30 25422 C 4131.84 3.65373 3.97621 0
M  V30 25423 C 4131.9 1.30326 4.83752 0
M  V30 25424 H 4129.16 0.374722 8.67691 0
M  V30 25425 H 4128.89 0.443421 6.90177 0
M  V30 25426 H 4129.75 -1.75537 7.96793 0
M  V30 25427 H 4132.41 -1.94496 5.46629 0
M  V30 25428 H 4132.69 0.608651 7.04676 0
M  V30 25429 H 4133.68 -0.889672 7.08939 0
M  V30 25430 H 4131.85 -0.43308 9.04564 0
M  V30 25431 H 4131.77 1.68366 5.8516 0
M  V30 25432 H 4132.8 4.05985 4.30448 0
M  V30 25433 H 4131.07 3.88028 4.72875 0
M  V30 25434 H 4131.56 4.11381 3.01609 0
M  V30 25435 H 4132.29 -0.0393617 1.41345 0
M  V30 25436 P 4133.72 -2.75334 8.47391 0
M  V30 25437 O 4133.94 -3.84128 9.44797 0
M  V30 25438 O 4134.51 -1.51947 8.68712 0
M  V30 25439 O 4133.97 -3.29363 6.99321 0
M  V30 25440 C 4133.03 -4.24011 6.4274 0
M  V30 25441 C 4133.76 -5.20775 5.52155 0
M  V30 25442 O 4133.97 -4.56534 4.22446 0
M  V30 25443 C 4135.16 -5.62629 5.96531 0
M  V30 25444 O 4135.55 -6.87667 5.41053 0
M  V30 25445 C 4136.04 -4.52537 5.39283 0
M  V30 25446 C 4135.33 -4.20027 4.08623 0
M  V30 25447 N 4135.38 -2.76189 3.71603 0
M  V30 25448 C 4135.3 -1.64862 4.52822 0
M  V30 25449 N 4135.38 -0.512671 3.88633 0
M  V30 25450 C 4135.52 -0.888083 2.54977 0
M  V30 25451 C 4135.65 -0.094668 1.38677 0
M  V30 25452 N 4135.77 -0.890102 0.232633 0
M  V30 25453 C 4135.77 -2.26958 0.21772 0
M  V30 25454 N 4135.9 -2.84626 -0.97925 0
M  V30 25455 N 4135.64 -3.0178 1.31033 0
M  V30 25456 C 4135.52 -2.26781 2.43843 0
M  V30 25457 H 4132.54 -4.797 7.24003 0
M  V30 25458 H 4132.27 -3.69856 5.84513 0
M  V30 25459 H 4133.13 -6.10356 5.41441 0
M  V30 25460 P 4137.1 -7.20834 5.23717 0
M  V30 25461 O 4137.32 -8.66104 5.38572 0
M  V30 25462 O 4137.89 -6.33544 6.1349 0
M  V30 25463 O 4137.35 -6.7751 3.72168 0
M  V30 25464 C 4136.41 -7.20825 2.7076 0
M  V30 25465 C 4137.14 -7.45864 1.40599 0
M  V30 25466 O 4137.35 -6.17651 0.734225 0
M  V30 25467 C 4138.54 -8.05808 1.51899 0
M  V30 25468 O 4138.93 -8.74358 0.335205 0
M  V30 25469 C 4139.42 -6.83093 1.70294 0
M  V30 25470 C 4138.71 -5.79992 0.836974 0
M  V30 25471 N 4138.76 -4.41864 1.38293 0
M  V30 25472 C 4138.68 -3.99538 2.69438 0
M  V30 25473 N 4138.76 -2.69909 2.84277 0
M  V30 25474 C 4138.9 -2.21719 1.5408 0
M  V30 25475 C 4139.03 -0.891712 1.06628 0
M  V30 25476 N 4139.15 -0.856846 -0.334985 0
M  V30 25477 C 4139.15 -1.9641 -1.15789 0
M  V30 25478 N 4139.28 -1.72708 -2.46522 0
M  V30 25479 N 4139.02 -3.21165 -0.713741 0
M  V30 25480 C 4138.9 -3.26797 0.639748 0
M  V30 25481 H 4135.92 -8.13644 3.0377 0
M  V30 25482 H 4135.65 -6.42788 2.55485 0
M  V30 25483 H 4136.51 -8.12039 0.792769 0
M  V30 25484 P 4140.48 -8.91 1.70411e-10 0
M  V30 25485 O 4140.7 -10.1746 -0.733838 0
M  V30 25486 O 4141.27 -8.73346 1.23964 0
M  V30 25487 O 4140.73 -7.66872 -0.971405 0
M  V30 25488 C 4139.79 -7.42405 -2.04668 0
M  V30 25489 C 4140.52 -6.86059 -3.24661 0
M  V30 25490 O 4140.73 -5.42934 -3.03695 0
M  V30 25491 C 4141.92 -7.41287 -3.50796 0
M  V30 25492 O 4142.31 -7.27073 -4.86816 0
M  V30 25493 C 4142.8 -6.5273 -2.63741 0
M  V30 25494 C 4142.09 -5.1842 -2.73198 0
M  V30 25495 N 4142.14 -4.38762 -1.4784 0
M  V30 25496 H 4139.3 -8.36899 -2.3252 0
M  V30 25497 H 4139.03 -6.70391 -1.71179 0
M  V30 25498 H 4139.89 -7.03638 -4.13219 0
M  V30 25499 H 4142.55 -4.59931 -3.54016 0
M  V30 25500 H 4142.83 -6.88995 -1.59871 0
M  V30 25501 H 4143.82 -6.4684 -3.0373 0
M  V30 25502 H 4141.99 -8.47002 -3.20749 0
M  V30 25503 P 4143.86 -7.20834 -5.23717 0
M  V30 25504 O 4144.08 -7.79853 -6.57286 0
M  V30 25505 O 4144.65 -7.79239 -4.12957 0
M  V30 25506 O 4144.11 -5.63315 -5.29344 0
M  V30 25507 C 4143.17 -4.80255 -6.01876 0
M  V30 25508 C 4143.9 -3.64202 -6.65911 0
M  V30 25509 O 4144.11 -2.60694 -5.64732 0
M  V30 25510 C 4145.3 -3.93473 -7.1943 0
M  V30 25511 O 4145.69 -3.02071 -8.21205 0
M  V30 25512 C 4146.18 -3.73047 -5.97036 0
M  V30 25513 C 4145.47 -2.58828 -5.25741 0
M  V30 25514 N 4145.52 -2.68068 -3.77503 0
M  V30 25515 H 4142.68 -5.40332 -6.79951 0
M  V30 25516 H 4142.41 -4.41613 -5.32378 0
M  V30 25517 H 4143.27 -3.26331 -7.47797 0
M  V30 25518 P 4147.24 -2.75334 -8.47391 0
M  V30 25519 O 4147.46 -2.44619 -9.90336 0
M  V30 25520 O 4148.03 -3.87776 -7.92294 0
M  V30 25521 O 4147.49 -1.4459 -7.59357 0
M  V30 25522 C 4146.55 -0.347653 -7.69315 0
M  V30 25523 C 4147.28 0.96767 -7.52806 0
M  V30 25524 O 4147.49 1.21055 -6.10208 0
M  V30 25525 C 4148.68 1.04557 -8.13408 0
M  V30 25526 O 4149.07 2.38311 -8.41922 0
M  V30 25527 C 4149.56 0.491279 -7.02284 0
M  V30 25528 C 4148.85 0.996264 -5.77469 0
M  V30 25529 N 4148.9 0.0501916 -4.62973 0
M  V30 25530 H 4146.06 -0.374765 -8.67791 0
M  V30 25531 H 4145.79 -0.443613 -6.90476 0
M  V30 25532 H 4146.65 1.75559 -7.96891 0
M  V30 25533 H 4149.31 1.94563 -5.46818 0
M  V30 25534 H 4149.59 -0.608651 -7.04676 0
M  V30 25535 H 4150.58 0.889796 -7.09039 0
M  V30 25536 H 4148.75 0.433128 -9.04664 0
M  V30 25537 P 4150.62 2.75334 -8.47391 0
M  V30 25538 O 4150.84 3.84128 -9.44797 0
M  V30 25539 O 4151.41 1.51947 -8.68712 0
M  V30 25540 O 4150.87 3.29363 -6.99321 0
M  V30 25541 C 4149.93 4.24011 -6.4274 0
M  V30 25542 C 4150.66 5.20775 -5.52155 0
M  V30 25543 O 4150.87 4.56534 -4.22446 0
M  V30 25544 C 4152.06 5.62629 -5.96531 0
M  V30 25545 O 4152.45 6.87667 -5.41053 0
M  V30 25546 C 4152.94 4.52537 -5.39283 0
M  V30 25547 C 4152.23 4.20027 -4.08623 0
M  V30 25548 N 4152.28 2.76189 -3.71603 0
M  V30 25549 C 4152.2 1.64862 -4.52822 0
M  V30 25550 N 4152.28 0.512671 -3.88633 0
M  V30 25551 C 4152.42 0.888083 -2.54977 0
M  V30 25552 C 4152.55 0.094668 -1.38677 0
M  V30 25553 N 4152.67 0.890102 -0.232633 0
M  V30 25554 C 4152.67 2.26958 -0.21772 0
M  V30 25555 N 4152.8 2.84626 0.97925 0
M  V30 25556 N 4152.54 3.0178 -1.31033 0
M  V30 25557 C 4152.42 2.26781 -2.43843 0
M  V30 25558 H 4149.44 4.797 -7.24003 0
M  V30 25559 H 4149.17 3.69856 -5.84513 0
M  V30 25560 H 4150.03 6.10356 -5.41441 0
M  V30 25561 P 4154 7.20834 -5.23717 0
M  V30 25562 O 4154.22 8.66274 -5.38678 0
M  V30 25563 O 4154.79 6.33687 -6.13629 0
M  V30 25564 O 4154.25 6.7751 -3.72168 0
M  V30 25565 C 4153.31 7.20919 -2.70795 0
M  V30 25566 C 4154.04 7.45864 -1.40599 0
M  V30 25567 O 4154.25 6.17751 -0.734343 0
M  V30 25568 C 4155.44 8.05906 -1.51917 0
M  V30 25569 O 4155.83 8.74358 -0.335205 0
M  V30 25570 C 4156.32 6.83093 -1.70294 0
M  V30 25571 C 4155.61 5.79992 -0.836974 0
M  V30 25572 N 4155.66 4.41864 -1.38293 0
M  V30 25573 C 4155.58 4.02089 -2.69407 0
M  V30 25574 N 4155.65 2.73403 -2.85089 0
M  V30 25575 C 4155.8 2.25086 -1.5642 0
M  V30 25576 C 4155.93 0.942887 -1.04836 0
M  V30 25577 N 4155.94 -0.150999 -1.80369 0
M  V30 25578 N 4156.05 0.812565 0.28167 0
M  V30 25579 C 4156.04 1.90572 1.03784 0
M  V30 25580 N 4155.92 3.167 0.683905 0
M  V30 25581 C 4155.8 3.26538 -0.652815 0
M  V30 25582 H 4152.82 8.13738 -3.03804 0
M  V30 25583 H 4152.55 6.42974 -2.55559 0
M  V30 25584 H 4153.41 8.12139 -0.792866 0
M  V30 25585 H 4156.07 5.80178 0.160643 0
M  V30 25586 H 4156.35 6.51379 -2.75643 0
M  V30 25587 H 4157.34 7.01832 -1.3448 0
M  V30 25588 H 4155.51 8.73771 -2.38364 0
M  V30 25589 H 4155.46 4.7189 -3.52311 0
M  V30 25590 H 4155.85 -0.0721434 -2.82608 0
M  V30 25591 H 4156.03 -1.0785 -1.36544 0
M  V30 25592 H 4156.14 1.73207 2.10241 0
M  V30 25593 P 4157.38 8.91 -1.7152e-10 0
M  V30 25594 O 4157.6 10.1726 0.733694 0
M  V30 25595 O 4158.17 8.73148 -1.23936 0
M  V30 25596 O 4157.63 7.66872 0.971405 0
M  V30 25597 C 4156.69 7.42309 2.04641 0
M  V30 25598 C 4157.42 6.86059 3.24661 0
M  V30 25599 O 4157.63 5.42847 3.03646 0
M  V30 25600 C 4158.82 7.41196 3.50753 0
M  V30 25601 O 4159.21 7.27073 4.86816 0
M  V30 25602 C 4159.7 6.5273 2.63741 0
M  V30 25603 C 4158.99 5.1842 2.73198 0
M  V30 25604 N 4159.04 4.38762 1.4784 0
M  V30 25605 H 4156.2 8.36803 2.32493 0
M  V30 25606 H 4155.93 6.70197 1.71129 0
M  V30 25607 H 4156.79 7.03551 4.13168 0
M  V30 25608 P 4160.76 7.20834 5.23717 0
M  V30 25609 O 4160.98 7.79853 6.57286 0
M  V30 25610 O 4161.55 7.79239 4.12957 0
M  V30 25611 O 4161.01 5.63315 5.29344 0
M  V30 25612 C 4160.07 4.80255 6.01876 0
M  V30 25613 C 4160.8 3.64202 6.65911 0
M  V30 25614 O 4161.01 2.60694 5.64732 0
M  V30 25615 C 4162.2 3.93473 7.1943 0
M  V30 25616 O 4162.59 3.02071 8.21205 0
M  V30 25617 C 4163.08 3.73047 5.97036 0
M  V30 25618 C 4162.37 2.58828 5.25741 0
M  V30 25619 N 4162.42 2.68068 3.77503 0
M  V30 25620 H 4159.58 5.40332 6.79951 0
M  V30 25621 H 4159.31 4.41613 5.32378 0
M  V30 25622 H 4160.17 3.26331 7.47797 0
M  V30 25623 P 4164.14 2.75334 8.47391 0
M  V30 25624 O 4164.36 2.44595 9.90239 0
M  V30 25625 O 4164.93 3.87732 7.92204 0
M  V30 25626 O 4164.39 1.4459 7.59357 0
M  V30 25627 C 4163.45 0.347563 7.69115 0
M  V30 25628 C 4164.18 -0.96767 7.52806 0
M  V30 25629 O 4164.39 -1.21036 6.1011 0
M  V30 25630 C 4165.58 -1.04544 8.13308 0
M  V30 25631 O 4165.97 -2.38311 8.41922 0
M  V30 25632 C 4166.46 -0.491279 7.02284 0
M  V30 25633 C 4165.75 -0.996264 5.77469 0
M  V30 25634 N 4165.8 -0.0501808 4.62873 0
M  V30 25635 C 4165.95 -0.588177 3.36904 0
M  V30 25636 O 4166.04 -1.78598 3.17173 0
M  V30 25637 N 4165.99 0.329694 2.33686 0
M  V30 25638 C 4165.9 1.6953 2.45079 0
M  V30 25639 O 4165.95 2.41926 1.44899 0
M  V30 25640 C 4165.75 2.16933 3.80505 0
M  V30 25641 C 4165.64 3.65373 3.97621 0
M  V30 25642 C 4165.7 1.30326 4.83752 0
M  V30 25643 H 4162.96 0.374722 8.67691 0
M  V30 25644 H 4162.69 0.443421 6.90177 0
M  V30 25645 H 4163.55 -1.75537 7.96793 0
M  V30 25646 H 4166.21 -1.94496 5.46629 0
M  V30 25647 H 4166.49 0.608651 7.04676 0
M  V30 25648 H 4167.48 -0.889672 7.08939 0
M  V30 25649 H 4165.65 -0.43308 9.04564 0
M  V30 25650 H 4165.57 1.68366 5.8516 0
M  V30 25651 H 4166.6 4.05985 4.30448 0
M  V30 25652 H 4164.87 3.88028 4.72875 0
M  V30 25653 H 4165.36 4.11381 3.01609 0
M  V30 25654 H 4166.09 -0.0393617 1.41345 0
M  V30 25655 P 4167.52 -2.75334 8.47391 0
M  V30 25656 O 4167.74 -3.84128 9.44797 0
M  V30 25657 O 4168.31 -1.51947 8.68712 0
M  V30 25658 O 4167.77 -3.29363 6.99321 0
M  V30 25659 C 4166.83 -4.24011 6.4274 0
M  V30 25660 C 4167.56 -5.20775 5.52155 0
M  V30 25661 O 4167.77 -4.56534 4.22446 0
M  V30 25662 C 4168.96 -5.62629 5.96531 0
M  V30 25663 O 4169.35 -6.87667 5.41053 0
M  V30 25664 C 4169.84 -4.52537 5.39283 0
M  V30 25665 C 4169.13 -4.20027 4.08623 0
M  V30 25666 N 4169.18 -2.76189 3.71603 0
M  V30 25667 H 4166.34 -4.797 7.24003 0
M  V30 25668 H 4166.07 -3.69856 5.84513 0
M  V30 25669 H 4166.93 -6.10356 5.41441 0
M  V30 25670 P 4170.9 -7.20834 5.23717 0
M  V30 25671 O 4171.12 -8.66274 5.38678 0
M  V30 25672 O 4171.69 -6.33687 6.13629 0
M  V30 25673 O 4171.15 -6.7751 3.72168 0
M  V30 25674 C 4170.21 -7.20919 2.70795 0
M  V30 25675 C 4170.94 -7.45864 1.40599 0
M  V30 25676 O 4171.15 -6.17751 0.734343 0
M  V30 25677 C 4172.34 -8.05906 1.51917 0
M  V30 25678 O 4172.73 -8.74358 0.335205 0
M  V30 25679 C 4173.22 -6.83093 1.70294 0
M  V30 25680 C 4172.51 -5.79992 0.836974 0
M  V30 25681 N 4172.56 -4.41864 1.38293 0
M  V30 25682 C 4172.48 -4.02089 2.69407 0
M  V30 25683 N 4172.55 -2.73403 2.85089 0
M  V30 25684 C 4172.7 -2.25086 1.5642 0
M  V30 25685 C 4172.83 -0.942887 1.04836 0
M  V30 25686 N 4172.84 0.150999 1.80369 0
M  V30 25687 N 4172.95 -0.812565 -0.28167 0
M  V30 25688 C 4172.94 -1.90572 -1.03784 0
M  V30 25689 N 4172.82 -3.167 -0.683905 0
M  V30 25690 C 4172.7 -3.26538 0.652815 0
M  V30 25691 H 4169.72 -8.13738 3.03804 0
M  V30 25692 H 4169.45 -6.42974 2.55559 0
M  V30 25693 H 4170.31 -8.12139 0.792866 0
M  V30 25694 H 4172.97 -5.80178 -0.160643 0
M  V30 25695 H 4173.25 -6.51379 2.75643 0
M  V30 25696 H 4174.24 -7.01832 1.3448 0
M  V30 25697 H 4172.41 -8.73771 2.38364 0
M  V30 25698 H 4172.36 -4.7189 3.52311 0
M  V30 25699 H 4172.75 0.0721434 2.82608 0
M  V30 25700 H 4172.93 1.0785 1.36544 0
M  V30 25701 H 4173.04 -1.73207 -2.10241 0
M  V30 25702 H 4172.59 -8.17008 -0.422618 0
M  V30 25703 H 4176.62 9.01697 -3.02546 0
M  V30 25704 O 4176.5 8.19513 -3.48153 0
M  V30 25705 P 4175.06 8.03563 -3.84925 0
M  V30 25706 O 4174.84 8.85821 -5.0569 0
M  V30 25707 O 4174.27 8.41101 -2.65469 0
M  V30 25708 O 4174.81 6.4965 -4.18908 0
M  V30 25709 C 4175.75 5.80886 -5.05289 0
M  V30 25710 C 4175.02 4.78366 -5.89277 0
M  V30 25711 O 4174.81 3.58302 -5.08433 0
M  V30 25712 C 4173.62 5.16748 -6.36559 0
M  V30 25713 O 4173.23 4.45271 -7.53232 0
M  V30 25714 C 4172.74 4.74572 -5.19863 0
M  V30 25715 C 4173.45 3.49373 -4.70338 0
M  V30 25716 N 4173.4 3.31704 -3.22876 0
M  V30 25717 C 4173.25 2.03326 -2.74871 0
M  V30 25718 O 4173.16 1.06486 -3.48076 0
M  V30 25719 N 4173.21 1.91838 -1.37456 0
M  V30 25720 C 4173.3 2.94295 -0.462035 0
M  V30 25721 O 4173.25 2.71763 0.752928 0
M  V30 25722 C 4173.45 4.25064 -1.05249 0
M  V30 25723 C 4173.56 5.39815 -0.095697 0
M  V30 25724 C 4173.5 4.40214 -2.39192 0
M  V30 25725 H 4176.24 6.54063 -5.71245 0
M  V30 25726 H 4176.51 5.30339 -4.43905 0
M  V30 25727 H 4175.64 4.55889 -6.76652 0
M  V30 25728 H 4172.98 2.6167 -5.17842 0
M  V30 25729 H 4172.7 5.52155 -4.41878 0
M  V30 25730 H 4171.71 4.51918 -5.53297 0
M  V30 25731 H 4173.55 6.25055 -6.55162 0
M  V30 25732 H 4173.62 5.39798 -2.81523 0
M  V30 25733 H 4172.59 5.91593 -0.0279582 0
M  V30 25734 H 4174.32 6.10038 -0.450573 0
M  V30 25735 H 4173.84 5.02007 0.89937 0
M  V30 25736 H 4173.1 0.995326 -1.00435 0
M  V30 25737 P 4171.68 4.23843 -7.83734 0
M  V30 25738 O 4171.46 4.19407 -9.29784 0
M  V30 25739 O 4170.89 5.24426 -7.09156 0
M  V30 25740 O 4171.43 2.7935 -7.20758 0
M  V30 25741 C 4172.37 1.7299 -7.50419 0
M  V30 25742 C 4171.64 0.406376 -7.57911 0
M  V30 25743 O 4171.43 -0.0897726 -6.21935 0
M  V30 25744 C 4170.24 0.447224 -8.1878 0
M  V30 25745 O 4169.85 -0.825065 -8.71101 0
M  V30 25746 C 4169.36 0.783801 -6.99623 0
M  V30 25747 C 4170.07 0.0619192 -5.85967 0
M  V30 25748 N 4170.02 0.7859 -4.56281 0
M  V30 25749 H 4172.85 1.93423 -8.4679 0
M  V30 25750 H 4173.13 1.68181 -6.71046 0
M  V30 25751 H 4172.26 -0.289041 -8.15388 0
M  V30 25752 P 4168.3 -1.17771 -8.83182 0
M  V30 25753 O 4168.08 -2.07206 -9.98732 0
M  V30 25754 O 4167.51 0.0743816 -8.81969 0
M  V30 25755 O 4168.05 -1.97652 -7.47304 0
M  V30 25756 C 4168.99 -3.01133 -7.08783 0
M  V30 25757 C 4168.26 -4.12613 -6.37049 0
M  V30 25758 O 4168.05 -3.72827 -4.97879 0
M  V30 25759 C 4166.86 -4.45085 -6.88694 0
M  V30 25760 O 4166.47 -5.7877 -6.5624 0
M  V30 25761 C 4165.98 -3.47817 -6.12078 0
M  V30 25762 C 4166.69 -3.39414 -4.77697 0
M  V30 25763 N 4166.64 -2.04199 -4.15538 0
M  V30 25764 C 4166.72 -0.821545 -4.76977 0
M  V30 25765 N 4166.65 0.1794 -3.94592 0
M  V30 25766 C 4166.5 -0.419121 -2.70776 0
M  V30 25767 C 4166.37 0.109072 -1.40577 0
M  V30 25768 N 4166.36 1.4104 -1.1344 0
M  V30 25769 N 4166.25 -0.764381 -0.39411 0
M  V30 25770 C 4166.26 -2.06587 -0.664135 0
M  V30 25771 N 4166.38 -2.67948 -1.82153 0
M  V30 25772 C 4166.5 -1.77942 -2.8147 0
M  V30 25773 H 4169.47 -3.41248 -7.98759 0
M  V30 25774 H 4169.75 -2.57728 -6.42 0
M  V30 25775 H 4168.88 -5.02657 -6.42673 0
M  V30 25776 H 4166.22 -4.11708 -4.08956 0
M  V30 25777 H 4165.94 -2.49626 -6.61679 0
M  V30 25778 H 4164.95 -3.8662 -6.00862 0
M  V30 25779 H 4166.79 -4.29991 -7.97006 0
M  V30 25780 H 4166.83 -0.702451 -5.84696 0
M  V30 25781 H 4166.45 2.09647 -1.89651 0
M  V30 25782 H 4166.26 1.73358 -0.160575 0
M  V30 25783 H 4166.15 -2.71695 0.195838 0
M  V30 25784 P 4164.92 -6.144 -6.45285 0
M  V30 25785 O 4164.7 -7.54673 -6.86199 0
M  V30 25786 O 4164.13 -5.12391 -7.179 0
M  V30 25787 O 4164.67 -5.99158 -4.88404 0
M  V30 25788 C 4165.61 -6.60234 -3.96415 0
M  V30 25789 C 4164.88 -7.08259 -2.72856 0
M  V30 25790 O 4164.67 -5.9427 -1.83651 0
M  V30 25791 C 4163.48 -7.64886 -2.9555 0
M  V30 25792 O 4163.09 -8.53963 -1.90717 0
M  V30 25793 C 4162.6 -6.4116 -2.90739 0
M  V30 25794 C 4163.31 -5.55375 -1.86963 0
M  V30 25795 N 4163.26 -4.09448 -2.16152 0
M  V30 25796 H 4166.09 -7.45574 -4.45629 0
M  V30 25797 H 4166.37 -5.85864 -3.679 0
M  V30 25798 H 4165.5 -7.84412 -2.24479 0
M  V30 25799 H 4162.84 -5.73457 -0.888562 0
M  V30 25800 H 4162.56 -5.90877 -3.88583 0
M  V30 25801 H 4161.57 -6.6596 -2.58858 0
M  V30 25802 H 4163.41 -8.16339 -3.92049 0
M  V30 25803 P 4161.54 -8.7635 -1.60911 0
M  V30 25804 O 4161.32 -10.1388 -1.11561 0
M  V30 25805 O 4160.75 -8.36503 -2.79617 0
M  V30 25806 O 4161.29 -7.71806 -0.42951 0
M  V30 25807 C 4162.23 -7.67148 0.673689 0
M  V30 25808 C 4161.5 -7.33374 1.95559 0
M  V30 25809 O 4161.29 -5.88721 2.00726 0
M  V30 25810 C 4160.1 -7.92526 2.10483 0
M  V30 25811 O 4159.71 -8.02971 3.47653 0
M  V30 25812 C 4159.22 -6.89602 1.41652 0
M  V30 25813 C 4159.93 -5.59201 1.75185 0
M  V30 25814 N 4159.88 -4.58235 0.662552 0
M  V30 25815 H 4162.71 -8.65116 0.777161 0
M  V30 25816 H 4162.99 -6.90173 0.474152 0
M  V30 25817 H 4162.12 -7.66548 2.79458 0
M  V30 25818 P 4158.16 -8.03563 3.84925 0
M  V30 25819 O 4157.94 -8.85821 5.0569 0
M  V30 25820 O 4157.37 -8.41101 2.65469 0
M  V30 25821 O 4157.91 -6.4965 4.18908 0
M  V30 25822 C 4158.85 -5.80886 5.05289 0
M  V30 25823 C 4158.12 -4.78366 5.89277 0
M  V30 25824 O 4157.91 -3.58302 5.08433 0
M  V30 25825 C 4156.72 -5.16748 6.36559 0
M  V30 25826 O 4156.33 -4.45271 7.53232 0
M  V30 25827 C 4155.84 -4.74572 5.19863 0
M  V30 25828 C 4156.55 -3.49373 4.70338 0
M  V30 25829 N 4156.5 -3.31704 3.22876 0
M  V30 25830 C 4156.35 -2.03326 2.74871 0
M  V30 25831 O 4156.26 -1.06486 3.48076 0
M  V30 25832 N 4156.31 -1.91838 1.37456 0
M  V30 25833 C 4156.4 -2.94295 0.462035 0
M  V30 25834 O 4156.35 -2.71763 -0.752928 0
M  V30 25835 C 4156.55 -4.25064 1.05249 0
M  V30 25836 C 4156.66 -5.39815 0.095697 0
M  V30 25837 C 4156.6 -4.40214 2.39192 0
M  V30 25838 H 4159.34 -6.54063 5.71245 0
M  V30 25839 H 4159.61 -5.30339 4.43905 0
M  V30 25840 H 4158.74 -4.55889 6.76652 0
M  V30 25841 H 4156.08 -2.6167 5.17842 0
M  V30 25842 H 4155.8 -5.52155 4.41878 0
M  V30 25843 H 4154.81 -4.51918 5.53297 0
M  V30 25844 H 4156.65 -6.25055 6.55162 0
M  V30 25845 H 4156.72 -5.39798 2.81523 0
M  V30 25846 H 4155.69 -5.91593 0.0279582 0
M  V30 25847 H 4157.42 -6.10038 0.450573 0
M  V30 25848 H 4156.94 -5.02007 -0.89937 0
M  V30 25849 H 4156.2 -0.995326 1.00435 0
M  V30 25850 P 4154.78 -4.23843 7.83734 0
M  V30 25851 O 4154.56 -4.19407 9.29784 0
M  V30 25852 O 4153.99 -5.24426 7.09156 0
M  V30 25853 O 4154.53 -2.7935 7.20758 0
M  V30 25854 C 4155.47 -1.72945 7.50224 0
M  V30 25855 C 4154.74 -0.406376 7.57911 0
M  V30 25856 O 4154.53 0.0897726 6.21935 0
M  V30 25857 C 4153.34 -0.438983 8.18724 0
M  V30 25858 O 4152.95 0.825065 8.71101 0
M  V30 25859 C 4152.46 -0.783689 6.99524 0
M  V30 25860 C 4153.17 -0.0619086 5.85867 0
M  V30 25861 N 4153.12 -0.78573 4.56183 0
M  V30 25862 C 4152.97 -0.0292889 3.41887 0
M  V30 25863 O 4152.88 1.18445 3.4419 0
M  V30 25864 N 4152.93 -0.744061 2.23964 0
M  V30 25865 C 4153.02 -2.10932 2.10362 0
M  V30 25866 C 4153.17 -2.8202 3.34994 0
M  V30 25867 C 4153.22 -2.15547 4.52261 0
M  V30 25868 H 4155.96 -1.93379 8.46595 0
M  V30 25869 H 4156.23 -1.68132 6.70852 0
M  V30 25870 H 4155.36 0.289041 8.15388 0
M  V30 25871 H 4152.7 0.926847 5.72749 0
M  V30 25872 H 4152.42 -1.86973 6.82036 0
M  V30 25873 H 4151.43 -0.403896 7.13257 0
M  V30 25874 H 4153.27 -1.20585 8.97435 0
M  V30 25875 H 4153.34 -2.71231 5.45042 0
M  V30 25876 P 4151.4 1.17771 8.83182 0
M  V30 25877 O 4151.18 2.07206 9.98732 0
M  V30 25878 O 4150.61 -0.0743816 8.81969 0
M  V30 25879 O 4151.15 1.97652 7.47304 0
M  V30 25880 C 4152.09 3.01133 7.08783 0
M  V30 25881 C 4151.36 4.12613 6.37049 0
M  V30 25882 O 4151.15 3.72827 4.97879 0
M  V30 25883 C 4149.96 4.45085 6.88694 0
M  V30 25884 O 4149.57 5.7877 6.5624 0
M  V30 25885 C 4149.08 3.47817 6.12078 0
M  V30 25886 C 4149.79 3.39414 4.77697 0
M  V30 25887 N 4149.74 2.04615 4.15333 0
M  V30 25888 H 4152.57 3.41248 7.98759 0
M  V30 25889 H 4152.85 2.5837 6.41742 0
M  V30 25890 H 4151.98 5.02657 6.42673 0
M  V30 25891 P 4148.02 6.144 6.45285 0
M  V30 25892 O 4147.8 7.54673 6.86199 0
M  V30 25893 O 4147.23 5.12391 7.179 0
M  V30 25894 O 4147.77 5.99158 4.88404 0
M  V30 25895 C 4148.71 6.60234 3.96415 0
M  V30 25896 C 4147.98 7.08259 2.72856 0
M  V30 25897 O 4147.77 5.9427 1.83651 0
M  V30 25898 C 4146.58 7.64886 2.9555 0
M  V30 25899 O 4146.19 8.53963 1.90717 0
M  V30 25900 C 4145.7 6.4116 2.90739 0
M  V30 25901 C 4146.41 5.55375 1.86963 0
M  V30 25902 N 4146.36 4.09664 2.15742 0
M  V30 25903 H 4149.19 7.45574 4.45629 0
M  V30 25904 H 4149.47 5.86232 3.67314 0
M  V30 25905 H 4148.6 7.84412 2.24479 0
M  V30 25906 P 4144.64 8.7635 1.60911 0
M  V30 25907 O 4144.42 10.1388 1.11561 0
M  V30 25908 O 4143.85 8.36503 2.79617 0
M  V30 25909 O 4144.39 7.71806 0.42951 0
M  V30 25910 C 4145.33 7.67148 -0.673689 0
M  V30 25911 C 4144.6 7.33374 -1.95559 0
M  V30 25912 O 4144.39 5.88721 -2.00726 0
M  V30 25913 C 4143.2 7.92526 -2.10483 0
M  V30 25914 O 4142.81 8.02971 -3.47653 0
M  V30 25915 C 4142.32 6.89602 -1.41652 0
M  V30 25916 C 4143.03 5.59201 -1.75185 0
M  V30 25917 N 4142.98 4.58235 -0.662552 0
M  V30 25918 H 4145.81 8.65116 -0.777161 0
M  V30 25919 H 4146.09 6.90173 -0.474152 0
M  V30 25920 H 4145.22 7.66548 -2.79458 0
M  V30 25921 P 4141.26 8.03563 -3.84925 0
M  V30 25922 O 4141.04 8.85821 -5.0569 0
M  V30 25923 O 4140.47 8.41101 -2.65469 0
M  V30 25924 O 4141.01 6.4965 -4.18908 0
M  V30 25925 C 4141.95 5.80886 -5.05289 0
M  V30 25926 C 4141.22 4.78366 -5.89277 0
M  V30 25927 O 4141.01 3.58302 -5.08433 0
M  V30 25928 C 4139.82 5.16748 -6.36559 0
M  V30 25929 O 4139.43 4.45271 -7.53232 0
M  V30 25930 C 4138.94 4.74572 -5.19863 0
M  V30 25931 C 4139.65 3.49373 -4.70338 0
M  V30 25932 N 4139.6 3.31704 -3.22876 0
M  V30 25933 C 4139.45 2.03326 -2.74871 0
M  V30 25934 O 4139.36 1.06486 -3.48076 0
M  V30 25935 N 4139.41 1.91838 -1.37456 0
M  V30 25936 C 4139.5 2.94295 -0.462035 0
M  V30 25937 C 4139.65 4.25064 -1.05249 0
M  V30 25938 C 4139.7 4.40214 -2.39192 0
M  V30 25939 H 4142.44 6.54063 -5.71245 0
M  V30 25940 H 4142.71 5.30339 -4.43905 0
M  V30 25941 H 4141.84 4.55889 -6.76652 0
M  V30 25942 H 4139.18 2.6167 -5.17842 0
M  V30 25943 H 4138.9 5.52155 -4.41878 0
M  V30 25944 H 4137.91 4.51918 -5.53297 0
M  V30 25945 H 4139.75 6.25055 -6.55162 0
M  V30 25946 H 4139.82 5.39798 -2.81523 0
M  V30 25947 P 4137.88 4.23843 -7.83734 0
M  V30 25948 O 4137.66 4.19407 -9.29784 0
M  V30 25949 O 4137.09 5.24426 -7.09156 0
M  V30 25950 O 4137.63 2.7935 -7.20758 0
M  V30 25951 C 4138.57 1.72945 -7.50224 0
M  V30 25952 C 4137.84 0.406376 -7.57911 0
M  V30 25953 O 4137.63 -0.0897726 -6.21935 0
M  V30 25954 C 4136.44 0.438983 -8.18724 0
M  V30 25955 O 4136.05 -0.825065 -8.71101 0
M  V30 25956 C 4135.56 0.783689 -6.99524 0
M  V30 25957 C 4136.27 0.0619086 -5.85867 0
M  V30 25958 N 4136.22 0.78573 -4.56183 0
M  V30 25959 C 4136.07 0.0292889 -3.41887 0
M  V30 25960 O 4135.98 -1.18445 -3.4419 0
M  V30 25961 N 4136.03 0.744061 -2.23964 0
M  V30 25962 C 4136.12 2.10932 -2.10362 0
M  V30 25963 C 4136.27 2.8202 -3.34994 0
M  V30 25964 C 4136.32 2.15547 -4.52261 0
M  V30 25965 H 4139.06 1.93379 -8.46595 0
M  V30 25966 H 4139.33 1.68132 -6.70852 0
M  V30 25967 H 4138.46 -0.289041 -8.15388 0
M  V30 25968 H 4135.8 -0.926847 -5.72749 0
M  V30 25969 H 4135.52 1.86973 -6.82036 0
M  V30 25970 H 4134.53 0.403896 -7.13257 0
M  V30 25971 H 4136.37 1.20585 -8.97435 0
M  V30 25972 H 4136.44 2.71231 -5.45042 0
M  V30 25973 P 4134.5 -1.17771 -8.83182 0
M  V30 25974 O 4134.28 -2.07206 -9.98732 0
M  V30 25975 O 4133.71 0.0743816 -8.81969 0
M  V30 25976 O 4134.25 -1.97652 -7.47304 0
M  V30 25977 C 4135.19 -3.01133 -7.08783 0
M  V30 25978 C 4134.46 -4.12613 -6.37049 0
M  V30 25979 O 4134.25 -3.72827 -4.97879 0
M  V30 25980 C 4133.06 -4.45085 -6.88694 0
M  V30 25981 O 4132.67 -5.7877 -6.5624 0
M  V30 25982 C 4132.18 -3.47817 -6.12078 0
M  V30 25983 C 4132.89 -3.39414 -4.77697 0
M  V30 25984 N 4132.84 -2.04199 -4.15538 0
M  V30 25985 C 4132.92 -0.821545 -4.76977 0
M  V30 25986 N 4132.85 0.1794 -3.94592 0
M  V30 25987 C 4132.7 -0.419121 -2.70776 0
M  V30 25988 C 4132.57 0.109072 -1.40577 0
M  V30 25989 N 4132.56 1.4104 -1.1344 0
M  V30 25990 N 4132.45 -0.764381 -0.39411 0
M  V30 25991 C 4132.46 -2.06587 -0.664135 0
M  V30 25992 N 4132.58 -2.67948 -1.82153 0
M  V30 25993 C 4132.7 -1.77942 -2.8147 0
M  V30 25994 H 4135.67 -3.41248 -7.98759 0
M  V30 25995 H 4135.95 -2.57728 -6.42 0
M  V30 25996 H 4135.08 -5.02657 -6.42673 0
M  V30 25997 H 4132.42 -4.11708 -4.08956 0
M  V30 25998 H 4132.14 -2.49626 -6.61679 0
M  V30 25999 H 4131.15 -3.8662 -6.00862 0
M  V30 26000 H 4132.99 -4.29991 -7.97006 0
M  V30 26001 H 4133.03 -0.702451 -5.84696 0
M  V30 26002 H 4132.65 2.09647 -1.89651 0
M  V30 26003 H 4132.46 1.73358 -0.160575 0
M  V30 26004 H 4132.35 -2.71695 0.195838 0
M  V30 26005 P 4131.12 -6.144 -6.45285 0
M  V30 26006 O 4130.9 -7.54673 -6.86199 0
M  V30 26007 O 4130.33 -5.12391 -7.179 0
M  V30 26008 O 4130.87 -5.99158 -4.88404 0
M  V30 26009 C 4131.81 -6.60234 -3.96415 0
M  V30 26010 C 4131.08 -7.08259 -2.72856 0
M  V30 26011 O 4130.87 -5.9427 -1.83651 0
M  V30 26012 C 4129.68 -7.64886 -2.9555 0
M  V30 26013 O 4129.29 -8.53963 -1.90717 0
M  V30 26014 C 4128.8 -6.4116 -2.90739 0
M  V30 26015 C 4129.51 -5.55375 -1.86963 0
M  V30 26016 N 4129.46 -4.09664 -2.15742 0
M  V30 26017 H 4132.29 -7.45574 -4.45629 0
M  V30 26018 H 4132.57 -5.86232 -3.67314 0
M  V30 26019 H 4131.7 -7.84412 -2.24479 0
M  V30 26020 P 4127.74 -8.7635 -1.60911 0
M  V30 26021 O 4127.52 -10.1388 -1.11561 0
M  V30 26022 O 4126.95 -8.36503 -2.79617 0
M  V30 26023 O 4127.49 -7.71806 -0.42951 0
M  V30 26024 C 4128.43 -7.67148 0.673689 0
M  V30 26025 C 4127.7 -7.33374 1.95559 0
M  V30 26026 O 4127.49 -5.88721 2.00726 0
M  V30 26027 C 4126.3 -7.92526 2.10483 0
M  V30 26028 O 4125.91 -8.02971 3.47653 0
M  V30 26029 C 4125.42 -6.89602 1.41652 0
M  V30 26030 C 4126.13 -5.59201 1.75185 0
M  V30 26031 N 4126.08 -4.58235 0.662552 0
M  V30 26032 H 4128.91 -8.65116 0.777161 0
M  V30 26033 H 4129.19 -6.90173 0.474152 0
M  V30 26034 H 4128.32 -7.66548 2.79458 0
M  V30 26035 P 4124.36 -8.03563 3.84925 0
M  V30 26036 O 4124.14 -8.85821 5.0569 0
M  V30 26037 O 4123.57 -8.41101 2.65469 0
M  V30 26038 O 4124.11 -6.4965 4.18908 0
M  V30 26039 C 4125.05 -5.80886 5.05289 0
M  V30 26040 C 4124.32 -4.78366 5.89277 0
M  V30 26041 O 4124.11 -3.58302 5.08433 0
M  V30 26042 C 4122.92 -5.16748 6.36559 0
M  V30 26043 O 4122.53 -4.45271 7.53232 0
M  V30 26044 C 4122.04 -4.74572 5.19863 0
M  V30 26045 C 4122.75 -3.49373 4.70338 0
M  V30 26046 N 4122.7 -3.31704 3.22876 0
M  V30 26047 C 4122.55 -2.03326 2.74871 0
M  V30 26048 O 4122.46 -1.06486 3.48076 0
M  V30 26049 N 4122.51 -1.91838 1.37456 0
M  V30 26050 C 4122.6 -2.94295 0.462035 0
M  V30 26051 O 4122.55 -2.71763 -0.752928 0
M  V30 26052 C 4122.75 -4.25064 1.05249 0
M  V30 26053 C 4122.86 -5.39815 0.095697 0
M  V30 26054 C 4122.8 -4.40214 2.39192 0
M  V30 26055 H 4125.54 -6.54063 5.71245 0
M  V30 26056 H 4125.81 -5.30339 4.43905 0
M  V30 26057 H 4124.94 -4.55889 6.76652 0
M  V30 26058 H 4122.28 -2.6167 5.17842 0
M  V30 26059 H 4122 -5.52155 4.41878 0
M  V30 26060 H 4121.01 -4.51918 5.53297 0
M  V30 26061 H 4122.85 -6.25055 6.55162 0
M  V30 26062 H 4122.92 -5.39798 2.81523 0
M  V30 26063 H 4121.89 -5.91593 0.0279582 0
M  V30 26064 H 4123.62 -6.10038 0.450573 0
M  V30 26065 H 4123.14 -5.02007 -0.89937 0
M  V30 26066 H 4122.4 -0.995326 1.00435 0
M  V30 26067 P 4120.98 -4.23843 7.83734 0
M  V30 26068 O 4120.76 -4.19407 9.29784 0
M  V30 26069 O 4120.19 -5.24426 7.09156 0
M  V30 26070 O 4120.73 -2.7935 7.20758 0
M  V30 26071 C 4121.67 -1.7299 7.50419 0
M  V30 26072 C 4120.94 -0.406376 7.57911 0
M  V30 26073 O 4120.73 0.0897726 6.21935 0
M  V30 26074 C 4119.54 -0.447224 8.1878 0
M  V30 26075 O 4119.15 0.825065 8.71101 0
M  V30 26076 C 4118.66 -0.783801 6.99623 0
M  V30 26077 C 4119.37 -0.0619192 5.85967 0
M  V30 26078 N 4119.32 -0.790462 4.56202 0
M  V30 26079 C 4119.4 -2.13895 4.34171 0
M  V30 26080 N 4119.33 -2.46449 3.08687 0
M  V30 26081 C 4119.18 -1.2525 2.43697 0
M  V30 26082 C 4119.05 -0.914535 1.07318 0
M  V30 26083 N 4119.04 -1.80782 0.0887348 0
M  V30 26084 N 4118.93 0.386745 0.768133 0
M  V30 26085 C 4118.94 1.28096 1.75159 0
M  V30 26086 N 4119.06 1.09708 3.04861 0
M  V30 26087 C 4119.18 -0.214857 3.32306 0
M  V30 26088 H 4122.15 -1.93423 8.4679 0
M  V30 26089 H 4122.43 -1.68852 6.70877 0
M  V30 26090 H 4121.56 0.289041 8.15388 0
M  V30 26091 H 4118.9 0.927006 5.72848 0
M  V30 26092 H 4118.62 -1.86973 6.82036 0
M  V30 26093 H 4117.63 -0.403953 7.13357 0
M  V30 26094 H 4119.47 -1.20599 8.97534 0
M  V30 26095 H 4119.51 -2.86846 5.14318 0
M  V30 26096 H 4119.13 -2.81082 0.302037 0
M  V30 26097 H 4118.94 -1.49688 -0.889064 0
M  V30 26098 H 4118.83 2.31317 1.43855 0
M  V30 26099 P 4117.6 1.17771 8.83182 0
M  V30 26100 O 4117.38 2.07206 9.98732 0
M  V30 26101 O 4116.81 -0.0743816 8.81969 0
M  V30 26102 O 4117.35 1.97652 7.47304 0
M  V30 26103 C 4118.29 3.01055 7.08599 0
M  V30 26104 C 4117.56 4.12613 6.37049 0
M  V30 26105 O 4117.35 3.72827 4.97879 0
M  V30 26106 C 4116.16 4.45719 6.88164 0
M  V30 26107 O 4115.77 5.7877 6.5624 0
M  V30 26108 C 4115.28 3.47768 6.11991 0
M  V30 26109 C 4115.99 3.39356 4.77615 0
M  V30 26110 N 4115.94 2.04571 4.15244 0
M  V30 26111 C 4115.79 1.98587 2.78314 0
M  V30 26112 O 4115.7 2.98134 2.08835 0
M  V30 26113 N 4115.75 0.714467 2.24925 0
M  V30 26114 C 4115.84 -0.470001 2.94169 0
M  V30 26115 O 4115.79 -1.55587 2.35195 0
M  V30 26116 C 4115.99 -0.312541 4.36783 0
M  V30 26117 C 4116.1 -1.57711 5.16352 0
M  V30 26118 C 4116.04 0.914512 4.92583 0
M  V30 26119 H 4118.78 3.41169 7.98575 0
M  V30 26120 H 4119.05 2.58295 6.41556 0
M  V30 26121 H 4118.18 5.02657 6.42673 0
M  V30 26122 H 4115.52 4.11637 4.08885 0
M  V30 26123 H 4115.24 2.49626 6.61679 0
M  V30 26124 H 4114.25 3.86566 6.00778 0
M  V30 26125 H 4116.09 4.29943 7.96918 0
M  V30 26126 H 4116.16 1.00937 6.00374 0
M  V30 26127 H 4115.13 -1.80153 5.63503 0
M  V30 26128 H 4116.86 -1.4566 5.94104 0
M  V30 26129 H 4116.38 -2.40664 4.49645 0
M  V30 26130 H 4115.64 0.647622 1.25697 0
M  V30 26131 P 4114.22 6.144 6.45285 0
M  V30 26132 O 4114 7.54673 6.86199 0
M  V30 26133 O 4113.43 5.12391 7.179 0
M  V30 26134 O 4113.97 5.99236 4.88467 0
M  V30 26135 C 4114.91 6.60234 3.96415 0
M  V30 26136 C 4114.18 7.08079 2.736 0
M  V30 26137 O 4113.97 5.94365 1.8368 0
M  V30 26138 C 4112.78 7.64886 2.9555 0
M  V30 26139 O 4112.39 8.5406 1.90739 0
M  V30 26140 C 4111.9 6.4116 2.90739 0
M  V30 26141 C 4112.61 5.55375 1.86963 0
M  V30 26142 N 4112.56 4.09664 2.15742 0
M  V30 26143 C 4112.41 3.22231 1.08477 0
M  V30 26144 O 4112.32 3.68951 -0.0600489 0
M  V30 26145 N 4112.36 1.76692 1.48799 0
M  V30 26146 C 4112.46 1.41695 2.57602 0
M  V30 26147 N 4112.41 0.107296 2.75791 0
M  V30 26148 C 4112.61 2.29178 3.69733 0
M  V30 26149 C 4112.66 3.62753 3.42653 0
M  V30 26150 H 4115.4 7.45488 4.45578 0
M  V30 26151 H 4115.67 5.86232 3.67314 0
M  V30 26152 H 4114.8 7.84508 2.24507 0
M  V30 26153 H 4112.14 5.73556 0.888715 0
M  V30 26154 H 4111.86 5.9096 3.88638 0
M  V30 26155 H 4110.87 6.66053 2.58894 0
M  V30 26156 H 4112.71 8.16339 3.92049 0
M  V30 26157 H 4112.78 4.33052 4.24913 0
M  V30 26158 H 4112.68 1.9103 4.71577 0
M  V30 26159 H 4112.29 -0.521221 1.95056 0
M  V30 26160 H 4112.48 -0.286429 3.70695 0
M  V30 26161 P 4110.84 8.7635 1.60911 0
M  V30 26162 O 4110.62 10.1388 1.11561 0
M  V30 26163 O 4110.05 8.36503 2.79617 0
M  V30 26164 O 4110.59 7.71806 0.42951 0
M  V30 26165 C 4111.53 7.66948 -0.673514 0
M  V30 26166 C 4110.8 7.33374 -1.95559 0
M  V30 26167 O 4110.59 5.88721 -2.00726 0
M  V30 26168 C 4109.4 7.92218 -2.1125 0
M  V30 26169 O 4109.01 8.02971 -3.47653 0
M  V30 26170 C 4108.52 6.89504 -1.41631 0
M  V30 26171 C 4109.23 5.59106 -1.75155 0
M  V30 26172 N 4109.18 4.58136 -0.662409 0
M  V30 26173 C 4109.03 3.26059 -1.02863 0
M  V30 26174 O 4108.94 2.90743 -2.19009 0
M  V30 26175 N 4108.99 2.35995 0.0155585 0
M  V30 26176 C 4109.08 2.65248 1.35603 0
M  V30 26177 O 4109.03 1.75605 2.20651 0
M  V30 26178 C 4109.23 4.05747 1.64698 0
M  V30 26179 C 4109.34 4.42345 3.09553 0
M  V30 26180 C 4109.28 4.96734 0.652411 0
M  V30 26181 H 4112.02 8.64917 -0.776982 0
M  V30 26182 H 4112.29 6.89974 -0.474015 0
M  V30 26183 H 4111.42 7.66548 -2.79458 0
M  V30 26184 H 4108.76 5.16076 -2.65138 0
M  V30 26185 H 4108.48 7.06433 -0.329384 0
M  V30 26186 H 4107.49 6.90829 -1.81996 0
M  V30 26187 H 4109.33 8.90774 -1.62639 0
M  V30 26188 H 4109.4 6.02181 0.895285 0
M  V30 26189 H 4108.37 4.80252 3.45468 0
M  V30 26190 H 4110.1 5.20015 3.22119 0
M  V30 26191 H 4109.62 3.53269 3.67833 0
M  V30 26192 H 4108.88 1.39558 -0.227499 0
M  V30 26193 P 4107.46 8.03563 -3.84925 0
M  V30 26194 O 4107.24 8.85821 -5.0569 0
M  V30 26195 O 4106.67 8.41101 -2.65469 0
M  V30 26196 O 4107.21 6.49734 -4.18962 0
M  V30 26197 C 4108.15 5.81037 -5.05421 0
M  V30 26198 C 4107.42 4.79018 -5.88876 0
M  V30 26199 O 4107.21 3.58359 -5.08515 0
M  V30 26200 C 4106.02 5.17448 -6.36119 0
M  V30 26201 O 4105.63 4.45322 -7.53318 0
M  V30 26202 C 4105.14 4.74639 -5.19936 0
M  V30 26203 C 4105.85 3.49432 -4.70418 0
M  V30 26204 N 4105.8 3.31776 -3.22945 0
M  V30 26205 C 4105.65 2.02742 -2.72939 0
M  V30 26206 O 4105.56 1.08301 -3.52749 0
M  V30 26207 N 4105.6 1.96117 -1.22063 0
M  V30 26208 C 4105.7 2.8878 -0.551566 0
M  V30 26209 N 4105.65 2.65609 0.750198 0
M  V30 26210 C 4105.85 4.22457 -1.03707 0
M  V30 26211 C 4105.9 4.37979 -2.39113 0
M  V30 26212 H 4108.64 6.54138 -5.7131 0
M  V30 26213 H 4108.91 5.30492 -4.44033 0
M  V30 26214 H 4108.04 4.55945 -6.76735 0
M  V30 26215 H 4105.38 2.6176 -5.18021 0
M  V30 26216 H 4105.1 5.52233 -4.41941 0
M  V30 26217 H 4104.11 4.52045 -5.53452 0
M  V30 26218 H 4105.95 6.25124 -6.55234 0
M  V30 26219 H 4106.02 5.37936 -2.80552 0
M  V30 26220 H 4105.92 5.07528 -0.359553 0
M  V30 26221 H 4105.53 1.69403 1.09847 0
M  V30 26222 H 4105.72 3.43701 1.41792 0
M  V30 26223 P 4104.08 4.23843 -7.83734 0
M  V30 26224 O 4103.86 4.19407 -9.29784 0
M  V30 26225 O 4103.29 5.24426 -7.09156 0
M  V30 26226 O 4103.83 2.7935 -7.20758 0
M  V30 26227 C 4104.77 1.7299 -7.50419 0
M  V30 26228 C 4104.04 0.406376 -7.57911 0
M  V30 26229 O 4103.83 -0.0897726 -6.21935 0
M  V30 26230 C 4102.64 0.447224 -8.1878 0
M  V30 26231 O 4102.25 -0.825065 -8.71101 0
M  V30 26232 C 4101.76 0.783801 -6.99623 0
M  V30 26233 C 4102.47 0.0619192 -5.85967 0
M  V30 26234 N 4102.42 0.7859 -4.56281 0
M  V30 26235 H 4105.25 1.93423 -8.4679 0
M  V30 26236 H 4105.53 1.68181 -6.71046 0
M  V30 26237 H 4104.66 -0.289041 -8.15388 0
M  V30 26238 P 4100.7 -1.17771 -8.83182 0
M  V30 26239 O 4100.48 -2.07206 -9.98732 0
M  V30 26240 O 4099.91 0.0743816 -8.81969 0
M  V30 26241 O 4100.45 -1.97652 -7.47304 0
M  V30 26242 C 4101.39 -3.01055 -7.08599 0
M  V30 26243 C 4100.66 -4.12613 -6.37049 0
M  V30 26244 O 4100.45 -3.72827 -4.97879 0
M  V30 26245 C 4099.26 -4.45719 -6.88164 0
M  V30 26246 O 4098.87 -5.7877 -6.5624 0
M  V30 26247 C 4098.38 -3.47768 -6.11991 0
M  V30 26248 C 4099.09 -3.39356 -4.77615 0
M  V30 26249 N 4099.04 -2.04571 -4.15244 0
M  V30 26250 C 4098.89 -1.98587 -2.78314 0
M  V30 26251 O 4098.8 -2.98134 -2.08835 0
M  V30 26252 N 4098.85 -0.714467 -2.24925 0
M  V30 26253 C 4098.94 0.470001 -2.94169 0
M  V30 26254 O 4098.89 1.55587 -2.35195 0
M  V30 26255 C 4099.09 0.312541 -4.36783 0
M  V30 26256 C 4099.2 1.57711 -5.16352 0
M  V30 26257 C 4099.14 -0.914512 -4.92583 0
M  V30 26258 H 4101.88 -3.41169 -7.98575 0
M  V30 26259 H 4102.15 -2.58295 -6.41556 0
M  V30 26260 H 4101.28 -5.02657 -6.42673 0
M  V30 26261 H 4098.62 -4.11637 -4.08885 0
M  V30 26262 H 4098.34 -2.49626 -6.61679 0
M  V30 26263 H 4097.35 -3.86566 -6.00778 0
M  V30 26264 H 4099.19 -4.29943 -7.96918 0
M  V30 26265 H 4099.26 -1.00937 -6.00374 0
M  V30 26266 H 4098.23 1.80153 -5.63503 0
M  V30 26267 H 4099.96 1.4566 -5.94104 0
M  V30 26268 H 4099.48 2.40664 -4.49645 0
M  V30 26269 H 4098.74 -0.647622 -1.25697 0
M  V30 26270 P 4097.32 -6.144 -6.45285 0
M  V30 26271 O 4097.1 -7.54673 -6.86199 0
M  V30 26272 O 4096.53 -5.12391 -7.179 0
M  V30 26273 O 4097.07 -5.99236 -4.88467 0
M  V30 26274 C 4098.01 -6.60234 -3.96415 0
M  V30 26275 C 4097.28 -7.08079 -2.736 0
M  V30 26276 O 4097.07 -5.94365 -1.8368 0
M  V30 26277 C 4095.88 -7.64886 -2.9555 0
M  V30 26278 O 4095.49 -8.5406 -1.90739 0
M  V30 26279 C 4095 -6.4116 -2.90739 0
M  V30 26280 C 4095.71 -5.55375 -1.86963 0
M  V30 26281 N 4095.66 -4.09664 -2.15742 0
M  V30 26282 C 4095.51 -3.22231 -1.08477 0
M  V30 26283 O 4095.42 -3.68951 0.0600489 0
M  V30 26284 N 4095.46 -1.76692 -1.48799 0
M  V30 26285 C 4095.56 -1.41695 -2.57602 0
M  V30 26286 N 4095.51 -0.107296 -2.75791 0
M  V30 26287 C 4095.71 -2.29178 -3.69733 0
M  V30 26288 C 4095.76 -3.62753 -3.42653 0
M  V30 26289 H 4098.5 -7.45488 -4.45578 0
M  V30 26290 H 4098.77 -5.86232 -3.67314 0
M  V30 26291 H 4097.9 -7.84508 -2.24507 0
M  V30 26292 H 4095.24 -5.73556 -0.888715 0
M  V30 26293 H 4094.96 -5.9096 -3.88638 0
M  V30 26294 H 4093.97 -6.66053 -2.58894 0
M  V30 26295 H 4095.81 -8.16339 -3.92049 0
M  V30 26296 H 4095.88 -4.33052 -4.24913 0
M  V30 26297 H 4095.78 -1.9103 -4.71577 0
M  V30 26298 H 4095.39 0.521221 -1.95056 0
M  V30 26299 H 4095.58 0.286429 -3.70695 0
M  V30 26300 P 4093.94 -8.7635 -1.60911 0
M  V30 26301 O 4093.72 -10.1388 -1.11561 0
M  V30 26302 O 4093.15 -8.36503 -2.79617 0
M  V30 26303 O 4093.69 -7.71806 -0.42951 0
M  V30 26304 C 4094.63 -7.67148 0.673689 0
M  V30 26305 C 4093.9 -7.33374 1.95559 0
M  V30 26306 O 4093.69 -5.88721 2.00726 0
M  V30 26307 C 4092.5 -7.92526 2.10483 0
M  V30 26308 O 4092.11 -8.02971 3.47653 0
M  V30 26309 C 4091.62 -6.89602 1.41652 0
M  V30 26310 C 4092.33 -5.59201 1.75185 0
M  V30 26311 N 4092.28 -4.58235 0.662552 0
M  V30 26312 H 4095.11 -8.65116 0.777161 0
M  V30 26313 H 4095.39 -6.90173 0.474152 0
M  V30 26314 H 4094.52 -7.66548 2.79458 0
M  V30 26315 P 4090.56 -8.03563 3.84925 0
M  V30 26316 O 4090.34 -8.85821 5.0569 0
M  V30 26317 O 4089.77 -8.41101 2.65469 0
M  V30 26318 O 4090.31 -6.49734 4.18962 0
M  V30 26319 C 4091.25 -5.81037 5.05421 0
M  V30 26320 C 4090.52 -4.79018 5.88876 0
M  V30 26321 O 4090.31 -3.58359 5.08515 0
M  V30 26322 C 4089.12 -5.17448 6.36119 0
M  V30 26323 O 4088.73 -4.45322 7.53318 0
M  V30 26324 C 4088.24 -4.74639 5.19936 0
M  V30 26325 C 4088.95 -3.49432 4.70418 0
M  V30 26326 N 4088.9 -3.31776 3.22945 0
M  V30 26327 C 4088.75 -2.02742 2.72939 0
M  V30 26328 O 4088.66 -1.08301 3.52749 0
M  V30 26329 N 4088.7 -1.96117 1.22063 0
M  V30 26330 C 4088.8 -2.8878 0.551566 0
M  V30 26331 N 4088.75 -2.65609 -0.750198 0
M  V30 26332 C 4088.95 -4.22457 1.03707 0
M  V30 26333 C 4089 -4.37979 2.39113 0
M  V30 26334 H 4091.74 -6.54138 5.7131 0
M  V30 26335 H 4092.01 -5.30492 4.44033 0
M  V30 26336 H 4091.14 -4.55945 6.76735 0
M  V30 26337 H 4088.48 -2.6176 5.18021 0
M  V30 26338 H 4088.2 -5.52233 4.41941 0
M  V30 26339 H 4087.21 -4.52045 5.53452 0
M  V30 26340 H 4089.05 -6.25124 6.55234 0
M  V30 26341 H 4089.12 -5.37936 2.80552 0
M  V30 26342 H 4089.02 -5.07528 0.359553 0
M  V30 26343 H 4088.63 -1.69403 -1.09847 0
M  V30 26344 H 4088.82 -3.43701 -1.41792 0
M  V30 26345 P 4087.18 -4.23843 7.83734 0
M  V30 26346 O 4086.96 -4.19407 9.29784 0
M  V30 26347 O 4086.39 -5.24426 7.09156 0
M  V30 26348 O 4086.93 -2.7935 7.20758 0
M  V30 26349 C 4087.87 -1.72945 7.50224 0
M  V30 26350 C 4087.14 -0.406376 7.57911 0
M  V30 26351 O 4086.93 0.0897726 6.21935 0
M  V30 26352 C 4085.74 -0.438983 8.18724 0
M  V30 26353 O 4085.35 0.825065 8.71101 0
M  V30 26354 C 4084.86 -0.783689 6.99524 0
M  V30 26355 C 4085.57 -0.0619086 5.85867 0
M  V30 26356 N 4085.52 -0.78573 4.56183 0
M  V30 26357 C 4085.37 -0.0292889 3.41887 0
M  V30 26358 O 4085.28 1.18445 3.4419 0
M  V30 26359 N 4085.33 -0.744061 2.23964 0
M  V30 26360 C 4085.42 -2.10932 2.10362 0
M  V30 26361 O 4085.37 -2.64117 0.98825 0
M  V30 26362 C 4085.57 -2.8202 3.34994 0
M  V30 26363 C 4085.68 -4.31095 3.25037 0
M  V30 26364 C 4085.62 -2.15547 4.52261 0
M  V30 26365 H 4088.36 -1.93379 8.46595 0
M  V30 26366 H 4088.63 -1.68132 6.70852 0
M  V30 26367 H 4087.76 0.289041 8.15388 0
M  V30 26368 H 4085.1 0.926847 5.72749 0
M  V30 26369 H 4084.82 -1.86973 6.82036 0
M  V30 26370 H 4083.83 -0.403896 7.13257 0
M  V30 26371 H 4085.67 -1.20585 8.97435 0
M  V30 26372 H 4085.74 -2.71231 5.45042 0
M  V30 26373 H 4084.71 -4.76966 3.49992 0
M  V30 26374 H 4086.44 -4.67047 3.95024 0
M  V30 26375 H 4085.96 -4.58996 2.22312 0
M  V30 26376 H 4085.22 -0.214893 1.39758 0
M  V30 26377 P 4083.8 1.17771 8.83182 0
M  V30 26378 O 4083.58 2.07206 9.98732 0
M  V30 26379 O 4083.01 -0.0743816 8.81969 0
M  V30 26380 O 4083.55 1.97652 7.47304 0
M  V30 26381 C 4084.49 3.01055 7.08599 0
M  V30 26382 C 4083.76 4.12613 6.37049 0
M  V30 26383 O 4083.55 3.72827 4.97879 0
M  V30 26384 C 4082.36 4.45719 6.88164 0
M  V30 26385 O 4081.97 5.7877 6.5624 0
M  V30 26386 C 4081.48 3.47768 6.11991 0
M  V30 26387 C 4082.19 3.39356 4.77615 0
M  V30 26388 N 4082.14 2.04571 4.15244 0
M  V30 26389 C 4081.99 1.98587 2.78314 0
M  V30 26390 O 4081.9 2.98134 2.08835 0
M  V30 26391 N 4081.95 0.714467 2.24925 0
M  V30 26392 C 4082.04 -0.470001 2.94169 0
M  V30 26393 O 4081.99 -1.55587 2.35195 0
M  V30 26394 C 4082.19 -0.312541 4.36783 0
M  V30 26395 C 4082.3 -1.57711 5.16352 0
M  V30 26396 C 4082.24 0.914512 4.92583 0
M  V30 26397 H 4084.98 3.41169 7.98575 0
M  V30 26398 H 4085.25 2.58295 6.41556 0
M  V30 26399 H 4084.38 5.02657 6.42673 0
M  V30 26400 H 4081.72 4.11637 4.08885 0
M  V30 26401 H 4081.44 2.49626 6.61679 0
M  V30 26402 H 4080.45 3.86566 6.00778 0
M  V30 26403 H 4082.29 4.29943 7.96918 0
M  V30 26404 H 4082.36 1.00937 6.00374 0
M  V30 26405 H 4081.33 -1.80153 5.63503 0
M  V30 26406 H 4083.06 -1.4566 5.94104 0
M  V30 26407 H 4082.58 -2.40664 4.49645 0
M  V30 26408 H 4081.84 0.647622 1.25697 0
M  V30 26409 P 4080.42 6.144 6.45285 0
M  V30 26410 O 4080.2 7.54673 6.86199 0
M  V30 26411 O 4079.63 5.12391 7.179 0
M  V30 26412 O 4080.17 5.99158 4.88404 0
M  V30 26413 C 4081.11 6.60062 3.96313 0
M  V30 26414 C 4080.38 7.08259 2.72856 0
M  V30 26415 O 4080.17 5.9427 1.83651 0
M  V30 26416 C 4078.98 7.65087 2.94749 0
M  V30 26417 O 4078.59 8.53963 1.90717 0
M  V30 26418 C 4078.1 6.41069 2.90698 0
M  V30 26419 C 4078.81 5.5528 1.86931 0
M  V30 26420 N 4078.76 4.09575 2.15696 0
M  V30 26421 C 4078.61 3.24249 1.08435 0
M  V30 26422 O 4078.52 3.63946 -0.0628747 0
M  V30 26423 N 4078.57 1.90009 1.39973 0
M  V30 26424 C 4078.66 1.34884 2.65614 0
M  V30 26425 C 4078.81 2.3145 3.71736 0
M  V30 26426 C 4078.86 3.63518 3.44754 0
M  V30 26427 H 4081.6 7.45402 4.45526 0
M  V30 26428 H 4081.87 5.86062 3.67208 0
M  V30 26429 H 4081 7.84412 2.24479 0
M  V30 26430 H 4078.34 5.73358 0.888409 0
M  V30 26431 H 4078.06 5.90877 3.88583 0
M  V30 26432 H 4077.07 6.65867 2.58821 0
M  V30 26433 H 4078.91 8.16248 3.92006 0
M  V30 26434 H 4078.98 4.34551 4.26383 0
M  V30 26435 P 4077.04 8.7635 1.60911 0
M  V30 26436 O 4076.82 10.1388 1.11561 0
M  V30 26437 O 4076.25 8.36503 2.79617 0
M  V30 26438 O 4076.79 7.71806 0.42951 0
M  V30 26439 C 4077.73 7.67148 -0.673689 0
M  V30 26440 C 4077 7.33374 -1.95559 0
M  V30 26441 O 4076.79 5.88721 -2.00726 0
M  V30 26442 C 4075.6 7.92526 -2.10483 0
M  V30 26443 O 4075.21 8.02971 -3.47653 0
M  V30 26444 C 4074.72 6.89602 -1.41652 0
M  V30 26445 C 4075.43 5.59201 -1.75185 0
M  V30 26446 N 4075.38 4.58235 -0.662552 0
M  V30 26447 H 4078.21 8.65116 -0.777161 0
M  V30 26448 H 4078.49 6.90173 -0.474152 0
M  V30 26449 H 4077.62 7.66548 -2.79458 0
M  V30 26450 P 4073.66 8.03563 -3.84925 0
M  V30 26451 O 4073.44 8.85821 -5.0569 0
M  V30 26452 O 4072.87 8.41101 -2.65469 0
M  V30 26453 O 4073.41 6.4965 -4.18908 0
M  V30 26454 C 4074.35 5.80886 -5.05289 0
M  V30 26455 C 4073.62 4.78366 -5.89277 0
M  V30 26456 O 4073.41 3.58302 -5.08433 0
M  V30 26457 C 4072.22 5.16748 -6.36559 0
M  V30 26458 O 4071.83 4.45271 -7.53232 0
M  V30 26459 C 4071.34 4.74572 -5.19863 0
M  V30 26460 C 4072.05 3.49373 -4.70338 0
M  V30 26461 N 4072 3.31704 -3.22876 0
M  V30 26462 C 4071.85 2.03326 -2.74871 0
M  V30 26463 O 4071.76 1.06486 -3.48076 0
M  V30 26464 N 4071.81 1.91838 -1.37456 0
M  V30 26465 C 4071.9 2.94295 -0.462035 0
M  V30 26466 C 4072.05 4.25064 -1.05249 0
M  V30 26467 C 4072.1 4.40214 -2.39192 0
M  V30 26468 H 4074.84 6.54063 -5.71245 0
M  V30 26469 H 4075.11 5.30339 -4.43905 0
M  V30 26470 H 4074.24 4.55889 -6.76652 0
M  V30 26471 H 4071.58 2.6167 -5.17842 0
M  V30 26472 H 4071.3 5.52155 -4.41878 0
M  V30 26473 H 4070.31 4.51918 -5.53297 0
M  V30 26474 H 4072.15 6.25055 -6.55162 0
M  V30 26475 H 4072.22 5.39798 -2.81523 0
M  V30 26476 P 4070.28 4.23843 -7.83734 0
M  V30 26477 O 4070.06 4.19407 -9.29784 0
M  V30 26478 O 4069.49 5.24426 -7.09156 0
M  V30 26479 O 4070.03 2.7935 -7.20758 0
M  V30 26480 C 4070.97 1.72945 -7.50224 0
M  V30 26481 C 4070.24 0.406376 -7.57911 0
M  V30 26482 O 4070.03 -0.0897726 -6.21935 0
M  V30 26483 C 4068.84 0.438983 -8.18724 0
M  V30 26484 O 4068.45 -0.825065 -8.71101 0
M  V30 26485 C 4067.96 0.783689 -6.99524 0
M  V30 26486 C 4068.67 0.0619086 -5.85867 0
M  V30 26487 N 4068.62 0.78573 -4.56183 0
M  V30 26488 C 4068.47 0.0292889 -3.41887 0
M  V30 26489 O 4068.38 -1.18445 -3.4419 0
M  V30 26490 N 4068.43 0.744061 -2.23964 0
M  V30 26491 C 4068.52 2.10932 -2.10362 0
M  V30 26492 O 4068.47 2.64117 -0.98825 0
M  V30 26493 C 4068.67 2.8202 -3.34994 0
M  V30 26494 C 4068.78 4.31095 -3.25037 0
M  V30 26495 C 4068.72 2.15547 -4.52261 0
M  V30 26496 H 4071.46 1.93379 -8.46595 0
M  V30 26497 H 4071.73 1.68132 -6.70852 0
M  V30 26498 H 4070.86 -0.289041 -8.15388 0
M  V30 26499 H 4068.2 -0.926847 -5.72749 0
M  V30 26500 H 4067.92 1.86973 -6.82036 0
M  V30 26501 H 4066.93 0.403896 -7.13257 0
M  V30 26502 H 4068.77 1.20585 -8.97435 0
M  V30 26503 H 4068.84 2.71231 -5.45042 0
M  V30 26504 H 4067.81 4.76966 -3.49992 0
M  V30 26505 H 4069.54 4.67047 -3.95024 0
M  V30 26506 H 4069.06 4.58996 -2.22312 0
M  V30 26507 H 4068.32 0.214893 -1.39758 0
M  V30 26508 P 4066.9 -1.17771 -8.83182 0
M  V30 26509 O 4066.68 -2.07206 -9.98732 0
M  V30 26510 O 4066.11 0.0743816 -8.81969 0
M  V30 26511 O 4066.65 -1.97652 -7.47304 0
M  V30 26512 C 4067.59 -3.01055 -7.08599 0
M  V30 26513 C 4066.86 -4.12613 -6.37049 0
M  V30 26514 O 4066.65 -3.72827 -4.97879 0
M  V30 26515 C 4065.46 -4.45719 -6.88164 0
M  V30 26516 O 4065.07 -5.7877 -6.5624 0
M  V30 26517 C 4064.58 -3.47768 -6.11991 0
M  V30 26518 C 4065.29 -3.39356 -4.77615 0
M  V30 26519 N 4065.24 -2.04571 -4.15244 0
M  V30 26520 C 4065.09 -1.98587 -2.78314 0
M  V30 26521 O 4065 -2.98134 -2.08835 0
M  V30 26522 N 4065.05 -0.714467 -2.24925 0
M  V30 26523 C 4065.14 0.470001 -2.94169 0
M  V30 26524 O 4065.09 1.55587 -2.35195 0
M  V30 26525 C 4065.29 0.312541 -4.36783 0
M  V30 26526 C 4065.4 1.57711 -5.16352 0
M  V30 26527 C 4065.34 -0.914512 -4.92583 0
M  V30 26528 H 4068.08 -3.41169 -7.98575 0
M  V30 26529 H 4068.35 -2.58295 -6.41556 0
M  V30 26530 H 4067.48 -5.02657 -6.42673 0
M  V30 26531 H 4064.82 -4.11637 -4.08885 0
M  V30 26532 H 4064.54 -2.49626 -6.61679 0
M  V30 26533 H 4063.55 -3.86566 -6.00778 0
M  V30 26534 H 4065.39 -4.29943 -7.96918 0
M  V30 26535 H 4065.46 -1.00937 -6.00374 0
M  V30 26536 H 4064.43 1.80153 -5.63503 0
M  V30 26537 H 4066.16 1.4566 -5.94104 0
M  V30 26538 H 4065.68 2.40664 -4.49645 0
M  V30 26539 H 4064.94 -0.647622 -1.25697 0
M  V30 26540 P 4063.52 -6.144 -6.45285 0
M  V30 26541 O 4063.3 -7.54673 -6.86199 0
M  V30 26542 O 4062.73 -5.12391 -7.179 0
M  V30 26543 O 4063.27 -5.99158 -4.88404 0
M  V30 26544 C 4064.21 -6.60234 -3.96415 0
M  V30 26545 C 4063.48 -7.08259 -2.72856 0
M  V30 26546 O 4063.27 -5.9427 -1.83651 0
M  V30 26547 C 4062.08 -7.64886 -2.9555 0
M  V30 26548 O 4061.69 -8.53963 -1.90717 0
M  V30 26549 C 4061.2 -6.4116 -2.90739 0
M  V30 26550 C 4061.91 -5.55375 -1.86963 0
M  V30 26551 N 4061.86 -4.09664 -2.15742 0
M  V30 26552 H 4064.69 -7.45574 -4.45629 0
M  V30 26553 H 4064.97 -5.86232 -3.67314 0
M  V30 26554 H 4064.1 -7.84412 -2.24479 0
M  V30 26555 P 4060.14 -8.7635 -1.60911 0
M  V30 26556 O 4059.92 -10.1388 -1.11561 0
M  V30 26557 O 4059.35 -8.36503 -2.79617 0
M  V30 26558 O 4059.89 -7.71806 -0.42951 0
M  V30 26559 C 4060.83 -7.67148 0.673689 0
M  V30 26560 C 4060.1 -7.33374 1.95559 0
M  V30 26561 O 4059.89 -5.88721 2.00726 0
M  V30 26562 C 4058.7 -7.92526 2.10483 0
M  V30 26563 O 4058.31 -8.02971 3.47653 0
M  V30 26564 C 4057.82 -6.89602 1.41652 0
M  V30 26565 C 4058.53 -5.59201 1.75185 0
M  V30 26566 N 4058.48 -4.58301 0.657969 0
M  V30 26567 H 4061.32 -8.65116 0.777161 0
M  V30 26568 H 4061.59 -6.9022 0.46725 0
M  V30 26569 H 4060.72 -7.66548 2.79458 0
M  V30 26570 H 4058.06 -5.16165 2.65183 0
M  V30 26571 H 4057.78 -7.06433 0.329384 0
M  V30 26572 H 4056.79 -6.90926 1.82021 0
M  V30 26573 H 4058.63 -8.90873 1.62657 0
M  V30 26574 P 4056.76 -8.03563 3.84925 0
M  V30 26575 O 4056.54 -8.85821 5.0569 0
M  V30 26576 O 4055.97 -8.41101 2.65469 0
M  V30 26577 O 4056.51 -6.4965 4.18908 0
M  V30 26578 C 4057.45 -5.81037 5.05421 0
M  V30 26579 C 4056.72 -4.78366 5.89277 0
M  V30 26580 O 4056.51 -3.58302 5.08433 0
M  V30 26581 C 4055.32 -5.17448 6.36119 0
M  V30 26582 O 4054.93 -4.45271 7.53232 0
M  V30 26583 C 4054.44 -4.74639 5.19936 0
M  V30 26584 C 4055.15 -3.49432 4.70418 0
M  V30 26585 N 4055.1 -3.32099 3.22613 0
M  V30 26586 H 4057.94 -6.54213 5.71376 0
M  V30 26587 H 4058.21 -5.30936 4.43503 0
M  V30 26588 H 4057.34 -4.55889 6.76652 0
M  V30 26589 H 4054.68 -2.61715 5.17932 0
M  V30 26590 H 4054.4 -5.52155 4.41878 0
M  V30 26591 H 4053.41 -4.51981 5.53374 0
M  V30 26592 H 4055.25 -6.25124 6.55234 0
M  V30 26593 P 4053.38 -4.23843 7.83734 0
M  V30 26594 O 4053.16 -4.19407 9.29784 0
M  V30 26595 O 4052.59 -5.24426 7.09156 0
M  V30 26596 O 4053.13 -2.7935 7.20758 0
M  V30 26597 C 4054.07 -1.7299 7.50419 0
M  V30 26598 C 4053.34 -0.406376 7.57911 0
M  V30 26599 O 4053.13 0.0897726 6.21935 0
M  V30 26600 C 4051.94 -0.447224 8.1878 0
M  V30 26601 O 4051.55 0.825065 8.71101 0
M  V30 26602 C 4051.06 -0.783801 6.99623 0
M  V30 26603 C 4051.77 -0.0619192 5.85967 0
M  V30 26604 N 4051.72 -0.7859 4.56281 0
M  V30 26605 H 4054.56 -1.93423 8.4679 0
M  V30 26606 H 4054.83 -1.68181 6.71046 0
M  V30 26607 H 4053.96 0.289041 8.15388 0
M  V30 26608 P 4050 1.17771 8.83182 0
M  V30 26609 O 4049.78 2.07206 9.98732 0
M  V30 26610 O 4049.21 -0.0743816 8.81969 0
M  V30 26611 O 4049.75 1.97652 7.47304 0
M  V30 26612 C 4050.69 3.01133 7.08783 0
M  V30 26613 C 4049.96 4.12613 6.37049 0
M  V30 26614 O 4049.75 3.72827 4.97879 0
M  V30 26615 C 4048.56 4.45085 6.88694 0
M  V30 26616 O 4048.17 5.7877 6.5624 0
M  V30 26617 C 4047.68 3.47817 6.12078 0
M  V30 26618 C 4048.39 3.39414 4.77697 0
M  V30 26619 N 4048.34 2.04615 4.15333 0
M  V30 26620 H 4051.18 3.41248 7.98759 0
M  V30 26621 H 4051.45 2.5837 6.41742 0
M  V30 26622 H 4050.58 5.02657 6.42673 0
M  V30 26623 P 4046.62 6.144 6.45285 0
M  V30 26624 O 4046.4 7.54673 6.86199 0
M  V30 26625 O 4045.83 5.12391 7.179 0
M  V30 26626 O 4046.37 5.99158 4.88404 0
M  V30 26627 C 4047.31 6.60234 3.96415 0
M  V30 26628 C 4046.58 7.08259 2.72856 0
M  V30 26629 O 4046.37 5.9427 1.83651 0
M  V30 26630 C 4045.18 7.64886 2.9555 0
M  V30 26631 O 4044.79 8.53963 1.90717 0
M  V30 26632 C 4044.3 6.4116 2.90739 0
M  V30 26633 C 4045.01 5.55375 1.86963 0
M  V30 26634 N 4044.96 4.09664 2.15742 0
M  V30 26635 H 4047.8 7.45574 4.45629 0
M  V30 26636 H 4048.07 5.86232 3.67314 0
M  V30 26637 H 4047.2 7.84412 2.24479 0
M  V30 26638 P 4043.24 8.7635 1.60911 0
M  V30 26639 O 4043.02 10.1388 1.11561 0
M  V30 26640 O 4042.45 8.36503 2.79617 0
M  V30 26641 O 4042.99 7.71806 0.42951 0
M  V30 26642 C 4043.93 7.67148 -0.673689 0
M  V30 26643 C 4043.2 7.33374 -1.95559 0
M  V30 26644 O 4042.99 5.88721 -2.00726 0
M  V30 26645 C 4041.8 7.92526 -2.10483 0
M  V30 26646 O 4041.41 8.02971 -3.47653 0
M  V30 26647 C 4040.92 6.89602 -1.41652 0
M  V30 26648 C 4041.63 5.59201 -1.75185 0
M  V30 26649 N 4041.58 4.58235 -0.662552 0
M  V30 26650 H 4044.42 8.65116 -0.777161 0
M  V30 26651 H 4044.69 6.90173 -0.474152 0
M  V30 26652 H 4043.82 7.66548 -2.79458 0
M  V30 26653 P 4039.86 8.03563 -3.84925 0
M  V30 26654 O 4039.64 8.85821 -5.0569 0
M  V30 26655 O 4039.07 8.41101 -2.65469 0
M  V30 26656 O 4039.61 6.4965 -4.18908 0
M  V30 26657 C 4040.55 5.81037 -5.05421 0
M  V30 26658 C 4039.82 4.78366 -5.89277 0
M  V30 26659 O 4039.61 3.58302 -5.08433 0
M  V30 26660 C 4038.42 5.17448 -6.36119 0
M  V30 26661 O 4038.03 4.45271 -7.53232 0
M  V30 26662 C 4037.54 4.74639 -5.19936 0
M  V30 26663 C 4038.25 3.49432 -4.70418 0
M  V30 26664 N 4038.2 3.31776 -3.22945 0
M  V30 26665 H 4041.04 6.54213 -5.71376 0
M  V30 26666 H 4041.31 5.30492 -4.44033 0
M  V30 26667 H 4040.44 4.55889 -6.76652 0
M  V30 26668 P 4036.48 4.23843 -7.83734 0
M  V30 26669 O 4036.26 4.19407 -9.29784 0
M  V30 26670 O 4035.69 5.24426 -7.09156 0
M  V30 26671 O 4036.23 2.7935 -7.20758 0
M  V30 26672 C 4037.17 1.7299 -7.50419 0
M  V30 26673 C 4036.44 0.406376 -7.57911 0
M  V30 26674 O 4036.23 -0.0897726 -6.21935 0
M  V30 26675 C 4035.04 0.447224 -8.1878 0
M  V30 26676 O 4034.65 -0.825065 -8.71101 0
M  V30 26677 C 4034.16 0.783801 -6.99623 0
M  V30 26678 C 4034.87 0.0619192 -5.85967 0
M  V30 26679 N 4034.82 0.7859 -4.56281 0
M  V30 26680 H 4037.66 1.93423 -8.4679 0
M  V30 26681 H 4037.93 1.68181 -6.71046 0
M  V30 26682 H 4037.06 -0.289041 -8.15388 0
M  V30 26683 P 4033.1 -1.17771 -8.83182 0
M  V30 26684 O 4032.88 -2.07206 -9.98732 0
M  V30 26685 O 4032.31 0.0743816 -8.81969 0
M  V30 26686 O 4032.85 -1.97652 -7.47304 0
M  V30 26687 C 4033.79 -3.01133 -7.08783 0
M  V30 26688 C 4033.06 -4.12613 -6.37049 0
M  V30 26689 O 4032.85 -3.72827 -4.97879 0
M  V30 26690 C 4031.66 -4.45085 -6.88694 0
M  V30 26691 O 4031.27 -5.7877 -6.5624 0
M  V30 26692 C 4030.78 -3.47817 -6.12078 0
M  V30 26693 C 4031.49 -3.39414 -4.77697 0
M  V30 26694 N 4031.44 -2.04615 -4.15333 0
M  V30 26695 H 4034.28 -3.41248 -7.98759 0
M  V30 26696 H 4034.55 -2.5837 -6.41742 0
M  V30 26697 H 4033.68 -5.02657 -6.42673 0
M  V30 26698 P 4029.72 -6.144 -6.45285 0
M  V30 26699 O 4029.5 -7.54673 -6.86199 0
M  V30 26700 O 4028.93 -5.12391 -7.179 0
M  V30 26701 O 4029.47 -5.99158 -4.88404 0
M  V30 26702 C 4030.41 -6.60234 -3.96415 0
M  V30 26703 C 4029.68 -7.08259 -2.72856 0
M  V30 26704 O 4029.47 -5.9427 -1.83651 0
M  V30 26705 C 4028.28 -7.64886 -2.9555 0
M  V30 26706 O 4027.89 -8.53963 -1.90717 0
M  V30 26707 C 4027.4 -6.4116 -2.90739 0
M  V30 26708 C 4028.11 -5.55375 -1.86963 0
M  V30 26709 N 4028.06 -4.09664 -2.15742 0
M  V30 26710 H 4030.9 -7.45574 -4.45629 0
M  V30 26711 H 4031.17 -5.86232 -3.67314 0
M  V30 26712 H 4030.3 -7.84412 -2.24479 0
M  V30 26713 P 4026.34 -8.7635 -1.60911 0
M  V30 26714 O 4026.12 -10.1388 -1.11561 0
M  V30 26715 O 4025.55 -8.36503 -2.79617 0
M  V30 26716 O 4026.09 -7.71806 -0.42951 0
M  V30 26717 C 4027.03 -7.67148 0.673689 0
M  V30 26718 C 4026.3 -7.33374 1.95559 0
M  V30 26719 O 4026.09 -5.88721 2.00726 0
M  V30 26720 C 4024.9 -7.92526 2.10483 0
M  V30 26721 O 4024.51 -8.02971 3.47653 0
M  V30 26722 C 4024.02 -6.89602 1.41652 0
M  V30 26723 C 4024.73 -5.59201 1.75185 0
M  V30 26724 N 4024.68 -4.58235 0.662552 0
M  V30 26725 H 4027.52 -8.65116 0.777161 0
M  V30 26726 H 4027.79 -6.90173 0.474152 0
M  V30 26727 H 4026.92 -7.66548 2.79458 0
M  V30 26728 P 4022.96 -8.03563 3.84925 0
M  V30 26729 O 4022.74 -8.85821 5.0569 0
M  V30 26730 O 4022.17 -8.41101 2.65469 0
M  V30 26731 O 4022.71 -6.4965 4.18908 0
M  V30 26732 C 4023.65 -5.80886 5.05289 0
M  V30 26733 C 4022.92 -4.78366 5.89277 0
M  V30 26734 O 4022.71 -3.58302 5.08433 0
M  V30 26735 C 4021.52 -5.16748 6.36559 0
M  V30 26736 O 4021.13 -4.45271 7.53232 0
M  V30 26737 C 4020.64 -4.74572 5.19863 0
M  V30 26738 C 4021.35 -3.49373 4.70338 0
M  V30 26739 N 4021.3 -3.31704 3.22876 0
M  V30 26740 C 4021.15 -2.03326 2.74871 0
M  V30 26741 O 4021.06 -1.06486 3.48076 0
M  V30 26742 N 4021.11 -1.91838 1.37456 0
M  V30 26743 C 4021.2 -2.94295 0.462035 0
M  V30 26744 C 4021.35 -4.25064 1.05249 0
M  V30 26745 C 4021.4 -4.40214 2.39192 0
M  V30 26746 H 4024.14 -6.54063 5.71245 0
M  V30 26747 H 4024.41 -5.30339 4.43905 0
M  V30 26748 H 4023.54 -4.55889 6.76652 0
M  V30 26749 H 4020.88 -2.6167 5.17842 0
M  V30 26750 H 4020.61 -5.52155 4.41878 0
M  V30 26751 H 4019.61 -4.51918 5.53297 0
M  V30 26752 H 4021.45 -6.25055 6.55162 0
M  V30 26753 H 4021.52 -5.39798 2.81523 0
M  V30 26754 P 4019.58 -4.23843 7.83734 0
M  V30 26755 O 4019.36 -4.19407 9.29784 0
M  V30 26756 O 4018.79 -5.24426 7.09156 0
M  V30 26757 O 4019.33 -2.7935 7.20758 0
M  V30 26758 C 4020.27 -1.7299 7.50419 0
M  V30 26759 C 4019.54 -0.406376 7.57911 0
M  V30 26760 O 4019.33 0.0897726 6.21935 0
M  V30 26761 C 4018.14 -0.447224 8.1878 0
M  V30 26762 O 4017.75 0.825065 8.71101 0
M  V30 26763 C 4017.26 -0.783801 6.99623 0
M  V30 26764 C 4017.97 -0.0619192 5.85967 0
M  V30 26765 N 4017.92 -0.790462 4.56202 0
M  V30 26766 H 4020.76 -1.93423 8.4679 0
M  V30 26767 H 4021.03 -1.68852 6.70877 0
M  V30 26768 H 4020.16 0.289041 8.15388 0
M  V30 26769 H 4017.5 0.927006 5.72848 0
M  V30 26770 H 4017.22 -1.86973 6.82036 0
M  V30 26771 H 4016.23 -0.403953 7.13357 0
M  V30 26772 H 4018.07 -1.20599 8.97534 0
M  V30 26773 P 4016.2 1.17771 8.83182 0
M  V30 26774 O 4015.98 2.07206 9.98732 0
M  V30 26775 O 4015.41 -0.0743816 8.81969 0
M  V30 26776 O 4015.95 1.97652 7.47304 0
M  V30 26777 C 4016.89 3.01133 7.08783 0
M  V30 26778 C 4016.16 4.12613 6.37049 0
M  V30 26779 O 4015.95 3.72827 4.97879 0
M  V30 26780 C 4014.76 4.45085 6.88694 0
M  V30 26781 O 4014.37 5.7877 6.5624 0
M  V30 26782 C 4013.88 3.47817 6.12078 0
M  V30 26783 C 4014.59 3.39414 4.77697 0
M  V30 26784 N 4014.54 2.04615 4.15333 0
M  V30 26785 H 4017.38 3.41248 7.98759 0
M  V30 26786 H 4017.65 2.5837 6.41742 0
M  V30 26787 H 4016.78 5.02657 6.42673 0
M  V30 26788 P 4012.82 6.144 6.45285 0
M  V30 26789 O 4012.6 7.54673 6.86199 0
M  V30 26790 O 4012.03 5.12391 7.179 0
M  V30 26791 O 4012.57 5.99158 4.88404 0
M  V30 26792 C 4013.51 6.60234 3.96415 0
M  V30 26793 C 4012.78 7.08259 2.72856 0
M  V30 26794 O 4012.57 5.9427 1.83651 0
M  V30 26795 C 4011.38 7.64886 2.9555 0
M  V30 26796 O 4010.99 8.53963 1.90717 0
M  V30 26797 C 4010.5 6.4116 2.90739 0
M  V30 26798 C 4011.21 5.55375 1.86963 0
M  V30 26799 N 4011.16 4.09664 2.15742 0
M  V30 26800 H 4014 7.45574 4.45629 0
M  V30 26801 H 4014.27 5.86232 3.67314 0
M  V30 26802 H 4013.4 7.84412 2.24479 0
M  V30 26803 P 4009.44 8.7635 1.60911 0
M  V30 26804 O 4009.22 10.1388 1.11561 0
M  V30 26805 O 4008.65 8.36503 2.79617 0
M  V30 26806 O 4009.19 7.71806 0.42951 0
M  V30 26807 C 4010.13 7.67148 -0.673689 0
M  V30 26808 C 4009.4 7.33374 -1.95559 0
M  V30 26809 O 4009.19 5.88721 -2.00726 0
M  V30 26810 C 4008 7.92526 -2.10483 0
M  V30 26811 O 4007.61 8.02971 -3.47653 0
M  V30 26812 C 4007.12 6.89602 -1.41652 0
M  V30 26813 C 4007.83 5.59201 -1.75185 0
M  V30 26814 N 4007.78 4.58301 -0.657969 0
M  V30 26815 H 4010.62 8.65116 -0.777161 0
M  V30 26816 H 4010.89 6.9022 -0.46725 0
M  V30 26817 H 4010.02 7.66548 -2.79458 0
M  V30 26818 H 4007.36 5.16165 -2.65183 0
M  V30 26819 H 4007.08 7.06433 -0.329384 0
M  V30 26820 H 4006.09 6.90926 -1.82021 0
M  V30 26821 H 4007.93 8.90873 -1.62657 0
M  V30 26822 P 4006.06 8.03563 -3.84925 0
M  V30 26823 O 4005.84 8.85821 -5.0569 0
M  V30 26824 O 4005.27 8.41101 -2.65469 0
M  V30 26825 O 4005.81 6.4965 -4.18908 0
M  V30 26826 C 4006.75 5.81037 -5.05421 0
M  V30 26827 C 4006.02 4.78366 -5.89277 0
M  V30 26828 O 4005.81 3.58302 -5.08433 0
M  V30 26829 C 4004.62 5.17448 -6.36119 0
M  V30 26830 O 4004.23 4.45271 -7.53232 0
M  V30 26831 C 4003.74 4.74639 -5.19936 0
M  V30 26832 C 4004.45 3.49432 -4.70418 0
M  V30 26833 N 4004.4 3.31776 -3.22945 0
M  V30 26834 H 4007.24 6.54213 -5.71376 0
M  V30 26835 H 4007.51 5.30492 -4.44033 0
M  V30 26836 H 4006.64 4.55889 -6.76652 0
M  V30 26837 P 4002.68 4.23843 -7.83734 0
M  V30 26838 O 4002.46 4.19407 -9.29784 0
M  V30 26839 O 4001.89 5.24426 -7.09156 0
M  V30 26840 O 4002.43 2.7935 -7.20758 0
M  V30 26841 C 4003.37 1.7299 -7.50419 0
M  V30 26842 C 4002.64 0.406376 -7.57911 0
M  V30 26843 O 4002.43 -0.0897726 -6.21935 0
M  V30 26844 C 4001.24 0.447224 -8.1878 0
M  V30 26845 O 4000.85 -0.825065 -8.71101 0
M  V30 26846 C 4000.36 0.783801 -6.99623 0
M  V30 26847 C 4001.07 0.0619192 -5.85967 0
M  V30 26848 N 4001.02 0.790462 -4.56202 0
M  V30 26849 C 4001.1 2.13895 -4.34171 0
M  V30 26850 N 4001.03 2.46449 -3.08687 0
M  V30 26851 C 4000.88 1.2525 -2.43697 0
M  V30 26852 C 4000.75 0.914535 -1.07318 0
M  V30 26853 N 4000.74 1.80782 -0.0887348 0
M  V30 26854 N 4000.63 -0.386745 -0.768133 0
M  V30 26855 C 4000.64 -1.28096 -1.75159 0
M  V30 26856 N 4000.76 -1.09708 -3.04861 0
M  V30 26857 C 4000.88 0.214857 -3.32306 0
M  V30 26858 H 4003.86 1.93423 -8.4679 0
M  V30 26859 H 4004.13 1.68852 -6.70877 0
M  V30 26860 H 4003.26 -0.289041 -8.15388 0
M  V30 26861 H 4000.6 -0.927006 -5.72848 0
M  V30 26862 H 4000.32 1.86973 -6.82036 0
M  V30 26863 H 3999.33 0.403953 -7.13357 0
M  V30 26864 H 4001.17 1.20599 -8.97534 0
M  V30 26865 H 4001.21 2.86846 -5.14318 0
M  V30 26866 H 4000.83 2.81082 -0.302037 0
M  V30 26867 H 4000.64 1.49688 0.889064 0
M  V30 26868 H 4000.53 -2.31317 -1.43855 0
M  V30 26869 P 3999.3 -1.17771 -8.83182 0
M  V30 26870 O 3999.08 -2.07206 -9.98732 0
M  V30 26871 O 3998.51 0.0743816 -8.81969 0
M  V30 26872 O 3999.05 -1.97652 -7.47304 0
M  V30 26873 C 3999.99 -3.01133 -7.08783 0
M  V30 26874 C 3999.26 -4.12613 -6.37049 0
M  V30 26875 O 3999.05 -3.72827 -4.97879 0
M  V30 26876 C 3997.86 -4.45085 -6.88694 0
M  V30 26877 O 3997.47 -5.7877 -6.5624 0
M  V30 26878 C 3996.98 -3.47817 -6.12078 0
M  V30 26879 C 3997.69 -3.39414 -4.77697 0
M  V30 26880 N 3997.64 -2.04615 -4.15333 0
M  V30 26881 H 4000.48 -3.41248 -7.98759 0
M  V30 26882 H 4000.75 -2.5837 -6.41742 0
M  V30 26883 H 3999.88 -5.02657 -6.42673 0
M  V30 26884 P 3995.92 -6.144 -6.45285 0
M  V30 26885 O 3995.7 -7.54673 -6.86199 0
M  V30 26886 O 3995.13 -5.12391 -7.179 0
M  V30 26887 O 3995.67 -5.99158 -4.88404 0
M  V30 26888 C 3996.61 -6.60234 -3.96415 0
M  V30 26889 C 3995.88 -7.08259 -2.72856 0
M  V30 26890 O 3995.67 -5.9427 -1.83651 0
M  V30 26891 C 3994.48 -7.64886 -2.9555 0
M  V30 26892 O 3994.09 -8.53963 -1.90717 0
M  V30 26893 C 3993.6 -6.4116 -2.90739 0
M  V30 26894 C 3994.31 -5.55375 -1.86963 0
M  V30 26895 N 3994.26 -4.09448 -2.16152 0
M  V30 26896 H 3997.1 -7.45574 -4.45629 0
M  V30 26897 H 3997.37 -5.85864 -3.679 0
M  V30 26898 H 3996.5 -7.84412 -2.24479 0
M  V30 26899 H 3993.84 -5.73457 -0.888562 0
M  V30 26900 H 3993.56 -5.90877 -3.88583 0
M  V30 26901 H 3992.57 -6.6596 -2.58858 0
M  V30 26902 H 3994.41 -8.16339 -3.92049 0
M  V30 26903 P 3992.54 -8.7635 -1.60911 0
M  V30 26904 O 3992.32 -10.1388 -1.11561 0
M  V30 26905 O 3991.75 -8.36503 -2.79617 0
M  V30 26906 O 3992.29 -7.71806 -0.42951 0
M  V30 26907 C 3993.23 -7.66948 0.673514 0
M  V30 26908 C 3992.5 -7.33374 1.95559 0
M  V30 26909 O 3992.29 -5.88721 2.00726 0
M  V30 26910 C 3991.1 -7.92218 2.1125 0
M  V30 26911 O 3990.71 -8.02971 3.47653 0
M  V30 26912 C 3990.22 -6.89504 1.41631 0
M  V30 26913 C 3990.93 -5.59106 1.75155 0
M  V30 26914 N 3990.88 -4.58136 0.662409 0
M  V30 26915 C 3990.73 -3.26059 1.02863 0
M  V30 26916 O 3990.64 -2.90743 2.19009 0
M  V30 26917 N 3990.69 -2.35995 -0.0155585 0
M  V30 26918 C 3990.78 -2.65248 -1.35603 0
M  V30 26919 O 3990.73 -1.75605 -2.20651 0
M  V30 26920 C 3990.93 -4.05747 -1.64698 0
M  V30 26921 C 3991.04 -4.42345 -3.09553 0
M  V30 26922 C 3990.98 -4.96734 -0.652411 0
M  V30 26923 H 3993.72 -8.64917 0.776982 0
M  V30 26924 H 3993.99 -6.89974 0.474015 0
M  V30 26925 H 3993.12 -7.66548 2.79458 0
M  V30 26926 H 3990.46 -5.16076 2.65138 0
M  V30 26927 H 3990.19 -7.06433 0.329384 0
M  V30 26928 H 3989.19 -6.90829 1.81996 0
M  V30 26929 H 3991.03 -8.90774 1.62639 0
M  V30 26930 H 3991.1 -6.02181 -0.895285 0
M  V30 26931 H 3990.07 -4.80252 -3.45468 0
M  V30 26932 H 3991.81 -5.20015 -3.22119 0
M  V30 26933 H 3991.32 -3.53269 -3.67833 0
M  V30 26934 H 3990.58 -1.39558 0.227499 0
M  V30 26935 P 3989.16 -8.03563 3.84925 0
M  V30 26936 O 3988.94 -8.85821 5.0569 0
M  V30 26937 O 3988.37 -8.41101 2.65469 0
M  V30 26938 O 3988.91 -6.4965 4.18908 0
M  V30 26939 C 3989.85 -5.81037 5.05421 0
M  V30 26940 C 3989.12 -4.78366 5.89277 0
M  V30 26941 O 3988.91 -3.58302 5.08433 0
M  V30 26942 C 3987.72 -5.17448 6.36119 0
M  V30 26943 O 3987.33 -4.45271 7.53232 0
M  V30 26944 C 3986.84 -4.74639 5.19936 0
M  V30 26945 C 3987.55 -3.49432 4.70418 0
M  V30 26946 N 3987.5 -3.31776 3.22945 0
M  V30 26947 H 3990.34 -6.54213 5.71376 0
M  V30 26948 H 3990.61 -5.30492 4.44033 0
M  V30 26949 H 3989.74 -4.55889 6.76652 0
M  V30 26950 P 3985.78 -4.23843 7.83734 0
M  V30 26951 O 3985.56 -4.19407 9.29784 0
M  V30 26952 O 3984.99 -5.24426 7.09156 0
M  V30 26953 O 3985.53 -2.7935 7.20758 0
M  V30 26954 C 3986.47 -1.7299 7.50419 0
M  V30 26955 C 3985.74 -0.406376 7.57911 0
M  V30 26956 O 3985.53 0.0897726 6.21935 0
M  V30 26957 C 3984.34 -0.447224 8.1878 0
M  V30 26958 O 3983.95 0.825065 8.71101 0
M  V30 26959 C 3983.46 -0.783801 6.99623 0
M  V30 26960 C 3984.17 -0.0619192 5.85967 0
M  V30 26961 N 3984.12 -0.7859 4.56281 0
M  V30 26962 H 3986.96 -1.93423 8.4679 0
M  V30 26963 H 3987.23 -1.68181 6.71046 0
M  V30 26964 H 3986.36 0.289041 8.15388 0
M  V30 26965 P 3982.4 1.17771 8.83182 0
M  V30 26966 O 3982.18 2.07206 9.98732 0
M  V30 26967 O 3981.61 -0.0743816 8.81969 0
M  V30 26968 O 3982.15 1.97678 7.474 0
M  V30 26969 C 3983.09 3.01133 7.08783 0
M  V30 26970 C 3982.36 4.1203 6.37546 0
M  V30 26971 O 3982.15 3.72887 4.9796 0
M  V30 26972 C 3980.96 4.45085 6.88694 0
M  V30 26973 O 3980.57 5.78836 6.56315 0
M  V30 26974 C 3980.08 3.47817 6.12078 0
M  V30 26975 C 3980.79 3.39414 4.77697 0
M  V30 26976 N 3980.74 2.04615 4.15333 0
M  V30 26977 C 3980.59 1.96929 2.77162 0
M  V30 26978 O 3980.5 3.02017 2.12006 0
M  V30 26979 N 3980.54 0.55485 2.24237 0
M  V30 26980 C 3980.64 -0.367808 2.9169 0
M  V30 26981 N 3980.59 -1.53426 2.29427 0
M  V30 26982 C 3980.79 -0.319148 4.33828 0
M  V30 26983 C 3980.84 0.920672 4.90433 0
M  V30 26984 H 3983.58 3.41209 7.98667 0
M  V30 26985 H 3983.85 2.5837 6.41742 0
M  V30 26986 H 3982.98 5.02718 6.42752 0
M  V30 26987 H 3980.32 4.11779 4.09026 0
M  V30 26988 H 3980.04 2.49661 6.61772 0
M  V30 26989 H 3979.05 3.86674 6.00946 0
M  V30 26990 H 3980.89 4.29991 7.97006 0
M  V30 26991 H 3980.96 1.00589 5.98303 0
M  V30 26992 H 3980.86 -1.22639 4.93799 0
M  V30 26993 H 3980.47 -1.56819 1.27167 0
M  V30 26994 H 3980.67 -2.41062 2.83063 0
M  V30 26995 P 3979.02 6.144 6.45285 0
M  V30 26996 O 3978.8 7.54673 6.86199 0
M  V30 26997 O 3978.23 5.12391 7.179 0
M  V30 26998 O 3978.77 5.99158 4.88404 0
M  V30 26999 C 3979.71 6.60234 3.96415 0
M  V30 27000 C 3978.98 7.08259 2.72856 0
M  V30 27001 O 3978.77 5.9427 1.83651 0
M  V30 27002 C 3977.58 7.64886 2.9555 0
M  V30 27003 O 3977.19 8.53963 1.90717 0
M  V30 27004 C 3976.7 6.4116 2.90739 0
M  V30 27005 C 3977.41 5.55375 1.86963 0
M  V30 27006 N 3977.36 4.09664 2.15742 0
M  V30 27007 H 3980.2 7.45574 4.45629 0
M  V30 27008 H 3980.47 5.86232 3.67314 0
M  V30 27009 H 3979.6 7.84412 2.24479 0
M  V30 27010 P 3975.64 8.7635 1.60911 0
M  V30 27011 O 3975.42 10.1388 1.11561 0
M  V30 27012 O 3974.85 8.36503 2.79617 0
M  V30 27013 O 3975.39 7.71806 0.42951 0
M  V30 27014 C 3976.33 7.67148 -0.673689 0
M  V30 27015 C 3975.6 7.33374 -1.95559 0
M  V30 27016 O 3975.39 5.88721 -2.00726 0
M  V30 27017 C 3974.2 7.92526 -2.10483 0
M  V30 27018 O 3973.81 8.02971 -3.47653 0
M  V30 27019 C 3973.32 6.89602 -1.41652 0
M  V30 27020 C 3974.03 5.59201 -1.75185 0
M  V30 27021 N 3973.98 4.58235 -0.662552 0
M  V30 27022 H 3976.82 8.65116 -0.777161 0
M  V30 27023 H 3977.09 6.90173 -0.474152 0
M  V30 27024 H 3976.22 7.66548 -2.79458 0
M  V30 27025 P 3972.26 8.03563 -3.84925 0
M  V30 27026 O 3972.04 8.85821 -5.0569 0
M  V30 27027 O 3971.47 8.41101 -2.65469 0
M  V30 27028 O 3972.01 6.4965 -4.18908 0
M  V30 27029 C 3972.95 5.80886 -5.05289 0
M  V30 27030 C 3972.22 4.78366 -5.89277 0
M  V30 27031 O 3972.01 3.58302 -5.08433 0
M  V30 27032 C 3970.82 5.16748 -6.36559 0
M  V30 27033 O 3970.43 4.45271 -7.53232 0
M  V30 27034 C 3969.94 4.74572 -5.19863 0
M  V30 27035 C 3970.65 3.49373 -4.70338 0
M  V30 27036 N 3970.6 3.31704 -3.22876 0
M  V30 27037 C 3970.45 2.03326 -2.74871 0
M  V30 27038 O 3970.36 1.06486 -3.48076 0
M  V30 27039 N 3970.41 1.91838 -1.37456 0
M  V30 27040 C 3970.5 2.94295 -0.462035 0
M  V30 27041 O 3970.45 2.71763 0.752928 0
M  V30 27042 C 3970.65 4.25064 -1.05249 0
M  V30 27043 C 3970.76 5.39815 -0.095697 0
M  V30 27044 C 3970.7 4.40214 -2.39192 0
M  V30 27045 H 3973.44 6.54063 -5.71245 0
M  V30 27046 H 3973.71 5.30339 -4.43905 0
M  V30 27047 H 3972.84 4.55889 -6.76652 0
M  V30 27048 H 3970.18 2.6167 -5.17842 0
M  V30 27049 H 3969.91 5.52155 -4.41878 0
M  V30 27050 H 3968.91 4.51918 -5.53297 0
M  V30 27051 H 3970.75 6.25055 -6.55162 0
M  V30 27052 H 3970.82 5.39798 -2.81523 0
M  V30 27053 H 3969.79 5.91593 -0.0279582 0
M  V30 27054 H 3971.53 6.10038 -0.450573 0
M  V30 27055 H 3971.04 5.02007 0.89937 0
M  V30 27056 H 3970.3 0.995326 -1.00435 0
M  V30 27057 P 3968.88 4.23843 -7.83734 0
M  V30 27058 O 3968.66 4.19407 -9.29784 0
M  V30 27059 O 3968.09 5.24426 -7.09156 0
M  V30 27060 O 3968.63 2.7935 -7.20758 0
M  V30 27061 C 3969.57 1.7299 -7.50419 0
M  V30 27062 C 3968.84 0.406376 -7.57911 0
M  V30 27063 O 3968.63 -0.0897726 -6.21935 0
M  V30 27064 C 3967.44 0.447224 -8.1878 0
M  V30 27065 O 3967.05 -0.825065 -8.71101 0
M  V30 27066 C 3966.56 0.783801 -6.99623 0
M  V30 27067 C 3967.27 0.0619192 -5.85967 0
M  V30 27068 N 3967.22 0.790462 -4.56202 0
M  V30 27069 H 3970.06 1.93423 -8.4679 0
M  V30 27070 H 3970.33 1.68852 -6.70877 0
M  V30 27071 H 3969.46 -0.289041 -8.15388 0
M  V30 27072 H 3966.8 -0.927006 -5.72848 0
M  V30 27073 H 3966.52 1.86973 -6.82036 0
M  V30 27074 H 3965.53 0.403953 -7.13357 0
M  V30 27075 H 3967.37 1.20599 -8.97534 0
M  V30 27076 P 3965.5 -1.17771 -8.83182 0
M  V30 27077 O 3965.28 -2.07206 -9.98732 0
M  V30 27078 O 3964.71 0.0743816 -8.81969 0
M  V30 27079 O 3965.25 -1.97652 -7.47304 0
M  V30 27080 C 3966.19 -3.01133 -7.08783 0
M  V30 27081 C 3965.46 -4.12613 -6.37049 0
M  V30 27082 O 3965.25 -3.72827 -4.97879 0
M  V30 27083 C 3964.06 -4.45085 -6.88694 0
M  V30 27084 O 3963.67 -5.7877 -6.5624 0
M  V30 27085 C 3963.18 -3.47817 -6.12078 0
M  V30 27086 C 3963.89 -3.39414 -4.77697 0
M  V30 27087 N 3963.84 -2.04615 -4.15333 0
M  V30 27088 H 3966.68 -3.41248 -7.98759 0
M  V30 27089 H 3966.95 -2.5837 -6.41742 0
M  V30 27090 H 3966.08 -5.02657 -6.42673 0
M  V30 27091 P 3962.12 -6.144 -6.45285 0
M  V30 27092 O 3961.9 -7.54673 -6.86199 0
M  V30 27093 O 3961.33 -5.12391 -7.179 0
M  V30 27094 O 3961.87 -5.99158 -4.88404 0
M  V30 27095 C 3962.81 -6.60234 -3.96415 0
M  V30 27096 C 3962.08 -7.08259 -2.72856 0
M  V30 27097 O 3961.87 -5.9427 -1.83651 0
M  V30 27098 C 3960.68 -7.64886 -2.9555 0
M  V30 27099 O 3960.29 -8.53963 -1.90717 0
M  V30 27100 C 3959.8 -6.4116 -2.90739 0
M  V30 27101 C 3960.51 -5.55375 -1.86963 0
M  V30 27102 N 3960.46 -4.09448 -2.16152 0
M  V30 27103 C 3960.54 -3.46824 -3.37593 0
M  V30 27104 N 3960.47 -2.17422 -3.29777 0
M  V30 27105 C 3960.32 -1.93065 -1.94427 0
M  V30 27106 C 3960.19 -0.738053 -1.20141 0
M  V30 27107 N 3960.18 0.474256 -1.74676 0
M  V30 27108 N 3960.07 -0.850049 0.13045 0
M  V30 27109 C 3960.08 -2.06169 0.676992 0
M  V30 27110 N 3960.2 -3.23842 0.101312 0
M  V30 27111 C 3960.32 -3.09402 -1.23122 0
M  V30 27112 H 3963.3 -7.45574 -4.45629 0
M  V30 27113 H 3963.57 -5.85864 -3.679 0
M  V30 27114 H 3962.7 -7.84412 -2.24479 0
M  V30 27115 H 3960.04 -5.73457 -0.888562 0
M  V30 27116 H 3959.76 -5.90877 -3.88583 0
M  V30 27117 H 3958.77 -6.6596 -2.58858 0
M  V30 27118 H 3960.61 -8.16339 -3.92049 0
M  V30 27119 H 3960.65 -4.00505 -4.3174 0
M  V30 27120 H 3960.27 0.581337 -2.76658 0
M  V30 27121 H 3960.08 1.30811 -1.14888 0
M  V30 27122 H 3959.97 -2.08295 1.75542 0
M  V30 27123 P 3958.74 -8.7635 -1.60911 0
M  V30 27124 O 3958.52 -10.1388 -1.11561 0
M  V30 27125 O 3957.95 -8.36503 -2.79617 0
M  V30 27126 O 3958.49 -7.71806 -0.42951 0
M  V30 27127 C 3959.43 -7.67148 0.673689 0
M  V30 27128 C 3958.7 -7.33374 1.95559 0
M  V30 27129 O 3958.49 -5.88721 2.00726 0
M  V30 27130 C 3957.3 -7.92526 2.10483 0
M  V30 27131 O 3956.91 -8.02971 3.47653 0
M  V30 27132 C 3956.42 -6.89602 1.41652 0
M  V30 27133 C 3957.13 -5.59201 1.75185 0
M  V30 27134 N 3957.08 -4.58235 0.662552 0
M  V30 27135 H 3959.92 -8.65116 0.777161 0
M  V30 27136 H 3960.19 -6.90173 0.474152 0
M  V30 27137 H 3959.32 -7.66548 2.79458 0
M  V30 27138 P 3955.36 -8.03563 3.84925 0
M  V30 27139 O 3955.14 -8.85821 5.0569 0
M  V30 27140 O 3954.57 -8.41101 2.65469 0
M  V30 27141 O 3955.11 -6.4965 4.18908 0
M  V30 27142 C 3956.05 -5.81037 5.05421 0
M  V30 27143 C 3955.32 -4.78366 5.89277 0
M  V30 27144 O 3955.11 -3.58302 5.08433 0
M  V30 27145 C 3953.92 -5.17448 6.36119 0
M  V30 27146 O 3953.53 -4.45271 7.53232 0
M  V30 27147 C 3953.04 -4.74639 5.19936 0
M  V30 27148 C 3953.75 -3.49432 4.70418 0
M  V30 27149 N 3953.7 -3.31776 3.22945 0
M  V30 27150 C 3953.78 -4.27147 2.23315 0
M  V30 27151 N 3953.7 -3.78447 1.02186 0
M  V30 27152 C 3953.56 -2.41001 1.21732 0
M  V30 27153 C 3953.43 -1.36111 0.27694 0
M  V30 27154 O 3953.41 -1.42065 -0.951767 0
M  V30 27155 N 3953.31 -0.113683 0.912949 0
M  V30 27156 C 3953.31 0.0846396 2.27943 0
M  V30 27157 N 3953.18 1.34737 2.6916 0
M  V30 27158 N 3953.44 -0.902521 3.16379 0
M  V30 27159 C 3953.56 -2.11937 2.56849 0
M  V30 27160 H 3956.54 -6.54213 5.71376 0
M  V30 27161 H 3956.81 -5.30492 4.44033 0
M  V30 27162 H 3955.94 -4.55889 6.76652 0
M  V30 27163 H 3953.28 -2.6176 5.18021 0
M  V30 27164 H 3953 -5.52233 4.41941 0
M  V30 27165 H 3952.01 -4.52045 5.53452 0
M  V30 27166 H 3953.85 -6.25193 6.55307 0
M  V30 27167 H 3953.9 -5.3351 2.43857 0
M  V30 27168 H 3953.21 0.69331 0.330371 0
M  V30 27169 H 3953.18 1.56433 3.6988 0
M  V30 27170 H 3953.08 2.10701 2.00133 0
M  V30 27171 P 3951.98 -4.23843 7.83734 0
M  V30 27172 O 3951.76 -4.19407 9.29784 0
M  V30 27173 O 3951.19 -5.24426 7.09156 0
M  V30 27174 O 3951.73 -2.7935 7.20758 0
M  V30 27175 C 3952.67 -1.72945 7.50224 0
M  V30 27176 C 3951.94 -0.406376 7.57911 0
M  V30 27177 O 3951.73 0.0897726 6.21935 0
M  V30 27178 C 3950.54 -0.438983 8.18724 0
M  V30 27179 O 3950.15 0.825065 8.71101 0
M  V30 27180 C 3949.66 -0.783689 6.99524 0
M  V30 27181 C 3950.37 -0.0619086 5.85867 0
M  V30 27182 N 3950.32 -0.78573 4.56183 0
M  V30 27183 C 3950.17 -0.0292889 3.41887 0
M  V30 27184 O 3950.08 1.18445 3.4419 0
M  V30 27185 N 3950.13 -0.744061 2.23964 0
M  V30 27186 C 3950.22 -2.10932 2.10362 0
M  V30 27187 O 3950.17 -2.64117 0.98825 0
M  V30 27188 C 3950.37 -2.8202 3.34994 0
M  V30 27189 C 3950.48 -4.31095 3.25037 0
M  V30 27190 C 3950.42 -2.15547 4.52261 0
M  V30 27191 H 3953.16 -1.93379 8.46595 0
M  V30 27192 H 3953.43 -1.68132 6.70852 0
M  V30 27193 H 3952.56 0.289041 8.15388 0
M  V30 27194 H 3949.9 0.926847 5.72749 0
M  V30 27195 H 3949.63 -1.86973 6.82036 0
M  V30 27196 H 3948.63 -0.403896 7.13257 0
M  V30 27197 H 3950.47 -1.20585 8.97435 0
M  V30 27198 H 3950.54 -2.71231 5.45042 0
M  V30 27199 H 3949.51 -4.76966 3.49992 0
M  V30 27200 H 3951.25 -4.67047 3.95024 0
M  V30 27201 H 3950.76 -4.58996 2.22312 0
M  V30 27202 H 3950.02 -0.214893 1.39758 0
M  V30 27203 P 3948.6 1.17771 8.83182 0
M  V30 27204 O 3948.38 2.07206 9.98732 0
M  V30 27205 O 3947.81 -0.0743816 8.81969 0
M  V30 27206 O 3948.35 1.97652 7.47304 0
M  V30 27207 C 3949.29 3.01055 7.08599 0
M  V30 27208 C 3948.56 4.12613 6.37049 0
M  V30 27209 O 3948.35 3.72827 4.97879 0
M  V30 27210 C 3947.16 4.45719 6.88164 0
M  V30 27211 O 3946.77 5.7877 6.5624 0
M  V30 27212 C 3946.28 3.47768 6.11991 0
M  V30 27213 C 3946.99 3.39356 4.77615 0
M  V30 27214 N 3946.94 2.04571 4.15244 0
M  V30 27215 C 3946.79 1.98587 2.78314 0
M  V30 27216 O 3946.7 2.98134 2.08835 0
M  V30 27217 N 3946.75 0.714467 2.24925 0
M  V30 27218 C 3946.84 -0.470001 2.94169 0
M  V30 27219 O 3946.79 -1.55587 2.35195 0
M  V30 27220 C 3946.99 -0.312541 4.36783 0
M  V30 27221 C 3947.1 -1.57711 5.16352 0
M  V30 27222 C 3947.04 0.914512 4.92583 0
M  V30 27223 H 3949.78 3.41169 7.98575 0
M  V30 27224 H 3950.05 2.58295 6.41556 0
M  V30 27225 H 3949.18 5.02657 6.42673 0
M  V30 27226 H 3946.52 4.11637 4.08885 0
M  V30 27227 H 3946.25 2.49626 6.61679 0
M  V30 27228 H 3945.25 3.86566 6.00778 0
M  V30 27229 H 3947.09 4.29943 7.96918 0
M  V30 27230 H 3947.16 1.00937 6.00374 0
M  V30 27231 H 3946.13 -1.80153 5.63503 0
M  V30 27232 H 3947.87 -1.4566 5.94104 0
M  V30 27233 H 3947.38 -2.40664 4.49645 0
M  V30 27234 H 3946.64 0.647622 1.25697 0
M  V30 27235 P 3945.22 6.144 6.45285 0
M  V30 27236 O 3945 7.54673 6.86199 0
M  V30 27237 O 3944.43 5.12391 7.179 0
M  V30 27238 O 3944.97 5.99236 4.88467 0
M  V30 27239 C 3945.91 6.60234 3.96415 0
M  V30 27240 C 3945.18 7.08079 2.736 0
M  V30 27241 O 3944.97 5.94365 1.8368 0
M  V30 27242 C 3943.78 7.64886 2.9555 0
M  V30 27243 O 3943.39 8.5406 1.90739 0
M  V30 27244 C 3942.9 6.4116 2.90739 0
M  V30 27245 C 3943.61 5.55375 1.86963 0
M  V30 27246 N 3943.56 4.09664 2.15742 0
M  V30 27247 C 3943.41 3.22231 1.08477 0
M  V30 27248 O 3943.32 3.68951 -0.0600489 0
M  V30 27249 N 3943.36 1.76692 1.48799 0
M  V30 27250 C 3943.46 1.41695 2.57602 0
M  V30 27251 N 3943.41 0.107296 2.75791 0
M  V30 27252 C 3943.61 2.29178 3.69733 0
M  V30 27253 C 3943.66 3.62753 3.42653 0
M  V30 27254 H 3946.4 7.45488 4.45578 0
M  V30 27255 H 3946.67 5.86232 3.67314 0
M  V30 27256 H 3945.8 7.84508 2.24507 0
M  V30 27257 H 3943.14 5.73556 0.888715 0
M  V30 27258 H 3942.86 5.9096 3.88638 0
M  V30 27259 H 3941.87 6.66053 2.58894 0
M  V30 27260 H 3943.71 8.16339 3.92049 0
M  V30 27261 H 3943.78 4.33052 4.24913 0
M  V30 27262 H 3943.68 1.9103 4.71577 0
M  V30 27263 H 3943.29 -0.521221 1.95056 0
M  V30 27264 H 3943.49 -0.286429 3.70695 0
M  V30 27265 P 3941.84 8.7635 1.60911 0
M  V30 27266 O 3941.62 10.1388 1.11561 0
M  V30 27267 O 3941.05 8.36503 2.79617 0
M  V30 27268 O 3941.59 7.71806 0.42951 0
M  V30 27269 C 3942.53 7.67148 -0.673689 0
M  V30 27270 C 3941.8 7.33374 -1.95559 0
M  V30 27271 O 3941.59 5.88721 -2.00726 0
M  V30 27272 C 3940.4 7.92526 -2.10483 0
M  V30 27273 O 3940.01 8.02971 -3.47653 0
M  V30 27274 C 3939.52 6.89602 -1.41652 0
M  V30 27275 C 3940.23 5.59201 -1.75185 0
M  V30 27276 N 3940.18 4.58235 -0.662552 0
M  V30 27277 H 3943.02 8.65116 -0.777161 0
M  V30 27278 H 3943.29 6.90173 -0.474152 0
M  V30 27279 H 3942.42 7.66548 -2.79458 0
M  V30 27280 P 3938.46 8.03563 -3.84925 0
M  V30 27281 O 3938.24 8.85821 -5.0569 0
M  V30 27282 O 3937.67 8.41101 -2.65469 0
M  V30 27283 O 3938.21 6.4965 -4.18908 0
M  V30 27284 C 3939.15 5.81037 -5.05421 0
M  V30 27285 C 3938.42 4.78366 -5.89277 0
M  V30 27286 O 3938.21 3.58302 -5.08433 0
M  V30 27287 C 3937.02 5.17448 -6.36119 0
M  V30 27288 O 3936.63 4.45271 -7.53232 0
M  V30 27289 C 3936.14 4.74639 -5.19936 0
M  V30 27290 C 3936.85 3.49432 -4.70418 0
M  V30 27291 N 3936.8 3.31776 -3.22945 0
M  V30 27292 H 3939.64 6.54213 -5.71376 0
M  V30 27293 H 3939.91 5.30492 -4.44033 0
M  V30 27294 H 3939.04 4.55889 -6.76652 0
M  V30 27295 P 3935.08 4.23843 -7.83734 0
M  V30 27296 O 3934.86 4.19407 -9.29784 0
M  V30 27297 O 3934.29 5.24426 -7.09156 0
M  V30 27298 O 3934.83 2.7935 -7.20758 0
M  V30 27299 C 3935.77 1.7299 -7.50419 0
M  V30 27300 C 3935.04 0.406376 -7.57911 0
M  V30 27301 O 3934.83 -0.0897726 -6.21935 0
M  V30 27302 C 3933.64 0.447224 -8.1878 0
M  V30 27303 O 3933.25 -0.825065 -8.71101 0
M  V30 27304 C 3932.76 0.783801 -6.99623 0
M  V30 27305 C 3933.47 0.0619192 -5.85967 0
M  V30 27306 N 3933.42 0.7859 -4.56281 0
M  V30 27307 H 3936.26 1.93423 -8.4679 0
M  V30 27308 H 3936.53 1.68181 -6.71046 0
M  V30 27309 H 3935.66 -0.289041 -8.15388 0
M  V30 27310 P 3931.7 -1.17771 -8.83182 0
M  V30 27311 O 3931.48 -2.07206 -9.98732 0
M  V30 27312 O 3930.91 0.0743816 -8.81969 0
M  V30 27313 O 3931.45 -1.97652 -7.47304 0
M  V30 27314 C 3932.39 -3.01133 -7.08783 0
M  V30 27315 C 3931.66 -4.12613 -6.37049 0
M  V30 27316 O 3931.45 -3.72827 -4.97879 0
M  V30 27317 C 3930.26 -4.45085 -6.88694 0
M  V30 27318 O 3929.87 -5.7877 -6.5624 0
M  V30 27319 C 3929.38 -3.47817 -6.12078 0
M  V30 27320 C 3930.09 -3.39414 -4.77697 0
M  V30 27321 N 3930.04 -2.04199 -4.15538 0
M  V30 27322 H 3932.88 -3.41248 -7.98759 0
M  V30 27323 H 3933.15 -2.57728 -6.42 0
M  V30 27324 H 3932.28 -5.02657 -6.42673 0
M  V30 27325 H 3929.62 -4.11708 -4.08956 0
M  V30 27326 H 3929.34 -2.49626 -6.61679 0
M  V30 27327 H 3928.35 -3.8662 -6.00862 0
M  V30 27328 H 3930.19 -4.29991 -7.97006 0
M  V30 27329 P 3928.32 -6.144 -6.45285 0
M  V30 27330 O 3928.1 -7.54673 -6.86199 0
M  V30 27331 O 3927.53 -5.12391 -7.179 0
M  V30 27332 O 3928.07 -5.99158 -4.88404 0
M  V30 27333 C 3929.01 -6.60234 -3.96415 0
M  V30 27334 C 3928.28 -7.08259 -2.72856 0
M  V30 27335 O 3928.07 -5.9427 -1.83651 0
M  V30 27336 C 3926.88 -7.64886 -2.9555 0
M  V30 27337 O 3926.49 -8.53963 -1.90717 0
M  V30 27338 C 3926 -6.4116 -2.90739 0
M  V30 27339 C 3926.71 -5.55375 -1.86963 0
M  V30 27340 N 3926.66 -4.09664 -2.15742 0
M  V30 27341 H 3929.5 -7.45574 -4.45629 0
M  V30 27342 H 3929.77 -5.86232 -3.67314 0
M  V30 27343 H 3928.9 -7.84412 -2.24479 0
M  V30 27344 P 3924.94 -8.7635 -1.60911 0
M  V30 27345 O 3924.72 -10.1388 -1.11561 0
M  V30 27346 O 3924.15 -8.36503 -2.79617 0
M  V30 27347 O 3924.69 -7.71806 -0.42951 0
M  V30 27348 C 3925.63 -7.67148 0.673689 0
M  V30 27349 C 3924.9 -7.33374 1.95559 0
M  V30 27350 O 3924.69 -5.88721 2.00726 0
M  V30 27351 C 3923.5 -7.92526 2.10483 0
M  V30 27352 O 3923.11 -8.02971 3.47653 0
M  V30 27353 C 3922.62 -6.89602 1.41652 0
M  V30 27354 C 3923.33 -5.59201 1.75185 0
M  V30 27355 N 3923.28 -4.58235 0.662552 0
M  V30 27356 C 3923.36 -4.7683 -0.704049 0
M  V30 27357 N 3923.28 -3.66233 -1.39775 0
M  V30 27358 C 3923.14 -2.66526 -0.431739 0
M  V30 27359 C 3923.01 -1.26394 -0.575992 0
M  V30 27360 N 3922.89 -0.62859 0.67177 0
M  V30 27361 C 3922.89 -1.27134 1.89385 0
M  V30 27362 N 3922.76 -0.492035 2.96951 0
M  V30 27363 N 3923.02 -2.58978 2.02907 0
M  V30 27364 C 3923.14 -3.22433 0.832218 0
M  V30 27365 H 3926.12 -8.65116 0.777161 0
M  V30 27366 H 3926.39 -6.90173 0.474152 0
M  V30 27367 H 3925.52 -7.66548 2.79458 0
M  V30 27368 P 3921.56 -8.03563 3.84925 0
M  V30 27369 O 3921.34 -8.85821 5.0569 0
M  V30 27370 O 3920.77 -8.41101 2.65469 0
M  V30 27371 O 3921.31 -6.4965 4.18908 0
M  V30 27372 C 3922.25 -5.81037 5.05421 0
M  V30 27373 C 3921.52 -4.78366 5.89277 0
M  V30 27374 O 3921.31 -3.58302 5.08433 0
M  V30 27375 C 3920.12 -5.17448 6.36119 0
M  V30 27376 O 3919.73 -4.45271 7.53232 0
M  V30 27377 C 3919.24 -4.74639 5.19936 0
M  V30 27378 C 3919.95 -3.49432 4.70418 0
M  V30 27379 N 3919.9 -3.31776 3.22945 0
M  V30 27380 C 3919.98 -4.27147 2.23315 0
M  V30 27381 N 3919.9 -3.78447 1.02186 0
M  V30 27382 C 3919.76 -2.41001 1.21732 0
M  V30 27383 C 3919.63 -1.36111 0.27694 0
M  V30 27384 N 3919.51 -0.113683 0.912949 0
M  V30 27385 C 3919.51 0.0846396 2.27943 0
M  V30 27386 N 3919.38 1.34737 2.6916 0
M  V30 27387 N 3919.64 -0.902521 3.16379 0
M  V30 27388 C 3919.76 -2.11937 2.56849 0
M  V30 27389 H 3922.74 -6.54213 5.71376 0
M  V30 27390 H 3923.01 -5.30492 4.44033 0
M  V30 27391 H 3922.14 -4.55889 6.76652 0
M  V30 27392 P 3918.18 -4.23843 7.83734 0
M  V30 27393 O 3917.96 -4.19407 9.29784 0
M  V30 27394 O 3917.39 -5.24426 7.09156 0
M  V30 27395 O 3917.93 -2.7935 7.20758 0
M  V30 27396 C 3918.87 -1.7299 7.50419 0
M  V30 27397 C 3918.14 -0.406376 7.57911 0
M  V30 27398 O 3917.93 0.0897726 6.21935 0
M  V30 27399 C 3916.74 -0.447224 8.1878 0
M  V30 27400 O 3916.35 0.825065 8.71101 0
M  V30 27401 C 3915.86 -0.783801 6.99623 0
M  V30 27402 C 3916.57 -0.0619192 5.85967 0
M  V30 27403 N 3916.52 -0.790462 4.56202 0
M  V30 27404 H 3919.36 -1.93423 8.4679 0
M  V30 27405 H 3919.63 -1.68852 6.70877 0
M  V30 27406 H 3918.76 0.289041 8.15388 0
M  V30 27407 H 3916.1 0.927006 5.72848 0
M  V30 27408 H 3915.82 -1.86973 6.82036 0
M  V30 27409 H 3914.83 -0.403953 7.13357 0
M  V30 27410 H 3916.67 -1.20599 8.97534 0
M  V30 27411 P 3914.8 1.17771 8.83182 0
M  V30 27412 O 3914.58 2.07206 9.98732 0
M  V30 27413 O 3914.01 -0.0743816 8.81969 0
M  V30 27414 O 3914.55 1.97652 7.47304 0
M  V30 27415 C 3915.49 3.01133 7.08783 0
M  V30 27416 C 3914.76 4.12613 6.37049 0
M  V30 27417 O 3914.55 3.72827 4.97879 0
M  V30 27418 C 3913.36 4.45085 6.88694 0
M  V30 27419 O 3912.97 5.7877 6.5624 0
M  V30 27420 C 3912.48 3.47817 6.12078 0
M  V30 27421 C 3913.19 3.39414 4.77697 0
M  V30 27422 N 3913.14 2.04199 4.15538 0
M  V30 27423 C 3913.22 0.821545 4.76977 0
M  V30 27424 N 3913.15 -0.1794 3.94592 0
M  V30 27425 C 3913 0.419121 2.70776 0
M  V30 27426 C 3912.87 -0.109072 1.40577 0
M  V30 27427 N 3912.86 -1.4104 1.1344 0
M  V30 27428 N 3912.75 0.764381 0.39411 0
M  V30 27429 C 3912.76 2.06587 0.664135 0
M  V30 27430 N 3912.88 2.67948 1.82153 0
M  V30 27431 C 3913 1.77942 2.8147 0
M  V30 27432 H 3915.98 3.41248 7.98759 0
M  V30 27433 H 3916.25 2.57728 6.42 0
M  V30 27434 H 3915.38 5.02657 6.42673 0
M  V30 27435 H 3912.72 4.11708 4.08956 0
M  V30 27436 H 3912.44 2.49626 6.61679 0
M  V30 27437 H 3911.45 3.8662 6.00862 0
M  V30 27438 H 3913.29 4.29991 7.97006 0
M  V30 27439 H 3913.33 0.702451 5.84696 0
M  V30 27440 H 3912.95 -2.09647 1.89651 0
M  V30 27441 H 3912.76 -1.73358 0.160575 0
M  V30 27442 H 3912.65 2.71695 -0.195838 0
M  V30 27443 P 3911.42 6.144 6.45285 0
M  V30 27444 O 3911.2 7.54673 6.86199 0
M  V30 27445 O 3910.63 5.12391 7.179 0
M  V30 27446 O 3911.17 5.99158 4.88404 0
M  V30 27447 C 3912.11 6.60234 3.96415 0
M  V30 27448 C 3911.38 7.08259 2.72856 0
M  V30 27449 O 3911.17 5.9427 1.83651 0
M  V30 27450 C 3909.98 7.64886 2.9555 0
M  V30 27451 O 3909.59 8.53963 1.90717 0
M  V30 27452 C 3909.1 6.4116 2.90739 0
M  V30 27453 C 3909.81 5.55375 1.86963 0
M  V30 27454 N 3909.76 4.09664 2.15742 0
M  V30 27455 H 3912.6 7.45574 4.45629 0
M  V30 27456 H 3912.87 5.86232 3.67314 0
M  V30 27457 H 3912 7.84412 2.24479 0
M  V30 27458 P 3908.04 8.7635 1.60911 0
M  V30 27459 O 3907.82 10.1388 1.11561 0
M  V30 27460 O 3907.25 8.36503 2.79617 0
M  V30 27461 O 3907.79 7.71806 0.42951 0
M  V30 27462 C 3908.73 7.67148 -0.673689 0
M  V30 27463 C 3908 7.33374 -1.95559 0
M  V30 27464 O 3907.79 5.88721 -2.00726 0
M  V30 27465 C 3906.6 7.92526 -2.10483 0
M  V30 27466 O 3906.21 8.02971 -3.47653 0
M  V30 27467 C 3905.72 6.89602 -1.41652 0
M  V30 27468 C 3906.43 5.59201 -1.75185 0
M  V30 27469 N 3906.38 4.58235 -0.662552 0
M  V30 27470 H 3909.22 8.65116 -0.777161 0
M  V30 27471 H 3909.49 6.90173 -0.474152 0
M  V30 27472 H 3908.62 7.66548 -2.79458 0
M  V30 27473 P 3904.66 8.03563 -3.84925 0
M  V30 27474 O 3904.44 8.85821 -5.0569 0
M  V30 27475 O 3903.87 8.41101 -2.65469 0
M  V30 27476 O 3904.41 6.4965 -4.18908 0
M  V30 27477 C 3905.35 5.80886 -5.05289 0
M  V30 27478 C 3904.62 4.78366 -5.89277 0
M  V30 27479 O 3904.41 3.58302 -5.08433 0
M  V30 27480 C 3903.22 5.16748 -6.36559 0
M  V30 27481 O 3902.83 4.45271 -7.53232 0
M  V30 27482 C 3902.34 4.74572 -5.19863 0
M  V30 27483 C 3903.05 3.49373 -4.70338 0
M  V30 27484 N 3903 3.31704 -3.22876 0
M  V30 27485 C 3902.85 2.03326 -2.74871 0
M  V30 27486 O 3902.76 1.06486 -3.48076 0
M  V30 27487 N 3902.81 1.91838 -1.37456 0
M  V30 27488 C 3902.9 2.94295 -0.462035 0
M  V30 27489 O 3902.85 2.71763 0.752928 0
M  V30 27490 C 3903.05 4.25064 -1.05249 0
M  V30 27491 C 3903.16 5.39815 -0.095697 0
M  V30 27492 C 3903.1 4.40214 -2.39192 0
M  V30 27493 H 3905.84 6.54063 -5.71245 0
M  V30 27494 H 3906.11 5.30339 -4.43905 0
M  V30 27495 H 3905.24 4.55889 -6.76652 0
M  V30 27496 H 3902.58 2.6167 -5.17842 0
M  V30 27497 H 3902.31 5.52155 -4.41878 0
M  V30 27498 H 3901.31 4.51918 -5.53297 0
M  V30 27499 H 3903.15 6.25055 -6.55162 0
M  V30 27500 H 3903.22 5.39798 -2.81523 0
M  V30 27501 H 3902.19 5.91593 -0.0279582 0
M  V30 27502 H 3903.93 6.10038 -0.450573 0
M  V30 27503 H 3903.44 5.02007 0.89937 0
M  V30 27504 H 3902.7 0.995326 -1.00435 0
M  V30 27505 P 3901.28 4.23843 -7.83734 0
M  V30 27506 O 3901.06 4.19407 -9.29784 0
M  V30 27507 O 3900.49 5.24426 -7.09156 0
M  V30 27508 O 3901.03 2.7935 -7.20758 0
M  V30 27509 C 3901.97 1.7299 -7.50419 0
M  V30 27510 C 3901.24 0.406376 -7.57911 0
M  V30 27511 O 3901.03 -0.0897726 -6.21935 0
M  V30 27512 C 3899.84 0.447224 -8.1878 0
M  V30 27513 O 3899.45 -0.825065 -8.71101 0
M  V30 27514 C 3898.96 0.783801 -6.99623 0
M  V30 27515 C 3899.67 0.0619192 -5.85967 0
M  V30 27516 N 3899.62 0.7859 -4.56281 0
M  V30 27517 H 3902.46 1.93423 -8.4679 0
M  V30 27518 H 3902.73 1.68181 -6.71046 0
M  V30 27519 H 3901.86 -0.289041 -8.15388 0
M  V30 27520 P 3897.9 -1.17771 -8.83182 0
M  V30 27521 O 3897.68 -2.07206 -9.98732 0
M  V30 27522 O 3897.11 0.0743816 -8.81969 0
M  V30 27523 O 3897.65 -1.97678 -7.474 0
M  V30 27524 C 3898.59 -3.01133 -7.08783 0
M  V30 27525 C 3897.86 -4.1203 -6.37546 0
M  V30 27526 O 3897.65 -3.72887 -4.9796 0
M  V30 27527 C 3896.46 -4.45085 -6.88694 0
M  V30 27528 O 3896.07 -5.78836 -6.56315 0
M  V30 27529 C 3895.58 -3.47817 -6.12078 0
M  V30 27530 C 3896.29 -3.39414 -4.77697 0
M  V30 27531 N 3896.24 -2.04615 -4.15333 0
M  V30 27532 C 3896.09 -1.96929 -2.77162 0
M  V30 27533 O 3896 -3.02017 -2.12006 0
M  V30 27534 N 3896.04 -0.55485 -2.24237 0
M  V30 27535 C 3896.14 0.367808 -2.9169 0
M  V30 27536 N 3896.09 1.53426 -2.29427 0
M  V30 27537 C 3896.29 0.319148 -4.33828 0
M  V30 27538 C 3896.34 -0.920672 -4.90433 0
M  V30 27539 H 3899.08 -3.41209 -7.98667 0
M  V30 27540 H 3899.35 -2.5837 -6.41742 0
M  V30 27541 H 3898.48 -5.02718 -6.42752 0
M  V30 27542 H 3895.82 -4.11779 -4.09026 0
M  V30 27543 H 3895.54 -2.49661 -6.61772 0
M  V30 27544 H 3894.55 -3.86674 -6.00946 0
M  V30 27545 H 3896.39 -4.29991 -7.97006 0
M  V30 27546 H 3896.46 -1.00589 -5.98303 0
M  V30 27547 H 3896.36 1.22639 -4.93799 0
M  V30 27548 H 3895.97 1.56819 -1.27167 0
M  V30 27549 H 3896.17 2.41062 -2.83063 0
M  V30 27550 P 3894.52 -6.144 -6.45285 0
M  V30 27551 O 3894.3 -7.54673 -6.86199 0
M  V30 27552 O 3893.73 -5.12391 -7.179 0
M  V30 27553 O 3894.27 -5.99158 -4.88404 0
M  V30 27554 C 3895.21 -6.60234 -3.96415 0
M  V30 27555 C 3894.48 -7.08259 -2.72856 0
M  V30 27556 O 3894.27 -5.9427 -1.83651 0
M  V30 27557 C 3893.08 -7.64886 -2.9555 0
M  V30 27558 O 3892.69 -8.53963 -1.90717 0
M  V30 27559 C 3892.2 -6.4116 -2.90739 0
M  V30 27560 C 3892.91 -5.55375 -1.86963 0
M  V30 27561 N 3892.86 -4.09664 -2.15742 0
M  V30 27562 H 3895.7 -7.45574 -4.45629 0
M  V30 27563 H 3895.97 -5.86232 -3.67314 0
M  V30 27564 H 3895.1 -7.84412 -2.24479 0
M  V30 27565 P 3891.14 -8.7635 -1.60911 0
M  V30 27566 O 3890.92 -10.1388 -1.11561 0
M  V30 27567 O 3890.35 -8.36503 -2.79617 0
M  V30 27568 O 3890.89 -7.71806 -0.42951 0
M  V30 27569 C 3891.83 -7.66948 0.673514 0
M  V30 27570 C 3891.1 -7.33374 1.95559 0
M  V30 27571 O 3890.89 -5.88721 2.00726 0
M  V30 27572 C 3889.7 -7.92218 2.1125 0
M  V30 27573 O 3889.31 -8.02971 3.47653 0
M  V30 27574 C 3888.82 -6.89504 1.41631 0
M  V30 27575 C 3889.53 -5.59106 1.75155 0
M  V30 27576 N 3889.48 -4.58136 0.662409 0
M  V30 27577 C 3889.33 -3.26059 1.02863 0
M  V30 27578 O 3889.24 -2.90743 2.19009 0
M  V30 27579 N 3889.29 -2.35995 -0.0155585 0
M  V30 27580 C 3889.38 -2.65248 -1.35603 0
M  V30 27581 O 3889.33 -1.75605 -2.20651 0
M  V30 27582 C 3889.53 -4.05747 -1.64698 0
M  V30 27583 C 3889.64 -4.42345 -3.09553 0
M  V30 27584 C 3889.58 -4.96734 -0.652411 0
M  V30 27585 H 3892.32 -8.64917 0.776982 0
M  V30 27586 H 3892.59 -6.89974 0.474015 0
M  V30 27587 H 3891.72 -7.66548 2.79458 0
M  V30 27588 H 3889.07 -5.16076 2.65138 0
M  V30 27589 H 3888.79 -7.06433 0.329384 0
M  V30 27590 H 3887.79 -6.90829 1.81996 0
M  V30 27591 H 3889.63 -8.90774 1.62639 0
M  V30 27592 H 3889.7 -6.02181 -0.895285 0
M  V30 27593 H 3888.67 -4.80252 -3.45468 0
M  V30 27594 H 3890.41 -5.20015 -3.22119 0
M  V30 27595 H 3889.92 -3.53269 -3.67833 0
M  V30 27596 H 3889.18 -1.39558 0.227499 0
M  V30 27597 P 3887.76 -8.03563 3.84925 0
M  V30 27598 O 3887.54 -8.85821 5.0569 0
M  V30 27599 O 3886.97 -8.41101 2.65469 0
M  V30 27600 O 3887.51 -6.4965 4.18908 0
M  V30 27601 C 3888.45 -5.81037 5.05421 0
M  V30 27602 C 3887.72 -4.78366 5.89277 0
M  V30 27603 O 3887.51 -3.58302 5.08433 0
M  V30 27604 C 3886.32 -5.17448 6.36119 0
M  V30 27605 O 3885.93 -4.45271 7.53232 0
M  V30 27606 C 3885.44 -4.74639 5.19936 0
M  V30 27607 C 3886.15 -3.49432 4.70418 0
M  V30 27608 N 3886.1 -3.31776 3.22945 0
M  V30 27609 H 3888.94 -6.54213 5.71376 0
M  V30 27610 H 3889.21 -5.30492 4.44033 0
M  V30 27611 H 3888.34 -4.55889 6.76652 0
M  V30 27612 P 3884.38 -4.23843 7.83734 0
M  V30 27613 O 3884.16 -4.19407 9.29784 0
M  V30 27614 O 3883.59 -5.24426 7.09156 0
M  V30 27615 O 3884.13 -2.7935 7.20758 0
M  V30 27616 C 3885.07 -1.72945 7.50224 0
M  V30 27617 C 3884.34 -0.406376 7.57911 0
M  V30 27618 O 3884.13 0.0897726 6.21935 0
M  V30 27619 C 3882.94 -0.438983 8.18724 0
M  V30 27620 O 3882.55 0.825065 8.71101 0
M  V30 27621 C 3882.06 -0.783689 6.99524 0
M  V30 27622 C 3882.77 -0.0619086 5.85867 0
M  V30 27623 N 3882.72 -0.78573 4.56183 0
M  V30 27624 C 3882.57 -0.0292889 3.41887 0
M  V30 27625 O 3882.48 1.18445 3.4419 0
M  V30 27626 N 3882.53 -0.744061 2.23964 0
M  V30 27627 C 3882.62 -2.10932 2.10362 0
M  V30 27628 O 3882.57 -2.64117 0.98825 0
M  V30 27629 C 3882.77 -2.8202 3.34994 0
M  V30 27630 C 3882.88 -4.31095 3.25037 0
M  V30 27631 C 3882.82 -2.15547 4.52261 0
M  V30 27632 H 3885.56 -1.93379 8.46595 0
M  V30 27633 H 3885.83 -1.68132 6.70852 0
M  V30 27634 H 3884.96 0.289041 8.15388 0
M  V30 27635 H 3882.31 0.926847 5.72749 0
M  V30 27636 H 3882.03 -1.86973 6.82036 0
M  V30 27637 H 3881.03 -0.403896 7.13257 0
M  V30 27638 H 3882.87 -1.20585 8.97435 0
M  V30 27639 H 3882.94 -2.71231 5.45042 0
M  V30 27640 H 3881.91 -4.76966 3.49992 0
M  V30 27641 H 3883.65 -4.67047 3.95024 0
M  V30 27642 H 3883.16 -4.58996 2.22312 0
M  V30 27643 H 3882.42 -0.214893 1.39758 0
M  V30 27644 P 3881 1.17771 8.83182 0
M  V30 27645 O 3880.78 2.07206 9.98732 0
M  V30 27646 O 3880.21 -0.0743816 8.81969 0
M  V30 27647 O 3880.75 1.97652 7.47304 0
M  V30 27648 C 3881.69 3.01133 7.08783 0
M  V30 27649 C 3880.96 4.12613 6.37049 0
M  V30 27650 O 3880.75 3.72827 4.97879 0
M  V30 27651 C 3879.56 4.45085 6.88694 0
M  V30 27652 O 3879.17 5.7877 6.5624 0
M  V30 27653 C 3878.68 3.47817 6.12078 0
M  V30 27654 C 3879.39 3.39414 4.77697 0
M  V30 27655 N 3879.34 2.04615 4.15333 0
M  V30 27656 C 3879.42 0.803897 4.75249 0
M  V30 27657 N 3879.34 -0.197615 3.91502 0
M  V30 27658 C 3879.2 0.413002 2.66823 0
M  V30 27659 C 3879.07 -0.157221 1.38007 0
M  V30 27660 N 3878.95 0.833136 0.390236 0
M  V30 27661 C 3878.95 2.19402 0.623885 0
M  V30 27662 N 3878.82 2.97622 -0.449677 0
M  V30 27663 N 3879.08 2.73005 1.83601 0
M  V30 27664 C 3879.2 1.78786 2.80935 0
M  V30 27665 H 3882.18 3.41248 7.98759 0
M  V30 27666 H 3882.45 2.5837 6.41742 0
M  V30 27667 H 3881.58 5.02657 6.42673 0
M  V30 27668 P 3877.62 6.144 6.45285 0
M  V30 27669 O 3877.4 7.54673 6.86199 0
M  V30 27670 O 3876.83 5.12391 7.179 0
M  V30 27671 O 3877.37 5.99158 4.88404 0
M  V30 27672 C 3878.31 6.60062 3.96313 0
M  V30 27673 C 3877.58 7.08259 2.72856 0
M  V30 27674 O 3877.37 5.9427 1.83651 0
M  V30 27675 C 3876.18 7.65087 2.94749 0
M  V30 27676 O 3875.79 8.53963 1.90717 0
M  V30 27677 C 3875.3 6.41069 2.90698 0
M  V30 27678 C 3876.01 5.5528 1.86931 0
M  V30 27679 N 3875.96 4.09575 2.15696 0
M  V30 27680 C 3875.81 3.24249 1.08435 0
M  V30 27681 O 3875.72 3.63946 -0.0628747 0
M  V30 27682 N 3875.77 1.90009 1.39973 0
M  V30 27683 C 3875.86 1.34884 2.65614 0
M  V30 27684 O 3875.81 0.123716 2.81728 0
M  V30 27685 C 3876.01 2.3145 3.71736 0
M  V30 27686 C 3876.12 1.75913 5.10438 0
M  V30 27687 C 3876.06 3.63518 3.44754 0
M  V30 27688 H 3878.8 7.45402 4.45526 0
M  V30 27689 H 3879.07 5.86062 3.67208 0
M  V30 27690 H 3878.2 7.84412 2.24479 0
M  V30 27691 H 3875.55 5.73358 0.888409 0
M  V30 27692 H 3875.27 5.90877 3.88583 0
M  V30 27693 H 3874.27 6.65867 2.58821 0
M  V30 27694 H 3876.11 8.16248 3.92006 0
M  V30 27695 H 3876.18 4.34551 4.26383 0
M  V30 27696 H 3875.15 1.85471 5.61775 0
M  V30 27697 H 3876.89 2.31364 5.66257 0
M  V30 27698 H 3876.4 0.695936 5.05229 0
M  V30 27699 H 3875.66 1.26277 0.63625 0
M  V30 27700 P 3874.24 8.7635 1.60911 0
M  V30 27701 O 3874.02 10.1388 1.11561 0
M  V30 27702 O 3873.45 8.36503 2.79617 0
M  V30 27703 O 3873.99 7.71806 0.42951 0
M  V30 27704 C 3874.93 7.67148 -0.673689 0
M  V30 27705 C 3874.2 7.33374 -1.95559 0
M  V30 27706 O 3873.99 5.88721 -2.00726 0
M  V30 27707 C 3872.8 7.92526 -2.10483 0
M  V30 27708 O 3872.41 8.02971 -3.47653 0
M  V30 27709 C 3871.92 6.89602 -1.41652 0
M  V30 27710 C 3872.63 5.59201 -1.75185 0
M  V30 27711 N 3872.58 4.58235 -0.662552 0
M  V30 27712 H 3875.42 8.65116 -0.777161 0
M  V30 27713 H 3875.69 6.90173 -0.474152 0
M  V30 27714 H 3874.82 7.66548 -2.79458 0
M  V30 27715 P 3870.86 8.03563 -3.84925 0
M  V30 27716 O 3870.64 8.85821 -5.0569 0
M  V30 27717 O 3870.07 8.41101 -2.65469 0
M  V30 27718 O 3870.61 6.4965 -4.18908 0
M  V30 27719 C 3871.55 5.81037 -5.05421 0
M  V30 27720 C 3870.82 4.78366 -5.89277 0
M  V30 27721 O 3870.61 3.58302 -5.08433 0
M  V30 27722 C 3869.42 5.17448 -6.36119 0
M  V30 27723 O 3869.03 4.45271 -7.53232 0
M  V30 27724 C 3868.54 4.74639 -5.19936 0
M  V30 27725 C 3869.25 3.49432 -4.70418 0
M  V30 27726 N 3869.2 3.32099 -3.22613 0
M  V30 27727 H 3872.04 6.54213 -5.71376 0
M  V30 27728 H 3872.31 5.30936 -4.43503 0
M  V30 27729 H 3871.44 4.55889 -6.76652 0
M  V30 27730 H 3868.79 2.61715 -5.17932 0
M  V30 27731 H 3868.51 5.52155 -4.41878 0
M  V30 27732 H 3867.51 4.51981 -5.53374 0
M  V30 27733 H 3869.35 6.25124 -6.55234 0
M  V30 27734 P 3867.48 4.23843 -7.83734 0
M  V30 27735 O 3867.26 4.19407 -9.29784 0
M  V30 27736 O 3866.69 5.24426 -7.09156 0
M  V30 27737 O 3867.23 2.7935 -7.20758 0
M  V30 27738 C 3868.17 1.7299 -7.50419 0
M  V30 27739 C 3867.44 0.406376 -7.57911 0
M  V30 27740 O 3867.23 -0.0897726 -6.21935 0
M  V30 27741 C 3866.04 0.447224 -8.1878 0
M  V30 27742 O 3865.65 -0.825065 -8.71101 0
M  V30 27743 C 3865.16 0.783801 -6.99623 0
M  V30 27744 C 3865.87 0.0619192 -5.85967 0
M  V30 27745 N 3865.82 0.7859 -4.56281 0
M  V30 27746 H 3868.66 1.93423 -8.4679 0
M  V30 27747 H 3868.93 1.68181 -6.71046 0
M  V30 27748 H 3868.06 -0.289041 -8.15388 0
M  V30 27749 P 3864.1 -1.17771 -8.83182 0
M  V30 27750 O 3863.88 -2.07206 -9.98732 0
M  V30 27751 O 3863.31 0.0743816 -8.81969 0
M  V30 27752 O 3863.85 -1.97652 -7.47304 0
M  V30 27753 C 3864.79 -3.01055 -7.08599 0
M  V30 27754 C 3864.06 -4.12613 -6.37049 0
M  V30 27755 O 3863.85 -3.72827 -4.97879 0
M  V30 27756 C 3862.66 -4.45719 -6.88164 0
M  V30 27757 O 3862.27 -5.7877 -6.5624 0
M  V30 27758 C 3861.78 -3.47768 -6.11991 0
M  V30 27759 C 3862.49 -3.39356 -4.77615 0
M  V30 27760 N 3862.44 -2.04571 -4.15244 0
M  V30 27761 C 3862.29 -1.98587 -2.78314 0
M  V30 27762 O 3862.2 -2.98134 -2.08835 0
M  V30 27763 N 3862.25 -0.714467 -2.24925 0
M  V30 27764 C 3862.34 0.470001 -2.94169 0
M  V30 27765 O 3862.29 1.55587 -2.35195 0
M  V30 27766 C 3862.49 0.312541 -4.36783 0
M  V30 27767 C 3862.6 1.57711 -5.16352 0
M  V30 27768 C 3862.54 -0.914512 -4.92583 0
M  V30 27769 H 3865.28 -3.41169 -7.98575 0
M  V30 27770 H 3865.55 -2.58295 -6.41556 0
M  V30 27771 H 3864.68 -5.02657 -6.42673 0
M  V30 27772 H 3862.03 -4.11637 -4.08885 0
M  V30 27773 H 3861.75 -2.49626 -6.61679 0
M  V30 27774 H 3860.75 -3.86566 -6.00778 0
M  V30 27775 H 3862.59 -4.29943 -7.96918 0
M  V30 27776 H 3862.66 -1.00937 -6.00374 0
M  V30 27777 H 3861.63 1.80153 -5.63503 0
M  V30 27778 H 3863.37 1.4566 -5.94104 0
M  V30 27779 H 3862.88 2.40664 -4.49645 0
M  V30 27780 H 3862.14 -0.647622 -1.25697 0
M  V30 27781 P 3860.72 -6.144 -6.45285 0
M  V30 27782 O 3860.5 -7.54673 -6.86199 0
M  V30 27783 O 3859.93 -5.12391 -7.179 0
M  V30 27784 O 3860.47 -5.99158 -4.88404 0
M  V30 27785 C 3861.41 -6.60234 -3.96415 0
M  V30 27786 C 3860.68 -7.08259 -2.72856 0
M  V30 27787 O 3860.47 -5.9427 -1.83651 0
M  V30 27788 C 3859.28 -7.64886 -2.9555 0
M  V30 27789 O 3858.89 -8.53963 -1.90717 0
M  V30 27790 C 3858.4 -6.4116 -2.90739 0
M  V30 27791 C 3859.11 -5.55375 -1.86963 0
M  V30 27792 N 3859.06 -4.09664 -2.15742 0
M  V30 27793 H 3861.9 -7.45574 -4.45629 0
M  V30 27794 H 3862.17 -5.86232 -3.67314 0
M  V30 27795 H 3861.3 -7.84412 -2.24479 0
M  V30 27796 P 3857.34 -8.7635 -1.60911 0
M  V30 27797 O 3857.12 -10.1388 -1.11561 0
M  V30 27798 O 3856.55 -8.36503 -2.79617 0
M  V30 27799 O 3857.09 -7.71806 -0.42951 0
M  V30 27800 C 3858.03 -7.67148 0.673689 0
M  V30 27801 C 3857.3 -7.33374 1.95559 0
M  V30 27802 O 3857.09 -5.88721 2.00726 0
M  V30 27803 C 3855.9 -7.92526 2.10483 0
M  V30 27804 O 3855.51 -8.02971 3.47653 0
M  V30 27805 C 3855.02 -6.89602 1.41652 0
M  V30 27806 C 3855.73 -5.59201 1.75185 0
M  V30 27807 N 3855.68 -4.58235 0.662552 0
M  V30 27808 H 3858.52 -8.65116 0.777161 0
M  V30 27809 H 3858.79 -6.90173 0.474152 0
M  V30 27810 H 3857.92 -7.66548 2.79458 0
M  V30 27811 P 3853.96 -8.03563 3.84925 0
M  V30 27812 O 3853.74 -8.85821 5.0569 0
M  V30 27813 O 3853.17 -8.41101 2.65469 0
M  V30 27814 O 3853.71 -6.4965 4.18908 0
M  V30 27815 C 3854.65 -5.81037 5.05421 0
M  V30 27816 C 3853.92 -4.78366 5.89277 0
M  V30 27817 O 3853.71 -3.58302 5.08433 0
M  V30 27818 C 3852.52 -5.17448 6.36119 0
M  V30 27819 O 3852.13 -4.45271 7.53232 0
M  V30 27820 C 3851.64 -4.74639 5.19936 0
M  V30 27821 C 3852.35 -3.49432 4.70418 0
M  V30 27822 N 3852.3 -3.32099 3.22613 0
M  V30 27823 H 3855.14 -6.54213 5.71376 0
M  V30 27824 H 3855.41 -5.30936 4.43503 0
M  V30 27825 H 3854.54 -4.55889 6.76652 0
M  V30 27826 H 3851.89 -2.61715 5.17932 0
M  V30 27827 H 3851.61 -5.52155 4.41878 0
M  V30 27828 H 3850.61 -4.51981 5.53374 0
M  V30 27829 H 3852.45 -6.25124 6.55234 0
M  V30 27830 P 3850.58 -4.23843 7.83734 0
M  V30 27831 O 3850.36 -4.19407 9.29784 0
M  V30 27832 O 3849.79 -5.24426 7.09156 0
M  V30 27833 O 3850.33 -2.7935 7.20758 0
M  V30 27834 C 3851.27 -1.7299 7.50419 0
M  V30 27835 C 3850.54 -0.406376 7.57911 0
M  V30 27836 O 3850.33 0.0897726 6.21935 0
M  V30 27837 C 3849.14 -0.447224 8.1878 0
M  V30 27838 O 3848.75 0.825065 8.71101 0
M  V30 27839 C 3848.26 -0.783801 6.99623 0
M  V30 27840 C 3848.97 -0.0619192 5.85967 0
M  V30 27841 N 3848.92 -0.7859 4.56281 0
M  V30 27842 H 3851.76 -1.93423 8.4679 0
M  V30 27843 H 3852.03 -1.68181 6.71046 0
M  V30 27844 H 3851.16 0.289041 8.15388 0
M  V30 27845 P 3847.2 1.17771 8.83182 0
M  V30 27846 O 3846.98 2.07206 9.98732 0
M  V30 27847 O 3846.41 -0.0743816 8.81969 0
M  V30 27848 O 3846.95 1.97652 7.47304 0
M  V30 27849 C 3847.89 3.01133 7.08783 0
M  V30 27850 C 3847.16 4.12613 6.37049 0
M  V30 27851 O 3846.95 3.72827 4.97879 0
M  V30 27852 C 3845.76 4.45085 6.88694 0
M  V30 27853 O 3845.37 5.7877 6.5624 0
M  V30 27854 C 3844.88 3.47817 6.12078 0
M  V30 27855 C 3845.59 3.39414 4.77697 0
M  V30 27856 N 3845.54 2.04615 4.15333 0
M  V30 27857 H 3848.38 3.41248 7.98759 0
M  V30 27858 H 3848.65 2.5837 6.41742 0
M  V30 27859 H 3847.78 5.02657 6.42673 0
M  V30 27860 P 3843.82 6.144 6.45285 0
M  V30 27861 O 3843.6 7.54673 6.86199 0
M  V30 27862 O 3843.03 5.12391 7.179 0
M  V30 27863 O 3843.57 5.99158 4.88404 0
M  V30 27864 C 3844.51 6.60234 3.96415 0
M  V30 27865 C 3843.78 7.08259 2.72856 0
M  V30 27866 O 3843.57 5.9427 1.83651 0
M  V30 27867 C 3842.38 7.64886 2.9555 0
M  V30 27868 O 3841.99 8.53963 1.90717 0
M  V30 27869 C 3841.5 6.4116 2.90739 0
M  V30 27870 C 3842.21 5.55375 1.86963 0
M  V30 27871 N 3842.16 4.09664 2.15742 0
M  V30 27872 H 3845 7.45574 4.45629 0
M  V30 27873 H 3845.27 5.86232 3.67314 0
M  V30 27874 H 3844.4 7.84412 2.24479 0
M  V30 27875 P 3840.44 8.7635 1.60911 0
M  V30 27876 O 3840.22 10.1388 1.11561 0
M  V30 27877 O 3839.65 8.36503 2.79617 0
M  V30 27878 O 3840.19 7.71806 0.42951 0
M  V30 27879 C 3841.13 7.67148 -0.673689 0
M  V30 27880 C 3840.4 7.33374 -1.95559 0
M  V30 27881 O 3840.19 5.88721 -2.00726 0
M  V30 27882 C 3839 7.92526 -2.10483 0
M  V30 27883 O 3838.61 8.02971 -3.47653 0
M  V30 27884 C 3838.12 6.89602 -1.41652 0
M  V30 27885 C 3838.83 5.59201 -1.75185 0
M  V30 27886 N 3838.78 4.58301 -0.657969 0
M  V30 27887 H 3841.62 8.65116 -0.777161 0
M  V30 27888 H 3841.89 6.9022 -0.46725 0
M  V30 27889 H 3841.02 7.66548 -2.79458 0
M  V30 27890 H 3838.37 5.16165 -2.65183 0
M  V30 27891 H 3838.09 7.06433 -0.329384 0
M  V30 27892 H 3837.09 6.90926 -1.82021 0
M  V30 27893 H 3838.93 8.90873 -1.62657 0
M  V30 27894 P 3837.06 8.03563 -3.84925 0
M  V30 27895 O 3836.84 8.85821 -5.0569 0
M  V30 27896 O 3836.27 8.41101 -2.65469 0
M  V30 27897 O 3836.81 6.4965 -4.18908 0
M  V30 27898 C 3837.75 5.80886 -5.05289 0
M  V30 27899 C 3837.02 4.78366 -5.89277 0
M  V30 27900 O 3836.81 3.58302 -5.08433 0
M  V30 27901 C 3835.62 5.16748 -6.36559 0
M  V30 27902 O 3835.23 4.45271 -7.53232 0
M  V30 27903 C 3834.74 4.74572 -5.19863 0
M  V30 27904 C 3835.45 3.49373 -4.70338 0
M  V30 27905 N 3835.4 3.31704 -3.22876 0
M  V30 27906 C 3835.25 2.03326 -2.74871 0
M  V30 27907 O 3835.16 1.06486 -3.48076 0
M  V30 27908 N 3835.21 1.91838 -1.37456 0
M  V30 27909 C 3835.3 2.94295 -0.462035 0
M  V30 27910 C 3835.45 4.25064 -1.05249 0
M  V30 27911 C 3835.5 4.40214 -2.39192 0
M  V30 27912 H 3838.24 6.54063 -5.71245 0
M  V30 27913 H 3838.51 5.30339 -4.43905 0
M  V30 27914 H 3837.64 4.55889 -6.76652 0
M  V30 27915 H 3834.99 2.6167 -5.17842 0
M  V30 27916 H 3834.71 5.52155 -4.41878 0
M  V30 27917 H 3833.71 4.51918 -5.53297 0
M  V30 27918 H 3835.55 6.25055 -6.55162 0
M  V30 27919 H 3835.62 5.39798 -2.81523 0
M  V30 27920 P 3833.68 4.23843 -7.83734 0
M  V30 27921 O 3833.46 4.19407 -9.29784 0
M  V30 27922 O 3832.89 5.24426 -7.09156 0
M  V30 27923 O 3833.43 2.7935 -7.20758 0
M  V30 27924 C 3834.37 1.7299 -7.50419 0
M  V30 27925 C 3833.64 0.406376 -7.57911 0
M  V30 27926 O 3833.43 -0.0897726 -6.21935 0
M  V30 27927 C 3832.24 0.447224 -8.1878 0
M  V30 27928 O 3831.85 -0.825065 -8.71101 0
M  V30 27929 C 3831.36 0.783801 -6.99623 0
M  V30 27930 C 3832.07 0.0619192 -5.85967 0
M  V30 27931 N 3832.02 0.7859 -4.56281 0
M  V30 27932 H 3834.86 1.93423 -8.4679 0
M  V30 27933 H 3835.13 1.68181 -6.71046 0
M  V30 27934 H 3834.26 -0.289041 -8.15388 0
M  V30 27935 P 3830.3 -1.17771 -8.83182 0
M  V30 27936 O 3830.08 -2.07206 -9.98732 0
M  V30 27937 O 3829.51 0.0743816 -8.81969 0
M  V30 27938 O 3830.05 -1.97652 -7.47304 0
M  V30 27939 C 3830.99 -3.01133 -7.08783 0
M  V30 27940 C 3830.26 -4.12613 -6.37049 0
M  V30 27941 O 3830.05 -3.72827 -4.97879 0
M  V30 27942 C 3828.86 -4.45085 -6.88694 0
M  V30 27943 O 3828.47 -5.7877 -6.5624 0
M  V30 27944 C 3827.98 -3.47817 -6.12078 0
M  V30 27945 C 3828.69 -3.39414 -4.77697 0
M  V30 27946 N 3828.64 -2.04199 -4.15538 0
M  V30 27947 H 3831.48 -3.41248 -7.98759 0
M  V30 27948 H 3831.75 -2.57728 -6.42 0
M  V30 27949 H 3830.88 -5.02657 -6.42673 0
M  V30 27950 H 3828.23 -4.11708 -4.08956 0
M  V30 27951 H 3827.95 -2.49626 -6.61679 0
M  V30 27952 H 3826.95 -3.8662 -6.00862 0
M  V30 27953 H 3828.79 -4.29991 -7.97006 0
M  V30 27954 P 3826.92 -6.144 -6.45285 0
M  V30 27955 O 3826.7 -7.54673 -6.86199 0
M  V30 27956 O 3826.13 -5.12391 -7.179 0
M  V30 27957 O 3826.67 -5.99158 -4.88404 0
M  V30 27958 C 3827.61 -6.60234 -3.96415 0
M  V30 27959 C 3826.88 -7.08259 -2.72856 0
M  V30 27960 O 3826.67 -5.9427 -1.83651 0
M  V30 27961 C 3825.48 -7.64886 -2.9555 0
M  V30 27962 O 3825.09 -8.53963 -1.90717 0
M  V30 27963 C 3824.6 -6.4116 -2.90739 0
M  V30 27964 C 3825.31 -5.55375 -1.86963 0
M  V30 27965 N 3825.26 -4.09448 -2.16152 0
M  V30 27966 H 3828.1 -7.45574 -4.45629 0
M  V30 27967 H 3828.37 -5.85864 -3.679 0
M  V30 27968 H 3827.5 -7.84412 -2.24479 0
M  V30 27969 H 3824.85 -5.73457 -0.888562 0
M  V30 27970 H 3824.57 -5.90877 -3.88583 0
M  V30 27971 H 3823.57 -6.6596 -2.58858 0
M  V30 27972 H 3825.41 -8.16339 -3.92049 0
M  V30 27973 P 3823.54 -8.7635 -1.60911 0
M  V30 27974 O 3823.32 -10.1388 -1.11561 0
M  V30 27975 O 3822.75 -8.36503 -2.79617 0
M  V30 27976 O 3823.29 -7.71806 -0.42951 0
M  V30 27977 C 3824.23 -7.66948 0.673514 0
M  V30 27978 C 3823.5 -7.33374 1.95559 0
M  V30 27979 O 3823.29 -5.88721 2.00726 0
M  V30 27980 C 3822.1 -7.92218 2.1125 0
M  V30 27981 O 3821.71 -8.02971 3.47653 0
M  V30 27982 C 3821.22 -6.89504 1.41631 0
M  V30 27983 C 3821.93 -5.59106 1.75155 0
M  V30 27984 N 3821.88 -4.58136 0.662409 0
M  V30 27985 C 3821.73 -3.26059 1.02863 0
M  V30 27986 O 3821.64 -2.90743 2.19009 0
M  V30 27987 N 3821.69 -2.35995 -0.0155585 0
M  V30 27988 C 3821.78 -2.65248 -1.35603 0
M  V30 27989 O 3821.73 -1.75605 -2.20651 0
M  V30 27990 C 3821.93 -4.05747 -1.64698 0
M  V30 27991 C 3822.04 -4.42345 -3.09553 0
M  V30 27992 C 3821.98 -4.96734 -0.652411 0
M  V30 27993 H 3824.72 -8.64917 0.776982 0
M  V30 27994 H 3824.99 -6.89974 0.474015 0
M  V30 27995 H 3824.12 -7.66548 2.79458 0
M  V30 27996 H 3821.47 -5.16076 2.65138 0
M  V30 27997 H 3821.19 -7.06433 0.329384 0
M  V30 27998 H 3820.19 -6.90829 1.81996 0
M  V30 27999 H 3822.03 -8.90774 1.62639 0
M  V30 28000 H 3822.1 -6.02181 -0.895285 0
M  V30 28001 H 3821.07 -4.80252 -3.45468 0
M  V30 28002 H 3822.81 -5.20015 -3.22119 0
M  V30 28003 H 3822.32 -3.53269 -3.67833 0
M  V30 28004 H 3821.58 -1.39558 0.227499 0
M  V30 28005 P 3820.16 -8.03563 3.84925 0
M  V30 28006 O 3819.94 -8.85821 5.0569 0
M  V30 28007 O 3819.37 -8.41101 2.65469 0
M  V30 28008 O 3819.91 -6.49734 4.18962 0
M  V30 28009 C 3820.85 -5.81037 5.05421 0
M  V30 28010 C 3820.12 -4.79018 5.88876 0
M  V30 28011 O 3819.91 -3.58359 5.08515 0
M  V30 28012 C 3818.72 -5.17448 6.36119 0
M  V30 28013 O 3818.33 -4.45322 7.53318 0
M  V30 28014 C 3817.84 -4.74639 5.19936 0
M  V30 28015 C 3818.55 -3.49432 4.70418 0
M  V30 28016 N 3818.5 -3.31776 3.22945 0
M  V30 28017 C 3818.35 -2.02742 2.72939 0
M  V30 28018 O 3818.26 -1.08301 3.52749 0
M  V30 28019 N 3818.3 -1.96117 1.22063 0
M  V30 28020 C 3818.4 -2.8878 0.551566 0
M  V30 28021 N 3818.35 -2.65609 -0.750198 0
M  V30 28022 C 3818.55 -4.22457 1.03707 0
M  V30 28023 C 3818.6 -4.37979 2.39113 0
M  V30 28024 H 3821.34 -6.54138 5.7131 0
M  V30 28025 H 3821.61 -5.30492 4.44033 0
M  V30 28026 H 3820.74 -4.55945 6.76735 0
M  V30 28027 H 3818.09 -2.6176 5.18021 0
M  V30 28028 H 3817.81 -5.52233 4.41941 0
M  V30 28029 H 3816.81 -4.52045 5.53452 0
M  V30 28030 H 3818.65 -6.25124 6.55234 0
M  V30 28031 H 3818.72 -5.37936 2.80552 0
M  V30 28032 H 3818.62 -5.07528 0.359553 0
M  V30 28033 H 3818.23 -1.69403 -1.09847 0
M  V30 28034 H 3818.43 -3.43701 -1.41792 0
M  V30 28035 P 3816.78 -4.23843 7.83734 0
M  V30 28036 O 3816.56 -4.19407 9.29784 0
M  V30 28037 O 3815.99 -5.24426 7.09156 0
M  V30 28038 O 3816.53 -2.79386 7.20852 0
M  V30 28039 C 3817.47 -1.7299 7.50419 0
M  V30 28040 C 3816.74 -0.41401 7.5797 0
M  V30 28041 O 3816.53 0.089787 6.22035 0
M  V30 28042 C 3815.34 -0.447224 8.1878 0
M  V30 28043 O 3814.95 0.825159 8.71201 0
M  V30 28044 C 3814.46 -0.783801 6.99623 0
M  V30 28045 C 3815.17 -0.0619192 5.85967 0
M  V30 28046 N 3815.12 -0.7859 4.56281 0
M  V30 28047 C 3814.97 -0.0359258 3.39981 0
M  V30 28048 O 3814.88 1.19723 3.49038 0
M  V30 28049 N 3814.92 -0.869151 2.14025 0
M  V30 28050 C 3815.02 -2.01207 2.14363 0
M  V30 28051 N 3814.97 -2.58978 0.954287 0
M  V30 28052 C 3815.17 -2.80817 3.32215 0
M  V30 28053 C 3815.22 -2.13785 4.50884 0
M  V30 28054 H 3817.96 -1.93401 8.46693 0
M  V30 28055 H 3818.23 -1.68181 6.71046 0
M  V30 28056 H 3817.36 0.289076 8.15488 0
M  V30 28057 H 3814.71 0.927166 5.72947 0
M  V30 28058 H 3814.43 -1.87 6.82132 0
M  V30 28059 H 3813.43 -0.404009 7.13457 0
M  V30 28060 H 3815.27 -1.20599 8.97534 0
M  V30 28061 H 3815.34 -2.70295 5.43162 0
M  V30 28062 H 3815.24 -3.89465 3.27406 0
M  V30 28063 H 3814.85 -2.01616 0.107046 0
M  V30 28064 H 3815.05 -3.61403 0.873101 0
M  V30 28065 P 3813.4 1.17771 8.83182 0
M  V30 28066 O 3813.18 2.07206 9.98732 0
M  V30 28067 O 3812.61 -0.0743816 8.81969 0
M  V30 28068 O 3813.15 1.97652 7.47304 0
M  V30 28069 C 3814.09 3.01133 7.08783 0
M  V30 28070 C 3813.36 4.12613 6.37049 0
M  V30 28071 O 3813.15 3.72827 4.97879 0
M  V30 28072 C 3811.96 4.45085 6.88694 0
M  V30 28073 O 3811.57 5.7877 6.5624 0
M  V30 28074 C 3811.08 3.47817 6.12078 0
M  V30 28075 C 3811.79 3.39414 4.77697 0
M  V30 28076 N 3811.74 2.04615 4.15333 0
M  V30 28077 H 3814.58 3.41248 7.98759 0
M  V30 28078 H 3814.85 2.5837 6.41742 0
M  V30 28079 H 3813.98 5.02657 6.42673 0
M  V30 28080 P 3810.02 6.144 6.45285 0
M  V30 28081 O 3809.8 7.54673 6.86199 0
M  V30 28082 O 3809.23 5.12391 7.179 0
M  V30 28083 O 3809.77 5.99158 4.88404 0
M  V30 28084 C 3810.71 6.60234 3.96415 0
M  V30 28085 C 3809.98 7.08259 2.72856 0
M  V30 28086 O 3809.77 5.9427 1.83651 0
M  V30 28087 C 3808.58 7.64886 2.9555 0
M  V30 28088 O 3808.19 8.53963 1.90717 0
M  V30 28089 C 3807.7 6.4116 2.90739 0
M  V30 28090 C 3808.41 5.55375 1.86963 0
M  V30 28091 N 3808.36 4.09664 2.15742 0
M  V30 28092 H 3811.2 7.45574 4.45629 0
M  V30 28093 H 3811.47 5.86232 3.67314 0
M  V30 28094 H 3810.6 7.84412 2.24479 0
M  V30 28095 P 3806.64 8.7635 1.60911 0
M  V30 28096 O 3806.42 10.1388 1.11561 0
M  V30 28097 O 3805.85 8.36503 2.79617 0
M  V30 28098 O 3806.39 7.71806 0.42951 0
M  V30 28099 C 3807.33 7.67148 -0.673689 0
M  V30 28100 C 3806.6 7.33374 -1.95559 0
M  V30 28101 O 3806.39 5.88721 -2.00726 0
M  V30 28102 C 3805.2 7.92526 -2.10483 0
M  V30 28103 O 3804.81 8.02971 -3.47653 0
M  V30 28104 C 3804.32 6.89602 -1.41652 0
M  V30 28105 C 3805.03 5.59201 -1.75185 0
M  V30 28106 N 3804.98 4.58301 -0.657969 0
M  V30 28107 H 3807.82 8.65116 -0.777161 0
M  V30 28108 H 3808.09 6.9022 -0.46725 0
M  V30 28109 H 3807.22 7.66548 -2.79458 0
M  V30 28110 H 3804.57 5.16165 -2.65183 0
M  V30 28111 H 3804.29 7.06433 -0.329384 0
M  V30 28112 H 3803.29 6.90926 -1.82021 0
M  V30 28113 H 3805.13 8.90873 -1.62657 0
M  V30 28114 P 3803.26 8.03563 -3.84925 0
M  V30 28115 O 3803.04 8.85821 -5.0569 0
M  V30 28116 O 3802.47 8.41101 -2.65469 0
M  V30 28117 O 3803.01 6.4965 -4.18908 0
M  V30 28118 C 3803.95 5.80886 -5.05289 0
M  V30 28119 C 3803.22 4.78366 -5.89277 0
M  V30 28120 O 3803.01 3.58302 -5.08433 0
M  V30 28121 C 3801.82 5.16748 -6.36559 0
M  V30 28122 O 3801.43 4.45271 -7.53232 0
M  V30 28123 C 3800.94 4.74572 -5.19863 0
M  V30 28124 C 3801.65 3.49373 -4.70338 0
M  V30 28125 N 3801.6 3.31704 -3.22876 0
M  V30 28126 C 3801.45 2.03326 -2.74871 0
M  V30 28127 O 3801.36 1.06486 -3.48076 0
M  V30 28128 N 3801.41 1.91838 -1.37456 0
M  V30 28129 C 3801.5 2.94295 -0.462035 0
M  V30 28130 O 3801.45 2.71763 0.752928 0
M  V30 28131 C 3801.65 4.25064 -1.05249 0
M  V30 28132 C 3801.76 5.39815 -0.095697 0
M  V30 28133 C 3801.7 4.40214 -2.39192 0
M  V30 28134 H 3804.44 6.54063 -5.71245 0
M  V30 28135 H 3804.71 5.30339 -4.43905 0
M  V30 28136 H 3803.84 4.55889 -6.76652 0
M  V30 28137 H 3801.19 2.6167 -5.17842 0
M  V30 28138 H 3800.91 5.52155 -4.41878 0
M  V30 28139 H 3799.91 4.51918 -5.53297 0
M  V30 28140 H 3801.75 6.25055 -6.55162 0
M  V30 28141 H 3801.82 5.39798 -2.81523 0
M  V30 28142 H 3800.79 5.91593 -0.0279582 0
M  V30 28143 H 3802.53 6.10038 -0.450573 0
M  V30 28144 H 3802.04 5.02007 0.89937 0
M  V30 28145 H 3801.3 0.995326 -1.00435 0
M  V30 28146 P 3799.88 4.23843 -7.83734 0
M  V30 28147 O 3799.66 4.19407 -9.29784 0
M  V30 28148 O 3799.09 5.24426 -7.09156 0
M  V30 28149 O 3799.63 2.7935 -7.20758 0
M  V30 28150 C 3800.57 1.7299 -7.50419 0
M  V30 28151 C 3799.84 0.406376 -7.57911 0
M  V30 28152 O 3799.63 -0.0897726 -6.21935 0
M  V30 28153 C 3798.44 0.447224 -8.1878 0
M  V30 28154 O 3798.05 -0.825065 -8.71101 0
M  V30 28155 C 3797.56 0.783801 -6.99623 0
M  V30 28156 C 3798.27 0.0619192 -5.85967 0
M  V30 28157 N 3798.22 0.7859 -4.56281 0
M  V30 28158 H 3801.06 1.93423 -8.4679 0
M  V30 28159 H 3801.33 1.68181 -6.71046 0
M  V30 28160 H 3800.46 -0.289041 -8.15388 0
M  V30 28161 P 3796.5 -1.17771 -8.83182 0
M  V30 28162 O 3796.28 -2.07206 -9.98732 0
M  V30 28163 O 3795.71 0.0743816 -8.81969 0
M  V30 28164 O 3796.25 -1.97652 -7.47304 0
M  V30 28165 C 3797.19 -3.01133 -7.08783 0
M  V30 28166 C 3796.46 -4.12613 -6.37049 0
M  V30 28167 O 3796.25 -3.72827 -4.97879 0
M  V30 28168 C 3795.06 -4.45085 -6.88694 0
M  V30 28169 O 3794.67 -5.7877 -6.5624 0
M  V30 28170 C 3794.18 -3.47817 -6.12078 0
M  V30 28171 C 3794.89 -3.39414 -4.77697 0
M  V30 28172 N 3794.84 -2.04199 -4.15538 0
M  V30 28173 H 3797.68 -3.41248 -7.98759 0
M  V30 28174 H 3797.95 -2.57728 -6.42 0
M  V30 28175 H 3797.08 -5.02657 -6.42673 0
M  V30 28176 H 3794.43 -4.11708 -4.08956 0
M  V30 28177 H 3794.15 -2.49626 -6.61679 0
M  V30 28178 H 3793.15 -3.8662 -6.00862 0
M  V30 28179 H 3794.99 -4.29991 -7.97006 0
M  V30 28180 P 3793.12 -6.144 -6.45285 0
M  V30 28181 O 3792.9 -7.54673 -6.86199 0
M  V30 28182 O 3792.33 -5.12391 -7.179 0
M  V30 28183 O 3792.87 -5.99158 -4.88404 0
M  V30 28184 C 3793.81 -6.60234 -3.96415 0
M  V30 28185 C 3793.08 -7.08259 -2.72856 0
M  V30 28186 O 3792.87 -5.9427 -1.83651 0
M  V30 28187 C 3791.68 -7.64886 -2.9555 0
M  V30 28188 O 3791.29 -8.53963 -1.90717 0
M  V30 28189 C 3790.8 -6.4116 -2.90739 0
M  V30 28190 C 3791.51 -5.55375 -1.86963 0
M  V30 28191 N 3791.46 -4.09664 -2.15742 0
M  V30 28192 H 3794.3 -7.45574 -4.45629 0
M  V30 28193 H 3794.57 -5.86232 -3.67314 0
M  V30 28194 H 3793.7 -7.84412 -2.24479 0
M  V30 28195 P 3789.74 -8.7635 -1.60911 0
M  V30 28196 O 3789.52 -10.1388 -1.11561 0
M  V30 28197 O 3788.95 -8.36503 -2.79617 0
M  V30 28198 O 3789.49 -7.71806 -0.42951 0
M  V30 28199 C 3790.43 -7.67148 0.673689 0
M  V30 28200 C 3789.7 -7.33374 1.95559 0
M  V30 28201 O 3789.49 -5.88721 2.00726 0
M  V30 28202 C 3788.3 -7.92526 2.10483 0
M  V30 28203 O 3787.91 -8.02971 3.47653 0
M  V30 28204 C 3787.42 -6.89602 1.41652 0
M  V30 28205 C 3788.13 -5.59201 1.75185 0
M  V30 28206 N 3788.08 -4.58301 0.657969 0
M  V30 28207 C 3788.16 -4.79019 -0.692603 0
M  V30 28208 N 3788.09 -3.69736 -1.38998 0
M  V30 28209 C 3787.94 -2.70474 -0.438135 0
M  V30 28210 C 3787.81 -1.30327 -0.538142 0
M  V30 28211 N 3787.8 -0.64304 -1.69192 0
M  V30 28212 N 3787.69 -0.611027 0.605183 0
M  V30 28213 C 3787.7 -1.27002 1.75953 0
M  V30 28214 N 3787.82 -2.56038 1.98546 0
M  V30 28215 C 3787.94 -3.22681 0.822541 0
M  V30 28216 H 3790.92 -8.65116 0.777161 0
M  V30 28217 H 3791.19 -6.9022 0.46725 0
M  V30 28218 H 3790.32 -7.66548 2.79458 0
M  V30 28219 H 3787.67 -5.16165 2.65183 0
M  V30 28220 H 3787.39 -7.06433 0.329384 0
M  V30 28221 H 3786.39 -6.90926 1.82021 0
M  V30 28222 H 3788.23 -8.90873 1.62657 0
M  V30 28223 H 3788.27 -5.77785 -1.13874 0
M  V30 28224 H 3787.89 -1.15585 -2.57991 0
M  V30 28225 H 3787.7 0.382989 -1.69835 0
M  V30 28226 H 3787.59 -0.653331 2.64449 0
M  V30 28227 P 3786.36 -8.03563 3.84925 0
M  V30 28228 O 3786.14 -8.85821 5.0569 0
M  V30 28229 O 3785.57 -8.41101 2.65469 0
M  V30 28230 O 3786.11 -6.4965 4.18908 0
M  V30 28231 C 3787.05 -5.81037 5.05421 0
M  V30 28232 C 3786.32 -4.78366 5.89277 0
M  V30 28233 O 3786.11 -3.58302 5.08433 0
M  V30 28234 C 3784.92 -5.17448 6.36119 0
M  V30 28235 O 3784.53 -4.45271 7.53232 0
M  V30 28236 C 3784.04 -4.74639 5.19936 0
M  V30 28237 C 3784.75 -3.49432 4.70418 0
M  V30 28238 N 3784.7 -3.31776 3.22945 0
M  V30 28239 H 3787.54 -6.54213 5.71376 0
M  V30 28240 H 3787.81 -5.30492 4.44033 0
M  V30 28241 H 3786.94 -4.55889 6.76652 0
M  V30 28242 P 3782.98 -4.23843 7.83734 0
M  V30 28243 O 3782.76 -4.19407 9.29784 0
M  V30 28244 O 3782.19 -5.24426 7.09156 0
M  V30 28245 O 3782.73 -2.7935 7.20758 0
M  V30 28246 C 3783.67 -1.72945 7.50224 0
M  V30 28247 C 3782.94 -0.406376 7.57911 0
M  V30 28248 O 3782.73 0.0897726 6.21935 0
M  V30 28249 C 3781.54 -0.438983 8.18724 0
M  V30 28250 O 3781.15 0.825065 8.71101 0
M  V30 28251 C 3780.66 -0.783689 6.99524 0
M  V30 28252 C 3781.37 -0.0619086 5.85867 0
M  V30 28253 N 3781.32 -0.78573 4.56183 0
M  V30 28254 C 3781.17 -0.0292889 3.41887 0
M  V30 28255 O 3781.08 1.18445 3.4419 0
M  V30 28256 N 3781.13 -0.744061 2.23964 0
M  V30 28257 C 3781.22 -2.10932 2.10362 0
M  V30 28258 C 3781.37 -2.8202 3.34994 0
M  V30 28259 C 3781.42 -2.15547 4.52261 0
M  V30 28260 H 3784.16 -1.93379 8.46595 0
M  V30 28261 H 3784.43 -1.68132 6.70852 0
M  V30 28262 H 3783.56 0.289041 8.15388 0
M  V30 28263 H 3780.91 0.926847 5.72749 0
M  V30 28264 H 3780.63 -1.86973 6.82036 0
M  V30 28265 H 3779.63 -0.403896 7.13257 0
M  V30 28266 H 3781.47 -1.20585 8.97435 0
M  V30 28267 H 3781.54 -2.71231 5.45042 0
M  V30 28268 P 3779.6 1.17771 8.83182 0
M  V30 28269 O 3779.38 2.07206 9.98732 0
M  V30 28270 O 3778.81 -0.0743816 8.81969 0
M  V30 28271 O 3779.35 1.97652 7.47304 0
M  V30 28272 C 3780.29 3.01133 7.08783 0
M  V30 28273 C 3779.56 4.12613 6.37049 0
M  V30 28274 O 3779.35 3.72827 4.97879 0
M  V30 28275 C 3778.16 4.45085 6.88694 0
M  V30 28276 O 3777.77 5.7877 6.5624 0
M  V30 28277 C 3777.28 3.47817 6.12078 0
M  V30 28278 C 3777.99 3.39414 4.77697 0
M  V30 28279 N 3777.94 2.04615 4.15333 0
M  V30 28280 H 3780.78 3.41248 7.98759 0
M  V30 28281 H 3781.05 2.5837 6.41742 0
M  V30 28282 H 3780.18 5.02657 6.42673 0
M  V30 28283 P 3776.22 6.144 6.45285 0
M  V30 28284 O 3776 7.54673 6.86199 0
M  V30 28285 O 3775.43 5.12391 7.179 0
M  V30 28286 O 3775.97 5.99158 4.88404 0
M  V30 28287 C 3776.91 6.60062 3.96313 0
M  V30 28288 C 3776.18 7.08259 2.72856 0
M  V30 28289 O 3775.97 5.9427 1.83651 0
M  V30 28290 C 3774.78 7.65087 2.94749 0
M  V30 28291 O 3774.39 8.53963 1.90717 0
M  V30 28292 C 3773.9 6.41069 2.90698 0
M  V30 28293 C 3774.61 5.5528 1.86931 0
M  V30 28294 N 3774.56 4.09575 2.15696 0
M  V30 28295 C 3774.41 3.24249 1.08435 0
M  V30 28296 O 3774.32 3.63946 -0.0628747 0
M  V30 28297 N 3774.37 1.90009 1.39973 0
M  V30 28298 C 3774.46 1.34884 2.65614 0
M  V30 28299 C 3774.61 2.3145 3.71736 0
M  V30 28300 C 3774.66 3.63518 3.44754 0
M  V30 28301 H 3777.4 7.45402 4.45526 0
M  V30 28302 H 3777.67 5.86062 3.67208 0
M  V30 28303 H 3776.8 7.84412 2.24479 0
M  V30 28304 H 3774.15 5.73358 0.888409 0
M  V30 28305 H 3773.87 5.90877 3.88583 0
M  V30 28306 H 3772.87 6.65867 2.58821 0
M  V30 28307 H 3774.71 8.16248 3.92006 0
M  V30 28308 H 3774.78 4.34551 4.26383 0
M  V30 28309 P 3772.84 8.7635 1.60911 0
M  V30 28310 O 3772.62 10.1388 1.11561 0
M  V30 28311 O 3772.05 8.36503 2.79617 0
M  V30 28312 O 3772.59 7.71806 0.42951 0
M  V30 28313 C 3773.53 7.67148 -0.673689 0
M  V30 28314 C 3772.8 7.33374 -1.95559 0
M  V30 28315 O 3772.59 5.88721 -2.00726 0
M  V30 28316 C 3771.4 7.92526 -2.10483 0
M  V30 28317 O 3771.01 8.02971 -3.47653 0
M  V30 28318 C 3770.52 6.89602 -1.41652 0
M  V30 28319 C 3771.23 5.59201 -1.75185 0
M  V30 28320 N 3771.18 4.58301 -0.657969 0
M  V30 28321 H 3774.02 8.65116 -0.777161 0
M  V30 28322 H 3774.29 6.9022 -0.46725 0
M  V30 28323 H 3773.42 7.66548 -2.79458 0
M  V30 28324 H 3770.77 5.16165 -2.65183 0
M  V30 28325 H 3770.49 7.06433 -0.329384 0
M  V30 28326 H 3769.49 6.90926 -1.82021 0
M  V30 28327 H 3771.33 8.90873 -1.62657 0
M  V30 28328 P 3769.46 8.03563 -3.84925 0
M  V30 28329 O 3769.24 8.85821 -5.0569 0
M  V30 28330 O 3768.67 8.41101 -2.65469 0
M  V30 28331 O 3769.21 6.4965 -4.18908 0
M  V30 28332 C 3770.15 5.80886 -5.05289 0
M  V30 28333 C 3769.42 4.78366 -5.89277 0
M  V30 28334 O 3769.21 3.58302 -5.08433 0
M  V30 28335 C 3768.02 5.16748 -6.36559 0
M  V30 28336 O 3767.63 4.45271 -7.53232 0
M  V30 28337 C 3767.14 4.74572 -5.19863 0
M  V30 28338 C 3767.85 3.49373 -4.70338 0
M  V30 28339 N 3767.8 3.31704 -3.22876 0
M  V30 28340 C 3767.65 2.03326 -2.74871 0
M  V30 28341 O 3767.56 1.06486 -3.48076 0
M  V30 28342 N 3767.61 1.91838 -1.37456 0
M  V30 28343 C 3767.7 2.94295 -0.462035 0
M  V30 28344 O 3767.65 2.71763 0.752928 0
M  V30 28345 C 3767.85 4.25064 -1.05249 0
M  V30 28346 C 3767.96 5.39815 -0.095697 0
M  V30 28347 C 3767.9 4.40214 -2.39192 0
M  V30 28348 H 3770.64 6.54063 -5.71245 0
M  V30 28349 H 3770.91 5.30339 -4.43905 0
M  V30 28350 H 3770.04 4.55889 -6.76652 0
M  V30 28351 H 3767.39 2.6167 -5.17842 0
M  V30 28352 H 3767.11 5.52155 -4.41878 0
M  V30 28353 H 3766.11 4.51918 -5.53297 0
M  V30 28354 H 3767.95 6.25055 -6.55162 0
M  V30 28355 H 3768.02 5.39798 -2.81523 0
M  V30 28356 H 3766.99 5.91593 -0.0279582 0
M  V30 28357 H 3768.73 6.10038 -0.450573 0
M  V30 28358 H 3768.24 5.02007 0.89937 0
M  V30 28359 H 3767.5 0.995326 -1.00435 0
M  V30 28360 P 3766.08 4.23843 -7.83734 0
M  V30 28361 O 3765.86 4.19407 -9.29784 0
M  V30 28362 O 3765.29 5.24426 -7.09156 0
M  V30 28363 O 3765.83 2.7935 -7.20758 0
M  V30 28364 C 3766.77 1.7299 -7.50419 0
M  V30 28365 C 3766.04 0.406376 -7.57911 0
M  V30 28366 O 3765.83 -0.0897726 -6.21935 0
M  V30 28367 C 3764.64 0.447224 -8.1878 0
M  V30 28368 O 3764.25 -0.825065 -8.71101 0
M  V30 28369 C 3763.76 0.783801 -6.99623 0
M  V30 28370 C 3764.47 0.0619192 -5.85967 0
M  V30 28371 N 3764.42 0.7859 -4.56281 0
M  V30 28372 H 3767.26 1.93423 -8.4679 0
M  V30 28373 H 3767.53 1.68181 -6.71046 0
M  V30 28374 H 3766.66 -0.289041 -8.15388 0
M  V30 28375 P 3762.7 -1.17771 -8.83182 0
M  V30 28376 O 3762.48 -2.07206 -9.98732 0
M  V30 28377 O 3761.91 0.0743816 -8.81969 0
M  V30 28378 O 3762.45 -1.97652 -7.47304 0
M  V30 28379 C 3763.39 -3.01133 -7.08783 0
M  V30 28380 C 3762.66 -4.12613 -6.37049 0
M  V30 28381 O 3762.45 -3.72827 -4.97879 0
M  V30 28382 C 3761.26 -4.45085 -6.88694 0
M  V30 28383 O 3760.87 -5.7877 -6.5624 0
M  V30 28384 C 3760.38 -3.47817 -6.12078 0
M  V30 28385 C 3761.09 -3.39414 -4.77697 0
M  V30 28386 N 3761.04 -2.04199 -4.15538 0
M  V30 28387 H 3763.88 -3.41248 -7.98759 0
M  V30 28388 H 3764.15 -2.57728 -6.42 0
M  V30 28389 H 3763.28 -5.02657 -6.42673 0
M  V30 28390 H 3760.63 -4.11708 -4.08956 0
M  V30 28391 H 3760.35 -2.49626 -6.61679 0
M  V30 28392 H 3759.35 -3.8662 -6.00862 0
M  V30 28393 H 3761.19 -4.29991 -7.97006 0
M  V30 28394 P 3759.32 -6.144 -6.45285 0
M  V30 28395 O 3759.1 -7.54673 -6.86199 0
M  V30 28396 O 3758.53 -5.12391 -7.179 0
M  V30 28397 O 3759.07 -5.99158 -4.88404 0
M  V30 28398 C 3760.01 -6.60234 -3.96415 0
M  V30 28399 C 3759.28 -7.08259 -2.72856 0
M  V30 28400 O 3759.07 -5.9427 -1.83651 0
M  V30 28401 C 3757.88 -7.64886 -2.9555 0
M  V30 28402 O 3757.49 -8.53963 -1.90717 0
M  V30 28403 C 3757 -6.4116 -2.90739 0
M  V30 28404 C 3757.71 -5.55375 -1.86963 0
M  V30 28405 N 3757.66 -4.09664 -2.15742 0
M  V30 28406 H 3760.5 -7.45574 -4.45629 0
M  V30 28407 H 3760.77 -5.86232 -3.67314 0
M  V30 28408 H 3759.9 -7.84412 -2.24479 0
M  V30 28409 P 3755.94 -8.7635 -1.60911 0
M  V30 28410 O 3755.72 -10.1388 -1.11561 0
M  V30 28411 O 3755.15 -8.36503 -2.79617 0
M  V30 28412 O 3755.69 -7.71806 -0.42951 0
M  V30 28413 C 3756.63 -7.67148 0.673689 0
M  V30 28414 C 3755.9 -7.33374 1.95559 0
M  V30 28415 O 3755.69 -5.88721 2.00726 0
M  V30 28416 C 3754.5 -7.92526 2.10483 0
M  V30 28417 O 3754.11 -8.02971 3.47653 0
M  V30 28418 C 3753.62 -6.89602 1.41652 0
M  V30 28419 C 3754.33 -5.59201 1.75185 0
M  V30 28420 N 3754.28 -4.58235 0.662552 0
M  V30 28421 H 3757.12 -8.65116 0.777161 0
M  V30 28422 H 3757.39 -6.90173 0.474152 0
M  V30 28423 H 3756.52 -7.66548 2.79458 0
M  V30 28424 P 3752.56 -8.03563 3.84925 0
M  V30 28425 O 3752.34 -8.85821 5.0569 0
M  V30 28426 O 3751.77 -8.41101 2.65469 0
M  V30 28427 O 3752.31 -6.4965 4.18908 0
M  V30 28428 C 3753.25 -5.80886 5.05289 0
M  V30 28429 C 3752.52 -4.78366 5.89277 0
M  V30 28430 O 3752.31 -3.58302 5.08433 0
M  V30 28431 C 3751.12 -5.16748 6.36559 0
M  V30 28432 O 3750.73 -4.45271 7.53232 0
M  V30 28433 C 3750.24 -4.74572 5.19863 0
M  V30 28434 C 3750.95 -3.49373 4.70338 0
M  V30 28435 N 3750.9 -3.31704 3.22876 0
M  V30 28436 C 3750.75 -2.03326 2.74871 0
M  V30 28437 O 3750.66 -1.06486 3.48076 0
M  V30 28438 N 3750.71 -1.91838 1.37456 0
M  V30 28439 C 3750.8 -2.94295 0.462035 0
M  V30 28440 O 3750.75 -2.71763 -0.752928 0
M  V30 28441 C 3750.95 -4.25064 1.05249 0
M  V30 28442 C 3751.06 -5.39815 0.095697 0
M  V30 28443 C 3751 -4.40214 2.39192 0
M  V30 28444 H 3753.74 -6.54063 5.71245 0
M  V30 28445 H 3754.01 -5.30339 4.43905 0
M  V30 28446 H 3753.14 -4.55889 6.76652 0
M  V30 28447 H 3750.49 -2.6167 5.17842 0
M  V30 28448 H 3750.21 -5.52155 4.41878 0
M  V30 28449 H 3749.21 -4.51918 5.53297 0
M  V30 28450 H 3751.05 -6.25055 6.55162 0
M  V30 28451 H 3751.12 -5.39798 2.81523 0
M  V30 28452 H 3750.09 -5.91593 0.0279582 0
M  V30 28453 H 3751.83 -6.10038 0.450573 0
M  V30 28454 H 3751.34 -5.02007 -0.89937 0
M  V30 28455 H 3750.6 -0.995326 1.00435 0
M  V30 28456 P 3749.18 -4.23843 7.83734 0
M  V30 28457 O 3748.96 -4.19407 9.29784 0
M  V30 28458 O 3748.39 -5.24426 7.09156 0
M  V30 28459 O 3748.93 -2.7935 7.20758 0
M  V30 28460 C 3749.87 -1.72945 7.50224 0
M  V30 28461 C 3749.14 -0.406376 7.57911 0
M  V30 28462 O 3748.93 0.0897726 6.21935 0
M  V30 28463 C 3747.74 -0.438983 8.18724 0
M  V30 28464 O 3747.35 0.825065 8.71101 0
M  V30 28465 C 3746.86 -0.783689 6.99524 0
M  V30 28466 C 3747.57 -0.0619086 5.85867 0
M  V30 28467 N 3747.52 -0.78573 4.56183 0
M  V30 28468 C 3747.37 -0.0292889 3.41887 0
M  V30 28469 O 3747.28 1.18445 3.4419 0
M  V30 28470 N 3747.33 -0.744061 2.23964 0
M  V30 28471 C 3747.42 -2.10932 2.10362 0
M  V30 28472 O 3747.37 -2.64117 0.98825 0
M  V30 28473 C 3747.57 -2.8202 3.34994 0
M  V30 28474 C 3747.68 -4.31095 3.25037 0
M  V30 28475 C 3747.62 -2.15547 4.52261 0
M  V30 28476 H 3750.36 -1.93379 8.46595 0
M  V30 28477 H 3750.63 -1.68132 6.70852 0
M  V30 28478 H 3749.76 0.289041 8.15388 0
M  V30 28479 H 3747.11 0.926847 5.72749 0
M  V30 28480 H 3746.83 -1.86973 6.82036 0
M  V30 28481 H 3745.83 -0.403896 7.13257 0
M  V30 28482 H 3747.67 -1.20585 8.97435 0
M  V30 28483 H 3747.74 -2.71231 5.45042 0
M  V30 28484 H 3746.71 -4.76966 3.49992 0
M  V30 28485 H 3748.45 -4.67047 3.95024 0
M  V30 28486 H 3747.96 -4.58996 2.22312 0
M  V30 28487 H 3747.22 -0.214893 1.39758 0
M  V30 28488 P 3745.8 1.17771 8.83182 0
M  V30 28489 O 3745.58 2.07206 9.98732 0
M  V30 28490 O 3745.01 -0.0743816 8.81969 0
M  V30 28491 O 3745.55 1.97652 7.47304 0
M  V30 28492 C 3746.49 3.01133 7.08783 0
M  V30 28493 C 3745.76 4.12613 6.37049 0
M  V30 28494 O 3745.55 3.72827 4.97879 0
M  V30 28495 C 3744.36 4.45085 6.88694 0
M  V30 28496 O 3743.97 5.7877 6.5624 0
M  V30 28497 C 3743.48 3.47817 6.12078 0
M  V30 28498 C 3744.19 3.39414 4.77697 0
M  V30 28499 N 3744.14 2.04615 4.15333 0
M  V30 28500 H 3746.98 3.41248 7.98759 0
M  V30 28501 H 3747.25 2.5837 6.41742 0
M  V30 28502 H 3746.38 5.02657 6.42673 0
M  V30 28503 P 3742.42 6.144 6.45285 0
M  V30 28504 O 3742.2 7.54673 6.86199 0
M  V30 28505 O 3741.63 5.12391 7.179 0
M  V30 28506 O 3742.17 5.99158 4.88404 0
M  V30 28507 C 3743.11 6.60234 3.96415 0
M  V30 28508 C 3742.38 7.08259 2.72856 0
M  V30 28509 O 3742.17 5.9427 1.83651 0
M  V30 28510 C 3740.98 7.64886 2.9555 0
M  V30 28511 O 3740.59 8.53963 1.90717 0
M  V30 28512 C 3740.1 6.4116 2.90739 0
M  V30 28513 C 3740.81 5.55375 1.86963 0
M  V30 28514 N 3740.76 4.09664 2.15742 0
M  V30 28515 H 3743.6 7.45574 4.45629 0
M  V30 28516 H 3743.87 5.86232 3.67314 0
M  V30 28517 H 3743 7.84412 2.24479 0
M  V30 28518 P 3739.04 8.7635 1.60911 0
M  V30 28519 O 3738.82 10.1388 1.11561 0
M  V30 28520 O 3738.25 8.36503 2.79617 0
M  V30 28521 O 3738.79 7.71806 0.42951 0
M  V30 28522 C 3739.73 7.66948 -0.673514 0
M  V30 28523 C 3739 7.33374 -1.95559 0
M  V30 28524 O 3738.79 5.88721 -2.00726 0
M  V30 28525 C 3737.6 7.92218 -2.1125 0
M  V30 28526 O 3737.21 8.02971 -3.47653 0
M  V30 28527 C 3736.72 6.89504 -1.41631 0
M  V30 28528 C 3737.43 5.59106 -1.75155 0
M  V30 28529 N 3737.38 4.58136 -0.662409 0
M  V30 28530 C 3737.23 3.26059 -1.02863 0
M  V30 28531 O 3737.14 2.90743 -2.19009 0
M  V30 28532 N 3737.19 2.35995 0.0155585 0
M  V30 28533 C 3737.28 2.65248 1.35603 0
M  V30 28534 O 3737.23 1.75605 2.20651 0
M  V30 28535 C 3737.43 4.05747 1.64698 0
M  V30 28536 C 3737.54 4.42345 3.09553 0
M  V30 28537 C 3737.48 4.96734 0.652411 0
M  V30 28538 H 3740.22 8.64917 -0.776982 0
M  V30 28539 H 3740.49 6.89974 -0.474015 0
M  V30 28540 H 3739.62 7.66548 -2.79458 0
M  V30 28541 H 3736.97 5.16076 -2.65138 0
M  V30 28542 H 3736.69 7.06433 -0.329384 0
M  V30 28543 H 3735.69 6.90829 -1.81996 0
M  V30 28544 H 3737.53 8.90774 -1.62639 0
M  V30 28545 H 3737.6 6.02181 0.895285 0
M  V30 28546 H 3736.57 4.80252 3.45468 0
M  V30 28547 H 3738.31 5.20015 3.22119 0
M  V30 28548 H 3737.82 3.53269 3.67833 0
M  V30 28549 H 3737.08 1.39558 -0.227499 0
M  V30 28550 P 3735.66 8.03563 -3.84925 0
M  V30 28551 O 3735.44 8.85821 -5.0569 0
M  V30 28552 O 3734.87 8.41101 -2.65469 0
M  V30 28553 O 3735.41 6.4965 -4.18908 0
M  V30 28554 C 3736.35 5.81037 -5.05421 0
M  V30 28555 C 3735.62 4.78366 -5.89277 0
M  V30 28556 O 3735.41 3.58302 -5.08433 0
M  V30 28557 C 3734.22 5.17448 -6.36119 0
M  V30 28558 O 3733.83 4.45271 -7.53232 0
M  V30 28559 C 3733.34 4.74639 -5.19936 0
M  V30 28560 C 3734.05 3.49432 -4.70418 0
M  V30 28561 N 3734 3.31776 -3.22945 0
M  V30 28562 H 3736.84 6.54213 -5.71376 0
M  V30 28563 H 3737.11 5.30492 -4.44033 0
M  V30 28564 H 3736.24 4.55889 -6.76652 0
M  V30 28565 P 3732.28 4.23843 -7.83734 0
M  V30 28566 O 3732.06 4.19407 -9.29784 0
M  V30 28567 O 3731.49 5.24426 -7.09156 0
M  V30 28568 O 3732.03 2.7935 -7.20758 0
M  V30 28569 C 3732.97 1.7299 -7.50419 0
M  V30 28570 C 3732.24 0.406376 -7.57911 0
M  V30 28571 O 3732.03 -0.0897726 -6.21935 0
M  V30 28572 C 3730.84 0.447224 -8.1878 0
M  V30 28573 O 3730.45 -0.825065 -8.71101 0
M  V30 28574 C 3729.96 0.783801 -6.99623 0
M  V30 28575 C 3730.67 0.0619192 -5.85967 0
M  V30 28576 N 3730.62 0.7859 -4.56281 0
M  V30 28577 H 3733.46 1.93423 -8.4679 0
M  V30 28578 H 3733.73 1.68181 -6.71046 0
M  V30 28579 H 3732.86 -0.289041 -8.15388 0
M  V30 28580 P 3728.9 -1.17771 -8.83182 0
M  V30 28581 O 3728.68 -2.07206 -9.98732 0
M  V30 28582 O 3728.11 0.0743816 -8.81969 0
M  V30 28583 O 3728.65 -1.97652 -7.47304 0
M  V30 28584 C 3729.59 -3.01133 -7.08783 0
M  V30 28585 C 3728.86 -4.12613 -6.37049 0
M  V30 28586 O 3728.65 -3.72827 -4.97879 0
M  V30 28587 C 3727.46 -4.45085 -6.88694 0
M  V30 28588 O 3727.07 -5.7877 -6.5624 0
M  V30 28589 C 3726.58 -3.47817 -6.12078 0
M  V30 28590 C 3727.29 -3.39414 -4.77697 0
M  V30 28591 N 3727.24 -2.04199 -4.15538 0
M  V30 28592 H 3730.08 -3.41248 -7.98759 0
M  V30 28593 H 3730.35 -2.57728 -6.42 0
M  V30 28594 H 3729.48 -5.02657 -6.42673 0
M  V30 28595 H 3726.83 -4.11708 -4.08956 0
M  V30 28596 H 3726.55 -2.49626 -6.61679 0
M  V30 28597 H 3725.55 -3.8662 -6.00862 0
M  V30 28598 H 3727.39 -4.29991 -7.97006 0
M  V30 28599 P 3725.52 -6.144 -6.45285 0
M  V30 28600 O 3725.3 -7.54673 -6.86199 0
M  V30 28601 O 3724.73 -5.12391 -7.179 0
M  V30 28602 O 3725.27 -5.99236 -4.88467 0
M  V30 28603 C 3726.21 -6.60234 -3.96415 0
M  V30 28604 C 3725.48 -7.08079 -2.736 0
M  V30 28605 O 3725.27 -5.94365 -1.8368 0
M  V30 28606 C 3724.08 -7.64886 -2.9555 0
M  V30 28607 O 3723.69 -8.5406 -1.90739 0
M  V30 28608 C 3723.2 -6.4116 -2.90739 0
M  V30 28609 C 3723.91 -5.55375 -1.86963 0
M  V30 28610 N 3723.86 -4.09664 -2.15742 0
M  V30 28611 C 3723.71 -3.22231 -1.08477 0
M  V30 28612 O 3723.62 -3.68951 0.0600489 0
M  V30 28613 N 3723.66 -1.76692 -1.48799 0
M  V30 28614 C 3723.76 -1.41695 -2.57602 0
M  V30 28615 N 3723.71 -0.107296 -2.75791 0
M  V30 28616 C 3723.91 -2.29178 -3.69733 0
M  V30 28617 C 3723.96 -3.62753 -3.42653 0
M  V30 28618 H 3726.7 -7.45488 -4.45578 0
M  V30 28619 H 3726.97 -5.86232 -3.67314 0
M  V30 28620 H 3726.1 -7.84508 -2.24507 0
M  V30 28621 H 3723.45 -5.73556 -0.888715 0
M  V30 28622 H 3723.17 -5.9096 -3.88638 0
M  V30 28623 H 3722.17 -6.66053 -2.58894 0
M  V30 28624 H 3724.01 -8.16339 -3.92049 0
M  V30 28625 H 3724.08 -4.33052 -4.24913 0
M  V30 28626 H 3723.98 -1.9103 -4.71577 0
M  V30 28627 H 3723.59 0.521221 -1.95056 0
M  V30 28628 H 3723.79 0.286429 -3.70695 0
M  V30 28629 P 3722.14 -8.7635 -1.60911 0
M  V30 28630 O 3721.92 -10.1388 -1.11561 0
M  V30 28631 O 3721.35 -8.36503 -2.79617 0
M  V30 28632 O 3721.89 -7.71806 -0.42951 0
M  V30 28633 C 3722.83 -7.67148 0.673689 0
M  V30 28634 C 3722.1 -7.33374 1.95559 0
M  V30 28635 O 3721.89 -5.88721 2.00726 0
M  V30 28636 C 3720.7 -7.92526 2.10483 0
M  V30 28637 O 3720.31 -8.02971 3.47653 0
M  V30 28638 C 3719.82 -6.89602 1.41652 0
M  V30 28639 C 3720.53 -5.59201 1.75185 0
M  V30 28640 N 3720.48 -4.58235 0.662552 0
M  V30 28641 H 3723.32 -8.65116 0.777161 0
M  V30 28642 H 3723.59 -6.90173 0.474152 0
M  V30 28643 H 3722.72 -7.66548 2.79458 0
M  V30 28644 P 3718.76 -8.03563 3.84925 0
M  V30 28645 O 3718.54 -8.85821 5.0569 0
M  V30 28646 O 3717.97 -8.41101 2.65469 0
M  V30 28647 O 3718.51 -6.4965 4.18908 0
M  V30 28648 C 3719.45 -5.80886 5.05289 0
M  V30 28649 C 3718.72 -4.78366 5.89277 0
M  V30 28650 O 3718.51 -3.58302 5.08433 0
M  V30 28651 C 3717.32 -5.16748 6.36559 0
M  V30 28652 O 3716.93 -4.45271 7.53232 0
M  V30 28653 C 3716.44 -4.74572 5.19863 0
M  V30 28654 C 3717.15 -3.49373 4.70338 0
M  V30 28655 N 3717.1 -3.31704 3.22876 0
M  V30 28656 C 3716.95 -2.03326 2.74871 0
M  V30 28657 O 3716.86 -1.06486 3.48076 0
M  V30 28658 N 3716.91 -1.91838 1.37456 0
M  V30 28659 C 3717 -2.94295 0.462035 0
M  V30 28660 O 3716.95 -2.71763 -0.752928 0
M  V30 28661 C 3717.15 -4.25064 1.05249 0
M  V30 28662 C 3717.26 -5.39815 0.095697 0
M  V30 28663 C 3717.2 -4.40214 2.39192 0
M  V30 28664 H 3719.94 -6.54063 5.71245 0
M  V30 28665 H 3720.21 -5.30339 4.43905 0
M  V30 28666 H 3719.34 -4.55889 6.76652 0
M  V30 28667 H 3716.69 -2.6167 5.17842 0
M  V30 28668 H 3716.41 -5.52155 4.41878 0
M  V30 28669 H 3715.42 -4.51918 5.53297 0
M  V30 28670 H 3717.25 -6.25055 6.55162 0
M  V30 28671 H 3717.32 -5.39798 2.81523 0
M  V30 28672 H 3716.29 -5.91593 0.0279582 0
M  V30 28673 H 3718.03 -6.10038 0.450573 0
M  V30 28674 H 3717.54 -5.02007 -0.89937 0
M  V30 28675 H 3716.8 -0.995326 1.00435 0
M  V30 28676 P 3715.38 -4.23843 7.83734 0
M  V30 28677 O 3715.16 -4.19407 9.29784 0
M  V30 28678 O 3714.59 -5.24426 7.09156 0
M  V30 28679 O 3715.13 -2.7935 7.20758 0
M  V30 28680 C 3716.07 -1.72945 7.50224 0
M  V30 28681 C 3715.34 -0.406376 7.57911 0
M  V30 28682 O 3715.13 0.0897726 6.21935 0
M  V30 28683 C 3713.94 -0.438983 8.18724 0
M  V30 28684 O 3713.55 0.825065 8.71101 0
M  V30 28685 C 3713.06 -0.783689 6.99524 0
M  V30 28686 C 3713.77 -0.0619086 5.85867 0
M  V30 28687 N 3713.72 -0.78573 4.56183 0
M  V30 28688 C 3713.57 -0.0292889 3.41887 0
M  V30 28689 O 3713.48 1.18445 3.4419 0
M  V30 28690 N 3713.53 -0.744061 2.23964 0
M  V30 28691 C 3713.62 -2.10932 2.10362 0
M  V30 28692 O 3713.57 -2.64117 0.98825 0
M  V30 28693 C 3713.77 -2.8202 3.34994 0
M  V30 28694 C 3713.88 -4.31095 3.25037 0
M  V30 28695 C 3713.82 -2.15547 4.52261 0
M  V30 28696 H 3716.56 -1.93379 8.46595 0
M  V30 28697 H 3716.83 -1.68132 6.70852 0
M  V30 28698 H 3715.96 0.289041 8.15388 0
M  V30 28699 H 3713.31 0.926847 5.72749 0
M  V30 28700 H 3713.03 -1.86973 6.82036 0
M  V30 28701 H 3712.04 -0.403896 7.13257 0
M  V30 28702 H 3713.87 -1.20585 8.97435 0
M  V30 28703 H 3713.94 -2.71231 5.45042 0
M  V30 28704 H 3712.91 -4.76966 3.49992 0
M  V30 28705 H 3714.65 -4.67047 3.95024 0
M  V30 28706 H 3714.16 -4.58996 2.22312 0
M  V30 28707 H 3713.42 -0.214893 1.39758 0
M  V30 28708 P 3712 1.17771 8.83182 0
M  V30 28709 O 3711.78 2.07206 9.98732 0
M  V30 28710 O 3711.21 -0.0743816 8.81969 0
M  V30 28711 O 3711.75 1.97652 7.47304 0
M  V30 28712 C 3712.69 3.01055 7.08599 0
M  V30 28713 C 3711.96 4.12613 6.37049 0
M  V30 28714 O 3711.75 3.72827 4.97879 0
M  V30 28715 C 3710.56 4.45719 6.88164 0
M  V30 28716 O 3710.17 5.7877 6.5624 0
M  V30 28717 C 3709.68 3.47768 6.11991 0
M  V30 28718 C 3710.39 3.39356 4.77615 0
M  V30 28719 N 3710.34 2.04571 4.15244 0
M  V30 28720 C 3710.19 1.98587 2.78314 0
M  V30 28721 O 3710.1 2.98134 2.08835 0
M  V30 28722 N 3710.15 0.714467 2.24925 0
M  V30 28723 C 3710.24 -0.470001 2.94169 0
M  V30 28724 O 3710.19 -1.55587 2.35195 0
M  V30 28725 C 3710.39 -0.312541 4.36783 0
M  V30 28726 C 3710.5 -1.57711 5.16352 0
M  V30 28727 C 3710.44 0.914512 4.92583 0
M  V30 28728 H 3713.18 3.41169 7.98575 0
M  V30 28729 H 3713.45 2.58295 6.41556 0
M  V30 28730 H 3712.58 5.02657 6.42673 0
M  V30 28731 H 3709.93 4.11637 4.08885 0
M  V30 28732 H 3709.65 2.49626 6.61679 0
M  V30 28733 H 3708.66 3.86566 6.00778 0
M  V30 28734 H 3710.49 4.29943 7.96918 0
M  V30 28735 H 3710.56 1.00937 6.00374 0
M  V30 28736 H 3709.53 -1.80153 5.63503 0
M  V30 28737 H 3711.27 -1.4566 5.94104 0
M  V30 28738 H 3710.78 -2.40664 4.49645 0
M  V30 28739 H 3710.04 0.647622 1.25697 0
M  V30 28740 P 3708.62 6.144 6.45285 0
M  V30 28741 O 3708.4 7.54673 6.86199 0
M  V30 28742 O 3707.83 5.12391 7.179 0
M  V30 28743 O 3708.37 5.99158 4.88404 0
M  V30 28744 C 3709.31 6.60234 3.96415 0
M  V30 28745 C 3708.58 7.08259 2.72856 0
M  V30 28746 O 3708.37 5.9427 1.83651 0
M  V30 28747 C 3707.18 7.64886 2.9555 0
M  V30 28748 O 3706.79 8.53963 1.90717 0
M  V30 28749 C 3706.3 6.4116 2.90739 0
M  V30 28750 C 3707.01 5.55375 1.86963 0
M  V30 28751 N 3706.96 4.09448 2.16152 0
M  V30 28752 H 3709.8 7.45574 4.45629 0
M  V30 28753 H 3710.07 5.85864 3.679 0
M  V30 28754 H 3709.2 7.84412 2.24479 0
M  V30 28755 H 3706.55 5.73457 0.888562 0
M  V30 28756 H 3706.27 5.90877 3.88583 0
M  V30 28757 H 3705.28 6.6596 2.58858 0
M  V30 28758 H 3707.11 8.16339 3.92049 0
M  V30 28759 P 3705.24 8.7635 1.60911 0
M  V30 28760 O 3705.02 10.1388 1.11561 0
M  V30 28761 O 3704.45 8.36503 2.79617 0
M  V30 28762 O 3704.99 7.71806 0.42951 0
M  V30 28763 C 3705.93 7.67148 -0.673689 0
M  V30 28764 C 3705.2 7.33374 -1.95559 0
M  V30 28765 O 3704.99 5.88721 -2.00726 0
M  V30 28766 C 3703.8 7.92526 -2.10483 0
M  V30 28767 O 3703.41 8.02971 -3.47653 0
M  V30 28768 C 3702.92 6.89602 -1.41652 0
M  V30 28769 C 3703.63 5.59201 -1.75185 0
M  V30 28770 N 3703.58 4.58235 -0.662552 0
M  V30 28771 H 3706.42 8.65116 -0.777161 0
M  V30 28772 H 3706.69 6.90173 -0.474152 0
M  V30 28773 H 3705.82 7.66548 -2.79458 0
M  V30 28774 P 3701.86 8.03563 -3.84925 0
M  V30 28775 O 3701.64 8.85821 -5.0569 0
M  V30 28776 O 3701.07 8.41101 -2.65469 0
M  V30 28777 O 3701.61 6.4965 -4.18908 0
M  V30 28778 C 3702.55 5.81037 -5.05421 0
M  V30 28779 C 3701.82 4.78366 -5.89277 0
M  V30 28780 O 3701.61 3.58302 -5.08433 0
M  V30 28781 C 3700.42 5.17448 -6.36119 0
M  V30 28782 O 3700.03 4.45271 -7.53232 0
M  V30 28783 C 3699.54 4.74639 -5.19936 0
M  V30 28784 C 3700.25 3.49432 -4.70418 0
M  V30 28785 N 3700.2 3.31776 -3.22945 0
M  V30 28786 H 3703.04 6.54213 -5.71376 0
M  V30 28787 H 3703.31 5.30492 -4.44033 0
M  V30 28788 H 3702.44 4.55889 -6.76652 0
M  V30 28789 P 3698.48 4.23843 -7.83734 0
M  V30 28790 O 3698.26 4.19407 -9.29784 0
M  V30 28791 O 3697.69 5.24426 -7.09156 0
M  V30 28792 O 3698.23 2.7935 -7.20758 0
M  V30 28793 C 3699.17 1.72945 -7.50224 0
M  V30 28794 C 3698.44 0.406376 -7.57911 0
M  V30 28795 O 3698.23 -0.0897726 -6.21935 0
M  V30 28796 C 3697.04 0.438983 -8.18724 0
M  V30 28797 O 3696.65 -0.825065 -8.71101 0
M  V30 28798 C 3696.16 0.783689 -6.99524 0
M  V30 28799 C 3696.87 0.0619086 -5.85867 0
M  V30 28800 N 3696.82 0.78573 -4.56183 0
M  V30 28801 C 3696.67 0.0292889 -3.41887 0
M  V30 28802 O 3696.58 -1.18445 -3.4419 0
M  V30 28803 N 3696.63 0.744061 -2.23964 0
M  V30 28804 C 3696.72 2.10932 -2.10362 0
M  V30 28805 C 3696.87 2.8202 -3.34994 0
M  V30 28806 C 3696.92 2.15547 -4.52261 0
M  V30 28807 H 3699.66 1.93379 -8.46595 0
M  V30 28808 H 3699.93 1.68132 -6.70852 0
M  V30 28809 H 3699.06 -0.289041 -8.15388 0
M  V30 28810 H 3696.41 -0.926847 -5.72749 0
M  V30 28811 H 3696.13 1.86973 -6.82036 0
M  V30 28812 H 3695.14 0.403896 -7.13257 0
M  V30 28813 H 3696.97 1.20585 -8.97435 0
M  V30 28814 H 3697.04 2.71231 -5.45042 0
M  V30 28815 P 3695.1 -1.17771 -8.83182 0
M  V30 28816 O 3694.88 -2.07206 -9.98732 0
M  V30 28817 O 3694.31 0.0743816 -8.81969 0
M  V30 28818 O 3694.85 -1.97652 -7.47304 0
M  V30 28819 C 3695.79 -3.01133 -7.08783 0
M  V30 28820 C 3695.06 -4.12613 -6.37049 0
M  V30 28821 O 3694.85 -3.72827 -4.97879 0
M  V30 28822 C 3693.66 -4.45085 -6.88694 0
M  V30 28823 O 3693.27 -5.7877 -6.5624 0
M  V30 28824 C 3692.78 -3.47817 -6.12078 0
M  V30 28825 C 3693.49 -3.39414 -4.77697 0
M  V30 28826 N 3693.44 -2.04615 -4.15333 0
M  V30 28827 H 3696.28 -3.41248 -7.98759 0
M  V30 28828 H 3696.55 -2.5837 -6.41742 0
M  V30 28829 H 3695.68 -5.02657 -6.42673 0
M  V30 28830 P 3691.72 -6.144 -6.45285 0
M  V30 28831 O 3691.5 -7.54673 -6.86199 0
M  V30 28832 O 3690.93 -5.12391 -7.179 0
M  V30 28833 O 3691.47 -5.99158 -4.88404 0
M  V30 28834 C 3692.41 -6.60062 -3.96313 0
M  V30 28835 C 3691.68 -7.08259 -2.72856 0
M  V30 28836 O 3691.47 -5.9427 -1.83651 0
M  V30 28837 C 3690.28 -7.65087 -2.94749 0
M  V30 28838 O 3689.89 -8.53963 -1.90717 0
M  V30 28839 C 3689.4 -6.41069 -2.90698 0
M  V30 28840 C 3690.11 -5.5528 -1.86931 0
M  V30 28841 N 3690.06 -4.09575 -2.15696 0
M  V30 28842 C 3689.91 -3.24249 -1.08435 0
M  V30 28843 O 3689.82 -3.63946 0.0628747 0
M  V30 28844 N 3689.87 -1.90009 -1.39973 0
M  V30 28845 C 3689.96 -1.34884 -2.65614 0
M  V30 28846 O 3689.91 -0.123716 -2.81728 0
M  V30 28847 C 3690.11 -2.3145 -3.71736 0
M  V30 28848 C 3690.22 -1.75913 -5.10438 0
M  V30 28849 C 3690.16 -3.63518 -3.44754 0
M  V30 28850 H 3692.9 -7.45402 -4.45526 0
M  V30 28851 H 3693.17 -5.86062 -3.67208 0
M  V30 28852 H 3692.3 -7.84412 -2.24479 0
M  V30 28853 H 3689.65 -5.73358 -0.888409 0
M  V30 28854 H 3689.37 -5.90877 -3.88583 0
M  V30 28855 H 3688.38 -6.65867 -2.58821 0
M  V30 28856 H 3690.21 -8.16248 -3.92006 0
M  V30 28857 H 3690.28 -4.34551 -4.26383 0
M  V30 28858 H 3689.25 -1.85471 -5.61775 0
M  V30 28859 H 3690.99 -2.31364 -5.66257 0
M  V30 28860 H 3690.5 -0.695936 -5.05229 0
M  V30 28861 H 3689.76 -1.26277 -0.63625 0
M  V30 28862 P 3688.34 -8.7635 -1.60911 0
M  V30 28863 O 3688.12 -10.1388 -1.11561 0
M  V30 28864 O 3687.55 -8.36503 -2.79617 0
M  V30 28865 O 3688.09 -7.71806 -0.42951 0
M  V30 28866 C 3689.03 -7.66948 0.673514 0
M  V30 28867 C 3688.3 -7.33374 1.95559 0
M  V30 28868 O 3688.09 -5.88721 2.00726 0
M  V30 28869 C 3686.9 -7.92218 2.1125 0
M  V30 28870 O 3686.51 -8.02971 3.47653 0
M  V30 28871 C 3686.02 -6.89504 1.41631 0
M  V30 28872 C 3686.73 -5.59106 1.75155 0
M  V30 28873 N 3686.68 -4.58136 0.662409 0
M  V30 28874 C 3686.53 -3.26059 1.02863 0
M  V30 28875 O 3686.44 -2.90743 2.19009 0
M  V30 28876 N 3686.49 -2.35995 -0.0155585 0
M  V30 28877 C 3686.58 -2.65248 -1.35603 0
M  V30 28878 O 3686.53 -1.75605 -2.20651 0
M  V30 28879 C 3686.73 -4.05747 -1.64698 0
M  V30 28880 C 3686.84 -4.42345 -3.09553 0
M  V30 28881 C 3686.78 -4.96734 -0.652411 0
M  V30 28882 H 3689.52 -8.64917 0.776982 0
M  V30 28883 H 3689.79 -6.89974 0.474015 0
M  V30 28884 H 3688.92 -7.66548 2.79458 0
M  V30 28885 H 3686.27 -5.16076 2.65138 0
M  V30 28886 H 3685.99 -7.06433 0.329384 0
M  V30 28887 H 3685 -6.90829 1.81996 0
M  V30 28888 H 3686.83 -8.90774 1.62639 0
M  V30 28889 H 3686.9 -6.02181 -0.895285 0
M  V30 28890 H 3685.87 -4.80252 -3.45468 0
M  V30 28891 H 3687.61 -5.20015 -3.22119 0
M  V30 28892 H 3687.12 -3.53269 -3.67833 0
M  V30 28893 H 3686.38 -1.39558 0.227499 0
M  V30 28894 P 3684.96 -8.03563 3.84925 0
M  V30 28895 O 3684.74 -8.85821 5.0569 0
M  V30 28896 O 3684.17 -8.41101 2.65469 0
M  V30 28897 O 3684.71 -6.4965 4.18908 0
M  V30 28898 C 3685.65 -5.81037 5.05421 0
M  V30 28899 C 3684.92 -4.78366 5.89277 0
M  V30 28900 O 3684.71 -3.58302 5.08433 0
M  V30 28901 C 3683.52 -5.17448 6.36119 0
M  V30 28902 O 3683.13 -4.45271 7.53232 0
M  V30 28903 C 3682.64 -4.74639 5.19936 0
M  V30 28904 C 3683.35 -3.49432 4.70418 0
M  V30 28905 N 3683.3 -3.31776 3.22945 0
M  V30 28906 H 3686.14 -6.54213 5.71376 0
M  V30 28907 H 3686.41 -5.30492 4.44033 0
M  V30 28908 H 3685.54 -4.55889 6.76652 0
M  V30 28909 P 3681.58 -4.23843 7.83734 0
M  V30 28910 O 3681.36 -4.19407 9.29784 0
M  V30 28911 O 3680.79 -5.24426 7.09156 0
M  V30 28912 O 3681.33 -2.7935 7.20758 0
M  V30 28913 C 3682.27 -1.72945 7.50224 0
M  V30 28914 C 3681.54 -0.406376 7.57911 0
M  V30 28915 O 3681.33 0.0897726 6.21935 0
M  V30 28916 C 3680.14 -0.438983 8.18724 0
M  V30 28917 O 3679.75 0.825065 8.71101 0
M  V30 28918 C 3679.26 -0.783689 6.99524 0
M  V30 28919 C 3679.97 -0.0619086 5.85867 0
M  V30 28920 N 3679.92 -0.78573 4.56183 0
M  V30 28921 C 3679.77 -0.0292889 3.41887 0
M  V30 28922 O 3679.68 1.18445 3.4419 0
M  V30 28923 N 3679.73 -0.744061 2.23964 0
M  V30 28924 C 3679.82 -2.10932 2.10362 0
M  V30 28925 C 3679.97 -2.8202 3.34994 0
M  V30 28926 C 3680.02 -2.15547 4.52261 0
M  V30 28927 H 3682.76 -1.93379 8.46595 0
M  V30 28928 H 3683.03 -1.68132 6.70852 0
M  V30 28929 H 3682.16 0.289041 8.15388 0
M  V30 28930 H 3679.51 0.926847 5.72749 0
M  V30 28931 H 3679.23 -1.86973 6.82036 0
M  V30 28932 H 3678.24 -0.403896 7.13257 0
M  V30 28933 H 3680.07 -1.20585 8.97435 0
M  V30 28934 H 3680.14 -2.71231 5.45042 0
M  V30 28935 P 3678.2 1.17771 8.83182 0
M  V30 28936 O 3677.98 2.07206 9.98732 0
M  V30 28937 O 3677.41 -0.0743816 8.81969 0
M  V30 28938 O 3677.95 1.97652 7.47304 0
M  V30 28939 C 3678.89 3.01055 7.08599 0
M  V30 28940 C 3678.16 4.12613 6.37049 0
M  V30 28941 O 3677.95 3.72827 4.97879 0
M  V30 28942 C 3676.76 4.45719 6.88164 0
M  V30 28943 O 3676.37 5.7877 6.5624 0
M  V30 28944 C 3675.88 3.47768 6.11991 0
M  V30 28945 C 3676.59 3.39356 4.77615 0
M  V30 28946 N 3676.54 2.04571 4.15244 0
M  V30 28947 C 3676.39 1.98587 2.78314 0
M  V30 28948 O 3676.3 2.98134 2.08835 0
M  V30 28949 N 3676.35 0.714467 2.24925 0
M  V30 28950 C 3676.44 -0.470001 2.94169 0
M  V30 28951 O 3676.39 -1.55587 2.35195 0
M  V30 28952 C 3676.59 -0.312541 4.36783 0
M  V30 28953 C 3676.7 -1.57711 5.16352 0
M  V30 28954 C 3676.64 0.914512 4.92583 0
M  V30 28955 H 3679.38 3.41169 7.98575 0
M  V30 28956 H 3679.65 2.58295 6.41556 0
M  V30 28957 H 3678.78 5.02657 6.42673 0
M  V30 28958 H 3676.13 4.11637 4.08885 0
M  V30 28959 H 3675.85 2.49626 6.61679 0
M  V30 28960 H 3674.86 3.86566 6.00778 0
M  V30 28961 H 3676.69 4.29943 7.96918 0
M  V30 28962 H 3676.76 1.00937 6.00374 0
M  V30 28963 H 3675.73 -1.80153 5.63503 0
M  V30 28964 H 3677.47 -1.4566 5.94104 0
M  V30 28965 H 3676.98 -2.40664 4.49645 0
M  V30 28966 H 3676.24 0.647622 1.25697 0
M  V30 28967 P 3674.82 6.144 6.45285 0
M  V30 28968 O 3674.6 7.54673 6.86199 0
M  V30 28969 O 3674.03 5.12391 7.179 0
M  V30 28970 O 3674.57 5.99158 4.88404 0
M  V30 28971 C 3675.51 6.60234 3.96415 0
M  V30 28972 C 3674.78 7.08259 2.72856 0
M  V30 28973 O 3674.57 5.9427 1.83651 0
M  V30 28974 C 3673.38 7.64886 2.9555 0
M  V30 28975 O 3672.99 8.53963 1.90717 0
M  V30 28976 C 3672.5 6.4116 2.90739 0
M  V30 28977 C 3673.21 5.55375 1.86963 0
M  V30 28978 N 3673.16 4.09664 2.15742 0
M  V30 28979 H 3676 7.45574 4.45629 0
M  V30 28980 H 3676.27 5.86232 3.67314 0
M  V30 28981 H 3675.4 7.84412 2.24479 0
M  V30 28982 P 3671.44 8.7635 1.60911 0
M  V30 28983 O 3671.22 10.1388 1.11561 0
M  V30 28984 O 3670.65 8.36503 2.79617 0
M  V30 28985 O 3671.19 7.71806 0.42951 0
M  V30 28986 C 3672.13 7.67148 -0.673689 0
M  V30 28987 C 3671.4 7.33374 -1.95559 0
M  V30 28988 O 3671.19 5.88721 -2.00726 0
M  V30 28989 C 3670 7.92526 -2.10483 0
M  V30 28990 O 3669.61 8.02971 -3.47653 0
M  V30 28991 C 3669.12 6.89602 -1.41652 0
M  V30 28992 C 3669.83 5.59201 -1.75185 0
M  V30 28993 N 3669.78 4.58301 -0.657969 0
M  V30 28994 C 3669.86 4.79019 0.692603 0
M  V30 28995 N 3669.79 3.69736 1.38998 0
M  V30 28996 C 3669.64 2.70474 0.438135 0
M  V30 28997 C 3669.51 1.30327 0.538142 0
M  V30 28998 N 3669.5 0.64304 1.69192 0
M  V30 28999 N 3669.39 0.611027 -0.605183 0
M  V30 29000 C 3669.4 1.27002 -1.75953 0
M  V30 29001 N 3669.52 2.56038 -1.98546 0
M  V30 29002 C 3669.64 3.22681 -0.822541 0
M  V30 29003 H 3672.62 8.65116 -0.777161 0
M  V30 29004 H 3672.89 6.9022 -0.46725 0
M  V30 29005 H 3672.02 7.66548 -2.79458 0
M  V30 29006 H 3669.37 5.16165 -2.65183 0
M  V30 29007 H 3669.09 7.06433 -0.329384 0
M  V30 29008 H 3668.1 6.90926 -1.82021 0
M  V30 29009 H 3669.93 8.90873 -1.62657 0
M  V30 29010 H 3669.97 5.77785 1.13874 0
M  V30 29011 H 3669.59 1.15585 2.57991 0
M  V30 29012 H 3669.4 -0.382989 1.69835 0
M  V30 29013 H 3669.29 0.653331 -2.64449 0
M  V30 29014 P 3668.06 8.03563 -3.84925 0
M  V30 29015 O 3667.84 8.85821 -5.0569 0
M  V30 29016 O 3667.27 8.41101 -2.65469 0
M  V30 29017 O 3667.81 6.4965 -4.18908 0
M  V30 29018 C 3668.75 5.81037 -5.05421 0
M  V30 29019 C 3668.02 4.78366 -5.89277 0
M  V30 29020 O 3667.81 3.58302 -5.08433 0
M  V30 29021 C 3666.62 5.17448 -6.36119 0
M  V30 29022 O 3666.23 4.45271 -7.53232 0
M  V30 29023 C 3665.74 4.74639 -5.19936 0
M  V30 29024 C 3666.45 3.49432 -4.70418 0
M  V30 29025 N 3666.4 3.31776 -3.22945 0
M  V30 29026 H 3669.24 6.54213 -5.71376 0
M  V30 29027 H 3669.51 5.30492 -4.44033 0
M  V30 29028 H 3668.64 4.55889 -6.76652 0
M  V30 29029 P 3664.68 4.23843 -7.83734 0
M  V30 29030 O 3664.46 4.19407 -9.29784 0
M  V30 29031 O 3663.89 5.24426 -7.09156 0
M  V30 29032 O 3664.43 2.7935 -7.20758 0
M  V30 29033 C 3665.37 1.7299 -7.50419 0
M  V30 29034 C 3664.64 0.406376 -7.57911 0
M  V30 29035 O 3664.43 -0.0897726 -6.21935 0
M  V30 29036 C 3663.24 0.447224 -8.1878 0
M  V30 29037 O 3662.85 -0.825065 -8.71101 0
M  V30 29038 C 3662.36 0.783801 -6.99623 0
M  V30 29039 C 3663.07 0.0619192 -5.85967 0
M  V30 29040 N 3663.02 0.7859 -4.56281 0
M  V30 29041 H 3665.86 1.93423 -8.4679 0
M  V30 29042 H 3666.13 1.68181 -6.71046 0
M  V30 29043 H 3665.26 -0.289041 -8.15388 0
M  V30 29044 P 3661.3 -1.17771 -8.83182 0
M  V30 29045 O 3661.08 -2.07206 -9.98732 0
M  V30 29046 O 3660.51 0.0743816 -8.81969 0
M  V30 29047 O 3661.05 -1.97652 -7.47304 0
M  V30 29048 C 3661.99 -3.01133 -7.08783 0
M  V30 29049 C 3661.26 -4.12613 -6.37049 0
M  V30 29050 O 3661.05 -3.72827 -4.97879 0
M  V30 29051 C 3659.86 -4.45085 -6.88694 0
M  V30 29052 O 3659.47 -5.7877 -6.5624 0
M  V30 29053 C 3658.98 -3.47817 -6.12078 0
M  V30 29054 C 3659.69 -3.39414 -4.77697 0
M  V30 29055 N 3659.64 -2.04615 -4.15333 0
M  V30 29056 H 3662.48 -3.41248 -7.98759 0
M  V30 29057 H 3662.75 -2.5837 -6.41742 0
M  V30 29058 H 3661.88 -5.02657 -6.42673 0
M  V30 29059 P 3657.92 -6.144 -6.45285 0
M  V30 29060 O 3657.7 -7.54673 -6.86199 0
M  V30 29061 O 3657.13 -5.12391 -7.179 0
M  V30 29062 O 3657.67 -5.99158 -4.88404 0
M  V30 29063 C 3658.61 -6.60234 -3.96415 0
M  V30 29064 C 3657.88 -7.08259 -2.72856 0
M  V30 29065 O 3657.67 -5.9427 -1.83651 0
M  V30 29066 C 3656.48 -7.64886 -2.9555 0
M  V30 29067 O 3656.09 -8.53963 -1.90717 0
M  V30 29068 C 3655.6 -6.4116 -2.90739 0
M  V30 29069 C 3656.31 -5.55375 -1.86963 0
M  V30 29070 N 3656.26 -4.09664 -2.15742 0
M  V30 29071 H 3659.1 -7.45574 -4.45629 0
M  V30 29072 H 3659.37 -5.86232 -3.67314 0
M  V30 29073 H 3658.5 -7.84412 -2.24479 0
M  V30 29074 P 3654.54 -8.7635 -1.60911 0
M  V30 29075 O 3654.32 -10.1388 -1.11561 0
M  V30 29076 O 3653.75 -8.36503 -2.79617 0
M  V30 29077 O 3654.29 -7.71806 -0.42951 0
M  V30 29078 C 3655.23 -7.66948 0.673514 0
M  V30 29079 C 3654.5 -7.33374 1.95559 0
M  V30 29080 O 3654.29 -5.88721 2.00726 0
M  V30 29081 C 3653.1 -7.92218 2.1125 0
M  V30 29082 O 3652.71 -8.02971 3.47653 0
M  V30 29083 C 3652.22 -6.89504 1.41631 0
M  V30 29084 C 3652.93 -5.59106 1.75155 0
M  V30 29085 N 3652.88 -4.58136 0.662409 0
M  V30 29086 C 3652.73 -3.26059 1.02863 0
M  V30 29087 O 3652.64 -2.90743 2.19009 0
M  V30 29088 N 3652.69 -2.35995 -0.0155585 0
M  V30 29089 C 3652.78 -2.65248 -1.35603 0
M  V30 29090 C 3652.93 -4.05747 -1.64698 0
M  V30 29091 C 3652.98 -4.96734 -0.652411 0
M  V30 29092 H 3655.72 -8.64917 0.776982 0
M  V30 29093 H 3655.99 -6.89974 0.474015 0
M  V30 29094 H 3655.12 -7.66548 2.79458 0
M  V30 29095 H 3652.47 -5.16076 2.65138 0
M  V30 29096 H 3652.19 -7.06433 0.329384 0
M  V30 29097 H 3651.2 -6.90829 1.81996 0
M  V30 29098 H 3653.03 -8.90774 1.62639 0
M  V30 29099 H 3653.1 -6.02181 -0.895285 0
M  V30 29100 P 3651.16 -8.03563 3.84925 0
M  V30 29101 O 3650.94 -8.85821 5.0569 0
M  V30 29102 O 3650.37 -8.41101 2.65469 0
M  V30 29103 O 3650.91 -6.4965 4.18908 0
M  V30 29104 C 3651.85 -5.81037 5.05421 0
M  V30 29105 C 3651.12 -4.78366 5.89277 0
M  V30 29106 O 3650.91 -3.58302 5.08433 0
M  V30 29107 C 3649.72 -5.17448 6.36119 0
M  V30 29108 O 3649.33 -4.45271 7.53232 0
M  V30 29109 C 3648.84 -4.74639 5.19936 0
M  V30 29110 C 3649.55 -3.49432 4.70418 0
M  V30 29111 N 3649.5 -3.32099 3.22613 0
M  V30 29112 C 3649.58 -4.28245 2.25527 0
M  V30 29113 N 3649.51 -3.80823 1.04874 0
M  V30 29114 C 3649.36 -2.44571 1.23535 0
M  V30 29115 C 3649.23 -1.37068 0.330675 0
M  V30 29116 N 3649.22 -1.51472 -0.990824 0
M  V30 29117 N 3649.11 -0.138614 0.848756 0
M  V30 29118 C 3649.12 0.00675923 2.16999 0
M  V30 29119 N 3649.24 -0.904372 3.11122 0
M  V30 29120 C 3649.36 -2.12707 2.56212 0
M  V30 29121 H 3652.34 -6.54213 5.71376 0
M  V30 29122 H 3652.61 -5.30936 4.43503 0
M  V30 29123 H 3651.74 -4.55889 6.76652 0
M  V30 29124 H 3649.09 -2.61715 5.17932 0
M  V30 29125 H 3648.81 -5.52155 4.41878 0
M  V30 29126 H 3647.82 -4.51981 5.53374 0
M  V30 29127 H 3649.65 -6.25124 6.55234 0
M  V30 29128 H 3649.69 -5.34372 2.47488 0
M  V30 29129 H 3649.31 -2.45153 -1.4078 0
M  V30 29130 H 3649.12 -0.688422 -1.59911 0
M  V30 29131 H 3649.01 1.02584 2.52346 0
M  V30 29132 P 3647.78 -4.23843 7.83734 0
M  V30 29133 O 3647.56 -4.19407 9.29784 0
M  V30 29134 O 3646.99 -5.24426 7.09156 0
M  V30 29135 O 3647.53 -2.7935 7.20758 0
M  V30 29136 C 3648.47 -1.7299 7.50419 0
M  V30 29137 C 3647.74 -0.406376 7.57911 0
M  V30 29138 O 3647.53 0.0897726 6.21935 0
M  V30 29139 C 3646.34 -0.447224 8.1878 0
M  V30 29140 O 3645.95 0.825065 8.71101 0
M  V30 29141 C 3645.46 -0.783801 6.99623 0
M  V30 29142 C 3646.17 -0.0619192 5.85967 0
M  V30 29143 N 3646.12 -0.7859 4.56281 0
M  V30 29144 H 3648.96 -1.93423 8.4679 0
M  V30 29145 H 3649.23 -1.68181 6.71046 0
M  V30 29146 H 3648.36 0.289041 8.15388 0
M  V30 29147 P 3644.4 1.17771 8.83182 0
M  V30 29148 O 3644.18 2.07206 9.98732 0
M  V30 29149 O 3643.61 -0.0743816 8.81969 0
M  V30 29150 O 3644.15 1.97652 7.47304 0
M  V30 29151 C 3645.09 3.01055 7.08599 0
M  V30 29152 C 3644.36 4.12613 6.37049 0
M  V30 29153 O 3644.15 3.72827 4.97879 0
M  V30 29154 C 3642.96 4.45719 6.88164 0
M  V30 29155 O 3642.57 5.7877 6.5624 0
M  V30 29156 C 3642.08 3.47768 6.11991 0
M  V30 29157 C 3642.79 3.39356 4.77615 0
M  V30 29158 N 3642.74 2.04571 4.15244 0
M  V30 29159 C 3642.59 1.98587 2.78314 0
M  V30 29160 O 3642.5 2.98134 2.08835 0
M  V30 29161 N 3642.55 0.714467 2.24925 0
M  V30 29162 C 3642.64 -0.470001 2.94169 0
M  V30 29163 O 3642.59 -1.55587 2.35195 0
M  V30 29164 C 3642.79 -0.312541 4.36783 0
M  V30 29165 C 3642.9 -1.57711 5.16352 0
M  V30 29166 C 3642.84 0.914512 4.92583 0
M  V30 29167 H 3645.58 3.41169 7.98575 0
M  V30 29168 H 3645.85 2.58295 6.41556 0
M  V30 29169 H 3644.98 5.02657 6.42673 0
M  V30 29170 H 3642.33 4.11637 4.08885 0
M  V30 29171 H 3642.05 2.49626 6.61679 0
M  V30 29172 H 3641.06 3.86566 6.00778 0
M  V30 29173 H 3642.89 4.29943 7.96918 0
M  V30 29174 H 3642.96 1.00937 6.00374 0
M  V30 29175 H 3641.93 -1.80153 5.63503 0
M  V30 29176 H 3643.67 -1.4566 5.94104 0
M  V30 29177 H 3643.18 -2.40664 4.49645 0
M  V30 29178 H 3642.44 0.647622 1.25697 0
M  V30 29179 P 3641.02 6.144 6.45285 0
M  V30 29180 O 3640.8 7.54673 6.86199 0
M  V30 29181 O 3640.23 5.12391 7.179 0
M  V30 29182 O 3640.77 5.99158 4.88404 0
M  V30 29183 C 3641.71 6.60234 3.96415 0
M  V30 29184 C 3640.98 7.08259 2.72856 0
M  V30 29185 O 3640.77 5.9427 1.83651 0
M  V30 29186 C 3639.58 7.64886 2.9555 0
M  V30 29187 O 3639.19 8.53963 1.90717 0
M  V30 29188 C 3638.7 6.4116 2.90739 0
M  V30 29189 C 3639.41 5.55375 1.86963 0
M  V30 29190 N 3639.36 4.09664 2.15742 0
M  V30 29191 H 3642.2 7.45574 4.45629 0
M  V30 29192 H 3642.47 5.86232 3.67314 0
M  V30 29193 H 3641.6 7.84412 2.24479 0
M  V30 29194 P 3637.64 8.7635 1.60911 0
M  V30 29195 O 3637.42 10.1388 1.11561 0
M  V30 29196 O 3636.85 8.36503 2.79617 0
M  V30 29197 O 3637.39 7.71806 0.42951 0
M  V30 29198 C 3638.33 7.67148 -0.673689 0
M  V30 29199 C 3637.6 7.33374 -1.95559 0
M  V30 29200 O 3637.39 5.88721 -2.00726 0
M  V30 29201 C 3636.2 7.92526 -2.10483 0
M  V30 29202 O 3635.81 8.02971 -3.47653 0
M  V30 29203 C 3635.32 6.89602 -1.41652 0
M  V30 29204 C 3636.03 5.59201 -1.75185 0
M  V30 29205 N 3635.98 4.58235 -0.662552 0
M  V30 29206 H 3638.82 8.65116 -0.777161 0
M  V30 29207 H 3639.09 6.90173 -0.474152 0
M  V30 29208 H 3638.22 7.66548 -2.79458 0
M  V30 29209 P 3634.26 8.03563 -3.84925 0
M  V30 29210 O 3634.04 8.85821 -5.0569 0
M  V30 29211 O 3633.47 8.41101 -2.65469 0
M  V30 29212 O 3634.01 6.4965 -4.18908 0
M  V30 29213 C 3634.95 5.81037 -5.05421 0
M  V30 29214 C 3634.22 4.78366 -5.89277 0
M  V30 29215 O 3634.01 3.58302 -5.08433 0
M  V30 29216 C 3632.82 5.17448 -6.36119 0
M  V30 29217 O 3632.43 4.45271 -7.53232 0
M  V30 29218 C 3631.94 4.74639 -5.19936 0
M  V30 29219 C 3632.65 3.49432 -4.70418 0
M  V30 29220 N 3632.6 3.31776 -3.22945 0
M  V30 29221 H 3635.44 6.54213 -5.71376 0
M  V30 29222 H 3635.71 5.30492 -4.44033 0
M  V30 29223 H 3634.84 4.55889 -6.76652 0
M  V30 29224 P 3630.88 4.23843 -7.83734 0
M  V30 29225 O 3630.66 4.19407 -9.29784 0
M  V30 29226 O 3630.09 5.24426 -7.09156 0
M  V30 29227 O 3630.63 2.7935 -7.20758 0
M  V30 29228 C 3631.57 1.7299 -7.50419 0
M  V30 29229 C 3630.84 0.406376 -7.57911 0
M  V30 29230 O 3630.63 -0.0897726 -6.21935 0
M  V30 29231 C 3629.44 0.447224 -8.1878 0
M  V30 29232 O 3629.05 -0.825065 -8.71101 0
M  V30 29233 C 3628.56 0.783801 -6.99623 0
M  V30 29234 C 3629.27 0.0619192 -5.85967 0
M  V30 29235 N 3629.22 0.7859 -4.56281 0
M  V30 29236 C 3629.3 2.14308 -4.31736 0
M  V30 29237 N 3629.22 2.46106 -3.05116 0
M  V30 29238 C 3629.08 1.23422 -2.4014 0
M  V30 29239 C 3628.95 0.938381 -1.02409 0
M  V30 29240 N 3628.83 -0.444647 -0.805413 0
M  V30 29241 C 3628.83 -1.40829 -1.79435 0
M  V30 29242 N 3628.7 -2.67213 -1.38558 0
M  V30 29243 N 3628.96 -1.12947 -3.09005 0
M  V30 29244 C 3629.08 0.204887 -3.32369 0
M  V30 29245 H 3632.06 1.93423 -8.4679 0
M  V30 29246 H 3632.33 1.68181 -6.71046 0
M  V30 29247 H 3631.46 -0.289041 -8.15388 0
M  V30 29248 P 3627.5 -1.17771 -8.83182 0
M  V30 29249 O 3627.28 -2.07206 -9.98732 0
M  V30 29250 O 3626.71 0.0743816 -8.81969 0
M  V30 29251 O 3627.25 -1.97652 -7.47304 0
M  V30 29252 C 3628.19 -3.01133 -7.08783 0
M  V30 29253 C 3627.46 -4.12613 -6.37049 0
M  V30 29254 O 3627.25 -3.72827 -4.97879 0
M  V30 29255 C 3626.06 -4.45085 -6.88694 0
M  V30 29256 O 3625.67 -5.7877 -6.5624 0
M  V30 29257 C 3625.18 -3.47817 -6.12078 0
M  V30 29258 C 3625.89 -3.39414 -4.77697 0
M  V30 29259 N 3625.84 -2.04615 -4.15333 0
M  V30 29260 H 3628.68 -3.41248 -7.98759 0
M  V30 29261 H 3628.95 -2.5837 -6.41742 0
M  V30 29262 H 3628.08 -5.02657 -6.42673 0
M  V30 29263 P 3624.12 -6.144 -6.45285 0
M  V30 29264 O 3623.9 -7.54673 -6.86199 0
M  V30 29265 O 3623.33 -5.12391 -7.179 0
M  V30 29266 O 3623.87 -5.99158 -4.88404 0
M  V30 29267 C 3624.81 -6.60234 -3.96415 0
M  V30 29268 C 3624.08 -7.08259 -2.72856 0
M  V30 29269 O 3623.87 -5.9427 -1.83651 0
M  V30 29270 C 3622.68 -7.64886 -2.9555 0
M  V30 29271 O 3622.29 -8.53963 -1.90717 0
M  V30 29272 C 3621.8 -6.4116 -2.90739 0
M  V30 29273 C 3622.51 -5.55375 -1.86963 0
M  V30 29274 N 3622.46 -4.09664 -2.15742 0
M  V30 29275 H 3625.3 -7.45574 -4.45629 0
M  V30 29276 H 3625.57 -5.86232 -3.67314 0
M  V30 29277 H 3624.7 -7.84412 -2.24479 0
M  V30 29278 P 3620.74 -8.7635 -1.60911 0
M  V30 29279 O 3620.52 -10.1388 -1.11561 0
M  V30 29280 O 3619.95 -8.36503 -2.79617 0
M  V30 29281 O 3620.49 -7.71806 -0.42951 0
M  V30 29282 C 3621.43 -7.66948 0.673514 0
M  V30 29283 C 3620.7 -7.33374 1.95559 0
M  V30 29284 O 3620.49 -5.88721 2.00726 0
M  V30 29285 C 3619.3 -7.92218 2.1125 0
M  V30 29286 O 3618.91 -8.02971 3.47653 0
M  V30 29287 C 3618.42 -6.89504 1.41631 0
M  V30 29288 C 3619.13 -5.59106 1.75155 0
M  V30 29289 N 3619.08 -4.58136 0.662409 0
M  V30 29290 C 3618.93 -3.26059 1.02863 0
M  V30 29291 O 3618.84 -2.90743 2.19009 0
M  V30 29292 N 3618.89 -2.35995 -0.0155585 0
M  V30 29293 C 3618.98 -2.65248 -1.35603 0
M  V30 29294 C 3619.13 -4.05747 -1.64698 0
M  V30 29295 C 3619.18 -4.96734 -0.652411 0
M  V30 29296 H 3621.92 -8.64917 0.776982 0
M  V30 29297 H 3622.19 -6.89974 0.474015 0
M  V30 29298 H 3621.32 -7.66548 2.79458 0
M  V30 29299 H 3618.67 -5.16076 2.65138 0
M  V30 29300 H 3618.39 -7.06433 0.329384 0
M  V30 29301 H 3617.4 -6.90829 1.81996 0
M  V30 29302 H 3619.23 -8.90774 1.62639 0
M  V30 29303 H 3619.3 -6.02181 -0.895285 0
M  V30 29304 P 3617.36 -8.03563 3.84925 0
M  V30 29305 O 3617.14 -8.85821 5.0569 0
M  V30 29306 O 3616.57 -8.41101 2.65469 0
M  V30 29307 O 3617.11 -6.4965 4.18908 0
M  V30 29308 C 3618.05 -5.81037 5.05421 0
M  V30 29309 C 3617.32 -4.78366 5.89277 0
M  V30 29310 O 3617.11 -3.58302 5.08433 0
M  V30 29311 C 3615.92 -5.17448 6.36119 0
M  V30 29312 O 3615.53 -4.45271 7.53232 0
M  V30 29313 C 3615.04 -4.74639 5.19936 0
M  V30 29314 C 3615.75 -3.49432 4.70418 0
M  V30 29315 N 3615.7 -3.32099 3.22613 0
M  V30 29316 H 3618.54 -6.54213 5.71376 0
M  V30 29317 H 3618.81 -5.30936 4.43503 0
M  V30 29318 H 3617.94 -4.55889 6.76652 0
M  V30 29319 H 3615.29 -2.61715 5.17932 0
M  V30 29320 H 3615.01 -5.52155 4.41878 0
M  V30 29321 H 3614.02 -4.51981 5.53374 0
M  V30 29322 H 3615.85 -6.25124 6.55234 0
M  V30 29323 P 3613.98 -4.23843 7.83734 0
M  V30 29324 O 3613.76 -4.19407 9.29784 0
M  V30 29325 O 3613.19 -5.24426 7.09156 0
M  V30 29326 O 3613.73 -2.7935 7.20758 0
M  V30 29327 C 3614.67 -1.7299 7.50419 0
M  V30 29328 C 3613.94 -0.406376 7.57911 0
M  V30 29329 O 3613.73 0.0897726 6.21935 0
M  V30 29330 C 3612.54 -0.447224 8.1878 0
M  V30 29331 O 3612.15 0.825065 8.71101 0
M  V30 29332 C 3611.66 -0.783801 6.99623 0
M  V30 29333 C 3612.37 -0.0619192 5.85967 0
M  V30 29334 N 3612.32 -0.790462 4.56202 0
M  V30 29335 H 3615.16 -1.93423 8.4679 0
M  V30 29336 H 3615.43 -1.68852 6.70877 0
M  V30 29337 H 3614.56 0.289041 8.15388 0
M  V30 29338 H 3611.91 0.927006 5.72848 0
M  V30 29339 H 3611.63 -1.86973 6.82036 0
M  V30 29340 H 3610.64 -0.403953 7.13357 0
M  V30 29341 H 3612.47 -1.20599 8.97534 0
M  V30 29342 P 3610.6 1.17771 8.83182 0
M  V30 29343 O 3610.38 2.07206 9.98732 0
M  V30 29344 O 3609.81 -0.0743816 8.81969 0
M  V30 29345 O 3610.35 1.97652 7.47304 0
M  V30 29346 C 3611.29 3.01133 7.08783 0
M  V30 29347 C 3610.56 4.12613 6.37049 0
M  V30 29348 O 3610.35 3.72827 4.97879 0
M  V30 29349 C 3609.16 4.45085 6.88694 0
M  V30 29350 O 3608.77 5.7877 6.5624 0
M  V30 29351 C 3608.28 3.47817 6.12078 0
M  V30 29352 C 3608.99 3.39414 4.77697 0
M  V30 29353 N 3608.94 2.04615 4.15333 0
M  V30 29354 H 3611.78 3.41248 7.98759 0
M  V30 29355 H 3612.05 2.5837 6.41742 0
M  V30 29356 H 3611.18 5.02657 6.42673 0
M  V30 29357 P 3607.22 6.144 6.45285 0
M  V30 29358 O 3607 7.54673 6.86199 0
M  V30 29359 O 3606.43 5.12391 7.179 0
M  V30 29360 O 3606.97 5.99158 4.88404 0
M  V30 29361 C 3607.91 6.60234 3.96415 0
M  V30 29362 C 3607.18 7.08259 2.72856 0
M  V30 29363 O 3606.97 5.9427 1.83651 0
M  V30 29364 C 3605.78 7.64886 2.9555 0
M  V30 29365 O 3605.39 8.53963 1.90717 0
M  V30 29366 C 3604.9 6.4116 2.90739 0
M  V30 29367 C 3605.61 5.55375 1.86963 0
M  V30 29368 N 3605.56 4.09448 2.16152 0
M  V30 29369 H 3608.4 7.45574 4.45629 0
M  V30 29370 H 3608.67 5.85864 3.679 0
M  V30 29371 H 3607.8 7.84412 2.24479 0
M  V30 29372 H 3605.15 5.73457 0.888562 0
M  V30 29373 H 3604.87 5.90877 3.88583 0
M  V30 29374 H 3603.88 6.6596 2.58858 0
M  V30 29375 H 3605.71 8.16339 3.92049 0
M  V30 29376 P 3603.84 8.7635 1.60911 0
M  V30 29377 O 3603.62 10.1388 1.11561 0
M  V30 29378 O 3603.05 8.36503 2.79617 0
M  V30 29379 O 3603.59 7.71806 0.42951 0
M  V30 29380 C 3604.53 7.67148 -0.673689 0
M  V30 29381 C 3603.8 7.33374 -1.95559 0
M  V30 29382 O 3603.59 5.88721 -2.00726 0
M  V30 29383 C 3602.4 7.92526 -2.10483 0
M  V30 29384 O 3602.01 8.02971 -3.47653 0
M  V30 29385 C 3601.52 6.89602 -1.41652 0
M  V30 29386 C 3602.23 5.59201 -1.75185 0
M  V30 29387 N 3602.18 4.58235 -0.662552 0
M  V30 29388 H 3605.02 8.65116 -0.777161 0
M  V30 29389 H 3605.29 6.90173 -0.474152 0
M  V30 29390 H 3604.42 7.66548 -2.79458 0
M  V30 29391 P 3600.46 8.03563 -3.84925 0
M  V30 29392 O 3600.24 8.85821 -5.0569 0
M  V30 29393 O 3599.67 8.41101 -2.65469 0
M  V30 29394 O 3600.21 6.4965 -4.18908 0
M  V30 29395 C 3601.15 5.81037 -5.05421 0
M  V30 29396 C 3600.42 4.78366 -5.89277 0
M  V30 29397 O 3600.21 3.58302 -5.08433 0
M  V30 29398 C 3599.02 5.17448 -6.36119 0
M  V30 29399 O 3598.63 4.45271 -7.53232 0
M  V30 29400 C 3598.14 4.74639 -5.19936 0
M  V30 29401 C 3598.85 3.49432 -4.70418 0
M  V30 29402 N 3598.8 3.31776 -3.22945 0
M  V30 29403 H 3601.64 6.54213 -5.71376 0
M  V30 29404 H 3601.91 5.30492 -4.44033 0
M  V30 29405 H 3601.04 4.55889 -6.76652 0
M  V30 29406 P 3597.08 4.23843 -7.83734 0
M  V30 29407 O 3596.86 4.19407 -9.29784 0
M  V30 29408 O 3596.29 5.24426 -7.09156 0
M  V30 29409 O 3596.83 2.7935 -7.20758 0
M  V30 29410 C 3597.77 1.7299 -7.50419 0
M  V30 29411 C 3597.04 0.406376 -7.57911 0
M  V30 29412 O 3596.83 -0.0897726 -6.21935 0
M  V30 29413 C 3595.64 0.447224 -8.1878 0
M  V30 29414 O 3595.25 -0.825065 -8.71101 0
M  V30 29415 C 3594.76 0.783801 -6.99623 0
M  V30 29416 C 3595.47 0.0619192 -5.85967 0
M  V30 29417 N 3595.42 0.7859 -4.56281 0
M  V30 29418 H 3598.26 1.93423 -8.4679 0
M  V30 29419 H 3598.53 1.68181 -6.71046 0
M  V30 29420 H 3597.66 -0.289041 -8.15388 0
M  V30 29421 P 3593.7 -1.17771 -8.83182 0
M  V30 29422 O 3593.48 -2.07206 -9.98732 0
M  V30 29423 O 3592.91 0.0743816 -8.81969 0
M  V30 29424 O 3593.45 -1.97652 -7.47304 0
M  V30 29425 C 3594.39 -3.01055 -7.08599 0
M  V30 29426 C 3593.66 -4.12613 -6.37049 0
M  V30 29427 O 3593.45 -3.72827 -4.97879 0
M  V30 29428 C 3592.26 -4.45719 -6.88164 0
M  V30 29429 O 3591.87 -5.7877 -6.5624 0
M  V30 29430 C 3591.38 -3.47768 -6.11991 0
M  V30 29431 C 3592.09 -3.39356 -4.77615 0
M  V30 29432 N 3592.04 -2.04571 -4.15244 0
M  V30 29433 C 3591.89 -1.98587 -2.78314 0
M  V30 29434 O 3591.8 -2.98134 -2.08835 0
M  V30 29435 N 3591.85 -0.714467 -2.24925 0
M  V30 29436 C 3591.94 0.470001 -2.94169 0
M  V30 29437 O 3591.89 1.55587 -2.35195 0
M  V30 29438 C 3592.09 0.312541 -4.36783 0
M  V30 29439 C 3592.2 1.57711 -5.16352 0
M  V30 29440 C 3592.14 -0.914512 -4.92583 0
M  V30 29441 H 3594.88 -3.41169 -7.98575 0
M  V30 29442 H 3595.15 -2.58295 -6.41556 0
M  V30 29443 H 3594.28 -5.02657 -6.42673 0
M  V30 29444 H 3591.63 -4.11637 -4.08885 0
M  V30 29445 H 3591.35 -2.49626 -6.61679 0
M  V30 29446 H 3590.36 -3.86566 -6.00778 0
M  V30 29447 H 3592.19 -4.29943 -7.96918 0
M  V30 29448 H 3592.26 -1.00937 -6.00374 0
M  V30 29449 H 3591.23 1.80153 -5.63503 0
M  V30 29450 H 3592.97 1.4566 -5.94104 0
M  V30 29451 H 3592.48 2.40664 -4.49645 0
M  V30 29452 H 3591.74 -0.647622 -1.25697 0
M  V30 29453 P 3590.32 -6.144 -6.45285 0
M  V30 29454 O 3590.1 -7.54673 -6.86199 0
M  V30 29455 O 3589.53 -5.12391 -7.179 0
M  V30 29456 O 3590.07 -5.99158 -4.88404 0
M  V30 29457 C 3591.01 -6.60062 -3.96313 0
M  V30 29458 C 3590.28 -7.08259 -2.72856 0
M  V30 29459 O 3590.07 -5.9427 -1.83651 0
M  V30 29460 C 3588.88 -7.65087 -2.94749 0
M  V30 29461 O 3588.49 -8.53963 -1.90717 0
M  V30 29462 C 3588 -6.41069 -2.90698 0
M  V30 29463 C 3588.71 -5.5528 -1.86931 0
M  V30 29464 N 3588.66 -4.09575 -2.15696 0
M  V30 29465 C 3588.51 -3.24249 -1.08435 0
M  V30 29466 O 3588.42 -3.63946 0.0628747 0
M  V30 29467 N 3588.47 -1.90009 -1.39973 0
M  V30 29468 C 3588.56 -1.34884 -2.65614 0
M  V30 29469 C 3588.71 -2.3145 -3.71736 0
M  V30 29470 C 3588.76 -3.63518 -3.44754 0
M  V30 29471 H 3591.5 -7.45402 -4.45526 0
M  V30 29472 H 3591.77 -5.86062 -3.67208 0
M  V30 29473 H 3590.9 -7.84412 -2.24479 0
M  V30 29474 H 3588.25 -5.73358 -0.888409 0
M  V30 29475 H 3587.97 -5.90877 -3.88583 0
M  V30 29476 H 3586.98 -6.65867 -2.58821 0
M  V30 29477 H 3588.81 -8.16248 -3.92006 0
M  V30 29478 H 3588.88 -4.34551 -4.26383 0
M  V30 29479 P 3586.94 -8.7635 -1.60911 0
M  V30 29480 O 3586.72 -10.1388 -1.11561 0
M  V30 29481 O 3586.15 -8.36503 -2.79617 0
M  V30 29482 O 3586.69 -7.71806 -0.42951 0
M  V30 29483 C 3587.63 -7.66948 0.673514 0
M  V30 29484 C 3586.9 -7.33374 1.95559 0
M  V30 29485 O 3586.69 -5.88721 2.00726 0
M  V30 29486 C 3585.5 -7.92218 2.1125 0
M  V30 29487 O 3585.11 -8.02971 3.47653 0
M  V30 29488 C 3584.62 -6.89504 1.41631 0
M  V30 29489 C 3585.33 -5.59106 1.75155 0
M  V30 29490 N 3585.28 -4.58136 0.662409 0
M  V30 29491 C 3585.13 -3.26059 1.02863 0
M  V30 29492 O 3585.04 -2.90743 2.19009 0
M  V30 29493 N 3585.09 -2.35995 -0.0155585 0
M  V30 29494 C 3585.18 -2.65248 -1.35603 0
M  V30 29495 C 3585.33 -4.05747 -1.64698 0
M  V30 29496 C 3585.38 -4.96734 -0.652411 0
M  V30 29497 H 3588.12 -8.64917 0.776982 0
M  V30 29498 H 3588.39 -6.89974 0.474015 0
M  V30 29499 H 3587.52 -7.66548 2.79458 0
M  V30 29500 H 3584.87 -5.16076 2.65138 0
M  V30 29501 H 3584.59 -7.06433 0.329384 0
M  V30 29502 H 3583.6 -6.90829 1.81996 0
M  V30 29503 H 3585.43 -8.90774 1.62639 0
M  V30 29504 H 3585.5 -6.02181 -0.895285 0
M  V30 29505 P 3583.56 -8.03563 3.84925 0
M  V30 29506 O 3583.34 -8.85821 5.0569 0
M  V30 29507 O 3582.77 -8.41101 2.65469 0
M  V30 29508 O 3583.31 -6.4965 4.18908 0
M  V30 29509 C 3584.25 -5.80886 5.05289 0
M  V30 29510 C 3583.52 -4.78366 5.89277 0
M  V30 29511 O 3583.31 -3.58302 5.08433 0
M  V30 29512 C 3582.12 -5.16748 6.36559 0
M  V30 29513 O 3581.73 -4.45271 7.53232 0
M  V30 29514 C 3581.24 -4.74572 5.19863 0
M  V30 29515 C 3581.95 -3.49373 4.70338 0
M  V30 29516 N 3581.9 -3.31704 3.22876 0
M  V30 29517 C 3581.75 -2.03326 2.74871 0
M  V30 29518 O 3581.66 -1.06486 3.48076 0
M  V30 29519 N 3581.71 -1.91838 1.37456 0
M  V30 29520 C 3581.8 -2.94295 0.462035 0
M  V30 29521 O 3581.75 -2.71763 -0.752928 0
M  V30 29522 C 3581.95 -4.25064 1.05249 0
M  V30 29523 C 3582.06 -5.39815 0.095697 0
M  V30 29524 C 3582 -4.40214 2.39192 0
M  V30 29525 H 3584.74 -6.54063 5.71245 0
M  V30 29526 H 3585.01 -5.30339 4.43905 0
M  V30 29527 H 3584.14 -4.55889 6.76652 0
M  V30 29528 H 3581.49 -2.6167 5.17842 0
M  V30 29529 H 3581.21 -5.52155 4.41878 0
M  V30 29530 H 3580.22 -4.51918 5.53297 0
M  V30 29531 H 3582.05 -6.25055 6.55162 0
M  V30 29532 H 3582.12 -5.39798 2.81523 0
M  V30 29533 H 3581.09 -5.91593 0.0279582 0
M  V30 29534 H 3582.83 -6.10038 0.450573 0
M  V30 29535 H 3582.34 -5.02007 -0.89937 0
M  V30 29536 H 3581.6 -0.995326 1.00435 0
M  V30 29537 P 3580.18 -4.23843 7.83734 0
M  V30 29538 O 3579.96 -4.19407 9.29784 0
M  V30 29539 O 3579.39 -5.24426 7.09156 0
M  V30 29540 O 3579.93 -2.7935 7.20758 0
M  V30 29541 C 3580.87 -1.7299 7.50419 0
M  V30 29542 C 3580.14 -0.406376 7.57911 0
M  V30 29543 O 3579.93 0.0897726 6.21935 0
M  V30 29544 C 3578.74 -0.447224 8.1878 0
M  V30 29545 O 3578.35 0.825065 8.71101 0
M  V30 29546 C 3577.86 -0.783801 6.99623 0
M  V30 29547 C 3578.57 -0.0619192 5.85967 0
M  V30 29548 N 3578.52 -0.7859 4.56281 0
M  V30 29549 H 3581.36 -1.93423 8.4679 0
M  V30 29550 H 3581.63 -1.68181 6.71046 0
M  V30 29551 H 3580.76 0.289041 8.15388 0
M  V30 29552 P 3576.8 1.17771 8.83182 0
M  V30 29553 O 3576.58 2.07206 9.98732 0
M  V30 29554 O 3576.01 -0.0743816 8.81969 0
M  V30 29555 O 3576.55 1.97652 7.47304 0
M  V30 29556 C 3577.49 3.01133 7.08783 0
M  V30 29557 C 3576.76 4.12613 6.37049 0
M  V30 29558 O 3576.55 3.72827 4.97879 0
M  V30 29559 C 3575.36 4.45085 6.88694 0
M  V30 29560 O 3574.97 5.7877 6.5624 0
M  V30 29561 C 3574.48 3.47817 6.12078 0
M  V30 29562 C 3575.19 3.39414 4.77697 0
M  V30 29563 N 3575.14 2.04615 4.15333 0
M  V30 29564 H 3577.98 3.41248 7.98759 0
M  V30 29565 H 3578.25 2.5837 6.41742 0
M  V30 29566 H 3577.38 5.02657 6.42673 0
M  V30 29567 P 3573.42 6.144 6.45285 0
M  V30 29568 O 3573.2 7.54673 6.86199 0
M  V30 29569 O 3572.63 5.12391 7.179 0
M  V30 29570 O 3573.17 5.99158 4.88404 0
M  V30 29571 C 3574.11 6.60234 3.96415 0
M  V30 29572 C 3573.38 7.08259 2.72856 0
M  V30 29573 O 3573.17 5.9427 1.83651 0
M  V30 29574 C 3571.98 7.64886 2.9555 0
M  V30 29575 O 3571.59 8.53963 1.90717 0
M  V30 29576 C 3571.1 6.4116 2.90739 0
M  V30 29577 C 3571.81 5.55375 1.86963 0
M  V30 29578 N 3571.76 4.09448 2.16152 0
M  V30 29579 H 3574.6 7.45574 4.45629 0
M  V30 29580 H 3574.87 5.85864 3.679 0
M  V30 29581 H 3574 7.84412 2.24479 0
M  V30 29582 H 3571.35 5.73457 0.888562 0
M  V30 29583 H 3571.07 5.90877 3.88583 0
M  V30 29584 H 3570.08 6.6596 2.58858 0
M  V30 29585 H 3571.91 8.16339 3.92049 0
M  V30 29586 P 3570.04 8.7635 1.60911 0
M  V30 29587 O 3569.82 10.1388 1.11561 0
M  V30 29588 O 3569.25 8.36503 2.79617 0
M  V30 29589 O 3569.79 7.71806 0.42951 0
M  V30 29590 C 3570.73 7.67148 -0.673689 0
M  V30 29591 C 3570 7.33374 -1.95559 0
M  V30 29592 O 3569.79 5.88721 -2.00726 0
M  V30 29593 C 3568.6 7.92526 -2.10483 0
M  V30 29594 O 3568.21 8.02971 -3.47653 0
M  V30 29595 C 3567.72 6.89602 -1.41652 0
M  V30 29596 C 3568.43 5.59201 -1.75185 0
M  V30 29597 N 3568.38 4.58235 -0.662552 0
M  V30 29598 C 3568.46 4.7683 0.704049 0
M  V30 29599 N 3568.38 3.66233 1.39775 0
M  V30 29600 C 3568.24 2.66526 0.431739 0
M  V30 29601 C 3568.11 1.26394 0.575992 0
M  V30 29602 N 3567.99 0.62859 -0.67177 0
M  V30 29603 C 3567.99 1.27134 -1.89385 0
M  V30 29604 N 3567.86 0.492035 -2.96951 0
M  V30 29605 N 3568.12 2.58978 -2.02907 0
M  V30 29606 C 3568.24 3.22433 -0.832218 0
M  V30 29607 H 3571.22 8.65116 -0.777161 0
M  V30 29608 H 3571.49 6.90173 -0.474152 0
M  V30 29609 H 3570.62 7.66548 -2.79458 0
M  V30 29610 P 3566.66 8.03563 -3.84925 0
M  V30 29611 O 3566.44 8.85821 -5.0569 0
M  V30 29612 O 3565.87 8.41101 -2.65469 0
M  V30 29613 O 3566.41 6.4965 -4.18908 0
M  V30 29614 C 3567.35 5.81037 -5.05421 0
M  V30 29615 C 3566.62 4.78366 -5.89277 0
M  V30 29616 O 3566.41 3.58302 -5.08433 0
M  V30 29617 C 3565.22 5.17448 -6.36119 0
M  V30 29618 O 3564.83 4.45271 -7.53232 0
M  V30 29619 C 3564.34 4.74639 -5.19936 0
M  V30 29620 C 3565.05 3.49432 -4.70418 0
M  V30 29621 N 3565 3.31776 -3.22945 0
M  V30 29622 C 3565.08 4.27147 -2.23315 0
M  V30 29623 N 3565 3.78447 -1.02186 0
M  V30 29624 C 3564.86 2.41001 -1.21732 0
M  V30 29625 C 3564.73 1.36111 -0.27694 0
M  V30 29626 N 3564.61 0.113683 -0.912949 0
M  V30 29627 C 3564.61 -0.0846396 -2.27943 0
M  V30 29628 N 3564.48 -1.34737 -2.6916 0
M  V30 29629 N 3564.74 0.902521 -3.16379 0
M  V30 29630 C 3564.86 2.11937 -2.56849 0
M  V30 29631 H 3567.84 6.54213 -5.71376 0
M  V30 29632 H 3568.11 5.30492 -4.44033 0
M  V30 29633 H 3567.24 4.55889 -6.76652 0
M  V30 29634 P 3563.28 4.23843 -7.83734 0
M  V30 29635 O 3563.06 4.19407 -9.29784 0
M  V30 29636 O 3562.49 5.24426 -7.09156 0
M  V30 29637 O 3563.03 2.7935 -7.20758 0
M  V30 29638 C 3563.97 1.7299 -7.50419 0
M  V30 29639 C 3563.24 0.406376 -7.57911 0
M  V30 29640 O 3563.03 -0.0897726 -6.21935 0
M  V30 29641 C 3561.84 0.447224 -8.1878 0
M  V30 29642 O 3561.45 -0.825065 -8.71101 0
M  V30 29643 C 3560.96 0.783801 -6.99623 0
M  V30 29644 C 3561.67 0.0619192 -5.85967 0
M  V30 29645 N 3561.62 0.7859 -4.56281 0
M  V30 29646 H 3564.46 1.93423 -8.4679 0
M  V30 29647 H 3564.73 1.68181 -6.71046 0
M  V30 29648 H 3563.86 -0.289041 -8.15388 0
M  V30 29649 P 3559.9 -1.17771 -8.83182 0
M  V30 29650 O 3559.68 -2.07206 -9.98732 0
M  V30 29651 O 3559.11 0.0743816 -8.81969 0
M  V30 29652 O 3559.65 -1.97652 -7.47304 0
M  V30 29653 C 3560.59 -3.01133 -7.08783 0
M  V30 29654 C 3559.86 -4.12613 -6.37049 0
M  V30 29655 O 3559.65 -3.72827 -4.97879 0
M  V30 29656 C 3558.46 -4.45085 -6.88694 0
M  V30 29657 O 3558.07 -5.7877 -6.5624 0
M  V30 29658 C 3557.58 -3.47817 -6.12078 0
M  V30 29659 C 3558.29 -3.39414 -4.77697 0
M  V30 29660 N 3558.24 -2.04199 -4.15538 0
M  V30 29661 C 3558.32 -0.821545 -4.76977 0
M  V30 29662 N 3558.25 0.1794 -3.94592 0
M  V30 29663 C 3558.1 -0.419121 -2.70776 0
M  V30 29664 C 3557.97 0.109072 -1.40577 0
M  V30 29665 N 3557.96 1.4104 -1.1344 0
M  V30 29666 N 3557.85 -0.764381 -0.39411 0
M  V30 29667 C 3557.86 -2.06587 -0.664135 0
M  V30 29668 N 3557.98 -2.67948 -1.82153 0
M  V30 29669 C 3558.1 -1.77942 -2.8147 0
M  V30 29670 H 3561.08 -3.41248 -7.98759 0
M  V30 29671 H 3561.35 -2.57728 -6.42 0
M  V30 29672 H 3560.48 -5.02657 -6.42673 0
M  V30 29673 H 3557.83 -4.11708 -4.08956 0
M  V30 29674 H 3557.55 -2.49626 -6.61679 0
M  V30 29675 H 3556.56 -3.8662 -6.00862 0
M  V30 29676 H 3558.39 -4.29991 -7.97006 0
M  V30 29677 H 3558.43 -0.702451 -5.84696 0
M  V30 29678 H 3558.05 2.09647 -1.89651 0
M  V30 29679 H 3557.86 1.73358 -0.160575 0
M  V30 29680 H 3557.75 -2.71695 0.195838 0
M  V30 29681 P 3556.52 -6.144 -6.45285 0
M  V30 29682 O 3556.3 -7.54673 -6.86199 0
M  V30 29683 O 3555.73 -5.12391 -7.179 0
M  V30 29684 O 3556.27 -5.99158 -4.88404 0
M  V30 29685 C 3557.21 -6.60234 -3.96415 0
M  V30 29686 C 3556.48 -7.08259 -2.72856 0
M  V30 29687 O 3556.27 -5.9427 -1.83651 0
M  V30 29688 C 3555.08 -7.64886 -2.9555 0
M  V30 29689 O 3554.69 -8.53963 -1.90717 0
M  V30 29690 C 3554.2 -6.4116 -2.90739 0
M  V30 29691 C 3554.91 -5.55375 -1.86963 0
M  V30 29692 N 3554.86 -4.09664 -2.15742 0
M  V30 29693 H 3557.7 -7.45574 -4.45629 0
M  V30 29694 H 3557.97 -5.86232 -3.67314 0
M  V30 29695 H 3557.1 -7.84412 -2.24479 0
M  V30 29696 P 3553.14 -8.7635 -1.60911 0
M  V30 29697 O 3552.92 -10.1388 -1.11561 0
M  V30 29698 O 3552.35 -8.36503 -2.79617 0
M  V30 29699 O 3552.89 -7.71806 -0.42951 0
M  V30 29700 C 3553.83 -7.67148 0.673689 0
M  V30 29701 C 3553.1 -7.33374 1.95559 0
M  V30 29702 O 3552.89 -5.88721 2.00726 0
M  V30 29703 C 3551.7 -7.92526 2.10483 0
M  V30 29704 O 3551.31 -8.02971 3.47653 0
M  V30 29705 C 3550.82 -6.89602 1.41652 0
M  V30 29706 C 3551.53 -5.59201 1.75185 0
M  V30 29707 N 3551.48 -4.58235 0.662552 0
M  V30 29708 H 3554.32 -8.65116 0.777161 0
M  V30 29709 H 3554.59 -6.90173 0.474152 0
M  V30 29710 H 3553.72 -7.66548 2.79458 0
M  V30 29711 P 3549.76 -8.03563 3.84925 0
M  V30 29712 O 3549.54 -8.85821 5.0569 0
M  V30 29713 O 3548.97 -8.41101 2.65469 0
M  V30 29714 O 3549.51 -6.4965 4.18908 0
M  V30 29715 C 3550.45 -5.80886 5.05289 0
M  V30 29716 C 3549.72 -4.78366 5.89277 0
M  V30 29717 O 3549.51 -3.58302 5.08433 0
M  V30 29718 C 3548.32 -5.16748 6.36559 0
M  V30 29719 O 3547.93 -4.45271 7.53232 0
M  V30 29720 C 3547.44 -4.74572 5.19863 0
M  V30 29721 C 3548.15 -3.49373 4.70338 0
M  V30 29722 N 3548.1 -3.31704 3.22876 0
M  V30 29723 C 3547.95 -2.03326 2.74871 0
M  V30 29724 O 3547.86 -1.06486 3.48076 0
M  V30 29725 N 3547.91 -1.91838 1.37456 0
M  V30 29726 C 3548 -2.94295 0.462035 0
M  V30 29727 O 3547.95 -2.71763 -0.752928 0
M  V30 29728 C 3548.15 -4.25064 1.05249 0
M  V30 29729 C 3548.26 -5.39815 0.095697 0
M  V30 29730 C 3548.2 -4.40214 2.39192 0
M  V30 29731 H 3550.94 -6.54063 5.71245 0
M  V30 29732 H 3551.21 -5.30339 4.43905 0
M  V30 29733 H 3550.34 -4.55889 6.76652 0
M  V30 29734 H 3547.69 -2.6167 5.17842 0
M  V30 29735 H 3547.41 -5.52155 4.41878 0
M  V30 29736 H 3546.42 -4.51918 5.53297 0
M  V30 29737 H 3548.25 -6.25055 6.55162 0
M  V30 29738 H 3548.32 -5.39798 2.81523 0
M  V30 29739 H 3547.29 -5.91593 0.0279582 0
M  V30 29740 H 3549.03 -6.10038 0.450573 0
M  V30 29741 H 3548.54 -5.02007 -0.89937 0
M  V30 29742 H 3547.8 -0.995326 1.00435 0
M  V30 29743 P 3546.38 -4.23843 7.83734 0
M  V30 29744 O 3546.16 -4.19407 9.29784 0
M  V30 29745 O 3545.59 -5.24426 7.09156 0
M  V30 29746 O 3546.13 -2.7935 7.20758 0
M  V30 29747 C 3547.07 -1.7299 7.50419 0
M  V30 29748 C 3546.34 -0.406376 7.57911 0
M  V30 29749 O 3546.13 0.0897726 6.21935 0
M  V30 29750 C 3544.94 -0.447224 8.1878 0
M  V30 29751 O 3544.55 0.825065 8.71101 0
M  V30 29752 C 3544.06 -0.783801 6.99623 0
M  V30 29753 C 3544.77 -0.0619192 5.85967 0
M  V30 29754 N 3544.72 -0.7859 4.56281 0
M  V30 29755 H 3547.56 -1.93423 8.4679 0
M  V30 29756 H 3547.83 -1.68181 6.71046 0
M  V30 29757 H 3546.96 0.289041 8.15388 0
M  V30 29758 P 3543 1.17771 8.83182 0
M  V30 29759 O 3542.78 2.07206 9.98732 0
M  V30 29760 O 3542.21 -0.0743816 8.81969 0
M  V30 29761 O 3542.75 1.97652 7.47304 0
M  V30 29762 C 3543.69 3.01055 7.08599 0
M  V30 29763 C 3542.96 4.12613 6.37049 0
M  V30 29764 O 3542.75 3.72827 4.97879 0
M  V30 29765 C 3541.56 4.45719 6.88164 0
M  V30 29766 O 3541.17 5.7877 6.5624 0
M  V30 29767 C 3540.68 3.47768 6.11991 0
M  V30 29768 C 3541.39 3.39356 4.77615 0
M  V30 29769 N 3541.34 2.04571 4.15244 0
M  V30 29770 C 3541.19 1.98587 2.78314 0
M  V30 29771 O 3541.1 2.98134 2.08835 0
M  V30 29772 N 3541.15 0.714467 2.24925 0
M  V30 29773 C 3541.24 -0.470001 2.94169 0
M  V30 29774 C 3541.39 -0.312541 4.36783 0
M  V30 29775 C 3541.44 0.914512 4.92583 0
M  V30 29776 H 3544.18 3.41169 7.98575 0
M  V30 29777 H 3544.45 2.58295 6.41556 0
M  V30 29778 H 3543.58 5.02657 6.42673 0
M  V30 29779 H 3540.93 4.11637 4.08885 0
M  V30 29780 H 3540.65 2.49626 6.61679 0
M  V30 29781 H 3539.66 3.86566 6.00778 0
M  V30 29782 H 3541.49 4.29943 7.96918 0
M  V30 29783 H 3541.56 1.00937 6.00374 0
M  V30 29784 P 3539.62 6.144 6.45285 0
M  V30 29785 O 3539.4 7.54673 6.86199 0
M  V30 29786 O 3538.83 5.12391 7.179 0
M  V30 29787 O 3539.37 5.99158 4.88404 0
M  V30 29788 C 3540.31 6.60234 3.96415 0
M  V30 29789 C 3539.58 7.08259 2.72856 0
M  V30 29790 O 3539.37 5.9427 1.83651 0
M  V30 29791 C 3538.18 7.64886 2.9555 0
M  V30 29792 O 3537.79 8.53963 1.90717 0
M  V30 29793 C 3537.3 6.4116 2.90739 0
M  V30 29794 C 3538.01 5.55375 1.86963 0
M  V30 29795 N 3537.96 4.09448 2.16152 0
M  V30 29796 H 3540.8 7.45574 4.45629 0
M  V30 29797 H 3541.07 5.85864 3.679 0
M  V30 29798 H 3540.2 7.84412 2.24479 0
M  V30 29799 H 3537.55 5.73457 0.888562 0
M  V30 29800 H 3537.27 5.90877 3.88583 0
M  V30 29801 H 3536.28 6.6596 2.58858 0
M  V30 29802 H 3538.11 8.16339 3.92049 0
M  V30 29803 P 3536.24 8.7635 1.60911 0
M  V30 29804 O 3536.02 10.1388 1.11561 0
M  V30 29805 O 3535.45 8.36503 2.79617 0
M  V30 29806 O 3535.99 7.71806 0.42951 0
M  V30 29807 C 3536.93 7.67148 -0.673689 0
M  V30 29808 C 3536.2 7.33374 -1.95559 0
M  V30 29809 O 3535.99 5.88721 -2.00726 0
M  V30 29810 C 3534.8 7.92526 -2.10483 0
M  V30 29811 O 3534.41 8.02971 -3.47653 0
M  V30 29812 C 3533.92 6.89602 -1.41652 0
M  V30 29813 C 3534.63 5.59201 -1.75185 0
M  V30 29814 N 3534.58 4.58235 -0.662552 0
M  V30 29815 H 3537.42 8.65116 -0.777161 0
M  V30 29816 H 3537.69 6.90173 -0.474152 0
M  V30 29817 H 3536.82 7.66548 -2.79458 0
M  V30 29818 P 3532.86 8.03563 -3.84925 0
M  V30 29819 O 3532.64 8.85821 -5.0569 0
M  V30 29820 O 3532.07 8.41101 -2.65469 0
M  V30 29821 O 3532.61 6.4965 -4.18908 0
M  V30 29822 C 3533.55 5.81037 -5.05421 0
M  V30 29823 C 3532.82 4.78366 -5.89277 0
M  V30 29824 O 3532.61 3.58302 -5.08433 0
M  V30 29825 C 3531.42 5.17448 -6.36119 0
M  V30 29826 O 3531.03 4.45271 -7.53232 0
M  V30 29827 C 3530.54 4.74639 -5.19936 0
M  V30 29828 C 3531.25 3.49432 -4.70418 0
M  V30 29829 N 3531.2 3.32099 -3.22613 0
M  V30 29830 C 3531.28 4.28245 -2.25527 0
M  V30 29831 N 3531.21 3.80823 -1.04874 0
M  V30 29832 C 3531.06 2.44571 -1.23535 0
M  V30 29833 C 3530.93 1.37068 -0.330675 0
M  V30 29834 N 3530.92 1.51472 0.990824 0
M  V30 29835 N 3530.81 0.138614 -0.848756 0
M  V30 29836 C 3530.82 -0.00675923 -2.16999 0
M  V30 29837 N 3530.94 0.904372 -3.11122 0
M  V30 29838 C 3531.06 2.12707 -2.56212 0
M  V30 29839 H 3534.04 6.54213 -5.71376 0
M  V30 29840 H 3534.31 5.30936 -4.43503 0
M  V30 29841 H 3533.44 4.55889 -6.76652 0
M  V30 29842 H 3530.79 2.61715 -5.17932 0
M  V30 29843 H 3530.51 5.52155 -4.41878 0
M  V30 29844 H 3529.52 4.51981 -5.53374 0
M  V30 29845 H 3531.35 6.25124 -6.55234 0
M  V30 29846 H 3531.39 5.34372 -2.47488 0
M  V30 29847 H 3531.01 2.45153 1.4078 0
M  V30 29848 H 3530.82 0.688422 1.59911 0
M  V30 29849 H 3530.71 -1.02584 -2.52346 0
M  V30 29850 P 3529.48 4.23843 -7.83734 0
M  V30 29851 O 3529.26 4.19407 -9.29784 0
M  V30 29852 O 3528.69 5.24426 -7.09156 0
M  V30 29853 O 3529.23 2.7935 -7.20758 0
M  V30 29854 C 3530.17 1.7299 -7.50419 0
M  V30 29855 C 3529.44 0.406376 -7.57911 0
M  V30 29856 O 3529.23 -0.0897726 -6.21935 0
M  V30 29857 C 3528.04 0.447224 -8.1878 0
M  V30 29858 O 3527.65 -0.825065 -8.71101 0
M  V30 29859 C 3527.16 0.783801 -6.99623 0
M  V30 29860 C 3527.87 0.0619192 -5.85967 0
M  V30 29861 N 3527.82 0.7859 -4.56281 0
M  V30 29862 C 3527.9 2.14308 -4.31736 0
M  V30 29863 N 3527.82 2.46106 -3.05116 0
M  V30 29864 C 3527.68 1.23422 -2.4014 0
M  V30 29865 C 3527.55 0.938381 -1.02409 0
M  V30 29866 N 3527.43 -0.444647 -0.805413 0
M  V30 29867 C 3527.43 -1.40829 -1.79435 0
M  V30 29868 N 3527.3 -2.67213 -1.38558 0
M  V30 29869 N 3527.56 -1.12947 -3.09005 0
M  V30 29870 C 3527.68 0.204887 -3.32369 0
M  V30 29871 H 3530.66 1.93423 -8.4679 0
M  V30 29872 H 3530.93 1.68181 -6.71046 0
M  V30 29873 H 3530.06 -0.289041 -8.15388 0
M  V30 29874 P 3526.1 -1.17771 -8.83182 0
M  V30 29875 O 3525.88 -2.07206 -9.98732 0
M  V30 29876 O 3525.31 0.0743816 -8.81969 0
M  V30 29877 O 3525.85 -1.97652 -7.47304 0
M  V30 29878 C 3526.79 -3.01055 -7.08599 0
M  V30 29879 C 3526.06 -4.12613 -6.37049 0
M  V30 29880 O 3525.85 -3.72827 -4.97879 0
M  V30 29881 C 3524.66 -4.45719 -6.88164 0
M  V30 29882 O 3524.27 -5.7877 -6.5624 0
M  V30 29883 C 3523.78 -3.47768 -6.11991 0
M  V30 29884 C 3524.49 -3.39356 -4.77615 0
M  V30 29885 N 3524.44 -2.04571 -4.15244 0
M  V30 29886 C 3524.29 -1.98587 -2.78314 0
M  V30 29887 O 3524.2 -2.98134 -2.08835 0
M  V30 29888 N 3524.25 -0.714467 -2.24925 0
M  V30 29889 C 3524.34 0.470001 -2.94169 0
M  V30 29890 O 3524.29 1.55587 -2.35195 0
M  V30 29891 C 3524.49 0.312541 -4.36783 0
M  V30 29892 C 3524.6 1.57711 -5.16352 0
M  V30 29893 C 3524.54 -0.914512 -4.92583 0
M  V30 29894 H 3527.28 -3.41169 -7.98575 0
M  V30 29895 H 3527.55 -2.58295 -6.41556 0
M  V30 29896 H 3526.68 -5.02657 -6.42673 0
M  V30 29897 H 3524.03 -4.11637 -4.08885 0
M  V30 29898 H 3523.75 -2.49626 -6.61679 0
M  V30 29899 H 3522.76 -3.86566 -6.00778 0
M  V30 29900 H 3524.59 -4.29943 -7.96918 0
M  V30 29901 H 3524.66 -1.00937 -6.00374 0
M  V30 29902 H 3523.63 1.80153 -5.63503 0
M  V30 29903 H 3525.37 1.4566 -5.94104 0
M  V30 29904 H 3524.88 2.40664 -4.49645 0
M  V30 29905 H 3524.14 -0.647622 -1.25697 0
M  V30 29906 P 3522.72 -6.144 -6.45285 0
M  V30 29907 O 3522.5 -7.54673 -6.86199 0
M  V30 29908 O 3521.93 -5.12391 -7.179 0
M  V30 29909 O 3522.47 -5.99158 -4.88404 0
M  V30 29910 C 3523.41 -6.60062 -3.96313 0
M  V30 29911 C 3522.68 -7.08259 -2.72856 0
M  V30 29912 O 3522.47 -5.9427 -1.83651 0
M  V30 29913 C 3521.28 -7.65087 -2.94749 0
M  V30 29914 O 3520.89 -8.53963 -1.90717 0
M  V30 29915 C 3520.4 -6.41069 -2.90698 0
M  V30 29916 C 3521.11 -5.5528 -1.86931 0
M  V30 29917 N 3521.06 -4.09575 -2.15696 0
M  V30 29918 C 3520.91 -3.24249 -1.08435 0
M  V30 29919 O 3520.82 -3.63946 0.0628747 0
M  V30 29920 N 3520.87 -1.90009 -1.39973 0
M  V30 29921 C 3520.96 -1.34884 -2.65614 0
M  V30 29922 C 3521.11 -2.3145 -3.71736 0
M  V30 29923 C 3521.16 -3.63518 -3.44754 0
M  V30 29924 H 3523.9 -7.45402 -4.45526 0
M  V30 29925 H 3524.17 -5.86062 -3.67208 0
M  V30 29926 H 3523.3 -7.84412 -2.24479 0
M  V30 29927 H 3520.65 -5.73358 -0.888409 0
M  V30 29928 H 3520.37 -5.90877 -3.88583 0
M  V30 29929 H 3519.38 -6.65867 -2.58821 0
M  V30 29930 H 3521.21 -8.16248 -3.92006 0
M  V30 29931 H 3521.28 -4.34551 -4.26383 0
M  V30 29932 P 3519.34 -8.7635 -1.60911 0
M  V30 29933 O 3519.12 -10.1388 -1.11561 0
M  V30 29934 O 3518.55 -8.36503 -2.79617 0
M  V30 29935 O 3519.09 -7.71806 -0.42951 0
M  V30 29936 C 3520.03 -7.67148 0.673689 0
M  V30 29937 C 3519.3 -7.33374 1.95559 0
M  V30 29938 O 3519.09 -5.88721 2.00726 0
M  V30 29939 C 3517.9 -7.92526 2.10483 0
M  V30 29940 O 3517.51 -8.02971 3.47653 0
M  V30 29941 C 3517.02 -6.89602 1.41652 0
M  V30 29942 C 3517.73 -5.59201 1.75185 0
M  V30 29943 N 3517.68 -4.58235 0.662552 0
M  V30 29944 H 3520.52 -8.65116 0.777161 0
M  V30 29945 H 3520.79 -6.90173 0.474152 0
M  V30 29946 H 3519.92 -7.66548 2.79458 0
M  V30 29947 P 3515.96 -8.03563 3.84925 0
M  V30 29948 O 3515.74 -8.85821 5.0569 0
M  V30 29949 O 3515.17 -8.41101 2.65469 0
M  V30 29950 O 3515.71 -6.4965 4.18908 0
M  V30 29951 C 3516.65 -5.81037 5.05421 0
M  V30 29952 C 3515.92 -4.78366 5.89277 0
M  V30 29953 O 3515.71 -3.58302 5.08433 0
M  V30 29954 C 3514.52 -5.17448 6.36119 0
M  V30 29955 O 3514.13 -4.45271 7.53232 0
M  V30 29956 C 3513.64 -4.74639 5.19936 0
M  V30 29957 C 3514.35 -3.49432 4.70418 0
M  V30 29958 N 3514.3 -3.31776 3.22945 0
M  V30 29959 H 3517.14 -6.54213 5.71376 0
M  V30 29960 H 3517.41 -5.30492 4.44033 0
M  V30 29961 H 3516.54 -4.55889 6.76652 0
M  V30 29962 P 3512.58 -4.23843 7.83734 0
M  V30 29963 O 3512.36 -4.19407 9.29784 0
M  V30 29964 O 3511.79 -5.24426 7.09156 0
M  V30 29965 O 3512.33 -2.7935 7.20758 0
M  V30 29966 C 3513.27 -1.72945 7.50224 0
M  V30 29967 C 3512.54 -0.406376 7.57911 0
M  V30 29968 O 3512.33 0.0897726 6.21935 0
M  V30 29969 C 3511.14 -0.438983 8.18724 0
M  V30 29970 O 3510.75 0.825065 8.71101 0
M  V30 29971 C 3510.26 -0.783689 6.99524 0
M  V30 29972 C 3510.97 -0.0619086 5.85867 0
M  V30 29973 N 3510.92 -0.78573 4.56183 0
M  V30 29974 C 3510.77 -0.0292889 3.41887 0
M  V30 29975 O 3510.68 1.18445 3.4419 0
M  V30 29976 N 3510.73 -0.744061 2.23964 0
M  V30 29977 C 3510.82 -2.10932 2.10362 0
M  V30 29978 C 3510.97 -2.8202 3.34994 0
M  V30 29979 C 3511.02 -2.15547 4.52261 0
M  V30 29980 H 3513.76 -1.93379 8.46595 0
M  V30 29981 H 3514.03 -1.68132 6.70852 0
M  V30 29982 H 3513.16 0.289041 8.15388 0
M  V30 29983 H 3510.51 0.926847 5.72749 0
M  V30 29984 H 3510.23 -1.86973 6.82036 0
M  V30 29985 H 3509.24 -0.403896 7.13257 0
M  V30 29986 H 3511.07 -1.20585 8.97435 0
M  V30 29987 H 3511.14 -2.71231 5.45042 0
M  V30 29988 P 3509.2 1.17771 8.83182 0
M  V30 29989 O 3508.98 2.07206 9.98732 0
M  V30 29990 O 3508.41 -0.0743816 8.81969 0
M  V30 29991 O 3508.95 1.97652 7.47304 0
M  V30 29992 C 3509.89 3.01133 7.08783 0
M  V30 29993 C 3509.16 4.12613 6.37049 0
M  V30 29994 O 3508.95 3.72827 4.97879 0
M  V30 29995 C 3507.76 4.45085 6.88694 0
M  V30 29996 O 3507.37 5.7877 6.5624 0
M  V30 29997 C 3506.88 3.47817 6.12078 0
M  V30 29998 C 3507.59 3.39414 4.77697 0
M  V30 29999 N 3507.54 2.04199 4.15538 0
M  V30 30000 H 3510.38 3.41248 7.98759 0
M  V30 30001 H 3510.65 2.57728 6.42 0
M  V30 30002 H 3509.78 5.02657 6.42673 0
M  V30 30003 H 3507.13 4.11708 4.08956 0
M  V30 30004 H 3506.85 2.49626 6.61679 0
M  V30 30005 H 3505.86 3.8662 6.00862 0
M  V30 30006 H 3507.69 4.29991 7.97006 0
M  V30 30007 P 3505.82 6.144 6.45285 0
M  V30 30008 O 3505.6 7.54673 6.86199 0
M  V30 30009 O 3505.03 5.12391 7.179 0
M  V30 30010 O 3505.57 5.99158 4.88404 0
M  V30 30011 C 3506.51 6.60234 3.96415 0
M  V30 30012 C 3505.78 7.08259 2.72856 0
M  V30 30013 O 3505.57 5.9427 1.83651 0
M  V30 30014 C 3504.38 7.64886 2.9555 0
M  V30 30015 O 3503.99 8.53963 1.90717 0
M  V30 30016 C 3503.5 6.4116 2.90739 0
M  V30 30017 C 3504.21 5.55375 1.86963 0
M  V30 30018 N 3504.16 4.09664 2.15742 0
M  V30 30019 H 3507 7.45574 4.45629 0
M  V30 30020 H 3507.27 5.86232 3.67314 0
M  V30 30021 H 3506.4 7.84412 2.24479 0
M  V30 30022 P 3502.44 8.7635 1.60911 0
M  V30 30023 O 3502.22 10.1388 1.11561 0
M  V30 30024 O 3501.65 8.36503 2.79617 0
M  V30 30025 O 3502.19 7.71806 0.42951 0
M  V30 30026 C 3503.13 7.67148 -0.673689 0
M  V30 30027 C 3502.4 7.33374 -1.95559 0
M  V30 30028 O 3502.19 5.88721 -2.00726 0
M  V30 30029 C 3501 7.92526 -2.10483 0
M  V30 30030 O 3500.61 8.02971 -3.47653 0
M  V30 30031 C 3500.12 6.89602 -1.41652 0
M  V30 30032 C 3500.83 5.59201 -1.75185 0
M  V30 30033 N 3500.78 4.58235 -0.662552 0
M  V30 30034 H 3503.62 8.65116 -0.777161 0
M  V30 30035 H 3503.89 6.90173 -0.474152 0
M  V30 30036 H 3503.02 7.66548 -2.79458 0
M  V30 30037 P 3499.06 8.03563 -3.84925 0
M  V30 30038 O 3498.84 8.85821 -5.0569 0
M  V30 30039 O 3498.27 8.41101 -2.65469 0
M  V30 30040 O 3498.81 6.4965 -4.18908 0
M  V30 30041 C 3499.75 5.80886 -5.05289 0
M  V30 30042 C 3499.02 4.78366 -5.89277 0
M  V30 30043 O 3498.81 3.58302 -5.08433 0
M  V30 30044 C 3497.62 5.16748 -6.36559 0
M  V30 30045 O 3497.23 4.45271 -7.53232 0
M  V30 30046 C 3496.74 4.74572 -5.19863 0
M  V30 30047 C 3497.45 3.49373 -4.70338 0
M  V30 30048 N 3497.4 3.31704 -3.22876 0
M  V30 30049 C 3497.25 2.03326 -2.74871 0
M  V30 30050 O 3497.16 1.06486 -3.48076 0
M  V30 30051 N 3497.21 1.91838 -1.37456 0
M  V30 30052 C 3497.3 2.94295 -0.462035 0
M  V30 30053 O 3497.25 2.71763 0.752928 0
M  V30 30054 C 3497.45 4.25064 -1.05249 0
M  V30 30055 C 3497.56 5.39815 -0.095697 0
M  V30 30056 C 3497.5 4.40214 -2.39192 0
M  V30 30057 H 3500.24 6.54063 -5.71245 0
M  V30 30058 H 3500.51 5.30339 -4.43905 0
M  V30 30059 H 3499.64 4.55889 -6.76652 0
M  V30 30060 H 3496.99 2.6167 -5.17842 0
M  V30 30061 H 3496.71 5.52155 -4.41878 0
M  V30 30062 H 3495.72 4.51918 -5.53297 0
M  V30 30063 H 3497.55 6.25055 -6.55162 0
M  V30 30064 H 3497.62 5.39798 -2.81523 0
M  V30 30065 H 3496.59 5.91593 -0.0279582 0
M  V30 30066 H 3498.33 6.10038 -0.450573 0
M  V30 30067 H 3497.84 5.02007 0.89937 0
M  V30 30068 H 3497.1 0.995326 -1.00435 0
M  V30 30069 P 3495.68 4.23843 -7.83734 0
M  V30 30070 O 3495.46 4.19407 -9.29784 0
M  V30 30071 O 3494.89 5.24426 -7.09156 0
M  V30 30072 O 3495.43 2.7935 -7.20758 0
M  V30 30073 C 3496.37 1.7299 -7.50419 0
M  V30 30074 C 3495.64 0.406376 -7.57911 0
M  V30 30075 O 3495.43 -0.0897726 -6.21935 0
M  V30 30076 C 3494.24 0.447224 -8.1878 0
M  V30 30077 O 3493.85 -0.825065 -8.71101 0
M  V30 30078 C 3493.36 0.783801 -6.99623 0
M  V30 30079 C 3494.07 0.0619192 -5.85967 0
M  V30 30080 N 3494.02 0.790462 -4.56202 0
M  V30 30081 C 3494.1 2.13895 -4.34171 0
M  V30 30082 N 3494.03 2.46449 -3.08687 0
M  V30 30083 C 3493.88 1.2525 -2.43697 0
M  V30 30084 C 3493.75 0.914535 -1.07318 0
M  V30 30085 N 3493.74 1.80782 -0.0887348 0
M  V30 30086 N 3493.63 -0.386745 -0.768133 0
M  V30 30087 C 3493.64 -1.28096 -1.75159 0
M  V30 30088 N 3493.76 -1.09708 -3.04861 0
M  V30 30089 C 3493.88 0.214857 -3.32306 0
M  V30 30090 H 3496.86 1.93423 -8.4679 0
M  V30 30091 H 3497.13 1.68852 -6.70877 0
M  V30 30092 H 3496.26 -0.289041 -8.15388 0
M  V30 30093 H 3493.61 -0.927006 -5.72848 0
M  V30 30094 H 3493.33 1.86973 -6.82036 0
M  V30 30095 H 3492.34 0.403953 -7.13357 0
M  V30 30096 H 3494.17 1.20599 -8.97534 0
M  V30 30097 H 3494.21 2.86846 -5.14318 0
M  V30 30098 H 3493.83 2.81082 -0.302037 0
M  V30 30099 H 3493.64 1.49688 0.889064 0
M  V30 30100 H 3493.53 -2.31317 -1.43855 0
M  V30 30101 P 3492.3 -1.17771 -8.83182 0
M  V30 30102 O 3492.08 -2.07206 -9.98732 0
M  V30 30103 O 3491.51 0.0743816 -8.81969 0
M  V30 30104 O 3492.05 -1.97652 -7.47304 0
M  V30 30105 C 3492.99 -3.01133 -7.08783 0
M  V30 30106 C 3492.26 -4.12613 -6.37049 0
M  V30 30107 O 3492.05 -3.72827 -4.97879 0
M  V30 30108 C 3490.86 -4.45085 -6.88694 0
M  V30 30109 O 3490.47 -5.7877 -6.5624 0
M  V30 30110 C 3489.98 -3.47817 -6.12078 0
M  V30 30111 C 3490.69 -3.39414 -4.77697 0
M  V30 30112 N 3490.64 -2.04615 -4.15333 0
M  V30 30113 H 3493.48 -3.41248 -7.98759 0
M  V30 30114 H 3493.75 -2.5837 -6.41742 0
M  V30 30115 H 3492.88 -5.02657 -6.42673 0
M  V30 30116 P 3488.92 -6.144 -6.45285 0
M  V30 30117 O 3488.7 -7.54673 -6.86199 0
M  V30 30118 O 3488.13 -5.12391 -7.179 0
M  V30 30119 O 3488.67 -5.99158 -4.88404 0
M  V30 30120 C 3489.61 -6.60234 -3.96415 0
M  V30 30121 C 3488.88 -7.08259 -2.72856 0
M  V30 30122 O 3488.67 -5.9427 -1.83651 0
M  V30 30123 C 3487.48 -7.64886 -2.9555 0
M  V30 30124 O 3487.09 -8.53963 -1.90717 0
M  V30 30125 C 3486.6 -6.4116 -2.90739 0
M  V30 30126 C 3487.31 -5.55375 -1.86963 0
M  V30 30127 N 3487.26 -4.09664 -2.15742 0
M  V30 30128 H 3490.1 -7.45574 -4.45629 0
M  V30 30129 H 3490.37 -5.86232 -3.67314 0
M  V30 30130 H 3489.5 -7.84412 -2.24479 0
M  V30 30131 P 3485.54 -8.7635 -1.60911 0
M  V30 30132 O 3485.32 -10.1388 -1.11561 0
M  V30 30133 O 3484.75 -8.36503 -2.79617 0
M  V30 30134 O 3485.29 -7.71806 -0.42951 0
M  V30 30135 C 3486.23 -7.67148 0.673689 0
M  V30 30136 C 3485.5 -7.33374 1.95559 0
M  V30 30137 O 3485.29 -5.88721 2.00726 0
M  V30 30138 C 3484.1 -7.92526 2.10483 0
M  V30 30139 O 3483.71 -8.02971 3.47653 0
M  V30 30140 C 3483.22 -6.89602 1.41652 0
M  V30 30141 C 3483.93 -5.59201 1.75185 0
M  V30 30142 N 3483.88 -4.58235 0.662552 0
M  V30 30143 H 3486.72 -8.65116 0.777161 0
M  V30 30144 H 3486.99 -6.90173 0.474152 0
M  V30 30145 H 3486.12 -7.66548 2.79458 0
M  V30 30146 P 3482.16 -8.03563 3.84925 0
M  V30 30147 O 3481.94 -8.85821 5.0569 0
M  V30 30148 O 3481.37 -8.41101 2.65469 0
M  V30 30149 O 3481.91 -6.4965 4.18908 0
M  V30 30150 C 3482.85 -5.81037 5.05421 0
M  V30 30151 C 3482.12 -4.78366 5.89277 0
M  V30 30152 O 3481.91 -3.58302 5.08433 0
M  V30 30153 C 3480.72 -5.17448 6.36119 0
M  V30 30154 O 3480.33 -4.45271 7.53232 0
M  V30 30155 C 3479.84 -4.74639 5.19936 0
M  V30 30156 C 3480.55 -3.49432 4.70418 0
M  V30 30157 N 3480.5 -3.32099 3.22613 0
M  V30 30158 H 3483.34 -6.54213 5.71376 0
M  V30 30159 H 3483.61 -5.30936 4.43503 0
M  V30 30160 H 3482.74 -4.55889 6.76652 0
M  V30 30161 H 3480.09 -2.61715 5.17932 0
M  V30 30162 H 3479.81 -5.52155 4.41878 0
M  V30 30163 H 3478.82 -4.51981 5.53374 0
M  V30 30164 H 3480.65 -6.25124 6.55234 0
M  V30 30165 P 3478.78 -4.23843 7.83734 0
M  V30 30166 O 3478.56 -4.19407 9.29784 0
M  V30 30167 O 3477.99 -5.24426 7.09156 0
M  V30 30168 O 3478.53 -2.7935 7.20758 0
M  V30 30169 C 3479.47 -1.7299 7.50419 0
M  V30 30170 C 3478.74 -0.406376 7.57911 0
M  V30 30171 O 3478.53 0.0897726 6.21935 0
M  V30 30172 C 3477.34 -0.447224 8.1878 0
M  V30 30173 O 3476.95 0.825065 8.71101 0
M  V30 30174 C 3476.46 -0.783801 6.99623 0
M  V30 30175 C 3477.17 -0.0619192 5.85967 0
M  V30 30176 N 3477.12 -0.7859 4.56281 0
M  V30 30177 H 3479.96 -1.93423 8.4679 0
M  V30 30178 H 3480.23 -1.68181 6.71046 0
M  V30 30179 H 3479.36 0.289041 8.15388 0
M  V30 30180 P 3475.4 1.17771 8.83182 0
M  V30 30181 O 3475.18 2.07206 9.98732 0
M  V30 30182 O 3474.61 -0.0743816 8.81969 0
M  V30 30183 O 3475.15 1.97652 7.47304 0
M  V30 30184 C 3476.09 3.01133 7.08783 0
M  V30 30185 C 3475.36 4.12613 6.37049 0
M  V30 30186 O 3475.15 3.72827 4.97879 0
M  V30 30187 C 3473.96 4.45085 6.88694 0
M  V30 30188 O 3473.57 5.7877 6.5624 0
M  V30 30189 C 3473.08 3.47817 6.12078 0
M  V30 30190 C 3473.79 3.39414 4.77697 0
M  V30 30191 N 3473.74 2.04615 4.15333 0
M  V30 30192 H 3476.58 3.41248 7.98759 0
M  V30 30193 H 3476.85 2.5837 6.41742 0
M  V30 30194 H 3475.98 5.02657 6.42673 0
M  V30 30195 P 3472.02 6.144 6.45285 0
M  V30 30196 O 3471.8 7.54673 6.86199 0
M  V30 30197 O 3471.23 5.12391 7.179 0
M  V30 30198 O 3471.77 5.99158 4.88404 0
M  V30 30199 C 3472.71 6.60234 3.96415 0
M  V30 30200 C 3471.98 7.08259 2.72856 0
M  V30 30201 O 3471.77 5.9427 1.83651 0
M  V30 30202 C 3470.58 7.64886 2.9555 0
M  V30 30203 O 3470.19 8.53963 1.90717 0
M  V30 30204 C 3469.7 6.4116 2.90739 0
M  V30 30205 C 3470.41 5.55375 1.86963 0
M  V30 30206 N 3470.36 4.09448 2.16152 0
M  V30 30207 H 3473.2 7.45574 4.45629 0
M  V30 30208 H 3473.47 5.85864 3.679 0
M  V30 30209 H 3472.6 7.84412 2.24479 0
M  V30 30210 H 3469.95 5.73457 0.888562 0
M  V30 30211 H 3469.67 5.90877 3.88583 0
M  V30 30212 H 3468.68 6.6596 2.58858 0
M  V30 30213 H 3470.51 8.16339 3.92049 0
M  V30 30214 P 3468.64 8.7635 1.60911 0
M  V30 30215 O 3468.42 10.1388 1.11561 0
M  V30 30216 O 3467.85 8.36503 2.79617 0
M  V30 30217 O 3468.39 7.71806 0.42951 0
M  V30 30218 C 3469.33 7.66948 -0.673514 0
M  V30 30219 C 3468.6 7.33374 -1.95559 0
M  V30 30220 O 3468.39 5.88721 -2.00726 0
M  V30 30221 C 3467.2 7.92218 -2.1125 0
M  V30 30222 O 3466.81 8.02971 -3.47653 0
M  V30 30223 C 3466.32 6.89504 -1.41631 0
M  V30 30224 C 3467.03 5.59106 -1.75155 0
M  V30 30225 N 3466.98 4.58136 -0.662409 0
M  V30 30226 C 3466.83 3.26059 -1.02863 0
M  V30 30227 O 3466.74 2.90743 -2.19009 0
M  V30 30228 N 3466.79 2.35995 0.0155585 0
M  V30 30229 C 3466.88 2.65248 1.35603 0
M  V30 30230 C 3467.03 4.05747 1.64698 0
M  V30 30231 C 3467.08 4.96734 0.652411 0
M  V30 30232 H 3469.82 8.64917 -0.776982 0
M  V30 30233 H 3470.09 6.89974 -0.474015 0
M  V30 30234 H 3469.22 7.66548 -2.79458 0
M  V30 30235 H 3466.57 5.16076 -2.65138 0
M  V30 30236 H 3466.29 7.06433 -0.329384 0
M  V30 30237 H 3465.3 6.90829 -1.81996 0
M  V30 30238 H 3467.13 8.90774 -1.62639 0
M  V30 30239 H 3467.2 6.02181 0.895285 0
M  V30 30240 P 3465.26 8.03563 -3.84925 0
M  V30 30241 O 3465.04 8.85821 -5.0569 0
M  V30 30242 O 3464.47 8.41101 -2.65469 0
M  V30 30243 O 3465.01 6.4965 -4.18908 0
M  V30 30244 C 3465.95 5.81037 -5.05421 0
M  V30 30245 C 3465.22 4.78366 -5.89277 0
M  V30 30246 O 3465.01 3.58302 -5.08433 0
M  V30 30247 C 3463.82 5.17448 -6.36119 0
M  V30 30248 O 3463.43 4.45271 -7.53232 0
M  V30 30249 C 3462.94 4.74639 -5.19936 0
M  V30 30250 C 3463.65 3.49432 -4.70418 0
M  V30 30251 N 3463.6 3.31776 -3.22945 0
M  V30 30252 H 3466.44 6.54213 -5.71376 0
M  V30 30253 H 3466.71 5.30492 -4.44033 0
M  V30 30254 H 3465.84 4.55889 -6.76652 0
M  V30 30255 P 3461.88 4.23843 -7.83734 0
M  V30 30256 O 3461.66 4.19407 -9.29784 0
M  V30 30257 O 3461.09 5.24426 -7.09156 0
M  V30 30258 O 3461.63 2.7935 -7.20758 0
M  V30 30259 C 3462.57 1.7299 -7.50419 0
M  V30 30260 C 3461.84 0.406376 -7.57911 0
M  V30 30261 O 3461.63 -0.0897726 -6.21935 0
M  V30 30262 C 3460.44 0.447224 -8.1878 0
M  V30 30263 O 3460.05 -0.825065 -8.71101 0
M  V30 30264 C 3459.56 0.783801 -6.99623 0
M  V30 30265 C 3460.27 0.0619192 -5.85967 0
M  V30 30266 N 3460.22 0.7859 -4.56281 0
M  V30 30267 H 3463.06 1.93423 -8.4679 0
M  V30 30268 H 3463.33 1.68181 -6.71046 0
M  V30 30269 H 3462.46 -0.289041 -8.15388 0
M  V30 30270 P 3458.5 -1.17771 -8.83182 0
M  V30 30271 O 3458.28 -2.07206 -9.98732 0
M  V30 30272 O 3457.71 0.0743816 -8.81969 0
M  V30 30273 O 3458.25 -1.97652 -7.47304 0
M  V30 30274 C 3459.19 -3.01133 -7.08783 0
M  V30 30275 C 3458.46 -4.12613 -6.37049 0
M  V30 30276 O 3458.25 -3.72827 -4.97879 0
M  V30 30277 C 3457.06 -4.45085 -6.88694 0
M  V30 30278 O 3456.67 -5.7877 -6.5624 0
M  V30 30279 C 3456.18 -3.47817 -6.12078 0
M  V30 30280 C 3456.89 -3.39414 -4.77697 0
M  V30 30281 N 3456.84 -2.04199 -4.15538 0
M  V30 30282 H 3459.68 -3.41248 -7.98759 0
M  V30 30283 H 3459.95 -2.57728 -6.42 0
M  V30 30284 H 3459.08 -5.02657 -6.42673 0
M  V30 30285 H 3456.43 -4.11708 -4.08956 0
M  V30 30286 H 3456.15 -2.49626 -6.61679 0
M  V30 30287 H 3455.16 -3.8662 -6.00862 0
M  V30 30288 H 3456.99 -4.29991 -7.97006 0
M  V30 30289 P 3455.12 -6.144 -6.45285 0
M  V30 30290 O 3454.9 -7.54673 -6.86199 0
M  V30 30291 O 3454.33 -5.12391 -7.179 0
M  V30 30292 O 3454.87 -5.99158 -4.88404 0
M  V30 30293 C 3455.81 -6.60234 -3.96415 0
M  V30 30294 C 3455.08 -7.08259 -2.72856 0
M  V30 30295 O 3454.87 -5.9427 -1.83651 0
M  V30 30296 C 3453.68 -7.64886 -2.9555 0
M  V30 30297 O 3453.29 -8.53963 -1.90717 0
M  V30 30298 C 3452.8 -6.4116 -2.90739 0
M  V30 30299 C 3453.51 -5.55375 -1.86963 0
M  V30 30300 N 3453.46 -4.09448 -2.16152 0
M  V30 30301 C 3453.54 -3.46824 -3.37593 0
M  V30 30302 N 3453.47 -2.17422 -3.29777 0
M  V30 30303 C 3453.32 -1.93065 -1.94427 0
M  V30 30304 C 3453.19 -0.738053 -1.20141 0
M  V30 30305 N 3453.18 0.474256 -1.74676 0
M  V30 30306 N 3453.07 -0.850049 0.13045 0
M  V30 30307 C 3453.08 -2.06169 0.676992 0
M  V30 30308 N 3453.2 -3.23842 0.101312 0
M  V30 30309 C 3453.32 -3.09402 -1.23122 0
M  V30 30310 H 3456.3 -7.45574 -4.45629 0
M  V30 30311 H 3456.57 -5.85864 -3.679 0
M  V30 30312 H 3455.7 -7.84412 -2.24479 0
M  V30 30313 H 3453.05 -5.73457 -0.888562 0
M  V30 30314 H 3452.77 -5.90877 -3.88583 0
M  V30 30315 H 3451.78 -6.6596 -2.58858 0
M  V30 30316 H 3453.61 -8.16339 -3.92049 0
M  V30 30317 H 3453.65 -4.00505 -4.3174 0
M  V30 30318 H 3453.27 0.581337 -2.76658 0
M  V30 30319 H 3453.08 1.30811 -1.14888 0
M  V30 30320 H 3452.97 -2.08295 1.75542 0
M  V30 30321 P 3451.74 -8.7635 -1.60911 0
M  V30 30322 O 3451.52 -10.1388 -1.11561 0
M  V30 30323 O 3450.95 -8.36503 -2.79617 0
M  V30 30324 O 3451.49 -7.71806 -0.42951 0
M  V30 30325 C 3452.43 -7.67148 0.673689 0
M  V30 30326 C 3451.7 -7.33374 1.95559 0
M  V30 30327 O 3451.49 -5.88721 2.00726 0
M  V30 30328 C 3450.3 -7.92526 2.10483 0
M  V30 30329 O 3449.91 -8.02971 3.47653 0
M  V30 30330 C 3449.42 -6.89602 1.41652 0
M  V30 30331 C 3450.13 -5.59201 1.75185 0
M  V30 30332 N 3450.08 -4.58235 0.662552 0
M  V30 30333 H 3452.92 -8.65116 0.777161 0
M  V30 30334 H 3453.19 -6.90173 0.474152 0
M  V30 30335 H 3452.32 -7.66548 2.79458 0
M  V30 30336 P 3448.36 -8.03563 3.84925 0
M  V30 30337 O 3448.14 -8.85821 5.0569 0
M  V30 30338 O 3447.57 -8.41101 2.65469 0
M  V30 30339 O 3448.11 -6.4965 4.18908 0
M  V30 30340 C 3449.05 -5.80886 5.05289 0
M  V30 30341 C 3448.32 -4.78366 5.89277 0
M  V30 30342 O 3448.11 -3.58302 5.08433 0
M  V30 30343 C 3446.92 -5.16748 6.36559 0
M  V30 30344 O 3446.53 -4.45271 7.53232 0
M  V30 30345 C 3446.04 -4.74572 5.19863 0
M  V30 30346 C 3446.75 -3.49373 4.70338 0
M  V30 30347 N 3446.7 -3.31704 3.22876 0
M  V30 30348 C 3446.55 -2.03326 2.74871 0
M  V30 30349 O 3446.46 -1.06486 3.48076 0
M  V30 30350 N 3446.51 -1.91838 1.37456 0
M  V30 30351 C 3446.6 -2.94295 0.462035 0
M  V30 30352 C 3446.75 -4.25064 1.05249 0
M  V30 30353 C 3446.8 -4.40214 2.39192 0
M  V30 30354 H 3449.54 -6.54063 5.71245 0
M  V30 30355 H 3449.81 -5.30339 4.43905 0
M  V30 30356 H 3448.94 -4.55889 6.76652 0
M  V30 30357 H 3446.29 -2.6167 5.17842 0
M  V30 30358 H 3446.01 -5.52155 4.41878 0
M  V30 30359 H 3445.02 -4.51918 5.53297 0
M  V30 30360 H 3446.85 -6.25055 6.55162 0
M  V30 30361 H 3446.92 -5.39798 2.81523 0
M  V30 30362 P 3444.98 -4.23843 7.83734 0
M  V30 30363 O 3444.76 -4.19407 9.29784 0
M  V30 30364 O 3444.19 -5.24426 7.09156 0
M  V30 30365 O 3444.73 -2.7935 7.20758 0
M  V30 30366 C 3445.67 -1.72945 7.50224 0
M  V30 30367 C 3444.94 -0.406376 7.57911 0
M  V30 30368 O 3444.73 0.0897726 6.21935 0
M  V30 30369 C 3443.54 -0.438983 8.18724 0
M  V30 30370 O 3443.15 0.825065 8.71101 0
M  V30 30371 C 3442.66 -0.783689 6.99524 0
M  V30 30372 C 3443.37 -0.0619086 5.85867 0
M  V30 30373 N 3443.32 -0.78573 4.56183 0
M  V30 30374 C 3443.17 -0.0292889 3.41887 0
M  V30 30375 O 3443.08 1.18445 3.4419 0
M  V30 30376 N 3443.13 -0.744061 2.23964 0
M  V30 30377 C 3443.22 -2.10932 2.10362 0
M  V30 30378 C 3443.37 -2.8202 3.34994 0
M  V30 30379 C 3443.42 -2.15547 4.52261 0
M  V30 30380 H 3446.16 -1.93379 8.46595 0
M  V30 30381 H 3446.43 -1.68132 6.70852 0
M  V30 30382 H 3445.56 0.289041 8.15388 0
M  V30 30383 H 3442.91 0.926847 5.72749 0
M  V30 30384 H 3442.63 -1.86973 6.82036 0
M  V30 30385 H 3441.64 -0.403896 7.13257 0
M  V30 30386 H 3443.47 -1.20585 8.97435 0
M  V30 30387 H 3443.54 -2.71231 5.45042 0
M  V30 30388 P 3441.6 1.17771 8.83182 0
M  V30 30389 O 3441.38 2.07206 9.98732 0
M  V30 30390 O 3440.81 -0.0743816 8.81969 0
M  V30 30391 O 3441.35 1.97652 7.47304 0
M  V30 30392 C 3442.29 3.01133 7.08783 0
M  V30 30393 C 3441.56 4.12613 6.37049 0
M  V30 30394 O 3441.35 3.72827 4.97879 0
M  V30 30395 C 3440.16 4.45085 6.88694 0
M  V30 30396 O 3439.77 5.7877 6.5624 0
M  V30 30397 C 3439.28 3.47817 6.12078 0
M  V30 30398 C 3439.99 3.39414 4.77697 0
M  V30 30399 N 3439.94 2.04615 4.15333 0
M  V30 30400 H 3442.78 3.41248 7.98759 0
M  V30 30401 H 3443.05 2.5837 6.41742 0
M  V30 30402 H 3442.18 5.02657 6.42673 0
M  V30 30403 P 3438.22 6.144 6.45285 0
M  V30 30404 O 3438 7.54673 6.86199 0
M  V30 30405 O 3437.43 5.12391 7.179 0
M  V30 30406 O 3437.97 5.99158 4.88404 0
M  V30 30407 C 3438.91 6.60062 3.96313 0
M  V30 30408 C 3438.18 7.08259 2.72856 0
M  V30 30409 O 3437.97 5.9427 1.83651 0
M  V30 30410 C 3436.78 7.65087 2.94749 0
M  V30 30411 O 3436.39 8.53963 1.90717 0
M  V30 30412 C 3435.9 6.41069 2.90698 0
M  V30 30413 C 3436.61 5.5528 1.86931 0
M  V30 30414 N 3436.56 4.09575 2.15696 0
M  V30 30415 C 3436.41 3.24249 1.08435 0
M  V30 30416 O 3436.32 3.63946 -0.0628747 0
M  V30 30417 N 3436.37 1.90009 1.39973 0
M  V30 30418 C 3436.46 1.34884 2.65614 0
M  V30 30419 O 3436.41 0.123716 2.81728 0
M  V30 30420 C 3436.61 2.3145 3.71736 0
M  V30 30421 C 3436.72 1.75913 5.10438 0
M  V30 30422 C 3436.66 3.63518 3.44754 0
M  V30 30423 H 3439.4 7.45402 4.45526 0
M  V30 30424 H 3439.67 5.86062 3.67208 0
M  V30 30425 H 3438.8 7.84412 2.24479 0
M  V30 30426 H 3436.15 5.73358 0.888409 0
M  V30 30427 H 3435.87 5.90877 3.88583 0
M  V30 30428 H 3434.88 6.65867 2.58821 0
M  V30 30429 H 3436.71 8.16248 3.92006 0
M  V30 30430 H 3436.78 4.34551 4.26383 0
M  V30 30431 H 3435.75 1.85471 5.61775 0
M  V30 30432 H 3437.49 2.31364 5.66257 0
M  V30 30433 H 3437 0.695936 5.05229 0
M  V30 30434 H 3436.26 1.26277 0.63625 0
M  V30 30435 P 3434.84 8.7635 1.60911 0
M  V30 30436 O 3434.62 10.1388 1.11561 0
M  V30 30437 O 3434.05 8.36503 2.79617 0
M  V30 30438 O 3434.59 7.71806 0.42951 0
M  V30 30439 C 3435.53 7.67148 -0.673689 0
M  V30 30440 C 3434.8 7.33374 -1.95559 0
M  V30 30441 O 3434.59 5.88721 -2.00726 0
M  V30 30442 C 3433.4 7.92526 -2.10483 0
M  V30 30443 O 3433.01 8.02971 -3.47653 0
M  V30 30444 C 3432.52 6.89602 -1.41652 0
M  V30 30445 C 3433.23 5.59201 -1.75185 0
M  V30 30446 N 3433.18 4.58301 -0.657969 0
M  V30 30447 H 3436.02 8.65116 -0.777161 0
M  V30 30448 H 3436.29 6.9022 -0.46725 0
M  V30 30449 H 3435.42 7.66548 -2.79458 0
M  V30 30450 H 3432.77 5.16165 -2.65183 0
M  V30 30451 H 3432.49 7.06433 -0.329384 0
M  V30 30452 H 3431.5 6.90926 -1.82021 0
M  V30 30453 H 3433.33 8.90873 -1.62657 0
M  V30 30454 P 3431.46 8.03563 -3.84925 0
M  V30 30455 O 3431.24 8.85821 -5.0569 0
M  V30 30456 O 3430.67 8.41101 -2.65469 0
M  V30 30457 O 3431.21 6.4965 -4.18908 0
M  V30 30458 C 3432.15 5.81037 -5.05421 0
M  V30 30459 C 3431.42 4.78366 -5.89277 0
M  V30 30460 O 3431.21 3.58302 -5.08433 0
M  V30 30461 C 3430.02 5.17448 -6.36119 0
M  V30 30462 O 3429.63 4.45271 -7.53232 0
M  V30 30463 C 3429.14 4.74639 -5.19936 0
M  V30 30464 C 3429.85 3.49432 -4.70418 0
M  V30 30465 N 3429.8 3.31776 -3.22945 0
M  V30 30466 H 3432.64 6.54213 -5.71376 0
M  V30 30467 H 3432.91 5.30492 -4.44033 0
M  V30 30468 H 3432.04 4.55889 -6.76652 0
M  V30 30469 P 3428.08 4.23843 -7.83734 0
M  V30 30470 O 3427.86 4.19407 -9.29784 0
M  V30 30471 O 3427.29 5.24426 -7.09156 0
M  V30 30472 O 3427.83 2.7935 -7.20758 0
M  V30 30473 C 3428.77 1.7299 -7.50419 0
M  V30 30474 C 3428.04 0.406376 -7.57911 0
M  V30 30475 O 3427.83 -0.0897726 -6.21935 0
M  V30 30476 C 3426.64 0.447224 -8.1878 0
M  V30 30477 O 3426.25 -0.825065 -8.71101 0
M  V30 30478 C 3425.76 0.783801 -6.99623 0
M  V30 30479 C 3426.47 0.0619192 -5.85967 0
M  V30 30480 N 3426.42 0.7859 -4.56281 0
M  V30 30481 H 3429.26 1.93423 -8.4679 0
M  V30 30482 H 3429.53 1.68181 -6.71046 0
M  V30 30483 H 3428.66 -0.289041 -8.15388 0
M  V30 30484 P 3424.7 -1.17771 -8.83182 0
M  V30 30485 O 3424.48 -2.07206 -9.98732 0
M  V30 30486 O 3423.91 0.0743816 -8.81969 0
M  V30 30487 O 3424.45 -1.97652 -7.47304 0
M  V30 30488 C 3425.39 -3.01133 -7.08783 0
M  V30 30489 C 3424.66 -4.12613 -6.37049 0
M  V30 30490 O 3424.45 -3.72827 -4.97879 0
M  V30 30491 C 3423.26 -4.45085 -6.88694 0
M  V30 30492 O 3422.87 -5.7877 -6.5624 0
M  V30 30493 C 3422.38 -3.47817 -6.12078 0
M  V30 30494 C 3423.09 -3.39414 -4.77697 0
M  V30 30495 N 3423.04 -2.04615 -4.15333 0
M  V30 30496 H 3425.88 -3.41248 -7.98759 0
M  V30 30497 H 3426.15 -2.5837 -6.41742 0
M  V30 30498 H 3425.28 -5.02657 -6.42673 0
M  V30 30499 P 3421.32 -6.144 -6.45285 0
M  V30 30500 O 3421.1 -7.54673 -6.86199 0
M  V30 30501 O 3420.53 -5.12391 -7.179 0
M  V30 30502 O 3421.07 -5.99158 -4.88404 0
M  V30 30503 C 3422.01 -6.60062 -3.96313 0
M  V30 30504 C 3421.28 -7.08259 -2.72856 0
M  V30 30505 O 3421.07 -5.9427 -1.83651 0
M  V30 30506 C 3419.88 -7.65087 -2.94749 0
M  V30 30507 O 3419.49 -8.53963 -1.90717 0
M  V30 30508 C 3419 -6.41069 -2.90698 0
M  V30 30509 C 3419.71 -5.5528 -1.86931 0
M  V30 30510 N 3419.66 -4.09575 -2.15696 0
M  V30 30511 C 3419.51 -3.24249 -1.08435 0
M  V30 30512 O 3419.42 -3.63946 0.0628747 0
M  V30 30513 N 3419.47 -1.90009 -1.39973 0
M  V30 30514 C 3419.56 -1.34884 -2.65614 0
M  V30 30515 O 3419.51 -0.123716 -2.81728 0
M  V30 30516 C 3419.71 -2.3145 -3.71736 0
M  V30 30517 C 3419.82 -1.75913 -5.10438 0
M  V30 30518 C 3419.76 -3.63518 -3.44754 0
M  V30 30519 H 3422.5 -7.45402 -4.45526 0
M  V30 30520 H 3422.77 -5.86062 -3.67208 0
M  V30 30521 H 3421.9 -7.84412 -2.24479 0
M  V30 30522 H 3419.25 -5.73358 -0.888409 0
M  V30 30523 H 3418.97 -5.90877 -3.88583 0
M  V30 30524 H 3417.98 -6.65867 -2.58821 0
M  V30 30525 H 3419.81 -8.16248 -3.92006 0
M  V30 30526 H 3419.88 -4.34551 -4.26383 0
M  V30 30527 H 3418.85 -1.85471 -5.61775 0
M  V30 30528 H 3420.59 -2.31364 -5.66257 0
M  V30 30529 H 3420.1 -0.695936 -5.05229 0
M  V30 30530 H 3419.36 -1.26277 -0.63625 0
M  V30 30531 P 3417.94 -8.7635 -1.60911 0
M  V30 30532 O 3417.72 -10.1388 -1.11561 0
M  V30 30533 O 3417.15 -8.36503 -2.79617 0
M  V30 30534 O 3417.69 -7.71906 -0.429565 0
M  V30 30535 C 3418.63 -7.67148 0.673689 0
M  V30 30536 C 3417.9 -7.33666 1.94851 0
M  V30 30537 O 3417.69 -5.88816 2.00759 0
M  V30 30538 C 3416.5 -7.92526 2.10483 0
M  V30 30539 O 3416.11 -8.03063 3.47693 0
M  V30 30540 C 3415.62 -6.89602 1.41652 0
M  V30 30541 C 3416.33 -5.59201 1.75185 0
M  V30 30542 N 3416.28 -4.58235 0.662552 0
M  V30 30543 C 3416.13 -3.24451 1.01643 0
M  V30 30544 O 3416.04 -2.94958 2.21722 0
M  V30 30545 N 3416.08 -2.30408 -0.165238 0
M  V30 30546 C 3416.18 -2.66048 -1.25118 0
M  V30 30547 N 3416.13 -1.70787 -2.16813 0
M  V30 30548 C 3416.33 -4.02732 -1.64413 0
M  V30 30549 C 3416.38 -4.9488 -0.63991 0
M  V30 30550 H 3419.12 -8.65017 0.777072 0
M  V30 30551 H 3419.39 -6.90173 0.474152 0
M  V30 30552 H 3418.52 -7.66642 2.79492 0
M  V30 30553 H 3415.87 -5.16254 2.65229 0
M  V30 30554 H 3415.59 -7.06532 0.329431 0
M  V30 30555 H 3414.6 -6.91023 1.82047 0
M  V30 30556 H 3416.43 -8.90873 1.62657 0
M  V30 30557 H 3416.5 -6.00104 -0.892197 0
M  V30 30558 H 3416.4 -4.31733 -2.69229 0
M  V30 30559 H 3416.01 -0.724835 -1.8844 0
M  V30 30560 H 3416.21 -1.94716 -3.16734 0
M  V30 30561 P 3414.56 -8.03563 3.84925 0
M  V30 30562 O 3414.34 -8.85821 5.0569 0
M  V30 30563 O 3413.77 -8.41101 2.65469 0
M  V30 30564 O 3414.31 -6.4965 4.18908 0
M  V30 30565 C 3415.25 -5.81037 5.05421 0
M  V30 30566 C 3414.52 -4.78366 5.89277 0
M  V30 30567 O 3414.31 -3.58302 5.08433 0
M  V30 30568 C 3413.12 -5.17448 6.36119 0
M  V30 30569 O 3412.73 -4.45271 7.53232 0
M  V30 30570 C 3412.24 -4.74639 5.19936 0
M  V30 30571 C 3412.95 -3.49432 4.70418 0
M  V30 30572 N 3412.9 -3.31776 3.22945 0
M  V30 30573 H 3415.74 -6.54213 5.71376 0
M  V30 30574 H 3416.01 -5.30492 4.44033 0
M  V30 30575 H 3415.14 -4.55889 6.76652 0
M  V30 30576 P 3411.18 -4.23843 7.83734 0
M  V30 30577 O 3410.96 -4.19407 9.29784 0
M  V30 30578 O 3410.39 -5.24426 7.09156 0
M  V30 30579 O 3410.93 -2.7935 7.20758 0
M  V30 30580 C 3411.87 -1.72945 7.50224 0
M  V30 30581 C 3411.14 -0.406376 7.57911 0
M  V30 30582 O 3410.93 0.0897726 6.21935 0
M  V30 30583 C 3409.74 -0.438983 8.18724 0
M  V30 30584 O 3409.35 0.825065 8.71101 0
M  V30 30585 C 3408.86 -0.783689 6.99524 0
M  V30 30586 C 3409.57 -0.0619086 5.85867 0
M  V30 30587 N 3409.52 -0.78573 4.56183 0
M  V30 30588 C 3409.37 -0.0292889 3.41887 0
M  V30 30589 O 3409.28 1.18445 3.4419 0
M  V30 30590 N 3409.33 -0.744061 2.23964 0
M  V30 30591 C 3409.42 -2.10932 2.10362 0
M  V30 30592 O 3409.37 -2.64117 0.98825 0
M  V30 30593 C 3409.57 -2.8202 3.34994 0
M  V30 30594 C 3409.68 -4.31095 3.25037 0
M  V30 30595 C 3409.62 -2.15547 4.52261 0
M  V30 30596 H 3412.36 -1.93379 8.46595 0
M  V30 30597 H 3412.63 -1.68132 6.70852 0
M  V30 30598 H 3411.76 0.289041 8.15388 0
M  V30 30599 H 3409.11 0.926847 5.72749 0
M  V30 30600 H 3408.83 -1.86973 6.82036 0
M  V30 30601 H 3407.84 -0.403896 7.13257 0
M  V30 30602 H 3409.67 -1.20585 8.97435 0
M  V30 30603 H 3409.74 -2.71231 5.45042 0
M  V30 30604 H 3408.71 -4.76966 3.49992 0
M  V30 30605 H 3410.45 -4.67047 3.95024 0
M  V30 30606 H 3409.96 -4.58996 2.22312 0
M  V30 30607 H 3409.22 -0.214893 1.39758 0
M  V30 30608 P 3407.8 1.17771 8.83182 0
M  V30 30609 O 3407.58 2.07206 9.98732 0
M  V30 30610 O 3407.01 -0.0743816 8.81969 0
M  V30 30611 O 3407.55 1.97652 7.47304 0
M  V30 30612 C 3408.49 3.01133 7.08783 0
M  V30 30613 C 3407.76 4.12613 6.37049 0
M  V30 30614 O 3407.55 3.72827 4.97879 0
M  V30 30615 C 3406.36 4.45085 6.88694 0
M  V30 30616 O 3405.97 5.7877 6.5624 0
M  V30 30617 C 3405.48 3.47817 6.12078 0
M  V30 30618 C 3406.19 3.39414 4.77697 0
M  V30 30619 N 3406.14 2.04615 4.15333 0
M  V30 30620 H 3408.98 3.41248 7.98759 0
M  V30 30621 H 3409.25 2.5837 6.41742 0
M  V30 30622 H 3408.38 5.02657 6.42673 0
M  V30 30623 P 3404.42 6.144 6.45285 0
M  V30 30624 O 3404.2 7.54673 6.86199 0
M  V30 30625 O 3403.63 5.12391 7.179 0
M  V30 30626 O 3404.17 5.99158 4.88404 0
M  V30 30627 C 3405.11 6.60234 3.96415 0
M  V30 30628 C 3404.38 7.08259 2.72856 0
M  V30 30629 O 3404.17 5.9427 1.83651 0
M  V30 30630 C 3402.98 7.64886 2.9555 0
M  V30 30631 O 3402.59 8.53963 1.90717 0
M  V30 30632 C 3402.1 6.4116 2.90739 0
M  V30 30633 C 3402.81 5.55375 1.86963 0
M  V30 30634 N 3402.76 4.09664 2.15742 0
M  V30 30635 H 3405.6 7.45574 4.45629 0
M  V30 30636 H 3405.87 5.86232 3.67314 0
M  V30 30637 H 3405 7.84412 2.24479 0
M  V30 30638 P 3401.04 8.7635 1.60911 0
M  V30 30639 O 3400.82 10.1388 1.11561 0
M  V30 30640 O 3400.25 8.36503 2.79617 0
M  V30 30641 O 3400.79 7.71906 0.429565 0
M  V30 30642 C 3401.73 7.67148 -0.673689 0
M  V30 30643 C 3401 7.33666 -1.94851 0
M  V30 30644 O 3400.79 5.88816 -2.00759 0
M  V30 30645 C 3399.6 7.92526 -2.10483 0
M  V30 30646 O 3399.21 8.03063 -3.47693 0
M  V30 30647 C 3398.72 6.89602 -1.41652 0
M  V30 30648 C 3399.43 5.59201 -1.75185 0
M  V30 30649 N 3399.38 4.58235 -0.662552 0
M  V30 30650 C 3399.23 3.24451 -1.01643 0
M  V30 30651 O 3399.14 2.94958 -2.21722 0
M  V30 30652 N 3399.18 2.30408 0.165238 0
M  V30 30653 C 3399.28 2.66048 1.25118 0
M  V30 30654 N 3399.23 1.70787 2.16813 0
M  V30 30655 C 3399.43 4.02732 1.64413 0
M  V30 30656 C 3399.48 4.9488 0.63991 0
M  V30 30657 H 3402.22 8.65017 -0.777072 0
M  V30 30658 H 3402.49 6.90173 -0.474152 0
M  V30 30659 H 3401.62 7.66642 -2.79492 0
M  V30 30660 H 3398.97 5.16254 -2.65229 0
M  V30 30661 H 3398.69 7.06532 -0.329431 0
M  V30 30662 H 3397.7 6.91023 -1.82047 0
M  V30 30663 H 3399.53 8.90873 -1.62657 0
M  V30 30664 H 3399.6 6.00104 0.892197 0
M  V30 30665 H 3399.5 4.31733 2.69229 0
M  V30 30666 H 3399.11 0.724835 1.8844 0
M  V30 30667 H 3399.31 1.94716 3.16734 0
M  V30 30668 P 3397.66 8.03563 -3.84925 0
M  V30 30669 O 3397.44 8.85821 -5.0569 0
M  V30 30670 O 3396.87 8.41101 -2.65469 0
M  V30 30671 O 3397.41 6.4965 -4.18908 0
M  V30 30672 C 3398.35 5.81037 -5.05421 0
M  V30 30673 C 3397.62 4.78366 -5.89277 0
M  V30 30674 O 3397.41 3.58302 -5.08433 0
M  V30 30675 C 3396.22 5.17448 -6.36119 0
M  V30 30676 O 3395.83 4.45271 -7.53232 0
M  V30 30677 C 3395.34 4.74639 -5.19936 0
M  V30 30678 C 3396.05 3.49432 -4.70418 0
M  V30 30679 N 3396 3.31776 -3.22945 0
M  V30 30680 H 3398.84 6.54213 -5.71376 0
M  V30 30681 H 3399.11 5.30492 -4.44033 0
M  V30 30682 H 3398.24 4.55889 -6.76652 0
M  V30 30683 P 3394.28 4.23843 -7.83734 0
M  V30 30684 O 3394.06 4.19407 -9.29784 0
M  V30 30685 O 3393.49 5.24426 -7.09156 0
M  V30 30686 O 3394.03 2.7935 -7.20758 0
M  V30 30687 C 3394.97 1.7299 -7.50419 0
M  V30 30688 C 3394.24 0.406376 -7.57911 0
M  V30 30689 O 3394.03 -0.0897726 -6.21935 0
M  V30 30690 C 3392.84 0.447224 -8.1878 0
M  V30 30691 O 3392.45 -0.825065 -8.71101 0
M  V30 30692 C 3391.96 0.783801 -6.99623 0
M  V30 30693 C 3392.67 0.0619192 -5.85967 0
M  V30 30694 N 3392.62 0.7859 -4.56281 0
M  V30 30695 H 3395.46 1.93423 -8.4679 0
M  V30 30696 H 3395.73 1.68181 -6.71046 0
M  V30 30697 H 3394.86 -0.289041 -8.15388 0
M  V30 30698 P 3390.9 -1.17771 -8.83182 0
M  V30 30699 O 3390.68 -2.07206 -9.98732 0
M  V30 30700 O 3390.11 0.0743816 -8.81969 0
M  V30 30701 O 3390.65 -1.97652 -7.47304 0
M  V30 30702 C 3391.59 -3.01133 -7.08783 0
M  V30 30703 C 3390.86 -4.12613 -6.37049 0
M  V30 30704 O 3390.65 -3.72827 -4.97879 0
M  V30 30705 C 3389.46 -4.45085 -6.88694 0
M  V30 30706 O 3389.07 -5.7877 -6.5624 0
M  V30 30707 C 3388.58 -3.47817 -6.12078 0
M  V30 30708 C 3389.29 -3.39414 -4.77697 0
M  V30 30709 N 3389.24 -2.04615 -4.15333 0
M  V30 30710 H 3392.08 -3.41248 -7.98759 0
M  V30 30711 H 3392.35 -2.5837 -6.41742 0
M  V30 30712 H 3391.48 -5.02657 -6.42673 0
M  V30 30713 P 3387.52 -6.144 -6.45285 0
M  V30 30714 O 3387.3 -7.54673 -6.86199 0
M  V30 30715 O 3386.73 -5.12391 -7.179 0
M  V30 30716 O 3387.27 -5.99158 -4.88404 0
M  V30 30717 C 3388.21 -6.60234 -3.96415 0
M  V30 30718 C 3387.48 -7.08259 -2.72856 0
M  V30 30719 O 3387.27 -5.9427 -1.83651 0
M  V30 30720 C 3386.08 -7.64886 -2.9555 0
M  V30 30721 O 3385.69 -8.53963 -1.90717 0
M  V30 30722 C 3385.2 -6.4116 -2.90739 0
M  V30 30723 C 3385.91 -5.55375 -1.86963 0
M  V30 30724 N 3385.86 -4.09664 -2.15742 0
M  V30 30725 H 3388.7 -7.45574 -4.45629 0
M  V30 30726 H 3388.97 -5.86232 -3.67314 0
M  V30 30727 H 3388.1 -7.84412 -2.24479 0
M  V30 30728 P 3384.14 -8.7635 -1.60911 0
M  V30 30729 O 3383.92 -10.1388 -1.11561 0
M  V30 30730 O 3383.35 -8.36503 -2.79617 0
M  V30 30731 O 3383.89 -7.71806 -0.42951 0
M  V30 30732 C 3384.83 -7.66948 0.673514 0
M  V30 30733 C 3384.1 -7.33374 1.95559 0
M  V30 30734 O 3383.89 -5.88721 2.00726 0
M  V30 30735 C 3382.7 -7.92218 2.1125 0
M  V30 30736 O 3382.31 -8.02971 3.47653 0
M  V30 30737 C 3381.82 -6.89504 1.41631 0
M  V30 30738 C 3382.53 -5.59106 1.75155 0
M  V30 30739 N 3382.48 -4.58136 0.662409 0
M  V30 30740 C 3382.33 -3.26059 1.02863 0
M  V30 30741 O 3382.24 -2.90743 2.19009 0
M  V30 30742 N 3382.29 -2.35995 -0.0155585 0
M  V30 30743 C 3382.38 -2.65248 -1.35603 0
M  V30 30744 C 3382.53 -4.05747 -1.64698 0
M  V30 30745 C 3382.58 -4.96734 -0.652411 0
M  V30 30746 H 3385.32 -8.64917 0.776982 0
M  V30 30747 H 3385.59 -6.89974 0.474015 0
M  V30 30748 H 3384.72 -7.66548 2.79458 0
M  V30 30749 H 3382.07 -5.16076 2.65138 0
M  V30 30750 H 3381.79 -7.06433 0.329384 0
M  V30 30751 H 3380.8 -6.90829 1.81996 0
M  V30 30752 H 3382.63 -8.90774 1.62639 0
M  V30 30753 H 3382.7 -6.02181 -0.895285 0
M  V30 30754 P 3380.76 -8.03563 3.84925 0
M  V30 30755 O 3380.54 -8.85821 5.0569 0
M  V30 30756 O 3379.97 -8.41101 2.65469 0
M  V30 30757 O 3380.51 -6.4965 4.18908 0
M  V30 30758 C 3381.45 -5.80886 5.05289 0
M  V30 30759 C 3380.72 -4.78366 5.89277 0
M  V30 30760 O 3380.51 -3.58302 5.08433 0
M  V30 30761 C 3379.32 -5.16748 6.36559 0
M  V30 30762 O 3378.93 -4.45271 7.53232 0
M  V30 30763 C 3378.44 -4.74572 5.19863 0
M  V30 30764 C 3379.15 -3.49373 4.70338 0
M  V30 30765 N 3379.1 -3.31704 3.22876 0
M  V30 30766 C 3378.95 -2.03326 2.74871 0
M  V30 30767 O 3378.86 -1.06486 3.48076 0
M  V30 30768 N 3378.91 -1.91838 1.37456 0
M  V30 30769 C 3379 -2.94295 0.462035 0
M  V30 30770 O 3378.95 -2.71763 -0.752928 0
M  V30 30771 C 3379.15 -4.25064 1.05249 0
M  V30 30772 C 3379.26 -5.39815 0.095697 0
M  V30 30773 C 3379.2 -4.40214 2.39192 0
M  V30 30774 H 3381.94 -6.54063 5.71245 0
M  V30 30775 H 3382.21 -5.30339 4.43905 0
M  V30 30776 H 3381.34 -4.55889 6.76652 0
M  V30 30777 H 3378.69 -2.6167 5.17842 0
M  V30 30778 H 3378.41 -5.52155 4.41878 0
M  V30 30779 H 3377.42 -4.51918 5.53297 0
M  V30 30780 H 3379.25 -6.25055 6.55162 0
M  V30 30781 H 3379.32 -5.39798 2.81523 0
M  V30 30782 H 3378.29 -5.91593 0.0279582 0
M  V30 30783 H 3380.03 -6.10038 0.450573 0
M  V30 30784 H 3379.54 -5.02007 -0.89937 0
M  V30 30785 H 3378.81 -0.995326 1.00435 0
M  V30 30786 P 3377.38 -4.23843 7.83734 0
M  V30 30787 O 3377.16 -4.19407 9.29784 0
M  V30 30788 O 3376.59 -5.24426 7.09156 0
M  V30 30789 O 3377.13 -2.7935 7.20758 0
M  V30 30790 C 3378.07 -1.7299 7.50419 0
M  V30 30791 C 3377.34 -0.406376 7.57911 0
M  V30 30792 O 3377.13 0.0897726 6.21935 0
M  V30 30793 C 3375.94 -0.447224 8.1878 0
M  V30 30794 O 3375.55 0.825065 8.71101 0
M  V30 30795 C 3375.06 -0.783801 6.99623 0
M  V30 30796 C 3375.77 -0.0619192 5.85967 0
M  V30 30797 N 3375.72 -0.7859 4.56281 0
M  V30 30798 H 3378.56 -1.93423 8.4679 0
M  V30 30799 H 3378.83 -1.68181 6.71046 0
M  V30 30800 H 3377.96 0.289041 8.15388 0
M  V30 30801 P 3374 1.17771 8.83182 0
M  V30 30802 O 3373.78 2.07206 9.98732 0
M  V30 30803 O 3373.21 -0.0743816 8.81969 0
M  V30 30804 O 3373.75 1.97652 7.47304 0
M  V30 30805 C 3374.69 3.01133 7.08783 0
M  V30 30806 C 3373.96 4.12613 6.37049 0
M  V30 30807 O 3373.75 3.72827 4.97879 0
M  V30 30808 C 3372.56 4.45085 6.88694 0
M  V30 30809 O 3372.17 5.7877 6.5624 0
M  V30 30810 C 3371.68 3.47817 6.12078 0
M  V30 30811 C 3372.39 3.39414 4.77697 0
M  V30 30812 N 3372.34 2.04615 4.15333 0
M  V30 30813 H 3375.18 3.41248 7.98759 0
M  V30 30814 H 3375.45 2.5837 6.41742 0
M  V30 30815 H 3374.58 5.02657 6.42673 0
M  V30 30816 P 3370.62 6.144 6.45285 0
M  V30 30817 O 3370.4 7.54673 6.86199 0
M  V30 30818 O 3369.83 5.12391 7.179 0
M  V30 30819 O 3370.37 5.99158 4.88404 0
M  V30 30820 C 3371.31 6.60234 3.96415 0
M  V30 30821 C 3370.58 7.08259 2.72856 0
M  V30 30822 O 3370.37 5.9427 1.83651 0
M  V30 30823 C 3369.18 7.64886 2.9555 0
M  V30 30824 O 3368.79 8.53963 1.90717 0
M  V30 30825 C 3368.3 6.4116 2.90739 0
M  V30 30826 C 3369.01 5.55375 1.86963 0
M  V30 30827 N 3368.96 4.09664 2.15742 0
M  V30 30828 H 3371.8 7.45574 4.45629 0
M  V30 30829 H 3372.07 5.86232 3.67314 0
M  V30 30830 H 3371.2 7.84412 2.24479 0
M  V30 30831 P 3367.24 8.7635 1.60911 0
M  V30 30832 O 3367.02 10.1388 1.11561 0
M  V30 30833 O 3366.45 8.36503 2.79617 0
M  V30 30834 O 3366.99 7.71806 0.42951 0
M  V30 30835 C 3367.93 7.67148 -0.673689 0
M  V30 30836 C 3367.2 7.33374 -1.95559 0
M  V30 30837 O 3366.99 5.88721 -2.00726 0
M  V30 30838 C 3365.8 7.92526 -2.10483 0
M  V30 30839 O 3365.41 8.02971 -3.47653 0
M  V30 30840 C 3364.92 6.89602 -1.41652 0
M  V30 30841 C 3365.63 5.59201 -1.75185 0
M  V30 30842 N 3365.58 4.58235 -0.662552 0
M  V30 30843 H 3368.42 8.65116 -0.777161 0
M  V30 30844 H 3368.69 6.90173 -0.474152 0
M  V30 30845 H 3367.82 7.66548 -2.79458 0
M  V30 30846 P 3363.86 8.03563 -3.84925 0
M  V30 30847 O 3363.64 8.85821 -5.0569 0
M  V30 30848 O 3363.07 8.41101 -2.65469 0
M  V30 30849 O 3363.61 6.4965 -4.18908 0
M  V30 30850 C 3364.55 5.80886 -5.05289 0
M  V30 30851 C 3363.82 4.78366 -5.89277 0
M  V30 30852 O 3363.61 3.58302 -5.08433 0
M  V30 30853 C 3362.42 5.16748 -6.36559 0
M  V30 30854 O 3362.03 4.45271 -7.53232 0
M  V30 30855 C 3361.54 4.74572 -5.19863 0
M  V30 30856 C 3362.25 3.49373 -4.70338 0
M  V30 30857 N 3362.2 3.31704 -3.22876 0
M  V30 30858 C 3362.05 2.03326 -2.74871 0
M  V30 30859 O 3361.96 1.06486 -3.48076 0
M  V30 30860 N 3362.01 1.91838 -1.37456 0
M  V30 30861 C 3362.1 2.94295 -0.462035 0
M  V30 30862 O 3362.05 2.71763 0.752928 0
M  V30 30863 C 3362.25 4.25064 -1.05249 0
M  V30 30864 C 3362.36 5.39815 -0.095697 0
M  V30 30865 C 3362.3 4.40214 -2.39192 0
M  V30 30866 H 3365.04 6.54063 -5.71245 0
M  V30 30867 H 3365.31 5.30339 -4.43905 0
M  V30 30868 H 3364.44 4.55889 -6.76652 0
M  V30 30869 H 3361.79 2.6167 -5.17842 0
M  V30 30870 H 3361.51 5.52155 -4.41878 0
M  V30 30871 H 3360.52 4.51918 -5.53297 0
M  V30 30872 H 3362.35 6.25055 -6.55162 0
M  V30 30873 H 3362.42 5.39798 -2.81523 0
M  V30 30874 H 3361.39 5.91593 -0.0279582 0
M  V30 30875 H 3363.13 6.10038 -0.450573 0
M  V30 30876 H 3362.64 5.02007 0.89937 0
M  V30 30877 H 3361.91 0.995326 -1.00435 0
M  V30 30878 P 3360.48 4.23843 -7.83734 0
M  V30 30879 O 3360.26 4.19407 -9.29784 0
M  V30 30880 O 3359.69 5.24426 -7.09156 0
M  V30 30881 O 3360.23 2.7935 -7.20758 0
M  V30 30882 C 3361.17 1.7299 -7.50419 0
M  V30 30883 C 3360.44 0.406376 -7.57911 0
M  V30 30884 O 3360.23 -0.0897726 -6.21935 0
M  V30 30885 C 3359.04 0.447224 -8.1878 0
M  V30 30886 O 3358.65 -0.825065 -8.71101 0
M  V30 30887 C 3358.16 0.783801 -6.99623 0
M  V30 30888 C 3358.87 0.0619192 -5.85967 0
M  V30 30889 N 3358.82 0.7859 -4.56281 0
M  V30 30890 H 3361.66 1.93423 -8.4679 0
M  V30 30891 H 3361.93 1.68181 -6.71046 0
M  V30 30892 H 3361.06 -0.289041 -8.15388 0
M  V30 30893 P 3357.1 -1.17771 -8.83182 0
M  V30 30894 O 3356.88 -2.07206 -9.98732 0
M  V30 30895 O 3356.31 0.0743816 -8.81969 0
M  V30 30896 O 3356.85 -1.97652 -7.47304 0
M  V30 30897 C 3357.79 -3.01055 -7.08599 0
M  V30 30898 C 3357.06 -4.12613 -6.37049 0
M  V30 30899 O 3356.85 -3.72827 -4.97879 0
M  V30 30900 C 3355.66 -4.45719 -6.88164 0
M  V30 30901 O 3355.27 -5.7877 -6.5624 0
M  V30 30902 C 3354.78 -3.47768 -6.11991 0
M  V30 30903 C 3355.49 -3.39356 -4.77615 0
M  V30 30904 N 3355.44 -2.04571 -4.15244 0
M  V30 30905 C 3355.29 -1.98587 -2.78314 0
M  V30 30906 O 3355.2 -2.98134 -2.08835 0
M  V30 30907 N 3355.25 -0.714467 -2.24925 0
M  V30 30908 C 3355.34 0.470001 -2.94169 0
M  V30 30909 C 3355.49 0.312541 -4.36783 0
M  V30 30910 C 3355.54 -0.914512 -4.92583 0
M  V30 30911 H 3358.28 -3.41169 -7.98575 0
M  V30 30912 H 3358.55 -2.58295 -6.41556 0
M  V30 30913 H 3357.68 -5.02657 -6.42673 0
M  V30 30914 H 3355.03 -4.11637 -4.08885 0
M  V30 30915 H 3354.75 -2.49626 -6.61679 0
M  V30 30916 H 3353.76 -3.86566 -6.00778 0
M  V30 30917 H 3355.59 -4.29943 -7.96918 0
M  V30 30918 H 3355.66 -1.00937 -6.00374 0
M  V30 30919 P 3353.72 -6.144 -6.45285 0
M  V30 30920 O 3353.5 -7.54673 -6.86199 0
M  V30 30921 O 3352.93 -5.12391 -7.179 0
M  V30 30922 O 3353.47 -5.99158 -4.88404 0
M  V30 30923 C 3354.41 -6.60234 -3.96415 0
M  V30 30924 C 3353.68 -7.08259 -2.72856 0
M  V30 30925 O 3353.47 -5.9427 -1.83651 0
M  V30 30926 C 3352.28 -7.64886 -2.9555 0
M  V30 30927 O 3351.89 -8.53963 -1.90717 0
M  V30 30928 C 3351.4 -6.4116 -2.90739 0
M  V30 30929 C 3352.11 -5.55375 -1.86963 0
M  V30 30930 N 3352.06 -4.09664 -2.15742 0
M  V30 30931 H 3354.9 -7.45574 -4.45629 0
M  V30 30932 H 3355.17 -5.86232 -3.67314 0
M  V30 30933 H 3354.3 -7.84412 -2.24479 0
M  V30 30934 P 3350.34 -8.7635 -1.60911 0
M  V30 30935 O 3350.12 -10.1388 -1.11561 0
M  V30 30936 O 3349.55 -8.36503 -2.79617 0
M  V30 30937 O 3350.09 -7.71806 -0.42951 0
M  V30 30938 C 3351.03 -7.66948 0.673514 0
M  V30 30939 C 3350.3 -7.33374 1.95559 0
M  V30 30940 O 3350.09 -5.88721 2.00726 0
M  V30 30941 C 3348.9 -7.92218 2.1125 0
M  V30 30942 O 3348.51 -8.02971 3.47653 0
M  V30 30943 C 3348.02 -6.89504 1.41631 0
M  V30 30944 C 3348.73 -5.59106 1.75155 0
M  V30 30945 N 3348.68 -4.58136 0.662409 0
M  V30 30946 C 3348.53 -3.26059 1.02863 0
M  V30 30947 O 3348.44 -2.90743 2.19009 0
M  V30 30948 N 3348.49 -2.35995 -0.0155585 0
M  V30 30949 C 3348.58 -2.65248 -1.35603 0
M  V30 30950 O 3348.53 -1.75605 -2.20651 0
M  V30 30951 C 3348.73 -4.05747 -1.64698 0
M  V30 30952 C 3348.84 -4.42345 -3.09553 0
M  V30 30953 C 3348.78 -4.96734 -0.652411 0
M  V30 30954 H 3351.52 -8.64917 0.776982 0
M  V30 30955 H 3351.79 -6.89974 0.474015 0
M  V30 30956 H 3350.92 -7.66548 2.79458 0
M  V30 30957 H 3348.27 -5.16076 2.65138 0
M  V30 30958 H 3347.99 -7.06433 0.329384 0
M  V30 30959 H 3347 -6.90829 1.81996 0
M  V30 30960 H 3348.83 -8.90774 1.62639 0
M  V30 30961 H 3348.9 -6.02181 -0.895285 0
M  V30 30962 H 3347.87 -4.80252 -3.45468 0
M  V30 30963 H 3349.61 -5.20015 -3.22119 0
M  V30 30964 H 3349.12 -3.53269 -3.67833 0
M  V30 30965 H 3348.39 -1.39558 0.227499 0
M  V30 30966 P 3346.96 -8.03563 3.84925 0
M  V30 30967 O 3346.74 -8.85821 5.0569 0
M  V30 30968 O 3346.17 -8.41101 2.65469 0
M  V30 30969 O 3346.71 -6.4965 4.18908 0
M  V30 30970 C 3347.65 -5.81037 5.05421 0
M  V30 30971 C 3346.92 -4.78366 5.89277 0
M  V30 30972 O 3346.71 -3.58302 5.08433 0
M  V30 30973 C 3345.52 -5.17448 6.36119 0
M  V30 30974 O 3345.13 -4.45271 7.53232 0
M  V30 30975 C 3344.64 -4.74639 5.19936 0
M  V30 30976 C 3345.35 -3.49432 4.70418 0
M  V30 30977 N 3345.3 -3.31776 3.22945 0
M  V30 30978 H 3348.14 -6.54213 5.71376 0
M  V30 30979 H 3348.41 -5.30492 4.44033 0
M  V30 30980 H 3347.54 -4.55889 6.76652 0
M  V30 30981 P 3343.58 -4.23843 7.83734 0
M  V30 30982 O 3343.36 -4.19407 9.29784 0
M  V30 30983 O 3342.79 -5.24426 7.09156 0
M  V30 30984 O 3343.33 -2.7935 7.20758 0
M  V30 30985 C 3344.27 -1.72945 7.50224 0
M  V30 30986 C 3343.54 -0.406376 7.57911 0
M  V30 30987 O 3343.33 0.0897726 6.21935 0
M  V30 30988 C 3342.14 -0.438983 8.18724 0
M  V30 30989 O 3341.75 0.825065 8.71101 0
M  V30 30990 C 3341.26 -0.783689 6.99524 0
M  V30 30991 C 3341.97 -0.0619086 5.85867 0
M  V30 30992 N 3341.92 -0.78573 4.56183 0
M  V30 30993 C 3341.77 -0.0292889 3.41887 0
M  V30 30994 O 3341.68 1.18445 3.4419 0
M  V30 30995 N 3341.73 -0.744061 2.23964 0
M  V30 30996 C 3341.82 -2.10932 2.10362 0
M  V30 30997 O 3341.77 -2.64117 0.98825 0
M  V30 30998 C 3341.97 -2.8202 3.34994 0
M  V30 30999 C 3342.08 -4.31095 3.25037 0
M  V30 31000 C 3342.02 -2.15547 4.52261 0
M  V30 31001 H 3344.76 -1.93379 8.46595 0
M  V30 31002 H 3345.03 -1.68132 6.70852 0
M  V30 31003 H 3344.16 0.289041 8.15388 0
M  V30 31004 H 3341.51 0.926847 5.72749 0
M  V30 31005 H 3341.23 -1.86973 6.82036 0
M  V30 31006 H 3340.24 -0.403896 7.13257 0
M  V30 31007 H 3342.07 -1.20585 8.97435 0
M  V30 31008 H 3342.14 -2.71231 5.45042 0
M  V30 31009 H 3341.11 -4.76966 3.49992 0
M  V30 31010 H 3342.85 -4.67047 3.95024 0
M  V30 31011 H 3342.36 -4.58996 2.22312 0
M  V30 31012 H 3341.63 -0.214893 1.39758 0
M  V30 31013 P 3340.2 1.17771 8.83182 0
M  V30 31014 O 3339.98 2.07206 9.98732 0
M  V30 31015 O 3339.41 -0.0743816 8.81969 0
M  V30 31016 O 3339.95 1.97652 7.47304 0
M  V30 31017 C 3340.89 3.01055 7.08599 0
M  V30 31018 C 3340.16 4.12613 6.37049 0
M  V30 31019 O 3339.95 3.72827 4.97879 0
M  V30 31020 C 3338.76 4.45719 6.88164 0
M  V30 31021 O 3338.37 5.7877 6.5624 0
M  V30 31022 C 3337.88 3.47768 6.11991 0
M  V30 31023 C 3338.59 3.39356 4.77615 0
M  V30 31024 N 3338.54 2.04571 4.15244 0
M  V30 31025 C 3338.39 1.98587 2.78314 0
M  V30 31026 O 3338.3 2.98134 2.08835 0
M  V30 31027 N 3338.35 0.714467 2.24925 0
M  V30 31028 C 3338.44 -0.470001 2.94169 0
M  V30 31029 O 3338.39 -1.55587 2.35195 0
M  V30 31030 C 3338.59 -0.312541 4.36783 0
M  V30 31031 C 3338.7 -1.57711 5.16352 0
M  V30 31032 C 3338.64 0.914512 4.92583 0
M  V30 31033 H 3341.38 3.41169 7.98575 0
M  V30 31034 H 3341.65 2.58295 6.41556 0
M  V30 31035 H 3340.78 5.02657 6.42673 0
M  V30 31036 H 3338.13 4.11637 4.08885 0
M  V30 31037 H 3337.85 2.49626 6.61679 0
M  V30 31038 H 3336.86 3.86566 6.00778 0
M  V30 31039 H 3338.69 4.29943 7.96918 0
M  V30 31040 H 3338.76 1.00937 6.00374 0
M  V30 31041 H 3337.73 -1.80153 5.63503 0
M  V30 31042 H 3339.47 -1.4566 5.94104 0
M  V30 31043 H 3338.98 -2.40664 4.49645 0
M  V30 31044 H 3338.25 0.647622 1.25697 0
M  V30 31045 P 3336.82 6.144 6.45285 0
M  V30 31046 O 3336.6 7.54673 6.86199 0
M  V30 31047 O 3336.03 5.12391 7.179 0
M  V30 31048 O 3336.57 5.99158 4.88404 0
M  V30 31049 C 3337.51 6.60062 3.96313 0
M  V30 31050 C 3336.78 7.08259 2.72856 0
M  V30 31051 O 3336.57 5.9427 1.83651 0
M  V30 31052 C 3335.38 7.65087 2.94749 0
M  V30 31053 O 3334.99 8.53963 1.90717 0
M  V30 31054 C 3334.5 6.41069 2.90698 0
M  V30 31055 C 3335.21 5.5528 1.86931 0
M  V30 31056 N 3335.16 4.09575 2.15696 0
M  V30 31057 C 3335.01 3.24249 1.08435 0
M  V30 31058 O 3334.92 3.63946 -0.0628747 0
M  V30 31059 N 3334.97 1.90009 1.39973 0
M  V30 31060 C 3335.06 1.34884 2.65614 0
M  V30 31061 O 3335.01 0.123716 2.81728 0
M  V30 31062 C 3335.21 2.3145 3.71736 0
M  V30 31063 C 3335.32 1.75913 5.10438 0
M  V30 31064 C 3335.26 3.63518 3.44754 0
M  V30 31065 H 3338 7.45402 4.45526 0
M  V30 31066 H 3338.27 5.86062 3.67208 0
M  V30 31067 H 3337.4 7.84412 2.24479 0
M  V30 31068 H 3334.75 5.73358 0.888409 0
M  V30 31069 H 3334.47 5.90877 3.88583 0
M  V30 31070 H 3333.48 6.65867 2.58821 0
M  V30 31071 H 3335.31 8.16248 3.92006 0
M  V30 31072 H 3335.38 4.34551 4.26383 0
M  V30 31073 H 3334.35 1.85471 5.61775 0
M  V30 31074 H 3336.09 2.31364 5.66257 0
M  V30 31075 H 3335.6 0.695936 5.05229 0
M  V30 31076 H 3334.87 1.26277 0.63625 0
M  V30 31077 P 3333.44 8.7635 1.60911 0
M  V30 31078 O 3333.22 10.1388 1.11561 0
M  V30 31079 O 3332.65 8.36503 2.79617 0
M  V30 31080 O 3333.19 7.71806 0.42951 0
M  V30 31081 C 3334.13 7.66948 -0.673514 0
M  V30 31082 C 3333.4 7.33374 -1.95559 0
M  V30 31083 O 3333.19 5.88721 -2.00726 0
M  V30 31084 C 3332 7.92218 -2.1125 0
M  V30 31085 O 3331.61 8.02971 -3.47653 0
M  V30 31086 C 3331.12 6.89504 -1.41631 0
M  V30 31087 C 3331.83 5.59106 -1.75155 0
M  V30 31088 N 3331.78 4.58136 -0.662409 0
M  V30 31089 C 3331.63 3.26059 -1.02863 0
M  V30 31090 O 3331.54 2.90743 -2.19009 0
M  V30 31091 N 3331.59 2.35995 0.0155585 0
M  V30 31092 C 3331.68 2.65248 1.35603 0
M  V30 31093 O 3331.63 1.75605 2.20651 0
M  V30 31094 C 3331.83 4.05747 1.64698 0
M  V30 31095 C 3331.94 4.42345 3.09553 0
M  V30 31096 C 3331.88 4.96734 0.652411 0
M  V30 31097 H 3334.62 8.64917 -0.776982 0
M  V30 31098 H 3334.89 6.89974 -0.474015 0
M  V30 31099 H 3334.02 7.66548 -2.79458 0
M  V30 31100 H 3331.37 5.16076 -2.65138 0
M  V30 31101 H 3331.09 7.06433 -0.329384 0
M  V30 31102 H 3330.1 6.90829 -1.81996 0
M  V30 31103 H 3331.93 8.90774 -1.62639 0
M  V30 31104 H 3332 6.02181 0.895285 0
M  V30 31105 H 3330.97 4.80252 3.45468 0
M  V30 31106 H 3332.71 5.20015 3.22119 0
M  V30 31107 H 3332.22 3.53269 3.67833 0
M  V30 31108 H 3331.49 1.39558 -0.227499 0
M  V30 31109 P 3330.06 8.03563 -3.84925 0
M  V30 31110 O 3329.84 8.85821 -5.0569 0
M  V30 31111 O 3329.27 8.41101 -2.65469 0
M  V30 31112 O 3329.81 6.49734 -4.18962 0
M  V30 31113 C 3330.75 5.81037 -5.05421 0
M  V30 31114 C 3330.02 4.79018 -5.88876 0
M  V30 31115 O 3329.81 3.58359 -5.08515 0
M  V30 31116 C 3328.62 5.17448 -6.36119 0
M  V30 31117 O 3328.23 4.45322 -7.53318 0
M  V30 31118 C 3327.74 4.74639 -5.19936 0
M  V30 31119 C 3328.45 3.49432 -4.70418 0
M  V30 31120 N 3328.4 3.31776 -3.22945 0
M  V30 31121 C 3328.25 2.02742 -2.72939 0
M  V30 31122 O 3328.16 1.08301 -3.52749 0
M  V30 31123 N 3328.2 1.96117 -1.22063 0
M  V30 31124 C 3328.3 2.8878 -0.551566 0
M  V30 31125 N 3328.25 2.65609 0.750198 0
M  V30 31126 C 3328.45 4.22457 -1.03707 0
M  V30 31127 C 3328.5 4.37979 -2.39113 0
M  V30 31128 H 3331.24 6.54138 -5.7131 0
M  V30 31129 H 3331.51 5.30492 -4.44033 0
M  V30 31130 H 3330.64 4.55945 -6.76735 0
M  V30 31131 H 3327.99 2.6176 -5.18021 0
M  V30 31132 H 3327.71 5.52233 -4.41941 0
M  V30 31133 H 3326.72 4.52045 -5.53452 0
M  V30 31134 H 3328.55 6.25124 -6.55234 0
M  V30 31135 H 3328.62 5.37936 -2.80552 0
M  V30 31136 H 3328.52 5.07528 -0.359553 0
M  V30 31137 H 3328.13 1.69403 1.09847 0
M  V30 31138 H 3328.33 3.43701 1.41792 0
M  V30 31139 P 3326.68 4.23843 -7.83734 0
M  V30 31140 O 3326.46 4.19407 -9.29784 0
M  V30 31141 O 3325.89 5.24426 -7.09156 0
M  V30 31142 O 3326.43 2.7935 -7.20758 0
M  V30 31143 C 3327.37 1.7299 -7.50419 0
M  V30 31144 C 3326.64 0.406376 -7.57911 0
M  V30 31145 O 3326.43 -0.0897726 -6.21935 0
M  V30 31146 C 3325.24 0.447224 -8.1878 0
M  V30 31147 O 3324.85 -0.825065 -8.71101 0
M  V30 31148 C 3324.36 0.783801 -6.99623 0
M  V30 31149 C 3325.07 0.0619192 -5.85967 0
M  V30 31150 N 3325.02 0.790462 -4.56202 0
M  V30 31151 H 3327.86 1.93423 -8.4679 0
M  V30 31152 H 3328.13 1.68852 -6.70877 0
M  V30 31153 H 3327.26 -0.289041 -8.15388 0
M  V30 31154 H 3324.61 -0.927006 -5.72848 0
M  V30 31155 H 3324.33 1.86973 -6.82036 0
M  V30 31156 H 3323.34 0.403953 -7.13357 0
M  V30 31157 H 3325.17 1.20599 -8.97534 0
M  V30 31158 P 3323.3 -1.17771 -8.83182 0
M  V30 31159 O 3323.08 -2.07206 -9.98732 0
M  V30 31160 O 3322.51 0.0743816 -8.81969 0
M  V30 31161 O 3323.05 -1.97652 -7.47304 0
M  V30 31162 C 3323.99 -3.01133 -7.08783 0
M  V30 31163 C 3323.26 -4.12613 -6.37049 0
M  V30 31164 O 3323.05 -3.72827 -4.97879 0
M  V30 31165 C 3321.86 -4.45085 -6.88694 0
M  V30 31166 O 3321.47 -5.7877 -6.5624 0
M  V30 31167 C 3320.98 -3.47817 -6.12078 0
M  V30 31168 C 3321.69 -3.39414 -4.77697 0
M  V30 31169 N 3321.64 -2.04615 -4.15333 0
M  V30 31170 H 3324.48 -3.41248 -7.98759 0
M  V30 31171 H 3324.75 -2.5837 -6.41742 0
M  V30 31172 H 3323.88 -5.02657 -6.42673 0
M  V30 31173 P 3319.92 -6.144 -6.45285 0
M  V30 31174 O 3319.7 -7.54673 -6.86199 0
M  V30 31175 O 3319.13 -5.12391 -7.179 0
M  V30 31176 O 3319.67 -5.99158 -4.88404 0
M  V30 31177 C 3320.61 -6.60234 -3.96415 0
M  V30 31178 C 3319.88 -7.08259 -2.72856 0
M  V30 31179 O 3319.67 -5.9427 -1.83651 0
M  V30 31180 C 3318.48 -7.64886 -2.9555 0
M  V30 31181 O 3318.09 -8.53963 -1.90717 0
M  V30 31182 C 3317.6 -6.4116 -2.90739 0
M  V30 31183 C 3318.31 -5.55375 -1.86963 0
M  V30 31184 N 3318.26 -4.09448 -2.16152 0
M  V30 31185 C 3318.34 -3.46824 -3.37593 0
M  V30 31186 N 3318.27 -2.17422 -3.29777 0
M  V30 31187 C 3318.12 -1.93065 -1.94427 0
M  V30 31188 C 3317.99 -0.738053 -1.20141 0
M  V30 31189 N 3317.98 0.474256 -1.74676 0
M  V30 31190 N 3317.87 -0.850049 0.13045 0
M  V30 31191 C 3317.88 -2.06169 0.676992 0
M  V30 31192 N 3318 -3.23842 0.101312 0
M  V30 31193 C 3318.12 -3.09402 -1.23122 0
M  V30 31194 H 3321.1 -7.45574 -4.45629 0
M  V30 31195 H 3321.37 -5.85864 -3.679 0
M  V30 31196 H 3320.5 -7.84412 -2.24479 0
M  V30 31197 H 3317.85 -5.73457 -0.888562 0
M  V30 31198 H 3317.57 -5.90877 -3.88583 0
M  V30 31199 H 3316.58 -6.6596 -2.58858 0
M  V30 31200 H 3318.41 -8.16339 -3.92049 0
M  V30 31201 H 3318.45 -4.00505 -4.3174 0
M  V30 31202 H 3318.07 0.581337 -2.76658 0
M  V30 31203 H 3317.88 1.30811 -1.14888 0
M  V30 31204 H 3317.77 -2.08295 1.75542 0
M  V30 31205 P 3316.54 -8.7635 -1.60911 0
M  V30 31206 O 3316.32 -10.1388 -1.11561 0
M  V30 31207 O 3315.75 -8.36503 -2.79617 0
M  V30 31208 O 3316.29 -7.71806 -0.42951 0
M  V30 31209 C 3317.23 -7.67148 0.673689 0
M  V30 31210 C 3316.5 -7.33374 1.95559 0
M  V30 31211 O 3316.29 -5.88721 2.00726 0
M  V30 31212 C 3315.1 -7.92526 2.10483 0
M  V30 31213 O 3314.71 -8.02971 3.47653 0
M  V30 31214 C 3314.22 -6.89602 1.41652 0
M  V30 31215 C 3314.93 -5.59201 1.75185 0
M  V30 31216 N 3314.88 -4.58301 0.657969 0
M  V30 31217 H 3317.72 -8.65116 0.777161 0
M  V30 31218 H 3317.99 -6.9022 0.46725 0
M  V30 31219 H 3317.12 -7.66548 2.79458 0
M  V30 31220 H 3314.47 -5.16165 2.65183 0
M  V30 31221 H 3314.19 -7.06433 0.329384 0
M  V30 31222 H 3313.2 -6.90926 1.82021 0
M  V30 31223 H 3315.03 -8.90873 1.62657 0
M  V30 31224 P 3313.16 -8.03563 3.84925 0
M  V30 31225 O 3312.94 -8.85821 5.0569 0
M  V30 31226 O 3312.37 -8.41101 2.65469 0
M  V30 31227 O 3312.91 -6.4965 4.18908 0
M  V30 31228 C 3313.85 -5.81037 5.05421 0
M  V30 31229 C 3313.12 -4.78366 5.89277 0
M  V30 31230 O 3312.91 -3.58302 5.08433 0
M  V30 31231 C 3311.72 -5.17448 6.36119 0
M  V30 31232 O 3311.33 -4.45271 7.53232 0
M  V30 31233 C 3310.84 -4.74639 5.19936 0
M  V30 31234 C 3311.55 -3.49432 4.70418 0
M  V30 31235 N 3311.5 -3.32099 3.22613 0
M  V30 31236 H 3314.34 -6.54213 5.71376 0
M  V30 31237 H 3314.61 -5.30936 4.43503 0
M  V30 31238 H 3313.74 -4.55889 6.76652 0
M  V30 31239 H 3311.09 -2.61715 5.17932 0
M  V30 31240 H 3310.81 -5.52155 4.41878 0
M  V30 31241 H 3309.82 -4.51981 5.53374 0
M  V30 31242 H 3311.65 -6.25124 6.55234 0
M  V30 31243 P 3309.78 -4.23843 7.83734 0
M  V30 31244 O 3309.56 -4.19407 9.29784 0
M  V30 31245 O 3308.99 -5.24426 7.09156 0
M  V30 31246 O 3309.53 -2.7935 7.20758 0
M  V30 31247 C 3310.47 -1.7299 7.50419 0
M  V30 31248 C 3309.74 -0.406376 7.57911 0
M  V30 31249 O 3309.53 0.0897726 6.21935 0
M  V30 31250 C 3308.34 -0.447224 8.1878 0
M  V30 31251 O 3307.95 0.825065 8.71101 0
M  V30 31252 C 3307.46 -0.783801 6.99623 0
M  V30 31253 C 3308.17 -0.0619192 5.85967 0
M  V30 31254 N 3308.12 -0.7859 4.56281 0
M  V30 31255 C 3308.2 -2.14308 4.31736 0
M  V30 31256 N 3308.12 -2.46106 3.05116 0
M  V30 31257 C 3307.98 -1.23422 2.4014 0
M  V30 31258 C 3307.85 -0.938381 1.02409 0
M  V30 31259 N 3307.73 0.444647 0.805413 0
M  V30 31260 C 3307.73 1.40829 1.79435 0
M  V30 31261 N 3307.6 2.67213 1.38558 0
M  V30 31262 N 3307.86 1.12947 3.09005 0
M  V30 31263 C 3307.98 -0.204887 3.32369 0
M  V30 31264 H 3310.96 -1.93423 8.4679 0
M  V30 31265 H 3311.23 -1.68181 6.71046 0
M  V30 31266 H 3310.36 0.289041 8.15388 0
M  V30 31267 P 3306.4 1.17771 8.83182 0
M  V30 31268 O 3306.18 2.07206 9.98732 0
M  V30 31269 O 3305.61 -0.0743816 8.81969 0
M  V30 31270 O 3306.15 1.97652 7.47304 0
M  V30 31271 C 3307.09 3.01133 7.08783 0
M  V30 31272 C 3306.36 4.12613 6.37049 0
M  V30 31273 O 3306.15 3.72827 4.97879 0
M  V30 31274 C 3304.96 4.45085 6.88694 0
M  V30 31275 O 3304.57 5.7877 6.5624 0
M  V30 31276 C 3304.08 3.47817 6.12078 0
M  V30 31277 C 3304.79 3.39414 4.77697 0
M  V30 31278 N 3304.74 2.04615 4.15333 0
M  V30 31279 H 3307.58 3.41248 7.98759 0
M  V30 31280 H 3307.85 2.5837 6.41742 0
M  V30 31281 H 3306.98 5.02657 6.42673 0
M  V30 31282 P 3303.02 6.144 6.45285 0
M  V30 31283 O 3302.8 7.54673 6.86199 0
M  V30 31284 O 3302.23 5.12391 7.179 0
M  V30 31285 O 3302.77 5.99158 4.88404 0
M  V30 31286 C 3303.71 6.60234 3.96415 0
M  V30 31287 C 3302.98 7.08259 2.72856 0
M  V30 31288 O 3302.77 5.9427 1.83651 0
M  V30 31289 C 3301.58 7.64886 2.9555 0
M  V30 31290 O 3301.19 8.53963 1.90717 0
M  V30 31291 C 3300.7 6.4116 2.90739 0
M  V30 31292 C 3301.41 5.55375 1.86963 0
M  V30 31293 N 3301.36 4.09664 2.15742 0
M  V30 31294 H 3304.2 7.45574 4.45629 0
M  V30 31295 H 3304.47 5.86232 3.67314 0
M  V30 31296 H 3303.6 7.84412 2.24479 0
M  V30 31297 P 3299.64 8.7635 1.60911 0
M  V30 31298 O 3299.42 10.1388 1.11561 0
M  V30 31299 O 3298.85 8.36503 2.79617 0
M  V30 31300 O 3299.39 7.71806 0.42951 0
M  V30 31301 C 3300.33 7.67148 -0.673689 0
M  V30 31302 C 3299.6 7.33374 -1.95559 0
M  V30 31303 O 3299.39 5.88721 -2.00726 0
M  V30 31304 C 3298.2 7.92526 -2.10483 0
M  V30 31305 O 3297.81 8.02971 -3.47653 0
M  V30 31306 C 3297.32 6.89602 -1.41652 0
M  V30 31307 C 3298.03 5.59201 -1.75185 0
M  V30 31308 N 3297.98 4.58235 -0.662552 0
M  V30 31309 H 3300.82 8.65116 -0.777161 0
M  V30 31310 H 3301.09 6.90173 -0.474152 0
M  V30 31311 H 3300.22 7.66548 -2.79458 0
M  V30 31312 P 3296.26 8.03563 -3.84925 0
M  V30 31313 O 3296.04 8.85821 -5.0569 0
M  V30 31314 O 3295.47 8.41101 -2.65469 0
M  V30 31315 O 3296.01 6.4965 -4.18908 0
M  V30 31316 C 3296.95 5.81037 -5.05421 0
M  V30 31317 C 3296.22 4.78366 -5.89277 0
M  V30 31318 O 3296.01 3.58302 -5.08433 0
M  V30 31319 C 3294.82 5.17448 -6.36119 0
M  V30 31320 O 3294.43 4.45271 -7.53232 0
M  V30 31321 C 3293.94 4.74639 -5.19936 0
M  V30 31322 C 3294.65 3.49432 -4.70418 0
M  V30 31323 N 3294.6 3.32099 -3.22613 0
M  V30 31324 H 3297.44 6.54213 -5.71376 0
M  V30 31325 H 3297.71 5.30936 -4.43503 0
M  V30 31326 H 3296.84 4.55889 -6.76652 0
M  V30 31327 H 3294.19 2.61715 -5.17932 0
M  V30 31328 H 3293.91 5.52155 -4.41878 0
M  V30 31329 H 3292.92 4.51981 -5.53374 0
M  V30 31330 H 3294.75 6.25124 -6.55234 0
M  V30 31331 P 3292.88 4.23843 -7.83734 0
M  V30 31332 O 3292.66 4.19407 -9.29784 0
M  V30 31333 O 3292.09 5.24426 -7.09156 0
M  V30 31334 O 3292.63 2.7935 -7.20758 0
M  V30 31335 C 3293.57 1.7299 -7.50419 0
M  V30 31336 C 3292.84 0.406376 -7.57911 0
M  V30 31337 O 3292.63 -0.0897726 -6.21935 0
M  V30 31338 C 3291.44 0.447224 -8.1878 0
M  V30 31339 O 3291.05 -0.825065 -8.71101 0
M  V30 31340 C 3290.56 0.783801 -6.99623 0
M  V30 31341 C 3291.27 0.0619192 -5.85967 0
M  V30 31342 N 3291.22 0.7859 -4.56281 0
M  V30 31343 H 3294.06 1.93423 -8.4679 0
M  V30 31344 H 3294.33 1.68181 -6.71046 0
M  V30 31345 H 3293.46 -0.289041 -8.15388 0
M  V30 31346 P 3289.5 -1.17771 -8.83182 0
M  V30 31347 O 3289.28 -2.07206 -9.98732 0
M  V30 31348 O 3288.71 0.0743816 -8.81969 0
M  V30 31349 O 3289.25 -1.97652 -7.47304 0
M  V30 31350 C 3290.19 -3.01133 -7.08783 0
M  V30 31351 C 3289.46 -4.12613 -6.37049 0
M  V30 31352 O 3289.25 -3.72827 -4.97879 0
M  V30 31353 C 3288.06 -4.45085 -6.88694 0
M  V30 31354 O 3287.67 -5.7877 -6.5624 0
M  V30 31355 C 3287.18 -3.47817 -6.12078 0
M  V30 31356 C 3287.89 -3.39414 -4.77697 0
M  V30 31357 N 3287.84 -2.04615 -4.15333 0
M  V30 31358 H 3290.68 -3.41248 -7.98759 0
M  V30 31359 H 3290.95 -2.5837 -6.41742 0
M  V30 31360 H 3290.08 -5.02657 -6.42673 0
M  V30 31361 P 3286.12 -6.144 -6.45285 0
M  V30 31362 O 3285.9 -7.54673 -6.86199 0
M  V30 31363 O 3285.33 -5.12391 -7.179 0
M  V30 31364 O 3285.87 -5.99158 -4.88404 0
M  V30 31365 C 3286.81 -6.60062 -3.96313 0
M  V30 31366 C 3286.08 -7.08259 -2.72856 0
M  V30 31367 O 3285.87 -5.9427 -1.83651 0
M  V30 31368 C 3284.68 -7.65087 -2.94749 0
M  V30 31369 O 3284.29 -8.53963 -1.90717 0
M  V30 31370 C 3283.8 -6.41069 -2.90698 0
M  V30 31371 C 3284.51 -5.5528 -1.86931 0
M  V30 31372 N 3284.46 -4.09575 -2.15696 0
M  V30 31373 C 3284.31 -3.24249 -1.08435 0
M  V30 31374 O 3284.22 -3.63946 0.0628747 0
M  V30 31375 N 3284.27 -1.90009 -1.39973 0
M  V30 31376 C 3284.36 -1.34884 -2.65614 0
M  V30 31377 O 3284.31 -0.123716 -2.81728 0
M  V30 31378 C 3284.51 -2.3145 -3.71736 0
M  V30 31379 C 3284.62 -1.75913 -5.10438 0
M  V30 31380 C 3284.56 -3.63518 -3.44754 0
M  V30 31381 H 3287.3 -7.45402 -4.45526 0
M  V30 31382 H 3287.57 -5.86062 -3.67208 0
M  V30 31383 H 3286.7 -7.84412 -2.24479 0
M  V30 31384 H 3284.05 -5.73358 -0.888409 0
M  V30 31385 H 3283.77 -5.90877 -3.88583 0
M  V30 31386 H 3282.78 -6.65867 -2.58821 0
M  V30 31387 H 3284.61 -8.16248 -3.92006 0
M  V30 31388 H 3284.68 -4.34551 -4.26383 0
M  V30 31389 H 3283.65 -1.85471 -5.61775 0
M  V30 31390 H 3285.39 -2.31364 -5.66257 0
M  V30 31391 H 3284.9 -0.695936 -5.05229 0
M  V30 31392 H 3284.17 -1.26277 -0.63625 0
M  V30 31393 P 3282.74 -8.7635 -1.60911 0
M  V30 31394 O 3282.52 -10.1388 -1.11561 0
M  V30 31395 O 3281.95 -8.36503 -2.79617 0
M  V30 31396 O 3282.49 -7.71806 -0.42951 0
M  V30 31397 C 3283.43 -7.66948 0.673514 0
M  V30 31398 C 3282.7 -7.33374 1.95559 0
M  V30 31399 O 3282.49 -5.88721 2.00726 0
M  V30 31400 C 3281.3 -7.92218 2.1125 0
M  V30 31401 O 3280.91 -8.02971 3.47653 0
M  V30 31402 C 3280.42 -6.89504 1.41631 0
M  V30 31403 C 3281.13 -5.59106 1.75155 0
M  V30 31404 N 3281.08 -4.58136 0.662409 0
M  V30 31405 C 3280.93 -3.26059 1.02863 0
M  V30 31406 O 3280.84 -2.90743 2.19009 0
M  V30 31407 N 3280.89 -2.35995 -0.0155585 0
M  V30 31408 C 3280.98 -2.65248 -1.35603 0
M  V30 31409 C 3281.13 -4.05747 -1.64698 0
M  V30 31410 C 3281.18 -4.96734 -0.652411 0
M  V30 31411 H 3283.92 -8.64917 0.776982 0
M  V30 31412 H 3284.19 -6.89974 0.474015 0
M  V30 31413 H 3283.32 -7.66548 2.79458 0
M  V30 31414 H 3280.67 -5.16076 2.65138 0
M  V30 31415 H 3280.39 -7.06433 0.329384 0
M  V30 31416 H 3279.4 -6.90829 1.81996 0
M  V30 31417 H 3281.23 -8.90774 1.62639 0
M  V30 31418 H 3281.3 -6.02181 -0.895285 0
M  V30 31419 P 3279.36 -8.03563 3.84925 0
M  V30 31420 O 3279.14 -8.85821 5.0569 0
M  V30 31421 O 3278.57 -8.41101 2.65469 0
M  V30 31422 O 3279.11 -6.4965 4.18908 0
M  V30 31423 C 3280.05 -5.81037 5.05421 0
M  V30 31424 C 3279.32 -4.78366 5.89277 0
M  V30 31425 O 3279.11 -3.58302 5.08433 0
M  V30 31426 C 3277.92 -5.17448 6.36119 0
M  V30 31427 O 3277.53 -4.45271 7.53232 0
M  V30 31428 C 3277.04 -4.74639 5.19936 0
M  V30 31429 C 3277.75 -3.49432 4.70418 0
M  V30 31430 N 3277.7 -3.32099 3.22613 0
M  V30 31431 H 3280.54 -6.54213 5.71376 0
M  V30 31432 H 3280.81 -5.30936 4.43503 0
M  V30 31433 H 3279.94 -4.55889 6.76652 0
M  V30 31434 H 3277.29 -2.61715 5.17932 0
M  V30 31435 H 3277.01 -5.52155 4.41878 0
M  V30 31436 H 3276.02 -4.51981 5.53374 0
M  V30 31437 H 3277.85 -6.25124 6.55234 0
M  V30 31438 P 3275.98 -4.23843 7.83734 0
M  V30 31439 O 3275.76 -4.19407 9.29784 0
M  V30 31440 O 3275.19 -5.24426 7.09156 0
M  V30 31441 O 3275.73 -2.7935 7.20758 0
M  V30 31442 C 3276.67 -1.7299 7.50419 0
M  V30 31443 C 3275.94 -0.406376 7.57911 0
M  V30 31444 O 3275.73 0.0897726 6.21935 0
M  V30 31445 C 3274.54 -0.447224 8.1878 0
M  V30 31446 O 3274.15 0.825065 8.71101 0
M  V30 31447 C 3273.66 -0.783801 6.99623 0
M  V30 31448 C 3274.37 -0.0619192 5.85967 0
M  V30 31449 N 3274.32 -0.790462 4.56202 0
M  V30 31450 C 3274.4 -2.13895 4.34171 0
M  V30 31451 N 3274.33 -2.46449 3.08687 0
M  V30 31452 C 3274.18 -1.2525 2.43697 0
M  V30 31453 C 3274.05 -0.914535 1.07318 0
M  V30 31454 N 3274.04 -1.80782 0.0887348 0
M  V30 31455 N 3273.93 0.386745 0.768133 0
M  V30 31456 C 3273.94 1.28096 1.75159 0
M  V30 31457 N 3274.06 1.09708 3.04861 0
M  V30 31458 C 3274.18 -0.214857 3.32306 0
M  V30 31459 H 3277.16 -1.93423 8.4679 0
M  V30 31460 H 3277.43 -1.68852 6.70877 0
M  V30 31461 H 3276.56 0.289041 8.15388 0
M  V30 31462 H 3273.91 0.927006 5.72848 0
M  V30 31463 H 3273.63 -1.86973 6.82036 0
M  V30 31464 H 3272.64 -0.403953 7.13357 0
M  V30 31465 H 3274.47 -1.20599 8.97534 0
M  V30 31466 H 3274.51 -2.86846 5.14318 0
M  V30 31467 H 3274.13 -2.81082 0.302037 0
M  V30 31468 H 3273.94 -1.49688 -0.889064 0
M  V30 31469 H 3273.83 2.31317 1.43855 0
M  V30 31470 P 3272.6 1.17771 8.83182 0
M  V30 31471 O 3272.38 2.07206 9.98732 0
M  V30 31472 O 3271.81 -0.0743816 8.81969 0
M  V30 31473 O 3272.35 1.97652 7.47304 0
M  V30 31474 C 3273.29 3.01055 7.08599 0
M  V30 31475 C 3272.56 4.12613 6.37049 0
M  V30 31476 O 3272.35 3.72827 4.97879 0
M  V30 31477 C 3271.16 4.45719 6.88164 0
M  V30 31478 O 3270.77 5.7877 6.5624 0
M  V30 31479 C 3270.28 3.47768 6.11991 0
M  V30 31480 C 3270.99 3.39356 4.77615 0
M  V30 31481 N 3270.94 2.04571 4.15244 0
M  V30 31482 C 3270.79 1.98587 2.78314 0
M  V30 31483 O 3270.7 2.98134 2.08835 0
M  V30 31484 N 3270.75 0.714467 2.24925 0
M  V30 31485 C 3270.84 -0.470001 2.94169 0
M  V30 31486 C 3270.99 -0.312541 4.36783 0
M  V30 31487 C 3271.04 0.914512 4.92583 0
M  V30 31488 H 3273.78 3.41169 7.98575 0
M  V30 31489 H 3274.05 2.58295 6.41556 0
M  V30 31490 H 3273.18 5.02657 6.42673 0
M  V30 31491 H 3270.53 4.11637 4.08885 0
M  V30 31492 H 3270.25 2.49626 6.61679 0
M  V30 31493 H 3269.26 3.86566 6.00778 0
M  V30 31494 H 3271.09 4.29943 7.96918 0
M  V30 31495 H 3271.16 1.00937 6.00374 0
M  V30 31496 P 3269.22 6.144 6.45285 0
M  V30 31497 O 3269 7.54673 6.86199 0
M  V30 31498 O 3268.43 5.12391 7.179 0
M  V30 31499 O 3268.97 5.99158 4.88404 0
M  V30 31500 C 3269.91 6.60234 3.96415 0
M  V30 31501 C 3269.18 7.08259 2.72856 0
M  V30 31502 O 3268.97 5.9427 1.83651 0
M  V30 31503 C 3267.78 7.64886 2.9555 0
M  V30 31504 O 3267.39 8.53963 1.90717 0
M  V30 31505 C 3266.9 6.4116 2.90739 0
M  V30 31506 C 3267.61 5.55375 1.86963 0
M  V30 31507 N 3267.56 4.09664 2.15742 0
M  V30 31508 H 3270.4 7.45574 4.45629 0
M  V30 31509 H 3270.67 5.86232 3.67314 0
M  V30 31510 H 3269.8 7.84412 2.24479 0
M  V30 31511 P 3265.84 8.7635 1.60911 0
M  V30 31512 O 3265.62 10.1388 1.11561 0
M  V30 31513 O 3265.05 8.36503 2.79617 0
M  V30 31514 O 3265.59 7.71806 0.42951 0
M  V30 31515 C 3266.53 7.67148 -0.673689 0
M  V30 31516 C 3265.8 7.33374 -1.95559 0
M  V30 31517 O 3265.59 5.88721 -2.00726 0
M  V30 31518 C 3264.4 7.92526 -2.10483 0
M  V30 31519 O 3264.01 8.02971 -3.47653 0
M  V30 31520 C 3263.52 6.89602 -1.41652 0
M  V30 31521 C 3264.23 5.59201 -1.75185 0
M  V30 31522 N 3264.18 4.58235 -0.662552 0
M  V30 31523 H 3267.02 8.65116 -0.777161 0
M  V30 31524 H 3267.29 6.90173 -0.474152 0
M  V30 31525 H 3266.42 7.66548 -2.79458 0
M  V30 31526 P 3262.46 8.03563 -3.84925 0
M  V30 31527 O 3262.24 8.85821 -5.0569 0
M  V30 31528 O 3261.67 8.41101 -2.65469 0
M  V30 31529 O 3262.21 6.4965 -4.18908 0
M  V30 31530 C 3263.15 5.81037 -5.05421 0
M  V30 31531 C 3262.42 4.78366 -5.89277 0
M  V30 31532 O 3262.21 3.58302 -5.08433 0
M  V30 31533 C 3261.02 5.17448 -6.36119 0
M  V30 31534 O 3260.63 4.45271 -7.53232 0
M  V30 31535 C 3260.14 4.74639 -5.19936 0
M  V30 31536 C 3260.85 3.49432 -4.70418 0
M  V30 31537 N 3260.8 3.31776 -3.22945 0
M  V30 31538 H 3263.64 6.54213 -5.71376 0
M  V30 31539 H 3263.91 5.30492 -4.44033 0
M  V30 31540 H 3263.04 4.55889 -6.76652 0
M  V30 31541 P 3259.08 4.23843 -7.83734 0
M  V30 31542 O 3258.86 4.19407 -9.29784 0
M  V30 31543 O 3258.29 5.24426 -7.09156 0
M  V30 31544 O 3258.83 2.7935 -7.20758 0
M  V30 31545 C 3259.77 1.72945 -7.50224 0
M  V30 31546 C 3259.04 0.406376 -7.57911 0
M  V30 31547 O 3258.83 -0.0897726 -6.21935 0
M  V30 31548 C 3257.64 0.438983 -8.18724 0
M  V30 31549 O 3257.25 -0.825065 -8.71101 0
M  V30 31550 C 3256.76 0.783689 -6.99524 0
M  V30 31551 C 3257.47 0.0619086 -5.85867 0
M  V30 31552 N 3257.42 0.78573 -4.56183 0
M  V30 31553 C 3257.27 0.0292889 -3.41887 0
M  V30 31554 O 3257.18 -1.18445 -3.4419 0
M  V30 31555 N 3257.23 0.744061 -2.23964 0
M  V30 31556 C 3257.32 2.10932 -2.10362 0
M  V30 31557 O 3257.27 2.64117 -0.98825 0
M  V30 31558 C 3257.47 2.8202 -3.34994 0
M  V30 31559 C 3257.58 4.31095 -3.25037 0
M  V30 31560 C 3257.52 2.15547 -4.52261 0
M  V30 31561 H 3260.26 1.93379 -8.46595 0
M  V30 31562 H 3260.53 1.68132 -6.70852 0
M  V30 31563 H 3259.66 -0.289041 -8.15388 0
M  V30 31564 H 3257.01 -0.926847 -5.72749 0
M  V30 31565 H 3256.73 1.86973 -6.82036 0
M  V30 31566 H 3255.74 0.403896 -7.13257 0
M  V30 31567 H 3257.57 1.20585 -8.97435 0
M  V30 31568 H 3257.64 2.71231 -5.45042 0
M  V30 31569 H 3256.61 4.76966 -3.49992 0
M  V30 31570 H 3258.35 4.67047 -3.95024 0
M  V30 31571 H 3257.86 4.58996 -2.22312 0
M  V30 31572 H 3257.13 0.214893 -1.39758 0
M  V30 31573 P 3255.7 -1.17771 -8.83182 0
M  V30 31574 O 3255.48 -2.07206 -9.98732 0
M  V30 31575 O 3254.91 0.0743816 -8.81969 0
M  V30 31576 O 3255.45 -1.97652 -7.47304 0
M  V30 31577 C 3256.39 -3.01133 -7.08783 0
M  V30 31578 C 3255.66 -4.12613 -6.37049 0
M  V30 31579 O 3255.45 -3.72827 -4.97879 0
M  V30 31580 C 3254.26 -4.45085 -6.88694 0
M  V30 31581 O 3253.87 -5.7877 -6.5624 0
M  V30 31582 C 3253.38 -3.47817 -6.12078 0
M  V30 31583 C 3254.09 -3.39414 -4.77697 0
M  V30 31584 N 3254.04 -2.04615 -4.15333 0
M  V30 31585 C 3254.12 -0.803897 -4.75249 0
M  V30 31586 N 3254.04 0.197615 -3.91502 0
M  V30 31587 C 3253.9 -0.413002 -2.66823 0
M  V30 31588 C 3253.77 0.157221 -1.38007 0
M  V30 31589 O 3253.75 1.34419 -1.057 0
M  V30 31590 N 3253.65 -0.833136 -0.390236 0
M  V30 31591 C 3253.65 -2.19402 -0.623885 0
M  V30 31592 N 3253.52 -2.97622 0.449677 0
M  V30 31593 N 3253.78 -2.73005 -1.83601 0
M  V30 31594 C 3253.9 -1.78786 -2.80935 0
M  V30 31595 H 3256.88 -3.41248 -7.98759 0
M  V30 31596 H 3257.15 -2.5837 -6.41742 0
M  V30 31597 H 3256.28 -5.02657 -6.42673 0
M  V30 31598 H 3253.63 -4.11779 -4.09026 0
M  V30 31599 H 3253.35 -2.49661 -6.61772 0
M  V30 31600 H 3252.36 -3.86674 -6.00946 0
M  V30 31601 H 3254.19 -4.30038 -7.97094 0
M  V30 31602 H 3254.24 -0.670579 -5.82754 0
M  V30 31603 H 3253.56 -0.528446 0.557287 0
M  V30 31604 H 3253.52 -4.00117 0.344773 0
M  V30 31605 H 3253.42 -2.55448 1.38544 0
M  V30 31606 P 3252.32 -6.144 -6.45285 0
M  V30 31607 O 3252.1 -7.54673 -6.86199 0
M  V30 31608 O 3251.53 -5.12391 -7.179 0
M  V30 31609 O 3252.07 -5.99158 -4.88404 0
M  V30 31610 C 3253.01 -6.60234 -3.96415 0
M  V30 31611 C 3252.28 -7.08259 -2.72856 0
M  V30 31612 O 3252.07 -5.9427 -1.83651 0
M  V30 31613 C 3250.88 -7.64886 -2.9555 0
M  V30 31614 O 3250.49 -8.53963 -1.90717 0
M  V30 31615 C 3250 -6.4116 -2.90739 0
M  V30 31616 C 3250.71 -5.55375 -1.86963 0
M  V30 31617 N 3250.66 -4.09664 -2.15742 0
M  V30 31618 H 3253.5 -7.45574 -4.45629 0
M  V30 31619 H 3253.77 -5.86232 -3.67314 0
M  V30 31620 H 3252.9 -7.84412 -2.24479 0
M  V30 31621 P 3248.94 -8.7635 -1.60911 0
M  V30 31622 O 3248.72 -10.1388 -1.11561 0
M  V30 31623 O 3248.15 -8.36503 -2.79617 0
M  V30 31624 O 3248.69 -7.71806 -0.42951 0
M  V30 31625 C 3249.63 -7.67148 0.673689 0
M  V30 31626 C 3248.9 -7.33374 1.95559 0
M  V30 31627 O 3248.69 -5.88721 2.00726 0
M  V30 31628 C 3247.5 -7.92526 2.10483 0
M  V30 31629 O 3247.11 -8.02971 3.47653 0
M  V30 31630 C 3246.62 -6.89602 1.41652 0
M  V30 31631 C 3247.33 -5.59201 1.75185 0
M  V30 31632 N 3247.28 -4.58235 0.662552 0
M  V30 31633 H 3250.12 -8.65116 0.777161 0
M  V30 31634 H 3250.39 -6.90173 0.474152 0
M  V30 31635 H 3249.52 -7.66548 2.79458 0
M  V30 31636 P 3245.56 -8.03563 3.84925 0
M  V30 31637 O 3245.34 -8.85821 5.0569 0
M  V30 31638 O 3244.77 -8.41101 2.65469 0
M  V30 31639 O 3245.31 -6.4965 4.18908 0
M  V30 31640 C 3246.25 -5.81037 5.05421 0
M  V30 31641 C 3245.52 -4.78366 5.89277 0
M  V30 31642 O 3245.31 -3.58302 5.08433 0
M  V30 31643 C 3244.12 -5.17448 6.36119 0
M  V30 31644 O 3243.73 -4.45271 7.53232 0
M  V30 31645 C 3243.24 -4.74639 5.19936 0
M  V30 31646 C 3243.95 -3.49432 4.70418 0
M  V30 31647 N 3243.9 -3.32099 3.22613 0
M  V30 31648 H 3246.74 -6.54213 5.71376 0
M  V30 31649 H 3247.01 -5.30936 4.43503 0
M  V30 31650 H 3246.14 -4.55889 6.76652 0
M  V30 31651 H 3243.49 -2.61715 5.17932 0
M  V30 31652 H 3243.21 -5.52155 4.41878 0
M  V30 31653 H 3242.22 -4.51981 5.53374 0
M  V30 31654 H 3244.05 -6.25124 6.55234 0
M  V30 31655 P 3242.18 -4.23843 7.83734 0
M  V30 31656 O 3241.96 -4.19407 9.29784 0
M  V30 31657 O 3241.39 -5.24426 7.09156 0
M  V30 31658 O 3241.93 -2.7935 7.20758 0
M  V30 31659 C 3242.87 -1.72945 7.50224 0
M  V30 31660 C 3242.14 -0.406376 7.57911 0
M  V30 31661 O 3241.93 0.0897726 6.21935 0
M  V30 31662 C 3240.74 -0.438983 8.18724 0
M  V30 31663 O 3240.35 0.825065 8.71101 0
M  V30 31664 C 3239.86 -0.783689 6.99524 0
M  V30 31665 C 3240.57 -0.0619086 5.85867 0
M  V30 31666 N 3240.52 -0.78573 4.56183 0
M  V30 31667 C 3240.37 -0.0292889 3.41887 0
M  V30 31668 O 3240.28 1.18445 3.4419 0
M  V30 31669 N 3240.33 -0.744061 2.23964 0
M  V30 31670 C 3240.42 -2.10932 2.10362 0
M  V30 31671 C 3240.57 -2.8202 3.34994 0
M  V30 31672 C 3240.62 -2.15547 4.52261 0
M  V30 31673 H 3243.36 -1.93379 8.46595 0
M  V30 31674 H 3243.63 -1.68132 6.70852 0
M  V30 31675 H 3242.76 0.289041 8.15388 0
M  V30 31676 H 3240.11 0.926847 5.72749 0
M  V30 31677 H 3239.83 -1.86973 6.82036 0
M  V30 31678 H 3238.84 -0.403896 7.13257 0
M  V30 31679 H 3240.67 -1.20585 8.97435 0
M  V30 31680 H 3240.74 -2.71231 5.45042 0
M  V30 31681 P 3238.8 1.17771 8.83182 0
M  V30 31682 O 3238.58 2.07206 9.98732 0
M  V30 31683 O 3238.01 -0.0743816 8.81969 0
M  V30 31684 O 3238.55 1.97652 7.47304 0
M  V30 31685 C 3239.49 3.01133 7.08783 0
M  V30 31686 C 3238.76 4.12613 6.37049 0
M  V30 31687 O 3238.55 3.72827 4.97879 0
M  V30 31688 C 3237.36 4.45085 6.88694 0
M  V30 31689 O 3236.97 5.7877 6.5624 0
M  V30 31690 C 3236.48 3.47817 6.12078 0
M  V30 31691 C 3237.19 3.39414 4.77697 0
M  V30 31692 N 3237.14 2.04615 4.15333 0
M  V30 31693 H 3239.98 3.41248 7.98759 0
M  V30 31694 H 3240.25 2.5837 6.41742 0
M  V30 31695 H 3239.38 5.02657 6.42673 0
M  V30 31696 P 3235.42 6.144 6.45285 0
M  V30 31697 O 3235.2 7.54673 6.86199 0
M  V30 31698 O 3234.63 5.12391 7.179 0
M  V30 31699 O 3235.17 5.99158 4.88404 0
M  V30 31700 C 3236.11 6.60234 3.96415 0
M  V30 31701 C 3235.38 7.08259 2.72856 0
M  V30 31702 O 3235.17 5.9427 1.83651 0
M  V30 31703 C 3233.98 7.64886 2.9555 0
M  V30 31704 O 3233.59 8.53963 1.90717 0
M  V30 31705 C 3233.1 6.4116 2.90739 0
M  V30 31706 C 3233.81 5.55375 1.86963 0
M  V30 31707 N 3233.76 4.09664 2.15742 0
M  V30 31708 H 3236.6 7.45574 4.45629 0
M  V30 31709 H 3236.87 5.86232 3.67314 0
M  V30 31710 H 3236 7.84412 2.24479 0
M  V30 31711 P 3232.04 8.7635 1.60911 0
M  V30 31712 O 3231.82 10.1388 1.11561 0
M  V30 31713 O 3231.25 8.36503 2.79617 0
M  V30 31714 O 3231.79 7.71806 0.42951 0
M  V30 31715 C 3232.73 7.67148 -0.673689 0
M  V30 31716 C 3232 7.33374 -1.95559 0
M  V30 31717 O 3231.79 5.88721 -2.00726 0
M  V30 31718 C 3230.6 7.92526 -2.10483 0
M  V30 31719 O 3230.21 8.02971 -3.47653 0
M  V30 31720 C 3229.72 6.89602 -1.41652 0
M  V30 31721 C 3230.43 5.59201 -1.75185 0
M  V30 31722 N 3230.38 4.58301 -0.657969 0
M  V30 31723 H 3233.22 8.65116 -0.777161 0
M  V30 31724 H 3233.49 6.9022 -0.46725 0
M  V30 31725 H 3232.62 7.66548 -2.79458 0
M  V30 31726 H 3229.97 5.16165 -2.65183 0
M  V30 31727 H 3229.69 7.06433 -0.329384 0
M  V30 31728 H 3228.7 6.90926 -1.82021 0
M  V30 31729 H 3230.53 8.90873 -1.62657 0
M  V30 31730 P 3228.66 8.03563 -3.84925 0
M  V30 31731 O 3228.44 8.85821 -5.0569 0
M  V30 31732 O 3227.87 8.41101 -2.65469 0
M  V30 31733 O 3228.41 6.4965 -4.18908 0
M  V30 31734 C 3229.35 5.81037 -5.05421 0
M  V30 31735 C 3228.62 4.78366 -5.89277 0
M  V30 31736 O 3228.41 3.58302 -5.08433 0
M  V30 31737 C 3227.22 5.17448 -6.36119 0
M  V30 31738 O 3226.83 4.45271 -7.53232 0
M  V30 31739 C 3226.34 4.74639 -5.19936 0
M  V30 31740 C 3227.05 3.49432 -4.70418 0
M  V30 31741 N 3227 3.31776 -3.22945 0
M  V30 31742 H 3229.84 6.54213 -5.71376 0
M  V30 31743 H 3230.11 5.30492 -4.44033 0
M  V30 31744 H 3229.24 4.55889 -6.76652 0
M  V30 31745 P 3225.28 4.23843 -7.83734 0
M  V30 31746 O 3225.06 4.19407 -9.29784 0
M  V30 31747 O 3224.49 5.24426 -7.09156 0
M  V30 31748 O 3225.03 2.79386 -7.20852 0
M  V30 31749 C 3225.97 1.7299 -7.50419 0
M  V30 31750 C 3225.24 0.41401 -7.5797 0
M  V30 31751 O 3225.03 -0.089787 -6.22035 0
M  V30 31752 C 3223.84 0.447224 -8.1878 0
M  V30 31753 O 3223.45 -0.825159 -8.71201 0
M  V30 31754 C 3222.96 0.783801 -6.99623 0
M  V30 31755 C 3223.67 0.0619192 -5.85967 0
M  V30 31756 N 3223.62 0.7859 -4.56281 0
M  V30 31757 C 3223.47 0.0359258 -3.39981 0
M  V30 31758 O 3223.38 -1.19723 -3.49038 0
M  V30 31759 N 3223.42 0.869151 -2.14025 0
M  V30 31760 C 3223.52 2.01207 -2.14363 0
M  V30 31761 N 3223.47 2.58978 -0.954287 0
M  V30 31762 C 3223.67 2.80817 -3.32215 0
M  V30 31763 C 3223.72 2.13785 -4.50884 0
M  V30 31764 H 3226.46 1.93401 -8.46693 0
M  V30 31765 H 3226.73 1.68181 -6.71046 0
M  V30 31766 H 3225.86 -0.289076 -8.15488 0
M  V30 31767 H 3223.21 -0.927166 -5.72947 0
M  V30 31768 H 3222.93 1.87 -6.82132 0
M  V30 31769 H 3221.94 0.404009 -7.13457 0
M  V30 31770 H 3223.77 1.20599 -8.97534 0
M  V30 31771 H 3223.84 2.70295 -5.43162 0
M  V30 31772 H 3223.74 3.89465 -3.27406 0
M  V30 31773 H 3223.35 2.01616 -0.107046 0
M  V30 31774 H 3223.55 3.61403 -0.873101 0
M  V30 31775 P 3221.9 -1.17771 -8.83182 0
M  V30 31776 O 3221.68 -2.07206 -9.98732 0
M  V30 31777 O 3221.11 0.0743816 -8.81969 0
M  V30 31778 O 3221.65 -1.97652 -7.47304 0
M  V30 31779 C 3222.59 -3.01133 -7.08783 0
M  V30 31780 C 3221.86 -4.12613 -6.37049 0
M  V30 31781 O 3221.65 -3.72827 -4.97879 0
M  V30 31782 C 3220.46 -4.45085 -6.88694 0
M  V30 31783 O 3220.07 -5.7877 -6.5624 0
M  V30 31784 C 3219.58 -3.47817 -6.12078 0
M  V30 31785 C 3220.29 -3.39414 -4.77697 0
M  V30 31786 N 3220.24 -2.04199 -4.15538 0
M  V30 31787 H 3223.08 -3.41248 -7.98759 0
M  V30 31788 H 3223.35 -2.57728 -6.42 0
M  V30 31789 H 3222.48 -5.02657 -6.42673 0
M  V30 31790 H 3219.83 -4.11708 -4.08956 0
M  V30 31791 H 3219.55 -2.49626 -6.61679 0
M  V30 31792 H 3218.56 -3.8662 -6.00862 0
M  V30 31793 H 3220.39 -4.29991 -7.97006 0
M  V30 31794 P 3218.52 -6.144 -6.45285 0
M  V30 31795 O 3218.3 -7.54673 -6.86199 0
M  V30 31796 O 3217.73 -5.12391 -7.179 0
M  V30 31797 O 3218.27 -5.99158 -4.88404 0
M  V30 31798 C 3219.21 -6.60234 -3.96415 0
M  V30 31799 C 3218.48 -7.08259 -2.72856 0
M  V30 31800 O 3218.27 -5.9427 -1.83651 0
M  V30 31801 C 3217.08 -7.64886 -2.9555 0
M  V30 31802 O 3216.69 -8.53963 -1.90717 0
M  V30 31803 C 3216.2 -6.4116 -2.90739 0
M  V30 31804 C 3216.91 -5.55375 -1.86963 0
M  V30 31805 N 3216.86 -4.09664 -2.15742 0
M  V30 31806 H 3219.7 -7.45574 -4.45629 0
M  V30 31807 H 3219.97 -5.86232 -3.67314 0
M  V30 31808 H 3219.1 -7.84412 -2.24479 0
M  V30 31809 P 3215.14 -8.7635 -1.60911 0
M  V30 31810 O 3214.92 -10.1388 -1.11561 0
M  V30 31811 O 3214.35 -8.36503 -2.79617 0
M  V30 31812 O 3214.89 -7.71806 -0.42951 0
M  V30 31813 C 3215.83 -7.67148 0.673689 0
M  V30 31814 C 3215.1 -7.33374 1.95559 0
M  V30 31815 O 3214.89 -5.88721 2.00726 0
M  V30 31816 C 3213.7 -7.92526 2.10483 0
M  V30 31817 O 3213.31 -8.02971 3.47653 0
M  V30 31818 C 3212.82 -6.89602 1.41652 0
M  V30 31819 C 3213.53 -5.59201 1.75185 0
M  V30 31820 N 3213.48 -4.58235 0.662552 0
M  V30 31821 H 3216.32 -8.65116 0.777161 0
M  V30 31822 H 3216.59 -6.90173 0.474152 0
M  V30 31823 H 3215.72 -7.66548 2.79458 0
M  V30 31824 P 3211.76 -8.03563 3.84925 0
M  V30 31825 O 3211.54 -8.85821 5.0569 0
M  V30 31826 O 3210.97 -8.41101 2.65469 0
M  V30 31827 O 3211.51 -6.4965 4.18908 0
M  V30 31828 C 3212.45 -5.81037 5.05421 0
M  V30 31829 C 3211.72 -4.78366 5.89277 0
M  V30 31830 O 3211.51 -3.58302 5.08433 0
M  V30 31831 C 3210.32 -5.17448 6.36119 0
M  V30 31832 O 3209.93 -4.45271 7.53232 0
M  V30 31833 C 3209.44 -4.74639 5.19936 0
M  V30 31834 C 3210.15 -3.49432 4.70418 0
M  V30 31835 N 3210.1 -3.31776 3.22945 0
M  V30 31836 H 3212.94 -6.54213 5.71376 0
M  V30 31837 H 3213.21 -5.30492 4.44033 0
M  V30 31838 H 3212.34 -4.55889 6.76652 0
M  V30 31839 P 3208.38 -4.23843 7.83734 0
M  V30 31840 O 3208.16 -4.19407 9.29784 0
M  V30 31841 O 3207.59 -5.24426 7.09156 0
M  V30 31842 O 3208.13 -2.7935 7.20758 0
M  V30 31843 C 3209.07 -1.7299 7.50419 0
M  V30 31844 C 3208.34 -0.406376 7.57911 0
M  V30 31845 O 3208.13 0.0897726 6.21935 0
M  V30 31846 C 3206.94 -0.447224 8.1878 0
M  V30 31847 O 3206.55 0.825065 8.71101 0
M  V30 31848 C 3206.06 -0.783801 6.99623 0
M  V30 31849 C 3206.77 -0.0619192 5.85967 0
M  V30 31850 N 3206.72 -0.790462 4.56202 0
M  V30 31851 H 3209.56 -1.93423 8.4679 0
M  V30 31852 H 3209.83 -1.68852 6.70877 0
M  V30 31853 H 3208.96 0.289041 8.15388 0
M  V30 31854 H 3206.31 0.927006 5.72848 0
M  V30 31855 H 3206.03 -1.86973 6.82036 0
M  V30 31856 H 3205.04 -0.403953 7.13357 0
M  V30 31857 H 3206.87 -1.20599 8.97534 0
M  V30 31858 P 3205 1.17771 8.83182 0
M  V30 31859 O 3204.78 2.07206 9.98732 0
M  V30 31860 O 3204.21 -0.0743816 8.81969 0
M  V30 31861 O 3204.75 1.97678 7.474 0
M  V30 31862 C 3205.69 3.01133 7.08783 0
M  V30 31863 C 3204.96 4.1203 6.37546 0
M  V30 31864 O 3204.75 3.72887 4.9796 0
M  V30 31865 C 3203.56 4.45085 6.88694 0
M  V30 31866 O 3203.17 5.78836 6.56315 0
M  V30 31867 C 3202.68 3.47817 6.12078 0
M  V30 31868 C 3203.39 3.39414 4.77697 0
M  V30 31869 N 3203.34 2.04615 4.15333 0
M  V30 31870 C 3203.19 1.96929 2.77162 0
M  V30 31871 O 3203.1 3.02017 2.12006 0
M  V30 31872 N 3203.14 0.55485 2.24237 0
M  V30 31873 C 3203.24 -0.367808 2.9169 0
M  V30 31874 N 3203.19 -1.53426 2.29427 0
M  V30 31875 C 3203.39 -0.319148 4.33828 0
M  V30 31876 C 3203.44 0.920672 4.90433 0
M  V30 31877 H 3206.18 3.41209 7.98667 0
M  V30 31878 H 3206.45 2.5837 6.41742 0
M  V30 31879 H 3205.58 5.02718 6.42752 0
M  V30 31880 H 3202.93 4.11779 4.09026 0
M  V30 31881 H 3202.65 2.49661 6.61772 0
M  V30 31882 H 3201.66 3.86674 6.00946 0
M  V30 31883 H 3203.49 4.29991 7.97006 0
M  V30 31884 H 3203.56 1.00589 5.98303 0
M  V30 31885 H 3203.46 -1.22639 4.93799 0
M  V30 31886 H 3203.07 -1.56819 1.27167 0
M  V30 31887 H 3203.27 -2.41062 2.83063 0
M  V30 31888 P 3201.62 6.144 6.45285 0
M  V30 31889 O 3201.4 7.54673 6.86199 0
M  V30 31890 O 3200.83 5.12391 7.179 0
M  V30 31891 O 3201.37 5.99236 4.88467 0
M  V30 31892 C 3202.31 6.60234 3.96415 0
M  V30 31893 C 3201.58 7.08079 2.736 0
M  V30 31894 O 3201.37 5.94365 1.8368 0
M  V30 31895 C 3200.18 7.64886 2.9555 0
M  V30 31896 O 3199.79 8.5406 1.90739 0
M  V30 31897 C 3199.3 6.4116 2.90739 0
M  V30 31898 C 3200.01 5.55375 1.86963 0
M  V30 31899 N 3199.96 4.09664 2.15742 0
M  V30 31900 C 3199.81 3.22231 1.08477 0
M  V30 31901 O 3199.72 3.68951 -0.0600489 0
M  V30 31902 N 3199.76 1.76692 1.48799 0
M  V30 31903 C 3199.86 1.41695 2.57602 0
M  V30 31904 N 3199.81 0.107296 2.75791 0
M  V30 31905 C 3200.01 2.29178 3.69733 0
M  V30 31906 C 3200.06 3.62753 3.42653 0
M  V30 31907 H 3202.8 7.45488 4.45578 0
M  V30 31908 H 3203.07 5.86232 3.67314 0
M  V30 31909 H 3202.2 7.84508 2.24507 0
M  V30 31910 H 3199.55 5.73556 0.888715 0
M  V30 31911 H 3199.27 5.9096 3.88638 0
M  V30 31912 H 3198.28 6.66053 2.58894 0
M  V30 31913 H 3200.11 8.16339 3.92049 0
M  V30 31914 H 3200.18 4.33052 4.24913 0
M  V30 31915 H 3200.08 1.9103 4.71577 0
M  V30 31916 H 3199.69 -0.521221 1.95056 0
M  V30 31917 H 3199.89 -0.286429 3.70695 0
M  V30 31918 P 3198.24 8.7635 1.60911 0
M  V30 31919 O 3198.02 10.1388 1.11561 0
M  V30 31920 O 3197.45 8.36503 2.79617 0
M  V30 31921 O 3197.99 7.71806 0.42951 0
M  V30 31922 C 3198.93 7.67148 -0.673689 0
M  V30 31923 C 3198.2 7.33374 -1.95559 0
M  V30 31924 O 3197.99 5.88721 -2.00726 0
M  V30 31925 C 3196.8 7.92526 -2.10483 0
M  V30 31926 O 3196.41 8.02971 -3.47653 0
M  V30 31927 C 3195.92 6.89602 -1.41652 0
M  V30 31928 C 3196.63 5.59201 -1.75185 0
M  V30 31929 N 3196.58 4.58235 -0.662552 0
M  V30 31930 C 3196.66 4.7683 0.704049 0
M  V30 31931 N 3196.58 3.66233 1.39775 0
M  V30 31932 C 3196.44 2.66526 0.431739 0
M  V30 31933 C 3196.31 1.26394 0.575992 0
M  V30 31934 N 3196.19 0.62859 -0.67177 0
M  V30 31935 C 3196.19 1.27134 -1.89385 0
M  V30 31936 N 3196.06 0.492035 -2.96951 0
M  V30 31937 N 3196.32 2.58978 -2.02907 0
M  V30 31938 C 3196.44 3.22433 -0.832218 0
M  V30 31939 H 3199.42 8.65116 -0.777161 0
M  V30 31940 H 3199.69 6.90173 -0.474152 0
M  V30 31941 H 3198.82 7.66548 -2.79458 0
M  V30 31942 P 3194.86 8.03563 -3.84925 0
M  V30 31943 O 3194.64 8.85821 -5.0569 0
M  V30 31944 O 3194.07 8.41101 -2.65469 0
M  V30 31945 O 3194.61 6.4965 -4.18908 0
M  V30 31946 C 3195.55 5.81037 -5.05421 0
M  V30 31947 C 3194.82 4.78366 -5.89277 0
M  V30 31948 O 3194.61 3.58302 -5.08433 0
M  V30 31949 C 3193.42 5.17448 -6.36119 0
M  V30 31950 O 3193.03 4.45271 -7.53232 0
M  V30 31951 C 3192.54 4.74639 -5.19936 0
M  V30 31952 C 3193.25 3.49432 -4.70418 0
M  V30 31953 N 3193.2 3.31776 -3.22945 0
M  V30 31954 H 3196.04 6.54213 -5.71376 0
M  V30 31955 H 3196.31 5.30492 -4.44033 0
M  V30 31956 H 3195.44 4.55889 -6.76652 0
M  V30 31957 P 3191.48 4.23843 -7.83734 0
M  V30 31958 O 3191.26 4.19407 -9.29784 0
M  V30 31959 O 3190.69 5.24426 -7.09156 0
M  V30 31960 O 3191.23 2.7935 -7.20758 0
M  V30 31961 C 3192.17 1.7299 -7.50419 0
M  V30 31962 C 3191.44 0.406376 -7.57911 0
M  V30 31963 O 3191.23 -0.0897726 -6.21935 0
M  V30 31964 C 3190.04 0.447224 -8.1878 0
M  V30 31965 O 3189.65 -0.825065 -8.71101 0
M  V30 31966 C 3189.16 0.783801 -6.99623 0
M  V30 31967 C 3189.87 0.0619192 -5.85967 0
M  V30 31968 N 3189.82 0.7859 -4.56281 0
M  V30 31969 H 3192.66 1.93423 -8.4679 0
M  V30 31970 H 3192.93 1.68181 -6.71046 0
M  V30 31971 H 3192.06 -0.289041 -8.15388 0
M  V30 31972 P 3188.1 -1.17771 -8.83182 0
M  V30 31973 O 3187.88 -2.07206 -9.98732 0
M  V30 31974 O 3187.31 0.0743816 -8.81969 0
M  V30 31975 O 3187.85 -1.97678 -7.474 0
M  V30 31976 C 3188.79 -3.01133 -7.08783 0
M  V30 31977 C 3188.06 -4.1203 -6.37546 0
M  V30 31978 O 3187.85 -3.72887 -4.9796 0
M  V30 31979 C 3186.66 -4.45085 -6.88694 0
M  V30 31980 O 3186.27 -5.78836 -6.56315 0
M  V30 31981 C 3185.78 -3.47817 -6.12078 0
M  V30 31982 C 3186.49 -3.39414 -4.77697 0
M  V30 31983 N 3186.44 -2.04615 -4.15333 0
M  V30 31984 C 3186.29 -1.96929 -2.77162 0
M  V30 31985 O 3186.2 -3.02017 -2.12006 0
M  V30 31986 N 3186.24 -0.55485 -2.24237 0
M  V30 31987 C 3186.34 0.367808 -2.9169 0
M  V30 31988 N 3186.29 1.53426 -2.29427 0
M  V30 31989 C 3186.49 0.319148 -4.33828 0
M  V30 31990 C 3186.54 -0.920672 -4.90433 0
M  V30 31991 H 3189.28 -3.41209 -7.98667 0
M  V30 31992 H 3189.55 -2.5837 -6.41742 0
M  V30 31993 H 3188.68 -5.02718 -6.42752 0
M  V30 31994 H 3186.03 -4.11779 -4.09026 0
M  V30 31995 H 3185.75 -2.49661 -6.61772 0
M  V30 31996 H 3184.76 -3.86674 -6.00946 0
M  V30 31997 H 3186.59 -4.29991 -7.97006 0
M  V30 31998 H 3186.66 -1.00589 -5.98303 0
M  V30 31999 H 3186.56 1.22639 -4.93799 0
M  V30 32000 H 3186.17 1.56819 -1.27167 0
M  V30 32001 H 3186.37 2.41062 -2.83063 0
M  V30 32002 P 3184.72 -6.144 -6.45285 0
M  V30 32003 O 3184.5 -7.54673 -6.86199 0
M  V30 32004 O 3183.93 -5.12391 -7.179 0
M  V30 32005 O 3184.47 -5.99158 -4.88404 0
M  V30 32006 C 3185.41 -6.60234 -3.96415 0
M  V30 32007 C 3184.68 -7.08259 -2.72856 0
M  V30 32008 O 3184.47 -5.9427 -1.83651 0
M  V30 32009 C 3183.28 -7.64886 -2.9555 0
M  V30 32010 O 3182.89 -8.53963 -1.90717 0
M  V30 32011 C 3182.4 -6.4116 -2.90739 0
M  V30 32012 C 3183.11 -5.55375 -1.86963 0
M  V30 32013 N 3183.06 -4.09664 -2.15742 0
M  V30 32014 H 3185.9 -7.45574 -4.45629 0
M  V30 32015 H 3186.17 -5.86232 -3.67314 0
M  V30 32016 H 3185.3 -7.84412 -2.24479 0
M  V30 32017 P 3181.34 -8.7635 -1.60911 0
M  V30 32018 O 3181.12 -10.1388 -1.11561 0
M  V30 32019 O 3180.55 -8.36503 -2.79617 0
M  V30 32020 O 3181.09 -7.71806 -0.42951 0
M  V30 32021 C 3182.03 -7.67148 0.673689 0
M  V30 32022 C 3181.3 -7.33374 1.95559 0
M  V30 32023 O 3181.09 -5.88721 2.00726 0
M  V30 32024 C 3179.9 -7.92526 2.10483 0
M  V30 32025 O 3179.51 -8.02971 3.47653 0
M  V30 32026 C 3179.02 -6.89602 1.41652 0
M  V30 32027 C 3179.73 -5.59201 1.75185 0
M  V30 32028 N 3179.68 -4.58235 0.662552 0
M  V30 32029 C 3179.76 -4.7683 -0.704049 0
M  V30 32030 N 3179.68 -3.66233 -1.39775 0
M  V30 32031 C 3179.54 -2.66526 -0.431739 0
M  V30 32032 C 3179.41 -1.26394 -0.575992 0
M  V30 32033 N 3179.29 -0.62859 0.67177 0
M  V30 32034 C 3179.29 -1.27134 1.89385 0
M  V30 32035 N 3179.16 -0.492035 2.96951 0
M  V30 32036 N 3179.42 -2.58978 2.02907 0
M  V30 32037 C 3179.54 -3.22433 0.832218 0
M  V30 32038 H 3182.52 -8.65116 0.777161 0
M  V30 32039 H 3182.79 -6.90173 0.474152 0
M  V30 32040 H 3181.92 -7.66548 2.79458 0
M  V30 32041 P 3177.96 -8.03563 3.84925 0
M  V30 32042 O 3177.74 -8.85821 5.0569 0
M  V30 32043 O 3177.17 -8.41101 2.65469 0
M  V30 32044 O 3177.71 -6.4965 4.18908 0
M  V30 32045 C 3178.65 -5.81037 5.05421 0
M  V30 32046 C 3177.92 -4.78366 5.89277 0
M  V30 32047 O 3177.71 -3.58302 5.08433 0
M  V30 32048 C 3176.52 -5.17448 6.36119 0
M  V30 32049 O 3176.13 -4.45271 7.53232 0
M  V30 32050 C 3175.64 -4.74639 5.19936 0
M  V30 32051 C 3176.35 -3.49432 4.70418 0
M  V30 32052 N 3176.3 -3.32099 3.22613 0
M  V30 32053 H 3179.14 -6.54213 5.71376 0
M  V30 32054 H 3179.41 -5.30936 4.43503 0
M  V30 32055 H 3178.54 -4.55889 6.76652 0
M  V30 32056 H 3175.89 -2.61715 5.17932 0
M  V30 32057 H 3175.61 -5.52155 4.41878 0
M  V30 32058 H 3174.62 -4.51981 5.53374 0
M  V30 32059 H 3176.45 -6.25124 6.55234 0
M  V30 32060 P 3174.58 -4.23843 7.83734 0
M  V30 32061 O 3174.36 -4.19407 9.29784 0
M  V30 32062 O 3173.79 -5.24426 7.09156 0
M  V30 32063 O 3174.33 -2.7935 7.20758 0
M  V30 32064 C 3175.27 -1.7299 7.50419 0
M  V30 32065 C 3174.54 -0.406376 7.57911 0
M  V30 32066 O 3174.33 0.0897726 6.21935 0
M  V30 32067 C 3173.14 -0.447224 8.1878 0
M  V30 32068 O 3172.75 0.825065 8.71101 0
M  V30 32069 C 3172.26 -0.783801 6.99623 0
M  V30 32070 C 3172.97 -0.0619192 5.85967 0
M  V30 32071 N 3172.92 -0.790462 4.56202 0
M  V30 32072 H 3175.76 -1.93423 8.4679 0
M  V30 32073 H 3176.03 -1.68852 6.70877 0
M  V30 32074 H 3175.16 0.289041 8.15388 0
M  V30 32075 H 3172.51 0.927006 5.72848 0
M  V30 32076 H 3172.23 -1.86973 6.82036 0
M  V30 32077 H 3171.24 -0.403953 7.13357 0
M  V30 32078 H 3173.07 -1.20599 8.97534 0
M  V30 32079 P 3171.2 1.17771 8.83182 0
M  V30 32080 O 3170.98 2.07206 9.98732 0
M  V30 32081 O 3170.41 -0.0743816 8.81969 0
M  V30 32082 O 3170.95 1.97652 7.47304 0
M  V30 32083 C 3171.89 3.01133 7.08783 0
M  V30 32084 C 3171.16 4.12613 6.37049 0
M  V30 32085 O 3170.95 3.72827 4.97879 0
M  V30 32086 C 3169.76 4.45085 6.88694 0
M  V30 32087 O 3169.37 5.7877 6.5624 0
M  V30 32088 C 3168.88 3.47817 6.12078 0
M  V30 32089 C 3169.59 3.39414 4.77697 0
M  V30 32090 N 3169.54 2.04199 4.15538 0
M  V30 32091 H 3172.38 3.41248 7.98759 0
M  V30 32092 H 3172.65 2.57728 6.42 0
M  V30 32093 H 3171.78 5.02657 6.42673 0
M  V30 32094 H 3169.13 4.11708 4.08956 0
M  V30 32095 H 3168.85 2.49626 6.61679 0
M  V30 32096 H 3167.86 3.8662 6.00862 0
M  V30 32097 H 3169.69 4.29991 7.97006 0
M  V30 32098 P 3167.82 6.144 6.45285 0
M  V30 32099 O 3167.6 7.54673 6.86199 0
M  V30 32100 O 3167.03 5.12391 7.179 0
M  V30 32101 O 3167.57 5.99158 4.88404 0
M  V30 32102 C 3168.51 6.60062 3.96313 0
M  V30 32103 C 3167.78 7.08259 2.72856 0
M  V30 32104 O 3167.57 5.9427 1.83651 0
M  V30 32105 C 3166.38 7.65087 2.94749 0
M  V30 32106 O 3165.99 8.53963 1.90717 0
M  V30 32107 C 3165.5 6.41069 2.90698 0
M  V30 32108 C 3166.21 5.5528 1.86931 0
M  V30 32109 N 3166.16 4.09575 2.15696 0
M  V30 32110 C 3166.01 3.24249 1.08435 0
M  V30 32111 O 3165.92 3.63946 -0.0628747 0
M  V30 32112 N 3165.97 1.90009 1.39973 0
M  V30 32113 C 3166.06 1.34884 2.65614 0
M  V30 32114 O 3166.01 0.123716 2.81728 0
M  V30 32115 C 3166.21 2.3145 3.71736 0
M  V30 32116 C 3166.32 1.75913 5.10438 0
M  V30 32117 C 3166.26 3.63518 3.44754 0
M  V30 32118 H 3169 7.45402 4.45526 0
M  V30 32119 H 3169.27 5.86062 3.67208 0
M  V30 32120 H 3168.4 7.84412 2.24479 0
M  V30 32121 H 3165.75 5.73358 0.888409 0
M  V30 32122 H 3165.47 5.90877 3.88583 0
M  V30 32123 H 3164.48 6.65867 2.58821 0
M  V30 32124 H 3166.31 8.16248 3.92006 0
M  V30 32125 H 3166.38 4.34551 4.26383 0
M  V30 32126 H 3165.35 1.85471 5.61775 0
M  V30 32127 H 3167.09 2.31364 5.66257 0
M  V30 32128 H 3166.6 0.695936 5.05229 0
M  V30 32129 H 3165.87 1.26277 0.63625 0
M  V30 32130 P 3164.44 8.7635 1.60911 0
M  V30 32131 O 3164.22 10.1388 1.11561 0
M  V30 32132 O 3163.65 8.36503 2.79617 0
M  V30 32133 O 3164.19 7.71806 0.42951 0
M  V30 32134 C 3165.13 7.67148 -0.673689 0
M  V30 32135 C 3164.4 7.33374 -1.95559 0
M  V30 32136 O 3164.19 5.88721 -2.00726 0
M  V30 32137 C 3163 7.92526 -2.10483 0
M  V30 32138 O 3162.61 8.02971 -3.47653 0
M  V30 32139 C 3162.12 6.89602 -1.41652 0
M  V30 32140 C 3162.83 5.59201 -1.75185 0
M  V30 32141 N 3162.78 4.58235 -0.662552 0
M  V30 32142 H 3165.62 8.65116 -0.777161 0
M  V30 32143 H 3165.89 6.90173 -0.474152 0
M  V30 32144 H 3165.02 7.66548 -2.79458 0
M  V30 32145 P 3161.06 8.03563 -3.84925 0
M  V30 32146 O 3160.84 8.85821 -5.0569 0
M  V30 32147 O 3160.27 8.41101 -2.65469 0
M  V30 32148 O 3160.81 6.4965 -4.18908 0
M  V30 32149 C 3161.75 5.81037 -5.05421 0
M  V30 32150 C 3161.02 4.78366 -5.89277 0
M  V30 32151 O 3160.81 3.58302 -5.08433 0
M  V30 32152 C 3159.62 5.17448 -6.36119 0
M  V30 32153 O 3159.23 4.45271 -7.53232 0
M  V30 32154 C 3158.74 4.74639 -5.19936 0
M  V30 32155 C 3159.45 3.49432 -4.70418 0
M  V30 32156 N 3159.4 3.31776 -3.22945 0
M  V30 32157 H 3162.24 6.54213 -5.71376 0
M  V30 32158 H 3162.51 5.30492 -4.44033 0
M  V30 32159 H 3161.64 4.55889 -6.76652 0
M  V30 32160 P 3157.68 4.23843 -7.83734 0
M  V30 32161 O 3157.46 4.19407 -9.29784 0
M  V30 32162 O 3156.89 5.24426 -7.09156 0
M  V30 32163 O 3157.43 2.7935 -7.20758 0
M  V30 32164 C 3158.37 1.7299 -7.50419 0
M  V30 32165 C 3157.64 0.406376 -7.57911 0
M  V30 32166 O 3157.43 -0.0897726 -6.21935 0
M  V30 32167 C 3156.24 0.447224 -8.1878 0
M  V30 32168 O 3155.85 -0.825065 -8.71101 0
M  V30 32169 C 3155.36 0.783801 -6.99623 0
M  V30 32170 C 3156.07 0.0619192 -5.85967 0
M  V30 32171 N 3156.02 0.7859 -4.56281 0
M  V30 32172 H 3158.86 1.93423 -8.4679 0
M  V30 32173 H 3159.13 1.68181 -6.71046 0
M  V30 32174 H 3158.26 -0.289041 -8.15388 0
M  V30 32175 P 3154.3 -1.17771 -8.83182 0
M  V30 32176 O 3154.08 -2.07206 -9.98732 0
M  V30 32177 O 3153.51 0.0743816 -8.81969 0
M  V30 32178 O 3154.05 -1.97652 -7.47304 0
M  V30 32179 C 3154.99 -3.01133 -7.08783 0
M  V30 32180 C 3154.26 -4.12613 -6.37049 0
M  V30 32181 O 3154.05 -3.72827 -4.97879 0
M  V30 32182 C 3152.86 -4.45085 -6.88694 0
M  V30 32183 O 3152.47 -5.7877 -6.5624 0
M  V30 32184 C 3151.98 -3.47817 -6.12078 0
M  V30 32185 C 3152.69 -3.39414 -4.77697 0
M  V30 32186 N 3152.64 -2.04615 -4.15333 0
M  V30 32187 H 3155.48 -3.41248 -7.98759 0
M  V30 32188 H 3155.75 -2.5837 -6.41742 0
M  V30 32189 H 3154.88 -5.02657 -6.42673 0
M  V30 32190 P 3150.92 -6.144 -6.45285 0
M  V30 32191 O 3150.7 -7.54673 -6.86199 0
M  V30 32192 O 3150.13 -5.12391 -7.179 0
M  V30 32193 O 3150.67 -5.99158 -4.88404 0
M  V30 32194 C 3151.61 -6.60234 -3.96415 0
M  V30 32195 C 3150.88 -7.08259 -2.72856 0
M  V30 32196 O 3150.67 -5.9427 -1.83651 0
M  V30 32197 C 3149.48 -7.64886 -2.9555 0
M  V30 32198 O 3149.09 -8.53963 -1.90717 0
M  V30 32199 C 3148.6 -6.4116 -2.90739 0
M  V30 32200 C 3149.31 -5.55375 -1.86963 0
M  V30 32201 N 3149.26 -4.09448 -2.16152 0
M  V30 32202 H 3152.1 -7.45574 -4.45629 0
M  V30 32203 H 3152.37 -5.85864 -3.679 0
M  V30 32204 H 3151.5 -7.84412 -2.24479 0
M  V30 32205 H 3148.85 -5.73457 -0.888562 0
M  V30 32206 H 3148.57 -5.90877 -3.88583 0
M  V30 32207 H 3147.58 -6.6596 -2.58858 0
M  V30 32208 H 3149.41 -8.16339 -3.92049 0
M  V30 32209 P 3147.54 -8.7635 -1.60911 0
M  V30 32210 O 3147.32 -10.1388 -1.11561 0
M  V30 32211 O 3146.75 -8.36503 -2.79617 0
M  V30 32212 O 3147.29 -7.71806 -0.42951 0
M  V30 32213 C 3148.23 -7.67148 0.673689 0
M  V30 32214 C 3147.5 -7.33374 1.95559 0
M  V30 32215 O 3147.29 -5.88721 2.00726 0
M  V30 32216 C 3146.1 -7.92526 2.10483 0
M  V30 32217 O 3145.71 -8.02971 3.47653 0
M  V30 32218 C 3145.22 -6.89602 1.41652 0
M  V30 32219 C 3145.93 -5.59201 1.75185 0
M  V30 32220 N 3145.88 -4.58301 0.657969 0
M  V30 32221 C 3145.96 -4.79019 -0.692603 0
M  V30 32222 N 3145.89 -3.69736 -1.38998 0
M  V30 32223 C 3145.74 -2.70474 -0.438135 0
M  V30 32224 C 3145.61 -1.30327 -0.538142 0
M  V30 32225 N 3145.6 -0.64304 -1.69192 0
M  V30 32226 N 3145.49 -0.611027 0.605183 0
M  V30 32227 C 3145.5 -1.27002 1.75953 0
M  V30 32228 N 3145.62 -2.56038 1.98546 0
M  V30 32229 C 3145.74 -3.22681 0.822541 0
M  V30 32230 H 3148.72 -8.65116 0.777161 0
M  V30 32231 H 3148.99 -6.9022 0.46725 0
M  V30 32232 H 3148.12 -7.66548 2.79458 0
M  V30 32233 H 3145.47 -5.16165 2.65183 0
M  V30 32234 H 3145.19 -7.06433 0.329384 0
M  V30 32235 H 3144.2 -6.90926 1.82021 0
M  V30 32236 H 3146.03 -8.90873 1.62657 0
M  V30 32237 H 3146.07 -5.77785 -1.13874 0
M  V30 32238 H 3145.69 -1.15585 -2.57991 0
M  V30 32239 H 3145.5 0.382989 -1.69835 0
M  V30 32240 H 3145.4 -0.653331 2.64449 0
M  V30 32241 P 3144.16 -8.03563 3.84925 0
M  V30 32242 O 3143.94 -8.85821 5.0569 0
M  V30 32243 O 3143.37 -8.41101 2.65469 0
M  V30 32244 O 3143.91 -6.4965 4.18908 0
M  V30 32245 C 3144.85 -5.81037 5.05421 0
M  V30 32246 C 3144.12 -4.78366 5.89277 0
M  V30 32247 O 3143.91 -3.58302 5.08433 0
M  V30 32248 C 3142.72 -5.17448 6.36119 0
M  V30 32249 O 3142.33 -4.45271 7.53232 0
M  V30 32250 C 3141.84 -4.74639 5.19936 0
M  V30 32251 C 3142.55 -3.49432 4.70418 0
M  V30 32252 N 3142.5 -3.31776 3.22945 0
M  V30 32253 H 3145.34 -6.54213 5.71376 0
M  V30 32254 H 3145.61 -5.30492 4.44033 0
M  V30 32255 H 3144.74 -4.55889 6.76652 0
M  V30 32256 P 3140.78 -4.23843 7.83734 0
M  V30 32257 O 3140.56 -4.19407 9.29784 0
M  V30 32258 O 3139.99 -5.24426 7.09156 0
M  V30 32259 O 3140.53 -2.7935 7.20758 0
M  V30 32260 C 3141.47 -1.7299 7.50419 0
M  V30 32261 C 3140.74 -0.406376 7.57911 0
M  V30 32262 O 3140.53 0.0897726 6.21935 0
M  V30 32263 C 3139.34 -0.447224 8.1878 0
M  V30 32264 O 3138.95 0.825065 8.71101 0
M  V30 32265 C 3138.46 -0.783801 6.99623 0
M  V30 32266 C 3139.17 -0.0619192 5.85967 0
M  V30 32267 N 3139.12 -0.790462 4.56202 0
M  V30 32268 C 3139.2 -2.13895 4.34171 0
M  V30 32269 N 3139.13 -2.46449 3.08687 0
M  V30 32270 C 3138.98 -1.2525 2.43697 0
M  V30 32271 C 3138.85 -0.914535 1.07318 0
M  V30 32272 N 3138.84 -1.80782 0.0887348 0
M  V30 32273 N 3138.73 0.386745 0.768133 0
M  V30 32274 C 3138.74 1.28096 1.75159 0
M  V30 32275 N 3138.86 1.09708 3.04861 0
M  V30 32276 C 3138.98 -0.214857 3.32306 0
M  V30 32277 H 3141.96 -1.93423 8.4679 0
M  V30 32278 H 3142.23 -1.68852 6.70877 0
M  V30 32279 H 3141.36 0.289041 8.15388 0
M  V30 32280 H 3138.71 0.927006 5.72848 0
M  V30 32281 H 3138.43 -1.86973 6.82036 0
M  V30 32282 H 3137.44 -0.403953 7.13357 0
M  V30 32283 H 3139.27 -1.20599 8.97534 0
M  V30 32284 H 3139.31 -2.86846 5.14318 0
M  V30 32285 H 3138.93 -2.81082 0.302037 0
M  V30 32286 H 3138.74 -1.49688 -0.889064 0
M  V30 32287 H 3138.64 2.31317 1.43855 0
M  V30 32288 P 3137.4 1.17771 8.83182 0
M  V30 32289 O 3137.18 2.07206 9.98732 0
M  V30 32290 O 3136.61 -0.0743816 8.81969 0
M  V30 32291 O 3137.15 1.97652 7.47304 0
M  V30 32292 C 3138.09 3.01133 7.08783 0
M  V30 32293 C 3137.36 4.12613 6.37049 0
M  V30 32294 O 3137.15 3.72827 4.97879 0
M  V30 32295 C 3135.96 4.45085 6.88694 0
M  V30 32296 O 3135.57 5.7877 6.5624 0
M  V30 32297 C 3135.08 3.47817 6.12078 0
M  V30 32298 C 3135.79 3.39414 4.77697 0
M  V30 32299 N 3135.74 2.04199 4.15538 0
M  V30 32300 H 3138.58 3.41248 7.98759 0
M  V30 32301 H 3138.85 2.57728 6.42 0
M  V30 32302 H 3137.98 5.02657 6.42673 0
M  V30 32303 H 3135.33 4.11708 4.08956 0
M  V30 32304 H 3135.05 2.49626 6.61679 0
M  V30 32305 H 3134.06 3.8662 6.00862 0
M  V30 32306 H 3135.89 4.29991 7.97006 0
M  V30 32307 P 3134.02 6.144 6.45285 0
M  V30 32308 O 3133.8 7.54673 6.86199 0
M  V30 32309 O 3133.23 5.12391 7.179 0
M  V30 32310 O 3133.77 5.99158 4.88404 0
M  V30 32311 C 3134.71 6.60234 3.96415 0
M  V30 32312 C 3133.98 7.08259 2.72856 0
M  V30 32313 O 3133.77 5.9427 1.83651 0
M  V30 32314 C 3132.58 7.64886 2.9555 0
M  V30 32315 O 3132.19 8.53963 1.90717 0
M  V30 32316 C 3131.7 6.4116 2.90739 0
M  V30 32317 C 3132.41 5.55375 1.86963 0
M  V30 32318 N 3132.36 4.09664 2.15742 0
M  V30 32319 H 3135.2 7.45574 4.45629 0
M  V30 32320 H 3135.47 5.86232 3.67314 0
M  V30 32321 H 3134.6 7.84412 2.24479 0
M  V30 32322 P 3130.64 8.7635 1.60911 0
M  V30 32323 O 3130.42 10.1388 1.11561 0
M  V30 32324 O 3129.85 8.36503 2.79617 0
M  V30 32325 O 3130.39 7.71806 0.42951 0
M  V30 32326 C 3131.33 7.67148 -0.673689 0
M  V30 32327 C 3130.6 7.33374 -1.95559 0
M  V30 32328 O 3130.39 5.88721 -2.00726 0
M  V30 32329 C 3129.2 7.92526 -2.10483 0
M  V30 32330 O 3128.81 8.02971 -3.47653 0
M  V30 32331 C 3128.32 6.89602 -1.41652 0
M  V30 32332 C 3129.03 5.59201 -1.75185 0
M  V30 32333 N 3128.98 4.58235 -0.662552 0
M  V30 32334 C 3129.06 4.7683 0.704049 0
M  V30 32335 N 3128.98 3.66233 1.39775 0
M  V30 32336 C 3128.84 2.66526 0.431739 0
M  V30 32337 C 3128.71 1.26394 0.575992 0
M  V30 32338 O 3128.69 0.589894 1.60503 0
M  V30 32339 N 3128.59 0.62859 -0.67177 0
M  V30 32340 C 3128.59 1.27134 -1.89385 0
M  V30 32341 N 3128.46 0.492035 -2.96951 0
M  V30 32342 N 3128.72 2.58978 -2.02907 0
M  V30 32343 C 3128.84 3.22433 -0.832218 0
M  V30 32344 H 3131.82 8.65116 -0.777161 0
M  V30 32345 H 3132.09 6.90173 -0.474152 0
M  V30 32346 H 3131.22 7.66548 -2.79458 0
M  V30 32347 H 3128.57 5.16254 -2.65229 0
M  V30 32348 H 3128.29 7.06532 -0.329431 0
M  V30 32349 H 3127.3 6.91023 -1.82047 0
M  V30 32350 H 3129.13 8.90971 -1.62675 0
M  V30 32351 H 3129.18 5.74954 1.16305 0
M  V30 32352 H 3128.5 -0.366713 -0.674793 0
M  V30 32353 H 3128.46 0.908532 -3.91188 0
M  V30 32354 H 3128.36 -0.528253 -2.85758 0
M  V30 32355 P 3127.26 8.03563 -3.84925 0
M  V30 32356 O 3127.04 8.85821 -5.0569 0
M  V30 32357 O 3126.47 8.41101 -2.65469 0
M  V30 32358 O 3127.01 6.4965 -4.18908 0
M  V30 32359 C 3127.95 5.81037 -5.05421 0
M  V30 32360 C 3127.22 4.78366 -5.89277 0
M  V30 32361 O 3127.01 3.58302 -5.08433 0
M  V30 32362 C 3125.82 5.17448 -6.36119 0
M  V30 32363 O 3125.43 4.45271 -7.53232 0
M  V30 32364 C 3124.94 4.74639 -5.19936 0
M  V30 32365 C 3125.65 3.49432 -4.70418 0
M  V30 32366 N 3125.6 3.31776 -3.22945 0
M  V30 32367 H 3128.44 6.54213 -5.71376 0
M  V30 32368 H 3128.71 5.30492 -4.44033 0
M  V30 32369 H 3127.84 4.55889 -6.76652 0
M  V30 32370 P 3123.88 4.23843 -7.83734 0
M  V30 32371 O 3123.66 4.19407 -9.29784 0
M  V30 32372 O 3123.09 5.24426 -7.09156 0
M  V30 32373 O 3123.63 2.7935 -7.20758 0
M  V30 32374 C 3124.57 1.7299 -7.50419 0
M  V30 32375 C 3123.84 0.406376 -7.57911 0
M  V30 32376 O 3123.63 -0.0897726 -6.21935 0
M  V30 32377 C 3122.44 0.447224 -8.1878 0
M  V30 32378 O 3122.05 -0.825065 -8.71101 0
M  V30 32379 C 3121.56 0.783801 -6.99623 0
M  V30 32380 C 3122.27 0.0619192 -5.85967 0
M  V30 32381 N 3122.22 0.7859 -4.56281 0
M  V30 32382 H 3125.06 1.93423 -8.4679 0
M  V30 32383 H 3125.33 1.68181 -6.71046 0
M  V30 32384 H 3124.46 -0.289041 -8.15388 0
M  V30 32385 P 3120.5 -1.17771 -8.83182 0
M  V30 32386 O 3120.28 -2.07206 -9.98732 0
M  V30 32387 O 3119.71 0.0743816 -8.81969 0
M  V30 32388 O 3120.25 -1.97652 -7.47304 0
M  V30 32389 C 3121.19 -3.01133 -7.08783 0
M  V30 32390 C 3120.46 -4.12613 -6.37049 0
M  V30 32391 O 3120.25 -3.72827 -4.97879 0
M  V30 32392 C 3119.06 -4.45085 -6.88694 0
M  V30 32393 O 3118.67 -5.7877 -6.5624 0
M  V30 32394 C 3118.18 -3.47817 -6.12078 0
M  V30 32395 C 3118.89 -3.39414 -4.77697 0
M  V30 32396 N 3118.84 -2.04199 -4.15538 0
M  V30 32397 H 3121.68 -3.41248 -7.98759 0
M  V30 32398 H 3121.95 -2.57728 -6.42 0
M  V30 32399 H 3121.08 -5.02657 -6.42673 0
M  V30 32400 H 3118.43 -4.11708 -4.08956 0
M  V30 32401 H 3118.15 -2.49626 -6.61679 0
M  V30 32402 H 3117.16 -3.8662 -6.00862 0
M  V30 32403 H 3118.99 -4.29991 -7.97006 0
M  V30 32404 P 3117.12 -6.144 -6.45285 0
M  V30 32405 O 3116.9 -7.54673 -6.86199 0
M  V30 32406 O 3116.33 -5.12391 -7.179 0
M  V30 32407 O 3116.87 -5.99158 -4.88404 0
M  V30 32408 C 3117.81 -6.60234 -3.96415 0
M  V30 32409 C 3117.08 -7.08259 -2.72856 0
M  V30 32410 O 3116.87 -5.9427 -1.83651 0
M  V30 32411 C 3115.68 -7.64886 -2.9555 0
M  V30 32412 O 3115.29 -8.53963 -1.90717 0
M  V30 32413 C 3114.8 -6.4116 -2.90739 0
M  V30 32414 C 3115.51 -5.55375 -1.86963 0
M  V30 32415 N 3115.46 -4.09664 -2.15742 0
M  V30 32416 H 3118.3 -7.45574 -4.45629 0
M  V30 32417 H 3118.57 -5.86232 -3.67314 0
M  V30 32418 H 3117.7 -7.84412 -2.24479 0
M  V30 32419 P 3113.74 -8.7635 -1.60911 0
M  V30 32420 O 3113.52 -10.1388 -1.11561 0
M  V30 32421 O 3112.95 -8.36503 -2.79617 0
M  V30 32422 O 3113.49 -7.71806 -0.42951 0
M  V30 32423 C 3114.43 -7.67148 0.673689 0
M  V30 32424 C 3113.7 -7.33374 1.95559 0
M  V30 32425 O 3113.49 -5.88721 2.00726 0
M  V30 32426 C 3112.3 -7.92526 2.10483 0
M  V30 32427 O 3111.91 -8.02971 3.47653 0
M  V30 32428 C 3111.42 -6.89602 1.41652 0
M  V30 32429 C 3112.13 -5.59201 1.75185 0
M  V30 32430 N 3112.08 -4.58235 0.662552 0
M  V30 32431 H 3114.92 -8.65116 0.777161 0
M  V30 32432 H 3115.19 -6.90173 0.474152 0
M  V30 32433 H 3114.32 -7.66548 2.79458 0
M  V30 32434 P 3110.36 -8.03563 3.84925 0
M  V30 32435 O 3110.14 -8.85821 5.0569 0
M  V30 32436 O 3109.57 -8.41101 2.65469 0
M  V30 32437 O 3110.11 -6.4965 4.18908 0
M  V30 32438 C 3111.05 -5.81037 5.05421 0
M  V30 32439 C 3110.32 -4.78366 5.89277 0
M  V30 32440 O 3110.11 -3.58302 5.08433 0
M  V30 32441 C 3108.92 -5.17448 6.36119 0
M  V30 32442 O 3108.53 -4.45271 7.53232 0
M  V30 32443 C 3108.04 -4.74639 5.19936 0
M  V30 32444 C 3108.75 -3.49432 4.70418 0
M  V30 32445 N 3108.7 -3.31776 3.22945 0
M  V30 32446 H 3111.54 -6.54213 5.71376 0
M  V30 32447 H 3111.81 -5.30492 4.44033 0
M  V30 32448 H 3110.94 -4.55889 6.76652 0
M  V30 32449 P 3106.98 -4.23843 7.83734 0
M  V30 32450 O 3106.76 -4.19407 9.29784 0
M  V30 32451 O 3106.19 -5.24426 7.09156 0
M  V30 32452 O 3106.73 -2.7935 7.20758 0
M  V30 32453 C 3107.67 -1.7299 7.50419 0
M  V30 32454 C 3106.94 -0.406376 7.57911 0
M  V30 32455 O 3106.73 0.0897726 6.21935 0
M  V30 32456 C 3105.54 -0.447224 8.1878 0
M  V30 32457 O 3105.15 0.825065 8.71101 0
M  V30 32458 C 3104.66 -0.783801 6.99623 0
M  V30 32459 C 3105.37 -0.0619192 5.85967 0
M  V30 32460 N 3105.32 -0.7859 4.56281 0
M  V30 32461 H 3108.16 -1.93423 8.4679 0
M  V30 32462 H 3108.43 -1.68181 6.71046 0
M  V30 32463 H 3107.56 0.289041 8.15388 0
M  V30 32464 P 3103.6 1.17771 8.83182 0
M  V30 32465 O 3103.38 2.07206 9.98732 0
M  V30 32466 O 3102.81 -0.0743816 8.81969 0
M  V30 32467 O 3103.35 1.97652 7.47304 0
M  V30 32468 C 3104.29 3.01133 7.08783 0
M  V30 32469 C 3103.56 4.12613 6.37049 0
M  V30 32470 O 3103.35 3.72827 4.97879 0
M  V30 32471 C 3102.16 4.45085 6.88694 0
M  V30 32472 O 3101.77 5.7877 6.5624 0
M  V30 32473 C 3101.28 3.47817 6.12078 0
M  V30 32474 C 3101.99 3.39414 4.77697 0
M  V30 32475 N 3101.94 2.04615 4.15333 0
M  V30 32476 H 3104.78 3.41248 7.98759 0
M  V30 32477 H 3105.05 2.5837 6.41742 0
M  V30 32478 H 3104.18 5.02657 6.42673 0
M  V30 32479 P 3100.22 6.144 6.45285 0
M  V30 32480 O 3100 7.54673 6.86199 0
M  V30 32481 O 3099.43 5.12391 7.179 0
M  V30 32482 O 3099.97 5.99158 4.88404 0
M  V30 32483 C 3100.91 6.60234 3.96415 0
M  V30 32484 C 3100.18 7.08259 2.72856 0
M  V30 32485 O 3099.97 5.9427 1.83651 0
M  V30 32486 C 3098.78 7.64886 2.9555 0
M  V30 32487 O 3098.39 8.53963 1.90717 0
M  V30 32488 C 3097.9 6.4116 2.90739 0
M  V30 32489 C 3098.61 5.55375 1.86963 0
M  V30 32490 N 3098.56 4.09664 2.15742 0
M  V30 32491 H 3101.4 7.45574 4.45629 0
M  V30 32492 H 3101.67 5.86232 3.67314 0
M  V30 32493 H 3100.8 7.84412 2.24479 0
M  V30 32494 P 3096.84 8.7635 1.60911 0
M  V30 32495 O 3096.62 10.1388 1.11561 0
M  V30 32496 O 3096.05 8.36503 2.79617 0
M  V30 32497 O 3096.59 7.71806 0.42951 0
M  V30 32498 C 3097.53 7.66948 -0.673514 0
M  V30 32499 C 3096.8 7.33374 -1.95559 0
M  V30 32500 O 3096.59 5.88721 -2.00726 0
M  V30 32501 C 3095.4 7.92218 -2.1125 0
M  V30 32502 O 3095.01 8.02971 -3.47653 0
M  V30 32503 C 3094.52 6.89504 -1.41631 0
M  V30 32504 C 3095.23 5.59106 -1.75155 0
M  V30 32505 N 3095.18 4.58136 -0.662409 0
M  V30 32506 C 3095.03 3.26059 -1.02863 0
M  V30 32507 O 3094.94 2.90743 -2.19009 0
M  V30 32508 N 3094.99 2.35995 0.0155585 0
M  V30 32509 C 3095.08 2.65248 1.35603 0
M  V30 32510 O 3095.03 1.75605 2.20651 0
M  V30 32511 C 3095.23 4.05747 1.64698 0
M  V30 32512 C 3095.34 4.42345 3.09553 0
M  V30 32513 C 3095.28 4.96734 0.652411 0
M  V30 32514 H 3098.02 8.64917 -0.776982 0
M  V30 32515 H 3098.29 6.89974 -0.474015 0
M  V30 32516 H 3097.42 7.66548 -2.79458 0
M  V30 32517 H 3094.77 5.16076 -2.65138 0
M  V30 32518 H 3094.49 7.06433 -0.329384 0
M  V30 32519 H 3093.5 6.90829 -1.81996 0
M  V30 32520 H 3095.33 8.90774 -1.62639 0
M  V30 32521 H 3095.4 6.02181 0.895285 0
M  V30 32522 H 3094.37 4.80252 3.45468 0
M  V30 32523 H 3096.11 5.20015 3.22119 0
M  V30 32524 H 3095.62 3.53269 3.67833 0
M  V30 32525 H 3094.89 1.39558 -0.227499 0
M  V30 32526 P 3093.46 8.03563 -3.84925 0
M  V30 32527 O 3093.24 8.85821 -5.0569 0
M  V30 32528 O 3092.67 8.41101 -2.65469 0
M  V30 32529 O 3093.21 6.4965 -4.18908 0
M  V30 32530 C 3094.15 5.80886 -5.05289 0
M  V30 32531 C 3093.42 4.78366 -5.89277 0
M  V30 32532 O 3093.21 3.58302 -5.08433 0
M  V30 32533 C 3092.02 5.16748 -6.36559 0
M  V30 32534 O 3091.63 4.45271 -7.53232 0
M  V30 32535 C 3091.14 4.74572 -5.19863 0
M  V30 32536 C 3091.85 3.49373 -4.70338 0
M  V30 32537 N 3091.8 3.31704 -3.22876 0
M  V30 32538 C 3091.65 2.03326 -2.74871 0
M  V30 32539 O 3091.56 1.06486 -3.48076 0
M  V30 32540 N 3091.61 1.91838 -1.37456 0
M  V30 32541 C 3091.7 2.94295 -0.462035 0
M  V30 32542 C 3091.85 4.25064 -1.05249 0
M  V30 32543 C 3091.9 4.40214 -2.39192 0
M  V30 32544 H 3094.64 6.54063 -5.71245 0
M  V30 32545 H 3094.91 5.30339 -4.43905 0
M  V30 32546 H 3094.04 4.55889 -6.76652 0
M  V30 32547 H 3091.39 2.6167 -5.17842 0
M  V30 32548 H 3091.11 5.52155 -4.41878 0
M  V30 32549 H 3090.12 4.51918 -5.53297 0
M  V30 32550 H 3091.95 6.25055 -6.55162 0
M  V30 32551 H 3092.02 5.39798 -2.81523 0
M  V30 32552 P 3090.08 4.23843 -7.83734 0
M  V30 32553 O 3089.86 4.19407 -9.29784 0
M  V30 32554 O 3089.29 5.24426 -7.09156 0
M  V30 32555 O 3089.83 2.7935 -7.20758 0
M  V30 32556 C 3090.77 1.7299 -7.50419 0
M  V30 32557 C 3090.04 0.406376 -7.57911 0
M  V30 32558 O 3089.83 -0.0897726 -6.21935 0
M  V30 32559 C 3088.64 0.447224 -8.1878 0
M  V30 32560 O 3088.25 -0.825065 -8.71101 0
M  V30 32561 C 3087.76 0.783801 -6.99623 0
M  V30 32562 C 3088.47 0.0619192 -5.85967 0
M  V30 32563 N 3088.42 0.790462 -4.56202 0
M  V30 32564 H 3091.26 1.93423 -8.4679 0
M  V30 32565 H 3091.53 1.68852 -6.70877 0
M  V30 32566 H 3090.66 -0.289041 -8.15388 0
M  V30 32567 H 3088.01 -0.927006 -5.72848 0
M  V30 32568 H 3087.73 1.86973 -6.82036 0
M  V30 32569 H 3086.74 0.403953 -7.13357 0
M  V30 32570 H 3088.57 1.20599 -8.97534 0
M  V30 32571 P 3086.7 -1.17771 -8.83182 0
M  V30 32572 O 3086.48 -2.07206 -9.98732 0
M  V30 32573 O 3085.91 0.0743816 -8.81969 0
M  V30 32574 O 3086.45 -1.97652 -7.47304 0
M  V30 32575 C 3087.39 -3.01133 -7.08783 0
M  V30 32576 C 3086.66 -4.12613 -6.37049 0
M  V30 32577 O 3086.45 -3.72827 -4.97879 0
M  V30 32578 C 3085.26 -4.45085 -6.88694 0
M  V30 32579 O 3084.87 -5.7877 -6.5624 0
M  V30 32580 C 3084.38 -3.47817 -6.12078 0
M  V30 32581 C 3085.09 -3.39414 -4.77697 0
M  V30 32582 N 3085.04 -2.04615 -4.15333 0
M  V30 32583 H 3087.88 -3.41248 -7.98759 0
M  V30 32584 H 3088.15 -2.5837 -6.41742 0
M  V30 32585 H 3087.28 -5.02657 -6.42673 0
M  V30 32586 P 3083.32 -6.144 -6.45285 0
M  V30 32587 O 3083.1 -7.54673 -6.86199 0
M  V30 32588 O 3082.53 -5.12391 -7.179 0
M  V30 32589 O 3083.07 -5.99158 -4.88404 0
M  V30 32590 C 3084.01 -6.60234 -3.96415 0
M  V30 32591 C 3083.28 -7.08259 -2.72856 0
M  V30 32592 O 3083.07 -5.9427 -1.83651 0
M  V30 32593 C 3081.88 -7.64886 -2.9555 0
M  V30 32594 O 3081.49 -8.53963 -1.90717 0
M  V30 32595 C 3081 -6.4116 -2.90739 0
M  V30 32596 C 3081.71 -5.55375 -1.86963 0
M  V30 32597 N 3081.66 -4.09664 -2.15742 0
M  V30 32598 H 3084.5 -7.45574 -4.45629 0
M  V30 32599 H 3084.77 -5.86232 -3.67314 0
M  V30 32600 H 3083.9 -7.84412 -2.24479 0
M  V30 32601 P 3079.94 -8.7635 -1.60911 0
M  V30 32602 O 3079.72 -10.1388 -1.11561 0
M  V30 32603 O 3079.15 -8.36503 -2.79617 0
M  V30 32604 O 3079.69 -7.71806 -0.42951 0
M  V30 32605 C 3080.63 -7.67148 0.673689 0
M  V30 32606 C 3079.9 -7.33374 1.95559 0
M  V30 32607 O 3079.69 -5.88721 2.00726 0
M  V30 32608 C 3078.5 -7.92526 2.10483 0
M  V30 32609 O 3078.11 -8.02971 3.47653 0
M  V30 32610 C 3077.62 -6.89602 1.41652 0
M  V30 32611 C 3078.33 -5.59201 1.75185 0
M  V30 32612 N 3078.28 -4.58301 0.657969 0
M  V30 32613 H 3081.12 -8.65116 0.777161 0
M  V30 32614 H 3081.39 -6.9022 0.46725 0
M  V30 32615 H 3080.52 -7.66548 2.79458 0
M  V30 32616 H 3077.87 -5.16165 2.65183 0
M  V30 32617 H 3077.59 -7.06433 0.329384 0
M  V30 32618 H 3076.6 -6.90926 1.82021 0
M  V30 32619 H 3078.43 -8.90873 1.62657 0
M  V30 32620 P 3076.56 -8.03563 3.84925 0
M  V30 32621 O 3076.34 -8.85821 5.0569 0
M  V30 32622 O 3075.77 -8.41101 2.65469 0
M  V30 32623 O 3076.31 -6.4965 4.18908 0
M  V30 32624 C 3077.25 -5.80886 5.05289 0
M  V30 32625 C 3076.52 -4.78366 5.89277 0
M  V30 32626 O 3076.31 -3.58302 5.08433 0
M  V30 32627 C 3075.12 -5.16748 6.36559 0
M  V30 32628 O 3074.73 -4.45271 7.53232 0
M  V30 32629 C 3074.24 -4.74572 5.19863 0
M  V30 32630 C 3074.95 -3.49373 4.70338 0
M  V30 32631 N 3074.9 -3.31704 3.22876 0
M  V30 32632 C 3074.75 -2.03326 2.74871 0
M  V30 32633 O 3074.66 -1.06486 3.48076 0
M  V30 32634 N 3074.71 -1.91838 1.37456 0
M  V30 32635 C 3074.8 -2.94295 0.462035 0
M  V30 32636 O 3074.75 -2.71763 -0.752928 0
M  V30 32637 C 3074.95 -4.25064 1.05249 0
M  V30 32638 C 3075.06 -5.39815 0.095697 0
M  V30 32639 C 3075 -4.40214 2.39192 0
M  V30 32640 H 3077.74 -6.54063 5.71245 0
M  V30 32641 H 3078.01 -5.30339 4.43905 0
M  V30 32642 H 3077.14 -4.55889 6.76652 0
M  V30 32643 H 3074.49 -2.6167 5.17842 0
M  V30 32644 H 3074.21 -5.52155 4.41878 0
M  V30 32645 H 3073.22 -4.51918 5.53297 0
M  V30 32646 H 3075.05 -6.25055 6.55162 0
M  V30 32647 H 3075.12 -5.39798 2.81523 0
M  V30 32648 H 3074.09 -5.91593 0.0279582 0
M  V30 32649 H 3075.83 -6.10038 0.450573 0
M  V30 32650 H 3075.34 -5.02007 -0.89937 0
M  V30 32651 H 3074.61 -0.995326 1.00435 0
M  V30 32652 P 3073.18 -4.23843 7.83734 0
M  V30 32653 O 3072.96 -4.19407 9.29784 0
M  V30 32654 O 3072.39 -5.24426 7.09156 0
M  V30 32655 O 3072.93 -2.7935 7.20758 0
M  V30 32656 C 3073.87 -1.7299 7.50419 0
M  V30 32657 C 3073.14 -0.406376 7.57911 0
M  V30 32658 O 3072.93 0.0897726 6.21935 0
M  V30 32659 C 3071.74 -0.447224 8.1878 0
M  V30 32660 O 3071.35 0.825065 8.71101 0
M  V30 32661 C 3070.86 -0.783801 6.99623 0
M  V30 32662 C 3071.57 -0.0619192 5.85967 0
M  V30 32663 N 3071.52 -0.7859 4.56281 0
M  V30 32664 H 3074.36 -1.93423 8.4679 0
M  V30 32665 H 3074.63 -1.68181 6.71046 0
M  V30 32666 H 3073.76 0.289041 8.15388 0
M  V30 32667 P 3069.8 1.17771 8.83182 0
M  V30 32668 O 3069.58 2.07206 9.98732 0
M  V30 32669 O 3069.01 -0.0743816 8.81969 0
M  V30 32670 O 3069.55 1.97652 7.47304 0
M  V30 32671 C 3070.49 3.01133 7.08783 0
M  V30 32672 C 3069.76 4.12613 6.37049 0
M  V30 32673 O 3069.55 3.72827 4.97879 0
M  V30 32674 C 3068.36 4.45085 6.88694 0
M  V30 32675 O 3067.97 5.7877 6.5624 0
M  V30 32676 C 3067.48 3.47817 6.12078 0
M  V30 32677 C 3068.19 3.39414 4.77697 0
M  V30 32678 N 3068.14 2.04199 4.15538 0
M  V30 32679 H 3070.98 3.41248 7.98759 0
M  V30 32680 H 3071.25 2.57728 6.42 0
M  V30 32681 H 3070.38 5.02657 6.42673 0
M  V30 32682 H 3067.73 4.11708 4.08956 0
M  V30 32683 H 3067.45 2.49626 6.61679 0
M  V30 32684 H 3066.46 3.8662 6.00862 0
M  V30 32685 H 3068.29 4.29991 7.97006 0
M  V30 32686 P 3066.42 6.144 6.45285 0
M  V30 32687 O 3066.2 7.54673 6.86199 0
M  V30 32688 O 3065.63 5.12391 7.179 0
M  V30 32689 O 3066.17 5.99158 4.88404 0
M  V30 32690 C 3067.11 6.60234 3.96415 0
M  V30 32691 C 3066.38 7.08259 2.72856 0
M  V30 32692 O 3066.17 5.9427 1.83651 0
M  V30 32693 C 3064.98 7.64886 2.9555 0
M  V30 32694 O 3064.59 8.53963 1.90717 0
M  V30 32695 C 3064.1 6.4116 2.90739 0
M  V30 32696 C 3064.81 5.55375 1.86963 0
M  V30 32697 N 3064.76 4.09448 2.16152 0
M  V30 32698 H 3067.6 7.45574 4.45629 0
M  V30 32699 H 3067.87 5.85864 3.679 0
M  V30 32700 H 3067 7.84412 2.24479 0
M  V30 32701 H 3064.35 5.73457 0.888562 0
M  V30 32702 H 3064.07 5.90877 3.88583 0
M  V30 32703 H 3063.08 6.6596 2.58858 0
M  V30 32704 H 3064.91 8.16339 3.92049 0
M  V30 32705 P 3063.04 8.7635 1.60911 0
M  V30 32706 O 3062.82 10.1388 1.11561 0
M  V30 32707 O 3062.25 8.36503 2.79617 0
M  V30 32708 O 3062.79 7.71906 0.429565 0
M  V30 32709 C 3063.73 7.67148 -0.673689 0
M  V30 32710 C 3063 7.33666 -1.94851 0
M  V30 32711 O 3062.79 5.88816 -2.00759 0
M  V30 32712 C 3061.6 7.92526 -2.10483 0
M  V30 32713 O 3061.21 8.03063 -3.47693 0
M  V30 32714 C 3060.72 6.89602 -1.41652 0
M  V30 32715 C 3061.43 5.59201 -1.75185 0
M  V30 32716 N 3061.38 4.58235 -0.662552 0
M  V30 32717 C 3061.23 3.24451 -1.01643 0
M  V30 32718 O 3061.14 2.94958 -2.21722 0
M  V30 32719 N 3061.18 2.30408 0.165238 0
M  V30 32720 C 3061.28 2.66048 1.25118 0
M  V30 32721 N 3061.23 1.70787 2.16813 0
M  V30 32722 C 3061.43 4.02732 1.64413 0
M  V30 32723 C 3061.48 4.9488 0.63991 0
M  V30 32724 H 3064.22 8.65017 -0.777072 0
M  V30 32725 H 3064.49 6.90173 -0.474152 0
M  V30 32726 H 3063.62 7.66642 -2.79492 0
M  V30 32727 H 3060.97 5.16254 -2.65229 0
M  V30 32728 H 3060.69 7.06532 -0.329431 0
M  V30 32729 H 3059.7 6.91023 -1.82047 0
M  V30 32730 H 3061.53 8.90873 -1.62657 0
M  V30 32731 H 3061.6 6.00104 0.892197 0
M  V30 32732 H 3061.5 4.31733 2.69229 0
M  V30 32733 H 3061.11 0.724835 1.8844 0
M  V30 32734 H 3061.31 1.94716 3.16734 0
M  V30 32735 P 3059.66 8.03563 -3.84925 0
M  V30 32736 O 3059.44 8.85821 -5.0569 0
M  V30 32737 O 3058.87 8.41101 -2.65469 0
M  V30 32738 O 3059.41 6.4965 -4.18908 0
M  V30 32739 C 3060.35 5.81037 -5.05421 0
M  V30 32740 C 3059.62 4.78366 -5.89277 0
M  V30 32741 O 3059.41 3.58302 -5.08433 0
M  V30 32742 C 3058.22 5.17448 -6.36119 0
M  V30 32743 O 3057.83 4.45271 -7.53232 0
M  V30 32744 C 3057.34 4.74639 -5.19936 0
M  V30 32745 C 3058.05 3.49432 -4.70418 0
M  V30 32746 N 3058 3.31776 -3.22945 0
M  V30 32747 H 3060.84 6.54213 -5.71376 0
M  V30 32748 H 3061.11 5.30492 -4.44033 0
M  V30 32749 H 3060.24 4.55889 -6.76652 0
M  V30 32750 P 3056.28 4.23843 -7.83734 0
M  V30 32751 O 3056.06 4.19407 -9.29784 0
M  V30 32752 O 3055.49 5.24426 -7.09156 0
M  V30 32753 O 3056.03 2.7935 -7.20758 0
M  V30 32754 C 3056.97 1.72945 -7.50224 0
M  V30 32755 C 3056.24 0.406376 -7.57911 0
M  V30 32756 O 3056.03 -0.0897726 -6.21935 0
M  V30 32757 C 3054.84 0.438983 -8.18724 0
M  V30 32758 O 3054.45 -0.825065 -8.71101 0
M  V30 32759 C 3053.96 0.783689 -6.99524 0
M  V30 32760 C 3054.67 0.0619086 -5.85867 0
M  V30 32761 N 3054.62 0.78573 -4.56183 0
M  V30 32762 C 3054.47 0.0292889 -3.41887 0
M  V30 32763 O 3054.38 -1.18445 -3.4419 0
M  V30 32764 N 3054.43 0.744061 -2.23964 0
M  V30 32765 C 3054.52 2.10932 -2.10362 0
M  V30 32766 O 3054.47 2.64117 -0.98825 0
M  V30 32767 C 3054.67 2.8202 -3.34994 0
M  V30 32768 C 3054.78 4.31095 -3.25037 0
M  V30 32769 C 3054.72 2.15547 -4.52261 0
M  V30 32770 H 3057.46 1.93379 -8.46595 0
M  V30 32771 H 3057.73 1.68132 -6.70852 0
M  V30 32772 H 3056.86 -0.289041 -8.15388 0
M  V30 32773 H 3054.21 -0.926847 -5.72749 0
M  V30 32774 H 3053.93 1.86973 -6.82036 0
M  V30 32775 H 3052.94 0.403896 -7.13257 0
M  V30 32776 H 3054.77 1.20585 -8.97435 0
M  V30 32777 H 3054.84 2.71231 -5.45042 0
M  V30 32778 H 3053.81 4.76966 -3.49992 0
M  V30 32779 H 3055.55 4.67047 -3.95024 0
M  V30 32780 H 3055.06 4.58996 -2.22312 0
M  V30 32781 H 3054.33 0.214893 -1.39758 0
M  V30 32782 P 3052.9 -1.17771 -8.83182 0
M  V30 32783 O 3052.68 -2.07206 -9.98732 0
M  V30 32784 O 3052.11 0.0743816 -8.81969 0
M  V30 32785 O 3052.65 -1.97652 -7.47304 0
M  V30 32786 C 3053.59 -3.01133 -7.08783 0
M  V30 32787 C 3052.86 -4.12613 -6.37049 0
M  V30 32788 O 3052.65 -3.72827 -4.97879 0
M  V30 32789 C 3051.46 -4.45085 -6.88694 0
M  V30 32790 O 3051.07 -5.7877 -6.5624 0
M  V30 32791 C 3050.58 -3.47817 -6.12078 0
M  V30 32792 C 3051.29 -3.39414 -4.77697 0
M  V30 32793 N 3051.24 -2.04199 -4.15538 0
M  V30 32794 C 3051.32 -0.821545 -4.76977 0
M  V30 32795 N 3051.25 0.1794 -3.94592 0
M  V30 32796 C 3051.1 -0.419121 -2.70776 0
M  V30 32797 C 3050.97 0.109072 -1.40577 0
M  V30 32798 N 3050.96 1.4104 -1.1344 0
M  V30 32799 N 3050.85 -0.764381 -0.39411 0
M  V30 32800 C 3050.86 -2.06587 -0.664135 0
M  V30 32801 N 3050.98 -2.67948 -1.82153 0
M  V30 32802 C 3051.1 -1.77942 -2.8147 0
M  V30 32803 H 3054.08 -3.41248 -7.98759 0
M  V30 32804 H 3054.35 -2.57728 -6.42 0
M  V30 32805 H 3053.48 -5.02657 -6.42673 0
M  V30 32806 H 3050.83 -4.11708 -4.08956 0
M  V30 32807 H 3050.55 -2.49626 -6.61679 0
M  V30 32808 H 3049.56 -3.8662 -6.00862 0
M  V30 32809 H 3051.39 -4.29991 -7.97006 0
M  V30 32810 H 3051.43 -0.702451 -5.84696 0
M  V30 32811 H 3051.05 2.09647 -1.89651 0
M  V30 32812 H 3050.86 1.73358 -0.160575 0
M  V30 32813 H 3050.76 -2.71695 0.195838 0
M  V30 32814 P 3049.52 -6.144 -6.45285 0
M  V30 32815 O 3049.3 -7.54673 -6.86199 0
M  V30 32816 O 3048.73 -5.12391 -7.179 0
M  V30 32817 O 3049.27 -5.99158 -4.88404 0
M  V30 32818 C 3050.21 -6.60234 -3.96415 0
M  V30 32819 C 3049.48 -7.08259 -2.72856 0
M  V30 32820 O 3049.27 -5.9427 -1.83651 0
M  V30 32821 C 3048.08 -7.64886 -2.9555 0
M  V30 32822 O 3047.69 -8.53963 -1.90717 0
M  V30 32823 C 3047.2 -6.4116 -2.90739 0
M  V30 32824 C 3047.91 -5.55375 -1.86963 0
M  V30 32825 N 3047.86 -4.09664 -2.15742 0
M  V30 32826 H 3050.7 -7.45574 -4.45629 0
M  V30 32827 H 3050.97 -5.86232 -3.67314 0
M  V30 32828 H 3050.1 -7.84412 -2.24479 0
M  V30 32829 P 3046.14 -8.7635 -1.60911 0
M  V30 32830 O 3045.92 -10.1388 -1.11561 0
M  V30 32831 O 3045.35 -8.36503 -2.79617 0
M  V30 32832 O 3045.89 -7.71906 -0.429565 0
M  V30 32833 C 3046.83 -7.67148 0.673689 0
M  V30 32834 C 3046.1 -7.33666 1.94851 0
M  V30 32835 O 3045.89 -5.88816 2.00759 0
M  V30 32836 C 3044.7 -7.92526 2.10483 0
M  V30 32837 O 3044.31 -8.03063 3.47693 0
M  V30 32838 C 3043.82 -6.89602 1.41652 0
M  V30 32839 C 3044.53 -5.59201 1.75185 0
M  V30 32840 N 3044.48 -4.58235 0.662552 0
M  V30 32841 C 3044.33 -3.24451 1.01643 0
M  V30 32842 O 3044.24 -2.94958 2.21722 0
M  V30 32843 N 3044.28 -2.30408 -0.165238 0
M  V30 32844 C 3044.38 -2.66048 -1.25118 0
M  V30 32845 N 3044.33 -1.70787 -2.16813 0
M  V30 32846 C 3044.53 -4.02732 -1.64413 0
M  V30 32847 C 3044.58 -4.9488 -0.63991 0
M  V30 32848 H 3047.32 -8.65017 0.777072 0
M  V30 32849 H 3047.59 -6.90173 0.474152 0
M  V30 32850 H 3046.73 -7.66642 2.79492 0
M  V30 32851 H 3044.07 -5.16254 2.65229 0
M  V30 32852 H 3043.79 -7.06532 0.329431 0
M  V30 32853 H 3042.8 -6.91023 1.82047 0
M  V30 32854 H 3044.63 -8.90873 1.62657 0
M  V30 32855 H 3044.71 -6.00104 -0.892197 0
M  V30 32856 H 3044.6 -4.31733 -2.69229 0
M  V30 32857 H 3044.22 -0.724835 -1.8844 0
M  V30 32858 H 3044.41 -1.94716 -3.16734 0
M  V30 32859 P 3042.76 -8.03563 3.84925 0
M  V30 32860 O 3042.54 -8.85821 5.0569 0
M  V30 32861 O 3041.97 -8.41101 2.65469 0
M  V30 32862 O 3042.51 -6.4965 4.18908 0
M  V30 32863 C 3043.45 -5.80886 5.05289 0
M  V30 32864 C 3042.72 -4.78366 5.89277 0
M  V30 32865 O 3042.51 -3.58302 5.08433 0
M  V30 32866 C 3041.32 -5.16748 6.36559 0
M  V30 32867 O 3040.93 -4.45271 7.53232 0
M  V30 32868 C 3040.44 -4.74572 5.19863 0
M  V30 32869 C 3041.15 -3.49373 4.70338 0
M  V30 32870 N 3041.1 -3.31704 3.22876 0
M  V30 32871 C 3040.95 -2.03326 2.74871 0
M  V30 32872 O 3040.86 -1.06486 3.48076 0
M  V30 32873 N 3040.91 -1.91838 1.37456 0
M  V30 32874 C 3041 -2.94295 0.462035 0
M  V30 32875 O 3040.95 -2.71763 -0.752928 0
M  V30 32876 C 3041.15 -4.25064 1.05249 0
M  V30 32877 C 3041.26 -5.39815 0.095697 0
M  V30 32878 C 3041.2 -4.40214 2.39192 0
M  V30 32879 H 3043.94 -6.54063 5.71245 0
M  V30 32880 H 3044.21 -5.30339 4.43905 0
M  V30 32881 H 3043.35 -4.55889 6.76652 0
M  V30 32882 H 3040.69 -2.6167 5.17842 0
M  V30 32883 H 3040.41 -5.52155 4.41878 0
M  V30 32884 H 3039.42 -4.51918 5.53297 0
M  V30 32885 H 3041.25 -6.25055 6.55162 0
M  V30 32886 H 3041.32 -5.39798 2.81523 0
M  V30 32887 H 3040.29 -5.91593 0.0279582 0
M  V30 32888 H 3042.03 -6.10038 0.450573 0
M  V30 32889 H 3041.54 -5.02007 -0.89937 0
M  V30 32890 H 3040.81 -0.995326 1.00435 0
M  V30 32891 P 3039.38 -4.23843 7.83734 0
M  V30 32892 O 3039.16 -4.19407 9.29784 0
M  V30 32893 O 3038.59 -5.24426 7.09156 0
M  V30 32894 O 3039.13 -2.7935 7.20758 0
M  V30 32895 C 3040.07 -1.72945 7.50224 0
M  V30 32896 C 3039.34 -0.406376 7.57911 0
M  V30 32897 O 3039.13 0.0897726 6.21935 0
M  V30 32898 C 3037.94 -0.438983 8.18724 0
M  V30 32899 O 3037.55 0.825065 8.71101 0
M  V30 32900 C 3037.06 -0.783689 6.99524 0
M  V30 32901 C 3037.77 -0.0619086 5.85867 0
M  V30 32902 N 3037.72 -0.78573 4.56183 0
M  V30 32903 C 3037.57 -0.0292889 3.41887 0
M  V30 32904 O 3037.48 1.18445 3.4419 0
M  V30 32905 N 3037.53 -0.744061 2.23964 0
M  V30 32906 C 3037.62 -2.10932 2.10362 0
M  V30 32907 O 3037.57 -2.64117 0.98825 0
M  V30 32908 C 3037.77 -2.8202 3.34994 0
M  V30 32909 C 3037.88 -4.31095 3.25037 0
M  V30 32910 C 3037.82 -2.15547 4.52261 0
M  V30 32911 H 3040.56 -1.93379 8.46595 0
M  V30 32912 H 3040.83 -1.68132 6.70852 0
M  V30 32913 H 3039.97 0.289041 8.15388 0
M  V30 32914 H 3037.31 0.926847 5.72749 0
M  V30 32915 H 3037.03 -1.86973 6.82036 0
M  V30 32916 H 3036.04 -0.403896 7.13257 0
M  V30 32917 H 3037.87 -1.20585 8.97435 0
M  V30 32918 H 3037.94 -2.71231 5.45042 0
M  V30 32919 H 3036.91 -4.76966 3.49992 0
M  V30 32920 H 3038.65 -4.67047 3.95024 0
M  V30 32921 H 3038.16 -4.58996 2.22312 0
M  V30 32922 H 3037.43 -0.214893 1.39758 0
M  V30 32923 P 3036 1.17771 8.83182 0
M  V30 32924 O 3035.78 2.07206 9.98732 0
M  V30 32925 O 3035.21 -0.0743816 8.81969 0
M  V30 32926 O 3035.75 1.97652 7.47304 0
M  V30 32927 C 3036.69 3.01133 7.08783 0
M  V30 32928 C 3035.96 4.12613 6.37049 0
M  V30 32929 O 3035.75 3.72827 4.97879 0
M  V30 32930 C 3034.56 4.45085 6.88694 0
M  V30 32931 O 3034.17 5.7877 6.5624 0
M  V30 32932 C 3033.68 3.47817 6.12078 0
M  V30 32933 C 3034.39 3.39414 4.77697 0
M  V30 32934 N 3034.34 2.04199 4.15538 0
M  V30 32935 C 3034.42 0.821545 4.76977 0
M  V30 32936 N 3034.35 -0.1794 3.94592 0
M  V30 32937 C 3034.2 0.419121 2.70776 0
M  V30 32938 C 3034.07 -0.109072 1.40577 0
M  V30 32939 N 3034.06 -1.4104 1.1344 0
M  V30 32940 N 3033.95 0.764381 0.39411 0
M  V30 32941 C 3033.96 2.06587 0.664135 0
M  V30 32942 N 3034.08 2.67948 1.82153 0
M  V30 32943 C 3034.2 1.77942 2.8147 0
M  V30 32944 H 3037.18 3.41248 7.98759 0
M  V30 32945 H 3037.45 2.57728 6.42 0
M  V30 32946 H 3036.59 5.02657 6.42673 0
M  V30 32947 H 3033.93 4.11708 4.08956 0
M  V30 32948 H 3033.65 2.49626 6.61679 0
M  V30 32949 H 3032.66 3.8662 6.00862 0
M  V30 32950 H 3034.49 4.29991 7.97006 0
M  V30 32951 H 3034.53 0.702451 5.84696 0
M  V30 32952 H 3034.15 -2.09647 1.89651 0
M  V30 32953 H 3033.96 -1.73358 0.160575 0
M  V30 32954 H 3033.86 2.71695 -0.195838 0
M  V30 32955 P 3032.62 6.144 6.45285 0
M  V30 32956 O 3032.4 7.54673 6.86199 0
M  V30 32957 O 3031.83 5.12391 7.179 0
M  V30 32958 O 3032.37 5.99158 4.88404 0
M  V30 32959 C 3033.31 6.60234 3.96415 0
M  V30 32960 C 3032.58 7.08259 2.72856 0
M  V30 32961 O 3032.37 5.9427 1.83651 0
M  V30 32962 C 3031.18 7.64886 2.9555 0
M  V30 32963 O 3030.79 8.53963 1.90717 0
M  V30 32964 C 3030.3 6.4116 2.90739 0
M  V30 32965 C 3031.01 5.55375 1.86963 0
M  V30 32966 N 3030.96 4.09664 2.15742 0
M  V30 32967 H 3033.8 7.45574 4.45629 0
M  V30 32968 H 3034.07 5.86232 3.67314 0
M  V30 32969 H 3033.21 7.84412 2.24479 0
M  V30 32970 P 3029.24 8.7635 1.60911 0
M  V30 32971 O 3029.02 10.1388 1.11561 0
M  V30 32972 O 3028.45 8.36503 2.79617 0
M  V30 32973 O 3028.99 7.71906 0.429565 0
M  V30 32974 C 3029.93 7.67148 -0.673689 0
M  V30 32975 C 3029.2 7.33666 -1.94851 0
M  V30 32976 O 3028.99 5.88816 -2.00759 0
M  V30 32977 C 3027.8 7.92526 -2.10483 0
M  V30 32978 O 3027.41 8.03063 -3.47693 0
M  V30 32979 C 3026.92 6.89602 -1.41652 0
M  V30 32980 C 3027.63 5.59201 -1.75185 0
M  V30 32981 N 3027.58 4.58235 -0.662552 0
M  V30 32982 C 3027.43 3.24451 -1.01643 0
M  V30 32983 O 3027.34 2.94958 -2.21722 0
M  V30 32984 N 3027.38 2.30408 0.165238 0
M  V30 32985 C 3027.48 2.66048 1.25118 0
M  V30 32986 N 3027.43 1.70787 2.16813 0
M  V30 32987 C 3027.63 4.02732 1.64413 0
M  V30 32988 C 3027.68 4.9488 0.63991 0
M  V30 32989 H 3030.42 8.65017 -0.777072 0
M  V30 32990 H 3030.69 6.90173 -0.474152 0
M  V30 32991 H 3029.83 7.66642 -2.79492 0
M  V30 32992 H 3027.17 5.16254 -2.65229 0
M  V30 32993 H 3026.89 7.06532 -0.329431 0
M  V30 32994 H 3025.9 6.91023 -1.82047 0
M  V30 32995 H 3027.73 8.90873 -1.62657 0
M  V30 32996 H 3027.81 6.00104 0.892197 0
M  V30 32997 H 3027.7 4.31733 2.69229 0
M  V30 32998 H 3027.32 0.724835 1.8844 0
M  V30 32999 H 3027.51 1.94716 3.16734 0
M  V30 33000 P 3025.86 8.03563 -3.84925 0
M  V30 33001 O 3025.64 8.85821 -5.0569 0
M  V30 33002 O 3025.07 8.41101 -2.65469 0
M  V30 33003 O 3025.61 6.4965 -4.18908 0
M  V30 33004 C 3026.55 5.80886 -5.05289 0
M  V30 33005 C 3025.82 4.78366 -5.89277 0
M  V30 33006 O 3025.61 3.58302 -5.08433 0
M  V30 33007 C 3024.42 5.16748 -6.36559 0
M  V30 33008 O 3024.03 4.45271 -7.53232 0
M  V30 33009 C 3023.54 4.74572 -5.19863 0
M  V30 33010 C 3024.25 3.49373 -4.70338 0
M  V30 33011 N 3024.2 3.31704 -3.22876 0
M  V30 33012 C 3024.05 2.03326 -2.74871 0
M  V30 33013 O 3023.96 1.06486 -3.48076 0
M  V30 33014 N 3024.01 1.91838 -1.37456 0
M  V30 33015 C 3024.1 2.94295 -0.462035 0
M  V30 33016 C 3024.25 4.25064 -1.05249 0
M  V30 33017 C 3024.3 4.40214 -2.39192 0
M  V30 33018 H 3027.04 6.54063 -5.71245 0
M  V30 33019 H 3027.31 5.30339 -4.43905 0
M  V30 33020 H 3026.45 4.55889 -6.76652 0
M  V30 33021 H 3023.79 2.6167 -5.17842 0
M  V30 33022 H 3023.51 5.52155 -4.41878 0
M  V30 33023 H 3022.52 4.51918 -5.53297 0
M  V30 33024 H 3024.35 6.25055 -6.55162 0
M  V30 33025 H 3024.42 5.39798 -2.81523 0
M  V30 33026 P 3022.48 4.23843 -7.83734 0
M  V30 33027 O 3022.26 4.19407 -9.29784 0
M  V30 33028 O 3021.69 5.24426 -7.09156 0
M  V30 33029 O 3022.23 2.7935 -7.20758 0
M  V30 33030 C 3023.17 1.7299 -7.50419 0
M  V30 33031 C 3022.44 0.406376 -7.57911 0
M  V30 33032 O 3022.23 -0.0897726 -6.21935 0
M  V30 33033 C 3021.04 0.447224 -8.1878 0
M  V30 33034 O 3020.65 -0.825065 -8.71101 0
M  V30 33035 C 3020.16 0.783801 -6.99623 0
M  V30 33036 C 3020.87 0.0619192 -5.85967 0
M  V30 33037 N 3020.82 0.7859 -4.56281 0
M  V30 33038 C 3020.9 2.14308 -4.31736 0
M  V30 33039 N 3020.82 2.46106 -3.05116 0
M  V30 33040 C 3020.68 1.23422 -2.4014 0
M  V30 33041 C 3020.55 0.938381 -1.02409 0
M  V30 33042 O 3020.53 1.70876 -0.0650402 0
M  V30 33043 N 3020.43 -0.444647 -0.805413 0
M  V30 33044 C 3020.43 -1.40829 -1.79435 0
M  V30 33045 N 3020.3 -2.67213 -1.38558 0
M  V30 33046 N 3020.56 -1.12947 -3.09005 0
M  V30 33047 C 3020.68 0.204887 -3.32369 0
M  V30 33048 H 3023.66 1.93423 -8.4679 0
M  V30 33049 H 3023.93 1.68181 -6.71046 0
M  V30 33050 H 3023.07 -0.289041 -8.15388 0
M  V30 33051 H 3020.41 -0.927166 -5.72947 0
M  V30 33052 H 3020.13 1.87 -6.82132 0
M  V30 33053 H 3019.14 0.404009 -7.13457 0
M  V30 33054 H 3020.97 1.20612 -8.97633 0
M  V30 33055 H 3021.02 2.88284 -5.10874 0
M  V30 33056 H 3020.34 -0.755087 0.140242 0
M  V30 33057 H 3020.3 -3.43967 -2.0729 0
M  V30 33058 H 3020.2 -2.88096 -0.380644 0
M  V30 33059 P 3019.1 -1.17771 -8.83182 0
M  V30 33060 O 3018.88 -2.07206 -9.98732 0
M  V30 33061 O 3018.31 0.0743816 -8.81969 0
M  V30 33062 O 3018.85 -1.97652 -7.47304 0
M  V30 33063 C 3019.79 -3.01133 -7.08783 0
M  V30 33064 C 3019.06 -4.12613 -6.37049 0
M  V30 33065 O 3018.85 -3.72827 -4.97879 0
M  V30 33066 C 3017.66 -4.45085 -6.88694 0
M  V30 33067 O 3017.27 -5.7877 -6.5624 0
M  V30 33068 C 3016.78 -3.47817 -6.12078 0
M  V30 33069 C 3017.49 -3.39414 -4.77697 0
M  V30 33070 N 3017.44 -2.04615 -4.15333 0
M  V30 33071 H 3020.28 -3.41248 -7.98759 0
M  V30 33072 H 3020.55 -2.5837 -6.41742 0
M  V30 33073 H 3019.69 -5.02657 -6.42673 0
M  V30 33074 P 3015.72 -6.144 -6.45285 0
M  V30 33075 O 3015.5 -7.54673 -6.86199 0
M  V30 33076 O 3014.93 -5.12391 -7.179 0
M  V30 33077 O 3015.47 -5.99158 -4.88404 0
M  V30 33078 C 3016.41 -6.60234 -3.96415 0
M  V30 33079 C 3015.68 -7.08259 -2.72856 0
M  V30 33080 O 3015.47 -5.9427 -1.83651 0
M  V30 33081 C 3014.28 -7.64886 -2.9555 0
M  V30 33082 O 3013.89 -8.53963 -1.90717 0
M  V30 33083 C 3013.4 -6.4116 -2.90739 0
M  V30 33084 C 3014.11 -5.55375 -1.86963 0
M  V30 33085 N 3014.06 -4.09664 -2.15742 0
M  V30 33086 H 3016.9 -7.45574 -4.45629 0
M  V30 33087 H 3017.17 -5.86232 -3.67314 0
M  V30 33088 H 3016.31 -7.84412 -2.24479 0
M  V30 33089 P 3012.34 -8.7635 -1.60911 0
M  V30 33090 O 3012.12 -10.1388 -1.11561 0
M  V30 33091 O 3011.55 -8.36503 -2.79617 0
M  V30 33092 O 3012.09 -7.71806 -0.42951 0
M  V30 33093 C 3013.03 -7.67148 0.673689 0
M  V30 33094 C 3012.3 -7.33374 1.95559 0
M  V30 33095 O 3012.09 -5.88721 2.00726 0
M  V30 33096 C 3010.9 -7.92526 2.10483 0
M  V30 33097 O 3010.51 -8.02971 3.47653 0
M  V30 33098 C 3010.02 -6.89602 1.41652 0
M  V30 33099 C 3010.73 -5.59201 1.75185 0
M  V30 33100 N 3010.68 -4.58235 0.662552 0
M  V30 33101 H 3013.52 -8.65116 0.777161 0
M  V30 33102 H 3013.79 -6.90173 0.474152 0
M  V30 33103 H 3012.93 -7.66548 2.79458 0
M  V30 33104 P 3008.96 -8.03563 3.84925 0
M  V30 33105 O 3008.74 -8.85821 5.0569 0
M  V30 33106 O 3008.17 -8.41101 2.65469 0
M  V30 33107 O 3008.71 -6.4965 4.18908 0
M  V30 33108 C 3009.65 -5.81037 5.05421 0
M  V30 33109 C 3008.92 -4.78366 5.89277 0
M  V30 33110 O 3008.71 -3.58302 5.08433 0
M  V30 33111 C 3007.52 -5.17448 6.36119 0
M  V30 33112 O 3007.13 -4.45271 7.53232 0
M  V30 33113 C 3006.64 -4.74639 5.19936 0
M  V30 33114 C 3007.35 -3.49432 4.70418 0
M  V30 33115 N 3007.3 -3.31776 3.22945 0
M  V30 33116 H 3010.14 -6.54213 5.71376 0
M  V30 33117 H 3010.41 -5.30492 4.44033 0
M  V30 33118 H 3009.55 -4.55889 6.76652 0
M  V30 33119 P 3005.58 -4.23843 7.83734 0
M  V30 33120 O 3005.36 -4.19407 9.29784 0
M  V30 33121 O 3004.79 -5.24426 7.09156 0
M  V30 33122 O 3005.33 -2.7935 7.20758 0
M  V30 33123 C 3006.27 -1.7299 7.50419 0
M  V30 33124 C 3005.54 -0.406376 7.57911 0
M  V30 33125 O 3005.33 0.0897726 6.21935 0
M  V30 33126 C 3004.14 -0.447224 8.1878 0
M  V30 33127 O 3003.75 0.825065 8.71101 0
M  V30 33128 C 3003.26 -0.783801 6.99623 0
M  V30 33129 C 3003.97 -0.0619192 5.85967 0
M  V30 33130 N 3003.92 -0.790462 4.56202 0
M  V30 33131 H 3006.76 -1.93423 8.4679 0
M  V30 33132 H 3007.03 -1.68852 6.70877 0
M  V30 33133 H 3006.17 0.289041 8.15388 0
M  V30 33134 H 3003.51 0.927006 5.72848 0
M  V30 33135 H 3003.23 -1.86973 6.82036 0
M  V30 33136 H 3002.24 -0.403953 7.13357 0
M  V30 33137 H 3004.07 -1.20599 8.97534 0
M  V30 33138 P 3002.2 1.17771 8.83182 0
M  V30 33139 O 3001.98 2.07206 9.98732 0
M  V30 33140 O 3001.41 -0.0743816 8.81969 0
M  V30 33141 O 3001.95 1.97652 7.47304 0
M  V30 33142 C 3002.89 3.01133 7.08783 0
M  V30 33143 C 3002.16 4.12613 6.37049 0
M  V30 33144 O 3001.95 3.72827 4.97879 0
M  V30 33145 C 3000.76 4.45085 6.88694 0
M  V30 33146 O 3000.37 5.7877 6.5624 0
M  V30 33147 C 2999.88 3.47817 6.12078 0
M  V30 33148 C 3000.59 3.39414 4.77697 0
M  V30 33149 N 3000.54 2.04199 4.15538 0
M  V30 33150 H 3003.38 3.41248 7.98759 0
M  V30 33151 H 3003.65 2.57728 6.42 0
M  V30 33152 H 3002.79 5.02657 6.42673 0
M  V30 33153 H 3000.13 4.11708 4.08956 0
M  V30 33154 H 2999.85 2.49626 6.61679 0
M  V30 33155 H 2998.86 3.8662 6.00862 0
M  V30 33156 H 3000.69 4.29991 7.97006 0
M  V30 33157 P 2998.82 6.144 6.45285 0
M  V30 33158 O 2998.6 7.54673 6.86199 0
M  V30 33159 O 2998.03 5.12391 7.179 0
M  V30 33160 O 2998.57 5.99158 4.88404 0
M  V30 33161 C 2999.51 6.60234 3.96415 0
M  V30 33162 C 2998.78 7.08259 2.72856 0
M  V30 33163 O 2998.57 5.9427 1.83651 0
M  V30 33164 C 2997.38 7.64886 2.9555 0
M  V30 33165 O 2996.99 8.53963 1.90717 0
M  V30 33166 C 2996.5 6.4116 2.90739 0
M  V30 33167 C 2997.21 5.55375 1.86963 0
M  V30 33168 N 2997.16 4.09448 2.16152 0
M  V30 33169 C 2997.24 3.46824 3.37593 0
M  V30 33170 N 2997.17 2.17422 3.29777 0
M  V30 33171 C 2997.02 1.93065 1.94427 0
M  V30 33172 C 2996.89 0.738053 1.20141 0
M  V30 33173 N 2996.88 -0.474256 1.74676 0
M  V30 33174 N 2996.77 0.850049 -0.13045 0
M  V30 33175 C 2996.78 2.06169 -0.676992 0
M  V30 33176 N 2996.9 3.23842 -0.101312 0
M  V30 33177 C 2997.02 3.09402 1.23122 0
M  V30 33178 H 3000 7.45574 4.45629 0
M  V30 33179 H 3000.27 5.85864 3.679 0
M  V30 33180 H 2999.41 7.84412 2.24479 0
M  V30 33181 H 2996.75 5.73457 0.888562 0
M  V30 33182 H 2996.47 5.90877 3.88583 0
M  V30 33183 H 2995.48 6.6596 2.58858 0
M  V30 33184 H 2997.31 8.16339 3.92049 0
M  V30 33185 H 2997.35 4.00505 4.3174 0
M  V30 33186 H 2996.97 -0.581337 2.76658 0
M  V30 33187 H 2996.78 -1.30811 1.14888 0
M  V30 33188 H 2996.68 2.08295 -1.75542 0
M  V30 33189 P 2995.44 8.7635 1.60911 0
M  V30 33190 O 2995.22 10.1388 1.11561 0
M  V30 33191 O 2994.65 8.36503 2.79617 0
M  V30 33192 O 2995.19 7.71806 0.42951 0
M  V30 33193 C 2996.13 7.67148 -0.673689 0
M  V30 33194 C 2995.4 7.33374 -1.95559 0
M  V30 33195 O 2995.19 5.88721 -2.00726 0
M  V30 33196 C 2994 7.92526 -2.10483 0
M  V30 33197 O 2993.61 8.02971 -3.47653 0
M  V30 33198 C 2993.12 6.89602 -1.41652 0
M  V30 33199 C 2993.83 5.59201 -1.75185 0
M  V30 33200 N 2993.78 4.58301 -0.657969 0
M  V30 33201 H 2996.62 8.65116 -0.777161 0
M  V30 33202 H 2996.89 6.9022 -0.46725 0
M  V30 33203 H 2996.03 7.66548 -2.79458 0
M  V30 33204 H 2993.37 5.16165 -2.65183 0
M  V30 33205 H 2993.09 7.06433 -0.329384 0
M  V30 33206 H 2992.1 6.90926 -1.82021 0
M  V30 33207 H 2993.93 8.90873 -1.62657 0
M  V30 33208 P 2992.06 8.03563 -3.84925 0
M  V30 33209 O 2991.84 8.85821 -5.0569 0
M  V30 33210 O 2991.27 8.41101 -2.65469 0
M  V30 33211 O 2991.81 6.49734 -4.18962 0
M  V30 33212 C 2992.75 5.81037 -5.05421 0
M  V30 33213 C 2992.02 4.79018 -5.88876 0
M  V30 33214 O 2991.81 3.58359 -5.08515 0
M  V30 33215 C 2990.62 5.17448 -6.36119 0
M  V30 33216 O 2990.23 4.45322 -7.53318 0
M  V30 33217 C 2989.74 4.74639 -5.19936 0
M  V30 33218 C 2990.45 3.49432 -4.70418 0
M  V30 33219 N 2990.4 3.31776 -3.22945 0
M  V30 33220 C 2990.25 2.02742 -2.72939 0
M  V30 33221 O 2990.16 1.08301 -3.52749 0
M  V30 33222 N 2990.2 1.96117 -1.22063 0
M  V30 33223 C 2990.3 2.8878 -0.551566 0
M  V30 33224 N 2990.25 2.65609 0.750198 0
M  V30 33225 C 2990.45 4.22457 -1.03707 0
M  V30 33226 C 2990.5 4.37979 -2.39113 0
M  V30 33227 H 2993.24 6.54138 -5.7131 0
M  V30 33228 H 2993.51 5.30492 -4.44033 0
M  V30 33229 H 2992.65 4.55945 -6.76735 0
M  V30 33230 H 2989.99 2.6176 -5.18021 0
M  V30 33231 H 2989.71 5.52233 -4.41941 0
M  V30 33232 H 2988.72 4.52045 -5.53452 0
M  V30 33233 H 2990.55 6.25124 -6.55234 0
M  V30 33234 H 2990.63 5.37936 -2.80552 0
M  V30 33235 H 2990.52 5.07528 -0.359553 0
M  V30 33236 H 2990.14 1.69403 1.09847 0
M  V30 33237 H 2990.33 3.43701 1.41792 0
M  V30 33238 P 2988.68 4.23843 -7.83734 0
M  V30 33239 O 2988.46 4.19407 -9.29784 0
M  V30 33240 O 2987.89 5.24426 -7.09156 0
M  V30 33241 O 2988.43 2.7935 -7.20758 0
M  V30 33242 C 2989.37 1.7299 -7.50419 0
M  V30 33243 C 2988.64 0.406376 -7.57911 0
M  V30 33244 O 2988.43 -0.0897726 -6.21935 0
M  V30 33245 C 2987.24 0.447224 -8.1878 0
M  V30 33246 O 2986.85 -0.825065 -8.71101 0
M  V30 33247 C 2986.36 0.783801 -6.99623 0
M  V30 33248 C 2987.07 0.0619192 -5.85967 0
M  V30 33249 N 2987.02 0.7859 -4.56281 0
M  V30 33250 C 2987.1 2.14308 -4.31736 0
M  V30 33251 N 2987.02 2.46106 -3.05116 0
M  V30 33252 C 2986.88 1.23422 -2.4014 0
M  V30 33253 C 2986.75 0.938381 -1.02409 0
M  V30 33254 N 2986.63 -0.444647 -0.805413 0
M  V30 33255 C 2986.63 -1.40829 -1.79435 0
M  V30 33256 N 2986.5 -2.67213 -1.38558 0
M  V30 33257 N 2986.76 -1.12947 -3.09005 0
M  V30 33258 C 2986.88 0.204887 -3.32369 0
M  V30 33259 H 2989.86 1.93423 -8.4679 0
M  V30 33260 H 2990.13 1.68181 -6.71046 0
M  V30 33261 H 2989.27 -0.289041 -8.15388 0
M  V30 33262 P 2985.3 -1.17771 -8.83182 0
M  V30 33263 O 2985.08 -2.07206 -9.98732 0
M  V30 33264 O 2984.51 0.0743816 -8.81969 0
M  V30 33265 O 2985.05 -1.97652 -7.47304 0
M  V30 33266 C 2985.99 -3.01133 -7.08783 0
M  V30 33267 C 2985.26 -4.12613 -6.37049 0
M  V30 33268 O 2985.05 -3.72827 -4.97879 0
M  V30 33269 C 2983.86 -4.45085 -6.88694 0
M  V30 33270 O 2983.47 -5.7877 -6.5624 0
M  V30 33271 C 2982.98 -3.47817 -6.12078 0
M  V30 33272 C 2983.69 -3.39414 -4.77697 0
M  V30 33273 N 2983.64 -2.04615 -4.15333 0
M  V30 33274 H 2986.48 -3.41248 -7.98759 0
M  V30 33275 H 2986.75 -2.5837 -6.41742 0
M  V30 33276 H 2985.89 -5.02657 -6.42673 0
M  V30 33277 P 2981.92 -6.144 -6.45285 0
M  V30 33278 O 2981.7 -7.54673 -6.86199 0
M  V30 33279 O 2981.13 -5.12391 -7.179 0
M  V30 33280 O 2981.67 -5.99158 -4.88404 0
M  V30 33281 C 2982.61 -6.60234 -3.96415 0
M  V30 33282 C 2981.88 -7.08259 -2.72856 0
M  V30 33283 O 2981.67 -5.9427 -1.83651 0
M  V30 33284 C 2980.48 -7.64886 -2.9555 0
M  V30 33285 O 2980.09 -8.53963 -1.90717 0
M  V30 33286 C 2979.6 -6.4116 -2.90739 0
M  V30 33287 C 2980.31 -5.55375 -1.86963 0
M  V30 33288 N 2980.26 -4.09664 -2.15742 0
M  V30 33289 H 2983.1 -7.45574 -4.45629 0
M  V30 33290 H 2983.37 -5.86232 -3.67314 0
M  V30 33291 H 2982.51 -7.84412 -2.24479 0
M  V30 33292 P 2978.54 -8.7635 -1.60911 0
M  V30 33293 O 2978.32 -10.1388 -1.11561 0
M  V30 33294 O 2977.75 -8.36503 -2.79617 0
M  V30 33295 O 2978.29 -7.71806 -0.42951 0
M  V30 33296 C 2979.23 -7.66948 0.673514 0
M  V30 33297 C 2978.5 -7.33374 1.95559 0
M  V30 33298 O 2978.29 -5.88721 2.00726 0
M  V30 33299 C 2977.1 -7.92218 2.1125 0
M  V30 33300 O 2976.71 -8.02971 3.47653 0
M  V30 33301 C 2976.22 -6.89504 1.41631 0
M  V30 33302 C 2976.93 -5.59106 1.75155 0
M  V30 33303 N 2976.88 -4.58136 0.662409 0
M  V30 33304 C 2976.73 -3.26059 1.02863 0
M  V30 33305 O 2976.64 -2.90743 2.19009 0
M  V30 33306 N 2976.69 -2.35995 -0.0155585 0
M  V30 33307 C 2976.78 -2.65248 -1.35603 0
M  V30 33308 C 2976.93 -4.05747 -1.64698 0
M  V30 33309 C 2976.98 -4.96734 -0.652411 0
M  V30 33310 H 2979.72 -8.64917 0.776982 0
M  V30 33311 H 2979.99 -6.89974 0.474015 0
M  V30 33312 H 2979.13 -7.66548 2.79458 0
M  V30 33313 H 2976.47 -5.16076 2.65138 0
M  V30 33314 H 2976.19 -7.06433 0.329384 0
M  V30 33315 H 2975.2 -6.90829 1.81996 0
M  V30 33316 H 2977.03 -8.90774 1.62639 0
M  V30 33317 H 2977.1 -6.02181 -0.895285 0
M  V30 33318 P 2975.16 -8.03563 3.84925 0
M  V30 33319 O 2974.94 -8.85821 5.0569 0
M  V30 33320 O 2974.37 -8.41101 2.65469 0
M  V30 33321 O 2974.91 -6.4965 4.18908 0
M  V30 33322 C 2975.85 -5.81037 5.05421 0
M  V30 33323 C 2975.12 -4.78366 5.89277 0
M  V30 33324 O 2974.91 -3.58302 5.08433 0
M  V30 33325 C 2973.72 -5.17448 6.36119 0
M  V30 33326 O 2973.33 -4.45271 7.53232 0
M  V30 33327 C 2972.84 -4.74639 5.19936 0
M  V30 33328 C 2973.55 -3.49432 4.70418 0
M  V30 33329 N 2973.5 -3.31776 3.22945 0
M  V30 33330 H 2976.34 -6.54213 5.71376 0
M  V30 33331 H 2976.61 -5.30492 4.44033 0
M  V30 33332 H 2975.75 -4.55889 6.76652 0
M  V30 33333 P 2971.78 -4.23843 7.83734 0
M  V30 33334 O 2971.56 -4.19407 9.29784 0
M  V30 33335 O 2970.99 -5.24426 7.09156 0
M  V30 33336 O 2971.53 -2.7935 7.20758 0
M  V30 33337 C 2972.47 -1.7299 7.50419 0
M  V30 33338 C 2971.74 -0.406376 7.57911 0
M  V30 33339 O 2971.53 0.0897726 6.21935 0
M  V30 33340 C 2970.34 -0.447224 8.1878 0
M  V30 33341 O 2969.95 0.825065 8.71101 0
M  V30 33342 C 2969.46 -0.783801 6.99623 0
M  V30 33343 C 2970.17 -0.0619192 5.85967 0
M  V30 33344 N 2970.12 -0.790462 4.56202 0
M  V30 33345 H 2972.96 -1.93423 8.4679 0
M  V30 33346 H 2973.23 -1.68852 6.70877 0
M  V30 33347 H 2972.37 0.289041 8.15388 0
M  V30 33348 H 2969.71 0.927006 5.72848 0
M  V30 33349 H 2969.43 -1.86973 6.82036 0
M  V30 33350 H 2968.44 -0.403953 7.13357 0
M  V30 33351 H 2970.27 -1.20599 8.97534 0
M  V30 33352 P 2968.4 1.17771 8.83182 0
M  V30 33353 O 2968.18 2.07206 9.98732 0
M  V30 33354 O 2967.61 -0.0743816 8.81969 0
M  V30 33355 O 2968.15 1.97652 7.47304 0
M  V30 33356 C 2969.09 3.01133 7.08783 0
M  V30 33357 C 2968.36 4.12613 6.37049 0
M  V30 33358 O 2968.15 3.72827 4.97879 0
M  V30 33359 C 2966.96 4.45085 6.88694 0
M  V30 33360 O 2966.57 5.7877 6.5624 0
M  V30 33361 C 2966.08 3.47817 6.12078 0
M  V30 33362 C 2966.79 3.39414 4.77697 0
M  V30 33363 N 2966.74 2.04615 4.15333 0
M  V30 33364 C 2966.82 0.803897 4.75249 0
M  V30 33365 N 2966.74 -0.197615 3.91502 0
M  V30 33366 C 2966.6 0.413002 2.66823 0
M  V30 33367 C 2966.47 -0.157221 1.38007 0
M  V30 33368 N 2966.35 0.833136 0.390236 0
M  V30 33369 C 2966.35 2.19402 0.623885 0
M  V30 33370 N 2966.22 2.97622 -0.449677 0
M  V30 33371 N 2966.48 2.73005 1.83601 0
M  V30 33372 C 2966.6 1.78786 2.80935 0
M  V30 33373 H 2969.58 3.41248 7.98759 0
M  V30 33374 H 2969.85 2.5837 6.41742 0
M  V30 33375 H 2968.99 5.02657 6.42673 0
M  V30 33376 P 2965.02 6.144 6.45285 0
M  V30 33377 O 2964.8 7.54673 6.86199 0
M  V30 33378 O 2964.23 5.12391 7.179 0
M  V30 33379 O 2964.77 5.99158 4.88404 0
M  V30 33380 C 2965.71 6.60234 3.96415 0
M  V30 33381 C 2964.98 7.08259 2.72856 0
M  V30 33382 O 2964.77 5.9427 1.83651 0
M  V30 33383 C 2963.58 7.64886 2.9555 0
M  V30 33384 O 2963.19 8.53963 1.90717 0
M  V30 33385 C 2962.7 6.4116 2.90739 0
M  V30 33386 C 2963.41 5.55375 1.86963 0
M  V30 33387 N 2963.36 4.09664 2.15742 0
M  V30 33388 H 2966.2 7.45574 4.45629 0
M  V30 33389 H 2966.47 5.86232 3.67314 0
M  V30 33390 H 2965.61 7.84412 2.24479 0
M  V30 33391 P 2961.64 8.7635 1.60911 0
M  V30 33392 O 2961.42 10.1388 1.11561 0
M  V30 33393 O 2960.85 8.36503 2.79617 0
M  V30 33394 O 2961.39 7.71906 0.429565 0
M  V30 33395 C 2962.33 7.67148 -0.673689 0
M  V30 33396 C 2961.6 7.33666 -1.94851 0
M  V30 33397 O 2961.39 5.88816 -2.00759 0
M  V30 33398 C 2960.2 7.92526 -2.10483 0
M  V30 33399 O 2959.81 8.03063 -3.47693 0
M  V30 33400 C 2959.32 6.89602 -1.41652 0
M  V30 33401 C 2960.03 5.59201 -1.75185 0
M  V30 33402 N 2959.98 4.58235 -0.662552 0
M  V30 33403 C 2959.83 3.24451 -1.01643 0
M  V30 33404 O 2959.74 2.94958 -2.21722 0
M  V30 33405 N 2959.78 2.30408 0.165238 0
M  V30 33406 C 2959.88 2.66048 1.25118 0
M  V30 33407 N 2959.83 1.70787 2.16813 0
M  V30 33408 C 2960.03 4.02732 1.64413 0
M  V30 33409 C 2960.08 4.9488 0.63991 0
M  V30 33410 H 2962.82 8.65017 -0.777072 0
M  V30 33411 H 2963.09 6.90173 -0.474152 0
M  V30 33412 H 2962.23 7.66642 -2.79492 0
M  V30 33413 H 2959.57 5.16254 -2.65229 0
M  V30 33414 H 2959.29 7.06532 -0.329431 0
M  V30 33415 H 2958.3 6.91023 -1.82047 0
M  V30 33416 H 2960.13 8.90873 -1.62657 0
M  V30 33417 H 2960.21 6.00104 0.892197 0
M  V30 33418 H 2960.1 4.31733 2.69229 0
M  V30 33419 H 2959.72 0.724835 1.8844 0
M  V30 33420 H 2959.91 1.94716 3.16734 0
M  V30 33421 P 2958.26 8.03563 -3.84925 0
M  V30 33422 O 2958.04 8.85821 -5.0569 0
M  V30 33423 O 2957.47 8.41101 -2.65469 0
M  V30 33424 O 2958.01 6.4965 -4.18908 0
M  V30 33425 C 2958.95 5.81037 -5.05421 0
M  V30 33426 C 2958.22 4.78366 -5.89277 0
M  V30 33427 O 2958.01 3.58302 -5.08433 0
M  V30 33428 C 2956.82 5.17448 -6.36119 0
M  V30 33429 O 2956.43 4.45271 -7.53232 0
M  V30 33430 C 2955.94 4.74639 -5.19936 0
M  V30 33431 C 2956.65 3.49432 -4.70418 0
M  V30 33432 N 2956.6 3.31776 -3.22945 0
M  V30 33433 H 2959.44 6.54213 -5.71376 0
M  V30 33434 H 2959.71 5.30492 -4.44033 0
M  V30 33435 H 2958.85 4.55889 -6.76652 0
M  V30 33436 P 2954.88 4.23843 -7.83734 0
M  V30 33437 O 2954.66 4.19407 -9.29784 0
M  V30 33438 O 2954.09 5.24426 -7.09156 0
M  V30 33439 O 2954.63 2.7935 -7.20758 0
M  V30 33440 C 2955.57 1.72945 -7.50224 0
M  V30 33441 C 2954.84 0.406376 -7.57911 0
M  V30 33442 O 2954.63 -0.0897726 -6.21935 0
M  V30 33443 C 2953.44 0.438983 -8.18724 0
M  V30 33444 O 2953.05 -0.825065 -8.71101 0
M  V30 33445 C 2952.56 0.783689 -6.99524 0
M  V30 33446 C 2953.27 0.0619086 -5.85867 0
M  V30 33447 N 2953.22 0.78573 -4.56183 0
M  V30 33448 C 2953.07 0.0292889 -3.41887 0
M  V30 33449 O 2952.98 -1.18445 -3.4419 0
M  V30 33450 N 2953.03 0.744061 -2.23964 0
M  V30 33451 C 2953.12 2.10932 -2.10362 0
M  V30 33452 O 2953.07 2.64117 -0.98825 0
M  V30 33453 C 2953.27 2.8202 -3.34994 0
M  V30 33454 C 2953.38 4.31095 -3.25037 0
M  V30 33455 C 2953.32 2.15547 -4.52261 0
M  V30 33456 H 2956.06 1.93379 -8.46595 0
M  V30 33457 H 2956.33 1.68132 -6.70852 0
M  V30 33458 H 2955.47 -0.289041 -8.15388 0
M  V30 33459 H 2952.81 -0.926847 -5.72749 0
M  V30 33460 H 2952.53 1.86973 -6.82036 0
M  V30 33461 H 2951.54 0.403896 -7.13257 0
M  V30 33462 H 2953.37 1.20585 -8.97435 0
M  V30 33463 H 2953.44 2.71231 -5.45042 0
M  V30 33464 H 2952.41 4.76966 -3.49992 0
M  V30 33465 H 2954.15 4.67047 -3.95024 0
M  V30 33466 H 2953.66 4.58996 -2.22312 0
M  V30 33467 H 2952.93 0.214893 -1.39758 0
M  V30 33468 P 2951.5 -1.17771 -8.83182 0
M  V30 33469 O 2951.28 -2.07206 -9.98732 0
M  V30 33470 O 2950.71 0.0743816 -8.81969 0
M  V30 33471 O 2951.25 -1.97652 -7.47304 0
M  V30 33472 C 2952.19 -3.01055 -7.08599 0
M  V30 33473 C 2951.46 -4.12613 -6.37049 0
M  V30 33474 O 2951.25 -3.72827 -4.97879 0
M  V30 33475 C 2950.06 -4.45719 -6.88164 0
M  V30 33476 O 2949.67 -5.7877 -6.5624 0
M  V30 33477 C 2949.18 -3.47768 -6.11991 0
M  V30 33478 C 2949.89 -3.39356 -4.77615 0
M  V30 33479 N 2949.84 -2.04571 -4.15244 0
M  V30 33480 C 2949.69 -1.98587 -2.78314 0
M  V30 33481 O 2949.6 -2.98134 -2.08835 0
M  V30 33482 N 2949.65 -0.714467 -2.24925 0
M  V30 33483 C 2949.74 0.470001 -2.94169 0
M  V30 33484 C 2949.89 0.312541 -4.36783 0
M  V30 33485 C 2949.94 -0.914512 -4.92583 0
M  V30 33486 H 2952.68 -3.41169 -7.98575 0
M  V30 33487 H 2952.95 -2.58295 -6.41556 0
M  V30 33488 H 2952.09 -5.02657 -6.42673 0
M  V30 33489 H 2949.43 -4.11637 -4.08885 0
M  V30 33490 H 2949.15 -2.49626 -6.61679 0
M  V30 33491 H 2948.16 -3.86566 -6.00778 0
M  V30 33492 H 2949.99 -4.29943 -7.96918 0
M  V30 33493 H 2950.06 -1.00937 -6.00374 0
M  V30 33494 P 2948.12 -6.144 -6.45285 0
M  V30 33495 O 2947.9 -7.54673 -6.86199 0
M  V30 33496 O 2947.33 -5.12391 -7.179 0
M  V30 33497 O 2947.87 -5.99158 -4.88404 0
M  V30 33498 C 2948.81 -6.60234 -3.96415 0
M  V30 33499 C 2948.08 -7.08259 -2.72856 0
M  V30 33500 O 2947.87 -5.9427 -1.83651 0
M  V30 33501 C 2946.68 -7.64886 -2.9555 0
M  V30 33502 O 2946.29 -8.53963 -1.90717 0
M  V30 33503 C 2945.8 -6.4116 -2.90739 0
M  V30 33504 C 2946.51 -5.55375 -1.86963 0
M  V30 33505 N 2946.46 -4.09664 -2.15742 0
M  V30 33506 H 2949.3 -7.45574 -4.45629 0
M  V30 33507 H 2949.57 -5.86232 -3.67314 0
M  V30 33508 H 2948.71 -7.84412 -2.24479 0
M  V30 33509 P 2944.74 -8.7635 -1.60911 0
M  V30 33510 O 2944.52 -10.1388 -1.11561 0
M  V30 33511 O 2943.95 -8.36503 -2.79617 0
M  V30 33512 O 2944.49 -7.71806 -0.42951 0
M  V30 33513 C 2945.43 -7.67148 0.673689 0
M  V30 33514 C 2944.7 -7.33374 1.95559 0
M  V30 33515 O 2944.49 -5.88721 2.00726 0
M  V30 33516 C 2943.3 -7.92526 2.10483 0
M  V30 33517 O 2942.91 -8.02971 3.47653 0
M  V30 33518 C 2942.42 -6.89602 1.41652 0
M  V30 33519 C 2943.13 -5.59201 1.75185 0
M  V30 33520 N 2943.08 -4.58301 0.657969 0
M  V30 33521 H 2945.92 -8.65116 0.777161 0
M  V30 33522 H 2946.19 -6.9022 0.46725 0
M  V30 33523 H 2945.33 -7.66548 2.79458 0
M  V30 33524 H 2942.67 -5.16165 2.65183 0
M  V30 33525 H 2942.39 -7.06433 0.329384 0
M  V30 33526 H 2941.4 -6.90926 1.82021 0
M  V30 33527 H 2943.23 -8.90873 1.62657 0
M  V30 33528 P 2941.36 -8.03563 3.84925 0
M  V30 33529 O 2941.14 -8.85821 5.0569 0
M  V30 33530 O 2940.57 -8.41101 2.65469 0
M  V30 33531 O 2941.11 -6.4965 4.18908 0
M  V30 33532 C 2942.05 -5.80886 5.05289 0
M  V30 33533 C 2941.32 -4.78366 5.89277 0
M  V30 33534 O 2941.11 -3.58302 5.08433 0
M  V30 33535 C 2939.92 -5.16748 6.36559 0
M  V30 33536 O 2939.53 -4.45271 7.53232 0
M  V30 33537 C 2939.04 -4.74572 5.19863 0
M  V30 33538 C 2939.75 -3.49373 4.70338 0
M  V30 33539 N 2939.7 -3.31704 3.22876 0
M  V30 33540 C 2939.55 -2.03326 2.74871 0
M  V30 33541 O 2939.46 -1.06486 3.48076 0
M  V30 33542 N 2939.51 -1.91838 1.37456 0
M  V30 33543 C 2939.6 -2.94295 0.462035 0
M  V30 33544 O 2939.55 -2.71763 -0.752928 0
M  V30 33545 C 2939.75 -4.25064 1.05249 0
M  V30 33546 C 2939.86 -5.39815 0.095697 0
M  V30 33547 C 2939.8 -4.40214 2.39192 0
M  V30 33548 H 2942.54 -6.54063 5.71245 0
M  V30 33549 H 2942.81 -5.30339 4.43905 0
M  V30 33550 H 2941.95 -4.55889 6.76652 0
M  V30 33551 H 2939.29 -2.6167 5.17842 0
M  V30 33552 H 2939.01 -5.52155 4.41878 0
M  V30 33553 H 2938.02 -4.51918 5.53297 0
M  V30 33554 H 2939.85 -6.25055 6.55162 0
M  V30 33555 H 2939.92 -5.39798 2.81523 0
M  V30 33556 H 2938.89 -5.91593 0.0279582 0
M  V30 33557 H 2940.63 -6.10038 0.450573 0
M  V30 33558 H 2940.14 -5.02007 -0.89937 0
M  V30 33559 H 2939.41 -0.995326 1.00435 0
M  V30 33560 P 2937.98 -4.23843 7.83734 0
M  V30 33561 O 2937.76 -4.19407 9.29784 0
M  V30 33562 O 2937.19 -5.24426 7.09156 0
M  V30 33563 O 2937.73 -2.7935 7.20758 0
M  V30 33564 C 2938.67 -1.72945 7.50224 0
M  V30 33565 C 2937.94 -0.406376 7.57911 0
M  V30 33566 O 2937.73 0.0897726 6.21935 0
M  V30 33567 C 2936.54 -0.438983 8.18724 0
M  V30 33568 O 2936.15 0.825065 8.71101 0
M  V30 33569 C 2935.66 -0.783689 6.99524 0
M  V30 33570 C 2936.37 -0.0619086 5.85867 0
M  V30 33571 N 2936.32 -0.78573 4.56183 0
M  V30 33572 C 2936.17 -0.0292889 3.41887 0
M  V30 33573 O 2936.08 1.18445 3.4419 0
M  V30 33574 N 2936.13 -0.744061 2.23964 0
M  V30 33575 C 2936.22 -2.10932 2.10362 0
M  V30 33576 O 2936.17 -2.64117 0.98825 0
M  V30 33577 C 2936.37 -2.8202 3.34994 0
M  V30 33578 C 2936.48 -4.31095 3.25037 0
M  V30 33579 C 2936.42 -2.15547 4.52261 0
M  V30 33580 H 2939.16 -1.93379 8.46595 0
M  V30 33581 H 2939.43 -1.68132 6.70852 0
M  V30 33582 H 2938.57 0.289041 8.15388 0
M  V30 33583 H 2935.91 0.926847 5.72749 0
M  V30 33584 H 2935.63 -1.86973 6.82036 0
M  V30 33585 H 2934.64 -0.403896 7.13257 0
M  V30 33586 H 2936.47 -1.20585 8.97435 0
M  V30 33587 H 2936.54 -2.71231 5.45042 0
M  V30 33588 H 2935.51 -4.76966 3.49992 0
M  V30 33589 H 2937.25 -4.67047 3.95024 0
M  V30 33590 H 2936.76 -4.58996 2.22312 0
M  V30 33591 H 2936.03 -0.214893 1.39758 0
M  V30 33592 P 2934.6 1.17771 8.83182 0
M  V30 33593 O 2934.38 2.07206 9.98732 0
M  V30 33594 O 2933.81 -0.0743816 8.81969 0
M  V30 33595 O 2934.35 1.97652 7.47304 0
M  V30 33596 C 2935.29 3.01133 7.08783 0
M  V30 33597 C 2934.56 4.12613 6.37049 0
M  V30 33598 O 2934.35 3.72827 4.97879 0
M  V30 33599 C 2933.16 4.45085 6.88694 0
M  V30 33600 O 2932.77 5.7877 6.5624 0
M  V30 33601 C 2932.28 3.47817 6.12078 0
M  V30 33602 C 2932.99 3.39414 4.77697 0
M  V30 33603 N 2932.94 2.04615 4.15333 0
M  V30 33604 H 2935.78 3.41248 7.98759 0
M  V30 33605 H 2936.05 2.5837 6.41742 0
M  V30 33606 H 2935.19 5.02657 6.42673 0
M  V30 33607 P 2931.22 6.144 6.45285 0
M  V30 33608 O 2931 7.54673 6.86199 0
M  V30 33609 O 2930.43 5.12391 7.179 0
M  V30 33610 O 2930.97 5.99158 4.88404 0
M  V30 33611 C 2931.91 6.60234 3.96415 0
M  V30 33612 C 2931.18 7.08259 2.72856 0
M  V30 33613 O 2930.97 5.9427 1.83651 0
M  V30 33614 C 2929.78 7.64886 2.9555 0
M  V30 33615 O 2929.39 8.53963 1.90717 0
M  V30 33616 C 2928.9 6.4116 2.90739 0
M  V30 33617 C 2929.61 5.55375 1.86963 0
M  V30 33618 N 2929.56 4.09664 2.15742 0
M  V30 33619 H 2932.4 7.45574 4.45629 0
M  V30 33620 H 2932.67 5.86232 3.67314 0
M  V30 33621 H 2931.81 7.84412 2.24479 0
M  V30 33622 P 2927.84 8.7635 1.60911 0
M  V30 33623 O 2927.62 10.1388 1.11561 0
M  V30 33624 O 2927.05 8.36503 2.79617 0
M  V30 33625 O 2927.59 7.71806 0.42951 0
M  V30 33626 C 2928.53 7.67148 -0.673689 0
M  V30 33627 C 2927.8 7.33374 -1.95559 0
M  V30 33628 O 2927.59 5.88721 -2.00726 0
M  V30 33629 C 2926.4 7.92526 -2.10483 0
M  V30 33630 O 2926.01 8.02971 -3.47653 0
M  V30 33631 C 2925.52 6.89602 -1.41652 0
M  V30 33632 C 2926.23 5.59201 -1.75185 0
M  V30 33633 N 2926.18 4.58235 -0.662552 0
M  V30 33634 H 2929.02 8.65116 -0.777161 0
M  V30 33635 H 2929.29 6.90173 -0.474152 0
M  V30 33636 H 2928.43 7.66548 -2.79458 0
M  V30 33637 P 2924.46 8.03563 -3.84925 0
M  V30 33638 O 2924.24 8.85821 -5.0569 0
M  V30 33639 O 2923.67 8.41101 -2.65469 0
M  V30 33640 O 2924.21 6.4965 -4.18908 0
M  V30 33641 C 2925.15 5.81037 -5.05421 0
M  V30 33642 C 2924.42 4.78366 -5.89277 0
M  V30 33643 O 2924.21 3.58302 -5.08433 0
M  V30 33644 C 2923.02 5.17448 -6.36119 0
M  V30 33645 O 2922.63 4.45271 -7.53232 0
M  V30 33646 C 2922.14 4.74639 -5.19936 0
M  V30 33647 C 2922.85 3.49432 -4.70418 0
M  V30 33648 N 2922.8 3.32099 -3.22613 0
M  V30 33649 H 2925.64 6.54213 -5.71376 0
M  V30 33650 H 2925.91 5.30936 -4.43503 0
M  V30 33651 H 2925.05 4.55889 -6.76652 0
M  V30 33652 H 2922.39 2.61715 -5.17932 0
M  V30 33653 H 2922.11 5.52155 -4.41878 0
M  V30 33654 H 2921.12 4.51981 -5.53374 0
M  V30 33655 H 2922.95 6.25124 -6.55234 0
M  V30 33656 P 2921.08 4.23843 -7.83734 0
M  V30 33657 O 2920.86 4.19407 -9.29784 0
M  V30 33658 O 2920.29 5.24426 -7.09156 0
M  V30 33659 O 2920.83 2.7935 -7.20758 0
M  V30 33660 C 2921.77 1.72945 -7.50224 0
M  V30 33661 C 2921.04 0.406376 -7.57911 0
M  V30 33662 O 2920.83 -0.0897726 -6.21935 0
M  V30 33663 C 2919.64 0.438983 -8.18724 0
M  V30 33664 O 2919.25 -0.825065 -8.71101 0
M  V30 33665 C 2918.76 0.783689 -6.99524 0
M  V30 33666 C 2919.47 0.0619086 -5.85867 0
M  V30 33667 N 2919.42 0.78573 -4.56183 0
M  V30 33668 C 2919.27 0.0292889 -3.41887 0
M  V30 33669 O 2919.18 -1.18445 -3.4419 0
M  V30 33670 N 2919.23 0.744061 -2.23964 0
M  V30 33671 C 2919.32 2.10932 -2.10362 0
M  V30 33672 O 2919.27 2.64117 -0.98825 0
M  V30 33673 C 2919.47 2.8202 -3.34994 0
M  V30 33674 C 2919.58 4.31095 -3.25037 0
M  V30 33675 C 2919.52 2.15547 -4.52261 0
M  V30 33676 H 2922.26 1.93379 -8.46595 0
M  V30 33677 H 2922.53 1.68132 -6.70852 0
M  V30 33678 H 2921.67 -0.289041 -8.15388 0
M  V30 33679 H 2919.01 -0.926847 -5.72749 0
M  V30 33680 H 2918.73 1.86973 -6.82036 0
M  V30 33681 H 2917.74 0.403896 -7.13257 0
M  V30 33682 H 2919.57 1.20585 -8.97435 0
M  V30 33683 H 2919.64 2.71231 -5.45042 0
M  V30 33684 H 2918.61 4.76966 -3.49992 0
M  V30 33685 H 2920.35 4.67047 -3.95024 0
M  V30 33686 H 2919.86 4.58996 -2.22312 0
M  V30 33687 H 2919.13 0.214893 -1.39758 0
M  V30 33688 P 2917.7 -1.17771 -8.83182 0
M  V30 33689 O 2917.48 -2.07206 -9.98732 0
M  V30 33690 O 2916.91 0.0743816 -8.81969 0
M  V30 33691 O 2917.45 -1.97652 -7.47304 0
M  V30 33692 C 2918.39 -3.01133 -7.08783 0
M  V30 33693 C 2917.66 -4.12613 -6.37049 0
M  V30 33694 O 2917.45 -3.72827 -4.97879 0
M  V30 33695 C 2916.26 -4.45085 -6.88694 0
M  V30 33696 O 2915.87 -5.7877 -6.5624 0
M  V30 33697 C 2915.38 -3.47817 -6.12078 0
M  V30 33698 C 2916.09 -3.39414 -4.77697 0
M  V30 33699 N 2916.04 -2.04615 -4.15333 0
M  V30 33700 H 2918.88 -3.41248 -7.98759 0
M  V30 33701 H 2919.15 -2.5837 -6.41742 0
M  V30 33702 H 2918.29 -5.02657 -6.42673 0
M  V30 33703 P 2914.32 -6.144 -6.45285 0
M  V30 33704 O 2914.1 -7.54673 -6.86199 0
M  V30 33705 O 2913.53 -5.12391 -7.179 0
M  V30 33706 O 2914.07 -5.99158 -4.88404 0
M  V30 33707 C 2915.01 -6.60234 -3.96415 0
M  V30 33708 C 2914.28 -7.08259 -2.72856 0
M  V30 33709 O 2914.07 -5.9427 -1.83651 0
M  V30 33710 C 2912.88 -7.64886 -2.9555 0
M  V30 33711 O 2912.49 -8.53963 -1.90717 0
M  V30 33712 C 2912 -6.4116 -2.90739 0
M  V30 33713 C 2912.71 -5.55375 -1.86963 0
M  V30 33714 N 2912.66 -4.09664 -2.15742 0
M  V30 33715 H 2915.5 -7.45574 -4.45629 0
M  V30 33716 H 2915.77 -5.86232 -3.67314 0
M  V30 33717 H 2914.91 -7.84412 -2.24479 0
M  V30 33718 P 2910.94 -8.7635 -1.60911 0
M  V30 33719 O 2910.72 -10.1388 -1.11561 0
M  V30 33720 O 2910.15 -8.36503 -2.79617 0
M  V30 33721 O 2910.69 -7.71806 -0.42951 0
M  V30 33722 C 2911.63 -7.67148 0.673689 0
M  V30 33723 C 2910.9 -7.33374 1.95559 0
M  V30 33724 O 2910.69 -5.88721 2.00726 0
M  V30 33725 C 2909.5 -7.92526 2.10483 0
M  V30 33726 O 2909.11 -8.02971 3.47653 0
M  V30 33727 C 2908.62 -6.89602 1.41652 0
M  V30 33728 C 2909.33 -5.59201 1.75185 0
M  V30 33729 N 2909.28 -4.58235 0.662552 0
M  V30 33730 H 2912.12 -8.65116 0.777161 0
M  V30 33731 H 2912.39 -6.90173 0.474152 0
M  V30 33732 H 2911.53 -7.66548 2.79458 0
M  V30 33733 P 2907.56 -8.03563 3.84925 0
M  V30 33734 O 2907.34 -8.85821 5.0569 0
M  V30 33735 O 2906.77 -8.41101 2.65469 0
M  V30 33736 O 2907.31 -6.4965 4.18908 0
M  V30 33737 C 2908.25 -5.81037 5.05421 0
M  V30 33738 C 2907.52 -4.78366 5.89277 0
M  V30 33739 O 2907.31 -3.58302 5.08433 0
M  V30 33740 C 2906.12 -5.17448 6.36119 0
M  V30 33741 O 2905.73 -4.45271 7.53232 0
M  V30 33742 C 2905.24 -4.74639 5.19936 0
M  V30 33743 C 2905.95 -3.49432 4.70418 0
M  V30 33744 N 2905.9 -3.31776 3.22945 0
M  V30 33745 H 2908.74 -6.54213 5.71376 0
M  V30 33746 H 2909.01 -5.30492 4.44033 0
M  V30 33747 H 2908.15 -4.55889 6.76652 0
M  V30 33748 P 2904.18 -4.23843 7.83734 0
M  V30 33749 O 2903.96 -4.19407 9.29784 0
M  V30 33750 O 2903.39 -5.24426 7.09156 0
M  V30 33751 O 2903.93 -2.7935 7.20758 0
M  V30 33752 C 2904.87 -1.7299 7.50419 0
M  V30 33753 C 2904.14 -0.406376 7.57911 0
M  V30 33754 O 2903.93 0.0897726 6.21935 0
M  V30 33755 C 2902.74 -0.447224 8.1878 0
M  V30 33756 O 2902.35 0.825065 8.71101 0
M  V30 33757 C 2901.86 -0.783801 6.99623 0
M  V30 33758 C 2902.57 -0.0619192 5.85967 0
M  V30 33759 N 2902.52 -0.7859 4.56281 0
M  V30 33760 H 2905.36 -1.93423 8.4679 0
M  V30 33761 H 2905.63 -1.68181 6.71046 0
M  V30 33762 H 2904.77 0.289041 8.15388 0
M  V30 33763 P 2900.8 1.17771 8.83182 0
M  V30 33764 O 2900.58 2.07206 9.98732 0
M  V30 33765 O 2900.01 -0.0743816 8.81969 0
M  V30 33766 O 2900.55 1.97652 7.47304 0
M  V30 33767 C 2901.49 3.01055 7.08599 0
M  V30 33768 C 2900.76 4.12613 6.37049 0
M  V30 33769 O 2900.55 3.72827 4.97879 0
M  V30 33770 C 2899.36 4.45719 6.88164 0
M  V30 33771 O 2898.97 5.7877 6.5624 0
M  V30 33772 C 2898.48 3.47768 6.11991 0
M  V30 33773 C 2899.19 3.39356 4.77615 0
M  V30 33774 N 2899.14 2.04571 4.15244 0
M  V30 33775 C 2898.99 1.98587 2.78314 0
M  V30 33776 O 2898.9 2.98134 2.08835 0
M  V30 33777 N 2898.95 0.714467 2.24925 0
M  V30 33778 C 2899.04 -0.470001 2.94169 0
M  V30 33779 O 2898.99 -1.55587 2.35195 0
M  V30 33780 C 2899.19 -0.312541 4.36783 0
M  V30 33781 C 2899.3 -1.57711 5.16352 0
M  V30 33782 C 2899.24 0.914512 4.92583 0
M  V30 33783 H 2901.98 3.41169 7.98575 0
M  V30 33784 H 2902.25 2.58295 6.41556 0
M  V30 33785 H 2901.39 5.02657 6.42673 0
M  V30 33786 H 2898.73 4.11637 4.08885 0
M  V30 33787 H 2898.45 2.49626 6.61679 0
M  V30 33788 H 2897.46 3.86566 6.00778 0
M  V30 33789 H 2899.29 4.29943 7.96918 0
M  V30 33790 H 2899.36 1.00937 6.00374 0
M  V30 33791 H 2898.33 -1.80153 5.63503 0
M  V30 33792 H 2900.07 -1.4566 5.94104 0
M  V30 33793 H 2899.58 -2.40664 4.49645 0
M  V30 33794 H 2898.85 0.647622 1.25697 0
M  V30 33795 P 2897.42 6.144 6.45285 0
M  V30 33796 O 2897.2 7.54673 6.86199 0
M  V30 33797 O 2896.63 5.12391 7.179 0
M  V30 33798 O 2897.17 5.99158 4.88404 0
M  V30 33799 C 2898.11 6.60062 3.96313 0
M  V30 33800 C 2897.38 7.08259 2.72856 0
M  V30 33801 O 2897.17 5.9427 1.83651 0
M  V30 33802 C 2895.98 7.65087 2.94749 0
M  V30 33803 O 2895.59 8.53963 1.90717 0
M  V30 33804 C 2895.1 6.41069 2.90698 0
M  V30 33805 C 2895.81 5.5528 1.86931 0
M  V30 33806 N 2895.76 4.09575 2.15696 0
M  V30 33807 C 2895.61 3.24249 1.08435 0
M  V30 33808 O 2895.52 3.63946 -0.0628747 0
M  V30 33809 N 2895.57 1.90009 1.39973 0
M  V30 33810 C 2895.66 1.34884 2.65614 0
M  V30 33811 O 2895.61 0.123716 2.81728 0
M  V30 33812 C 2895.81 2.3145 3.71736 0
M  V30 33813 C 2895.92 1.75913 5.10438 0
M  V30 33814 C 2895.86 3.63518 3.44754 0
M  V30 33815 H 2898.6 7.45402 4.45526 0
M  V30 33816 H 2898.87 5.86062 3.67208 0
M  V30 33817 H 2898.01 7.84412 2.24479 0
M  V30 33818 H 2895.35 5.73358 0.888409 0
M  V30 33819 H 2895.07 5.90877 3.88583 0
M  V30 33820 H 2894.08 6.65867 2.58821 0
M  V30 33821 H 2895.91 8.16248 3.92006 0
M  V30 33822 H 2895.98 4.34551 4.26383 0
M  V30 33823 H 2894.95 1.85471 5.61775 0
M  V30 33824 H 2896.69 2.31364 5.66257 0
M  V30 33825 H 2896.2 0.695936 5.05229 0
M  V30 33826 H 2895.47 1.26277 0.63625 0
M  V30 33827 P 2894.04 8.7635 1.60911 0
M  V30 33828 O 2893.82 10.1388 1.11561 0
M  V30 33829 O 2893.25 8.36503 2.79617 0
M  V30 33830 O 2893.79 7.71806 0.42951 0
M  V30 33831 C 2894.73 7.67148 -0.673689 0
M  V30 33832 C 2894 7.33374 -1.95559 0
M  V30 33833 O 2893.79 5.88721 -2.00726 0
M  V30 33834 C 2892.6 7.92526 -2.10483 0
M  V30 33835 O 2892.21 8.02971 -3.47653 0
M  V30 33836 C 2891.72 6.89602 -1.41652 0
M  V30 33837 C 2892.43 5.59201 -1.75185 0
M  V30 33838 N 2892.38 4.58235 -0.662552 0
M  V30 33839 H 2895.22 8.65116 -0.777161 0
M  V30 33840 H 2895.49 6.90173 -0.474152 0
M  V30 33841 H 2894.63 7.66548 -2.79458 0
M  V30 33842 P 2890.66 8.03563 -3.84925 0
M  V30 33843 O 2890.44 8.85821 -5.0569 0
M  V30 33844 O 2889.87 8.41101 -2.65469 0
M  V30 33845 O 2890.41 6.4965 -4.18908 0
M  V30 33846 C 2891.35 5.80886 -5.05289 0
M  V30 33847 C 2890.62 4.78366 -5.89277 0
M  V30 33848 O 2890.41 3.58302 -5.08433 0
M  V30 33849 C 2889.22 5.16748 -6.36559 0
M  V30 33850 O 2888.83 4.45271 -7.53232 0
M  V30 33851 C 2888.34 4.74572 -5.19863 0
M  V30 33852 C 2889.05 3.49373 -4.70338 0
M  V30 33853 N 2889 3.31704 -3.22876 0
M  V30 33854 C 2888.85 2.03326 -2.74871 0
M  V30 33855 O 2888.76 1.06486 -3.48076 0
M  V30 33856 N 2888.81 1.91838 -1.37456 0
M  V30 33857 C 2888.9 2.94295 -0.462035 0
M  V30 33858 C 2889.05 4.25064 -1.05249 0
M  V30 33859 C 2889.1 4.40214 -2.39192 0
M  V30 33860 H 2891.84 6.54063 -5.71245 0
M  V30 33861 H 2892.11 5.30339 -4.43905 0
M  V30 33862 H 2891.25 4.55889 -6.76652 0
M  V30 33863 H 2888.59 2.6167 -5.17842 0
M  V30 33864 H 2888.31 5.52155 -4.41878 0
M  V30 33865 H 2887.32 4.51918 -5.53297 0
M  V30 33866 H 2889.15 6.25055 -6.55162 0
M  V30 33867 H 2889.22 5.39798 -2.81523 0
M  V30 33868 P 2887.28 4.23843 -7.83734 0
M  V30 33869 O 2887.06 4.19407 -9.29784 0
M  V30 33870 O 2886.49 5.24426 -7.09156 0
M  V30 33871 O 2887.03 2.7935 -7.20758 0
M  V30 33872 C 2887.97 1.72945 -7.50224 0
M  V30 33873 C 2887.24 0.406376 -7.57911 0
M  V30 33874 O 2887.03 -0.0897726 -6.21935 0
M  V30 33875 C 2885.84 0.438983 -8.18724 0
M  V30 33876 O 2885.45 -0.825065 -8.71101 0
M  V30 33877 C 2884.96 0.783689 -6.99524 0
M  V30 33878 C 2885.67 0.0619086 -5.85867 0
M  V30 33879 N 2885.62 0.78573 -4.56183 0
M  V30 33880 C 2885.47 0.0292889 -3.41887 0
M  V30 33881 O 2885.38 -1.18445 -3.4419 0
M  V30 33882 N 2885.43 0.744061 -2.23964 0
M  V30 33883 C 2885.52 2.10932 -2.10362 0
M  V30 33884 O 2885.47 2.64117 -0.98825 0
M  V30 33885 C 2885.67 2.8202 -3.34994 0
M  V30 33886 C 2885.78 4.31095 -3.25037 0
M  V30 33887 C 2885.72 2.15547 -4.52261 0
M  V30 33888 H 2888.46 1.93379 -8.46595 0
M  V30 33889 H 2888.73 1.68132 -6.70852 0
M  V30 33890 H 2887.87 -0.289041 -8.15388 0
M  V30 33891 H 2885.21 -0.926847 -5.72749 0
M  V30 33892 H 2884.93 1.86973 -6.82036 0
M  V30 33893 H 2883.94 0.403896 -7.13257 0
M  V30 33894 H 2885.77 1.20585 -8.97435 0
M  V30 33895 H 2885.84 2.71231 -5.45042 0
M  V30 33896 H 2884.81 4.76966 -3.49992 0
M  V30 33897 H 2886.55 4.67047 -3.95024 0
M  V30 33898 H 2886.06 4.58996 -2.22312 0
M  V30 33899 H 2885.33 0.214893 -1.39758 0
M  V30 33900 P 2883.9 -1.17771 -8.83182 0
M  V30 33901 O 2883.68 -2.07206 -9.98732 0
M  V30 33902 O 2883.11 0.0743816 -8.81969 0
M  V30 33903 O 2883.65 -1.97652 -7.47304 0
M  V30 33904 C 2884.59 -3.01133 -7.08783 0
M  V30 33905 C 2883.86 -4.12613 -6.37049 0
M  V30 33906 O 2883.65 -3.72827 -4.97879 0
M  V30 33907 C 2882.46 -4.45085 -6.88694 0
M  V30 33908 O 2882.07 -5.7877 -6.5624 0
M  V30 33909 C 2881.58 -3.47817 -6.12078 0
M  V30 33910 C 2882.29 -3.39414 -4.77697 0
M  V30 33911 N 2882.24 -2.04615 -4.15333 0
M  V30 33912 H 2885.08 -3.41248 -7.98759 0
M  V30 33913 H 2885.35 -2.5837 -6.41742 0
M  V30 33914 H 2884.49 -5.02657 -6.42673 0
M  V30 33915 P 2880.52 -6.144 -6.45285 0
M  V30 33916 O 2880.3 -7.54673 -6.86199 0
M  V30 33917 O 2879.73 -5.12391 -7.179 0
M  V30 33918 O 2880.27 -5.99158 -4.88404 0
M  V30 33919 C 2881.21 -6.60234 -3.96415 0
M  V30 33920 C 2880.48 -7.08259 -2.72856 0
M  V30 33921 O 2880.27 -5.9427 -1.83651 0
M  V30 33922 C 2879.08 -7.64886 -2.9555 0
M  V30 33923 O 2878.69 -8.53963 -1.90717 0
M  V30 33924 C 2878.2 -6.4116 -2.90739 0
M  V30 33925 C 2878.91 -5.55375 -1.86963 0
M  V30 33926 N 2878.86 -4.09664 -2.15742 0
M  V30 33927 H 2881.7 -7.45574 -4.45629 0
M  V30 33928 H 2881.97 -5.86232 -3.67314 0
M  V30 33929 H 2881.11 -7.84412 -2.24479 0
M  V30 33930 P 2877.14 -8.7635 -1.60911 0
M  V30 33931 O 2876.92 -10.1388 -1.11561 0
M  V30 33932 O 2876.35 -8.36503 -2.79617 0
M  V30 33933 O 2876.89 -7.71806 -0.42951 0
M  V30 33934 C 2877.83 -7.67148 0.673689 0
M  V30 33935 C 2877.1 -7.33374 1.95559 0
M  V30 33936 O 2876.89 -5.88721 2.00726 0
M  V30 33937 C 2875.7 -7.92526 2.10483 0
M  V30 33938 O 2875.31 -8.02971 3.47653 0
M  V30 33939 C 2874.82 -6.89602 1.41652 0
M  V30 33940 C 2875.53 -5.59201 1.75185 0
M  V30 33941 N 2875.48 -4.58235 0.662552 0
M  V30 33942 C 2875.56 -4.7683 -0.704049 0
M  V30 33943 N 2875.48 -3.66233 -1.39775 0
M  V30 33944 C 2875.34 -2.66526 -0.431739 0
M  V30 33945 C 2875.21 -1.26394 -0.575992 0
M  V30 33946 N 2875.09 -0.62859 0.67177 0
M  V30 33947 C 2875.09 -1.27134 1.89385 0
M  V30 33948 N 2874.96 -0.492035 2.96951 0
M  V30 33949 N 2875.22 -2.58978 2.02907 0
M  V30 33950 C 2875.34 -3.22433 0.832218 0
M  V30 33951 H 2878.32 -8.65116 0.777161 0
M  V30 33952 H 2878.59 -6.90173 0.474152 0
M  V30 33953 H 2877.73 -7.66548 2.79458 0
M  V30 33954 P 2873.76 -8.03563 3.84925 0
M  V30 33955 O 2873.54 -8.85821 5.0569 0
M  V30 33956 O 2872.97 -8.41101 2.65469 0
M  V30 33957 O 2873.51 -6.4965 4.18908 0
M  V30 33958 C 2874.45 -5.81037 5.05421 0
M  V30 33959 C 2873.72 -4.78366 5.89277 0
M  V30 33960 O 2873.51 -3.58302 5.08433 0
M  V30 33961 C 2872.32 -5.17448 6.36119 0
M  V30 33962 O 2871.93 -4.45271 7.53232 0
M  V30 33963 C 2871.44 -4.74639 5.19936 0
M  V30 33964 C 2872.15 -3.49432 4.70418 0
M  V30 33965 N 2872.1 -3.31776 3.22945 0
M  V30 33966 H 2874.94 -6.54213 5.71376 0
M  V30 33967 H 2875.21 -5.30492 4.44033 0
M  V30 33968 H 2874.35 -4.55889 6.76652 0
M  V30 33969 P 2870.38 -4.23843 7.83734 0
M  V30 33970 O 2870.16 -4.19407 9.29784 0
M  V30 33971 O 2869.59 -5.24426 7.09156 0
M  V30 33972 O 2870.13 -2.7935 7.20758 0
M  V30 33973 C 2871.07 -1.72945 7.50224 0
M  V30 33974 C 2870.34 -0.406376 7.57911 0
M  V30 33975 O 2870.13 0.0897726 6.21935 0
M  V30 33976 C 2868.94 -0.438983 8.18724 0
M  V30 33977 O 2868.55 0.825065 8.71101 0
M  V30 33978 C 2868.06 -0.783689 6.99524 0
M  V30 33979 C 2868.77 -0.0619086 5.85867 0
M  V30 33980 N 2868.72 -0.78573 4.56183 0
M  V30 33981 C 2868.57 -0.0292889 3.41887 0
M  V30 33982 O 2868.48 1.18445 3.4419 0
M  V30 33983 N 2868.53 -0.744061 2.23964 0
M  V30 33984 C 2868.62 -2.10932 2.10362 0
M  V30 33985 C 2868.77 -2.8202 3.34994 0
M  V30 33986 C 2868.82 -2.15547 4.52261 0
M  V30 33987 H 2871.56 -1.93379 8.46595 0
M  V30 33988 H 2871.83 -1.68132 6.70852 0
M  V30 33989 H 2870.97 0.289041 8.15388 0
M  V30 33990 H 2868.31 0.926847 5.72749 0
M  V30 33991 H 2868.03 -1.86973 6.82036 0
M  V30 33992 H 2867.04 -0.403896 7.13257 0
M  V30 33993 H 2868.87 -1.20585 8.97435 0
M  V30 33994 H 2868.95 -2.71231 5.45042 0
M  V30 33995 P 2867 1.17771 8.83182 0
M  V30 33996 O 2866.78 2.07206 9.98732 0
M  V30 33997 O 2866.21 -0.0743816 8.81969 0
M  V30 33998 O 2866.75 1.97652 7.47304 0
M  V30 33999 C 2867.69 3.01133 7.08783 0
M  V30 34000 C 2866.96 4.12613 6.37049 0
M  V30 34001 O 2866.75 3.72827 4.97879 0
M  V30 34002 C 2865.56 4.45085 6.88694 0
M  V30 34003 O 2865.17 5.7877 6.5624 0
M  V30 34004 C 2864.68 3.47817 6.12078 0
M  V30 34005 C 2865.39 3.39414 4.77697 0
M  V30 34006 N 2865.34 2.04199 4.15538 0
M  V30 34007 C 2865.42 0.821545 4.76977 0
M  V30 34008 N 2865.35 -0.1794 3.94592 0
M  V30 34009 C 2865.2 0.419121 2.70776 0
M  V30 34010 C 2865.07 -0.109072 1.40577 0
M  V30 34011 N 2865.06 -1.4104 1.1344 0
M  V30 34012 N 2864.95 0.764381 0.39411 0
M  V30 34013 C 2864.96 2.06587 0.664135 0
M  V30 34014 N 2865.08 2.67948 1.82153 0
M  V30 34015 C 2865.2 1.77942 2.8147 0
M  V30 34016 H 2868.18 3.41248 7.98759 0
M  V30 34017 H 2868.45 2.57728 6.42 0
M  V30 34018 H 2867.59 5.02657 6.42673 0
M  V30 34019 H 2864.93 4.11708 4.08956 0
M  V30 34020 H 2864.65 2.49626 6.61679 0
M  V30 34021 H 2863.66 3.8662 6.00862 0
M  V30 34022 H 2865.49 4.29991 7.97006 0
M  V30 34023 H 2865.54 0.702451 5.84696 0
M  V30 34024 H 2865.15 -2.09647 1.89651 0
M  V30 34025 H 2864.97 -1.73358 0.160575 0
M  V30 34026 H 2864.86 2.71695 -0.195838 0
M  V30 34027 P 2863.62 6.144 6.45285 0
M  V30 34028 O 2863.4 7.54673 6.86199 0
M  V30 34029 O 2862.83 5.12391 7.179 0
M  V30 34030 O 2863.37 5.99158 4.88404 0
M  V30 34031 C 2864.31 6.60062 3.96313 0
M  V30 34032 C 2863.58 7.08259 2.72856 0
M  V30 34033 O 2863.37 5.9427 1.83651 0
M  V30 34034 C 2862.18 7.65087 2.94749 0
M  V30 34035 O 2861.79 8.53963 1.90717 0
M  V30 34036 C 2861.3 6.41069 2.90698 0
M  V30 34037 C 2862.01 5.5528 1.86931 0
M  V30 34038 N 2861.96 4.09575 2.15696 0
M  V30 34039 C 2861.81 3.24249 1.08435 0
M  V30 34040 O 2861.72 3.63946 -0.0628747 0
M  V30 34041 N 2861.77 1.90009 1.39973 0
M  V30 34042 C 2861.86 1.34884 2.65614 0
M  V30 34043 O 2861.81 0.123716 2.81728 0
M  V30 34044 C 2862.01 2.3145 3.71736 0
M  V30 34045 C 2862.12 1.75913 5.10438 0
M  V30 34046 C 2862.06 3.63518 3.44754 0
M  V30 34047 H 2864.8 7.45402 4.45526 0
M  V30 34048 H 2865.07 5.86062 3.67208 0
M  V30 34049 H 2864.21 7.84412 2.24479 0
M  V30 34050 H 2861.55 5.73358 0.888409 0
M  V30 34051 H 2861.27 5.90877 3.88583 0
M  V30 34052 H 2860.28 6.65867 2.58821 0
M  V30 34053 H 2862.11 8.16248 3.92006 0
M  V30 34054 H 2862.19 4.34551 4.26383 0
M  V30 34055 H 2861.16 1.85471 5.61775 0
M  V30 34056 H 2862.89 2.31364 5.66257 0
M  V30 34057 H 2862.4 0.695936 5.05229 0
M  V30 34058 H 2861.67 1.26277 0.63625 0
M  V30 34059 P 2860.24 8.7635 1.60911 0
M  V30 34060 O 2860.02 10.1388 1.11561 0
M  V30 34061 O 2859.45 8.36503 2.79617 0
M  V30 34062 O 2859.99 7.71806 0.42951 0
M  V30 34063 C 2860.93 7.67148 -0.673689 0
M  V30 34064 C 2860.2 7.33374 -1.95559 0
M  V30 34065 O 2859.99 5.88721 -2.00726 0
M  V30 34066 C 2858.8 7.92526 -2.10483 0
M  V30 34067 O 2858.41 8.02971 -3.47653 0
M  V30 34068 C 2857.92 6.89602 -1.41652 0
M  V30 34069 C 2858.63 5.59201 -1.75185 0
M  V30 34070 N 2858.58 4.58235 -0.662552 0
M  V30 34071 H 2861.42 8.65116 -0.777161 0
M  V30 34072 H 2861.69 6.90173 -0.474152 0
M  V30 34073 H 2860.83 7.66548 -2.79458 0
M  V30 34074 P 2856.86 8.03563 -3.84925 0
M  V30 34075 O 2856.64 8.85821 -5.0569 0
M  V30 34076 O 2856.07 8.41101 -2.65469 0
M  V30 34077 O 2856.61 6.4965 -4.18908 0
M  V30 34078 C 2857.55 5.81037 -5.05421 0
M  V30 34079 C 2856.82 4.78366 -5.89277 0
M  V30 34080 O 2856.61 3.58302 -5.08433 0
M  V30 34081 C 2855.42 5.17448 -6.36119 0
M  V30 34082 O 2855.03 4.45271 -7.53232 0
M  V30 34083 C 2854.54 4.74639 -5.19936 0
M  V30 34084 C 2855.25 3.49432 -4.70418 0
M  V30 34085 N 2855.2 3.31776 -3.22945 0
M  V30 34086 H 2858.04 6.54213 -5.71376 0
M  V30 34087 H 2858.31 5.30492 -4.44033 0
M  V30 34088 H 2857.45 4.55889 -6.76652 0
M  V30 34089 P 2853.48 4.23843 -7.83734 0
M  V30 34090 O 2853.26 4.19407 -9.29784 0
M  V30 34091 O 2852.69 5.24426 -7.09156 0
M  V30 34092 O 2853.23 2.7935 -7.20758 0
M  V30 34093 C 2854.17 1.7299 -7.50419 0
M  V30 34094 C 2853.44 0.406376 -7.57911 0
M  V30 34095 O 2853.23 -0.0897726 -6.21935 0
M  V30 34096 C 2852.04 0.447224 -8.1878 0
M  V30 34097 O 2851.65 -0.825065 -8.71101 0
M  V30 34098 C 2851.16 0.783801 -6.99623 0
M  V30 34099 C 2851.87 0.0619192 -5.85967 0
M  V30 34100 N 2851.82 0.7859 -4.56281 0
M  V30 34101 H 2854.66 1.93423 -8.4679 0
M  V30 34102 H 2854.93 1.68181 -6.71046 0
M  V30 34103 H 2854.07 -0.289041 -8.15388 0
M  V30 34104 P 2850.1 -1.17771 -8.83182 0
M  V30 34105 O 2849.88 -2.07206 -9.98732 0
M  V30 34106 O 2849.31 0.0743816 -8.81969 0
M  V30 34107 O 2849.85 -1.97652 -7.47304 0
M  V30 34108 C 2850.79 -3.01133 -7.08783 0
M  V30 34109 C 2850.06 -4.12613 -6.37049 0
M  V30 34110 O 2849.85 -3.72827 -4.97879 0
M  V30 34111 C 2848.66 -4.45085 -6.88694 0
M  V30 34112 O 2848.27 -5.7877 -6.5624 0
M  V30 34113 C 2847.78 -3.47817 -6.12078 0
M  V30 34114 C 2848.49 -3.39414 -4.77697 0
M  V30 34115 N 2848.44 -2.04615 -4.15333 0
M  V30 34116 H 2851.28 -3.41248 -7.98759 0
M  V30 34117 H 2851.55 -2.5837 -6.41742 0
M  V30 34118 H 2850.69 -5.02657 -6.42673 0
M  V30 34119 P 2846.72 -6.144 -6.45285 0
M  V30 34120 O 2846.5 -7.54673 -6.86199 0
M  V30 34121 O 2845.93 -5.12391 -7.179 0
M  V30 34122 O 2846.47 -5.99158 -4.88404 0
M  V30 34123 C 2847.41 -6.60062 -3.96313 0
M  V30 34124 C 2846.68 -7.08259 -2.72856 0
M  V30 34125 O 2846.47 -5.9427 -1.83651 0
M  V30 34126 C 2845.28 -7.65087 -2.94749 0
M  V30 34127 O 2844.89 -8.53963 -1.90717 0
M  V30 34128 C 2844.4 -6.41069 -2.90698 0
M  V30 34129 C 2845.11 -5.5528 -1.86931 0
M  V30 34130 N 2845.06 -4.09575 -2.15696 0
M  V30 34131 C 2844.91 -3.24249 -1.08435 0
M  V30 34132 O 2844.82 -3.63946 0.0628747 0
M  V30 34133 N 2844.87 -1.90009 -1.39973 0
M  V30 34134 C 2844.96 -1.34884 -2.65614 0
M  V30 34135 C 2845.11 -2.3145 -3.71736 0
M  V30 34136 C 2845.16 -3.63518 -3.44754 0
M  V30 34137 H 2847.9 -7.45402 -4.45526 0
M  V30 34138 H 2848.17 -5.86062 -3.67208 0
M  V30 34139 H 2847.31 -7.84412 -2.24479 0
M  V30 34140 H 2844.65 -5.73358 -0.888409 0
M  V30 34141 H 2844.37 -5.90877 -3.88583 0
M  V30 34142 H 2843.38 -6.65867 -2.58821 0
M  V30 34143 H 2845.21 -8.16248 -3.92006 0
M  V30 34144 H 2845.29 -4.34551 -4.26383 0
M  V30 34145 P 2843.34 -8.7635 -1.60911 0
M  V30 34146 O 2843.12 -10.1388 -1.11561 0
M  V30 34147 O 2842.55 -8.36503 -2.79617 0
M  V30 34148 O 2843.09 -7.71906 -0.429565 0
M  V30 34149 C 2844.03 -7.67148 0.673689 0
M  V30 34150 C 2843.3 -7.33666 1.94851 0
M  V30 34151 O 2843.09 -5.88816 2.00759 0
M  V30 34152 C 2841.9 -7.92526 2.10483 0
M  V30 34153 O 2841.51 -8.03063 3.47693 0
M  V30 34154 C 2841.02 -6.89602 1.41652 0
M  V30 34155 C 2841.73 -5.59201 1.75185 0
M  V30 34156 N 2841.68 -4.58235 0.662552 0
M  V30 34157 C 2841.53 -3.24451 1.01643 0
M  V30 34158 O 2841.44 -2.94958 2.21722 0
M  V30 34159 N 2841.48 -2.30408 -0.165238 0
M  V30 34160 C 2841.58 -2.66048 -1.25118 0
M  V30 34161 N 2841.53 -1.70787 -2.16813 0
M  V30 34162 C 2841.73 -4.02732 -1.64413 0
M  V30 34163 C 2841.78 -4.9488 -0.63991 0
M  V30 34164 H 2844.52 -8.65017 0.777072 0
M  V30 34165 H 2844.79 -6.90173 0.474152 0
M  V30 34166 H 2843.93 -7.66642 2.79492 0
M  V30 34167 H 2841.27 -5.16254 2.65229 0
M  V30 34168 H 2840.99 -7.06532 0.329431 0
M  V30 34169 H 2840 -6.91023 1.82047 0
M  V30 34170 H 2841.83 -8.90873 1.62657 0
M  V30 34171 H 2841.91 -6.00104 -0.892197 0
M  V30 34172 H 2841.8 -4.31733 -2.69229 0
M  V30 34173 H 2841.42 -0.724835 -1.8844 0
M  V30 34174 H 2841.61 -1.94716 -3.16734 0
M  V30 34175 P 2839.96 -8.03563 3.84925 0
M  V30 34176 O 2839.74 -8.85821 5.0569 0
M  V30 34177 O 2839.17 -8.41101 2.65469 0
M  V30 34178 O 2839.71 -6.4965 4.18908 0
M  V30 34179 C 2840.65 -5.81037 5.05421 0
M  V30 34180 C 2839.92 -4.78366 5.89277 0
M  V30 34181 O 2839.71 -3.58302 5.08433 0
M  V30 34182 C 2838.52 -5.17448 6.36119 0
M  V30 34183 O 2838.13 -4.45271 7.53232 0
M  V30 34184 C 2837.64 -4.74639 5.19936 0
M  V30 34185 C 2838.35 -3.49432 4.70418 0
M  V30 34186 N 2838.3 -3.31776 3.22945 0
M  V30 34187 H 2841.14 -6.54213 5.71376 0
M  V30 34188 H 2841.41 -5.30492 4.44033 0
M  V30 34189 H 2840.55 -4.55889 6.76652 0
M  V30 34190 P 2836.58 -4.23843 7.83734 0
M  V30 34191 O 2836.36 -4.19407 9.29784 0
M  V30 34192 O 2835.79 -5.24426 7.09156 0
M  V30 34193 O 2836.33 -2.7935 7.20758 0
M  V30 34194 C 2837.27 -1.7299 7.50419 0
M  V30 34195 C 2836.54 -0.406376 7.57911 0
M  V30 34196 O 2836.33 0.0897726 6.21935 0
M  V30 34197 C 2835.14 -0.447224 8.1878 0
M  V30 34198 O 2834.75 0.825065 8.71101 0
M  V30 34199 C 2834.26 -0.783801 6.99623 0
M  V30 34200 C 2834.97 -0.0619192 5.85967 0
M  V30 34201 N 2834.92 -0.790462 4.56202 0
M  V30 34202 C 2835 -2.13895 4.34171 0
M  V30 34203 N 2834.93 -2.46449 3.08687 0
M  V30 34204 C 2834.78 -1.2525 2.43697 0
M  V30 34205 C 2834.65 -0.914535 1.07318 0
M  V30 34206 N 2834.64 -1.80782 0.0887348 0
M  V30 34207 N 2834.53 0.386745 0.768133 0
M  V30 34208 C 2834.54 1.28096 1.75159 0
M  V30 34209 N 2834.66 1.09708 3.04861 0
M  V30 34210 C 2834.78 -0.214857 3.32306 0
M  V30 34211 H 2837.76 -1.93423 8.4679 0
M  V30 34212 H 2838.03 -1.68852 6.70877 0
M  V30 34213 H 2837.17 0.289041 8.15388 0
M  V30 34214 H 2834.51 0.927006 5.72848 0
M  V30 34215 H 2834.23 -1.86973 6.82036 0
M  V30 34216 H 2833.24 -0.403953 7.13357 0
M  V30 34217 H 2835.07 -1.20599 8.97534 0
M  V30 34218 H 2835.12 -2.86846 5.14318 0
M  V30 34219 H 2834.73 -2.81082 0.302037 0
M  V30 34220 H 2834.55 -1.49688 -0.889064 0
M  V30 34221 H 2834.44 2.31317 1.43855 0
M  V30 34222 P 2833.2 1.17771 8.83182 0
M  V30 34223 O 2832.98 2.07206 9.98732 0
M  V30 34224 O 2832.41 -0.0743816 8.81969 0
M  V30 34225 O 2832.95 1.97652 7.47304 0
M  V30 34226 C 2833.89 3.01133 7.08783 0
M  V30 34227 C 2833.16 4.12613 6.37049 0
M  V30 34228 O 2832.95 3.72827 4.97879 0
M  V30 34229 C 2831.76 4.45085 6.88694 0
M  V30 34230 O 2831.37 5.7877 6.5624 0
M  V30 34231 C 2830.88 3.47817 6.12078 0
M  V30 34232 C 2831.59 3.39414 4.77697 0
M  V30 34233 N 2831.54 2.04199 4.15538 0
M  V30 34234 C 2831.62 0.821545 4.76977 0
M  V30 34235 N 2831.55 -0.1794 3.94592 0
M  V30 34236 C 2831.4 0.419121 2.70776 0
M  V30 34237 C 2831.27 -0.109072 1.40577 0
M  V30 34238 N 2831.26 -1.4104 1.1344 0
M  V30 34239 N 2831.15 0.764381 0.39411 0
M  V30 34240 C 2831.16 2.06587 0.664135 0
M  V30 34241 N 2831.28 2.67948 1.82153 0
M  V30 34242 C 2831.4 1.77942 2.8147 0
M  V30 34243 H 2834.38 3.41248 7.98759 0
M  V30 34244 H 2834.65 2.57728 6.42 0
M  V30 34245 H 2833.79 5.02657 6.42673 0
M  V30 34246 H 2831.13 4.11708 4.08956 0
M  V30 34247 H 2830.85 2.49626 6.61679 0
M  V30 34248 H 2829.86 3.8662 6.00862 0
M  V30 34249 H 2831.69 4.29991 7.97006 0
M  V30 34250 H 2831.74 0.702451 5.84696 0
M  V30 34251 H 2831.35 -2.09647 1.89651 0
M  V30 34252 H 2831.17 -1.73358 0.160575 0
M  V30 34253 H 2831.06 2.71695 -0.195838 0
M  V30 34254 P 2829.82 6.144 6.45285 0
M  V30 34255 O 2829.6 7.54673 6.86199 0
M  V30 34256 O 2829.03 5.12391 7.179 0
M  V30 34257 O 2829.57 5.99158 4.88404 0
M  V30 34258 C 2830.51 6.60234 3.96415 0
M  V30 34259 C 2829.78 7.08259 2.72856 0
M  V30 34260 O 2829.57 5.9427 1.83651 0
M  V30 34261 C 2828.38 7.64886 2.9555 0
M  V30 34262 O 2827.99 8.53963 1.90717 0
M  V30 34263 C 2827.5 6.4116 2.90739 0
M  V30 34264 C 2828.21 5.55375 1.86963 0
M  V30 34265 N 2828.16 4.09664 2.15742 0
M  V30 34266 H 2831 7.45574 4.45629 0
M  V30 34267 H 2831.27 5.86232 3.67314 0
M  V30 34268 H 2830.41 7.84412 2.24479 0
M  V30 34269 P 2826.44 8.7635 1.60911 0
M  V30 34270 O 2826.22 10.1388 1.11561 0
M  V30 34271 O 2825.65 8.36503 2.79617 0
M  V30 34272 O 2826.19 7.71806 0.42951 0
M  V30 34273 C 2827.13 7.67148 -0.673689 0
M  V30 34274 C 2826.4 7.33374 -1.95559 0
M  V30 34275 O 2826.19 5.88721 -2.00726 0
M  V30 34276 C 2825 7.92526 -2.10483 0
M  V30 34277 O 2824.61 8.02971 -3.47653 0
M  V30 34278 C 2824.12 6.89602 -1.41652 0
M  V30 34279 C 2824.83 5.59201 -1.75185 0
M  V30 34280 N 2824.78 4.58301 -0.657969 0
M  V30 34281 C 2824.86 4.79019 0.692603 0
M  V30 34282 N 2824.79 3.69736 1.38998 0
M  V30 34283 C 2824.64 2.70474 0.438135 0
M  V30 34284 C 2824.51 1.30327 0.538142 0
M  V30 34285 N 2824.5 0.64304 1.69192 0
M  V30 34286 N 2824.39 0.611027 -0.605183 0
M  V30 34287 C 2824.4 1.27002 -1.75953 0
M  V30 34288 N 2824.52 2.56038 -1.98546 0
M  V30 34289 C 2824.64 3.22681 -0.822541 0
M  V30 34290 H 2827.62 8.65116 -0.777161 0
M  V30 34291 H 2827.89 6.9022 -0.46725 0
M  V30 34292 H 2827.03 7.66548 -2.79458 0
M  V30 34293 H 2824.37 5.16165 -2.65183 0
M  V30 34294 H 2824.09 7.06433 -0.329384 0
M  V30 34295 H 2823.1 6.90926 -1.82021 0
M  V30 34296 H 2824.93 8.90873 -1.62657 0
M  V30 34297 H 2824.98 5.77785 1.13874 0
M  V30 34298 H 2824.59 1.15585 2.57991 0
M  V30 34299 H 2824.41 -0.382989 1.69835 0
M  V30 34300 H 2824.3 0.653331 -2.64449 0
M  V30 34301 P 2823.06 8.03563 -3.84925 0
M  V30 34302 O 2822.84 8.85821 -5.0569 0
M  V30 34303 O 2822.27 8.41101 -2.65469 0
M  V30 34304 O 2822.81 6.4965 -4.18908 0
M  V30 34305 C 2823.75 5.80886 -5.05289 0
M  V30 34306 C 2823.02 4.78366 -5.89277 0
M  V30 34307 O 2822.81 3.58302 -5.08433 0
M  V30 34308 C 2821.62 5.16748 -6.36559 0
M  V30 34309 O 2821.23 4.45271 -7.53232 0
M  V30 34310 C 2820.74 4.74572 -5.19863 0
M  V30 34311 C 2821.45 3.49373 -4.70338 0
M  V30 34312 N 2821.4 3.31704 -3.22876 0
M  V30 34313 C 2821.25 2.03326 -2.74871 0
M  V30 34314 O 2821.16 1.06486 -3.48076 0
M  V30 34315 N 2821.21 1.91838 -1.37456 0
M  V30 34316 C 2821.3 2.94295 -0.462035 0
M  V30 34317 O 2821.25 2.71763 0.752928 0
M  V30 34318 C 2821.45 4.25064 -1.05249 0
M  V30 34319 C 2821.56 5.39815 -0.095697 0
M  V30 34320 C 2821.5 4.40214 -2.39192 0
M  V30 34321 H 2824.24 6.54063 -5.71245 0
M  V30 34322 H 2824.51 5.30339 -4.43905 0
M  V30 34323 H 2823.65 4.55889 -6.76652 0
M  V30 34324 H 2820.99 2.6167 -5.17842 0
M  V30 34325 H 2820.71 5.52155 -4.41878 0
M  V30 34326 H 2819.72 4.51918 -5.53297 0
M  V30 34327 H 2821.55 6.25055 -6.55162 0
M  V30 34328 H 2821.63 5.39798 -2.81523 0
M  V30 34329 H 2820.6 5.91593 -0.0279582 0
M  V30 34330 H 2822.33 6.10038 -0.450573 0
M  V30 34331 H 2821.84 5.02007 0.89937 0
M  V30 34332 H 2821.11 0.995326 -1.00435 0
M  V30 34333 P 2819.68 4.23843 -7.83734 0
M  V30 34334 O 2819.46 4.19407 -9.29784 0
M  V30 34335 O 2818.89 5.24426 -7.09156 0
M  V30 34336 O 2819.43 2.7935 -7.20758 0
M  V30 34337 C 2820.37 1.72945 -7.50224 0
M  V30 34338 C 2819.64 0.406376 -7.57911 0
M  V30 34339 O 2819.43 -0.0897726 -6.21935 0
M  V30 34340 C 2818.24 0.438983 -8.18724 0
M  V30 34341 O 2817.85 -0.825065 -8.71101 0
M  V30 34342 C 2817.36 0.783689 -6.99524 0
M  V30 34343 C 2818.07 0.0619086 -5.85867 0
M  V30 34344 N 2818.02 0.78573 -4.56183 0
M  V30 34345 C 2817.87 0.0292889 -3.41887 0
M  V30 34346 O 2817.78 -1.18445 -3.4419 0
M  V30 34347 N 2817.83 0.744061 -2.23964 0
M  V30 34348 C 2817.92 2.10932 -2.10362 0
M  V30 34349 O 2817.87 2.64117 -0.98825 0
M  V30 34350 C 2818.07 2.8202 -3.34994 0
M  V30 34351 C 2818.18 4.31095 -3.25037 0
M  V30 34352 C 2818.12 2.15547 -4.52261 0
M  V30 34353 H 2820.86 1.93379 -8.46595 0
M  V30 34354 H 2821.13 1.68132 -6.70852 0
M  V30 34355 H 2820.27 -0.289041 -8.15388 0
M  V30 34356 H 2817.61 -0.926847 -5.72749 0
M  V30 34357 H 2817.33 1.86973 -6.82036 0
M  V30 34358 H 2816.34 0.403896 -7.13257 0
M  V30 34359 H 2818.17 1.20585 -8.97435 0
M  V30 34360 H 2818.25 2.71231 -5.45042 0
M  V30 34361 H 2817.22 4.76966 -3.49992 0
M  V30 34362 H 2818.95 4.67047 -3.95024 0
M  V30 34363 H 2818.46 4.58996 -2.22312 0
M  V30 34364 H 2817.73 0.214893 -1.39758 0
M  V30 34365 P 2816.3 -1.17771 -8.83182 0
M  V30 34366 O 2816.08 -2.07206 -9.98732 0
M  V30 34367 O 2815.51 0.0743816 -8.81969 0
M  V30 34368 O 2816.05 -1.97652 -7.47304 0
M  V30 34369 C 2816.99 -3.01133 -7.08783 0
M  V30 34370 C 2816.26 -4.12613 -6.37049 0
M  V30 34371 O 2816.05 -3.72827 -4.97879 0
M  V30 34372 C 2814.86 -4.45085 -6.88694 0
M  V30 34373 O 2814.47 -5.7877 -6.5624 0
M  V30 34374 C 2813.98 -3.47817 -6.12078 0
M  V30 34375 C 2814.69 -3.39414 -4.77697 0
M  V30 34376 N 2814.64 -2.04615 -4.15333 0
M  V30 34377 H 2817.48 -3.41248 -7.98759 0
M  V30 34378 H 2817.75 -2.5837 -6.41742 0
M  V30 34379 H 2816.89 -5.02657 -6.42673 0
M  V30 34380 P 2812.92 -6.144 -6.45285 0
M  V30 34381 O 2812.7 -7.54673 -6.86199 0
M  V30 34382 O 2812.13 -5.12391 -7.179 0
M  V30 34383 O 2812.67 -5.99158 -4.88404 0
M  V30 34384 C 2813.61 -6.60234 -3.96415 0
M  V30 34385 C 2812.88 -7.08259 -2.72856 0
M  V30 34386 O 2812.67 -5.9427 -1.83651 0
M  V30 34387 C 2811.48 -7.64886 -2.9555 0
M  V30 34388 O 2811.09 -8.53963 -1.90717 0
M  V30 34389 C 2810.6 -6.4116 -2.90739 0
M  V30 34390 C 2811.31 -5.55375 -1.86963 0
M  V30 34391 N 2811.26 -4.09664 -2.15742 0
M  V30 34392 H 2814.1 -7.45574 -4.45629 0
M  V30 34393 H 2814.37 -5.86232 -3.67314 0
M  V30 34394 H 2813.51 -7.84412 -2.24479 0
M  V30 34395 P 2809.54 -8.7635 -1.60911 0
M  V30 34396 O 2809.32 -10.1388 -1.11561 0
M  V30 34397 O 2808.75 -8.36503 -2.79617 0
M  V30 34398 O 2809.29 -7.71806 -0.42951 0
M  V30 34399 C 2810.23 -7.67148 0.673689 0
M  V30 34400 C 2809.5 -7.33374 1.95559 0
M  V30 34401 O 2809.29 -5.88721 2.00726 0
M  V30 34402 C 2808.1 -7.92526 2.10483 0
M  V30 34403 O 2807.71 -8.02971 3.47653 0
M  V30 34404 C 2807.22 -6.89602 1.41652 0
M  V30 34405 C 2807.93 -5.59201 1.75185 0
M  V30 34406 N 2807.88 -4.58235 0.662552 0
M  V30 34407 H 2810.72 -8.65116 0.777161 0
M  V30 34408 H 2810.99 -6.90173 0.474152 0
M  V30 34409 H 2810.13 -7.66548 2.79458 0
M  V30 34410 P 2806.16 -8.03563 3.84925 0
M  V30 34411 O 2805.94 -8.85821 5.0569 0
M  V30 34412 O 2805.37 -8.41101 2.65469 0
M  V30 34413 O 2805.91 -6.4965 4.18908 0
M  V30 34414 C 2806.85 -5.81037 5.05421 0
M  V30 34415 C 2806.12 -4.78366 5.89277 0
M  V30 34416 O 2805.91 -3.58302 5.08433 0
M  V30 34417 C 2804.72 -5.17448 6.36119 0
M  V30 34418 O 2804.33 -4.45271 7.53232 0
M  V30 34419 C 2803.84 -4.74639 5.19936 0
M  V30 34420 C 2804.55 -3.49432 4.70418 0
M  V30 34421 N 2804.5 -3.31776 3.22945 0
M  V30 34422 C 2804.58 -4.27147 2.23315 0
M  V30 34423 N 2804.5 -3.78447 1.02186 0
M  V30 34424 C 2804.36 -2.41001 1.21732 0
M  V30 34425 C 2804.23 -1.36111 0.27694 0
M  V30 34426 O 2804.21 -1.42065 -0.951767 0
M  V30 34427 N 2804.11 -0.113683 0.912949 0
M  V30 34428 C 2804.11 0.0846396 2.27943 0
M  V30 34429 N 2803.98 1.34737 2.6916 0
M  V30 34430 N 2804.24 -0.902521 3.16379 0
M  V30 34431 C 2804.36 -2.11937 2.56849 0
M  V30 34432 H 2807.34 -6.54213 5.71376 0
M  V30 34433 H 2807.61 -5.30492 4.44033 0
M  V30 34434 H 2806.75 -4.55889 6.76652 0
M  V30 34435 H 2804.09 -2.6176 5.18021 0
M  V30 34436 H 2803.81 -5.52233 4.41941 0
M  V30 34437 H 2802.82 -4.52045 5.53452 0
M  V30 34438 H 2804.65 -6.25193 6.55307 0
M  V30 34439 H 2804.7 -5.3351 2.43857 0
M  V30 34440 H 2804.02 0.69331 0.330371 0
M  V30 34441 H 2803.98 1.56433 3.6988 0
M  V30 34442 H 2803.88 2.10701 2.00133 0
M  V30 34443 P 2802.78 -4.23843 7.83734 0
M  V30 34444 O 2802.56 -4.19407 9.29784 0
M  V30 34445 O 2801.99 -5.24426 7.09156 0
M  V30 34446 O 2802.53 -2.7935 7.20758 0
M  V30 34447 C 2803.47 -1.7299 7.50419 0
M  V30 34448 C 2802.74 -0.406376 7.57911 0
M  V30 34449 O 2802.53 0.0897726 6.21935 0
M  V30 34450 C 2801.34 -0.447224 8.1878 0
M  V30 34451 O 2800.95 0.825065 8.71101 0
M  V30 34452 C 2800.46 -0.783801 6.99623 0
M  V30 34453 C 2801.17 -0.0619192 5.85967 0
M  V30 34454 N 2801.12 -0.7859 4.56281 0
M  V30 34455 H 2803.96 -1.93423 8.4679 0
M  V30 34456 H 2804.23 -1.68181 6.71046 0
M  V30 34457 H 2803.37 0.289041 8.15388 0
M  V30 34458 P 2799.4 1.17771 8.83182 0
M  V30 34459 O 2799.18 2.07206 9.98732 0
M  V30 34460 O 2798.61 -0.0743816 8.81969 0
M  V30 34461 O 2799.15 1.97652 7.47304 0
M  V30 34462 C 2800.09 3.01133 7.08783 0
M  V30 34463 C 2799.36 4.12613 6.37049 0
M  V30 34464 O 2799.15 3.72827 4.97879 0
M  V30 34465 C 2797.96 4.45085 6.88694 0
M  V30 34466 O 2797.57 5.7877 6.5624 0
M  V30 34467 C 2797.08 3.47817 6.12078 0
M  V30 34468 C 2797.79 3.39414 4.77697 0
M  V30 34469 N 2797.74 2.04615 4.15333 0
M  V30 34470 H 2800.58 3.41248 7.98759 0
M  V30 34471 H 2800.85 2.5837 6.41742 0
M  V30 34472 H 2799.99 5.02657 6.42673 0
M  V30 34473 P 2796.02 6.144 6.45285 0
M  V30 34474 O 2795.8 7.54673 6.86199 0
M  V30 34475 O 2795.23 5.12391 7.179 0
M  V30 34476 O 2795.77 5.99158 4.88404 0
M  V30 34477 C 2796.71 6.60234 3.96415 0
M  V30 34478 C 2795.98 7.08259 2.72856 0
M  V30 34479 O 2795.77 5.9427 1.83651 0
M  V30 34480 C 2794.58 7.64886 2.9555 0
M  V30 34481 O 2794.19 8.53963 1.90717 0
M  V30 34482 C 2793.7 6.4116 2.90739 0
M  V30 34483 C 2794.41 5.55375 1.86963 0
M  V30 34484 N 2794.36 4.09664 2.15742 0
M  V30 34485 H 2797.2 7.45574 4.45629 0
M  V30 34486 H 2797.47 5.86232 3.67314 0
M  V30 34487 H 2796.61 7.84412 2.24479 0
M  V30 34488 P 2792.64 8.7635 1.60911 0
M  V30 34489 O 2792.42 10.1388 1.11561 0
M  V30 34490 O 2791.85 8.36503 2.79617 0
M  V30 34491 O 2792.39 7.71906 0.429565 0
M  V30 34492 C 2793.33 7.67148 -0.673689 0
M  V30 34493 C 2792.6 7.33666 -1.94851 0
M  V30 34494 O 2792.39 5.88816 -2.00759 0
M  V30 34495 C 2791.2 7.92526 -2.10483 0
M  V30 34496 O 2790.81 8.03063 -3.47693 0
M  V30 34497 C 2790.32 6.89602 -1.41652 0
M  V30 34498 C 2791.03 5.59201 -1.75185 0
M  V30 34499 N 2790.98 4.58235 -0.662552 0
M  V30 34500 C 2790.83 3.24451 -1.01643 0
M  V30 34501 O 2790.74 2.94958 -2.21722 0
M  V30 34502 N 2790.78 2.30408 0.165238 0
M  V30 34503 C 2790.88 2.66048 1.25118 0
M  V30 34504 N 2790.83 1.70787 2.16813 0
M  V30 34505 C 2791.03 4.02732 1.64413 0
M  V30 34506 C 2791.08 4.9488 0.63991 0
M  V30 34507 H 2793.82 8.65017 -0.777072 0
M  V30 34508 H 2794.09 6.90173 -0.474152 0
M  V30 34509 H 2793.23 7.66642 -2.79492 0
M  V30 34510 H 2790.57 5.16254 -2.65229 0
M  V30 34511 H 2790.29 7.06532 -0.329431 0
M  V30 34512 H 2789.3 6.91023 -1.82047 0
M  V30 34513 H 2791.13 8.90873 -1.62657 0
M  V30 34514 H 2791.21 6.00104 0.892197 0
M  V30 34515 H 2791.1 4.31733 2.69229 0
M  V30 34516 H 2790.72 0.724835 1.8844 0
M  V30 34517 H 2790.91 1.94716 3.16734 0
M  V30 34518 P 2789.26 8.03563 -3.84925 0
M  V30 34519 O 2789.04 8.85821 -5.0569 0
M  V30 34520 O 2788.47 8.41101 -2.65469 0
M  V30 34521 O 2789.01 6.4965 -4.18908 0
M  V30 34522 C 2789.95 5.81037 -5.05421 0
M  V30 34523 C 2789.22 4.78366 -5.89277 0
M  V30 34524 O 2789.01 3.58302 -5.08433 0
M  V30 34525 C 2787.82 5.17448 -6.36119 0
M  V30 34526 O 2787.43 4.45271 -7.53232 0
M  V30 34527 C 2786.94 4.74639 -5.19936 0
M  V30 34528 C 2787.65 3.49432 -4.70418 0
M  V30 34529 N 2787.6 3.31776 -3.22945 0
M  V30 34530 H 2790.44 6.54213 -5.71376 0
M  V30 34531 H 2790.71 5.30492 -4.44033 0
M  V30 34532 H 2789.85 4.55889 -6.76652 0
M  V30 34533 P 2785.88 4.23843 -7.83734 0
M  V30 34534 O 2785.66 4.19407 -9.29784 0
M  V30 34535 O 2785.09 5.24426 -7.09156 0
M  V30 34536 O 2785.63 2.7935 -7.20758 0
M  V30 34537 C 2786.57 1.7299 -7.50419 0
M  V30 34538 C 2785.84 0.406376 -7.57911 0
M  V30 34539 O 2785.63 -0.0897726 -6.21935 0
M  V30 34540 C 2784.44 0.447224 -8.1878 0
M  V30 34541 O 2784.05 -0.825065 -8.71101 0
M  V30 34542 C 2783.56 0.783801 -6.99623 0
M  V30 34543 C 2784.27 0.0619192 -5.85967 0
M  V30 34544 N 2784.22 0.7859 -4.56281 0
M  V30 34545 H 2787.06 1.93423 -8.4679 0
M  V30 34546 H 2787.33 1.68181 -6.71046 0
M  V30 34547 H 2786.47 -0.289041 -8.15388 0
M  V30 34548 P 2782.5 -1.17771 -8.83182 0
M  V30 34549 O 2782.28 -2.07206 -9.98732 0
M  V30 34550 O 2781.71 0.0743816 -8.81969 0
M  V30 34551 O 2782.25 -1.97652 -7.47304 0
M  V30 34552 C 2783.19 -3.01133 -7.08783 0
M  V30 34553 C 2782.46 -4.12613 -6.37049 0
M  V30 34554 O 2782.25 -3.72827 -4.97879 0
M  V30 34555 C 2781.06 -4.45085 -6.88694 0
M  V30 34556 O 2780.67 -5.7877 -6.5624 0
M  V30 34557 C 2780.18 -3.47817 -6.12078 0
M  V30 34558 C 2780.89 -3.39414 -4.77697 0
M  V30 34559 N 2780.84 -2.04615 -4.15333 0
M  V30 34560 H 2783.68 -3.41248 -7.98759 0
M  V30 34561 H 2783.95 -2.5837 -6.41742 0
M  V30 34562 H 2783.09 -5.02657 -6.42673 0
M  V30 34563 P 2779.12 -6.144 -6.45285 0
M  V30 34564 O 2778.9 -7.54673 -6.86199 0
M  V30 34565 O 2778.33 -5.12391 -7.179 0
M  V30 34566 O 2778.87 -5.99236 -4.88467 0
M  V30 34567 C 2779.81 -6.60234 -3.96415 0
M  V30 34568 C 2779.08 -7.08079 -2.736 0
M  V30 34569 O 2778.87 -5.94365 -1.8368 0
M  V30 34570 C 2777.68 -7.64886 -2.9555 0
M  V30 34571 O 2777.29 -8.5406 -1.90739 0
M  V30 34572 C 2776.8 -6.4116 -2.90739 0
M  V30 34573 C 2777.51 -5.55375 -1.86963 0
M  V30 34574 N 2777.46 -4.09664 -2.15742 0
M  V30 34575 C 2777.31 -3.22231 -1.08477 0
M  V30 34576 O 2777.22 -3.68951 0.0600489 0
M  V30 34577 N 2777.26 -1.76692 -1.48799 0
M  V30 34578 C 2777.36 -1.41695 -2.57602 0
M  V30 34579 N 2777.31 -0.107296 -2.75791 0
M  V30 34580 C 2777.51 -2.29178 -3.69733 0
M  V30 34581 C 2777.56 -3.62753 -3.42653 0
M  V30 34582 H 2780.3 -7.45488 -4.45578 0
M  V30 34583 H 2780.57 -5.86232 -3.67314 0
M  V30 34584 H 2779.71 -7.84508 -2.24507 0
M  V30 34585 H 2777.05 -5.73556 -0.888715 0
M  V30 34586 H 2776.77 -5.9096 -3.88638 0
M  V30 34587 H 2775.78 -6.66053 -2.58894 0
M  V30 34588 H 2777.61 -8.16339 -3.92049 0
M  V30 34589 H 2777.69 -4.33052 -4.24913 0
M  V30 34590 H 2777.58 -1.9103 -4.71577 0
M  V30 34591 H 2777.2 0.521221 -1.95056 0
M  V30 34592 H 2777.39 0.286429 -3.70695 0
M  V30 34593 P 2775.74 -8.7635 -1.60911 0
M  V30 34594 O 2775.52 -10.1388 -1.11561 0
M  V30 34595 O 2774.95 -8.36503 -2.79617 0
M  V30 34596 O 2775.49 -7.71806 -0.42951 0
M  V30 34597 C 2776.43 -7.67148 0.673689 0
M  V30 34598 C 2775.7 -7.33374 1.95559 0
M  V30 34599 O 2775.49 -5.88721 2.00726 0
M  V30 34600 C 2774.3 -7.92526 2.10483 0
M  V30 34601 O 2773.91 -8.02971 3.47653 0
M  V30 34602 C 2773.42 -6.89602 1.41652 0
M  V30 34603 C 2774.13 -5.59201 1.75185 0
M  V30 34604 N 2774.08 -4.58301 0.657969 0
M  V30 34605 C 2774.16 -4.79019 -0.692603 0
M  V30 34606 N 2774.09 -3.69736 -1.38998 0
M  V30 34607 C 2773.94 -2.70474 -0.438135 0
M  V30 34608 C 2773.81 -1.30327 -0.538142 0
M  V30 34609 N 2773.8 -0.64304 -1.69192 0
M  V30 34610 N 2773.69 -0.611027 0.605183 0
M  V30 34611 C 2773.7 -1.27002 1.75953 0
M  V30 34612 N 2773.82 -2.56038 1.98546 0
M  V30 34613 C 2773.94 -3.22681 0.822541 0
M  V30 34614 H 2776.92 -8.65116 0.777161 0
M  V30 34615 H 2777.19 -6.9022 0.46725 0
M  V30 34616 H 2776.33 -7.66548 2.79458 0
M  V30 34617 H 2773.67 -5.16165 2.65183 0
M  V30 34618 H 2773.39 -7.06433 0.329384 0
M  V30 34619 H 2772.4 -6.90926 1.82021 0
M  V30 34620 H 2774.23 -8.90873 1.62657 0
M  V30 34621 H 2774.28 -5.77785 -1.13874 0
M  V30 34622 H 2773.89 -1.15585 -2.57991 0
M  V30 34623 H 2773.71 0.382989 -1.69835 0
M  V30 34624 H 2773.6 -0.653331 2.64449 0
M  V30 34625 P 2772.36 -8.03563 3.84925 0
M  V30 34626 O 2772.14 -8.85821 5.0569 0
M  V30 34627 O 2771.57 -8.41101 2.65469 0
M  V30 34628 O 2772.11 -6.4965 4.18908 0
M  V30 34629 C 2773.05 -5.81037 5.05421 0
M  V30 34630 C 2772.32 -4.78366 5.89277 0
M  V30 34631 O 2772.11 -3.58302 5.08433 0
M  V30 34632 C 2770.92 -5.17448 6.36119 0
M  V30 34633 O 2770.53 -4.45271 7.53232 0
M  V30 34634 C 2770.04 -4.74639 5.19936 0
M  V30 34635 C 2770.75 -3.49432 4.70418 0
M  V30 34636 N 2770.7 -3.31776 3.22945 0
M  V30 34637 H 2773.54 -6.54213 5.71376 0
M  V30 34638 H 2773.81 -5.30492 4.44033 0
M  V30 34639 H 2772.95 -4.55889 6.76652 0
M  V30 34640 P 2768.98 -4.23843 7.83734 0
M  V30 34641 O 2768.76 -4.19407 9.29784 0
M  V30 34642 O 2768.19 -5.24426 7.09156 0
M  V30 34643 O 2768.73 -2.79386 7.20852 0
M  V30 34644 C 2769.67 -1.7299 7.50419 0
M  V30 34645 C 2768.94 -0.41401 7.5797 0
M  V30 34646 O 2768.73 0.089787 6.22035 0
M  V30 34647 C 2767.54 -0.447224 8.1878 0
M  V30 34648 O 2767.15 0.825159 8.71201 0
M  V30 34649 C 2766.66 -0.783801 6.99623 0
M  V30 34650 C 2767.37 -0.0619192 5.85967 0
M  V30 34651 N 2767.32 -0.7859 4.56281 0
M  V30 34652 C 2767.17 -0.0359258 3.39981 0
M  V30 34653 O 2767.08 1.19723 3.49038 0
M  V30 34654 N 2767.12 -0.869151 2.14025 0
M  V30 34655 C 2767.22 -2.01207 2.14363 0
M  V30 34656 N 2767.17 -2.58978 0.954287 0
M  V30 34657 C 2767.37 -2.80817 3.32215 0
M  V30 34658 C 2767.42 -2.13785 4.50884 0
M  V30 34659 H 2770.16 -1.93401 8.46693 0
M  V30 34660 H 2770.43 -1.68181 6.71046 0
M  V30 34661 H 2769.57 0.289076 8.15488 0
M  V30 34662 H 2766.91 0.927166 5.72947 0
M  V30 34663 H 2766.63 -1.87 6.82132 0
M  V30 34664 H 2765.64 -0.404009 7.13457 0
M  V30 34665 H 2767.47 -1.20599 8.97534 0
M  V30 34666 H 2767.55 -2.70295 5.43162 0
M  V30 34667 H 2767.44 -3.89465 3.27406 0
M  V30 34668 H 2767.06 -2.01616 0.107046 0
M  V30 34669 H 2767.25 -3.61403 0.873101 0
M  V30 34670 P 2765.6 1.17771 8.83182 0
M  V30 34671 O 2765.38 2.07206 9.98732 0
M  V30 34672 O 2764.81 -0.0743816 8.81969 0
M  V30 34673 O 2765.35 1.97652 7.47304 0
M  V30 34674 C 2766.29 3.01133 7.08783 0
M  V30 34675 C 2765.56 4.12613 6.37049 0
M  V30 34676 O 2765.35 3.72827 4.97879 0
M  V30 34677 C 2764.16 4.45085 6.88694 0
M  V30 34678 O 2763.77 5.7877 6.5624 0
M  V30 34679 C 2763.28 3.47817 6.12078 0
M  V30 34680 C 2763.99 3.39414 4.77697 0
M  V30 34681 N 2763.94 2.04615 4.15333 0
M  V30 34682 C 2764.02 0.803897 4.75249 0
M  V30 34683 N 2763.94 -0.197615 3.91502 0
M  V30 34684 C 2763.8 0.413002 2.66823 0
M  V30 34685 C 2763.67 -0.157221 1.38007 0
M  V30 34686 N 2763.55 0.833136 0.390236 0
M  V30 34687 C 2763.55 2.19402 0.623885 0
M  V30 34688 N 2763.42 2.97622 -0.449677 0
M  V30 34689 N 2763.68 2.73005 1.83601 0
M  V30 34690 C 2763.8 1.78786 2.80935 0
M  V30 34691 H 2766.78 3.41248 7.98759 0
M  V30 34692 H 2767.05 2.5837 6.41742 0
M  V30 34693 H 2766.19 5.02657 6.42673 0
M  V30 34694 P 2762.22 6.144 6.45285 0
M  V30 34695 O 2762 7.54673 6.86199 0
M  V30 34696 O 2761.43 5.12391 7.179 0
M  V30 34697 O 2761.97 5.99158 4.88404 0
M  V30 34698 C 2762.91 6.60234 3.96415 0
M  V30 34699 C 2762.18 7.08259 2.72856 0
M  V30 34700 O 2761.97 5.9427 1.83651 0
M  V30 34701 C 2760.78 7.64886 2.9555 0
M  V30 34702 O 2760.39 8.53963 1.90717 0
M  V30 34703 C 2759.9 6.4116 2.90739 0
M  V30 34704 C 2760.61 5.55375 1.86963 0
M  V30 34705 N 2760.56 4.09664 2.15742 0
M  V30 34706 H 2763.4 7.45574 4.45629 0
M  V30 34707 H 2763.67 5.86232 3.67314 0
M  V30 34708 H 2762.81 7.84412 2.24479 0
M  V30 34709 P 2758.84 8.7635 1.60911 0
M  V30 34710 O 2758.62 10.1388 1.11561 0
M  V30 34711 O 2758.05 8.36503 2.79617 0
M  V30 34712 O 2758.59 7.71806 0.42951 0
M  V30 34713 C 2759.53 7.67148 -0.673689 0
M  V30 34714 C 2758.8 7.33374 -1.95559 0
M  V30 34715 O 2758.59 5.88721 -2.00726 0
M  V30 34716 C 2757.4 7.92526 -2.10483 0
M  V30 34717 O 2757.01 8.02971 -3.47653 0
M  V30 34718 C 2756.52 6.89602 -1.41652 0
M  V30 34719 C 2757.23 5.59201 -1.75185 0
M  V30 34720 N 2757.18 4.58301 -0.657969 0
M  V30 34721 H 2760.02 8.65116 -0.777161 0
M  V30 34722 H 2760.29 6.9022 -0.46725 0
M  V30 34723 H 2759.43 7.66548 -2.79458 0
M  V30 34724 H 2756.77 5.16165 -2.65183 0
M  V30 34725 H 2756.49 7.06433 -0.329384 0
M  V30 34726 H 2755.5 6.90926 -1.82021 0
M  V30 34727 H 2757.33 8.90873 -1.62657 0
M  V30 34728 P 2755.46 8.03563 -3.84925 0
M  V30 34729 O 2755.24 8.85821 -5.0569 0
M  V30 34730 O 2754.67 8.41101 -2.65469 0
M  V30 34731 O 2755.21 6.4965 -4.18908 0
M  V30 34732 C 2756.15 5.81037 -5.05421 0
M  V30 34733 C 2755.42 4.78366 -5.89277 0
M  V30 34734 O 2755.21 3.58302 -5.08433 0
M  V30 34735 C 2754.02 5.17448 -6.36119 0
M  V30 34736 O 2753.63 4.45271 -7.53232 0
M  V30 34737 C 2753.14 4.74639 -5.19936 0
M  V30 34738 C 2753.85 3.49432 -4.70418 0
M  V30 34739 N 2753.8 3.31776 -3.22945 0
M  V30 34740 H 2756.64 6.54213 -5.71376 0
M  V30 34741 H 2756.91 5.30492 -4.44033 0
M  V30 34742 H 2756.05 4.55889 -6.76652 0
M  V30 34743 P 2752.08 4.23843 -7.83734 0
M  V30 34744 O 2751.86 4.19407 -9.29784 0
M  V30 34745 O 2751.29 5.24426 -7.09156 0
M  V30 34746 O 2751.83 2.7935 -7.20758 0
M  V30 34747 C 2752.77 1.7299 -7.50419 0
M  V30 34748 C 2752.04 0.406376 -7.57911 0
M  V30 34749 O 2751.83 -0.0897726 -6.21935 0
M  V30 34750 C 2750.64 0.447224 -8.1878 0
M  V30 34751 O 2750.25 -0.825065 -8.71101 0
M  V30 34752 C 2749.76 0.783801 -6.99623 0
M  V30 34753 C 2750.47 0.0619192 -5.85967 0
M  V30 34754 N 2750.42 0.7859 -4.56281 0
M  V30 34755 C 2750.5 2.14308 -4.31736 0
M  V30 34756 N 2750.42 2.46106 -3.05116 0
M  V30 34757 C 2750.28 1.23422 -2.4014 0
M  V30 34758 C 2750.15 0.938381 -1.02409 0
M  V30 34759 O 2750.13 1.70876 -0.0650402 0
M  V30 34760 N 2750.03 -0.444647 -0.805413 0
M  V30 34761 C 2750.03 -1.40829 -1.79435 0
M  V30 34762 N 2749.9 -2.67213 -1.38558 0
M  V30 34763 N 2750.16 -1.12947 -3.09005 0
M  V30 34764 C 2750.28 0.204887 -3.32369 0
M  V30 34765 H 2753.26 1.93423 -8.4679 0
M  V30 34766 H 2753.53 1.68181 -6.71046 0
M  V30 34767 H 2752.67 -0.289041 -8.15388 0
M  V30 34768 H 2750.01 -0.927166 -5.72947 0
M  V30 34769 H 2749.73 1.87 -6.82132 0
M  V30 34770 H 2748.74 0.404009 -7.13457 0
M  V30 34771 H 2750.57 1.20612 -8.97633 0
M  V30 34772 H 2750.62 2.88284 -5.10874 0
M  V30 34773 H 2749.94 -0.755087 0.140242 0
M  V30 34774 H 2749.9 -3.43967 -2.0729 0
M  V30 34775 H 2749.8 -2.88096 -0.380644 0
M  V30 34776 P 2748.7 -1.17771 -8.83182 0
M  V30 34777 O 2748.48 -2.07206 -9.98732 0
M  V30 34778 O 2747.91 0.0743816 -8.81969 0
M  V30 34779 O 2748.45 -1.97652 -7.47304 0
M  V30 34780 C 2749.39 -3.01133 -7.08783 0
M  V30 34781 C 2748.66 -4.12613 -6.37049 0
M  V30 34782 O 2748.45 -3.72827 -4.97879 0
M  V30 34783 C 2747.26 -4.45085 -6.88694 0
M  V30 34784 O 2746.87 -5.7877 -6.5624 0
M  V30 34785 C 2746.38 -3.47817 -6.12078 0
M  V30 34786 C 2747.09 -3.39414 -4.77697 0
M  V30 34787 N 2747.04 -2.04615 -4.15333 0
M  V30 34788 H 2749.88 -3.41248 -7.98759 0
M  V30 34789 H 2750.15 -2.5837 -6.41742 0
M  V30 34790 H 2749.29 -5.02657 -6.42673 0
M  V30 34791 P 2745.32 -6.144 -6.45285 0
M  V30 34792 O 2745.1 -7.54673 -6.86199 0
M  V30 34793 O 2744.53 -5.12391 -7.179 0
M  V30 34794 O 2745.07 -5.99158 -4.88404 0
M  V30 34795 C 2746.01 -6.60234 -3.96415 0
M  V30 34796 C 2745.28 -7.08259 -2.72856 0
M  V30 34797 O 2745.07 -5.9427 -1.83651 0
M  V30 34798 C 2743.88 -7.64886 -2.9555 0
M  V30 34799 O 2743.49 -8.53963 -1.90717 0
M  V30 34800 C 2743 -6.4116 -2.90739 0
M  V30 34801 C 2743.71 -5.55375 -1.86963 0
M  V30 34802 N 2743.66 -4.09664 -2.15742 0
M  V30 34803 H 2746.5 -7.45574 -4.45629 0
M  V30 34804 H 2746.77 -5.86232 -3.67314 0
M  V30 34805 H 2745.91 -7.84412 -2.24479 0
M  V30 34806 P 2741.94 -8.7635 -1.60911 0
M  V30 34807 O 2741.72 -10.1388 -1.11561 0
M  V30 34808 O 2741.15 -8.36503 -2.79617 0
M  V30 34809 O 2741.69 -7.71806 -0.42951 0
M  V30 34810 C 2742.63 -7.67148 0.673689 0
M  V30 34811 C 2741.9 -7.33374 1.95559 0
M  V30 34812 O 2741.69 -5.88721 2.00726 0
M  V30 34813 C 2740.5 -7.92526 2.10483 0
M  V30 34814 O 2740.11 -8.02971 3.47653 0
M  V30 34815 C 2739.62 -6.89602 1.41652 0
M  V30 34816 C 2740.33 -5.59201 1.75185 0
M  V30 34817 N 2740.28 -4.58301 0.657969 0
M  V30 34818 H 2743.12 -8.65116 0.777161 0
M  V30 34819 H 2743.39 -6.9022 0.46725 0
M  V30 34820 H 2742.53 -7.66548 2.79458 0
M  V30 34821 H 2739.87 -5.16165 2.65183 0
M  V30 34822 H 2739.59 -7.06433 0.329384 0
M  V30 34823 H 2738.6 -6.90926 1.82021 0
M  V30 34824 H 2740.43 -8.90873 1.62657 0
M  V30 34825 P 2738.56 -8.03563 3.84925 0
M  V30 34826 O 2738.34 -8.85821 5.0569 0
M  V30 34827 O 2737.77 -8.41101 2.65469 0
M  V30 34828 O 2738.31 -6.4965 4.18908 0
M  V30 34829 C 2739.25 -5.81037 5.05421 0
M  V30 34830 C 2738.52 -4.78366 5.89277 0
M  V30 34831 O 2738.31 -3.58302 5.08433 0
M  V30 34832 C 2737.12 -5.17448 6.36119 0
M  V30 34833 O 2736.73 -4.45271 7.53232 0
M  V30 34834 C 2736.24 -4.74639 5.19936 0
M  V30 34835 C 2736.95 -3.49432 4.70418 0
M  V30 34836 N 2736.9 -3.31776 3.22945 0
M  V30 34837 H 2739.74 -6.54213 5.71376 0
M  V30 34838 H 2740.01 -5.30492 4.44033 0
M  V30 34839 H 2739.15 -4.55889 6.76652 0
M  V30 34840 P 2735.18 -4.23843 7.83734 0
M  V30 34841 O 2734.96 -4.19407 9.29784 0
M  V30 34842 O 2734.39 -5.24426 7.09156 0
M  V30 34843 O 2734.93 -2.7935 7.20758 0
M  V30 34844 C 2735.87 -1.72945 7.50224 0
M  V30 34845 C 2735.14 -0.406376 7.57911 0
M  V30 34846 O 2734.93 0.0897726 6.21935 0
M  V30 34847 C 2733.74 -0.438983 8.18724 0
M  V30 34848 O 2733.35 0.825065 8.71101 0
M  V30 34849 C 2732.86 -0.783689 6.99524 0
M  V30 34850 C 2733.57 -0.0619086 5.85867 0
M  V30 34851 N 2733.52 -0.78573 4.56183 0
M  V30 34852 C 2733.37 -0.0292889 3.41887 0
M  V30 34853 O 2733.28 1.18445 3.4419 0
M  V30 34854 N 2733.33 -0.744061 2.23964 0
M  V30 34855 C 2733.42 -2.10932 2.10362 0
M  V30 34856 O 2733.37 -2.64117 0.98825 0
M  V30 34857 C 2733.57 -2.8202 3.34994 0
M  V30 34858 C 2733.68 -4.31095 3.25037 0
M  V30 34859 C 2733.62 -2.15547 4.52261 0
M  V30 34860 H 2736.36 -1.93379 8.46595 0
M  V30 34861 H 2736.63 -1.68132 6.70852 0
M  V30 34862 H 2735.77 0.289041 8.15388 0
M  V30 34863 H 2733.11 0.926847 5.72749 0
M  V30 34864 H 2732.83 -1.86973 6.82036 0
M  V30 34865 H 2731.84 -0.403896 7.13257 0
M  V30 34866 H 2733.67 -1.20585 8.97435 0
M  V30 34867 H 2733.75 -2.71231 5.45042 0
M  V30 34868 H 2732.72 -4.76966 3.49992 0
M  V30 34869 H 2734.45 -4.67047 3.95024 0
M  V30 34870 H 2733.96 -4.58996 2.22312 0
M  V30 34871 H 2733.23 -0.214893 1.39758 0
M  V30 34872 P 2731.8 1.17771 8.83182 0
M  V30 34873 O 2731.58 2.07206 9.98732 0
M  V30 34874 O 2731.01 -0.0743816 8.81969 0
M  V30 34875 O 2731.55 1.97652 7.47304 0
M  V30 34876 C 2732.49 3.01055 7.08599 0
M  V30 34877 C 2731.76 4.12613 6.37049 0
M  V30 34878 O 2731.55 3.72827 4.97879 0
M  V30 34879 C 2730.36 4.45719 6.88164 0
M  V30 34880 O 2729.97 5.7877 6.5624 0
M  V30 34881 C 2729.48 3.47768 6.11991 0
M  V30 34882 C 2730.19 3.39356 4.77615 0
M  V30 34883 N 2730.14 2.04571 4.15244 0
M  V30 34884 C 2729.99 1.98587 2.78314 0
M  V30 34885 O 2729.9 2.98134 2.08835 0
M  V30 34886 N 2729.95 0.714467 2.24925 0
M  V30 34887 C 2730.04 -0.470001 2.94169 0
M  V30 34888 O 2729.99 -1.55587 2.35195 0
M  V30 34889 C 2730.19 -0.312541 4.36783 0
M  V30 34890 C 2730.3 -1.57711 5.16352 0
M  V30 34891 C 2730.24 0.914512 4.92583 0
M  V30 34892 H 2732.98 3.41169 7.98575 0
M  V30 34893 H 2733.25 2.58295 6.41556 0
M  V30 34894 H 2732.39 5.02657 6.42673 0
M  V30 34895 H 2729.73 4.11637 4.08885 0
M  V30 34896 H 2729.45 2.49626 6.61679 0
M  V30 34897 H 2728.46 3.86566 6.00778 0
M  V30 34898 H 2730.29 4.29943 7.96918 0
M  V30 34899 H 2730.37 1.00937 6.00374 0
M  V30 34900 H 2729.34 -1.80153 5.63503 0
M  V30 34901 H 2731.07 -1.4566 5.94104 0
M  V30 34902 H 2730.58 -2.40664 4.49645 0
M  V30 34903 H 2729.85 0.647622 1.25697 0
M  V30 34904 P 2728.42 6.144 6.45285 0
M  V30 34905 O 2728.2 7.54673 6.86199 0
M  V30 34906 O 2727.63 5.12391 7.179 0
M  V30 34907 O 2728.17 5.99158 4.88404 0
M  V30 34908 C 2729.11 6.60234 3.96415 0
M  V30 34909 C 2728.38 7.08259 2.72856 0
M  V30 34910 O 2728.17 5.9427 1.83651 0
M  V30 34911 C 2726.98 7.64886 2.9555 0
M  V30 34912 O 2726.59 8.53963 1.90717 0
M  V30 34913 C 2726.1 6.4116 2.90739 0
M  V30 34914 C 2726.81 5.55375 1.86963 0
M  V30 34915 N 2726.76 4.09664 2.15742 0
M  V30 34916 H 2729.6 7.45574 4.45629 0
M  V30 34917 H 2729.87 5.86232 3.67314 0
M  V30 34918 H 2729.01 7.84412 2.24479 0
M  V30 34919 P 2725.04 8.7635 1.60911 0
M  V30 34920 O 2724.82 10.1388 1.11561 0
M  V30 34921 O 2724.25 8.36503 2.79617 0
M  V30 34922 O 2724.79 7.71806 0.42951 0
M  V30 34923 C 2725.73 7.67148 -0.673689 0
M  V30 34924 C 2725 7.33374 -1.95559 0
M  V30 34925 O 2724.79 5.88721 -2.00726 0
M  V30 34926 C 2723.6 7.92526 -2.10483 0
M  V30 34927 O 2723.21 8.02971 -3.47653 0
M  V30 34928 C 2722.72 6.89602 -1.41652 0
M  V30 34929 C 2723.43 5.59201 -1.75185 0
M  V30 34930 N 2723.38 4.58235 -0.662552 0
M  V30 34931 H 2726.22 8.65116 -0.777161 0
M  V30 34932 H 2726.49 6.90173 -0.474152 0
M  V30 34933 H 2725.63 7.66548 -2.79458 0
M  V30 34934 P 2721.66 8.03563 -3.84925 0
M  V30 34935 O 2721.44 8.85821 -5.0569 0
M  V30 34936 O 2720.87 8.41101 -2.65469 0
M  V30 34937 O 2721.41 6.4965 -4.18908 0
M  V30 34938 C 2722.35 5.81037 -5.05421 0
M  V30 34939 C 2721.62 4.78366 -5.89277 0
M  V30 34940 O 2721.41 3.58302 -5.08433 0
M  V30 34941 C 2720.22 5.17448 -6.36119 0
M  V30 34942 O 2719.83 4.45271 -7.53232 0
M  V30 34943 C 2719.34 4.74639 -5.19936 0
M  V30 34944 C 2720.05 3.49432 -4.70418 0
M  V30 34945 N 2720 3.32099 -3.22613 0
M  V30 34946 H 2722.84 6.54213 -5.71376 0
M  V30 34947 H 2723.11 5.30936 -4.43503 0
M  V30 34948 H 2722.25 4.55889 -6.76652 0
M  V30 34949 H 2719.59 2.61715 -5.17932 0
M  V30 34950 H 2719.31 5.52155 -4.41878 0
M  V30 34951 H 2718.32 4.51981 -5.53374 0
M  V30 34952 H 2720.15 6.25124 -6.55234 0
M  V30 34953 P 2718.28 4.23843 -7.83734 0
M  V30 34954 O 2718.06 4.19407 -9.29784 0
M  V30 34955 O 2717.49 5.24426 -7.09156 0
M  V30 34956 O 2718.03 2.7935 -7.20758 0
M  V30 34957 C 2718.97 1.7299 -7.50419 0
M  V30 34958 C 2718.24 0.406376 -7.57911 0
M  V30 34959 O 2718.03 -0.0897726 -6.21935 0
M  V30 34960 C 2716.84 0.447224 -8.1878 0
M  V30 34961 O 2716.45 -0.825065 -8.71101 0
M  V30 34962 C 2715.96 0.783801 -6.99623 0
M  V30 34963 C 2716.67 0.0619192 -5.85967 0
M  V30 34964 N 2716.62 0.790462 -4.56202 0
M  V30 34965 H 2719.46 1.93423 -8.4679 0
M  V30 34966 H 2719.73 1.68852 -6.70877 0
M  V30 34967 H 2718.87 -0.289041 -8.15388 0
M  V30 34968 H 2716.21 -0.927006 -5.72848 0
M  V30 34969 H 2715.93 1.86973 -6.82036 0
M  V30 34970 H 2714.94 0.403953 -7.13357 0
M  V30 34971 H 2716.77 1.20599 -8.97534 0
M  V30 34972 P 2714.9 -1.17771 -8.83182 0
M  V30 34973 O 2714.68 -2.07206 -9.98732 0
M  V30 34974 O 2714.11 0.0743816 -8.81969 0
M  V30 34975 O 2714.65 -1.97652 -7.47304 0
M  V30 34976 C 2715.59 -3.01133 -7.08783 0
M  V30 34977 C 2714.86 -4.12613 -6.37049 0
M  V30 34978 O 2714.65 -3.72827 -4.97879 0
M  V30 34979 C 2713.46 -4.45085 -6.88694 0
M  V30 34980 O 2713.07 -5.7877 -6.5624 0
M  V30 34981 C 2712.58 -3.47817 -6.12078 0
M  V30 34982 C 2713.29 -3.39414 -4.77697 0
M  V30 34983 N 2713.24 -2.04615 -4.15333 0
M  V30 34984 H 2716.08 -3.41248 -7.98759 0
M  V30 34985 H 2716.35 -2.5837 -6.41742 0
M  V30 34986 H 2715.49 -5.02657 -6.42673 0
M  V30 34987 P 2711.52 -6.144 -6.45285 0
M  V30 34988 O 2711.3 -7.54673 -6.86199 0
M  V30 34989 O 2710.73 -5.12391 -7.179 0
M  V30 34990 O 2711.27 -5.99158 -4.88404 0
M  V30 34991 C 2712.21 -6.60234 -3.96415 0
M  V30 34992 C 2711.48 -7.08259 -2.72856 0
M  V30 34993 O 2711.27 -5.9427 -1.83651 0
M  V30 34994 C 2710.08 -7.64886 -2.9555 0
M  V30 34995 O 2709.69 -8.53963 -1.90717 0
M  V30 34996 C 2709.2 -6.4116 -2.90739 0
M  V30 34997 C 2709.91 -5.55375 -1.86963 0
M  V30 34998 N 2709.86 -4.09664 -2.15742 0
M  V30 34999 H 2712.7 -7.45574 -4.45629 0
M  V30 35000 H 2712.97 -5.86232 -3.67314 0
M  V30 35001 H 2712.11 -7.84412 -2.24479 0
M  V30 35002 P 2708.14 -8.7635 -1.60911 0
M  V30 35003 O 2707.92 -10.1388 -1.11561 0
M  V30 35004 O 2707.35 -8.36503 -2.79617 0
M  V30 35005 O 2707.89 -7.71806 -0.42951 0
M  V30 35006 C 2708.83 -7.67148 0.673689 0
M  V30 35007 C 2708.1 -7.33374 1.95559 0
M  V30 35008 O 2707.89 -5.88721 2.00726 0
M  V30 35009 C 2706.7 -7.92526 2.10483 0
M  V30 35010 O 2706.31 -8.02971 3.47653 0
M  V30 35011 C 2705.82 -6.89602 1.41652 0
M  V30 35012 C 2706.53 -5.59201 1.75185 0
M  V30 35013 N 2706.48 -4.58235 0.662552 0
M  V30 35014 H 2709.32 -8.65116 0.777161 0
M  V30 35015 H 2709.6 -6.90173 0.474152 0
M  V30 35016 H 2708.73 -7.66548 2.79458 0
M  V30 35017 P 2704.76 -8.03563 3.84925 0
M  V30 35018 O 2704.54 -8.85821 5.0569 0
M  V30 35019 O 2703.97 -8.41101 2.65469 0
M  V30 35020 O 2704.51 -6.4965 4.18908 0
M  V30 35021 C 2705.45 -5.80886 5.05289 0
M  V30 35022 C 2704.72 -4.78366 5.89277 0
M  V30 35023 O 2704.51 -3.58302 5.08433 0
M  V30 35024 C 2703.32 -5.16748 6.36559 0
M  V30 35025 O 2702.93 -4.45271 7.53232 0
M  V30 35026 C 2702.44 -4.74572 5.19863 0
M  V30 35027 C 2703.15 -3.49373 4.70338 0
M  V30 35028 N 2703.1 -3.31704 3.22876 0
M  V30 35029 C 2702.95 -2.03326 2.74871 0
M  V30 35030 O 2702.86 -1.06486 3.48076 0
M  V30 35031 N 2702.91 -1.91838 1.37456 0
M  V30 35032 C 2703 -2.94295 0.462035 0
M  V30 35033 O 2702.95 -2.71763 -0.752928 0
M  V30 35034 C 2703.15 -4.25064 1.05249 0
M  V30 35035 C 2703.26 -5.39815 0.095697 0
M  V30 35036 C 2703.2 -4.40214 2.39192 0
M  V30 35037 H 2705.95 -6.54063 5.71245 0
M  V30 35038 H 2706.21 -5.30339 4.43905 0
M  V30 35039 H 2705.35 -4.55889 6.76652 0
M  V30 35040 H 2702.69 -2.6167 5.17842 0
M  V30 35041 H 2702.41 -5.52155 4.41878 0
M  V30 35042 H 2701.42 -4.51918 5.53297 0
M  V30 35043 H 2703.26 -6.25055 6.55162 0
M  V30 35044 H 2703.33 -5.39798 2.81523 0
M  V30 35045 H 2702.3 -5.91593 0.0279582 0
M  V30 35046 H 2704.03 -6.10038 0.450573 0
M  V30 35047 H 2703.55 -5.02007 -0.89937 0
M  V30 35048 H 2702.81 -0.995326 1.00435 0
M  V30 35049 P 2701.38 -4.23843 7.83734 0
M  V30 35050 O 2701.16 -4.19407 9.29784 0
M  V30 35051 O 2700.59 -5.24426 7.09156 0
M  V30 35052 O 2701.13 -2.7935 7.20758 0
M  V30 35053 C 2702.07 -1.7299 7.50419 0
M  V30 35054 C 2701.34 -0.406376 7.57911 0
M  V30 35055 O 2701.13 0.0897726 6.21935 0
M  V30 35056 C 2699.94 -0.447224 8.1878 0
M  V30 35057 O 2699.55 0.825065 8.71101 0
M  V30 35058 C 2699.06 -0.783801 6.99623 0
M  V30 35059 C 2699.77 -0.0619192 5.85967 0
M  V30 35060 N 2699.72 -0.7859 4.56281 0
M  V30 35061 H 2702.56 -1.93423 8.4679 0
M  V30 35062 H 2702.84 -1.68181 6.71046 0
M  V30 35063 H 2701.97 0.289041 8.15388 0
M  V30 35064 P 2698 1.17771 8.83182 0
M  V30 35065 O 2697.78 2.07206 9.98732 0
M  V30 35066 O 2697.21 -0.0743816 8.81969 0
M  V30 35067 O 2697.75 1.97652 7.47304 0
M  V30 35068 C 2698.69 3.01133 7.08783 0
M  V30 35069 C 2697.96 4.12613 6.37049 0
M  V30 35070 O 2697.75 3.72827 4.97879 0
M  V30 35071 C 2696.56 4.45085 6.88694 0
M  V30 35072 O 2696.17 5.7877 6.5624 0
M  V30 35073 C 2695.68 3.47817 6.12078 0
M  V30 35074 C 2696.39 3.39414 4.77697 0
M  V30 35075 N 2696.34 2.04615 4.15333 0
M  V30 35076 H 2699.18 3.41248 7.98759 0
M  V30 35077 H 2699.46 2.5837 6.41742 0
M  V30 35078 H 2698.59 5.02657 6.42673 0
M  V30 35079 P 2694.62 6.144 6.45285 0
M  V30 35080 O 2694.4 7.54673 6.86199 0
M  V30 35081 O 2693.83 5.12391 7.179 0
M  V30 35082 O 2694.37 5.99158 4.88404 0
M  V30 35083 C 2695.31 6.60234 3.96415 0
M  V30 35084 C 2694.58 7.08259 2.72856 0
M  V30 35085 O 2694.37 5.9427 1.83651 0
M  V30 35086 C 2693.18 7.64886 2.9555 0
M  V30 35087 O 2692.79 8.53963 1.90717 0
M  V30 35088 C 2692.3 6.4116 2.90739 0
M  V30 35089 C 2693.01 5.55375 1.86963 0
M  V30 35090 N 2692.96 4.09664 2.15742 0
M  V30 35091 H 2695.8 7.45574 4.45629 0
M  V30 35092 H 2696.08 5.86232 3.67314 0
M  V30 35093 H 2695.21 7.84412 2.24479 0
M  V30 35094 P 2691.24 8.7635 1.60911 0
M  V30 35095 O 2691.02 10.1388 1.11561 0
M  V30 35096 O 2690.45 8.36503 2.79617 0
M  V30 35097 O 2690.99 7.71806 0.42951 0
M  V30 35098 C 2691.93 7.67148 -0.673689 0
M  V30 35099 C 2691.2 7.33374 -1.95559 0
M  V30 35100 O 2690.99 5.88721 -2.00726 0
M  V30 35101 C 2689.8 7.92526 -2.10483 0
M  V30 35102 O 2689.41 8.02971 -3.47653 0
M  V30 35103 C 2688.92 6.89602 -1.41652 0
M  V30 35104 C 2689.63 5.59201 -1.75185 0
M  V30 35105 N 2689.58 4.58301 -0.657969 0
M  V30 35106 H 2692.42 8.65116 -0.777161 0
M  V30 35107 H 2692.7 6.9022 -0.46725 0
M  V30 35108 H 2691.83 7.66548 -2.79458 0
M  V30 35109 H 2689.17 5.16165 -2.65183 0
M  V30 35110 H 2688.89 7.06433 -0.329384 0
M  V30 35111 H 2687.9 6.90926 -1.82021 0
M  V30 35112 H 2689.74 8.90873 -1.62657 0
M  V30 35113 P 2687.86 8.03563 -3.84925 0
M  V30 35114 O 2687.64 8.85821 -5.0569 0
M  V30 35115 O 2687.07 8.41101 -2.65469 0
M  V30 35116 O 2687.61 6.4965 -4.18908 0
M  V30 35117 C 2688.55 5.81037 -5.05421 0
M  V30 35118 C 2687.82 4.78366 -5.89277 0
M  V30 35119 O 2687.61 3.58302 -5.08433 0
M  V30 35120 C 2686.42 5.17448 -6.36119 0
M  V30 35121 O 2686.03 4.45271 -7.53232 0
M  V30 35122 C 2685.54 4.74639 -5.19936 0
M  V30 35123 C 2686.25 3.49432 -4.70418 0
M  V30 35124 N 2686.2 3.32099 -3.22613 0
M  V30 35125 H 2689.04 6.54213 -5.71376 0
M  V30 35126 H 2689.32 5.30936 -4.43503 0
M  V30 35127 H 2688.45 4.55889 -6.76652 0
M  V30 35128 H 2685.79 2.61715 -5.17932 0
M  V30 35129 H 2685.51 5.52155 -4.41878 0
M  V30 35130 H 2684.52 4.51981 -5.53374 0
M  V30 35131 H 2686.36 6.25124 -6.55234 0
M  V30 35132 P 2684.48 4.23843 -7.83734 0
M  V30 35133 O 2684.26 4.19407 -9.29784 0
M  V30 35134 O 2683.69 5.24426 -7.09156 0
M  V30 35135 O 2684.23 2.7935 -7.20758 0
M  V30 35136 C 2685.17 1.7299 -7.50419 0
M  V30 35137 C 2684.44 0.406376 -7.57911 0
M  V30 35138 O 2684.23 -0.0897726 -6.21935 0
M  V30 35139 C 2683.04 0.447224 -8.1878 0
M  V30 35140 O 2682.65 -0.825065 -8.71101 0
M  V30 35141 C 2682.16 0.783801 -6.99623 0
M  V30 35142 C 2682.87 0.0619192 -5.85967 0
M  V30 35143 N 2682.82 0.7859 -4.56281 0
M  V30 35144 H 2685.66 1.93423 -8.4679 0
M  V30 35145 H 2685.94 1.68181 -6.71046 0
M  V30 35146 H 2685.07 -0.289041 -8.15388 0
M  V30 35147 P 2681.1 -1.17771 -8.83182 0
M  V30 35148 O 2680.88 -2.07206 -9.98732 0
M  V30 35149 O 2680.31 0.0743816 -8.81969 0
M  V30 35150 O 2680.85 -1.97652 -7.47304 0
M  V30 35151 C 2681.79 -3.01133 -7.08783 0
M  V30 35152 C 2681.06 -4.12613 -6.37049 0
M  V30 35153 O 2680.85 -3.72827 -4.97879 0
M  V30 35154 C 2679.66 -4.45085 -6.88694 0
M  V30 35155 O 2679.27 -5.7877 -6.5624 0
M  V30 35156 C 2678.78 -3.47817 -6.12078 0
M  V30 35157 C 2679.49 -3.39414 -4.77697 0
M  V30 35158 N 2679.44 -2.04615 -4.15333 0
M  V30 35159 H 2682.28 -3.41248 -7.98759 0
M  V30 35160 H 2682.56 -2.5837 -6.41742 0
M  V30 35161 H 2681.69 -5.02657 -6.42673 0
M  V30 35162 P 2677.72 -6.144 -6.45285 0
M  V30 35163 O 2677.5 -7.54673 -6.86199 0
M  V30 35164 O 2676.93 -5.12391 -7.179 0
M  V30 35165 O 2677.47 -5.99158 -4.88404 0
M  V30 35166 C 2678.41 -6.60234 -3.96415 0
M  V30 35167 C 2677.68 -7.08259 -2.72856 0
M  V30 35168 O 2677.47 -5.9427 -1.83651 0
M  V30 35169 C 2676.28 -7.64886 -2.9555 0
M  V30 35170 O 2675.89 -8.53963 -1.90717 0
M  V30 35171 C 2675.4 -6.4116 -2.90739 0
M  V30 35172 C 2676.11 -5.55375 -1.86963 0
M  V30 35173 N 2676.06 -4.09664 -2.15742 0
M  V30 35174 H 2678.9 -7.45574 -4.45629 0
M  V30 35175 H 2679.18 -5.86232 -3.67314 0
M  V30 35176 H 2678.31 -7.84412 -2.24479 0
M  V30 35177 P 2674.34 -8.7635 -1.60911 0
M  V30 35178 O 2674.12 -10.1388 -1.11561 0
M  V30 35179 O 2673.55 -8.36503 -2.79617 0
M  V30 35180 O 2674.09 -7.71806 -0.42951 0
M  V30 35181 C 2675.03 -7.66948 0.673514 0
M  V30 35182 C 2674.3 -7.33374 1.95559 0
M  V30 35183 O 2674.09 -5.88721 2.00726 0
M  V30 35184 C 2672.9 -7.92218 2.1125 0
M  V30 35185 O 2672.51 -8.02971 3.47653 0
M  V30 35186 C 2672.02 -6.89504 1.41631 0
M  V30 35187 C 2672.73 -5.59106 1.75155 0
M  V30 35188 N 2672.68 -4.58136 0.662409 0
M  V30 35189 C 2672.53 -3.26059 1.02863 0
M  V30 35190 O 2672.44 -2.90743 2.19009 0
M  V30 35191 N 2672.49 -2.35995 -0.0155585 0
M  V30 35192 C 2672.58 -2.65248 -1.35603 0
M  V30 35193 C 2672.73 -4.05747 -1.64698 0
M  V30 35194 C 2672.78 -4.96734 -0.652411 0
M  V30 35195 H 2675.53 -8.64917 0.776982 0
M  V30 35196 H 2675.79 -6.89974 0.474015 0
M  V30 35197 H 2674.93 -7.66548 2.79458 0
M  V30 35198 H 2672.27 -5.16076 2.65138 0
M  V30 35199 H 2671.99 -7.06433 0.329384 0
M  V30 35200 H 2671 -6.90829 1.81996 0
M  V30 35201 H 2672.84 -8.90774 1.62639 0
M  V30 35202 H 2672.91 -6.02181 -0.895285 0
M  V30 35203 P 2670.96 -8.03563 3.84925 0
M  V30 35204 O 2670.74 -8.85821 5.0569 0
M  V30 35205 O 2670.17 -8.41101 2.65469 0
M  V30 35206 O 2670.71 -6.4965 4.18908 0
M  V30 35207 C 2671.65 -5.81037 5.05421 0
M  V30 35208 C 2670.92 -4.78366 5.89277 0
M  V30 35209 O 2670.71 -3.58302 5.08433 0
M  V30 35210 C 2669.52 -5.17448 6.36119 0
M  V30 35211 O 2669.13 -4.45271 7.53232 0
M  V30 35212 C 2668.64 -4.74639 5.19936 0
M  V30 35213 C 2669.35 -3.49432 4.70418 0
M  V30 35214 N 2669.3 -3.32099 3.22613 0
M  V30 35215 H 2672.14 -6.54213 5.71376 0
M  V30 35216 H 2672.42 -5.30936 4.43503 0
M  V30 35217 H 2671.55 -4.55889 6.76652 0
M  V30 35218 H 2668.89 -2.61715 5.17932 0
M  V30 35219 H 2668.61 -5.52155 4.41878 0
M  V30 35220 H 2667.62 -4.51981 5.53374 0
M  V30 35221 H 2669.46 -6.25124 6.55234 0
M  V30 35222 P 2667.58 -4.23843 7.83734 0
M  V30 35223 O 2667.36 -4.19407 9.29784 0
M  V30 35224 O 2666.79 -5.24426 7.09156 0
M  V30 35225 O 2667.33 -2.7935 7.20758 0
M  V30 35226 C 2668.27 -1.72945 7.50224 0
M  V30 35227 C 2667.54 -0.406376 7.57911 0
M  V30 35228 O 2667.33 0.0897726 6.21935 0
M  V30 35229 C 2666.14 -0.438983 8.18724 0
M  V30 35230 O 2665.75 0.825065 8.71101 0
M  V30 35231 C 2665.26 -0.783689 6.99524 0
M  V30 35232 C 2665.97 -0.0619086 5.85867 0
M  V30 35233 N 2665.92 -0.78573 4.56183 0
M  V30 35234 C 2665.77 -0.0292889 3.41887 0
M  V30 35235 O 2665.68 1.18445 3.4419 0
M  V30 35236 N 2665.73 -0.744061 2.23964 0
M  V30 35237 C 2665.82 -2.10932 2.10362 0
M  V30 35238 C 2665.97 -2.8202 3.34994 0
M  V30 35239 C 2666.02 -2.15547 4.52261 0
M  V30 35240 H 2668.77 -1.93379 8.46595 0
M  V30 35241 H 2669.03 -1.68132 6.70852 0
M  V30 35242 H 2668.17 0.289041 8.15388 0
M  V30 35243 H 2665.51 0.926847 5.72749 0
M  V30 35244 H 2665.23 -1.86973 6.82036 0
M  V30 35245 H 2664.24 -0.403896 7.13257 0
M  V30 35246 H 2666.08 -1.20585 8.97435 0
M  V30 35247 H 2666.15 -2.71231 5.45042 0
M  V30 35248 P 2664.2 1.17771 8.83182 0
M  V30 35249 O 2663.98 2.07206 9.98732 0
M  V30 35250 O 2663.41 -0.0743816 8.81969 0
M  V30 35251 O 2663.95 1.97652 7.47304 0
M  V30 35252 C 2664.89 3.01133 7.08783 0
M  V30 35253 C 2664.16 4.12613 6.37049 0
M  V30 35254 O 2663.95 3.72827 4.97879 0
M  V30 35255 C 2662.76 4.45085 6.88694 0
M  V30 35256 O 2662.37 5.7877 6.5624 0
M  V30 35257 C 2661.88 3.47817 6.12078 0
M  V30 35258 C 2662.59 3.39414 4.77697 0
M  V30 35259 N 2662.54 2.04615 4.15333 0
M  V30 35260 H 2665.38 3.41248 7.98759 0
M  V30 35261 H 2665.66 2.5837 6.41742 0
M  V30 35262 H 2664.79 5.02657 6.42673 0
M  V30 35263 P 2660.82 6.144 6.45285 0
M  V30 35264 O 2660.6 7.54673 6.86199 0
M  V30 35265 O 2660.03 5.12391 7.179 0
M  V30 35266 O 2660.57 5.99158 4.88404 0
M  V30 35267 C 2661.51 6.60234 3.96415 0
M  V30 35268 C 2660.78 7.08259 2.72856 0
M  V30 35269 O 2660.57 5.9427 1.83651 0
M  V30 35270 C 2659.38 7.64886 2.9555 0
M  V30 35271 O 2658.99 8.53963 1.90717 0
M  V30 35272 C 2658.5 6.4116 2.90739 0
M  V30 35273 C 2659.21 5.55375 1.86963 0
M  V30 35274 N 2659.16 4.09664 2.15742 0
M  V30 35275 H 2662 7.45574 4.45629 0
M  V30 35276 H 2662.28 5.86232 3.67314 0
M  V30 35277 H 2661.41 7.84412 2.24479 0
M  V30 35278 P 2657.44 8.7635 1.60911 0
M  V30 35279 O 2657.22 10.1388 1.11561 0
M  V30 35280 O 2656.65 8.36503 2.79617 0
M  V30 35281 O 2657.19 7.71806 0.42951 0
M  V30 35282 C 2658.13 7.67148 -0.673689 0
M  V30 35283 C 2657.4 7.33374 -1.95559 0
M  V30 35284 O 2657.19 5.88721 -2.00726 0
M  V30 35285 C 2656 7.92526 -2.10483 0
M  V30 35286 O 2655.61 8.02971 -3.47653 0
M  V30 35287 C 2655.12 6.89602 -1.41652 0
M  V30 35288 C 2655.83 5.59201 -1.75185 0
M  V30 35289 N 2655.78 4.58301 -0.657969 0
M  V30 35290 H 2658.62 8.65116 -0.777161 0
M  V30 35291 H 2658.9 6.9022 -0.46725 0
M  V30 35292 H 2658.03 7.66548 -2.79458 0
M  V30 35293 H 2655.37 5.16165 -2.65183 0
M  V30 35294 H 2655.09 7.06433 -0.329384 0
M  V30 35295 H 2654.1 6.90926 -1.82021 0
M  V30 35296 H 2655.94 8.90873 -1.62657 0
M  V30 35297 P 2654.06 8.03563 -3.84925 0
M  V30 35298 O 2653.84 8.85821 -5.0569 0
M  V30 35299 O 2653.27 8.41101 -2.65469 0
M  V30 35300 O 2653.81 6.4965 -4.18908 0
M  V30 35301 C 2654.75 5.80886 -5.05289 0
M  V30 35302 C 2654.02 4.78366 -5.89277 0
M  V30 35303 O 2653.81 3.58302 -5.08433 0
M  V30 35304 C 2652.62 5.16748 -6.36559 0
M  V30 35305 O 2652.23 4.45271 -7.53232 0
M  V30 35306 C 2651.74 4.74572 -5.19863 0
M  V30 35307 C 2652.45 3.49373 -4.70338 0
M  V30 35308 N 2652.4 3.31704 -3.22876 0
M  V30 35309 C 2652.25 2.03326 -2.74871 0
M  V30 35310 O 2652.16 1.06486 -3.48076 0
M  V30 35311 N 2652.21 1.91838 -1.37456 0
M  V30 35312 C 2652.3 2.94295 -0.462035 0
M  V30 35313 C 2652.45 4.25064 -1.05249 0
M  V30 35314 C 2652.5 4.40214 -2.39192 0
M  V30 35315 H 2655.25 6.54063 -5.71245 0
M  V30 35316 H 2655.51 5.30339 -4.43905 0
M  V30 35317 H 2654.65 4.55889 -6.76652 0
M  V30 35318 H 2651.99 2.6167 -5.17842 0
M  V30 35319 H 2651.71 5.52155 -4.41878 0
M  V30 35320 H 2650.72 4.51918 -5.53297 0
M  V30 35321 H 2652.56 6.25055 -6.55162 0
M  V30 35322 H 2652.63 5.39798 -2.81523 0
M  V30 35323 P 2650.68 4.23843 -7.83734 0
M  V30 35324 O 2650.46 4.19407 -9.29784 0
M  V30 35325 O 2649.89 5.24426 -7.09156 0
M  V30 35326 O 2650.43 2.7935 -7.20758 0
M  V30 35327 C 2651.37 1.7299 -7.50419 0
M  V30 35328 C 2650.64 0.406376 -7.57911 0
M  V30 35329 O 2650.43 -0.0897726 -6.21935 0
M  V30 35330 C 2649.24 0.447224 -8.1878 0
M  V30 35331 O 2648.85 -0.825065 -8.71101 0
M  V30 35332 C 2648.36 0.783801 -6.99623 0
M  V30 35333 C 2649.07 0.0619192 -5.85967 0
M  V30 35334 N 2649.02 0.7859 -4.56281 0
M  V30 35335 H 2651.86 1.93423 -8.4679 0
M  V30 35336 H 2652.14 1.68181 -6.71046 0
M  V30 35337 H 2651.27 -0.289041 -8.15388 0
M  V30 35338 P 2647.3 -1.17771 -8.83182 0
M  V30 35339 O 2647.08 -2.07206 -9.98732 0
M  V30 35340 O 2646.51 0.0743816 -8.81969 0
M  V30 35341 O 2647.05 -1.97652 -7.47304 0
M  V30 35342 C 2647.99 -3.01055 -7.08599 0
M  V30 35343 C 2647.26 -4.12613 -6.37049 0
M  V30 35344 O 2647.05 -3.72827 -4.97879 0
M  V30 35345 C 2645.86 -4.45719 -6.88164 0
M  V30 35346 O 2645.47 -5.7877 -6.5624 0
M  V30 35347 C 2644.98 -3.47768 -6.11991 0
M  V30 35348 C 2645.69 -3.39356 -4.77615 0
M  V30 35349 N 2645.64 -2.04571 -4.15244 0
M  V30 35350 C 2645.49 -1.98587 -2.78314 0
M  V30 35351 O 2645.4 -2.98134 -2.08835 0
M  V30 35352 N 2645.45 -0.714467 -2.24925 0
M  V30 35353 C 2645.54 0.470001 -2.94169 0
M  V30 35354 O 2645.49 1.55587 -2.35195 0
M  V30 35355 C 2645.69 0.312541 -4.36783 0
M  V30 35356 C 2645.8 1.57711 -5.16352 0
M  V30 35357 C 2645.74 -0.914512 -4.92583 0
M  V30 35358 H 2648.49 -3.41169 -7.98575 0
M  V30 35359 H 2648.75 -2.58295 -6.41556 0
M  V30 35360 H 2647.89 -5.02657 -6.42673 0
M  V30 35361 H 2645.23 -4.11637 -4.08885 0
M  V30 35362 H 2644.95 -2.49626 -6.61679 0
M  V30 35363 H 2643.96 -3.86566 -6.00778 0
M  V30 35364 H 2645.8 -4.29943 -7.96918 0
M  V30 35365 H 2645.87 -1.00937 -6.00374 0
M  V30 35366 H 2644.84 1.80153 -5.63503 0
M  V30 35367 H 2646.57 1.4566 -5.94104 0
M  V30 35368 H 2646.09 2.40664 -4.49645 0
M  V30 35369 H 2645.35 -0.647622 -1.25697 0
M  V30 35370 P 2643.92 -6.144 -6.45285 0
M  V30 35371 O 2643.7 -7.54673 -6.86199 0
M  V30 35372 O 2643.13 -5.12391 -7.179 0
M  V30 35373 O 2643.67 -5.99158 -4.88404 0
M  V30 35374 C 2644.61 -6.60234 -3.96415 0
M  V30 35375 C 2643.88 -7.08259 -2.72856 0
M  V30 35376 O 2643.67 -5.9427 -1.83651 0
M  V30 35377 C 2642.48 -7.64886 -2.9555 0
M  V30 35378 O 2642.09 -8.53963 -1.90717 0
M  V30 35379 C 2641.6 -6.4116 -2.90739 0
M  V30 35380 C 2642.31 -5.55375 -1.86963 0
M  V30 35381 N 2642.26 -4.09664 -2.15742 0
M  V30 35382 H 2645.1 -7.45574 -4.45629 0
M  V30 35383 H 2645.38 -5.86232 -3.67314 0
M  V30 35384 H 2644.51 -7.84412 -2.24479 0
M  V30 35385 P 2640.54 -8.7635 -1.60911 0
M  V30 35386 O 2640.32 -10.1388 -1.11561 0
M  V30 35387 O 2639.75 -8.36503 -2.79617 0
M  V30 35388 O 2640.29 -7.71806 -0.42951 0
M  V30 35389 C 2641.23 -7.67148 0.673689 0
M  V30 35390 C 2640.5 -7.33374 1.95559 0
M  V30 35391 O 2640.29 -5.88721 2.00726 0
M  V30 35392 C 2639.1 -7.92526 2.10483 0
M  V30 35393 O 2638.71 -8.02971 3.47653 0
M  V30 35394 C 2638.22 -6.89602 1.41652 0
M  V30 35395 C 2638.93 -5.59201 1.75185 0
M  V30 35396 N 2638.88 -4.58235 0.662552 0
M  V30 35397 H 2641.72 -8.65116 0.777161 0
M  V30 35398 H 2642 -6.90173 0.474152 0
M  V30 35399 H 2641.13 -7.66548 2.79458 0
M  V30 35400 P 2637.16 -8.03563 3.84925 0
M  V30 35401 O 2636.94 -8.85821 5.0569 0
M  V30 35402 O 2636.37 -8.41101 2.65469 0
M  V30 35403 O 2636.91 -6.4965 4.18908 0
M  V30 35404 C 2637.85 -5.81037 5.05421 0
M  V30 35405 C 2637.12 -4.78366 5.89277 0
M  V30 35406 O 2636.91 -3.58302 5.08433 0
M  V30 35407 C 2635.72 -5.17448 6.36119 0
M  V30 35408 O 2635.33 -4.45271 7.53232 0
M  V30 35409 C 2634.84 -4.74639 5.19936 0
M  V30 35410 C 2635.55 -3.49432 4.70418 0
M  V30 35411 N 2635.5 -3.32099 3.22613 0
M  V30 35412 H 2638.34 -6.54213 5.71376 0
M  V30 35413 H 2638.62 -5.30936 4.43503 0
M  V30 35414 H 2637.75 -4.55889 6.76652 0
M  V30 35415 H 2635.09 -2.61715 5.17932 0
M  V30 35416 H 2634.81 -5.52155 4.41878 0
M  V30 35417 H 2633.82 -4.51981 5.53374 0
M  V30 35418 H 2635.66 -6.25124 6.55234 0
M  V30 35419 P 2633.78 -4.23843 7.83734 0
M  V30 35420 O 2633.56 -4.19407 9.29784 0
M  V30 35421 O 2632.99 -5.24426 7.09156 0
M  V30 35422 O 2633.53 -2.7935 7.20758 0
M  V30 35423 C 2634.47 -1.72945 7.50224 0
M  V30 35424 C 2633.74 -0.406376 7.57911 0
M  V30 35425 O 2633.53 0.0897726 6.21935 0
M  V30 35426 C 2632.34 -0.438983 8.18724 0
M  V30 35427 O 2631.95 0.825065 8.71101 0
M  V30 35428 C 2631.46 -0.783689 6.99524 0
M  V30 35429 C 2632.17 -0.0619086 5.85867 0
M  V30 35430 N 2632.12 -0.78573 4.56183 0
M  V30 35431 C 2631.97 -0.0292889 3.41887 0
M  V30 35432 O 2631.88 1.18445 3.4419 0
M  V30 35433 N 2631.93 -0.744061 2.23964 0
M  V30 35434 C 2632.02 -2.10932 2.10362 0
M  V30 35435 C 2632.17 -2.8202 3.34994 0
M  V30 35436 C 2632.22 -2.15547 4.52261 0
M  V30 35437 H 2634.97 -1.93379 8.46595 0
M  V30 35438 H 2635.23 -1.68132 6.70852 0
M  V30 35439 H 2634.37 0.289041 8.15388 0
M  V30 35440 H 2631.71 0.926847 5.72749 0
M  V30 35441 H 2631.43 -1.86973 6.82036 0
M  V30 35442 H 2630.44 -0.403896 7.13257 0
M  V30 35443 H 2632.28 -1.20585 8.97435 0
M  V30 35444 H 2632.35 -2.71231 5.45042 0
M  V30 35445 P 2630.4 1.17771 8.83182 0
M  V30 35446 O 2630.18 2.07206 9.98732 0
M  V30 35447 O 2629.61 -0.0743816 8.81969 0
M  V30 35448 O 2630.15 1.97652 7.47304 0
M  V30 35449 C 2631.09 3.01133 7.08783 0
M  V30 35450 C 2630.36 4.12613 6.37049 0
M  V30 35451 O 2630.15 3.72827 4.97879 0
M  V30 35452 C 2628.96 4.45085 6.88694 0
M  V30 35453 O 2628.57 5.7877 6.5624 0
M  V30 35454 C 2628.08 3.47817 6.12078 0
M  V30 35455 C 2628.79 3.39414 4.77697 0
M  V30 35456 N 2628.74 2.04615 4.15333 0
M  V30 35457 H 2631.58 3.41248 7.98759 0
M  V30 35458 H 2631.86 2.5837 6.41742 0
M  V30 35459 H 2630.99 5.02657 6.42673 0
M  V30 35460 P 2627.02 6.144 6.45285 0
M  V30 35461 O 2626.8 7.54673 6.86199 0
M  V30 35462 O 2626.23 5.12391 7.179 0
M  V30 35463 O 2626.77 5.99158 4.88404 0
M  V30 35464 C 2627.71 6.60234 3.96415 0
M  V30 35465 C 2626.98 7.08259 2.72856 0
M  V30 35466 O 2626.77 5.9427 1.83651 0
M  V30 35467 C 2625.58 7.64886 2.9555 0
M  V30 35468 O 2625.19 8.53963 1.90717 0
M  V30 35469 C 2624.7 6.4116 2.90739 0
M  V30 35470 C 2625.41 5.55375 1.86963 0
M  V30 35471 N 2625.36 4.09664 2.15742 0
M  V30 35472 H 2628.2 7.45574 4.45629 0
M  V30 35473 H 2628.48 5.86232 3.67314 0
M  V30 35474 H 2627.61 7.84412 2.24479 0
M  V30 35475 P 2623.64 8.7635 1.60911 0
M  V30 35476 O 2623.42 10.1388 1.11561 0
M  V30 35477 O 2622.85 8.36503 2.79617 0
M  V30 35478 O 2623.39 7.71806 0.42951 0
M  V30 35479 C 2624.33 7.67148 -0.673689 0
M  V30 35480 C 2623.6 7.33374 -1.95559 0
M  V30 35481 O 2623.39 5.88721 -2.00726 0
M  V30 35482 C 2622.2 7.92526 -2.10483 0
M  V30 35483 O 2621.81 8.02971 -3.47653 0
M  V30 35484 C 2621.32 6.89602 -1.41652 0
M  V30 35485 C 2622.03 5.59201 -1.75185 0
M  V30 35486 N 2621.98 4.58235 -0.662552 0
M  V30 35487 H 2624.82 8.65116 -0.777161 0
M  V30 35488 H 2625.1 6.90173 -0.474152 0
M  V30 35489 H 2624.23 7.66548 -2.79458 0
M  V30 35490 P 2620.26 8.03563 -3.84925 0
M  V30 35491 O 2620.04 8.85821 -5.0569 0
M  V30 35492 O 2619.47 8.41101 -2.65469 0
M  V30 35493 O 2620.01 6.4965 -4.18908 0
M  V30 35494 C 2620.95 5.81037 -5.05421 0
M  V30 35495 C 2620.22 4.78366 -5.89277 0
M  V30 35496 O 2620.01 3.58302 -5.08433 0
M  V30 35497 C 2618.82 5.17448 -6.36119 0
M  V30 35498 O 2618.43 4.45271 -7.53232 0
M  V30 35499 C 2617.94 4.74639 -5.19936 0
M  V30 35500 C 2618.65 3.49432 -4.70418 0
M  V30 35501 N 2618.6 3.32099 -3.22613 0
M  V30 35502 H 2621.44 6.54213 -5.71376 0
M  V30 35503 H 2621.72 5.30936 -4.43503 0
M  V30 35504 H 2620.85 4.55889 -6.76652 0
M  V30 35505 H 2618.19 2.61715 -5.17932 0
M  V30 35506 H 2617.91 5.52155 -4.41878 0
M  V30 35507 H 2616.92 4.51981 -5.53374 0
M  V30 35508 H 2618.76 6.25124 -6.55234 0
M  V30 35509 P 2616.88 4.23843 -7.83734 0
M  V30 35510 O 2616.66 4.19407 -9.29784 0
M  V30 35511 O 2616.09 5.24426 -7.09156 0
M  V30 35512 O 2616.63 2.7935 -7.20758 0
M  V30 35513 C 2617.57 1.7299 -7.50419 0
M  V30 35514 C 2616.84 0.406376 -7.57911 0
M  V30 35515 O 2616.63 -0.0897726 -6.21935 0
M  V30 35516 C 2615.44 0.447224 -8.1878 0
M  V30 35517 O 2615.05 -0.825065 -8.71101 0
M  V30 35518 C 2614.56 0.783801 -6.99623 0
M  V30 35519 C 2615.27 0.0619192 -5.85967 0
M  V30 35520 N 2615.22 0.7859 -4.56281 0
M  V30 35521 H 2618.06 1.93423 -8.4679 0
M  V30 35522 H 2618.34 1.68181 -6.71046 0
M  V30 35523 H 2617.47 -0.289041 -8.15388 0
M  V30 35524 P 2613.5 -1.17771 -8.83182 0
M  V30 35525 O 2613.28 -2.07206 -9.98732 0
M  V30 35526 O 2612.71 0.0743816 -8.81969 0
M  V30 35527 O 2613.25 -1.97652 -7.47304 0
M  V30 35528 C 2614.19 -3.01133 -7.08783 0
M  V30 35529 C 2613.46 -4.12613 -6.37049 0
M  V30 35530 O 2613.25 -3.72827 -4.97879 0
M  V30 35531 C 2612.06 -4.45085 -6.88694 0
M  V30 35532 O 2611.67 -5.7877 -6.5624 0
M  V30 35533 C 2611.18 -3.47817 -6.12078 0
M  V30 35534 C 2611.89 -3.39414 -4.77697 0
M  V30 35535 N 2611.84 -2.04615 -4.15333 0
M  V30 35536 H 2614.68 -3.41248 -7.98759 0
M  V30 35537 H 2614.96 -2.5837 -6.41742 0
M  V30 35538 H 2614.09 -5.02657 -6.42673 0
M  V30 35539 P 2610.12 -6.144 -6.45285 0
M  V30 35540 O 2609.9 -7.54673 -6.86199 0
M  V30 35541 O 2609.33 -5.12391 -7.179 0
M  V30 35542 O 2609.87 -5.99158 -4.88404 0
M  V30 35543 C 2610.81 -6.60234 -3.96415 0
M  V30 35544 C 2610.08 -7.08259 -2.72856 0
M  V30 35545 O 2609.87 -5.9427 -1.83651 0
M  V30 35546 C 2608.68 -7.64886 -2.9555 0
M  V30 35547 O 2608.29 -8.53963 -1.90717 0
M  V30 35548 C 2607.8 -6.4116 -2.90739 0
M  V30 35549 C 2608.51 -5.55375 -1.86963 0
M  V30 35550 N 2608.46 -4.09448 -2.16152 0
M  V30 35551 H 2611.3 -7.45574 -4.45629 0
M  V30 35552 H 2611.58 -5.85864 -3.679 0
M  V30 35553 H 2610.71 -7.84412 -2.24479 0
M  V30 35554 H 2608.05 -5.73457 -0.888562 0
M  V30 35555 H 2607.77 -5.90877 -3.88583 0
M  V30 35556 H 2606.78 -6.6596 -2.58858 0
M  V30 35557 H 2608.62 -8.16339 -3.92049 0
M  V30 35558 P 2606.74 -8.7635 -1.60911 0
M  V30 35559 O 2606.52 -10.1388 -1.11561 0
M  V30 35560 O 2605.95 -8.36503 -2.79617 0
M  V30 35561 O 2606.49 -7.71806 -0.42951 0
M  V30 35562 C 2607.43 -7.67148 0.673689 0
M  V30 35563 C 2606.7 -7.33374 1.95559 0
M  V30 35564 O 2606.49 -5.88721 2.00726 0
M  V30 35565 C 2605.3 -7.92526 2.10483 0
M  V30 35566 O 2604.91 -8.02971 3.47653 0
M  V30 35567 C 2604.42 -6.89602 1.41652 0
M  V30 35568 C 2605.13 -5.59201 1.75185 0
M  V30 35569 N 2605.08 -4.58235 0.662552 0
M  V30 35570 H 2607.92 -8.65116 0.777161 0
M  V30 35571 H 2608.2 -6.90173 0.474152 0
M  V30 35572 H 2607.33 -7.66548 2.79458 0
M  V30 35573 P 2603.36 -8.03563 3.84925 0
M  V30 35574 O 2603.14 -8.85821 5.0569 0
M  V30 35575 O 2602.57 -8.41101 2.65469 0
M  V30 35576 O 2603.11 -6.4965 4.18908 0
M  V30 35577 C 2604.05 -5.80886 5.05289 0
M  V30 35578 C 2603.32 -4.78366 5.89277 0
M  V30 35579 O 2603.11 -3.58302 5.08433 0
M  V30 35580 C 2601.92 -5.16748 6.36559 0
M  V30 35581 O 2601.53 -4.45271 7.53232 0
M  V30 35582 C 2601.04 -4.74572 5.19863 0
M  V30 35583 C 2601.75 -3.49373 4.70338 0
M  V30 35584 N 2601.7 -3.31704 3.22876 0
M  V30 35585 C 2601.55 -2.03326 2.74871 0
M  V30 35586 O 2601.46 -1.06486 3.48076 0
M  V30 35587 N 2601.51 -1.91838 1.37456 0
M  V30 35588 C 2601.6 -2.94295 0.462035 0
M  V30 35589 C 2601.75 -4.25064 1.05249 0
M  V30 35590 C 2601.8 -4.40214 2.39192 0
M  V30 35591 H 2604.55 -6.54063 5.71245 0
M  V30 35592 H 2604.81 -5.30339 4.43905 0
M  V30 35593 H 2603.95 -4.55889 6.76652 0
M  V30 35594 H 2601.29 -2.6167 5.17842 0
M  V30 35595 H 2601.01 -5.52155 4.41878 0
M  V30 35596 H 2600.02 -4.51918 5.53297 0
M  V30 35597 H 2601.86 -6.25055 6.55162 0
M  V30 35598 H 2601.93 -5.39798 2.81523 0
M  V30 35599 P 2599.98 -4.23843 7.83734 0
M  V30 35600 O 2599.76 -4.19407 9.29784 0
M  V30 35601 O 2599.19 -5.24426 7.09156 0
M  V30 35602 O 2599.73 -2.7935 7.20758 0
M  V30 35603 C 2600.67 -1.7299 7.50419 0
M  V30 35604 C 2599.94 -0.406376 7.57911 0
M  V30 35605 O 2599.73 0.0897726 6.21935 0
M  V30 35606 C 2598.54 -0.447224 8.1878 0
M  V30 35607 O 2598.15 0.825065 8.71101 0
M  V30 35608 C 2597.66 -0.783801 6.99623 0
M  V30 35609 C 2598.37 -0.0619192 5.85967 0
M  V30 35610 N 2598.32 -0.7859 4.56281 0
M  V30 35611 H 2601.16 -1.93423 8.4679 0
M  V30 35612 H 2601.44 -1.68181 6.71046 0
M  V30 35613 H 2600.57 0.289041 8.15388 0
M  V30 35614 P 2596.6 1.17771 8.83182 0
M  V30 35615 O 2596.38 2.07206 9.98732 0
M  V30 35616 O 2595.81 -0.0743816 8.81969 0
M  V30 35617 O 2596.35 1.97652 7.47304 0
M  V30 35618 C 2597.29 3.01133 7.08783 0
M  V30 35619 C 2596.56 4.12613 6.37049 0
M  V30 35620 O 2596.35 3.72827 4.97879 0
M  V30 35621 C 2595.16 4.45085 6.88694 0
M  V30 35622 O 2594.77 5.7877 6.5624 0
M  V30 35623 C 2594.28 3.47817 6.12078 0
M  V30 35624 C 2594.99 3.39414 4.77697 0
M  V30 35625 N 2594.94 2.04615 4.15333 0
M  V30 35626 H 2597.78 3.41248 7.98759 0
M  V30 35627 H 2598.06 2.5837 6.41742 0
M  V30 35628 H 2597.19 5.02657 6.42673 0
M  V30 35629 P 2593.22 6.144 6.45285 0
M  V30 35630 O 2593 7.54673 6.86199 0
M  V30 35631 O 2592.43 5.12391 7.179 0
M  V30 35632 O 2592.97 5.99158 4.88404 0
M  V30 35633 C 2593.91 6.60062 3.96313 0
M  V30 35634 C 2593.18 7.08259 2.72856 0
M  V30 35635 O 2592.97 5.9427 1.83651 0
M  V30 35636 C 2591.78 7.65087 2.94749 0
M  V30 35637 O 2591.39 8.53963 1.90717 0
M  V30 35638 C 2590.9 6.41069 2.90698 0
M  V30 35639 C 2591.61 5.5528 1.86931 0
M  V30 35640 N 2591.56 4.09575 2.15696 0
M  V30 35641 C 2591.41 3.24249 1.08435 0
M  V30 35642 O 2591.32 3.63946 -0.0628747 0
M  V30 35643 N 2591.37 1.90009 1.39973 0
M  V30 35644 C 2591.46 1.34884 2.65614 0
M  V30 35645 O 2591.41 0.123716 2.81728 0
M  V30 35646 C 2591.61 2.3145 3.71736 0
M  V30 35647 C 2591.72 1.75913 5.10438 0
M  V30 35648 C 2591.66 3.63518 3.44754 0
M  V30 35649 H 2594.41 7.45402 4.45526 0
M  V30 35650 H 2594.67 5.86062 3.67208 0
M  V30 35651 H 2593.81 7.84412 2.24479 0
M  V30 35652 H 2591.15 5.73358 0.888409 0
M  V30 35653 H 2590.87 5.90877 3.88583 0
M  V30 35654 H 2589.88 6.65867 2.58821 0
M  V30 35655 H 2591.72 8.16248 3.92006 0
M  V30 35656 H 2591.79 4.34551 4.26383 0
M  V30 35657 H 2590.76 1.85471 5.61775 0
M  V30 35658 H 2592.49 2.31364 5.66257 0
M  V30 35659 H 2592.01 0.695936 5.05229 0
M  V30 35660 H 2591.27 1.26277 0.63625 0
M  V30 35661 P 2589.84 8.7635 1.60911 0
M  V30 35662 O 2589.62 10.1388 1.11561 0
M  V30 35663 O 2589.05 8.36503 2.79617 0
M  V30 35664 O 2589.59 7.71806 0.42951 0
M  V30 35665 C 2590.53 7.67148 -0.673689 0
M  V30 35666 C 2589.8 7.33374 -1.95559 0
M  V30 35667 O 2589.59 5.88721 -2.00726 0
M  V30 35668 C 2588.4 7.92526 -2.10483 0
M  V30 35669 O 2588.01 8.02971 -3.47653 0
M  V30 35670 C 2587.52 6.89602 -1.41652 0
M  V30 35671 C 2588.23 5.59201 -1.75185 0
M  V30 35672 N 2588.18 4.58301 -0.657969 0
M  V30 35673 H 2591.02 8.65116 -0.777161 0
M  V30 35674 H 2591.3 6.9022 -0.46725 0
M  V30 35675 H 2590.43 7.66548 -2.79458 0
M  V30 35676 H 2587.77 5.16165 -2.65183 0
M  V30 35677 H 2587.49 7.06433 -0.329384 0
M  V30 35678 H 2586.5 6.90926 -1.82021 0
M  V30 35679 H 2588.34 8.90873 -1.62657 0
M  V30 35680 P 2586.46 8.03563 -3.84925 0
M  V30 35681 O 2586.24 8.85821 -5.0569 0
M  V30 35682 O 2585.67 8.41101 -2.65469 0
M  V30 35683 O 2586.21 6.4965 -4.18908 0
M  V30 35684 C 2587.15 5.81037 -5.05421 0
M  V30 35685 C 2586.42 4.78366 -5.89277 0
M  V30 35686 O 2586.21 3.58302 -5.08433 0
M  V30 35687 C 2585.02 5.17448 -6.36119 0
M  V30 35688 O 2584.63 4.45271 -7.53232 0
M  V30 35689 C 2584.14 4.74639 -5.19936 0
M  V30 35690 C 2584.85 3.49432 -4.70418 0
M  V30 35691 N 2584.8 3.31776 -3.22945 0
M  V30 35692 H 2587.64 6.54213 -5.71376 0
M  V30 35693 H 2587.92 5.30492 -4.44033 0
M  V30 35694 H 2587.05 4.55889 -6.76652 0
M  V30 35695 P 2583.08 4.23843 -7.83734 0
M  V30 35696 O 2582.86 4.19407 -9.29784 0
M  V30 35697 O 2582.29 5.24426 -7.09156 0
M  V30 35698 O 2582.83 2.7935 -7.20758 0
M  V30 35699 C 2583.77 1.7299 -7.50419 0
M  V30 35700 C 2583.04 0.406376 -7.57911 0
M  V30 35701 O 2582.83 -0.0897726 -6.21935 0
M  V30 35702 C 2581.64 0.447224 -8.1878 0
M  V30 35703 O 2581.25 -0.825065 -8.71101 0
M  V30 35704 C 2580.76 0.783801 -6.99623 0
M  V30 35705 C 2581.47 0.0619192 -5.85967 0
M  V30 35706 N 2581.42 0.7859 -4.56281 0
M  V30 35707 H 2584.26 1.93423 -8.4679 0
M  V30 35708 H 2584.54 1.68181 -6.71046 0
M  V30 35709 H 2583.67 -0.289041 -8.15388 0
M  V30 35710 P 2579.7 -1.17771 -8.83182 0
M  V30 35711 O 2579.48 -2.07206 -9.98732 0
M  V30 35712 O 2578.91 0.0743816 -8.81969 0
M  V30 35713 O 2579.45 -1.97652 -7.47304 0
M  V30 35714 C 2580.39 -3.01133 -7.08783 0
M  V30 35715 C 2579.66 -4.12613 -6.37049 0
M  V30 35716 O 2579.45 -3.72827 -4.97879 0
M  V30 35717 C 2578.26 -4.45085 -6.88694 0
M  V30 35718 O 2577.87 -5.7877 -6.5624 0
M  V30 35719 C 2577.38 -3.47817 -6.12078 0
M  V30 35720 C 2578.09 -3.39414 -4.77697 0
M  V30 35721 N 2578.04 -2.04615 -4.15333 0
M  V30 35722 H 2580.88 -3.41248 -7.98759 0
M  V30 35723 H 2581.16 -2.5837 -6.41742 0
M  V30 35724 H 2580.29 -5.02657 -6.42673 0
M  V30 35725 P 2576.32 -6.144 -6.45285 0
M  V30 35726 O 2576.1 -7.54673 -6.86199 0
M  V30 35727 O 2575.53 -5.12391 -7.179 0
M  V30 35728 O 2576.07 -5.99158 -4.88404 0
M  V30 35729 C 2577.01 -6.60234 -3.96415 0
M  V30 35730 C 2576.28 -7.08259 -2.72856 0
M  V30 35731 O 2576.07 -5.9427 -1.83651 0
M  V30 35732 C 2574.88 -7.64886 -2.9555 0
M  V30 35733 O 2574.49 -8.53963 -1.90717 0
M  V30 35734 C 2574 -6.4116 -2.90739 0
M  V30 35735 C 2574.71 -5.55375 -1.86963 0
M  V30 35736 N 2574.66 -4.09664 -2.15742 0
M  V30 35737 H 2577.5 -7.45574 -4.45629 0
M  V30 35738 H 2577.78 -5.86232 -3.67314 0
M  V30 35739 H 2576.91 -7.84412 -2.24479 0
M  V30 35740 P 2572.94 -8.7635 -1.60911 0
M  V30 35741 O 2572.72 -10.1388 -1.11561 0
M  V30 35742 O 2572.15 -8.36503 -2.79617 0
M  V30 35743 O 2572.69 -7.71806 -0.42951 0
M  V30 35744 C 2573.63 -7.66948 0.673514 0
M  V30 35745 C 2572.9 -7.33374 1.95559 0
M  V30 35746 O 2572.69 -5.88721 2.00726 0
M  V30 35747 C 2571.5 -7.92218 2.1125 0
M  V30 35748 O 2571.11 -8.02971 3.47653 0
M  V30 35749 C 2570.62 -6.89504 1.41631 0
M  V30 35750 C 2571.33 -5.59106 1.75155 0
M  V30 35751 N 2571.28 -4.58136 0.662409 0
M  V30 35752 C 2571.13 -3.26059 1.02863 0
M  V30 35753 O 2571.04 -2.90743 2.19009 0
M  V30 35754 N 2571.09 -2.35995 -0.0155585 0
M  V30 35755 C 2571.18 -2.65248 -1.35603 0
M  V30 35756 C 2571.33 -4.05747 -1.64698 0
M  V30 35757 C 2571.38 -4.96734 -0.652411 0
M  V30 35758 H 2574.13 -8.64917 0.776982 0
M  V30 35759 H 2574.39 -6.89974 0.474015 0
M  V30 35760 H 2573.53 -7.66548 2.79458 0
M  V30 35761 H 2570.87 -5.16076 2.65138 0
M  V30 35762 H 2570.59 -7.06433 0.329384 0
M  V30 35763 H 2569.6 -6.90829 1.81996 0
M  V30 35764 H 2571.44 -8.90774 1.62639 0
M  V30 35765 H 2571.51 -6.02181 -0.895285 0
M  V30 35766 P 2569.56 -8.03563 3.84925 0
M  V30 35767 O 2569.34 -8.85821 5.0569 0
M  V30 35768 O 2568.77 -8.41101 2.65469 0
M  V30 35769 O 2569.31 -6.4965 4.18908 0
M  V30 35770 C 2570.25 -5.80886 5.05289 0
M  V30 35771 C 2569.52 -4.78366 5.89277 0
M  V30 35772 O 2569.31 -3.58302 5.08433 0
M  V30 35773 C 2568.12 -5.16748 6.36559 0
M  V30 35774 O 2567.73 -4.45271 7.53232 0
M  V30 35775 C 2567.24 -4.74572 5.19863 0
M  V30 35776 C 2567.95 -3.49373 4.70338 0
M  V30 35777 N 2567.9 -3.31704 3.22876 0
M  V30 35778 C 2567.75 -2.03326 2.74871 0
M  V30 35779 O 2567.66 -1.06486 3.48076 0
M  V30 35780 N 2567.71 -1.91838 1.37456 0
M  V30 35781 C 2567.8 -2.94295 0.462035 0
M  V30 35782 C 2567.95 -4.25064 1.05249 0
M  V30 35783 C 2568 -4.40214 2.39192 0
M  V30 35784 H 2570.75 -6.54063 5.71245 0
M  V30 35785 H 2571.01 -5.30339 4.43905 0
M  V30 35786 H 2570.15 -4.55889 6.76652 0
M  V30 35787 H 2567.49 -2.6167 5.17842 0
M  V30 35788 H 2567.21 -5.52155 4.41878 0
M  V30 35789 H 2566.22 -4.51918 5.53297 0
M  V30 35790 H 2568.06 -6.25055 6.55162 0
M  V30 35791 H 2568.13 -5.39798 2.81523 0
M  V30 35792 P 2566.18 -4.23843 7.83734 0
M  V30 35793 O 2565.96 -4.19407 9.29784 0
M  V30 35794 O 2565.39 -5.24426 7.09156 0
M  V30 35795 O 2565.93 -2.79386 7.20852 0
M  V30 35796 C 2566.87 -1.7299 7.50419 0
M  V30 35797 C 2566.14 -0.41401 7.5797 0
M  V30 35798 O 2565.93 0.089787 6.22035 0
M  V30 35799 C 2564.74 -0.447224 8.1878 0
M  V30 35800 O 2564.35 0.825159 8.71201 0
M  V30 35801 C 2563.86 -0.783801 6.99623 0
M  V30 35802 C 2564.57 -0.0619192 5.85967 0
M  V30 35803 N 2564.52 -0.7859 4.56281 0
M  V30 35804 C 2564.37 -0.0359258 3.39981 0
M  V30 35805 O 2564.28 1.19723 3.49038 0
M  V30 35806 N 2564.32 -0.869151 2.14025 0
M  V30 35807 C 2564.42 -2.01207 2.14363 0
M  V30 35808 N 2564.37 -2.58978 0.954287 0
M  V30 35809 C 2564.57 -2.80817 3.32215 0
M  V30 35810 C 2564.62 -2.13785 4.50884 0
M  V30 35811 H 2567.36 -1.93401 8.46693 0
M  V30 35812 H 2567.63 -1.68181 6.71046 0
M  V30 35813 H 2566.77 0.289076 8.15488 0
M  V30 35814 H 2564.11 0.927166 5.72947 0
M  V30 35815 H 2563.83 -1.87 6.82132 0
M  V30 35816 H 2562.84 -0.404009 7.13457 0
M  V30 35817 H 2564.68 -1.20599 8.97534 0
M  V30 35818 H 2564.75 -2.70295 5.43162 0
M  V30 35819 H 2564.65 -3.89465 3.27406 0
M  V30 35820 H 2564.26 -2.01616 0.107046 0
M  V30 35821 H 2564.45 -3.61403 0.873101 0
M  V30 35822 P 2562.8 1.17771 8.83182 0
M  V30 35823 O 2562.58 2.07206 9.98732 0
M  V30 35824 O 2562.01 -0.0743816 8.81969 0
M  V30 35825 O 2562.55 1.97678 7.474 0
M  V30 35826 C 2563.49 3.01133 7.08783 0
M  V30 35827 C 2562.76 4.1203 6.37546 0
M  V30 35828 O 2562.55 3.72887 4.9796 0
M  V30 35829 C 2561.36 4.45085 6.88694 0
M  V30 35830 O 2560.97 5.78836 6.56315 0
M  V30 35831 C 2560.48 3.47817 6.12078 0
M  V30 35832 C 2561.19 3.39414 4.77697 0
M  V30 35833 N 2561.14 2.04615 4.15333 0
M  V30 35834 C 2560.99 1.96929 2.77162 0
M  V30 35835 O 2560.9 3.02017 2.12006 0
M  V30 35836 N 2560.94 0.55485 2.24237 0
M  V30 35837 C 2561.04 -0.367808 2.9169 0
M  V30 35838 N 2560.99 -1.53426 2.29427 0
M  V30 35839 C 2561.19 -0.319148 4.33828 0
M  V30 35840 C 2561.24 0.920672 4.90433 0
M  V30 35841 H 2563.98 3.41209 7.98667 0
M  V30 35842 H 2564.25 2.5837 6.41742 0
M  V30 35843 H 2563.39 5.02718 6.42752 0
M  V30 35844 H 2560.73 4.11779 4.09026 0
M  V30 35845 H 2560.45 2.49661 6.61772 0
M  V30 35846 H 2559.46 3.86674 6.00946 0
M  V30 35847 H 2561.3 4.29991 7.97006 0
M  V30 35848 H 2561.37 1.00589 5.98303 0
M  V30 35849 H 2561.27 -1.22639 4.93799 0
M  V30 35850 H 2560.88 -1.56819 1.27167 0
M  V30 35851 H 2561.07 -2.41062 2.83063 0
M  V30 35852 P 2559.42 6.144 6.45285 0
M  V30 35853 O 2559.2 7.54673 6.86199 0
M  V30 35854 O 2558.63 5.12391 7.179 0
M  V30 35855 O 2559.17 5.99158 4.88404 0
M  V30 35856 C 2560.11 6.60234 3.96415 0
M  V30 35857 C 2559.38 7.08259 2.72856 0
M  V30 35858 O 2559.17 5.9427 1.83651 0
M  V30 35859 C 2557.98 7.64886 2.9555 0
M  V30 35860 O 2557.59 8.53963 1.90717 0
M  V30 35861 C 2557.1 6.4116 2.90739 0
M  V30 35862 C 2557.81 5.55375 1.86963 0
M  V30 35863 N 2557.76 4.09664 2.15742 0
M  V30 35864 H 2560.6 7.45574 4.45629 0
M  V30 35865 H 2560.88 5.86232 3.67314 0
M  V30 35866 H 2560.01 7.84412 2.24479 0
M  V30 35867 P 2556.04 8.7635 1.60911 0
M  V30 35868 O 2555.82 10.1388 1.11561 0
M  V30 35869 O 2555.25 8.36503 2.79617 0
M  V30 35870 O 2555.79 7.71806 0.42951 0
M  V30 35871 C 2556.73 7.67148 -0.673689 0
M  V30 35872 C 2556 7.33374 -1.95559 0
M  V30 35873 O 2555.79 5.88721 -2.00726 0
M  V30 35874 C 2554.6 7.92526 -2.10483 0
M  V30 35875 O 2554.21 8.02971 -3.47653 0
M  V30 35876 C 2553.72 6.89602 -1.41652 0
M  V30 35877 C 2554.43 5.59201 -1.75185 0
M  V30 35878 N 2554.38 4.58235 -0.662552 0
M  V30 35879 H 2557.22 8.65116 -0.777161 0
M  V30 35880 H 2557.5 6.90173 -0.474152 0
M  V30 35881 H 2556.63 7.66548 -2.79458 0
M  V30 35882 P 2552.66 8.03563 -3.84925 0
M  V30 35883 O 2552.44 8.85821 -5.0569 0
M  V30 35884 O 2551.87 8.41101 -2.65469 0
M  V30 35885 O 2552.41 6.4965 -4.18908 0
M  V30 35886 C 2553.35 5.81037 -5.05421 0
M  V30 35887 C 2552.62 4.78366 -5.89277 0
M  V30 35888 O 2552.41 3.58302 -5.08433 0
M  V30 35889 C 2551.22 5.17448 -6.36119 0
M  V30 35890 O 2550.83 4.45271 -7.53232 0
M  V30 35891 C 2550.34 4.74639 -5.19936 0
M  V30 35892 C 2551.05 3.49432 -4.70418 0
M  V30 35893 N 2551 3.31776 -3.22945 0
M  V30 35894 H 2553.84 6.54213 -5.71376 0
M  V30 35895 H 2554.12 5.30492 -4.44033 0
M  V30 35896 H 2553.25 4.55889 -6.76652 0
M  V30 35897 P 2549.28 4.23843 -7.83734 0
M  V30 35898 O 2549.06 4.19407 -9.29784 0
M  V30 35899 O 2548.49 5.24426 -7.09156 0
M  V30 35900 O 2549.03 2.7935 -7.20758 0
M  V30 35901 C 2549.97 1.7299 -7.50419 0
M  V30 35902 C 2549.24 0.406376 -7.57911 0
M  V30 35903 O 2549.03 -0.0897726 -6.21935 0
M  V30 35904 C 2547.84 0.447224 -8.1878 0
M  V30 35905 O 2547.45 -0.825065 -8.71101 0
M  V30 35906 C 2546.96 0.783801 -6.99623 0
M  V30 35907 C 2547.67 0.0619192 -5.85967 0
M  V30 35908 N 2547.62 0.7859 -4.56281 0
M  V30 35909 H 2550.46 1.93423 -8.4679 0
M  V30 35910 H 2550.74 1.68181 -6.71046 0
M  V30 35911 H 2549.87 -0.289041 -8.15388 0
M  V30 35912 P 2545.9 -1.17771 -8.83182 0
M  V30 35913 O 2545.68 -2.07206 -9.98732 0
M  V30 35914 O 2545.11 0.0743816 -8.81969 0
M  V30 35915 O 2545.65 -1.97652 -7.47304 0
M  V30 35916 C 2546.59 -3.01133 -7.08783 0
M  V30 35917 C 2545.86 -4.12613 -6.37049 0
M  V30 35918 O 2545.65 -3.72827 -4.97879 0
M  V30 35919 C 2544.46 -4.45085 -6.88694 0
M  V30 35920 O 2544.07 -5.7877 -6.5624 0
M  V30 35921 C 2543.58 -3.47817 -6.12078 0
M  V30 35922 C 2544.29 -3.39414 -4.77697 0
M  V30 35923 N 2544.24 -2.04615 -4.15333 0
M  V30 35924 H 2547.08 -3.41248 -7.98759 0
M  V30 35925 H 2547.36 -2.5837 -6.41742 0
M  V30 35926 H 2546.49 -5.02657 -6.42673 0
M  V30 35927 P 2542.52 -6.144 -6.45285 0
M  V30 35928 O 2542.3 -7.54673 -6.86199 0
M  V30 35929 O 2541.73 -5.12391 -7.179 0
M  V30 35930 O 2542.27 -5.99158 -4.88404 0
M  V30 35931 C 2543.21 -6.60234 -3.96415 0
M  V30 35932 C 2542.48 -7.08259 -2.72856 0
M  V30 35933 O 2542.27 -5.9427 -1.83651 0
M  V30 35934 C 2541.08 -7.64886 -2.9555 0
M  V30 35935 O 2540.69 -8.53963 -1.90717 0
M  V30 35936 C 2540.2 -6.4116 -2.90739 0
M  V30 35937 C 2540.91 -5.55375 -1.86963 0
M  V30 35938 N 2540.86 -4.09664 -2.15742 0
M  V30 35939 C 2540.94 -3.44381 -3.37233 0
M  V30 35940 N 2540.86 -2.14131 -3.28347 0
M  V30 35941 C 2540.72 -1.90247 -1.91588 0
M  V30 35942 C 2540.59 -0.683992 -1.20892 0
M  V30 35943 N 2540.47 -0.903396 0.173998 0
M  V30 35944 C 2540.47 -2.14171 0.784879 0
M  V30 35945 N 2540.34 -2.1435 2.11317 0
M  V30 35946 N 2540.6 -3.28784 0.119316 0
M  V30 35947 C 2540.72 -3.0977 -1.22194 0
M  V30 35948 H 2543.7 -7.45574 -4.45629 0
M  V30 35949 H 2543.98 -5.86232 -3.67314 0
M  V30 35950 H 2543.11 -7.84412 -2.24479 0
M  V30 35951 P 2539.15 -8.7635 -1.60911 0
M  V30 35952 O 2538.93 -10.1388 -1.11561 0
M  V30 35953 O 2538.36 -8.36503 -2.79617 0
M  V30 35954 O 2538.9 -7.71806 -0.42951 0
M  V30 35955 C 2539.84 -7.67148 0.673689 0
M  V30 35956 C 2539.11 -7.33374 1.95559 0
M  V30 35957 O 2538.9 -5.88721 2.00726 0
M  V30 35958 C 2537.71 -7.92526 2.10483 0
M  V30 35959 O 2537.32 -8.02971 3.47653 0
M  V30 35960 C 2536.83 -6.89602 1.41652 0
M  V30 35961 C 2537.54 -5.59201 1.75185 0
M  V30 35962 N 2537.49 -4.58301 0.657969 0
M  V30 35963 H 2540.32 -8.65116 0.777161 0
M  V30 35964 H 2540.6 -6.9022 0.46725 0
M  V30 35965 H 2539.73 -7.66548 2.79458 0
M  V30 35966 H 2537.07 -5.16165 2.65183 0
M  V30 35967 H 2536.79 -7.06433 0.329384 0
M  V30 35968 H 2535.8 -6.90926 1.82021 0
M  V30 35969 H 2537.64 -8.90873 1.62657 0
M  V30 35970 P 2535.77 -8.03563 3.84925 0
M  V30 35971 O 2535.55 -8.85821 5.0569 0
M  V30 35972 O 2534.98 -8.41101 2.65469 0
M  V30 35973 O 2535.52 -6.4965 4.18908 0
M  V30 35974 C 2536.46 -5.81037 5.05421 0
M  V30 35975 C 2535.73 -4.78366 5.89277 0
M  V30 35976 O 2535.52 -3.58302 5.08433 0
M  V30 35977 C 2534.33 -5.17448 6.36119 0
M  V30 35978 O 2533.94 -4.45271 7.53232 0
M  V30 35979 C 2533.45 -4.74639 5.19936 0
M  V30 35980 C 2534.16 -3.49432 4.70418 0
M  V30 35981 N 2534.11 -3.32099 3.22613 0
M  V30 35982 H 2536.94 -6.54213 5.71376 0
M  V30 35983 H 2537.22 -5.30936 4.43503 0
M  V30 35984 H 2536.35 -4.55889 6.76652 0
M  V30 35985 H 2533.69 -2.61715 5.17932 0
M  V30 35986 H 2533.41 -5.52155 4.41878 0
M  V30 35987 H 2532.42 -4.51981 5.53374 0
M  V30 35988 H 2534.26 -6.25124 6.55234 0
M  V30 35989 P 2532.39 -4.23843 7.83734 0
M  V30 35990 O 2532.17 -4.19407 9.29784 0
M  V30 35991 O 2531.6 -5.24426 7.09156 0
M  V30 35992 O 2532.14 -2.79386 7.20852 0
M  V30 35993 C 2533.08 -1.7299 7.50419 0
M  V30 35994 C 2532.35 -0.41401 7.5797 0
M  V30 35995 O 2532.14 0.089787 6.22035 0
M  V30 35996 C 2530.95 -0.447224 8.1878 0
M  V30 35997 O 2530.56 0.825159 8.71201 0
M  V30 35998 C 2530.07 -0.783801 6.99623 0
M  V30 35999 C 2530.78 -0.0619192 5.85967 0
M  V30 36000 N 2530.73 -0.7859 4.56281 0
M  V30 36001 C 2530.58 -0.0359258 3.39981 0
M  V30 36002 O 2530.49 1.19723 3.49038 0
M  V30 36003 N 2530.53 -0.869151 2.14025 0
M  V30 36004 C 2530.63 -2.01207 2.14363 0
M  V30 36005 N 2530.58 -2.58978 0.954287 0
M  V30 36006 C 2530.78 -2.80817 3.32215 0
M  V30 36007 C 2530.83 -2.13785 4.50884 0
M  V30 36008 H 2533.57 -1.93401 8.46693 0
M  V30 36009 H 2533.84 -1.68181 6.71046 0
M  V30 36010 H 2532.97 0.289076 8.15488 0
M  V30 36011 H 2530.31 0.927166 5.72947 0
M  V30 36012 H 2530.03 -1.87 6.82132 0
M  V30 36013 H 2529.04 -0.404009 7.13457 0
M  V30 36014 H 2530.88 -1.20599 8.97534 0
M  V30 36015 H 2530.95 -2.70295 5.43162 0
M  V30 36016 H 2530.85 -3.89465 3.27406 0
M  V30 36017 H 2530.46 -2.01616 0.107046 0
M  V30 36018 H 2530.65 -3.61403 0.873101 0
M  V30 36019 P 2529.01 1.17771 8.83182 0
M  V30 36020 O 2528.79 2.07206 9.98732 0
M  V30 36021 O 2528.22 -0.0743816 8.81969 0
M  V30 36022 O 2528.76 1.97652 7.47304 0
M  V30 36023 C 2529.7 3.01055 7.08599 0
M  V30 36024 C 2528.97 4.12613 6.37049 0
M  V30 36025 O 2528.76 3.72827 4.97879 0
M  V30 36026 C 2527.57 4.45719 6.88164 0
M  V30 36027 O 2527.18 5.7877 6.5624 0
M  V30 36028 C 2526.69 3.47768 6.11991 0
M  V30 36029 C 2527.4 3.39356 4.77615 0
M  V30 36030 N 2527.35 2.04571 4.15244 0
M  V30 36031 C 2527.2 1.98587 2.78314 0
M  V30 36032 O 2527.11 2.98134 2.08835 0
M  V30 36033 N 2527.16 0.714467 2.24925 0
M  V30 36034 C 2527.25 -0.470001 2.94169 0
M  V30 36035 O 2527.2 -1.55587 2.35195 0
M  V30 36036 C 2527.4 -0.312541 4.36783 0
M  V30 36037 C 2527.51 -1.57711 5.16352 0
M  V30 36038 C 2527.45 0.914512 4.92583 0
M  V30 36039 H 2530.19 3.41169 7.98575 0
M  V30 36040 H 2530.46 2.58295 6.41556 0
M  V30 36041 H 2529.59 5.02657 6.42673 0
M  V30 36042 H 2526.93 4.11637 4.08885 0
M  V30 36043 H 2526.65 2.49626 6.61679 0
M  V30 36044 H 2525.66 3.86566 6.00778 0
M  V30 36045 H 2527.5 4.29943 7.96918 0
M  V30 36046 H 2527.57 1.00937 6.00374 0
M  V30 36047 H 2526.54 -1.80153 5.63503 0
M  V30 36048 H 2528.27 -1.4566 5.94104 0
M  V30 36049 H 2527.79 -2.40664 4.49645 0
M  V30 36050 H 2527.05 0.647622 1.25697 0
M  V30 36051 P 2525.63 6.144 6.45285 0
M  V30 36052 O 2525.41 7.54673 6.86199 0
M  V30 36053 O 2524.84 5.12391 7.179 0
M  V30 36054 O 2525.38 5.99158 4.88404 0
M  V30 36055 C 2526.32 6.60234 3.96415 0
M  V30 36056 C 2525.59 7.08259 2.72856 0
M  V30 36057 O 2525.38 5.9427 1.83651 0
M  V30 36058 C 2524.19 7.64886 2.9555 0
M  V30 36059 O 2523.8 8.53963 1.90717 0
M  V30 36060 C 2523.31 6.4116 2.90739 0
M  V30 36061 C 2524.02 5.55375 1.86963 0
M  V30 36062 N 2523.97 4.09664 2.15742 0
M  V30 36063 H 2526.8 7.45574 4.45629 0
M  V30 36064 H 2527.08 5.86232 3.67314 0
M  V30 36065 H 2526.21 7.84412 2.24479 0
M  V30 36066 P 2522.25 8.7635 1.60911 0
M  V30 36067 O 2522.03 10.1388 1.11561 0
M  V30 36068 O 2521.46 8.36503 2.79617 0
M  V30 36069 O 2522 7.71806 0.42951 0
M  V30 36070 C 2522.94 7.67148 -0.673689 0
M  V30 36071 C 2522.21 7.33374 -1.95559 0
M  V30 36072 O 2522 5.88721 -2.00726 0
M  V30 36073 C 2520.81 7.92526 -2.10483 0
M  V30 36074 O 2520.42 8.02971 -3.47653 0
M  V30 36075 C 2519.93 6.89602 -1.41652 0
M  V30 36076 C 2520.64 5.59201 -1.75185 0
M  V30 36077 N 2520.59 4.58235 -0.662552 0
M  V30 36078 H 2523.42 8.65116 -0.777161 0
M  V30 36079 H 2523.7 6.90173 -0.474152 0
M  V30 36080 H 2522.83 7.66548 -2.79458 0
M  V30 36081 P 2518.87 8.03563 -3.84925 0
M  V30 36082 O 2518.65 8.85821 -5.0569 0
M  V30 36083 O 2518.08 8.41101 -2.65469 0
M  V30 36084 O 2518.62 6.4965 -4.18908 0
M  V30 36085 C 2519.56 5.81037 -5.05421 0
M  V30 36086 C 2518.83 4.78366 -5.89277 0
M  V30 36087 O 2518.62 3.58302 -5.08433 0
M  V30 36088 C 2517.43 5.17448 -6.36119 0
M  V30 36089 O 2517.04 4.45271 -7.53232 0
M  V30 36090 C 2516.55 4.74639 -5.19936 0
M  V30 36091 C 2517.26 3.49432 -4.70418 0
M  V30 36092 N 2517.21 3.31776 -3.22945 0
M  V30 36093 H 2520.04 6.54213 -5.71376 0
M  V30 36094 H 2520.32 5.30492 -4.44033 0
M  V30 36095 H 2519.45 4.55889 -6.76652 0
M  V30 36096 P 2515.49 4.23843 -7.83734 0
M  V30 36097 O 2515.27 4.19407 -9.29784 0
M  V30 36098 O 2514.7 5.24426 -7.09156 0
M  V30 36099 O 2515.24 2.7935 -7.20758 0
M  V30 36100 C 2516.18 1.72945 -7.50224 0
M  V30 36101 C 2515.45 0.406376 -7.57911 0
M  V30 36102 O 2515.24 -0.0897726 -6.21935 0
M  V30 36103 C 2514.05 0.438983 -8.18724 0
M  V30 36104 O 2513.66 -0.825065 -8.71101 0
M  V30 36105 C 2513.17 0.783689 -6.99524 0
M  V30 36106 C 2513.88 0.0619086 -5.85867 0
M  V30 36107 N 2513.83 0.78573 -4.56183 0
M  V30 36108 C 2513.68 0.0292889 -3.41887 0
M  V30 36109 O 2513.59 -1.18445 -3.4419 0
M  V30 36110 N 2513.64 0.744061 -2.23964 0
M  V30 36111 C 2513.73 2.10932 -2.10362 0
M  V30 36112 O 2513.68 2.64117 -0.98825 0
M  V30 36113 C 2513.88 2.8202 -3.34994 0
M  V30 36114 C 2513.99 4.31095 -3.25037 0
M  V30 36115 C 2513.93 2.15547 -4.52261 0
M  V30 36116 H 2516.67 1.93379 -8.46595 0
M  V30 36117 H 2516.94 1.68132 -6.70852 0
M  V30 36118 H 2516.07 -0.289041 -8.15388 0
M  V30 36119 H 2513.41 -0.926847 -5.72749 0
M  V30 36120 H 2513.13 1.86973 -6.82036 0
M  V30 36121 H 2512.14 0.403896 -7.13257 0
M  V30 36122 H 2513.98 1.20585 -8.97435 0
M  V30 36123 H 2514.05 2.71231 -5.45042 0
M  V30 36124 H 2513.02 4.76966 -3.49992 0
M  V30 36125 H 2514.75 4.67047 -3.95024 0
M  V30 36126 H 2514.27 4.58996 -2.22312 0
M  V30 36127 H 2513.53 0.214893 -1.39758 0
M  V30 36128 P 2512.11 -1.17771 -8.83182 0
M  V30 36129 O 2511.89 -2.07206 -9.98732 0
M  V30 36130 O 2511.32 0.0743816 -8.81969 0
M  V30 36131 O 2511.86 -1.97652 -7.47304 0
M  V30 36132 C 2512.8 -3.01133 -7.08783 0
M  V30 36133 C 2512.07 -4.12613 -6.37049 0
M  V30 36134 O 2511.86 -3.72827 -4.97879 0
M  V30 36135 C 2510.67 -4.45085 -6.88694 0
M  V30 36136 O 2510.28 -5.7877 -6.5624 0
M  V30 36137 C 2509.79 -3.47817 -6.12078 0
M  V30 36138 C 2510.5 -3.39414 -4.77697 0
M  V30 36139 N 2510.45 -2.04615 -4.15333 0
M  V30 36140 H 2513.28 -3.41248 -7.98759 0
M  V30 36141 H 2513.56 -2.5837 -6.41742 0
M  V30 36142 H 2512.69 -5.02657 -6.42673 0
M  V30 36143 P 2508.73 -6.144 -6.45285 0
M  V30 36144 O 2508.51 -7.54673 -6.86199 0
M  V30 36145 O 2507.94 -5.12391 -7.179 0
M  V30 36146 O 2508.48 -5.99158 -4.88404 0
M  V30 36147 C 2509.42 -6.60062 -3.96313 0
M  V30 36148 C 2508.69 -7.08259 -2.72856 0
M  V30 36149 O 2508.48 -5.9427 -1.83651 0
M  V30 36150 C 2507.29 -7.65087 -2.94749 0
M  V30 36151 O 2506.9 -8.53963 -1.90717 0
M  V30 36152 C 2506.41 -6.41069 -2.90698 0
M  V30 36153 C 2507.12 -5.5528 -1.86931 0
M  V30 36154 N 2507.07 -4.09575 -2.15696 0
M  V30 36155 C 2506.92 -3.24249 -1.08435 0
M  V30 36156 O 2506.83 -3.63946 0.0628747 0
M  V30 36157 N 2506.88 -1.90009 -1.39973 0
M  V30 36158 C 2506.97 -1.34884 -2.65614 0
M  V30 36159 O 2506.92 -0.123716 -2.81728 0
M  V30 36160 C 2507.12 -2.3145 -3.71736 0
M  V30 36161 C 2507.23 -1.75913 -5.10438 0
M  V30 36162 C 2507.17 -3.63518 -3.44754 0
M  V30 36163 H 2509.91 -7.45402 -4.45526 0
M  V30 36164 H 2510.18 -5.86062 -3.67208 0
M  V30 36165 H 2509.31 -7.84412 -2.24479 0
M  V30 36166 H 2506.65 -5.73358 -0.888409 0
M  V30 36167 H 2506.37 -5.90877 -3.88583 0
M  V30 36168 H 2505.38 -6.65867 -2.58821 0
M  V30 36169 H 2507.22 -8.16248 -3.92006 0
M  V30 36170 H 2507.29 -4.34551 -4.26383 0
M  V30 36171 H 2506.26 -1.85471 -5.61775 0
M  V30 36172 H 2507.99 -2.31364 -5.66257 0
M  V30 36173 H 2507.51 -0.695936 -5.05229 0
M  V30 36174 H 2506.77 -1.26277 -0.63625 0
M  V30 36175 P 2505.35 -8.7635 -1.60911 0
M  V30 36176 O 2505.13 -10.1388 -1.11561 0
M  V30 36177 O 2504.56 -8.36503 -2.79617 0
M  V30 36178 O 2505.1 -7.71806 -0.42951 0
M  V30 36179 C 2506.04 -7.67148 0.673689 0
M  V30 36180 C 2505.31 -7.33374 1.95559 0
M  V30 36181 O 2505.1 -5.88721 2.00726 0
M  V30 36182 C 2503.91 -7.92526 2.10483 0
M  V30 36183 O 2503.52 -8.02971 3.47653 0
M  V30 36184 C 2503.03 -6.89602 1.41652 0
M  V30 36185 C 2503.74 -5.59201 1.75185 0
M  V30 36186 N 2503.69 -4.58301 0.657969 0
M  V30 36187 H 2506.52 -8.65116 0.777161 0
M  V30 36188 H 2506.8 -6.9022 0.46725 0
M  V30 36189 H 2505.93 -7.66548 2.79458 0
M  V30 36190 H 2503.27 -5.16165 2.65183 0
M  V30 36191 H 2502.99 -7.06433 0.329384 0
M  V30 36192 H 2502 -6.90926 1.82021 0
M  V30 36193 H 2503.84 -8.90873 1.62657 0
M  V30 36194 P 2501.97 -8.03563 3.84925 0
M  V30 36195 O 2501.75 -8.85821 5.0569 0
M  V30 36196 O 2501.18 -8.41101 2.65469 0
M  V30 36197 O 2501.72 -6.4965 4.18908 0
M  V30 36198 C 2502.66 -5.80886 5.05289 0
M  V30 36199 C 2501.93 -4.78366 5.89277 0
M  V30 36200 O 2501.72 -3.58302 5.08433 0
M  V30 36201 C 2500.53 -5.16748 6.36559 0
M  V30 36202 O 2500.14 -4.45271 7.53232 0
M  V30 36203 C 2499.65 -4.74572 5.19863 0
M  V30 36204 C 2500.36 -3.49373 4.70338 0
M  V30 36205 N 2500.31 -3.31704 3.22876 0
M  V30 36206 C 2500.16 -2.03326 2.74871 0
M  V30 36207 O 2500.07 -1.06486 3.48076 0
M  V30 36208 N 2500.12 -1.91838 1.37456 0
M  V30 36209 C 2500.21 -2.94295 0.462035 0
M  V30 36210 O 2500.16 -2.71763 -0.752928 0
M  V30 36211 C 2500.36 -4.25064 1.05249 0
M  V30 36212 C 2500.47 -5.39815 0.095697 0
M  V30 36213 C 2500.41 -4.40214 2.39192 0
M  V30 36214 H 2503.15 -6.54063 5.71245 0
M  V30 36215 H 2503.42 -5.30339 4.43905 0
M  V30 36216 H 2502.55 -4.55889 6.76652 0
M  V30 36217 H 2499.89 -2.6167 5.17842 0
M  V30 36218 H 2499.61 -5.52155 4.41878 0
M  V30 36219 H 2498.62 -4.51918 5.53297 0
M  V30 36220 H 2500.46 -6.25055 6.55162 0
M  V30 36221 H 2500.53 -5.39798 2.81523 0
M  V30 36222 H 2499.5 -5.91593 0.0279582 0
M  V30 36223 H 2501.23 -6.10038 0.450573 0
M  V30 36224 H 2500.75 -5.02007 -0.89937 0
M  V30 36225 H 2500.01 -0.995326 1.00435 0
M  V30 36226 P 2498.59 -4.23843 7.83734 0
M  V30 36227 O 2498.37 -4.19407 9.29784 0
M  V30 36228 O 2497.8 -5.24426 7.09156 0
M  V30 36229 O 2498.34 -2.7935 7.20758 0
M  V30 36230 C 2499.28 -1.72945 7.50224 0
M  V30 36231 C 2498.55 -0.406376 7.57911 0
M  V30 36232 O 2498.34 0.0897726 6.21935 0
M  V30 36233 C 2497.15 -0.438983 8.18724 0
M  V30 36234 O 2496.76 0.825065 8.71101 0
M  V30 36235 C 2496.27 -0.783689 6.99524 0
M  V30 36236 C 2496.98 -0.0619086 5.85867 0
M  V30 36237 N 2496.93 -0.78573 4.56183 0
M  V30 36238 C 2496.78 -0.0292889 3.41887 0
M  V30 36239 O 2496.69 1.18445 3.4419 0
M  V30 36240 N 2496.74 -0.744061 2.23964 0
M  V30 36241 C 2496.83 -2.10932 2.10362 0
M  V30 36242 C 2496.98 -2.8202 3.34994 0
M  V30 36243 C 2497.03 -2.15547 4.52261 0
M  V30 36244 H 2499.77 -1.93379 8.46595 0
M  V30 36245 H 2500.04 -1.68132 6.70852 0
M  V30 36246 H 2499.17 0.289041 8.15388 0
M  V30 36247 H 2496.51 0.926847 5.72749 0
M  V30 36248 H 2496.23 -1.86973 6.82036 0
M  V30 36249 H 2495.24 -0.403896 7.13257 0
M  V30 36250 H 2497.08 -1.20585 8.97435 0
M  V30 36251 H 2497.15 -2.71231 5.45042 0
M  V30 36252 P 2495.21 1.17771 8.83182 0
M  V30 36253 O 2494.99 2.07206 9.98732 0
M  V30 36254 O 2494.42 -0.0743816 8.81969 0
M  V30 36255 O 2494.96 1.97652 7.47304 0
M  V30 36256 C 2495.9 3.01133 7.08783 0
M  V30 36257 C 2495.17 4.12613 6.37049 0
M  V30 36258 O 2494.96 3.72827 4.97879 0
M  V30 36259 C 2493.77 4.45085 6.88694 0
M  V30 36260 O 2493.38 5.7877 6.5624 0
M  V30 36261 C 2492.89 3.47817 6.12078 0
M  V30 36262 C 2493.6 3.39414 4.77697 0
M  V30 36263 N 2493.55 2.04615 4.15333 0
M  V30 36264 H 2496.38 3.41248 7.98759 0
M  V30 36265 H 2496.66 2.5837 6.41742 0
M  V30 36266 H 2495.79 5.02657 6.42673 0
M  V30 36267 P 2491.83 6.144 6.45285 0
M  V30 36268 O 2491.61 7.54673 6.86199 0
M  V30 36269 O 2491.04 5.12391 7.179 0
M  V30 36270 O 2491.58 5.99158 4.88404 0
M  V30 36271 C 2492.52 6.60234 3.96415 0
M  V30 36272 C 2491.79 7.08259 2.72856 0
M  V30 36273 O 2491.58 5.9427 1.83651 0
M  V30 36274 C 2490.39 7.64886 2.9555 0
M  V30 36275 O 2490 8.53963 1.90717 0
M  V30 36276 C 2489.51 6.4116 2.90739 0
M  V30 36277 C 2490.22 5.55375 1.86963 0
M  V30 36278 N 2490.17 4.09448 2.16152 0
M  V30 36279 H 2493 7.45574 4.45629 0
M  V30 36280 H 2493.28 5.85864 3.679 0
M  V30 36281 H 2492.41 7.84412 2.24479 0
M  V30 36282 H 2489.75 5.73457 0.888562 0
M  V30 36283 H 2489.47 5.90877 3.88583 0
M  V30 36284 H 2488.48 6.6596 2.58858 0
M  V30 36285 H 2490.32 8.16339 3.92049 0
M  V30 36286 P 2488.45 8.7635 1.60911 0
M  V30 36287 O 2488.23 10.1388 1.11561 0
M  V30 36288 O 2487.66 8.36503 2.79617 0
M  V30 36289 O 2488.2 7.71806 0.42951 0
M  V30 36290 C 2489.14 7.67148 -0.673689 0
M  V30 36291 C 2488.41 7.33374 -1.95559 0
M  V30 36292 O 2488.2 5.88721 -2.00726 0
M  V30 36293 C 2487.01 7.92526 -2.10483 0
M  V30 36294 O 2486.62 8.02971 -3.47653 0
M  V30 36295 C 2486.13 6.89602 -1.41652 0
M  V30 36296 C 2486.84 5.59201 -1.75185 0
M  V30 36297 N 2486.79 4.58235 -0.662552 0
M  V30 36298 H 2489.62 8.65116 -0.777161 0
M  V30 36299 H 2489.9 6.90173 -0.474152 0
M  V30 36300 H 2489.03 7.66548 -2.79458 0
M  V30 36301 P 2485.07 8.03563 -3.84925 0
M  V30 36302 O 2484.85 8.85821 -5.0569 0
M  V30 36303 O 2484.28 8.41101 -2.65469 0
M  V30 36304 O 2484.82 6.4965 -4.18908 0
M  V30 36305 C 2485.76 5.81037 -5.05421 0
M  V30 36306 C 2485.03 4.78366 -5.89277 0
M  V30 36307 O 2484.82 3.58302 -5.08433 0
M  V30 36308 C 2483.63 5.17448 -6.36119 0
M  V30 36309 O 2483.24 4.45271 -7.53232 0
M  V30 36310 C 2482.75 4.74639 -5.19936 0
M  V30 36311 C 2483.46 3.49432 -4.70418 0
M  V30 36312 N 2483.41 3.32099 -3.22613 0
M  V30 36313 C 2483.49 4.28245 -2.25527 0
M  V30 36314 N 2483.42 3.80823 -1.04874 0
M  V30 36315 C 2483.27 2.44571 -1.23535 0
M  V30 36316 C 2483.14 1.37068 -0.330675 0
M  V30 36317 N 2483.13 1.51472 0.990824 0
M  V30 36318 N 2483.02 0.138614 -0.848756 0
M  V30 36319 C 2483.03 -0.00675923 -2.16999 0
M  V30 36320 N 2483.15 0.904372 -3.11122 0
M  V30 36321 C 2483.27 2.12707 -2.56212 0
M  V30 36322 H 2486.24 6.54213 -5.71376 0
M  V30 36323 H 2486.52 5.30936 -4.43503 0
M  V30 36324 H 2485.65 4.55889 -6.76652 0
M  V30 36325 H 2482.99 2.61715 -5.17932 0
M  V30 36326 H 2482.71 5.52155 -4.41878 0
M  V30 36327 H 2481.72 4.51981 -5.53374 0
M  V30 36328 H 2483.56 6.25124 -6.55234 0
M  V30 36329 H 2483.6 5.34372 -2.47488 0
M  V30 36330 H 2483.22 2.45153 1.4078 0
M  V30 36331 H 2483.03 0.688422 1.59911 0
M  V30 36332 H 2482.92 -1.02584 -2.52346 0
M  V30 36333 P 2481.69 4.23843 -7.83734 0
M  V30 36334 O 2481.47 4.19407 -9.29784 0
M  V30 36335 O 2480.9 5.24426 -7.09156 0
M  V30 36336 O 2481.44 2.7935 -7.20758 0
M  V30 36337 C 2482.38 1.7299 -7.50419 0
M  V30 36338 C 2481.65 0.406376 -7.57911 0
M  V30 36339 O 2481.44 -0.0897726 -6.21935 0
M  V30 36340 C 2480.25 0.447224 -8.1878 0
M  V30 36341 O 2479.86 -0.825065 -8.71101 0
M  V30 36342 C 2479.37 0.783801 -6.99623 0
M  V30 36343 C 2480.08 0.0619192 -5.85967 0
M  V30 36344 N 2480.03 0.790462 -4.56202 0
M  V30 36345 H 2482.86 1.93423 -8.4679 0
M  V30 36346 H 2483.14 1.68852 -6.70877 0
M  V30 36347 H 2482.27 -0.289041 -8.15388 0
M  V30 36348 H 2479.61 -0.927006 -5.72848 0
M  V30 36349 H 2479.33 1.86973 -6.82036 0
M  V30 36350 H 2478.34 0.403953 -7.13357 0
M  V30 36351 H 2480.18 1.20599 -8.97534 0
M  V30 36352 P 2478.31 -1.17771 -8.83182 0
M  V30 36353 O 2478.09 -2.07206 -9.98732 0
M  V30 36354 O 2477.52 0.0743816 -8.81969 0
M  V30 36355 O 2478.06 -1.97652 -7.47304 0
M  V30 36356 C 2479 -3.01133 -7.08783 0
M  V30 36357 C 2478.27 -4.12613 -6.37049 0
M  V30 36358 O 2478.06 -3.72827 -4.97879 0
M  V30 36359 C 2476.87 -4.45085 -6.88694 0
M  V30 36360 O 2476.48 -5.7877 -6.5624 0
M  V30 36361 C 2475.99 -3.47817 -6.12078 0
M  V30 36362 C 2476.7 -3.39414 -4.77697 0
M  V30 36363 N 2476.65 -2.04615 -4.15333 0
M  V30 36364 H 2479.48 -3.41248 -7.98759 0
M  V30 36365 H 2479.76 -2.5837 -6.41742 0
M  V30 36366 H 2478.89 -5.02657 -6.42673 0
M  V30 36367 P 2474.93 -6.144 -6.45285 0
M  V30 36368 O 2474.71 -7.54673 -6.86199 0
M  V30 36369 O 2474.14 -5.12391 -7.179 0
M  V30 36370 O 2474.68 -5.99158 -4.88404 0
M  V30 36371 C 2475.62 -6.60234 -3.96415 0
M  V30 36372 C 2474.89 -7.08259 -2.72856 0
M  V30 36373 O 2474.68 -5.9427 -1.83651 0
M  V30 36374 C 2473.49 -7.64886 -2.9555 0
M  V30 36375 O 2473.1 -8.53963 -1.90717 0
M  V30 36376 C 2472.61 -6.4116 -2.90739 0
M  V30 36377 C 2473.32 -5.55375 -1.86963 0
M  V30 36378 N 2473.27 -4.09664 -2.15742 0
M  V30 36379 C 2473.35 -3.44381 -3.37233 0
M  V30 36380 N 2473.27 -2.14131 -3.28347 0
M  V30 36381 C 2473.13 -1.90247 -1.91588 0
M  V30 36382 C 2473 -0.683992 -1.20892 0
M  V30 36383 O 2472.98 0.46618 -1.64523 0
M  V30 36384 N 2472.88 -0.903396 0.173998 0
M  V30 36385 C 2472.88 -2.14171 0.784879 0
M  V30 36386 N 2472.75 -2.1435 2.11317 0
M  V30 36387 N 2473.01 -3.28784 0.119316 0
M  V30 36388 C 2473.13 -3.0977 -1.22194 0
M  V30 36389 H 2476.1 -7.45574 -4.45629 0
M  V30 36390 H 2476.38 -5.86232 -3.67314 0
M  V30 36391 H 2475.51 -7.84412 -2.24479 0
M  V30 36392 H 2472.85 -5.73556 -0.888715 0
M  V30 36393 H 2472.57 -5.9096 -3.88638 0
M  V30 36394 H 2471.58 -6.66053 -2.58894 0
M  V30 36395 H 2473.42 -8.16429 -3.92093 0
M  V30 36396 H 2473.47 -3.96785 -4.32043 0
M  V30 36397 H 2472.78 -0.0999567 0.761467 0
M  V30 36398 H 2472.75 -3.03436 2.63076 0
M  V30 36399 H 2472.65 -1.25228 2.62233 0
M  V30 36400 P 2471.55 -8.7635 -1.60911 0
M  V30 36401 O 2471.33 -10.1388 -1.11561 0
M  V30 36402 O 2470.76 -8.36503 -2.79617 0
M  V30 36403 O 2471.3 -7.71806 -0.42951 0
M  V30 36404 C 2472.24 -7.67148 0.673689 0
M  V30 36405 C 2471.51 -7.33374 1.95559 0
M  V30 36406 O 2471.3 -5.88721 2.00726 0
M  V30 36407 C 2470.11 -7.92526 2.10483 0
M  V30 36408 O 2469.72 -8.02971 3.47653 0
M  V30 36409 C 2469.23 -6.89602 1.41652 0
M  V30 36410 C 2469.94 -5.59201 1.75185 0
M  V30 36411 N 2469.89 -4.58235 0.662552 0
M  V30 36412 H 2472.72 -8.65116 0.777161 0
M  V30 36413 H 2473 -6.90173 0.474152 0
M  V30 36414 H 2472.13 -7.66548 2.79458 0
M  V30 36415 P 2468.17 -8.03563 3.84925 0
M  V30 36416 O 2467.95 -8.85821 5.0569 0
M  V30 36417 O 2467.38 -8.41101 2.65469 0
M  V30 36418 O 2467.92 -6.4965 4.18908 0
M  V30 36419 C 2468.86 -5.81037 5.05421 0
M  V30 36420 C 2468.13 -4.78366 5.89277 0
M  V30 36421 O 2467.92 -3.58302 5.08433 0
M  V30 36422 C 2466.73 -5.17448 6.36119 0
M  V30 36423 O 2466.34 -4.45271 7.53232 0
M  V30 36424 C 2465.85 -4.74639 5.19936 0
M  V30 36425 C 2466.56 -3.49432 4.70418 0
M  V30 36426 N 2466.51 -3.31776 3.22945 0
M  V30 36427 H 2469.34 -6.54213 5.71376 0
M  V30 36428 H 2469.62 -5.30492 4.44033 0
M  V30 36429 H 2468.75 -4.55889 6.76652 0
M  V30 36430 P 2464.79 -4.23843 7.83734 0
M  V30 36431 O 2464.57 -4.19407 9.29784 0
M  V30 36432 O 2464 -5.24426 7.09156 0
M  V30 36433 O 2464.54 -2.7935 7.20758 0
M  V30 36434 C 2465.48 -1.7299 7.50419 0
M  V30 36435 C 2464.75 -0.406376 7.57911 0
M  V30 36436 O 2464.54 0.0897726 6.21935 0
M  V30 36437 C 2463.35 -0.447224 8.1878 0
M  V30 36438 O 2462.96 0.825065 8.71101 0
M  V30 36439 C 2462.47 -0.783801 6.99623 0
M  V30 36440 C 2463.18 -0.0619192 5.85967 0
M  V30 36441 N 2463.13 -0.7859 4.56281 0
M  V30 36442 H 2465.96 -1.93423 8.4679 0
M  V30 36443 H 2466.24 -1.68181 6.71046 0
M  V30 36444 H 2465.37 0.289041 8.15388 0
M  V30 36445 P 2461.41 1.17771 8.83182 0
M  V30 36446 O 2461.19 2.07206 9.98732 0
M  V30 36447 O 2460.62 -0.0743816 8.81969 0
M  V30 36448 O 2461.16 1.97652 7.47304 0
M  V30 36449 C 2462.1 3.01055 7.08599 0
M  V30 36450 C 2461.37 4.12613 6.37049 0
M  V30 36451 O 2461.16 3.72827 4.97879 0
M  V30 36452 C 2459.97 4.45719 6.88164 0
M  V30 36453 O 2459.58 5.7877 6.5624 0
M  V30 36454 C 2459.09 3.47768 6.11991 0
M  V30 36455 C 2459.8 3.39356 4.77615 0
M  V30 36456 N 2459.75 2.04571 4.15244 0
M  V30 36457 C 2459.6 1.98587 2.78314 0
M  V30 36458 O 2459.51 2.98134 2.08835 0
M  V30 36459 N 2459.56 0.714467 2.24925 0
M  V30 36460 C 2459.65 -0.470001 2.94169 0
M  V30 36461 O 2459.6 -1.55587 2.35195 0
M  V30 36462 C 2459.8 -0.312541 4.36783 0
M  V30 36463 C 2459.91 -1.57711 5.16352 0
M  V30 36464 C 2459.85 0.914512 4.92583 0
M  V30 36465 H 2462.59 3.41169 7.98575 0
M  V30 36466 H 2462.86 2.58295 6.41556 0
M  V30 36467 H 2461.99 5.02657 6.42673 0
M  V30 36468 H 2459.33 4.11637 4.08885 0
M  V30 36469 H 2459.05 2.49626 6.61679 0
M  V30 36470 H 2458.06 3.86566 6.00778 0
M  V30 36471 H 2459.9 4.29943 7.96918 0
M  V30 36472 H 2459.97 1.00937 6.00374 0
M  V30 36473 H 2458.94 -1.80153 5.63503 0
M  V30 36474 H 2460.67 -1.4566 5.94104 0
M  V30 36475 H 2460.19 -2.40664 4.49645 0
M  V30 36476 H 2459.45 0.647622 1.25697 0
M  V30 36477 P 2458.03 6.144 6.45285 0
M  V30 36478 O 2457.81 7.54673 6.86199 0
M  V30 36479 O 2457.24 5.12391 7.179 0
M  V30 36480 O 2457.78 5.99158 4.88404 0
M  V30 36481 C 2458.72 6.60234 3.96415 0
M  V30 36482 C 2457.99 7.08259 2.72856 0
M  V30 36483 O 2457.78 5.9427 1.83651 0
M  V30 36484 C 2456.59 7.64886 2.9555 0
M  V30 36485 O 2456.2 8.53963 1.90717 0
M  V30 36486 C 2455.71 6.4116 2.90739 0
M  V30 36487 C 2456.42 5.55375 1.86963 0
M  V30 36488 N 2456.37 4.09664 2.15742 0
M  V30 36489 H 2459.2 7.45574 4.45629 0
M  V30 36490 H 2459.48 5.86232 3.67314 0
M  V30 36491 H 2458.61 7.84412 2.24479 0
M  V30 36492 P 2454.65 8.7635 1.60911 0
M  V30 36493 O 2454.43 10.1388 1.11561 0
M  V30 36494 O 2453.86 8.36503 2.79617 0
M  V30 36495 O 2454.4 7.71806 0.42951 0
M  V30 36496 C 2455.34 7.67148 -0.673689 0
M  V30 36497 C 2454.61 7.33374 -1.95559 0
M  V30 36498 O 2454.4 5.88721 -2.00726 0
M  V30 36499 C 2453.21 7.92526 -2.10483 0
M  V30 36500 O 2452.82 8.02971 -3.47653 0
M  V30 36501 C 2452.33 6.89602 -1.41652 0
M  V30 36502 C 2453.04 5.59201 -1.75185 0
M  V30 36503 N 2452.99 4.58235 -0.662552 0
M  V30 36504 H 2455.82 8.65116 -0.777161 0
M  V30 36505 H 2456.1 6.90173 -0.474152 0
M  V30 36506 H 2455.23 7.66548 -2.79458 0
M  V30 36507 P 2451.27 8.03563 -3.84925 0
M  V30 36508 O 2451.05 8.85821 -5.0569 0
M  V30 36509 O 2450.48 8.41101 -2.65469 0
M  V30 36510 O 2451.02 6.4965 -4.18908 0
M  V30 36511 C 2451.96 5.81037 -5.05421 0
M  V30 36512 C 2451.23 4.78366 -5.89277 0
M  V30 36513 O 2451.02 3.58302 -5.08433 0
M  V30 36514 C 2449.83 5.17448 -6.36119 0
M  V30 36515 O 2449.44 4.45271 -7.53232 0
M  V30 36516 C 2448.95 4.74639 -5.19936 0
M  V30 36517 C 2449.66 3.49432 -4.70418 0
M  V30 36518 N 2449.61 3.31776 -3.22945 0
M  V30 36519 H 2452.44 6.54213 -5.71376 0
M  V30 36520 H 2452.72 5.30492 -4.44033 0
M  V30 36521 H 2451.85 4.55889 -6.76652 0
M  V30 36522 P 2447.89 4.23843 -7.83734 0
M  V30 36523 O 2447.67 4.19407 -9.29784 0
M  V30 36524 O 2447.1 5.24426 -7.09156 0
M  V30 36525 O 2447.64 2.7935 -7.20758 0
M  V30 36526 C 2448.58 1.7299 -7.50419 0
M  V30 36527 C 2447.85 0.406376 -7.57911 0
M  V30 36528 O 2447.64 -0.0897726 -6.21935 0
M  V30 36529 C 2446.45 0.447224 -8.1878 0
M  V30 36530 O 2446.06 -0.825065 -8.71101 0
M  V30 36531 C 2445.57 0.783801 -6.99623 0
M  V30 36532 C 2446.28 0.0619192 -5.85967 0
M  V30 36533 N 2446.23 0.790462 -4.56202 0
M  V30 36534 H 2449.06 1.93423 -8.4679 0
M  V30 36535 H 2449.34 1.68852 -6.70877 0
M  V30 36536 H 2448.47 -0.289041 -8.15388 0
M  V30 36537 H 2445.81 -0.927006 -5.72848 0
M  V30 36538 H 2445.53 1.86973 -6.82036 0
M  V30 36539 H 2444.54 0.403953 -7.13357 0
M  V30 36540 H 2446.38 1.20599 -8.97534 0
M  V30 36541 P 2444.51 -1.17771 -8.83182 0
M  V30 36542 O 2444.29 -2.07206 -9.98732 0
M  V30 36543 O 2443.72 0.0743816 -8.81969 0
M  V30 36544 O 2444.26 -1.97652 -7.47304 0
M  V30 36545 C 2445.2 -3.01133 -7.08783 0
M  V30 36546 C 2444.47 -4.12613 -6.37049 0
M  V30 36547 O 2444.26 -3.72827 -4.97879 0
M  V30 36548 C 2443.07 -4.45085 -6.88694 0
M  V30 36549 O 2442.68 -5.7877 -6.5624 0
M  V30 36550 C 2442.19 -3.47817 -6.12078 0
M  V30 36551 C 2442.9 -3.39414 -4.77697 0
M  V30 36552 N 2442.85 -2.04615 -4.15333 0
M  V30 36553 H 2445.68 -3.41248 -7.98759 0
M  V30 36554 H 2445.96 -2.5837 -6.41742 0
M  V30 36555 H 2445.09 -5.02657 -6.42673 0
M  V30 36556 P 2441.13 -6.144 -6.45285 0
M  V30 36557 O 2440.91 -7.54673 -6.86199 0
M  V30 36558 O 2440.34 -5.12391 -7.179 0
M  V30 36559 O 2440.88 -5.99158 -4.88404 0
M  V30 36560 C 2441.82 -6.60234 -3.96415 0
M  V30 36561 C 2441.09 -7.08259 -2.72856 0
M  V30 36562 O 2440.88 -5.9427 -1.83651 0
M  V30 36563 C 2439.69 -7.64886 -2.9555 0
M  V30 36564 O 2439.3 -8.53963 -1.90717 0
M  V30 36565 C 2438.81 -6.4116 -2.90739 0
M  V30 36566 C 2439.52 -5.55375 -1.86963 0
M  V30 36567 N 2439.47 -4.09664 -2.15742 0
M  V30 36568 C 2439.55 -3.44381 -3.37233 0
M  V30 36569 N 2439.47 -2.14131 -3.28347 0
M  V30 36570 C 2439.33 -1.90247 -1.91588 0
M  V30 36571 C 2439.2 -0.683992 -1.20892 0
M  V30 36572 N 2439.08 -0.903396 0.173998 0
M  V30 36573 C 2439.08 -2.14171 0.784879 0
M  V30 36574 N 2438.95 -2.1435 2.11317 0
M  V30 36575 N 2439.21 -3.28784 0.119316 0
M  V30 36576 C 2439.33 -3.0977 -1.22194 0
M  V30 36577 H 2442.3 -7.45574 -4.45629 0
M  V30 36578 H 2442.58 -5.86232 -3.67314 0
M  V30 36579 H 2441.71 -7.84412 -2.24479 0
M  V30 36580 P 2437.75 -8.7635 -1.60911 0
M  V30 36581 O 2437.53 -10.1388 -1.11561 0
M  V30 36582 O 2436.96 -8.36503 -2.79617 0
M  V30 36583 O 2437.5 -7.71806 -0.42951 0
M  V30 36584 C 2438.44 -7.67148 0.673689 0
M  V30 36585 C 2437.71 -7.33374 1.95559 0
M  V30 36586 O 2437.5 -5.88721 2.00726 0
M  V30 36587 C 2436.31 -7.92526 2.10483 0
M  V30 36588 O 2435.92 -8.02971 3.47653 0
M  V30 36589 C 2435.43 -6.89602 1.41652 0
M  V30 36590 C 2436.14 -5.59201 1.75185 0
M  V30 36591 N 2436.09 -4.58235 0.662552 0
M  V30 36592 H 2438.92 -8.65116 0.777161 0
M  V30 36593 H 2439.2 -6.90173 0.474152 0
M  V30 36594 H 2438.33 -7.66548 2.79458 0
M  V30 36595 P 2434.37 -8.03563 3.84925 0
M  V30 36596 O 2434.15 -8.85821 5.0569 0
M  V30 36597 O 2433.58 -8.41101 2.65469 0
M  V30 36598 O 2434.12 -6.4965 4.18908 0
M  V30 36599 C 2435.06 -5.81037 5.05421 0
M  V30 36600 C 2434.33 -4.78366 5.89277 0
M  V30 36601 O 2434.12 -3.58302 5.08433 0
M  V30 36602 C 2432.93 -5.17448 6.36119 0
M  V30 36603 O 2432.54 -4.45271 7.53232 0
M  V30 36604 C 2432.05 -4.74639 5.19936 0
M  V30 36605 C 2432.76 -3.49432 4.70418 0
M  V30 36606 N 2432.71 -3.32099 3.22613 0
M  V30 36607 H 2435.54 -6.54213 5.71376 0
M  V30 36608 H 2435.82 -5.30936 4.43503 0
M  V30 36609 H 2434.95 -4.55889 6.76652 0
M  V30 36610 H 2432.29 -2.61715 5.17932 0
M  V30 36611 H 2432.01 -5.52155 4.41878 0
M  V30 36612 H 2431.02 -4.51981 5.53374 0
M  V30 36613 H 2432.86 -6.25124 6.55234 0
M  V30 36614 P 2430.99 -4.23843 7.83734 0
M  V30 36615 O 2430.77 -4.19407 9.29784 0
M  V30 36616 O 2430.2 -5.24426 7.09156 0
M  V30 36617 O 2430.74 -2.7935 7.20758 0
M  V30 36618 C 2431.68 -1.72945 7.50224 0
M  V30 36619 C 2430.95 -0.406376 7.57911 0
M  V30 36620 O 2430.74 0.0897726 6.21935 0
M  V30 36621 C 2429.55 -0.438983 8.18724 0
M  V30 36622 O 2429.16 0.825065 8.71101 0
M  V30 36623 C 2428.67 -0.783689 6.99524 0
M  V30 36624 C 2429.38 -0.0619086 5.85867 0
M  V30 36625 N 2429.33 -0.78573 4.56183 0
M  V30 36626 C 2429.18 -0.0292889 3.41887 0
M  V30 36627 O 2429.09 1.18445 3.4419 0
M  V30 36628 N 2429.14 -0.744061 2.23964 0
M  V30 36629 C 2429.23 -2.10932 2.10362 0
M  V30 36630 O 2429.18 -2.64117 0.98825 0
M  V30 36631 C 2429.38 -2.8202 3.34994 0
M  V30 36632 C 2429.49 -4.31095 3.25037 0
M  V30 36633 C 2429.43 -2.15547 4.52261 0
M  V30 36634 H 2432.17 -1.93379 8.46595 0
M  V30 36635 H 2432.44 -1.68132 6.70852 0
M  V30 36636 H 2431.57 0.289041 8.15388 0
M  V30 36637 H 2428.91 0.926847 5.72749 0
M  V30 36638 H 2428.63 -1.86973 6.82036 0
M  V30 36639 H 2427.64 -0.403896 7.13257 0
M  V30 36640 H 2429.48 -1.20585 8.97435 0
M  V30 36641 H 2429.55 -2.71231 5.45042 0
M  V30 36642 H 2428.52 -4.76966 3.49992 0
M  V30 36643 H 2430.25 -4.67047 3.95024 0
M  V30 36644 H 2429.77 -4.58996 2.22312 0
M  V30 36645 H 2429.03 -0.214893 1.39758 0
M  V30 36646 P 2427.61 1.17771 8.83182 0
M  V30 36647 O 2427.39 2.07206 9.98732 0
M  V30 36648 O 2426.82 -0.0743816 8.81969 0
M  V30 36649 O 2427.36 1.97652 7.47304 0
M  V30 36650 C 2428.3 3.01133 7.08783 0
M  V30 36651 C 2427.57 4.12613 6.37049 0
M  V30 36652 O 2427.36 3.72827 4.97879 0
M  V30 36653 C 2426.17 4.45085 6.88694 0
M  V30 36654 O 2425.78 5.7877 6.5624 0
M  V30 36655 C 2425.29 3.47817 6.12078 0
M  V30 36656 C 2426 3.39414 4.77697 0
M  V30 36657 N 2425.95 2.04615 4.15333 0
M  V30 36658 H 2428.78 3.41248 7.98759 0
M  V30 36659 H 2429.06 2.5837 6.41742 0
M  V30 36660 H 2428.19 5.02657 6.42673 0
M  V30 36661 P 2424.23 6.144 6.45285 0
M  V30 36662 O 2424.01 7.54673 6.86199 0
M  V30 36663 O 2423.44 5.12391 7.179 0
M  V30 36664 O 2423.98 5.99158 4.88404 0
M  V30 36665 C 2424.92 6.60234 3.96415 0
M  V30 36666 C 2424.19 7.08259 2.72856 0
M  V30 36667 O 2423.98 5.9427 1.83651 0
M  V30 36668 C 2422.79 7.64886 2.9555 0
M  V30 36669 O 2422.4 8.53963 1.90717 0
M  V30 36670 C 2421.91 6.4116 2.90739 0
M  V30 36671 C 2422.62 5.55375 1.86963 0
M  V30 36672 N 2422.57 4.09448 2.16152 0
M  V30 36673 H 2425.4 7.45574 4.45629 0
M  V30 36674 H 2425.68 5.85864 3.679 0
M  V30 36675 H 2424.81 7.84412 2.24479 0
M  V30 36676 H 2422.15 5.73457 0.888562 0
M  V30 36677 H 2421.87 5.90877 3.88583 0
M  V30 36678 H 2420.88 6.6596 2.58858 0
M  V30 36679 H 2422.72 8.16339 3.92049 0
M  V30 36680 P 2420.85 8.7635 1.60911 0
M  V30 36681 O 2420.63 10.1388 1.11561 0
M  V30 36682 O 2420.06 8.36503 2.79617 0
M  V30 36683 O 2420.6 7.71806 0.42951 0
M  V30 36684 C 2421.54 7.67148 -0.673689 0
M  V30 36685 C 2420.81 7.33374 -1.95559 0
M  V30 36686 O 2420.6 5.88721 -2.00726 0
M  V30 36687 C 2419.41 7.92526 -2.10483 0
M  V30 36688 O 2419.02 8.02971 -3.47653 0
M  V30 36689 C 2418.53 6.89602 -1.41652 0
M  V30 36690 C 2419.24 5.59201 -1.75185 0
M  V30 36691 N 2419.19 4.58235 -0.662552 0
M  V30 36692 H 2422.02 8.65116 -0.777161 0
M  V30 36693 H 2422.3 6.90173 -0.474152 0
M  V30 36694 H 2421.43 7.66548 -2.79458 0
M  V30 36695 P 2417.47 8.03563 -3.84925 0
M  V30 36696 O 2417.25 8.85821 -5.0569 0
M  V30 36697 O 2416.68 8.41101 -2.65469 0
M  V30 36698 O 2417.22 6.49734 -4.18962 0
M  V30 36699 C 2418.16 5.81037 -5.05421 0
M  V30 36700 C 2417.43 4.79018 -5.88876 0
M  V30 36701 O 2417.22 3.58359 -5.08515 0
M  V30 36702 C 2416.03 5.17448 -6.36119 0
M  V30 36703 O 2415.64 4.45322 -7.53318 0
M  V30 36704 C 2415.15 4.74639 -5.19936 0
M  V30 36705 C 2415.86 3.49432 -4.70418 0
M  V30 36706 N 2415.81 3.31776 -3.22945 0
M  V30 36707 C 2415.66 2.02742 -2.72939 0
M  V30 36708 O 2415.57 1.08301 -3.52749 0
M  V30 36709 N 2415.61 1.96117 -1.22063 0
M  V30 36710 C 2415.71 2.8878 -0.551566 0
M  V30 36711 N 2415.66 2.65609 0.750198 0
M  V30 36712 C 2415.86 4.22457 -1.03707 0
M  V30 36713 C 2415.91 4.37979 -2.39113 0
M  V30 36714 H 2418.65 6.54138 -5.7131 0
M  V30 36715 H 2418.92 5.30492 -4.44033 0
M  V30 36716 H 2418.05 4.55945 -6.76735 0
M  V30 36717 H 2415.39 2.6176 -5.18021 0
M  V30 36718 H 2415.11 5.52233 -4.41941 0
M  V30 36719 H 2414.12 4.52045 -5.53452 0
M  V30 36720 H 2415.96 6.25124 -6.55234 0
M  V30 36721 H 2416.03 5.37936 -2.80552 0
M  V30 36722 H 2415.93 5.07528 -0.359553 0
M  V30 36723 H 2415.54 1.69403 1.09847 0
M  V30 36724 H 2415.73 3.43701 1.41792 0
M  V30 36725 P 2414.09 4.23843 -7.83734 0
M  V30 36726 O 2413.87 4.19407 -9.29784 0
M  V30 36727 O 2413.3 5.24426 -7.09156 0
M  V30 36728 O 2413.84 2.7935 -7.20758 0
M  V30 36729 C 2414.78 1.7299 -7.50419 0
M  V30 36730 C 2414.05 0.406376 -7.57911 0
M  V30 36731 O 2413.84 -0.0897726 -6.21935 0
M  V30 36732 C 2412.65 0.447224 -8.1878 0
M  V30 36733 O 2412.26 -0.825065 -8.71101 0
M  V30 36734 C 2411.77 0.783801 -6.99623 0
M  V30 36735 C 2412.48 0.0619192 -5.85967 0
M  V30 36736 N 2412.43 0.7859 -4.56281 0
M  V30 36737 H 2415.26 1.93423 -8.4679 0
M  V30 36738 H 2415.54 1.68181 -6.71046 0
M  V30 36739 H 2414.67 -0.289041 -8.15388 0
M  V30 36740 P 2410.71 -1.17771 -8.83182 0
M  V30 36741 O 2410.49 -2.07206 -9.98732 0
M  V30 36742 O 2409.92 0.0743816 -8.81969 0
M  V30 36743 O 2410.46 -1.97652 -7.47304 0
M  V30 36744 C 2411.4 -3.01133 -7.08783 0
M  V30 36745 C 2410.67 -4.12613 -6.37049 0
M  V30 36746 O 2410.46 -3.72827 -4.97879 0
M  V30 36747 C 2409.27 -4.45085 -6.88694 0
M  V30 36748 O 2408.88 -5.7877 -6.5624 0
M  V30 36749 C 2408.39 -3.47817 -6.12078 0
M  V30 36750 C 2409.1 -3.39414 -4.77697 0
M  V30 36751 N 2409.05 -2.04615 -4.15333 0
M  V30 36752 H 2411.88 -3.41248 -7.98759 0
M  V30 36753 H 2412.16 -2.5837 -6.41742 0
M  V30 36754 H 2411.29 -5.02657 -6.42673 0
M  V30 36755 P 2407.33 -6.144 -6.45285 0
M  V30 36756 O 2407.11 -7.54673 -6.86199 0
M  V30 36757 O 2406.54 -5.12391 -7.179 0
M  V30 36758 O 2407.08 -5.99158 -4.88404 0
M  V30 36759 C 2408.02 -6.60234 -3.96415 0
M  V30 36760 C 2407.29 -7.08259 -2.72856 0
M  V30 36761 O 2407.08 -5.9427 -1.83651 0
M  V30 36762 C 2405.89 -7.64886 -2.9555 0
M  V30 36763 O 2405.5 -8.53963 -1.90717 0
M  V30 36764 C 2405.01 -6.4116 -2.90739 0
M  V30 36765 C 2405.72 -5.55375 -1.86963 0
M  V30 36766 N 2405.67 -4.09664 -2.15742 0
M  V30 36767 H 2408.5 -7.45574 -4.45629 0
M  V30 36768 H 2408.78 -5.86232 -3.67314 0
M  V30 36769 H 2407.91 -7.84412 -2.24479 0
M  V30 36770 P 2403.95 -8.7635 -1.60911 0
M  V30 36771 O 2403.73 -10.1388 -1.11561 0
M  V30 36772 O 2403.16 -8.36503 -2.79617 0
M  V30 36773 O 2403.7 -7.71806 -0.42951 0
M  V30 36774 C 2404.64 -7.67148 0.673689 0
M  V30 36775 C 2403.91 -7.33374 1.95559 0
M  V30 36776 O 2403.7 -5.88721 2.00726 0
M  V30 36777 C 2402.51 -7.92526 2.10483 0
M  V30 36778 O 2402.12 -8.02971 3.47653 0
M  V30 36779 C 2401.63 -6.89602 1.41652 0
M  V30 36780 C 2402.34 -5.59201 1.75185 0
M  V30 36781 N 2402.29 -4.58235 0.662552 0
M  V30 36782 H 2405.12 -8.65116 0.777161 0
M  V30 36783 H 2405.4 -6.90173 0.474152 0
M  V30 36784 H 2404.53 -7.66548 2.79458 0
M  V30 36785 P 2400.57 -8.03563 3.84925 0
M  V30 36786 O 2400.35 -8.85821 5.0569 0
M  V30 36787 O 2399.78 -8.41101 2.65469 0
M  V30 36788 O 2400.32 -6.4965 4.18908 0
M  V30 36789 C 2401.26 -5.81037 5.05421 0
M  V30 36790 C 2400.53 -4.78366 5.89277 0
M  V30 36791 O 2400.32 -3.58302 5.08433 0
M  V30 36792 C 2399.13 -5.17448 6.36119 0
M  V30 36793 O 2398.74 -4.45271 7.53232 0
M  V30 36794 C 2398.25 -4.74639 5.19936 0
M  V30 36795 C 2398.96 -3.49432 4.70418 0
M  V30 36796 N 2398.91 -3.31776 3.22945 0
M  V30 36797 H 2401.74 -6.54213 5.71376 0
M  V30 36798 H 2402.02 -5.30492 4.44033 0
M  V30 36799 H 2401.15 -4.55889 6.76652 0
M  V30 36800 P 2397.19 -4.23843 7.83734 0
M  V30 36801 O 2396.97 -4.19407 9.29784 0
M  V30 36802 O 2396.4 -5.24426 7.09156 0
M  V30 36803 O 2396.94 -2.7935 7.20758 0
M  V30 36804 C 2397.88 -1.7299 7.50419 0
M  V30 36805 C 2397.15 -0.406376 7.57911 0
M  V30 36806 O 2396.94 0.0897726 6.21935 0
M  V30 36807 C 2395.75 -0.447224 8.1878 0
M  V30 36808 O 2395.36 0.825065 8.71101 0
M  V30 36809 C 2394.87 -0.783801 6.99623 0
M  V30 36810 C 2395.58 -0.0619192 5.85967 0
M  V30 36811 N 2395.53 -0.7859 4.56281 0
M  V30 36812 H 2398.36 -1.93423 8.4679 0
M  V30 36813 H 2398.64 -1.68181 6.71046 0
M  V30 36814 H 2397.77 0.289041 8.15388 0
M  V30 36815 P 2393.81 1.17771 8.83182 0
M  V30 36816 O 2393.59 2.07206 9.98732 0
M  V30 36817 O 2393.02 -0.0743816 8.81969 0
M  V30 36818 O 2393.56 1.97652 7.47304 0
M  V30 36819 C 2394.5 3.01133 7.08783 0
M  V30 36820 C 2393.77 4.12613 6.37049 0
M  V30 36821 O 2393.56 3.72827 4.97879 0
M  V30 36822 C 2392.37 4.45085 6.88694 0
M  V30 36823 O 2391.98 5.7877 6.5624 0
M  V30 36824 C 2391.49 3.47817 6.12078 0
M  V30 36825 C 2392.2 3.39414 4.77697 0
M  V30 36826 N 2392.15 2.04615 4.15333 0
M  V30 36827 H 2394.98 3.41248 7.98759 0
M  V30 36828 H 2395.26 2.5837 6.41742 0
M  V30 36829 H 2394.39 5.02657 6.42673 0
M  V30 36830 P 2390.43 6.144 6.45285 0
M  V30 36831 O 2390.21 7.54673 6.86199 0
M  V30 36832 O 2389.64 5.12391 7.179 0
M  V30 36833 O 2390.18 5.99236 4.88467 0
M  V30 36834 C 2391.12 6.60234 3.96415 0
M  V30 36835 C 2390.39 7.08079 2.736 0
M  V30 36836 O 2390.18 5.94365 1.8368 0
M  V30 36837 C 2388.99 7.64886 2.9555 0
M  V30 36838 O 2388.6 8.5406 1.90739 0
M  V30 36839 C 2388.11 6.4116 2.90739 0
M  V30 36840 C 2388.82 5.55375 1.86963 0
M  V30 36841 N 2388.77 4.09664 2.15742 0
M  V30 36842 C 2388.62 3.22231 1.08477 0
M  V30 36843 O 2388.53 3.68951 -0.0600489 0
M  V30 36844 N 2388.57 1.76692 1.48799 0
M  V30 36845 C 2388.67 1.41695 2.57602 0
M  V30 36846 N 2388.62 0.107296 2.75791 0
M  V30 36847 C 2388.82 2.29178 3.69733 0
M  V30 36848 C 2388.87 3.62753 3.42653 0
M  V30 36849 H 2391.61 7.45488 4.45578 0
M  V30 36850 H 2391.88 5.86232 3.67314 0
M  V30 36851 H 2391.01 7.84508 2.24507 0
M  V30 36852 H 2388.35 5.73556 0.888715 0
M  V30 36853 H 2388.07 5.9096 3.88638 0
M  V30 36854 H 2387.08 6.66053 2.58894 0
M  V30 36855 H 2388.92 8.16339 3.92049 0
M  V30 36856 H 2388.99 4.33052 4.24913 0
M  V30 36857 H 2388.89 1.9103 4.71577 0
M  V30 36858 H 2388.5 -0.521221 1.95056 0
M  V30 36859 H 2388.69 -0.286429 3.70695 0
M  V30 36860 P 2387.05 8.7635 1.60911 0
M  V30 36861 O 2386.83 10.1388 1.11561 0
M  V30 36862 O 2386.26 8.36503 2.79617 0
M  V30 36863 O 2386.8 7.71806 0.42951 0
M  V30 36864 C 2387.74 7.67148 -0.673689 0
M  V30 36865 C 2387.01 7.33374 -1.95559 0
M  V30 36866 O 2386.8 5.88721 -2.00726 0
M  V30 36867 C 2385.61 7.92526 -2.10483 0
M  V30 36868 O 2385.22 8.02971 -3.47653 0
M  V30 36869 C 2384.73 6.89602 -1.41652 0
M  V30 36870 C 2385.44 5.59201 -1.75185 0
M  V30 36871 N 2385.39 4.58301 -0.657969 0
M  V30 36872 H 2388.22 8.65116 -0.777161 0
M  V30 36873 H 2388.5 6.9022 -0.46725 0
M  V30 36874 H 2387.63 7.66548 -2.79458 0
M  V30 36875 H 2384.97 5.16165 -2.65183 0
M  V30 36876 H 2384.69 7.06433 -0.329384 0
M  V30 36877 H 2383.7 6.90926 -1.82021 0
M  V30 36878 H 2385.54 8.90873 -1.62657 0
M  V30 36879 P 2383.67 8.03563 -3.84925 0
M  V30 36880 O 2383.45 8.85821 -5.0569 0
M  V30 36881 O 2382.88 8.41101 -2.65469 0
M  V30 36882 O 2383.42 6.4965 -4.18908 0
M  V30 36883 C 2384.36 5.81037 -5.05421 0
M  V30 36884 C 2383.63 4.78366 -5.89277 0
M  V30 36885 O 2383.42 3.58302 -5.08433 0
M  V30 36886 C 2382.23 5.17448 -6.36119 0
M  V30 36887 O 2381.84 4.45271 -7.53232 0
M  V30 36888 C 2381.35 4.74639 -5.19936 0
M  V30 36889 C 2382.06 3.49432 -4.70418 0
M  V30 36890 N 2382.01 3.32099 -3.22613 0
M  V30 36891 C 2382.09 4.28245 -2.25527 0
M  V30 36892 N 2382.02 3.80823 -1.04874 0
M  V30 36893 C 2381.87 2.44571 -1.23535 0
M  V30 36894 C 2381.74 1.37068 -0.330675 0
M  V30 36895 N 2381.73 1.51472 0.990824 0
M  V30 36896 N 2381.62 0.138614 -0.848756 0
M  V30 36897 C 2381.63 -0.00675923 -2.16999 0
M  V30 36898 N 2381.75 0.904372 -3.11122 0
M  V30 36899 C 2381.87 2.12707 -2.56212 0
M  V30 36900 H 2384.84 6.54213 -5.71376 0
M  V30 36901 H 2385.12 5.30936 -4.43503 0
M  V30 36902 H 2384.25 4.55889 -6.76652 0
M  V30 36903 H 2381.59 2.61715 -5.17932 0
M  V30 36904 H 2381.31 5.52155 -4.41878 0
M  V30 36905 H 2380.32 4.51981 -5.53374 0
M  V30 36906 H 2382.16 6.25124 -6.55234 0
M  V30 36907 H 2382.2 5.34372 -2.47488 0
M  V30 36908 H 2381.82 2.45153 1.4078 0
M  V30 36909 H 2381.63 0.688422 1.59911 0
M  V30 36910 H 2381.52 -1.02584 -2.52346 0
M  V30 36911 P 2380.29 4.23843 -7.83734 0
M  V30 36912 O 2380.07 4.19407 -9.29784 0
M  V30 36913 O 2379.5 5.24426 -7.09156 0
M  V30 36914 O 2380.04 2.7935 -7.20758 0
M  V30 36915 C 2380.98 1.7299 -7.50419 0
M  V30 36916 C 2380.25 0.406376 -7.57911 0
M  V30 36917 O 2380.04 -0.0897726 -6.21935 0
M  V30 36918 C 2378.85 0.447224 -8.1878 0
M  V30 36919 O 2378.46 -0.825065 -8.71101 0
M  V30 36920 C 2377.97 0.783801 -6.99623 0
M  V30 36921 C 2378.68 0.0619192 -5.85967 0
M  V30 36922 N 2378.63 0.7859 -4.56281 0
M  V30 36923 H 2381.46 1.93423 -8.4679 0
M  V30 36924 H 2381.74 1.68181 -6.71046 0
M  V30 36925 H 2380.87 -0.289041 -8.15388 0
M  V30 36926 P 2376.91 -1.17771 -8.83182 0
M  V30 36927 O 2376.69 -2.07206 -9.98732 0
M  V30 36928 O 2376.12 0.0743816 -8.81969 0
M  V30 36929 O 2376.66 -1.97652 -7.47304 0
M  V30 36930 C 2377.6 -3.01133 -7.08783 0
M  V30 36931 C 2376.87 -4.12613 -6.37049 0
M  V30 36932 O 2376.66 -3.72827 -4.97879 0
M  V30 36933 C 2375.47 -4.45085 -6.88694 0
M  V30 36934 O 2375.08 -5.7877 -6.5624 0
M  V30 36935 C 2374.59 -3.47817 -6.12078 0
M  V30 36936 C 2375.3 -3.39414 -4.77697 0
M  V30 36937 N 2375.25 -2.04199 -4.15538 0
M  V30 36938 H 2378.08 -3.41248 -7.98759 0
M  V30 36939 H 2378.36 -2.57728 -6.42 0
M  V30 36940 H 2377.49 -5.02657 -6.42673 0
M  V30 36941 H 2374.83 -4.11708 -4.08956 0
M  V30 36942 H 2374.55 -2.49626 -6.61679 0
M  V30 36943 H 2373.56 -3.8662 -6.00862 0
M  V30 36944 H 2375.4 -4.29991 -7.97006 0
M  V30 36945 P 2373.53 -6.144 -6.45285 0
M  V30 36946 O 2373.31 -7.54673 -6.86199 0
M  V30 36947 O 2372.74 -5.12391 -7.179 0
M  V30 36948 O 2373.28 -5.99158 -4.88404 0
M  V30 36949 C 2374.22 -6.60234 -3.96415 0
M  V30 36950 C 2373.49 -7.08259 -2.72856 0
M  V30 36951 O 2373.28 -5.9427 -1.83651 0
M  V30 36952 C 2372.09 -7.64886 -2.9555 0
M  V30 36953 O 2371.7 -8.53963 -1.90717 0
M  V30 36954 C 2371.21 -6.4116 -2.90739 0
M  V30 36955 C 2371.92 -5.55375 -1.86963 0
M  V30 36956 N 2371.87 -4.09664 -2.15742 0
M  V30 36957 H 2374.7 -7.45574 -4.45629 0
M  V30 36958 H 2374.98 -5.86232 -3.67314 0
M  V30 36959 H 2374.11 -7.84412 -2.24479 0
M  V30 36960 P 2370.15 -8.7635 -1.60911 0
M  V30 36961 O 2369.93 -10.1388 -1.11561 0
M  V30 36962 O 2369.36 -8.36503 -2.79617 0
M  V30 36963 O 2369.9 -7.71806 -0.42951 0
M  V30 36964 C 2370.84 -7.67148 0.673689 0
M  V30 36965 C 2370.11 -7.33374 1.95559 0
M  V30 36966 O 2369.9 -5.88721 2.00726 0
M  V30 36967 C 2368.71 -7.92526 2.10483 0
M  V30 36968 O 2368.32 -8.02971 3.47653 0
M  V30 36969 C 2367.83 -6.89602 1.41652 0
M  V30 36970 C 2368.54 -5.59201 1.75185 0
M  V30 36971 N 2368.49 -4.58235 0.662552 0
M  V30 36972 H 2371.32 -8.65116 0.777161 0
M  V30 36973 H 2371.6 -6.90173 0.474152 0
M  V30 36974 H 2370.73 -7.66548 2.79458 0
M  V30 36975 P 2366.77 -8.03563 3.84925 0
M  V30 36976 O 2366.55 -8.85821 5.0569 0
M  V30 36977 O 2365.98 -8.41101 2.65469 0
M  V30 36978 O 2366.52 -6.4965 4.18908 0
M  V30 36979 C 2367.46 -5.80886 5.05289 0
M  V30 36980 C 2366.73 -4.78366 5.89277 0
M  V30 36981 O 2366.52 -3.58302 5.08433 0
M  V30 36982 C 2365.33 -5.16748 6.36559 0
M  V30 36983 O 2364.94 -4.45271 7.53232 0
M  V30 36984 C 2364.45 -4.74572 5.19863 0
M  V30 36985 C 2365.16 -3.49373 4.70338 0
M  V30 36986 N 2365.11 -3.31704 3.22876 0
M  V30 36987 C 2364.96 -2.03326 2.74871 0
M  V30 36988 O 2364.87 -1.06486 3.48076 0
M  V30 36989 N 2364.92 -1.91838 1.37456 0
M  V30 36990 C 2365.01 -2.94295 0.462035 0
M  V30 36991 C 2365.16 -4.25064 1.05249 0
M  V30 36992 C 2365.21 -4.40214 2.39192 0
M  V30 36993 H 2367.95 -6.54063 5.71245 0
M  V30 36994 H 2368.22 -5.30339 4.43905 0
M  V30 36995 H 2367.35 -4.55889 6.76652 0
M  V30 36996 H 2364.69 -2.6167 5.17842 0
M  V30 36997 H 2364.42 -5.52155 4.41878 0
M  V30 36998 H 2363.42 -4.51918 5.53297 0
M  V30 36999 H 2365.26 -6.25055 6.55162 0
M  V30 37000 H 2365.33 -5.39798 2.81523 0
M  V30 37001 P 2363.39 -4.23843 7.83734 0
M  V30 37002 O 2363.17 -4.19407 9.29784 0
M  V30 37003 O 2362.6 -5.24426 7.09156 0
M  V30 37004 O 2363.14 -2.7935 7.20758 0
M  V30 37005 C 2364.08 -1.72945 7.50224 0
M  V30 37006 C 2363.35 -0.406376 7.57911 0
M  V30 37007 O 2363.14 0.0897726 6.21935 0
M  V30 37008 C 2361.95 -0.438983 8.18724 0
M  V30 37009 O 2361.56 0.825065 8.71101 0
M  V30 37010 C 2361.07 -0.783689 6.99524 0
M  V30 37011 C 2361.78 -0.0619086 5.85867 0
M  V30 37012 N 2361.73 -0.78573 4.56183 0
M  V30 37013 C 2361.58 -0.0292889 3.41887 0
M  V30 37014 O 2361.49 1.18445 3.4419 0
M  V30 37015 N 2361.54 -0.744061 2.23964 0
M  V30 37016 C 2361.63 -2.10932 2.10362 0
M  V30 37017 O 2361.58 -2.64117 0.98825 0
M  V30 37018 C 2361.78 -2.8202 3.34994 0
M  V30 37019 C 2361.89 -4.31095 3.25037 0
M  V30 37020 C 2361.83 -2.15547 4.52261 0
M  V30 37021 H 2364.57 -1.93379 8.46595 0
M  V30 37022 H 2364.84 -1.68132 6.70852 0
M  V30 37023 H 2363.97 0.289041 8.15388 0
M  V30 37024 H 2361.31 0.926847 5.72749 0
M  V30 37025 H 2361.04 -1.86973 6.82036 0
M  V30 37026 H 2360.04 -0.403896 7.13257 0
M  V30 37027 H 2361.88 -1.20585 8.97435 0
M  V30 37028 H 2361.95 -2.71231 5.45042 0
M  V30 37029 H 2360.92 -4.76966 3.49992 0
M  V30 37030 H 2362.66 -4.67047 3.95024 0
M  V30 37031 H 2362.17 -4.58996 2.22312 0
M  V30 37032 H 2361.43 -0.214893 1.39758 0
M  V30 37033 P 2360.01 1.17771 8.83182 0
M  V30 37034 O 2359.79 2.07206 9.98732 0
M  V30 37035 O 2359.22 -0.0743816 8.81969 0
M  V30 37036 O 2359.76 1.97678 7.474 0
M  V30 37037 C 2360.7 3.01133 7.08783 0
M  V30 37038 C 2359.97 4.1203 6.37546 0
M  V30 37039 O 2359.76 3.72887 4.9796 0
M  V30 37040 C 2358.57 4.45085 6.88694 0
M  V30 37041 O 2358.18 5.78836 6.56315 0
M  V30 37042 C 2357.69 3.47817 6.12078 0
M  V30 37043 C 2358.4 3.39414 4.77697 0
M  V30 37044 N 2358.35 2.04615 4.15333 0
M  V30 37045 C 2358.2 1.96929 2.77162 0
M  V30 37046 O 2358.11 3.02017 2.12006 0
M  V30 37047 N 2358.15 0.55485 2.24237 0
M  V30 37048 C 2358.25 -0.367808 2.9169 0
M  V30 37049 N 2358.2 -1.53426 2.29427 0
M  V30 37050 C 2358.4 -0.319148 4.33828 0
M  V30 37051 C 2358.45 0.920672 4.90433 0
M  V30 37052 H 2361.19 3.41209 7.98667 0
M  V30 37053 H 2361.46 2.5837 6.41742 0
M  V30 37054 H 2360.59 5.02718 6.42752 0
M  V30 37055 H 2357.93 4.11779 4.09026 0
M  V30 37056 H 2357.65 2.49661 6.61772 0
M  V30 37057 H 2356.66 3.86674 6.00946 0
M  V30 37058 H 2358.5 4.29991 7.97006 0
M  V30 37059 H 2358.57 1.00589 5.98303 0
M  V30 37060 H 2358.47 -1.22639 4.93799 0
M  V30 37061 H 2358.08 -1.56819 1.27167 0
M  V30 37062 H 2358.28 -2.41062 2.83063 0
M  V30 37063 P 2356.63 6.144 6.45285 0
M  V30 37064 O 2356.41 7.54673 6.86199 0
M  V30 37065 O 2355.84 5.12391 7.179 0
M  V30 37066 O 2356.38 5.99158 4.88404 0
M  V30 37067 C 2357.32 6.60234 3.96415 0
M  V30 37068 C 2356.59 7.08259 2.72856 0
M  V30 37069 O 2356.38 5.9427 1.83651 0
M  V30 37070 C 2355.19 7.64886 2.9555 0
M  V30 37071 O 2354.8 8.53963 1.90717 0
M  V30 37072 C 2354.31 6.4116 2.90739 0
M  V30 37073 C 2355.02 5.55375 1.86963 0
M  V30 37074 N 2354.97 4.09664 2.15742 0
M  V30 37075 H 2357.81 7.45574 4.45629 0
M  V30 37076 H 2358.08 5.86232 3.67314 0
M  V30 37077 H 2357.21 7.84412 2.24479 0
M  V30 37078 P 2353.25 8.7635 1.60911 0
M  V30 37079 O 2353.03 10.1388 1.11561 0
M  V30 37080 O 2352.46 8.36503 2.79617 0
M  V30 37081 O 2353 7.71806 0.42951 0
M  V30 37082 C 2353.94 7.67148 -0.673689 0
M  V30 37083 C 2353.21 7.33374 -1.95559 0
M  V30 37084 O 2353 5.88721 -2.00726 0
M  V30 37085 C 2351.81 7.92526 -2.10483 0
M  V30 37086 O 2351.42 8.02971 -3.47653 0
M  V30 37087 C 2350.93 6.89602 -1.41652 0
M  V30 37088 C 2351.64 5.59201 -1.75185 0
M  V30 37089 N 2351.59 4.58235 -0.662552 0
M  V30 37090 C 2351.67 4.7683 0.704049 0
M  V30 37091 N 2351.59 3.66233 1.39775 0
M  V30 37092 C 2351.45 2.66526 0.431739 0
M  V30 37093 C 2351.32 1.26394 0.575992 0
M  V30 37094 N 2351.2 0.62859 -0.67177 0
M  V30 37095 C 2351.2 1.27134 -1.89385 0
M  V30 37096 N 2351.07 0.492035 -2.96951 0
M  V30 37097 N 2351.33 2.58978 -2.02907 0
M  V30 37098 C 2351.45 3.22433 -0.832218 0
M  V30 37099 H 2354.43 8.65116 -0.777161 0
M  V30 37100 H 2354.7 6.90173 -0.474152 0
M  V30 37101 H 2353.83 7.66548 -2.79458 0
M  V30 37102 P 2349.87 8.03563 -3.84925 0
M  V30 37103 O 2349.65 8.85821 -5.0569 0
M  V30 37104 O 2349.08 8.41101 -2.65469 0
M  V30 37105 O 2349.62 6.49734 -4.18962 0
M  V30 37106 C 2350.56 5.81037 -5.05421 0
M  V30 37107 C 2349.83 4.79018 -5.88876 0
M  V30 37108 O 2349.62 3.58359 -5.08515 0
M  V30 37109 C 2348.43 5.17448 -6.36119 0
M  V30 37110 O 2348.04 4.45322 -7.53318 0
M  V30 37111 C 2347.55 4.74639 -5.19936 0
M  V30 37112 C 2348.26 3.49432 -4.70418 0
M  V30 37113 N 2348.21 3.31776 -3.22945 0
M  V30 37114 C 2348.06 2.02742 -2.72939 0
M  V30 37115 O 2347.97 1.08301 -3.52749 0
M  V30 37116 N 2348.01 1.96117 -1.22063 0
M  V30 37117 C 2348.11 2.8878 -0.551566 0
M  V30 37118 N 2348.06 2.65609 0.750198 0
M  V30 37119 C 2348.26 4.22457 -1.03707 0
M  V30 37120 C 2348.31 4.37979 -2.39113 0
M  V30 37121 H 2351.05 6.54138 -5.7131 0
M  V30 37122 H 2351.32 5.30492 -4.44033 0
M  V30 37123 H 2350.45 4.55945 -6.76735 0
M  V30 37124 H 2347.79 2.6176 -5.18021 0
M  V30 37125 H 2347.51 5.52233 -4.41941 0
M  V30 37126 H 2346.52 4.52045 -5.53452 0
M  V30 37127 H 2348.36 6.25124 -6.55234 0
M  V30 37128 H 2348.43 5.37936 -2.80552 0
M  V30 37129 H 2348.33 5.07528 -0.359553 0
M  V30 37130 H 2347.94 1.69403 1.09847 0
M  V30 37131 H 2348.14 3.43701 1.41792 0
M  V30 37132 P 2346.49 4.23843 -7.83734 0
M  V30 37133 O 2346.27 4.19407 -9.29784 0
M  V30 37134 O 2345.7 5.24426 -7.09156 0
M  V30 37135 O 2346.24 2.7935 -7.20758 0
M  V30 37136 C 2347.18 1.7299 -7.50419 0
M  V30 37137 C 2346.45 0.406376 -7.57911 0
M  V30 37138 O 2346.24 -0.0897726 -6.21935 0
M  V30 37139 C 2345.05 0.447224 -8.1878 0
M  V30 37140 O 2344.66 -0.825065 -8.71101 0
M  V30 37141 C 2344.17 0.783801 -6.99623 0
M  V30 37142 C 2344.88 0.0619192 -5.85967 0
M  V30 37143 N 2344.83 0.7859 -4.56281 0
M  V30 37144 H 2347.67 1.93423 -8.4679 0
M  V30 37145 H 2347.94 1.68181 -6.71046 0
M  V30 37146 H 2347.07 -0.289041 -8.15388 0
M  V30 37147 P 2343.11 -1.17771 -8.83182 0
M  V30 37148 O 2342.89 -2.07206 -9.98732 0
M  V30 37149 O 2342.32 0.0743816 -8.81969 0
M  V30 37150 O 2342.86 -1.97652 -7.47304 0
M  V30 37151 C 2343.8 -3.01133 -7.08783 0
M  V30 37152 C 2343.07 -4.12613 -6.37049 0
M  V30 37153 O 2342.86 -3.72827 -4.97879 0
M  V30 37154 C 2341.67 -4.45085 -6.88694 0
M  V30 37155 O 2341.28 -5.7877 -6.5624 0
M  V30 37156 C 2340.79 -3.47817 -6.12078 0
M  V30 37157 C 2341.5 -3.39414 -4.77697 0
M  V30 37158 N 2341.45 -2.04615 -4.15333 0
M  V30 37159 H 2344.29 -3.41248 -7.98759 0
M  V30 37160 H 2344.56 -2.5837 -6.41742 0
M  V30 37161 H 2343.69 -5.02657 -6.42673 0
M  V30 37162 P 2339.73 -6.144 -6.45285 0
M  V30 37163 O 2339.51 -7.54673 -6.86199 0
M  V30 37164 O 2338.94 -5.12391 -7.179 0
M  V30 37165 O 2339.48 -5.99158 -4.88404 0
M  V30 37166 C 2340.42 -6.60062 -3.96313 0
M  V30 37167 C 2339.69 -7.08259 -2.72856 0
M  V30 37168 O 2339.48 -5.9427 -1.83651 0
M  V30 37169 C 2338.29 -7.65087 -2.94749 0
M  V30 37170 O 2337.9 -8.53963 -1.90717 0
M  V30 37171 C 2337.41 -6.41069 -2.90698 0
M  V30 37172 C 2338.12 -5.5528 -1.86931 0
M  V30 37173 N 2338.07 -4.09575 -2.15696 0
M  V30 37174 C 2337.92 -3.24249 -1.08435 0
M  V30 37175 O 2337.83 -3.63946 0.0628747 0
M  V30 37176 N 2337.88 -1.90009 -1.39973 0
M  V30 37177 C 2337.97 -1.34884 -2.65614 0
M  V30 37178 C 2338.12 -2.3145 -3.71736 0
M  V30 37179 C 2338.17 -3.63518 -3.44754 0
M  V30 37180 H 2340.91 -7.45402 -4.45526 0
M  V30 37181 H 2341.18 -5.86062 -3.67208 0
M  V30 37182 H 2340.31 -7.84412 -2.24479 0
M  V30 37183 H 2337.65 -5.73358 -0.888409 0
M  V30 37184 H 2337.38 -5.90877 -3.88583 0
M  V30 37185 H 2336.38 -6.65867 -2.58821 0
M  V30 37186 H 2338.22 -8.16248 -3.92006 0
M  V30 37187 H 2338.29 -4.34551 -4.26383 0
M  V30 37188 P 2336.35 -8.7635 -1.60911 0
M  V30 37189 O 2336.13 -10.1388 -1.11561 0
M  V30 37190 O 2335.56 -8.36503 -2.79617 0
M  V30 37191 O 2336.1 -7.71906 -0.429565 0
M  V30 37192 C 2337.04 -7.67148 0.673689 0
M  V30 37193 C 2336.31 -7.33666 1.94851 0
M  V30 37194 O 2336.1 -5.88816 2.00759 0
M  V30 37195 C 2334.91 -7.92526 2.10483 0
M  V30 37196 O 2334.52 -8.03063 3.47693 0
M  V30 37197 C 2334.03 -6.89602 1.41652 0
M  V30 37198 C 2334.74 -5.59201 1.75185 0
M  V30 37199 N 2334.69 -4.58235 0.662552 0
M  V30 37200 C 2334.54 -3.24451 1.01643 0
M  V30 37201 O 2334.45 -2.94958 2.21722 0
M  V30 37202 N 2334.49 -2.30408 -0.165238 0
M  V30 37203 C 2334.59 -2.66048 -1.25118 0
M  V30 37204 N 2334.54 -1.70787 -2.16813 0
M  V30 37205 C 2334.74 -4.02732 -1.64413 0
M  V30 37206 C 2334.79 -4.9488 -0.63991 0
M  V30 37207 H 2337.53 -8.65017 0.777072 0
M  V30 37208 H 2337.8 -6.90173 0.474152 0
M  V30 37209 H 2336.93 -7.66642 2.79492 0
M  V30 37210 H 2334.27 -5.16254 2.65229 0
M  V30 37211 H 2333.99 -7.06532 0.329431 0
M  V30 37212 H 2333 -6.91023 1.82047 0
M  V30 37213 H 2334.84 -8.90873 1.62657 0
M  V30 37214 H 2334.91 -6.00104 -0.892197 0
M  V30 37215 H 2334.81 -4.31733 -2.69229 0
M  V30 37216 H 2334.42 -0.724835 -1.8844 0
M  V30 37217 H 2334.62 -1.94716 -3.16734 0
M  V30 37218 P 2332.97 -8.03563 3.84925 0
M  V30 37219 O 2332.75 -8.85821 5.0569 0
M  V30 37220 O 2332.18 -8.41101 2.65469 0
M  V30 37221 O 2332.72 -6.4965 4.18908 0
M  V30 37222 C 2333.66 -5.80886 5.05289 0
M  V30 37223 C 2332.93 -4.78366 5.89277 0
M  V30 37224 O 2332.72 -3.58302 5.08433 0
M  V30 37225 C 2331.53 -5.16748 6.36559 0
M  V30 37226 O 2331.14 -4.45271 7.53232 0
M  V30 37227 C 2330.65 -4.74572 5.19863 0
M  V30 37228 C 2331.36 -3.49373 4.70338 0
M  V30 37229 N 2331.31 -3.31704 3.22876 0
M  V30 37230 C 2331.16 -2.03326 2.74871 0
M  V30 37231 O 2331.07 -1.06486 3.48076 0
M  V30 37232 N 2331.12 -1.91838 1.37456 0
M  V30 37233 C 2331.21 -2.94295 0.462035 0
M  V30 37234 O 2331.16 -2.71763 -0.752928 0
M  V30 37235 C 2331.36 -4.25064 1.05249 0
M  V30 37236 C 2331.47 -5.39815 0.095697 0
M  V30 37237 C 2331.41 -4.40214 2.39192 0
M  V30 37238 H 2334.15 -6.54063 5.71245 0
M  V30 37239 H 2334.42 -5.30339 4.43905 0
M  V30 37240 H 2333.55 -4.55889 6.76652 0
M  V30 37241 H 2330.89 -2.6167 5.17842 0
M  V30 37242 H 2330.62 -5.52155 4.41878 0
M  V30 37243 H 2329.62 -4.51918 5.53297 0
M  V30 37244 H 2331.46 -6.25055 6.55162 0
M  V30 37245 H 2331.53 -5.39798 2.81523 0
M  V30 37246 H 2330.5 -5.91593 0.0279582 0
M  V30 37247 H 2332.24 -6.10038 0.450573 0
M  V30 37248 H 2331.75 -5.02007 -0.89937 0
M  V30 37249 H 2331.01 -0.995326 1.00435 0
M  V30 37250 P 2329.59 -4.23843 7.83734 0
M  V30 37251 O 2329.37 -4.19407 9.29784 0
M  V30 37252 O 2328.8 -5.24426 7.09156 0
M  V30 37253 O 2329.34 -2.7935 7.20758 0
M  V30 37254 C 2330.28 -1.7299 7.50419 0
M  V30 37255 C 2329.55 -0.406376 7.57911 0
M  V30 37256 O 2329.34 0.0897726 6.21935 0
M  V30 37257 C 2328.15 -0.447224 8.1878 0
M  V30 37258 O 2327.76 0.825065 8.71101 0
M  V30 37259 C 2327.27 -0.783801 6.99623 0
M  V30 37260 C 2327.98 -0.0619192 5.85967 0
M  V30 37261 N 2327.93 -0.790462 4.56202 0
M  V30 37262 C 2328.01 -2.13895 4.34171 0
M  V30 37263 N 2327.94 -2.46449 3.08687 0
M  V30 37264 C 2327.79 -1.2525 2.43697 0
M  V30 37265 C 2327.66 -0.914535 1.07318 0
M  V30 37266 N 2327.65 -1.80782 0.0887348 0
M  V30 37267 N 2327.54 0.386745 0.768133 0
M  V30 37268 C 2327.55 1.28096 1.75159 0
M  V30 37269 N 2327.67 1.09708 3.04861 0
M  V30 37270 C 2327.79 -0.214857 3.32306 0
M  V30 37271 H 2330.77 -1.93423 8.4679 0
M  V30 37272 H 2331.04 -1.68852 6.70877 0
M  V30 37273 H 2330.17 0.289041 8.15388 0
M  V30 37274 H 2327.51 0.927006 5.72848 0
M  V30 37275 H 2327.23 -1.86973 6.82036 0
M  V30 37276 H 2326.24 -0.403953 7.13357 0
M  V30 37277 H 2328.08 -1.20599 8.97534 0
M  V30 37278 H 2328.12 -2.86846 5.14318 0
M  V30 37279 H 2327.74 -2.81082 0.302037 0
M  V30 37280 H 2327.55 -1.49688 -0.889064 0
M  V30 37281 H 2327.44 2.31317 1.43855 0
M  V30 37282 P 2326.21 1.17771 8.83182 0
M  V30 37283 O 2325.99 2.07206 9.98732 0
M  V30 37284 O 2325.42 -0.0743816 8.81969 0
M  V30 37285 O 2325.96 1.97652 7.47304 0
M  V30 37286 C 2326.9 3.01133 7.08783 0
M  V30 37287 C 2326.17 4.12613 6.37049 0
M  V30 37288 O 2325.96 3.72827 4.97879 0
M  V30 37289 C 2324.77 4.45085 6.88694 0
M  V30 37290 O 2324.38 5.7877 6.5624 0
M  V30 37291 C 2323.89 3.47817 6.12078 0
M  V30 37292 C 2324.6 3.39414 4.77697 0
M  V30 37293 N 2324.55 2.04615 4.15333 0
M  V30 37294 H 2327.39 3.41248 7.98759 0
M  V30 37295 H 2327.66 2.5837 6.41742 0
M  V30 37296 H 2326.79 5.02657 6.42673 0
M  V30 37297 P 2322.83 6.144 6.45285 0
M  V30 37298 O 2322.61 7.54673 6.86199 0
M  V30 37299 O 2322.04 5.12391 7.179 0
M  V30 37300 O 2322.58 5.99158 4.88404 0
M  V30 37301 C 2323.52 6.60062 3.96313 0
M  V30 37302 C 2322.79 7.08259 2.72856 0
M  V30 37303 O 2322.58 5.9427 1.83651 0
M  V30 37304 C 2321.39 7.65087 2.94749 0
M  V30 37305 O 2321 8.53963 1.90717 0
M  V30 37306 C 2320.51 6.41069 2.90698 0
M  V30 37307 C 2321.22 5.5528 1.86931 0
M  V30 37308 N 2321.17 4.09575 2.15696 0
M  V30 37309 C 2321.02 3.24249 1.08435 0
M  V30 37310 O 2320.93 3.63946 -0.0628747 0
M  V30 37311 N 2320.98 1.90009 1.39973 0
M  V30 37312 C 2321.07 1.34884 2.65614 0
M  V30 37313 C 2321.22 2.3145 3.71736 0
M  V30 37314 C 2321.27 3.63518 3.44754 0
M  V30 37315 H 2324.01 7.45402 4.45526 0
M  V30 37316 H 2324.28 5.86062 3.67208 0
M  V30 37317 H 2323.41 7.84412 2.24479 0
M  V30 37318 H 2320.75 5.73358 0.888409 0
M  V30 37319 H 2320.48 5.90877 3.88583 0
M  V30 37320 H 2319.48 6.65867 2.58821 0
M  V30 37321 H 2321.32 8.16248 3.92006 0
M  V30 37322 H 2321.39 4.34551 4.26383 0
M  V30 37323 P 2319.45 8.7635 1.60911 0
M  V30 37324 O 2319.23 10.1388 1.11561 0
M  V30 37325 O 2318.66 8.36503 2.79617 0
M  V30 37326 O 2319.2 7.71806 0.42951 0
M  V30 37327 C 2320.14 7.66948 -0.673514 0
M  V30 37328 C 2319.41 7.33374 -1.95559 0
M  V30 37329 O 2319.2 5.88721 -2.00726 0
M  V30 37330 C 2318.01 7.92218 -2.1125 0
M  V30 37331 O 2317.62 8.02971 -3.47653 0
M  V30 37332 C 2317.13 6.89504 -1.41631 0
M  V30 37333 C 2317.84 5.59106 -1.75155 0
M  V30 37334 N 2317.79 4.58136 -0.662409 0
M  V30 37335 C 2317.64 3.26059 -1.02863 0
M  V30 37336 O 2317.55 2.90743 -2.19009 0
M  V30 37337 N 2317.6 2.35995 0.0155585 0
M  V30 37338 C 2317.69 2.65248 1.35603 0
M  V30 37339 O 2317.64 1.75605 2.20651 0
M  V30 37340 C 2317.84 4.05747 1.64698 0
M  V30 37341 C 2317.95 4.42345 3.09553 0
M  V30 37342 C 2317.89 4.96734 0.652411 0
M  V30 37343 H 2320.63 8.64917 -0.776982 0
M  V30 37344 H 2320.9 6.89974 -0.474015 0
M  V30 37345 H 2320.03 7.66548 -2.79458 0
M  V30 37346 H 2317.37 5.16076 -2.65138 0
M  V30 37347 H 2317.1 7.06433 -0.329384 0
M  V30 37348 H 2316.1 6.90829 -1.81996 0
M  V30 37349 H 2317.94 8.90774 -1.62639 0
M  V30 37350 H 2318.01 6.02181 0.895285 0
M  V30 37351 H 2316.98 4.80252 3.45468 0
M  V30 37352 H 2318.72 5.20015 3.22119 0
M  V30 37353 H 2318.23 3.53269 3.67833 0
M  V30 37354 H 2317.49 1.39558 -0.227499 0
M  V30 37355 P 2316.07 8.03563 -3.84925 0
M  V30 37356 O 2315.85 8.85821 -5.0569 0
M  V30 37357 O 2315.28 8.41101 -2.65469 0
M  V30 37358 O 2315.82 6.49734 -4.18962 0
M  V30 37359 C 2316.76 5.81037 -5.05421 0
M  V30 37360 C 2316.03 4.79018 -5.88876 0
M  V30 37361 O 2315.82 3.58359 -5.08515 0
M  V30 37362 C 2314.63 5.17448 -6.36119 0
M  V30 37363 O 2314.24 4.45322 -7.53318 0
M  V30 37364 C 2313.75 4.74639 -5.19936 0
M  V30 37365 C 2314.46 3.49432 -4.70418 0
M  V30 37366 N 2314.41 3.31776 -3.22945 0
M  V30 37367 C 2314.26 2.02742 -2.72939 0
M  V30 37368 O 2314.17 1.08301 -3.52749 0
M  V30 37369 N 2314.21 1.96117 -1.22063 0
M  V30 37370 C 2314.31 2.8878 -0.551566 0
M  V30 37371 N 2314.26 2.65609 0.750198 0
M  V30 37372 C 2314.46 4.22457 -1.03707 0
M  V30 37373 C 2314.51 4.37979 -2.39113 0
M  V30 37374 H 2317.25 6.54138 -5.7131 0
M  V30 37375 H 2317.52 5.30492 -4.44033 0
M  V30 37376 H 2316.65 4.55945 -6.76735 0
M  V30 37377 H 2313.99 2.6176 -5.18021 0
M  V30 37378 H 2313.71 5.52233 -4.41941 0
M  V30 37379 H 2312.72 4.52045 -5.53452 0
M  V30 37380 H 2314.56 6.25124 -6.55234 0
M  V30 37381 H 2314.63 5.37936 -2.80552 0
M  V30 37382 H 2314.53 5.07528 -0.359553 0
M  V30 37383 H 2314.14 1.69403 1.09847 0
M  V30 37384 H 2314.34 3.43701 1.41792 0
M  V30 37385 P 2312.69 4.23843 -7.83734 0
M  V30 37386 O 2312.47 4.19407 -9.29784 0
M  V30 37387 O 2311.9 5.24426 -7.09156 0
M  V30 37388 O 2312.44 2.7935 -7.20758 0
M  V30 37389 C 2313.38 1.7299 -7.50419 0
M  V30 37390 C 2312.65 0.406376 -7.57911 0
M  V30 37391 O 2312.44 -0.0897726 -6.21935 0
M  V30 37392 C 2311.25 0.447224 -8.1878 0
M  V30 37393 O 2310.86 -0.825065 -8.71101 0
M  V30 37394 C 2310.37 0.783801 -6.99623 0
M  V30 37395 C 2311.08 0.0619192 -5.85967 0
M  V30 37396 N 2311.03 0.7859 -4.56281 0
M  V30 37397 H 2313.87 1.93423 -8.4679 0
M  V30 37398 H 2314.14 1.68181 -6.71046 0
M  V30 37399 H 2313.27 -0.289041 -8.15388 0
M  V30 37400 P 2309.31 -1.17771 -8.83182 0
M  V30 37401 O 2309.09 -2.07206 -9.98732 0
M  V30 37402 O 2308.52 0.0743816 -8.81969 0
M  V30 37403 O 2309.06 -1.97652 -7.47304 0
M  V30 37404 C 2310 -3.01133 -7.08783 0
M  V30 37405 C 2309.27 -4.12613 -6.37049 0
M  V30 37406 O 2309.06 -3.72827 -4.97879 0
M  V30 37407 C 2307.87 -4.45085 -6.88694 0
M  V30 37408 O 2307.48 -5.7877 -6.5624 0
M  V30 37409 C 2306.99 -3.47817 -6.12078 0
M  V30 37410 C 2307.7 -3.39414 -4.77697 0
M  V30 37411 N 2307.65 -2.04615 -4.15333 0
M  V30 37412 H 2310.49 -3.41248 -7.98759 0
M  V30 37413 H 2310.76 -2.5837 -6.41742 0
M  V30 37414 H 2309.89 -5.02657 -6.42673 0
M  V30 37415 P 2305.93 -6.144 -6.45285 0
M  V30 37416 O 2305.71 -7.54673 -6.86199 0
M  V30 37417 O 2305.14 -5.12391 -7.179 0
M  V30 37418 O 2305.68 -5.99158 -4.88404 0
M  V30 37419 C 2306.62 -6.60234 -3.96415 0
M  V30 37420 C 2305.89 -7.08259 -2.72856 0
M  V30 37421 O 2305.68 -5.9427 -1.83651 0
M  V30 37422 C 2304.49 -7.64886 -2.9555 0
M  V30 37423 O 2304.1 -8.53963 -1.90717 0
M  V30 37424 C 2303.61 -6.4116 -2.90739 0
M  V30 37425 C 2304.32 -5.55375 -1.86963 0
M  V30 37426 N 2304.27 -4.09664 -2.15742 0
M  V30 37427 H 2307.11 -7.45574 -4.45629 0
M  V30 37428 H 2307.38 -5.86232 -3.67314 0
M  V30 37429 H 2306.51 -7.84412 -2.24479 0
M  V30 37430 P 2302.55 -8.7635 -1.60911 0
M  V30 37431 O 2302.33 -10.1388 -1.11561 0
M  V30 37432 O 2301.76 -8.36503 -2.79617 0
M  V30 37433 O 2302.3 -7.71806 -0.42951 0
M  V30 37434 C 2303.24 -7.66948 0.673514 0
M  V30 37435 C 2302.51 -7.33374 1.95559 0
M  V30 37436 O 2302.3 -5.88721 2.00726 0
M  V30 37437 C 2301.11 -7.92218 2.1125 0
M  V30 37438 O 2300.72 -8.02971 3.47653 0
M  V30 37439 C 2300.23 -6.89504 1.41631 0
M  V30 37440 C 2300.94 -5.59106 1.75155 0
M  V30 37441 N 2300.89 -4.58136 0.662409 0
M  V30 37442 C 2300.74 -3.26059 1.02863 0
M  V30 37443 O 2300.65 -2.90743 2.19009 0
M  V30 37444 N 2300.7 -2.35995 -0.0155585 0
M  V30 37445 C 2300.79 -2.65248 -1.35603 0
M  V30 37446 C 2300.94 -4.05747 -1.64698 0
M  V30 37447 C 2300.99 -4.96734 -0.652411 0
M  V30 37448 H 2303.73 -8.64917 0.776982 0
M  V30 37449 H 2304 -6.89974 0.474015 0
M  V30 37450 H 2303.13 -7.66548 2.79458 0
M  V30 37451 H 2300.47 -5.16076 2.65138 0
M  V30 37452 H 2300.2 -7.06433 0.329384 0
M  V30 37453 H 2299.2 -6.90829 1.81996 0
M  V30 37454 H 2301.04 -8.90774 1.62639 0
M  V30 37455 H 2301.11 -6.02181 -0.895285 0
M  V30 37456 P 2299.17 -8.03563 3.84925 0
M  V30 37457 O 2298.95 -8.85821 5.0569 0
M  V30 37458 O 2298.38 -8.41101 2.65469 0
M  V30 37459 O 2298.92 -6.4965 4.18908 0
M  V30 37460 C 2299.86 -5.81037 5.05421 0
M  V30 37461 C 2299.13 -4.78366 5.89277 0
M  V30 37462 O 2298.92 -3.58302 5.08433 0
M  V30 37463 C 2297.73 -5.17448 6.36119 0
M  V30 37464 O 2297.34 -4.45271 7.53232 0
M  V30 37465 C 2296.85 -4.74639 5.19936 0
M  V30 37466 C 2297.56 -3.49432 4.70418 0
M  V30 37467 N 2297.51 -3.31776 3.22945 0
M  V30 37468 H 2300.35 -6.54213 5.71376 0
M  V30 37469 H 2300.62 -5.30492 4.44033 0
M  V30 37470 H 2299.75 -4.55889 6.76652 0
M  V30 37471 P 2295.79 -4.23843 7.83734 0
M  V30 37472 O 2295.57 -4.19407 9.29784 0
M  V30 37473 O 2295 -5.24426 7.09156 0
M  V30 37474 O 2295.54 -2.79386 7.20852 0
M  V30 37475 C 2296.48 -1.7299 7.50419 0
M  V30 37476 C 2295.75 -0.41401 7.5797 0
M  V30 37477 O 2295.54 0.089787 6.22035 0
M  V30 37478 C 2294.35 -0.447224 8.1878 0
M  V30 37479 O 2293.96 0.825159 8.71201 0
M  V30 37480 C 2293.47 -0.783801 6.99623 0
M  V30 37481 C 2294.18 -0.0619192 5.85967 0
M  V30 37482 N 2294.13 -0.7859 4.56281 0
M  V30 37483 C 2293.98 -0.0359258 3.39981 0
M  V30 37484 O 2293.89 1.19723 3.49038 0
M  V30 37485 N 2293.93 -0.869151 2.14025 0
M  V30 37486 C 2294.03 -2.01207 2.14363 0
M  V30 37487 N 2293.98 -2.58978 0.954287 0
M  V30 37488 C 2294.18 -2.80817 3.32215 0
M  V30 37489 C 2294.23 -2.13785 4.50884 0
M  V30 37490 H 2296.97 -1.93401 8.46693 0
M  V30 37491 H 2297.24 -1.68181 6.71046 0
M  V30 37492 H 2296.37 0.289076 8.15488 0
M  V30 37493 H 2293.71 0.927166 5.72947 0
M  V30 37494 H 2293.43 -1.87 6.82132 0
M  V30 37495 H 2292.44 -0.404009 7.13457 0
M  V30 37496 H 2294.28 -1.20599 8.97534 0
M  V30 37497 H 2294.35 -2.70295 5.43162 0
M  V30 37498 H 2294.25 -3.89465 3.27406 0
M  V30 37499 H 2293.86 -2.01616 0.107046 0
M  V30 37500 H 2294.06 -3.61403 0.873101 0
M  V30 37501 P 2292.41 1.17771 8.83182 0
M  V30 37502 O 2292.19 2.07206 9.98732 0
M  V30 37503 O 2291.62 -0.0743816 8.81969 0
M  V30 37504 O 2292.16 1.97678 7.474 0
M  V30 37505 C 2293.1 3.01133 7.08783 0
M  V30 37506 C 2292.37 4.1203 6.37546 0
M  V30 37507 O 2292.16 3.72887 4.9796 0
M  V30 37508 C 2290.97 4.45085 6.88694 0
M  V30 37509 O 2290.58 5.78836 6.56315 0
M  V30 37510 C 2290.09 3.47817 6.12078 0
M  V30 37511 C 2290.8 3.39414 4.77697 0
M  V30 37512 N 2290.75 2.04615 4.15333 0
M  V30 37513 C 2290.6 1.96929 2.77162 0
M  V30 37514 O 2290.51 3.02017 2.12006 0
M  V30 37515 N 2290.55 0.55485 2.24237 0
M  V30 37516 C 2290.65 -0.367808 2.9169 0
M  V30 37517 N 2290.6 -1.53426 2.29427 0
M  V30 37518 C 2290.8 -0.319148 4.33828 0
M  V30 37519 C 2290.85 0.920672 4.90433 0
M  V30 37520 H 2293.59 3.41209 7.98667 0
M  V30 37521 H 2293.86 2.5837 6.41742 0
M  V30 37522 H 2292.99 5.02718 6.42752 0
M  V30 37523 H 2290.33 4.11779 4.09026 0
M  V30 37524 H 2290.05 2.49661 6.61772 0
M  V30 37525 H 2289.06 3.86674 6.00946 0
M  V30 37526 H 2290.9 4.29991 7.97006 0
M  V30 37527 H 2290.97 1.00589 5.98303 0
M  V30 37528 H 2290.87 -1.22639 4.93799 0
M  V30 37529 H 2290.48 -1.56819 1.27167 0
M  V30 37530 H 2290.68 -2.41062 2.83063 0
M  V30 37531 P 2289.03 6.144 6.45285 0
M  V30 37532 O 2288.81 7.54673 6.86199 0
M  V30 37533 O 2288.24 5.12391 7.179 0
M  V30 37534 O 2288.78 5.99236 4.88467 0
M  V30 37535 C 2289.72 6.60234 3.96415 0
M  V30 37536 C 2288.99 7.08079 2.736 0
M  V30 37537 O 2288.78 5.94365 1.8368 0
M  V30 37538 C 2287.59 7.64886 2.9555 0
M  V30 37539 O 2287.2 8.5406 1.90739 0
M  V30 37540 C 2286.71 6.4116 2.90739 0
M  V30 37541 C 2287.42 5.55375 1.86963 0
M  V30 37542 N 2287.37 4.09664 2.15742 0
M  V30 37543 C 2287.22 3.22231 1.08477 0
M  V30 37544 O 2287.13 3.68951 -0.0600489 0
M  V30 37545 N 2287.17 1.76692 1.48799 0
M  V30 37546 C 2287.27 1.41695 2.57602 0
M  V30 37547 N 2287.22 0.107296 2.75791 0
M  V30 37548 C 2287.42 2.29178 3.69733 0
M  V30 37549 C 2287.47 3.62753 3.42653 0
M  V30 37550 H 2290.21 7.45488 4.45578 0
M  V30 37551 H 2290.48 5.86232 3.67314 0
M  V30 37552 H 2289.61 7.84508 2.24507 0
M  V30 37553 H 2286.95 5.73556 0.888715 0
M  V30 37554 H 2286.67 5.9096 3.88638 0
M  V30 37555 H 2285.68 6.66053 2.58894 0
M  V30 37556 H 2287.52 8.16339 3.92049 0
M  V30 37557 H 2287.59 4.33052 4.24913 0
M  V30 37558 H 2287.49 1.9103 4.71577 0
M  V30 37559 H 2287.1 -0.521221 1.95056 0
M  V30 37560 H 2287.3 -0.286429 3.70695 0
M  V30 37561 P 2285.65 8.7635 1.60911 0
M  V30 37562 O 2285.43 10.1388 1.11561 0
M  V30 37563 O 2284.86 8.36503 2.79617 0
M  V30 37564 O 2285.4 7.71806 0.42951 0
M  V30 37565 C 2286.34 7.67148 -0.673689 0
M  V30 37566 C 2285.61 7.33374 -1.95559 0
M  V30 37567 O 2285.4 5.88721 -2.00726 0
M  V30 37568 C 2284.21 7.92526 -2.10483 0
M  V30 37569 O 2283.82 8.02971 -3.47653 0
M  V30 37570 C 2283.33 6.89602 -1.41652 0
M  V30 37571 C 2284.04 5.59201 -1.75185 0
M  V30 37572 N 2283.99 4.58235 -0.662552 0
M  V30 37573 H 2286.83 8.65116 -0.777161 0
M  V30 37574 H 2287.1 6.90173 -0.474152 0
M  V30 37575 H 2286.23 7.66548 -2.79458 0
M  V30 37576 P 2282.27 8.03563 -3.84925 0
M  V30 37577 O 2282.05 8.85821 -5.0569 0
M  V30 37578 O 2281.48 8.41101 -2.65469 0
M  V30 37579 O 2282.02 6.4965 -4.18908 0
M  V30 37580 C 2282.96 5.81037 -5.05421 0
M  V30 37581 C 2282.23 4.78366 -5.89277 0
M  V30 37582 O 2282.02 3.58302 -5.08433 0
M  V30 37583 C 2280.83 5.17448 -6.36119 0
M  V30 37584 O 2280.44 4.45271 -7.53232 0
M  V30 37585 C 2279.95 4.74639 -5.19936 0
M  V30 37586 C 2280.66 3.49432 -4.70418 0
M  V30 37587 N 2280.61 3.31776 -3.22945 0
M  V30 37588 H 2283.45 6.54213 -5.71376 0
M  V30 37589 H 2283.72 5.30492 -4.44033 0
M  V30 37590 H 2282.85 4.55889 -6.76652 0
M  V30 37591 P 2278.89 4.23843 -7.83734 0
M  V30 37592 O 2278.67 4.19407 -9.29784 0
M  V30 37593 O 2278.1 5.24426 -7.09156 0
M  V30 37594 O 2278.64 2.7935 -7.20758 0
M  V30 37595 C 2279.58 1.72945 -7.50224 0
M  V30 37596 C 2278.85 0.406376 -7.57911 0
M  V30 37597 O 2278.64 -0.0897726 -6.21935 0
M  V30 37598 C 2277.45 0.438983 -8.18724 0
M  V30 37599 O 2277.06 -0.825065 -8.71101 0
M  V30 37600 C 2276.57 0.783689 -6.99524 0
M  V30 37601 C 2277.28 0.0619086 -5.85867 0
M  V30 37602 N 2277.23 0.78573 -4.56183 0
M  V30 37603 C 2277.08 0.0292889 -3.41887 0
M  V30 37604 O 2276.99 -1.18445 -3.4419 0
M  V30 37605 N 2277.04 0.744061 -2.23964 0
M  V30 37606 C 2277.13 2.10932 -2.10362 0
M  V30 37607 C 2277.28 2.8202 -3.34994 0
M  V30 37608 C 2277.33 2.15547 -4.52261 0
M  V30 37609 H 2280.07 1.93379 -8.46595 0
M  V30 37610 H 2280.34 1.68132 -6.70852 0
M  V30 37611 H 2279.47 -0.289041 -8.15388 0
M  V30 37612 H 2276.81 -0.926847 -5.72749 0
M  V30 37613 H 2276.54 1.86973 -6.82036 0
M  V30 37614 H 2275.54 0.403896 -7.13257 0
M  V30 37615 H 2277.38 1.20585 -8.97435 0
M  V30 37616 H 2277.45 2.71231 -5.45042 0
M  V30 37617 P 2275.51 -1.17771 -8.83182 0
M  V30 37618 O 2275.29 -2.07206 -9.98732 0
M  V30 37619 O 2274.72 0.0743816 -8.81969 0
M  V30 37620 O 2275.26 -1.97652 -7.47304 0
M  V30 37621 C 2276.2 -3.01133 -7.08783 0
M  V30 37622 C 2275.47 -4.12613 -6.37049 0
M  V30 37623 O 2275.26 -3.72827 -4.97879 0
M  V30 37624 C 2274.07 -4.45085 -6.88694 0
M  V30 37625 O 2273.68 -5.7877 -6.5624 0
M  V30 37626 C 2273.19 -3.47817 -6.12078 0
M  V30 37627 C 2273.9 -3.39414 -4.77697 0
M  V30 37628 N 2273.85 -2.04615 -4.15333 0
M  V30 37629 H 2276.69 -3.41248 -7.98759 0
M  V30 37630 H 2276.96 -2.5837 -6.41742 0
M  V30 37631 H 2276.09 -5.02657 -6.42673 0
M  V30 37632 P 2272.13 -6.144 -6.45285 0
M  V30 37633 O 2271.91 -7.54673 -6.86199 0
M  V30 37634 O 2271.34 -5.12391 -7.179 0
M  V30 37635 O 2271.88 -5.99158 -4.88404 0
M  V30 37636 C 2272.82 -6.60234 -3.96415 0
M  V30 37637 C 2272.09 -7.08259 -2.72856 0
M  V30 37638 O 2271.88 -5.9427 -1.83651 0
M  V30 37639 C 2270.69 -7.64886 -2.9555 0
M  V30 37640 O 2270.3 -8.53963 -1.90717 0
M  V30 37641 C 2269.81 -6.4116 -2.90739 0
M  V30 37642 C 2270.52 -5.55375 -1.86963 0
M  V30 37643 N 2270.47 -4.09448 -2.16152 0
M  V30 37644 H 2273.31 -7.45574 -4.45629 0
M  V30 37645 H 2273.58 -5.85864 -3.679 0
M  V30 37646 H 2272.71 -7.84412 -2.24479 0
M  V30 37647 H 2270.05 -5.73457 -0.888562 0
M  V30 37648 H 2269.77 -5.90877 -3.88583 0
M  V30 37649 H 2268.78 -6.6596 -2.58858 0
M  V30 37650 H 2270.62 -8.16339 -3.92049 0
M  V30 37651 P 2268.75 -8.7635 -1.60911 0
M  V30 37652 O 2268.53 -10.1388 -1.11561 0
M  V30 37653 O 2267.96 -8.36503 -2.79617 0
M  V30 37654 O 2268.5 -7.71806 -0.42951 0
M  V30 37655 C 2269.44 -7.67148 0.673689 0
M  V30 37656 C 2268.71 -7.33374 1.95559 0
M  V30 37657 O 2268.5 -5.88721 2.00726 0
M  V30 37658 C 2267.31 -7.92526 2.10483 0
M  V30 37659 O 2266.92 -8.02971 3.47653 0
M  V30 37660 C 2266.43 -6.89602 1.41652 0
M  V30 37661 C 2267.14 -5.59201 1.75185 0
M  V30 37662 N 2267.09 -4.58235 0.662552 0
M  V30 37663 H 2269.93 -8.65116 0.777161 0
M  V30 37664 H 2270.2 -6.90173 0.474152 0
M  V30 37665 H 2269.33 -7.66548 2.79458 0
M  V30 37666 P 2265.37 -8.03563 3.84925 0
M  V30 37667 O 2265.15 -8.85821 5.0569 0
M  V30 37668 O 2264.58 -8.41101 2.65469 0
M  V30 37669 O 2265.12 -6.4965 4.18908 0
M  V30 37670 C 2266.06 -5.81037 5.05421 0
M  V30 37671 C 2265.33 -4.78366 5.89277 0
M  V30 37672 O 2265.12 -3.58302 5.08433 0
M  V30 37673 C 2263.93 -5.17448 6.36119 0
M  V30 37674 O 2263.54 -4.45271 7.53232 0
M  V30 37675 C 2263.05 -4.74639 5.19936 0
M  V30 37676 C 2263.76 -3.49432 4.70418 0
M  V30 37677 N 2263.71 -3.32099 3.22613 0
M  V30 37678 H 2266.55 -6.54213 5.71376 0
M  V30 37679 H 2266.82 -5.30936 4.43503 0
M  V30 37680 H 2265.95 -4.55889 6.76652 0
M  V30 37681 H 2263.29 -2.61715 5.17932 0
M  V30 37682 H 2263.01 -5.52155 4.41878 0
M  V30 37683 H 2262.02 -4.51981 5.53374 0
M  V30 37684 H 2263.86 -6.25124 6.55234 0
M  V30 37685 P 2261.99 -4.23843 7.83734 0
M  V30 37686 O 2261.77 -4.19407 9.29784 0
M  V30 37687 O 2261.2 -5.24426 7.09156 0
M  V30 37688 O 2261.74 -2.7935 7.20758 0
M  V30 37689 C 2262.68 -1.7299 7.50419 0
M  V30 37690 C 2261.95 -0.406376 7.57911 0
M  V30 37691 O 2261.74 0.0897726 6.21935 0
M  V30 37692 C 2260.55 -0.447224 8.1878 0
M  V30 37693 O 2260.16 0.825065 8.71101 0
M  V30 37694 C 2259.67 -0.783801 6.99623 0
M  V30 37695 C 2260.38 -0.0619192 5.85967 0
M  V30 37696 N 2260.33 -0.7859 4.56281 0
M  V30 37697 H 2263.17 -1.93423 8.4679 0
M  V30 37698 H 2263.44 -1.68181 6.71046 0
M  V30 37699 H 2262.57 0.289041 8.15388 0
M  V30 37700 P 2258.61 1.17771 8.83182 0
M  V30 37701 O 2258.39 2.07206 9.98732 0
M  V30 37702 O 2257.82 -0.0743816 8.81969 0
M  V30 37703 O 2258.36 1.97678 7.474 0
M  V30 37704 C 2259.3 3.01133 7.08783 0
M  V30 37705 C 2258.57 4.1203 6.37546 0
M  V30 37706 O 2258.36 3.72887 4.9796 0
M  V30 37707 C 2257.17 4.45085 6.88694 0
M  V30 37708 O 2256.78 5.78836 6.56315 0
M  V30 37709 C 2256.29 3.47817 6.12078 0
M  V30 37710 C 2257 3.39414 4.77697 0
M  V30 37711 N 2256.95 2.04615 4.15333 0
M  V30 37712 C 2256.8 1.96929 2.77162 0
M  V30 37713 O 2256.71 3.02017 2.12006 0
M  V30 37714 N 2256.75 0.55485 2.24237 0
M  V30 37715 C 2256.85 -0.367808 2.9169 0
M  V30 37716 N 2256.8 -1.53426 2.29427 0
M  V30 37717 C 2257 -0.319148 4.33828 0
M  V30 37718 C 2257.05 0.920672 4.90433 0
M  V30 37719 H 2259.79 3.41209 7.98667 0
M  V30 37720 H 2260.06 2.5837 6.41742 0
M  V30 37721 H 2259.19 5.02718 6.42752 0
M  V30 37722 H 2256.53 4.11779 4.09026 0
M  V30 37723 H 2256.25 2.49661 6.61772 0
M  V30 37724 H 2255.26 3.86674 6.00946 0
M  V30 37725 H 2257.1 4.29991 7.97006 0
M  V30 37726 H 2257.17 1.00589 5.98303 0
M  V30 37727 H 2257.07 -1.22639 4.93799 0
M  V30 37728 H 2256.68 -1.56819 1.27167 0
M  V30 37729 H 2256.88 -2.41062 2.83063 0
M  V30 37730 P 2255.23 6.144 6.45285 0
M  V30 37731 O 2255.01 7.54673 6.86199 0
M  V30 37732 O 2254.44 5.12391 7.179 0
M  V30 37733 O 2254.98 5.99158 4.88404 0
M  V30 37734 C 2255.92 6.60234 3.96415 0
M  V30 37735 C 2255.19 7.08259 2.72856 0
M  V30 37736 O 2254.98 5.9427 1.83651 0
M  V30 37737 C 2253.79 7.64886 2.9555 0
M  V30 37738 O 2253.4 8.53963 1.90717 0
M  V30 37739 C 2252.91 6.4116 2.90739 0
M  V30 37740 C 2253.62 5.55375 1.86963 0
M  V30 37741 N 2253.57 4.09664 2.15742 0
M  V30 37742 H 2256.41 7.45574 4.45629 0
M  V30 37743 H 2256.68 5.86232 3.67314 0
M  V30 37744 H 2255.81 7.84412 2.24479 0
M  V30 37745 P 2251.85 8.7635 1.60911 0
M  V30 37746 O 2251.63 10.1388 1.11561 0
M  V30 37747 O 2251.06 8.36503 2.79617 0
M  V30 37748 O 2251.6 7.71806 0.42951 0
M  V30 37749 C 2252.54 7.67148 -0.673689 0
M  V30 37750 C 2251.81 7.33374 -1.95559 0
M  V30 37751 O 2251.6 5.88721 -2.00726 0
M  V30 37752 C 2250.41 7.92526 -2.10483 0
M  V30 37753 O 2250.02 8.02971 -3.47653 0
M  V30 37754 C 2249.53 6.89602 -1.41652 0
M  V30 37755 C 2250.24 5.59201 -1.75185 0
M  V30 37756 N 2250.19 4.58235 -0.662552 0
M  V30 37757 H 2253.03 8.65116 -0.777161 0
M  V30 37758 H 2253.3 6.90173 -0.474152 0
M  V30 37759 H 2252.43 7.66548 -2.79458 0
M  V30 37760 P 2248.47 8.03563 -3.84925 0
M  V30 37761 O 2248.25 8.85821 -5.0569 0
M  V30 37762 O 2247.68 8.41101 -2.65469 0
M  V30 37763 O 2248.22 6.4965 -4.18908 0
M  V30 37764 C 2249.16 5.81037 -5.05421 0
M  V30 37765 C 2248.43 4.78366 -5.89277 0
M  V30 37766 O 2248.22 3.58302 -5.08433 0
M  V30 37767 C 2247.03 5.17448 -6.36119 0
M  V30 37768 O 2246.64 4.45271 -7.53232 0
M  V30 37769 C 2246.15 4.74639 -5.19936 0
M  V30 37770 C 2246.86 3.49432 -4.70418 0
M  V30 37771 N 2246.81 3.31776 -3.22945 0
M  V30 37772 H 2249.65 6.54213 -5.71376 0
M  V30 37773 H 2249.92 5.30492 -4.44033 0
M  V30 37774 H 2249.05 4.55889 -6.76652 0
M  V30 37775 P 2245.09 4.23843 -7.83734 0
M  V30 37776 O 2244.87 4.19407 -9.29784 0
M  V30 37777 O 2244.3 5.24426 -7.09156 0
M  V30 37778 O 2244.84 2.7935 -7.20758 0
M  V30 37779 C 2245.78 1.7299 -7.50419 0
M  V30 37780 C 2245.05 0.406376 -7.57911 0
M  V30 37781 O 2244.84 -0.0897726 -6.21935 0
M  V30 37782 C 2243.65 0.447224 -8.1878 0
M  V30 37783 O 2243.26 -0.825065 -8.71101 0
M  V30 37784 C 2242.77 0.783801 -6.99623 0
M  V30 37785 C 2243.48 0.0619192 -5.85967 0
M  V30 37786 N 2243.43 0.7859 -4.56281 0
M  V30 37787 H 2246.27 1.93423 -8.4679 0
M  V30 37788 H 2246.54 1.68181 -6.71046 0
M  V30 37789 H 2245.67 -0.289041 -8.15388 0
M  V30 37790 P 2241.71 -1.17771 -8.83182 0
M  V30 37791 O 2241.49 -2.07206 -9.98732 0
M  V30 37792 O 2240.92 0.0743816 -8.81969 0
M  V30 37793 O 2241.46 -1.97652 -7.47304 0
M  V30 37794 C 2242.4 -3.01055 -7.08599 0
M  V30 37795 C 2241.67 -4.12613 -6.37049 0
M  V30 37796 O 2241.46 -3.72827 -4.97879 0
M  V30 37797 C 2240.27 -4.45719 -6.88164 0
M  V30 37798 O 2239.88 -5.7877 -6.5624 0
M  V30 37799 C 2239.39 -3.47768 -6.11991 0
M  V30 37800 C 2240.1 -3.39356 -4.77615 0
M  V30 37801 N 2240.05 -2.04571 -4.15244 0
M  V30 37802 C 2239.9 -1.98587 -2.78314 0
M  V30 37803 O 2239.81 -2.98134 -2.08835 0
M  V30 37804 N 2239.86 -0.714467 -2.24925 0
M  V30 37805 C 2239.95 0.470001 -2.94169 0
M  V30 37806 C 2240.1 0.312541 -4.36783 0
M  V30 37807 C 2240.15 -0.914512 -4.92583 0
M  V30 37808 H 2242.89 -3.41169 -7.98575 0
M  V30 37809 H 2243.16 -2.58295 -6.41556 0
M  V30 37810 H 2242.29 -5.02657 -6.42673 0
M  V30 37811 H 2239.63 -4.11637 -4.08885 0
M  V30 37812 H 2239.36 -2.49626 -6.61679 0
M  V30 37813 H 2238.36 -3.86566 -6.00778 0
M  V30 37814 H 2240.2 -4.29943 -7.96918 0
M  V30 37815 H 2240.27 -1.00937 -6.00374 0
M  V30 37816 P 2238.33 -6.144 -6.45285 0
M  V30 37817 O 2238.11 -7.54673 -6.86199 0
M  V30 37818 O 2237.54 -5.12391 -7.179 0
M  V30 37819 O 2238.08 -5.99158 -4.88404 0
M  V30 37820 C 2239.02 -6.60234 -3.96415 0
M  V30 37821 C 2238.29 -7.08259 -2.72856 0
M  V30 37822 O 2238.08 -5.9427 -1.83651 0
M  V30 37823 C 2236.89 -7.64886 -2.9555 0
M  V30 37824 O 2236.5 -8.53963 -1.90717 0
M  V30 37825 C 2236.01 -6.4116 -2.90739 0
M  V30 37826 C 2236.72 -5.55375 -1.86963 0
M  V30 37827 N 2236.67 -4.09664 -2.15742 0
M  V30 37828 H 2239.51 -7.45574 -4.45629 0
M  V30 37829 H 2239.78 -5.86232 -3.67314 0
M  V30 37830 H 2238.91 -7.84412 -2.24479 0
M  V30 37831 P 2234.95 -8.7635 -1.60911 0
M  V30 37832 O 2234.73 -10.1388 -1.11561 0
M  V30 37833 O 2234.16 -8.36503 -2.79617 0
M  V30 37834 O 2234.7 -7.71806 -0.42951 0
M  V30 37835 C 2235.64 -7.67148 0.673689 0
M  V30 37836 C 2234.91 -7.33374 1.95559 0
M  V30 37837 O 2234.7 -5.88721 2.00726 0
M  V30 37838 C 2233.51 -7.92526 2.10483 0
M  V30 37839 O 2233.12 -8.02971 3.47653 0
M  V30 37840 C 2232.63 -6.89602 1.41652 0
M  V30 37841 C 2233.34 -5.59201 1.75185 0
M  V30 37842 N 2233.29 -4.58235 0.662552 0
M  V30 37843 H 2236.13 -8.65116 0.777161 0
M  V30 37844 H 2236.4 -6.90173 0.474152 0
M  V30 37845 H 2235.53 -7.66548 2.79458 0
M  V30 37846 P 2231.57 -8.03563 3.84925 0
M  V30 37847 O 2231.35 -8.85821 5.0569 0
M  V30 37848 O 2230.78 -8.41101 2.65469 0
M  V30 37849 O 2231.32 -6.4965 4.18908 0
M  V30 37850 C 2232.26 -5.81037 5.05421 0
M  V30 37851 C 2231.53 -4.78366 5.89277 0
M  V30 37852 O 2231.32 -3.58302 5.08433 0
M  V30 37853 C 2230.13 -5.17448 6.36119 0
M  V30 37854 O 2229.74 -4.45271 7.53232 0
M  V30 37855 C 2229.25 -4.74639 5.19936 0
M  V30 37856 C 2229.96 -3.49432 4.70418 0
M  V30 37857 N 2229.91 -3.32099 3.22613 0
M  V30 37858 H 2232.75 -6.54213 5.71376 0
M  V30 37859 H 2233.02 -5.30936 4.43503 0
M  V30 37860 H 2232.15 -4.55889 6.76652 0
M  V30 37861 H 2229.49 -2.61715 5.17932 0
M  V30 37862 H 2229.21 -5.52155 4.41878 0
M  V30 37863 H 2228.22 -4.51981 5.53374 0
M  V30 37864 H 2230.06 -6.25124 6.55234 0
M  V30 37865 P 2228.19 -4.23843 7.83734 0
M  V30 37866 O 2227.97 -4.19407 9.29784 0
M  V30 37867 O 2227.4 -5.24426 7.09156 0
M  V30 37868 O 2227.94 -2.7935 7.20758 0
M  V30 37869 C 2228.88 -1.7299 7.50419 0
M  V30 37870 C 2228.15 -0.406376 7.57911 0
M  V30 37871 O 2227.94 0.0897726 6.21935 0
M  V30 37872 C 2226.75 -0.447224 8.1878 0
M  V30 37873 O 2226.36 0.825065 8.71101 0
M  V30 37874 C 2225.87 -0.783801 6.99623 0
M  V30 37875 C 2226.58 -0.0619192 5.85967 0
M  V30 37876 N 2226.53 -0.7859 4.56281 0
M  V30 37877 H 2229.37 -1.93423 8.4679 0
M  V30 37878 H 2229.64 -1.68181 6.71046 0
M  V30 37879 H 2228.77 0.289041 8.15388 0
M  V30 37880 P 2224.81 1.17771 8.83182 0
M  V30 37881 O 2224.59 2.07206 9.98732 0
M  V30 37882 O 2224.02 -0.0743816 8.81969 0
M  V30 37883 O 2224.56 1.97652 7.47304 0
M  V30 37884 C 2225.5 3.01055 7.08599 0
M  V30 37885 C 2224.77 4.12613 6.37049 0
M  V30 37886 O 2224.56 3.72827 4.97879 0
M  V30 37887 C 2223.37 4.45719 6.88164 0
M  V30 37888 O 2222.98 5.7877 6.5624 0
M  V30 37889 C 2222.49 3.47768 6.11991 0
M  V30 37890 C 2223.2 3.39356 4.77615 0
M  V30 37891 N 2223.15 2.04571 4.15244 0
M  V30 37892 C 2223 1.98587 2.78314 0
M  V30 37893 O 2222.91 2.98134 2.08835 0
M  V30 37894 N 2222.96 0.714467 2.24925 0
M  V30 37895 C 2223.05 -0.470001 2.94169 0
M  V30 37896 C 2223.2 -0.312541 4.36783 0
M  V30 37897 C 2223.25 0.914512 4.92583 0
M  V30 37898 H 2225.99 3.41169 7.98575 0
M  V30 37899 H 2226.26 2.58295 6.41556 0
M  V30 37900 H 2225.39 5.02657 6.42673 0
M  V30 37901 H 2222.73 4.11637 4.08885 0
M  V30 37902 H 2222.46 2.49626 6.61679 0
M  V30 37903 H 2221.46 3.86566 6.00778 0
M  V30 37904 H 2223.3 4.29943 7.96918 0
M  V30 37905 H 2223.37 1.00937 6.00374 0
M  V30 37906 P 2221.43 6.144 6.45285 0
M  V30 37907 O 2221.21 7.54673 6.86199 0
M  V30 37908 O 2220.64 5.12391 7.179 0
M  V30 37909 O 2221.18 5.99158 4.88404 0
M  V30 37910 C 2222.12 6.60062 3.96313 0
M  V30 37911 C 2221.39 7.08259 2.72856 0
M  V30 37912 O 2221.18 5.9427 1.83651 0
M  V30 37913 C 2219.99 7.65087 2.94749 0
M  V30 37914 O 2219.6 8.53963 1.90717 0
M  V30 37915 C 2219.11 6.41069 2.90698 0
M  V30 37916 C 2219.82 5.5528 1.86931 0
M  V30 37917 N 2219.77 4.09575 2.15696 0
M  V30 37918 C 2219.62 3.24249 1.08435 0
M  V30 37919 O 2219.53 3.63946 -0.0628747 0
M  V30 37920 N 2219.58 1.90009 1.39973 0
M  V30 37921 C 2219.67 1.34884 2.65614 0
M  V30 37922 O 2219.62 0.123716 2.81728 0
M  V30 37923 C 2219.82 2.3145 3.71736 0
M  V30 37924 C 2219.93 1.75913 5.10438 0
M  V30 37925 C 2219.87 3.63518 3.44754 0
M  V30 37926 H 2222.61 7.45402 4.45526 0
M  V30 37927 H 2222.88 5.86062 3.67208 0
M  V30 37928 H 2222.01 7.84412 2.24479 0
M  V30 37929 H 2219.35 5.73358 0.888409 0
M  V30 37930 H 2219.08 5.90877 3.88583 0
M  V30 37931 H 2218.08 6.65867 2.58821 0
M  V30 37932 H 2219.92 8.16248 3.92006 0
M  V30 37933 H 2219.99 4.34551 4.26383 0
M  V30 37934 H 2218.96 1.85471 5.61775 0
M  V30 37935 H 2220.7 2.31364 5.66257 0
M  V30 37936 H 2220.21 0.695936 5.05229 0
M  V30 37937 H 2219.47 1.26277 0.63625 0
M  V30 37938 P 2218.05 8.7635 1.60911 0
M  V30 37939 O 2217.83 10.1388 1.11561 0
M  V30 37940 O 2217.26 8.36503 2.79617 0
M  V30 37941 O 2217.8 7.71806 0.42951 0
M  V30 37942 C 2218.74 7.66948 -0.673514 0
M  V30 37943 C 2218.01 7.33374 -1.95559 0
M  V30 37944 O 2217.8 5.88721 -2.00726 0
M  V30 37945 C 2216.61 7.92218 -2.1125 0
M  V30 37946 O 2216.22 8.02971 -3.47653 0
M  V30 37947 C 2215.73 6.89504 -1.41631 0
M  V30 37948 C 2216.44 5.59106 -1.75155 0
M  V30 37949 N 2216.39 4.58136 -0.662409 0
M  V30 37950 C 2216.24 3.26059 -1.02863 0
M  V30 37951 O 2216.15 2.90743 -2.19009 0
M  V30 37952 N 2216.2 2.35995 0.0155585 0
M  V30 37953 C 2216.29 2.65248 1.35603 0
M  V30 37954 O 2216.24 1.75605 2.20651 0
M  V30 37955 C 2216.44 4.05747 1.64698 0
M  V30 37956 C 2216.55 4.42345 3.09553 0
M  V30 37957 C 2216.49 4.96734 0.652411 0
M  V30 37958 H 2219.23 8.64917 -0.776982 0
M  V30 37959 H 2219.5 6.89974 -0.474015 0
M  V30 37960 H 2218.63 7.66548 -2.79458 0
M  V30 37961 H 2215.97 5.16076 -2.65138 0
M  V30 37962 H 2215.7 7.06433 -0.329384 0
M  V30 37963 H 2214.7 6.90829 -1.81996 0
M  V30 37964 H 2216.54 8.90774 -1.62639 0
M  V30 37965 H 2216.61 6.02181 0.895285 0
M  V30 37966 H 2215.58 4.80252 3.45468 0
M  V30 37967 H 2217.32 5.20015 3.22119 0
M  V30 37968 H 2216.83 3.53269 3.67833 0
M  V30 37969 H 2216.09 1.39558 -0.227499 0
M  V30 37970 P 2214.67 8.03563 -3.84925 0
M  V30 37971 O 2214.45 8.85821 -5.0569 0
M  V30 37972 O 2213.88 8.41101 -2.65469 0
M  V30 37973 O 2214.42 6.4965 -4.18908 0
M  V30 37974 C 2215.36 5.80886 -5.05289 0
M  V30 37975 C 2214.63 4.78366 -5.89277 0
M  V30 37976 O 2214.42 3.58302 -5.08433 0
M  V30 37977 C 2213.23 5.16748 -6.36559 0
M  V30 37978 O 2212.84 4.45271 -7.53232 0
M  V30 37979 C 2212.35 4.74572 -5.19863 0
M  V30 37980 C 2213.06 3.49373 -4.70338 0
M  V30 37981 N 2213.01 3.31704 -3.22876 0
M  V30 37982 C 2212.86 2.03326 -2.74871 0
M  V30 37983 O 2212.77 1.06486 -3.48076 0
M  V30 37984 N 2212.82 1.91838 -1.37456 0
M  V30 37985 C 2212.91 2.94295 -0.462035 0
M  V30 37986 O 2212.86 2.71763 0.752928 0
M  V30 37987 C 2213.06 4.25064 -1.05249 0
M  V30 37988 C 2213.17 5.39815 -0.095697 0
M  V30 37989 C 2213.11 4.40214 -2.39192 0
M  V30 37990 H 2215.85 6.54063 -5.71245 0
M  V30 37991 H 2216.12 5.30339 -4.43905 0
M  V30 37992 H 2215.25 4.55889 -6.76652 0
M  V30 37993 H 2212.59 2.6167 -5.17842 0
M  V30 37994 H 2212.32 5.52155 -4.41878 0
M  V30 37995 H 2211.32 4.51918 -5.53297 0
M  V30 37996 H 2213.16 6.25055 -6.55162 0
M  V30 37997 H 2213.23 5.39798 -2.81523 0
M  V30 37998 H 2212.2 5.91593 -0.0279582 0
M  V30 37999 H 2213.94 6.10038 -0.450573 0
M  V30 38000 H 2213.45 5.02007 0.89937 0
M  V30 38001 H 2212.71 0.995326 -1.00435 0
M  V30 38002 P 2211.29 4.23843 -7.83734 0
M  V30 38003 O 2211.07 4.19407 -9.29784 0
M  V30 38004 O 2210.5 5.24426 -7.09156 0
M  V30 38005 O 2211.04 2.7935 -7.20758 0
M  V30 38006 C 2211.98 1.7299 -7.50419 0
M  V30 38007 C 2211.25 0.406376 -7.57911 0
M  V30 38008 O 2211.04 -0.0897726 -6.21935 0
M  V30 38009 C 2209.85 0.447224 -8.1878 0
M  V30 38010 O 2209.46 -0.825065 -8.71101 0
M  V30 38011 C 2208.97 0.783801 -6.99623 0
M  V30 38012 C 2209.68 0.0619192 -5.85967 0
M  V30 38013 N 2209.63 0.7859 -4.56281 0
M  V30 38014 H 2212.47 1.93423 -8.4679 0
M  V30 38015 H 2212.74 1.68181 -6.71046 0
M  V30 38016 H 2211.87 -0.289041 -8.15388 0
M  V30 38017 P 2207.91 -1.17771 -8.83182 0
M  V30 38018 O 2207.69 -2.07206 -9.98732 0
M  V30 38019 O 2207.12 0.0743816 -8.81969 0
M  V30 38020 O 2207.66 -1.97652 -7.47304 0
M  V30 38021 C 2208.6 -3.01055 -7.08599 0
M  V30 38022 C 2207.87 -4.12613 -6.37049 0
M  V30 38023 O 2207.66 -3.72827 -4.97879 0
M  V30 38024 C 2206.47 -4.45719 -6.88164 0
M  V30 38025 O 2206.08 -5.7877 -6.5624 0
M  V30 38026 C 2205.59 -3.47768 -6.11991 0
M  V30 38027 C 2206.3 -3.39356 -4.77615 0
M  V30 38028 N 2206.25 -2.04571 -4.15244 0
M  V30 38029 C 2206.1 -1.98587 -2.78314 0
M  V30 38030 O 2206.01 -2.98134 -2.08835 0
M  V30 38031 N 2206.06 -0.714467 -2.24925 0
M  V30 38032 C 2206.15 0.470001 -2.94169 0
M  V30 38033 C 2206.3 0.312541 -4.36783 0
M  V30 38034 C 2206.35 -0.914512 -4.92583 0
M  V30 38035 H 2209.09 -3.41169 -7.98575 0
M  V30 38036 H 2209.36 -2.58295 -6.41556 0
M  V30 38037 H 2208.49 -5.02657 -6.42673 0
M  V30 38038 H 2205.83 -4.11637 -4.08885 0
M  V30 38039 H 2205.56 -2.49626 -6.61679 0
M  V30 38040 H 2204.56 -3.86566 -6.00778 0
M  V30 38041 H 2206.4 -4.29943 -7.96918 0
M  V30 38042 H 2206.47 -1.00937 -6.00374 0
M  V30 38043 P 2204.53 -6.144 -6.45285 0
M  V30 38044 O 2204.31 -7.54673 -6.86199 0
M  V30 38045 O 2203.74 -5.12391 -7.179 0
M  V30 38046 O 2204.28 -5.99158 -4.88404 0
M  V30 38047 C 2205.22 -6.60234 -3.96415 0
M  V30 38048 C 2204.49 -7.08259 -2.72856 0
M  V30 38049 O 2204.28 -5.9427 -1.83651 0
M  V30 38050 C 2203.09 -7.64886 -2.9555 0
M  V30 38051 O 2202.7 -8.53963 -1.90717 0
M  V30 38052 C 2202.21 -6.4116 -2.90739 0
M  V30 38053 C 2202.92 -5.55375 -1.86963 0
M  V30 38054 N 2202.87 -4.09448 -2.16152 0
M  V30 38055 H 2205.71 -7.45574 -4.45629 0
M  V30 38056 H 2205.98 -5.85864 -3.679 0
M  V30 38057 H 2205.11 -7.84412 -2.24479 0
M  V30 38058 H 2202.45 -5.73457 -0.888562 0
M  V30 38059 H 2202.17 -5.90877 -3.88583 0
M  V30 38060 H 2201.18 -6.6596 -2.58858 0
M  V30 38061 H 2203.02 -8.16339 -3.92049 0
M  V30 38062 P 2201.15 -8.7635 -1.60911 0
M  V30 38063 O 2200.93 -10.1388 -1.11561 0
M  V30 38064 O 2200.36 -8.36503 -2.79617 0
M  V30 38065 O 2200.9 -7.71806 -0.42951 0
M  V30 38066 C 2201.84 -7.67148 0.673689 0
M  V30 38067 C 2201.11 -7.33374 1.95559 0
M  V30 38068 O 2200.9 -5.88721 2.00726 0
M  V30 38069 C 2199.71 -7.92526 2.10483 0
M  V30 38070 O 2199.32 -8.02971 3.47653 0
M  V30 38071 C 2198.83 -6.89602 1.41652 0
M  V30 38072 C 2199.54 -5.59201 1.75185 0
M  V30 38073 N 2199.49 -4.58235 0.662552 0
M  V30 38074 H 2202.33 -8.65116 0.777161 0
M  V30 38075 H 2202.6 -6.90173 0.474152 0
M  V30 38076 H 2201.73 -7.66548 2.79458 0
M  V30 38077 P 2197.77 -8.03563 3.84925 0
M  V30 38078 O 2197.55 -8.85821 5.0569 0
M  V30 38079 O 2196.98 -8.41101 2.65469 0
M  V30 38080 O 2197.52 -6.4965 4.18908 0
M  V30 38081 C 2198.46 -5.80886 5.05289 0
M  V30 38082 C 2197.73 -4.78366 5.89277 0
M  V30 38083 O 2197.52 -3.58302 5.08433 0
M  V30 38084 C 2196.33 -5.16748 6.36559 0
M  V30 38085 O 2195.94 -4.45271 7.53232 0
M  V30 38086 C 2195.45 -4.74572 5.19863 0
M  V30 38087 C 2196.16 -3.49373 4.70338 0
M  V30 38088 N 2196.11 -3.31704 3.22876 0
M  V30 38089 C 2195.96 -2.03326 2.74871 0
M  V30 38090 O 2195.87 -1.06486 3.48076 0
M  V30 38091 N 2195.92 -1.91838 1.37456 0
M  V30 38092 C 2196.01 -2.94295 0.462035 0
M  V30 38093 O 2195.96 -2.71763 -0.752928 0
M  V30 38094 C 2196.16 -4.25064 1.05249 0
M  V30 38095 C 2196.27 -5.39815 0.095697 0
M  V30 38096 C 2196.21 -4.40214 2.39192 0
M  V30 38097 H 2198.95 -6.54063 5.71245 0
M  V30 38098 H 2199.22 -5.30339 4.43905 0
M  V30 38099 H 2198.35 -4.55889 6.76652 0
M  V30 38100 H 2195.7 -2.6167 5.17842 0
M  V30 38101 H 2195.42 -5.52155 4.41878 0
M  V30 38102 H 2194.42 -4.51918 5.53297 0
M  V30 38103 H 2196.26 -6.25055 6.55162 0
M  V30 38104 H 2196.33 -5.39798 2.81523 0
M  V30 38105 H 2195.3 -5.91593 0.0279582 0
M  V30 38106 H 2197.04 -6.10038 0.450573 0
M  V30 38107 H 2196.55 -5.02007 -0.89937 0
M  V30 38108 H 2195.81 -0.995326 1.00435 0
M  V30 38109 P 2194.39 -4.23843 7.83734 0
M  V30 38110 O 2194.17 -4.19407 9.29784 0
M  V30 38111 O 2193.6 -5.24426 7.09156 0
M  V30 38112 O 2194.14 -2.7935 7.20758 0
M  V30 38113 C 2195.08 -1.7299 7.50419 0
M  V30 38114 C 2194.35 -0.406376 7.57911 0
M  V30 38115 O 2194.14 0.0897726 6.21935 0
M  V30 38116 C 2192.95 -0.447224 8.1878 0
M  V30 38117 O 2192.56 0.825065 8.71101 0
M  V30 38118 C 2192.07 -0.783801 6.99623 0
M  V30 38119 C 2192.78 -0.0619192 5.85967 0
M  V30 38120 N 2192.73 -0.7859 4.56281 0
M  V30 38121 H 2195.57 -1.93423 8.4679 0
M  V30 38122 H 2195.84 -1.68181 6.71046 0
M  V30 38123 H 2194.97 0.289041 8.15388 0
M  V30 38124 P 2191.01 1.17771 8.83182 0
M  V30 38125 O 2190.79 2.07206 9.98732 0
M  V30 38126 O 2190.22 -0.0743816 8.81969 0
M  V30 38127 O 2190.76 1.97678 7.474 0
M  V30 38128 C 2191.7 3.01133 7.08783 0
M  V30 38129 C 2190.97 4.1203 6.37546 0
M  V30 38130 O 2190.76 3.72887 4.9796 0
M  V30 38131 C 2189.57 4.45085 6.88694 0
M  V30 38132 O 2189.18 5.78836 6.56315 0
M  V30 38133 C 2188.69 3.47817 6.12078 0
M  V30 38134 C 2189.4 3.39414 4.77697 0
M  V30 38135 N 2189.35 2.04615 4.15333 0
M  V30 38136 C 2189.2 1.96929 2.77162 0
M  V30 38137 O 2189.11 3.02017 2.12006 0
M  V30 38138 N 2189.15 0.55485 2.24237 0
M  V30 38139 C 2189.25 -0.367808 2.9169 0
M  V30 38140 N 2189.2 -1.53426 2.29427 0
M  V30 38141 C 2189.4 -0.319148 4.33828 0
M  V30 38142 C 2189.45 0.920672 4.90433 0
M  V30 38143 H 2192.19 3.41209 7.98667 0
M  V30 38144 H 2192.46 2.5837 6.41742 0
M  V30 38145 H 2191.59 5.02718 6.42752 0
M  V30 38146 H 2188.94 4.11779 4.09026 0
M  V30 38147 H 2188.66 2.49661 6.61772 0
M  V30 38148 H 2187.66 3.86674 6.00946 0
M  V30 38149 H 2189.5 4.29991 7.97006 0
M  V30 38150 H 2189.57 1.00589 5.98303 0
M  V30 38151 H 2189.47 -1.22639 4.93799 0
M  V30 38152 H 2189.08 -1.56819 1.27167 0
M  V30 38153 H 2189.28 -2.41062 2.83063 0
M  V30 38154 P 2187.63 6.144 6.45285 0
M  V30 38155 O 2187.41 7.54673 6.86199 0
M  V30 38156 O 2186.84 5.12391 7.179 0
M  V30 38157 O 2187.38 5.99236 4.88467 0
M  V30 38158 C 2188.32 6.60234 3.96415 0
M  V30 38159 C 2187.59 7.08079 2.736 0
M  V30 38160 O 2187.38 5.94365 1.8368 0
M  V30 38161 C 2186.19 7.64886 2.9555 0
M  V30 38162 O 2185.8 8.5406 1.90739 0
M  V30 38163 C 2185.31 6.4116 2.90739 0
M  V30 38164 C 2186.02 5.55375 1.86963 0
M  V30 38165 N 2185.97 4.09664 2.15742 0
M  V30 38166 C 2185.82 3.22231 1.08477 0
M  V30 38167 O 2185.73 3.68951 -0.0600489 0
M  V30 38168 N 2185.77 1.76692 1.48799 0
M  V30 38169 C 2185.87 1.41695 2.57602 0
M  V30 38170 N 2185.82 0.107296 2.75791 0
M  V30 38171 C 2186.02 2.29178 3.69733 0
M  V30 38172 C 2186.07 3.62753 3.42653 0
M  V30 38173 H 2188.81 7.45488 4.45578 0
M  V30 38174 H 2189.08 5.86232 3.67314 0
M  V30 38175 H 2188.21 7.84508 2.24507 0
M  V30 38176 H 2185.56 5.73556 0.888715 0
M  V30 38177 H 2185.28 5.9096 3.88638 0
M  V30 38178 H 2184.28 6.66053 2.58894 0
M  V30 38179 H 2186.12 8.16339 3.92049 0
M  V30 38180 H 2186.19 4.33052 4.24913 0
M  V30 38181 H 2186.09 1.9103 4.71577 0
M  V30 38182 H 2185.7 -0.521221 1.95056 0
M  V30 38183 H 2185.9 -0.286429 3.70695 0
M  V30 38184 P 2184.25 8.7635 1.60911 0
M  V30 38185 O 2184.03 10.1388 1.11561 0
M  V30 38186 O 2183.46 8.36503 2.79617 0
M  V30 38187 O 2184 7.71806 0.42951 0
M  V30 38188 C 2184.94 7.66948 -0.673514 0
M  V30 38189 C 2184.21 7.33374 -1.95559 0
M  V30 38190 O 2184 5.88721 -2.00726 0
M  V30 38191 C 2182.81 7.92218 -2.1125 0
M  V30 38192 O 2182.42 8.02971 -3.47653 0
M  V30 38193 C 2181.93 6.89504 -1.41631 0
M  V30 38194 C 2182.64 5.59106 -1.75155 0
M  V30 38195 N 2182.59 4.58136 -0.662409 0
M  V30 38196 C 2182.44 3.26059 -1.02863 0
M  V30 38197 O 2182.35 2.90743 -2.19009 0
M  V30 38198 N 2182.4 2.35995 0.0155585 0
M  V30 38199 C 2182.49 2.65248 1.35603 0
M  V30 38200 O 2182.44 1.75605 2.20651 0
M  V30 38201 C 2182.64 4.05747 1.64698 0
M  V30 38202 C 2182.75 4.42345 3.09553 0
M  V30 38203 C 2182.69 4.96734 0.652411 0
M  V30 38204 H 2185.43 8.64917 -0.776982 0
M  V30 38205 H 2185.7 6.89974 -0.474015 0
M  V30 38206 H 2184.83 7.66548 -2.79458 0
M  V30 38207 H 2182.18 5.16076 -2.65138 0
M  V30 38208 H 2181.9 7.06433 -0.329384 0
M  V30 38209 H 2180.9 6.90829 -1.81996 0
M  V30 38210 H 2182.74 8.90774 -1.62639 0
M  V30 38211 H 2182.81 6.02181 0.895285 0
M  V30 38212 H 2181.78 4.80252 3.45468 0
M  V30 38213 H 2183.52 5.20015 3.22119 0
M  V30 38214 H 2183.03 3.53269 3.67833 0
M  V30 38215 H 2182.29 1.39558 -0.227499 0
M  V30 38216 P 2180.87 8.03563 -3.84925 0
M  V30 38217 O 2180.65 8.85821 -5.0569 0
M  V30 38218 O 2180.08 8.41101 -2.65469 0
M  V30 38219 O 2180.62 6.49734 -4.18962 0
M  V30 38220 C 2181.56 5.81037 -5.05421 0
M  V30 38221 C 2180.83 4.79018 -5.88876 0
M  V30 38222 O 2180.62 3.58359 -5.08515 0
M  V30 38223 C 2179.43 5.17448 -6.36119 0
M  V30 38224 O 2179.04 4.45322 -7.53318 0
M  V30 38225 C 2178.55 4.74639 -5.19936 0
M  V30 38226 C 2179.26 3.49432 -4.70418 0
M  V30 38227 N 2179.21 3.31776 -3.22945 0
M  V30 38228 C 2179.06 2.02742 -2.72939 0
M  V30 38229 O 2178.97 1.08301 -3.52749 0
M  V30 38230 N 2179.01 1.96117 -1.22063 0
M  V30 38231 C 2179.11 2.8878 -0.551566 0
M  V30 38232 N 2179.06 2.65609 0.750198 0
M  V30 38233 C 2179.26 4.22457 -1.03707 0
M  V30 38234 C 2179.31 4.37979 -2.39113 0
M  V30 38235 H 2182.05 6.54138 -5.7131 0
M  V30 38236 H 2182.32 5.30492 -4.44033 0
M  V30 38237 H 2181.45 4.55945 -6.76735 0
M  V30 38238 H 2178.8 2.6176 -5.18021 0
M  V30 38239 H 2178.52 5.52233 -4.41941 0
M  V30 38240 H 2177.52 4.52045 -5.53452 0
M  V30 38241 H 2179.36 6.25124 -6.55234 0
M  V30 38242 H 2179.43 5.37936 -2.80552 0
M  V30 38243 H 2179.33 5.07528 -0.359553 0
M  V30 38244 H 2178.94 1.69403 1.09847 0
M  V30 38245 H 2179.14 3.43701 1.41792 0
M  V30 38246 P 2177.49 4.23843 -7.83734 0
M  V30 38247 O 2177.27 4.19407 -9.29784 0
M  V30 38248 O 2176.7 5.24426 -7.09156 0
M  V30 38249 O 2177.24 2.7935 -7.20758 0
M  V30 38250 C 2178.18 1.72945 -7.50224 0
M  V30 38251 C 2177.45 0.406376 -7.57911 0
M  V30 38252 O 2177.24 -0.0897726 -6.21935 0
M  V30 38253 C 2176.05 0.438983 -8.18724 0
M  V30 38254 O 2175.66 -0.825065 -8.71101 0
M  V30 38255 C 2175.17 0.783689 -6.99524 0
M  V30 38256 C 2175.88 0.0619086 -5.85867 0
M  V30 38257 N 2175.83 0.78573 -4.56183 0
M  V30 38258 C 2175.68 0.0292889 -3.41887 0
M  V30 38259 O 2175.59 -1.18445 -3.4419 0
M  V30 38260 N 2175.64 0.744061 -2.23964 0
M  V30 38261 C 2175.73 2.10932 -2.10362 0
M  V30 38262 C 2175.88 2.8202 -3.34994 0
M  V30 38263 C 2175.93 2.15547 -4.52261 0
M  V30 38264 H 2178.67 1.93379 -8.46595 0
M  V30 38265 H 2178.94 1.68132 -6.70852 0
M  V30 38266 H 2178.07 -0.289041 -8.15388 0
M  V30 38267 H 2175.42 -0.926847 -5.72749 0
M  V30 38268 H 2175.14 1.86973 -6.82036 0
M  V30 38269 H 2174.14 0.403896 -7.13257 0
M  V30 38270 H 2175.98 1.20585 -8.97435 0
M  V30 38271 H 2176.05 2.71231 -5.45042 0
M  V30 38272 P 2174.11 -1.17771 -8.83182 0
M  V30 38273 O 2173.89 -2.07206 -9.98732 0
M  V30 38274 O 2173.32 0.0743816 -8.81969 0
M  V30 38275 O 2173.86 -1.97652 -7.47304 0
M  V30 38276 C 2174.8 -3.01133 -7.08783 0
M  V30 38277 C 2174.07 -4.12613 -6.37049 0
M  V30 38278 O 2173.86 -3.72827 -4.97879 0
M  V30 38279 C 2172.67 -4.45085 -6.88694 0
M  V30 38280 O 2172.28 -5.7877 -6.5624 0
M  V30 38281 C 2171.79 -3.47817 -6.12078 0
M  V30 38282 C 2172.5 -3.39414 -4.77697 0
M  V30 38283 N 2172.45 -2.04615 -4.15333 0
M  V30 38284 H 2175.29 -3.41248 -7.98759 0
M  V30 38285 H 2175.56 -2.5837 -6.41742 0
M  V30 38286 H 2174.69 -5.02657 -6.42673 0
M  V30 38287 P 2170.73 -6.144 -6.45285 0
M  V30 38288 O 2170.51 -7.54673 -6.86199 0
M  V30 38289 O 2169.94 -5.12391 -7.179 0
M  V30 38290 O 2170.48 -5.99158 -4.88404 0
M  V30 38291 C 2171.42 -6.60062 -3.96313 0
M  V30 38292 C 2170.69 -7.08259 -2.72856 0
M  V30 38293 O 2170.48 -5.9427 -1.83651 0
M  V30 38294 C 2169.29 -7.65087 -2.94749 0
M  V30 38295 O 2168.9 -8.53963 -1.90717 0
M  V30 38296 C 2168.41 -6.41069 -2.90698 0
M  V30 38297 C 2169.12 -5.5528 -1.86931 0
M  V30 38298 N 2169.07 -4.09575 -2.15696 0
M  V30 38299 C 2168.92 -3.24249 -1.08435 0
M  V30 38300 O 2168.83 -3.63946 0.0628747 0
M  V30 38301 N 2168.88 -1.90009 -1.39973 0
M  V30 38302 C 2168.97 -1.34884 -2.65614 0
M  V30 38303 C 2169.12 -2.3145 -3.71736 0
M  V30 38304 C 2169.17 -3.63518 -3.44754 0
M  V30 38305 H 2171.91 -7.45402 -4.45526 0
M  V30 38306 H 2172.18 -5.86062 -3.67208 0
M  V30 38307 H 2171.31 -7.84412 -2.24479 0
M  V30 38308 H 2168.66 -5.73358 -0.888409 0
M  V30 38309 H 2168.38 -5.90877 -3.88583 0
M  V30 38310 H 2167.38 -6.65867 -2.58821 0
M  V30 38311 H 2169.22 -8.16248 -3.92006 0
M  V30 38312 H 2169.29 -4.34551 -4.26383 0
M  V30 38313 P 2167.35 -8.7635 -1.60911 0
M  V30 38314 O 2167.13 -10.1388 -1.11561 0
M  V30 38315 O 2166.56 -8.36503 -2.79617 0
M  V30 38316 O 2167.1 -7.71906 -0.429565 0
M  V30 38317 C 2168.04 -7.67148 0.673689 0
M  V30 38318 C 2167.31 -7.33666 1.94851 0
M  V30 38319 O 2167.1 -5.88816 2.00759 0
M  V30 38320 C 2165.91 -7.92526 2.10483 0
M  V30 38321 O 2165.52 -8.03063 3.47693 0
M  V30 38322 C 2165.03 -6.89602 1.41652 0
M  V30 38323 C 2165.74 -5.59201 1.75185 0
M  V30 38324 N 2165.69 -4.58235 0.662552 0
M  V30 38325 C 2165.54 -3.24451 1.01643 0
M  V30 38326 O 2165.45 -2.94958 2.21722 0
M  V30 38327 N 2165.49 -2.30408 -0.165238 0
M  V30 38328 C 2165.59 -2.66048 -1.25118 0
M  V30 38329 N 2165.54 -1.70787 -2.16813 0
M  V30 38330 C 2165.74 -4.02732 -1.64413 0
M  V30 38331 C 2165.79 -4.9488 -0.63991 0
M  V30 38332 H 2168.53 -8.65017 0.777072 0
M  V30 38333 H 2168.8 -6.90173 0.474152 0
M  V30 38334 H 2167.93 -7.66642 2.79492 0
M  V30 38335 H 2165.28 -5.16254 2.65229 0
M  V30 38336 H 2165 -7.06532 0.329431 0
M  V30 38337 H 2164 -6.91023 1.82047 0
M  V30 38338 H 2165.84 -8.90873 1.62657 0
M  V30 38339 H 2165.91 -6.00104 -0.892197 0
M  V30 38340 H 2165.81 -4.31733 -2.69229 0
M  V30 38341 H 2165.42 -0.724835 -1.8844 0
M  V30 38342 H 2165.62 -1.94716 -3.16734 0
M  V30 38343 P 2163.97 -8.03563 3.84925 0
M  V30 38344 O 2163.75 -8.85821 5.0569 0
M  V30 38345 O 2163.18 -8.41101 2.65469 0
M  V30 38346 O 2163.72 -6.4965 4.18908 0
M  V30 38347 C 2164.66 -5.81037 5.05421 0
M  V30 38348 C 2163.93 -4.78366 5.89277 0
M  V30 38349 O 2163.72 -3.58302 5.08433 0
M  V30 38350 C 2162.53 -5.17448 6.36119 0
M  V30 38351 O 2162.14 -4.45271 7.53232 0
M  V30 38352 C 2161.65 -4.74639 5.19936 0
M  V30 38353 C 2162.36 -3.49432 4.70418 0
M  V30 38354 N 2162.31 -3.31776 3.22945 0
M  V30 38355 H 2165.15 -6.54213 5.71376 0
M  V30 38356 H 2165.42 -5.30492 4.44033 0
M  V30 38357 H 2164.55 -4.55889 6.76652 0
M  V30 38358 P 2160.59 -4.23843 7.83734 0
M  V30 38359 O 2160.37 -4.19407 9.29784 0
M  V30 38360 O 2159.8 -5.24426 7.09156 0
M  V30 38361 O 2160.34 -2.7935 7.20758 0
M  V30 38362 C 2161.28 -1.7299 7.50419 0
M  V30 38363 C 2160.55 -0.406376 7.57911 0
M  V30 38364 O 2160.34 0.0897726 6.21935 0
M  V30 38365 C 2159.15 -0.447224 8.1878 0
M  V30 38366 O 2158.76 0.825065 8.71101 0
M  V30 38367 C 2158.27 -0.783801 6.99623 0
M  V30 38368 C 2158.98 -0.0619192 5.85967 0
M  V30 38369 N 2158.93 -0.790462 4.56202 0
M  V30 38370 C 2159.01 -2.13895 4.34171 0
M  V30 38371 N 2158.94 -2.46449 3.08687 0
M  V30 38372 C 2158.79 -1.2525 2.43697 0
M  V30 38373 C 2158.66 -0.914535 1.07318 0
M  V30 38374 N 2158.65 -1.80782 0.0887348 0
M  V30 38375 N 2158.54 0.386745 0.768133 0
M  V30 38376 C 2158.55 1.28096 1.75159 0
M  V30 38377 N 2158.67 1.09708 3.04861 0
M  V30 38378 C 2158.79 -0.214857 3.32306 0
M  V30 38379 H 2161.77 -1.93423 8.4679 0
M  V30 38380 H 2162.04 -1.68852 6.70877 0
M  V30 38381 H 2161.17 0.289041 8.15388 0
M  V30 38382 H 2158.52 0.927006 5.72848 0
M  V30 38383 H 2158.24 -1.86973 6.82036 0
M  V30 38384 H 2157.24 -0.403953 7.13357 0
M  V30 38385 H 2159.08 -1.20599 8.97534 0
M  V30 38386 H 2159.12 -2.86846 5.14318 0
M  V30 38387 H 2158.74 -2.81082 0.302037 0
M  V30 38388 H 2158.55 -1.49688 -0.889064 0
M  V30 38389 H 2158.44 2.31317 1.43855 0
M  V30 38390 P 2157.21 1.17771 8.83182 0
M  V30 38391 O 2156.99 2.07206 9.98732 0
M  V30 38392 O 2156.42 -0.0743816 8.81969 0
M  V30 38393 O 2156.96 1.97652 7.47304 0
M  V30 38394 C 2157.9 3.01133 7.08783 0
M  V30 38395 C 2157.17 4.12613 6.37049 0
M  V30 38396 O 2156.96 3.72827 4.97879 0
M  V30 38397 C 2155.77 4.45085 6.88694 0
M  V30 38398 O 2155.38 5.7877 6.5624 0
M  V30 38399 C 2154.89 3.47817 6.12078 0
M  V30 38400 C 2155.6 3.39414 4.77697 0
M  V30 38401 N 2155.55 2.04199 4.15538 0
M  V30 38402 H 2158.39 3.41248 7.98759 0
M  V30 38403 H 2158.66 2.57728 6.42 0
M  V30 38404 H 2157.79 5.02657 6.42673 0
M  V30 38405 H 2155.14 4.11708 4.08956 0
M  V30 38406 H 2154.86 2.49626 6.61679 0
M  V30 38407 H 2153.86 3.8662 6.00862 0
M  V30 38408 H 2155.7 4.29991 7.97006 0
M  V30 38409 P 2153.83 6.144 6.45285 0
M  V30 38410 O 2153.61 7.54673 6.86199 0
M  V30 38411 O 2153.04 5.12391 7.179 0
M  V30 38412 O 2153.58 5.99158 4.88404 0
M  V30 38413 C 2154.52 6.60234 3.96415 0
M  V30 38414 C 2153.79 7.08259 2.72856 0
M  V30 38415 O 2153.58 5.9427 1.83651 0
M  V30 38416 C 2152.39 7.64886 2.9555 0
M  V30 38417 O 2152 8.53963 1.90717 0
M  V30 38418 C 2151.51 6.4116 2.90739 0
M  V30 38419 C 2152.22 5.55375 1.86963 0
M  V30 38420 N 2152.17 4.09664 2.15742 0
M  V30 38421 H 2155.01 7.45574 4.45629 0
M  V30 38422 H 2155.28 5.86232 3.67314 0
M  V30 38423 H 2154.41 7.84412 2.24479 0
M  V30 38424 P 2150.45 8.7635 1.60911 0
M  V30 38425 O 2150.23 10.1388 1.11561 0
M  V30 38426 O 2149.66 8.36503 2.79617 0
M  V30 38427 O 2150.2 7.71806 0.42951 0
M  V30 38428 C 2151.14 7.67148 -0.673689 0
M  V30 38429 C 2150.41 7.33374 -1.95559 0
M  V30 38430 O 2150.2 5.88721 -2.00726 0
M  V30 38431 C 2149.01 7.92526 -2.10483 0
M  V30 38432 O 2148.62 8.02971 -3.47653 0
M  V30 38433 C 2148.13 6.89602 -1.41652 0
M  V30 38434 C 2148.84 5.59201 -1.75185 0
M  V30 38435 N 2148.79 4.58235 -0.662552 0
M  V30 38436 H 2151.63 8.65116 -0.777161 0
M  V30 38437 H 2151.9 6.90173 -0.474152 0
M  V30 38438 H 2151.03 7.66548 -2.79458 0
M  V30 38439 P 2147.07 8.03563 -3.84925 0
M  V30 38440 O 2146.85 8.85821 -5.0569 0
M  V30 38441 O 2146.28 8.41101 -2.65469 0
M  V30 38442 O 2146.82 6.4965 -4.18908 0
M  V30 38443 C 2147.76 5.81037 -5.05421 0
M  V30 38444 C 2147.03 4.78366 -5.89277 0
M  V30 38445 O 2146.82 3.58302 -5.08433 0
M  V30 38446 C 2145.63 5.17448 -6.36119 0
M  V30 38447 O 2145.24 4.45271 -7.53232 0
M  V30 38448 C 2144.75 4.74639 -5.19936 0
M  V30 38449 C 2145.46 3.49432 -4.70418 0
M  V30 38450 N 2145.41 3.31776 -3.22945 0
M  V30 38451 H 2148.25 6.54213 -5.71376 0
M  V30 38452 H 2148.52 5.30492 -4.44033 0
M  V30 38453 H 2147.65 4.55889 -6.76652 0
M  V30 38454 P 2143.69 4.23843 -7.83734 0
M  V30 38455 O 2143.47 4.19407 -9.29784 0
M  V30 38456 O 2142.9 5.24426 -7.09156 0
M  V30 38457 O 2143.44 2.7935 -7.20758 0
M  V30 38458 C 2144.38 1.7299 -7.50419 0
M  V30 38459 C 2143.65 0.406376 -7.57911 0
M  V30 38460 O 2143.44 -0.0897726 -6.21935 0
M  V30 38461 C 2142.25 0.447224 -8.1878 0
M  V30 38462 O 2141.86 -0.825065 -8.71101 0
M  V30 38463 C 2141.37 0.783801 -6.99623 0
M  V30 38464 C 2142.08 0.0619192 -5.85967 0
M  V30 38465 N 2142.03 0.7859 -4.56281 0
M  V30 38466 H 2144.87 1.93423 -8.4679 0
M  V30 38467 H 2145.14 1.68181 -6.71046 0
M  V30 38468 H 2144.27 -0.289041 -8.15388 0
M  V30 38469 P 2140.31 -1.17771 -8.83182 0
M  V30 38470 O 2140.09 -2.07206 -9.98732 0
M  V30 38471 O 2139.52 0.0743816 -8.81969 0
M  V30 38472 O 2140.06 -1.97678 -7.474 0
M  V30 38473 C 2141 -3.01133 -7.08783 0
M  V30 38474 C 2140.27 -4.1203 -6.37546 0
M  V30 38475 O 2140.06 -3.72887 -4.9796 0
M  V30 38476 C 2138.87 -4.45085 -6.88694 0
M  V30 38477 O 2138.48 -5.78836 -6.56315 0
M  V30 38478 C 2137.99 -3.47817 -6.12078 0
M  V30 38479 C 2138.7 -3.39414 -4.77697 0
M  V30 38480 N 2138.65 -2.04615 -4.15333 0
M  V30 38481 C 2138.5 -1.96929 -2.77162 0
M  V30 38482 O 2138.41 -3.02017 -2.12006 0
M  V30 38483 N 2138.45 -0.55485 -2.24237 0
M  V30 38484 C 2138.55 0.367808 -2.9169 0
M  V30 38485 N 2138.5 1.53426 -2.29427 0
M  V30 38486 C 2138.7 0.319148 -4.33828 0
M  V30 38487 C 2138.75 -0.920672 -4.90433 0
M  V30 38488 H 2141.49 -3.41209 -7.98667 0
M  V30 38489 H 2141.76 -2.5837 -6.41742 0
M  V30 38490 H 2140.89 -5.02718 -6.42752 0
M  V30 38491 H 2138.24 -4.11779 -4.09026 0
M  V30 38492 H 2137.96 -2.49661 -6.61772 0
M  V30 38493 H 2136.96 -3.86674 -6.00946 0
M  V30 38494 H 2138.8 -4.29991 -7.97006 0
M  V30 38495 H 2138.87 -1.00589 -5.98303 0
M  V30 38496 H 2138.77 1.22639 -4.93799 0
M  V30 38497 H 2138.38 1.56819 -1.27167 0
M  V30 38498 H 2138.58 2.41062 -2.83063 0
M  V30 38499 P 2136.93 -6.144 -6.45285 0
M  V30 38500 O 2136.71 -7.54673 -6.86199 0
M  V30 38501 O 2136.14 -5.12391 -7.179 0
M  V30 38502 O 2136.68 -5.99158 -4.88404 0
M  V30 38503 C 2137.62 -6.60234 -3.96415 0
M  V30 38504 C 2136.89 -7.08259 -2.72856 0
M  V30 38505 O 2136.68 -5.9427 -1.83651 0
M  V30 38506 C 2135.49 -7.64886 -2.9555 0
M  V30 38507 O 2135.1 -8.53963 -1.90717 0
M  V30 38508 C 2134.61 -6.4116 -2.90739 0
M  V30 38509 C 2135.32 -5.55375 -1.86963 0
M  V30 38510 N 2135.27 -4.09448 -2.16152 0
M  V30 38511 H 2138.11 -7.45574 -4.45629 0
M  V30 38512 H 2138.38 -5.85864 -3.679 0
M  V30 38513 H 2137.51 -7.84412 -2.24479 0
M  V30 38514 H 2134.86 -5.73457 -0.888562 0
M  V30 38515 H 2134.58 -5.90877 -3.88583 0
M  V30 38516 H 2133.58 -6.6596 -2.58858 0
M  V30 38517 H 2135.42 -8.16339 -3.92049 0
M  V30 38518 P 2133.55 -8.7635 -1.60911 0
M  V30 38519 O 2133.33 -10.1388 -1.11561 0
M  V30 38520 O 2132.76 -8.36503 -2.79617 0
M  V30 38521 O 2133.3 -7.71806 -0.42951 0
M  V30 38522 C 2134.24 -7.67148 0.673689 0
M  V30 38523 C 2133.51 -7.33374 1.95559 0
M  V30 38524 O 2133.3 -5.88721 2.00726 0
M  V30 38525 C 2132.11 -7.92526 2.10483 0
M  V30 38526 O 2131.72 -8.02971 3.47653 0
M  V30 38527 C 2131.23 -6.89602 1.41652 0
M  V30 38528 C 2131.94 -5.59201 1.75185 0
M  V30 38529 N 2131.89 -4.58235 0.662552 0
M  V30 38530 H 2134.73 -8.65116 0.777161 0
M  V30 38531 H 2135 -6.90173 0.474152 0
M  V30 38532 H 2134.13 -7.66548 2.79458 0
M  V30 38533 P 2130.17 -8.03563 3.84925 0
M  V30 38534 O 2129.95 -8.85821 5.0569 0
M  V30 38535 O 2129.38 -8.41101 2.65469 0
M  V30 38536 O 2129.92 -6.4965 4.18908 0
M  V30 38537 C 2130.86 -5.81037 5.05421 0
M  V30 38538 C 2130.13 -4.78366 5.89277 0
M  V30 38539 O 2129.92 -3.58302 5.08433 0
M  V30 38540 C 2128.73 -5.17448 6.36119 0
M  V30 38541 O 2128.34 -4.45271 7.53232 0
M  V30 38542 C 2127.85 -4.74639 5.19936 0
M  V30 38543 C 2128.56 -3.49432 4.70418 0
M  V30 38544 N 2128.51 -3.32099 3.22613 0
M  V30 38545 H 2131.35 -6.54213 5.71376 0
M  V30 38546 H 2131.62 -5.30936 4.43503 0
M  V30 38547 H 2130.75 -4.55889 6.76652 0
M  V30 38548 H 2128.1 -2.61715 5.17932 0
M  V30 38549 H 2127.82 -5.52155 4.41878 0
M  V30 38550 H 2126.82 -4.51981 5.53374 0
M  V30 38551 H 2128.66 -6.25124 6.55234 0
M  V30 38552 P 2126.79 -4.23843 7.83734 0
M  V30 38553 O 2126.57 -4.19407 9.29784 0
M  V30 38554 O 2126 -5.24426 7.09156 0
M  V30 38555 O 2126.54 -2.7935 7.20758 0
M  V30 38556 C 2127.48 -1.72945 7.50224 0
M  V30 38557 C 2126.75 -0.406376 7.57911 0
M  V30 38558 O 2126.54 0.0897726 6.21935 0
M  V30 38559 C 2125.35 -0.438983 8.18724 0
M  V30 38560 O 2124.96 0.825065 8.71101 0
M  V30 38561 C 2124.47 -0.783689 6.99524 0
M  V30 38562 C 2125.18 -0.0619086 5.85867 0
M  V30 38563 N 2125.13 -0.78573 4.56183 0
M  V30 38564 C 2124.98 -0.0292889 3.41887 0
M  V30 38565 O 2124.89 1.18445 3.4419 0
M  V30 38566 N 2124.94 -0.744061 2.23964 0
M  V30 38567 C 2125.03 -2.10932 2.10362 0
M  V30 38568 O 2124.98 -2.64117 0.98825 0
M  V30 38569 C 2125.18 -2.8202 3.34994 0
M  V30 38570 C 2125.29 -4.31095 3.25037 0
M  V30 38571 C 2125.23 -2.15547 4.52261 0
M  V30 38572 H 2127.97 -1.93379 8.46595 0
M  V30 38573 H 2128.24 -1.68132 6.70852 0
M  V30 38574 H 2127.37 0.289041 8.15388 0
M  V30 38575 H 2124.72 0.926847 5.72749 0
M  V30 38576 H 2124.44 -1.86973 6.82036 0
M  V30 38577 H 2123.44 -0.403896 7.13257 0
M  V30 38578 H 2125.28 -1.20585 8.97435 0
M  V30 38579 H 2125.35 -2.71231 5.45042 0
M  V30 38580 H 2124.32 -4.76966 3.49992 0
M  V30 38581 H 2126.06 -4.67047 3.95024 0
M  V30 38582 H 2125.57 -4.58996 2.22312 0
M  V30 38583 H 2124.83 -0.214893 1.39758 0
M  V30 38584 P 2123.41 1.17771 8.83182 0
M  V30 38585 O 2123.19 2.07206 9.98732 0
M  V30 38586 O 2122.62 -0.0743816 8.81969 0
M  V30 38587 O 2123.16 1.97652 7.47304 0
M  V30 38588 C 2124.1 3.01133 7.08783 0
M  V30 38589 C 2123.37 4.12613 6.37049 0
M  V30 38590 O 2123.16 3.72827 4.97879 0
M  V30 38591 C 2121.97 4.45085 6.88694 0
M  V30 38592 O 2121.58 5.7877 6.5624 0
M  V30 38593 C 2121.09 3.47817 6.12078 0
M  V30 38594 C 2121.8 3.39414 4.77697 0
M  V30 38595 N 2121.75 2.04615 4.15333 0
M  V30 38596 H 2124.59 3.41248 7.98759 0
M  V30 38597 H 2124.86 2.5837 6.41742 0
M  V30 38598 H 2123.99 5.02657 6.42673 0
M  V30 38599 P 2120.03 6.144 6.45285 0
M  V30 38600 O 2119.81 7.54673 6.86199 0
M  V30 38601 O 2119.24 5.12391 7.179 0
M  V30 38602 O 2119.78 5.99158 4.88404 0
M  V30 38603 C 2120.72 6.60062 3.96313 0
M  V30 38604 C 2119.99 7.08259 2.72856 0
M  V30 38605 O 2119.78 5.9427 1.83651 0
M  V30 38606 C 2118.59 7.65087 2.94749 0
M  V30 38607 O 2118.2 8.53963 1.90717 0
M  V30 38608 C 2117.71 6.41069 2.90698 0
M  V30 38609 C 2118.42 5.5528 1.86931 0
M  V30 38610 N 2118.37 4.09575 2.15696 0
M  V30 38611 C 2118.22 3.24249 1.08435 0
M  V30 38612 O 2118.13 3.63946 -0.0628747 0
M  V30 38613 N 2118.18 1.90009 1.39973 0
M  V30 38614 C 2118.27 1.34884 2.65614 0
M  V30 38615 C 2118.42 2.3145 3.71736 0
M  V30 38616 C 2118.47 3.63518 3.44754 0
M  V30 38617 H 2121.21 7.45402 4.45526 0
M  V30 38618 H 2121.48 5.86062 3.67208 0
M  V30 38619 H 2120.61 7.84412 2.24479 0
M  V30 38620 H 2117.96 5.73358 0.888409 0
M  V30 38621 H 2117.68 5.90877 3.88583 0
M  V30 38622 H 2116.68 6.65867 2.58821 0
M  V30 38623 H 2118.52 8.16248 3.92006 0
M  V30 38624 H 2118.59 4.34551 4.26383 0
M  V30 38625 P 2116.65 8.7635 1.60911 0
M  V30 38626 O 2116.43 10.1388 1.11561 0
M  V30 38627 O 2115.86 8.36503 2.79617 0
M  V30 38628 O 2116.4 7.71806 0.42951 0
M  V30 38629 C 2117.34 7.67148 -0.673689 0
M  V30 38630 C 2116.61 7.33374 -1.95559 0
M  V30 38631 O 2116.4 5.88721 -2.00726 0
M  V30 38632 C 2115.21 7.92526 -2.10483 0
M  V30 38633 O 2114.82 8.02971 -3.47653 0
M  V30 38634 C 2114.33 6.89602 -1.41652 0
M  V30 38635 C 2115.04 5.59201 -1.75185 0
M  V30 38636 N 2114.99 4.58235 -0.662552 0
M  V30 38637 H 2117.83 8.65116 -0.777161 0
M  V30 38638 H 2118.1 6.90173 -0.474152 0
M  V30 38639 H 2117.23 7.66548 -2.79458 0
M  V30 38640 P 2113.27 8.03563 -3.84925 0
M  V30 38641 O 2113.05 8.85821 -5.0569 0
M  V30 38642 O 2112.48 8.41101 -2.65469 0
M  V30 38643 O 2113.02 6.4965 -4.18908 0
M  V30 38644 C 2113.96 5.81037 -5.05421 0
M  V30 38645 C 2113.23 4.78366 -5.89277 0
M  V30 38646 O 2113.02 3.58302 -5.08433 0
M  V30 38647 C 2111.83 5.17448 -6.36119 0
M  V30 38648 O 2111.44 4.45271 -7.53232 0
M  V30 38649 C 2110.95 4.74639 -5.19936 0
M  V30 38650 C 2111.66 3.49432 -4.70418 0
M  V30 38651 N 2111.61 3.31776 -3.22945 0
M  V30 38652 H 2114.45 6.54213 -5.71376 0
M  V30 38653 H 2114.72 5.30492 -4.44033 0
M  V30 38654 H 2113.85 4.55889 -6.76652 0
M  V30 38655 P 2109.89 4.23843 -7.83734 0
M  V30 38656 O 2109.67 4.19407 -9.29784 0
M  V30 38657 O 2109.1 5.24426 -7.09156 0
M  V30 38658 O 2109.64 2.7935 -7.20758 0
M  V30 38659 C 2110.58 1.7299 -7.50419 0
M  V30 38660 C 2109.85 0.406376 -7.57911 0
M  V30 38661 O 2109.64 -0.0897726 -6.21935 0
M  V30 38662 C 2108.45 0.447224 -8.1878 0
M  V30 38663 O 2108.06 -0.825065 -8.71101 0
M  V30 38664 C 2107.57 0.783801 -6.99623 0
M  V30 38665 C 2108.28 0.0619192 -5.85967 0
M  V30 38666 N 2108.23 0.7859 -4.56281 0
M  V30 38667 C 2108.31 2.14308 -4.31736 0
M  V30 38668 N 2108.23 2.46106 -3.05116 0
M  V30 38669 C 2108.09 1.23422 -2.4014 0
M  V30 38670 C 2107.96 0.938381 -1.02409 0
M  V30 38671 O 2107.94 1.70876 -0.0650402 0
M  V30 38672 N 2107.84 -0.444647 -0.805413 0
M  V30 38673 C 2107.84 -1.40829 -1.79435 0
M  V30 38674 N 2107.71 -2.67213 -1.38558 0
M  V30 38675 N 2107.97 -1.12947 -3.09005 0
M  V30 38676 C 2108.09 0.204887 -3.32369 0
M  V30 38677 H 2111.07 1.93423 -8.4679 0
M  V30 38678 H 2111.34 1.68181 -6.71046 0
M  V30 38679 H 2110.47 -0.289041 -8.15388 0
M  V30 38680 H 2107.82 -0.927166 -5.72947 0
M  V30 38681 H 2107.54 1.87 -6.82132 0
M  V30 38682 H 2106.54 0.404009 -7.13457 0
M  V30 38683 H 2108.38 1.20612 -8.97633 0
M  V30 38684 H 2108.43 2.88284 -5.10874 0
M  V30 38685 H 2107.75 -0.755087 0.140242 0
M  V30 38686 H 2107.71 -3.43967 -2.0729 0
M  V30 38687 H 2107.61 -2.88096 -0.380644 0
M  V30 38688 P 2106.51 -1.17771 -8.83182 0
M  V30 38689 O 2106.29 -2.07206 -9.98732 0
M  V30 38690 O 2105.72 0.0743816 -8.81969 0
M  V30 38691 O 2106.26 -1.97652 -7.47304 0
M  V30 38692 C 2107.2 -3.01133 -7.08783 0
M  V30 38693 C 2106.47 -4.12613 -6.37049 0
M  V30 38694 O 2106.26 -3.72827 -4.97879 0
M  V30 38695 C 2105.07 -4.45085 -6.88694 0
M  V30 38696 O 2104.68 -5.7877 -6.5624 0
M  V30 38697 C 2104.19 -3.47817 -6.12078 0
M  V30 38698 C 2104.9 -3.39414 -4.77697 0
M  V30 38699 N 2104.85 -2.04199 -4.15538 0
M  V30 38700 C 2104.93 -0.821545 -4.76977 0
M  V30 38701 N 2104.86 0.1794 -3.94592 0
M  V30 38702 C 2104.71 -0.419121 -2.70776 0
M  V30 38703 C 2104.58 0.109072 -1.40577 0
M  V30 38704 N 2104.57 1.4104 -1.1344 0
M  V30 38705 N 2104.46 -0.764381 -0.39411 0
M  V30 38706 C 2104.47 -2.06587 -0.664135 0
M  V30 38707 N 2104.59 -2.67948 -1.82153 0
M  V30 38708 C 2104.71 -1.77942 -2.8147 0
M  V30 38709 H 2107.69 -3.41248 -7.98759 0
M  V30 38710 H 2107.96 -2.57728 -6.42 0
M  V30 38711 H 2107.09 -5.02657 -6.42673 0
M  V30 38712 H 2104.44 -4.11708 -4.08956 0
M  V30 38713 H 2104.16 -2.49626 -6.61679 0
M  V30 38714 H 2103.16 -3.8662 -6.00862 0
M  V30 38715 H 2105 -4.29991 -7.97006 0
M  V30 38716 H 2105.04 -0.702451 -5.84696 0
M  V30 38717 H 2104.66 2.09647 -1.89651 0
M  V30 38718 H 2104.47 1.73358 -0.160575 0
M  V30 38719 H 2104.36 -2.71695 0.195838 0
M  V30 38720 P 2103.13 -6.144 -6.45285 0
M  V30 38721 O 2102.91 -7.54673 -6.86199 0
M  V30 38722 O 2102.34 -5.12391 -7.179 0
M  V30 38723 O 2102.88 -5.99158 -4.88404 0
M  V30 38724 C 2103.82 -6.60234 -3.96415 0
M  V30 38725 C 2103.09 -7.08259 -2.72856 0
M  V30 38726 O 2102.88 -5.9427 -1.83651 0
M  V30 38727 C 2101.69 -7.64886 -2.9555 0
M  V30 38728 O 2101.3 -8.53963 -1.90717 0
M  V30 38729 C 2100.81 -6.4116 -2.90739 0
M  V30 38730 C 2101.52 -5.55375 -1.86963 0
M  V30 38731 N 2101.47 -4.09664 -2.15742 0
M  V30 38732 H 2104.31 -7.45574 -4.45629 0
M  V30 38733 H 2104.58 -5.86232 -3.67314 0
M  V30 38734 H 2103.71 -7.84412 -2.24479 0
M  V30 38735 P 2099.75 -8.7635 -1.60911 0
M  V30 38736 O 2099.53 -10.1388 -1.11561 0
M  V30 38737 O 2098.96 -8.36503 -2.79617 0
M  V30 38738 O 2099.5 -7.71806 -0.42951 0
M  V30 38739 C 2100.44 -7.67148 0.673689 0
M  V30 38740 C 2099.71 -7.33374 1.95559 0
M  V30 38741 O 2099.5 -5.88721 2.00726 0
M  V30 38742 C 2098.31 -7.92526 2.10483 0
M  V30 38743 O 2097.92 -8.02971 3.47653 0
M  V30 38744 C 2097.43 -6.89602 1.41652 0
M  V30 38745 C 2098.14 -5.59201 1.75185 0
M  V30 38746 N 2098.09 -4.58235 0.662552 0
M  V30 38747 H 2100.93 -8.65116 0.777161 0
M  V30 38748 H 2101.2 -6.90173 0.474152 0
M  V30 38749 H 2100.33 -7.66548 2.79458 0
M  V30 38750 P 2096.37 -8.03563 3.84925 0
M  V30 38751 O 2096.15 -8.85821 5.0569 0
M  V30 38752 O 2095.58 -8.41101 2.65469 0
M  V30 38753 O 2096.12 -6.4965 4.18908 0
M  V30 38754 C 2097.06 -5.80886 5.05289 0
M  V30 38755 C 2096.33 -4.78366 5.89277 0
M  V30 38756 O 2096.12 -3.58302 5.08433 0
M  V30 38757 C 2094.93 -5.16748 6.36559 0
M  V30 38758 O 2094.54 -4.45271 7.53232 0
M  V30 38759 C 2094.05 -4.74572 5.19863 0
M  V30 38760 C 2094.76 -3.49373 4.70338 0
M  V30 38761 N 2094.71 -3.31704 3.22876 0
M  V30 38762 C 2094.56 -2.03326 2.74871 0
M  V30 38763 O 2094.47 -1.06486 3.48076 0
M  V30 38764 N 2094.52 -1.91838 1.37456 0
M  V30 38765 C 2094.61 -2.94295 0.462035 0
M  V30 38766 C 2094.76 -4.25064 1.05249 0
M  V30 38767 C 2094.81 -4.40214 2.39192 0
M  V30 38768 H 2097.55 -6.54063 5.71245 0
M  V30 38769 H 2097.82 -5.30339 4.43905 0
M  V30 38770 H 2096.95 -4.55889 6.76652 0
M  V30 38771 H 2094.3 -2.6167 5.17842 0
M  V30 38772 H 2094.02 -5.52155 4.41878 0
M  V30 38773 H 2093.02 -4.51918 5.53297 0
M  V30 38774 H 2094.86 -6.25055 6.55162 0
M  V30 38775 H 2094.93 -5.39798 2.81523 0
M  V30 38776 P 2092.99 -4.23843 7.83734 0
M  V30 38777 O 2092.77 -4.19407 9.29784 0
M  V30 38778 O 2092.2 -5.24426 7.09156 0
M  V30 38779 O 2092.74 -2.7935 7.20758 0
M  V30 38780 C 2093.68 -1.7299 7.50419 0
M  V30 38781 C 2092.95 -0.406376 7.57911 0
M  V30 38782 O 2092.74 0.0897726 6.21935 0
M  V30 38783 C 2091.55 -0.447224 8.1878 0
M  V30 38784 O 2091.16 0.825065 8.71101 0
M  V30 38785 C 2090.67 -0.783801 6.99623 0
M  V30 38786 C 2091.38 -0.0619192 5.85967 0
M  V30 38787 N 2091.33 -0.7859 4.56281 0
M  V30 38788 H 2094.17 -1.93423 8.4679 0
M  V30 38789 H 2094.44 -1.68181 6.71046 0
M  V30 38790 H 2093.57 0.289041 8.15388 0
M  V30 38791 P 2089.61 1.17771 8.83182 0
M  V30 38792 O 2089.39 2.07206 9.98732 0
M  V30 38793 O 2088.82 -0.0743816 8.81969 0
M  V30 38794 O 2089.36 1.97652 7.47304 0
M  V30 38795 C 2090.3 3.01133 7.08783 0
M  V30 38796 C 2089.57 4.12613 6.37049 0
M  V30 38797 O 2089.36 3.72827 4.97879 0
M  V30 38798 C 2088.17 4.45085 6.88694 0
M  V30 38799 O 2087.78 5.7877 6.5624 0
M  V30 38800 C 2087.29 3.47817 6.12078 0
M  V30 38801 C 2088 3.39414 4.77697 0
M  V30 38802 N 2087.95 2.04615 4.15333 0
M  V30 38803 H 2090.79 3.41248 7.98759 0
M  V30 38804 H 2091.06 2.5837 6.41742 0
M  V30 38805 H 2090.19 5.02657 6.42673 0
M  V30 38806 P 2086.23 6.144 6.45285 0
M  V30 38807 O 2086.01 7.54673 6.86199 0
M  V30 38808 O 2085.44 5.12391 7.179 0
M  V30 38809 O 2085.98 5.99158 4.88404 0
M  V30 38810 C 2086.92 6.60234 3.96415 0
M  V30 38811 C 2086.19 7.08259 2.72856 0
M  V30 38812 O 2085.98 5.9427 1.83651 0
M  V30 38813 C 2084.79 7.64886 2.9555 0
M  V30 38814 O 2084.4 8.53963 1.90717 0
M  V30 38815 C 2083.91 6.4116 2.90739 0
M  V30 38816 C 2084.62 5.55375 1.86963 0
M  V30 38817 N 2084.57 4.09664 2.15742 0
M  V30 38818 H 2087.41 7.45574 4.45629 0
M  V30 38819 H 2087.68 5.86232 3.67314 0
M  V30 38820 H 2086.81 7.84412 2.24479 0
M  V30 38821 P 2082.85 8.7635 1.60911 0
M  V30 38822 O 2082.63 10.1388 1.11561 0
M  V30 38823 O 2082.06 8.36503 2.79617 0
M  V30 38824 O 2082.6 7.71906 0.429565 0
M  V30 38825 C 2083.54 7.67148 -0.673689 0
M  V30 38826 C 2082.81 7.33666 -1.94851 0
M  V30 38827 O 2082.6 5.88816 -2.00759 0
M  V30 38828 C 2081.41 7.92526 -2.10483 0
M  V30 38829 O 2081.02 8.03063 -3.47693 0
M  V30 38830 C 2080.53 6.89602 -1.41652 0
M  V30 38831 C 2081.24 5.59201 -1.75185 0
M  V30 38832 N 2081.19 4.58235 -0.662552 0
M  V30 38833 C 2081.04 3.24451 -1.01643 0
M  V30 38834 O 2080.95 2.94958 -2.21722 0
M  V30 38835 N 2080.99 2.30408 0.165238 0
M  V30 38836 C 2081.09 2.66048 1.25118 0
M  V30 38837 N 2081.04 1.70787 2.16813 0
M  V30 38838 C 2081.24 4.02732 1.64413 0
M  V30 38839 C 2081.29 4.9488 0.63991 0
M  V30 38840 H 2084.03 8.65017 -0.777072 0
M  V30 38841 H 2084.3 6.90173 -0.474152 0
M  V30 38842 H 2083.43 7.66642 -2.79492 0
M  V30 38843 H 2080.78 5.16254 -2.65229 0
M  V30 38844 H 2080.5 7.06532 -0.329431 0
M  V30 38845 H 2079.5 6.91023 -1.82047 0
M  V30 38846 H 2081.34 8.90873 -1.62657 0
M  V30 38847 H 2081.41 6.00104 0.892197 0
M  V30 38848 H 2081.31 4.31733 2.69229 0
M  V30 38849 H 2080.92 0.724835 1.8844 0
M  V30 38850 H 2081.12 1.94716 3.16734 0
M  V30 38851 P 2079.47 8.03563 -3.84925 0
M  V30 38852 O 2079.25 8.85821 -5.0569 0
M  V30 38853 O 2078.68 8.41101 -2.65469 0
M  V30 38854 O 2079.22 6.4965 -4.18908 0
M  V30 38855 C 2080.16 5.81037 -5.05421 0
M  V30 38856 C 2079.43 4.78366 -5.89277 0
M  V30 38857 O 2079.22 3.58302 -5.08433 0
M  V30 38858 C 2078.03 5.17448 -6.36119 0
M  V30 38859 O 2077.64 4.45271 -7.53232 0
M  V30 38860 C 2077.15 4.74639 -5.19936 0
M  V30 38861 C 2077.86 3.49432 -4.70418 0
M  V30 38862 N 2077.81 3.32099 -3.22613 0
M  V30 38863 H 2080.65 6.54213 -5.71376 0
M  V30 38864 H 2080.92 5.30936 -4.43503 0
M  V30 38865 H 2080.05 4.55889 -6.76652 0
M  V30 38866 H 2077.4 2.61715 -5.17932 0
M  V30 38867 H 2077.12 5.52155 -4.41878 0
M  V30 38868 H 2076.12 4.51981 -5.53374 0
M  V30 38869 H 2077.96 6.25124 -6.55234 0
M  V30 38870 P 2076.09 4.23843 -7.83734 0
M  V30 38871 O 2075.87 4.19407 -9.29784 0
M  V30 38872 O 2075.3 5.24426 -7.09156 0
M  V30 38873 O 2075.84 2.7935 -7.20758 0
M  V30 38874 C 2076.78 1.7299 -7.50419 0
M  V30 38875 C 2076.05 0.406376 -7.57911 0
M  V30 38876 O 2075.84 -0.0897726 -6.21935 0
M  V30 38877 C 2074.65 0.447224 -8.1878 0
M  V30 38878 O 2074.26 -0.825065 -8.71101 0
M  V30 38879 C 2073.77 0.783801 -6.99623 0
M  V30 38880 C 2074.48 0.0619192 -5.85967 0
M  V30 38881 N 2074.43 0.7859 -4.56281 0
M  V30 38882 C 2074.51 2.14308 -4.31736 0
M  V30 38883 N 2074.43 2.46106 -3.05116 0
M  V30 38884 C 2074.29 1.23422 -2.4014 0
M  V30 38885 C 2074.16 0.938381 -1.02409 0
M  V30 38886 N 2074.04 -0.444647 -0.805413 0
M  V30 38887 C 2074.04 -1.40829 -1.79435 0
M  V30 38888 N 2073.91 -2.67213 -1.38558 0
M  V30 38889 N 2074.17 -1.12947 -3.09005 0
M  V30 38890 C 2074.29 0.204887 -3.32369 0
M  V30 38891 H 2077.27 1.93423 -8.4679 0
M  V30 38892 H 2077.54 1.68181 -6.71046 0
M  V30 38893 H 2076.67 -0.289041 -8.15388 0
M  V30 38894 P 2072.71 -1.17771 -8.83182 0
M  V30 38895 O 2072.49 -2.07206 -9.98732 0
M  V30 38896 O 2071.92 0.0743816 -8.81969 0
M  V30 38897 O 2072.46 -1.97652 -7.47304 0
M  V30 38898 C 2073.4 -3.01133 -7.08783 0
M  V30 38899 C 2072.67 -4.12613 -6.37049 0
M  V30 38900 O 2072.46 -3.72827 -4.97879 0
M  V30 38901 C 2071.27 -4.45085 -6.88694 0
M  V30 38902 O 2070.88 -5.7877 -6.5624 0
M  V30 38903 C 2070.39 -3.47817 -6.12078 0
M  V30 38904 C 2071.1 -3.39414 -4.77697 0
M  V30 38905 N 2071.05 -2.04615 -4.15333 0
M  V30 38906 H 2073.89 -3.41248 -7.98759 0
M  V30 38907 H 2074.16 -2.5837 -6.41742 0
M  V30 38908 H 2073.29 -5.02657 -6.42673 0
M  V30 38909 P 2069.33 -6.144 -6.45285 0
M  V30 38910 O 2069.11 -7.54673 -6.86199 0
M  V30 38911 O 2068.54 -5.12391 -7.179 0
M  V30 38912 O 2069.08 -5.99158 -4.88404 0
M  V30 38913 C 2070.02 -6.60234 -3.96415 0
M  V30 38914 C 2069.29 -7.08259 -2.72856 0
M  V30 38915 O 2069.08 -5.9427 -1.83651 0
M  V30 38916 C 2067.89 -7.64886 -2.9555 0
M  V30 38917 O 2067.5 -8.53963 -1.90717 0
M  V30 38918 C 2067.01 -6.4116 -2.90739 0
M  V30 38919 C 2067.72 -5.55375 -1.86963 0
M  V30 38920 N 2067.67 -4.09448 -2.16152 0
M  V30 38921 C 2067.75 -3.46824 -3.37593 0
M  V30 38922 N 2067.68 -2.17422 -3.29777 0
M  V30 38923 C 2067.53 -1.93065 -1.94427 0
M  V30 38924 C 2067.4 -0.738053 -1.20141 0
M  V30 38925 N 2067.39 0.474256 -1.74676 0
M  V30 38926 N 2067.28 -0.850049 0.13045 0
M  V30 38927 C 2067.29 -2.06169 0.676992 0
M  V30 38928 N 2067.41 -3.23842 0.101312 0
M  V30 38929 C 2067.53 -3.09402 -1.23122 0
M  V30 38930 H 2070.51 -7.45574 -4.45629 0
M  V30 38931 H 2070.78 -5.85864 -3.679 0
M  V30 38932 H 2069.91 -7.84412 -2.24479 0
M  V30 38933 H 2067.26 -5.73457 -0.888562 0
M  V30 38934 H 2066.98 -5.90877 -3.88583 0
M  V30 38935 H 2065.98 -6.6596 -2.58858 0
M  V30 38936 H 2067.82 -8.16339 -3.92049 0
M  V30 38937 H 2067.86 -4.00505 -4.3174 0
M  V30 38938 H 2067.48 0.581337 -2.76658 0
M  V30 38939 H 2067.29 1.30811 -1.14888 0
M  V30 38940 H 2067.18 -2.08295 1.75542 0
M  V30 38941 P 2065.95 -8.7635 -1.60911 0
M  V30 38942 O 2065.73 -10.1388 -1.11561 0
M  V30 38943 O 2065.16 -8.36503 -2.79617 0
M  V30 38944 O 2065.7 -7.71806 -0.42951 0
M  V30 38945 C 2066.64 -7.66948 0.673514 0
M  V30 38946 C 2065.91 -7.33374 1.95559 0
M  V30 38947 O 2065.7 -5.88721 2.00726 0
M  V30 38948 C 2064.51 -7.92218 2.1125 0
M  V30 38949 O 2064.12 -8.02971 3.47653 0
M  V30 38950 C 2063.63 -6.89504 1.41631 0
M  V30 38951 C 2064.34 -5.59106 1.75155 0
M  V30 38952 N 2064.29 -4.58136 0.662409 0
M  V30 38953 C 2064.14 -3.26059 1.02863 0
M  V30 38954 O 2064.05 -2.90743 2.19009 0
M  V30 38955 N 2064.1 -2.35995 -0.0155585 0
M  V30 38956 C 2064.19 -2.65248 -1.35603 0
M  V30 38957 C 2064.34 -4.05747 -1.64698 0
M  V30 38958 C 2064.39 -4.96734 -0.652411 0
M  V30 38959 H 2067.13 -8.64917 0.776982 0
M  V30 38960 H 2067.4 -6.89974 0.474015 0
M  V30 38961 H 2066.53 -7.66548 2.79458 0
M  V30 38962 H 2063.88 -5.16076 2.65138 0
M  V30 38963 H 2063.6 -7.06433 0.329384 0
M  V30 38964 H 2062.6 -6.90829 1.81996 0
M  V30 38965 H 2064.44 -8.90774 1.62639 0
M  V30 38966 H 2064.51 -6.02181 -0.895285 0
M  V30 38967 P 2062.57 -8.03563 3.84925 0
M  V30 38968 O 2062.35 -8.85821 5.0569 0
M  V30 38969 O 2061.78 -8.41101 2.65469 0
M  V30 38970 O 2062.32 -6.4965 4.18908 0
M  V30 38971 C 2063.26 -5.81037 5.05421 0
M  V30 38972 C 2062.53 -4.78366 5.89277 0
M  V30 38973 O 2062.32 -3.58302 5.08433 0
M  V30 38974 C 2061.13 -5.17448 6.36119 0
M  V30 38975 O 2060.74 -4.45271 7.53232 0
M  V30 38976 C 2060.25 -4.74639 5.19936 0
M  V30 38977 C 2060.96 -3.49432 4.70418 0
M  V30 38978 N 2060.91 -3.32099 3.22613 0
M  V30 38979 C 2060.99 -4.28245 2.25527 0
M  V30 38980 N 2060.92 -3.80823 1.04874 0
M  V30 38981 C 2060.77 -2.44571 1.23535 0
M  V30 38982 C 2060.64 -1.37068 0.330675 0
M  V30 38983 N 2060.63 -1.51472 -0.990824 0
M  V30 38984 N 2060.52 -0.138614 0.848756 0
M  V30 38985 C 2060.53 0.00675923 2.16999 0
M  V30 38986 N 2060.65 -0.904372 3.11122 0
M  V30 38987 C 2060.77 -2.12707 2.56212 0
M  V30 38988 H 2063.75 -6.54213 5.71376 0
M  V30 38989 H 2064.02 -5.30936 4.43503 0
M  V30 38990 H 2063.15 -4.55889 6.76652 0
M  V30 38991 H 2060.5 -2.61715 5.17932 0
M  V30 38992 H 2060.22 -5.52155 4.41878 0
M  V30 38993 H 2059.22 -4.51981 5.53374 0
M  V30 38994 H 2061.06 -6.25124 6.55234 0
M  V30 38995 H 2061.1 -5.34372 2.47488 0
M  V30 38996 H 2060.72 -2.45153 -1.4078 0
M  V30 38997 H 2060.53 -0.688422 -1.59911 0
M  V30 38998 H 2060.42 1.02584 2.52346 0
M  V30 38999 P 2059.19 -4.23843 7.83734 0
M  V30 39000 O 2058.97 -4.19407 9.29784 0
M  V30 39001 O 2058.4 -5.24426 7.09156 0
M  V30 39002 O 2058.94 -2.7935 7.20758 0
M  V30 39003 C 2059.88 -1.7299 7.50419 0
M  V30 39004 C 2059.15 -0.406376 7.57911 0
M  V30 39005 O 2058.94 0.0897726 6.21935 0
M  V30 39006 C 2057.75 -0.447224 8.1878 0
M  V30 39007 O 2057.36 0.825065 8.71101 0
M  V30 39008 C 2056.87 -0.783801 6.99623 0
M  V30 39009 C 2057.58 -0.0619192 5.85967 0
M  V30 39010 N 2057.53 -0.7859 4.56281 0
M  V30 39011 H 2060.37 -1.93423 8.4679 0
M  V30 39012 H 2060.64 -1.68181 6.71046 0
M  V30 39013 H 2059.77 0.289041 8.15388 0
M  V30 39014 P 2055.81 1.17771 8.83182 0
M  V30 39015 O 2055.59 2.07206 9.98732 0
M  V30 39016 O 2055.02 -0.0743816 8.81969 0
M  V30 39017 O 2055.56 1.97652 7.47304 0
M  V30 39018 C 2056.5 3.01133 7.08783 0
M  V30 39019 C 2055.77 4.12613 6.37049 0
M  V30 39020 O 2055.56 3.72827 4.97879 0
M  V30 39021 C 2054.37 4.45085 6.88694 0
M  V30 39022 O 2053.98 5.7877 6.5624 0
M  V30 39023 C 2053.49 3.47817 6.12078 0
M  V30 39024 C 2054.2 3.39414 4.77697 0
M  V30 39025 N 2054.15 2.04615 4.15333 0
M  V30 39026 H 2056.99 3.41248 7.98759 0
M  V30 39027 H 2057.26 2.5837 6.41742 0
M  V30 39028 H 2056.39 5.02657 6.42673 0
M  V30 39029 P 2052.43 6.144 6.45285 0
M  V30 39030 O 2052.21 7.54673 6.86199 0
M  V30 39031 O 2051.64 5.12391 7.179 0
M  V30 39032 O 2052.18 5.99158 4.88404 0
M  V30 39033 C 2053.12 6.60234 3.96415 0
M  V30 39034 C 2052.39 7.08259 2.72856 0
M  V30 39035 O 2052.18 5.9427 1.83651 0
M  V30 39036 C 2050.99 7.64886 2.9555 0
M  V30 39037 O 2050.6 8.53963 1.90717 0
M  V30 39038 C 2050.11 6.4116 2.90739 0
M  V30 39039 C 2050.82 5.55375 1.86963 0
M  V30 39040 N 2050.77 4.09664 2.15742 0
M  V30 39041 H 2053.61 7.45574 4.45629 0
M  V30 39042 H 2053.88 5.86232 3.67314 0
M  V30 39043 H 2053.01 7.84412 2.24479 0
M  V30 39044 P 2049.05 8.7635 1.60911 0
M  V30 39045 O 2048.83 10.1388 1.11561 0
M  V30 39046 O 2048.26 8.36503 2.79617 0
M  V30 39047 O 2048.8 7.71906 0.429565 0
M  V30 39048 C 2049.74 7.67148 -0.673689 0
M  V30 39049 C 2049.01 7.33666 -1.94851 0
M  V30 39050 O 2048.8 5.88816 -2.00759 0
M  V30 39051 C 2047.61 7.92526 -2.10483 0
M  V30 39052 O 2047.22 8.03063 -3.47693 0
M  V30 39053 C 2046.73 6.89602 -1.41652 0
M  V30 39054 C 2047.44 5.59201 -1.75185 0
M  V30 39055 N 2047.39 4.58235 -0.662552 0
M  V30 39056 C 2047.24 3.24451 -1.01643 0
M  V30 39057 O 2047.15 2.94958 -2.21722 0
M  V30 39058 N 2047.19 2.30408 0.165238 0
M  V30 39059 C 2047.29 2.66048 1.25118 0
M  V30 39060 N 2047.24 1.70787 2.16813 0
M  V30 39061 C 2047.44 4.02732 1.64413 0
M  V30 39062 C 2047.49 4.9488 0.63991 0
M  V30 39063 H 2050.23 8.65017 -0.777072 0
M  V30 39064 H 2050.5 6.90173 -0.474152 0
M  V30 39065 H 2049.63 7.66642 -2.79492 0
M  V30 39066 H 2046.98 5.16254 -2.65229 0
M  V30 39067 H 2046.7 7.06532 -0.329431 0
M  V30 39068 H 2045.7 6.91023 -1.82047 0
M  V30 39069 H 2047.54 8.90873 -1.62657 0
M  V30 39070 H 2047.61 6.00104 0.892197 0
M  V30 39071 H 2047.51 4.31733 2.69229 0
M  V30 39072 H 2047.12 0.724835 1.8844 0
M  V30 39073 H 2047.32 1.94716 3.16734 0
M  V30 39074 P 2045.67 8.03563 -3.84925 0
M  V30 39075 O 2045.45 8.85821 -5.0569 0
M  V30 39076 O 2044.88 8.41101 -2.65469 0
M  V30 39077 O 2045.42 6.4965 -4.18908 0
M  V30 39078 C 2046.36 5.80886 -5.05289 0
M  V30 39079 C 2045.63 4.78366 -5.89277 0
M  V30 39080 O 2045.42 3.58302 -5.08433 0
M  V30 39081 C 2044.23 5.16748 -6.36559 0
M  V30 39082 O 2043.84 4.45271 -7.53232 0
M  V30 39083 C 2043.35 4.74572 -5.19863 0
M  V30 39084 C 2044.06 3.49373 -4.70338 0
M  V30 39085 N 2044.01 3.31704 -3.22876 0
M  V30 39086 C 2043.86 2.03326 -2.74871 0
M  V30 39087 O 2043.77 1.06486 -3.48076 0
M  V30 39088 N 2043.82 1.91838 -1.37456 0
M  V30 39089 C 2043.91 2.94295 -0.462035 0
M  V30 39090 O 2043.86 2.71763 0.752928 0
M  V30 39091 C 2044.06 4.25064 -1.05249 0
M  V30 39092 C 2044.17 5.39815 -0.095697 0
M  V30 39093 C 2044.11 4.40214 -2.39192 0
M  V30 39094 H 2046.85 6.54063 -5.71245 0
M  V30 39095 H 2047.12 5.30339 -4.43905 0
M  V30 39096 H 2046.25 4.55889 -6.76652 0
M  V30 39097 H 2043.6 2.6167 -5.17842 0
M  V30 39098 H 2043.32 5.52155 -4.41878 0
M  V30 39099 H 2042.32 4.51918 -5.53297 0
M  V30 39100 H 2044.16 6.25055 -6.55162 0
M  V30 39101 H 2044.23 5.39798 -2.81523 0
M  V30 39102 H 2043.2 5.91593 -0.0279582 0
M  V30 39103 H 2044.94 6.10038 -0.450573 0
M  V30 39104 H 2044.45 5.02007 0.89937 0
M  V30 39105 H 2043.71 0.995326 -1.00435 0
M  V30 39106 P 2042.29 4.23843 -7.83734 0
M  V30 39107 O 2042.07 4.19407 -9.29784 0
M  V30 39108 O 2041.5 5.24426 -7.09156 0
M  V30 39109 O 2042.04 2.7935 -7.20758 0
M  V30 39110 C 2042.98 1.7299 -7.50419 0
M  V30 39111 C 2042.25 0.406376 -7.57911 0
M  V30 39112 O 2042.04 -0.0897726 -6.21935 0
M  V30 39113 C 2040.85 0.447224 -8.1878 0
M  V30 39114 O 2040.46 -0.825065 -8.71101 0
M  V30 39115 C 2039.97 0.783801 -6.99623 0
M  V30 39116 C 2040.68 0.0619192 -5.85967 0
M  V30 39117 N 2040.63 0.7859 -4.56281 0
M  V30 39118 H 2043.47 1.93423 -8.4679 0
M  V30 39119 H 2043.74 1.68181 -6.71046 0
M  V30 39120 H 2042.87 -0.289041 -8.15388 0
M  V30 39121 P 2038.91 -1.17771 -8.83182 0
M  V30 39122 O 2038.69 -2.07206 -9.98732 0
M  V30 39123 O 2038.12 0.0743816 -8.81969 0
M  V30 39124 O 2038.66 -1.97652 -7.47304 0
M  V30 39125 C 2039.6 -3.01055 -7.08599 0
M  V30 39126 C 2038.87 -4.12613 -6.37049 0
M  V30 39127 O 2038.66 -3.72827 -4.97879 0
M  V30 39128 C 2037.47 -4.45719 -6.88164 0
M  V30 39129 O 2037.08 -5.7877 -6.5624 0
M  V30 39130 C 2036.59 -3.47768 -6.11991 0
M  V30 39131 C 2037.3 -3.39356 -4.77615 0
M  V30 39132 N 2037.25 -2.04571 -4.15244 0
M  V30 39133 C 2037.1 -1.98587 -2.78314 0
M  V30 39134 O 2037.01 -2.98134 -2.08835 0
M  V30 39135 N 2037.06 -0.714467 -2.24925 0
M  V30 39136 C 2037.15 0.470001 -2.94169 0
M  V30 39137 C 2037.3 0.312541 -4.36783 0
M  V30 39138 C 2037.35 -0.914512 -4.92583 0
M  V30 39139 H 2040.09 -3.41169 -7.98575 0
M  V30 39140 H 2040.36 -2.58295 -6.41556 0
M  V30 39141 H 2039.49 -5.02657 -6.42673 0
M  V30 39142 H 2036.84 -4.11637 -4.08885 0
M  V30 39143 H 2036.56 -2.49626 -6.61679 0
M  V30 39144 H 2035.56 -3.86566 -6.00778 0
M  V30 39145 H 2037.4 -4.29943 -7.96918 0
M  V30 39146 H 2037.47 -1.00937 -6.00374 0
M  V30 39147 P 2035.53 -6.144 -6.45285 0
M  V30 39148 O 2035.31 -7.54673 -6.86199 0
M  V30 39149 O 2034.74 -5.12391 -7.179 0
M  V30 39150 O 2035.28 -5.99158 -4.88404 0
M  V30 39151 C 2036.22 -6.60062 -3.96313 0
M  V30 39152 C 2035.49 -7.08259 -2.72856 0
M  V30 39153 O 2035.28 -5.9427 -1.83651 0
M  V30 39154 C 2034.09 -7.65087 -2.94749 0
M  V30 39155 O 2033.7 -8.53963 -1.90717 0
M  V30 39156 C 2033.21 -6.41069 -2.90698 0
M  V30 39157 C 2033.92 -5.5528 -1.86931 0
M  V30 39158 N 2033.87 -4.09575 -2.15696 0
M  V30 39159 C 2033.72 -3.24249 -1.08435 0
M  V30 39160 O 2033.63 -3.63946 0.0628747 0
M  V30 39161 N 2033.68 -1.90009 -1.39973 0
M  V30 39162 C 2033.77 -1.34884 -2.65614 0
M  V30 39163 O 2033.72 -0.123716 -2.81728 0
M  V30 39164 C 2033.92 -2.3145 -3.71736 0
M  V30 39165 C 2034.03 -1.75913 -5.10438 0
M  V30 39166 C 2033.97 -3.63518 -3.44754 0
M  V30 39167 H 2036.71 -7.45402 -4.45526 0
M  V30 39168 H 2036.98 -5.86062 -3.67208 0
M  V30 39169 H 2036.11 -7.84412 -2.24479 0
M  V30 39170 H 2033.46 -5.73358 -0.888409 0
M  V30 39171 H 2033.18 -5.90877 -3.88583 0
M  V30 39172 H 2032.18 -6.65867 -2.58821 0
M  V30 39173 H 2034.02 -8.16248 -3.92006 0
M  V30 39174 H 2034.09 -4.34551 -4.26383 0
M  V30 39175 H 2033.06 -1.85471 -5.61775 0
M  V30 39176 H 2034.8 -2.31364 -5.66257 0
M  V30 39177 H 2034.31 -0.695936 -5.05229 0
M  V30 39178 H 2033.57 -1.26277 -0.63625 0
M  V30 39179 P 2032.15 -8.7635 -1.60911 0
M  V30 39180 O 2031.93 -10.1388 -1.11561 0
M  V30 39181 O 2031.36 -8.36503 -2.79617 0
M  V30 39182 O 2031.9 -7.71806 -0.42951 0
M  V30 39183 C 2032.84 -7.67148 0.673689 0
M  V30 39184 C 2032.11 -7.33374 1.95559 0
M  V30 39185 O 2031.9 -5.88721 2.00726 0
M  V30 39186 C 2030.71 -7.92526 2.10483 0
M  V30 39187 O 2030.32 -8.02971 3.47653 0
M  V30 39188 C 2029.83 -6.89602 1.41652 0
M  V30 39189 C 2030.54 -5.59201 1.75185 0
M  V30 39190 N 2030.49 -4.58235 0.662552 0
M  V30 39191 H 2033.33 -8.65116 0.777161 0
M  V30 39192 H 2033.6 -6.90173 0.474152 0
M  V30 39193 H 2032.73 -7.66548 2.79458 0
M  V30 39194 P 2028.77 -8.03563 3.84925 0
M  V30 39195 O 2028.55 -8.85821 5.0569 0
M  V30 39196 O 2027.98 -8.41101 2.65469 0
M  V30 39197 O 2028.52 -6.4965 4.18908 0
M  V30 39198 C 2029.46 -5.80886 5.05289 0
M  V30 39199 C 2028.73 -4.78366 5.89277 0
M  V30 39200 O 2028.52 -3.58302 5.08433 0
M  V30 39201 C 2027.33 -5.16748 6.36559 0
M  V30 39202 O 2026.94 -4.45271 7.53232 0
M  V30 39203 C 2026.45 -4.74572 5.19863 0
M  V30 39204 C 2027.16 -3.49373 4.70338 0
M  V30 39205 N 2027.11 -3.31704 3.22876 0
M  V30 39206 C 2026.96 -2.03326 2.74871 0
M  V30 39207 O 2026.87 -1.06486 3.48076 0
M  V30 39208 N 2026.92 -1.91838 1.37456 0
M  V30 39209 C 2027.01 -2.94295 0.462035 0
M  V30 39210 O 2026.96 -2.71763 -0.752928 0
M  V30 39211 C 2027.16 -4.25064 1.05249 0
M  V30 39212 C 2027.27 -5.39815 0.095697 0
M  V30 39213 C 2027.21 -4.40214 2.39192 0
M  V30 39214 H 2029.95 -6.54063 5.71245 0
M  V30 39215 H 2030.22 -5.30339 4.43905 0
M  V30 39216 H 2029.35 -4.55889 6.76652 0
M  V30 39217 H 2026.7 -2.6167 5.17842 0
M  V30 39218 H 2026.42 -5.52155 4.41878 0
M  V30 39219 H 2025.43 -4.51918 5.53297 0
M  V30 39220 H 2027.26 -6.25055 6.55162 0
M  V30 39221 H 2027.33 -5.39798 2.81523 0
M  V30 39222 H 2026.3 -5.91593 0.0279582 0
M  V30 39223 H 2028.04 -6.10038 0.450573 0
M  V30 39224 H 2027.55 -5.02007 -0.89937 0
M  V30 39225 H 2026.81 -0.995326 1.00435 0
M  V30 39226 P 2025.39 -4.23843 7.83734 0
M  V30 39227 O 2025.17 -4.19407 9.29784 0
M  V30 39228 O 2024.6 -5.24426 7.09156 0
M  V30 39229 O 2025.14 -2.7935 7.20758 0
M  V30 39230 C 2026.08 -1.7299 7.50419 0
M  V30 39231 C 2025.35 -0.406376 7.57911 0
M  V30 39232 O 2025.14 0.0897726 6.21935 0
M  V30 39233 C 2023.95 -0.447224 8.1878 0
M  V30 39234 O 2023.56 0.825065 8.71101 0
M  V30 39235 C 2023.07 -0.783801 6.99623 0
M  V30 39236 C 2023.78 -0.0619192 5.85967 0
M  V30 39237 N 2023.73 -0.790462 4.56202 0
M  V30 39238 H 2026.57 -1.93423 8.4679 0
M  V30 39239 H 2026.84 -1.68852 6.70877 0
M  V30 39240 H 2025.97 0.289041 8.15388 0
M  V30 39241 H 2023.32 0.927006 5.72848 0
M  V30 39242 H 2023.04 -1.86973 6.82036 0
M  V30 39243 H 2022.05 -0.403953 7.13357 0
M  V30 39244 H 2023.88 -1.20599 8.97534 0
M  V30 39245 P 2022.01 1.17771 8.83182 0
M  V30 39246 O 2021.79 2.07206 9.98732 0
M  V30 39247 O 2021.22 -0.0743816 8.81969 0
M  V30 39248 O 2021.76 1.97652 7.47304 0
M  V30 39249 C 2022.7 3.01133 7.08783 0
M  V30 39250 C 2021.97 4.12613 6.37049 0
M  V30 39251 O 2021.76 3.72827 4.97879 0
M  V30 39252 C 2020.57 4.45085 6.88694 0
M  V30 39253 O 2020.18 5.7877 6.5624 0
M  V30 39254 C 2019.69 3.47817 6.12078 0
M  V30 39255 C 2020.4 3.39414 4.77697 0
M  V30 39256 N 2020.35 2.04615 4.15333 0
M  V30 39257 H 2023.19 3.41248 7.98759 0
M  V30 39258 H 2023.46 2.5837 6.41742 0
M  V30 39259 H 2022.59 5.02657 6.42673 0
M  V30 39260 P 2018.63 6.144 6.45285 0
M  V30 39261 O 2018.41 7.54673 6.86199 0
M  V30 39262 O 2017.84 5.12391 7.179 0
M  V30 39263 O 2018.38 5.99158 4.88404 0
M  V30 39264 C 2019.32 6.60234 3.96415 0
M  V30 39265 C 2018.59 7.08259 2.72856 0
M  V30 39266 O 2018.38 5.9427 1.83651 0
M  V30 39267 C 2017.19 7.64886 2.9555 0
M  V30 39268 O 2016.8 8.53963 1.90717 0
M  V30 39269 C 2016.31 6.4116 2.90739 0
M  V30 39270 C 2017.02 5.55375 1.86963 0
M  V30 39271 N 2016.97 4.09664 2.15742 0
M  V30 39272 H 2019.81 7.45574 4.45629 0
M  V30 39273 H 2020.08 5.86232 3.67314 0
M  V30 39274 H 2019.21 7.84412 2.24479 0
M  V30 39275 P 2015.25 8.7635 1.60911 0
M  V30 39276 O 2015.03 10.1388 1.11561 0
M  V30 39277 O 2014.46 8.36503 2.79617 0
M  V30 39278 O 2015 7.71806 0.42951 0
M  V30 39279 C 2015.94 7.67148 -0.673689 0
M  V30 39280 C 2015.21 7.33374 -1.95559 0
M  V30 39281 O 2015 5.88721 -2.00726 0
M  V30 39282 C 2013.81 7.92526 -2.10483 0
M  V30 39283 O 2013.42 8.02971 -3.47653 0
M  V30 39284 C 2012.93 6.89602 -1.41652 0
M  V30 39285 C 2013.64 5.59201 -1.75185 0
M  V30 39286 N 2013.59 4.58235 -0.662552 0
M  V30 39287 H 2016.43 8.65116 -0.777161 0
M  V30 39288 H 2016.7 6.90173 -0.474152 0
M  V30 39289 H 2015.83 7.66548 -2.79458 0
M  V30 39290 P 2011.87 8.03563 -3.84925 0
M  V30 39291 O 2011.65 8.85821 -5.0569 0
M  V30 39292 O 2011.08 8.41101 -2.65469 0
M  V30 39293 O 2011.62 6.4965 -4.18908 0
M  V30 39294 C 2012.56 5.81037 -5.05421 0
M  V30 39295 C 2011.83 4.78366 -5.89277 0
M  V30 39296 O 2011.62 3.58302 -5.08433 0
M  V30 39297 C 2010.43 5.17448 -6.36119 0
M  V30 39298 O 2010.04 4.45271 -7.53232 0
M  V30 39299 C 2009.55 4.74639 -5.19936 0
M  V30 39300 C 2010.26 3.49432 -4.70418 0
M  V30 39301 N 2010.21 3.31776 -3.22945 0
M  V30 39302 H 2013.05 6.54213 -5.71376 0
M  V30 39303 H 2013.32 5.30492 -4.44033 0
M  V30 39304 H 2012.45 4.55889 -6.76652 0
M  V30 39305 P 2008.49 4.23843 -7.83734 0
M  V30 39306 O 2008.27 4.19407 -9.29784 0
M  V30 39307 O 2007.7 5.24426 -7.09156 0
M  V30 39308 O 2008.24 2.7935 -7.20758 0
M  V30 39309 C 2009.18 1.7299 -7.50419 0
M  V30 39310 C 2008.45 0.406376 -7.57911 0
M  V30 39311 O 2008.24 -0.0897726 -6.21935 0
M  V30 39312 C 2007.05 0.447224 -8.1878 0
M  V30 39313 O 2006.66 -0.825065 -8.71101 0
M  V30 39314 C 2006.17 0.783801 -6.99623 0
M  V30 39315 C 2006.88 0.0619192 -5.85967 0
M  V30 39316 N 2006.83 0.7859 -4.56281 0
M  V30 39317 H 2009.67 1.93423 -8.4679 0
M  V30 39318 H 2009.94 1.68181 -6.71046 0
M  V30 39319 H 2009.07 -0.289041 -8.15388 0
M  V30 39320 P 2005.11 -1.17771 -8.83182 0
M  V30 39321 O 2004.89 -2.07206 -9.98732 0
M  V30 39322 O 2004.32 0.0743816 -8.81969 0
M  V30 39323 O 2004.86 -1.97652 -7.47304 0
M  V30 39324 C 2005.8 -3.01133 -7.08783 0
M  V30 39325 C 2005.07 -4.12613 -6.37049 0
M  V30 39326 O 2004.86 -3.72827 -4.97879 0
M  V30 39327 C 2003.67 -4.45085 -6.88694 0
M  V30 39328 O 2003.28 -5.7877 -6.5624 0
M  V30 39329 C 2002.79 -3.47817 -6.12078 0
M  V30 39330 C 2003.5 -3.39414 -4.77697 0
M  V30 39331 N 2003.45 -2.04615 -4.15333 0
M  V30 39332 H 2006.29 -3.41248 -7.98759 0
M  V30 39333 H 2006.56 -2.5837 -6.41742 0
M  V30 39334 H 2005.69 -5.02657 -6.42673 0
M  V30 39335 P 2001.73 -6.144 -6.45285 0
M  V30 39336 O 2001.51 -7.54673 -6.86199 0
M  V30 39337 O 2000.94 -5.12391 -7.179 0
M  V30 39338 O 2001.48 -5.99158 -4.88404 0
M  V30 39339 C 2002.42 -6.60234 -3.96415 0
M  V30 39340 C 2001.69 -7.08259 -2.72856 0
M  V30 39341 O 2001.48 -5.9427 -1.83651 0
M  V30 39342 C 2000.29 -7.64886 -2.9555 0
M  V30 39343 O 1999.9 -8.53963 -1.90717 0
M  V30 39344 C 1999.41 -6.4116 -2.90739 0
M  V30 39345 C 2000.12 -5.55375 -1.86963 0
M  V30 39346 N 2000.07 -4.09664 -2.15742 0
M  V30 39347 H 2002.91 -7.45574 -4.45629 0
M  V30 39348 H 2003.18 -5.86232 -3.67314 0
M  V30 39349 H 2002.31 -7.84412 -2.24479 0
M  V30 39350 P 1998.35 -8.7635 -1.60911 0
M  V30 39351 O 1998.13 -10.1388 -1.11561 0
M  V30 39352 O 1997.56 -8.36503 -2.79617 0
M  V30 39353 O 1998.1 -7.71806 -0.42951 0
M  V30 39354 C 1999.04 -7.67148 0.673689 0
M  V30 39355 C 1998.31 -7.33374 1.95559 0
M  V30 39356 O 1998.1 -5.88721 2.00726 0
M  V30 39357 C 1996.91 -7.92526 2.10483 0
M  V30 39358 O 1996.52 -8.02971 3.47653 0
M  V30 39359 C 1996.03 -6.89602 1.41652 0
M  V30 39360 C 1996.74 -5.59201 1.75185 0
M  V30 39361 N 1996.69 -4.58301 0.657969 0
M  V30 39362 H 1999.53 -8.65116 0.777161 0
M  V30 39363 H 1999.8 -6.9022 0.46725 0
M  V30 39364 H 1998.93 -7.66548 2.79458 0
M  V30 39365 H 1996.28 -5.16165 2.65183 0
M  V30 39366 H 1996 -7.06433 0.329384 0
M  V30 39367 H 1995.01 -6.90926 1.82021 0
M  V30 39368 H 1996.84 -8.90873 1.62657 0
M  V30 39369 P 1994.97 -8.03563 3.84925 0
M  V30 39370 O 1994.75 -8.85821 5.0569 0
M  V30 39371 O 1994.18 -8.41101 2.65469 0
M  V30 39372 O 1994.72 -6.4965 4.18908 0
M  V30 39373 C 1995.66 -5.81037 5.05421 0
M  V30 39374 C 1994.93 -4.78366 5.89277 0
M  V30 39375 O 1994.72 -3.58302 5.08433 0
M  V30 39376 C 1993.53 -5.17448 6.36119 0
M  V30 39377 O 1993.14 -4.45271 7.53232 0
M  V30 39378 C 1992.65 -4.74639 5.19936 0
M  V30 39379 C 1993.36 -3.49432 4.70418 0
M  V30 39380 N 1993.31 -3.31776 3.22945 0
M  V30 39381 H 1996.15 -6.54213 5.71376 0
M  V30 39382 H 1996.42 -5.30492 4.44033 0
M  V30 39383 H 1995.55 -4.55889 6.76652 0
M  V30 39384 P 1991.59 -4.23843 7.83734 0
M  V30 39385 O 1991.37 -4.19407 9.29784 0
M  V30 39386 O 1990.8 -5.24426 7.09156 0
M  V30 39387 O 1991.34 -2.7935 7.20758 0
M  V30 39388 C 1992.28 -1.7299 7.50419 0
M  V30 39389 C 1991.55 -0.406376 7.57911 0
M  V30 39390 O 1991.34 0.0897726 6.21935 0
M  V30 39391 C 1990.15 -0.447224 8.1878 0
M  V30 39392 O 1989.76 0.825065 8.71101 0
M  V30 39393 C 1989.27 -0.783801 6.99623 0
M  V30 39394 C 1989.98 -0.0619192 5.85967 0
M  V30 39395 N 1989.93 -0.7859 4.56281 0
M  V30 39396 H 1992.77 -1.93423 8.4679 0
M  V30 39397 H 1993.04 -1.68181 6.71046 0
M  V30 39398 H 1992.17 0.289041 8.15388 0
M  V30 39399 P 1988.21 1.17771 8.83182 0
M  V30 39400 O 1987.99 2.07206 9.98732 0
M  V30 39401 O 1987.42 -0.0743816 8.81969 0
M  V30 39402 O 1987.96 1.97652 7.47304 0
M  V30 39403 C 1988.9 3.01133 7.08783 0
M  V30 39404 C 1988.17 4.12613 6.37049 0
M  V30 39405 O 1987.96 3.72827 4.97879 0
M  V30 39406 C 1986.77 4.45085 6.88694 0
M  V30 39407 O 1986.38 5.7877 6.5624 0
M  V30 39408 C 1985.89 3.47817 6.12078 0
M  V30 39409 C 1986.6 3.39414 4.77697 0
M  V30 39410 N 1986.55 2.04615 4.15333 0
M  V30 39411 H 1989.39 3.41248 7.98759 0
M  V30 39412 H 1989.66 2.5837 6.41742 0
M  V30 39413 H 1988.79 5.02657 6.42673 0
M  V30 39414 P 1984.83 6.144 6.45285 0
M  V30 39415 O 1984.61 7.54673 6.86199 0
M  V30 39416 O 1984.04 5.12391 7.179 0
M  V30 39417 O 1984.58 5.99158 4.88404 0
M  V30 39418 C 1985.52 6.60234 3.96415 0
M  V30 39419 C 1984.79 7.08259 2.72856 0
M  V30 39420 O 1984.58 5.9427 1.83651 0
M  V30 39421 C 1983.39 7.64886 2.9555 0
M  V30 39422 O 1983 8.53963 1.90717 0
M  V30 39423 C 1982.51 6.4116 2.90739 0
M  V30 39424 C 1983.22 5.55375 1.86963 0
M  V30 39425 N 1983.17 4.09664 2.15742 0
M  V30 39426 H 1986.01 7.45574 4.45629 0
M  V30 39427 H 1986.28 5.86232 3.67314 0
M  V30 39428 H 1985.41 7.84412 2.24479 0
M  V30 39429 P 1981.45 8.7635 1.60911 0
M  V30 39430 O 1981.23 10.1388 1.11561 0
M  V30 39431 O 1980.66 8.36503 2.79617 0
M  V30 39432 O 1981.2 7.71906 0.429565 0
M  V30 39433 C 1982.14 7.67148 -0.673689 0
M  V30 39434 C 1981.41 7.33666 -1.94851 0
M  V30 39435 O 1981.2 5.88816 -2.00759 0
M  V30 39436 C 1980.01 7.92526 -2.10483 0
M  V30 39437 O 1979.62 8.03063 -3.47693 0
M  V30 39438 C 1979.13 6.89602 -1.41652 0
M  V30 39439 C 1979.84 5.59201 -1.75185 0
M  V30 39440 N 1979.79 4.58235 -0.662552 0
M  V30 39441 C 1979.64 3.24451 -1.01643 0
M  V30 39442 O 1979.55 2.94958 -2.21722 0
M  V30 39443 N 1979.59 2.30408 0.165238 0
M  V30 39444 C 1979.69 2.66048 1.25118 0
M  V30 39445 N 1979.64 1.70787 2.16813 0
M  V30 39446 C 1979.84 4.02732 1.64413 0
M  V30 39447 C 1979.89 4.9488 0.63991 0
M  V30 39448 H 1982.63 8.65017 -0.777072 0
M  V30 39449 H 1982.9 6.90173 -0.474152 0
M  V30 39450 H 1982.03 7.66642 -2.79492 0
M  V30 39451 H 1979.38 5.16254 -2.65229 0
M  V30 39452 H 1979.1 7.06532 -0.329431 0
M  V30 39453 H 1978.11 6.91023 -1.82047 0
M  V30 39454 H 1979.94 8.90873 -1.62657 0
M  V30 39455 H 1980.01 6.00104 0.892197 0
M  V30 39456 H 1979.91 4.31733 2.69229 0
M  V30 39457 H 1979.52 0.724835 1.8844 0
M  V30 39458 H 1979.72 1.94716 3.16734 0
M  V30 39459 P 1978.07 8.03563 -3.84925 0
M  V30 39460 O 1977.85 8.85821 -5.0569 0
M  V30 39461 O 1977.28 8.41101 -2.65469 0
M  V30 39462 O 1977.82 6.4965 -4.18908 0
M  V30 39463 C 1978.76 5.81037 -5.05421 0
M  V30 39464 C 1978.03 4.78366 -5.89277 0
M  V30 39465 O 1977.82 3.58302 -5.08433 0
M  V30 39466 C 1976.63 5.17448 -6.36119 0
M  V30 39467 O 1976.24 4.45271 -7.53232 0
M  V30 39468 C 1975.75 4.74639 -5.19936 0
M  V30 39469 C 1976.46 3.49432 -4.70418 0
M  V30 39470 N 1976.41 3.31776 -3.22945 0
M  V30 39471 H 1979.25 6.54213 -5.71376 0
M  V30 39472 H 1979.52 5.30492 -4.44033 0
M  V30 39473 H 1978.65 4.55889 -6.76652 0
M  V30 39474 P 1974.69 4.23843 -7.83734 0
M  V30 39475 O 1974.47 4.19407 -9.29784 0
M  V30 39476 O 1973.9 5.24426 -7.09156 0
M  V30 39477 O 1974.44 2.7935 -7.20758 0
M  V30 39478 C 1975.38 1.7299 -7.50419 0
M  V30 39479 C 1974.65 0.406376 -7.57911 0
M  V30 39480 O 1974.44 -0.0897726 -6.21935 0
M  V30 39481 C 1973.25 0.447224 -8.1878 0
M  V30 39482 O 1972.86 -0.825065 -8.71101 0
M  V30 39483 C 1972.37 0.783801 -6.99623 0
M  V30 39484 C 1973.08 0.0619192 -5.85967 0
M  V30 39485 N 1973.03 0.7859 -4.56281 0
M  V30 39486 H 1975.87 1.93423 -8.4679 0
M  V30 39487 H 1976.14 1.68181 -6.71046 0
M  V30 39488 H 1975.27 -0.289041 -8.15388 0
M  V30 39489 P 1971.31 -1.17771 -8.83182 0
M  V30 39490 O 1971.09 -2.07206 -9.98732 0
M  V30 39491 O 1970.52 0.0743816 -8.81969 0
M  V30 39492 O 1971.06 -1.97652 -7.47304 0
M  V30 39493 C 1972 -3.01133 -7.08783 0
M  V30 39494 C 1971.27 -4.12613 -6.37049 0
M  V30 39495 O 1971.06 -3.72827 -4.97879 0
M  V30 39496 C 1969.87 -4.45085 -6.88694 0
M  V30 39497 O 1969.48 -5.7877 -6.5624 0
M  V30 39498 C 1968.99 -3.47817 -6.12078 0
M  V30 39499 C 1969.7 -3.39414 -4.77697 0
M  V30 39500 N 1969.65 -2.04615 -4.15333 0
M  V30 39501 H 1972.49 -3.41248 -7.98759 0
M  V30 39502 H 1972.76 -2.5837 -6.41742 0
M  V30 39503 H 1971.89 -5.02657 -6.42673 0
M  V30 39504 P 1967.93 -6.144 -6.45285 0
M  V30 39505 O 1967.71 -7.54673 -6.86199 0
M  V30 39506 O 1967.14 -5.12391 -7.179 0
M  V30 39507 O 1967.68 -5.99158 -4.88404 0
M  V30 39508 C 1968.62 -6.60234 -3.96415 0
M  V30 39509 C 1967.89 -7.08259 -2.72856 0
M  V30 39510 O 1967.68 -5.9427 -1.83651 0
M  V30 39511 C 1966.49 -7.64886 -2.9555 0
M  V30 39512 O 1966.1 -8.53963 -1.90717 0
M  V30 39513 C 1965.61 -6.4116 -2.90739 0
M  V30 39514 C 1966.32 -5.55375 -1.86963 0
M  V30 39515 N 1966.27 -4.09448 -2.16152 0
M  V30 39516 H 1969.11 -7.45574 -4.45629 0
M  V30 39517 H 1969.38 -5.85864 -3.679 0
M  V30 39518 H 1968.51 -7.84412 -2.24479 0
M  V30 39519 H 1965.86 -5.73457 -0.888562 0
M  V30 39520 H 1965.58 -5.90877 -3.88583 0
M  V30 39521 H 1964.59 -6.6596 -2.58858 0
M  V30 39522 H 1966.42 -8.16339 -3.92049 0
M  V30 39523 P 1964.55 -8.7635 -1.60911 0
M  V30 39524 O 1964.33 -10.1388 -1.11561 0
M  V30 39525 O 1963.76 -8.36503 -2.79617 0
M  V30 39526 O 1964.3 -7.71806 -0.42951 0
M  V30 39527 C 1965.24 -7.67148 0.673689 0
M  V30 39528 C 1964.51 -7.33374 1.95559 0
M  V30 39529 O 1964.3 -5.88721 2.00726 0
M  V30 39530 C 1963.11 -7.92526 2.10483 0
M  V30 39531 O 1962.72 -8.02971 3.47653 0
M  V30 39532 C 1962.23 -6.89602 1.41652 0
M  V30 39533 C 1962.94 -5.59201 1.75185 0
M  V30 39534 N 1962.89 -4.58301 0.657969 0
M  V30 39535 H 1965.73 -8.65116 0.777161 0
M  V30 39536 H 1966 -6.9022 0.46725 0
M  V30 39537 H 1965.13 -7.66548 2.79458 0
M  V30 39538 H 1962.48 -5.16165 2.65183 0
M  V30 39539 H 1962.2 -7.06433 0.329384 0
M  V30 39540 H 1961.21 -6.90926 1.82021 0
M  V30 39541 H 1963.04 -8.90873 1.62657 0
M  V30 39542 P 1961.17 -8.03563 3.84925 0
M  V30 39543 O 1960.95 -8.85821 5.0569 0
M  V30 39544 O 1960.38 -8.41101 2.65469 0
M  V30 39545 O 1960.92 -6.4965 4.18908 0
M  V30 39546 C 1961.86 -5.81037 5.05421 0
M  V30 39547 C 1961.13 -4.78366 5.89277 0
M  V30 39548 O 1960.92 -3.58302 5.08433 0
M  V30 39549 C 1959.73 -5.17448 6.36119 0
M  V30 39550 O 1959.34 -4.45271 7.53232 0
M  V30 39551 C 1958.85 -4.74639 5.19936 0
M  V30 39552 C 1959.56 -3.49432 4.70418 0
M  V30 39553 N 1959.51 -3.31776 3.22945 0
M  V30 39554 H 1962.35 -6.54213 5.71376 0
M  V30 39555 H 1962.62 -5.30492 4.44033 0
M  V30 39556 H 1961.75 -4.55889 6.76652 0
M  V30 39557 P 1957.79 -4.23843 7.83734 0
M  V30 39558 O 1957.57 -4.19407 9.29784 0
M  V30 39559 O 1957 -5.24426 7.09156 0
M  V30 39560 O 1957.54 -2.7935 7.20758 0
M  V30 39561 C 1958.48 -1.7299 7.50419 0
M  V30 39562 C 1957.75 -0.406376 7.57911 0
M  V30 39563 O 1957.54 0.0897726 6.21935 0
M  V30 39564 C 1956.35 -0.447224 8.1878 0
M  V30 39565 O 1955.96 0.825065 8.71101 0
M  V30 39566 C 1955.47 -0.783801 6.99623 0
M  V30 39567 C 1956.18 -0.0619192 5.85967 0
M  V30 39568 N 1956.13 -0.7859 4.56281 0
M  V30 39569 H 1958.97 -1.93423 8.4679 0
M  V30 39570 H 1959.24 -1.68181 6.71046 0
M  V30 39571 H 1958.37 0.289041 8.15388 0
M  V30 39572 P 1954.41 1.17771 8.83182 0
M  V30 39573 O 1954.19 2.07206 9.98732 0
M  V30 39574 O 1953.62 -0.0743816 8.81969 0
M  V30 39575 O 1954.16 1.97652 7.47304 0
M  V30 39576 C 1955.1 3.01133 7.08783 0
M  V30 39577 C 1954.37 4.12613 6.37049 0
M  V30 39578 O 1954.16 3.72827 4.97879 0
M  V30 39579 C 1952.97 4.45085 6.88694 0
M  V30 39580 O 1952.58 5.7877 6.5624 0
M  V30 39581 C 1952.09 3.47817 6.12078 0
M  V30 39582 C 1952.8 3.39414 4.77697 0
M  V30 39583 N 1952.75 2.04615 4.15333 0
M  V30 39584 C 1952.83 0.803897 4.75249 0
M  V30 39585 N 1952.75 -0.197615 3.91502 0
M  V30 39586 C 1952.61 0.413002 2.66823 0
M  V30 39587 C 1952.48 -0.157221 1.38007 0
M  V30 39588 O 1952.46 -1.34419 1.057 0
M  V30 39589 N 1952.36 0.833136 0.390236 0
M  V30 39590 C 1952.36 2.19402 0.623885 0
M  V30 39591 N 1952.23 2.97622 -0.449677 0
M  V30 39592 N 1952.49 2.73005 1.83601 0
M  V30 39593 C 1952.61 1.78786 2.80935 0
M  V30 39594 H 1955.59 3.41248 7.98759 0
M  V30 39595 H 1955.86 2.5837 6.41742 0
M  V30 39596 H 1954.99 5.02657 6.42673 0
M  V30 39597 H 1952.34 4.11779 4.09026 0
M  V30 39598 H 1952.06 2.49661 6.61772 0
M  V30 39599 H 1951.07 3.86674 6.00946 0
M  V30 39600 H 1952.9 4.30038 7.97094 0
M  V30 39601 H 1952.95 0.670579 5.82754 0
M  V30 39602 H 1952.27 0.528446 -0.557287 0
M  V30 39603 H 1952.23 4.00117 -0.344773 0
M  V30 39604 H 1952.13 2.55448 -1.38544 0
M  V30 39605 P 1951.03 6.144 6.45285 0
M  V30 39606 O 1950.81 7.54673 6.86199 0
M  V30 39607 O 1950.24 5.12391 7.179 0
M  V30 39608 O 1950.78 5.99158 4.88404 0
M  V30 39609 C 1951.72 6.60234 3.96415 0
M  V30 39610 C 1950.99 7.08259 2.72856 0
M  V30 39611 O 1950.78 5.9427 1.83651 0
M  V30 39612 C 1949.59 7.64886 2.9555 0
M  V30 39613 O 1949.2 8.53963 1.90717 0
M  V30 39614 C 1948.71 6.4116 2.90739 0
M  V30 39615 C 1949.42 5.55375 1.86963 0
M  V30 39616 N 1949.37 4.09664 2.15742 0
M  V30 39617 C 1949.45 3.44381 3.37233 0
M  V30 39618 N 1949.37 2.14131 3.28347 0
M  V30 39619 C 1949.23 1.90247 1.91588 0
M  V30 39620 C 1949.1 0.683992 1.20892 0
M  V30 39621 N 1948.98 0.903396 -0.173998 0
M  V30 39622 C 1948.98 2.14171 -0.784879 0
M  V30 39623 N 1948.85 2.1435 -2.11317 0
M  V30 39624 N 1949.11 3.28784 -0.119316 0
M  V30 39625 C 1949.23 3.0977 1.22194 0
M  V30 39626 H 1952.21 7.45574 4.45629 0
M  V30 39627 H 1952.48 5.86232 3.67314 0
M  V30 39628 H 1951.61 7.84412 2.24479 0
M  V30 39629 P 1947.65 8.7635 1.60911 0
M  V30 39630 O 1947.43 10.1388 1.11561 0
M  V30 39631 O 1946.86 8.36503 2.79617 0
M  V30 39632 O 1947.4 7.71806 0.42951 0
M  V30 39633 C 1948.34 7.67148 -0.673689 0
M  V30 39634 C 1947.61 7.33374 -1.95559 0
M  V30 39635 O 1947.4 5.88721 -2.00726 0
M  V30 39636 C 1946.21 7.92526 -2.10483 0
M  V30 39637 O 1945.82 8.02971 -3.47653 0
M  V30 39638 C 1945.33 6.89602 -1.41652 0
M  V30 39639 C 1946.04 5.59201 -1.75185 0
M  V30 39640 N 1945.99 4.58235 -0.662552 0
M  V30 39641 H 1948.83 8.65116 -0.777161 0
M  V30 39642 H 1949.1 6.90173 -0.474152 0
M  V30 39643 H 1948.23 7.66548 -2.79458 0
M  V30 39644 P 1944.27 8.03563 -3.84925 0
M  V30 39645 O 1944.05 8.85821 -5.0569 0
M  V30 39646 O 1943.48 8.41101 -2.65469 0
M  V30 39647 O 1944.02 6.49734 -4.18962 0
M  V30 39648 C 1944.96 5.81037 -5.05421 0
M  V30 39649 C 1944.23 4.79018 -5.88876 0
M  V30 39650 O 1944.02 3.58359 -5.08515 0
M  V30 39651 C 1942.83 5.17448 -6.36119 0
M  V30 39652 O 1942.44 4.45322 -7.53318 0
M  V30 39653 C 1941.95 4.74639 -5.19936 0
M  V30 39654 C 1942.66 3.49432 -4.70418 0
M  V30 39655 N 1942.61 3.31776 -3.22945 0
M  V30 39656 C 1942.46 2.02742 -2.72939 0
M  V30 39657 O 1942.37 1.08301 -3.52749 0
M  V30 39658 N 1942.41 1.96117 -1.22063 0
M  V30 39659 C 1942.51 2.8878 -0.551566 0
M  V30 39660 N 1942.46 2.65609 0.750198 0
M  V30 39661 C 1942.66 4.22457 -1.03707 0
M  V30 39662 C 1942.71 4.37979 -2.39113 0
M  V30 39663 H 1945.45 6.54138 -5.7131 0
M  V30 39664 H 1945.72 5.30492 -4.44033 0
M  V30 39665 H 1944.85 4.55945 -6.76735 0
M  V30 39666 H 1942.2 2.6176 -5.18021 0
M  V30 39667 H 1941.92 5.52233 -4.41941 0
M  V30 39668 H 1940.93 4.52045 -5.53452 0
M  V30 39669 H 1942.76 6.25124 -6.55234 0
M  V30 39670 H 1942.83 5.37936 -2.80552 0
M  V30 39671 H 1942.73 5.07528 -0.359553 0
M  V30 39672 H 1942.34 1.69403 1.09847 0
M  V30 39673 H 1942.54 3.43701 1.41792 0
M  V30 39674 P 1940.89 4.23843 -7.83734 0
M  V30 39675 O 1940.67 4.19407 -9.29784 0
M  V30 39676 O 1940.1 5.24426 -7.09156 0
M  V30 39677 O 1940.64 2.7935 -7.20758 0
M  V30 39678 C 1941.58 1.7299 -7.50419 0
M  V30 39679 C 1940.85 0.406376 -7.57911 0
M  V30 39680 O 1940.64 -0.0897726 -6.21935 0
M  V30 39681 C 1939.45 0.447224 -8.1878 0
M  V30 39682 O 1939.06 -0.825065 -8.71101 0
M  V30 39683 C 1938.57 0.783801 -6.99623 0
M  V30 39684 C 1939.28 0.0619192 -5.85967 0
M  V30 39685 N 1939.23 0.7859 -4.56281 0
M  V30 39686 H 1942.07 1.93423 -8.4679 0
M  V30 39687 H 1942.34 1.68181 -6.71046 0
M  V30 39688 H 1941.47 -0.289041 -8.15388 0
M  V30 39689 P 1937.51 -1.17771 -8.83182 0
M  V30 39690 O 1937.29 -2.07206 -9.98732 0
M  V30 39691 O 1936.72 0.0743816 -8.81969 0
M  V30 39692 O 1937.26 -1.97652 -7.47304 0
M  V30 39693 C 1938.2 -3.01133 -7.08783 0
M  V30 39694 C 1937.47 -4.12613 -6.37049 0
M  V30 39695 O 1937.26 -3.72827 -4.97879 0
M  V30 39696 C 1936.07 -4.45085 -6.88694 0
M  V30 39697 O 1935.68 -5.7877 -6.5624 0
M  V30 39698 C 1935.19 -3.47817 -6.12078 0
M  V30 39699 C 1935.9 -3.39414 -4.77697 0
M  V30 39700 N 1935.85 -2.04615 -4.15333 0
M  V30 39701 H 1938.69 -3.41248 -7.98759 0
M  V30 39702 H 1938.96 -2.5837 -6.41742 0
M  V30 39703 H 1938.09 -5.02657 -6.42673 0
M  V30 39704 P 1934.13 -6.144 -6.45285 0
M  V30 39705 O 1933.91 -7.54673 -6.86199 0
M  V30 39706 O 1933.34 -5.12391 -7.179 0
M  V30 39707 O 1933.88 -5.99236 -4.88467 0
M  V30 39708 C 1934.82 -6.60234 -3.96415 0
M  V30 39709 C 1934.09 -7.08079 -2.736 0
M  V30 39710 O 1933.88 -5.94365 -1.8368 0
M  V30 39711 C 1932.69 -7.64886 -2.9555 0
M  V30 39712 O 1932.3 -8.5406 -1.90739 0
M  V30 39713 C 1931.81 -6.4116 -2.90739 0
M  V30 39714 C 1932.52 -5.55375 -1.86963 0
M  V30 39715 N 1932.47 -4.09664 -2.15742 0
M  V30 39716 C 1932.32 -3.22231 -1.08477 0
M  V30 39717 O 1932.23 -3.68951 0.0600489 0
M  V30 39718 N 1932.27 -1.76692 -1.48799 0
M  V30 39719 C 1932.37 -1.41695 -2.57602 0
M  V30 39720 N 1932.32 -0.107296 -2.75791 0
M  V30 39721 C 1932.52 -2.29178 -3.69733 0
M  V30 39722 C 1932.57 -3.62753 -3.42653 0
M  V30 39723 H 1935.31 -7.45488 -4.45578 0
M  V30 39724 H 1935.58 -5.86232 -3.67314 0
M  V30 39725 H 1934.71 -7.84508 -2.24507 0
M  V30 39726 H 1932.06 -5.73556 -0.888715 0
M  V30 39727 H 1931.78 -5.9096 -3.88638 0
M  V30 39728 H 1930.79 -6.66053 -2.58894 0
M  V30 39729 H 1932.62 -8.16339 -3.92049 0
M  V30 39730 H 1932.69 -4.33052 -4.24913 0
M  V30 39731 H 1932.59 -1.9103 -4.71577 0
M  V30 39732 H 1932.2 0.521221 -1.95056 0
M  V30 39733 H 1932.4 0.286429 -3.70695 0
M  V30 39734 P 1930.75 -8.7635 -1.60911 0
M  V30 39735 O 1930.53 -10.1388 -1.11561 0
M  V30 39736 O 1929.96 -8.36503 -2.79617 0
M  V30 39737 O 1930.5 -7.71806 -0.42951 0
M  V30 39738 C 1931.44 -7.66948 0.673514 0
M  V30 39739 C 1930.71 -7.33374 1.95559 0
M  V30 39740 O 1930.5 -5.88721 2.00726 0
M  V30 39741 C 1929.31 -7.92218 2.1125 0
M  V30 39742 O 1928.92 -8.02971 3.47653 0
M  V30 39743 C 1928.43 -6.89504 1.41631 0
M  V30 39744 C 1929.14 -5.59106 1.75155 0
M  V30 39745 N 1929.09 -4.58136 0.662409 0
M  V30 39746 C 1928.94 -3.26059 1.02863 0
M  V30 39747 O 1928.85 -2.90743 2.19009 0
M  V30 39748 N 1928.9 -2.35995 -0.0155585 0
M  V30 39749 C 1928.99 -2.65248 -1.35603 0
M  V30 39750 C 1929.14 -4.05747 -1.64698 0
M  V30 39751 C 1929.19 -4.96734 -0.652411 0
M  V30 39752 H 1931.93 -8.64917 0.776982 0
M  V30 39753 H 1932.2 -6.89974 0.474015 0
M  V30 39754 H 1931.33 -7.66548 2.79458 0
M  V30 39755 H 1928.68 -5.16076 2.65138 0
M  V30 39756 H 1928.4 -7.06433 0.329384 0
M  V30 39757 H 1927.41 -6.90829 1.81996 0
M  V30 39758 H 1929.24 -8.90774 1.62639 0
M  V30 39759 H 1929.31 -6.02181 -0.895285 0
M  V30 39760 P 1927.37 -8.03563 3.84925 0
M  V30 39761 O 1927.15 -8.85821 5.0569 0
M  V30 39762 O 1926.58 -8.41101 2.65469 0
M  V30 39763 O 1927.12 -6.4965 4.18908 0
M  V30 39764 C 1928.06 -5.81037 5.05421 0
M  V30 39765 C 1927.33 -4.78366 5.89277 0
M  V30 39766 O 1927.12 -3.58302 5.08433 0
M  V30 39767 C 1925.93 -5.17448 6.36119 0
M  V30 39768 O 1925.54 -4.45271 7.53232 0
M  V30 39769 C 1925.05 -4.74639 5.19936 0
M  V30 39770 C 1925.76 -3.49432 4.70418 0
M  V30 39771 N 1925.71 -3.31776 3.22945 0
M  V30 39772 H 1928.55 -6.54213 5.71376 0
M  V30 39773 H 1928.82 -5.30492 4.44033 0
M  V30 39774 H 1927.95 -4.55889 6.76652 0
M  V30 39775 P 1923.99 -4.23843 7.83734 0
M  V30 39776 O 1923.77 -4.19407 9.29784 0
M  V30 39777 O 1923.2 -5.24426 7.09156 0
M  V30 39778 O 1923.74 -2.7935 7.20758 0
M  V30 39779 C 1924.68 -1.72945 7.50224 0
M  V30 39780 C 1923.95 -0.406376 7.57911 0
M  V30 39781 O 1923.74 0.0897726 6.21935 0
M  V30 39782 C 1922.55 -0.438983 8.18724 0
M  V30 39783 O 1922.16 0.825065 8.71101 0
M  V30 39784 C 1921.67 -0.783689 6.99524 0
M  V30 39785 C 1922.38 -0.0619086 5.85867 0
M  V30 39786 N 1922.33 -0.78573 4.56183 0
M  V30 39787 C 1922.18 -0.0292889 3.41887 0
M  V30 39788 O 1922.09 1.18445 3.4419 0
M  V30 39789 N 1922.14 -0.744061 2.23964 0
M  V30 39790 C 1922.23 -2.10932 2.10362 0
M  V30 39791 O 1922.18 -2.64117 0.98825 0
M  V30 39792 C 1922.38 -2.8202 3.34994 0
M  V30 39793 C 1922.49 -4.31095 3.25037 0
M  V30 39794 C 1922.43 -2.15547 4.52261 0
M  V30 39795 H 1925.17 -1.93379 8.46595 0
M  V30 39796 H 1925.44 -1.68132 6.70852 0
M  V30 39797 H 1924.57 0.289041 8.15388 0
M  V30 39798 H 1921.92 0.926847 5.72749 0
M  V30 39799 H 1921.64 -1.86973 6.82036 0
M  V30 39800 H 1920.65 -0.403896 7.13257 0
M  V30 39801 H 1922.48 -1.20585 8.97435 0
M  V30 39802 H 1922.55 -2.71231 5.45042 0
M  V30 39803 H 1921.52 -4.76966 3.49992 0
M  V30 39804 H 1923.26 -4.67047 3.95024 0
M  V30 39805 H 1922.77 -4.58996 2.22312 0
M  V30 39806 H 1922.03 -0.214893 1.39758 0
M  V30 39807 P 1920.61 1.17771 8.83182 0
M  V30 39808 O 1920.39 2.07206 9.98732 0
M  V30 39809 O 1919.82 -0.0743816 8.81969 0
M  V30 39810 O 1920.36 1.97652 7.47304 0
M  V30 39811 C 1921.3 3.01133 7.08783 0
M  V30 39812 C 1920.57 4.12613 6.37049 0
M  V30 39813 O 1920.36 3.72827 4.97879 0
M  V30 39814 C 1919.17 4.45085 6.88694 0
M  V30 39815 O 1918.78 5.7877 6.5624 0
M  V30 39816 C 1918.29 3.47817 6.12078 0
M  V30 39817 C 1919 3.39414 4.77697 0
M  V30 39818 N 1918.95 2.04615 4.15333 0
M  V30 39819 H 1921.79 3.41248 7.98759 0
M  V30 39820 H 1922.06 2.5837 6.41742 0
M  V30 39821 H 1921.19 5.02657 6.42673 0
M  V30 39822 P 1917.23 6.144 6.45285 0
M  V30 39823 O 1917.01 7.54673 6.86199 0
M  V30 39824 O 1916.44 5.12391 7.179 0
M  V30 39825 O 1916.98 5.99236 4.88467 0
M  V30 39826 C 1917.92 6.60234 3.96415 0
M  V30 39827 C 1917.19 7.08079 2.736 0
M  V30 39828 O 1916.98 5.94365 1.8368 0
M  V30 39829 C 1915.79 7.64886 2.9555 0
M  V30 39830 O 1915.4 8.5406 1.90739 0
M  V30 39831 C 1914.91 6.4116 2.90739 0
M  V30 39832 C 1915.62 5.55375 1.86963 0
M  V30 39833 N 1915.57 4.09664 2.15742 0
M  V30 39834 C 1915.42 3.22231 1.08477 0
M  V30 39835 O 1915.33 3.68951 -0.0600489 0
M  V30 39836 N 1915.37 1.76692 1.48799 0
M  V30 39837 C 1915.47 1.41695 2.57602 0
M  V30 39838 N 1915.42 0.107296 2.75791 0
M  V30 39839 C 1915.62 2.29178 3.69733 0
M  V30 39840 C 1915.67 3.62753 3.42653 0
M  V30 39841 H 1918.41 7.45488 4.45578 0
M  V30 39842 H 1918.68 5.86232 3.67314 0
M  V30 39843 H 1917.81 7.84508 2.24507 0
M  V30 39844 H 1915.16 5.73556 0.888715 0
M  V30 39845 H 1914.88 5.9096 3.88638 0
M  V30 39846 H 1913.89 6.66053 2.58894 0
M  V30 39847 H 1915.72 8.16339 3.92049 0
M  V30 39848 H 1915.79 4.33052 4.24913 0
M  V30 39849 H 1915.69 1.9103 4.71577 0
M  V30 39850 H 1915.3 -0.521221 1.95056 0
M  V30 39851 H 1915.5 -0.286429 3.70695 0
M  V30 39852 P 1913.85 8.7635 1.60911 0
M  V30 39853 O 1913.63 10.1388 1.11561 0
M  V30 39854 O 1913.06 8.36503 2.79617 0
M  V30 39855 O 1913.6 7.71806 0.42951 0
M  V30 39856 C 1914.54 7.66948 -0.673514 0
M  V30 39857 C 1913.81 7.33374 -1.95559 0
M  V30 39858 O 1913.6 5.88721 -2.00726 0
M  V30 39859 C 1912.41 7.92218 -2.1125 0
M  V30 39860 O 1912.02 8.02971 -3.47653 0
M  V30 39861 C 1911.53 6.89504 -1.41631 0
M  V30 39862 C 1912.24 5.59106 -1.75155 0
M  V30 39863 N 1912.19 4.58136 -0.662409 0
M  V30 39864 C 1912.04 3.26059 -1.02863 0
M  V30 39865 O 1911.95 2.90743 -2.19009 0
M  V30 39866 N 1912 2.35995 0.0155585 0
M  V30 39867 C 1912.09 2.65248 1.35603 0
M  V30 39868 O 1912.04 1.75605 2.20651 0
M  V30 39869 C 1912.24 4.05747 1.64698 0
M  V30 39870 C 1912.35 4.42345 3.09553 0
M  V30 39871 C 1912.29 4.96734 0.652411 0
M  V30 39872 H 1915.03 8.64917 -0.776982 0
M  V30 39873 H 1915.3 6.89974 -0.474015 0
M  V30 39874 H 1914.43 7.66548 -2.79458 0
M  V30 39875 H 1911.78 5.16076 -2.65138 0
M  V30 39876 H 1911.5 7.06433 -0.329384 0
M  V30 39877 H 1910.51 6.90829 -1.81996 0
M  V30 39878 H 1912.34 8.90774 -1.62639 0
M  V30 39879 H 1912.41 6.02181 0.895285 0
M  V30 39880 H 1911.38 4.80252 3.45468 0
M  V30 39881 H 1913.12 5.20015 3.22119 0
M  V30 39882 H 1912.63 3.53269 3.67833 0
M  V30 39883 H 1911.89 1.39558 -0.227499 0
M  V30 39884 P 1910.47 8.03563 -3.84925 0
M  V30 39885 O 1910.25 8.85821 -5.0569 0
M  V30 39886 O 1909.68 8.41101 -2.65469 0
M  V30 39887 O 1910.22 6.4965 -4.18908 0
M  V30 39888 C 1911.16 5.80886 -5.05289 0
M  V30 39889 C 1910.43 4.78366 -5.89277 0
M  V30 39890 O 1910.22 3.58302 -5.08433 0
M  V30 39891 C 1909.03 5.16748 -6.36559 0
M  V30 39892 O 1908.64 4.45271 -7.53232 0
M  V30 39893 C 1908.15 4.74572 -5.19863 0
M  V30 39894 C 1908.86 3.49373 -4.70338 0
M  V30 39895 N 1908.81 3.31704 -3.22876 0
M  V30 39896 C 1908.66 2.03326 -2.74871 0
M  V30 39897 O 1908.57 1.06486 -3.48076 0
M  V30 39898 N 1908.62 1.91838 -1.37456 0
M  V30 39899 C 1908.71 2.94295 -0.462035 0
M  V30 39900 O 1908.66 2.71763 0.752928 0
M  V30 39901 C 1908.86 4.25064 -1.05249 0
M  V30 39902 C 1908.97 5.39815 -0.095697 0
M  V30 39903 C 1908.91 4.40214 -2.39192 0
M  V30 39904 H 1911.65 6.54063 -5.71245 0
M  V30 39905 H 1911.92 5.30339 -4.43905 0
M  V30 39906 H 1911.05 4.55889 -6.76652 0
M  V30 39907 H 1908.4 2.6167 -5.17842 0
M  V30 39908 H 1908.12 5.52155 -4.41878 0
M  V30 39909 H 1907.13 4.51918 -5.53297 0
M  V30 39910 H 1908.96 6.25055 -6.55162 0
M  V30 39911 H 1909.03 5.39798 -2.81523 0
M  V30 39912 H 1908 5.91593 -0.0279582 0
M  V30 39913 H 1909.74 6.10038 -0.450573 0
M  V30 39914 H 1909.25 5.02007 0.89937 0
M  V30 39915 H 1908.51 0.995326 -1.00435 0
M  V30 39916 P 1907.09 4.23843 -7.83734 0
M  V30 39917 O 1906.87 4.19407 -9.29784 0
M  V30 39918 O 1906.3 5.24426 -7.09156 0
M  V30 39919 O 1906.84 2.7935 -7.20758 0
M  V30 39920 C 1907.78 1.7299 -7.50419 0
M  V30 39921 C 1907.05 0.406376 -7.57911 0
M  V30 39922 O 1906.84 -0.0897726 -6.21935 0
M  V30 39923 C 1905.65 0.447224 -8.1878 0
M  V30 39924 O 1905.26 -0.825065 -8.71101 0
M  V30 39925 C 1904.77 0.783801 -6.99623 0
M  V30 39926 C 1905.48 0.0619192 -5.85967 0
M  V30 39927 N 1905.43 0.7859 -4.56281 0
M  V30 39928 C 1905.51 2.14308 -4.31736 0
M  V30 39929 N 1905.43 2.46106 -3.05116 0
M  V30 39930 C 1905.29 1.23422 -2.4014 0
M  V30 39931 C 1905.16 0.938381 -1.02409 0
M  V30 39932 N 1905.04 -0.444647 -0.805413 0
M  V30 39933 C 1905.04 -1.40829 -1.79435 0
M  V30 39934 N 1904.91 -2.67213 -1.38558 0
M  V30 39935 N 1905.17 -1.12947 -3.09005 0
M  V30 39936 C 1905.29 0.204887 -3.32369 0
M  V30 39937 H 1908.27 1.93423 -8.4679 0
M  V30 39938 H 1908.54 1.68181 -6.71046 0
M  V30 39939 H 1907.67 -0.289041 -8.15388 0
M  V30 39940 P 1903.71 -1.17771 -8.83182 0
M  V30 39941 O 1903.49 -2.07206 -9.98732 0
M  V30 39942 O 1902.92 0.0743816 -8.81969 0
M  V30 39943 O 1903.46 -1.97652 -7.47304 0
M  V30 39944 C 1904.4 -3.01133 -7.08783 0
M  V30 39945 C 1903.67 -4.12613 -6.37049 0
M  V30 39946 O 1903.46 -3.72827 -4.97879 0
M  V30 39947 C 1902.27 -4.45085 -6.88694 0
M  V30 39948 O 1901.88 -5.7877 -6.5624 0
M  V30 39949 C 1901.39 -3.47817 -6.12078 0
M  V30 39950 C 1902.1 -3.39414 -4.77697 0
M  V30 39951 N 1902.05 -2.04615 -4.15333 0
M  V30 39952 C 1902.13 -0.803897 -4.75249 0
M  V30 39953 N 1902.05 0.197615 -3.91502 0
M  V30 39954 C 1901.91 -0.413002 -2.66823 0
M  V30 39955 C 1901.78 0.157221 -1.38007 0
M  V30 39956 N 1901.66 -0.833136 -0.390236 0
M  V30 39957 C 1901.66 -2.19402 -0.623885 0
M  V30 39958 N 1901.53 -2.97622 0.449677 0
M  V30 39959 N 1901.79 -2.73005 -1.83601 0
M  V30 39960 C 1901.91 -1.78786 -2.80935 0
M  V30 39961 H 1904.89 -3.41248 -7.98759 0
M  V30 39962 H 1905.16 -2.5837 -6.41742 0
M  V30 39963 H 1904.29 -5.02657 -6.42673 0
M  V30 39964 P 1900.33 -6.144 -6.45285 0
M  V30 39965 O 1900.11 -7.54673 -6.86199 0
M  V30 39966 O 1899.54 -5.12391 -7.179 0
M  V30 39967 O 1900.08 -5.99158 -4.88404 0
M  V30 39968 C 1901.02 -6.60062 -3.96313 0
M  V30 39969 C 1900.29 -7.08259 -2.72856 0
M  V30 39970 O 1900.08 -5.9427 -1.83651 0
M  V30 39971 C 1898.89 -7.65087 -2.94749 0
M  V30 39972 O 1898.5 -8.53963 -1.90717 0
M  V30 39973 C 1898.01 -6.41069 -2.90698 0
M  V30 39974 C 1898.72 -5.5528 -1.86931 0
M  V30 39975 N 1898.67 -4.09575 -2.15696 0
M  V30 39976 C 1898.52 -3.24249 -1.08435 0
M  V30 39977 O 1898.43 -3.63946 0.0628747 0
M  V30 39978 N 1898.48 -1.90009 -1.39973 0
M  V30 39979 C 1898.57 -1.34884 -2.65614 0
M  V30 39980 O 1898.52 -0.123716 -2.81728 0
M  V30 39981 C 1898.72 -2.3145 -3.71736 0
M  V30 39982 C 1898.83 -1.75913 -5.10438 0
M  V30 39983 C 1898.77 -3.63518 -3.44754 0
M  V30 39984 H 1901.51 -7.45402 -4.45526 0
M  V30 39985 H 1901.78 -5.86062 -3.67208 0
M  V30 39986 H 1900.91 -7.84412 -2.24479 0
M  V30 39987 H 1898.26 -5.73358 -0.888409 0
M  V30 39988 H 1897.98 -5.90877 -3.88583 0
M  V30 39989 H 1896.99 -6.65867 -2.58821 0
M  V30 39990 H 1898.82 -8.16248 -3.92006 0
M  V30 39991 H 1898.89 -4.34551 -4.26383 0
M  V30 39992 H 1897.86 -1.85471 -5.61775 0
M  V30 39993 H 1899.6 -2.31364 -5.66257 0
M  V30 39994 H 1899.11 -0.695936 -5.05229 0
M  V30 39995 H 1898.37 -1.26277 -0.63625 0
M  V30 39996 P 1896.95 -8.7635 -1.60911 0
M  V30 39997 O 1896.73 -10.1388 -1.11561 0
M  V30 39998 O 1896.16 -8.36503 -2.79617 0
M  V30 39999 O 1896.7 -7.71806 -0.42951 0
M  V30 40000 C 1897.64 -7.67148 0.673689 0
M  V30 40001 C 1896.91 -7.33374 1.95559 0
M  V30 40002 O 1896.7 -5.88721 2.00726 0
M  V30 40003 C 1895.51 -7.92526 2.10483 0
M  V30 40004 O 1895.12 -8.02971 3.47653 0
M  V30 40005 C 1894.63 -6.89602 1.41652 0
M  V30 40006 C 1895.34 -5.59201 1.75185 0
M  V30 40007 N 1895.29 -4.58235 0.662552 0
M  V30 40008 H 1898.13 -8.65116 0.777161 0
M  V30 40009 H 1898.4 -6.90173 0.474152 0
M  V30 40010 H 1897.53 -7.66548 2.79458 0
M  V30 40011 P 1893.57 -8.03563 3.84925 0
M  V30 40012 O 1893.35 -8.85821 5.0569 0
M  V30 40013 O 1892.78 -8.41101 2.65469 0
M  V30 40014 O 1893.32 -6.4965 4.18908 0
M  V30 40015 C 1894.26 -5.81037 5.05421 0
M  V30 40016 C 1893.53 -4.78366 5.89277 0
M  V30 40017 O 1893.32 -3.58302 5.08433 0
M  V30 40018 C 1892.13 -5.17448 6.36119 0
M  V30 40019 O 1891.74 -4.45271 7.53232 0
M  V30 40020 C 1891.25 -4.74639 5.19936 0
M  V30 40021 C 1891.96 -3.49432 4.70418 0
M  V30 40022 N 1891.91 -3.31776 3.22945 0
M  V30 40023 H 1894.75 -6.54213 5.71376 0
M  V30 40024 H 1895.02 -5.30492 4.44033 0
M  V30 40025 H 1894.15 -4.55889 6.76652 0
M  V30 40026 P 1890.19 -4.23843 7.83734 0
M  V30 40027 O 1889.97 -4.19407 9.29784 0
M  V30 40028 O 1889.4 -5.24426 7.09156 0
M  V30 40029 O 1889.94 -2.7935 7.20758 0
M  V30 40030 C 1890.88 -1.7299 7.50419 0
M  V30 40031 C 1890.15 -0.406376 7.57911 0
M  V30 40032 O 1889.94 0.0897726 6.21935 0
M  V30 40033 C 1888.75 -0.447224 8.1878 0
M  V30 40034 O 1888.36 0.825065 8.71101 0
M  V30 40035 C 1887.87 -0.783801 6.99623 0
M  V30 40036 C 1888.58 -0.0619192 5.85967 0
M  V30 40037 N 1888.53 -0.790462 4.56202 0
M  V30 40038 H 1891.37 -1.93423 8.4679 0
M  V30 40039 H 1891.64 -1.68852 6.70877 0
M  V30 40040 H 1890.77 0.289041 8.15388 0
M  V30 40041 H 1888.12 0.927006 5.72848 0
M  V30 40042 H 1887.84 -1.86973 6.82036 0
M  V30 40043 H 1886.85 -0.403953 7.13357 0
M  V30 40044 H 1888.68 -1.20599 8.97534 0
M  V30 40045 P 1886.81 1.17771 8.83182 0
M  V30 40046 O 1886.59 2.07206 9.98732 0
M  V30 40047 O 1886.02 -0.0743816 8.81969 0
M  V30 40048 O 1886.56 1.97652 7.47304 0
M  V30 40049 C 1887.5 3.01055 7.08599 0
M  V30 40050 C 1886.77 4.12613 6.37049 0
M  V30 40051 O 1886.56 3.72827 4.97879 0
M  V30 40052 C 1885.37 4.45719 6.88164 0
M  V30 40053 O 1884.98 5.7877 6.5624 0
M  V30 40054 C 1884.49 3.47768 6.11991 0
M  V30 40055 C 1885.2 3.39356 4.77615 0
M  V30 40056 N 1885.15 2.04571 4.15244 0
M  V30 40057 C 1885 1.98587 2.78314 0
M  V30 40058 O 1884.91 2.98134 2.08835 0
M  V30 40059 N 1884.96 0.714467 2.24925 0
M  V30 40060 C 1885.05 -0.470001 2.94169 0
M  V30 40061 C 1885.2 -0.312541 4.36783 0
M  V30 40062 C 1885.25 0.914512 4.92583 0
M  V30 40063 H 1887.99 3.41169 7.98575 0
M  V30 40064 H 1888.26 2.58295 6.41556 0
M  V30 40065 H 1887.39 5.02657 6.42673 0
M  V30 40066 H 1884.74 4.11637 4.08885 0
M  V30 40067 H 1884.46 2.49626 6.61679 0
M  V30 40068 H 1883.47 3.86566 6.00778 0
M  V30 40069 H 1885.3 4.29943 7.96918 0
M  V30 40070 H 1885.37 1.00937 6.00374 0
M  V30 40071 P 1883.43 6.144 6.45285 0
M  V30 40072 O 1883.21 7.54673 6.86199 0
M  V30 40073 O 1882.64 5.12391 7.179 0
M  V30 40074 O 1883.18 5.99158 4.88404 0
M  V30 40075 C 1884.12 6.60234 3.96415 0
M  V30 40076 C 1883.39 7.08259 2.72856 0
M  V30 40077 O 1883.18 5.9427 1.83651 0
M  V30 40078 C 1881.99 7.64886 2.9555 0
M  V30 40079 O 1881.6 8.53963 1.90717 0
M  V30 40080 C 1881.11 6.4116 2.90739 0
M  V30 40081 C 1881.82 5.55375 1.86963 0
M  V30 40082 N 1881.77 4.09664 2.15742 0
M  V30 40083 C 1881.85 3.44381 3.37233 0
M  V30 40084 N 1881.77 2.14131 3.28347 0
M  V30 40085 C 1881.63 1.90247 1.91588 0
M  V30 40086 C 1881.5 0.683992 1.20892 0
M  V30 40087 N 1881.38 0.903396 -0.173998 0
M  V30 40088 C 1881.38 2.14171 -0.784879 0
M  V30 40089 N 1881.25 2.1435 -2.11317 0
M  V30 40090 N 1881.51 3.28784 -0.119316 0
M  V30 40091 C 1881.63 3.0977 1.22194 0
M  V30 40092 H 1884.61 7.45574 4.45629 0
M  V30 40093 H 1884.88 5.86232 3.67314 0
M  V30 40094 H 1884.01 7.84412 2.24479 0
M  V30 40095 P 1880.05 8.7635 1.60911 0
M  V30 40096 O 1879.83 10.1388 1.11561 0
M  V30 40097 O 1879.26 8.36503 2.79617 0
M  V30 40098 O 1879.8 7.71806 0.42951 0
M  V30 40099 C 1880.74 7.67148 -0.673689 0
M  V30 40100 C 1880.01 7.33374 -1.95559 0
M  V30 40101 O 1879.8 5.88721 -2.00726 0
M  V30 40102 C 1878.61 7.92526 -2.10483 0
M  V30 40103 O 1878.22 8.02971 -3.47653 0
M  V30 40104 C 1877.73 6.89602 -1.41652 0
M  V30 40105 C 1878.44 5.59201 -1.75185 0
M  V30 40106 N 1878.39 4.58301 -0.657969 0
M  V30 40107 H 1881.23 8.65116 -0.777161 0
M  V30 40108 H 1881.5 6.9022 -0.46725 0
M  V30 40109 H 1880.63 7.66548 -2.79458 0
M  V30 40110 H 1877.98 5.16165 -2.65183 0
M  V30 40111 H 1877.7 7.06433 -0.329384 0
M  V30 40112 H 1876.71 6.90926 -1.82021 0
M  V30 40113 H 1878.54 8.90873 -1.62657 0
M  V30 40114 P 1876.67 8.03563 -3.84925 0
M  V30 40115 O 1876.45 8.85821 -5.0569 0
M  V30 40116 O 1875.88 8.41101 -2.65469 0
M  V30 40117 O 1876.42 6.4965 -4.18908 0
M  V30 40118 C 1877.36 5.81037 -5.05421 0
M  V30 40119 C 1876.63 4.78366 -5.89277 0
M  V30 40120 O 1876.42 3.58302 -5.08433 0
M  V30 40121 C 1875.23 5.17448 -6.36119 0
M  V30 40122 O 1874.84 4.45271 -7.53232 0
M  V30 40123 C 1874.35 4.74639 -5.19936 0
M  V30 40124 C 1875.06 3.49432 -4.70418 0
M  V30 40125 N 1875.01 3.31776 -3.22945 0
M  V30 40126 H 1877.85 6.54213 -5.71376 0
M  V30 40127 H 1878.12 5.30492 -4.44033 0
M  V30 40128 H 1877.25 4.55889 -6.76652 0
M  V30 40129 P 1873.29 4.23843 -7.83734 0
M  V30 40130 O 1873.07 4.19407 -9.29784 0
M  V30 40131 O 1872.5 5.24426 -7.09156 0
M  V30 40132 O 1873.04 2.7935 -7.20758 0
M  V30 40133 C 1873.98 1.7299 -7.50419 0
M  V30 40134 C 1873.25 0.406376 -7.57911 0
M  V30 40135 O 1873.04 -0.0897726 -6.21935 0
M  V30 40136 C 1871.85 0.447224 -8.1878 0
M  V30 40137 O 1871.46 -0.825065 -8.71101 0
M  V30 40138 C 1870.97 0.783801 -6.99623 0
M  V30 40139 C 1871.68 0.0619192 -5.85967 0
M  V30 40140 N 1871.63 0.790462 -4.56202 0
M  V30 40141 H 1874.47 1.93423 -8.4679 0
M  V30 40142 H 1874.74 1.68852 -6.70877 0
M  V30 40143 H 1873.87 -0.289041 -8.15388 0
M  V30 40144 H 1871.22 -0.927006 -5.72848 0
M  V30 40145 H 1870.94 1.86973 -6.82036 0
M  V30 40146 H 1869.95 0.403953 -7.13357 0
M  V30 40147 H 1871.78 1.20599 -8.97534 0
M  V30 40148 P 1869.91 -1.17771 -8.83182 0
M  V30 40149 O 1869.69 -2.07206 -9.98732 0
M  V30 40150 O 1869.12 0.0743816 -8.81969 0
M  V30 40151 O 1869.66 -1.97652 -7.47304 0
M  V30 40152 C 1870.6 -3.01133 -7.08783 0
M  V30 40153 C 1869.87 -4.12613 -6.37049 0
M  V30 40154 O 1869.66 -3.72827 -4.97879 0
M  V30 40155 C 1868.47 -4.45085 -6.88694 0
M  V30 40156 O 1868.08 -5.7877 -6.5624 0
M  V30 40157 C 1867.59 -3.47817 -6.12078 0
M  V30 40158 C 1868.3 -3.39414 -4.77697 0
M  V30 40159 N 1868.25 -2.04199 -4.15538 0
M  V30 40160 H 1871.09 -3.41248 -7.98759 0
M  V30 40161 H 1871.36 -2.57728 -6.42 0
M  V30 40162 H 1870.49 -5.02657 -6.42673 0
M  V30 40163 H 1867.84 -4.11708 -4.08956 0
M  V30 40164 H 1867.56 -2.49626 -6.61679 0
M  V30 40165 H 1866.57 -3.8662 -6.00862 0
M  V30 40166 H 1868.4 -4.29991 -7.97006 0
M  V30 40167 P 1866.53 -6.144 -6.45285 0
M  V30 40168 O 1866.31 -7.54673 -6.86199 0
M  V30 40169 O 1865.74 -5.12391 -7.179 0
M  V30 40170 O 1866.28 -5.99158 -4.88404 0
M  V30 40171 C 1867.22 -6.60234 -3.96415 0
M  V30 40172 C 1866.49 -7.08259 -2.72856 0
M  V30 40173 O 1866.28 -5.9427 -1.83651 0
M  V30 40174 C 1865.09 -7.64886 -2.9555 0
M  V30 40175 O 1864.7 -8.53963 -1.90717 0
M  V30 40176 C 1864.21 -6.4116 -2.90739 0
M  V30 40177 C 1864.92 -5.55375 -1.86963 0
M  V30 40178 N 1864.87 -4.09448 -2.16152 0
M  V30 40179 H 1867.71 -7.45574 -4.45629 0
M  V30 40180 H 1867.98 -5.85864 -3.679 0
M  V30 40181 H 1867.11 -7.84412 -2.24479 0
M  V30 40182 H 1864.46 -5.73457 -0.888562 0
M  V30 40183 H 1864.18 -5.90877 -3.88583 0
M  V30 40184 H 1863.19 -6.6596 -2.58858 0
M  V30 40185 H 1865.02 -8.16339 -3.92049 0
M  V30 40186 P 1863.15 -8.7635 -1.60911 0
M  V30 40187 O 1862.93 -10.1388 -1.11561 0
M  V30 40188 O 1862.36 -8.36503 -2.79617 0
M  V30 40189 O 1862.9 -7.71806 -0.42951 0
M  V30 40190 C 1863.84 -7.67148 0.673689 0
M  V30 40191 C 1863.11 -7.33374 1.95559 0
M  V30 40192 O 1862.9 -5.88721 2.00726 0
M  V30 40193 C 1861.71 -7.92526 2.10483 0
M  V30 40194 O 1861.32 -8.02971 3.47653 0
M  V30 40195 C 1860.83 -6.89602 1.41652 0
M  V30 40196 C 1861.54 -5.59201 1.75185 0
M  V30 40197 N 1861.49 -4.58301 0.657969 0
M  V30 40198 H 1864.33 -8.65116 0.777161 0
M  V30 40199 H 1864.6 -6.9022 0.46725 0
M  V30 40200 H 1863.73 -7.66548 2.79458 0
M  V30 40201 H 1861.08 -5.16165 2.65183 0
M  V30 40202 H 1860.8 -7.06433 0.329384 0
M  V30 40203 H 1859.81 -6.90926 1.82021 0
M  V30 40204 H 1861.64 -8.90873 1.62657 0
M  V30 40205 P 1859.77 -8.03563 3.84925 0
M  V30 40206 O 1859.55 -8.85821 5.0569 0
M  V30 40207 O 1858.98 -8.41101 2.65469 0
M  V30 40208 O 1859.52 -6.4965 4.18908 0
M  V30 40209 C 1860.46 -5.81037 5.05421 0
M  V30 40210 C 1859.73 -4.78366 5.89277 0
M  V30 40211 O 1859.52 -3.58302 5.08433 0
M  V30 40212 C 1858.33 -5.17448 6.36119 0
M  V30 40213 O 1857.94 -4.45271 7.53232 0
M  V30 40214 C 1857.45 -4.74639 5.19936 0
M  V30 40215 C 1858.16 -3.49432 4.70418 0
M  V30 40216 N 1858.11 -3.32099 3.22613 0
M  V30 40217 H 1860.95 -6.54213 5.71376 0
M  V30 40218 H 1861.22 -5.30936 4.43503 0
M  V30 40219 H 1860.35 -4.55889 6.76652 0
M  V30 40220 H 1857.7 -2.61715 5.17932 0
M  V30 40221 H 1857.42 -5.52155 4.41878 0
M  V30 40222 H 1856.43 -4.51981 5.53374 0
M  V30 40223 H 1858.26 -6.25124 6.55234 0
M  V30 40224 P 1856.39 -4.23843 7.83734 0
M  V30 40225 O 1856.17 -4.19407 9.29784 0
M  V30 40226 O 1855.6 -5.24426 7.09156 0
M  V30 40227 O 1856.14 -2.7935 7.20758 0
M  V30 40228 C 1857.08 -1.7299 7.50419 0
M  V30 40229 C 1856.35 -0.406376 7.57911 0
M  V30 40230 O 1856.14 0.0897726 6.21935 0
M  V30 40231 C 1854.95 -0.447224 8.1878 0
M  V30 40232 O 1854.56 0.825065 8.71101 0
M  V30 40233 C 1854.07 -0.783801 6.99623 0
M  V30 40234 C 1854.78 -0.0619192 5.85967 0
M  V30 40235 N 1854.73 -0.790462 4.56202 0
M  V30 40236 H 1857.57 -1.93423 8.4679 0
M  V30 40237 H 1857.84 -1.68852 6.70877 0
M  V30 40238 H 1856.97 0.289041 8.15388 0
M  V30 40239 H 1854.32 0.927006 5.72848 0
M  V30 40240 H 1854.04 -1.86973 6.82036 0
M  V30 40241 H 1853.05 -0.403953 7.13357 0
M  V30 40242 H 1854.88 -1.20599 8.97534 0
M  V30 40243 P 1853.01 1.17771 8.83182 0
M  V30 40244 O 1852.79 2.07206 9.98732 0
M  V30 40245 O 1852.22 -0.0743816 8.81969 0
M  V30 40246 O 1852.76 1.97652 7.47304 0
M  V30 40247 C 1853.7 3.01133 7.08783 0
M  V30 40248 C 1852.97 4.12613 6.37049 0
M  V30 40249 O 1852.76 3.72827 4.97879 0
M  V30 40250 C 1851.57 4.45085 6.88694 0
M  V30 40251 O 1851.18 5.7877 6.5624 0
M  V30 40252 C 1850.69 3.47817 6.12078 0
M  V30 40253 C 1851.4 3.39414 4.77697 0
M  V30 40254 N 1851.35 2.04615 4.15333 0
M  V30 40255 H 1854.19 3.41248 7.98759 0
M  V30 40256 H 1854.46 2.5837 6.41742 0
M  V30 40257 H 1853.59 5.02657 6.42673 0
M  V30 40258 P 1849.63 6.144 6.45285 0
M  V30 40259 O 1849.41 7.54673 6.86199 0
M  V30 40260 O 1848.84 5.12391 7.179 0
M  V30 40261 O 1849.38 5.99158 4.88404 0
M  V30 40262 C 1850.32 6.60234 3.96415 0
M  V30 40263 C 1849.59 7.08259 2.72856 0
M  V30 40264 O 1849.38 5.9427 1.83651 0
M  V30 40265 C 1848.19 7.64886 2.9555 0
M  V30 40266 O 1847.8 8.53963 1.90717 0
M  V30 40267 C 1847.31 6.4116 2.90739 0
M  V30 40268 C 1848.02 5.55375 1.86963 0
M  V30 40269 N 1847.97 4.09664 2.15742 0
M  V30 40270 H 1850.81 7.45574 4.45629 0
M  V30 40271 H 1851.08 5.86232 3.67314 0
M  V30 40272 H 1850.21 7.84412 2.24479 0
M  V30 40273 P 1846.25 8.7635 1.60911 0
M  V30 40274 O 1846.03 10.1388 1.11561 0
M  V30 40275 O 1845.46 8.36503 2.79617 0
M  V30 40276 O 1846 7.71806 0.42951 0
M  V30 40277 C 1846.94 7.66948 -0.673514 0
M  V30 40278 C 1846.21 7.33374 -1.95559 0
M  V30 40279 O 1846 5.88721 -2.00726 0
M  V30 40280 C 1844.81 7.92218 -2.1125 0
M  V30 40281 O 1844.42 8.02971 -3.47653 0
M  V30 40282 C 1843.93 6.89504 -1.41631 0
M  V30 40283 C 1844.64 5.59106 -1.75155 0
M  V30 40284 N 1844.59 4.58136 -0.662409 0
M  V30 40285 C 1844.44 3.26059 -1.02863 0
M  V30 40286 O 1844.35 2.90743 -2.19009 0
M  V30 40287 N 1844.4 2.35995 0.0155585 0
M  V30 40288 C 1844.49 2.65248 1.35603 0
M  V30 40289 O 1844.44 1.75605 2.20651 0
M  V30 40290 C 1844.64 4.05747 1.64698 0
M  V30 40291 C 1844.75 4.42345 3.09553 0
M  V30 40292 C 1844.69 4.96734 0.652411 0
M  V30 40293 H 1847.43 8.64917 -0.776982 0
M  V30 40294 H 1847.7 6.89974 -0.474015 0
M  V30 40295 H 1846.83 7.66548 -2.79458 0
M  V30 40296 H 1844.18 5.16076 -2.65138 0
M  V30 40297 H 1843.9 7.06433 -0.329384 0
M  V30 40298 H 1842.91 6.90829 -1.81996 0
M  V30 40299 H 1844.74 8.90774 -1.62639 0
M  V30 40300 H 1844.81 6.02181 0.895285 0
M  V30 40301 H 1843.78 4.80252 3.45468 0
M  V30 40302 H 1845.52 5.20015 3.22119 0
M  V30 40303 H 1845.03 3.53269 3.67833 0
M  V30 40304 H 1844.29 1.39558 -0.227499 0
M  V30 40305 P 1842.87 8.03563 -3.84925 0
M  V30 40306 O 1842.65 8.85821 -5.0569 0
M  V30 40307 O 1842.08 8.41101 -2.65469 0
M  V30 40308 O 1842.62 6.4965 -4.18908 0
M  V30 40309 C 1843.56 5.81037 -5.05421 0
M  V30 40310 C 1842.83 4.78366 -5.89277 0
M  V30 40311 O 1842.62 3.58302 -5.08433 0
M  V30 40312 C 1841.43 5.17448 -6.36119 0
M  V30 40313 O 1841.04 4.45271 -7.53232 0
M  V30 40314 C 1840.55 4.74639 -5.19936 0
M  V30 40315 C 1841.26 3.49432 -4.70418 0
M  V30 40316 N 1841.21 3.31776 -3.22945 0
M  V30 40317 H 1844.05 6.54213 -5.71376 0
M  V30 40318 H 1844.32 5.30492 -4.44033 0
M  V30 40319 H 1843.45 4.55889 -6.76652 0
M  V30 40320 P 1839.49 4.23843 -7.83734 0
M  V30 40321 O 1839.27 4.19407 -9.29784 0
M  V30 40322 O 1838.7 5.24426 -7.09156 0
M  V30 40323 O 1839.24 2.7935 -7.20758 0
M  V30 40324 C 1840.18 1.72945 -7.50224 0
M  V30 40325 C 1839.45 0.406376 -7.57911 0
M  V30 40326 O 1839.24 -0.0897726 -6.21935 0
M  V30 40327 C 1838.05 0.438983 -8.18724 0
M  V30 40328 O 1837.66 -0.825065 -8.71101 0
M  V30 40329 C 1837.17 0.783689 -6.99524 0
M  V30 40330 C 1837.88 0.0619086 -5.85867 0
M  V30 40331 N 1837.83 0.78573 -4.56183 0
M  V30 40332 C 1837.68 0.0292889 -3.41887 0
M  V30 40333 O 1837.59 -1.18445 -3.4419 0
M  V30 40334 N 1837.64 0.744061 -2.23964 0
M  V30 40335 C 1837.73 2.10932 -2.10362 0
M  V30 40336 O 1837.68 2.64117 -0.98825 0
M  V30 40337 C 1837.88 2.8202 -3.34994 0
M  V30 40338 C 1837.99 4.31095 -3.25037 0
M  V30 40339 C 1837.93 2.15547 -4.52261 0
M  V30 40340 H 1840.67 1.93379 -8.46595 0
M  V30 40341 H 1840.94 1.68132 -6.70852 0
M  V30 40342 H 1840.07 -0.289041 -8.15388 0
M  V30 40343 H 1837.42 -0.926847 -5.72749 0
M  V30 40344 H 1837.14 1.86973 -6.82036 0
M  V30 40345 H 1836.15 0.403896 -7.13257 0
M  V30 40346 H 1837.98 1.20585 -8.97435 0
M  V30 40347 H 1838.05 2.71231 -5.45042 0
M  V30 40348 H 1837.02 4.76966 -3.49992 0
M  V30 40349 H 1838.76 4.67047 -3.95024 0
M  V30 40350 H 1838.27 4.58996 -2.22312 0
M  V30 40351 H 1837.53 0.214893 -1.39758 0
M  V30 40352 P 1836.11 -1.17771 -8.83182 0
M  V30 40353 O 1835.89 -2.07206 -9.98732 0
M  V30 40354 O 1835.32 0.0743816 -8.81969 0
M  V30 40355 O 1835.86 -1.97652 -7.47304 0
M  V30 40356 C 1836.8 -3.01133 -7.08783 0
M  V30 40357 C 1836.07 -4.12613 -6.37049 0
M  V30 40358 O 1835.86 -3.72827 -4.97879 0
M  V30 40359 C 1834.67 -4.45085 -6.88694 0
M  V30 40360 O 1834.28 -5.7877 -6.5624 0
M  V30 40361 C 1833.79 -3.47817 -6.12078 0
M  V30 40362 C 1834.5 -3.39414 -4.77697 0
M  V30 40363 N 1834.45 -2.04615 -4.15333 0
M  V30 40364 H 1837.29 -3.41248 -7.98759 0
M  V30 40365 H 1837.56 -2.5837 -6.41742 0
M  V30 40366 H 1836.69 -5.02657 -6.42673 0
M  V30 40367 P 1832.73 -6.144 -6.45285 0
M  V30 40368 O 1832.51 -7.54673 -6.86199 0
M  V30 40369 O 1831.94 -5.12391 -7.179 0
M  V30 40370 O 1832.48 -5.99158 -4.88404 0
M  V30 40371 C 1833.42 -6.60062 -3.96313 0
M  V30 40372 C 1832.69 -7.08259 -2.72856 0
M  V30 40373 O 1832.48 -5.9427 -1.83651 0
M  V30 40374 C 1831.29 -7.65087 -2.94749 0
M  V30 40375 O 1830.9 -8.53963 -1.90717 0
M  V30 40376 C 1830.41 -6.41069 -2.90698 0
M  V30 40377 C 1831.12 -5.5528 -1.86931 0
M  V30 40378 N 1831.07 -4.09575 -2.15696 0
M  V30 40379 C 1830.92 -3.24249 -1.08435 0
M  V30 40380 O 1830.83 -3.63946 0.0628747 0
M  V30 40381 N 1830.88 -1.90009 -1.39973 0
M  V30 40382 C 1830.97 -1.34884 -2.65614 0
M  V30 40383 O 1830.92 -0.123716 -2.81728 0
M  V30 40384 C 1831.12 -2.3145 -3.71736 0
M  V30 40385 C 1831.23 -1.75913 -5.10438 0
M  V30 40386 C 1831.17 -3.63518 -3.44754 0
M  V30 40387 H 1833.91 -7.45402 -4.45526 0
M  V30 40388 H 1834.18 -5.86062 -3.67208 0
M  V30 40389 H 1833.31 -7.84412 -2.24479 0
M  V30 40390 H 1830.66 -5.73358 -0.888409 0
M  V30 40391 H 1830.38 -5.90877 -3.88583 0
M  V30 40392 H 1829.39 -6.65867 -2.58821 0
M  V30 40393 H 1831.22 -8.16248 -3.92006 0
M  V30 40394 H 1831.29 -4.34551 -4.26383 0
M  V30 40395 H 1830.26 -1.85471 -5.61775 0
M  V30 40396 H 1832 -2.31364 -5.66257 0
M  V30 40397 H 1831.51 -0.695936 -5.05229 0
M  V30 40398 H 1830.77 -1.26277 -0.63625 0
M  V30 40399 P 1829.35 -8.7635 -1.60911 0
M  V30 40400 O 1829.13 -10.1388 -1.11561 0
M  V30 40401 O 1828.56 -8.36503 -2.79617 0
M  V30 40402 O 1829.1 -7.71806 -0.42951 0
M  V30 40403 C 1830.04 -7.67148 0.673689 0
M  V30 40404 C 1829.31 -7.33374 1.95559 0
M  V30 40405 O 1829.1 -5.88721 2.00726 0
M  V30 40406 C 1827.91 -7.92526 2.10483 0
M  V30 40407 O 1827.52 -8.02971 3.47653 0
M  V30 40408 C 1827.03 -6.89602 1.41652 0
M  V30 40409 C 1827.74 -5.59201 1.75185 0
M  V30 40410 N 1827.69 -4.58235 0.662552 0
M  V30 40411 H 1830.53 -8.65116 0.777161 0
M  V30 40412 H 1830.8 -6.90173 0.474152 0
M  V30 40413 H 1829.93 -7.66548 2.79458 0
M  V30 40414 P 1825.97 -8.03563 3.84925 0
M  V30 40415 O 1825.75 -8.85821 5.0569 0
M  V30 40416 O 1825.18 -8.41101 2.65469 0
M  V30 40417 O 1825.72 -6.4965 4.18908 0
M  V30 40418 C 1826.66 -5.81037 5.05421 0
M  V30 40419 C 1825.93 -4.78366 5.89277 0
M  V30 40420 O 1825.72 -3.58302 5.08433 0
M  V30 40421 C 1824.53 -5.17448 6.36119 0
M  V30 40422 O 1824.14 -4.45271 7.53232 0
M  V30 40423 C 1823.65 -4.74639 5.19936 0
M  V30 40424 C 1824.36 -3.49432 4.70418 0
M  V30 40425 N 1824.31 -3.31776 3.22945 0
M  V30 40426 H 1827.15 -6.54213 5.71376 0
M  V30 40427 H 1827.42 -5.30492 4.44033 0
M  V30 40428 H 1826.55 -4.55889 6.76652 0
M  V30 40429 P 1822.59 -4.23843 7.83734 0
M  V30 40430 O 1822.37 -4.19407 9.29784 0
M  V30 40431 O 1821.8 -5.24426 7.09156 0
M  V30 40432 O 1822.34 -2.7935 7.20758 0
M  V30 40433 C 1823.28 -1.7299 7.50419 0
M  V30 40434 C 1822.55 -0.406376 7.57911 0
M  V30 40435 O 1822.34 0.0897726 6.21935 0
M  V30 40436 C 1821.15 -0.447224 8.1878 0
M  V30 40437 O 1820.76 0.825065 8.71101 0
M  V30 40438 C 1820.27 -0.783801 6.99623 0
M  V30 40439 C 1820.98 -0.0619192 5.85967 0
M  V30 40440 N 1820.93 -0.790462 4.56202 0
M  V30 40441 H 1823.77 -1.93423 8.4679 0
M  V30 40442 H 1824.04 -1.68852 6.70877 0
M  V30 40443 H 1823.17 0.289041 8.15388 0
M  V30 40444 H 1820.52 0.927006 5.72848 0
M  V30 40445 H 1820.24 -1.86973 6.82036 0
M  V30 40446 H 1819.25 -0.403953 7.13357 0
M  V30 40447 H 1821.08 -1.20599 8.97534 0
M  V30 40448 P 1819.21 1.17771 8.83182 0
M  V30 40449 O 1818.99 2.07206 9.98732 0
M  V30 40450 O 1818.42 -0.0743816 8.81969 0
M  V30 40451 O 1818.96 1.97652 7.47304 0
M  V30 40452 C 1819.9 3.01133 7.08783 0
M  V30 40453 C 1819.17 4.12613 6.37049 0
M  V30 40454 O 1818.96 3.72827 4.97879 0
M  V30 40455 C 1817.77 4.45085 6.88694 0
M  V30 40456 O 1817.38 5.7877 6.5624 0
M  V30 40457 C 1816.89 3.47817 6.12078 0
M  V30 40458 C 1817.6 3.39414 4.77697 0
M  V30 40459 N 1817.55 2.04615 4.15333 0
M  V30 40460 C 1817.63 0.803897 4.75249 0
M  V30 40461 N 1817.55 -0.197615 3.91502 0
M  V30 40462 C 1817.41 0.413002 2.66823 0
M  V30 40463 C 1817.28 -0.157221 1.38007 0
M  V30 40464 N 1817.16 0.833136 0.390236 0
M  V30 40465 C 1817.16 2.19402 0.623885 0
M  V30 40466 N 1817.03 2.97622 -0.449677 0
M  V30 40467 N 1817.29 2.73005 1.83601 0
M  V30 40468 C 1817.41 1.78786 2.80935 0
M  V30 40469 H 1820.39 3.41248 7.98759 0
M  V30 40470 H 1820.66 2.5837 6.41742 0
M  V30 40471 H 1819.79 5.02657 6.42673 0
M  V30 40472 P 1815.83 6.144 6.45285 0
M  V30 40473 O 1815.61 7.54673 6.86199 0
M  V30 40474 O 1815.04 5.12391 7.179 0
M  V30 40475 O 1815.58 5.99158 4.88404 0
M  V30 40476 C 1816.52 6.60234 3.96415 0
M  V30 40477 C 1815.79 7.08259 2.72856 0
M  V30 40478 O 1815.58 5.9427 1.83651 0
M  V30 40479 C 1814.39 7.64886 2.9555 0
M  V30 40480 O 1814 8.53963 1.90717 0
M  V30 40481 C 1813.51 6.4116 2.90739 0
M  V30 40482 C 1814.22 5.55375 1.86963 0
M  V30 40483 N 1814.17 4.09448 2.16152 0
M  V30 40484 H 1817.01 7.45574 4.45629 0
M  V30 40485 H 1817.28 5.85864 3.679 0
M  V30 40486 H 1816.41 7.84412 2.24479 0
M  V30 40487 H 1813.76 5.73457 0.888562 0
M  V30 40488 H 1813.48 5.90877 3.88583 0
M  V30 40489 H 1812.49 6.6596 2.58858 0
M  V30 40490 H 1814.32 8.16339 3.92049 0
M  V30 40491 P 1812.45 8.7635 1.60911 0
M  V30 40492 O 1812.23 10.1388 1.11561 0
M  V30 40493 O 1811.66 8.36503 2.79617 0
M  V30 40494 O 1812.2 7.71806 0.42951 0
M  V30 40495 C 1813.14 7.67148 -0.673689 0
M  V30 40496 C 1812.41 7.33374 -1.95559 0
M  V30 40497 O 1812.2 5.88721 -2.00726 0
M  V30 40498 C 1811.01 7.92526 -2.10483 0
M  V30 40499 O 1810.62 8.02971 -3.47653 0
M  V30 40500 C 1810.13 6.89602 -1.41652 0
M  V30 40501 C 1810.84 5.59201 -1.75185 0
M  V30 40502 N 1810.79 4.58301 -0.657969 0
M  V30 40503 H 1813.63 8.65116 -0.777161 0
M  V30 40504 H 1813.9 6.9022 -0.46725 0
M  V30 40505 H 1813.03 7.66548 -2.79458 0
M  V30 40506 H 1810.38 5.16165 -2.65183 0
M  V30 40507 H 1810.1 7.06433 -0.329384 0
M  V30 40508 H 1809.11 6.90926 -1.82021 0
M  V30 40509 H 1810.94 8.90873 -1.62657 0
M  V30 40510 P 1809.07 8.03563 -3.84925 0
M  V30 40511 O 1808.85 8.85821 -5.0569 0
M  V30 40512 O 1808.28 8.41101 -2.65469 0
M  V30 40513 O 1808.82 6.4965 -4.18908 0
M  V30 40514 C 1809.76 5.81037 -5.05421 0
M  V30 40515 C 1809.03 4.78366 -5.89277 0
M  V30 40516 O 1808.82 3.58302 -5.08433 0
M  V30 40517 C 1807.63 5.17448 -6.36119 0
M  V30 40518 O 1807.24 4.45271 -7.53232 0
M  V30 40519 C 1806.75 4.74639 -5.19936 0
M  V30 40520 C 1807.46 3.49432 -4.70418 0
M  V30 40521 N 1807.41 3.31776 -3.22945 0
M  V30 40522 H 1810.25 6.54213 -5.71376 0
M  V30 40523 H 1810.52 5.30492 -4.44033 0
M  V30 40524 H 1809.65 4.55889 -6.76652 0
M  V30 40525 P 1805.69 4.23843 -7.83734 0
M  V30 40526 O 1805.47 4.19407 -9.29784 0
M  V30 40527 O 1804.9 5.24426 -7.09156 0
M  V30 40528 O 1805.44 2.7935 -7.20758 0
M  V30 40529 C 1806.38 1.7299 -7.50419 0
M  V30 40530 C 1805.65 0.406376 -7.57911 0
M  V30 40531 O 1805.44 -0.0897726 -6.21935 0
M  V30 40532 C 1804.25 0.447224 -8.1878 0
M  V30 40533 O 1803.86 -0.825065 -8.71101 0
M  V30 40534 C 1803.37 0.783801 -6.99623 0
M  V30 40535 C 1804.08 0.0619192 -5.85967 0
M  V30 40536 N 1804.03 0.790462 -4.56202 0
M  V30 40537 H 1806.87 1.93423 -8.4679 0
M  V30 40538 H 1807.14 1.68852 -6.70877 0
M  V30 40539 H 1806.27 -0.289041 -8.15388 0
M  V30 40540 H 1803.62 -0.927006 -5.72848 0
M  V30 40541 H 1803.34 1.86973 -6.82036 0
M  V30 40542 H 1802.35 0.403953 -7.13357 0
M  V30 40543 H 1804.18 1.20599 -8.97534 0
M  V30 40544 P 1802.31 -1.17771 -8.83182 0
M  V30 40545 O 1802.09 -2.07206 -9.98732 0
M  V30 40546 O 1801.52 0.0743816 -8.81969 0
M  V30 40547 O 1802.06 -1.97652 -7.47304 0
M  V30 40548 C 1803 -3.01133 -7.08783 0
M  V30 40549 C 1802.27 -4.12613 -6.37049 0
M  V30 40550 O 1802.06 -3.72827 -4.97879 0
M  V30 40551 C 1800.87 -4.45085 -6.88694 0
M  V30 40552 O 1800.48 -5.7877 -6.5624 0
M  V30 40553 C 1799.99 -3.47817 -6.12078 0
M  V30 40554 C 1800.7 -3.39414 -4.77697 0
M  V30 40555 N 1800.65 -2.04615 -4.15333 0
M  V30 40556 H 1803.49 -3.41248 -7.98759 0
M  V30 40557 H 1803.76 -2.5837 -6.41742 0
M  V30 40558 H 1802.89 -5.02657 -6.42673 0
M  V30 40559 P 1798.93 -6.144 -6.45285 0
M  V30 40560 O 1798.71 -7.54673 -6.86199 0
M  V30 40561 O 1798.14 -5.12391 -7.179 0
M  V30 40562 O 1798.68 -5.99158 -4.88404 0
M  V30 40563 C 1799.62 -6.60234 -3.96415 0
M  V30 40564 C 1798.89 -7.08259 -2.72856 0
M  V30 40565 O 1798.68 -5.9427 -1.83651 0
M  V30 40566 C 1797.49 -7.64886 -2.9555 0
M  V30 40567 O 1797.1 -8.53963 -1.90717 0
M  V30 40568 C 1796.61 -6.4116 -2.90739 0
M  V30 40569 C 1797.32 -5.55375 -1.86963 0
M  V30 40570 N 1797.27 -4.09448 -2.16152 0
M  V30 40571 H 1800.11 -7.45574 -4.45629 0
M  V30 40572 H 1800.38 -5.85864 -3.679 0
M  V30 40573 H 1799.51 -7.84412 -2.24479 0
M  V30 40574 H 1796.86 -5.73457 -0.888562 0
M  V30 40575 H 1796.58 -5.90877 -3.88583 0
M  V30 40576 H 1795.59 -6.6596 -2.58858 0
M  V30 40577 H 1797.42 -8.16339 -3.92049 0
M  V30 40578 P 1795.55 -8.7635 -1.60911 0
M  V30 40579 O 1795.33 -10.1388 -1.11561 0
M  V30 40580 O 1794.76 -8.36503 -2.79617 0
M  V30 40581 O 1795.3 -7.71806 -0.42951 0
M  V30 40582 C 1796.24 -7.67148 0.673689 0
M  V30 40583 C 1795.51 -7.33374 1.95559 0
M  V30 40584 O 1795.3 -5.88721 2.00726 0
M  V30 40585 C 1794.11 -7.92526 2.10483 0
M  V30 40586 O 1793.72 -8.02971 3.47653 0
M  V30 40587 C 1793.23 -6.89602 1.41652 0
M  V30 40588 C 1793.94 -5.59201 1.75185 0
M  V30 40589 N 1793.89 -4.58301 0.657969 0
M  V30 40590 H 1796.73 -8.65116 0.777161 0
M  V30 40591 H 1797 -6.9022 0.46725 0
M  V30 40592 H 1796.13 -7.66548 2.79458 0
M  V30 40593 H 1793.48 -5.16165 2.65183 0
M  V30 40594 H 1793.2 -7.06433 0.329384 0
M  V30 40595 H 1792.21 -6.90926 1.82021 0
M  V30 40596 H 1794.04 -8.90873 1.62657 0
M  V30 40597 P 1792.17 -8.03563 3.84925 0
M  V30 40598 O 1791.95 -8.85821 5.0569 0
M  V30 40599 O 1791.38 -8.41101 2.65469 0
M  V30 40600 O 1791.92 -6.4965 4.18908 0
M  V30 40601 C 1792.86 -5.81037 5.05421 0
M  V30 40602 C 1792.13 -4.78366 5.89277 0
M  V30 40603 O 1791.92 -3.58302 5.08433 0
M  V30 40604 C 1790.73 -5.17448 6.36119 0
M  V30 40605 O 1790.34 -4.45271 7.53232 0
M  V30 40606 C 1789.85 -4.74639 5.19936 0
M  V30 40607 C 1790.56 -3.49432 4.70418 0
M  V30 40608 N 1790.51 -3.32099 3.22613 0
M  V30 40609 C 1790.59 -4.28245 2.25527 0
M  V30 40610 N 1790.52 -3.80823 1.04874 0
M  V30 40611 C 1790.37 -2.44571 1.23535 0
M  V30 40612 C 1790.24 -1.37068 0.330675 0
M  V30 40613 N 1790.23 -1.51472 -0.990824 0
M  V30 40614 N 1790.12 -0.138614 0.848756 0
M  V30 40615 C 1790.13 0.00675923 2.16999 0
M  V30 40616 N 1790.25 -0.904372 3.11122 0
M  V30 40617 C 1790.37 -2.12707 2.56212 0
M  V30 40618 H 1793.35 -6.54213 5.71376 0
M  V30 40619 H 1793.62 -5.30936 4.43503 0
M  V30 40620 H 1792.75 -4.55889 6.76652 0
M  V30 40621 H 1790.1 -2.61715 5.17932 0
M  V30 40622 H 1789.82 -5.52155 4.41878 0
M  V30 40623 H 1788.83 -4.51981 5.53374 0
M  V30 40624 H 1790.66 -6.25124 6.55234 0
M  V30 40625 H 1790.7 -5.34372 2.47488 0
M  V30 40626 H 1790.32 -2.45153 -1.4078 0
M  V30 40627 H 1790.13 -0.688422 -1.59911 0
M  V30 40628 H 1790.02 1.02584 2.52346 0
M  V30 40629 P 1788.79 -4.23843 7.83734 0
M  V30 40630 O 1788.57 -4.19407 9.29784 0
M  V30 40631 O 1788 -5.24426 7.09156 0
M  V30 40632 O 1788.54 -2.7935 7.20758 0
M  V30 40633 C 1789.48 -1.7299 7.50419 0
M  V30 40634 C 1788.75 -0.406376 7.57911 0
M  V30 40635 O 1788.54 0.0897726 6.21935 0
M  V30 40636 C 1787.35 -0.447224 8.1878 0
M  V30 40637 O 1786.96 0.825065 8.71101 0
M  V30 40638 C 1786.47 -0.783801 6.99623 0
M  V30 40639 C 1787.18 -0.0619192 5.85967 0
M  V30 40640 N 1787.13 -0.7859 4.56281 0
M  V30 40641 H 1789.97 -1.93423 8.4679 0
M  V30 40642 H 1790.24 -1.68181 6.71046 0
M  V30 40643 H 1789.37 0.289041 8.15388 0
M  V30 40644 P 1785.41 1.17771 8.83182 0
M  V30 40645 O 1785.19 2.07206 9.98732 0
M  V30 40646 O 1784.62 -0.0743816 8.81969 0
M  V30 40647 O 1785.16 1.97652 7.47304 0
M  V30 40648 C 1786.1 3.01133 7.08783 0
M  V30 40649 C 1785.37 4.12613 6.37049 0
M  V30 40650 O 1785.16 3.72827 4.97879 0
M  V30 40651 C 1783.97 4.45085 6.88694 0
M  V30 40652 O 1783.58 5.7877 6.5624 0
M  V30 40653 C 1783.09 3.47817 6.12078 0
M  V30 40654 C 1783.8 3.39414 4.77697 0
M  V30 40655 N 1783.75 2.04615 4.15333 0
M  V30 40656 H 1786.59 3.41248 7.98759 0
M  V30 40657 H 1786.86 2.5837 6.41742 0
M  V30 40658 H 1785.99 5.02657 6.42673 0
M  V30 40659 P 1782.03 6.144 6.45285 0
M  V30 40660 O 1781.81 7.54673 6.86199 0
M  V30 40661 O 1781.24 5.12391 7.179 0
M  V30 40662 O 1781.78 5.99236 4.88467 0
M  V30 40663 C 1782.72 6.60234 3.96415 0
M  V30 40664 C 1781.99 7.08079 2.736 0
M  V30 40665 O 1781.78 5.94365 1.8368 0
M  V30 40666 C 1780.59 7.64886 2.9555 0
M  V30 40667 O 1780.2 8.5406 1.90739 0
M  V30 40668 C 1779.71 6.4116 2.90739 0
M  V30 40669 C 1780.42 5.55375 1.86963 0
M  V30 40670 N 1780.37 4.09664 2.15742 0
M  V30 40671 C 1780.22 3.22231 1.08477 0
M  V30 40672 O 1780.13 3.68951 -0.0600489 0
M  V30 40673 N 1780.17 1.76692 1.48799 0
M  V30 40674 C 1780.27 1.41695 2.57602 0
M  V30 40675 N 1780.22 0.107296 2.75791 0
M  V30 40676 C 1780.42 2.29178 3.69733 0
M  V30 40677 C 1780.47 3.62753 3.42653 0
M  V30 40678 H 1783.21 7.45488 4.45578 0
M  V30 40679 H 1783.48 5.86232 3.67314 0
M  V30 40680 H 1782.61 7.84508 2.24507 0
M  V30 40681 H 1779.96 5.73556 0.888715 0
M  V30 40682 H 1779.68 5.9096 3.88638 0
M  V30 40683 H 1778.69 6.66053 2.58894 0
M  V30 40684 H 1780.52 8.16339 3.92049 0
M  V30 40685 H 1780.59 4.33052 4.24913 0
M  V30 40686 H 1780.49 1.9103 4.71577 0
M  V30 40687 H 1780.1 -0.521221 1.95056 0
M  V30 40688 H 1780.3 -0.286429 3.70695 0
M  V30 40689 P 1778.65 8.7635 1.60911 0
M  V30 40690 O 1778.43 10.1388 1.11561 0
M  V30 40691 O 1777.86 8.36503 2.79617 0
M  V30 40692 O 1778.4 7.71806 0.42951 0
M  V30 40693 C 1779.34 7.67148 -0.673689 0
M  V30 40694 C 1778.61 7.33374 -1.95559 0
M  V30 40695 O 1778.4 5.88721 -2.00726 0
M  V30 40696 C 1777.21 7.92526 -2.10483 0
M  V30 40697 O 1776.82 8.02971 -3.47653 0
M  V30 40698 C 1776.33 6.89602 -1.41652 0
M  V30 40699 C 1777.04 5.59201 -1.75185 0
M  V30 40700 N 1776.99 4.58235 -0.662552 0
M  V30 40701 C 1777.07 4.7683 0.704049 0
M  V30 40702 N 1776.99 3.66233 1.39775 0
M  V30 40703 C 1776.85 2.66526 0.431739 0
M  V30 40704 C 1776.72 1.26394 0.575992 0
M  V30 40705 N 1776.6 0.62859 -0.67177 0
M  V30 40706 C 1776.6 1.27134 -1.89385 0
M  V30 40707 N 1776.47 0.492035 -2.96951 0
M  V30 40708 N 1776.73 2.58978 -2.02907 0
M  V30 40709 C 1776.85 3.22433 -0.832218 0
M  V30 40710 H 1779.83 8.65116 -0.777161 0
M  V30 40711 H 1780.1 6.90173 -0.474152 0
M  V30 40712 H 1779.23 7.66548 -2.79458 0
M  V30 40713 P 1775.27 8.03563 -3.84925 0
M  V30 40714 O 1775.05 8.85821 -5.0569 0
M  V30 40715 O 1774.48 8.41101 -2.65469 0
M  V30 40716 O 1775.02 6.4965 -4.18908 0
M  V30 40717 C 1775.96 5.81037 -5.05421 0
M  V30 40718 C 1775.23 4.78366 -5.89277 0
M  V30 40719 O 1775.02 3.58302 -5.08433 0
M  V30 40720 C 1773.83 5.17448 -6.36119 0
M  V30 40721 O 1773.44 4.45271 -7.53232 0
M  V30 40722 C 1772.95 4.74639 -5.19936 0
M  V30 40723 C 1773.66 3.49432 -4.70418 0
M  V30 40724 N 1773.61 3.31776 -3.22945 0
M  V30 40725 H 1776.45 6.54213 -5.71376 0
M  V30 40726 H 1776.72 5.30492 -4.44033 0
M  V30 40727 H 1775.85 4.55889 -6.76652 0
M  V30 40728 P 1771.89 4.23843 -7.83734 0
M  V30 40729 O 1771.67 4.19407 -9.29784 0
M  V30 40730 O 1771.1 5.24426 -7.09156 0
M  V30 40731 O 1771.64 2.7935 -7.20758 0
M  V30 40732 C 1772.58 1.7299 -7.50419 0
M  V30 40733 C 1771.85 0.406376 -7.57911 0
M  V30 40734 O 1771.64 -0.0897726 -6.21935 0
M  V30 40735 C 1770.45 0.447224 -8.1878 0
M  V30 40736 O 1770.06 -0.825065 -8.71101 0
M  V30 40737 C 1769.57 0.783801 -6.99623 0
M  V30 40738 C 1770.28 0.0619192 -5.85967 0
M  V30 40739 N 1770.23 0.790462 -4.56202 0
M  V30 40740 H 1773.07 1.93423 -8.4679 0
M  V30 40741 H 1773.34 1.68852 -6.70877 0
M  V30 40742 H 1772.47 -0.289041 -8.15388 0
M  V30 40743 H 1769.82 -0.927006 -5.72848 0
M  V30 40744 H 1769.54 1.86973 -6.82036 0
M  V30 40745 H 1768.55 0.403953 -7.13357 0
M  V30 40746 H 1770.38 1.20599 -8.97534 0
M  V30 40747 P 1768.51 -1.17771 -8.83182 0
M  V30 40748 O 1768.29 -2.07206 -9.98732 0
M  V30 40749 O 1767.72 0.0743816 -8.81969 0
M  V30 40750 O 1768.26 -1.97652 -7.47304 0
M  V30 40751 C 1769.2 -3.01133 -7.08783 0
M  V30 40752 C 1768.47 -4.12613 -6.37049 0
M  V30 40753 O 1768.26 -3.72827 -4.97879 0
M  V30 40754 C 1767.07 -4.45085 -6.88694 0
M  V30 40755 O 1766.68 -5.7877 -6.5624 0
M  V30 40756 C 1766.19 -3.47817 -6.12078 0
M  V30 40757 C 1766.9 -3.39414 -4.77697 0
M  V30 40758 N 1766.85 -2.04615 -4.15333 0
M  V30 40759 H 1769.69 -3.41248 -7.98759 0
M  V30 40760 H 1769.96 -2.5837 -6.41742 0
M  V30 40761 H 1769.09 -5.02657 -6.42673 0
M  V30 40762 P 1765.13 -6.144 -6.45285 0
M  V30 40763 O 1764.91 -7.54673 -6.86199 0
M  V30 40764 O 1764.34 -5.12391 -7.179 0
M  V30 40765 O 1764.88 -5.99158 -4.88404 0
M  V30 40766 C 1765.82 -6.60234 -3.96415 0
M  V30 40767 C 1765.09 -7.08259 -2.72856 0
M  V30 40768 O 1764.88 -5.9427 -1.83651 0
M  V30 40769 C 1763.69 -7.64886 -2.9555 0
M  V30 40770 O 1763.3 -8.53963 -1.90717 0
M  V30 40771 C 1762.81 -6.4116 -2.90739 0
M  V30 40772 C 1763.52 -5.55375 -1.86963 0
M  V30 40773 N 1763.47 -4.09664 -2.15742 0
M  V30 40774 H 1766.31 -7.45574 -4.45629 0
M  V30 40775 H 1766.58 -5.86232 -3.67314 0
M  V30 40776 H 1765.71 -7.84412 -2.24479 0
M  V30 40777 P 1761.75 -8.7635 -1.60911 0
M  V30 40778 O 1761.53 -10.1388 -1.11561 0
M  V30 40779 O 1760.96 -8.36503 -2.79617 0
M  V30 40780 O 1761.5 -7.71806 -0.42951 0
M  V30 40781 C 1762.44 -7.67148 0.673689 0
M  V30 40782 C 1761.71 -7.33374 1.95559 0
M  V30 40783 O 1761.5 -5.88721 2.00726 0
M  V30 40784 C 1760.31 -7.92526 2.10483 0
M  V30 40785 O 1759.92 -8.02971 3.47653 0
M  V30 40786 C 1759.43 -6.89602 1.41652 0
M  V30 40787 C 1760.14 -5.59201 1.75185 0
M  V30 40788 N 1760.09 -4.58235 0.662552 0
M  V30 40789 H 1762.93 -8.65116 0.777161 0
M  V30 40790 H 1763.2 -6.90173 0.474152 0
M  V30 40791 H 1762.33 -7.66548 2.79458 0
M  V30 40792 P 1758.37 -8.03563 3.84925 0
M  V30 40793 O 1758.15 -8.85821 5.0569 0
M  V30 40794 O 1757.58 -8.41101 2.65469 0
M  V30 40795 O 1758.12 -6.4965 4.18908 0
M  V30 40796 C 1759.06 -5.81037 5.05421 0
M  V30 40797 C 1758.33 -4.78366 5.89277 0
M  V30 40798 O 1758.12 -3.58302 5.08433 0
M  V30 40799 C 1756.93 -5.17448 6.36119 0
M  V30 40800 O 1756.54 -4.45271 7.53232 0
M  V30 40801 C 1756.05 -4.74639 5.19936 0
M  V30 40802 C 1756.76 -3.49432 4.70418 0
M  V30 40803 N 1756.71 -3.31776 3.22945 0
M  V30 40804 H 1759.55 -6.54213 5.71376 0
M  V30 40805 H 1759.82 -5.30492 4.44033 0
M  V30 40806 H 1758.95 -4.55889 6.76652 0
M  V30 40807 P 1754.99 -4.23843 7.83734 0
M  V30 40808 O 1754.77 -4.19407 9.29784 0
M  V30 40809 O 1754.2 -5.24426 7.09156 0
M  V30 40810 O 1754.74 -2.79386 7.20852 0
M  V30 40811 C 1755.68 -1.7299 7.50419 0
M  V30 40812 C 1754.95 -0.41401 7.5797 0
M  V30 40813 O 1754.74 0.089787 6.22035 0
M  V30 40814 C 1753.55 -0.447224 8.1878 0
M  V30 40815 O 1753.16 0.825159 8.71201 0
M  V30 40816 C 1752.67 -0.783801 6.99623 0
M  V30 40817 C 1753.38 -0.0619192 5.85967 0
M  V30 40818 N 1753.33 -0.7859 4.56281 0
M  V30 40819 C 1753.18 -0.0359258 3.39981 0
M  V30 40820 O 1753.09 1.19723 3.49038 0
M  V30 40821 N 1753.13 -0.869151 2.14025 0
M  V30 40822 C 1753.23 -2.01207 2.14363 0
M  V30 40823 N 1753.18 -2.58978 0.954287 0
M  V30 40824 C 1753.38 -2.80817 3.32215 0
M  V30 40825 C 1753.43 -2.13785 4.50884 0
M  V30 40826 H 1756.17 -1.93401 8.46693 0
M  V30 40827 H 1756.44 -1.68181 6.71046 0
M  V30 40828 H 1755.57 0.289076 8.15488 0
M  V30 40829 H 1752.92 0.927166 5.72947 0
M  V30 40830 H 1752.64 -1.87 6.82132 0
M  V30 40831 H 1751.65 -0.404009 7.13457 0
M  V30 40832 H 1753.48 -1.20599 8.97534 0
M  V30 40833 H 1753.55 -2.70295 5.43162 0
M  V30 40834 H 1753.45 -3.89465 3.27406 0
M  V30 40835 H 1753.06 -2.01616 0.107046 0
M  V30 40836 H 1753.26 -3.61403 0.873101 0
M  V30 40837 P 1751.61 1.17771 8.83182 0
M  V30 40838 O 1751.39 2.07206 9.98732 0
M  V30 40839 O 1750.82 -0.0743816 8.81969 0
M  V30 40840 O 1751.36 1.97652 7.47304 0
M  V30 40841 C 1752.3 3.01133 7.08783 0
M  V30 40842 C 1751.57 4.12613 6.37049 0
M  V30 40843 O 1751.36 3.72827 4.97879 0
M  V30 40844 C 1750.17 4.45085 6.88694 0
M  V30 40845 O 1749.78 5.7877 6.5624 0
M  V30 40846 C 1749.29 3.47817 6.12078 0
M  V30 40847 C 1750 3.39414 4.77697 0
M  V30 40848 N 1749.95 2.04615 4.15333 0
M  V30 40849 H 1752.79 3.41248 7.98759 0
M  V30 40850 H 1753.06 2.5837 6.41742 0
M  V30 40851 H 1752.19 5.02657 6.42673 0
M  V30 40852 P 1748.23 6.144 6.45285 0
M  V30 40853 O 1748.01 7.54673 6.86199 0
M  V30 40854 O 1747.44 5.12391 7.179 0
M  V30 40855 O 1747.98 5.99158 4.88404 0
M  V30 40856 C 1748.92 6.60234 3.96415 0
M  V30 40857 C 1748.19 7.08259 2.72856 0
M  V30 40858 O 1747.98 5.9427 1.83651 0
M  V30 40859 C 1746.79 7.64886 2.9555 0
M  V30 40860 O 1746.4 8.53963 1.90717 0
M  V30 40861 C 1745.91 6.4116 2.90739 0
M  V30 40862 C 1746.62 5.55375 1.86963 0
M  V30 40863 N 1746.57 4.09664 2.15742 0
M  V30 40864 H 1749.41 7.45574 4.45629 0
M  V30 40865 H 1749.68 5.86232 3.67314 0
M  V30 40866 H 1748.81 7.84412 2.24479 0
M  V30 40867 P 1744.85 8.7635 1.60911 0
M  V30 40868 O 1744.63 10.1388 1.11561 0
M  V30 40869 O 1744.06 8.36503 2.79617 0
M  V30 40870 O 1744.6 7.71806 0.42951 0
M  V30 40871 C 1745.54 7.67148 -0.673689 0
M  V30 40872 C 1744.81 7.33374 -1.95559 0
M  V30 40873 O 1744.6 5.88721 -2.00726 0
M  V30 40874 C 1743.41 7.92526 -2.10483 0
M  V30 40875 O 1743.02 8.02971 -3.47653 0
M  V30 40876 C 1742.53 6.89602 -1.41652 0
M  V30 40877 C 1743.24 5.59201 -1.75185 0
M  V30 40878 N 1743.19 4.58301 -0.657969 0
M  V30 40879 H 1746.03 8.65116 -0.777161 0
M  V30 40880 H 1746.3 6.9022 -0.46725 0
M  V30 40881 H 1745.43 7.66548 -2.79458 0
M  V30 40882 H 1742.78 5.16165 -2.65183 0
M  V30 40883 H 1742.5 7.06433 -0.329384 0
M  V30 40884 H 1741.51 6.90926 -1.82021 0
M  V30 40885 H 1743.34 8.90873 -1.62657 0
M  V30 40886 P 1741.47 8.03563 -3.84925 0
M  V30 40887 O 1741.25 8.85821 -5.0569 0
M  V30 40888 O 1740.68 8.41101 -2.65469 0
M  V30 40889 O 1741.22 6.4965 -4.18908 0
M  V30 40890 C 1742.16 5.81037 -5.05421 0
M  V30 40891 C 1741.43 4.78366 -5.89277 0
M  V30 40892 O 1741.22 3.58302 -5.08433 0
M  V30 40893 C 1740.03 5.17448 -6.36119 0
M  V30 40894 O 1739.64 4.45271 -7.53232 0
M  V30 40895 C 1739.15 4.74639 -5.19936 0
M  V30 40896 C 1739.86 3.49432 -4.70418 0
M  V30 40897 N 1739.81 3.31776 -3.22945 0
M  V30 40898 H 1742.65 6.54213 -5.71376 0
M  V30 40899 H 1742.92 5.30492 -4.44033 0
M  V30 40900 H 1742.05 4.55889 -6.76652 0
M  V30 40901 P 1738.09 4.23843 -7.83734 0
M  V30 40902 O 1737.87 4.19407 -9.29784 0
M  V30 40903 O 1737.3 5.24426 -7.09156 0
M  V30 40904 O 1737.84 2.7935 -7.20758 0
M  V30 40905 C 1738.78 1.7299 -7.50419 0
M  V30 40906 C 1738.05 0.406376 -7.57911 0
M  V30 40907 O 1737.84 -0.0897726 -6.21935 0
M  V30 40908 C 1736.65 0.447224 -8.1878 0
M  V30 40909 O 1736.26 -0.825065 -8.71101 0
M  V30 40910 C 1735.77 0.783801 -6.99623 0
M  V30 40911 C 1736.48 0.0619192 -5.85967 0
M  V30 40912 N 1736.43 0.790462 -4.56202 0
M  V30 40913 H 1739.27 1.93423 -8.4679 0
M  V30 40914 H 1739.54 1.68852 -6.70877 0
M  V30 40915 H 1738.67 -0.289041 -8.15388 0
M  V30 40916 H 1736.02 -0.927006 -5.72848 0
M  V30 40917 H 1735.74 1.86973 -6.82036 0
M  V30 40918 H 1734.75 0.403953 -7.13357 0
M  V30 40919 H 1736.58 1.20599 -8.97534 0
M  V30 40920 P 1734.71 -1.17771 -8.83182 0
M  V30 40921 O 1734.49 -2.07206 -9.98732 0
M  V30 40922 O 1733.92 0.0743816 -8.81969 0
M  V30 40923 O 1734.46 -1.97652 -7.47304 0
M  V30 40924 C 1735.4 -3.01133 -7.08783 0
M  V30 40925 C 1734.67 -4.12613 -6.37049 0
M  V30 40926 O 1734.46 -3.72827 -4.97879 0
M  V30 40927 C 1733.27 -4.45085 -6.88694 0
M  V30 40928 O 1732.88 -5.7877 -6.5624 0
M  V30 40929 C 1732.39 -3.47817 -6.12078 0
M  V30 40930 C 1733.1 -3.39414 -4.77697 0
M  V30 40931 N 1733.05 -2.04199 -4.15538 0
M  V30 40932 H 1735.89 -3.41248 -7.98759 0
M  V30 40933 H 1736.16 -2.57728 -6.42 0
M  V30 40934 H 1735.29 -5.02657 -6.42673 0
M  V30 40935 H 1732.64 -4.11708 -4.08956 0
M  V30 40936 H 1732.36 -2.49626 -6.61679 0
M  V30 40937 H 1731.37 -3.8662 -6.00862 0
M  V30 40938 H 1733.2 -4.29991 -7.97006 0
M  V30 40939 P 1731.33 -6.144 -6.45285 0
M  V30 40940 O 1731.11 -7.54673 -6.86199 0
M  V30 40941 O 1730.54 -5.12391 -7.179 0
M  V30 40942 O 1731.08 -5.99158 -4.88404 0
M  V30 40943 C 1732.02 -6.60062 -3.96313 0
M  V30 40944 C 1731.29 -7.08259 -2.72856 0
M  V30 40945 O 1731.08 -5.9427 -1.83651 0
M  V30 40946 C 1729.89 -7.65087 -2.94749 0
M  V30 40947 O 1729.5 -8.53963 -1.90717 0
M  V30 40948 C 1729.01 -6.41069 -2.90698 0
M  V30 40949 C 1729.72 -5.5528 -1.86931 0
M  V30 40950 N 1729.67 -4.09575 -2.15696 0
M  V30 40951 C 1729.52 -3.24249 -1.08435 0
M  V30 40952 O 1729.43 -3.63946 0.0628747 0
M  V30 40953 N 1729.48 -1.90009 -1.39973 0
M  V30 40954 C 1729.57 -1.34884 -2.65614 0
M  V30 40955 C 1729.72 -2.3145 -3.71736 0
M  V30 40956 C 1729.77 -3.63518 -3.44754 0
M  V30 40957 H 1732.51 -7.45402 -4.45526 0
M  V30 40958 H 1732.78 -5.86062 -3.67208 0
M  V30 40959 H 1731.91 -7.84412 -2.24479 0
M  V30 40960 H 1729.26 -5.73358 -0.888409 0
M  V30 40961 H 1728.98 -5.90877 -3.88583 0
M  V30 40962 H 1727.99 -6.65867 -2.58821 0
M  V30 40963 H 1729.82 -8.16248 -3.92006 0
M  V30 40964 H 1729.89 -4.34551 -4.26383 0
M  V30 40965 P 1727.95 -8.7635 -1.60911 0
M  V30 40966 O 1727.73 -10.1388 -1.11561 0
M  V30 40967 O 1727.16 -8.36503 -2.79617 0
M  V30 40968 O 1727.7 -7.71806 -0.42951 0
M  V30 40969 C 1728.64 -7.67148 0.673689 0
M  V30 40970 C 1727.91 -7.33374 1.95559 0
M  V30 40971 O 1727.7 -5.88721 2.00726 0
M  V30 40972 C 1726.51 -7.92526 2.10483 0
M  V30 40973 O 1726.12 -8.02971 3.47653 0
M  V30 40974 C 1725.63 -6.89602 1.41652 0
M  V30 40975 C 1726.34 -5.59201 1.75185 0
M  V30 40976 N 1726.29 -4.58301 0.657969 0
M  V30 40977 H 1729.13 -8.65116 0.777161 0
M  V30 40978 H 1729.4 -6.9022 0.46725 0
M  V30 40979 H 1728.53 -7.66548 2.79458 0
M  V30 40980 H 1725.88 -5.16165 2.65183 0
M  V30 40981 H 1725.6 -7.06433 0.329384 0
M  V30 40982 H 1724.61 -6.90926 1.82021 0
M  V30 40983 H 1726.44 -8.90873 1.62657 0
M  V30 40984 P 1724.57 -8.03563 3.84925 0
M  V30 40985 O 1724.35 -8.85821 5.0569 0
M  V30 40986 O 1723.78 -8.41101 2.65469 0
M  V30 40987 O 1724.32 -6.4965 4.18908 0
M  V30 40988 C 1725.26 -5.81037 5.05421 0
M  V30 40989 C 1724.53 -4.78366 5.89277 0
M  V30 40990 O 1724.32 -3.58302 5.08433 0
M  V30 40991 C 1723.13 -5.17448 6.36119 0
M  V30 40992 O 1722.74 -4.45271 7.53232 0
M  V30 40993 C 1722.25 -4.74639 5.19936 0
M  V30 40994 C 1722.96 -3.49432 4.70418 0
M  V30 40995 N 1722.91 -3.31776 3.22945 0
M  V30 40996 H 1725.75 -6.54213 5.71376 0
M  V30 40997 H 1726.02 -5.30492 4.44033 0
M  V30 40998 H 1725.15 -4.55889 6.76652 0
M  V30 40999 P 1721.19 -4.23843 7.83734 0
M  V30 41000 O 1720.97 -4.19407 9.29784 0
M  V30 41001 O 1720.4 -5.24426 7.09156 0
M  V30 41002 O 1720.94 -2.7935 7.20758 0
M  V30 41003 C 1721.88 -1.7299 7.50419 0
M  V30 41004 C 1721.15 -0.406376 7.57911 0
M  V30 41005 O 1720.94 0.0897726 6.21935 0
M  V30 41006 C 1719.75 -0.447224 8.1878 0
M  V30 41007 O 1719.36 0.825065 8.71101 0
M  V30 41008 C 1718.87 -0.783801 6.99623 0
M  V30 41009 C 1719.58 -0.0619192 5.85967 0
M  V30 41010 N 1719.53 -0.7859 4.56281 0
M  V30 41011 H 1722.37 -1.93423 8.4679 0
M  V30 41012 H 1722.64 -1.68181 6.71046 0
M  V30 41013 H 1721.77 0.289041 8.15388 0
M  V30 41014 P 1717.81 1.17771 8.83182 0
M  V30 41015 O 1717.59 2.07206 9.98732 0
M  V30 41016 O 1717.02 -0.0743816 8.81969 0
M  V30 41017 O 1717.56 1.97652 7.47304 0
M  V30 41018 C 1718.5 3.01133 7.08783 0
M  V30 41019 C 1717.77 4.12613 6.37049 0
M  V30 41020 O 1717.56 3.72827 4.97879 0
M  V30 41021 C 1716.37 4.45085 6.88694 0
M  V30 41022 O 1715.98 5.7877 6.5624 0
M  V30 41023 C 1715.49 3.47817 6.12078 0
M  V30 41024 C 1716.2 3.39414 4.77697 0
M  V30 41025 N 1716.15 2.04615 4.15333 0
M  V30 41026 H 1718.99 3.41248 7.98759 0
M  V30 41027 H 1719.26 2.5837 6.41742 0
M  V30 41028 H 1718.39 5.02657 6.42673 0
M  V30 41029 P 1714.43 6.144 6.45285 0
M  V30 41030 O 1714.21 7.54673 6.86199 0
M  V30 41031 O 1713.64 5.12391 7.179 0
M  V30 41032 O 1714.18 5.99158 4.88404 0
M  V30 41033 C 1715.12 6.60234 3.96415 0
M  V30 41034 C 1714.39 7.08259 2.72856 0
M  V30 41035 O 1714.18 5.9427 1.83651 0
M  V30 41036 C 1712.99 7.64886 2.9555 0
M  V30 41037 O 1712.6 8.53963 1.90717 0
M  V30 41038 C 1712.11 6.4116 2.90739 0
M  V30 41039 C 1712.82 5.55375 1.86963 0
M  V30 41040 N 1712.77 4.09448 2.16152 0
M  V30 41041 H 1715.61 7.45574 4.45629 0
M  V30 41042 H 1715.88 5.85864 3.679 0
M  V30 41043 H 1715.01 7.84412 2.24479 0
M  V30 41044 H 1712.36 5.73457 0.888562 0
M  V30 41045 H 1712.08 5.90877 3.88583 0
M  V30 41046 H 1711.09 6.6596 2.58858 0
M  V30 41047 H 1712.92 8.16339 3.92049 0
M  V30 41048 P 1711.05 8.7635 1.60911 0
M  V30 41049 O 1710.83 10.1388 1.11561 0
M  V30 41050 O 1710.26 8.36503 2.79617 0
M  V30 41051 O 1710.8 7.71806 0.42951 0
M  V30 41052 C 1711.74 7.67148 -0.673689 0
M  V30 41053 C 1711.01 7.33374 -1.95559 0
M  V30 41054 O 1710.8 5.88721 -2.00726 0
M  V30 41055 C 1709.61 7.92526 -2.10483 0
M  V30 41056 O 1709.22 8.02971 -3.47653 0
M  V30 41057 C 1708.73 6.89602 -1.41652 0
M  V30 41058 C 1709.44 5.59201 -1.75185 0
M  V30 41059 N 1709.39 4.58235 -0.662552 0
M  V30 41060 H 1712.23 8.65116 -0.777161 0
M  V30 41061 H 1712.5 6.90173 -0.474152 0
M  V30 41062 H 1711.63 7.66548 -2.79458 0
M  V30 41063 P 1707.67 8.03563 -3.84925 0
M  V30 41064 O 1707.45 8.85821 -5.0569 0
M  V30 41065 O 1706.88 8.41101 -2.65469 0
M  V30 41066 O 1707.42 6.49734 -4.18962 0
M  V30 41067 C 1708.36 5.81037 -5.05421 0
M  V30 41068 C 1707.63 4.79018 -5.88876 0
M  V30 41069 O 1707.42 3.58359 -5.08515 0
M  V30 41070 C 1706.23 5.17448 -6.36119 0
M  V30 41071 O 1705.84 4.45322 -7.53318 0
M  V30 41072 C 1705.35 4.74639 -5.19936 0
M  V30 41073 C 1706.06 3.49432 -4.70418 0
M  V30 41074 N 1706.01 3.31776 -3.22945 0
M  V30 41075 C 1705.86 2.02742 -2.72939 0
M  V30 41076 O 1705.77 1.08301 -3.52749 0
M  V30 41077 N 1705.81 1.96117 -1.22063 0
M  V30 41078 C 1705.91 2.8878 -0.551566 0
M  V30 41079 N 1705.86 2.65609 0.750198 0
M  V30 41080 C 1706.06 4.22457 -1.03707 0
M  V30 41081 C 1706.11 4.37979 -2.39113 0
M  V30 41082 H 1708.85 6.54138 -5.7131 0
M  V30 41083 H 1709.12 5.30492 -4.44033 0
M  V30 41084 H 1708.25 4.55945 -6.76735 0
M  V30 41085 H 1705.6 2.6176 -5.18021 0
M  V30 41086 H 1705.32 5.52233 -4.41941 0
M  V30 41087 H 1704.33 4.52045 -5.53452 0
M  V30 41088 H 1706.16 6.25124 -6.55234 0
M  V30 41089 H 1706.23 5.37936 -2.80552 0
M  V30 41090 H 1706.13 5.07528 -0.359553 0
M  V30 41091 H 1705.74 1.69403 1.09847 0
M  V30 41092 H 1705.94 3.43701 1.41792 0
M  V30 41093 P 1704.29 4.23843 -7.83734 0
M  V30 41094 O 1704.07 4.19407 -9.29784 0
M  V30 41095 O 1703.5 5.24426 -7.09156 0
M  V30 41096 O 1704.04 2.7935 -7.20758 0
M  V30 41097 C 1704.98 1.7299 -7.50419 0
M  V30 41098 C 1704.25 0.406376 -7.57911 0
M  V30 41099 O 1704.04 -0.0897726 -6.21935 0
M  V30 41100 C 1702.85 0.447224 -8.1878 0
M  V30 41101 O 1702.46 -0.825065 -8.71101 0
M  V30 41102 C 1701.97 0.783801 -6.99623 0
M  V30 41103 C 1702.68 0.0619192 -5.85967 0
M  V30 41104 N 1702.63 0.7859 -4.56281 0
M  V30 41105 H 1705.47 1.93423 -8.4679 0
M  V30 41106 H 1705.74 1.68181 -6.71046 0
M  V30 41107 H 1704.87 -0.289041 -8.15388 0
M  V30 41108 P 1700.91 -1.17771 -8.83182 0
M  V30 41109 O 1700.69 -2.07206 -9.98732 0
M  V30 41110 O 1700.12 0.0743816 -8.81969 0
M  V30 41111 O 1700.66 -1.97652 -7.47304 0
M  V30 41112 C 1701.6 -3.01133 -7.08783 0
M  V30 41113 C 1700.87 -4.12613 -6.37049 0
M  V30 41114 O 1700.66 -3.72827 -4.97879 0
M  V30 41115 C 1699.47 -4.45085 -6.88694 0
M  V30 41116 O 1699.08 -5.7877 -6.5624 0
M  V30 41117 C 1698.59 -3.47817 -6.12078 0
M  V30 41118 C 1699.3 -3.39414 -4.77697 0
M  V30 41119 N 1699.25 -2.04199 -4.15538 0
M  V30 41120 H 1702.09 -3.41248 -7.98759 0
M  V30 41121 H 1702.36 -2.57728 -6.42 0
M  V30 41122 H 1701.49 -5.02657 -6.42673 0
M  V30 41123 H 1698.84 -4.11708 -4.08956 0
M  V30 41124 H 1698.56 -2.49626 -6.61679 0
M  V30 41125 H 1697.57 -3.8662 -6.00862 0
M  V30 41126 H 1699.4 -4.29991 -7.97006 0
M  V30 41127 P 1697.53 -6.144 -6.45285 0
M  V30 41128 O 1697.31 -7.54673 -6.86199 0
M  V30 41129 O 1696.74 -5.12391 -7.179 0
M  V30 41130 O 1697.28 -5.99158 -4.88404 0
M  V30 41131 C 1698.22 -6.60234 -3.96415 0
M  V30 41132 C 1697.49 -7.08259 -2.72856 0
M  V30 41133 O 1697.28 -5.9427 -1.83651 0
M  V30 41134 C 1696.09 -7.64886 -2.9555 0
M  V30 41135 O 1695.7 -8.53963 -1.90717 0
M  V30 41136 C 1695.21 -6.4116 -2.90739 0
M  V30 41137 C 1695.92 -5.55375 -1.86963 0
M  V30 41138 N 1695.87 -4.09664 -2.15742 0
M  V30 41139 H 1698.71 -7.45574 -4.45629 0
M  V30 41140 H 1698.98 -5.86232 -3.67314 0
M  V30 41141 H 1698.11 -7.84412 -2.24479 0
M  V30 41142 P 1694.15 -8.7635 -1.60911 0
M  V30 41143 O 1693.93 -10.1388 -1.11561 0
M  V30 41144 O 1693.36 -8.36503 -2.79617 0
M  V30 41145 O 1693.9 -7.71806 -0.42951 0
M  V30 41146 C 1694.84 -7.67148 0.673689 0
M  V30 41147 C 1694.11 -7.33374 1.95559 0
M  V30 41148 O 1693.9 -5.88721 2.00726 0
M  V30 41149 C 1692.71 -7.92526 2.10483 0
M  V30 41150 O 1692.32 -8.02971 3.47653 0
M  V30 41151 C 1691.83 -6.89602 1.41652 0
M  V30 41152 C 1692.54 -5.59201 1.75185 0
M  V30 41153 N 1692.49 -4.58235 0.662552 0
M  V30 41154 H 1695.33 -8.65116 0.777161 0
M  V30 41155 H 1695.6 -6.90173 0.474152 0
M  V30 41156 H 1694.73 -7.66548 2.79458 0
M  V30 41157 P 1690.77 -8.03563 3.84925 0
M  V30 41158 O 1690.55 -8.85821 5.0569 0
M  V30 41159 O 1689.98 -8.41101 2.65469 0
M  V30 41160 O 1690.52 -6.4965 4.18908 0
M  V30 41161 C 1691.46 -5.80886 5.05289 0
M  V30 41162 C 1690.73 -4.78366 5.89277 0
M  V30 41163 O 1690.52 -3.58302 5.08433 0
M  V30 41164 C 1689.33 -5.16748 6.36559 0
M  V30 41165 O 1688.94 -4.45271 7.53232 0
M  V30 41166 C 1688.45 -4.74572 5.19863 0
M  V30 41167 C 1689.16 -3.49373 4.70338 0
M  V30 41168 N 1689.11 -3.31704 3.22876 0
M  V30 41169 C 1688.96 -2.03326 2.74871 0
M  V30 41170 O 1688.87 -1.06486 3.48076 0
M  V30 41171 N 1688.92 -1.91838 1.37456 0
M  V30 41172 C 1689.01 -2.94295 0.462035 0
M  V30 41173 C 1689.16 -4.25064 1.05249 0
M  V30 41174 C 1689.21 -4.40214 2.39192 0
M  V30 41175 H 1691.95 -6.54063 5.71245 0
M  V30 41176 H 1692.22 -5.30339 4.43905 0
M  V30 41177 H 1691.35 -4.55889 6.76652 0
M  V30 41178 H 1688.7 -2.6167 5.17842 0
M  V30 41179 H 1688.42 -5.52155 4.41878 0
M  V30 41180 H 1687.43 -4.51918 5.53297 0
M  V30 41181 H 1689.26 -6.25055 6.55162 0
M  V30 41182 H 1689.33 -5.39798 2.81523 0
M  V30 41183 P 1687.39 -4.23843 7.83734 0
M  V30 41184 O 1687.17 -4.19407 9.29784 0
M  V30 41185 O 1686.6 -5.24426 7.09156 0
M  V30 41186 O 1687.14 -2.7935 7.20758 0
M  V30 41187 C 1688.08 -1.7299 7.50419 0
M  V30 41188 C 1687.35 -0.406376 7.57911 0
M  V30 41189 O 1687.14 0.0897726 6.21935 0
M  V30 41190 C 1685.95 -0.447224 8.1878 0
M  V30 41191 O 1685.56 0.825065 8.71101 0
M  V30 41192 C 1685.07 -0.783801 6.99623 0
M  V30 41193 C 1685.78 -0.0619192 5.85967 0
M  V30 41194 N 1685.73 -0.7859 4.56281 0
M  V30 41195 H 1688.57 -1.93423 8.4679 0
M  V30 41196 H 1688.84 -1.68181 6.71046 0
M  V30 41197 H 1687.97 0.289041 8.15388 0
M  V30 41198 P 1684.01 1.17771 8.83182 0
M  V30 41199 O 1683.79 2.07206 9.98732 0
M  V30 41200 O 1683.22 -0.0743816 8.81969 0
M  V30 41201 O 1683.76 1.97652 7.47304 0
M  V30 41202 C 1684.7 3.01133 7.08783 0
M  V30 41203 C 1683.97 4.12613 6.37049 0
M  V30 41204 O 1683.76 3.72827 4.97879 0
M  V30 41205 C 1682.57 4.45085 6.88694 0
M  V30 41206 O 1682.18 5.7877 6.5624 0
M  V30 41207 C 1681.69 3.47817 6.12078 0
M  V30 41208 C 1682.4 3.39414 4.77697 0
M  V30 41209 N 1682.35 2.04615 4.15333 0
M  V30 41210 H 1685.19 3.41248 7.98759 0
M  V30 41211 H 1685.46 2.5837 6.41742 0
M  V30 41212 H 1684.59 5.02657 6.42673 0
M  V30 41213 P 1680.63 6.144 6.45285 0
M  V30 41214 O 1680.41 7.54673 6.86199 0
M  V30 41215 O 1679.84 5.12391 7.179 0
M  V30 41216 O 1680.38 5.99236 4.88467 0
M  V30 41217 C 1681.32 6.60234 3.96415 0
M  V30 41218 C 1680.59 7.08079 2.736 0
M  V30 41219 O 1680.38 5.94365 1.8368 0
M  V30 41220 C 1679.19 7.64886 2.9555 0
M  V30 41221 O 1678.8 8.5406 1.90739 0
M  V30 41222 C 1678.31 6.4116 2.90739 0
M  V30 41223 C 1679.02 5.55375 1.86963 0
M  V30 41224 N 1678.97 4.09664 2.15742 0
M  V30 41225 C 1678.82 3.22231 1.08477 0
M  V30 41226 O 1678.73 3.68951 -0.0600489 0
M  V30 41227 N 1678.77 1.76692 1.48799 0
M  V30 41228 C 1678.87 1.41695 2.57602 0
M  V30 41229 N 1678.82 0.107296 2.75791 0
M  V30 41230 C 1679.02 2.29178 3.69733 0
M  V30 41231 C 1679.07 3.62753 3.42653 0
M  V30 41232 H 1681.81 7.45488 4.45578 0
M  V30 41233 H 1682.08 5.86232 3.67314 0
M  V30 41234 H 1681.21 7.84508 2.24507 0
M  V30 41235 H 1678.56 5.73556 0.888715 0
M  V30 41236 H 1678.28 5.9096 3.88638 0
M  V30 41237 H 1677.29 6.66053 2.58894 0
M  V30 41238 H 1679.12 8.16339 3.92049 0
M  V30 41239 H 1679.19 4.33052 4.24913 0
M  V30 41240 H 1679.09 1.9103 4.71577 0
M  V30 41241 H 1678.7 -0.521221 1.95056 0
M  V30 41242 H 1678.9 -0.286429 3.70695 0
M  V30 41243 P 1677.25 8.7635 1.60911 0
M  V30 41244 O 1677.03 10.1388 1.11561 0
M  V30 41245 O 1676.46 8.36503 2.79617 0
M  V30 41246 O 1677 7.71806 0.42951 0
M  V30 41247 C 1677.94 7.66948 -0.673514 0
M  V30 41248 C 1677.21 7.33374 -1.95559 0
M  V30 41249 O 1677 5.88721 -2.00726 0
M  V30 41250 C 1675.81 7.92218 -2.1125 0
M  V30 41251 O 1675.42 8.02971 -3.47653 0
M  V30 41252 C 1674.93 6.89504 -1.41631 0
M  V30 41253 C 1675.64 5.59106 -1.75155 0
M  V30 41254 N 1675.59 4.58136 -0.662409 0
M  V30 41255 C 1675.44 3.26059 -1.02863 0
M  V30 41256 O 1675.35 2.90743 -2.19009 0
M  V30 41257 N 1675.4 2.35995 0.0155585 0
M  V30 41258 C 1675.49 2.65248 1.35603 0
M  V30 41259 C 1675.64 4.05747 1.64698 0
M  V30 41260 C 1675.69 4.96734 0.652411 0
M  V30 41261 H 1678.43 8.64917 -0.776982 0
M  V30 41262 H 1678.7 6.89974 -0.474015 0
M  V30 41263 H 1677.83 7.66548 -2.79458 0
M  V30 41264 H 1675.18 5.16076 -2.65138 0
M  V30 41265 H 1674.9 7.06433 -0.329384 0
M  V30 41266 H 1673.91 6.90829 -1.81996 0
M  V30 41267 H 1675.74 8.90774 -1.62639 0
M  V30 41268 H 1675.81 6.02181 0.895285 0
M  V30 41269 P 1673.87 8.03563 -3.84925 0
M  V30 41270 O 1673.65 8.85821 -5.0569 0
M  V30 41271 O 1673.08 8.41101 -2.65469 0
M  V30 41272 O 1673.62 6.49734 -4.18962 0
M  V30 41273 C 1674.56 5.81037 -5.05421 0
M  V30 41274 C 1673.83 4.79018 -5.88876 0
M  V30 41275 O 1673.62 3.58359 -5.08515 0
M  V30 41276 C 1672.43 5.17448 -6.36119 0
M  V30 41277 O 1672.04 4.45322 -7.53318 0
M  V30 41278 C 1671.55 4.74639 -5.19936 0
M  V30 41279 C 1672.26 3.49432 -4.70418 0
M  V30 41280 N 1672.21 3.31776 -3.22945 0
M  V30 41281 C 1672.06 2.02742 -2.72939 0
M  V30 41282 O 1671.97 1.08301 -3.52749 0
M  V30 41283 N 1672.01 1.96117 -1.22063 0
M  V30 41284 C 1672.11 2.8878 -0.551566 0
M  V30 41285 N 1672.06 2.65609 0.750198 0
M  V30 41286 C 1672.26 4.22457 -1.03707 0
M  V30 41287 C 1672.31 4.37979 -2.39113 0
M  V30 41288 H 1675.05 6.54138 -5.7131 0
M  V30 41289 H 1675.32 5.30492 -4.44033 0
M  V30 41290 H 1674.45 4.55945 -6.76735 0
M  V30 41291 H 1671.8 2.6176 -5.18021 0
M  V30 41292 H 1671.52 5.52233 -4.41941 0
M  V30 41293 H 1670.53 4.52045 -5.53452 0
M  V30 41294 H 1672.36 6.25124 -6.55234 0
M  V30 41295 H 1672.43 5.37936 -2.80552 0
M  V30 41296 H 1672.33 5.07528 -0.359553 0
M  V30 41297 H 1671.94 1.69403 1.09847 0
M  V30 41298 H 1672.14 3.43701 1.41792 0
M  V30 41299 P 1670.49 4.23843 -7.83734 0
M  V30 41300 O 1670.27 4.19407 -9.29784 0
M  V30 41301 O 1669.7 5.24426 -7.09156 0
M  V30 41302 O 1670.24 2.7935 -7.20758 0
M  V30 41303 C 1671.18 1.7299 -7.50419 0
M  V30 41304 C 1670.45 0.406376 -7.57911 0
M  V30 41305 O 1670.24 -0.0897726 -6.21935 0
M  V30 41306 C 1669.05 0.447224 -8.1878 0
M  V30 41307 O 1668.66 -0.825065 -8.71101 0
M  V30 41308 C 1668.17 0.783801 -6.99623 0
M  V30 41309 C 1668.88 0.0619192 -5.85967 0
M  V30 41310 N 1668.83 0.7859 -4.56281 0
M  V30 41311 H 1671.67 1.93423 -8.4679 0
M  V30 41312 H 1671.94 1.68181 -6.71046 0
M  V30 41313 H 1671.07 -0.289041 -8.15388 0
M  V30 41314 P 1667.11 -1.17771 -8.83182 0
M  V30 41315 O 1666.89 -2.07206 -9.98732 0
M  V30 41316 O 1666.32 0.0743816 -8.81969 0
M  V30 41317 O 1666.86 -1.97652 -7.47304 0
M  V30 41318 C 1667.8 -3.01133 -7.08783 0
M  V30 41319 C 1667.07 -4.12613 -6.37049 0
M  V30 41320 O 1666.86 -3.72827 -4.97879 0
M  V30 41321 C 1665.67 -4.45085 -6.88694 0
M  V30 41322 O 1665.28 -5.7877 -6.5624 0
M  V30 41323 C 1664.79 -3.47817 -6.12078 0
M  V30 41324 C 1665.5 -3.39414 -4.77697 0
M  V30 41325 N 1665.45 -2.04615 -4.15333 0
M  V30 41326 H 1668.29 -3.41248 -7.98759 0
M  V30 41327 H 1668.56 -2.5837 -6.41742 0
M  V30 41328 H 1667.69 -5.02657 -6.42673 0
M  V30 41329 P 1663.73 -6.144 -6.45285 0
M  V30 41330 O 1663.51 -7.54673 -6.86199 0
M  V30 41331 O 1662.94 -5.12391 -7.179 0
M  V30 41332 O 1663.48 -5.99158 -4.88404 0
M  V30 41333 C 1664.42 -6.60062 -3.96313 0
M  V30 41334 C 1663.69 -7.08259 -2.72856 0
M  V30 41335 O 1663.48 -5.9427 -1.83651 0
M  V30 41336 C 1662.29 -7.65087 -2.94749 0
M  V30 41337 O 1661.9 -8.53963 -1.90717 0
M  V30 41338 C 1661.41 -6.41069 -2.90698 0
M  V30 41339 C 1662.12 -5.5528 -1.86931 0
M  V30 41340 N 1662.07 -4.09575 -2.15696 0
M  V30 41341 C 1661.92 -3.24249 -1.08435 0
M  V30 41342 O 1661.83 -3.63946 0.0628747 0
M  V30 41343 N 1661.88 -1.90009 -1.39973 0
M  V30 41344 C 1661.97 -1.34884 -2.65614 0
M  V30 41345 C 1662.12 -2.3145 -3.71736 0
M  V30 41346 C 1662.17 -3.63518 -3.44754 0
M  V30 41347 H 1664.91 -7.45402 -4.45526 0
M  V30 41348 H 1665.18 -5.86062 -3.67208 0
M  V30 41349 H 1664.31 -7.84412 -2.24479 0
M  V30 41350 H 1661.66 -5.73358 -0.888409 0
M  V30 41351 H 1661.38 -5.90877 -3.88583 0
M  V30 41352 H 1660.39 -6.65867 -2.58821 0
M  V30 41353 H 1662.22 -8.16248 -3.92006 0
M  V30 41354 H 1662.29 -4.34551 -4.26383 0
M  V30 41355 P 1660.35 -8.7635 -1.60911 0
M  V30 41356 O 1660.13 -10.1388 -1.11561 0
M  V30 41357 O 1659.56 -8.36503 -2.79617 0
M  V30 41358 O 1660.1 -7.71906 -0.429565 0
M  V30 41359 C 1661.04 -7.67148 0.673689 0
M  V30 41360 C 1660.31 -7.33666 1.94851 0
M  V30 41361 O 1660.1 -5.88816 2.00759 0
M  V30 41362 C 1658.91 -7.92526 2.10483 0
M  V30 41363 O 1658.52 -8.03063 3.47693 0
M  V30 41364 C 1658.03 -6.89602 1.41652 0
M  V30 41365 C 1658.74 -5.59201 1.75185 0
M  V30 41366 N 1658.69 -4.58235 0.662552 0
M  V30 41367 C 1658.54 -3.24451 1.01643 0
M  V30 41368 O 1658.45 -2.94958 2.21722 0
M  V30 41369 N 1658.49 -2.30408 -0.165238 0
M  V30 41370 C 1658.59 -2.66048 -1.25118 0
M  V30 41371 N 1658.54 -1.70787 -2.16813 0
M  V30 41372 C 1658.74 -4.02732 -1.64413 0
M  V30 41373 C 1658.79 -4.9488 -0.63991 0
M  V30 41374 H 1661.53 -8.65017 0.777072 0
M  V30 41375 H 1661.8 -6.90173 0.474152 0
M  V30 41376 H 1660.93 -7.66642 2.79492 0
M  V30 41377 H 1658.28 -5.16254 2.65229 0
M  V30 41378 H 1658 -7.06532 0.329431 0
M  V30 41379 H 1657.01 -6.91023 1.82047 0
M  V30 41380 H 1658.84 -8.90873 1.62657 0
M  V30 41381 H 1658.91 -6.00104 -0.892197 0
M  V30 41382 H 1658.81 -4.31733 -2.69229 0
M  V30 41383 H 1658.42 -0.724835 -1.8844 0
M  V30 41384 H 1658.62 -1.94716 -3.16734 0
M  V30 41385 P 1656.97 -8.03563 3.84925 0
M  V30 41386 O 1656.75 -8.85821 5.0569 0
M  V30 41387 O 1656.18 -8.41101 2.65469 0
M  V30 41388 O 1656.72 -6.4965 4.18908 0
M  V30 41389 C 1657.66 -5.81037 5.05421 0
M  V30 41390 C 1656.93 -4.78366 5.89277 0
M  V30 41391 O 1656.72 -3.58302 5.08433 0
M  V30 41392 C 1655.53 -5.17448 6.36119 0
M  V30 41393 O 1655.14 -4.45271 7.53232 0
M  V30 41394 C 1654.65 -4.74639 5.19936 0
M  V30 41395 C 1655.36 -3.49432 4.70418 0
M  V30 41396 N 1655.31 -3.31776 3.22945 0
M  V30 41397 C 1655.39 -4.27147 2.23315 0
M  V30 41398 N 1655.31 -3.78447 1.02186 0
M  V30 41399 C 1655.17 -2.41001 1.21732 0
M  V30 41400 C 1655.04 -1.36111 0.27694 0
M  V30 41401 N 1654.92 -0.113683 0.912949 0
M  V30 41402 C 1654.92 0.0846396 2.27943 0
M  V30 41403 N 1654.79 1.34737 2.6916 0
M  V30 41404 N 1655.05 -0.902521 3.16379 0
M  V30 41405 C 1655.17 -2.11937 2.56849 0
M  V30 41406 H 1658.15 -6.54213 5.71376 0
M  V30 41407 H 1658.42 -5.30492 4.44033 0
M  V30 41408 H 1657.55 -4.55889 6.76652 0
M  V30 41409 P 1653.59 -4.23843 7.83734 0
M  V30 41410 O 1653.37 -4.19407 9.29784 0
M  V30 41411 O 1652.8 -5.24426 7.09156 0
M  V30 41412 O 1653.34 -2.79386 7.20852 0
M  V30 41413 C 1654.28 -1.7299 7.50419 0
M  V30 41414 C 1653.55 -0.41401 7.5797 0
M  V30 41415 O 1653.34 0.089787 6.22035 0
M  V30 41416 C 1652.15 -0.447224 8.1878 0
M  V30 41417 O 1651.76 0.825159 8.71201 0
M  V30 41418 C 1651.27 -0.783801 6.99623 0
M  V30 41419 C 1651.98 -0.0619192 5.85967 0
M  V30 41420 N 1651.93 -0.7859 4.56281 0
M  V30 41421 C 1651.78 -0.0359258 3.39981 0
M  V30 41422 O 1651.69 1.19723 3.49038 0
M  V30 41423 N 1651.73 -0.869151 2.14025 0
M  V30 41424 C 1651.83 -2.01207 2.14363 0
M  V30 41425 N 1651.78 -2.58978 0.954287 0
M  V30 41426 C 1651.98 -2.80817 3.32215 0
M  V30 41427 C 1652.03 -2.13785 4.50884 0
M  V30 41428 H 1654.77 -1.93401 8.46693 0
M  V30 41429 H 1655.04 -1.68181 6.71046 0
M  V30 41430 H 1654.17 0.289076 8.15488 0
M  V30 41431 H 1651.52 0.927166 5.72947 0
M  V30 41432 H 1651.24 -1.87 6.82132 0
M  V30 41433 H 1650.25 -0.404009 7.13457 0
M  V30 41434 H 1652.08 -1.20599 8.97534 0
M  V30 41435 H 1652.15 -2.70295 5.43162 0
M  V30 41436 H 1652.05 -3.89465 3.27406 0
M  V30 41437 H 1651.66 -2.01616 0.107046 0
M  V30 41438 H 1651.86 -3.61403 0.873101 0
M  V30 41439 P 1650.21 1.17771 8.83182 0
M  V30 41440 O 1649.99 2.07206 9.98732 0
M  V30 41441 O 1649.42 -0.0743816 8.81969 0
M  V30 41442 O 1649.96 1.97652 7.47304 0
M  V30 41443 C 1650.9 3.01133 7.08783 0
M  V30 41444 C 1650.17 4.12613 6.37049 0
M  V30 41445 O 1649.96 3.72827 4.97879 0
M  V30 41446 C 1648.77 4.45085 6.88694 0
M  V30 41447 O 1648.38 5.7877 6.5624 0
M  V30 41448 C 1647.89 3.47817 6.12078 0
M  V30 41449 C 1648.6 3.39414 4.77697 0
M  V30 41450 N 1648.55 2.04199 4.15538 0
M  V30 41451 H 1651.39 3.41248 7.98759 0
M  V30 41452 H 1651.66 2.57728 6.42 0
M  V30 41453 H 1650.79 5.02657 6.42673 0
M  V30 41454 H 1648.14 4.11708 4.08956 0
M  V30 41455 H 1647.86 2.49626 6.61679 0
M  V30 41456 H 1646.87 3.8662 6.00862 0
M  V30 41457 H 1648.7 4.29991 7.97006 0
M  V30 41458 P 1646.83 6.144 6.45285 0
M  V30 41459 O 1646.61 7.54673 6.86199 0
M  V30 41460 O 1646.04 5.12391 7.179 0
M  V30 41461 O 1646.58 5.99158 4.88404 0
M  V30 41462 C 1647.52 6.60234 3.96415 0
M  V30 41463 C 1646.79 7.08259 2.72856 0
M  V30 41464 O 1646.58 5.9427 1.83651 0
M  V30 41465 C 1645.39 7.64886 2.9555 0
M  V30 41466 O 1645 8.53963 1.90717 0
M  V30 41467 C 1644.51 6.4116 2.90739 0
M  V30 41468 C 1645.22 5.55375 1.86963 0
M  V30 41469 N 1645.17 4.09664 2.15742 0
M  V30 41470 H 1648.01 7.45574 4.45629 0
M  V30 41471 H 1648.28 5.86232 3.67314 0
M  V30 41472 H 1647.41 7.84412 2.24479 0
M  V30 41473 P 1643.45 8.7635 1.60911 0
M  V30 41474 O 1643.23 10.1388 1.11561 0
M  V30 41475 O 1642.66 8.36503 2.79617 0
M  V30 41476 O 1643.2 7.71806 0.42951 0
M  V30 41477 C 1644.14 7.67148 -0.673689 0
M  V30 41478 C 1643.41 7.33374 -1.95559 0
M  V30 41479 O 1643.2 5.88721 -2.00726 0
M  V30 41480 C 1642.01 7.92526 -2.10483 0
M  V30 41481 O 1641.62 8.02971 -3.47653 0
M  V30 41482 C 1641.13 6.89602 -1.41652 0
M  V30 41483 C 1641.84 5.59201 -1.75185 0
M  V30 41484 N 1641.79 4.58235 -0.662552 0
M  V30 41485 H 1644.63 8.65116 -0.777161 0
M  V30 41486 H 1644.9 6.90173 -0.474152 0
M  V30 41487 H 1644.03 7.66548 -2.79458 0
M  V30 41488 P 1640.07 8.03563 -3.84925 0
M  V30 41489 O 1639.85 8.85821 -5.0569 0
M  V30 41490 O 1639.28 8.41101 -2.65469 0
M  V30 41491 O 1639.82 6.4965 -4.18908 0
M  V30 41492 C 1640.76 5.81037 -5.05421 0
M  V30 41493 C 1640.03 4.78366 -5.89277 0
M  V30 41494 O 1639.82 3.58302 -5.08433 0
M  V30 41495 C 1638.63 5.17448 -6.36119 0
M  V30 41496 O 1638.24 4.45271 -7.53232 0
M  V30 41497 C 1637.75 4.74639 -5.19936 0
M  V30 41498 C 1638.46 3.49432 -4.70418 0
M  V30 41499 N 1638.41 3.31776 -3.22945 0
M  V30 41500 H 1641.25 6.54213 -5.71376 0
M  V30 41501 H 1641.52 5.30492 -4.44033 0
M  V30 41502 H 1640.65 4.55889 -6.76652 0
M  V30 41503 P 1636.69 4.23843 -7.83734 0
M  V30 41504 O 1636.47 4.19407 -9.29784 0
M  V30 41505 O 1635.9 5.24426 -7.09156 0
M  V30 41506 O 1636.44 2.7935 -7.20758 0
M  V30 41507 C 1637.38 1.7299 -7.50419 0
M  V30 41508 C 1636.65 0.406376 -7.57911 0
M  V30 41509 O 1636.44 -0.0897726 -6.21935 0
M  V30 41510 C 1635.25 0.447224 -8.1878 0
M  V30 41511 O 1634.86 -0.825065 -8.71101 0
M  V30 41512 C 1634.37 0.783801 -6.99623 0
M  V30 41513 C 1635.08 0.0619192 -5.85967 0
M  V30 41514 N 1635.03 0.790462 -4.56202 0
M  V30 41515 H 1637.87 1.93423 -8.4679 0
M  V30 41516 H 1638.14 1.68852 -6.70877 0
M  V30 41517 H 1637.27 -0.289041 -8.15388 0
M  V30 41518 H 1634.62 -0.927006 -5.72848 0
M  V30 41519 H 1634.34 1.86973 -6.82036 0
M  V30 41520 H 1633.35 0.403953 -7.13357 0
M  V30 41521 H 1635.18 1.20599 -8.97534 0
M  V30 41522 P 1633.31 -1.17771 -8.83182 0
M  V30 41523 O 1633.09 -2.07206 -9.98732 0
M  V30 41524 O 1632.52 0.0743816 -8.81969 0
M  V30 41525 O 1633.06 -1.97652 -7.47304 0
M  V30 41526 C 1634 -3.01133 -7.08783 0
M  V30 41527 C 1633.27 -4.12613 -6.37049 0
M  V30 41528 O 1633.06 -3.72827 -4.97879 0
M  V30 41529 C 1631.87 -4.45085 -6.88694 0
M  V30 41530 O 1631.48 -5.7877 -6.5624 0
M  V30 41531 C 1630.99 -3.47817 -6.12078 0
M  V30 41532 C 1631.7 -3.39414 -4.77697 0
M  V30 41533 N 1631.65 -2.04615 -4.15333 0
M  V30 41534 C 1631.73 -0.803897 -4.75249 0
M  V30 41535 N 1631.65 0.197615 -3.91502 0
M  V30 41536 C 1631.51 -0.413002 -2.66823 0
M  V30 41537 C 1631.38 0.157221 -1.38007 0
M  V30 41538 N 1631.26 -0.833136 -0.390236 0
M  V30 41539 C 1631.26 -2.19402 -0.623885 0
M  V30 41540 N 1631.13 -2.97622 0.449677 0
M  V30 41541 N 1631.39 -2.73005 -1.83601 0
M  V30 41542 C 1631.51 -1.78786 -2.80935 0
M  V30 41543 H 1634.49 -3.41248 -7.98759 0
M  V30 41544 H 1634.76 -2.5837 -6.41742 0
M  V30 41545 H 1633.89 -5.02657 -6.42673 0
M  V30 41546 P 1629.93 -6.144 -6.45285 0
M  V30 41547 O 1629.71 -7.54673 -6.86199 0
M  V30 41548 O 1629.14 -5.12391 -7.179 0
M  V30 41549 O 1629.68 -5.99158 -4.88404 0
M  V30 41550 C 1630.62 -6.60234 -3.96415 0
M  V30 41551 C 1629.89 -7.08259 -2.72856 0
M  V30 41552 O 1629.68 -5.9427 -1.83651 0
M  V30 41553 C 1628.49 -7.64886 -2.9555 0
M  V30 41554 O 1628.1 -8.53963 -1.90717 0
M  V30 41555 C 1627.61 -6.4116 -2.90739 0
M  V30 41556 C 1628.32 -5.55375 -1.86963 0
M  V30 41557 N 1628.27 -4.09664 -2.15742 0
M  V30 41558 H 1631.11 -7.45574 -4.45629 0
M  V30 41559 H 1631.38 -5.86232 -3.67314 0
M  V30 41560 H 1630.51 -7.84412 -2.24479 0
M  V30 41561 P 1626.55 -8.7635 -1.60911 0
M  V30 41562 O 1626.33 -10.1388 -1.11561 0
M  V30 41563 O 1625.76 -8.36503 -2.79617 0
M  V30 41564 O 1626.3 -7.71806 -0.42951 0
M  V30 41565 C 1627.24 -7.67148 0.673689 0
M  V30 41566 C 1626.51 -7.33374 1.95559 0
M  V30 41567 O 1626.3 -5.88721 2.00726 0
M  V30 41568 C 1625.11 -7.92526 2.10483 0
M  V30 41569 O 1624.72 -8.02971 3.47653 0
M  V30 41570 C 1624.23 -6.89602 1.41652 0
M  V30 41571 C 1624.94 -5.59201 1.75185 0
M  V30 41572 N 1624.89 -4.58301 0.657969 0
M  V30 41573 H 1627.73 -8.65116 0.777161 0
M  V30 41574 H 1628 -6.9022 0.46725 0
M  V30 41575 H 1627.13 -7.66548 2.79458 0
M  V30 41576 H 1624.48 -5.16165 2.65183 0
M  V30 41577 H 1624.2 -7.06433 0.329384 0
M  V30 41578 H 1623.21 -6.90926 1.82021 0
M  V30 41579 H 1625.04 -8.90873 1.62657 0
M  V30 41580 P 1623.17 -8.03563 3.84925 0
M  V30 41581 O 1622.95 -8.85821 5.0569 0
M  V30 41582 O 1622.38 -8.41101 2.65469 0
M  V30 41583 O 1622.92 -6.4965 4.18908 0
M  V30 41584 C 1623.86 -5.81037 5.05421 0
M  V30 41585 C 1623.13 -4.78366 5.89277 0
M  V30 41586 O 1622.92 -3.58302 5.08433 0
M  V30 41587 C 1621.73 -5.17448 6.36119 0
M  V30 41588 O 1621.34 -4.45271 7.53232 0
M  V30 41589 C 1620.85 -4.74639 5.19936 0
M  V30 41590 C 1621.56 -3.49432 4.70418 0
M  V30 41591 N 1621.51 -3.32099 3.22613 0
M  V30 41592 C 1621.59 -4.28245 2.25527 0
M  V30 41593 N 1621.52 -3.80823 1.04874 0
M  V30 41594 C 1621.37 -2.44571 1.23535 0
M  V30 41595 C 1621.24 -1.37068 0.330675 0
M  V30 41596 N 1621.23 -1.51472 -0.990824 0
M  V30 41597 N 1621.12 -0.138614 0.848756 0
M  V30 41598 C 1621.13 0.00675923 2.16999 0
M  V30 41599 N 1621.25 -0.904372 3.11122 0
M  V30 41600 C 1621.37 -2.12707 2.56212 0
M  V30 41601 H 1624.35 -6.54213 5.71376 0
M  V30 41602 H 1624.62 -5.30936 4.43503 0
M  V30 41603 H 1623.75 -4.55889 6.76652 0
M  V30 41604 H 1621.1 -2.61715 5.17932 0
M  V30 41605 H 1620.82 -5.52155 4.41878 0
M  V30 41606 H 1619.83 -4.51981 5.53374 0
M  V30 41607 H 1621.66 -6.25124 6.55234 0
M  V30 41608 H 1621.7 -5.34372 2.47488 0
M  V30 41609 H 1621.32 -2.45153 -1.4078 0
M  V30 41610 H 1621.13 -0.688422 -1.59911 0
M  V30 41611 H 1621.02 1.02584 2.52346 0
M  V30 41612 P 1619.79 -4.23843 7.83734 0
M  V30 41613 O 1619.57 -4.19407 9.29784 0
M  V30 41614 O 1619 -5.24426 7.09156 0
M  V30 41615 O 1619.54 -2.7935 7.20758 0
M  V30 41616 C 1620.48 -1.7299 7.50419 0
M  V30 41617 C 1619.75 -0.406376 7.57911 0
M  V30 41618 O 1619.54 0.0897726 6.21935 0
M  V30 41619 C 1618.35 -0.447224 8.1878 0
M  V30 41620 O 1617.96 0.825065 8.71101 0
M  V30 41621 C 1617.47 -0.783801 6.99623 0
M  V30 41622 C 1618.18 -0.0619192 5.85967 0
M  V30 41623 N 1618.13 -0.7859 4.56281 0
M  V30 41624 H 1620.97 -1.93423 8.4679 0
M  V30 41625 H 1621.24 -1.68181 6.71046 0
M  V30 41626 H 1620.37 0.289041 8.15388 0
M  V30 41627 P 1616.41 1.17771 8.83182 0
M  V30 41628 O 1616.19 2.07206 9.98732 0
M  V30 41629 O 1615.62 -0.0743816 8.81969 0
M  V30 41630 O 1616.16 1.97652 7.47304 0
M  V30 41631 C 1617.1 3.01133 7.08783 0
M  V30 41632 C 1616.37 4.12613 6.37049 0
M  V30 41633 O 1616.16 3.72827 4.97879 0
M  V30 41634 C 1614.97 4.45085 6.88694 0
M  V30 41635 O 1614.58 5.7877 6.5624 0
M  V30 41636 C 1614.09 3.47817 6.12078 0
M  V30 41637 C 1614.8 3.39414 4.77697 0
M  V30 41638 N 1614.75 2.04199 4.15538 0
M  V30 41639 H 1617.59 3.41248 7.98759 0
M  V30 41640 H 1617.86 2.57728 6.42 0
M  V30 41641 H 1616.99 5.02657 6.42673 0
M  V30 41642 H 1614.34 4.11708 4.08956 0
M  V30 41643 H 1614.06 2.49626 6.61679 0
M  V30 41644 H 1613.07 3.8662 6.00862 0
M  V30 41645 H 1614.9 4.29991 7.97006 0
M  V30 41646 P 1613.03 6.144 6.45285 0
M  V30 41647 O 1612.81 7.54673 6.86199 0
M  V30 41648 O 1612.24 5.12391 7.179 0
M  V30 41649 O 1612.78 5.99158 4.88404 0
M  V30 41650 C 1613.72 6.60062 3.96313 0
M  V30 41651 C 1612.99 7.08259 2.72856 0
M  V30 41652 O 1612.78 5.9427 1.83651 0
M  V30 41653 C 1611.59 7.65087 2.94749 0
M  V30 41654 O 1611.2 8.53963 1.90717 0
M  V30 41655 C 1610.71 6.41069 2.90698 0
M  V30 41656 C 1611.42 5.5528 1.86931 0
M  V30 41657 N 1611.37 4.09575 2.15696 0
M  V30 41658 C 1611.22 3.24249 1.08435 0
M  V30 41659 O 1611.13 3.63946 -0.0628747 0
M  V30 41660 N 1611.18 1.90009 1.39973 0
M  V30 41661 C 1611.27 1.34884 2.65614 0
M  V30 41662 O 1611.22 0.123716 2.81728 0
M  V30 41663 C 1611.42 2.3145 3.71736 0
M  V30 41664 C 1611.53 1.75913 5.10438 0
M  V30 41665 C 1611.47 3.63518 3.44754 0
M  V30 41666 H 1614.21 7.45402 4.45526 0
M  V30 41667 H 1614.48 5.86062 3.67208 0
M  V30 41668 H 1613.61 7.84412 2.24479 0
M  V30 41669 H 1610.96 5.73358 0.888409 0
M  V30 41670 H 1610.68 5.90877 3.88583 0
M  V30 41671 H 1609.69 6.65867 2.58821 0
M  V30 41672 H 1611.52 8.16248 3.92006 0
M  V30 41673 H 1611.59 4.34551 4.26383 0
M  V30 41674 H 1610.56 1.85471 5.61775 0
M  V30 41675 H 1612.3 2.31364 5.66257 0
M  V30 41676 H 1611.81 0.695936 5.05229 0
M  V30 41677 H 1611.08 1.26277 0.63625 0
M  V30 41678 P 1609.65 8.7635 1.60911 0
M  V30 41679 O 1609.43 10.1388 1.11561 0
M  V30 41680 O 1608.86 8.36503 2.79617 0
M  V30 41681 O 1609.4 7.71806 0.42951 0
M  V30 41682 C 1610.34 7.67148 -0.673689 0
M  V30 41683 C 1609.61 7.33374 -1.95559 0
M  V30 41684 O 1609.4 5.88721 -2.00726 0
M  V30 41685 C 1608.21 7.92526 -2.10483 0
M  V30 41686 O 1607.82 8.02971 -3.47653 0
M  V30 41687 C 1607.33 6.89602 -1.41652 0
M  V30 41688 C 1608.04 5.59201 -1.75185 0
M  V30 41689 N 1607.99 4.58235 -0.662552 0
M  V30 41690 H 1610.83 8.65116 -0.777161 0
M  V30 41691 H 1611.1 6.90173 -0.474152 0
M  V30 41692 H 1610.23 7.66548 -2.79458 0
M  V30 41693 P 1606.27 8.03563 -3.84925 0
M  V30 41694 O 1606.05 8.85821 -5.0569 0
M  V30 41695 O 1605.48 8.41101 -2.65469 0
M  V30 41696 O 1606.02 6.4965 -4.18908 0
M  V30 41697 C 1606.96 5.81037 -5.05421 0
M  V30 41698 C 1606.23 4.78366 -5.89277 0
M  V30 41699 O 1606.02 3.58302 -5.08433 0
M  V30 41700 C 1604.83 5.17448 -6.36119 0
M  V30 41701 O 1604.44 4.45271 -7.53232 0
M  V30 41702 C 1603.95 4.74639 -5.19936 0
M  V30 41703 C 1604.66 3.49432 -4.70418 0
M  V30 41704 N 1604.61 3.31776 -3.22945 0
M  V30 41705 H 1607.45 6.54213 -5.71376 0
M  V30 41706 H 1607.72 5.30492 -4.44033 0
M  V30 41707 H 1606.85 4.55889 -6.76652 0
M  V30 41708 P 1602.89 4.23843 -7.83734 0
M  V30 41709 O 1602.67 4.19407 -9.29784 0
M  V30 41710 O 1602.1 5.24426 -7.09156 0
M  V30 41711 O 1602.64 2.7935 -7.20758 0
M  V30 41712 C 1603.58 1.7299 -7.50419 0
M  V30 41713 C 1602.85 0.406376 -7.57911 0
M  V30 41714 O 1602.64 -0.0897726 -6.21935 0
M  V30 41715 C 1601.45 0.447224 -8.1878 0
M  V30 41716 O 1601.06 -0.825065 -8.71101 0
M  V30 41717 C 1600.57 0.783801 -6.99623 0
M  V30 41718 C 1601.28 0.0619192 -5.85967 0
M  V30 41719 N 1601.23 0.7859 -4.56281 0
M  V30 41720 H 1604.07 1.93423 -8.4679 0
M  V30 41721 H 1604.34 1.68181 -6.71046 0
M  V30 41722 H 1603.47 -0.289041 -8.15388 0
M  V30 41723 P 1599.51 -1.17771 -8.83182 0
M  V30 41724 O 1599.29 -2.07206 -9.98732 0
M  V30 41725 O 1598.72 0.0743816 -8.81969 0
M  V30 41726 O 1599.26 -1.97652 -7.47304 0
M  V30 41727 C 1600.2 -3.01133 -7.08783 0
M  V30 41728 C 1599.47 -4.12613 -6.37049 0
M  V30 41729 O 1599.26 -3.72827 -4.97879 0
M  V30 41730 C 1598.07 -4.45085 -6.88694 0
M  V30 41731 O 1597.68 -5.7877 -6.5624 0
M  V30 41732 C 1597.19 -3.47817 -6.12078 0
M  V30 41733 C 1597.9 -3.39414 -4.77697 0
M  V30 41734 N 1597.85 -2.04615 -4.15333 0
M  V30 41735 H 1600.69 -3.41248 -7.98759 0
M  V30 41736 H 1600.96 -2.5837 -6.41742 0
M  V30 41737 H 1600.09 -5.02657 -6.42673 0
M  V30 41738 P 1596.13 -6.144 -6.45285 0
M  V30 41739 O 1595.91 -7.54673 -6.86199 0
M  V30 41740 O 1595.34 -5.12391 -7.179 0
M  V30 41741 O 1595.88 -5.99158 -4.88404 0
M  V30 41742 C 1596.82 -6.60234 -3.96415 0
M  V30 41743 C 1596.09 -7.08259 -2.72856 0
M  V30 41744 O 1595.88 -5.9427 -1.83651 0
M  V30 41745 C 1594.69 -7.64886 -2.9555 0
M  V30 41746 O 1594.3 -8.53963 -1.90717 0
M  V30 41747 C 1593.81 -6.4116 -2.90739 0
M  V30 41748 C 1594.52 -5.55375 -1.86963 0
M  V30 41749 N 1594.47 -4.09664 -2.15742 0
M  V30 41750 H 1597.31 -7.45574 -4.45629 0
M  V30 41751 H 1597.58 -5.86232 -3.67314 0
M  V30 41752 H 1596.71 -7.84412 -2.24479 0
M  V30 41753 P 1592.75 -8.7635 -1.60911 0
M  V30 41754 O 1592.53 -10.1388 -1.11561 0
M  V30 41755 O 1591.96 -8.36503 -2.79617 0
M  V30 41756 O 1592.5 -7.71806 -0.42951 0
M  V30 41757 C 1593.44 -7.67148 0.673689 0
M  V30 41758 C 1592.71 -7.33374 1.95559 0
M  V30 41759 O 1592.5 -5.88721 2.00726 0
M  V30 41760 C 1591.31 -7.92526 2.10483 0
M  V30 41761 O 1590.92 -8.02971 3.47653 0
M  V30 41762 C 1590.43 -6.89602 1.41652 0
M  V30 41763 C 1591.14 -5.59201 1.75185 0
M  V30 41764 N 1591.09 -4.58301 0.657969 0
M  V30 41765 H 1593.93 -8.65116 0.777161 0
M  V30 41766 H 1594.2 -6.9022 0.46725 0
M  V30 41767 H 1593.33 -7.66548 2.79458 0
M  V30 41768 H 1590.68 -5.16165 2.65183 0
M  V30 41769 H 1590.4 -7.06433 0.329384 0
M  V30 41770 H 1589.41 -6.90926 1.82021 0
M  V30 41771 H 1591.24 -8.90873 1.62657 0
M  V30 41772 P 1589.37 -8.03563 3.84925 0
M  V30 41773 O 1589.15 -8.85821 5.0569 0
M  V30 41774 O 1588.58 -8.41101 2.65469 0
M  V30 41775 O 1589.12 -6.4965 4.18908 0
M  V30 41776 C 1590.06 -5.81037 5.05421 0
M  V30 41777 C 1589.33 -4.78366 5.89277 0
M  V30 41778 O 1589.12 -3.58302 5.08433 0
M  V30 41779 C 1587.93 -5.17448 6.36119 0
M  V30 41780 O 1587.54 -4.45271 7.53232 0
M  V30 41781 C 1587.05 -4.74639 5.19936 0
M  V30 41782 C 1587.76 -3.49432 4.70418 0
M  V30 41783 N 1587.71 -3.31776 3.22945 0
M  V30 41784 H 1590.55 -6.54213 5.71376 0
M  V30 41785 H 1590.82 -5.30492 4.44033 0
M  V30 41786 H 1589.95 -4.55889 6.76652 0
M  V30 41787 P 1585.99 -4.23843 7.83734 0
M  V30 41788 O 1585.77 -4.19407 9.29784 0
M  V30 41789 O 1585.2 -5.24426 7.09156 0
M  V30 41790 O 1585.74 -2.7935 7.20758 0
M  V30 41791 C 1586.68 -1.7299 7.50419 0
M  V30 41792 C 1585.95 -0.406376 7.57911 0
M  V30 41793 O 1585.74 0.0897726 6.21935 0
M  V30 41794 C 1584.55 -0.447224 8.1878 0
M  V30 41795 O 1584.16 0.825065 8.71101 0
M  V30 41796 C 1583.67 -0.783801 6.99623 0
M  V30 41797 C 1584.38 -0.0619192 5.85967 0
M  V30 41798 N 1584.33 -0.7859 4.56281 0
M  V30 41799 H 1587.17 -1.93423 8.4679 0
M  V30 41800 H 1587.44 -1.68181 6.71046 0
M  V30 41801 H 1586.57 0.289041 8.15388 0
M  V30 41802 P 1582.61 1.17771 8.83182 0
M  V30 41803 O 1582.39 2.07206 9.98732 0
M  V30 41804 O 1581.82 -0.0743816 8.81969 0
M  V30 41805 O 1582.36 1.97652 7.47304 0
M  V30 41806 C 1583.3 3.01133 7.08783 0
M  V30 41807 C 1582.57 4.12613 6.37049 0
M  V30 41808 O 1582.36 3.72827 4.97879 0
M  V30 41809 C 1581.17 4.45085 6.88694 0
M  V30 41810 O 1580.78 5.7877 6.5624 0
M  V30 41811 C 1580.29 3.47817 6.12078 0
M  V30 41812 C 1581 3.39414 4.77697 0
M  V30 41813 N 1580.95 2.04615 4.15333 0
M  V30 41814 H 1583.79 3.41248 7.98759 0
M  V30 41815 H 1584.06 2.5837 6.41742 0
M  V30 41816 H 1583.19 5.02657 6.42673 0
M  V30 41817 P 1579.23 6.144 6.45285 0
M  V30 41818 O 1579.01 7.54673 6.86199 0
M  V30 41819 O 1578.44 5.12391 7.179 0
M  V30 41820 O 1578.98 5.99158 4.88404 0
M  V30 41821 C 1579.92 6.60234 3.96415 0
M  V30 41822 C 1579.19 7.08259 2.72856 0
M  V30 41823 O 1578.98 5.9427 1.83651 0
M  V30 41824 C 1577.79 7.64886 2.9555 0
M  V30 41825 O 1577.4 8.53963 1.90717 0
M  V30 41826 C 1576.91 6.4116 2.90739 0
M  V30 41827 C 1577.62 5.55375 1.86963 0
M  V30 41828 N 1577.57 4.09664 2.15742 0
M  V30 41829 H 1580.41 7.45574 4.45629 0
M  V30 41830 H 1580.68 5.86232 3.67314 0
M  V30 41831 H 1579.81 7.84412 2.24479 0
M  V30 41832 P 1575.85 8.7635 1.60911 0
M  V30 41833 O 1575.63 10.1388 1.11561 0
M  V30 41834 O 1575.06 8.36503 2.79617 0
M  V30 41835 O 1575.6 7.71806 0.42951 0
M  V30 41836 C 1576.54 7.67148 -0.673689 0
M  V30 41837 C 1575.81 7.33374 -1.95559 0
M  V30 41838 O 1575.6 5.88721 -2.00726 0
M  V30 41839 C 1574.41 7.92526 -2.10483 0
M  V30 41840 O 1574.02 8.02971 -3.47653 0
M  V30 41841 C 1573.53 6.89602 -1.41652 0
M  V30 41842 C 1574.24 5.59201 -1.75185 0
M  V30 41843 N 1574.19 4.58235 -0.662552 0
M  V30 41844 H 1577.03 8.65116 -0.777161 0
M  V30 41845 H 1577.3 6.90173 -0.474152 0
M  V30 41846 H 1576.43 7.66548 -2.79458 0
M  V30 41847 P 1572.47 8.03563 -3.84925 0
M  V30 41848 O 1572.25 8.85821 -5.0569 0
M  V30 41849 O 1571.68 8.41101 -2.65469 0
M  V30 41850 O 1572.22 6.4965 -4.18908 0
M  V30 41851 C 1573.16 5.81037 -5.05421 0
M  V30 41852 C 1572.43 4.78366 -5.89277 0
M  V30 41853 O 1572.22 3.58302 -5.08433 0
M  V30 41854 C 1571.03 5.17448 -6.36119 0
M  V30 41855 O 1570.64 4.45271 -7.53232 0
M  V30 41856 C 1570.15 4.74639 -5.19936 0
M  V30 41857 C 1570.86 3.49432 -4.70418 0
M  V30 41858 N 1570.81 3.31776 -3.22945 0
M  V30 41859 C 1570.89 4.27147 -2.23315 0
M  V30 41860 N 1570.81 3.78447 -1.02186 0
M  V30 41861 C 1570.67 2.41001 -1.21732 0
M  V30 41862 C 1570.54 1.36111 -0.27694 0
M  V30 41863 N 1570.42 0.113683 -0.912949 0
M  V30 41864 C 1570.42 -0.0846396 -2.27943 0
M  V30 41865 N 1570.29 -1.34737 -2.6916 0
M  V30 41866 N 1570.55 0.902521 -3.16379 0
M  V30 41867 C 1570.67 2.11937 -2.56849 0
M  V30 41868 H 1573.65 6.54213 -5.71376 0
M  V30 41869 H 1573.92 5.30492 -4.44033 0
M  V30 41870 H 1573.05 4.55889 -6.76652 0
M  V30 41871 P 1569.09 4.23843 -7.83734 0
M  V30 41872 O 1568.87 4.19407 -9.29784 0
M  V30 41873 O 1568.3 5.24426 -7.09156 0
M  V30 41874 O 1568.84 2.79386 -7.20852 0
M  V30 41875 C 1569.78 1.7299 -7.50419 0
M  V30 41876 C 1569.05 0.41401 -7.5797 0
M  V30 41877 O 1568.84 -0.089787 -6.22035 0
M  V30 41878 C 1567.65 0.447224 -8.1878 0
M  V30 41879 O 1567.26 -0.825159 -8.71201 0
M  V30 41880 C 1566.77 0.783801 -6.99623 0
M  V30 41881 C 1567.48 0.0619192 -5.85967 0
M  V30 41882 N 1567.43 0.7859 -4.56281 0
M  V30 41883 C 1567.28 0.0359258 -3.39981 0
M  V30 41884 O 1567.19 -1.19723 -3.49038 0
M  V30 41885 N 1567.23 0.869151 -2.14025 0
M  V30 41886 C 1567.33 2.01207 -2.14363 0
M  V30 41887 N 1567.28 2.58978 -0.954287 0
M  V30 41888 C 1567.48 2.80817 -3.32215 0
M  V30 41889 C 1567.53 2.13785 -4.50884 0
M  V30 41890 H 1570.27 1.93401 -8.46693 0
M  V30 41891 H 1570.54 1.68181 -6.71046 0
M  V30 41892 H 1569.67 -0.289076 -8.15488 0
M  V30 41893 H 1567.02 -0.927166 -5.72947 0
M  V30 41894 H 1566.74 1.87 -6.82132 0
M  V30 41895 H 1565.75 0.404009 -7.13457 0
M  V30 41896 H 1567.58 1.20599 -8.97534 0
M  V30 41897 H 1567.65 2.70295 -5.43162 0
M  V30 41898 H 1567.55 3.89465 -3.27406 0
M  V30 41899 H 1567.16 2.01616 -0.107046 0
M  V30 41900 H 1567.36 3.61403 -0.873101 0
M  V30 41901 P 1565.71 -1.17771 -8.83182 0
M  V30 41902 O 1565.49 -2.07206 -9.98732 0
M  V30 41903 O 1564.92 0.0743816 -8.81969 0
M  V30 41904 O 1565.46 -1.97652 -7.47304 0
M  V30 41905 C 1566.4 -3.01133 -7.08783 0
M  V30 41906 C 1565.67 -4.12613 -6.37049 0
M  V30 41907 O 1565.46 -3.72827 -4.97879 0
M  V30 41908 C 1564.27 -4.45085 -6.88694 0
M  V30 41909 O 1563.88 -5.7877 -6.5624 0
M  V30 41910 C 1563.39 -3.47817 -6.12078 0
M  V30 41911 C 1564.1 -3.39414 -4.77697 0
M  V30 41912 N 1564.05 -2.04199 -4.15538 0
M  V30 41913 C 1564.13 -0.821545 -4.76977 0
M  V30 41914 N 1564.06 0.1794 -3.94592 0
M  V30 41915 C 1563.91 -0.419121 -2.70776 0
M  V30 41916 C 1563.78 0.109072 -1.40577 0
M  V30 41917 N 1563.77 1.4104 -1.1344 0
M  V30 41918 N 1563.66 -0.764381 -0.39411 0
M  V30 41919 C 1563.67 -2.06587 -0.664135 0
M  V30 41920 N 1563.79 -2.67948 -1.82153 0
M  V30 41921 C 1563.91 -1.77942 -2.8147 0
M  V30 41922 H 1566.89 -3.41248 -7.98759 0
M  V30 41923 H 1567.16 -2.57728 -6.42 0
M  V30 41924 H 1566.29 -5.02657 -6.42673 0
M  V30 41925 H 1563.64 -4.11708 -4.08956 0
M  V30 41926 H 1563.36 -2.49626 -6.61679 0
M  V30 41927 H 1562.37 -3.8662 -6.00862 0
M  V30 41928 H 1564.2 -4.29991 -7.97006 0
M  V30 41929 H 1564.24 -0.702451 -5.84696 0
M  V30 41930 H 1563.86 2.09647 -1.89651 0
M  V30 41931 H 1563.67 1.73358 -0.160575 0
M  V30 41932 H 1563.56 -2.71695 0.195838 0
M  V30 41933 P 1562.33 -6.144 -6.45285 0
M  V30 41934 O 1562.11 -7.54673 -6.86199 0
M  V30 41935 O 1561.54 -5.12391 -7.179 0
M  V30 41936 O 1562.08 -5.99158 -4.88404 0
M  V30 41937 C 1563.02 -6.60234 -3.96415 0
M  V30 41938 C 1562.29 -7.08259 -2.72856 0
M  V30 41939 O 1562.08 -5.9427 -1.83651 0
M  V30 41940 C 1560.89 -7.64886 -2.9555 0
M  V30 41941 O 1560.5 -8.53963 -1.90717 0
M  V30 41942 C 1560.01 -6.4116 -2.90739 0
M  V30 41943 C 1560.72 -5.55375 -1.86963 0
M  V30 41944 N 1560.67 -4.09664 -2.15742 0
M  V30 41945 H 1563.51 -7.45574 -4.45629 0
M  V30 41946 H 1563.78 -5.86232 -3.67314 0
M  V30 41947 H 1562.91 -7.84412 -2.24479 0
M  V30 41948 P 1558.95 -8.7635 -1.60911 0
M  V30 41949 O 1558.73 -10.1388 -1.11561 0
M  V30 41950 O 1558.16 -8.36503 -2.79617 0
M  V30 41951 O 1558.7 -7.71806 -0.42951 0
M  V30 41952 C 1559.64 -7.67148 0.673689 0
M  V30 41953 C 1558.91 -7.33374 1.95559 0
M  V30 41954 O 1558.7 -5.88721 2.00726 0
M  V30 41955 C 1557.51 -7.92526 2.10483 0
M  V30 41956 O 1557.12 -8.02971 3.47653 0
M  V30 41957 C 1556.63 -6.89602 1.41652 0
M  V30 41958 C 1557.34 -5.59201 1.75185 0
M  V30 41959 N 1557.29 -4.58235 0.662552 0
M  V30 41960 H 1560.13 -8.65116 0.777161 0
M  V30 41961 H 1560.4 -6.90173 0.474152 0
M  V30 41962 H 1559.53 -7.66548 2.79458 0
M  V30 41963 P 1555.57 -8.03563 3.84925 0
M  V30 41964 O 1555.35 -8.85821 5.0569 0
M  V30 41965 O 1554.78 -8.41101 2.65469 0
M  V30 41966 O 1555.32 -6.4965 4.18908 0
M  V30 41967 C 1556.26 -5.81037 5.05421 0
M  V30 41968 C 1555.53 -4.78366 5.89277 0
M  V30 41969 O 1555.32 -3.58302 5.08433 0
M  V30 41970 C 1554.13 -5.17448 6.36119 0
M  V30 41971 O 1553.74 -4.45271 7.53232 0
M  V30 41972 C 1553.25 -4.74639 5.19936 0
M  V30 41973 C 1553.96 -3.49432 4.70418 0
M  V30 41974 N 1553.91 -3.31776 3.22945 0
M  V30 41975 H 1556.75 -6.54213 5.71376 0
M  V30 41976 H 1557.02 -5.30492 4.44033 0
M  V30 41977 H 1556.15 -4.55889 6.76652 0
M  V30 41978 P 1552.19 -4.23843 7.83734 0
M  V30 41979 O 1551.97 -4.19407 9.29784 0
M  V30 41980 O 1551.4 -5.24426 7.09156 0
M  V30 41981 O 1551.94 -2.7935 7.20758 0
M  V30 41982 C 1552.88 -1.7299 7.50419 0
M  V30 41983 C 1552.15 -0.406376 7.57911 0
M  V30 41984 O 1551.94 0.0897726 6.21935 0
M  V30 41985 C 1550.75 -0.447224 8.1878 0
M  V30 41986 O 1550.36 0.825065 8.71101 0
M  V30 41987 C 1549.87 -0.783801 6.99623 0
M  V30 41988 C 1550.58 -0.0619192 5.85967 0
M  V30 41989 N 1550.53 -0.7859 4.56281 0
M  V30 41990 H 1553.37 -1.93423 8.4679 0
M  V30 41991 H 1553.64 -1.68181 6.71046 0
M  V30 41992 H 1552.77 0.289041 8.15388 0
M  V30 41993 P 1548.81 1.17771 8.83182 0
M  V30 41994 O 1548.59 2.07206 9.98732 0
M  V30 41995 O 1548.02 -0.0743816 8.81969 0
M  V30 41996 O 1548.56 1.97678 7.474 0
M  V30 41997 C 1549.5 3.01133 7.08783 0
M  V30 41998 C 1548.77 4.1203 6.37546 0
M  V30 41999 O 1548.56 3.72887 4.9796 0
M  V30 42000 C 1547.37 4.45085 6.88694 0
M  V30 42001 O 1546.98 5.78836 6.56315 0
M  V30 42002 C 1546.49 3.47817 6.12078 0
M  V30 42003 C 1547.2 3.39414 4.77697 0
M  V30 42004 N 1547.15 2.04615 4.15333 0
M  V30 42005 C 1547 1.96929 2.77162 0
M  V30 42006 O 1546.91 3.02017 2.12006 0
M  V30 42007 N 1546.95 0.55485 2.24237 0
M  V30 42008 C 1547.05 -0.367808 2.9169 0
M  V30 42009 N 1547 -1.53426 2.29427 0
M  V30 42010 C 1547.2 -0.319148 4.33828 0
M  V30 42011 C 1547.25 0.920672 4.90433 0
M  V30 42012 H 1549.99 3.41209 7.98667 0
M  V30 42013 H 1550.26 2.5837 6.41742 0
M  V30 42014 H 1549.39 5.02718 6.42752 0
M  V30 42015 H 1546.74 4.11779 4.09026 0
M  V30 42016 H 1546.46 2.49661 6.61772 0
M  V30 42017 H 1545.47 3.86674 6.00946 0
M  V30 42018 H 1547.3 4.29991 7.97006 0
M  V30 42019 H 1547.37 1.00589 5.98303 0
M  V30 42020 H 1547.27 -1.22639 4.93799 0
M  V30 42021 H 1546.88 -1.56819 1.27167 0
M  V30 42022 H 1547.08 -2.41062 2.83063 0
M  V30 42023 P 1545.43 6.144 6.45285 0
M  V30 42024 O 1545.21 7.54673 6.86199 0
M  V30 42025 O 1544.64 5.12391 7.179 0
M  V30 42026 O 1545.18 5.99158 4.88404 0
M  V30 42027 C 1546.12 6.60234 3.96415 0
M  V30 42028 C 1545.39 7.08259 2.72856 0
M  V30 42029 O 1545.18 5.9427 1.83651 0
M  V30 42030 C 1543.99 7.64886 2.9555 0
M  V30 42031 O 1543.6 8.53963 1.90717 0
M  V30 42032 C 1543.11 6.4116 2.90739 0
M  V30 42033 C 1543.82 5.55375 1.86963 0
M  V30 42034 N 1543.77 4.09664 2.15742 0
M  V30 42035 C 1543.85 3.44381 3.37233 0
M  V30 42036 N 1543.77 2.14131 3.28347 0
M  V30 42037 C 1543.63 1.90247 1.91588 0
M  V30 42038 C 1543.5 0.683992 1.20892 0
M  V30 42039 N 1543.38 0.903396 -0.173998 0
M  V30 42040 C 1543.38 2.14171 -0.784879 0
M  V30 42041 N 1543.25 2.1435 -2.11317 0
M  V30 42042 N 1543.51 3.28784 -0.119316 0
M  V30 42043 C 1543.63 3.0977 1.22194 0
M  V30 42044 H 1546.61 7.45574 4.45629 0
M  V30 42045 H 1546.88 5.86232 3.67314 0
M  V30 42046 H 1546.01 7.84412 2.24479 0
M  V30 42047 P 1542.05 8.7635 1.60911 0
M  V30 42048 O 1541.83 10.1388 1.11561 0
M  V30 42049 O 1541.26 8.36503 2.79617 0
M  V30 42050 O 1541.8 7.71806 0.42951 0
M  V30 42051 C 1542.74 7.67148 -0.673689 0
M  V30 42052 C 1542.01 7.33374 -1.95559 0
M  V30 42053 O 1541.8 5.88721 -2.00726 0
M  V30 42054 C 1540.61 7.92526 -2.10483 0
M  V30 42055 O 1540.22 8.02971 -3.47653 0
M  V30 42056 C 1539.73 6.89602 -1.41652 0
M  V30 42057 C 1540.44 5.59201 -1.75185 0
M  V30 42058 N 1540.39 4.58235 -0.662552 0
M  V30 42059 H 1543.23 8.65116 -0.777161 0
M  V30 42060 H 1543.5 6.90173 -0.474152 0
M  V30 42061 H 1542.63 7.66548 -2.79458 0
M  V30 42062 P 1538.67 8.03563 -3.84925 0
M  V30 42063 O 1538.45 8.85821 -5.0569 0
M  V30 42064 O 1537.88 8.41101 -2.65469 0
M  V30 42065 O 1538.42 6.4965 -4.18908 0
M  V30 42066 C 1539.36 5.81037 -5.05421 0
M  V30 42067 C 1538.63 4.78366 -5.89277 0
M  V30 42068 O 1538.42 3.58302 -5.08433 0
M  V30 42069 C 1537.23 5.17448 -6.36119 0
M  V30 42070 O 1536.84 4.45271 -7.53232 0
M  V30 42071 C 1536.35 4.74639 -5.19936 0
M  V30 42072 C 1537.06 3.49432 -4.70418 0
M  V30 42073 N 1537.01 3.32099 -3.22613 0
M  V30 42074 H 1539.85 6.54213 -5.71376 0
M  V30 42075 H 1540.12 5.30936 -4.43503 0
M  V30 42076 H 1539.25 4.55889 -6.76652 0
M  V30 42077 H 1536.6 2.61715 -5.17932 0
M  V30 42078 H 1536.32 5.52155 -4.41878 0
M  V30 42079 H 1535.33 4.51981 -5.53374 0
M  V30 42080 H 1537.16 6.25124 -6.55234 0
M  V30 42081 P 1535.29 4.23843 -7.83734 0
M  V30 42082 O 1535.07 4.19407 -9.29784 0
M  V30 42083 O 1534.5 5.24426 -7.09156 0
M  V30 42084 O 1535.04 2.7935 -7.20758 0
M  V30 42085 C 1535.98 1.7299 -7.50419 0
M  V30 42086 C 1535.25 0.406376 -7.57911 0
M  V30 42087 O 1535.04 -0.0897726 -6.21935 0
M  V30 42088 C 1533.85 0.447224 -8.1878 0
M  V30 42089 O 1533.46 -0.825065 -8.71101 0
M  V30 42090 C 1532.97 0.783801 -6.99623 0
M  V30 42091 C 1533.68 0.0619192 -5.85967 0
M  V30 42092 N 1533.63 0.7859 -4.56281 0
M  V30 42093 H 1536.47 1.93423 -8.4679 0
M  V30 42094 H 1536.74 1.68181 -6.71046 0
M  V30 42095 H 1535.87 -0.289041 -8.15388 0
M  V30 42096 P 1531.91 -1.17771 -8.83182 0
M  V30 42097 O 1531.69 -2.07206 -9.98732 0
M  V30 42098 O 1531.12 0.0743816 -8.81969 0
M  V30 42099 O 1531.66 -1.97652 -7.47304 0
M  V30 42100 C 1532.6 -3.01133 -7.08783 0
M  V30 42101 C 1531.87 -4.12613 -6.37049 0
M  V30 42102 O 1531.66 -3.72827 -4.97879 0
M  V30 42103 C 1530.47 -4.45085 -6.88694 0
M  V30 42104 O 1530.08 -5.7877 -6.5624 0
M  V30 42105 C 1529.59 -3.47817 -6.12078 0
M  V30 42106 C 1530.3 -3.39414 -4.77697 0
M  V30 42107 N 1530.25 -2.04615 -4.15333 0
M  V30 42108 H 1533.09 -3.41248 -7.98759 0
M  V30 42109 H 1533.36 -2.5837 -6.41742 0
M  V30 42110 H 1532.49 -5.02657 -6.42673 0
M  V30 42111 P 1528.53 -6.144 -6.45285 0
M  V30 42112 O 1528.31 -7.54673 -6.86199 0
M  V30 42113 O 1527.74 -5.12391 -7.179 0
M  V30 42114 O 1528.28 -5.99158 -4.88404 0
M  V30 42115 C 1529.22 -6.60234 -3.96415 0
M  V30 42116 C 1528.49 -7.08259 -2.72856 0
M  V30 42117 O 1528.28 -5.9427 -1.83651 0
M  V30 42118 C 1527.09 -7.64886 -2.9555 0
M  V30 42119 O 1526.7 -8.53963 -1.90717 0
M  V30 42120 C 1526.21 -6.4116 -2.90739 0
M  V30 42121 C 1526.92 -5.55375 -1.86963 0
M  V30 42122 N 1526.87 -4.09448 -2.16152 0
M  V30 42123 C 1526.95 -3.46824 -3.37593 0
M  V30 42124 N 1526.88 -2.17422 -3.29777 0
M  V30 42125 C 1526.73 -1.93065 -1.94427 0
M  V30 42126 C 1526.6 -0.738053 -1.20141 0
M  V30 42127 N 1526.59 0.474256 -1.74676 0
M  V30 42128 N 1526.48 -0.850049 0.13045 0
M  V30 42129 C 1526.49 -2.06169 0.676992 0
M  V30 42130 N 1526.61 -3.23842 0.101312 0
M  V30 42131 C 1526.73 -3.09402 -1.23122 0
M  V30 42132 H 1529.71 -7.45574 -4.45629 0
M  V30 42133 H 1529.98 -5.85864 -3.679 0
M  V30 42134 H 1529.11 -7.84412 -2.24479 0
M  V30 42135 H 1526.46 -5.73457 -0.888562 0
M  V30 42136 H 1526.18 -5.90877 -3.88583 0
M  V30 42137 H 1525.19 -6.6596 -2.58858 0
M  V30 42138 H 1527.02 -8.16339 -3.92049 0
M  V30 42139 H 1527.06 -4.00505 -4.3174 0
M  V30 42140 H 1526.68 0.581337 -2.76658 0
M  V30 42141 H 1526.49 1.30811 -1.14888 0
M  V30 42142 H 1526.38 -2.08295 1.75542 0
M  V30 42143 P 1525.15 -8.7635 -1.60911 0
M  V30 42144 O 1524.93 -10.1388 -1.11561 0
M  V30 42145 O 1524.36 -8.36503 -2.79617 0
M  V30 42146 O 1524.9 -7.71806 -0.42951 0
M  V30 42147 C 1525.84 -7.67148 0.673689 0
M  V30 42148 C 1525.11 -7.33374 1.95559 0
M  V30 42149 O 1524.9 -5.88721 2.00726 0
M  V30 42150 C 1523.71 -7.92526 2.10483 0
M  V30 42151 O 1523.32 -8.02971 3.47653 0
M  V30 42152 C 1522.83 -6.89602 1.41652 0
M  V30 42153 C 1523.54 -5.59201 1.75185 0
M  V30 42154 N 1523.49 -4.58235 0.662552 0
M  V30 42155 H 1526.33 -8.65116 0.777161 0
M  V30 42156 H 1526.6 -6.90173 0.474152 0
M  V30 42157 H 1525.73 -7.66548 2.79458 0
M  V30 42158 P 1521.77 -8.03563 3.84925 0
M  V30 42159 O 1521.55 -8.85821 5.0569 0
M  V30 42160 O 1520.98 -8.41101 2.65469 0
M  V30 42161 O 1521.52 -6.4965 4.18908 0
M  V30 42162 C 1522.46 -5.81037 5.05421 0
M  V30 42163 C 1521.73 -4.78366 5.89277 0
M  V30 42164 O 1521.52 -3.58302 5.08433 0
M  V30 42165 C 1520.33 -5.17448 6.36119 0
M  V30 42166 O 1519.94 -4.45271 7.53232 0
M  V30 42167 C 1519.45 -4.74639 5.19936 0
M  V30 42168 C 1520.16 -3.49432 4.70418 0
M  V30 42169 N 1520.11 -3.31776 3.22945 0
M  V30 42170 H 1522.95 -6.54213 5.71376 0
M  V30 42171 H 1523.22 -5.30492 4.44033 0
M  V30 42172 H 1522.35 -4.55889 6.76652 0
M  V30 42173 P 1518.39 -4.23843 7.83734 0
M  V30 42174 O 1518.17 -4.19407 9.29784 0
M  V30 42175 O 1517.6 -5.24426 7.09156 0
M  V30 42176 O 1518.14 -2.7935 7.20758 0
M  V30 42177 C 1519.08 -1.72945 7.50224 0
M  V30 42178 C 1518.35 -0.406376 7.57911 0
M  V30 42179 O 1518.14 0.0897726 6.21935 0
M  V30 42180 C 1516.95 -0.438983 8.18724 0
M  V30 42181 O 1516.56 0.825065 8.71101 0
M  V30 42182 C 1516.07 -0.783689 6.99524 0
M  V30 42183 C 1516.78 -0.0619086 5.85867 0
M  V30 42184 N 1516.73 -0.78573 4.56183 0
M  V30 42185 C 1516.58 -0.0292889 3.41887 0
M  V30 42186 O 1516.49 1.18445 3.4419 0
M  V30 42187 N 1516.54 -0.744061 2.23964 0
M  V30 42188 C 1516.63 -2.10932 2.10362 0
M  V30 42189 O 1516.58 -2.64117 0.98825 0
M  V30 42190 C 1516.78 -2.8202 3.34994 0
M  V30 42191 C 1516.89 -4.31095 3.25037 0
M  V30 42192 C 1516.83 -2.15547 4.52261 0
M  V30 42193 H 1519.57 -1.93379 8.46595 0
M  V30 42194 H 1519.84 -1.68132 6.70852 0
M  V30 42195 H 1518.97 0.289041 8.15388 0
M  V30 42196 H 1516.32 0.926847 5.72749 0
M  V30 42197 H 1516.04 -1.86973 6.82036 0
M  V30 42198 H 1515.05 -0.403896 7.13257 0
M  V30 42199 H 1516.88 -1.20585 8.97435 0
M  V30 42200 H 1516.95 -2.71231 5.45042 0
M  V30 42201 H 1515.92 -4.76966 3.49992 0
M  V30 42202 H 1517.66 -4.67047 3.95024 0
M  V30 42203 H 1517.17 -4.58996 2.22312 0
M  V30 42204 H 1516.44 -0.214893 1.39758 0
M  V30 42205 P 1515.01 1.17771 8.83182 0
M  V30 42206 O 1514.79 2.07206 9.98732 0
M  V30 42207 O 1514.22 -0.0743816 8.81969 0
M  V30 42208 O 1514.76 1.97652 7.47304 0
M  V30 42209 C 1515.7 3.01133 7.08783 0
M  V30 42210 C 1514.97 4.12613 6.37049 0
M  V30 42211 O 1514.76 3.72827 4.97879 0
M  V30 42212 C 1513.57 4.45085 6.88694 0
M  V30 42213 O 1513.18 5.7877 6.5624 0
M  V30 42214 C 1512.69 3.47817 6.12078 0
M  V30 42215 C 1513.4 3.39414 4.77697 0
M  V30 42216 N 1513.35 2.04615 4.15333 0
M  V30 42217 H 1516.19 3.41248 7.98759 0
M  V30 42218 H 1516.46 2.5837 6.41742 0
M  V30 42219 H 1515.59 5.02657 6.42673 0
M  V30 42220 P 1511.63 6.144 6.45285 0
M  V30 42221 O 1511.41 7.54673 6.86199 0
M  V30 42222 O 1510.84 5.12391 7.179 0
M  V30 42223 O 1511.38 5.99158 4.88404 0
M  V30 42224 C 1512.32 6.60234 3.96415 0
M  V30 42225 C 1511.59 7.08259 2.72856 0
M  V30 42226 O 1511.38 5.9427 1.83651 0
M  V30 42227 C 1510.19 7.64886 2.9555 0
M  V30 42228 O 1509.8 8.53963 1.90717 0
M  V30 42229 C 1509.31 6.4116 2.90739 0
M  V30 42230 C 1510.02 5.55375 1.86963 0
M  V30 42231 N 1509.97 4.09664 2.15742 0
M  V30 42232 H 1512.81 7.45574 4.45629 0
M  V30 42233 H 1513.08 5.86232 3.67314 0
M  V30 42234 H 1512.21 7.84412 2.24479 0
M  V30 42235 P 1508.25 8.7635 1.60911 0
M  V30 42236 O 1508.03 10.1388 1.11561 0
M  V30 42237 O 1507.46 8.36503 2.79617 0
M  V30 42238 O 1508 7.71806 0.42951 0
M  V30 42239 C 1508.94 7.67148 -0.673689 0
M  V30 42240 C 1508.21 7.33374 -1.95559 0
M  V30 42241 O 1508 5.88721 -2.00726 0
M  V30 42242 C 1506.81 7.92526 -2.10483 0
M  V30 42243 O 1506.42 8.02971 -3.47653 0
M  V30 42244 C 1505.93 6.89602 -1.41652 0
M  V30 42245 C 1506.64 5.59201 -1.75185 0
M  V30 42246 N 1506.59 4.58235 -0.662552 0
M  V30 42247 H 1509.43 8.65116 -0.777161 0
M  V30 42248 H 1509.7 6.90173 -0.474152 0
M  V30 42249 H 1508.83 7.66548 -2.79458 0
M  V30 42250 P 1504.87 8.03563 -3.84925 0
M  V30 42251 O 1504.65 8.85821 -5.0569 0
M  V30 42252 O 1504.08 8.41101 -2.65469 0
M  V30 42253 O 1504.62 6.4965 -4.18908 0
M  V30 42254 C 1505.56 5.81037 -5.05421 0
M  V30 42255 C 1504.83 4.78366 -5.89277 0
M  V30 42256 O 1504.62 3.58302 -5.08433 0
M  V30 42257 C 1503.43 5.17448 -6.36119 0
M  V30 42258 O 1503.04 4.45271 -7.53232 0
M  V30 42259 C 1502.55 4.74639 -5.19936 0
M  V30 42260 C 1503.26 3.49432 -4.70418 0
M  V30 42261 N 1503.21 3.31776 -3.22945 0
M  V30 42262 H 1506.05 6.54213 -5.71376 0
M  V30 42263 H 1506.32 5.30492 -4.44033 0
M  V30 42264 H 1505.45 4.55889 -6.76652 0
M  V30 42265 P 1501.49 4.23843 -7.83734 0
M  V30 42266 O 1501.27 4.19407 -9.29784 0
M  V30 42267 O 1500.7 5.24426 -7.09156 0
M  V30 42268 O 1501.24 2.7935 -7.20758 0
M  V30 42269 C 1502.18 1.7299 -7.50419 0
M  V30 42270 C 1501.45 0.406376 -7.57911 0
M  V30 42271 O 1501.24 -0.0897726 -6.21935 0
M  V30 42272 C 1500.05 0.447224 -8.1878 0
M  V30 42273 O 1499.66 -0.825065 -8.71101 0
M  V30 42274 C 1499.17 0.783801 -6.99623 0
M  V30 42275 C 1499.88 0.0619192 -5.85967 0
M  V30 42276 N 1499.83 0.7859 -4.56281 0
M  V30 42277 H 1502.67 1.93423 -8.4679 0
M  V30 42278 H 1502.94 1.68181 -6.71046 0
M  V30 42279 H 1502.07 -0.289041 -8.15388 0
M  V30 42280 P 1498.11 -1.17771 -8.83182 0
M  V30 42281 O 1497.89 -2.07206 -9.98732 0
M  V30 42282 O 1497.32 0.0743816 -8.81969 0
M  V30 42283 O 1497.86 -1.97652 -7.47304 0
M  V30 42284 C 1498.8 -3.01133 -7.08783 0
M  V30 42285 C 1498.07 -4.12613 -6.37049 0
M  V30 42286 O 1497.86 -3.72827 -4.97879 0
M  V30 42287 C 1496.67 -4.45085 -6.88694 0
M  V30 42288 O 1496.28 -5.7877 -6.5624 0
M  V30 42289 C 1495.79 -3.47817 -6.12078 0
M  V30 42290 C 1496.5 -3.39414 -4.77697 0
M  V30 42291 N 1496.45 -2.04615 -4.15333 0
M  V30 42292 H 1499.29 -3.41248 -7.98759 0
M  V30 42293 H 1499.56 -2.5837 -6.41742 0
M  V30 42294 H 1498.69 -5.02657 -6.42673 0
M  V30 42295 P 1494.73 -6.144 -6.45285 0
M  V30 42296 O 1494.51 -7.54673 -6.86199 0
M  V30 42297 O 1493.94 -5.12391 -7.179 0
M  V30 42298 O 1494.48 -5.99158 -4.88404 0
M  V30 42299 C 1495.42 -6.60234 -3.96415 0
M  V30 42300 C 1494.69 -7.08259 -2.72856 0
M  V30 42301 O 1494.48 -5.9427 -1.83651 0
M  V30 42302 C 1493.29 -7.64886 -2.9555 0
M  V30 42303 O 1492.9 -8.53963 -1.90717 0
M  V30 42304 C 1492.41 -6.4116 -2.90739 0
M  V30 42305 C 1493.12 -5.55375 -1.86963 0
M  V30 42306 N 1493.07 -4.09448 -2.16152 0
M  V30 42307 H 1495.91 -7.45574 -4.45629 0
M  V30 42308 H 1496.18 -5.85864 -3.679 0
M  V30 42309 H 1495.31 -7.84412 -2.24479 0
M  V30 42310 H 1492.66 -5.73457 -0.888562 0
M  V30 42311 H 1492.38 -5.90877 -3.88583 0
M  V30 42312 H 1491.39 -6.6596 -2.58858 0
M  V30 42313 H 1493.22 -8.16339 -3.92049 0
M  V30 42314 P 1491.35 -8.7635 -1.60911 0
M  V30 42315 O 1491.13 -10.1388 -1.11561 0
M  V30 42316 O 1490.56 -8.36503 -2.79617 0
M  V30 42317 O 1491.1 -7.71806 -0.42951 0
M  V30 42318 C 1492.04 -7.67148 0.673689 0
M  V30 42319 C 1491.31 -7.33374 1.95559 0
M  V30 42320 O 1491.1 -5.88721 2.00726 0
M  V30 42321 C 1489.91 -7.92526 2.10483 0
M  V30 42322 O 1489.52 -8.02971 3.47653 0
M  V30 42323 C 1489.03 -6.89602 1.41652 0
M  V30 42324 C 1489.74 -5.59201 1.75185 0
M  V30 42325 N 1489.69 -4.58301 0.657969 0
M  V30 42326 H 1492.53 -8.65116 0.777161 0
M  V30 42327 H 1492.8 -6.9022 0.46725 0
M  V30 42328 H 1491.93 -7.66548 2.79458 0
M  V30 42329 H 1489.28 -5.16165 2.65183 0
M  V30 42330 H 1489 -7.06433 0.329384 0
M  V30 42331 H 1488.01 -6.90926 1.82021 0
M  V30 42332 H 1489.84 -8.90873 1.62657 0
M  V30 42333 P 1487.97 -8.03563 3.84925 0
M  V30 42334 O 1487.75 -8.85821 5.0569 0
M  V30 42335 O 1487.18 -8.41101 2.65469 0
M  V30 42336 O 1487.72 -6.4965 4.18908 0
M  V30 42337 C 1488.66 -5.81037 5.05421 0
M  V30 42338 C 1487.93 -4.78366 5.89277 0
M  V30 42339 O 1487.72 -3.58302 5.08433 0
M  V30 42340 C 1486.53 -5.17448 6.36119 0
M  V30 42341 O 1486.14 -4.45271 7.53232 0
M  V30 42342 C 1485.65 -4.74639 5.19936 0
M  V30 42343 C 1486.36 -3.49432 4.70418 0
M  V30 42344 N 1486.31 -3.31776 3.22945 0
M  V30 42345 H 1489.15 -6.54213 5.71376 0
M  V30 42346 H 1489.42 -5.30492 4.44033 0
M  V30 42347 H 1488.55 -4.55889 6.76652 0
M  V30 42348 P 1484.59 -4.23843 7.83734 0
M  V30 42349 O 1484.37 -4.19407 9.29784 0
M  V30 42350 O 1483.8 -5.24426 7.09156 0
M  V30 42351 O 1484.34 -2.7935 7.20758 0
M  V30 42352 C 1485.28 -1.7299 7.50419 0
M  V30 42353 C 1484.55 -0.406376 7.57911 0
M  V30 42354 O 1484.34 0.0897726 6.21935 0
M  V30 42355 C 1483.15 -0.447224 8.1878 0
M  V30 42356 O 1482.76 0.825065 8.71101 0
M  V30 42357 C 1482.27 -0.783801 6.99623 0
M  V30 42358 C 1482.98 -0.0619192 5.85967 0
M  V30 42359 N 1482.93 -0.7859 4.56281 0
M  V30 42360 H 1485.77 -1.93423 8.4679 0
M  V30 42361 H 1486.04 -1.68181 6.71046 0
M  V30 42362 H 1485.17 0.289041 8.15388 0
M  V30 42363 P 1481.21 1.17771 8.83182 0
M  V30 42364 O 1480.99 2.07206 9.98732 0
M  V30 42365 O 1480.42 -0.0743816 8.81969 0
M  V30 42366 O 1480.96 1.97652 7.47304 0
M  V30 42367 C 1481.9 3.01133 7.08783 0
M  V30 42368 C 1481.17 4.12613 6.37049 0
M  V30 42369 O 1480.96 3.72827 4.97879 0
M  V30 42370 C 1479.77 4.45085 6.88694 0
M  V30 42371 O 1479.38 5.7877 6.5624 0
M  V30 42372 C 1478.89 3.47817 6.12078 0
M  V30 42373 C 1479.6 3.39414 4.77697 0
M  V30 42374 N 1479.55 2.04615 4.15333 0
M  V30 42375 H 1482.39 3.41248 7.98759 0
M  V30 42376 H 1482.66 2.5837 6.41742 0
M  V30 42377 H 1481.79 5.02657 6.42673 0
M  V30 42378 P 1477.83 6.144 6.45285 0
M  V30 42379 O 1477.61 7.54673 6.86199 0
M  V30 42380 O 1477.04 5.12391 7.179 0
M  V30 42381 O 1477.58 5.99158 4.88404 0
M  V30 42382 C 1478.52 6.60234 3.96415 0
M  V30 42383 C 1477.79 7.08259 2.72856 0
M  V30 42384 O 1477.58 5.9427 1.83651 0
M  V30 42385 C 1476.39 7.64886 2.9555 0
M  V30 42386 O 1476 8.53963 1.90717 0
M  V30 42387 C 1475.51 6.4116 2.90739 0
M  V30 42388 C 1476.22 5.55375 1.86963 0
M  V30 42389 N 1476.17 4.09664 2.15742 0
M  V30 42390 H 1479.01 7.45574 4.45629 0
M  V30 42391 H 1479.28 5.86232 3.67314 0
M  V30 42392 H 1478.41 7.84412 2.24479 0
M  V30 42393 P 1474.45 8.7635 1.60911 0
M  V30 42394 O 1474.23 10.1388 1.11561 0
M  V30 42395 O 1473.66 8.36503 2.79617 0
M  V30 42396 O 1474.2 7.71806 0.42951 0
M  V30 42397 C 1475.14 7.67148 -0.673689 0
M  V30 42398 C 1474.41 7.33374 -1.95559 0
M  V30 42399 O 1474.2 5.88721 -2.00726 0
M  V30 42400 C 1473.01 7.92526 -2.10483 0
M  V30 42401 O 1472.62 8.02971 -3.47653 0
M  V30 42402 C 1472.13 6.89602 -1.41652 0
M  V30 42403 C 1472.84 5.59201 -1.75185 0
M  V30 42404 N 1472.79 4.58235 -0.662552 0
M  V30 42405 H 1475.63 8.65116 -0.777161 0
M  V30 42406 H 1475.9 6.90173 -0.474152 0
M  V30 42407 H 1475.03 7.66548 -2.79458 0
M  V30 42408 P 1471.07 8.03563 -3.84925 0
M  V30 42409 O 1470.85 8.85821 -5.0569 0
M  V30 42410 O 1470.28 8.41101 -2.65469 0
M  V30 42411 O 1470.82 6.4965 -4.18908 0
M  V30 42412 C 1471.76 5.81037 -5.05421 0
M  V30 42413 C 1471.03 4.78366 -5.89277 0
M  V30 42414 O 1470.82 3.58302 -5.08433 0
M  V30 42415 C 1469.63 5.17448 -6.36119 0
M  V30 42416 O 1469.24 4.45271 -7.53232 0
M  V30 42417 C 1468.75 4.74639 -5.19936 0
M  V30 42418 C 1469.46 3.49432 -4.70418 0
M  V30 42419 N 1469.41 3.31776 -3.22945 0
M  V30 42420 H 1472.25 6.54213 -5.71376 0
M  V30 42421 H 1472.52 5.30492 -4.44033 0
M  V30 42422 H 1471.65 4.55889 -6.76652 0
M  V30 42423 P 1467.69 4.23843 -7.83734 0
M  V30 42424 O 1467.47 4.19407 -9.29784 0
M  V30 42425 O 1466.9 5.24426 -7.09156 0
M  V30 42426 O 1467.44 2.7935 -7.20758 0
M  V30 42427 C 1468.38 1.7299 -7.50419 0
M  V30 42428 C 1467.65 0.406376 -7.57911 0
M  V30 42429 O 1467.44 -0.0897726 -6.21935 0
M  V30 42430 C 1466.25 0.447224 -8.1878 0
M  V30 42431 O 1465.86 -0.825065 -8.71101 0
M  V30 42432 C 1465.37 0.783801 -6.99623 0
M  V30 42433 C 1466.08 0.0619192 -5.85967 0
M  V30 42434 N 1466.03 0.790462 -4.56202 0
M  V30 42435 C 1466.11 2.13895 -4.34171 0
M  V30 42436 N 1466.04 2.46449 -3.08687 0
M  V30 42437 C 1465.89 1.2525 -2.43697 0
M  V30 42438 C 1465.76 0.914535 -1.07318 0
M  V30 42439 N 1465.75 1.80782 -0.0887348 0
M  V30 42440 N 1465.64 -0.386745 -0.768133 0
M  V30 42441 C 1465.65 -1.28096 -1.75159 0
M  V30 42442 N 1465.77 -1.09708 -3.04861 0
M  V30 42443 C 1465.89 0.214857 -3.32306 0
M  V30 42444 H 1468.87 1.93423 -8.4679 0
M  V30 42445 H 1469.14 1.68852 -6.70877 0
M  V30 42446 H 1468.27 -0.289041 -8.15388 0
M  V30 42447 H 1465.62 -0.927006 -5.72848 0
M  V30 42448 H 1465.34 1.86973 -6.82036 0
M  V30 42449 H 1464.35 0.403953 -7.13357 0
M  V30 42450 H 1466.18 1.20599 -8.97534 0
M  V30 42451 H 1466.22 2.86846 -5.14318 0
M  V30 42452 H 1465.84 2.81082 -0.302037 0
M  V30 42453 H 1465.65 1.49688 0.889064 0
M  V30 42454 H 1465.55 -2.31317 -1.43855 0
M  V30 42455 P 1464.31 -1.17771 -8.83182 0
M  V30 42456 O 1464.09 -2.07206 -9.98732 0
M  V30 42457 O 1463.52 0.0743816 -8.81969 0
M  V30 42458 O 1464.06 -1.97652 -7.47304 0
M  V30 42459 C 1465 -3.01133 -7.08783 0
M  V30 42460 C 1464.27 -4.12613 -6.37049 0
M  V30 42461 O 1464.06 -3.72827 -4.97879 0
M  V30 42462 C 1462.87 -4.45085 -6.88694 0
M  V30 42463 O 1462.48 -5.7877 -6.5624 0
M  V30 42464 C 1461.99 -3.47817 -6.12078 0
M  V30 42465 C 1462.7 -3.39414 -4.77697 0
M  V30 42466 N 1462.65 -2.04615 -4.15333 0
M  V30 42467 H 1465.49 -3.41248 -7.98759 0
M  V30 42468 H 1465.76 -2.5837 -6.41742 0
M  V30 42469 H 1464.89 -5.02657 -6.42673 0
M  V30 42470 P 1460.93 -6.144 -6.45285 0
M  V30 42471 O 1460.71 -7.54673 -6.86199 0
M  V30 42472 O 1460.14 -5.12391 -7.179 0
M  V30 42473 O 1460.68 -5.99158 -4.88404 0
M  V30 42474 C 1461.62 -6.60234 -3.96415 0
M  V30 42475 C 1460.89 -7.08259 -2.72856 0
M  V30 42476 O 1460.68 -5.9427 -1.83651 0
M  V30 42477 C 1459.49 -7.64886 -2.9555 0
M  V30 42478 O 1459.1 -8.53963 -1.90717 0
M  V30 42479 C 1458.61 -6.4116 -2.90739 0
M  V30 42480 C 1459.32 -5.55375 -1.86963 0
M  V30 42481 N 1459.27 -4.09664 -2.15742 0
M  V30 42482 H 1462.11 -7.45574 -4.45629 0
M  V30 42483 H 1462.38 -5.86232 -3.67314 0
M  V30 42484 H 1461.51 -7.84412 -2.24479 0
M  V30 42485 P 1457.55 -8.7635 -1.60911 0
M  V30 42486 O 1457.33 -10.1388 -1.11561 0
M  V30 42487 O 1456.76 -8.36503 -2.79617 0
M  V30 42488 O 1457.3 -7.71906 -0.429565 0
M  V30 42489 C 1458.24 -7.67148 0.673689 0
M  V30 42490 C 1457.51 -7.33666 1.94851 0
M  V30 42491 O 1457.3 -5.88816 2.00759 0
M  V30 42492 C 1456.11 -7.92526 2.10483 0
M  V30 42493 O 1455.72 -8.03063 3.47693 0
M  V30 42494 C 1455.23 -6.89602 1.41652 0
M  V30 42495 C 1455.94 -5.59201 1.75185 0
M  V30 42496 N 1455.89 -4.58235 0.662552 0
M  V30 42497 C 1455.74 -3.24451 1.01643 0
M  V30 42498 O 1455.65 -2.94958 2.21722 0
M  V30 42499 N 1455.69 -2.30408 -0.165238 0
M  V30 42500 C 1455.79 -2.66048 -1.25118 0
M  V30 42501 N 1455.74 -1.70787 -2.16813 0
M  V30 42502 C 1455.94 -4.02732 -1.64413 0
M  V30 42503 C 1455.99 -4.9488 -0.63991 0
M  V30 42504 H 1458.73 -8.65017 0.777072 0
M  V30 42505 H 1459 -6.90173 0.474152 0
M  V30 42506 H 1458.13 -7.66642 2.79492 0
M  V30 42507 H 1455.48 -5.16254 2.65229 0
M  V30 42508 H 1455.2 -7.06532 0.329431 0
M  V30 42509 H 1454.21 -6.91023 1.82047 0
M  V30 42510 H 1456.04 -8.90873 1.62657 0
M  V30 42511 H 1456.11 -6.00104 -0.892197 0
M  V30 42512 H 1456.01 -4.31733 -2.69229 0
M  V30 42513 H 1455.62 -0.724835 -1.8844 0
M  V30 42514 H 1455.82 -1.94716 -3.16734 0
M  V30 42515 P 1454.17 -8.03563 3.84925 0
M  V30 42516 O 1453.95 -8.85821 5.0569 0
M  V30 42517 O 1453.38 -8.41101 2.65469 0
M  V30 42518 O 1453.92 -6.4965 4.18908 0
M  V30 42519 C 1454.86 -5.80886 5.05289 0
M  V30 42520 C 1454.13 -4.78366 5.89277 0
M  V30 42521 O 1453.92 -3.58302 5.08433 0
M  V30 42522 C 1452.73 -5.16748 6.36559 0
M  V30 42523 O 1452.34 -4.45271 7.53232 0
M  V30 42524 C 1451.85 -4.74572 5.19863 0
M  V30 42525 C 1452.56 -3.49373 4.70338 0
M  V30 42526 N 1452.51 -3.31704 3.22876 0
M  V30 42527 C 1452.36 -2.03326 2.74871 0
M  V30 42528 O 1452.27 -1.06486 3.48076 0
M  V30 42529 N 1452.32 -1.91838 1.37456 0
M  V30 42530 C 1452.41 -2.94295 0.462035 0
M  V30 42531 C 1452.56 -4.25064 1.05249 0
M  V30 42532 C 1452.61 -4.40214 2.39192 0
M  V30 42533 H 1455.35 -6.54063 5.71245 0
M  V30 42534 H 1455.62 -5.30339 4.43905 0
M  V30 42535 H 1454.75 -4.55889 6.76652 0
M  V30 42536 H 1452.1 -2.6167 5.17842 0
M  V30 42537 H 1451.82 -5.52155 4.41878 0
M  V30 42538 H 1450.83 -4.51918 5.53297 0
M  V30 42539 H 1452.66 -6.25055 6.55162 0
M  V30 42540 H 1452.73 -5.39798 2.81523 0
M  V30 42541 P 1450.79 -4.23843 7.83734 0
M  V30 42542 O 1450.57 -4.19407 9.29784 0
M  V30 42543 O 1450 -5.24426 7.09156 0
M  V30 42544 O 1450.54 -2.7935 7.20758 0
M  V30 42545 C 1451.48 -1.72945 7.50224 0
M  V30 42546 C 1450.75 -0.406376 7.57911 0
M  V30 42547 O 1450.54 0.0897726 6.21935 0
M  V30 42548 C 1449.35 -0.438983 8.18724 0
M  V30 42549 O 1448.96 0.825065 8.71101 0
M  V30 42550 C 1448.47 -0.783689 6.99524 0
M  V30 42551 C 1449.18 -0.0619086 5.85867 0
M  V30 42552 N 1449.13 -0.78573 4.56183 0
M  V30 42553 C 1448.98 -0.0292889 3.41887 0
M  V30 42554 O 1448.89 1.18445 3.4419 0
M  V30 42555 N 1448.94 -0.744061 2.23964 0
M  V30 42556 C 1449.03 -2.10932 2.10362 0
M  V30 42557 O 1448.98 -2.64117 0.98825 0
M  V30 42558 C 1449.18 -2.8202 3.34994 0
M  V30 42559 C 1449.29 -4.31095 3.25037 0
M  V30 42560 C 1449.23 -2.15547 4.52261 0
M  V30 42561 H 1451.97 -1.93379 8.46595 0
M  V30 42562 H 1452.24 -1.68132 6.70852 0
M  V30 42563 H 1451.37 0.289041 8.15388 0
M  V30 42564 H 1448.72 0.926847 5.72749 0
M  V30 42565 H 1448.44 -1.86973 6.82036 0
M  V30 42566 H 1447.45 -0.403896 7.13257 0
M  V30 42567 H 1449.28 -1.20585 8.97435 0
M  V30 42568 H 1449.35 -2.71231 5.45042 0
M  V30 42569 H 1448.32 -4.76966 3.49992 0
M  V30 42570 H 1450.06 -4.67047 3.95024 0
M  V30 42571 H 1449.57 -4.58996 2.22312 0
M  V30 42572 H 1448.84 -0.214893 1.39758 0
M  V30 42573 P 1447.41 1.17771 8.83182 0
M  V30 42574 O 1447.19 2.07206 9.98732 0
M  V30 42575 O 1446.62 -0.0743816 8.81969 0
M  V30 42576 O 1447.16 1.97652 7.47304 0
M  V30 42577 C 1448.1 3.01055 7.08599 0
M  V30 42578 C 1447.37 4.12613 6.37049 0
M  V30 42579 O 1447.16 3.72827 4.97879 0
M  V30 42580 C 1445.97 4.45719 6.88164 0
M  V30 42581 O 1445.58 5.7877 6.5624 0
M  V30 42582 C 1445.09 3.47768 6.11991 0
M  V30 42583 C 1445.8 3.39356 4.77615 0
M  V30 42584 N 1445.75 2.04571 4.15244 0
M  V30 42585 C 1445.6 1.98587 2.78314 0
M  V30 42586 O 1445.51 2.98134 2.08835 0
M  V30 42587 N 1445.56 0.714467 2.24925 0
M  V30 42588 C 1445.65 -0.470001 2.94169 0
M  V30 42589 O 1445.6 -1.55587 2.35195 0
M  V30 42590 C 1445.8 -0.312541 4.36783 0
M  V30 42591 C 1445.91 -1.57711 5.16352 0
M  V30 42592 C 1445.85 0.914512 4.92583 0
M  V30 42593 H 1448.59 3.41169 7.98575 0
M  V30 42594 H 1448.86 2.58295 6.41556 0
M  V30 42595 H 1447.99 5.02657 6.42673 0
M  V30 42596 H 1445.34 4.11637 4.08885 0
M  V30 42597 H 1445.06 2.49626 6.61679 0
M  V30 42598 H 1444.07 3.86566 6.00778 0
M  V30 42599 H 1445.9 4.29943 7.96918 0
M  V30 42600 H 1445.97 1.00937 6.00374 0
M  V30 42601 H 1444.94 -1.80153 5.63503 0
M  V30 42602 H 1446.68 -1.4566 5.94104 0
M  V30 42603 H 1446.19 -2.40664 4.49645 0
M  V30 42604 H 1445.46 0.647622 1.25697 0
M  V30 42605 P 1444.03 6.144 6.45285 0
M  V30 42606 O 1443.81 7.54673 6.86199 0
M  V30 42607 O 1443.24 5.12391 7.179 0
M  V30 42608 O 1443.78 5.99158 4.88404 0
M  V30 42609 C 1444.72 6.60234 3.96415 0
M  V30 42610 C 1443.99 7.08259 2.72856 0
M  V30 42611 O 1443.78 5.9427 1.83651 0
M  V30 42612 C 1442.59 7.64886 2.9555 0
M  V30 42613 O 1442.2 8.53963 1.90717 0
M  V30 42614 C 1441.71 6.4116 2.90739 0
M  V30 42615 C 1442.42 5.55375 1.86963 0
M  V30 42616 N 1442.37 4.09664 2.15742 0
M  V30 42617 H 1445.21 7.45574 4.45629 0
M  V30 42618 H 1445.48 5.86232 3.67314 0
M  V30 42619 H 1444.61 7.84412 2.24479 0
M  V30 42620 P 1440.65 8.7635 1.60911 0
M  V30 42621 O 1440.43 10.1388 1.11561 0
M  V30 42622 O 1439.86 8.36503 2.79617 0
M  V30 42623 O 1440.4 7.71806 0.42951 0
M  V30 42624 C 1441.34 7.67148 -0.673689 0
M  V30 42625 C 1440.61 7.33374 -1.95559 0
M  V30 42626 O 1440.4 5.88721 -2.00726 0
M  V30 42627 C 1439.21 7.92526 -2.10483 0
M  V30 42628 O 1438.82 8.02971 -3.47653 0
M  V30 42629 C 1438.33 6.89602 -1.41652 0
M  V30 42630 C 1439.04 5.59201 -1.75185 0
M  V30 42631 N 1438.99 4.58235 -0.662552 0
M  V30 42632 H 1441.83 8.65116 -0.777161 0
M  V30 42633 H 1442.1 6.90173 -0.474152 0
M  V30 42634 H 1441.23 7.66548 -2.79458 0
M  V30 42635 P 1437.27 8.03563 -3.84925 0
M  V30 42636 O 1437.05 8.85821 -5.0569 0
M  V30 42637 O 1436.48 8.41101 -2.65469 0
M  V30 42638 O 1437.02 6.4965 -4.18908 0
M  V30 42639 C 1437.96 5.81037 -5.05421 0
M  V30 42640 C 1437.23 4.78366 -5.89277 0
M  V30 42641 O 1437.02 3.58302 -5.08433 0
M  V30 42642 C 1435.83 5.17448 -6.36119 0
M  V30 42643 O 1435.44 4.45271 -7.53232 0
M  V30 42644 C 1434.95 4.74639 -5.19936 0
M  V30 42645 C 1435.66 3.49432 -4.70418 0
M  V30 42646 N 1435.61 3.31776 -3.22945 0
M  V30 42647 H 1438.45 6.54213 -5.71376 0
M  V30 42648 H 1438.72 5.30492 -4.44033 0
M  V30 42649 H 1437.85 4.55889 -6.76652 0
M  V30 42650 P 1433.89 4.23843 -7.83734 0
M  V30 42651 O 1433.67 4.19407 -9.29784 0
M  V30 42652 O 1433.1 5.24426 -7.09156 0
M  V30 42653 O 1433.64 2.7935 -7.20758 0
M  V30 42654 C 1434.58 1.7299 -7.50419 0
M  V30 42655 C 1433.85 0.406376 -7.57911 0
M  V30 42656 O 1433.64 -0.0897726 -6.21935 0
M  V30 42657 C 1432.45 0.447224 -8.1878 0
M  V30 42658 O 1432.06 -0.825065 -8.71101 0
M  V30 42659 C 1431.57 0.783801 -6.99623 0
M  V30 42660 C 1432.28 0.0619192 -5.85967 0
M  V30 42661 N 1432.23 0.7859 -4.56281 0
M  V30 42662 H 1435.07 1.93423 -8.4679 0
M  V30 42663 H 1435.34 1.68181 -6.71046 0
M  V30 42664 H 1434.47 -0.289041 -8.15388 0
M  V30 42665 P 1430.51 -1.17771 -8.83182 0
M  V30 42666 O 1430.29 -2.07206 -9.98732 0
M  V30 42667 O 1429.72 0.0743816 -8.81969 0
M  V30 42668 O 1430.26 -1.97652 -7.47304 0
M  V30 42669 C 1431.2 -3.01133 -7.08783 0
M  V30 42670 C 1430.47 -4.12613 -6.37049 0
M  V30 42671 O 1430.26 -3.72827 -4.97879 0
M  V30 42672 C 1429.07 -4.45085 -6.88694 0
M  V30 42673 O 1428.68 -5.7877 -6.5624 0
M  V30 42674 C 1428.19 -3.47817 -6.12078 0
M  V30 42675 C 1428.9 -3.39414 -4.77697 0
M  V30 42676 N 1428.85 -2.04615 -4.15333 0
M  V30 42677 H 1431.69 -3.41248 -7.98759 0
M  V30 42678 H 1431.96 -2.5837 -6.41742 0
M  V30 42679 H 1431.09 -5.02657 -6.42673 0
M  V30 42680 P 1427.13 -6.144 -6.45285 0
M  V30 42681 O 1426.91 -7.54673 -6.86199 0
M  V30 42682 O 1426.34 -5.12391 -7.179 0
M  V30 42683 O 1426.88 -5.99158 -4.88404 0
M  V30 42684 C 1427.82 -6.60234 -3.96415 0
M  V30 42685 C 1427.09 -7.08259 -2.72856 0
M  V30 42686 O 1426.88 -5.9427 -1.83651 0
M  V30 42687 C 1425.69 -7.64886 -2.9555 0
M  V30 42688 O 1425.3 -8.53963 -1.90717 0
M  V30 42689 C 1424.81 -6.4116 -2.90739 0
M  V30 42690 C 1425.52 -5.55375 -1.86963 0
M  V30 42691 N 1425.47 -4.09448 -2.16152 0
M  V30 42692 H 1428.31 -7.45574 -4.45629 0
M  V30 42693 H 1428.58 -5.85864 -3.679 0
M  V30 42694 H 1427.71 -7.84412 -2.24479 0
M  V30 42695 H 1425.06 -5.73457 -0.888562 0
M  V30 42696 H 1424.78 -5.90877 -3.88583 0
M  V30 42697 H 1423.79 -6.6596 -2.58858 0
M  V30 42698 H 1425.62 -8.16339 -3.92049 0
M  V30 42699 P 1423.75 -8.7635 -1.60911 0
M  V30 42700 O 1423.53 -10.1388 -1.11561 0
M  V30 42701 O 1422.96 -8.36503 -2.79617 0
M  V30 42702 O 1423.5 -7.71806 -0.42951 0
M  V30 42703 C 1424.44 -7.67148 0.673689 0
M  V30 42704 C 1423.71 -7.33374 1.95559 0
M  V30 42705 O 1423.5 -5.88721 2.00726 0
M  V30 42706 C 1422.31 -7.92526 2.10483 0
M  V30 42707 O 1421.92 -8.02971 3.47653 0
M  V30 42708 C 1421.43 -6.89602 1.41652 0
M  V30 42709 C 1422.14 -5.59201 1.75185 0
M  V30 42710 N 1422.09 -4.58235 0.662552 0
M  V30 42711 H 1424.93 -8.65116 0.777161 0
M  V30 42712 H 1425.2 -6.90173 0.474152 0
M  V30 42713 H 1424.33 -7.66548 2.79458 0
M  V30 42714 P 1420.37 -8.03563 3.84925 0
M  V30 42715 O 1420.15 -8.85821 5.0569 0
M  V30 42716 O 1419.58 -8.41101 2.65469 0
M  V30 42717 O 1420.12 -6.4965 4.18908 0
M  V30 42718 C 1421.06 -5.81037 5.05421 0
M  V30 42719 C 1420.33 -4.78366 5.89277 0
M  V30 42720 O 1420.12 -3.58302 5.08433 0
M  V30 42721 C 1418.93 -5.17448 6.36119 0
M  V30 42722 O 1418.54 -4.45271 7.53232 0
M  V30 42723 C 1418.05 -4.74639 5.19936 0
M  V30 42724 C 1418.76 -3.49432 4.70418 0
M  V30 42725 N 1418.71 -3.31776 3.22945 0
M  V30 42726 H 1421.55 -6.54213 5.71376 0
M  V30 42727 H 1421.82 -5.30492 4.44033 0
M  V30 42728 H 1420.95 -4.55889 6.76652 0
M  V30 42729 P 1416.99 -4.23843 7.83734 0
M  V30 42730 O 1416.77 -4.19407 9.29784 0
M  V30 42731 O 1416.2 -5.24426 7.09156 0
M  V30 42732 O 1416.74 -2.7935 7.20758 0
M  V30 42733 C 1417.68 -1.7299 7.50419 0
M  V30 42734 C 1416.95 -0.406376 7.57911 0
M  V30 42735 O 1416.74 0.0897726 6.21935 0
M  V30 42736 C 1415.55 -0.447224 8.1878 0
M  V30 42737 O 1415.16 0.825065 8.71101 0
M  V30 42738 C 1414.67 -0.783801 6.99623 0
M  V30 42739 C 1415.38 -0.0619192 5.85967 0
M  V30 42740 N 1415.33 -0.7859 4.56281 0
M  V30 42741 H 1418.17 -1.93423 8.4679 0
M  V30 42742 H 1418.44 -1.68181 6.71046 0
M  V30 42743 H 1417.57 0.289041 8.15388 0
M  V30 42744 P 1413.61 1.17771 8.83182 0
M  V30 42745 O 1413.39 2.07206 9.98732 0
M  V30 42746 O 1412.82 -0.0743816 8.81969 0
M  V30 42747 O 1413.36 1.97652 7.47304 0
M  V30 42748 C 1414.3 3.01133 7.08783 0
M  V30 42749 C 1413.57 4.12613 6.37049 0
M  V30 42750 O 1413.36 3.72827 4.97879 0
M  V30 42751 C 1412.17 4.45085 6.88694 0
M  V30 42752 O 1411.78 5.7877 6.5624 0
M  V30 42753 C 1411.29 3.47817 6.12078 0
M  V30 42754 C 1412 3.39414 4.77697 0
M  V30 42755 N 1411.95 2.04199 4.15538 0
M  V30 42756 H 1414.79 3.41248 7.98759 0
M  V30 42757 H 1415.06 2.57728 6.42 0
M  V30 42758 H 1414.19 5.02657 6.42673 0
M  V30 42759 H 1411.54 4.11708 4.08956 0
M  V30 42760 H 1411.26 2.49626 6.61679 0
M  V30 42761 H 1410.27 3.8662 6.00862 0
M  V30 42762 H 1412.1 4.29991 7.97006 0
M  V30 42763 P 1410.23 6.144 6.45285 0
M  V30 42764 O 1410.01 7.54673 6.86199 0
M  V30 42765 O 1409.44 5.12391 7.179 0
M  V30 42766 O 1409.98 5.99158 4.88404 0
M  V30 42767 C 1410.92 6.60234 3.96415 0
M  V30 42768 C 1410.19 7.08259 2.72856 0
M  V30 42769 O 1409.98 5.9427 1.83651 0
M  V30 42770 C 1408.79 7.64886 2.9555 0
M  V30 42771 O 1408.4 8.53963 1.90717 0
M  V30 42772 C 1407.91 6.4116 2.90739 0
M  V30 42773 C 1408.62 5.55375 1.86963 0
M  V30 42774 N 1408.57 4.09664 2.15742 0
M  V30 42775 C 1408.65 3.44381 3.37233 0
M  V30 42776 N 1408.57 2.14131 3.28347 0
M  V30 42777 C 1408.43 1.90247 1.91588 0
M  V30 42778 C 1408.3 0.683992 1.20892 0
M  V30 42779 O 1408.28 -0.46618 1.64523 0
M  V30 42780 N 1408.18 0.903396 -0.173998 0
M  V30 42781 C 1408.18 2.14171 -0.784879 0
M  V30 42782 N 1408.05 2.1435 -2.11317 0
M  V30 42783 N 1408.31 3.28784 -0.119316 0
M  V30 42784 C 1408.43 3.0977 1.22194 0
M  V30 42785 H 1411.41 7.45574 4.45629 0
M  V30 42786 H 1411.68 5.86232 3.67314 0
M  V30 42787 H 1410.81 7.84412 2.24479 0
M  V30 42788 H 1408.16 5.73556 0.888715 0
M  V30 42789 H 1407.88 5.9096 3.88638 0
M  V30 42790 H 1406.89 6.66053 2.58894 0
M  V30 42791 H 1408.72 8.16429 3.92093 0
M  V30 42792 H 1408.77 3.96785 4.32043 0
M  V30 42793 H 1408.09 0.0999567 -0.761467 0
M  V30 42794 H 1408.05 3.03436 -2.63076 0
M  V30 42795 H 1407.95 1.25228 -2.62233 0
M  V30 42796 P 1406.85 8.7635 1.60911 0
M  V30 42797 O 1406.63 10.1388 1.11561 0
M  V30 42798 O 1406.06 8.36503 2.79617 0
M  V30 42799 O 1406.6 7.71806 0.42951 0
M  V30 42800 C 1407.54 7.67148 -0.673689 0
M  V30 42801 C 1406.81 7.33374 -1.95559 0
M  V30 42802 O 1406.6 5.88721 -2.00726 0
M  V30 42803 C 1405.41 7.92526 -2.10483 0
M  V30 42804 O 1405.02 8.02971 -3.47653 0
M  V30 42805 C 1404.53 6.89602 -1.41652 0
M  V30 42806 C 1405.24 5.59201 -1.75185 0
M  V30 42807 N 1405.19 4.58301 -0.657969 0
M  V30 42808 H 1408.03 8.65116 -0.777161 0
M  V30 42809 H 1408.3 6.9022 -0.46725 0
M  V30 42810 H 1407.43 7.66548 -2.79458 0
M  V30 42811 H 1404.78 5.16165 -2.65183 0
M  V30 42812 H 1404.5 7.06433 -0.329384 0
M  V30 42813 H 1403.51 6.90926 -1.82021 0
M  V30 42814 H 1405.34 8.90873 -1.62657 0
M  V30 42815 P 1403.47 8.03563 -3.84925 0
M  V30 42816 O 1403.25 8.85821 -5.0569 0
M  V30 42817 O 1402.68 8.41101 -2.65469 0
M  V30 42818 O 1403.22 6.49734 -4.18962 0
M  V30 42819 C 1404.16 5.81037 -5.05421 0
M  V30 42820 C 1403.43 4.79018 -5.88876 0
M  V30 42821 O 1403.22 3.58359 -5.08515 0
M  V30 42822 C 1402.03 5.17448 -6.36119 0
M  V30 42823 O 1401.64 4.45322 -7.53318 0
M  V30 42824 C 1401.15 4.74639 -5.19936 0
M  V30 42825 C 1401.86 3.49432 -4.70418 0
M  V30 42826 N 1401.81 3.31776 -3.22945 0
M  V30 42827 C 1401.66 2.02742 -2.72939 0
M  V30 42828 O 1401.57 1.08301 -3.52749 0
M  V30 42829 N 1401.61 1.96117 -1.22063 0
M  V30 42830 C 1401.71 2.8878 -0.551566 0
M  V30 42831 N 1401.66 2.65609 0.750198 0
M  V30 42832 C 1401.86 4.22457 -1.03707 0
M  V30 42833 C 1401.91 4.37979 -2.39113 0
M  V30 42834 H 1404.65 6.54138 -5.7131 0
M  V30 42835 H 1404.92 5.30492 -4.44033 0
M  V30 42836 H 1404.05 4.55945 -6.76735 0
M  V30 42837 H 1401.4 2.6176 -5.18021 0
M  V30 42838 H 1401.12 5.52233 -4.41941 0
M  V30 42839 H 1400.13 4.52045 -5.53452 0
M  V30 42840 H 1401.96 6.25124 -6.55234 0
M  V30 42841 H 1402.03 5.37936 -2.80552 0
M  V30 42842 H 1401.93 5.07528 -0.359553 0
M  V30 42843 H 1401.54 1.69403 1.09847 0
M  V30 42844 H 1401.74 3.43701 1.41792 0
M  V30 42845 P 1400.09 4.23843 -7.83734 0
M  V30 42846 O 1399.87 4.19407 -9.29784 0
M  V30 42847 O 1399.3 5.24426 -7.09156 0
M  V30 42848 O 1399.84 2.7935 -7.20758 0
M  V30 42849 C 1400.78 1.7299 -7.50419 0
M  V30 42850 C 1400.05 0.406376 -7.57911 0
M  V30 42851 O 1399.84 -0.0897726 -6.21935 0
M  V30 42852 C 1398.65 0.447224 -8.1878 0
M  V30 42853 O 1398.26 -0.825065 -8.71101 0
M  V30 42854 C 1397.77 0.783801 -6.99623 0
M  V30 42855 C 1398.48 0.0619192 -5.85967 0
M  V30 42856 N 1398.43 0.7859 -4.56281 0
M  V30 42857 H 1401.27 1.93423 -8.4679 0
M  V30 42858 H 1401.54 1.68181 -6.71046 0
M  V30 42859 H 1400.67 -0.289041 -8.15388 0
M  V30 42860 P 1396.71 -1.17771 -8.83182 0
M  V30 42861 O 1396.49 -2.07206 -9.98732 0
M  V30 42862 O 1395.92 0.0743816 -8.81969 0
M  V30 42863 O 1396.46 -1.97652 -7.47304 0
M  V30 42864 C 1397.4 -3.01133 -7.08783 0
M  V30 42865 C 1396.67 -4.12613 -6.37049 0
M  V30 42866 O 1396.46 -3.72827 -4.97879 0
M  V30 42867 C 1395.27 -4.45085 -6.88694 0
M  V30 42868 O 1394.88 -5.7877 -6.5624 0
M  V30 42869 C 1394.39 -3.47817 -6.12078 0
M  V30 42870 C 1395.1 -3.39414 -4.77697 0
M  V30 42871 N 1395.05 -2.04199 -4.15538 0
M  V30 42872 H 1397.89 -3.41248 -7.98759 0
M  V30 42873 H 1398.16 -2.57728 -6.42 0
M  V30 42874 H 1397.29 -5.02657 -6.42673 0
M  V30 42875 H 1394.64 -4.11708 -4.08956 0
M  V30 42876 H 1394.36 -2.49626 -6.61679 0
M  V30 42877 H 1393.37 -3.8662 -6.00862 0
M  V30 42878 H 1395.2 -4.29991 -7.97006 0
M  V30 42879 P 1393.33 -6.144 -6.45285 0
M  V30 42880 O 1393.11 -7.54673 -6.86199 0
M  V30 42881 O 1392.54 -5.12391 -7.179 0
M  V30 42882 O 1393.08 -5.99158 -4.88404 0
M  V30 42883 C 1394.02 -6.60234 -3.96415 0
M  V30 42884 C 1393.29 -7.08259 -2.72856 0
M  V30 42885 O 1393.08 -5.9427 -1.83651 0
M  V30 42886 C 1391.89 -7.64886 -2.9555 0
M  V30 42887 O 1391.5 -8.53963 -1.90717 0
M  V30 42888 C 1391.01 -6.4116 -2.90739 0
M  V30 42889 C 1391.72 -5.55375 -1.86963 0
M  V30 42890 N 1391.67 -4.09664 -2.15742 0
M  V30 42891 H 1394.51 -7.45574 -4.45629 0
M  V30 42892 H 1394.78 -5.86232 -3.67314 0
M  V30 42893 H 1393.91 -7.84412 -2.24479 0
M  V30 42894 P 1389.95 -8.7635 -1.60911 0
M  V30 42895 O 1389.73 -10.1388 -1.11561 0
M  V30 42896 O 1389.16 -8.36503 -2.79617 0
M  V30 42897 O 1389.7 -7.71806 -0.42951 0
M  V30 42898 C 1390.64 -7.67148 0.673689 0
M  V30 42899 C 1389.91 -7.33374 1.95559 0
M  V30 42900 O 1389.7 -5.88721 2.00726 0
M  V30 42901 C 1388.51 -7.92526 2.10483 0
M  V30 42902 O 1388.12 -8.02971 3.47653 0
M  V30 42903 C 1387.63 -6.89602 1.41652 0
M  V30 42904 C 1388.34 -5.59201 1.75185 0
M  V30 42905 N 1388.29 -4.58235 0.662552 0
M  V30 42906 H 1391.13 -8.65116 0.777161 0
M  V30 42907 H 1391.4 -6.90173 0.474152 0
M  V30 42908 H 1390.53 -7.66548 2.79458 0
M  V30 42909 P 1386.57 -8.03563 3.84925 0
M  V30 42910 O 1386.35 -8.85821 5.0569 0
M  V30 42911 O 1385.78 -8.41101 2.65469 0
M  V30 42912 O 1386.32 -6.4965 4.18908 0
M  V30 42913 C 1387.26 -5.81037 5.05421 0
M  V30 42914 C 1386.53 -4.78366 5.89277 0
M  V30 42915 O 1386.32 -3.58302 5.08433 0
M  V30 42916 C 1385.13 -5.17448 6.36119 0
M  V30 42917 O 1384.74 -4.45271 7.53232 0
M  V30 42918 C 1384.25 -4.74639 5.19936 0
M  V30 42919 C 1384.96 -3.49432 4.70418 0
M  V30 42920 N 1384.91 -3.31776 3.22945 0
M  V30 42921 H 1387.75 -6.54213 5.71376 0
M  V30 42922 H 1388.02 -5.30492 4.44033 0
M  V30 42923 H 1387.15 -4.55889 6.76652 0
M  V30 42924 P 1383.19 -4.23843 7.83734 0
M  V30 42925 O 1382.97 -4.19407 9.29784 0
M  V30 42926 O 1382.4 -5.24426 7.09156 0
M  V30 42927 O 1382.94 -2.7935 7.20758 0
M  V30 42928 C 1383.88 -1.7299 7.50419 0
M  V30 42929 C 1383.15 -0.406376 7.57911 0
M  V30 42930 O 1382.94 0.0897726 6.21935 0
M  V30 42931 C 1381.75 -0.447224 8.1878 0
M  V30 42932 O 1381.36 0.825065 8.71101 0
M  V30 42933 C 1380.87 -0.783801 6.99623 0
M  V30 42934 C 1381.58 -0.0619192 5.85967 0
M  V30 42935 N 1381.53 -0.7859 4.56281 0
M  V30 42936 H 1384.37 -1.93423 8.4679 0
M  V30 42937 H 1384.64 -1.68181 6.71046 0
M  V30 42938 H 1383.77 0.289041 8.15388 0
M  V30 42939 P 1379.81 1.17771 8.83182 0
M  V30 42940 O 1379.59 2.07206 9.98732 0
M  V30 42941 O 1379.02 -0.0743816 8.81969 0
M  V30 42942 O 1379.56 1.97652 7.47304 0
M  V30 42943 C 1380.5 3.01133 7.08783 0
M  V30 42944 C 1379.77 4.12613 6.37049 0
M  V30 42945 O 1379.56 3.72827 4.97879 0
M  V30 42946 C 1378.37 4.45085 6.88694 0
M  V30 42947 O 1377.98 5.7877 6.5624 0
M  V30 42948 C 1377.49 3.47817 6.12078 0
M  V30 42949 C 1378.2 3.39414 4.77697 0
M  V30 42950 N 1378.15 2.04615 4.15333 0
M  V30 42951 H 1380.99 3.41248 7.98759 0
M  V30 42952 H 1381.26 2.5837 6.41742 0
M  V30 42953 H 1380.39 5.02657 6.42673 0
M  V30 42954 P 1376.43 6.144 6.45285 0
M  V30 42955 O 1376.21 7.54673 6.86199 0
M  V30 42956 O 1375.64 5.12391 7.179 0
M  V30 42957 O 1376.18 5.99158 4.88404 0
M  V30 42958 C 1377.12 6.60234 3.96415 0
M  V30 42959 C 1376.39 7.08259 2.72856 0
M  V30 42960 O 1376.18 5.9427 1.83651 0
M  V30 42961 C 1374.99 7.64886 2.9555 0
M  V30 42962 O 1374.6 8.53963 1.90717 0
M  V30 42963 C 1374.11 6.4116 2.90739 0
M  V30 42964 C 1374.82 5.55375 1.86963 0
M  V30 42965 N 1374.77 4.09664 2.15742 0
M  V30 42966 H 1377.61 7.45574 4.45629 0
M  V30 42967 H 1377.88 5.86232 3.67314 0
M  V30 42968 H 1377.01 7.84412 2.24479 0
M  V30 42969 P 1373.05 8.7635 1.60911 0
M  V30 42970 O 1372.83 10.1388 1.11561 0
M  V30 42971 O 1372.26 8.36503 2.79617 0
M  V30 42972 O 1372.8 7.71806 0.42951 0
M  V30 42973 C 1373.74 7.67148 -0.673689 0
M  V30 42974 C 1373.01 7.33374 -1.95559 0
M  V30 42975 O 1372.8 5.88721 -2.00726 0
M  V30 42976 C 1371.61 7.92526 -2.10483 0
M  V30 42977 O 1371.22 8.02971 -3.47653 0
M  V30 42978 C 1370.73 6.89602 -1.41652 0
M  V30 42979 C 1371.44 5.59201 -1.75185 0
M  V30 42980 N 1371.39 4.58235 -0.662552 0
M  V30 42981 H 1374.23 8.65116 -0.777161 0
M  V30 42982 H 1374.5 6.90173 -0.474152 0
M  V30 42983 H 1373.63 7.66548 -2.79458 0
M  V30 42984 P 1369.67 8.03563 -3.84925 0
M  V30 42985 O 1369.45 8.85821 -5.0569 0
M  V30 42986 O 1368.88 8.41101 -2.65469 0
M  V30 42987 O 1369.42 6.4965 -4.18908 0
M  V30 42988 C 1370.36 5.80886 -5.05289 0
M  V30 42989 C 1369.63 4.78366 -5.89277 0
M  V30 42990 O 1369.42 3.58302 -5.08433 0
M  V30 42991 C 1368.23 5.16748 -6.36559 0
M  V30 42992 O 1367.84 4.45271 -7.53232 0
M  V30 42993 C 1367.35 4.74572 -5.19863 0
M  V30 42994 C 1368.06 3.49373 -4.70338 0
M  V30 42995 N 1368.01 3.31704 -3.22876 0
M  V30 42996 C 1367.86 2.03326 -2.74871 0
M  V30 42997 O 1367.77 1.06486 -3.48076 0
M  V30 42998 N 1367.82 1.91838 -1.37456 0
M  V30 42999 C 1367.91 2.94295 -0.462035 0
M  V30 43000 O 1367.86 2.71763 0.752928 0
M  V30 43001 C 1368.06 4.25064 -1.05249 0
M  V30 43002 C 1368.17 5.39815 -0.095697 0
M  V30 43003 C 1368.11 4.40214 -2.39192 0
M  V30 43004 H 1370.85 6.54063 -5.71245 0
M  V30 43005 H 1371.12 5.30339 -4.43905 0
M  V30 43006 H 1370.25 4.55889 -6.76652 0
M  V30 43007 H 1367.6 2.6167 -5.17842 0
M  V30 43008 H 1367.32 5.52155 -4.41878 0
M  V30 43009 H 1366.33 4.51918 -5.53297 0
M  V30 43010 H 1368.16 6.25055 -6.55162 0
M  V30 43011 H 1368.23 5.39798 -2.81523 0
M  V30 43012 H 1367.2 5.91593 -0.0279582 0
M  V30 43013 H 1368.94 6.10038 -0.450573 0
M  V30 43014 H 1368.45 5.02007 0.89937 0
M  V30 43015 H 1367.72 0.995326 -1.00435 0
M  V30 43016 P 1366.29 4.23843 -7.83734 0
M  V30 43017 O 1366.07 4.19407 -9.29784 0
M  V30 43018 O 1365.5 5.24426 -7.09156 0
M  V30 43019 O 1366.04 2.7935 -7.20758 0
M  V30 43020 C 1366.98 1.7299 -7.50419 0
M  V30 43021 C 1366.25 0.406376 -7.57911 0
M  V30 43022 O 1366.04 -0.0897726 -6.21935 0
M  V30 43023 C 1364.85 0.447224 -8.1878 0
M  V30 43024 O 1364.46 -0.825065 -8.71101 0
M  V30 43025 C 1363.97 0.783801 -6.99623 0
M  V30 43026 C 1364.68 0.0619192 -5.85967 0
M  V30 43027 N 1364.63 0.790462 -4.56202 0
M  V30 43028 C 1364.71 2.13895 -4.34171 0
M  V30 43029 N 1364.64 2.46449 -3.08687 0
M  V30 43030 C 1364.49 1.2525 -2.43697 0
M  V30 43031 C 1364.36 0.914535 -1.07318 0
M  V30 43032 N 1364.35 1.80782 -0.0887348 0
M  V30 43033 N 1364.24 -0.386745 -0.768133 0
M  V30 43034 C 1364.25 -1.28096 -1.75159 0
M  V30 43035 N 1364.37 -1.09708 -3.04861 0
M  V30 43036 C 1364.49 0.214857 -3.32306 0
M  V30 43037 H 1367.47 1.93423 -8.4679 0
M  V30 43038 H 1367.74 1.68852 -6.70877 0
M  V30 43039 H 1366.87 -0.289041 -8.15388 0
M  V30 43040 H 1364.22 -0.927006 -5.72848 0
M  V30 43041 H 1363.94 1.86973 -6.82036 0
M  V30 43042 H 1362.95 0.403953 -7.13357 0
M  V30 43043 H 1364.78 1.20599 -8.97534 0
M  V30 43044 H 1364.82 2.86846 -5.14318 0
M  V30 43045 H 1364.44 2.81082 -0.302037 0
M  V30 43046 H 1364.25 1.49688 0.889064 0
M  V30 43047 H 1364.15 -2.31317 -1.43855 0
M  V30 43048 P 1362.91 -1.17771 -8.83182 0
M  V30 43049 O 1362.69 -2.07206 -9.98732 0
M  V30 43050 O 1362.12 0.0743816 -8.81969 0
M  V30 43051 O 1362.66 -1.97652 -7.47304 0
M  V30 43052 C 1363.6 -3.01133 -7.08783 0
M  V30 43053 C 1362.87 -4.12613 -6.37049 0
M  V30 43054 O 1362.66 -3.72827 -4.97879 0
M  V30 43055 C 1361.47 -4.45085 -6.88694 0
M  V30 43056 O 1361.08 -5.7877 -6.5624 0
M  V30 43057 C 1360.59 -3.47817 -6.12078 0
M  V30 43058 C 1361.3 -3.39414 -4.77697 0
M  V30 43059 N 1361.25 -2.04199 -4.15538 0
M  V30 43060 C 1361.33 -0.821545 -4.76977 0
M  V30 43061 N 1361.26 0.1794 -3.94592 0
M  V30 43062 C 1361.11 -0.419121 -2.70776 0
M  V30 43063 C 1360.98 0.109072 -1.40577 0
M  V30 43064 N 1360.97 1.4104 -1.1344 0
M  V30 43065 N 1360.86 -0.764381 -0.39411 0
M  V30 43066 C 1360.87 -2.06587 -0.664135 0
M  V30 43067 N 1360.99 -2.67948 -1.82153 0
M  V30 43068 C 1361.11 -1.77942 -2.8147 0
M  V30 43069 H 1364.09 -3.41248 -7.98759 0
M  V30 43070 H 1364.36 -2.57728 -6.42 0
M  V30 43071 H 1363.49 -5.02657 -6.42673 0
M  V30 43072 H 1360.84 -4.11708 -4.08956 0
M  V30 43073 H 1360.56 -2.49626 -6.61679 0
M  V30 43074 H 1359.57 -3.8662 -6.00862 0
M  V30 43075 H 1361.4 -4.29991 -7.97006 0
M  V30 43076 H 1361.44 -0.702451 -5.84696 0
M  V30 43077 H 1361.06 2.09647 -1.89651 0
M  V30 43078 H 1360.87 1.73358 -0.160575 0
M  V30 43079 H 1360.77 -2.71695 0.195838 0
M  V30 43080 P 1359.53 -6.144 -6.45285 0
M  V30 43081 O 1359.31 -7.54673 -6.86199 0
M  V30 43082 O 1358.74 -5.12391 -7.179 0
M  V30 43083 O 1359.28 -5.99158 -4.88404 0
M  V30 43084 C 1360.22 -6.60234 -3.96415 0
M  V30 43085 C 1359.49 -7.08259 -2.72856 0
M  V30 43086 O 1359.28 -5.9427 -1.83651 0
M  V30 43087 C 1358.09 -7.64886 -2.9555 0
M  V30 43088 O 1357.7 -8.53963 -1.90717 0
M  V30 43089 C 1357.21 -6.4116 -2.90739 0
M  V30 43090 C 1357.92 -5.55375 -1.86963 0
M  V30 43091 N 1357.87 -4.09448 -2.16152 0
M  V30 43092 H 1360.71 -7.45574 -4.45629 0
M  V30 43093 H 1360.98 -5.85864 -3.679 0
M  V30 43094 H 1360.11 -7.84412 -2.24479 0
M  V30 43095 H 1357.46 -5.73457 -0.888562 0
M  V30 43096 H 1357.18 -5.90877 -3.88583 0
M  V30 43097 H 1356.19 -6.6596 -2.58858 0
M  V30 43098 H 1358.02 -8.16339 -3.92049 0
M  V30 43099 P 1356.15 -8.7635 -1.60911 0
M  V30 43100 O 1355.93 -10.1388 -1.11561 0
M  V30 43101 O 1355.36 -8.36503 -2.79617 0
M  V30 43102 O 1355.9 -7.71806 -0.42951 0
M  V30 43103 C 1356.84 -7.67148 0.673689 0
M  V30 43104 C 1356.11 -7.33374 1.95559 0
M  V30 43105 O 1355.9 -5.88721 2.00726 0
M  V30 43106 C 1354.71 -7.92526 2.10483 0
M  V30 43107 O 1354.32 -8.02971 3.47653 0
M  V30 43108 C 1353.83 -6.89602 1.41652 0
M  V30 43109 C 1354.54 -5.59201 1.75185 0
M  V30 43110 N 1354.49 -4.58235 0.662552 0
M  V30 43111 H 1357.33 -8.65116 0.777161 0
M  V30 43112 H 1357.6 -6.90173 0.474152 0
M  V30 43113 H 1356.73 -7.66548 2.79458 0
M  V30 43114 P 1352.77 -8.03563 3.84925 0
M  V30 43115 O 1352.55 -8.85821 5.0569 0
M  V30 43116 O 1351.98 -8.41101 2.65469 0
M  V30 43117 O 1352.52 -6.4965 4.18908 0
M  V30 43118 C 1353.46 -5.81037 5.05421 0
M  V30 43119 C 1352.73 -4.78366 5.89277 0
M  V30 43120 O 1352.52 -3.58302 5.08433 0
M  V30 43121 C 1351.33 -5.17448 6.36119 0
M  V30 43122 O 1350.94 -4.45271 7.53232 0
M  V30 43123 C 1350.45 -4.74639 5.19936 0
M  V30 43124 C 1351.16 -3.49432 4.70418 0
M  V30 43125 N 1351.11 -3.32099 3.22613 0
M  V30 43126 H 1353.95 -6.54213 5.71376 0
M  V30 43127 H 1354.22 -5.30936 4.43503 0
M  V30 43128 H 1353.36 -4.55889 6.76652 0
M  V30 43129 H 1350.7 -2.61715 5.17932 0
M  V30 43130 H 1350.42 -5.52155 4.41878 0
M  V30 43131 H 1349.43 -4.51981 5.53374 0
M  V30 43132 H 1351.26 -6.25124 6.55234 0
M  V30 43133 P 1349.39 -4.23843 7.83734 0
M  V30 43134 O 1349.17 -4.19407 9.29784 0
M  V30 43135 O 1348.6 -5.24426 7.09156 0
M  V30 43136 O 1349.14 -2.7935 7.20758 0
M  V30 43137 C 1350.08 -1.7299 7.50419 0
M  V30 43138 C 1349.35 -0.406376 7.57911 0
M  V30 43139 O 1349.14 0.0897726 6.21935 0
M  V30 43140 C 1347.95 -0.447224 8.1878 0
M  V30 43141 O 1347.56 0.825065 8.71101 0
M  V30 43142 C 1347.07 -0.783801 6.99623 0
M  V30 43143 C 1347.78 -0.0619192 5.85967 0
M  V30 43144 N 1347.73 -0.7859 4.56281 0
M  V30 43145 C 1347.81 -2.14308 4.31736 0
M  V30 43146 N 1347.73 -2.46106 3.05116 0
M  V30 43147 C 1347.59 -1.23422 2.4014 0
M  V30 43148 C 1347.46 -0.938381 1.02409 0
M  V30 43149 N 1347.34 0.444647 0.805413 0
M  V30 43150 C 1347.34 1.40829 1.79435 0
M  V30 43151 N 1347.21 2.67213 1.38558 0
M  V30 43152 N 1347.47 1.12947 3.09005 0
M  V30 43153 C 1347.59 -0.204887 3.32369 0
M  V30 43154 H 1350.57 -1.93423 8.4679 0
M  V30 43155 H 1350.84 -1.68181 6.71046 0
M  V30 43156 H 1349.98 0.289041 8.15388 0
M  V30 43157 P 1346.01 1.17771 8.83182 0
M  V30 43158 O 1345.79 2.07206 9.98732 0
M  V30 43159 O 1345.22 -0.0743816 8.81969 0
M  V30 43160 O 1345.76 1.97652 7.47304 0
M  V30 43161 C 1346.7 3.01133 7.08783 0
M  V30 43162 C 1345.97 4.12613 6.37049 0
M  V30 43163 O 1345.76 3.72827 4.97879 0
M  V30 43164 C 1344.57 4.45085 6.88694 0
M  V30 43165 O 1344.18 5.7877 6.5624 0
M  V30 43166 C 1343.69 3.47817 6.12078 0
M  V30 43167 C 1344.4 3.39414 4.77697 0
M  V30 43168 N 1344.35 2.04615 4.15333 0
M  V30 43169 H 1347.19 3.41248 7.98759 0
M  V30 43170 H 1347.46 2.5837 6.41742 0
M  V30 43171 H 1346.6 5.02657 6.42673 0
M  V30 43172 P 1342.63 6.144 6.45285 0
M  V30 43173 O 1342.41 7.54673 6.86199 0
M  V30 43174 O 1341.84 5.12391 7.179 0
M  V30 43175 O 1342.38 5.99158 4.88404 0
M  V30 43176 C 1343.32 6.60234 3.96415 0
M  V30 43177 C 1342.59 7.08259 2.72856 0
M  V30 43178 O 1342.38 5.9427 1.83651 0
M  V30 43179 C 1341.19 7.64886 2.9555 0
M  V30 43180 O 1340.8 8.53963 1.90717 0
M  V30 43181 C 1340.31 6.4116 2.90739 0
M  V30 43182 C 1341.02 5.55375 1.86963 0
M  V30 43183 N 1340.97 4.09664 2.15742 0
M  V30 43184 H 1343.81 7.45574 4.45629 0
M  V30 43185 H 1344.08 5.86232 3.67314 0
M  V30 43186 H 1343.22 7.84412 2.24479 0
M  V30 43187 P 1339.25 8.7635 1.60911 0
M  V30 43188 O 1339.03 10.1388 1.11561 0
M  V30 43189 O 1338.46 8.36503 2.79617 0
M  V30 43190 O 1339 7.71806 0.42951 0
M  V30 43191 C 1339.94 7.67148 -0.673689 0
M  V30 43192 C 1339.21 7.33374 -1.95559 0
M  V30 43193 O 1339 5.88721 -2.00726 0
M  V30 43194 C 1337.81 7.92526 -2.10483 0
M  V30 43195 O 1337.42 8.02971 -3.47653 0
M  V30 43196 C 1336.93 6.89602 -1.41652 0
M  V30 43197 C 1337.64 5.59201 -1.75185 0
M  V30 43198 N 1337.59 4.58235 -0.662552 0
M  V30 43199 C 1337.67 4.7683 0.704049 0
M  V30 43200 N 1337.59 3.66233 1.39775 0
M  V30 43201 C 1337.45 2.66526 0.431739 0
M  V30 43202 C 1337.32 1.26394 0.575992 0
M  V30 43203 O 1337.3 0.589894 1.60503 0
M  V30 43204 N 1337.2 0.62859 -0.67177 0
M  V30 43205 C 1337.2 1.27134 -1.89385 0
M  V30 43206 N 1337.07 0.492035 -2.96951 0
M  V30 43207 N 1337.33 2.58978 -2.02907 0
M  V30 43208 C 1337.45 3.22433 -0.832218 0
M  V30 43209 H 1340.43 8.65116 -0.777161 0
M  V30 43210 H 1340.7 6.90173 -0.474152 0
M  V30 43211 H 1339.84 7.66548 -2.79458 0
M  V30 43212 H 1337.18 5.16254 -2.65229 0
M  V30 43213 H 1336.9 7.06532 -0.329431 0
M  V30 43214 H 1335.91 6.91023 -1.82047 0
M  V30 43215 H 1337.74 8.90971 -1.62675 0
M  V30 43216 H 1337.79 5.74954 1.16305 0
M  V30 43217 H 1337.11 -0.366713 -0.674793 0
M  V30 43218 H 1337.07 0.908532 -3.91188 0
M  V30 43219 H 1336.97 -0.528253 -2.85758 0
M  V30 43220 P 1335.87 8.03563 -3.84925 0
M  V30 43221 O 1335.65 8.85821 -5.0569 0
M  V30 43222 O 1335.08 8.41101 -2.65469 0
M  V30 43223 O 1335.62 6.4965 -4.18908 0
M  V30 43224 C 1336.56 5.81037 -5.05421 0
M  V30 43225 C 1335.83 4.78366 -5.89277 0
M  V30 43226 O 1335.62 3.58302 -5.08433 0
M  V30 43227 C 1334.43 5.17448 -6.36119 0
M  V30 43228 O 1334.04 4.45271 -7.53232 0
M  V30 43229 C 1333.55 4.74639 -5.19936 0
M  V30 43230 C 1334.26 3.49432 -4.70418 0
M  V30 43231 N 1334.21 3.32099 -3.22613 0
M  V30 43232 H 1337.05 6.54213 -5.71376 0
M  V30 43233 H 1337.32 5.30936 -4.43503 0
M  V30 43234 H 1336.46 4.55889 -6.76652 0
M  V30 43235 H 1333.8 2.61715 -5.17932 0
M  V30 43236 H 1333.52 5.52155 -4.41878 0
M  V30 43237 H 1332.53 4.51981 -5.53374 0
M  V30 43238 H 1334.36 6.25124 -6.55234 0
M  V30 43239 P 1332.49 4.23843 -7.83734 0
M  V30 43240 O 1332.27 4.19407 -9.29784 0
M  V30 43241 O 1331.7 5.24426 -7.09156 0
M  V30 43242 O 1332.24 2.7935 -7.20758 0
M  V30 43243 C 1333.18 1.7299 -7.50419 0
M  V30 43244 C 1332.45 0.406376 -7.57911 0
M  V30 43245 O 1332.24 -0.0897726 -6.21935 0
M  V30 43246 C 1331.05 0.447224 -8.1878 0
M  V30 43247 O 1330.66 -0.825065 -8.71101 0
M  V30 43248 C 1330.17 0.783801 -6.99623 0
M  V30 43249 C 1330.88 0.0619192 -5.85967 0
M  V30 43250 N 1330.83 0.7859 -4.56281 0
M  V30 43251 H 1333.67 1.93423 -8.4679 0
M  V30 43252 H 1333.94 1.68181 -6.71046 0
M  V30 43253 H 1333.08 -0.289041 -8.15388 0
M  V30 43254 P 1329.11 -1.17771 -8.83182 0
M  V30 43255 O 1328.89 -2.07206 -9.98732 0
M  V30 43256 O 1328.32 0.0743816 -8.81969 0
M  V30 43257 O 1328.86 -1.97652 -7.47304 0
M  V30 43258 C 1329.8 -3.01133 -7.08783 0
M  V30 43259 C 1329.07 -4.12613 -6.37049 0
M  V30 43260 O 1328.86 -3.72827 -4.97879 0
M  V30 43261 C 1327.67 -4.45085 -6.88694 0
M  V30 43262 O 1327.28 -5.7877 -6.5624 0
M  V30 43263 C 1326.79 -3.47817 -6.12078 0
M  V30 43264 C 1327.5 -3.39414 -4.77697 0
M  V30 43265 N 1327.45 -2.04615 -4.15333 0
M  V30 43266 H 1330.29 -3.41248 -7.98759 0
M  V30 43267 H 1330.56 -2.5837 -6.41742 0
M  V30 43268 H 1329.7 -5.02657 -6.42673 0
M  V30 43269 P 1325.73 -6.144 -6.45285 0
M  V30 43270 O 1325.51 -7.54673 -6.86199 0
M  V30 43271 O 1324.94 -5.12391 -7.179 0
M  V30 43272 O 1325.48 -5.99158 -4.88404 0
M  V30 43273 C 1326.42 -6.60234 -3.96415 0
M  V30 43274 C 1325.69 -7.08259 -2.72856 0
M  V30 43275 O 1325.48 -5.9427 -1.83651 0
M  V30 43276 C 1324.29 -7.64886 -2.9555 0
M  V30 43277 O 1323.9 -8.53963 -1.90717 0
M  V30 43278 C 1323.41 -6.4116 -2.90739 0
M  V30 43279 C 1324.12 -5.55375 -1.86963 0
M  V30 43280 N 1324.07 -4.09664 -2.15742 0
M  V30 43281 H 1326.91 -7.45574 -4.45629 0
M  V30 43282 H 1327.18 -5.86232 -3.67314 0
M  V30 43283 H 1326.32 -7.84412 -2.24479 0
M  V30 43284 P 1322.35 -8.7635 -1.60911 0
M  V30 43285 O 1322.13 -10.1388 -1.11561 0
M  V30 43286 O 1321.56 -8.36503 -2.79617 0
M  V30 43287 O 1322.1 -7.71806 -0.42951 0
M  V30 43288 C 1323.04 -7.67148 0.673689 0
M  V30 43289 C 1322.31 -7.33374 1.95559 0
M  V30 43290 O 1322.1 -5.88721 2.00726 0
M  V30 43291 C 1320.91 -7.92526 2.10483 0
M  V30 43292 O 1320.52 -8.02971 3.47653 0
M  V30 43293 C 1320.03 -6.89602 1.41652 0
M  V30 43294 C 1320.74 -5.59201 1.75185 0
M  V30 43295 N 1320.69 -4.58235 0.662552 0
M  V30 43296 H 1323.53 -8.65116 0.777161 0
M  V30 43297 H 1323.8 -6.90173 0.474152 0
M  V30 43298 H 1322.94 -7.66548 2.79458 0
M  V30 43299 P 1318.97 -8.03563 3.84925 0
M  V30 43300 O 1318.75 -8.85821 5.0569 0
M  V30 43301 O 1318.18 -8.41101 2.65469 0
M  V30 43302 O 1318.72 -6.4965 4.18908 0
M  V30 43303 C 1319.66 -5.81037 5.05421 0
M  V30 43304 C 1318.93 -4.78366 5.89277 0
M  V30 43305 O 1318.72 -3.58302 5.08433 0
M  V30 43306 C 1317.53 -5.17448 6.36119 0
M  V30 43307 O 1317.14 -4.45271 7.53232 0
M  V30 43308 C 1316.65 -4.74639 5.19936 0
M  V30 43309 C 1317.36 -3.49432 4.70418 0
M  V30 43310 N 1317.31 -3.31776 3.22945 0
M  V30 43311 H 1320.15 -6.54213 5.71376 0
M  V30 43312 H 1320.42 -5.30492 4.44033 0
M  V30 43313 H 1319.56 -4.55889 6.76652 0
M  V30 43314 P 1315.59 -4.23843 7.83734 0
M  V30 43315 O 1315.37 -4.19407 9.29784 0
M  V30 43316 O 1314.8 -5.24426 7.09156 0
M  V30 43317 O 1315.34 -2.7935 7.20758 0
M  V30 43318 C 1316.28 -1.7299 7.50419 0
M  V30 43319 C 1315.55 -0.406376 7.57911 0
M  V30 43320 O 1315.34 0.0897726 6.21935 0
M  V30 43321 C 1314.15 -0.447224 8.1878 0
M  V30 43322 O 1313.76 0.825065 8.71101 0
M  V30 43323 C 1313.27 -0.783801 6.99623 0
M  V30 43324 C 1313.98 -0.0619192 5.85967 0
M  V30 43325 N 1313.93 -0.790462 4.56202 0
M  V30 43326 H 1316.77 -1.93423 8.4679 0
M  V30 43327 H 1317.04 -1.68852 6.70877 0
M  V30 43328 H 1316.18 0.289041 8.15388 0
M  V30 43329 H 1313.52 0.927006 5.72848 0
M  V30 43330 H 1313.24 -1.86973 6.82036 0
M  V30 43331 H 1312.25 -0.403953 7.13357 0
M  V30 43332 H 1314.08 -1.20599 8.97534 0
M  V30 43333 P 1312.21 1.17771 8.83182 0
M  V30 43334 O 1311.99 2.07206 9.98732 0
M  V30 43335 O 1311.42 -0.0743816 8.81969 0
M  V30 43336 O 1311.96 1.97652 7.47304 0
M  V30 43337 C 1312.9 3.01133 7.08783 0
M  V30 43338 C 1312.17 4.12613 6.37049 0
M  V30 43339 O 1311.96 3.72827 4.97879 0
M  V30 43340 C 1310.77 4.45085 6.88694 0
M  V30 43341 O 1310.38 5.7877 6.5624 0
M  V30 43342 C 1309.89 3.47817 6.12078 0
M  V30 43343 C 1310.6 3.39414 4.77697 0
M  V30 43344 N 1310.55 2.04615 4.15333 0
M  V30 43345 H 1313.39 3.41248 7.98759 0
M  V30 43346 H 1313.66 2.5837 6.41742 0
M  V30 43347 H 1312.8 5.02657 6.42673 0
M  V30 43348 P 1308.83 6.144 6.45285 0
M  V30 43349 O 1308.61 7.54673 6.86199 0
M  V30 43350 O 1308.04 5.12391 7.179 0
M  V30 43351 O 1308.58 5.99158 4.88404 0
M  V30 43352 C 1309.52 6.60234 3.96415 0
M  V30 43353 C 1308.79 7.08259 2.72856 0
M  V30 43354 O 1308.58 5.9427 1.83651 0
M  V30 43355 C 1307.39 7.64886 2.9555 0
M  V30 43356 O 1307 8.53963 1.90717 0
M  V30 43357 C 1306.51 6.4116 2.90739 0
M  V30 43358 C 1307.22 5.55375 1.86963 0
M  V30 43359 N 1307.17 4.09664 2.15742 0
M  V30 43360 H 1310.01 7.45574 4.45629 0
M  V30 43361 H 1310.28 5.86232 3.67314 0
M  V30 43362 H 1309.42 7.84412 2.24479 0
M  V30 43363 P 1305.45 8.7635 1.60911 0
M  V30 43364 O 1305.23 10.1388 1.11561 0
M  V30 43365 O 1304.66 8.36503 2.79617 0
M  V30 43366 O 1305.2 7.71806 0.42951 0
M  V30 43367 C 1306.14 7.67148 -0.673689 0
M  V30 43368 C 1305.41 7.33374 -1.95559 0
M  V30 43369 O 1305.2 5.88721 -2.00726 0
M  V30 43370 C 1304.01 7.92526 -2.10483 0
M  V30 43371 O 1303.62 8.02971 -3.47653 0
M  V30 43372 C 1303.13 6.89602 -1.41652 0
M  V30 43373 C 1303.84 5.59201 -1.75185 0
M  V30 43374 N 1303.79 4.58235 -0.662552 0
M  V30 43375 H 1306.63 8.65116 -0.777161 0
M  V30 43376 H 1306.9 6.90173 -0.474152 0
M  V30 43377 H 1306.04 7.66548 -2.79458 0
M  V30 43378 P 1302.07 8.03563 -3.84925 0
M  V30 43379 O 1301.85 8.85821 -5.0569 0
M  V30 43380 O 1301.28 8.41101 -2.65469 0
M  V30 43381 O 1301.82 6.49734 -4.18962 0
M  V30 43382 C 1302.76 5.81037 -5.05421 0
M  V30 43383 C 1302.03 4.79018 -5.88876 0
M  V30 43384 O 1301.82 3.58359 -5.08515 0
M  V30 43385 C 1300.63 5.17448 -6.36119 0
M  V30 43386 O 1300.24 4.45322 -7.53318 0
M  V30 43387 C 1299.75 4.74639 -5.19936 0
M  V30 43388 C 1300.46 3.49432 -4.70418 0
M  V30 43389 N 1300.41 3.31776 -3.22945 0
M  V30 43390 C 1300.26 2.02742 -2.72939 0
M  V30 43391 O 1300.17 1.08301 -3.52749 0
M  V30 43392 N 1300.21 1.96117 -1.22063 0
M  V30 43393 C 1300.31 2.8878 -0.551566 0
M  V30 43394 N 1300.26 2.65609 0.750198 0
M  V30 43395 C 1300.46 4.22457 -1.03707 0
M  V30 43396 C 1300.51 4.37979 -2.39113 0
M  V30 43397 H 1303.25 6.54138 -5.7131 0
M  V30 43398 H 1303.52 5.30492 -4.44033 0
M  V30 43399 H 1302.66 4.55945 -6.76735 0
M  V30 43400 H 1300 2.6176 -5.18021 0
M  V30 43401 H 1299.72 5.52233 -4.41941 0
M  V30 43402 H 1298.73 4.52045 -5.53452 0
M  V30 43403 H 1300.56 6.25124 -6.55234 0
M  V30 43404 H 1300.64 5.37936 -2.80552 0
M  V30 43405 H 1300.53 5.07528 -0.359553 0
M  V30 43406 H 1300.15 1.69403 1.09847 0
M  V30 43407 H 1300.34 3.43701 1.41792 0
M  V30 43408 P 1298.69 4.23843 -7.83734 0
M  V30 43409 O 1298.47 4.19407 -9.29784 0
M  V30 43410 O 1297.9 5.24426 -7.09156 0
M  V30 43411 O 1298.44 2.7935 -7.20758 0
M  V30 43412 C 1299.38 1.72945 -7.50224 0
M  V30 43413 C 1298.65 0.406376 -7.57911 0
M  V30 43414 O 1298.44 -0.0897726 -6.21935 0
M  V30 43415 C 1297.25 0.438983 -8.18724 0
M  V30 43416 O 1296.86 -0.825065 -8.71101 0
M  V30 43417 C 1296.37 0.783689 -6.99524 0
M  V30 43418 C 1297.08 0.0619086 -5.85867 0
M  V30 43419 N 1297.03 0.78573 -4.56183 0
M  V30 43420 C 1296.88 0.0292889 -3.41887 0
M  V30 43421 O 1296.79 -1.18445 -3.4419 0
M  V30 43422 N 1296.84 0.744061 -2.23964 0
M  V30 43423 C 1296.93 2.10932 -2.10362 0
M  V30 43424 O 1296.88 2.64117 -0.98825 0
M  V30 43425 C 1297.08 2.8202 -3.34994 0
M  V30 43426 C 1297.19 4.31095 -3.25037 0
M  V30 43427 C 1297.13 2.15547 -4.52261 0
M  V30 43428 H 1299.87 1.93379 -8.46595 0
M  V30 43429 H 1300.14 1.68132 -6.70852 0
M  V30 43430 H 1299.28 -0.289041 -8.15388 0
M  V30 43431 H 1296.62 -0.926847 -5.72749 0
M  V30 43432 H 1296.34 1.86973 -6.82036 0
M  V30 43433 H 1295.35 0.403896 -7.13257 0
M  V30 43434 H 1297.18 1.20585 -8.97435 0
M  V30 43435 H 1297.25 2.71231 -5.45042 0
M  V30 43436 H 1296.22 4.76966 -3.49992 0
M  V30 43437 H 1297.96 4.67047 -3.95024 0
M  V30 43438 H 1297.47 4.58996 -2.22312 0
M  V30 43439 H 1296.74 0.214893 -1.39758 0
M  V30 43440 P 1295.31 -1.17771 -8.83182 0
M  V30 43441 O 1295.09 -2.07206 -9.98732 0
M  V30 43442 O 1294.52 0.0743816 -8.81969 0
M  V30 43443 O 1295.06 -1.97652 -7.47304 0
M  V30 43444 C 1296 -3.01133 -7.08783 0
M  V30 43445 C 1295.27 -4.12613 -6.37049 0
M  V30 43446 O 1295.06 -3.72827 -4.97879 0
M  V30 43447 C 1293.87 -4.45085 -6.88694 0
M  V30 43448 O 1293.48 -5.7877 -6.5624 0
M  V30 43449 C 1292.99 -3.47817 -6.12078 0
M  V30 43450 C 1293.7 -3.39414 -4.77697 0
M  V30 43451 N 1293.65 -2.04615 -4.15333 0
M  V30 43452 H 1296.49 -3.41248 -7.98759 0
M  V30 43453 H 1296.76 -2.5837 -6.41742 0
M  V30 43454 H 1295.9 -5.02657 -6.42673 0
M  V30 43455 P 1291.93 -6.144 -6.45285 0
M  V30 43456 O 1291.71 -7.54673 -6.86199 0
M  V30 43457 O 1291.14 -5.12391 -7.179 0
M  V30 43458 O 1291.68 -5.99158 -4.88404 0
M  V30 43459 C 1292.62 -6.60234 -3.96415 0
M  V30 43460 C 1291.89 -7.08259 -2.72856 0
M  V30 43461 O 1291.68 -5.9427 -1.83651 0
M  V30 43462 C 1290.49 -7.64886 -2.9555 0
M  V30 43463 O 1290.1 -8.53963 -1.90717 0
M  V30 43464 C 1289.61 -6.4116 -2.90739 0
M  V30 43465 C 1290.32 -5.55375 -1.86963 0
M  V30 43466 N 1290.27 -4.09664 -2.15742 0
M  V30 43467 H 1293.11 -7.45574 -4.45629 0
M  V30 43468 H 1293.38 -5.86232 -3.67314 0
M  V30 43469 H 1292.52 -7.84412 -2.24479 0
M  V30 43470 P 1288.55 -8.7635 -1.60911 0
M  V30 43471 O 1288.33 -10.1388 -1.11561 0
M  V30 43472 O 1287.76 -8.36503 -2.79617 0
M  V30 43473 O 1288.3 -7.71806 -0.42951 0
M  V30 43474 C 1289.24 -7.67148 0.673689 0
M  V30 43475 C 1288.51 -7.33374 1.95559 0
M  V30 43476 O 1288.3 -5.88721 2.00726 0
M  V30 43477 C 1287.11 -7.92526 2.10483 0
M  V30 43478 O 1286.72 -8.02971 3.47653 0
M  V30 43479 C 1286.23 -6.89602 1.41652 0
M  V30 43480 C 1286.94 -5.59201 1.75185 0
M  V30 43481 N 1286.89 -4.58235 0.662552 0
M  V30 43482 H 1289.73 -8.65116 0.777161 0
M  V30 43483 H 1290 -6.90173 0.474152 0
M  V30 43484 H 1289.14 -7.66548 2.79458 0
M  V30 43485 P 1285.17 -8.03563 3.84925 0
M  V30 43486 O 1284.95 -8.85821 5.0569 0
M  V30 43487 O 1284.38 -8.41101 2.65469 0
M  V30 43488 O 1284.92 -6.4965 4.18908 0
M  V30 43489 C 1285.86 -5.80886 5.05289 0
M  V30 43490 C 1285.13 -4.78366 5.89277 0
M  V30 43491 O 1284.92 -3.58302 5.08433 0
M  V30 43492 C 1283.73 -5.16748 6.36559 0
M  V30 43493 O 1283.34 -4.45271 7.53232 0
M  V30 43494 C 1282.85 -4.74572 5.19863 0
M  V30 43495 C 1283.56 -3.49373 4.70338 0
M  V30 43496 N 1283.51 -3.31704 3.22876 0
M  V30 43497 C 1283.36 -2.03326 2.74871 0
M  V30 43498 O 1283.27 -1.06486 3.48076 0
M  V30 43499 N 1283.32 -1.91838 1.37456 0
M  V30 43500 C 1283.41 -2.94295 0.462035 0
M  V30 43501 O 1283.36 -2.71763 -0.752928 0
M  V30 43502 C 1283.56 -4.25064 1.05249 0
M  V30 43503 C 1283.67 -5.39815 0.095697 0
M  V30 43504 C 1283.61 -4.40214 2.39192 0
M  V30 43505 H 1286.35 -6.54063 5.71245 0
M  V30 43506 H 1286.62 -5.30339 4.43905 0
M  V30 43507 H 1285.76 -4.55889 6.76652 0
M  V30 43508 H 1283.1 -2.6167 5.17842 0
M  V30 43509 H 1282.82 -5.52155 4.41878 0
M  V30 43510 H 1281.83 -4.51918 5.53297 0
M  V30 43511 H 1283.66 -6.25055 6.55162 0
M  V30 43512 H 1283.73 -5.39798 2.81523 0
M  V30 43513 H 1282.7 -5.91593 0.0279582 0
M  V30 43514 H 1284.44 -6.10038 0.450573 0
M  V30 43515 H 1283.95 -5.02007 -0.89937 0
M  V30 43516 H 1283.22 -0.995326 1.00435 0
M  V30 43517 P 1281.79 -4.23843 7.83734 0
M  V30 43518 O 1281.57 -4.19407 9.29784 0
M  V30 43519 O 1281 -5.24426 7.09156 0
M  V30 43520 O 1281.54 -2.7935 7.20758 0
M  V30 43521 C 1282.48 -1.7299 7.50419 0
M  V30 43522 C 1281.75 -0.406376 7.57911 0
M  V30 43523 O 1281.54 0.0897726 6.21935 0
M  V30 43524 C 1280.35 -0.447224 8.1878 0
M  V30 43525 O 1279.96 0.825065 8.71101 0
M  V30 43526 C 1279.47 -0.783801 6.99623 0
M  V30 43527 C 1280.18 -0.0619192 5.85967 0
M  V30 43528 N 1280.13 -0.7859 4.56281 0
M  V30 43529 H 1282.97 -1.93423 8.4679 0
M  V30 43530 H 1283.24 -1.68181 6.71046 0
M  V30 43531 H 1282.38 0.289041 8.15388 0
M  V30 43532 P 1278.41 1.17771 8.83182 0
M  V30 43533 O 1278.19 2.07206 9.98732 0
M  V30 43534 O 1277.62 -0.0743816 8.81969 0
M  V30 43535 O 1278.16 1.97652 7.47304 0
M  V30 43536 C 1279.1 3.01133 7.08783 0
M  V30 43537 C 1278.37 4.12613 6.37049 0
M  V30 43538 O 1278.16 3.72827 4.97879 0
M  V30 43539 C 1276.97 4.45085 6.88694 0
M  V30 43540 O 1276.58 5.7877 6.5624 0
M  V30 43541 C 1276.09 3.47817 6.12078 0
M  V30 43542 C 1276.8 3.39414 4.77697 0
M  V30 43543 N 1276.75 2.04615 4.15333 0
M  V30 43544 H 1279.59 3.41248 7.98759 0
M  V30 43545 H 1279.86 2.5837 6.41742 0
M  V30 43546 H 1279 5.02657 6.42673 0
M  V30 43547 P 1275.03 6.144 6.45285 0
M  V30 43548 O 1274.81 7.54673 6.86199 0
M  V30 43549 O 1274.24 5.12391 7.179 0
M  V30 43550 O 1274.78 5.99158 4.88404 0
M  V30 43551 C 1275.72 6.60234 3.96415 0
M  V30 43552 C 1274.99 7.08259 2.72856 0
M  V30 43553 O 1274.78 5.9427 1.83651 0
M  V30 43554 C 1273.59 7.64886 2.9555 0
M  V30 43555 O 1273.2 8.53963 1.90717 0
M  V30 43556 C 1272.71 6.4116 2.90739 0
M  V30 43557 C 1273.42 5.55375 1.86963 0
M  V30 43558 N 1273.37 4.09448 2.16152 0
M  V30 43559 H 1276.21 7.45574 4.45629 0
M  V30 43560 H 1276.48 5.85864 3.679 0
M  V30 43561 H 1275.62 7.84412 2.24479 0
M  V30 43562 H 1272.96 5.73457 0.888562 0
M  V30 43563 H 1272.68 5.90877 3.88583 0
M  V30 43564 H 1271.69 6.6596 2.58858 0
M  V30 43565 H 1273.52 8.16339 3.92049 0
M  V30 43566 P 1271.65 8.7635 1.60911 0
M  V30 43567 O 1271.43 10.1388 1.11561 0
M  V30 43568 O 1270.86 8.36503 2.79617 0
M  V30 43569 O 1271.4 7.71806 0.42951 0
M  V30 43570 C 1272.34 7.67148 -0.673689 0
M  V30 43571 C 1271.61 7.33374 -1.95559 0
M  V30 43572 O 1271.4 5.88721 -2.00726 0
M  V30 43573 C 1270.21 7.92526 -2.10483 0
M  V30 43574 O 1269.82 8.02971 -3.47653 0
M  V30 43575 C 1269.33 6.89602 -1.41652 0
M  V30 43576 C 1270.04 5.59201 -1.75185 0
M  V30 43577 N 1269.99 4.58235 -0.662552 0
M  V30 43578 H 1272.83 8.65116 -0.777161 0
M  V30 43579 H 1273.1 6.90173 -0.474152 0
M  V30 43580 H 1272.24 7.66548 -2.79458 0
M  V30 43581 P 1268.27 8.03563 -3.84925 0
M  V30 43582 O 1268.05 8.85821 -5.0569 0
M  V30 43583 O 1267.48 8.41101 -2.65469 0
M  V30 43584 O 1268.02 6.49734 -4.18962 0
M  V30 43585 C 1268.96 5.81037 -5.05421 0
M  V30 43586 C 1268.23 4.79018 -5.88876 0
M  V30 43587 O 1268.02 3.58359 -5.08515 0
M  V30 43588 C 1266.83 5.17448 -6.36119 0
M  V30 43589 O 1266.44 4.45322 -7.53318 0
M  V30 43590 C 1265.95 4.74639 -5.19936 0
M  V30 43591 C 1266.66 3.49432 -4.70418 0
M  V30 43592 N 1266.61 3.31776 -3.22945 0
M  V30 43593 C 1266.46 2.02742 -2.72939 0
M  V30 43594 O 1266.37 1.08301 -3.52749 0
M  V30 43595 N 1266.41 1.96117 -1.22063 0
M  V30 43596 C 1266.51 2.8878 -0.551566 0
M  V30 43597 N 1266.46 2.65609 0.750198 0
M  V30 43598 C 1266.66 4.22457 -1.03707 0
M  V30 43599 C 1266.71 4.37979 -2.39113 0
M  V30 43600 H 1269.45 6.54138 -5.7131 0
M  V30 43601 H 1269.72 5.30492 -4.44033 0
M  V30 43602 H 1268.86 4.55945 -6.76735 0
M  V30 43603 H 1266.2 2.6176 -5.18021 0
M  V30 43604 H 1265.92 5.52233 -4.41941 0
M  V30 43605 H 1264.93 4.52045 -5.53452 0
M  V30 43606 H 1266.76 6.25124 -6.55234 0
M  V30 43607 H 1266.84 5.37936 -2.80552 0
M  V30 43608 H 1266.73 5.07528 -0.359553 0
M  V30 43609 H 1266.35 1.69403 1.09847 0
M  V30 43610 H 1266.54 3.43701 1.41792 0
M  V30 43611 P 1264.89 4.23843 -7.83734 0
M  V30 43612 O 1264.67 4.19407 -9.29784 0
M  V30 43613 O 1264.1 5.24426 -7.09156 0
M  V30 43614 O 1264.64 2.79386 -7.20852 0
M  V30 43615 C 1265.58 1.7299 -7.50419 0
M  V30 43616 C 1264.85 0.41401 -7.5797 0
M  V30 43617 O 1264.64 -0.089787 -6.22035 0
M  V30 43618 C 1263.45 0.447224 -8.1878 0
M  V30 43619 O 1263.06 -0.825159 -8.71201 0
M  V30 43620 C 1262.57 0.783801 -6.99623 0
M  V30 43621 C 1263.28 0.0619192 -5.85967 0
M  V30 43622 N 1263.23 0.7859 -4.56281 0
M  V30 43623 C 1263.08 0.0359258 -3.39981 0
M  V30 43624 O 1262.99 -1.19723 -3.49038 0
M  V30 43625 N 1263.03 0.869151 -2.14025 0
M  V30 43626 C 1263.13 2.01207 -2.14363 0
M  V30 43627 N 1263.08 2.58978 -0.954287 0
M  V30 43628 C 1263.28 2.80817 -3.32215 0
M  V30 43629 C 1263.33 2.13785 -4.50884 0
M  V30 43630 H 1266.07 1.93401 -8.46693 0
M  V30 43631 H 1266.34 1.68181 -6.71046 0
M  V30 43632 H 1265.48 -0.289076 -8.15488 0
M  V30 43633 H 1262.82 -0.927166 -5.72947 0
M  V30 43634 H 1262.54 1.87 -6.82132 0
M  V30 43635 H 1261.55 0.404009 -7.13457 0
M  V30 43636 H 1263.38 1.20599 -8.97534 0
M  V30 43637 H 1263.46 2.70295 -5.43162 0
M  V30 43638 H 1263.35 3.89465 -3.27406 0
M  V30 43639 H 1262.97 2.01616 -0.107046 0
M  V30 43640 H 1263.16 3.61403 -0.873101 0
M  V30 43641 P 1261.51 -1.17771 -8.83182 0
M  V30 43642 O 1261.29 -2.07206 -9.98732 0
M  V30 43643 O 1260.72 0.0743816 -8.81969 0
M  V30 43644 O 1261.26 -1.97652 -7.47304 0
M  V30 43645 C 1262.2 -3.01055 -7.08599 0
M  V30 43646 C 1261.47 -4.12613 -6.37049 0
M  V30 43647 O 1261.26 -3.72827 -4.97879 0
M  V30 43648 C 1260.07 -4.45719 -6.88164 0
M  V30 43649 O 1259.68 -5.7877 -6.5624 0
M  V30 43650 C 1259.19 -3.47768 -6.11991 0
M  V30 43651 C 1259.9 -3.39356 -4.77615 0
M  V30 43652 N 1259.85 -2.04571 -4.15244 0
M  V30 43653 C 1259.7 -1.98587 -2.78314 0
M  V30 43654 O 1259.61 -2.98134 -2.08835 0
M  V30 43655 N 1259.66 -0.714467 -2.24925 0
M  V30 43656 C 1259.75 0.470001 -2.94169 0
M  V30 43657 O 1259.7 1.55587 -2.35195 0
M  V30 43658 C 1259.9 0.312541 -4.36783 0
M  V30 43659 C 1260.01 1.57711 -5.16352 0
M  V30 43660 C 1259.95 -0.914512 -4.92583 0
M  V30 43661 H 1262.69 -3.41169 -7.98575 0
M  V30 43662 H 1262.96 -2.58295 -6.41556 0
M  V30 43663 H 1262.1 -5.02657 -6.42673 0
M  V30 43664 H 1259.44 -4.11637 -4.08885 0
M  V30 43665 H 1259.16 -2.49626 -6.61679 0
M  V30 43666 H 1258.17 -3.86566 -6.00778 0
M  V30 43667 H 1260 -4.29943 -7.96918 0
M  V30 43668 H 1260.07 -1.00937 -6.00374 0
M  V30 43669 H 1259.04 1.80153 -5.63503 0
M  V30 43670 H 1260.78 1.4566 -5.94104 0
M  V30 43671 H 1260.29 2.40664 -4.49645 0
M  V30 43672 H 1259.56 -0.647622 -1.25697 0
M  V30 43673 P 1258.13 -6.144 -6.45285 0
M  V30 43674 O 1257.91 -7.54673 -6.86199 0
M  V30 43675 O 1257.34 -5.12391 -7.179 0
M  V30 43676 O 1257.88 -5.99158 -4.88404 0
M  V30 43677 C 1258.82 -6.60234 -3.96415 0
M  V30 43678 C 1258.09 -7.08259 -2.72856 0
M  V30 43679 O 1257.88 -5.9427 -1.83651 0
M  V30 43680 C 1256.69 -7.64886 -2.9555 0
M  V30 43681 O 1256.3 -8.53963 -1.90717 0
M  V30 43682 C 1255.81 -6.4116 -2.90739 0
M  V30 43683 C 1256.52 -5.55375 -1.86963 0
M  V30 43684 N 1256.47 -4.09448 -2.16152 0
M  V30 43685 H 1259.31 -7.45574 -4.45629 0
M  V30 43686 H 1259.58 -5.85864 -3.679 0
M  V30 43687 H 1258.72 -7.84412 -2.24479 0
M  V30 43688 H 1256.06 -5.73457 -0.888562 0
M  V30 43689 H 1255.78 -5.90877 -3.88583 0
M  V30 43690 H 1254.79 -6.6596 -2.58858 0
M  V30 43691 H 1256.62 -8.16339 -3.92049 0
M  V30 43692 P 1254.75 -8.7635 -1.60911 0
M  V30 43693 O 1254.53 -10.1388 -1.11561 0
M  V30 43694 O 1253.96 -8.36503 -2.79617 0
M  V30 43695 O 1254.5 -7.71806 -0.42951 0
M  V30 43696 C 1255.44 -7.67148 0.673689 0
M  V30 43697 C 1254.71 -7.33374 1.95559 0
M  V30 43698 O 1254.5 -5.88721 2.00726 0
M  V30 43699 C 1253.31 -7.92526 2.10483 0
M  V30 43700 O 1252.92 -8.02971 3.47653 0
M  V30 43701 C 1252.43 -6.89602 1.41652 0
M  V30 43702 C 1253.14 -5.59201 1.75185 0
M  V30 43703 N 1253.09 -4.58235 0.662552 0
M  V30 43704 C 1253.17 -4.7683 -0.704049 0
M  V30 43705 N 1253.09 -3.66233 -1.39775 0
M  V30 43706 C 1252.95 -2.66526 -0.431739 0
M  V30 43707 C 1252.82 -1.26394 -0.575992 0
M  V30 43708 O 1252.8 -0.589894 -1.60503 0
M  V30 43709 N 1252.7 -0.62859 0.67177 0
M  V30 43710 C 1252.7 -1.27134 1.89385 0
M  V30 43711 N 1252.57 -0.492035 2.96951 0
M  V30 43712 N 1252.83 -2.58978 2.02907 0
M  V30 43713 C 1252.95 -3.22433 0.832218 0
M  V30 43714 H 1255.93 -8.65116 0.777161 0
M  V30 43715 H 1256.2 -6.90173 0.474152 0
M  V30 43716 H 1255.34 -7.66548 2.79458 0
M  V30 43717 H 1252.68 -5.16254 2.65229 0
M  V30 43718 H 1252.4 -7.06532 0.329431 0
M  V30 43719 H 1251.41 -6.91023 1.82047 0
M  V30 43720 H 1253.24 -8.90971 1.62675 0
M  V30 43721 H 1253.29 -5.74954 -1.16305 0
M  V30 43722 H 1252.61 0.366713 0.674793 0
M  V30 43723 H 1252.57 -0.908532 3.91188 0
M  V30 43724 H 1252.47 0.528253 2.85758 0
M  V30 43725 P 1251.37 -8.03563 3.84925 0
M  V30 43726 O 1251.15 -8.85821 5.0569 0
M  V30 43727 O 1250.58 -8.41101 2.65469 0
M  V30 43728 O 1251.12 -6.4965 4.18908 0
M  V30 43729 C 1252.06 -5.81037 5.05421 0
M  V30 43730 C 1251.33 -4.78366 5.89277 0
M  V30 43731 O 1251.12 -3.58302 5.08433 0
M  V30 43732 C 1249.93 -5.17448 6.36119 0
M  V30 43733 O 1249.54 -4.45271 7.53232 0
M  V30 43734 C 1249.05 -4.74639 5.19936 0
M  V30 43735 C 1249.76 -3.49432 4.70418 0
M  V30 43736 N 1249.71 -3.31776 3.22945 0
M  V30 43737 H 1252.55 -6.54213 5.71376 0
M  V30 43738 H 1252.82 -5.30492 4.44033 0
M  V30 43739 H 1251.96 -4.55889 6.76652 0
M  V30 43740 P 1247.99 -4.23843 7.83734 0
M  V30 43741 O 1247.77 -4.19407 9.29784 0
M  V30 43742 O 1247.2 -5.24426 7.09156 0
M  V30 43743 O 1247.74 -2.7935 7.20758 0
M  V30 43744 C 1248.68 -1.7299 7.50419 0
M  V30 43745 C 1247.95 -0.406376 7.57911 0
M  V30 43746 O 1247.74 0.0897726 6.21935 0
M  V30 43747 C 1246.55 -0.447224 8.1878 0
M  V30 43748 O 1246.16 0.825065 8.71101 0
M  V30 43749 C 1245.67 -0.783801 6.99623 0
M  V30 43750 C 1246.38 -0.0619192 5.85967 0
M  V30 43751 N 1246.33 -0.7859 4.56281 0
M  V30 43752 H 1249.17 -1.93423 8.4679 0
M  V30 43753 H 1249.44 -1.68181 6.71046 0
M  V30 43754 H 1248.58 0.289041 8.15388 0
M  V30 43755 P 1244.61 1.17771 8.83182 0
M  V30 43756 O 1244.39 2.07206 9.98732 0
M  V30 43757 O 1243.82 -0.0743816 8.81969 0
M  V30 43758 O 1244.36 1.97652 7.47304 0
M  V30 43759 C 1245.3 3.01133 7.08783 0
M  V30 43760 C 1244.57 4.12613 6.37049 0
M  V30 43761 O 1244.36 3.72827 4.97879 0
M  V30 43762 C 1243.17 4.45085 6.88694 0
M  V30 43763 O 1242.78 5.7877 6.5624 0
M  V30 43764 C 1242.29 3.47817 6.12078 0
M  V30 43765 C 1243 3.39414 4.77697 0
M  V30 43766 N 1242.95 2.04199 4.15538 0
M  V30 43767 H 1245.79 3.41248 7.98759 0
M  V30 43768 H 1246.06 2.57728 6.42 0
M  V30 43769 H 1245.2 5.02657 6.42673 0
M  V30 43770 H 1242.54 4.11708 4.08956 0
M  V30 43771 H 1242.26 2.49626 6.61679 0
M  V30 43772 H 1241.27 3.8662 6.00862 0
M  V30 43773 H 1243.1 4.29991 7.97006 0
M  V30 43774 P 1241.23 6.144 6.45285 0
M  V30 43775 O 1241.01 7.54673 6.86199 0
M  V30 43776 O 1240.44 5.12391 7.179 0
M  V30 43777 O 1240.98 5.99158 4.88404 0
M  V30 43778 C 1241.92 6.60234 3.96415 0
M  V30 43779 C 1241.19 7.08259 2.72856 0
M  V30 43780 O 1240.98 5.9427 1.83651 0
M  V30 43781 C 1239.79 7.64886 2.9555 0
M  V30 43782 O 1239.4 8.53963 1.90717 0
M  V30 43783 C 1238.91 6.4116 2.90739 0
M  V30 43784 C 1239.62 5.55375 1.86963 0
M  V30 43785 N 1239.57 4.09664 2.15742 0
M  V30 43786 H 1242.41 7.45574 4.45629 0
M  V30 43787 H 1242.68 5.86232 3.67314 0
M  V30 43788 H 1241.82 7.84412 2.24479 0
M  V30 43789 P 1237.85 8.7635 1.60911 0
M  V30 43790 O 1237.63 10.1388 1.11561 0
M  V30 43791 O 1237.06 8.36503 2.79617 0
M  V30 43792 O 1237.6 7.71806 0.42951 0
M  V30 43793 C 1238.54 7.67148 -0.673689 0
M  V30 43794 C 1237.81 7.33374 -1.95559 0
M  V30 43795 O 1237.6 5.88721 -2.00726 0
M  V30 43796 C 1236.41 7.92526 -2.10483 0
M  V30 43797 O 1236.02 8.02971 -3.47653 0
M  V30 43798 C 1235.53 6.89602 -1.41652 0
M  V30 43799 C 1236.24 5.59201 -1.75185 0
M  V30 43800 N 1236.19 4.58235 -0.662552 0
M  V30 43801 C 1236.27 4.7683 0.704049 0
M  V30 43802 N 1236.19 3.66233 1.39775 0
M  V30 43803 C 1236.05 2.66526 0.431739 0
M  V30 43804 C 1235.92 1.26394 0.575992 0
M  V30 43805 O 1235.9 0.589894 1.60503 0
M  V30 43806 N 1235.8 0.62859 -0.67177 0
M  V30 43807 C 1235.8 1.27134 -1.89385 0
M  V30 43808 N 1235.67 0.492035 -2.96951 0
M  V30 43809 N 1235.93 2.58978 -2.02907 0
M  V30 43810 C 1236.05 3.22433 -0.832218 0
M  V30 43811 H 1239.03 8.65116 -0.777161 0
M  V30 43812 H 1239.3 6.90173 -0.474152 0
M  V30 43813 H 1238.44 7.66548 -2.79458 0
M  V30 43814 H 1235.78 5.16254 -2.65229 0
M  V30 43815 H 1235.5 7.06532 -0.329431 0
M  V30 43816 H 1234.51 6.91023 -1.82047 0
M  V30 43817 H 1236.34 8.90971 -1.62675 0
M  V30 43818 H 1236.39 5.74954 1.16305 0
M  V30 43819 H 1235.71 -0.366713 -0.674793 0
M  V30 43820 H 1235.67 0.908532 -3.91188 0
M  V30 43821 H 1235.57 -0.528253 -2.85758 0
M  V30 43822 P 1234.47 8.03563 -3.84925 0
M  V30 43823 O 1234.25 8.85821 -5.0569 0
M  V30 43824 O 1233.68 8.41101 -2.65469 0
M  V30 43825 O 1234.22 6.4965 -4.18908 0
M  V30 43826 C 1235.16 5.81037 -5.05421 0
M  V30 43827 C 1234.43 4.78366 -5.89277 0
M  V30 43828 O 1234.22 3.58302 -5.08433 0
M  V30 43829 C 1233.03 5.17448 -6.36119 0
M  V30 43830 O 1232.64 4.45271 -7.53232 0
M  V30 43831 C 1232.15 4.74639 -5.19936 0
M  V30 43832 C 1232.86 3.49432 -4.70418 0
M  V30 43833 N 1232.81 3.31776 -3.22945 0
M  V30 43834 H 1235.65 6.54213 -5.71376 0
M  V30 43835 H 1235.92 5.30492 -4.44033 0
M  V30 43836 H 1235.06 4.55889 -6.76652 0
M  V30 43837 P 1231.09 4.23843 -7.83734 0
M  V30 43838 O 1230.87 4.19407 -9.29784 0
M  V30 43839 O 1230.3 5.24426 -7.09156 0
M  V30 43840 O 1230.84 2.7935 -7.20758 0
M  V30 43841 C 1231.78 1.7299 -7.50419 0
M  V30 43842 C 1231.05 0.406376 -7.57911 0
M  V30 43843 O 1230.84 -0.0897726 -6.21935 0
M  V30 43844 C 1229.65 0.447224 -8.1878 0
M  V30 43845 O 1229.26 -0.825065 -8.71101 0
M  V30 43846 C 1228.77 0.783801 -6.99623 0
M  V30 43847 C 1229.48 0.0619192 -5.85967 0
M  V30 43848 N 1229.43 0.7859 -4.56281 0
M  V30 43849 H 1232.27 1.93423 -8.4679 0
M  V30 43850 H 1232.54 1.68181 -6.71046 0
M  V30 43851 H 1231.68 -0.289041 -8.15388 0
M  V30 43852 P 1227.71 -1.17771 -8.83182 0
M  V30 43853 O 1227.49 -2.07206 -9.98732 0
M  V30 43854 O 1226.92 0.0743816 -8.81969 0
M  V30 43855 O 1227.46 -1.97652 -7.47304 0
M  V30 43856 C 1228.4 -3.01133 -7.08783 0
M  V30 43857 C 1227.67 -4.12613 -6.37049 0
M  V30 43858 O 1227.46 -3.72827 -4.97879 0
M  V30 43859 C 1226.27 -4.45085 -6.88694 0
M  V30 43860 O 1225.88 -5.7877 -6.5624 0
M  V30 43861 C 1225.39 -3.47817 -6.12078 0
M  V30 43862 C 1226.1 -3.39414 -4.77697 0
M  V30 43863 N 1226.05 -2.04199 -4.15538 0
M  V30 43864 H 1228.89 -3.41248 -7.98759 0
M  V30 43865 H 1229.16 -2.57728 -6.42 0
M  V30 43866 H 1228.3 -5.02657 -6.42673 0
M  V30 43867 H 1225.64 -4.11708 -4.08956 0
M  V30 43868 H 1225.36 -2.49626 -6.61679 0
M  V30 43869 H 1224.37 -3.8662 -6.00862 0
M  V30 43870 H 1226.2 -4.29991 -7.97006 0
M  V30 43871 P 1224.33 -6.144 -6.45285 0
M  V30 43872 O 1224.11 -7.54673 -6.86199 0
M  V30 43873 O 1223.54 -5.12391 -7.179 0
M  V30 43874 O 1224.08 -5.99158 -4.88404 0
M  V30 43875 C 1225.02 -6.60234 -3.96415 0
M  V30 43876 C 1224.29 -7.08259 -2.72856 0
M  V30 43877 O 1224.08 -5.9427 -1.83651 0
M  V30 43878 C 1222.89 -7.64886 -2.9555 0
M  V30 43879 O 1222.5 -8.53963 -1.90717 0
M  V30 43880 C 1222.01 -6.4116 -2.90739 0
M  V30 43881 C 1222.72 -5.55375 -1.86963 0
M  V30 43882 N 1222.67 -4.09664 -2.15742 0
M  V30 43883 C 1222.75 -3.44381 -3.37233 0
M  V30 43884 N 1222.67 -2.14131 -3.28347 0
M  V30 43885 C 1222.53 -1.90247 -1.91588 0
M  V30 43886 C 1222.4 -0.683992 -1.20892 0
M  V30 43887 N 1222.28 -0.903396 0.173998 0
M  V30 43888 C 1222.28 -2.14171 0.784879 0
M  V30 43889 N 1222.15 -2.1435 2.11317 0
M  V30 43890 N 1222.41 -3.28784 0.119316 0
M  V30 43891 C 1222.53 -3.0977 -1.22194 0
M  V30 43892 H 1225.51 -7.45574 -4.45629 0
M  V30 43893 H 1225.78 -5.86232 -3.67314 0
M  V30 43894 H 1224.92 -7.84412 -2.24479 0
M  V30 43895 P 1220.95 -8.7635 -1.60911 0
M  V30 43896 O 1220.73 -10.1388 -1.11561 0
M  V30 43897 O 1220.16 -8.36503 -2.79617 0
M  V30 43898 O 1220.7 -7.71806 -0.42951 0
M  V30 43899 C 1221.64 -7.66948 0.673514 0
M  V30 43900 C 1220.91 -7.33374 1.95559 0
M  V30 43901 O 1220.7 -5.88721 2.00726 0
M  V30 43902 C 1219.51 -7.92218 2.1125 0
M  V30 43903 O 1219.12 -8.02971 3.47653 0
M  V30 43904 C 1218.63 -6.89504 1.41631 0
M  V30 43905 C 1219.34 -5.59106 1.75155 0
M  V30 43906 N 1219.29 -4.58136 0.662409 0
M  V30 43907 C 1219.14 -3.26059 1.02863 0
M  V30 43908 O 1219.05 -2.90743 2.19009 0
M  V30 43909 N 1219.1 -2.35995 -0.0155585 0
M  V30 43910 C 1219.19 -2.65248 -1.35603 0
M  V30 43911 O 1219.14 -1.75605 -2.20651 0
M  V30 43912 C 1219.34 -4.05747 -1.64698 0
M  V30 43913 C 1219.45 -4.42345 -3.09553 0
M  V30 43914 C 1219.39 -4.96734 -0.652411 0
M  V30 43915 H 1222.13 -8.64917 0.776982 0
M  V30 43916 H 1222.4 -6.89974 0.474015 0
M  V30 43917 H 1221.54 -7.66548 2.79458 0
M  V30 43918 H 1218.88 -5.16076 2.65138 0
M  V30 43919 H 1218.6 -7.06433 0.329384 0
M  V30 43920 H 1217.61 -6.90829 1.81996 0
M  V30 43921 H 1219.44 -8.90774 1.62639 0
M  V30 43922 H 1219.51 -6.02181 -0.895285 0
M  V30 43923 H 1218.48 -4.80252 -3.45468 0
M  V30 43924 H 1220.22 -5.20015 -3.22119 0
M  V30 43925 H 1219.73 -3.53269 -3.67833 0
M  V30 43926 H 1219 -1.39558 0.227499 0
M  V30 43927 P 1217.57 -8.03563 3.84925 0
M  V30 43928 O 1217.35 -8.85821 5.0569 0
M  V30 43929 O 1216.78 -8.41101 2.65469 0
M  V30 43930 O 1217.32 -6.4965 4.18908 0
M  V30 43931 C 1218.26 -5.81037 5.05421 0
M  V30 43932 C 1217.53 -4.78366 5.89277 0
M  V30 43933 O 1217.32 -3.58302 5.08433 0
M  V30 43934 C 1216.13 -5.17448 6.36119 0
M  V30 43935 O 1215.74 -4.45271 7.53232 0
M  V30 43936 C 1215.25 -4.74639 5.19936 0
M  V30 43937 C 1215.96 -3.49432 4.70418 0
M  V30 43938 N 1215.91 -3.31776 3.22945 0
M  V30 43939 H 1218.75 -6.54213 5.71376 0
M  V30 43940 H 1219.02 -5.30492 4.44033 0
M  V30 43941 H 1218.16 -4.55889 6.76652 0
M  V30 43942 P 1214.19 -4.23843 7.83734 0
M  V30 43943 O 1213.97 -4.19407 9.29784 0
M  V30 43944 O 1213.4 -5.24426 7.09156 0
M  V30 43945 O 1213.94 -2.7935 7.20758 0
M  V30 43946 C 1214.88 -1.7299 7.50419 0
M  V30 43947 C 1214.15 -0.406376 7.57911 0
M  V30 43948 O 1213.94 0.0897726 6.21935 0
M  V30 43949 C 1212.75 -0.447224 8.1878 0
M  V30 43950 O 1212.36 0.825065 8.71101 0
M  V30 43951 C 1211.87 -0.783801 6.99623 0
M  V30 43952 C 1212.58 -0.0619192 5.85967 0
M  V30 43953 N 1212.53 -0.7859 4.56281 0
M  V30 43954 H 1215.37 -1.93423 8.4679 0
M  V30 43955 H 1215.64 -1.68181 6.71046 0
M  V30 43956 H 1214.78 0.289041 8.15388 0
M  V30 43957 P 1210.81 1.17771 8.83182 0
M  V30 43958 O 1210.59 2.07206 9.98732 0
M  V30 43959 O 1210.02 -0.0743816 8.81969 0
M  V30 43960 O 1210.56 1.97652 7.47304 0
M  V30 43961 C 1211.5 3.01133 7.08783 0
M  V30 43962 C 1210.77 4.12613 6.37049 0
M  V30 43963 O 1210.56 3.72827 4.97879 0
M  V30 43964 C 1209.37 4.45085 6.88694 0
M  V30 43965 O 1208.98 5.7877 6.5624 0
M  V30 43966 C 1208.49 3.47817 6.12078 0
M  V30 43967 C 1209.2 3.39414 4.77697 0
M  V30 43968 N 1209.15 2.04199 4.15538 0
M  V30 43969 H 1211.99 3.41248 7.98759 0
M  V30 43970 H 1212.26 2.57728 6.42 0
M  V30 43971 H 1211.4 5.02657 6.42673 0
M  V30 43972 H 1208.74 4.11708 4.08956 0
M  V30 43973 H 1208.46 2.49626 6.61679 0
M  V30 43974 H 1207.47 3.8662 6.00862 0
M  V30 43975 H 1209.3 4.29991 7.97006 0
M  V30 43976 P 1207.43 6.144 6.45285 0
M  V30 43977 O 1207.21 7.54673 6.86199 0
M  V30 43978 O 1206.64 5.12391 7.179 0
M  V30 43979 O 1207.18 5.99158 4.88404 0
M  V30 43980 C 1208.12 6.60234 3.96415 0
M  V30 43981 C 1207.39 7.08259 2.72856 0
M  V30 43982 O 1207.18 5.9427 1.83651 0
M  V30 43983 C 1205.99 7.64886 2.9555 0
M  V30 43984 O 1205.6 8.53963 1.90717 0
M  V30 43985 C 1205.11 6.4116 2.90739 0
M  V30 43986 C 1205.82 5.55375 1.86963 0
M  V30 43987 N 1205.77 4.09448 2.16152 0
M  V30 43988 H 1208.61 7.45574 4.45629 0
M  V30 43989 H 1208.88 5.85864 3.679 0
M  V30 43990 H 1208.02 7.84412 2.24479 0
M  V30 43991 H 1205.36 5.73457 0.888562 0
M  V30 43992 H 1205.08 5.90877 3.88583 0
M  V30 43993 H 1204.09 6.6596 2.58858 0
M  V30 43994 H 1205.92 8.16339 3.92049 0
M  V30 43995 P 1204.05 8.7635 1.60911 0
M  V30 43996 O 1203.83 10.1388 1.11561 0
M  V30 43997 O 1203.26 8.36503 2.79617 0
M  V30 43998 O 1203.8 7.71806 0.42951 0
M  V30 43999 C 1204.74 7.67148 -0.673689 0
M  V30 44000 C 1204.01 7.33374 -1.95559 0
M  V30 44001 O 1203.8 5.88721 -2.00726 0
M  V30 44002 C 1202.61 7.92526 -2.10483 0
M  V30 44003 O 1202.22 8.02971 -3.47653 0
M  V30 44004 C 1201.73 6.89602 -1.41652 0
M  V30 44005 C 1202.44 5.59201 -1.75185 0
M  V30 44006 N 1202.39 4.58235 -0.662552 0
M  V30 44007 H 1205.23 8.65116 -0.777161 0
M  V30 44008 H 1205.5 6.90173 -0.474152 0
M  V30 44009 H 1204.64 7.66548 -2.79458 0
M  V30 44010 P 1200.67 8.03563 -3.84925 0
M  V30 44011 O 1200.45 8.85821 -5.0569 0
M  V30 44012 O 1199.88 8.41101 -2.65469 0
M  V30 44013 O 1200.42 6.49734 -4.18962 0
M  V30 44014 C 1201.36 5.81037 -5.05421 0
M  V30 44015 C 1200.63 4.79018 -5.88876 0
M  V30 44016 O 1200.42 3.58359 -5.08515 0
M  V30 44017 C 1199.23 5.17448 -6.36119 0
M  V30 44018 O 1198.84 4.45322 -7.53318 0
M  V30 44019 C 1198.35 4.74639 -5.19936 0
M  V30 44020 C 1199.06 3.49432 -4.70418 0
M  V30 44021 N 1199.01 3.31776 -3.22945 0
M  V30 44022 C 1198.86 2.02742 -2.72939 0
M  V30 44023 O 1198.77 1.08301 -3.52749 0
M  V30 44024 N 1198.81 1.96117 -1.22063 0
M  V30 44025 C 1198.91 2.8878 -0.551566 0
M  V30 44026 N 1198.86 2.65609 0.750198 0
M  V30 44027 C 1199.06 4.22457 -1.03707 0
M  V30 44028 C 1199.11 4.37979 -2.39113 0
M  V30 44029 H 1201.85 6.54138 -5.7131 0
M  V30 44030 H 1202.12 5.30492 -4.44033 0
M  V30 44031 H 1201.26 4.55945 -6.76735 0
M  V30 44032 H 1198.6 2.6176 -5.18021 0
M  V30 44033 H 1198.32 5.52233 -4.41941 0
M  V30 44034 H 1197.33 4.52045 -5.53452 0
M  V30 44035 H 1199.16 6.25124 -6.55234 0
M  V30 44036 H 1199.24 5.37936 -2.80552 0
M  V30 44037 H 1199.13 5.07528 -0.359553 0
M  V30 44038 H 1198.75 1.69403 1.09847 0
M  V30 44039 H 1198.94 3.43701 1.41792 0
M  V30 44040 P 1197.29 4.23843 -7.83734 0
M  V30 44041 O 1197.07 4.19407 -9.29784 0
M  V30 44042 O 1196.5 5.24426 -7.09156 0
M  V30 44043 O 1197.04 2.79386 -7.20852 0
M  V30 44044 C 1197.98 1.7299 -7.50419 0
M  V30 44045 C 1197.25 0.41401 -7.5797 0
M  V30 44046 O 1197.04 -0.089787 -6.22035 0
M  V30 44047 C 1195.85 0.447224 -8.1878 0
M  V30 44048 O 1195.46 -0.825159 -8.71201 0
M  V30 44049 C 1194.97 0.783801 -6.99623 0
M  V30 44050 C 1195.68 0.0619192 -5.85967 0
M  V30 44051 N 1195.63 0.7859 -4.56281 0
M  V30 44052 C 1195.48 0.0359258 -3.39981 0
M  V30 44053 O 1195.39 -1.19723 -3.49038 0
M  V30 44054 N 1195.43 0.869151 -2.14025 0
M  V30 44055 C 1195.53 2.01207 -2.14363 0
M  V30 44056 N 1195.48 2.58978 -0.954287 0
M  V30 44057 C 1195.68 2.80817 -3.32215 0
M  V30 44058 C 1195.73 2.13785 -4.50884 0
M  V30 44059 H 1198.47 1.93401 -8.46693 0
M  V30 44060 H 1198.74 1.68181 -6.71046 0
M  V30 44061 H 1197.88 -0.289076 -8.15488 0
M  V30 44062 H 1195.22 -0.927166 -5.72947 0
M  V30 44063 H 1194.94 1.87 -6.82132 0
M  V30 44064 H 1193.95 0.404009 -7.13457 0
M  V30 44065 H 1195.78 1.20599 -8.97534 0
M  V30 44066 H 1195.86 2.70295 -5.43162 0
M  V30 44067 H 1195.75 3.89465 -3.27406 0
M  V30 44068 H 1195.37 2.01616 -0.107046 0
M  V30 44069 H 1195.56 3.61403 -0.873101 0
M  V30 44070 P 1193.91 -1.17771 -8.83182 0
M  V30 44071 O 1193.69 -2.07206 -9.98732 0
M  V30 44072 O 1193.12 0.0743816 -8.81969 0
M  V30 44073 O 1193.66 -1.97652 -7.47304 0
M  V30 44074 C 1194.6 -3.01133 -7.08783 0
M  V30 44075 C 1193.87 -4.12613 -6.37049 0
M  V30 44076 O 1193.66 -3.72827 -4.97879 0
M  V30 44077 C 1192.47 -4.45085 -6.88694 0
M  V30 44078 O 1192.08 -5.7877 -6.5624 0
M  V30 44079 C 1191.59 -3.47817 -6.12078 0
M  V30 44080 C 1192.3 -3.39414 -4.77697 0
M  V30 44081 N 1192.25 -2.04615 -4.15333 0
M  V30 44082 H 1195.09 -3.41248 -7.98759 0
M  V30 44083 H 1195.36 -2.5837 -6.41742 0
M  V30 44084 H 1194.5 -5.02657 -6.42673 0
M  V30 44085 P 1190.53 -6.144 -6.45285 0
M  V30 44086 O 1190.31 -7.54673 -6.86199 0
M  V30 44087 O 1189.74 -5.12391 -7.179 0
M  V30 44088 O 1190.28 -5.99158 -4.88404 0
M  V30 44089 C 1191.22 -6.60234 -3.96415 0
M  V30 44090 C 1190.49 -7.08259 -2.72856 0
M  V30 44091 O 1190.28 -5.9427 -1.83651 0
M  V30 44092 C 1189.09 -7.64886 -2.9555 0
M  V30 44093 O 1188.7 -8.53963 -1.90717 0
M  V30 44094 C 1188.21 -6.4116 -2.90739 0
M  V30 44095 C 1188.92 -5.55375 -1.86963 0
M  V30 44096 N 1188.87 -4.09664 -2.15742 0
M  V30 44097 H 1191.71 -7.45574 -4.45629 0
M  V30 44098 H 1191.98 -5.86232 -3.67314 0
M  V30 44099 H 1191.12 -7.84412 -2.24479 0
M  V30 44100 P 1187.15 -8.7635 -1.60911 0
M  V30 44101 O 1186.93 -10.1388 -1.11561 0
M  V30 44102 O 1186.36 -8.36503 -2.79617 0
M  V30 44103 O 1186.9 -7.71806 -0.42951 0
M  V30 44104 C 1187.84 -7.66948 0.673514 0
M  V30 44105 C 1187.11 -7.33374 1.95559 0
M  V30 44106 O 1186.9 -5.88721 2.00726 0
M  V30 44107 C 1185.71 -7.92218 2.1125 0
M  V30 44108 O 1185.32 -8.02971 3.47653 0
M  V30 44109 C 1184.83 -6.89504 1.41631 0
M  V30 44110 C 1185.54 -5.59106 1.75155 0
M  V30 44111 N 1185.49 -4.58136 0.662409 0
M  V30 44112 C 1185.34 -3.26059 1.02863 0
M  V30 44113 O 1185.25 -2.90743 2.19009 0
M  V30 44114 N 1185.3 -2.35995 -0.0155585 0
M  V30 44115 C 1185.39 -2.65248 -1.35603 0
M  V30 44116 O 1185.34 -1.75605 -2.20651 0
M  V30 44117 C 1185.54 -4.05747 -1.64698 0
M  V30 44118 C 1185.65 -4.42345 -3.09553 0
M  V30 44119 C 1185.59 -4.96734 -0.652411 0
M  V30 44120 H 1188.33 -8.64917 0.776982 0
M  V30 44121 H 1188.6 -6.89974 0.474015 0
M  V30 44122 H 1187.74 -7.66548 2.79458 0
M  V30 44123 H 1185.08 -5.16076 2.65138 0
M  V30 44124 H 1184.8 -7.06433 0.329384 0
M  V30 44125 H 1183.81 -6.90829 1.81996 0
M  V30 44126 H 1185.64 -8.90774 1.62639 0
M  V30 44127 H 1185.72 -6.02181 -0.895285 0
M  V30 44128 H 1184.69 -4.80252 -3.45468 0
M  V30 44129 H 1186.42 -5.20015 -3.22119 0
M  V30 44130 H 1185.93 -3.53269 -3.67833 0
M  V30 44131 H 1185.2 -1.39558 0.227499 0
M  V30 44132 P 1183.77 -8.03563 3.84925 0
M  V30 44133 O 1183.55 -8.85821 5.0569 0
M  V30 44134 O 1182.98 -8.41101 2.65469 0
M  V30 44135 O 1183.52 -6.4965 4.18908 0
M  V30 44136 C 1184.46 -5.81037 5.05421 0
M  V30 44137 C 1183.73 -4.78366 5.89277 0
M  V30 44138 O 1183.52 -3.58302 5.08433 0
M  V30 44139 C 1182.33 -5.17448 6.36119 0
M  V30 44140 O 1181.94 -4.45271 7.53232 0
M  V30 44141 C 1181.45 -4.74639 5.19936 0
M  V30 44142 C 1182.16 -3.49432 4.70418 0
M  V30 44143 N 1182.11 -3.31776 3.22945 0
M  V30 44144 H 1184.95 -6.54213 5.71376 0
M  V30 44145 H 1185.22 -5.30492 4.44033 0
M  V30 44146 H 1184.36 -4.55889 6.76652 0
M  V30 44147 P 1180.39 -4.23843 7.83734 0
M  V30 44148 O 1180.17 -4.19407 9.29784 0
M  V30 44149 O 1179.6 -5.24426 7.09156 0
M  V30 44150 O 1180.14 -2.7935 7.20758 0
M  V30 44151 C 1181.08 -1.7299 7.50419 0
M  V30 44152 C 1180.35 -0.406376 7.57911 0
M  V30 44153 O 1180.14 0.0897726 6.21935 0
M  V30 44154 C 1178.95 -0.447224 8.1878 0
M  V30 44155 O 1178.56 0.825065 8.71101 0
M  V30 44156 C 1178.07 -0.783801 6.99623 0
M  V30 44157 C 1178.78 -0.0619192 5.85967 0
M  V30 44158 N 1178.73 -0.7859 4.56281 0
M  V30 44159 H 1181.57 -1.93423 8.4679 0
M  V30 44160 H 1181.84 -1.68181 6.71046 0
M  V30 44161 H 1180.98 0.289041 8.15388 0
M  V30 44162 P 1177.01 1.17771 8.83182 0
M  V30 44163 O 1176.79 2.07206 9.98732 0
M  V30 44164 O 1176.22 -0.0743816 8.81969 0
M  V30 44165 O 1176.76 1.97652 7.47304 0
M  V30 44166 C 1177.7 3.01133 7.08783 0
M  V30 44167 C 1176.97 4.12613 6.37049 0
M  V30 44168 O 1176.76 3.72827 4.97879 0
M  V30 44169 C 1175.57 4.45085 6.88694 0
M  V30 44170 O 1175.18 5.7877 6.5624 0
M  V30 44171 C 1174.69 3.47817 6.12078 0
M  V30 44172 C 1175.4 3.39414 4.77697 0
M  V30 44173 N 1175.35 2.04199 4.15538 0
M  V30 44174 H 1178.19 3.41248 7.98759 0
M  V30 44175 H 1178.46 2.57728 6.42 0
M  V30 44176 H 1177.6 5.02657 6.42673 0
M  V30 44177 H 1174.94 4.11708 4.08956 0
M  V30 44178 H 1174.66 2.49626 6.61679 0
M  V30 44179 H 1173.67 3.8662 6.00862 0
M  V30 44180 H 1175.5 4.29991 7.97006 0
M  V30 44181 P 1173.63 6.144 6.45285 0
M  V30 44182 O 1173.41 7.54673 6.86199 0
M  V30 44183 O 1172.84 5.12391 7.179 0
M  V30 44184 O 1173.38 5.99158 4.88404 0
M  V30 44185 C 1174.32 6.60062 3.96313 0
M  V30 44186 C 1173.59 7.08259 2.72856 0
M  V30 44187 O 1173.38 5.9427 1.83651 0
M  V30 44188 C 1172.19 7.65087 2.94749 0
M  V30 44189 O 1171.8 8.53963 1.90717 0
M  V30 44190 C 1171.31 6.41069 2.90698 0
M  V30 44191 C 1172.02 5.5528 1.86931 0
M  V30 44192 N 1171.97 4.09575 2.15696 0
M  V30 44193 C 1171.82 3.24249 1.08435 0
M  V30 44194 O 1171.73 3.63946 -0.0628747 0
M  V30 44195 N 1171.78 1.90009 1.39973 0
M  V30 44196 C 1171.87 1.34884 2.65614 0
M  V30 44197 O 1171.82 0.123716 2.81728 0
M  V30 44198 C 1172.02 2.3145 3.71736 0
M  V30 44199 C 1172.13 1.75913 5.10438 0
M  V30 44200 C 1172.07 3.63518 3.44754 0
M  V30 44201 H 1174.81 7.45402 4.45526 0
M  V30 44202 H 1175.08 5.86062 3.67208 0
M  V30 44203 H 1174.22 7.84412 2.24479 0
M  V30 44204 H 1171.56 5.73358 0.888409 0
M  V30 44205 H 1171.28 5.90877 3.88583 0
M  V30 44206 H 1170.29 6.65867 2.58821 0
M  V30 44207 H 1172.12 8.16248 3.92006 0
M  V30 44208 H 1172.2 4.34551 4.26383 0
M  V30 44209 H 1171.17 1.85471 5.61775 0
M  V30 44210 H 1172.9 2.31364 5.66257 0
M  V30 44211 H 1172.41 0.695936 5.05229 0
M  V30 44212 H 1171.68 1.26277 0.63625 0
M  V30 44213 P 1170.25 8.7635 1.60911 0
M  V30 44214 O 1170.03 10.1388 1.11561 0
M  V30 44215 O 1169.46 8.36503 2.79617 0
M  V30 44216 O 1170 7.71806 0.42951 0
M  V30 44217 C 1170.94 7.67148 -0.673689 0
M  V30 44218 C 1170.21 7.33374 -1.95559 0
M  V30 44219 O 1170 5.88721 -2.00726 0
M  V30 44220 C 1168.81 7.92526 -2.10483 0
M  V30 44221 O 1168.42 8.02971 -3.47653 0
M  V30 44222 C 1167.93 6.89602 -1.41652 0
M  V30 44223 C 1168.64 5.59201 -1.75185 0
M  V30 44224 N 1168.59 4.58301 -0.657969 0
M  V30 44225 C 1168.67 4.79019 0.692603 0
M  V30 44226 N 1168.6 3.69736 1.38998 0
M  V30 44227 C 1168.45 2.70474 0.438135 0
M  V30 44228 C 1168.32 1.30327 0.538142 0
M  V30 44229 N 1168.31 0.64304 1.69192 0
M  V30 44230 N 1168.2 0.611027 -0.605183 0
M  V30 44231 C 1168.21 1.27002 -1.75953 0
M  V30 44232 N 1168.33 2.56038 -1.98546 0
M  V30 44233 C 1168.45 3.22681 -0.822541 0
M  V30 44234 H 1171.43 8.65116 -0.777161 0
M  V30 44235 H 1171.7 6.9022 -0.46725 0
M  V30 44236 H 1170.84 7.66548 -2.79458 0
M  V30 44237 H 1168.18 5.16165 -2.65183 0
M  V30 44238 H 1167.9 7.06433 -0.329384 0
M  V30 44239 H 1166.91 6.90926 -1.82021 0
M  V30 44240 H 1168.74 8.90873 -1.62657 0
M  V30 44241 H 1168.79 5.77785 1.13874 0
M  V30 44242 H 1168.4 1.15585 2.57991 0
M  V30 44243 H 1168.22 -0.382989 1.69835 0
M  V30 44244 H 1168.11 0.653331 -2.64449 0
M  V30 44245 P 1166.87 8.03563 -3.84925 0
M  V30 44246 O 1166.65 8.85821 -5.0569 0
M  V30 44247 O 1166.08 8.41101 -2.65469 0
M  V30 44248 O 1166.62 6.4965 -4.18908 0
M  V30 44249 C 1167.56 5.81037 -5.05421 0
M  V30 44250 C 1166.83 4.78366 -5.89277 0
M  V30 44251 O 1166.62 3.58302 -5.08433 0
M  V30 44252 C 1165.43 5.17448 -6.36119 0
M  V30 44253 O 1165.04 4.45271 -7.53232 0
M  V30 44254 C 1164.55 4.74639 -5.19936 0
M  V30 44255 C 1165.26 3.49432 -4.70418 0
M  V30 44256 N 1165.21 3.31776 -3.22945 0
M  V30 44257 C 1165.29 4.27147 -2.23315 0
M  V30 44258 N 1165.21 3.78447 -1.02186 0
M  V30 44259 C 1165.07 2.41001 -1.21732 0
M  V30 44260 C 1164.94 1.36111 -0.27694 0
M  V30 44261 O 1164.92 1.42065 0.951767 0
M  V30 44262 N 1164.82 0.113683 -0.912949 0
M  V30 44263 C 1164.82 -0.0846396 -2.27943 0
M  V30 44264 N 1164.69 -1.34737 -2.6916 0
M  V30 44265 N 1164.95 0.902521 -3.16379 0
M  V30 44266 C 1165.07 2.11937 -2.56849 0
M  V30 44267 H 1168.05 6.54213 -5.71376 0
M  V30 44268 H 1168.32 5.30492 -4.44033 0
M  V30 44269 H 1167.46 4.55889 -6.76652 0
M  V30 44270 H 1164.8 2.6176 -5.18021 0
M  V30 44271 H 1164.52 5.52233 -4.41941 0
M  V30 44272 H 1163.53 4.52045 -5.53452 0
M  V30 44273 H 1165.36 6.25193 -6.55307 0
M  V30 44274 H 1165.41 5.3351 -2.43857 0
M  V30 44275 H 1164.73 -0.69331 -0.330371 0
M  V30 44276 H 1164.69 -1.56433 -3.6988 0
M  V30 44277 H 1164.59 -2.10701 -2.00133 0
M  V30 44278 P 1163.49 4.23843 -7.83734 0
M  V30 44279 O 1163.27 4.19407 -9.29784 0
M  V30 44280 O 1162.7 5.24426 -7.09156 0
M  V30 44281 O 1163.24 2.7935 -7.20758 0
M  V30 44282 C 1164.18 1.7299 -7.50419 0
M  V30 44283 C 1163.45 0.406376 -7.57911 0
M  V30 44284 O 1163.24 -0.0897726 -6.21935 0
M  V30 44285 C 1162.05 0.447224 -8.1878 0
M  V30 44286 O 1161.66 -0.825065 -8.71101 0
M  V30 44287 C 1161.17 0.783801 -6.99623 0
M  V30 44288 C 1161.88 0.0619192 -5.85967 0
M  V30 44289 N 1161.83 0.7859 -4.56281 0
M  V30 44290 H 1164.67 1.93423 -8.4679 0
M  V30 44291 H 1164.94 1.68181 -6.71046 0
M  V30 44292 H 1164.08 -0.289041 -8.15388 0
M  V30 44293 P 1160.11 -1.17771 -8.83182 0
M  V30 44294 O 1159.89 -2.07206 -9.98732 0
M  V30 44295 O 1159.32 0.0743816 -8.81969 0
M  V30 44296 O 1159.86 -1.97652 -7.47304 0
M  V30 44297 C 1160.8 -3.01133 -7.08783 0
M  V30 44298 C 1160.07 -4.12613 -6.37049 0
M  V30 44299 O 1159.86 -3.72827 -4.97879 0
M  V30 44300 C 1158.67 -4.45085 -6.88694 0
M  V30 44301 O 1158.28 -5.7877 -6.5624 0
M  V30 44302 C 1157.79 -3.47817 -6.12078 0
M  V30 44303 C 1158.5 -3.39414 -4.77697 0
M  V30 44304 N 1158.45 -2.04615 -4.15333 0
M  V30 44305 H 1161.29 -3.41248 -7.98759 0
M  V30 44306 H 1161.56 -2.5837 -6.41742 0
M  V30 44307 H 1160.7 -5.02657 -6.42673 0
M  V30 44308 P 1156.73 -6.144 -6.45285 0
M  V30 44309 O 1156.51 -7.54673 -6.86199 0
M  V30 44310 O 1155.94 -5.12391 -7.179 0
M  V30 44311 O 1156.48 -5.99158 -4.88404 0
M  V30 44312 C 1157.42 -6.60234 -3.96415 0
M  V30 44313 C 1156.69 -7.08259 -2.72856 0
M  V30 44314 O 1156.48 -5.9427 -1.83651 0
M  V30 44315 C 1155.29 -7.64886 -2.9555 0
M  V30 44316 O 1154.9 -8.53963 -1.90717 0
M  V30 44317 C 1154.41 -6.4116 -2.90739 0
M  V30 44318 C 1155.12 -5.55375 -1.86963 0
M  V30 44319 N 1155.07 -4.09664 -2.15742 0
M  V30 44320 H 1157.91 -7.45574 -4.45629 0
M  V30 44321 H 1158.18 -5.86232 -3.67314 0
M  V30 44322 H 1157.32 -7.84412 -2.24479 0
M  V30 44323 P 1153.35 -8.7635 -1.60911 0
M  V30 44324 O 1153.13 -10.1388 -1.11561 0
M  V30 44325 O 1152.56 -8.36503 -2.79617 0
M  V30 44326 O 1153.1 -7.71806 -0.42951 0
M  V30 44327 C 1154.04 -7.67148 0.673689 0
M  V30 44328 C 1153.31 -7.33374 1.95559 0
M  V30 44329 O 1153.1 -5.88721 2.00726 0
M  V30 44330 C 1151.91 -7.92526 2.10483 0
M  V30 44331 O 1151.52 -8.02971 3.47653 0
M  V30 44332 C 1151.03 -6.89602 1.41652 0
M  V30 44333 C 1151.74 -5.59201 1.75185 0
M  V30 44334 N 1151.69 -4.58235 0.662552 0
M  V30 44335 H 1154.53 -8.65116 0.777161 0
M  V30 44336 H 1154.8 -6.90173 0.474152 0
M  V30 44337 H 1153.94 -7.66548 2.79458 0
M  V30 44338 P 1149.97 -8.03563 3.84925 0
M  V30 44339 O 1149.75 -8.85821 5.0569 0
M  V30 44340 O 1149.18 -8.41101 2.65469 0
M  V30 44341 O 1149.72 -6.4965 4.18908 0
M  V30 44342 C 1150.66 -5.81037 5.05421 0
M  V30 44343 C 1149.93 -4.78366 5.89277 0
M  V30 44344 O 1149.72 -3.58302 5.08433 0
M  V30 44345 C 1148.53 -5.17448 6.36119 0
M  V30 44346 O 1148.14 -4.45271 7.53232 0
M  V30 44347 C 1147.65 -4.74639 5.19936 0
M  V30 44348 C 1148.36 -3.49432 4.70418 0
M  V30 44349 N 1148.31 -3.32099 3.22613 0
M  V30 44350 H 1151.15 -6.54213 5.71376 0
M  V30 44351 H 1151.42 -5.30936 4.43503 0
M  V30 44352 H 1150.56 -4.55889 6.76652 0
M  V30 44353 H 1147.9 -2.61715 5.17932 0
M  V30 44354 H 1147.62 -5.52155 4.41878 0
M  V30 44355 H 1146.63 -4.51981 5.53374 0
M  V30 44356 H 1148.46 -6.25124 6.55234 0
M  V30 44357 P 1146.59 -4.23843 7.83734 0
M  V30 44358 O 1146.37 -4.19407 9.29784 0
M  V30 44359 O 1145.8 -5.24426 7.09156 0
M  V30 44360 O 1146.34 -2.7935 7.20758 0
M  V30 44361 C 1147.28 -1.7299 7.50419 0
M  V30 44362 C 1146.55 -0.406376 7.57911 0
M  V30 44363 O 1146.34 0.0897726 6.21935 0
M  V30 44364 C 1145.15 -0.447224 8.1878 0
M  V30 44365 O 1144.76 0.825065 8.71101 0
M  V30 44366 C 1144.27 -0.783801 6.99623 0
M  V30 44367 C 1144.98 -0.0619192 5.85967 0
M  V30 44368 N 1144.93 -0.790462 4.56202 0
M  V30 44369 H 1147.77 -1.93423 8.4679 0
M  V30 44370 H 1148.04 -1.68852 6.70877 0
M  V30 44371 H 1147.18 0.289041 8.15388 0
M  V30 44372 H 1144.52 0.927006 5.72848 0
M  V30 44373 H 1144.24 -1.86973 6.82036 0
M  V30 44374 H 1143.25 -0.403953 7.13357 0
M  V30 44375 H 1145.08 -1.20599 8.97534 0
M  V30 44376 P 1143.21 1.17771 8.83182 0
M  V30 44377 O 1142.99 2.07206 9.98732 0
M  V30 44378 O 1142.42 -0.0743816 8.81969 0
M  V30 44379 O 1142.96 1.97652 7.47304 0
M  V30 44380 C 1143.9 3.01133 7.08783 0
M  V30 44381 C 1143.17 4.12613 6.37049 0
M  V30 44382 O 1142.96 3.72827 4.97879 0
M  V30 44383 C 1141.77 4.45085 6.88694 0
M  V30 44384 O 1141.38 5.7877 6.5624 0
M  V30 44385 C 1140.89 3.47817 6.12078 0
M  V30 44386 C 1141.6 3.39414 4.77697 0
M  V30 44387 N 1141.55 2.04199 4.15538 0
M  V30 44388 H 1144.39 3.41248 7.98759 0
M  V30 44389 H 1144.66 2.57728 6.42 0
M  V30 44390 H 1143.8 5.02657 6.42673 0
M  V30 44391 H 1141.14 4.11708 4.08956 0
M  V30 44392 H 1140.86 2.49626 6.61679 0
M  V30 44393 H 1139.87 3.8662 6.00862 0
M  V30 44394 H 1141.7 4.29991 7.97006 0
M  V30 44395 P 1139.83 6.144 6.45285 0
M  V30 44396 O 1139.61 7.54673 6.86199 0
M  V30 44397 O 1139.04 5.12391 7.179 0
M  V30 44398 O 1139.58 5.99158 4.88404 0
M  V30 44399 C 1140.52 6.60234 3.96415 0
M  V30 44400 C 1139.79 7.08259 2.72856 0
M  V30 44401 O 1139.58 5.9427 1.83651 0
M  V30 44402 C 1138.39 7.64886 2.9555 0
M  V30 44403 O 1138 8.53963 1.90717 0
M  V30 44404 C 1137.51 6.4116 2.90739 0
M  V30 44405 C 1138.22 5.55375 1.86963 0
M  V30 44406 N 1138.17 4.09448 2.16152 0
M  V30 44407 C 1138.25 3.46824 3.37593 0
M  V30 44408 N 1138.18 2.17422 3.29777 0
M  V30 44409 C 1138.03 1.93065 1.94427 0
M  V30 44410 C 1137.9 0.738053 1.20141 0
M  V30 44411 N 1137.89 -0.474256 1.74676 0
M  V30 44412 N 1137.78 0.850049 -0.13045 0
M  V30 44413 C 1137.79 2.06169 -0.676992 0
M  V30 44414 N 1137.91 3.23842 -0.101312 0
M  V30 44415 C 1138.03 3.09402 1.23122 0
M  V30 44416 H 1141.01 7.45574 4.45629 0
M  V30 44417 H 1141.28 5.85864 3.679 0
M  V30 44418 H 1140.42 7.84412 2.24479 0
M  V30 44419 H 1137.76 5.73457 0.888562 0
M  V30 44420 H 1137.48 5.90877 3.88583 0
M  V30 44421 H 1136.49 6.6596 2.58858 0
M  V30 44422 H 1138.32 8.16339 3.92049 0
M  V30 44423 H 1138.37 4.00505 4.3174 0
M  V30 44424 H 1137.98 -0.581337 2.76658 0
M  V30 44425 H 1137.8 -1.30811 1.14888 0
M  V30 44426 H 1137.69 2.08295 -1.75542 0
M  V30 44427 P 1136.45 8.7635 1.60911 0
M  V30 44428 O 1136.23 10.1388 1.11561 0
M  V30 44429 O 1135.66 8.36503 2.79617 0
M  V30 44430 O 1136.2 7.71906 0.429565 0
M  V30 44431 C 1137.14 7.67148 -0.673689 0
M  V30 44432 C 1136.41 7.33666 -1.94851 0
M  V30 44433 O 1136.2 5.88816 -2.00759 0
M  V30 44434 C 1135.01 7.92526 -2.10483 0
M  V30 44435 O 1134.62 8.03063 -3.47693 0
M  V30 44436 C 1134.13 6.89602 -1.41652 0
M  V30 44437 C 1134.84 5.59201 -1.75185 0
M  V30 44438 N 1134.79 4.58235 -0.662552 0
M  V30 44439 C 1134.64 3.24451 -1.01643 0
M  V30 44440 O 1134.55 2.94958 -2.21722 0
M  V30 44441 N 1134.59 2.30408 0.165238 0
M  V30 44442 C 1134.69 2.66048 1.25118 0
M  V30 44443 N 1134.64 1.70787 2.16813 0
M  V30 44444 C 1134.84 4.02732 1.64413 0
M  V30 44445 C 1134.89 4.9488 0.63991 0
M  V30 44446 H 1137.63 8.65017 -0.777072 0
M  V30 44447 H 1137.9 6.90173 -0.474152 0
M  V30 44448 H 1137.04 7.66642 -2.79492 0
M  V30 44449 H 1134.38 5.16254 -2.65229 0
M  V30 44450 H 1134.1 7.06532 -0.329431 0
M  V30 44451 H 1133.11 6.91023 -1.82047 0
M  V30 44452 H 1134.94 8.90873 -1.62657 0
M  V30 44453 H 1135.02 6.00104 0.892197 0
M  V30 44454 H 1134.91 4.31733 2.69229 0
M  V30 44455 H 1134.53 0.724835 1.8844 0
M  V30 44456 H 1134.72 1.94716 3.16734 0
M  V30 44457 P 1133.07 8.03563 -3.84925 0
M  V30 44458 O 1132.85 8.85821 -5.0569 0
M  V30 44459 O 1132.28 8.41101 -2.65469 0
M  V30 44460 O 1132.82 6.4965 -4.18908 0
M  V30 44461 C 1133.76 5.81037 -5.05421 0
M  V30 44462 C 1133.03 4.78366 -5.89277 0
M  V30 44463 O 1132.82 3.58302 -5.08433 0
M  V30 44464 C 1131.63 5.17448 -6.36119 0
M  V30 44465 O 1131.24 4.45271 -7.53232 0
M  V30 44466 C 1130.75 4.74639 -5.19936 0
M  V30 44467 C 1131.46 3.49432 -4.70418 0
M  V30 44468 N 1131.41 3.31776 -3.22945 0
M  V30 44469 H 1134.25 6.54213 -5.71376 0
M  V30 44470 H 1134.52 5.30492 -4.44033 0
M  V30 44471 H 1133.66 4.55889 -6.76652 0
M  V30 44472 P 1129.69 4.23843 -7.83734 0
M  V30 44473 O 1129.47 4.19407 -9.29784 0
M  V30 44474 O 1128.9 5.24426 -7.09156 0
M  V30 44475 O 1129.44 2.7935 -7.20758 0
M  V30 44476 C 1130.38 1.72945 -7.50224 0
M  V30 44477 C 1129.65 0.406376 -7.57911 0
M  V30 44478 O 1129.44 -0.0897726 -6.21935 0
M  V30 44479 C 1128.25 0.438983 -8.18724 0
M  V30 44480 O 1127.86 -0.825065 -8.71101 0
M  V30 44481 C 1127.37 0.783689 -6.99524 0
M  V30 44482 C 1128.08 0.0619086 -5.85867 0
M  V30 44483 N 1128.03 0.78573 -4.56183 0
M  V30 44484 C 1127.88 0.0292889 -3.41887 0
M  V30 44485 O 1127.79 -1.18445 -3.4419 0
M  V30 44486 N 1127.84 0.744061 -2.23964 0
M  V30 44487 C 1127.93 2.10932 -2.10362 0
M  V30 44488 O 1127.88 2.64117 -0.98825 0
M  V30 44489 C 1128.08 2.8202 -3.34994 0
M  V30 44490 C 1128.19 4.31095 -3.25037 0
M  V30 44491 C 1128.13 2.15547 -4.52261 0
M  V30 44492 H 1130.87 1.93379 -8.46595 0
M  V30 44493 H 1131.14 1.68132 -6.70852 0
M  V30 44494 H 1130.28 -0.289041 -8.15388 0
M  V30 44495 H 1127.62 -0.926847 -5.72749 0
M  V30 44496 H 1127.34 1.86973 -6.82036 0
M  V30 44497 H 1126.35 0.403896 -7.13257 0
M  V30 44498 H 1128.18 1.20585 -8.97435 0
M  V30 44499 H 1128.26 2.71231 -5.45042 0
M  V30 44500 H 1127.23 4.76966 -3.49992 0
M  V30 44501 H 1128.96 4.67047 -3.95024 0
M  V30 44502 H 1128.47 4.58996 -2.22312 0
M  V30 44503 H 1127.74 0.214893 -1.39758 0
M  V30 44504 P 1126.31 -1.17771 -8.83182 0
M  V30 44505 O 1126.09 -2.07206 -9.98732 0
M  V30 44506 O 1125.52 0.0743816 -8.81969 0
M  V30 44507 O 1126.06 -1.97652 -7.47304 0
M  V30 44508 C 1127 -3.01133 -7.08783 0
M  V30 44509 C 1126.27 -4.12613 -6.37049 0
M  V30 44510 O 1126.06 -3.72827 -4.97879 0
M  V30 44511 C 1124.87 -4.45085 -6.88694 0
M  V30 44512 O 1124.48 -5.7877 -6.5624 0
M  V30 44513 C 1123.99 -3.47817 -6.12078 0
M  V30 44514 C 1124.7 -3.39414 -4.77697 0
M  V30 44515 N 1124.65 -2.04615 -4.15333 0
M  V30 44516 H 1127.49 -3.41248 -7.98759 0
M  V30 44517 H 1127.76 -2.5837 -6.41742 0
M  V30 44518 H 1126.9 -5.02657 -6.42673 0
M  V30 44519 P 1122.93 -6.144 -6.45285 0
M  V30 44520 O 1122.71 -7.54673 -6.86199 0
M  V30 44521 O 1122.14 -5.12391 -7.179 0
M  V30 44522 O 1122.68 -5.99158 -4.88404 0
M  V30 44523 C 1123.62 -6.60234 -3.96415 0
M  V30 44524 C 1122.89 -7.08259 -2.72856 0
M  V30 44525 O 1122.68 -5.9427 -1.83651 0
M  V30 44526 C 1121.49 -7.64886 -2.9555 0
M  V30 44527 O 1121.1 -8.53963 -1.90717 0
M  V30 44528 C 1120.61 -6.4116 -2.90739 0
M  V30 44529 C 1121.32 -5.55375 -1.86963 0
M  V30 44530 N 1121.27 -4.09664 -2.15742 0
M  V30 44531 H 1124.11 -7.45574 -4.45629 0
M  V30 44532 H 1124.38 -5.86232 -3.67314 0
M  V30 44533 H 1123.52 -7.84412 -2.24479 0
M  V30 44534 P 1119.55 -8.7635 -1.60911 0
M  V30 44535 O 1119.33 -10.1388 -1.11561 0
M  V30 44536 O 1118.76 -8.36503 -2.79617 0
M  V30 44537 O 1119.3 -7.71806 -0.42951 0
M  V30 44538 C 1120.24 -7.66948 0.673514 0
M  V30 44539 C 1119.51 -7.33374 1.95559 0
M  V30 44540 O 1119.3 -5.88721 2.00726 0
M  V30 44541 C 1118.11 -7.92218 2.1125 0
M  V30 44542 O 1117.72 -8.02971 3.47653 0
M  V30 44543 C 1117.23 -6.89504 1.41631 0
M  V30 44544 C 1117.94 -5.59106 1.75155 0
M  V30 44545 N 1117.89 -4.58136 0.662409 0
M  V30 44546 C 1117.74 -3.26059 1.02863 0
M  V30 44547 O 1117.65 -2.90743 2.19009 0
M  V30 44548 N 1117.7 -2.35995 -0.0155585 0
M  V30 44549 C 1117.79 -2.65248 -1.35603 0
M  V30 44550 O 1117.74 -1.75605 -2.20651 0
M  V30 44551 C 1117.94 -4.05747 -1.64698 0
M  V30 44552 C 1118.05 -4.42345 -3.09553 0
M  V30 44553 C 1117.99 -4.96734 -0.652411 0
M  V30 44554 H 1120.73 -8.64917 0.776982 0
M  V30 44555 H 1121 -6.89974 0.474015 0
M  V30 44556 H 1120.14 -7.66548 2.79458 0
M  V30 44557 H 1117.48 -5.16076 2.65138 0
M  V30 44558 H 1117.2 -7.06433 0.329384 0
M  V30 44559 H 1116.21 -6.90829 1.81996 0
M  V30 44560 H 1118.04 -8.90774 1.62639 0
M  V30 44561 H 1118.12 -6.02181 -0.895285 0
M  V30 44562 H 1117.09 -4.80252 -3.45468 0
M  V30 44563 H 1118.82 -5.20015 -3.22119 0
M  V30 44564 H 1118.33 -3.53269 -3.67833 0
M  V30 44565 H 1117.6 -1.39558 0.227499 0
M  V30 44566 P 1116.17 -8.03563 3.84925 0
M  V30 44567 O 1115.95 -8.85821 5.0569 0
M  V30 44568 O 1115.38 -8.41101 2.65469 0
M  V30 44569 O 1115.92 -6.4965 4.18908 0
M  V30 44570 C 1116.86 -5.80886 5.05289 0
M  V30 44571 C 1116.13 -4.78366 5.89277 0
M  V30 44572 O 1115.92 -3.58302 5.08433 0
M  V30 44573 C 1114.73 -5.16748 6.36559 0
M  V30 44574 O 1114.34 -4.45271 7.53232 0
M  V30 44575 C 1113.85 -4.74572 5.19863 0
M  V30 44576 C 1114.56 -3.49373 4.70338 0
M  V30 44577 N 1114.51 -3.31704 3.22876 0
M  V30 44578 C 1114.36 -2.03326 2.74871 0
M  V30 44579 O 1114.27 -1.06486 3.48076 0
M  V30 44580 N 1114.32 -1.91838 1.37456 0
M  V30 44581 C 1114.41 -2.94295 0.462035 0
M  V30 44582 C 1114.56 -4.25064 1.05249 0
M  V30 44583 C 1114.61 -4.40214 2.39192 0
M  V30 44584 H 1117.35 -6.54063 5.71245 0
M  V30 44585 H 1117.62 -5.30339 4.43905 0
M  V30 44586 H 1116.76 -4.55889 6.76652 0
M  V30 44587 H 1114.1 -2.6167 5.17842 0
M  V30 44588 H 1113.82 -5.52155 4.41878 0
M  V30 44589 H 1112.83 -4.51918 5.53297 0
M  V30 44590 H 1114.66 -6.25055 6.55162 0
M  V30 44591 H 1114.74 -5.39798 2.81523 0
M  V30 44592 P 1112.79 -4.23843 7.83734 0
M  V30 44593 O 1112.57 -4.19407 9.29784 0
M  V30 44594 O 1112 -5.24426 7.09156 0
M  V30 44595 O 1112.54 -2.7935 7.20758 0
M  V30 44596 C 1113.48 -1.7299 7.50419 0
M  V30 44597 C 1112.75 -0.406376 7.57911 0
M  V30 44598 O 1112.54 0.0897726 6.21935 0
M  V30 44599 C 1111.35 -0.447224 8.1878 0
M  V30 44600 O 1110.96 0.825065 8.71101 0
M  V30 44601 C 1110.47 -0.783801 6.99623 0
M  V30 44602 C 1111.18 -0.0619192 5.85967 0
M  V30 44603 N 1111.13 -0.7859 4.56281 0
M  V30 44604 H 1113.97 -1.93423 8.4679 0
M  V30 44605 H 1114.24 -1.68181 6.71046 0
M  V30 44606 H 1113.38 0.289041 8.15388 0
M  V30 44607 P 1109.41 1.17771 8.83182 0
M  V30 44608 O 1109.19 2.07206 9.98732 0
M  V30 44609 O 1108.62 -0.0743816 8.81969 0
M  V30 44610 O 1109.16 1.97652 7.47304 0
M  V30 44611 C 1110.1 3.01133 7.08783 0
M  V30 44612 C 1109.37 4.12613 6.37049 0
M  V30 44613 O 1109.16 3.72827 4.97879 0
M  V30 44614 C 1107.97 4.45085 6.88694 0
M  V30 44615 O 1107.58 5.7877 6.5624 0
M  V30 44616 C 1107.09 3.47817 6.12078 0
M  V30 44617 C 1107.8 3.39414 4.77697 0
M  V30 44618 N 1107.75 2.04615 4.15333 0
M  V30 44619 H 1110.59 3.41248 7.98759 0
M  V30 44620 H 1110.86 2.5837 6.41742 0
M  V30 44621 H 1110 5.02657 6.42673 0
M  V30 44622 P 1106.03 6.144 6.45285 0
M  V30 44623 O 1105.81 7.54673 6.86199 0
M  V30 44624 O 1105.24 5.12391 7.179 0
M  V30 44625 O 1105.78 5.99158 4.88404 0
M  V30 44626 C 1106.72 6.60062 3.96313 0
M  V30 44627 C 1105.99 7.08259 2.72856 0
M  V30 44628 O 1105.78 5.9427 1.83651 0
M  V30 44629 C 1104.59 7.65087 2.94749 0
M  V30 44630 O 1104.2 8.53963 1.90717 0
M  V30 44631 C 1103.71 6.41069 2.90698 0
M  V30 44632 C 1104.42 5.5528 1.86931 0
M  V30 44633 N 1104.37 4.09575 2.15696 0
M  V30 44634 C 1104.22 3.24249 1.08435 0
M  V30 44635 O 1104.13 3.63946 -0.0628747 0
M  V30 44636 N 1104.18 1.90009 1.39973 0
M  V30 44637 C 1104.27 1.34884 2.65614 0
M  V30 44638 O 1104.22 0.123716 2.81728 0
M  V30 44639 C 1104.42 2.3145 3.71736 0
M  V30 44640 C 1104.53 1.75913 5.10438 0
M  V30 44641 C 1104.47 3.63518 3.44754 0
M  V30 44642 H 1107.21 7.45402 4.45526 0
M  V30 44643 H 1107.48 5.86062 3.67208 0
M  V30 44644 H 1106.62 7.84412 2.24479 0
M  V30 44645 H 1103.96 5.73358 0.888409 0
M  V30 44646 H 1103.68 5.90877 3.88583 0
M  V30 44647 H 1102.69 6.65867 2.58821 0
M  V30 44648 H 1104.52 8.16248 3.92006 0
M  V30 44649 H 1104.6 4.34551 4.26383 0
M  V30 44650 H 1103.57 1.85471 5.61775 0
M  V30 44651 H 1105.3 2.31364 5.66257 0
M  V30 44652 H 1104.81 0.695936 5.05229 0
M  V30 44653 H 1104.08 1.26277 0.63625 0
M  V30 44654 P 1102.65 8.7635 1.60911 0
M  V30 44655 O 1102.43 10.1388 1.11561 0
M  V30 44656 O 1101.86 8.36503 2.79617 0
M  V30 44657 O 1102.4 7.71806 0.42951 0
M  V30 44658 C 1103.34 7.67148 -0.673689 0
M  V30 44659 C 1102.61 7.33374 -1.95559 0
M  V30 44660 O 1102.4 5.88721 -2.00726 0
M  V30 44661 C 1101.21 7.92526 -2.10483 0
M  V30 44662 O 1100.82 8.02971 -3.47653 0
M  V30 44663 C 1100.33 6.89602 -1.41652 0
M  V30 44664 C 1101.04 5.59201 -1.75185 0
M  V30 44665 N 1100.99 4.58235 -0.662552 0
M  V30 44666 H 1103.83 8.65116 -0.777161 0
M  V30 44667 H 1104.1 6.90173 -0.474152 0
M  V30 44668 H 1103.24 7.66548 -2.79458 0
M  V30 44669 P 1099.27 8.03563 -3.84925 0
M  V30 44670 O 1099.05 8.85821 -5.0569 0
M  V30 44671 O 1098.48 8.41101 -2.65469 0
M  V30 44672 O 1099.02 6.4965 -4.18908 0
M  V30 44673 C 1099.96 5.81037 -5.05421 0
M  V30 44674 C 1099.23 4.78366 -5.89277 0
M  V30 44675 O 1099.02 3.58302 -5.08433 0
M  V30 44676 C 1097.83 5.17448 -6.36119 0
M  V30 44677 O 1097.44 4.45271 -7.53232 0
M  V30 44678 C 1096.95 4.74639 -5.19936 0
M  V30 44679 C 1097.66 3.49432 -4.70418 0
M  V30 44680 N 1097.61 3.32099 -3.22613 0
M  V30 44681 C 1097.69 4.28245 -2.25527 0
M  V30 44682 N 1097.62 3.80823 -1.04874 0
M  V30 44683 C 1097.47 2.44571 -1.23535 0
M  V30 44684 C 1097.34 1.37068 -0.330675 0
M  V30 44685 N 1097.33 1.51472 0.990824 0
M  V30 44686 N 1097.22 0.138614 -0.848756 0
M  V30 44687 C 1097.23 -0.00675923 -2.16999 0
M  V30 44688 N 1097.35 0.904372 -3.11122 0
M  V30 44689 C 1097.47 2.12707 -2.56212 0
M  V30 44690 H 1100.45 6.54213 -5.71376 0
M  V30 44691 H 1100.72 5.30936 -4.43503 0
M  V30 44692 H 1099.86 4.55889 -6.76652 0
M  V30 44693 H 1097.2 2.61715 -5.17932 0
M  V30 44694 H 1096.92 5.52155 -4.41878 0
M  V30 44695 H 1095.93 4.51981 -5.53374 0
M  V30 44696 H 1097.76 6.25124 -6.55234 0
M  V30 44697 H 1097.81 5.34372 -2.47488 0
M  V30 44698 H 1097.42 2.45153 1.4078 0
M  V30 44699 H 1097.24 0.688422 1.59911 0
M  V30 44700 H 1097.13 -1.02584 -2.52346 0
M  V30 44701 P 1095.89 4.23843 -7.83734 0
M  V30 44702 O 1095.67 4.19407 -9.29784 0
M  V30 44703 O 1095.1 5.24426 -7.09156 0
M  V30 44704 O 1095.64 2.7935 -7.20758 0
M  V30 44705 C 1096.58 1.7299 -7.50419 0
M  V30 44706 C 1095.85 0.406376 -7.57911 0
M  V30 44707 O 1095.64 -0.0897726 -6.21935 0
M  V30 44708 C 1094.45 0.447224 -8.1878 0
M  V30 44709 O 1094.06 -0.825065 -8.71101 0
M  V30 44710 C 1093.57 0.783801 -6.99623 0
M  V30 44711 C 1094.28 0.0619192 -5.85967 0
M  V30 44712 N 1094.23 0.7859 -4.56281 0
M  V30 44713 H 1097.07 1.93423 -8.4679 0
M  V30 44714 H 1097.34 1.68181 -6.71046 0
M  V30 44715 H 1096.48 -0.289041 -8.15388 0
M  V30 44716 P 1092.51 -1.17771 -8.83182 0
M  V30 44717 O 1092.29 -2.07206 -9.98732 0
M  V30 44718 O 1091.72 0.0743816 -8.81969 0
M  V30 44719 O 1092.26 -1.97652 -7.47304 0
M  V30 44720 C 1093.2 -3.01133 -7.08783 0
M  V30 44721 C 1092.47 -4.12613 -6.37049 0
M  V30 44722 O 1092.26 -3.72827 -4.97879 0
M  V30 44723 C 1091.07 -4.45085 -6.88694 0
M  V30 44724 O 1090.68 -5.7877 -6.5624 0
M  V30 44725 C 1090.19 -3.47817 -6.12078 0
M  V30 44726 C 1090.9 -3.39414 -4.77697 0
M  V30 44727 N 1090.85 -2.04615 -4.15333 0
M  V30 44728 H 1093.69 -3.41248 -7.98759 0
M  V30 44729 H 1093.96 -2.5837 -6.41742 0
M  V30 44730 H 1093.1 -5.02657 -6.42673 0
M  V30 44731 P 1089.13 -6.144 -6.45285 0
M  V30 44732 O 1088.91 -7.54673 -6.86199 0
M  V30 44733 O 1088.34 -5.12391 -7.179 0
M  V30 44734 O 1088.88 -5.99158 -4.88404 0
M  V30 44735 C 1089.82 -6.60062 -3.96313 0
M  V30 44736 C 1089.09 -7.08259 -2.72856 0
M  V30 44737 O 1088.88 -5.9427 -1.83651 0
M  V30 44738 C 1087.69 -7.65087 -2.94749 0
M  V30 44739 O 1087.3 -8.53963 -1.90717 0
M  V30 44740 C 1086.81 -6.41069 -2.90698 0
M  V30 44741 C 1087.52 -5.5528 -1.86931 0
M  V30 44742 N 1087.47 -4.09575 -2.15696 0
M  V30 44743 C 1087.32 -3.24249 -1.08435 0
M  V30 44744 O 1087.23 -3.63946 0.0628747 0
M  V30 44745 N 1087.28 -1.90009 -1.39973 0
M  V30 44746 C 1087.37 -1.34884 -2.65614 0
M  V30 44747 C 1087.52 -2.3145 -3.71736 0
M  V30 44748 C 1087.57 -3.63518 -3.44754 0
M  V30 44749 H 1090.31 -7.45402 -4.45526 0
M  V30 44750 H 1090.58 -5.86062 -3.67208 0
M  V30 44751 H 1089.72 -7.84412 -2.24479 0
M  V30 44752 H 1087.06 -5.73358 -0.888409 0
M  V30 44753 H 1086.78 -5.90877 -3.88583 0
M  V30 44754 H 1085.79 -6.65867 -2.58821 0
M  V30 44755 H 1087.62 -8.16248 -3.92006 0
M  V30 44756 H 1087.7 -4.34551 -4.26383 0
M  V30 44757 P 1085.75 -8.7635 -1.60911 0
M  V30 44758 O 1085.53 -10.1388 -1.11561 0
M  V30 44759 O 1084.96 -8.36503 -2.79617 0
M  V30 44760 O 1085.5 -7.71906 -0.429565 0
M  V30 44761 C 1086.44 -7.67148 0.673689 0
M  V30 44762 C 1085.71 -7.33666 1.94851 0
M  V30 44763 O 1085.5 -5.88816 2.00759 0
M  V30 44764 C 1084.31 -7.92526 2.10483 0
M  V30 44765 O 1083.92 -8.03063 3.47693 0
M  V30 44766 C 1083.43 -6.89602 1.41652 0
M  V30 44767 C 1084.14 -5.59201 1.75185 0
M  V30 44768 N 1084.09 -4.58235 0.662552 0
M  V30 44769 C 1083.94 -3.24451 1.01643 0
M  V30 44770 O 1083.85 -2.94958 2.21722 0
M  V30 44771 N 1083.89 -2.30408 -0.165238 0
M  V30 44772 C 1083.99 -2.66048 -1.25118 0
M  V30 44773 N 1083.94 -1.70787 -2.16813 0
M  V30 44774 C 1084.14 -4.02732 -1.64413 0
M  V30 44775 C 1084.19 -4.9488 -0.63991 0
M  V30 44776 H 1086.93 -8.65017 0.777072 0
M  V30 44777 H 1087.2 -6.90173 0.474152 0
M  V30 44778 H 1086.34 -7.66642 2.79492 0
M  V30 44779 H 1083.68 -5.16254 2.65229 0
M  V30 44780 H 1083.4 -7.06532 0.329431 0
M  V30 44781 H 1082.41 -6.91023 1.82047 0
M  V30 44782 H 1084.24 -8.90873 1.62657 0
M  V30 44783 H 1084.32 -6.00104 -0.892197 0
M  V30 44784 H 1084.21 -4.31733 -2.69229 0
M  V30 44785 H 1083.83 -0.724835 -1.8844 0
M  V30 44786 H 1084.02 -1.94716 -3.16734 0
M  V30 44787 P 1082.37 -8.03563 3.84925 0
M  V30 44788 O 1082.15 -8.85821 5.0569 0
M  V30 44789 O 1081.58 -8.41101 2.65469 0
M  V30 44790 O 1082.12 -6.4965 4.18908 0
M  V30 44791 C 1083.06 -5.81037 5.05421 0
M  V30 44792 C 1082.33 -4.78366 5.89277 0
M  V30 44793 O 1082.12 -3.58302 5.08433 0
M  V30 44794 C 1080.93 -5.17448 6.36119 0
M  V30 44795 O 1080.54 -4.45271 7.53232 0
M  V30 44796 C 1080.05 -4.74639 5.19936 0
M  V30 44797 C 1080.76 -3.49432 4.70418 0
M  V30 44798 N 1080.71 -3.31776 3.22945 0
M  V30 44799 H 1083.55 -6.54213 5.71376 0
M  V30 44800 H 1083.82 -5.30492 4.44033 0
M  V30 44801 H 1082.96 -4.55889 6.76652 0
M  V30 44802 P 1078.99 -4.23843 7.83734 0
M  V30 44803 O 1078.77 -4.19407 9.29784 0
M  V30 44804 O 1078.2 -5.24426 7.09156 0
M  V30 44805 O 1078.74 -2.7935 7.20758 0
M  V30 44806 C 1079.68 -1.7299 7.50419 0
M  V30 44807 C 1078.95 -0.406376 7.57911 0
M  V30 44808 O 1078.74 0.0897726 6.21935 0
M  V30 44809 C 1077.55 -0.447224 8.1878 0
M  V30 44810 O 1077.16 0.825065 8.71101 0
M  V30 44811 C 1076.67 -0.783801 6.99623 0
M  V30 44812 C 1077.38 -0.0619192 5.85967 0
M  V30 44813 N 1077.33 -0.790462 4.56202 0
M  V30 44814 H 1080.17 -1.93423 8.4679 0
M  V30 44815 H 1080.44 -1.68852 6.70877 0
M  V30 44816 H 1079.58 0.289041 8.15388 0
M  V30 44817 H 1076.92 0.927006 5.72848 0
M  V30 44818 H 1076.64 -1.86973 6.82036 0
M  V30 44819 H 1075.65 -0.403953 7.13357 0
M  V30 44820 H 1077.48 -1.20599 8.97534 0
M  V30 44821 P 1075.61 1.17771 8.83182 0
M  V30 44822 O 1075.39 2.07206 9.98732 0
M  V30 44823 O 1074.82 -0.0743816 8.81969 0
M  V30 44824 O 1075.36 1.97652 7.47304 0
M  V30 44825 C 1076.3 3.01133 7.08783 0
M  V30 44826 C 1075.57 4.12613 6.37049 0
M  V30 44827 O 1075.36 3.72827 4.97879 0
M  V30 44828 C 1074.17 4.45085 6.88694 0
M  V30 44829 O 1073.78 5.7877 6.5624 0
M  V30 44830 C 1073.29 3.47817 6.12078 0
M  V30 44831 C 1074 3.39414 4.77697 0
M  V30 44832 N 1073.95 2.04615 4.15333 0
M  V30 44833 H 1076.79 3.41248 7.98759 0
M  V30 44834 H 1077.06 2.5837 6.41742 0
M  V30 44835 H 1076.2 5.02657 6.42673 0
M  V30 44836 P 1072.23 6.144 6.45285 0
M  V30 44837 O 1072.01 7.54673 6.86199 0
M  V30 44838 O 1071.44 5.12391 7.179 0
M  V30 44839 O 1071.98 5.99158 4.88404 0
M  V30 44840 C 1072.92 6.60062 3.96313 0
M  V30 44841 C 1072.19 7.08259 2.72856 0
M  V30 44842 O 1071.98 5.9427 1.83651 0
M  V30 44843 C 1070.79 7.65087 2.94749 0
M  V30 44844 O 1070.4 8.53963 1.90717 0
M  V30 44845 C 1069.91 6.41069 2.90698 0
M  V30 44846 C 1070.62 5.5528 1.86931 0
M  V30 44847 N 1070.57 4.09575 2.15696 0
M  V30 44848 C 1070.42 3.24249 1.08435 0
M  V30 44849 O 1070.33 3.63946 -0.0628747 0
M  V30 44850 N 1070.38 1.90009 1.39973 0
M  V30 44851 C 1070.47 1.34884 2.65614 0
M  V30 44852 C 1070.62 2.3145 3.71736 0
M  V30 44853 C 1070.67 3.63518 3.44754 0
M  V30 44854 H 1073.41 7.45402 4.45526 0
M  V30 44855 H 1073.68 5.86062 3.67208 0
M  V30 44856 H 1072.82 7.84412 2.24479 0
M  V30 44857 H 1070.16 5.73358 0.888409 0
M  V30 44858 H 1069.88 5.90877 3.88583 0
M  V30 44859 H 1068.89 6.65867 2.58821 0
M  V30 44860 H 1070.72 8.16248 3.92006 0
M  V30 44861 H 1070.8 4.34551 4.26383 0
M  V30 44862 P 1068.85 8.7635 1.60911 0
M  V30 44863 O 1068.63 10.1388 1.11561 0
M  V30 44864 O 1068.06 8.36503 2.79617 0
M  V30 44865 O 1068.6 7.71806 0.42951 0
M  V30 44866 C 1069.54 7.67148 -0.673689 0
M  V30 44867 C 1068.81 7.33374 -1.95559 0
M  V30 44868 O 1068.6 5.88721 -2.00726 0
M  V30 44869 C 1067.41 7.92526 -2.10483 0
M  V30 44870 O 1067.02 8.02971 -3.47653 0
M  V30 44871 C 1066.53 6.89602 -1.41652 0
M  V30 44872 C 1067.24 5.59201 -1.75185 0
M  V30 44873 N 1067.19 4.58235 -0.662552 0
M  V30 44874 C 1067.27 4.7683 0.704049 0
M  V30 44875 N 1067.19 3.66233 1.39775 0
M  V30 44876 C 1067.05 2.66526 0.431739 0
M  V30 44877 C 1066.92 1.26394 0.575992 0
M  V30 44878 N 1066.8 0.62859 -0.67177 0
M  V30 44879 C 1066.8 1.27134 -1.89385 0
M  V30 44880 N 1066.67 0.492035 -2.96951 0
M  V30 44881 N 1066.93 2.58978 -2.02907 0
M  V30 44882 C 1067.05 3.22433 -0.832218 0
M  V30 44883 H 1070.03 8.65116 -0.777161 0
M  V30 44884 H 1070.3 6.90173 -0.474152 0
M  V30 44885 H 1069.44 7.66548 -2.79458 0
M  V30 44886 P 1065.47 8.03563 -3.84925 0
M  V30 44887 O 1065.25 8.85821 -5.0569 0
M  V30 44888 O 1064.68 8.41101 -2.65469 0
M  V30 44889 O 1065.22 6.4965 -4.18908 0
M  V30 44890 C 1066.16 5.81037 -5.05421 0
M  V30 44891 C 1065.43 4.78366 -5.89277 0
M  V30 44892 O 1065.22 3.58302 -5.08433 0
M  V30 44893 C 1064.03 5.17448 -6.36119 0
M  V30 44894 O 1063.64 4.45271 -7.53232 0
M  V30 44895 C 1063.15 4.74639 -5.19936 0
M  V30 44896 C 1063.86 3.49432 -4.70418 0
M  V30 44897 N 1063.81 3.31776 -3.22945 0
M  V30 44898 H 1066.65 6.54213 -5.71376 0
M  V30 44899 H 1066.92 5.30492 -4.44033 0
M  V30 44900 H 1066.06 4.55889 -6.76652 0
M  V30 44901 P 1062.09 4.23843 -7.83734 0
M  V30 44902 O 1061.87 4.19407 -9.29784 0
M  V30 44903 O 1061.3 5.24426 -7.09156 0
M  V30 44904 O 1061.84 2.79386 -7.20852 0
M  V30 44905 C 1062.78 1.7299 -7.50419 0
M  V30 44906 C 1062.05 0.41401 -7.5797 0
M  V30 44907 O 1061.84 -0.089787 -6.22035 0
M  V30 44908 C 1060.65 0.447224 -8.1878 0
M  V30 44909 O 1060.26 -0.825159 -8.71201 0
M  V30 44910 C 1059.77 0.783801 -6.99623 0
M  V30 44911 C 1060.48 0.0619192 -5.85967 0
M  V30 44912 N 1060.43 0.7859 -4.56281 0
M  V30 44913 C 1060.28 0.0359258 -3.39981 0
M  V30 44914 O 1060.19 -1.19723 -3.49038 0
M  V30 44915 N 1060.23 0.869151 -2.14025 0
M  V30 44916 C 1060.33 2.01207 -2.14363 0
M  V30 44917 N 1060.28 2.58978 -0.954287 0
M  V30 44918 C 1060.48 2.80817 -3.32215 0
M  V30 44919 C 1060.53 2.13785 -4.50884 0
M  V30 44920 H 1063.27 1.93401 -8.46693 0
M  V30 44921 H 1063.54 1.68181 -6.71046 0
M  V30 44922 H 1062.68 -0.289076 -8.15488 0
M  V30 44923 H 1060.02 -0.927166 -5.72947 0
M  V30 44924 H 1059.74 1.87 -6.82132 0
M  V30 44925 H 1058.75 0.404009 -7.13457 0
M  V30 44926 H 1060.58 1.20599 -8.97534 0
M  V30 44927 H 1060.66 2.70295 -5.43162 0
M  V30 44928 H 1060.55 3.89465 -3.27406 0
M  V30 44929 H 1060.17 2.01616 -0.107046 0
M  V30 44930 H 1060.36 3.61403 -0.873101 0
M  V30 44931 P 1058.71 -1.17771 -8.83182 0
M  V30 44932 O 1058.49 -2.07206 -9.98732 0
M  V30 44933 O 1057.92 0.0743816 -8.81969 0
M  V30 44934 O 1058.46 -1.97652 -7.47304 0
M  V30 44935 C 1059.4 -3.01133 -7.08783 0
M  V30 44936 C 1058.67 -4.12613 -6.37049 0
M  V30 44937 O 1058.46 -3.72827 -4.97879 0
M  V30 44938 C 1057.27 -4.45085 -6.88694 0
M  V30 44939 O 1056.88 -5.7877 -6.5624 0
M  V30 44940 C 1056.39 -3.47817 -6.12078 0
M  V30 44941 C 1057.1 -3.39414 -4.77697 0
M  V30 44942 N 1057.05 -2.04615 -4.15333 0
M  V30 44943 H 1059.89 -3.41248 -7.98759 0
M  V30 44944 H 1060.16 -2.5837 -6.41742 0
M  V30 44945 H 1059.3 -5.02657 -6.42673 0
M  V30 44946 P 1055.33 -6.144 -6.45285 0
M  V30 44947 O 1055.11 -7.54673 -6.86199 0
M  V30 44948 O 1054.54 -5.12391 -7.179 0
M  V30 44949 O 1055.08 -5.99158 -4.88404 0
M  V30 44950 C 1056.02 -6.60234 -3.96415 0
M  V30 44951 C 1055.29 -7.08259 -2.72856 0
M  V30 44952 O 1055.08 -5.9427 -1.83651 0
M  V30 44953 C 1053.89 -7.64886 -2.9555 0
M  V30 44954 O 1053.5 -8.53963 -1.90717 0
M  V30 44955 C 1053.01 -6.4116 -2.90739 0
M  V30 44956 C 1053.72 -5.55375 -1.86963 0
M  V30 44957 N 1053.67 -4.09448 -2.16152 0
M  V30 44958 C 1053.75 -3.46824 -3.37593 0
M  V30 44959 N 1053.68 -2.17422 -3.29777 0
M  V30 44960 C 1053.53 -1.93065 -1.94427 0
M  V30 44961 C 1053.4 -0.738053 -1.20141 0
M  V30 44962 N 1053.39 0.474256 -1.74676 0
M  V30 44963 N 1053.28 -0.850049 0.13045 0
M  V30 44964 C 1053.29 -2.06169 0.676992 0
M  V30 44965 N 1053.41 -3.23842 0.101312 0
M  V30 44966 C 1053.53 -3.09402 -1.23122 0
M  V30 44967 H 1056.51 -7.45574 -4.45629 0
M  V30 44968 H 1056.78 -5.85864 -3.679 0
M  V30 44969 H 1055.92 -7.84412 -2.24479 0
M  V30 44970 H 1053.26 -5.73457 -0.888562 0
M  V30 44971 H 1052.98 -5.90877 -3.88583 0
M  V30 44972 H 1051.99 -6.6596 -2.58858 0
M  V30 44973 H 1053.82 -8.16339 -3.92049 0
M  V30 44974 H 1053.87 -4.00505 -4.3174 0
M  V30 44975 H 1053.48 0.581337 -2.76658 0
M  V30 44976 H 1053.3 1.30811 -1.14888 0
M  V30 44977 H 1053.19 -2.08295 1.75542 0
M  V30 44978 P 1051.95 -8.7635 -1.60911 0
M  V30 44979 O 1051.73 -10.1388 -1.11561 0
M  V30 44980 O 1051.16 -8.36503 -2.79617 0
M  V30 44981 O 1051.7 -7.71806 -0.42951 0
M  V30 44982 C 1052.64 -7.67148 0.673689 0
M  V30 44983 C 1051.91 -7.33374 1.95559 0
M  V30 44984 O 1051.7 -5.88721 2.00726 0
M  V30 44985 C 1050.51 -7.92526 2.10483 0
M  V30 44986 O 1050.12 -8.02971 3.47653 0
M  V30 44987 C 1049.63 -6.89602 1.41652 0
M  V30 44988 C 1050.34 -5.59201 1.75185 0
M  V30 44989 N 1050.29 -4.58235 0.662552 0
M  V30 44990 H 1053.13 -8.65116 0.777161 0
M  V30 44991 H 1053.4 -6.90173 0.474152 0
M  V30 44992 H 1052.54 -7.66548 2.79458 0
M  V30 44993 P 1048.57 -8.03563 3.84925 0
M  V30 44994 O 1048.35 -8.85821 5.0569 0
M  V30 44995 O 1047.78 -8.41101 2.65469 0
M  V30 44996 O 1048.32 -6.4965 4.18908 0
M  V30 44997 C 1049.26 -5.81037 5.05421 0
M  V30 44998 C 1048.53 -4.78366 5.89277 0
M  V30 44999 O 1048.32 -3.58302 5.08433 0
M  V30 45000 C 1047.13 -5.17448 6.36119 0
M  V30 45001 O 1046.74 -4.45271 7.53232 0
M  V30 45002 C 1046.25 -4.74639 5.19936 0
M  V30 45003 C 1046.96 -3.49432 4.70418 0
M  V30 45004 N 1046.91 -3.31776 3.22945 0
M  V30 45005 H 1049.75 -6.54213 5.71376 0
M  V30 45006 H 1050.02 -5.30492 4.44033 0
M  V30 45007 H 1049.16 -4.55889 6.76652 0
M  V30 45008 P 1045.19 -4.23843 7.83734 0
M  V30 45009 O 1044.97 -4.19407 9.29784 0
M  V30 45010 O 1044.4 -5.24426 7.09156 0
M  V30 45011 O 1044.94 -2.79386 7.20852 0
M  V30 45012 C 1045.88 -1.7299 7.50419 0
M  V30 45013 C 1045.15 -0.41401 7.5797 0
M  V30 45014 O 1044.94 0.089787 6.22035 0
M  V30 45015 C 1043.75 -0.447224 8.1878 0
M  V30 45016 O 1043.36 0.825159 8.71201 0
M  V30 45017 C 1042.87 -0.783801 6.99623 0
M  V30 45018 C 1043.58 -0.0619192 5.85967 0
M  V30 45019 N 1043.53 -0.7859 4.56281 0
M  V30 45020 C 1043.38 -0.0359258 3.39981 0
M  V30 45021 O 1043.29 1.19723 3.49038 0
M  V30 45022 N 1043.33 -0.869151 2.14025 0
M  V30 45023 C 1043.43 -2.01207 2.14363 0
M  V30 45024 N 1043.38 -2.58978 0.954287 0
M  V30 45025 C 1043.58 -2.80817 3.32215 0
M  V30 45026 C 1043.63 -2.13785 4.50884 0
M  V30 45027 H 1046.37 -1.93401 8.46693 0
M  V30 45028 H 1046.64 -1.68181 6.71046 0
M  V30 45029 H 1045.78 0.289076 8.15488 0
M  V30 45030 H 1043.12 0.927166 5.72947 0
M  V30 45031 H 1042.84 -1.87 6.82132 0
M  V30 45032 H 1041.85 -0.404009 7.13457 0
M  V30 45033 H 1043.68 -1.20599 8.97534 0
M  V30 45034 H 1043.76 -2.70295 5.43162 0
M  V30 45035 H 1043.65 -3.89465 3.27406 0
M  V30 45036 H 1043.27 -2.01616 0.107046 0
M  V30 45037 H 1043.46 -3.61403 0.873101 0
M  V30 45038 P 1041.81 1.17771 8.83182 0
M  V30 45039 O 1041.59 2.07206 9.98732 0
M  V30 45040 O 1041.02 -0.0743816 8.81969 0
M  V30 45041 O 1041.56 1.97652 7.47304 0
M  V30 45042 C 1042.5 3.01133 7.08783 0
M  V30 45043 C 1041.77 4.12613 6.37049 0
M  V30 45044 O 1041.56 3.72827 4.97879 0
M  V30 45045 C 1040.37 4.45085 6.88694 0
M  V30 45046 O 1039.98 5.7877 6.5624 0
M  V30 45047 C 1039.49 3.47817 6.12078 0
M  V30 45048 C 1040.2 3.39414 4.77697 0
M  V30 45049 N 1040.15 2.04615 4.15333 0
M  V30 45050 H 1042.99 3.41248 7.98759 0
M  V30 45051 H 1043.26 2.5837 6.41742 0
M  V30 45052 H 1042.4 5.02657 6.42673 0
M  V30 45053 P 1038.43 6.144 6.45285 0
M  V30 45054 O 1038.21 7.54673 6.86199 0
M  V30 45055 O 1037.64 5.12391 7.179 0
M  V30 45056 O 1038.18 5.99158 4.88404 0
M  V30 45057 C 1039.12 6.60234 3.96415 0
M  V30 45058 C 1038.39 7.08259 2.72856 0
M  V30 45059 O 1038.18 5.9427 1.83651 0
M  V30 45060 C 1036.99 7.64886 2.9555 0
M  V30 45061 O 1036.6 8.53963 1.90717 0
M  V30 45062 C 1036.11 6.4116 2.90739 0
M  V30 45063 C 1036.82 5.55375 1.86963 0
M  V30 45064 N 1036.77 4.09664 2.15742 0
M  V30 45065 H 1039.61 7.45574 4.45629 0
M  V30 45066 H 1039.88 5.86232 3.67314 0
M  V30 45067 H 1039.02 7.84412 2.24479 0
M  V30 45068 P 1035.05 8.7635 1.60911 0
M  V30 45069 O 1034.83 10.1388 1.11561 0
M  V30 45070 O 1034.26 8.36503 2.79617 0
M  V30 45071 O 1034.8 7.71806 0.42951 0
M  V30 45072 C 1035.74 7.67148 -0.673689 0
M  V30 45073 C 1035.01 7.33374 -1.95559 0
M  V30 45074 O 1034.8 5.88721 -2.00726 0
M  V30 45075 C 1033.61 7.92526 -2.10483 0
M  V30 45076 O 1033.22 8.02971 -3.47653 0
M  V30 45077 C 1032.73 6.89602 -1.41652 0
M  V30 45078 C 1033.44 5.59201 -1.75185 0
M  V30 45079 N 1033.39 4.58301 -0.657969 0
M  V30 45080 H 1036.23 8.65116 -0.777161 0
M  V30 45081 H 1036.5 6.9022 -0.46725 0
M  V30 45082 H 1035.64 7.66548 -2.79458 0
M  V30 45083 H 1032.98 5.16165 -2.65183 0
M  V30 45084 H 1032.7 7.06433 -0.329384 0
M  V30 45085 H 1031.71 6.90926 -1.82021 0
M  V30 45086 H 1033.54 8.90873 -1.62657 0
M  V30 45087 P 1031.67 8.03563 -3.84925 0
M  V30 45088 O 1031.45 8.85821 -5.0569 0
M  V30 45089 O 1030.88 8.41101 -2.65469 0
M  V30 45090 O 1031.42 6.4965 -4.18908 0
M  V30 45091 C 1032.36 5.81037 -5.05421 0
M  V30 45092 C 1031.63 4.78366 -5.89277 0
M  V30 45093 O 1031.42 3.58302 -5.08433 0
M  V30 45094 C 1030.23 5.17448 -6.36119 0
M  V30 45095 O 1029.84 4.45271 -7.53232 0
M  V30 45096 C 1029.35 4.74639 -5.19936 0
M  V30 45097 C 1030.06 3.49432 -4.70418 0
M  V30 45098 N 1030.01 3.31776 -3.22945 0
M  V30 45099 H 1032.85 6.54213 -5.71376 0
M  V30 45100 H 1033.12 5.30492 -4.44033 0
M  V30 45101 H 1032.26 4.55889 -6.76652 0
M  V30 45102 P 1028.29 4.23843 -7.83734 0
M  V30 45103 O 1028.07 4.19407 -9.29784 0
M  V30 45104 O 1027.5 5.24426 -7.09156 0
M  V30 45105 O 1028.04 2.7935 -7.20758 0
M  V30 45106 C 1028.98 1.7299 -7.50419 0
M  V30 45107 C 1028.25 0.406376 -7.57911 0
M  V30 45108 O 1028.04 -0.0897726 -6.21935 0
M  V30 45109 C 1026.85 0.447224 -8.1878 0
M  V30 45110 O 1026.46 -0.825065 -8.71101 0
M  V30 45111 C 1025.97 0.783801 -6.99623 0
M  V30 45112 C 1026.68 0.0619192 -5.85967 0
M  V30 45113 N 1026.63 0.7859 -4.56281 0
M  V30 45114 H 1029.47 1.93423 -8.4679 0
M  V30 45115 H 1029.74 1.68181 -6.71046 0
M  V30 45116 H 1028.88 -0.289041 -8.15388 0
M  V30 45117 P 1024.91 -1.17771 -8.83182 0
M  V30 45118 O 1024.69 -2.07206 -9.98732 0
M  V30 45119 O 1024.12 0.0743816 -8.81969 0
M  V30 45120 O 1024.66 -1.97652 -7.47304 0
M  V30 45121 C 1025.6 -3.01133 -7.08783 0
M  V30 45122 C 1024.87 -4.12613 -6.37049 0
M  V30 45123 O 1024.66 -3.72827 -4.97879 0
M  V30 45124 C 1023.47 -4.45085 -6.88694 0
M  V30 45125 O 1023.08 -5.7877 -6.5624 0
M  V30 45126 C 1022.59 -3.47817 -6.12078 0
M  V30 45127 C 1023.3 -3.39414 -4.77697 0
M  V30 45128 N 1023.25 -2.04615 -4.15333 0
M  V30 45129 H 1026.09 -3.41248 -7.98759 0
M  V30 45130 H 1026.36 -2.5837 -6.41742 0
M  V30 45131 H 1025.5 -5.02657 -6.42673 0
M  V30 45132 P 1021.53 -6.144 -6.45285 0
M  V30 45133 O 1021.31 -7.54673 -6.86199 0
M  V30 45134 O 1020.74 -5.12391 -7.179 0
M  V30 45135 O 1021.28 -5.99158 -4.88404 0
M  V30 45136 C 1022.22 -6.60062 -3.96313 0
M  V30 45137 C 1021.49 -7.08259 -2.72856 0
M  V30 45138 O 1021.28 -5.9427 -1.83651 0
M  V30 45139 C 1020.09 -7.65087 -2.94749 0
M  V30 45140 O 1019.7 -8.53963 -1.90717 0
M  V30 45141 C 1019.21 -6.41069 -2.90698 0
M  V30 45142 C 1019.92 -5.5528 -1.86931 0
M  V30 45143 N 1019.87 -4.09575 -2.15696 0
M  V30 45144 C 1019.72 -3.24249 -1.08435 0
M  V30 45145 O 1019.63 -3.63946 0.0628747 0
M  V30 45146 N 1019.68 -1.90009 -1.39973 0
M  V30 45147 C 1019.77 -1.34884 -2.65614 0
M  V30 45148 C 1019.92 -2.3145 -3.71736 0
M  V30 45149 C 1019.97 -3.63518 -3.44754 0
M  V30 45150 H 1022.71 -7.45402 -4.45526 0
M  V30 45151 H 1022.98 -5.86062 -3.67208 0
M  V30 45152 H 1022.12 -7.84412 -2.24479 0
M  V30 45153 H 1019.46 -5.73358 -0.888409 0
M  V30 45154 H 1019.18 -5.90877 -3.88583 0
M  V30 45155 H 1018.19 -6.65867 -2.58821 0
M  V30 45156 H 1020.02 -8.16248 -3.92006 0
M  V30 45157 H 1020.1 -4.34551 -4.26383 0
M  V30 45158 P 1018.15 -8.7635 -1.60911 0
M  V30 45159 O 1017.93 -10.1388 -1.11561 0
M  V30 45160 O 1017.36 -8.36503 -2.79617 0
M  V30 45161 O 1017.9 -7.71806 -0.42951 0
M  V30 45162 C 1018.84 -7.67148 0.673689 0
M  V30 45163 C 1018.11 -7.33374 1.95559 0
M  V30 45164 O 1017.9 -5.88721 2.00726 0
M  V30 45165 C 1016.71 -7.92526 2.10483 0
M  V30 45166 O 1016.32 -8.02971 3.47653 0
M  V30 45167 C 1015.83 -6.89602 1.41652 0
M  V30 45168 C 1016.54 -5.59201 1.75185 0
M  V30 45169 N 1016.49 -4.58301 0.657969 0
M  V30 45170 C 1016.57 -4.79019 -0.692603 0
M  V30 45171 N 1016.5 -3.69736 -1.38998 0
M  V30 45172 C 1016.35 -2.70474 -0.438135 0
M  V30 45173 C 1016.22 -1.30327 -0.538142 0
M  V30 45174 N 1016.21 -0.64304 -1.69192 0
M  V30 45175 N 1016.1 -0.611027 0.605183 0
M  V30 45176 C 1016.11 -1.27002 1.75953 0
M  V30 45177 N 1016.23 -2.56038 1.98546 0
M  V30 45178 C 1016.35 -3.22681 0.822541 0
M  V30 45179 H 1019.33 -8.65116 0.777161 0
M  V30 45180 H 1019.61 -6.9022 0.46725 0
M  V30 45181 H 1018.74 -7.66548 2.79458 0
M  V30 45182 H 1016.08 -5.16165 2.65183 0
M  V30 45183 H 1015.8 -7.06433 0.329384 0
M  V30 45184 H 1014.81 -6.90926 1.82021 0
M  V30 45185 H 1016.65 -8.90873 1.62657 0
M  V30 45186 H 1016.69 -5.77785 -1.13874 0
M  V30 45187 H 1016.31 -1.15585 -2.57991 0
M  V30 45188 H 1016.12 0.382989 -1.69835 0
M  V30 45189 H 1016.01 -0.653331 2.64449 0
M  V30 45190 P 1014.77 -8.03563 3.84925 0
M  V30 45191 O 1014.55 -8.85821 5.0569 0
M  V30 45192 O 1013.98 -8.41101 2.65469 0
M  V30 45193 O 1014.52 -6.4965 4.18908 0
M  V30 45194 C 1015.46 -5.81037 5.05421 0
M  V30 45195 C 1014.73 -4.78366 5.89277 0
M  V30 45196 O 1014.52 -3.58302 5.08433 0
M  V30 45197 C 1013.33 -5.17448 6.36119 0
M  V30 45198 O 1012.94 -4.45271 7.53232 0
M  V30 45199 C 1012.45 -4.74639 5.19936 0
M  V30 45200 C 1013.16 -3.49432 4.70418 0
M  V30 45201 N 1013.11 -3.32099 3.22613 0
M  V30 45202 C 1013.19 -4.28245 2.25527 0
M  V30 45203 N 1013.12 -3.80823 1.04874 0
M  V30 45204 C 1012.97 -2.44571 1.23535 0
M  V30 45205 C 1012.84 -1.37068 0.330675 0
M  V30 45206 N 1012.83 -1.51472 -0.990824 0
M  V30 45207 N 1012.72 -0.138614 0.848756 0
M  V30 45208 C 1012.73 0.00675923 2.16999 0
M  V30 45209 N 1012.85 -0.904372 3.11122 0
M  V30 45210 C 1012.97 -2.12707 2.56212 0
M  V30 45211 H 1015.95 -6.54213 5.71376 0
M  V30 45212 H 1016.23 -5.30936 4.43503 0
M  V30 45213 H 1015.36 -4.55889 6.76652 0
M  V30 45214 H 1012.7 -2.61715 5.17932 0
M  V30 45215 H 1012.42 -5.52155 4.41878 0
M  V30 45216 H 1011.43 -4.51981 5.53374 0
M  V30 45217 H 1013.27 -6.25124 6.55234 0
M  V30 45218 H 1013.31 -5.34372 2.47488 0
M  V30 45219 H 1012.93 -2.45153 -1.4078 0
M  V30 45220 H 1012.74 -0.688422 -1.59911 0
M  V30 45221 H 1012.63 1.02584 2.52346 0
M  V30 45222 P 1011.39 -4.23843 7.83734 0
M  V30 45223 O 1011.17 -4.19407 9.29784 0
M  V30 45224 O 1010.6 -5.24426 7.09156 0
M  V30 45225 O 1011.14 -2.7935 7.20758 0
M  V30 45226 C 1012.08 -1.72945 7.50224 0
M  V30 45227 C 1011.35 -0.406376 7.57911 0
M  V30 45228 O 1011.14 0.0897726 6.21935 0
M  V30 45229 C 1009.95 -0.438983 8.18724 0
M  V30 45230 O 1009.56 0.825065 8.71101 0
M  V30 45231 C 1009.07 -0.783689 6.99524 0
M  V30 45232 C 1009.78 -0.0619086 5.85867 0
M  V30 45233 N 1009.73 -0.78573 4.56183 0
M  V30 45234 C 1009.58 -0.0292889 3.41887 0
M  V30 45235 O 1009.49 1.18445 3.4419 0
M  V30 45236 N 1009.54 -0.744061 2.23964 0
M  V30 45237 C 1009.63 -2.10932 2.10362 0
M  V30 45238 O 1009.58 -2.64117 0.98825 0
M  V30 45239 C 1009.78 -2.8202 3.34994 0
M  V30 45240 C 1009.89 -4.31095 3.25037 0
M  V30 45241 C 1009.83 -2.15547 4.52261 0
M  V30 45242 H 1012.58 -1.93379 8.46595 0
M  V30 45243 H 1012.84 -1.68132 6.70852 0
M  V30 45244 H 1011.98 0.289041 8.15388 0
M  V30 45245 H 1009.32 0.926847 5.72749 0
M  V30 45246 H 1009.04 -1.86973 6.82036 0
M  V30 45247 H 1008.05 -0.403896 7.13257 0
M  V30 45248 H 1009.89 -1.20585 8.97435 0
M  V30 45249 H 1009.96 -2.71231 5.45042 0
M  V30 45250 H 1008.93 -4.76966 3.49992 0
M  V30 45251 H 1010.66 -4.67047 3.95024 0
M  V30 45252 H 1010.18 -4.58996 2.22312 0
M  V30 45253 H 1009.44 -0.214893 1.39758 0
M  V30 45254 P 1008.01 1.17771 8.83182 0
M  V30 45255 O 1007.79 2.07206 9.98732 0
M  V30 45256 O 1007.22 -0.0743816 8.81969 0
M  V30 45257 O 1007.76 1.97652 7.47304 0
M  V30 45258 C 1008.7 3.01133 7.08783 0
M  V30 45259 C 1007.97 4.12613 6.37049 0
M  V30 45260 O 1007.76 3.72827 4.97879 0
M  V30 45261 C 1006.57 4.45085 6.88694 0
M  V30 45262 O 1006.18 5.7877 6.5624 0
M  V30 45263 C 1005.69 3.47817 6.12078 0
M  V30 45264 C 1006.4 3.39414 4.77697 0
M  V30 45265 N 1006.35 2.04199 4.15538 0
M  V30 45266 H 1009.19 3.41248 7.98759 0
M  V30 45267 H 1009.47 2.57728 6.42 0
M  V30 45268 H 1008.6 5.02657 6.42673 0
M  V30 45269 H 1005.94 4.11708 4.08956 0
M  V30 45270 H 1005.66 2.49626 6.61679 0
M  V30 45271 H 1004.67 3.8662 6.00862 0
M  V30 45272 H 1006.51 4.29991 7.97006 0
M  V30 45273 P 1004.63 6.144 6.45285 0
M  V30 45274 O 1004.41 7.54673 6.86199 0
M  V30 45275 O 1003.84 5.12391 7.179 0
M  V30 45276 O 1004.38 5.99158 4.88404 0
M  V30 45277 C 1005.32 6.60234 3.96415 0
M  V30 45278 C 1004.59 7.08259 2.72856 0
M  V30 45279 O 1004.38 5.9427 1.83651 0
M  V30 45280 C 1003.19 7.64886 2.9555 0
M  V30 45281 O 1002.8 8.53963 1.90717 0
M  V30 45282 C 1002.31 6.4116 2.90739 0
M  V30 45283 C 1003.02 5.55375 1.86963 0
M  V30 45284 N 1002.97 4.09664 2.15742 0
M  V30 45285 H 1005.81 7.45574 4.45629 0
M  V30 45286 H 1006.09 5.86232 3.67314 0
M  V30 45287 H 1005.22 7.84412 2.24479 0
M  V30 45288 P 1001.25 8.7635 1.60911 0
M  V30 45289 O 1001.03 10.1388 1.11561 0
M  V30 45290 O 1000.46 8.36503 2.79617 0
M  V30 45291 O 1001 7.71906 0.429565 0
M  V30 45292 C 1001.94 7.67148 -0.673689 0
M  V30 45293 C 1001.21 7.33666 -1.94851 0
M  V30 45294 O 1001 5.88816 -2.00759 0
M  V30 45295 C 999.814 7.92526 -2.10483 0
M  V30 45296 O 999.424 8.03063 -3.47693 0
M  V30 45297 C 998.934 6.89602 -1.41652 0
M  V30 45298 C 999.644 5.59201 -1.75185 0
M  V30 45299 N 999.594 4.58235 -0.662552 0
M  V30 45300 C 999.444 3.24451 -1.01643 0
M  V30 45301 O 999.354 2.94958 -2.21722 0
M  V30 45302 N 999.394 2.30408 0.165238 0
M  V30 45303 C 999.494 2.66048 1.25118 0
M  V30 45304 N 999.444 1.70787 2.16813 0
M  V30 45305 C 999.644 4.02732 1.64413 0
M  V30 45306 C 999.694 4.9488 0.63991 0
M  V30 45307 H 1002.43 8.65017 -0.777072 0
M  V30 45308 H 1002.7 6.90173 -0.474152 0
M  V30 45309 H 1001.84 7.66642 -2.79492 0
M  V30 45310 H 999.182 5.16254 -2.65229 0
M  V30 45311 H 998.902 7.06532 -0.329431 0
M  V30 45312 H 997.911 6.91023 -1.82047 0
M  V30 45313 H 999.745 8.90873 -1.62657 0
M  V30 45314 H 999.817 6.00104 0.892197 0
M  V30 45315 H 999.715 4.31733 2.69229 0
M  V30 45316 H 999.327 0.724835 1.8844 0
M  V30 45317 H 999.523 1.94716 3.16734 0
M  V30 45318 P 997.874 8.03563 -3.84925 0
M  V30 45319 O 997.654 8.85821 -5.0569 0
M  V30 45320 O 997.084 8.41101 -2.65469 0
M  V30 45321 O 997.624 6.49734 -4.18962 0
M  V30 45322 C 998.564 5.81037 -5.05421 0
M  V30 45323 C 997.834 4.79018 -5.88876 0
M  V30 45324 O 997.624 3.58359 -5.08515 0
M  V30 45325 C 996.434 5.17448 -6.36119 0
M  V30 45326 O 996.044 4.45322 -7.53318 0
M  V30 45327 C 995.554 4.74639 -5.19936 0
M  V30 45328 C 996.264 3.49432 -4.70418 0
M  V30 45329 N 996.214 3.31776 -3.22945 0
M  V30 45330 C 996.064 2.02742 -2.72939 0
M  V30 45331 O 995.974 1.08301 -3.52749 0
M  V30 45332 N 996.014 1.96117 -1.22063 0
M  V30 45333 C 996.114 2.8878 -0.551566 0
M  V30 45334 N 996.064 2.65609 0.750198 0
M  V30 45335 C 996.264 4.22457 -1.03707 0
M  V30 45336 C 996.314 4.37979 -2.39113 0
M  V30 45337 H 999.054 6.54138 -5.7131 0
M  V30 45338 H 999.324 5.30492 -4.44033 0
M  V30 45339 H 998.457 4.55945 -6.76735 0
M  V30 45340 H 995.802 2.6176 -5.18021 0
M  V30 45341 H 995.522 5.52233 -4.41941 0
M  V30 45342 H 994.531 4.52045 -5.53452 0
M  V30 45343 H 996.365 6.25124 -6.55234 0
M  V30 45344 H 996.437 5.37936 -2.80552 0
M  V30 45345 H 996.335 5.07528 -0.359553 0
M  V30 45346 H 995.947 1.69403 1.09847 0
M  V30 45347 H 996.143 3.43701 1.41792 0
M  V30 45348 P 994.494 4.23843 -7.83734 0
M  V30 45349 O 994.274 4.19407 -9.29784 0
M  V30 45350 O 993.704 5.24426 -7.09156 0
M  V30 45351 O 994.244 2.7935 -7.20758 0
M  V30 45352 C 995.184 1.7299 -7.50419 0
M  V30 45353 C 994.454 0.406376 -7.57911 0
M  V30 45354 O 994.244 -0.0897726 -6.21935 0
M  V30 45355 C 993.054 0.447224 -8.1878 0
M  V30 45356 O 992.664 -0.825065 -8.71101 0
M  V30 45357 C 992.174 0.783801 -6.99623 0
M  V30 45358 C 992.884 0.0619192 -5.85967 0
M  V30 45359 N 992.834 0.7859 -4.56281 0
M  V30 45360 H 995.673 1.93423 -8.4679 0
M  V30 45361 H 995.945 1.68181 -6.71046 0
M  V30 45362 H 995.077 -0.289041 -8.15388 0
M  V30 45363 P 991.114 -1.17771 -8.83182 0
M  V30 45364 O 990.894 -2.07206 -9.98732 0
M  V30 45365 O 990.324 0.0743816 -8.81969 0
M  V30 45366 O 990.864 -1.97652 -7.47304 0
M  V30 45367 C 991.804 -3.01133 -7.08783 0
M  V30 45368 C 991.074 -4.12613 -6.37049 0
M  V30 45369 O 990.864 -3.72827 -4.97879 0
M  V30 45370 C 989.674 -4.45085 -6.88694 0
M  V30 45371 O 989.284 -5.7877 -6.5624 0
M  V30 45372 C 988.794 -3.47817 -6.12078 0
M  V30 45373 C 989.504 -3.39414 -4.77697 0
M  V30 45374 N 989.454 -2.04615 -4.15333 0
M  V30 45375 C 989.534 -0.803897 -4.75249 0
M  V30 45376 N 989.454 0.197615 -3.91502 0
M  V30 45377 C 989.314 -0.413002 -2.66823 0
M  V30 45378 C 989.184 0.157221 -1.38007 0
M  V30 45379 N 989.064 -0.833136 -0.390236 0
M  V30 45380 C 989.064 -2.19402 -0.623885 0
M  V30 45381 N 988.934 -2.97622 0.449677 0
M  V30 45382 N 989.194 -2.73005 -1.83601 0
M  V30 45383 C 989.314 -1.78786 -2.80935 0
M  V30 45384 H 992.293 -3.41248 -7.98759 0
M  V30 45385 H 992.565 -2.5837 -6.41742 0
M  V30 45386 H 991.697 -5.02657 -6.42673 0
M  V30 45387 P 987.734 -6.144 -6.45285 0
M  V30 45388 O 987.514 -7.54673 -6.86199 0
M  V30 45389 O 986.944 -5.12391 -7.179 0
M  V30 45390 O 987.484 -5.99158 -4.88404 0
M  V30 45391 C 988.424 -6.60234 -3.96415 0
M  V30 45392 C 987.694 -7.08259 -2.72856 0
M  V30 45393 O 987.484 -5.9427 -1.83651 0
M  V30 45394 C 986.294 -7.64886 -2.9555 0
M  V30 45395 O 985.904 -8.53963 -1.90717 0
M  V30 45396 C 985.414 -6.4116 -2.90739 0
M  V30 45397 C 986.124 -5.55375 -1.86963 0
M  V30 45398 N 986.074 -4.09448 -2.16152 0
M  V30 45399 H 988.913 -7.45574 -4.45629 0
M  V30 45400 H 989.185 -5.85864 -3.679 0
M  V30 45401 H 988.317 -7.84412 -2.24479 0
M  V30 45402 H 985.662 -5.73457 -0.888562 0
M  V30 45403 H 985.382 -5.90877 -3.88583 0
M  V30 45404 H 984.391 -6.6596 -2.58858 0
M  V30 45405 H 986.225 -8.16339 -3.92049 0
M  V30 45406 P 984.354 -8.7635 -1.60911 0
M  V30 45407 O 984.134 -10.1388 -1.11561 0
M  V30 45408 O 983.564 -8.36503 -2.79617 0
M  V30 45409 O 984.104 -7.71806 -0.42951 0
M  V30 45410 C 985.044 -7.67148 0.673689 0
M  V30 45411 C 984.314 -7.33374 1.95559 0
M  V30 45412 O 984.104 -5.88721 2.00726 0
M  V30 45413 C 982.914 -7.92526 2.10483 0
M  V30 45414 O 982.524 -8.02971 3.47653 0
M  V30 45415 C 982.034 -6.89602 1.41652 0
M  V30 45416 C 982.744 -5.59201 1.75185 0
M  V30 45417 N 982.694 -4.58301 0.657969 0
M  V30 45418 H 985.533 -8.65116 0.777161 0
M  V30 45419 H 985.805 -6.9022 0.46725 0
M  V30 45420 H 984.937 -7.66548 2.79458 0
M  V30 45421 H 982.282 -5.16165 2.65183 0
M  V30 45422 H 982.002 -7.06433 0.329384 0
M  V30 45423 H 981.011 -6.90926 1.82021 0
M  V30 45424 H 982.845 -8.90873 1.62657 0
M  V30 45425 P 980.974 -8.03563 3.84925 0
M  V30 45426 O 980.754 -8.85821 5.0569 0
M  V30 45427 O 980.184 -8.41101 2.65469 0
M  V30 45428 O 980.724 -6.4965 4.18908 0
M  V30 45429 C 981.664 -5.81037 5.05421 0
M  V30 45430 C 980.934 -4.78366 5.89277 0
M  V30 45431 O 980.724 -3.58302 5.08433 0
M  V30 45432 C 979.534 -5.17448 6.36119 0
M  V30 45433 O 979.144 -4.45271 7.53232 0
M  V30 45434 C 978.654 -4.74639 5.19936 0
M  V30 45435 C 979.364 -3.49432 4.70418 0
M  V30 45436 N 979.314 -3.31776 3.22945 0
M  V30 45437 H 982.153 -6.54213 5.71376 0
M  V30 45438 H 982.425 -5.30492 4.44033 0
M  V30 45439 H 981.557 -4.55889 6.76652 0
M  V30 45440 P 977.594 -4.23843 7.83734 0
M  V30 45441 O 977.374 -4.19407 9.29784 0
M  V30 45442 O 976.804 -5.24426 7.09156 0
M  V30 45443 O 977.344 -2.7935 7.20758 0
M  V30 45444 C 978.284 -1.72945 7.50224 0
M  V30 45445 C 977.554 -0.406376 7.57911 0
M  V30 45446 O 977.344 0.0897726 6.21935 0
M  V30 45447 C 976.154 -0.438983 8.18724 0
M  V30 45448 O 975.764 0.825065 8.71101 0
M  V30 45449 C 975.274 -0.783689 6.99524 0
M  V30 45450 C 975.984 -0.0619086 5.85867 0
M  V30 45451 N 975.934 -0.78573 4.56183 0
M  V30 45452 C 975.784 -0.0292889 3.41887 0
M  V30 45453 O 975.694 1.18445 3.4419 0
M  V30 45454 N 975.744 -0.744061 2.23964 0
M  V30 45455 C 975.834 -2.10932 2.10362 0
M  V30 45456 O 975.784 -2.64117 0.98825 0
M  V30 45457 C 975.984 -2.8202 3.34994 0
M  V30 45458 C 976.094 -4.31095 3.25037 0
M  V30 45459 C 976.034 -2.15547 4.52261 0
M  V30 45460 H 978.775 -1.93379 8.46595 0
M  V30 45461 H 979.044 -1.68132 6.70852 0
M  V30 45462 H 978.177 0.289041 8.15388 0
M  V30 45463 H 975.522 0.926847 5.72749 0
M  V30 45464 H 975.243 -1.86973 6.82036 0
M  V30 45465 H 974.251 -0.403896 7.13257 0
M  V30 45466 H 976.085 -1.20585 8.97435 0
M  V30 45467 H 976.156 -2.71231 5.45042 0
M  V30 45468 H 975.126 -4.76966 3.49992 0
M  V30 45469 H 976.863 -4.67047 3.95024 0
M  V30 45470 H 976.375 -4.58996 2.22312 0
M  V30 45471 H 975.639 -0.214893 1.39758 0
M  V30 45472 P 974.214 1.17771 8.83182 0
M  V30 45473 O 973.994 2.07206 9.98732 0
M  V30 45474 O 973.424 -0.0743816 8.81969 0
M  V30 45475 O 973.964 1.97652 7.47304 0
M  V30 45476 C 974.904 3.01133 7.08783 0
M  V30 45477 C 974.174 4.12613 6.37049 0
M  V30 45478 O 973.964 3.72827 4.97879 0
M  V30 45479 C 972.774 4.45085 6.88694 0
M  V30 45480 O 972.384 5.7877 6.5624 0
M  V30 45481 C 971.894 3.47817 6.12078 0
M  V30 45482 C 972.604 3.39414 4.77697 0
M  V30 45483 N 972.554 2.04615 4.15333 0
M  V30 45484 H 975.393 3.41248 7.98759 0
M  V30 45485 H 975.665 2.5837 6.41742 0
M  V30 45486 H 974.797 5.02657 6.42673 0
M  V30 45487 P 970.834 6.144 6.45285 0
M  V30 45488 O 970.614 7.54673 6.86199 0
M  V30 45489 O 970.044 5.12391 7.179 0
M  V30 45490 O 970.584 5.99158 4.88404 0
M  V30 45491 C 971.524 6.60234 3.96415 0
M  V30 45492 C 970.794 7.08259 2.72856 0
M  V30 45493 O 970.584 5.9427 1.83651 0
M  V30 45494 C 969.394 7.64886 2.9555 0
M  V30 45495 O 969.004 8.53963 1.90717 0
M  V30 45496 C 968.514 6.4116 2.90739 0
M  V30 45497 C 969.224 5.55375 1.86963 0
M  V30 45498 N 969.174 4.09664 2.15742 0
M  V30 45499 C 969.254 3.44381 3.37233 0
M  V30 45500 N 969.174 2.14131 3.28347 0
M  V30 45501 C 969.034 1.90247 1.91588 0
M  V30 45502 C 968.904 0.683992 1.20892 0
M  V30 45503 O 968.884 -0.46618 1.64523 0
M  V30 45504 N 968.784 0.903396 -0.173998 0
M  V30 45505 C 968.784 2.14171 -0.784879 0
M  V30 45506 N 968.654 2.1435 -2.11317 0
M  V30 45507 N 968.914 3.28784 -0.119316 0
M  V30 45508 C 969.034 3.0977 1.22194 0
M  V30 45509 H 972.013 7.45574 4.45629 0
M  V30 45510 H 972.285 5.86232 3.67314 0
M  V30 45511 H 971.417 7.84412 2.24479 0
M  V30 45512 H 968.762 5.73556 0.888715 0
M  V30 45513 H 968.482 5.9096 3.88638 0
M  V30 45514 H 967.491 6.66053 2.58894 0
M  V30 45515 H 969.325 8.16429 3.92093 0
M  V30 45516 H 969.374 3.96785 4.32043 0
M  V30 45517 H 968.692 0.0999567 -0.761467 0
M  V30 45518 H 968.655 3.03436 -2.63076 0
M  V30 45519 H 968.554 1.25228 -2.62233 0
M  V30 45520 P 967.454 8.7635 1.60911 0
M  V30 45521 O 967.234 10.1388 1.11561 0
M  V30 45522 O 966.664 8.36503 2.79617 0
M  V30 45523 O 967.204 7.71806 0.42951 0
M  V30 45524 C 968.144 7.67148 -0.673689 0
M  V30 45525 C 967.414 7.33374 -1.95559 0
M  V30 45526 O 967.204 5.88721 -2.00726 0
M  V30 45527 C 966.014 7.92526 -2.10483 0
M  V30 45528 O 965.624 8.02971 -3.47653 0
M  V30 45529 C 965.134 6.89602 -1.41652 0
M  V30 45530 C 965.844 5.59201 -1.75185 0
M  V30 45531 N 965.794 4.58235 -0.662552 0
M  V30 45532 H 968.633 8.65116 -0.777161 0
M  V30 45533 H 968.905 6.90173 -0.474152 0
M  V30 45534 H 968.037 7.66548 -2.79458 0
M  V30 45535 P 964.074 8.03563 -3.84925 0
M  V30 45536 O 963.854 8.85821 -5.0569 0
M  V30 45537 O 963.284 8.41101 -2.65469 0
M  V30 45538 O 963.824 6.4965 -4.18908 0
M  V30 45539 C 964.764 5.81037 -5.05421 0
M  V30 45540 C 964.034 4.78366 -5.89277 0
M  V30 45541 O 963.824 3.58302 -5.08433 0
M  V30 45542 C 962.634 5.17448 -6.36119 0
M  V30 45543 O 962.244 4.45271 -7.53232 0
M  V30 45544 C 961.754 4.74639 -5.19936 0
M  V30 45545 C 962.464 3.49432 -4.70418 0
M  V30 45546 N 962.414 3.31776 -3.22945 0
M  V30 45547 H 965.253 6.54213 -5.71376 0
M  V30 45548 H 965.525 5.30492 -4.44033 0
M  V30 45549 H 964.657 4.55889 -6.76652 0
M  V30 45550 P 960.694 4.23843 -7.83734 0
M  V30 45551 O 960.474 4.19407 -9.29784 0
M  V30 45552 O 959.904 5.24426 -7.09156 0
M  V30 45553 O 960.444 2.7935 -7.20758 0
M  V30 45554 C 961.384 1.7299 -7.50419 0
M  V30 45555 C 960.654 0.406376 -7.57911 0
M  V30 45556 O 960.444 -0.0897726 -6.21935 0
M  V30 45557 C 959.254 0.447224 -8.1878 0
M  V30 45558 O 958.864 -0.825065 -8.71101 0
M  V30 45559 C 958.374 0.783801 -6.99623 0
M  V30 45560 C 959.084 0.0619192 -5.85967 0
M  V30 45561 N 959.034 0.790462 -4.56202 0
M  V30 45562 H 961.873 1.93423 -8.4679 0
M  V30 45563 H 962.145 1.68852 -6.70877 0
M  V30 45564 H 961.277 -0.289041 -8.15388 0
M  V30 45565 H 958.622 -0.927006 -5.72848 0
M  V30 45566 H 958.342 1.86973 -6.82036 0
M  V30 45567 H 957.351 0.403953 -7.13357 0
M  V30 45568 H 959.185 1.20599 -8.97534 0
M  V30 45569 P 957.314 -1.17771 -8.83182 0
M  V30 45570 O 957.094 -2.07206 -9.98732 0
M  V30 45571 O 956.524 0.0743816 -8.81969 0
M  V30 45572 O 957.064 -1.97652 -7.47304 0
M  V30 45573 C 958.004 -3.01133 -7.08783 0
M  V30 45574 C 957.274 -4.12613 -6.37049 0
M  V30 45575 O 957.064 -3.72827 -4.97879 0
M  V30 45576 C 955.874 -4.45085 -6.88694 0
M  V30 45577 O 955.484 -5.7877 -6.5624 0
M  V30 45578 C 954.994 -3.47817 -6.12078 0
M  V30 45579 C 955.704 -3.39414 -4.77697 0
M  V30 45580 N 955.654 -2.04615 -4.15333 0
M  V30 45581 C 955.734 -0.803897 -4.75249 0
M  V30 45582 N 955.654 0.197615 -3.91502 0
M  V30 45583 C 955.514 -0.413002 -2.66823 0
M  V30 45584 C 955.384 0.157221 -1.38007 0
M  V30 45585 O 955.364 1.34419 -1.057 0
M  V30 45586 N 955.264 -0.833136 -0.390236 0
M  V30 45587 C 955.264 -2.19402 -0.623885 0
M  V30 45588 N 955.134 -2.97622 0.449677 0
M  V30 45589 N 955.394 -2.73005 -1.83601 0
M  V30 45590 C 955.514 -1.78786 -2.80935 0
M  V30 45591 H 958.493 -3.41248 -7.98759 0
M  V30 45592 H 958.765 -2.5837 -6.41742 0
M  V30 45593 H 957.897 -5.02657 -6.42673 0
M  V30 45594 H 955.242 -4.11779 -4.09026 0
M  V30 45595 H 954.962 -2.49661 -6.61772 0
M  V30 45596 H 953.971 -3.86674 -6.00946 0
M  V30 45597 H 955.805 -4.30038 -7.97094 0
M  V30 45598 H 955.854 -0.670579 -5.82754 0
M  V30 45599 H 955.172 -0.528446 0.557287 0
M  V30 45600 H 955.135 -4.00117 0.344773 0
M  V30 45601 H 955.034 -2.55448 1.38544 0
M  V30 45602 P 953.934 -6.144 -6.45285 0
M  V30 45603 O 953.714 -7.54673 -6.86199 0
M  V30 45604 O 953.144 -5.12391 -7.179 0
M  V30 45605 O 953.684 -5.99158 -4.88404 0
M  V30 45606 C 954.624 -6.60234 -3.96415 0
M  V30 45607 C 953.894 -7.08259 -2.72856 0
M  V30 45608 O 953.684 -5.9427 -1.83651 0
M  V30 45609 C 952.494 -7.64886 -2.9555 0
M  V30 45610 O 952.104 -8.53963 -1.90717 0
M  V30 45611 C 951.614 -6.4116 -2.90739 0
M  V30 45612 C 952.324 -5.55375 -1.86963 0
M  V30 45613 N 952.274 -4.09664 -2.15742 0
M  V30 45614 H 955.113 -7.45574 -4.45629 0
M  V30 45615 H 955.385 -5.86232 -3.67314 0
M  V30 45616 H 954.517 -7.84412 -2.24479 0
M  V30 45617 P 950.554 -8.7635 -1.60911 0
M  V30 45618 O 950.334 -10.1388 -1.11561 0
M  V30 45619 O 949.764 -8.36503 -2.79617 0
M  V30 45620 O 950.304 -7.71806 -0.42951 0
M  V30 45621 C 951.244 -7.67148 0.673689 0
M  V30 45622 C 950.514 -7.33374 1.95559 0
M  V30 45623 O 950.304 -5.88721 2.00726 0
M  V30 45624 C 949.114 -7.92526 2.10483 0
M  V30 45625 O 948.724 -8.02971 3.47653 0
M  V30 45626 C 948.234 -6.89602 1.41652 0
M  V30 45627 C 948.944 -5.59201 1.75185 0
M  V30 45628 N 948.894 -4.58235 0.662552 0
M  V30 45629 C 948.974 -4.7683 -0.704049 0
M  V30 45630 N 948.894 -3.66233 -1.39775 0
M  V30 45631 C 948.754 -2.66526 -0.431739 0
M  V30 45632 C 948.624 -1.26394 -0.575992 0
M  V30 45633 N 948.504 -0.62859 0.67177 0
M  V30 45634 C 948.504 -1.27134 1.89385 0
M  V30 45635 N 948.374 -0.492035 2.96951 0
M  V30 45636 N 948.634 -2.58978 2.02907 0
M  V30 45637 C 948.754 -3.22433 0.832218 0
M  V30 45638 H 951.733 -8.65116 0.777161 0
M  V30 45639 H 952.005 -6.90173 0.474152 0
M  V30 45640 H 951.137 -7.66548 2.79458 0
M  V30 45641 P 947.174 -8.03563 3.84925 0
M  V30 45642 O 946.954 -8.85821 5.0569 0
M  V30 45643 O 946.384 -8.41101 2.65469 0
M  V30 45644 O 946.924 -6.4965 4.18908 0
M  V30 45645 C 947.864 -5.81037 5.05421 0
M  V30 45646 C 947.134 -4.78366 5.89277 0
M  V30 45647 O 946.924 -3.58302 5.08433 0
M  V30 45648 C 945.734 -5.17448 6.36119 0
M  V30 45649 O 945.344 -4.45271 7.53232 0
M  V30 45650 C 944.854 -4.74639 5.19936 0
M  V30 45651 C 945.564 -3.49432 4.70418 0
M  V30 45652 N 945.514 -3.32099 3.22613 0
M  V30 45653 H 948.353 -6.54213 5.71376 0
M  V30 45654 H 948.625 -5.30936 4.43503 0
M  V30 45655 H 947.757 -4.55889 6.76652 0
M  V30 45656 H 945.102 -2.61715 5.17932 0
M  V30 45657 H 944.822 -5.52155 4.41878 0
M  V30 45658 H 943.831 -4.51981 5.53374 0
M  V30 45659 H 945.665 -6.25124 6.55234 0
M  V30 45660 P 943.794 -4.23843 7.83734 0
M  V30 45661 O 943.574 -4.19407 9.29784 0
M  V30 45662 O 943.004 -5.24426 7.09156 0
M  V30 45663 O 943.544 -2.7935 7.20758 0
M  V30 45664 C 944.484 -1.7299 7.50419 0
M  V30 45665 C 943.754 -0.406376 7.57911 0
M  V30 45666 O 943.544 0.0897726 6.21935 0
M  V30 45667 C 942.354 -0.447224 8.1878 0
M  V30 45668 O 941.964 0.825065 8.71101 0
M  V30 45669 C 941.474 -0.783801 6.99623 0
M  V30 45670 C 942.184 -0.0619192 5.85967 0
M  V30 45671 N 942.134 -0.7859 4.56281 0
M  V30 45672 H 944.973 -1.93423 8.4679 0
M  V30 45673 H 945.245 -1.68181 6.71046 0
M  V30 45674 H 944.377 0.289041 8.15388 0
M  V30 45675 P 940.414 1.17771 8.83182 0
M  V30 45676 O 940.194 2.07206 9.98732 0
M  V30 45677 O 939.624 -0.0743816 8.81969 0
M  V30 45678 O 940.164 1.97652 7.47304 0
M  V30 45679 C 941.104 3.01133 7.08783 0
M  V30 45680 C 940.374 4.12613 6.37049 0
M  V30 45681 O 940.164 3.72827 4.97879 0
M  V30 45682 C 938.974 4.45085 6.88694 0
M  V30 45683 O 938.584 5.7877 6.5624 0
M  V30 45684 C 938.094 3.47817 6.12078 0
M  V30 45685 C 938.804 3.39414 4.77697 0
M  V30 45686 N 938.754 2.04615 4.15333 0
M  V30 45687 H 941.593 3.41248 7.98759 0
M  V30 45688 H 941.865 2.5837 6.41742 0
M  V30 45689 H 940.997 5.02657 6.42673 0
M  V30 45690 P 937.034 6.144 6.45285 0
M  V30 45691 O 936.814 7.54673 6.86199 0
M  V30 45692 O 936.244 5.12391 7.179 0
M  V30 45693 O 936.784 5.99158 4.88404 0
M  V30 45694 C 937.724 6.60062 3.96313 0
M  V30 45695 C 936.994 7.08259 2.72856 0
M  V30 45696 O 936.784 5.9427 1.83651 0
M  V30 45697 C 935.594 7.65087 2.94749 0
M  V30 45698 O 935.204 8.53963 1.90717 0
M  V30 45699 C 934.714 6.41069 2.90698 0
M  V30 45700 C 935.424 5.5528 1.86931 0
M  V30 45701 N 935.374 4.09575 2.15696 0
M  V30 45702 C 935.224 3.24249 1.08435 0
M  V30 45703 O 935.134 3.63946 -0.0628747 0
M  V30 45704 N 935.184 1.90009 1.39973 0
M  V30 45705 C 935.274 1.34884 2.65614 0
M  V30 45706 C 935.424 2.3145 3.71736 0
M  V30 45707 C 935.474 3.63518 3.44754 0
M  V30 45708 H 938.215 7.45402 4.45526 0
M  V30 45709 H 938.484 5.86062 3.67208 0
M  V30 45710 H 937.617 7.84412 2.24479 0
M  V30 45711 H 934.962 5.73358 0.888409 0
M  V30 45712 H 934.683 5.90877 3.88583 0
M  V30 45713 H 933.691 6.65867 2.58821 0
M  V30 45714 H 935.525 8.16248 3.92006 0
M  V30 45715 H 935.596 4.34551 4.26383 0
M  V30 45716 P 933.655 8.7635 1.60911 0
M  V30 45717 O 933.435 10.1388 1.11561 0
M  V30 45718 O 932.865 8.36503 2.79617 0
M  V30 45719 O 933.405 7.71906 0.429565 0
M  V30 45720 C 934.345 7.67148 -0.673689 0
M  V30 45721 C 933.615 7.33666 -1.94851 0
M  V30 45722 O 933.405 5.88816 -2.00759 0
M  V30 45723 C 932.215 7.92526 -2.10483 0
M  V30 45724 O 931.825 8.03063 -3.47693 0
M  V30 45725 C 931.335 6.89602 -1.41652 0
M  V30 45726 C 932.045 5.59201 -1.75185 0
M  V30 45727 N 931.995 4.58235 -0.662552 0
M  V30 45728 C 931.845 3.24451 -1.01643 0
M  V30 45729 O 931.755 2.94958 -2.21722 0
M  V30 45730 N 931.795 2.30408 0.165238 0
M  V30 45731 C 931.895 2.66048 1.25118 0
M  V30 45732 N 931.845 1.70787 2.16813 0
M  V30 45733 C 932.045 4.02732 1.64413 0
M  V30 45734 C 932.095 4.9488 0.63991 0
M  V30 45735 H 934.835 8.65017 -0.777072 0
M  V30 45736 H 935.105 6.90173 -0.474152 0
M  V30 45737 H 934.238 7.66642 -2.79492 0
M  V30 45738 H 931.583 5.16254 -2.65229 0
M  V30 45739 H 931.303 7.06532 -0.329431 0
M  V30 45740 H 930.312 6.91023 -1.82047 0
M  V30 45741 H 932.146 8.90873 -1.62657 0
M  V30 45742 H 932.218 6.00104 0.892197 0
M  V30 45743 H 932.116 4.31733 2.69229 0
M  V30 45744 H 931.728 0.724835 1.8844 0
M  V30 45745 H 931.924 1.94716 3.16734 0
M  V30 45746 P 930.275 8.03563 -3.84925 0
M  V30 45747 O 930.055 8.85821 -5.0569 0
M  V30 45748 O 929.485 8.41101 -2.65469 0
M  V30 45749 O 930.025 6.4965 -4.18908 0
M  V30 45750 C 930.965 5.81037 -5.05421 0
M  V30 45751 C 930.235 4.78366 -5.89277 0
M  V30 45752 O 930.025 3.58302 -5.08433 0
M  V30 45753 C 928.835 5.17448 -6.36119 0
M  V30 45754 O 928.445 4.45271 -7.53232 0
M  V30 45755 C 927.955 4.74639 -5.19936 0
M  V30 45756 C 928.665 3.49432 -4.70418 0
M  V30 45757 N 928.615 3.32099 -3.22613 0
M  V30 45758 H 931.454 6.54213 -5.71376 0
M  V30 45759 H 931.726 5.30936 -4.43503 0
M  V30 45760 H 930.858 4.55889 -6.76652 0
M  V30 45761 H 928.203 2.61715 -5.17932 0
M  V30 45762 H 927.923 5.52155 -4.41878 0
M  V30 45763 H 926.932 4.51981 -5.53374 0
M  V30 45764 H 928.766 6.25124 -6.55234 0
M  V30 45765 P 926.895 4.23843 -7.83734 0
M  V30 45766 O 926.675 4.19407 -9.29784 0
M  V30 45767 O 926.105 5.24426 -7.09156 0
M  V30 45768 O 926.645 2.7935 -7.20758 0
M  V30 45769 C 927.585 1.72945 -7.50224 0
M  V30 45770 C 926.855 0.406376 -7.57911 0
M  V30 45771 O 926.645 -0.0897726 -6.21935 0
M  V30 45772 C 925.455 0.438983 -8.18724 0
M  V30 45773 O 925.065 -0.825065 -8.71101 0
M  V30 45774 C 924.575 0.783689 -6.99524 0
M  V30 45775 C 925.285 0.0619086 -5.85867 0
M  V30 45776 N 925.235 0.78573 -4.56183 0
M  V30 45777 C 925.085 0.0292889 -3.41887 0
M  V30 45778 O 924.995 -1.18445 -3.4419 0
M  V30 45779 N 925.045 0.744061 -2.23964 0
M  V30 45780 C 925.135 2.10932 -2.10362 0
M  V30 45781 C 925.285 2.8202 -3.34994 0
M  V30 45782 C 925.335 2.15547 -4.52261 0
M  V30 45783 H 928.076 1.93379 -8.46595 0
M  V30 45784 H 928.345 1.68132 -6.70852 0
M  V30 45785 H 927.478 -0.289041 -8.15388 0
M  V30 45786 H 924.823 -0.926847 -5.72749 0
M  V30 45787 H 924.544 1.86973 -6.82036 0
M  V30 45788 H 923.552 0.403896 -7.13257 0
M  V30 45789 H 925.386 1.20585 -8.97435 0
M  V30 45790 H 925.457 2.71231 -5.45042 0
M  V30 45791 P 923.515 -1.17771 -8.83182 0
M  V30 45792 O 923.295 -2.07206 -9.98732 0
M  V30 45793 O 922.725 0.0743816 -8.81969 0
M  V30 45794 O 923.265 -1.97652 -7.47304 0
M  V30 45795 C 924.205 -3.01133 -7.08783 0
M  V30 45796 C 923.475 -4.12613 -6.37049 0
M  V30 45797 O 923.265 -3.72827 -4.97879 0
M  V30 45798 C 922.075 -4.45085 -6.88694 0
M  V30 45799 O 921.685 -5.7877 -6.5624 0
M  V30 45800 C 921.195 -3.47817 -6.12078 0
M  V30 45801 C 921.905 -3.39414 -4.77697 0
M  V30 45802 N 921.855 -2.04615 -4.15333 0
M  V30 45803 H 924.694 -3.41248 -7.98759 0
M  V30 45804 H 924.966 -2.5837 -6.41742 0
M  V30 45805 H 924.098 -5.02657 -6.42673 0
M  V30 45806 P 920.135 -6.144 -6.45285 0
M  V30 45807 O 919.915 -7.54673 -6.86199 0
M  V30 45808 O 919.345 -5.12391 -7.179 0
M  V30 45809 O 919.885 -5.99158 -4.88404 0
M  V30 45810 C 920.825 -6.60234 -3.96415 0
M  V30 45811 C 920.095 -7.08259 -2.72856 0
M  V30 45812 O 919.885 -5.9427 -1.83651 0
M  V30 45813 C 918.695 -7.64886 -2.9555 0
M  V30 45814 O 918.305 -8.53963 -1.90717 0
M  V30 45815 C 917.815 -6.4116 -2.90739 0
M  V30 45816 C 918.525 -5.55375 -1.86963 0
M  V30 45817 N 918.475 -4.09664 -2.15742 0
M  V30 45818 C 918.555 -3.44381 -3.37233 0
M  V30 45819 N 918.475 -2.14131 -3.28347 0
M  V30 45820 C 918.335 -1.90247 -1.91588 0
M  V30 45821 C 918.205 -0.683992 -1.20892 0
M  V30 45822 N 918.085 -0.903396 0.173998 0
M  V30 45823 C 918.085 -2.14171 0.784879 0
M  V30 45824 N 917.955 -2.1435 2.11317 0
M  V30 45825 N 918.215 -3.28784 0.119316 0
M  V30 45826 C 918.335 -3.0977 -1.22194 0
M  V30 45827 H 921.314 -7.45574 -4.45629 0
M  V30 45828 H 921.586 -5.86232 -3.67314 0
M  V30 45829 H 920.718 -7.84412 -2.24479 0
M  V30 45830 P 916.755 -8.7635 -1.60911 0
M  V30 45831 O 916.535 -10.1388 -1.11561 0
M  V30 45832 O 915.965 -8.36503 -2.79617 0
M  V30 45833 O 916.505 -7.71806 -0.42951 0
M  V30 45834 C 917.445 -7.67148 0.673689 0
M  V30 45835 C 916.715 -7.33374 1.95559 0
M  V30 45836 O 916.505 -5.88721 2.00726 0
M  V30 45837 C 915.315 -7.92526 2.10483 0
M  V30 45838 O 914.925 -8.02971 3.47653 0
M  V30 45839 C 914.435 -6.89602 1.41652 0
M  V30 45840 C 915.145 -5.59201 1.75185 0
M  V30 45841 N 915.095 -4.58235 0.662552 0
M  V30 45842 H 917.934 -8.65116 0.777161 0
M  V30 45843 H 918.206 -6.90173 0.474152 0
M  V30 45844 H 917.338 -7.66548 2.79458 0
M  V30 45845 P 913.375 -8.03563 3.84925 0
M  V30 45846 O 913.155 -8.85821 5.0569 0
M  V30 45847 O 912.585 -8.41101 2.65469 0
M  V30 45848 O 913.125 -6.4965 4.18908 0
M  V30 45849 C 914.065 -5.80886 5.05289 0
M  V30 45850 C 913.335 -4.78366 5.89277 0
M  V30 45851 O 913.125 -3.58302 5.08433 0
M  V30 45852 C 911.935 -5.16748 6.36559 0
M  V30 45853 O 911.545 -4.45271 7.53232 0
M  V30 45854 C 911.055 -4.74572 5.19863 0
M  V30 45855 C 911.765 -3.49373 4.70338 0
M  V30 45856 N 911.715 -3.31704 3.22876 0
M  V30 45857 C 911.565 -2.03326 2.74871 0
M  V30 45858 O 911.475 -1.06486 3.48076 0
M  V30 45859 N 911.525 -1.91838 1.37456 0
M  V30 45860 C 911.615 -2.94295 0.462035 0
M  V30 45861 C 911.765 -4.25064 1.05249 0
M  V30 45862 C 911.815 -4.40214 2.39192 0
M  V30 45863 H 914.556 -6.54063 5.71245 0
M  V30 45864 H 914.825 -5.30339 4.43905 0
M  V30 45865 H 913.958 -4.55889 6.76652 0
M  V30 45866 H 911.303 -2.6167 5.17842 0
M  V30 45867 H 911.024 -5.52155 4.41878 0
M  V30 45868 H 910.032 -4.51918 5.53297 0
M  V30 45869 H 911.866 -6.25055 6.55162 0
M  V30 45870 H 911.937 -5.39798 2.81523 0
M  V30 45871 P 909.995 -4.23843 7.83734 0
M  V30 45872 O 909.775 -4.19407 9.29784 0
M  V30 45873 O 909.205 -5.24426 7.09156 0
M  V30 45874 O 909.745 -2.7935 7.20758 0
M  V30 45875 C 910.685 -1.7299 7.50419 0
M  V30 45876 C 909.955 -0.406376 7.57911 0
M  V30 45877 O 909.745 0.0897726 6.21935 0
M  V30 45878 C 908.555 -0.447224 8.1878 0
M  V30 45879 O 908.165 0.825065 8.71101 0
M  V30 45880 C 907.675 -0.783801 6.99623 0
M  V30 45881 C 908.385 -0.0619192 5.85967 0
M  V30 45882 N 908.335 -0.7859 4.56281 0
M  V30 45883 C 908.415 -2.14308 4.31736 0
M  V30 45884 N 908.335 -2.46106 3.05116 0
M  V30 45885 C 908.195 -1.23422 2.4014 0
M  V30 45886 C 908.065 -0.938381 1.02409 0
M  V30 45887 N 907.945 0.444647 0.805413 0
M  V30 45888 C 907.945 1.40829 1.79435 0
M  V30 45889 N 907.815 2.67213 1.38558 0
M  V30 45890 N 908.075 1.12947 3.09005 0
M  V30 45891 C 908.195 -0.204887 3.32369 0
M  V30 45892 H 911.174 -1.93423 8.4679 0
M  V30 45893 H 911.446 -1.68181 6.71046 0
M  V30 45894 H 910.578 0.289041 8.15388 0
M  V30 45895 P 906.615 1.17771 8.83182 0
M  V30 45896 O 906.395 2.07206 9.98732 0
M  V30 45897 O 905.825 -0.0743816 8.81969 0
M  V30 45898 O 906.365 1.97652 7.47304 0
M  V30 45899 C 907.305 3.01133 7.08783 0
M  V30 45900 C 906.575 4.12613 6.37049 0
M  V30 45901 O 906.365 3.72827 4.97879 0
M  V30 45902 C 905.175 4.45085 6.88694 0
M  V30 45903 O 904.785 5.7877 6.5624 0
M  V30 45904 C 904.295 3.47817 6.12078 0
M  V30 45905 C 905.005 3.39414 4.77697 0
M  V30 45906 N 904.955 2.04615 4.15333 0
M  V30 45907 H 907.794 3.41248 7.98759 0
M  V30 45908 H 908.066 2.5837 6.41742 0
M  V30 45909 H 907.198 5.02657 6.42673 0
M  V30 45910 P 903.235 6.144 6.45285 0
M  V30 45911 O 903.015 7.54673 6.86199 0
M  V30 45912 O 902.445 5.12391 7.179 0
M  V30 45913 O 902.985 5.99158 4.88404 0
M  V30 45914 C 903.925 6.60234 3.96415 0
M  V30 45915 C 903.195 7.08259 2.72856 0
M  V30 45916 O 902.985 5.9427 1.83651 0
M  V30 45917 C 901.795 7.64886 2.9555 0
M  V30 45918 O 901.405 8.53963 1.90717 0
M  V30 45919 C 900.915 6.4116 2.90739 0
M  V30 45920 C 901.625 5.55375 1.86963 0
M  V30 45921 N 901.575 4.09664 2.15742 0
M  V30 45922 H 904.414 7.45574 4.45629 0
M  V30 45923 H 904.686 5.86232 3.67314 0
M  V30 45924 H 903.818 7.84412 2.24479 0
M  V30 45925 P 899.855 8.7635 1.60911 0
M  V30 45926 O 899.635 10.1388 1.11561 0
M  V30 45927 O 899.065 8.36503 2.79617 0
M  V30 45928 O 899.605 7.71806 0.42951 0
M  V30 45929 C 900.545 7.66948 -0.673514 0
M  V30 45930 C 899.815 7.33374 -1.95559 0
M  V30 45931 O 899.605 5.88721 -2.00726 0
M  V30 45932 C 898.415 7.92218 -2.1125 0
M  V30 45933 O 898.025 8.02971 -3.47653 0
M  V30 45934 C 897.535 6.89504 -1.41631 0
M  V30 45935 C 898.245 5.59106 -1.75155 0
M  V30 45936 N 898.195 4.58136 -0.662409 0
M  V30 45937 C 898.045 3.26059 -1.02863 0
M  V30 45938 O 897.955 2.90743 -2.19009 0
M  V30 45939 N 898.005 2.35995 0.0155585 0
M  V30 45940 C 898.095 2.65248 1.35603 0
M  V30 45941 O 898.045 1.75605 2.20651 0
M  V30 45942 C 898.245 4.05747 1.64698 0
M  V30 45943 C 898.355 4.42345 3.09553 0
M  V30 45944 C 898.295 4.96734 0.652411 0
M  V30 45945 H 901.036 8.64917 -0.776982 0
M  V30 45946 H 901.305 6.89974 -0.474015 0
M  V30 45947 H 900.438 7.66548 -2.79458 0
M  V30 45948 H 897.783 5.16076 -2.65138 0
M  V30 45949 H 897.504 7.06433 -0.329384 0
M  V30 45950 H 896.512 6.90829 -1.81996 0
M  V30 45951 H 898.346 8.90774 -1.62639 0
M  V30 45952 H 898.417 6.02181 0.895285 0
M  V30 45953 H 897.387 4.80252 3.45468 0
M  V30 45954 H 899.124 5.20015 3.22119 0
M  V30 45955 H 898.636 3.53269 3.67833 0
M  V30 45956 H 897.9 1.39558 -0.227499 0
M  V30 45957 P 896.475 8.03563 -3.84925 0
M  V30 45958 O 896.255 8.85821 -5.0569 0
M  V30 45959 O 895.685 8.41101 -2.65469 0
M  V30 45960 O 896.225 6.4965 -4.18908 0
M  V30 45961 C 897.165 5.81037 -5.05421 0
M  V30 45962 C 896.435 4.78366 -5.89277 0
M  V30 45963 O 896.225 3.58302 -5.08433 0
M  V30 45964 C 895.035 5.17448 -6.36119 0
M  V30 45965 O 894.645 4.45271 -7.53232 0
M  V30 45966 C 894.155 4.74639 -5.19936 0
M  V30 45967 C 894.865 3.49432 -4.70418 0
M  V30 45968 N 894.815 3.31776 -3.22945 0
M  V30 45969 H 897.654 6.54213 -5.71376 0
M  V30 45970 H 897.926 5.30492 -4.44033 0
M  V30 45971 H 897.058 4.55889 -6.76652 0
M  V30 45972 P 893.095 4.23843 -7.83734 0
M  V30 45973 O 892.875 4.19407 -9.29784 0
M  V30 45974 O 892.305 5.24426 -7.09156 0
M  V30 45975 O 892.845 2.7935 -7.20758 0
M  V30 45976 C 893.785 1.72945 -7.50224 0
M  V30 45977 C 893.055 0.406376 -7.57911 0
M  V30 45978 O 892.845 -0.0897726 -6.21935 0
M  V30 45979 C 891.655 0.438983 -8.18724 0
M  V30 45980 O 891.265 -0.825065 -8.71101 0
M  V30 45981 C 890.775 0.783689 -6.99524 0
M  V30 45982 C 891.485 0.0619086 -5.85867 0
M  V30 45983 N 891.435 0.78573 -4.56183 0
M  V30 45984 C 891.285 0.0292889 -3.41887 0
M  V30 45985 O 891.195 -1.18445 -3.4419 0
M  V30 45986 N 891.245 0.744061 -2.23964 0
M  V30 45987 C 891.335 2.10932 -2.10362 0
M  V30 45988 C 891.485 2.8202 -3.34994 0
M  V30 45989 C 891.535 2.15547 -4.52261 0
M  V30 45990 H 894.276 1.93379 -8.46595 0
M  V30 45991 H 894.545 1.68132 -6.70852 0
M  V30 45992 H 893.678 -0.289041 -8.15388 0
M  V30 45993 H 891.023 -0.926847 -5.72749 0
M  V30 45994 H 890.744 1.86973 -6.82036 0
M  V30 45995 H 889.752 0.403896 -7.13257 0
M  V30 45996 H 891.586 1.20585 -8.97435 0
M  V30 45997 H 891.657 2.71231 -5.45042 0
M  V30 45998 P 889.715 -1.17771 -8.83182 0
M  V30 45999 O 889.495 -2.07206 -9.98732 0
M  V30 46000 O 888.925 0.0743816 -8.81969 0
M  V30 46001 O 889.465 -1.97652 -7.47304 0
M  V30 46002 C 890.405 -3.01133 -7.08783 0
M  V30 46003 C 889.675 -4.12613 -6.37049 0
M  V30 46004 O 889.465 -3.72827 -4.97879 0
M  V30 46005 C 888.275 -4.45085 -6.88694 0
M  V30 46006 O 887.885 -5.7877 -6.5624 0
M  V30 46007 C 887.395 -3.47817 -6.12078 0
M  V30 46008 C 888.105 -3.39414 -4.77697 0
M  V30 46009 N 888.055 -2.04199 -4.15538 0
M  V30 46010 C 888.135 -0.821545 -4.76977 0
M  V30 46011 N 888.065 0.1794 -3.94592 0
M  V30 46012 C 887.915 -0.419121 -2.70776 0
M  V30 46013 C 887.785 0.109072 -1.40577 0
M  V30 46014 N 887.775 1.4104 -1.1344 0
M  V30 46015 N 887.665 -0.764381 -0.39411 0
M  V30 46016 C 887.675 -2.06587 -0.664135 0
M  V30 46017 N 887.795 -2.67948 -1.82153 0
M  V30 46018 C 887.915 -1.77942 -2.8147 0
M  V30 46019 H 890.894 -3.41248 -7.98759 0
M  V30 46020 H 891.166 -2.57728 -6.42 0
M  V30 46021 H 890.298 -5.02657 -6.42673 0
M  V30 46022 H 887.643 -4.11708 -4.08956 0
M  V30 46023 H 887.363 -2.49626 -6.61679 0
M  V30 46024 H 886.372 -3.8662 -6.00862 0
M  V30 46025 H 888.206 -4.29991 -7.97006 0
M  V30 46026 H 888.247 -0.702451 -5.84696 0
M  V30 46027 H 887.866 2.09647 -1.89651 0
M  V30 46028 H 887.677 1.73358 -0.160575 0
M  V30 46029 H 887.569 -2.71695 0.195838 0
M  V30 46030 P 886.335 -6.144 -6.45285 0
M  V30 46031 O 886.115 -7.54673 -6.86199 0
M  V30 46032 O 885.545 -5.12391 -7.179 0
M  V30 46033 O 886.085 -5.99158 -4.88404 0
M  V30 46034 C 887.025 -6.60234 -3.96415 0
M  V30 46035 C 886.295 -7.08259 -2.72856 0
M  V30 46036 O 886.085 -5.9427 -1.83651 0
M  V30 46037 C 884.895 -7.64886 -2.9555 0
M  V30 46038 O 884.505 -8.53963 -1.90717 0
M  V30 46039 C 884.015 -6.4116 -2.90739 0
M  V30 46040 C 884.725 -5.55375 -1.86963 0
M  V30 46041 N 884.675 -4.09664 -2.15742 0
M  V30 46042 H 887.514 -7.45574 -4.45629 0
M  V30 46043 H 887.786 -5.86232 -3.67314 0
M  V30 46044 H 886.918 -7.84412 -2.24479 0
M  V30 46045 P 882.955 -8.7635 -1.60911 0
M  V30 46046 O 882.735 -10.1388 -1.11561 0
M  V30 46047 O 882.165 -8.36503 -2.79617 0
M  V30 46048 O 882.705 -7.71806 -0.42951 0
M  V30 46049 C 883.645 -7.67148 0.673689 0
M  V30 46050 C 882.915 -7.33374 1.95559 0
M  V30 46051 O 882.705 -5.88721 2.00726 0
M  V30 46052 C 881.515 -7.92526 2.10483 0
M  V30 46053 O 881.125 -8.02971 3.47653 0
M  V30 46054 C 880.635 -6.89602 1.41652 0
M  V30 46055 C 881.345 -5.59201 1.75185 0
M  V30 46056 N 881.295 -4.58235 0.662552 0
M  V30 46057 C 881.375 -4.7683 -0.704049 0
M  V30 46058 N 881.295 -3.66233 -1.39775 0
M  V30 46059 C 881.155 -2.66526 -0.431739 0
M  V30 46060 C 881.025 -1.26394 -0.575992 0
M  V30 46061 N 880.905 -0.62859 0.67177 0
M  V30 46062 C 880.905 -1.27134 1.89385 0
M  V30 46063 N 880.775 -0.492035 2.96951 0
M  V30 46064 N 881.035 -2.58978 2.02907 0
M  V30 46065 C 881.155 -3.22433 0.832218 0
M  V30 46066 H 884.134 -8.65116 0.777161 0
M  V30 46067 H 884.406 -6.90173 0.474152 0
M  V30 46068 H 883.538 -7.66548 2.79458 0
M  V30 46069 P 879.575 -8.03563 3.84925 0
M  V30 46070 O 879.355 -8.85821 5.0569 0
M  V30 46071 O 878.785 -8.41101 2.65469 0
M  V30 46072 O 879.325 -6.4965 4.18908 0
M  V30 46073 C 880.265 -5.81037 5.05421 0
M  V30 46074 C 879.535 -4.78366 5.89277 0
M  V30 46075 O 879.325 -3.58302 5.08433 0
M  V30 46076 C 878.135 -5.17448 6.36119 0
M  V30 46077 O 877.745 -4.45271 7.53232 0
M  V30 46078 C 877.255 -4.74639 5.19936 0
M  V30 46079 C 877.965 -3.49432 4.70418 0
M  V30 46080 N 877.915 -3.31776 3.22945 0
M  V30 46081 C 877.995 -4.27147 2.23315 0
M  V30 46082 N 877.915 -3.78447 1.02186 0
M  V30 46083 C 877.775 -2.41001 1.21732 0
M  V30 46084 C 877.645 -1.36111 0.27694 0
M  V30 46085 N 877.525 -0.113683 0.912949 0
M  V30 46086 C 877.525 0.0846396 2.27943 0
M  V30 46087 N 877.395 1.34737 2.6916 0
M  V30 46088 N 877.655 -0.902521 3.16379 0
M  V30 46089 C 877.775 -2.11937 2.56849 0
M  V30 46090 H 880.754 -6.54213 5.71376 0
M  V30 46091 H 881.026 -5.30492 4.44033 0
M  V30 46092 H 880.158 -4.55889 6.76652 0
M  V30 46093 P 876.195 -4.23843 7.83734 0
M  V30 46094 O 875.975 -4.19407 9.29784 0
M  V30 46095 O 875.405 -5.24426 7.09156 0
M  V30 46096 O 875.945 -2.7935 7.20758 0
M  V30 46097 C 876.885 -1.7299 7.50419 0
M  V30 46098 C 876.155 -0.406376 7.57911 0
M  V30 46099 O 875.945 0.0897726 6.21935 0
M  V30 46100 C 874.755 -0.447224 8.1878 0
M  V30 46101 O 874.365 0.825065 8.71101 0
M  V30 46102 C 873.875 -0.783801 6.99623 0
M  V30 46103 C 874.585 -0.0619192 5.85967 0
M  V30 46104 N 874.535 -0.7859 4.56281 0
M  V30 46105 C 874.615 -2.14308 4.31736 0
M  V30 46106 N 874.535 -2.46106 3.05116 0
M  V30 46107 C 874.395 -1.23422 2.4014 0
M  V30 46108 C 874.265 -0.938381 1.02409 0
M  V30 46109 N 874.145 0.444647 0.805413 0
M  V30 46110 C 874.145 1.40829 1.79435 0
M  V30 46111 N 874.015 2.67213 1.38558 0
M  V30 46112 N 874.275 1.12947 3.09005 0
M  V30 46113 C 874.395 -0.204887 3.32369 0
M  V30 46114 H 877.374 -1.93423 8.4679 0
M  V30 46115 H 877.646 -1.68181 6.71046 0
M  V30 46116 H 876.778 0.289041 8.15388 0
M  V30 46117 P 872.815 1.17771 8.83182 0
M  V30 46118 O 872.595 2.07206 9.98732 0
M  V30 46119 O 872.025 -0.0743816 8.81969 0
M  V30 46120 O 872.565 1.97652 7.47304 0
M  V30 46121 C 873.505 3.01133 7.08783 0
M  V30 46122 C 872.775 4.12613 6.37049 0
M  V30 46123 O 872.565 3.72827 4.97879 0
M  V30 46124 C 871.375 4.45085 6.88694 0
M  V30 46125 O 870.985 5.7877 6.5624 0
M  V30 46126 C 870.495 3.47817 6.12078 0
M  V30 46127 C 871.205 3.39414 4.77697 0
M  V30 46128 N 871.155 2.04615 4.15333 0
M  V30 46129 H 873.994 3.41248 7.98759 0
M  V30 46130 H 874.266 2.5837 6.41742 0
M  V30 46131 H 873.398 5.02657 6.42673 0
M  V30 46132 P 869.435 6.144 6.45285 0
M  V30 46133 O 869.215 7.54673 6.86199 0
M  V30 46134 O 868.645 5.12391 7.179 0
M  V30 46135 O 869.185 5.99158 4.88404 0
M  V30 46136 C 870.125 6.60234 3.96415 0
M  V30 46137 C 869.395 7.08259 2.72856 0
M  V30 46138 O 869.185 5.9427 1.83651 0
M  V30 46139 C 867.995 7.64886 2.9555 0
M  V30 46140 O 867.605 8.53963 1.90717 0
M  V30 46141 C 867.115 6.4116 2.90739 0
M  V30 46142 C 867.825 5.55375 1.86963 0
M  V30 46143 N 867.775 4.09448 2.16152 0
M  V30 46144 H 870.614 7.45574 4.45629 0
M  V30 46145 H 870.886 5.85864 3.679 0
M  V30 46146 H 870.018 7.84412 2.24479 0
M  V30 46147 H 867.363 5.73457 0.888562 0
M  V30 46148 H 867.083 5.90877 3.88583 0
M  V30 46149 H 866.092 6.6596 2.58858 0
M  V30 46150 H 867.926 8.16339 3.92049 0
M  V30 46151 P 866.055 8.7635 1.60911 0
M  V30 46152 O 865.835 10.1388 1.11561 0
M  V30 46153 O 865.265 8.36503 2.79617 0
M  V30 46154 O 865.805 7.71806 0.42951 0
M  V30 46155 C 866.745 7.67148 -0.673689 0
M  V30 46156 C 866.015 7.33374 -1.95559 0
M  V30 46157 O 865.805 5.88721 -2.00726 0
M  V30 46158 C 864.615 7.92526 -2.10483 0
M  V30 46159 O 864.225 8.02971 -3.47653 0
M  V30 46160 C 863.735 6.89602 -1.41652 0
M  V30 46161 C 864.445 5.59201 -1.75185 0
M  V30 46162 N 864.395 4.58301 -0.657969 0
M  V30 46163 C 864.475 4.79019 0.692603 0
M  V30 46164 N 864.405 3.69736 1.38998 0
M  V30 46165 C 864.255 2.70474 0.438135 0
M  V30 46166 C 864.125 1.30327 0.538142 0
M  V30 46167 N 864.115 0.64304 1.69192 0
M  V30 46168 N 864.005 0.611027 -0.605183 0
M  V30 46169 C 864.015 1.27002 -1.75953 0
M  V30 46170 N 864.135 2.56038 -1.98546 0
M  V30 46171 C 864.255 3.22681 -0.822541 0
M  V30 46172 H 867.234 8.65116 -0.777161 0
M  V30 46173 H 867.506 6.9022 -0.46725 0
M  V30 46174 H 866.638 7.66548 -2.79458 0
M  V30 46175 H 863.983 5.16165 -2.65183 0
M  V30 46176 H 863.703 7.06433 -0.329384 0
M  V30 46177 H 862.712 6.90926 -1.82021 0
M  V30 46178 H 864.546 8.90873 -1.62657 0
M  V30 46179 H 864.587 5.77785 1.13874 0
M  V30 46180 H 864.206 1.15585 2.57991 0
M  V30 46181 H 864.017 -0.382989 1.69835 0
M  V30 46182 H 863.909 0.653331 -2.64449 0
M  V30 46183 P 862.675 8.03563 -3.84925 0
M  V30 46184 O 862.455 8.85821 -5.0569 0
M  V30 46185 O 861.885 8.41101 -2.65469 0
M  V30 46186 O 862.425 6.4965 -4.18908 0
M  V30 46187 C 863.365 5.80886 -5.05289 0
M  V30 46188 C 862.635 4.78366 -5.89277 0
M  V30 46189 O 862.425 3.58302 -5.08433 0
M  V30 46190 C 861.235 5.16748 -6.36559 0
M  V30 46191 O 860.845 4.45271 -7.53232 0
M  V30 46192 C 860.355 4.74572 -5.19863 0
M  V30 46193 C 861.065 3.49373 -4.70338 0
M  V30 46194 N 861.015 3.31704 -3.22876 0
M  V30 46195 C 860.865 2.03326 -2.74871 0
M  V30 46196 O 860.775 1.06486 -3.48076 0
M  V30 46197 N 860.825 1.91838 -1.37456 0
M  V30 46198 C 860.915 2.94295 -0.462035 0
M  V30 46199 C 861.065 4.25064 -1.05249 0
M  V30 46200 C 861.115 4.40214 -2.39192 0
M  V30 46201 H 863.856 6.54063 -5.71245 0
M  V30 46202 H 864.125 5.30339 -4.43905 0
M  V30 46203 H 863.258 4.55889 -6.76652 0
M  V30 46204 H 860.603 2.6167 -5.17842 0
M  V30 46205 H 860.324 5.52155 -4.41878 0
M  V30 46206 H 859.332 4.51918 -5.53297 0
M  V30 46207 H 861.166 6.25055 -6.55162 0
M  V30 46208 H 861.237 5.39798 -2.81523 0
M  V30 46209 P 859.295 4.23843 -7.83734 0
M  V30 46210 O 859.075 4.19407 -9.29784 0
M  V30 46211 O 858.505 5.24426 -7.09156 0
M  V30 46212 O 859.045 2.7935 -7.20758 0
M  V30 46213 C 859.985 1.7299 -7.50419 0
M  V30 46214 C 859.255 0.406376 -7.57911 0
M  V30 46215 O 859.045 -0.0897726 -6.21935 0
M  V30 46216 C 857.855 0.447224 -8.1878 0
M  V30 46217 O 857.465 -0.825065 -8.71101 0
M  V30 46218 C 856.975 0.783801 -6.99623 0
M  V30 46219 C 857.685 0.0619192 -5.85967 0
M  V30 46220 N 857.635 0.7859 -4.56281 0
M  V30 46221 H 860.474 1.93423 -8.4679 0
M  V30 46222 H 860.746 1.68181 -6.71046 0
M  V30 46223 H 859.878 -0.289041 -8.15388 0
M  V30 46224 P 855.915 -1.17771 -8.83182 0
M  V30 46225 O 855.695 -2.07206 -9.98732 0
M  V30 46226 O 855.125 0.0743816 -8.81969 0
M  V30 46227 O 855.665 -1.97652 -7.47304 0
M  V30 46228 C 856.605 -3.01133 -7.08783 0
M  V30 46229 C 855.875 -4.12613 -6.37049 0
M  V30 46230 O 855.665 -3.72827 -4.97879 0
M  V30 46231 C 854.475 -4.45085 -6.88694 0
M  V30 46232 O 854.085 -5.7877 -6.5624 0
M  V30 46233 C 853.595 -3.47817 -6.12078 0
M  V30 46234 C 854.305 -3.39414 -4.77697 0
M  V30 46235 N 854.255 -2.04615 -4.15333 0
M  V30 46236 H 857.094 -3.41248 -7.98759 0
M  V30 46237 H 857.366 -2.5837 -6.41742 0
M  V30 46238 H 856.498 -5.02657 -6.42673 0
M  V30 46239 P 852.535 -6.144 -6.45285 0
M  V30 46240 O 852.315 -7.54673 -6.86199 0
M  V30 46241 O 851.745 -5.12391 -7.179 0
M  V30 46242 O 852.285 -5.99158 -4.88404 0
M  V30 46243 C 853.225 -6.60234 -3.96415 0
M  V30 46244 C 852.495 -7.08259 -2.72856 0
M  V30 46245 O 852.285 -5.9427 -1.83651 0
M  V30 46246 C 851.095 -7.64886 -2.9555 0
M  V30 46247 O 850.705 -8.53963 -1.90717 0
M  V30 46248 C 850.215 -6.4116 -2.90739 0
M  V30 46249 C 850.925 -5.55375 -1.86963 0
M  V30 46250 N 850.875 -4.09664 -2.15742 0
M  V30 46251 H 853.714 -7.45574 -4.45629 0
M  V30 46252 H 853.986 -5.86232 -3.67314 0
M  V30 46253 H 853.118 -7.84412 -2.24479 0
M  V30 46254 P 849.155 -8.7635 -1.60911 0
M  V30 46255 O 848.935 -10.1388 -1.11561 0
M  V30 46256 O 848.365 -8.36503 -2.79617 0
M  V30 46257 O 848.905 -7.71806 -0.42951 0
M  V30 46258 C 849.845 -7.67148 0.673689 0
M  V30 46259 C 849.115 -7.33374 1.95559 0
M  V30 46260 O 848.905 -5.88721 2.00726 0
M  V30 46261 C 847.715 -7.92526 2.10483 0
M  V30 46262 O 847.325 -8.02971 3.47653 0
M  V30 46263 C 846.835 -6.89602 1.41652 0
M  V30 46264 C 847.545 -5.59201 1.75185 0
M  V30 46265 N 847.495 -4.58235 0.662552 0
M  V30 46266 H 850.334 -8.65116 0.777161 0
M  V30 46267 H 850.606 -6.90173 0.474152 0
M  V30 46268 H 849.738 -7.66548 2.79458 0
M  V30 46269 P 845.775 -8.03563 3.84925 0
M  V30 46270 O 845.555 -8.85821 5.0569 0
M  V30 46271 O 844.985 -8.41101 2.65469 0
M  V30 46272 O 845.525 -6.4965 4.18908 0
M  V30 46273 C 846.465 -5.80886 5.05289 0
M  V30 46274 C 845.735 -4.78366 5.89277 0
M  V30 46275 O 845.525 -3.58302 5.08433 0
M  V30 46276 C 844.335 -5.16748 6.36559 0
M  V30 46277 O 843.945 -4.45271 7.53232 0
M  V30 46278 C 843.455 -4.74572 5.19863 0
M  V30 46279 C 844.165 -3.49373 4.70338 0
M  V30 46280 N 844.115 -3.31704 3.22876 0
M  V30 46281 C 843.965 -2.03326 2.74871 0
M  V30 46282 O 843.875 -1.06486 3.48076 0
M  V30 46283 N 843.925 -1.91838 1.37456 0
M  V30 46284 C 844.015 -2.94295 0.462035 0
M  V30 46285 O 843.965 -2.71763 -0.752928 0
M  V30 46286 C 844.165 -4.25064 1.05249 0
M  V30 46287 C 844.275 -5.39815 0.095697 0
M  V30 46288 C 844.215 -4.40214 2.39192 0
M  V30 46289 H 846.956 -6.54063 5.71245 0
M  V30 46290 H 847.225 -5.30339 4.43905 0
M  V30 46291 H 846.358 -4.55889 6.76652 0
M  V30 46292 H 843.703 -2.6167 5.17842 0
M  V30 46293 H 843.424 -5.52155 4.41878 0
M  V30 46294 H 842.432 -4.51918 5.53297 0
M  V30 46295 H 844.266 -6.25055 6.55162 0
M  V30 46296 H 844.337 -5.39798 2.81523 0
M  V30 46297 H 843.307 -5.91593 0.0279582 0
M  V30 46298 H 845.044 -6.10038 0.450573 0
M  V30 46299 H 844.556 -5.02007 -0.89937 0
M  V30 46300 H 843.82 -0.995326 1.00435 0
M  V30 46301 P 842.395 -4.23843 7.83734 0
M  V30 46302 O 842.175 -4.19407 9.29784 0
M  V30 46303 O 841.605 -5.24426 7.09156 0
M  V30 46304 O 842.145 -2.7935 7.20758 0
M  V30 46305 C 843.085 -1.7299 7.50419 0
M  V30 46306 C 842.355 -0.406376 7.57911 0
M  V30 46307 O 842.145 0.0897726 6.21935 0
M  V30 46308 C 840.955 -0.447224 8.1878 0
M  V30 46309 O 840.565 0.825065 8.71101 0
M  V30 46310 C 840.075 -0.783801 6.99623 0
M  V30 46311 C 840.785 -0.0619192 5.85967 0
M  V30 46312 N 840.735 -0.7859 4.56281 0
M  V30 46313 H 843.574 -1.93423 8.4679 0
M  V30 46314 H 843.846 -1.68181 6.71046 0
M  V30 46315 H 842.978 0.289041 8.15388 0
M  V30 46316 P 839.015 1.17771 8.83182 0
M  V30 46317 O 838.795 2.07206 9.98732 0
M  V30 46318 O 838.225 -0.0743816 8.81969 0
M  V30 46319 O 838.765 1.97652 7.47304 0
M  V30 46320 C 839.705 3.01133 7.08783 0
M  V30 46321 C 838.975 4.12613 6.37049 0
M  V30 46322 O 838.765 3.72827 4.97879 0
M  V30 46323 C 837.575 4.45085 6.88694 0
M  V30 46324 O 837.185 5.7877 6.5624 0
M  V30 46325 C 836.695 3.47817 6.12078 0
M  V30 46326 C 837.405 3.39414 4.77697 0
M  V30 46327 N 837.355 2.04615 4.15333 0
M  V30 46328 H 840.194 3.41248 7.98759 0
M  V30 46329 H 840.466 2.5837 6.41742 0
M  V30 46330 H 839.598 5.02657 6.42673 0
M  V30 46331 P 835.635 6.144 6.45285 0
M  V30 46332 O 835.415 7.54673 6.86199 0
M  V30 46333 O 834.845 5.12391 7.179 0
M  V30 46334 O 835.385 5.99158 4.88404 0
M  V30 46335 C 836.325 6.60234 3.96415 0
M  V30 46336 C 835.595 7.08259 2.72856 0
M  V30 46337 O 835.385 5.9427 1.83651 0
M  V30 46338 C 834.195 7.64886 2.9555 0
M  V30 46339 O 833.805 8.53963 1.90717 0
M  V30 46340 C 833.315 6.4116 2.90739 0
M  V30 46341 C 834.025 5.55375 1.86963 0
M  V30 46342 N 833.975 4.09664 2.15742 0
M  V30 46343 H 836.814 7.45574 4.45629 0
M  V30 46344 H 837.086 5.86232 3.67314 0
M  V30 46345 H 836.218 7.84412 2.24479 0
M  V30 46346 P 832.255 8.7635 1.60911 0
M  V30 46347 O 832.035 10.1388 1.11561 0
M  V30 46348 O 831.465 8.36503 2.79617 0
M  V30 46349 O 832.005 7.71806 0.42951 0
M  V30 46350 C 832.945 7.67148 -0.673689 0
M  V30 46351 C 832.215 7.33374 -1.95559 0
M  V30 46352 O 832.005 5.88721 -2.00726 0
M  V30 46353 C 830.815 7.92526 -2.10483 0
M  V30 46354 O 830.425 8.02971 -3.47653 0
M  V30 46355 C 829.935 6.89602 -1.41652 0
M  V30 46356 C 830.645 5.59201 -1.75185 0
M  V30 46357 N 830.595 4.58301 -0.657969 0
M  V30 46358 H 833.434 8.65116 -0.777161 0
M  V30 46359 H 833.706 6.9022 -0.46725 0
M  V30 46360 H 832.838 7.66548 -2.79458 0
M  V30 46361 H 830.183 5.16165 -2.65183 0
M  V30 46362 H 829.903 7.06433 -0.329384 0
M  V30 46363 H 828.912 6.90926 -1.82021 0
M  V30 46364 H 830.746 8.90873 -1.62657 0
M  V30 46365 P 828.875 8.03563 -3.84925 0
M  V30 46366 O 828.655 8.85821 -5.0569 0
M  V30 46367 O 828.085 8.41101 -2.65469 0
M  V30 46368 O 828.625 6.4965 -4.18908 0
M  V30 46369 C 829.565 5.80886 -5.05289 0
M  V30 46370 C 828.835 4.78366 -5.89277 0
M  V30 46371 O 828.625 3.58302 -5.08433 0
M  V30 46372 C 827.435 5.16748 -6.36559 0
M  V30 46373 O 827.045 4.45271 -7.53232 0
M  V30 46374 C 826.555 4.74572 -5.19863 0
M  V30 46375 C 827.265 3.49373 -4.70338 0
M  V30 46376 N 827.215 3.31704 -3.22876 0
M  V30 46377 C 827.065 2.03326 -2.74871 0
M  V30 46378 O 826.975 1.06486 -3.48076 0
M  V30 46379 N 827.025 1.91838 -1.37456 0
M  V30 46380 C 827.115 2.94295 -0.462035 0
M  V30 46381 O 827.065 2.71763 0.752928 0
M  V30 46382 C 827.265 4.25064 -1.05249 0
M  V30 46383 C 827.375 5.39815 -0.095697 0
M  V30 46384 C 827.315 4.40214 -2.39192 0
M  V30 46385 H 830.056 6.54063 -5.71245 0
M  V30 46386 H 830.325 5.30339 -4.43905 0
M  V30 46387 H 829.458 4.55889 -6.76652 0
M  V30 46388 H 826.803 2.6167 -5.17842 0
M  V30 46389 H 826.524 5.52155 -4.41878 0
M  V30 46390 H 825.532 4.51918 -5.53297 0
M  V30 46391 H 827.366 6.25055 -6.55162 0
M  V30 46392 H 827.437 5.39798 -2.81523 0
M  V30 46393 H 826.407 5.91593 -0.0279582 0
M  V30 46394 H 828.144 6.10038 -0.450573 0
M  V30 46395 H 827.656 5.02007 0.89937 0
M  V30 46396 H 826.92 0.995326 -1.00435 0
M  V30 46397 P 825.495 4.23843 -7.83734 0
M  V30 46398 O 825.275 4.19407 -9.29784 0
M  V30 46399 O 824.705 5.24426 -7.09156 0
M  V30 46400 O 825.245 2.7935 -7.20758 0
M  V30 46401 C 826.185 1.7299 -7.50419 0
M  V30 46402 C 825.455 0.406376 -7.57911 0
M  V30 46403 O 825.245 -0.0897726 -6.21935 0
M  V30 46404 C 824.055 0.447224 -8.1878 0
M  V30 46405 O 823.665 -0.825065 -8.71101 0
M  V30 46406 C 823.175 0.783801 -6.99623 0
M  V30 46407 C 823.885 0.0619192 -5.85967 0
M  V30 46408 N 823.835 0.790462 -4.56202 0
M  V30 46409 H 826.674 1.93423 -8.4679 0
M  V30 46410 H 826.946 1.68852 -6.70877 0
M  V30 46411 H 826.078 -0.289041 -8.15388 0
M  V30 46412 H 823.423 -0.927006 -5.72848 0
M  V30 46413 H 823.143 1.86973 -6.82036 0
M  V30 46414 H 822.152 0.403953 -7.13357 0
M  V30 46415 H 823.986 1.20599 -8.97534 0
M  V30 46416 P 822.115 -1.17771 -8.83182 0
M  V30 46417 O 821.895 -2.07206 -9.98732 0
M  V30 46418 O 821.325 0.0743816 -8.81969 0
M  V30 46419 O 821.865 -1.97652 -7.47304 0
M  V30 46420 C 822.805 -3.01133 -7.08783 0
M  V30 46421 C 822.075 -4.12613 -6.37049 0
M  V30 46422 O 821.865 -3.72827 -4.97879 0
M  V30 46423 C 820.675 -4.45085 -6.88694 0
M  V30 46424 O 820.285 -5.7877 -6.5624 0
M  V30 46425 C 819.795 -3.47817 -6.12078 0
M  V30 46426 C 820.505 -3.39414 -4.77697 0
M  V30 46427 N 820.455 -2.04615 -4.15333 0
M  V30 46428 H 823.294 -3.41248 -7.98759 0
M  V30 46429 H 823.566 -2.5837 -6.41742 0
M  V30 46430 H 822.698 -5.02657 -6.42673 0
M  V30 46431 P 818.735 -6.144 -6.45285 0
M  V30 46432 O 818.515 -7.54673 -6.86199 0
M  V30 46433 O 817.945 -5.12391 -7.179 0
M  V30 46434 O 818.485 -5.99236 -4.88467 0
M  V30 46435 C 819.425 -6.60234 -3.96415 0
M  V30 46436 C 818.695 -7.08079 -2.736 0
M  V30 46437 O 818.485 -5.94365 -1.8368 0
M  V30 46438 C 817.295 -7.64886 -2.9555 0
M  V30 46439 O 816.905 -8.5406 -1.90739 0
M  V30 46440 C 816.415 -6.4116 -2.90739 0
M  V30 46441 C 817.125 -5.55375 -1.86963 0
M  V30 46442 N 817.075 -4.09664 -2.15742 0
M  V30 46443 C 816.925 -3.22231 -1.08477 0
M  V30 46444 O 816.835 -3.68951 0.0600489 0
M  V30 46445 N 816.875 -1.76692 -1.48799 0
M  V30 46446 C 816.975 -1.41695 -2.57602 0
M  V30 46447 N 816.925 -0.107296 -2.75791 0
M  V30 46448 C 817.125 -2.29178 -3.69733 0
M  V30 46449 C 817.175 -3.62753 -3.42653 0
M  V30 46450 H 819.915 -7.45488 -4.45578 0
M  V30 46451 H 820.185 -5.86232 -3.67314 0
M  V30 46452 H 819.318 -7.84508 -2.24507 0
M  V30 46453 H 816.663 -5.73556 -0.888715 0
M  V30 46454 H 816.383 -5.9096 -3.88638 0
M  V30 46455 H 815.392 -6.66053 -2.58894 0
M  V30 46456 H 817.226 -8.16339 -3.92049 0
M  V30 46457 H 817.298 -4.33052 -4.24913 0
M  V30 46458 H 817.196 -1.9103 -4.71577 0
M  V30 46459 H 816.808 0.521221 -1.95056 0
M  V30 46460 H 817.004 0.286429 -3.70695 0
M  V30 46461 P 815.355 -8.7635 -1.60911 0
M  V30 46462 O 815.135 -10.1388 -1.11561 0
M  V30 46463 O 814.565 -8.36503 -2.79617 0
M  V30 46464 O 815.105 -7.71806 -0.42951 0
M  V30 46465 C 816.045 -7.66948 0.673514 0
M  V30 46466 C 815.315 -7.33374 1.95559 0
M  V30 46467 O 815.105 -5.88721 2.00726 0
M  V30 46468 C 813.915 -7.92218 2.1125 0
M  V30 46469 O 813.525 -8.02971 3.47653 0
M  V30 46470 C 813.035 -6.89504 1.41631 0
M  V30 46471 C 813.745 -5.59106 1.75155 0
M  V30 46472 N 813.695 -4.58136 0.662409 0
M  V30 46473 C 813.545 -3.26059 1.02863 0
M  V30 46474 O 813.455 -2.90743 2.19009 0
M  V30 46475 N 813.505 -2.35995 -0.0155585 0
M  V30 46476 C 813.595 -2.65248 -1.35603 0
M  V30 46477 C 813.745 -4.05747 -1.64698 0
M  V30 46478 C 813.795 -4.96734 -0.652411 0
M  V30 46479 H 816.536 -8.64917 0.776982 0
M  V30 46480 H 816.805 -6.89974 0.474015 0
M  V30 46481 H 815.938 -7.66548 2.79458 0
M  V30 46482 H 813.283 -5.16076 2.65138 0
M  V30 46483 H 813.004 -7.06433 0.329384 0
M  V30 46484 H 812.012 -6.90829 1.81996 0
M  V30 46485 H 813.846 -8.90774 1.62639 0
M  V30 46486 H 813.917 -6.02181 -0.895285 0
M  V30 46487 P 811.975 -8.03563 3.84925 0
M  V30 46488 O 811.755 -8.85821 5.0569 0
M  V30 46489 O 811.185 -8.41101 2.65469 0
M  V30 46490 O 811.725 -6.4965 4.18908 0
M  V30 46491 C 812.665 -5.81037 5.05421 0
M  V30 46492 C 811.935 -4.78366 5.89277 0
M  V30 46493 O 811.725 -3.58302 5.08433 0
M  V30 46494 C 810.535 -5.17448 6.36119 0
M  V30 46495 O 810.145 -4.45271 7.53232 0
M  V30 46496 C 809.655 -4.74639 5.19936 0
M  V30 46497 C 810.365 -3.49432 4.70418 0
M  V30 46498 N 810.315 -3.31776 3.22945 0
M  V30 46499 H 813.154 -6.54213 5.71376 0
M  V30 46500 H 813.426 -5.30492 4.44033 0
M  V30 46501 H 812.558 -4.55889 6.76652 0
M  V30 46502 P 808.595 -4.23843 7.83734 0
M  V30 46503 O 808.375 -4.19407 9.29784 0
M  V30 46504 O 807.805 -5.24426 7.09156 0
M  V30 46505 O 808.345 -2.7935 7.20758 0
M  V30 46506 C 809.285 -1.7299 7.50419 0
M  V30 46507 C 808.555 -0.406376 7.57911 0
M  V30 46508 O 808.345 0.0897726 6.21935 0
M  V30 46509 C 807.155 -0.447224 8.1878 0
M  V30 46510 O 806.765 0.825065 8.71101 0
M  V30 46511 C 806.275 -0.783801 6.99623 0
M  V30 46512 C 806.985 -0.0619192 5.85967 0
M  V30 46513 N 806.935 -0.790462 4.56202 0
M  V30 46514 H 809.774 -1.93423 8.4679 0
M  V30 46515 H 810.046 -1.68852 6.70877 0
M  V30 46516 H 809.178 0.289041 8.15388 0
M  V30 46517 H 806.523 0.927006 5.72848 0
M  V30 46518 H 806.243 -1.86973 6.82036 0
M  V30 46519 H 805.252 -0.403953 7.13357 0
M  V30 46520 H 807.086 -1.20599 8.97534 0
M  V30 46521 P 805.215 1.17771 8.83182 0
M  V30 46522 O 804.995 2.07206 9.98732 0
M  V30 46523 O 804.425 -0.0743816 8.81969 0
M  V30 46524 O 804.965 1.97652 7.47304 0
M  V30 46525 C 805.905 3.01055 7.08599 0
M  V30 46526 C 805.175 4.12613 6.37049 0
M  V30 46527 O 804.965 3.72827 4.97879 0
M  V30 46528 C 803.775 4.45719 6.88164 0
M  V30 46529 O 803.385 5.7877 6.5624 0
M  V30 46530 C 802.895 3.47768 6.11991 0
M  V30 46531 C 803.605 3.39356 4.77615 0
M  V30 46532 N 803.555 2.04571 4.15244 0
M  V30 46533 C 803.405 1.98587 2.78314 0
M  V30 46534 O 803.315 2.98134 2.08835 0
M  V30 46535 N 803.365 0.714467 2.24925 0
M  V30 46536 C 803.455 -0.470001 2.94169 0
M  V30 46537 O 803.405 -1.55587 2.35195 0
M  V30 46538 C 803.605 -0.312541 4.36783 0
M  V30 46539 C 803.715 -1.57711 5.16352 0
M  V30 46540 C 803.655 0.914512 4.92583 0
M  V30 46541 H 806.396 3.41169 7.98575 0
M  V30 46542 H 806.665 2.58295 6.41556 0
M  V30 46543 H 805.798 5.02657 6.42673 0
M  V30 46544 H 803.143 4.11637 4.08885 0
M  V30 46545 H 802.864 2.49626 6.61679 0
M  V30 46546 H 801.872 3.86566 6.00778 0
M  V30 46547 H 803.706 4.29943 7.96918 0
M  V30 46548 H 803.777 1.00937 6.00374 0
M  V30 46549 H 802.747 -1.80153 5.63503 0
M  V30 46550 H 804.484 -1.4566 5.94104 0
M  V30 46551 H 803.996 -2.40664 4.49645 0
M  V30 46552 H 803.26 0.647622 1.25697 0
M  V30 46553 P 801.835 6.144 6.45285 0
M  V30 46554 O 801.615 7.54673 6.86199 0
M  V30 46555 O 801.045 5.12391 7.179 0
M  V30 46556 O 801.585 5.99236 4.88467 0
M  V30 46557 C 802.525 6.60234 3.96415 0
M  V30 46558 C 801.795 7.08079 2.736 0
M  V30 46559 O 801.585 5.94365 1.8368 0
M  V30 46560 C 800.395 7.64886 2.9555 0
M  V30 46561 O 800.005 8.5406 1.90739 0
M  V30 46562 C 799.515 6.4116 2.90739 0
M  V30 46563 C 800.225 5.55375 1.86963 0
M  V30 46564 N 800.175 4.09664 2.15742 0
M  V30 46565 C 800.025 3.22231 1.08477 0
M  V30 46566 O 799.935 3.68951 -0.0600489 0
M  V30 46567 N 799.975 1.76692 1.48799 0
M  V30 46568 C 800.075 1.41695 2.57602 0
M  V30 46569 N 800.025 0.107296 2.75791 0
M  V30 46570 C 800.225 2.29178 3.69733 0
M  V30 46571 C 800.275 3.62753 3.42653 0
M  V30 46572 H 803.015 7.45488 4.45578 0
M  V30 46573 H 803.285 5.86232 3.67314 0
M  V30 46574 H 802.418 7.84508 2.24507 0
M  V30 46575 H 799.763 5.73556 0.888715 0
M  V30 46576 H 799.483 5.9096 3.88638 0
M  V30 46577 H 798.492 6.66053 2.58894 0
M  V30 46578 H 800.326 8.16339 3.92049 0
M  V30 46579 H 800.398 4.33052 4.24913 0
M  V30 46580 H 800.296 1.9103 4.71577 0
M  V30 46581 H 799.908 -0.521221 1.95056 0
M  V30 46582 H 800.104 -0.286429 3.70695 0
M  V30 46583 P 798.455 8.7635 1.60911 0
M  V30 46584 O 798.235 10.1388 1.11561 0
M  V30 46585 O 797.665 8.36503 2.79617 0
M  V30 46586 O 798.205 7.71806 0.42951 0
M  V30 46587 C 799.145 7.67148 -0.673689 0
M  V30 46588 C 798.415 7.33374 -1.95559 0
M  V30 46589 O 798.205 5.88721 -2.00726 0
M  V30 46590 C 797.015 7.92526 -2.10483 0
M  V30 46591 O 796.625 8.02971 -3.47653 0
M  V30 46592 C 796.135 6.89602 -1.41652 0
M  V30 46593 C 796.845 5.59201 -1.75185 0
M  V30 46594 N 796.795 4.58235 -0.662552 0
M  V30 46595 H 799.634 8.65116 -0.777161 0
M  V30 46596 H 799.906 6.90173 -0.474152 0
M  V30 46597 H 799.038 7.66548 -2.79458 0
M  V30 46598 P 795.075 8.03563 -3.84925 0
M  V30 46599 O 794.855 8.85821 -5.0569 0
M  V30 46600 O 794.285 8.41101 -2.65469 0
M  V30 46601 O 794.825 6.4965 -4.18908 0
M  V30 46602 C 795.765 5.81037 -5.05421 0
M  V30 46603 C 795.035 4.78366 -5.89277 0
M  V30 46604 O 794.825 3.58302 -5.08433 0
M  V30 46605 C 793.635 5.17448 -6.36119 0
M  V30 46606 O 793.245 4.45271 -7.53232 0
M  V30 46607 C 792.755 4.74639 -5.19936 0
M  V30 46608 C 793.465 3.49432 -4.70418 0
M  V30 46609 N 793.415 3.32099 -3.22613 0
M  V30 46610 H 796.254 6.54213 -5.71376 0
M  V30 46611 H 796.526 5.30936 -4.43503 0
M  V30 46612 H 795.658 4.55889 -6.76652 0
M  V30 46613 H 793.003 2.61715 -5.17932 0
M  V30 46614 H 792.723 5.52155 -4.41878 0
M  V30 46615 H 791.732 4.51981 -5.53374 0
M  V30 46616 H 793.566 6.25124 -6.55234 0
M  V30 46617 P 791.695 4.23843 -7.83734 0
M  V30 46618 O 791.475 4.19407 -9.29784 0
M  V30 46619 O 790.905 5.24426 -7.09156 0
M  V30 46620 O 791.445 2.7935 -7.20758 0
M  V30 46621 C 792.385 1.7299 -7.50419 0
M  V30 46622 C 791.655 0.406376 -7.57911 0
M  V30 46623 O 791.445 -0.0897726 -6.21935 0
M  V30 46624 C 790.255 0.447224 -8.1878 0
M  V30 46625 O 789.865 -0.825065 -8.71101 0
M  V30 46626 C 789.375 0.783801 -6.99623 0
M  V30 46627 C 790.085 0.0619192 -5.85967 0
M  V30 46628 N 790.035 0.7859 -4.56281 0
M  V30 46629 H 792.874 1.93423 -8.4679 0
M  V30 46630 H 793.146 1.68181 -6.71046 0
M  V30 46631 H 792.278 -0.289041 -8.15388 0
M  V30 46632 P 788.315 -1.17771 -8.83182 0
M  V30 46633 O 788.095 -2.07206 -9.98732 0
M  V30 46634 O 787.525 0.0743816 -8.81969 0
M  V30 46635 O 788.065 -1.97652 -7.47304 0
M  V30 46636 C 789.005 -3.01055 -7.08599 0
M  V30 46637 C 788.275 -4.12613 -6.37049 0
M  V30 46638 O 788.065 -3.72827 -4.97879 0
M  V30 46639 C 786.875 -4.45719 -6.88164 0
M  V30 46640 O 786.485 -5.7877 -6.5624 0
M  V30 46641 C 785.995 -3.47768 -6.11991 0
M  V30 46642 C 786.705 -3.39356 -4.77615 0
M  V30 46643 N 786.655 -2.04571 -4.15244 0
M  V30 46644 C 786.505 -1.98587 -2.78314 0
M  V30 46645 O 786.415 -2.98134 -2.08835 0
M  V30 46646 N 786.465 -0.714467 -2.24925 0
M  V30 46647 C 786.555 0.470001 -2.94169 0
M  V30 46648 C 786.705 0.312541 -4.36783 0
M  V30 46649 C 786.755 -0.914512 -4.92583 0
M  V30 46650 H 789.496 -3.41169 -7.98575 0
M  V30 46651 H 789.765 -2.58295 -6.41556 0
M  V30 46652 H 788.898 -5.02657 -6.42673 0
M  V30 46653 H 786.243 -4.11637 -4.08885 0
M  V30 46654 H 785.964 -2.49626 -6.61679 0
M  V30 46655 H 784.972 -3.86566 -6.00778 0
M  V30 46656 H 786.806 -4.29943 -7.96918 0
M  V30 46657 H 786.877 -1.00937 -6.00374 0
M  V30 46658 P 784.935 -6.144 -6.45285 0
M  V30 46659 O 784.715 -7.54673 -6.86199 0
M  V30 46660 O 784.145 -5.12391 -7.179 0
M  V30 46661 O 784.685 -5.99158 -4.88404 0
M  V30 46662 C 785.625 -6.60234 -3.96415 0
M  V30 46663 C 784.895 -7.08259 -2.72856 0
M  V30 46664 O 784.685 -5.9427 -1.83651 0
M  V30 46665 C 783.495 -7.64886 -2.9555 0
M  V30 46666 O 783.105 -8.53963 -1.90717 0
M  V30 46667 C 782.615 -6.4116 -2.90739 0
M  V30 46668 C 783.325 -5.55375 -1.86963 0
M  V30 46669 N 783.275 -4.09664 -2.15742 0
M  V30 46670 H 786.114 -7.45574 -4.45629 0
M  V30 46671 H 786.386 -5.86232 -3.67314 0
M  V30 46672 H 785.518 -7.84412 -2.24479 0
M  V30 46673 P 781.555 -8.7635 -1.60911 0
M  V30 46674 O 781.335 -10.1388 -1.11561 0
M  V30 46675 O 780.765 -8.36503 -2.79617 0
M  V30 46676 O 781.305 -7.71806 -0.42951 0
M  V30 46677 C 782.245 -7.66948 0.673514 0
M  V30 46678 C 781.515 -7.33374 1.95559 0
M  V30 46679 O 781.305 -5.88721 2.00726 0
M  V30 46680 C 780.115 -7.92218 2.1125 0
M  V30 46681 O 779.725 -8.02971 3.47653 0
M  V30 46682 C 779.235 -6.89504 1.41631 0
M  V30 46683 C 779.945 -5.59106 1.75155 0
M  V30 46684 N 779.895 -4.58136 0.662409 0
M  V30 46685 C 779.745 -3.26059 1.02863 0
M  V30 46686 O 779.655 -2.90743 2.19009 0
M  V30 46687 N 779.705 -2.35995 -0.0155585 0
M  V30 46688 C 779.795 -2.65248 -1.35603 0
M  V30 46689 O 779.745 -1.75605 -2.20651 0
M  V30 46690 C 779.945 -4.05747 -1.64698 0
M  V30 46691 C 780.055 -4.42345 -3.09553 0
M  V30 46692 C 779.995 -4.96734 -0.652411 0
M  V30 46693 H 782.736 -8.64917 0.776982 0
M  V30 46694 H 783.005 -6.89974 0.474015 0
M  V30 46695 H 782.138 -7.66548 2.79458 0
M  V30 46696 H 779.483 -5.16076 2.65138 0
M  V30 46697 H 779.204 -7.06433 0.329384 0
M  V30 46698 H 778.212 -6.90829 1.81996 0
M  V30 46699 H 780.046 -8.90774 1.62639 0
M  V30 46700 H 780.117 -6.02181 -0.895285 0
M  V30 46701 H 779.087 -4.80252 -3.45468 0
M  V30 46702 H 780.824 -5.20015 -3.22119 0
M  V30 46703 H 780.336 -3.53269 -3.67833 0
M  V30 46704 H 779.6 -1.39558 0.227499 0
M  V30 46705 P 778.175 -8.03563 3.84925 0
M  V30 46706 O 777.955 -8.85821 5.0569 0
M  V30 46707 O 777.385 -8.41101 2.65469 0
M  V30 46708 O 777.925 -6.4965 4.18908 0
M  V30 46709 C 778.865 -5.80886 5.05289 0
M  V30 46710 C 778.135 -4.78366 5.89277 0
M  V30 46711 O 777.925 -3.58302 5.08433 0
M  V30 46712 C 776.735 -5.16748 6.36559 0
M  V30 46713 O 776.345 -4.45271 7.53232 0
M  V30 46714 C 775.855 -4.74572 5.19863 0
M  V30 46715 C 776.565 -3.49373 4.70338 0
M  V30 46716 N 776.515 -3.31704 3.22876 0
M  V30 46717 C 776.365 -2.03326 2.74871 0
M  V30 46718 O 776.275 -1.06486 3.48076 0
M  V30 46719 N 776.325 -1.91838 1.37456 0
M  V30 46720 C 776.415 -2.94295 0.462035 0
M  V30 46721 O 776.365 -2.71763 -0.752928 0
M  V30 46722 C 776.565 -4.25064 1.05249 0
M  V30 46723 C 776.675 -5.39815 0.095697 0
M  V30 46724 C 776.615 -4.40214 2.39192 0
M  V30 46725 H 779.356 -6.54063 5.71245 0
M  V30 46726 H 779.625 -5.30339 4.43905 0
M  V30 46727 H 778.758 -4.55889 6.76652 0
M  V30 46728 H 776.103 -2.6167 5.17842 0
M  V30 46729 H 775.824 -5.52155 4.41878 0
M  V30 46730 H 774.832 -4.51918 5.53297 0
M  V30 46731 H 776.666 -6.25055 6.55162 0
M  V30 46732 H 776.737 -5.39798 2.81523 0
M  V30 46733 H 775.707 -5.91593 0.0279582 0
M  V30 46734 H 777.444 -6.10038 0.450573 0
M  V30 46735 H 776.956 -5.02007 -0.89937 0
M  V30 46736 H 776.22 -0.995326 1.00435 0
M  V30 46737 P 774.795 -4.23843 7.83734 0
M  V30 46738 O 774.575 -4.19407 9.29784 0
M  V30 46739 O 774.005 -5.24426 7.09156 0
M  V30 46740 O 774.545 -2.7935 7.20758 0
M  V30 46741 C 775.485 -1.72945 7.50224 0
M  V30 46742 C 774.755 -0.406376 7.57911 0
M  V30 46743 O 774.545 0.0897726 6.21935 0
M  V30 46744 C 773.355 -0.438983 8.18724 0
M  V30 46745 O 772.965 0.825065 8.71101 0
M  V30 46746 C 772.475 -0.783689 6.99524 0
M  V30 46747 C 773.185 -0.0619086 5.85867 0
M  V30 46748 N 773.135 -0.78573 4.56183 0
M  V30 46749 C 772.985 -0.0292889 3.41887 0
M  V30 46750 O 772.895 1.18445 3.4419 0
M  V30 46751 N 772.945 -0.744061 2.23964 0
M  V30 46752 C 773.035 -2.10932 2.10362 0
M  V30 46753 O 772.985 -2.64117 0.98825 0
M  V30 46754 C 773.185 -2.8202 3.34994 0
M  V30 46755 C 773.295 -4.31095 3.25037 0
M  V30 46756 C 773.235 -2.15547 4.52261 0
M  V30 46757 H 775.976 -1.93379 8.46595 0
M  V30 46758 H 776.245 -1.68132 6.70852 0
M  V30 46759 H 775.378 0.289041 8.15388 0
M  V30 46760 H 772.723 0.926847 5.72749 0
M  V30 46761 H 772.444 -1.86973 6.82036 0
M  V30 46762 H 771.452 -0.403896 7.13257 0
M  V30 46763 H 773.286 -1.20585 8.97435 0
M  V30 46764 H 773.357 -2.71231 5.45042 0
M  V30 46765 H 772.327 -4.76966 3.49992 0
M  V30 46766 H 774.064 -4.67047 3.95024 0
M  V30 46767 H 773.576 -4.58996 2.22312 0
M  V30 46768 H 772.84 -0.214893 1.39758 0
M  V30 46769 P 771.415 1.17771 8.83182 0
M  V30 46770 O 771.195 2.07206 9.98732 0
M  V30 46771 O 770.625 -0.0743816 8.81969 0
M  V30 46772 O 771.165 1.97652 7.47304 0
M  V30 46773 C 772.105 3.01133 7.08783 0
M  V30 46774 C 771.375 4.12613 6.37049 0
M  V30 46775 O 771.165 3.72827 4.97879 0
M  V30 46776 C 769.975 4.45085 6.88694 0
M  V30 46777 O 769.585 5.7877 6.5624 0
M  V30 46778 C 769.095 3.47817 6.12078 0
M  V30 46779 C 769.805 3.39414 4.77697 0
M  V30 46780 N 769.755 2.04615 4.15333 0
M  V30 46781 H 772.594 3.41248 7.98759 0
M  V30 46782 H 772.866 2.5837 6.41742 0
M  V30 46783 H 771.998 5.02657 6.42673 0
M  V30 46784 P 768.035 6.144 6.45285 0
M  V30 46785 O 767.815 7.54673 6.86199 0
M  V30 46786 O 767.245 5.12391 7.179 0
M  V30 46787 O 767.785 5.99158 4.88404 0
M  V30 46788 C 768.725 6.60062 3.96313 0
M  V30 46789 C 767.995 7.08259 2.72856 0
M  V30 46790 O 767.785 5.9427 1.83651 0
M  V30 46791 C 766.595 7.65087 2.94749 0
M  V30 46792 O 766.205 8.53963 1.90717 0
M  V30 46793 C 765.715 6.41069 2.90698 0
M  V30 46794 C 766.425 5.5528 1.86931 0
M  V30 46795 N 766.375 4.09575 2.15696 0
M  V30 46796 C 766.225 3.24249 1.08435 0
M  V30 46797 O 766.135 3.63946 -0.0628747 0
M  V30 46798 N 766.185 1.90009 1.39973 0
M  V30 46799 C 766.275 1.34884 2.65614 0
M  V30 46800 C 766.425 2.3145 3.71736 0
M  V30 46801 C 766.475 3.63518 3.44754 0
M  V30 46802 H 769.216 7.45402 4.45526 0
M  V30 46803 H 769.485 5.86062 3.67208 0
M  V30 46804 H 768.618 7.84412 2.24479 0
M  V30 46805 H 765.963 5.73358 0.888409 0
M  V30 46806 H 765.684 5.90877 3.88583 0
M  V30 46807 H 764.692 6.65867 2.58821 0
M  V30 46808 H 766.526 8.16248 3.92006 0
M  V30 46809 H 766.597 4.34551 4.26383 0
M  V30 46810 P 764.656 8.7635 1.60911 0
M  V30 46811 O 764.436 10.1388 1.11561 0
M  V30 46812 O 763.866 8.36503 2.79617 0
M  V30 46813 O 764.406 7.71806 0.42951 0
M  V30 46814 C 765.346 7.67148 -0.673689 0
M  V30 46815 C 764.616 7.33374 -1.95559 0
M  V30 46816 O 764.406 5.88721 -2.00726 0
M  V30 46817 C 763.216 7.92526 -2.10483 0
M  V30 46818 O 762.826 8.02971 -3.47653 0
M  V30 46819 C 762.336 6.89602 -1.41652 0
M  V30 46820 C 763.046 5.59201 -1.75185 0
M  V30 46821 N 762.996 4.58235 -0.662552 0
M  V30 46822 H 765.835 8.65116 -0.777161 0
M  V30 46823 H 766.107 6.90173 -0.474152 0
M  V30 46824 H 765.239 7.66548 -2.79458 0
M  V30 46825 P 761.276 8.03563 -3.84925 0
M  V30 46826 O 761.056 8.85821 -5.0569 0
M  V30 46827 O 760.486 8.41101 -2.65469 0
M  V30 46828 O 761.026 6.4965 -4.18908 0
M  V30 46829 C 761.966 5.81037 -5.05421 0
M  V30 46830 C 761.236 4.78366 -5.89277 0
M  V30 46831 O 761.026 3.58302 -5.08433 0
M  V30 46832 C 759.836 5.17448 -6.36119 0
M  V30 46833 O 759.446 4.45271 -7.53232 0
M  V30 46834 C 758.956 4.74639 -5.19936 0
M  V30 46835 C 759.666 3.49432 -4.70418 0
M  V30 46836 N 759.616 3.31776 -3.22945 0
M  V30 46837 C 759.696 4.27147 -2.23315 0
M  V30 46838 N 759.616 3.78447 -1.02186 0
M  V30 46839 C 759.476 2.41001 -1.21732 0
M  V30 46840 C 759.346 1.36111 -0.27694 0
M  V30 46841 O 759.326 1.42065 0.951767 0
M  V30 46842 N 759.226 0.113683 -0.912949 0
M  V30 46843 C 759.226 -0.0846396 -2.27943 0
M  V30 46844 N 759.096 -1.34737 -2.6916 0
M  V30 46845 N 759.356 0.902521 -3.16379 0
M  V30 46846 C 759.476 2.11937 -2.56849 0
M  V30 46847 H 762.455 6.54213 -5.71376 0
M  V30 46848 H 762.727 5.30492 -4.44033 0
M  V30 46849 H 761.859 4.55889 -6.76652 0
M  V30 46850 H 759.204 2.6176 -5.18021 0
M  V30 46851 H 758.924 5.52233 -4.41941 0
M  V30 46852 H 757.933 4.52045 -5.53452 0
M  V30 46853 H 759.767 6.25193 -6.55307 0
M  V30 46854 H 759.816 5.3351 -2.43857 0
M  V30 46855 H 759.134 -0.69331 -0.330371 0
M  V30 46856 H 759.097 -1.56433 -3.6988 0
M  V30 46857 H 758.996 -2.10701 -2.00133 0
M  V30 46858 P 757.896 4.23843 -7.83734 0
M  V30 46859 O 757.676 4.19407 -9.29784 0
M  V30 46860 O 757.106 5.24426 -7.09156 0
M  V30 46861 O 757.646 2.7935 -7.20758 0
M  V30 46862 C 758.586 1.7299 -7.50419 0
M  V30 46863 C 757.856 0.406376 -7.57911 0
M  V30 46864 O 757.646 -0.0897726 -6.21935 0
M  V30 46865 C 756.456 0.447224 -8.1878 0
M  V30 46866 O 756.066 -0.825065 -8.71101 0
M  V30 46867 C 755.576 0.783801 -6.99623 0
M  V30 46868 C 756.286 0.0619192 -5.85967 0
M  V30 46869 N 756.236 0.7859 -4.56281 0
M  V30 46870 H 759.075 1.93423 -8.4679 0
M  V30 46871 H 759.347 1.68181 -6.71046 0
M  V30 46872 H 758.479 -0.289041 -8.15388 0
M  V30 46873 P 754.516 -1.17771 -8.83182 0
M  V30 46874 O 754.296 -2.07206 -9.98732 0
M  V30 46875 O 753.726 0.0743816 -8.81969 0
M  V30 46876 O 754.266 -1.97652 -7.47304 0
M  V30 46877 C 755.206 -3.01133 -7.08783 0
M  V30 46878 C 754.476 -4.12613 -6.37049 0
M  V30 46879 O 754.266 -3.72827 -4.97879 0
M  V30 46880 C 753.076 -4.45085 -6.88694 0
M  V30 46881 O 752.686 -5.7877 -6.5624 0
M  V30 46882 C 752.196 -3.47817 -6.12078 0
M  V30 46883 C 752.906 -3.39414 -4.77697 0
M  V30 46884 N 752.856 -2.04199 -4.15538 0
M  V30 46885 H 755.695 -3.41248 -7.98759 0
M  V30 46886 H 755.967 -2.57728 -6.42 0
M  V30 46887 H 755.099 -5.02657 -6.42673 0
M  V30 46888 H 752.444 -4.11708 -4.08956 0
M  V30 46889 H 752.164 -2.49626 -6.61679 0
M  V30 46890 H 751.173 -3.8662 -6.00862 0
M  V30 46891 H 753.007 -4.29991 -7.97006 0
M  V30 46892 P 751.136 -6.144 -6.45285 0
M  V30 46893 O 750.916 -7.54673 -6.86199 0
M  V30 46894 O 750.346 -5.12391 -7.179 0
M  V30 46895 O 750.886 -5.99158 -4.88404 0
M  V30 46896 C 751.826 -6.60062 -3.96313 0
M  V30 46897 C 751.096 -7.08259 -2.72856 0
M  V30 46898 O 750.886 -5.9427 -1.83651 0
M  V30 46899 C 749.696 -7.65087 -2.94749 0
M  V30 46900 O 749.306 -8.53963 -1.90717 0
M  V30 46901 C 748.816 -6.41069 -2.90698 0
M  V30 46902 C 749.526 -5.5528 -1.86931 0
M  V30 46903 N 749.476 -4.09575 -2.15696 0
M  V30 46904 C 749.326 -3.24249 -1.08435 0
M  V30 46905 O 749.236 -3.63946 0.0628747 0
M  V30 46906 N 749.286 -1.90009 -1.39973 0
M  V30 46907 C 749.376 -1.34884 -2.65614 0
M  V30 46908 C 749.526 -2.3145 -3.71736 0
M  V30 46909 C 749.576 -3.63518 -3.44754 0
M  V30 46910 H 752.317 -7.45402 -4.45526 0
M  V30 46911 H 752.586 -5.86062 -3.67208 0
M  V30 46912 H 751.719 -7.84412 -2.24479 0
M  V30 46913 H 749.064 -5.73358 -0.888409 0
M  V30 46914 H 748.785 -5.90877 -3.88583 0
M  V30 46915 H 747.793 -6.65867 -2.58821 0
M  V30 46916 H 749.627 -8.16248 -3.92006 0
M  V30 46917 H 749.698 -4.34551 -4.26383 0
M  V30 46918 P 747.756 -8.7635 -1.60911 0
M  V30 46919 O 747.536 -10.1388 -1.11561 0
M  V30 46920 O 746.966 -8.36503 -2.79617 0
M  V30 46921 O 747.506 -7.71806 -0.42951 0
M  V30 46922 C 748.446 -7.67148 0.673689 0
M  V30 46923 C 747.716 -7.33374 1.95559 0
M  V30 46924 O 747.506 -5.88721 2.00726 0
M  V30 46925 C 746.316 -7.92526 2.10483 0
M  V30 46926 O 745.926 -8.02971 3.47653 0
M  V30 46927 C 745.436 -6.89602 1.41652 0
M  V30 46928 C 746.146 -5.59201 1.75185 0
M  V30 46929 N 746.096 -4.58235 0.662552 0
M  V30 46930 H 748.935 -8.65116 0.777161 0
M  V30 46931 H 749.207 -6.90173 0.474152 0
M  V30 46932 H 748.339 -7.66548 2.79458 0
M  V30 46933 P 744.376 -8.03563 3.84925 0
M  V30 46934 O 744.156 -8.85821 5.0569 0
M  V30 46935 O 743.586 -8.41101 2.65469 0
M  V30 46936 O 744.126 -6.4965 4.18908 0
M  V30 46937 C 745.066 -5.80886 5.05289 0
M  V30 46938 C 744.336 -4.78366 5.89277 0
M  V30 46939 O 744.126 -3.58302 5.08433 0
M  V30 46940 C 742.936 -5.16748 6.36559 0
M  V30 46941 O 742.546 -4.45271 7.53232 0
M  V30 46942 C 742.056 -4.74572 5.19863 0
M  V30 46943 C 742.766 -3.49373 4.70338 0
M  V30 46944 N 742.716 -3.31704 3.22876 0
M  V30 46945 C 742.566 -2.03326 2.74871 0
M  V30 46946 O 742.476 -1.06486 3.48076 0
M  V30 46947 N 742.526 -1.91838 1.37456 0
M  V30 46948 C 742.616 -2.94295 0.462035 0
M  V30 46949 O 742.566 -2.71763 -0.752928 0
M  V30 46950 C 742.766 -4.25064 1.05249 0
M  V30 46951 C 742.876 -5.39815 0.095697 0
M  V30 46952 C 742.816 -4.40214 2.39192 0
M  V30 46953 H 745.557 -6.54063 5.71245 0
M  V30 46954 H 745.826 -5.30339 4.43905 0
M  V30 46955 H 744.959 -4.55889 6.76652 0
M  V30 46956 H 742.304 -2.6167 5.17842 0
M  V30 46957 H 742.025 -5.52155 4.41878 0
M  V30 46958 H 741.033 -4.51918 5.53297 0
M  V30 46959 H 742.867 -6.25055 6.55162 0
M  V30 46960 H 742.938 -5.39798 2.81523 0
M  V30 46961 H 741.908 -5.91593 0.0279582 0
M  V30 46962 H 743.645 -6.10038 0.450573 0
M  V30 46963 H 743.157 -5.02007 -0.89937 0
M  V30 46964 H 742.421 -0.995326 1.00435 0
M  V30 46965 P 740.996 -4.23843 7.83734 0
M  V30 46966 O 740.776 -4.19407 9.29784 0
M  V30 46967 O 740.206 -5.24426 7.09156 0
M  V30 46968 O 740.746 -2.7935 7.20758 0
M  V30 46969 C 741.686 -1.72945 7.50224 0
M  V30 46970 C 740.956 -0.406376 7.57911 0
M  V30 46971 O 740.746 0.0897726 6.21935 0
M  V30 46972 C 739.556 -0.438983 8.18724 0
M  V30 46973 O 739.166 0.825065 8.71101 0
M  V30 46974 C 738.676 -0.783689 6.99524 0
M  V30 46975 C 739.386 -0.0619086 5.85867 0
M  V30 46976 N 739.336 -0.78573 4.56183 0
M  V30 46977 C 739.186 -0.0292889 3.41887 0
M  V30 46978 O 739.096 1.18445 3.4419 0
M  V30 46979 N 739.146 -0.744061 2.23964 0
M  V30 46980 C 739.236 -2.10932 2.10362 0
M  V30 46981 C 739.386 -2.8202 3.34994 0
M  V30 46982 C 739.436 -2.15547 4.52261 0
M  V30 46983 H 742.177 -1.93379 8.46595 0
M  V30 46984 H 742.446 -1.68132 6.70852 0
M  V30 46985 H 741.579 0.289041 8.15388 0
M  V30 46986 H 738.924 0.926847 5.72749 0
M  V30 46987 H 738.645 -1.86973 6.82036 0
M  V30 46988 H 737.653 -0.403896 7.13257 0
M  V30 46989 H 739.487 -1.20585 8.97435 0
M  V30 46990 H 739.558 -2.71231 5.45042 0
M  V30 46991 P 737.616 1.17771 8.83182 0
M  V30 46992 O 737.396 2.07206 9.98732 0
M  V30 46993 O 736.826 -0.0743816 8.81969 0
M  V30 46994 O 737.366 1.97652 7.47304 0
M  V30 46995 C 738.306 3.01133 7.08783 0
M  V30 46996 C 737.576 4.12613 6.37049 0
M  V30 46997 O 737.366 3.72827 4.97879 0
M  V30 46998 C 736.176 4.45085 6.88694 0
M  V30 46999 O 735.786 5.7877 6.5624 0
M  V30 47000 C 735.296 3.47817 6.12078 0
M  V30 47001 C 736.006 3.39414 4.77697 0
M  V30 47002 N 735.956 2.04615 4.15333 0
M  V30 47003 C 736.036 0.803897 4.75249 0
M  V30 47004 N 735.956 -0.197615 3.91502 0
M  V30 47005 C 735.816 0.413002 2.66823 0
M  V30 47006 C 735.686 -0.157221 1.38007 0
M  V30 47007 O 735.666 -1.34419 1.057 0
M  V30 47008 N 735.566 0.833136 0.390236 0
M  V30 47009 C 735.566 2.19402 0.623885 0
M  V30 47010 N 735.436 2.97622 -0.449677 0
M  V30 47011 N 735.696 2.73005 1.83601 0
M  V30 47012 C 735.816 1.78786 2.80935 0
M  V30 47013 H 738.795 3.41248 7.98759 0
M  V30 47014 H 739.067 2.5837 6.41742 0
M  V30 47015 H 738.199 5.02657 6.42673 0
M  V30 47016 H 735.544 4.11779 4.09026 0
M  V30 47017 H 735.264 2.49661 6.61772 0
M  V30 47018 H 734.273 3.86674 6.00946 0
M  V30 47019 H 736.107 4.30038 7.97094 0
M  V30 47020 H 736.156 0.670579 5.82754 0
M  V30 47021 H 735.474 0.528446 -0.557287 0
M  V30 47022 H 735.437 4.00117 -0.344773 0
M  V30 47023 H 735.336 2.55448 -1.38544 0
M  V30 47024 P 734.236 6.144 6.45285 0
M  V30 47025 O 734.016 7.54673 6.86199 0
M  V30 47026 O 733.446 5.12391 7.179 0
M  V30 47027 O 733.986 5.99158 4.88404 0
M  V30 47028 C 734.926 6.60234 3.96415 0
M  V30 47029 C 734.196 7.08259 2.72856 0
M  V30 47030 O 733.986 5.9427 1.83651 0
M  V30 47031 C 732.796 7.64886 2.9555 0
M  V30 47032 O 732.406 8.53963 1.90717 0
M  V30 47033 C 731.916 6.4116 2.90739 0
M  V30 47034 C 732.626 5.55375 1.86963 0
M  V30 47035 N 732.576 4.09664 2.15742 0
M  V30 47036 H 735.415 7.45574 4.45629 0
M  V30 47037 H 735.687 5.86232 3.67314 0
M  V30 47038 H 734.819 7.84412 2.24479 0
M  V30 47039 P 730.856 8.7635 1.60911 0
M  V30 47040 O 730.636 10.1388 1.11561 0
M  V30 47041 O 730.066 8.36503 2.79617 0
M  V30 47042 O 730.606 7.71806 0.42951 0
M  V30 47043 C 731.546 7.67148 -0.673689 0
M  V30 47044 C 730.816 7.33374 -1.95559 0
M  V30 47045 O 730.606 5.88721 -2.00726 0
M  V30 47046 C 729.416 7.92526 -2.10483 0
M  V30 47047 O 729.026 8.02971 -3.47653 0
M  V30 47048 C 728.536 6.89602 -1.41652 0
M  V30 47049 C 729.246 5.59201 -1.75185 0
M  V30 47050 N 729.196 4.58235 -0.662552 0
M  V30 47051 H 732.035 8.65116 -0.777161 0
M  V30 47052 H 732.307 6.90173 -0.474152 0
M  V30 47053 H 731.439 7.66548 -2.79458 0
M  V30 47054 P 727.476 8.03563 -3.84925 0
M  V30 47055 O 727.256 8.85821 -5.0569 0
M  V30 47056 O 726.686 8.41101 -2.65469 0
M  V30 47057 O 727.226 6.4965 -4.18908 0
M  V30 47058 C 728.166 5.81037 -5.05421 0
M  V30 47059 C 727.436 4.78366 -5.89277 0
M  V30 47060 O 727.226 3.58302 -5.08433 0
M  V30 47061 C 726.036 5.17448 -6.36119 0
M  V30 47062 O 725.646 4.45271 -7.53232 0
M  V30 47063 C 725.156 4.74639 -5.19936 0
M  V30 47064 C 725.866 3.49432 -4.70418 0
M  V30 47065 N 725.816 3.31776 -3.22945 0
M  V30 47066 H 728.655 6.54213 -5.71376 0
M  V30 47067 H 728.927 5.30492 -4.44033 0
M  V30 47068 H 728.059 4.55889 -6.76652 0
M  V30 47069 P 724.096 4.23843 -7.83734 0
M  V30 47070 O 723.876 4.19407 -9.29784 0
M  V30 47071 O 723.306 5.24426 -7.09156 0
M  V30 47072 O 723.846 2.7935 -7.20758 0
M  V30 47073 C 724.786 1.72945 -7.50224 0
M  V30 47074 C 724.056 0.406376 -7.57911 0
M  V30 47075 O 723.846 -0.0897726 -6.21935 0
M  V30 47076 C 722.656 0.438983 -8.18724 0
M  V30 47077 O 722.266 -0.825065 -8.71101 0
M  V30 47078 C 721.776 0.783689 -6.99524 0
M  V30 47079 C 722.486 0.0619086 -5.85867 0
M  V30 47080 N 722.436 0.78573 -4.56183 0
M  V30 47081 C 722.286 0.0292889 -3.41887 0
M  V30 47082 O 722.196 -1.18445 -3.4419 0
M  V30 47083 N 722.246 0.744061 -2.23964 0
M  V30 47084 C 722.336 2.10932 -2.10362 0
M  V30 47085 C 722.486 2.8202 -3.34994 0
M  V30 47086 C 722.536 2.15547 -4.52261 0
M  V30 47087 H 725.277 1.93379 -8.46595 0
M  V30 47088 H 725.546 1.68132 -6.70852 0
M  V30 47089 H 724.679 -0.289041 -8.15388 0
M  V30 47090 H 722.024 -0.926847 -5.72749 0
M  V30 47091 H 721.745 1.86973 -6.82036 0
M  V30 47092 H 720.753 0.403896 -7.13257 0
M  V30 47093 H 722.587 1.20585 -8.97435 0
M  V30 47094 H 722.658 2.71231 -5.45042 0
M  V30 47095 P 720.716 -1.17771 -8.83182 0
M  V30 47096 O 720.496 -2.07206 -9.98732 0
M  V30 47097 O 719.926 0.0743816 -8.81969 0
M  V30 47098 O 720.466 -1.97652 -7.47304 0
M  V30 47099 C 721.406 -3.01133 -7.08783 0
M  V30 47100 C 720.676 -4.12613 -6.37049 0
M  V30 47101 O 720.466 -3.72827 -4.97879 0
M  V30 47102 C 719.276 -4.45085 -6.88694 0
M  V30 47103 O 718.886 -5.7877 -6.5624 0
M  V30 47104 C 718.396 -3.47817 -6.12078 0
M  V30 47105 C 719.106 -3.39414 -4.77697 0
M  V30 47106 N 719.056 -2.04199 -4.15538 0
M  V30 47107 H 721.895 -3.41248 -7.98759 0
M  V30 47108 H 722.167 -2.57728 -6.42 0
M  V30 47109 H 721.299 -5.02657 -6.42673 0
M  V30 47110 H 718.644 -4.11708 -4.08956 0
M  V30 47111 H 718.364 -2.49626 -6.61679 0
M  V30 47112 H 717.373 -3.8662 -6.00862 0
M  V30 47113 H 719.207 -4.29991 -7.97006 0
M  V30 47114 P 717.336 -6.144 -6.45285 0
M  V30 47115 O 717.116 -7.54673 -6.86199 0
M  V30 47116 O 716.546 -5.12391 -7.179 0
M  V30 47117 O 717.086 -5.99158 -4.88404 0
M  V30 47118 C 718.026 -6.60234 -3.96415 0
M  V30 47119 C 717.296 -7.08259 -2.72856 0
M  V30 47120 O 717.086 -5.9427 -1.83651 0
M  V30 47121 C 715.896 -7.64886 -2.9555 0
M  V30 47122 O 715.506 -8.53963 -1.90717 0
M  V30 47123 C 715.016 -6.4116 -2.90739 0
M  V30 47124 C 715.726 -5.55375 -1.86963 0
M  V30 47125 N 715.676 -4.09664 -2.15742 0
M  V30 47126 H 718.515 -7.45574 -4.45629 0
M  V30 47127 H 718.787 -5.86232 -3.67314 0
M  V30 47128 H 717.919 -7.84412 -2.24479 0
M  V30 47129 P 713.956 -8.7635 -1.60911 0
M  V30 47130 O 713.736 -10.1388 -1.11561 0
M  V30 47131 O 713.166 -8.36503 -2.79617 0
M  V30 47132 O 713.706 -7.71806 -0.42951 0
M  V30 47133 C 714.646 -7.67148 0.673689 0
M  V30 47134 C 713.916 -7.33374 1.95559 0
M  V30 47135 O 713.706 -5.88721 2.00726 0
M  V30 47136 C 712.516 -7.92526 2.10483 0
M  V30 47137 O 712.126 -8.02971 3.47653 0
M  V30 47138 C 711.636 -6.89602 1.41652 0
M  V30 47139 C 712.346 -5.59201 1.75185 0
M  V30 47140 N 712.296 -4.58235 0.662552 0
M  V30 47141 H 715.135 -8.65116 0.777161 0
M  V30 47142 H 715.407 -6.90173 0.474152 0
M  V30 47143 H 714.539 -7.66548 2.79458 0
M  V30 47144 P 710.576 -8.03563 3.84925 0
M  V30 47145 O 710.356 -8.85821 5.0569 0
M  V30 47146 O 709.786 -8.41101 2.65469 0
M  V30 47147 O 710.326 -6.4965 4.18908 0
M  V30 47148 C 711.266 -5.81037 5.05421 0
M  V30 47149 C 710.536 -4.78366 5.89277 0
M  V30 47150 O 710.326 -3.58302 5.08433 0
M  V30 47151 C 709.136 -5.17448 6.36119 0
M  V30 47152 O 708.746 -4.45271 7.53232 0
M  V30 47153 C 708.256 -4.74639 5.19936 0
M  V30 47154 C 708.966 -3.49432 4.70418 0
M  V30 47155 N 708.916 -3.31776 3.22945 0
M  V30 47156 H 711.755 -6.54213 5.71376 0
M  V30 47157 H 712.027 -5.30492 4.44033 0
M  V30 47158 H 711.159 -4.55889 6.76652 0
M  V30 47159 P 707.196 -4.23843 7.83734 0
M  V30 47160 O 706.976 -4.19407 9.29784 0
M  V30 47161 O 706.406 -5.24426 7.09156 0
M  V30 47162 O 706.946 -2.7935 7.20758 0
M  V30 47163 C 707.886 -1.7299 7.50419 0
M  V30 47164 C 707.156 -0.406376 7.57911 0
M  V30 47165 O 706.946 0.0897726 6.21935 0
M  V30 47166 C 705.756 -0.447224 8.1878 0
M  V30 47167 O 705.366 0.825065 8.71101 0
M  V30 47168 C 704.876 -0.783801 6.99623 0
M  V30 47169 C 705.586 -0.0619192 5.85967 0
M  V30 47170 N 705.536 -0.790462 4.56202 0
M  V30 47171 H 708.375 -1.93423 8.4679 0
M  V30 47172 H 708.647 -1.68852 6.70877 0
M  V30 47173 H 707.779 0.289041 8.15388 0
M  V30 47174 H 705.124 0.927006 5.72848 0
M  V30 47175 H 704.844 -1.86973 6.82036 0
M  V30 47176 H 703.853 -0.403953 7.13357 0
M  V30 47177 H 705.687 -1.20599 8.97534 0
M  V30 47178 P 703.816 1.17771 8.83182 0
M  V30 47179 O 703.596 2.07206 9.98732 0
M  V30 47180 O 703.026 -0.0743816 8.81969 0
M  V30 47181 O 703.566 1.97652 7.47304 0
M  V30 47182 C 704.506 3.01133 7.08783 0
M  V30 47183 C 703.776 4.12613 6.37049 0
M  V30 47184 O 703.566 3.72827 4.97879 0
M  V30 47185 C 702.376 4.45085 6.88694 0
M  V30 47186 O 701.986 5.7877 6.5624 0
M  V30 47187 C 701.496 3.47817 6.12078 0
M  V30 47188 C 702.206 3.39414 4.77697 0
M  V30 47189 N 702.156 2.04615 4.15333 0
M  V30 47190 H 704.995 3.41248 7.98759 0
M  V30 47191 H 705.267 2.5837 6.41742 0
M  V30 47192 H 704.399 5.02657 6.42673 0
M  V30 47193 P 700.436 6.144 6.45285 0
M  V30 47194 O 700.216 7.54673 6.86199 0
M  V30 47195 O 699.646 5.12391 7.179 0
M  V30 47196 O 700.186 5.99158 4.88404 0
M  V30 47197 C 701.126 6.60234 3.96415 0
M  V30 47198 C 700.396 7.08259 2.72856 0
M  V30 47199 O 700.186 5.9427 1.83651 0
M  V30 47200 C 698.996 7.64886 2.9555 0
M  V30 47201 O 698.606 8.53963 1.90717 0
M  V30 47202 C 698.116 6.4116 2.90739 0
M  V30 47203 C 698.826 5.55375 1.86963 0
M  V30 47204 N 698.776 4.09664 2.15742 0
M  V30 47205 H 701.615 7.45574 4.45629 0
M  V30 47206 H 701.887 5.86232 3.67314 0
M  V30 47207 H 701.019 7.84412 2.24479 0
M  V30 47208 P 697.056 8.7635 1.60911 0
M  V30 47209 O 696.836 10.1388 1.11561 0
M  V30 47210 O 696.266 8.36503 2.79617 0
M  V30 47211 O 696.806 7.71806 0.42951 0
M  V30 47212 C 697.746 7.67148 -0.673689 0
M  V30 47213 C 697.016 7.33374 -1.95559 0
M  V30 47214 O 696.806 5.88721 -2.00726 0
M  V30 47215 C 695.616 7.92526 -2.10483 0
M  V30 47216 O 695.226 8.02971 -3.47653 0
M  V30 47217 C 694.736 6.89602 -1.41652 0
M  V30 47218 C 695.446 5.59201 -1.75185 0
M  V30 47219 N 695.396 4.58235 -0.662552 0
M  V30 47220 C 695.476 4.7683 0.704049 0
M  V30 47221 N 695.396 3.66233 1.39775 0
M  V30 47222 C 695.256 2.66526 0.431739 0
M  V30 47223 C 695.126 1.26394 0.575992 0
M  V30 47224 N 695.006 0.62859 -0.67177 0
M  V30 47225 C 695.006 1.27134 -1.89385 0
M  V30 47226 N 694.876 0.492035 -2.96951 0
M  V30 47227 N 695.136 2.58978 -2.02907 0
M  V30 47228 C 695.256 3.22433 -0.832218 0
M  V30 47229 H 698.235 8.65116 -0.777161 0
M  V30 47230 H 698.507 6.90173 -0.474152 0
M  V30 47231 H 697.639 7.66548 -2.79458 0
M  V30 47232 P 693.676 8.03563 -3.84925 0
M  V30 47233 O 693.456 8.85821 -5.0569 0
M  V30 47234 O 692.886 8.41101 -2.65469 0
M  V30 47235 O 693.426 6.4965 -4.18908 0
M  V30 47236 C 694.366 5.81037 -5.05421 0
M  V30 47237 C 693.636 4.78366 -5.89277 0
M  V30 47238 O 693.426 3.58302 -5.08433 0
M  V30 47239 C 692.236 5.17448 -6.36119 0
M  V30 47240 O 691.846 4.45271 -7.53232 0
M  V30 47241 C 691.356 4.74639 -5.19936 0
M  V30 47242 C 692.066 3.49432 -4.70418 0
M  V30 47243 N 692.016 3.31776 -3.22945 0
M  V30 47244 H 694.855 6.54213 -5.71376 0
M  V30 47245 H 695.127 5.30492 -4.44033 0
M  V30 47246 H 694.259 4.55889 -6.76652 0
M  V30 47247 P 690.296 4.23843 -7.83734 0
M  V30 47248 O 690.076 4.19407 -9.29784 0
M  V30 47249 O 689.506 5.24426 -7.09156 0
M  V30 47250 O 690.046 2.7935 -7.20758 0
M  V30 47251 C 690.986 1.7299 -7.50419 0
M  V30 47252 C 690.256 0.406376 -7.57911 0
M  V30 47253 O 690.046 -0.0897726 -6.21935 0
M  V30 47254 C 688.856 0.447224 -8.1878 0
M  V30 47255 O 688.466 -0.825065 -8.71101 0
M  V30 47256 C 687.976 0.783801 -6.99623 0
M  V30 47257 C 688.686 0.0619192 -5.85967 0
M  V30 47258 N 688.636 0.7859 -4.56281 0
M  V30 47259 C 688.716 2.14308 -4.31736 0
M  V30 47260 N 688.636 2.46106 -3.05116 0
M  V30 47261 C 688.496 1.23422 -2.4014 0
M  V30 47262 C 688.366 0.938381 -1.02409 0
M  V30 47263 N 688.246 -0.444647 -0.805413 0
M  V30 47264 C 688.246 -1.40829 -1.79435 0
M  V30 47265 N 688.116 -2.67213 -1.38558 0
M  V30 47266 N 688.376 -1.12947 -3.09005 0
M  V30 47267 C 688.496 0.204887 -3.32369 0
M  V30 47268 H 691.475 1.93423 -8.4679 0
M  V30 47269 H 691.747 1.68181 -6.71046 0
M  V30 47270 H 690.879 -0.289041 -8.15388 0
M  V30 47271 P 686.916 -1.17771 -8.83182 0
M  V30 47272 O 686.696 -2.07206 -9.98732 0
M  V30 47273 O 686.126 0.0743816 -8.81969 0
M  V30 47274 O 686.666 -1.97652 -7.47304 0
M  V30 47275 C 687.606 -3.01133 -7.08783 0
M  V30 47276 C 686.876 -4.12613 -6.37049 0
M  V30 47277 O 686.666 -3.72827 -4.97879 0
M  V30 47278 C 685.476 -4.45085 -6.88694 0
M  V30 47279 O 685.086 -5.7877 -6.5624 0
M  V30 47280 C 684.596 -3.47817 -6.12078 0
M  V30 47281 C 685.306 -3.39414 -4.77697 0
M  V30 47282 N 685.256 -2.04615 -4.15333 0
M  V30 47283 H 688.095 -3.41248 -7.98759 0
M  V30 47284 H 688.367 -2.5837 -6.41742 0
M  V30 47285 H 687.499 -5.02657 -6.42673 0
M  V30 47286 P 683.536 -6.144 -6.45285 0
M  V30 47287 O 683.316 -7.54673 -6.86199 0
M  V30 47288 O 682.746 -5.12391 -7.179 0
M  V30 47289 O 683.286 -5.99158 -4.88404 0
M  V30 47290 C 684.226 -6.60062 -3.96313 0
M  V30 47291 C 683.496 -7.08259 -2.72856 0
M  V30 47292 O 683.286 -5.9427 -1.83651 0
M  V30 47293 C 682.096 -7.65087 -2.94749 0
M  V30 47294 O 681.706 -8.53963 -1.90717 0
M  V30 47295 C 681.216 -6.41069 -2.90698 0
M  V30 47296 C 681.926 -5.5528 -1.86931 0
M  V30 47297 N 681.876 -4.09575 -2.15696 0
M  V30 47298 C 681.726 -3.24249 -1.08435 0
M  V30 47299 O 681.636 -3.63946 0.0628747 0
M  V30 47300 N 681.686 -1.90009 -1.39973 0
M  V30 47301 C 681.776 -1.34884 -2.65614 0
M  V30 47302 C 681.926 -2.3145 -3.71736 0
M  V30 47303 C 681.976 -3.63518 -3.44754 0
M  V30 47304 H 684.717 -7.45402 -4.45526 0
M  V30 47305 H 684.986 -5.86062 -3.67208 0
M  V30 47306 H 684.119 -7.84412 -2.24479 0
M  V30 47307 H 681.464 -5.73358 -0.888409 0
M  V30 47308 H 681.185 -5.90877 -3.88583 0
M  V30 47309 H 680.193 -6.65867 -2.58821 0
M  V30 47310 H 682.027 -8.16248 -3.92006 0
M  V30 47311 H 682.098 -4.34551 -4.26383 0
M  V30 47312 P 680.156 -8.7635 -1.60911 0
M  V30 47313 O 679.936 -10.1388 -1.11561 0
M  V30 47314 O 679.366 -8.36503 -2.79617 0
M  V30 47315 O 679.906 -7.71806 -0.42951 0
M  V30 47316 C 680.846 -7.67148 0.673689 0
M  V30 47317 C 680.116 -7.33374 1.95559 0
M  V30 47318 O 679.906 -5.88721 2.00726 0
M  V30 47319 C 678.716 -7.92526 2.10483 0
M  V30 47320 O 678.326 -8.02971 3.47653 0
M  V30 47321 C 677.836 -6.89602 1.41652 0
M  V30 47322 C 678.546 -5.59201 1.75185 0
M  V30 47323 N 678.496 -4.58301 0.657969 0
M  V30 47324 C 678.576 -4.79019 -0.692603 0
M  V30 47325 N 678.506 -3.69736 -1.38998 0
M  V30 47326 C 678.356 -2.70474 -0.438135 0
M  V30 47327 C 678.226 -1.30327 -0.538142 0
M  V30 47328 N 678.216 -0.64304 -1.69192 0
M  V30 47329 N 678.106 -0.611027 0.605183 0
M  V30 47330 C 678.116 -1.27002 1.75953 0
M  V30 47331 N 678.236 -2.56038 1.98546 0
M  V30 47332 C 678.356 -3.22681 0.822541 0
M  V30 47333 H 681.335 -8.65116 0.777161 0
M  V30 47334 H 681.607 -6.9022 0.46725 0
M  V30 47335 H 680.739 -7.66548 2.79458 0
M  V30 47336 H 678.084 -5.16165 2.65183 0
M  V30 47337 H 677.804 -7.06433 0.329384 0
M  V30 47338 H 676.813 -6.90926 1.82021 0
M  V30 47339 H 678.647 -8.90873 1.62657 0
M  V30 47340 H 678.688 -5.77785 -1.13874 0
M  V30 47341 H 678.307 -1.15585 -2.57991 0
M  V30 47342 H 678.118 0.382989 -1.69835 0
M  V30 47343 H 678.01 -0.653331 2.64449 0
M  V30 47344 P 676.776 -8.03563 3.84925 0
M  V30 47345 O 676.556 -8.85821 5.0569 0
M  V30 47346 O 675.986 -8.41101 2.65469 0
M  V30 47347 O 676.526 -6.49734 4.18962 0
M  V30 47348 C 677.466 -5.81037 5.05421 0
M  V30 47349 C 676.736 -4.79018 5.88876 0
M  V30 47350 O 676.526 -3.58359 5.08515 0
M  V30 47351 C 675.336 -5.17448 6.36119 0
M  V30 47352 O 674.946 -4.45322 7.53318 0
M  V30 47353 C 674.456 -4.74639 5.19936 0
M  V30 47354 C 675.166 -3.49432 4.70418 0
M  V30 47355 N 675.116 -3.31776 3.22945 0
M  V30 47356 C 674.966 -2.02742 2.72939 0
M  V30 47357 O 674.876 -1.08301 3.52749 0
M  V30 47358 N 674.916 -1.96117 1.22063 0
M  V30 47359 C 675.016 -2.8878 0.551566 0
M  V30 47360 N 674.966 -2.65609 -0.750198 0
M  V30 47361 C 675.166 -4.22457 1.03707 0
M  V30 47362 C 675.216 -4.37979 2.39113 0
M  V30 47363 H 677.956 -6.54138 5.7131 0
M  V30 47364 H 678.226 -5.30492 4.44033 0
M  V30 47365 H 677.359 -4.55945 6.76735 0
M  V30 47366 H 674.704 -2.6176 5.18021 0
M  V30 47367 H 674.424 -5.52233 4.41941 0
M  V30 47368 H 673.433 -4.52045 5.53452 0
M  V30 47369 H 675.267 -6.25124 6.55234 0
M  V30 47370 H 675.339 -5.37936 2.80552 0
M  V30 47371 H 675.237 -5.07528 0.359553 0
M  V30 47372 H 674.849 -1.69403 -1.09847 0
M  V30 47373 H 675.045 -3.43701 -1.41792 0
M  V30 47374 P 673.396 -4.23843 7.83734 0
M  V30 47375 O 673.176 -4.19407 9.29784 0
M  V30 47376 O 672.606 -5.24426 7.09156 0
M  V30 47377 O 673.146 -2.7935 7.20758 0
M  V30 47378 C 674.086 -1.7299 7.50419 0
M  V30 47379 C 673.356 -0.406376 7.57911 0
M  V30 47380 O 673.146 0.0897726 6.21935 0
M  V30 47381 C 671.956 -0.447224 8.1878 0
M  V30 47382 O 671.566 0.825065 8.71101 0
M  V30 47383 C 671.076 -0.783801 6.99623 0
M  V30 47384 C 671.786 -0.0619192 5.85967 0
M  V30 47385 N 671.736 -0.7859 4.56281 0
M  V30 47386 C 671.816 -2.14308 4.31736 0
M  V30 47387 N 671.736 -2.46106 3.05116 0
M  V30 47388 C 671.596 -1.23422 2.4014 0
M  V30 47389 C 671.466 -0.938381 1.02409 0
M  V30 47390 N 671.346 0.444647 0.805413 0
M  V30 47391 C 671.346 1.40829 1.79435 0
M  V30 47392 N 671.216 2.67213 1.38558 0
M  V30 47393 N 671.476 1.12947 3.09005 0
M  V30 47394 C 671.596 -0.204887 3.32369 0
M  V30 47395 H 674.575 -1.93423 8.4679 0
M  V30 47396 H 674.847 -1.68181 6.71046 0
M  V30 47397 H 673.979 0.289041 8.15388 0
M  V30 47398 P 670.016 1.17771 8.83182 0
M  V30 47399 O 669.796 2.07206 9.98732 0
M  V30 47400 O 669.226 -0.0743816 8.81969 0
M  V30 47401 O 669.766 1.97652 7.47304 0
M  V30 47402 C 670.706 3.01133 7.08783 0
M  V30 47403 C 669.976 4.12613 6.37049 0
M  V30 47404 O 669.766 3.72827 4.97879 0
M  V30 47405 C 668.576 4.45085 6.88694 0
M  V30 47406 O 668.186 5.7877 6.5624 0
M  V30 47407 C 667.696 3.47817 6.12078 0
M  V30 47408 C 668.406 3.39414 4.77697 0
M  V30 47409 N 668.356 2.04615 4.15333 0
M  V30 47410 H 671.195 3.41248 7.98759 0
M  V30 47411 H 671.467 2.5837 6.41742 0
M  V30 47412 H 670.599 5.02657 6.42673 0
M  V30 47413 P 666.636 6.144 6.45285 0
M  V30 47414 O 666.416 7.54673 6.86199 0
M  V30 47415 O 665.846 5.12391 7.179 0
M  V30 47416 O 666.386 5.99158 4.88404 0
M  V30 47417 C 667.326 6.60234 3.96415 0
M  V30 47418 C 666.596 7.08259 2.72856 0
M  V30 47419 O 666.386 5.9427 1.83651 0
M  V30 47420 C 665.196 7.64886 2.9555 0
M  V30 47421 O 664.806 8.53963 1.90717 0
M  V30 47422 C 664.316 6.4116 2.90739 0
M  V30 47423 C 665.026 5.55375 1.86963 0
M  V30 47424 N 664.976 4.09664 2.15742 0
M  V30 47425 H 667.815 7.45574 4.45629 0
M  V30 47426 H 668.087 5.86232 3.67314 0
M  V30 47427 H 667.219 7.84412 2.24479 0
M  V30 47428 P 663.256 8.7635 1.60911 0
M  V30 47429 O 663.036 10.1388 1.11561 0
M  V30 47430 O 662.466 8.36503 2.79617 0
M  V30 47431 O 663.006 7.71806 0.42951 0
M  V30 47432 C 663.946 7.67148 -0.673689 0
M  V30 47433 C 663.216 7.33374 -1.95559 0
M  V30 47434 O 663.006 5.88721 -2.00726 0
M  V30 47435 C 661.816 7.92526 -2.10483 0
M  V30 47436 O 661.426 8.02971 -3.47653 0
M  V30 47437 C 660.936 6.89602 -1.41652 0
M  V30 47438 C 661.646 5.59201 -1.75185 0
M  V30 47439 N 661.596 4.58235 -0.662552 0
M  V30 47440 H 664.435 8.65116 -0.777161 0
M  V30 47441 H 664.707 6.90173 -0.474152 0
M  V30 47442 H 663.839 7.66548 -2.79458 0
M  V30 47443 P 659.876 8.03563 -3.84925 0
M  V30 47444 O 659.656 8.85821 -5.0569 0
M  V30 47445 O 659.086 8.41101 -2.65469 0
M  V30 47446 O 659.626 6.4965 -4.18908 0
M  V30 47447 C 660.566 5.80886 -5.05289 0
M  V30 47448 C 659.836 4.78366 -5.89277 0
M  V30 47449 O 659.626 3.58302 -5.08433 0
M  V30 47450 C 658.436 5.16748 -6.36559 0
M  V30 47451 O 658.046 4.45271 -7.53232 0
M  V30 47452 C 657.556 4.74572 -5.19863 0
M  V30 47453 C 658.266 3.49373 -4.70338 0
M  V30 47454 N 658.216 3.31704 -3.22876 0
M  V30 47455 C 658.066 2.03326 -2.74871 0
M  V30 47456 O 657.976 1.06486 -3.48076 0
M  V30 47457 N 658.026 1.91838 -1.37456 0
M  V30 47458 C 658.116 2.94295 -0.462035 0
M  V30 47459 O 658.066 2.71763 0.752928 0
M  V30 47460 C 658.266 4.25064 -1.05249 0
M  V30 47461 C 658.376 5.39815 -0.095697 0
M  V30 47462 C 658.316 4.40214 -2.39192 0
M  V30 47463 H 661.057 6.54063 -5.71245 0
M  V30 47464 H 661.326 5.30339 -4.43905 0
M  V30 47465 H 660.459 4.55889 -6.76652 0
M  V30 47466 H 657.804 2.6167 -5.17842 0
M  V30 47467 H 657.525 5.52155 -4.41878 0
M  V30 47468 H 656.533 4.51918 -5.53297 0
M  V30 47469 H 658.367 6.25055 -6.55162 0
M  V30 47470 H 658.438 5.39798 -2.81523 0
M  V30 47471 H 657.408 5.91593 -0.0279582 0
M  V30 47472 H 659.145 6.10038 -0.450573 0
M  V30 47473 H 658.657 5.02007 0.89937 0
M  V30 47474 H 657.921 0.995326 -1.00435 0
M  V30 47475 P 656.496 4.23843 -7.83734 0
M  V30 47476 O 656.276 4.19407 -9.29784 0
M  V30 47477 O 655.706 5.24426 -7.09156 0
M  V30 47478 O 656.246 2.7935 -7.20758 0
M  V30 47479 C 657.186 1.7299 -7.50419 0
M  V30 47480 C 656.456 0.406376 -7.57911 0
M  V30 47481 O 656.246 -0.0897726 -6.21935 0
M  V30 47482 C 655.056 0.447224 -8.1878 0
M  V30 47483 O 654.666 -0.825065 -8.71101 0
M  V30 47484 C 654.176 0.783801 -6.99623 0
M  V30 47485 C 654.886 0.0619192 -5.85967 0
M  V30 47486 N 654.836 0.7859 -4.56281 0
M  V30 47487 H 657.675 1.93423 -8.4679 0
M  V30 47488 H 657.947 1.68181 -6.71046 0
M  V30 47489 H 657.079 -0.289041 -8.15388 0
M  V30 47490 P 653.116 -1.17771 -8.83182 0
M  V30 47491 O 652.896 -2.07206 -9.98732 0
M  V30 47492 O 652.326 0.0743816 -8.81969 0
M  V30 47493 O 652.866 -1.97652 -7.47304 0
M  V30 47494 C 653.806 -3.01055 -7.08599 0
M  V30 47495 C 653.076 -4.12613 -6.37049 0
M  V30 47496 O 652.866 -3.72827 -4.97879 0
M  V30 47497 C 651.676 -4.45719 -6.88164 0
M  V30 47498 O 651.286 -5.7877 -6.5624 0
M  V30 47499 C 650.796 -3.47768 -6.11991 0
M  V30 47500 C 651.506 -3.39356 -4.77615 0
M  V30 47501 N 651.456 -2.04571 -4.15244 0
M  V30 47502 C 651.306 -1.98587 -2.78314 0
M  V30 47503 O 651.216 -2.98134 -2.08835 0
M  V30 47504 N 651.266 -0.714467 -2.24925 0
M  V30 47505 C 651.356 0.470001 -2.94169 0
M  V30 47506 C 651.506 0.312541 -4.36783 0
M  V30 47507 C 651.556 -0.914512 -4.92583 0
M  V30 47508 H 654.297 -3.41169 -7.98575 0
M  V30 47509 H 654.566 -2.58295 -6.41556 0
M  V30 47510 H 653.699 -5.02657 -6.42673 0
M  V30 47511 H 651.044 -4.11637 -4.08885 0
M  V30 47512 H 650.765 -2.49626 -6.61679 0
M  V30 47513 H 649.773 -3.86566 -6.00778 0
M  V30 47514 H 651.607 -4.29943 -7.96918 0
M  V30 47515 H 651.678 -1.00937 -6.00374 0
M  V30 47516 P 649.736 -6.144 -6.45285 0
M  V30 47517 O 649.516 -7.54673 -6.86199 0
M  V30 47518 O 648.946 -5.12391 -7.179 0
M  V30 47519 O 649.486 -5.99158 -4.88404 0
M  V30 47520 C 650.426 -6.60234 -3.96415 0
M  V30 47521 C 649.696 -7.08259 -2.72856 0
M  V30 47522 O 649.486 -5.9427 -1.83651 0
M  V30 47523 C 648.296 -7.64886 -2.9555 0
M  V30 47524 O 647.906 -8.53963 -1.90717 0
M  V30 47525 C 647.416 -6.4116 -2.90739 0
M  V30 47526 C 648.126 -5.55375 -1.86963 0
M  V30 47527 N 648.076 -4.09664 -2.15742 0
M  V30 47528 H 650.915 -7.45574 -4.45629 0
M  V30 47529 H 651.187 -5.86232 -3.67314 0
M  V30 47530 H 650.319 -7.84412 -2.24479 0
M  V30 47531 P 646.356 -8.7635 -1.60911 0
M  V30 47532 O 646.136 -10.1388 -1.11561 0
M  V30 47533 O 645.566 -8.36503 -2.79617 0
M  V30 47534 O 646.106 -7.71906 -0.429565 0
M  V30 47535 C 647.046 -7.67148 0.673689 0
M  V30 47536 C 646.316 -7.33666 1.94851 0
M  V30 47537 O 646.106 -5.88816 2.00759 0
M  V30 47538 C 644.916 -7.92526 2.10483 0
M  V30 47539 O 644.526 -8.03063 3.47693 0
M  V30 47540 C 644.036 -6.89602 1.41652 0
M  V30 47541 C 644.746 -5.59201 1.75185 0
M  V30 47542 N 644.696 -4.58235 0.662552 0
M  V30 47543 C 644.546 -3.24451 1.01643 0
M  V30 47544 O 644.456 -2.94958 2.21722 0
M  V30 47545 N 644.496 -2.30408 -0.165238 0
M  V30 47546 C 644.596 -2.66048 -1.25118 0
M  V30 47547 N 644.546 -1.70787 -2.16813 0
M  V30 47548 C 644.746 -4.02732 -1.64413 0
M  V30 47549 C 644.796 -4.9488 -0.63991 0
M  V30 47550 H 647.536 -8.65017 0.777072 0
M  V30 47551 H 647.806 -6.90173 0.474152 0
M  V30 47552 H 646.939 -7.66642 2.79492 0
M  V30 47553 H 644.284 -5.16254 2.65229 0
M  V30 47554 H 644.004 -7.06532 0.329431 0
M  V30 47555 H 643.013 -6.91023 1.82047 0
M  V30 47556 H 644.847 -8.90873 1.62657 0
M  V30 47557 H 644.919 -6.00104 -0.892197 0
M  V30 47558 H 644.817 -4.31733 -2.69229 0
M  V30 47559 H 644.429 -0.724835 -1.8844 0
M  V30 47560 H 644.625 -1.94716 -3.16734 0
M  V30 47561 P 642.976 -8.03563 3.84925 0
M  V30 47562 O 642.756 -8.85821 5.0569 0
M  V30 47563 O 642.186 -8.41101 2.65469 0
M  V30 47564 O 642.726 -6.4965 4.18908 0
M  V30 47565 C 643.666 -5.81037 5.05421 0
M  V30 47566 C 642.936 -4.78366 5.89277 0
M  V30 47567 O 642.726 -3.58302 5.08433 0
M  V30 47568 C 641.536 -5.17448 6.36119 0
M  V30 47569 O 641.146 -4.45271 7.53232 0
M  V30 47570 C 640.656 -4.74639 5.19936 0
M  V30 47571 C 641.366 -3.49432 4.70418 0
M  V30 47572 N 641.316 -3.31776 3.22945 0
M  V30 47573 H 644.155 -6.54213 5.71376 0
M  V30 47574 H 644.427 -5.30492 4.44033 0
M  V30 47575 H 643.559 -4.55889 6.76652 0
M  V30 47576 P 639.596 -4.23843 7.83734 0
M  V30 47577 O 639.376 -4.19407 9.29784 0
M  V30 47578 O 638.806 -5.24426 7.09156 0
M  V30 47579 O 639.346 -2.7935 7.20758 0
M  V30 47580 C 640.286 -1.7299 7.50419 0
M  V30 47581 C 639.556 -0.406376 7.57911 0
M  V30 47582 O 639.346 0.0897726 6.21935 0
M  V30 47583 C 638.156 -0.447224 8.1878 0
M  V30 47584 O 637.766 0.825065 8.71101 0
M  V30 47585 C 637.276 -0.783801 6.99623 0
M  V30 47586 C 637.986 -0.0619192 5.85967 0
M  V30 47587 N 637.936 -0.7859 4.56281 0
M  V30 47588 H 640.775 -1.93423 8.4679 0
M  V30 47589 H 641.047 -1.68181 6.71046 0
M  V30 47590 H 640.179 0.289041 8.15388 0
M  V30 47591 P 636.216 1.17771 8.83182 0
M  V30 47592 O 635.996 2.07206 9.98732 0
M  V30 47593 O 635.426 -0.0743816 8.81969 0
M  V30 47594 O 635.966 1.97652 7.47304 0
M  V30 47595 C 636.906 3.01133 7.08783 0
M  V30 47596 C 636.176 4.12613 6.37049 0
M  V30 47597 O 635.966 3.72827 4.97879 0
M  V30 47598 C 634.776 4.45085 6.88694 0
M  V30 47599 O 634.386 5.7877 6.5624 0
M  V30 47600 C 633.896 3.47817 6.12078 0
M  V30 47601 C 634.606 3.39414 4.77697 0
M  V30 47602 N 634.556 2.04199 4.15538 0
M  V30 47603 C 634.636 0.821545 4.76977 0
M  V30 47604 N 634.566 -0.1794 3.94592 0
M  V30 47605 C 634.416 0.419121 2.70776 0
M  V30 47606 C 634.286 -0.109072 1.40577 0
M  V30 47607 N 634.276 -1.4104 1.1344 0
M  V30 47608 N 634.166 0.764381 0.39411 0
M  V30 47609 C 634.176 2.06587 0.664135 0
M  V30 47610 N 634.296 2.67948 1.82153 0
M  V30 47611 C 634.416 1.77942 2.8147 0
M  V30 47612 H 637.395 3.41248 7.98759 0
M  V30 47613 H 637.667 2.57728 6.42 0
M  V30 47614 H 636.799 5.02657 6.42673 0
M  V30 47615 H 634.144 4.11708 4.08956 0
M  V30 47616 H 633.864 2.49626 6.61679 0
M  V30 47617 H 632.873 3.8662 6.00862 0
M  V30 47618 H 634.707 4.29991 7.97006 0
M  V30 47619 H 634.748 0.702451 5.84696 0
M  V30 47620 H 634.367 -2.09647 1.89651 0
M  V30 47621 H 634.178 -1.73358 0.160575 0
M  V30 47622 H 634.07 2.71695 -0.195838 0
M  V30 47623 P 632.836 6.144 6.45285 0
M  V30 47624 O 632.616 7.54673 6.86199 0
M  V30 47625 O 632.046 5.12391 7.179 0
M  V30 47626 O 632.586 5.99158 4.88404 0
M  V30 47627 C 633.526 6.60234 3.96415 0
M  V30 47628 C 632.796 7.08259 2.72856 0
M  V30 47629 O 632.586 5.9427 1.83651 0
M  V30 47630 C 631.396 7.64886 2.9555 0
M  V30 47631 O 631.006 8.53963 1.90717 0
M  V30 47632 C 630.516 6.4116 2.90739 0
M  V30 47633 C 631.226 5.55375 1.86963 0
M  V30 47634 N 631.176 4.09664 2.15742 0
M  V30 47635 H 634.015 7.45574 4.45629 0
M  V30 47636 H 634.287 5.86232 3.67314 0
M  V30 47637 H 633.419 7.84412 2.24479 0
M  V30 47638 P 629.456 8.7635 1.60911 0
M  V30 47639 O 629.236 10.1388 1.11561 0
M  V30 47640 O 628.666 8.36503 2.79617 0
M  V30 47641 O 629.206 7.71906 0.429565 0
M  V30 47642 C 630.146 7.67148 -0.673689 0
M  V30 47643 C 629.416 7.33666 -1.94851 0
M  V30 47644 O 629.206 5.88816 -2.00759 0
M  V30 47645 C 628.016 7.92526 -2.10483 0
M  V30 47646 O 627.626 8.03063 -3.47693 0
M  V30 47647 C 627.136 6.89602 -1.41652 0
M  V30 47648 C 627.846 5.59201 -1.75185 0
M  V30 47649 N 627.796 4.58235 -0.662552 0
M  V30 47650 C 627.646 3.24451 -1.01643 0
M  V30 47651 O 627.556 2.94958 -2.21722 0
M  V30 47652 N 627.596 2.30408 0.165238 0
M  V30 47653 C 627.696 2.66048 1.25118 0
M  V30 47654 N 627.646 1.70787 2.16813 0
M  V30 47655 C 627.846 4.02732 1.64413 0
M  V30 47656 C 627.896 4.9488 0.63991 0
M  V30 47657 H 630.636 8.65017 -0.777072 0
M  V30 47658 H 630.906 6.90173 -0.474152 0
M  V30 47659 H 630.039 7.66642 -2.79492 0
M  V30 47660 H 627.384 5.16254 -2.65229 0
M  V30 47661 H 627.104 7.06532 -0.329431 0
M  V30 47662 H 626.113 6.91023 -1.82047 0
M  V30 47663 H 627.947 8.90873 -1.62657 0
M  V30 47664 H 628.019 6.00104 0.892197 0
M  V30 47665 H 627.917 4.31733 2.69229 0
M  V30 47666 H 627.529 0.724835 1.8844 0
M  V30 47667 H 627.725 1.94716 3.16734 0
M  V30 47668 P 626.076 8.03563 -3.84925 0
M  V30 47669 O 625.856 8.85821 -5.0569 0
M  V30 47670 O 625.286 8.41101 -2.65469 0
M  V30 47671 O 625.826 6.4965 -4.18908 0
M  V30 47672 C 626.766 5.81037 -5.05421 0
M  V30 47673 C 626.036 4.78366 -5.89277 0
M  V30 47674 O 625.826 3.58302 -5.08433 0
M  V30 47675 C 624.636 5.17448 -6.36119 0
M  V30 47676 O 624.246 4.45271 -7.53232 0
M  V30 47677 C 623.756 4.74639 -5.19936 0
M  V30 47678 C 624.466 3.49432 -4.70418 0
M  V30 47679 N 624.416 3.31776 -3.22945 0
M  V30 47680 H 627.255 6.54213 -5.71376 0
M  V30 47681 H 627.527 5.30492 -4.44033 0
M  V30 47682 H 626.659 4.55889 -6.76652 0
M  V30 47683 P 622.696 4.23843 -7.83734 0
M  V30 47684 O 622.476 4.19407 -9.29784 0
M  V30 47685 O 621.906 5.24426 -7.09156 0
M  V30 47686 O 622.446 2.7935 -7.20758 0
M  V30 47687 C 623.386 1.7299 -7.50419 0
M  V30 47688 C 622.656 0.406376 -7.57911 0
M  V30 47689 O 622.446 -0.0897726 -6.21935 0
M  V30 47690 C 621.256 0.447224 -8.1878 0
M  V30 47691 O 620.866 -0.825065 -8.71101 0
M  V30 47692 C 620.376 0.783801 -6.99623 0
M  V30 47693 C 621.086 0.0619192 -5.85967 0
M  V30 47694 N 621.036 0.7859 -4.56281 0
M  V30 47695 H 623.875 1.93423 -8.4679 0
M  V30 47696 H 624.147 1.68181 -6.71046 0
M  V30 47697 H 623.279 -0.289041 -8.15388 0
M  V30 47698 P 619.316 -1.17771 -8.83182 0
M  V30 47699 O 619.096 -2.07206 -9.98732 0
M  V30 47700 O 618.526 0.0743816 -8.81969 0
M  V30 47701 O 619.066 -1.97652 -7.47304 0
M  V30 47702 C 620.006 -3.01133 -7.08783 0
M  V30 47703 C 619.276 -4.12613 -6.37049 0
M  V30 47704 O 619.066 -3.72827 -4.97879 0
M  V30 47705 C 617.876 -4.45085 -6.88694 0
M  V30 47706 O 617.486 -5.7877 -6.5624 0
M  V30 47707 C 616.996 -3.47817 -6.12078 0
M  V30 47708 C 617.706 -3.39414 -4.77697 0
M  V30 47709 N 617.656 -2.04199 -4.15538 0
M  V30 47710 C 617.736 -0.821545 -4.76977 0
M  V30 47711 N 617.666 0.1794 -3.94592 0
M  V30 47712 C 617.516 -0.419121 -2.70776 0
M  V30 47713 C 617.386 0.109072 -1.40577 0
M  V30 47714 N 617.376 1.4104 -1.1344 0
M  V30 47715 N 617.266 -0.764381 -0.39411 0
M  V30 47716 C 617.276 -2.06587 -0.664135 0
M  V30 47717 N 617.396 -2.67948 -1.82153 0
M  V30 47718 C 617.516 -1.77942 -2.8147 0
M  V30 47719 H 620.495 -3.41248 -7.98759 0
M  V30 47720 H 620.767 -2.57728 -6.42 0
M  V30 47721 H 619.899 -5.02657 -6.42673 0
M  V30 47722 H 617.244 -4.11708 -4.08956 0
M  V30 47723 H 616.964 -2.49626 -6.61679 0
M  V30 47724 H 615.973 -3.8662 -6.00862 0
M  V30 47725 H 617.807 -4.29991 -7.97006 0
M  V30 47726 H 617.848 -0.702451 -5.84696 0
M  V30 47727 H 617.467 2.09647 -1.89651 0
M  V30 47728 H 617.278 1.73358 -0.160575 0
M  V30 47729 H 617.17 -2.71695 0.195838 0
M  V30 47730 P 615.936 -6.144 -6.45285 0
M  V30 47731 O 615.716 -7.54673 -6.86199 0
M  V30 47732 O 615.146 -5.12391 -7.179 0
M  V30 47733 O 615.686 -5.99158 -4.88404 0
M  V30 47734 C 616.626 -6.60234 -3.96415 0
M  V30 47735 C 615.896 -7.08259 -2.72856 0
M  V30 47736 O 615.686 -5.9427 -1.83651 0
M  V30 47737 C 614.496 -7.64886 -2.9555 0
M  V30 47738 O 614.106 -8.53963 -1.90717 0
M  V30 47739 C 613.616 -6.4116 -2.90739 0
M  V30 47740 C 614.326 -5.55375 -1.86963 0
M  V30 47741 N 614.276 -4.09664 -2.15742 0
M  V30 47742 H 617.115 -7.45574 -4.45629 0
M  V30 47743 H 617.387 -5.86232 -3.67314 0
M  V30 47744 H 616.519 -7.84412 -2.24479 0
M  V30 47745 P 612.556 -8.7635 -1.60911 0
M  V30 47746 O 612.336 -10.1388 -1.11561 0
M  V30 47747 O 611.766 -8.36503 -2.79617 0
M  V30 47748 O 612.306 -7.71806 -0.42951 0
M  V30 47749 C 613.246 -7.67148 0.673689 0
M  V30 47750 C 612.516 -7.33374 1.95559 0
M  V30 47751 O 612.306 -5.88721 2.00726 0
M  V30 47752 C 611.116 -7.92526 2.10483 0
M  V30 47753 O 610.726 -8.02971 3.47653 0
M  V30 47754 C 610.236 -6.89602 1.41652 0
M  V30 47755 C 610.946 -5.59201 1.75185 0
M  V30 47756 N 610.896 -4.58235 0.662552 0
M  V30 47757 H 613.735 -8.65116 0.777161 0
M  V30 47758 H 614.007 -6.90173 0.474152 0
M  V30 47759 H 613.139 -7.66548 2.79458 0
M  V30 47760 P 609.176 -8.03563 3.84925 0
M  V30 47761 O 608.956 -8.85821 5.0569 0
M  V30 47762 O 608.386 -8.41101 2.65469 0
M  V30 47763 O 608.926 -6.4965 4.18908 0
M  V30 47764 C 609.866 -5.81037 5.05421 0
M  V30 47765 C 609.136 -4.78366 5.89277 0
M  V30 47766 O 608.926 -3.58302 5.08433 0
M  V30 47767 C 607.736 -5.17448 6.36119 0
M  V30 47768 O 607.346 -4.45271 7.53232 0
M  V30 47769 C 606.856 -4.74639 5.19936 0
M  V30 47770 C 607.566 -3.49432 4.70418 0
M  V30 47771 N 607.516 -3.32099 3.22613 0
M  V30 47772 C 607.596 -4.28245 2.25527 0
M  V30 47773 N 607.526 -3.80823 1.04874 0
M  V30 47774 C 607.376 -2.44571 1.23535 0
M  V30 47775 C 607.246 -1.37068 0.330675 0
M  V30 47776 N 607.236 -1.51472 -0.990824 0
M  V30 47777 N 607.126 -0.138614 0.848756 0
M  V30 47778 C 607.136 0.00675923 2.16999 0
M  V30 47779 N 607.256 -0.904372 3.11122 0
M  V30 47780 C 607.376 -2.12707 2.56212 0
M  V30 47781 H 610.355 -6.54213 5.71376 0
M  V30 47782 H 610.627 -5.30936 4.43503 0
M  V30 47783 H 609.759 -4.55889 6.76652 0
M  V30 47784 H 607.104 -2.61715 5.17932 0
M  V30 47785 H 606.824 -5.52155 4.41878 0
M  V30 47786 H 605.833 -4.51981 5.53374 0
M  V30 47787 H 607.667 -6.25124 6.55234 0
M  V30 47788 H 607.708 -5.34372 2.47488 0
M  V30 47789 H 607.327 -2.45153 -1.4078 0
M  V30 47790 H 607.138 -0.688422 -1.59911 0
M  V30 47791 H 607.03 1.02584 2.52346 0
M  V30 47792 P 605.796 -4.23843 7.83734 0
M  V30 47793 O 605.576 -4.19407 9.29784 0
M  V30 47794 O 605.006 -5.24426 7.09156 0
M  V30 47795 O 605.546 -2.79386 7.20852 0
M  V30 47796 C 606.486 -1.7299 7.50419 0
M  V30 47797 C 605.756 -0.41401 7.5797 0
M  V30 47798 O 605.546 0.089787 6.22035 0
M  V30 47799 C 604.356 -0.447224 8.1878 0
M  V30 47800 O 603.966 0.825159 8.71201 0
M  V30 47801 C 603.476 -0.783801 6.99623 0
M  V30 47802 C 604.186 -0.0619192 5.85967 0
M  V30 47803 N 604.136 -0.7859 4.56281 0
M  V30 47804 C 603.986 -0.0359258 3.39981 0
M  V30 47805 O 603.896 1.19723 3.49038 0
M  V30 47806 N 603.936 -0.869151 2.14025 0
M  V30 47807 C 604.036 -2.01207 2.14363 0
M  V30 47808 N 603.986 -2.58978 0.954287 0
M  V30 47809 C 604.186 -2.80817 3.32215 0
M  V30 47810 C 604.236 -2.13785 4.50884 0
M  V30 47811 H 606.976 -1.93401 8.46693 0
M  V30 47812 H 607.246 -1.68181 6.71046 0
M  V30 47813 H 606.379 0.289076 8.15488 0
M  V30 47814 H 603.724 0.927166 5.72947 0
M  V30 47815 H 603.444 -1.87 6.82132 0
M  V30 47816 H 602.453 -0.404009 7.13457 0
M  V30 47817 H 604.287 -1.20599 8.97534 0
M  V30 47818 H 604.359 -2.70295 5.43162 0
M  V30 47819 H 604.257 -3.89465 3.27406 0
M  V30 47820 H 603.869 -2.01616 0.107046 0
M  V30 47821 H 604.065 -3.61403 0.873101 0
M  V30 47822 P 602.416 1.17771 8.83182 0
M  V30 47823 O 602.196 2.07206 9.98732 0
M  V30 47824 O 601.626 -0.0743816 8.81969 0
M  V30 47825 O 602.166 1.97652 7.47304 0
M  V30 47826 C 603.106 3.01133 7.08783 0
M  V30 47827 C 602.376 4.12613 6.37049 0
M  V30 47828 O 602.166 3.72827 4.97879 0
M  V30 47829 C 600.976 4.45085 6.88694 0
M  V30 47830 O 600.586 5.7877 6.5624 0
M  V30 47831 C 600.096 3.47817 6.12078 0
M  V30 47832 C 600.806 3.39414 4.77697 0
M  V30 47833 N 600.756 2.04199 4.15538 0
M  V30 47834 C 600.836 0.821545 4.76977 0
M  V30 47835 N 600.766 -0.1794 3.94592 0
M  V30 47836 C 600.616 0.419121 2.70776 0
M  V30 47837 C 600.486 -0.109072 1.40577 0
M  V30 47838 N 600.476 -1.4104 1.1344 0
M  V30 47839 N 600.366 0.764381 0.39411 0
M  V30 47840 C 600.376 2.06587 0.664135 0
M  V30 47841 N 600.496 2.67948 1.82153 0
M  V30 47842 C 600.616 1.77942 2.8147 0
M  V30 47843 H 603.595 3.41248 7.98759 0
M  V30 47844 H 603.867 2.57728 6.42 0
M  V30 47845 H 602.999 5.02657 6.42673 0
M  V30 47846 H 600.344 4.11708 4.08956 0
M  V30 47847 H 600.064 2.49626 6.61679 0
M  V30 47848 H 599.073 3.8662 6.00862 0
M  V30 47849 H 600.907 4.29991 7.97006 0
M  V30 47850 H 600.948 0.702451 5.84696 0
M  V30 47851 H 600.567 -2.09647 1.89651 0
M  V30 47852 H 600.378 -1.73358 0.160575 0
M  V30 47853 H 600.27 2.71695 -0.195838 0
M  V30 47854 P 599.036 6.144 6.45285 0
M  V30 47855 O 598.816 7.54673 6.86199 0
M  V30 47856 O 598.246 5.12391 7.179 0
M  V30 47857 O 598.786 5.99158 4.88404 0
M  V30 47858 C 599.726 6.60234 3.96415 0
M  V30 47859 C 598.996 7.08259 2.72856 0
M  V30 47860 O 598.786 5.9427 1.83651 0
M  V30 47861 C 597.596 7.64886 2.9555 0
M  V30 47862 O 597.206 8.53963 1.90717 0
M  V30 47863 C 596.716 6.4116 2.90739 0
M  V30 47864 C 597.426 5.55375 1.86963 0
M  V30 47865 N 597.376 4.09664 2.15742 0
M  V30 47866 H 600.215 7.45574 4.45629 0
M  V30 47867 H 600.487 5.86232 3.67314 0
M  V30 47868 H 599.619 7.84412 2.24479 0
M  V30 47869 P 595.656 8.7635 1.60911 0
M  V30 47870 O 595.436 10.1388 1.11561 0
M  V30 47871 O 594.866 8.36503 2.79617 0
M  V30 47872 O 595.406 7.71806 0.42951 0
M  V30 47873 C 596.346 7.67148 -0.673689 0
M  V30 47874 C 595.616 7.33374 -1.95559 0
M  V30 47875 O 595.406 5.88721 -2.00726 0
M  V30 47876 C 594.216 7.92526 -2.10483 0
M  V30 47877 O 593.826 8.02971 -3.47653 0
M  V30 47878 C 593.336 6.89602 -1.41652 0
M  V30 47879 C 594.046 5.59201 -1.75185 0
M  V30 47880 N 593.996 4.58301 -0.657969 0
M  V30 47881 C 594.076 4.79019 0.692603 0
M  V30 47882 N 594.006 3.69736 1.38998 0
M  V30 47883 C 593.856 2.70474 0.438135 0
M  V30 47884 C 593.726 1.30327 0.538142 0
M  V30 47885 N 593.716 0.64304 1.69192 0
M  V30 47886 N 593.606 0.611027 -0.605183 0
M  V30 47887 C 593.616 1.27002 -1.75953 0
M  V30 47888 N 593.736 2.56038 -1.98546 0
M  V30 47889 C 593.856 3.22681 -0.822541 0
M  V30 47890 H 596.835 8.65116 -0.777161 0
M  V30 47891 H 597.107 6.9022 -0.46725 0
M  V30 47892 H 596.239 7.66548 -2.79458 0
M  V30 47893 H 593.584 5.16165 -2.65183 0
M  V30 47894 H 593.304 7.06433 -0.329384 0
M  V30 47895 H 592.313 6.90926 -1.82021 0
M  V30 47896 H 594.147 8.90873 -1.62657 0
M  V30 47897 H 594.188 5.77785 1.13874 0
M  V30 47898 H 593.807 1.15585 2.57991 0
M  V30 47899 H 593.618 -0.382989 1.69835 0
M  V30 47900 H 593.51 0.653331 -2.64449 0
M  V30 47901 P 592.277 8.03563 -3.84925 0
M  V30 47902 O 592.057 8.85821 -5.0569 0
M  V30 47903 O 591.487 8.41101 -2.65469 0
M  V30 47904 O 592.027 6.4965 -4.18908 0
M  V30 47905 C 592.967 5.81037 -5.05421 0
M  V30 47906 C 592.237 4.78366 -5.89277 0
M  V30 47907 O 592.027 3.58302 -5.08433 0
M  V30 47908 C 590.837 5.17448 -6.36119 0
M  V30 47909 O 590.447 4.45271 -7.53232 0
M  V30 47910 C 589.957 4.74639 -5.19936 0
M  V30 47911 C 590.667 3.49432 -4.70418 0
M  V30 47912 N 590.617 3.31776 -3.22945 0
M  V30 47913 H 593.456 6.54213 -5.71376 0
M  V30 47914 H 593.728 5.30492 -4.44033 0
M  V30 47915 H 592.86 4.55889 -6.76652 0
M  V30 47916 P 588.897 4.23843 -7.83734 0
M  V30 47917 O 588.677 4.19407 -9.29784 0
M  V30 47918 O 588.107 5.24426 -7.09156 0
M  V30 47919 O 588.647 2.7935 -7.20758 0
M  V30 47920 C 589.587 1.72945 -7.50224 0
M  V30 47921 C 588.857 0.406376 -7.57911 0
M  V30 47922 O 588.647 -0.0897726 -6.21935 0
M  V30 47923 C 587.457 0.438983 -8.18724 0
M  V30 47924 O 587.067 -0.825065 -8.71101 0
M  V30 47925 C 586.577 0.783689 -6.99524 0
M  V30 47926 C 587.287 0.0619086 -5.85867 0
M  V30 47927 N 587.237 0.78573 -4.56183 0
M  V30 47928 C 587.087 0.0292889 -3.41887 0
M  V30 47929 O 586.997 -1.18445 -3.4419 0
M  V30 47930 N 587.047 0.744061 -2.23964 0
M  V30 47931 C 587.137 2.10932 -2.10362 0
M  V30 47932 O 587.087 2.64117 -0.98825 0
M  V30 47933 C 587.287 2.8202 -3.34994 0
M  V30 47934 C 587.397 4.31095 -3.25037 0
M  V30 47935 C 587.337 2.15547 -4.52261 0
M  V30 47936 H 590.078 1.93379 -8.46595 0
M  V30 47937 H 590.347 1.68132 -6.70852 0
M  V30 47938 H 589.48 -0.289041 -8.15388 0
M  V30 47939 H 586.825 -0.926847 -5.72749 0
M  V30 47940 H 586.546 1.86973 -6.82036 0
M  V30 47941 H 585.554 0.403896 -7.13257 0
M  V30 47942 H 587.388 1.20585 -8.97435 0
M  V30 47943 H 587.459 2.71231 -5.45042 0
M  V30 47944 H 586.429 4.76966 -3.49992 0
M  V30 47945 H 588.166 4.67047 -3.95024 0
M  V30 47946 H 587.678 4.58996 -2.22312 0
M  V30 47947 H 586.942 0.214893 -1.39758 0
M  V30 47948 P 585.517 -1.17771 -8.83182 0
M  V30 47949 O 585.297 -2.07206 -9.98732 0
M  V30 47950 O 584.727 0.0743816 -8.81969 0
M  V30 47951 O 585.267 -1.97652 -7.47304 0
M  V30 47952 C 586.207 -3.01133 -7.08783 0
M  V30 47953 C 585.477 -4.12613 -6.37049 0
M  V30 47954 O 585.267 -3.72827 -4.97879 0
M  V30 47955 C 584.077 -4.45085 -6.88694 0
M  V30 47956 O 583.687 -5.7877 -6.5624 0
M  V30 47957 C 583.197 -3.47817 -6.12078 0
M  V30 47958 C 583.907 -3.39414 -4.77697 0
M  V30 47959 N 583.857 -2.04199 -4.15538 0
M  V30 47960 H 586.696 -3.41248 -7.98759 0
M  V30 47961 H 586.968 -2.57728 -6.42 0
M  V30 47962 H 586.1 -5.02657 -6.42673 0
M  V30 47963 H 583.445 -4.11708 -4.08956 0
M  V30 47964 H 583.165 -2.49626 -6.61679 0
M  V30 47965 H 582.174 -3.8662 -6.00862 0
M  V30 47966 H 584.008 -4.29991 -7.97006 0
M  V30 47967 P 582.137 -6.144 -6.45285 0
M  V30 47968 O 581.917 -7.54673 -6.86199 0
M  V30 47969 O 581.347 -5.12391 -7.179 0
M  V30 47970 O 581.887 -5.99158 -4.88404 0
M  V30 47971 C 582.827 -6.60234 -3.96415 0
M  V30 47972 C 582.097 -7.08259 -2.72856 0
M  V30 47973 O 581.887 -5.9427 -1.83651 0
M  V30 47974 C 580.697 -7.64886 -2.9555 0
M  V30 47975 O 580.307 -8.53963 -1.90717 0
M  V30 47976 C 579.817 -6.4116 -2.90739 0
M  V30 47977 C 580.527 -5.55375 -1.86963 0
M  V30 47978 N 580.477 -4.09664 -2.15742 0
M  V30 47979 H 583.316 -7.45574 -4.45629 0
M  V30 47980 H 583.588 -5.86232 -3.67314 0
M  V30 47981 H 582.72 -7.84412 -2.24479 0
M  V30 47982 P 578.757 -8.7635 -1.60911 0
M  V30 47983 O 578.537 -10.1388 -1.11561 0
M  V30 47984 O 577.967 -8.36503 -2.79617 0
M  V30 47985 O 578.507 -7.71806 -0.42951 0
M  V30 47986 C 579.447 -7.67148 0.673689 0
M  V30 47987 C 578.717 -7.33374 1.95559 0
M  V30 47988 O 578.507 -5.88721 2.00726 0
M  V30 47989 C 577.317 -7.92526 2.10483 0
M  V30 47990 O 576.927 -8.02971 3.47653 0
M  V30 47991 C 576.437 -6.89602 1.41652 0
M  V30 47992 C 577.147 -5.59201 1.75185 0
M  V30 47993 N 577.097 -4.58235 0.662552 0
M  V30 47994 H 579.936 -8.65116 0.777161 0
M  V30 47995 H 580.208 -6.90173 0.474152 0
M  V30 47996 H 579.34 -7.66548 2.79458 0
M  V30 47997 P 575.377 -8.03563 3.84925 0
M  V30 47998 O 575.157 -8.85821 5.0569 0
M  V30 47999 O 574.587 -8.41101 2.65469 0
M  V30 48000 O 575.127 -6.4965 4.18908 0
M  V30 48001 C 576.067 -5.80886 5.05289 0
M  V30 48002 C 575.337 -4.78366 5.89277 0
M  V30 48003 O 575.127 -3.58302 5.08433 0
M  V30 48004 C 573.937 -5.16748 6.36559 0
M  V30 48005 O 573.547 -4.45271 7.53232 0
M  V30 48006 C 573.057 -4.74572 5.19863 0
M  V30 48007 C 573.767 -3.49373 4.70338 0
M  V30 48008 N 573.717 -3.31704 3.22876 0
M  V30 48009 C 573.567 -2.03326 2.74871 0
M  V30 48010 O 573.477 -1.06486 3.48076 0
M  V30 48011 N 573.527 -1.91838 1.37456 0
M  V30 48012 C 573.617 -2.94295 0.462035 0
M  V30 48013 C 573.767 -4.25064 1.05249 0
M  V30 48014 C 573.817 -4.40214 2.39192 0
M  V30 48015 H 576.558 -6.54063 5.71245 0
M  V30 48016 H 576.827 -5.30339 4.43905 0
M  V30 48017 H 575.96 -4.55889 6.76652 0
M  V30 48018 H 573.305 -2.6167 5.17842 0
M  V30 48019 H 573.026 -5.52155 4.41878 0
M  V30 48020 H 572.034 -4.51918 5.53297 0
M  V30 48021 H 573.868 -6.25055 6.55162 0
M  V30 48022 H 573.939 -5.39798 2.81523 0
M  V30 48023 P 571.997 -4.23843 7.83734 0
M  V30 48024 O 571.777 -4.19407 9.29784 0
M  V30 48025 O 571.207 -5.24426 7.09156 0
M  V30 48026 O 571.747 -2.7935 7.20758 0
M  V30 48027 C 572.687 -1.72945 7.50224 0
M  V30 48028 C 571.957 -0.406376 7.57911 0
M  V30 48029 O 571.747 0.0897726 6.21935 0
M  V30 48030 C 570.557 -0.438983 8.18724 0
M  V30 48031 O 570.167 0.825065 8.71101 0
M  V30 48032 C 569.677 -0.783689 6.99524 0
M  V30 48033 C 570.387 -0.0619086 5.85867 0
M  V30 48034 N 570.337 -0.78573 4.56183 0
M  V30 48035 C 570.187 -0.0292889 3.41887 0
M  V30 48036 O 570.097 1.18445 3.4419 0
M  V30 48037 N 570.147 -0.744061 2.23964 0
M  V30 48038 C 570.237 -2.10932 2.10362 0
M  V30 48039 O 570.187 -2.64117 0.98825 0
M  V30 48040 C 570.387 -2.8202 3.34994 0
M  V30 48041 C 570.497 -4.31095 3.25037 0
M  V30 48042 C 570.437 -2.15547 4.52261 0
M  V30 48043 H 573.178 -1.93379 8.46595 0
M  V30 48044 H 573.447 -1.68132 6.70852 0
M  V30 48045 H 572.58 0.289041 8.15388 0
M  V30 48046 H 569.925 0.926847 5.72749 0
M  V30 48047 H 569.646 -1.86973 6.82036 0
M  V30 48048 H 568.654 -0.403896 7.13257 0
M  V30 48049 H 570.488 -1.20585 8.97435 0
M  V30 48050 H 570.559 -2.71231 5.45042 0
M  V30 48051 H 569.529 -4.76966 3.49992 0
M  V30 48052 H 571.266 -4.67047 3.95024 0
M  V30 48053 H 570.778 -4.58996 2.22312 0
M  V30 48054 H 570.042 -0.214893 1.39758 0
M  V30 48055 P 568.617 1.17771 8.83182 0
M  V30 48056 O 568.397 2.07206 9.98732 0
M  V30 48057 O 567.827 -0.0743816 8.81969 0
M  V30 48058 O 568.367 1.97652 7.47304 0
M  V30 48059 C 569.307 3.01133 7.08783 0
M  V30 48060 C 568.577 4.12613 6.37049 0
M  V30 48061 O 568.367 3.72827 4.97879 0
M  V30 48062 C 567.177 4.45085 6.88694 0
M  V30 48063 O 566.787 5.7877 6.5624 0
M  V30 48064 C 566.297 3.47817 6.12078 0
M  V30 48065 C 567.007 3.39414 4.77697 0
M  V30 48066 N 566.957 2.04615 4.15333 0
M  V30 48067 H 569.796 3.41248 7.98759 0
M  V30 48068 H 570.068 2.5837 6.41742 0
M  V30 48069 H 569.2 5.02657 6.42673 0
M  V30 48070 P 565.237 6.144 6.45285 0
M  V30 48071 O 565.017 7.54673 6.86199 0
M  V30 48072 O 564.447 5.12391 7.179 0
M  V30 48073 O 564.987 5.99158 4.88404 0
M  V30 48074 C 565.927 6.60234 3.96415 0
M  V30 48075 C 565.197 7.08259 2.72856 0
M  V30 48076 O 564.987 5.9427 1.83651 0
M  V30 48077 C 563.797 7.64886 2.9555 0
M  V30 48078 O 563.407 8.53963 1.90717 0
M  V30 48079 C 562.917 6.4116 2.90739 0
M  V30 48080 C 563.627 5.55375 1.86963 0
M  V30 48081 N 563.577 4.09664 2.15742 0
M  V30 48082 H 566.416 7.45574 4.45629 0
M  V30 48083 H 566.688 5.86232 3.67314 0
M  V30 48084 H 565.82 7.84412 2.24479 0
M  V30 48085 P 561.857 8.7635 1.60911 0
M  V30 48086 O 561.637 10.1388 1.11561 0
M  V30 48087 O 561.067 8.36503 2.79617 0
M  V30 48088 O 561.607 7.71806 0.42951 0
M  V30 48089 C 562.547 7.67148 -0.673689 0
M  V30 48090 C 561.817 7.33374 -1.95559 0
M  V30 48091 O 561.607 5.88721 -2.00726 0
M  V30 48092 C 560.417 7.92526 -2.10483 0
M  V30 48093 O 560.027 8.02971 -3.47653 0
M  V30 48094 C 559.537 6.89602 -1.41652 0
M  V30 48095 C 560.247 5.59201 -1.75185 0
M  V30 48096 N 560.197 4.58235 -0.662552 0
M  V30 48097 H 563.036 8.65116 -0.777161 0
M  V30 48098 H 563.308 6.90173 -0.474152 0
M  V30 48099 H 562.44 7.66548 -2.79458 0
M  V30 48100 P 558.477 8.03563 -3.84925 0
M  V30 48101 O 558.257 8.85821 -5.0569 0
M  V30 48102 O 557.687 8.41101 -2.65469 0
M  V30 48103 O 558.227 6.4965 -4.18908 0
M  V30 48104 C 559.167 5.80886 -5.05289 0
M  V30 48105 C 558.437 4.78366 -5.89277 0
M  V30 48106 O 558.227 3.58302 -5.08433 0
M  V30 48107 C 557.037 5.16748 -6.36559 0
M  V30 48108 O 556.647 4.45271 -7.53232 0
M  V30 48109 C 556.157 4.74572 -5.19863 0
M  V30 48110 C 556.867 3.49373 -4.70338 0
M  V30 48111 N 556.817 3.31704 -3.22876 0
M  V30 48112 C 556.667 2.03326 -2.74871 0
M  V30 48113 O 556.577 1.06486 -3.48076 0
M  V30 48114 N 556.627 1.91838 -1.37456 0
M  V30 48115 C 556.717 2.94295 -0.462035 0
M  V30 48116 O 556.667 2.71763 0.752928 0
M  V30 48117 C 556.867 4.25064 -1.05249 0
M  V30 48118 C 556.977 5.39815 -0.095697 0
M  V30 48119 C 556.917 4.40214 -2.39192 0
M  V30 48120 H 559.658 6.54063 -5.71245 0
M  V30 48121 H 559.927 5.30339 -4.43905 0
M  V30 48122 H 559.06 4.55889 -6.76652 0
M  V30 48123 H 556.405 2.6167 -5.17842 0
M  V30 48124 H 556.126 5.52155 -4.41878 0
M  V30 48125 H 555.134 4.51918 -5.53297 0
M  V30 48126 H 556.968 6.25055 -6.55162 0
M  V30 48127 H 557.039 5.39798 -2.81523 0
M  V30 48128 H 556.009 5.91593 -0.0279582 0
M  V30 48129 H 557.746 6.10038 -0.450573 0
M  V30 48130 H 557.258 5.02007 0.89937 0
M  V30 48131 H 556.522 0.995326 -1.00435 0
M  V30 48132 P 555.097 4.23843 -7.83734 0
M  V30 48133 O 554.877 4.19407 -9.29784 0
M  V30 48134 O 554.307 5.24426 -7.09156 0
M  V30 48135 O 554.847 2.7935 -7.20758 0
M  V30 48136 C 555.787 1.72945 -7.50224 0
M  V30 48137 C 555.057 0.406376 -7.57911 0
M  V30 48138 O 554.847 -0.0897726 -6.21935 0
M  V30 48139 C 553.657 0.438983 -8.18724 0
M  V30 48140 O 553.267 -0.825065 -8.71101 0
M  V30 48141 C 552.777 0.783689 -6.99524 0
M  V30 48142 C 553.487 0.0619086 -5.85867 0
M  V30 48143 N 553.437 0.78573 -4.56183 0
M  V30 48144 C 553.287 0.0292889 -3.41887 0
M  V30 48145 O 553.197 -1.18445 -3.4419 0
M  V30 48146 N 553.247 0.744061 -2.23964 0
M  V30 48147 C 553.337 2.10932 -2.10362 0
M  V30 48148 O 553.287 2.64117 -0.98825 0
M  V30 48149 C 553.487 2.8202 -3.34994 0
M  V30 48150 C 553.597 4.31095 -3.25037 0
M  V30 48151 C 553.537 2.15547 -4.52261 0
M  V30 48152 H 556.278 1.93379 -8.46595 0
M  V30 48153 H 556.547 1.68132 -6.70852 0
M  V30 48154 H 555.68 -0.289041 -8.15388 0
M  V30 48155 H 553.025 -0.926847 -5.72749 0
M  V30 48156 H 552.746 1.86973 -6.82036 0
M  V30 48157 H 551.754 0.403896 -7.13257 0
M  V30 48158 H 553.588 1.20585 -8.97435 0
M  V30 48159 H 553.659 2.71231 -5.45042 0
M  V30 48160 H 552.629 4.76966 -3.49992 0
M  V30 48161 H 554.366 4.67047 -3.95024 0
M  V30 48162 H 553.878 4.58996 -2.22312 0
M  V30 48163 H 553.142 0.214893 -1.39758 0
M  V30 48164 P 551.717 -1.17771 -8.83182 0
M  V30 48165 O 551.497 -2.07206 -9.98732 0
M  V30 48166 O 550.927 0.0743816 -8.81969 0
M  V30 48167 O 551.467 -1.97652 -7.47304 0
M  V30 48168 C 552.407 -3.01055 -7.08599 0
M  V30 48169 C 551.677 -4.12613 -6.37049 0
M  V30 48170 O 551.467 -3.72827 -4.97879 0
M  V30 48171 C 550.277 -4.45719 -6.88164 0
M  V30 48172 O 549.887 -5.7877 -6.5624 0
M  V30 48173 C 549.397 -3.47768 -6.11991 0
M  V30 48174 C 550.107 -3.39356 -4.77615 0
M  V30 48175 N 550.057 -2.04571 -4.15244 0
M  V30 48176 C 549.907 -1.98587 -2.78314 0
M  V30 48177 O 549.817 -2.98134 -2.08835 0
M  V30 48178 N 549.867 -0.714467 -2.24925 0
M  V30 48179 C 549.957 0.470001 -2.94169 0
M  V30 48180 C 550.107 0.312541 -4.36783 0
M  V30 48181 C 550.157 -0.914512 -4.92583 0
M  V30 48182 H 552.898 -3.41169 -7.98575 0
M  V30 48183 H 553.167 -2.58295 -6.41556 0
M  V30 48184 H 552.3 -5.02657 -6.42673 0
M  V30 48185 H 549.645 -4.11637 -4.08885 0
M  V30 48186 H 549.366 -2.49626 -6.61679 0
M  V30 48187 H 548.374 -3.86566 -6.00778 0
M  V30 48188 H 550.208 -4.29943 -7.96918 0
M  V30 48189 H 550.279 -1.00937 -6.00374 0
M  V30 48190 P 548.337 -6.144 -6.45285 0
M  V30 48191 O 548.117 -7.54673 -6.86199 0
M  V30 48192 O 547.547 -5.12391 -7.179 0
M  V30 48193 O 548.087 -5.99158 -4.88404 0
M  V30 48194 C 549.027 -6.60234 -3.96415 0
M  V30 48195 C 548.297 -7.08259 -2.72856 0
M  V30 48196 O 548.087 -5.9427 -1.83651 0
M  V30 48197 C 546.897 -7.64886 -2.9555 0
M  V30 48198 O 546.507 -8.53963 -1.90717 0
M  V30 48199 C 546.017 -6.4116 -2.90739 0
M  V30 48200 C 546.727 -5.55375 -1.86963 0
M  V30 48201 N 546.677 -4.09664 -2.15742 0
M  V30 48202 H 549.516 -7.45574 -4.45629 0
M  V30 48203 H 549.788 -5.86232 -3.67314 0
M  V30 48204 H 548.92 -7.84412 -2.24479 0
M  V30 48205 P 544.957 -8.7635 -1.60911 0
M  V30 48206 O 544.737 -10.1388 -1.11561 0
M  V30 48207 O 544.167 -8.36503 -2.79617 0
M  V30 48208 O 544.707 -7.71906 -0.429565 0
M  V30 48209 C 545.647 -7.67148 0.673689 0
M  V30 48210 C 544.917 -7.33666 1.94851 0
M  V30 48211 O 544.707 -5.88816 2.00759 0
M  V30 48212 C 543.517 -7.92526 2.10483 0
M  V30 48213 O 543.127 -8.03063 3.47693 0
M  V30 48214 C 542.637 -6.89602 1.41652 0
M  V30 48215 C 543.347 -5.59201 1.75185 0
M  V30 48216 N 543.297 -4.58235 0.662552 0
M  V30 48217 C 543.147 -3.24451 1.01643 0
M  V30 48218 O 543.057 -2.94958 2.21722 0
M  V30 48219 N 543.097 -2.30408 -0.165238 0
M  V30 48220 C 543.197 -2.66048 -1.25118 0
M  V30 48221 N 543.147 -1.70787 -2.16813 0
M  V30 48222 C 543.347 -4.02732 -1.64413 0
M  V30 48223 C 543.397 -4.9488 -0.63991 0
M  V30 48224 H 546.137 -8.65017 0.777072 0
M  V30 48225 H 546.407 -6.90173 0.474152 0
M  V30 48226 H 545.54 -7.66642 2.79492 0
M  V30 48227 H 542.885 -5.16254 2.65229 0
M  V30 48228 H 542.605 -7.06532 0.329431 0
M  V30 48229 H 541.614 -6.91023 1.82047 0
M  V30 48230 H 543.448 -8.90873 1.62657 0
M  V30 48231 H 543.52 -6.00104 -0.892197 0
M  V30 48232 H 543.418 -4.31733 -2.69229 0
M  V30 48233 H 543.03 -0.724835 -1.8844 0
M  V30 48234 H 543.226 -1.94716 -3.16734 0
M  V30 48235 P 541.577 -8.03563 3.84925 0
M  V30 48236 O 541.357 -8.85821 5.0569 0
M  V30 48237 O 540.787 -8.41101 2.65469 0
M  V30 48238 O 541.327 -6.4965 4.18908 0
M  V30 48239 C 542.267 -5.81037 5.05421 0
M  V30 48240 C 541.537 -4.78366 5.89277 0
M  V30 48241 O 541.327 -3.58302 5.08433 0
M  V30 48242 C 540.137 -5.17448 6.36119 0
M  V30 48243 O 539.747 -4.45271 7.53232 0
M  V30 48244 C 539.257 -4.74639 5.19936 0
M  V30 48245 C 539.967 -3.49432 4.70418 0
M  V30 48246 N 539.917 -3.31776 3.22945 0
M  V30 48247 C 539.997 -4.27147 2.23315 0
M  V30 48248 N 539.917 -3.78447 1.02186 0
M  V30 48249 C 539.777 -2.41001 1.21732 0
M  V30 48250 C 539.647 -1.36111 0.27694 0
M  V30 48251 N 539.527 -0.113683 0.912949 0
M  V30 48252 C 539.527 0.0846396 2.27943 0
M  V30 48253 N 539.397 1.34737 2.6916 0
M  V30 48254 N 539.657 -0.902521 3.16379 0
M  V30 48255 C 539.777 -2.11937 2.56849 0
M  V30 48256 H 542.756 -6.54213 5.71376 0
M  V30 48257 H 543.028 -5.30492 4.44033 0
M  V30 48258 H 542.16 -4.55889 6.76652 0
M  V30 48259 P 538.197 -4.23843 7.83734 0
M  V30 48260 O 537.977 -4.19407 9.29784 0
M  V30 48261 O 537.407 -5.24426 7.09156 0
M  V30 48262 O 537.947 -2.7935 7.20758 0
M  V30 48263 C 538.887 -1.72945 7.50224 0
M  V30 48264 C 538.157 -0.406376 7.57911 0
M  V30 48265 O 537.947 0.0897726 6.21935 0
M  V30 48266 C 536.757 -0.438983 8.18724 0
M  V30 48267 O 536.367 0.825065 8.71101 0
M  V30 48268 C 535.877 -0.783689 6.99524 0
M  V30 48269 C 536.587 -0.0619086 5.85867 0
M  V30 48270 N 536.537 -0.78573 4.56183 0
M  V30 48271 C 536.387 -0.0292889 3.41887 0
M  V30 48272 O 536.297 1.18445 3.4419 0
M  V30 48273 N 536.347 -0.744061 2.23964 0
M  V30 48274 C 536.437 -2.10932 2.10362 0
M  V30 48275 O 536.387 -2.64117 0.98825 0
M  V30 48276 C 536.587 -2.8202 3.34994 0
M  V30 48277 C 536.697 -4.31095 3.25037 0
M  V30 48278 C 536.637 -2.15547 4.52261 0
M  V30 48279 H 539.378 -1.93379 8.46595 0
M  V30 48280 H 539.647 -1.68132 6.70852 0
M  V30 48281 H 538.78 0.289041 8.15388 0
M  V30 48282 H 536.125 0.926847 5.72749 0
M  V30 48283 H 535.846 -1.86973 6.82036 0
M  V30 48284 H 534.854 -0.403896 7.13257 0
M  V30 48285 H 536.688 -1.20585 8.97435 0
M  V30 48286 H 536.759 -2.71231 5.45042 0
M  V30 48287 H 535.729 -4.76966 3.49992 0
M  V30 48288 H 537.466 -4.67047 3.95024 0
M  V30 48289 H 536.978 -4.58996 2.22312 0
M  V30 48290 H 536.242 -0.214893 1.39758 0
M  V30 48291 P 534.817 1.17771 8.83182 0
M  V30 48292 O 534.597 2.07206 9.98732 0
M  V30 48293 O 534.027 -0.0743816 8.81969 0
M  V30 48294 O 534.567 1.97652 7.47304 0
M  V30 48295 C 535.507 3.01133 7.08783 0
M  V30 48296 C 534.777 4.12613 6.37049 0
M  V30 48297 O 534.567 3.72827 4.97879 0
M  V30 48298 C 533.377 4.45085 6.88694 0
M  V30 48299 O 532.987 5.7877 6.5624 0
M  V30 48300 C 532.497 3.47817 6.12078 0
M  V30 48301 C 533.207 3.39414 4.77697 0
M  V30 48302 N 533.157 2.04615 4.15333 0
M  V30 48303 H 535.996 3.41248 7.98759 0
M  V30 48304 H 536.268 2.5837 6.41742 0
M  V30 48305 H 535.4 5.02657 6.42673 0
M  V30 48306 P 531.437 6.144 6.45285 0
M  V30 48307 O 531.217 7.54673 6.86199 0
M  V30 48308 O 530.647 5.12391 7.179 0
M  V30 48309 O 531.187 5.99158 4.88404 0
M  V30 48310 C 532.127 6.60234 3.96415 0
M  V30 48311 C 531.397 7.08259 2.72856 0
M  V30 48312 O 531.187 5.9427 1.83651 0
M  V30 48313 C 529.997 7.64886 2.9555 0
M  V30 48314 O 529.607 8.53963 1.90717 0
M  V30 48315 C 529.117 6.4116 2.90739 0
M  V30 48316 C 529.827 5.55375 1.86963 0
M  V30 48317 N 529.777 4.09664 2.15742 0
M  V30 48318 H 532.616 7.45574 4.45629 0
M  V30 48319 H 532.888 5.86232 3.67314 0
M  V30 48320 H 532.02 7.84412 2.24479 0
M  V30 48321 P 528.057 8.7635 1.60911 0
M  V30 48322 O 527.837 10.1388 1.11561 0
M  V30 48323 O 527.267 8.36503 2.79617 0
M  V30 48324 O 527.807 7.71806 0.42951 0
M  V30 48325 C 528.747 7.67148 -0.673689 0
M  V30 48326 C 528.017 7.33374 -1.95559 0
M  V30 48327 O 527.807 5.88721 -2.00726 0
M  V30 48328 C 526.617 7.92526 -2.10483 0
M  V30 48329 O 526.227 8.02971 -3.47653 0
M  V30 48330 C 525.737 6.89602 -1.41652 0
M  V30 48331 C 526.447 5.59201 -1.75185 0
M  V30 48332 N 526.397 4.58235 -0.662552 0
M  V30 48333 H 529.236 8.65116 -0.777161 0
M  V30 48334 H 529.508 6.90173 -0.474152 0
M  V30 48335 H 528.64 7.66548 -2.79458 0
M  V30 48336 P 524.677 8.03563 -3.84925 0
M  V30 48337 O 524.457 8.85821 -5.0569 0
M  V30 48338 O 523.887 8.41101 -2.65469 0
M  V30 48339 O 524.427 6.4965 -4.18908 0
M  V30 48340 C 525.367 5.81037 -5.05421 0
M  V30 48341 C 524.637 4.78366 -5.89277 0
M  V30 48342 O 524.427 3.58302 -5.08433 0
M  V30 48343 C 523.237 5.17448 -6.36119 0
M  V30 48344 O 522.847 4.45271 -7.53232 0
M  V30 48345 C 522.357 4.74639 -5.19936 0
M  V30 48346 C 523.067 3.49432 -4.70418 0
M  V30 48347 N 523.017 3.31776 -3.22945 0
M  V30 48348 H 525.856 6.54213 -5.71376 0
M  V30 48349 H 526.128 5.30492 -4.44033 0
M  V30 48350 H 525.26 4.55889 -6.76652 0
M  V30 48351 P 521.297 4.23843 -7.83734 0
M  V30 48352 O 521.077 4.19407 -9.29784 0
M  V30 48353 O 520.507 5.24426 -7.09156 0
M  V30 48354 O 521.047 2.7935 -7.20758 0
M  V30 48355 C 521.987 1.7299 -7.50419 0
M  V30 48356 C 521.257 0.406376 -7.57911 0
M  V30 48357 O 521.047 -0.0897726 -6.21935 0
M  V30 48358 C 519.857 0.447224 -8.1878 0
M  V30 48359 O 519.467 -0.825065 -8.71101 0
M  V30 48360 C 518.977 0.783801 -6.99623 0
M  V30 48361 C 519.687 0.0619192 -5.85967 0
M  V30 48362 N 519.637 0.7859 -4.56281 0
M  V30 48363 H 522.476 1.93423 -8.4679 0
M  V30 48364 H 522.748 1.68181 -6.71046 0
M  V30 48365 H 521.88 -0.289041 -8.15388 0
M  V30 48366 P 517.917 -1.17771 -8.83182 0
M  V30 48367 O 517.697 -2.07206 -9.98732 0
M  V30 48368 O 517.127 0.0743816 -8.81969 0
M  V30 48369 O 517.667 -1.97652 -7.47304 0
M  V30 48370 C 518.607 -3.01133 -7.08783 0
M  V30 48371 C 517.877 -4.12613 -6.37049 0
M  V30 48372 O 517.667 -3.72827 -4.97879 0
M  V30 48373 C 516.477 -4.45085 -6.88694 0
M  V30 48374 O 516.087 -5.7877 -6.5624 0
M  V30 48375 C 515.597 -3.47817 -6.12078 0
M  V30 48376 C 516.307 -3.39414 -4.77697 0
M  V30 48377 N 516.257 -2.04615 -4.15333 0
M  V30 48378 H 519.096 -3.41248 -7.98759 0
M  V30 48379 H 519.368 -2.5837 -6.41742 0
M  V30 48380 H 518.5 -5.02657 -6.42673 0
M  V30 48381 P 514.537 -6.144 -6.45285 0
M  V30 48382 O 514.317 -7.54673 -6.86199 0
M  V30 48383 O 513.747 -5.12391 -7.179 0
M  V30 48384 O 514.287 -5.99158 -4.88404 0
M  V30 48385 C 515.227 -6.60234 -3.96415 0
M  V30 48386 C 514.497 -7.08259 -2.72856 0
M  V30 48387 O 514.287 -5.9427 -1.83651 0
M  V30 48388 C 513.097 -7.64886 -2.9555 0
M  V30 48389 O 512.707 -8.53963 -1.90717 0
M  V30 48390 C 512.217 -6.4116 -2.90739 0
M  V30 48391 C 512.927 -5.55375 -1.86963 0
M  V30 48392 N 512.877 -4.09664 -2.15742 0
M  V30 48393 H 515.716 -7.45574 -4.45629 0
M  V30 48394 H 515.988 -5.86232 -3.67314 0
M  V30 48395 H 515.12 -7.84412 -2.24479 0
M  V30 48396 P 511.157 -8.7635 -1.60911 0
M  V30 48397 O 510.937 -10.1388 -1.11561 0
M  V30 48398 O 510.367 -8.36503 -2.79617 0
M  V30 48399 O 510.907 -7.71806 -0.42951 0
M  V30 48400 C 511.847 -7.67148 0.673689 0
M  V30 48401 C 511.117 -7.33374 1.95559 0
M  V30 48402 O 510.907 -5.88721 2.00726 0
M  V30 48403 C 509.717 -7.92526 2.10483 0
M  V30 48404 O 509.327 -8.02971 3.47653 0
M  V30 48405 C 508.837 -6.89602 1.41652 0
M  V30 48406 C 509.547 -5.59201 1.75185 0
M  V30 48407 N 509.497 -4.58301 0.657969 0
M  V30 48408 H 512.336 -8.65116 0.777161 0
M  V30 48409 H 512.608 -6.9022 0.46725 0
M  V30 48410 H 511.74 -7.66548 2.79458 0
M  V30 48411 H 509.085 -5.16165 2.65183 0
M  V30 48412 H 508.805 -7.06433 0.329384 0
M  V30 48413 H 507.814 -6.90926 1.82021 0
M  V30 48414 H 509.648 -8.90873 1.62657 0
M  V30 48415 P 507.777 -8.03563 3.84925 0
M  V30 48416 O 507.557 -8.85821 5.0569 0
M  V30 48417 O 506.987 -8.41101 2.65469 0
M  V30 48418 O 507.527 -6.4965 4.18908 0
M  V30 48419 C 508.467 -5.81037 5.05421 0
M  V30 48420 C 507.737 -4.78366 5.89277 0
M  V30 48421 O 507.527 -3.58302 5.08433 0
M  V30 48422 C 506.337 -5.17448 6.36119 0
M  V30 48423 O 505.947 -4.45271 7.53232 0
M  V30 48424 C 505.457 -4.74639 5.19936 0
M  V30 48425 C 506.167 -3.49432 4.70418 0
M  V30 48426 N 506.117 -3.31776 3.22945 0
M  V30 48427 C 506.197 -4.27147 2.23315 0
M  V30 48428 N 506.117 -3.78447 1.02186 0
M  V30 48429 C 505.977 -2.41001 1.21732 0
M  V30 48430 C 505.847 -1.36111 0.27694 0
M  V30 48431 N 505.727 -0.113683 0.912949 0
M  V30 48432 C 505.727 0.0846396 2.27943 0
M  V30 48433 N 505.597 1.34737 2.6916 0
M  V30 48434 N 505.857 -0.902521 3.16379 0
M  V30 48435 C 505.977 -2.11937 2.56849 0
M  V30 48436 H 508.956 -6.54213 5.71376 0
M  V30 48437 H 509.228 -5.30492 4.44033 0
M  V30 48438 H 508.36 -4.55889 6.76652 0
M  V30 48439 P 504.397 -4.23843 7.83734 0
M  V30 48440 O 504.177 -4.19407 9.29784 0
M  V30 48441 O 503.607 -5.24426 7.09156 0
M  V30 48442 O 504.147 -2.7935 7.20758 0
M  V30 48443 C 505.087 -1.7299 7.50419 0
M  V30 48444 C 504.357 -0.406376 7.57911 0
M  V30 48445 O 504.147 0.0897726 6.21935 0
M  V30 48446 C 502.957 -0.447224 8.1878 0
M  V30 48447 O 502.567 0.825065 8.71101 0
M  V30 48448 C 502.077 -0.783801 6.99623 0
M  V30 48449 C 502.787 -0.0619192 5.85967 0
M  V30 48450 N 502.737 -0.7859 4.56281 0
M  V30 48451 H 505.576 -1.93423 8.4679 0
M  V30 48452 H 505.848 -1.68181 6.71046 0
M  V30 48453 H 504.98 0.289041 8.15388 0
M  V30 48454 P 501.017 1.17771 8.83182 0
M  V30 48455 O 500.797 2.07206 9.98732 0
M  V30 48456 O 500.227 -0.0743816 8.81969 0
M  V30 48457 O 500.767 1.97652 7.47304 0
M  V30 48458 C 501.707 3.01133 7.08783 0
M  V30 48459 C 500.977 4.12613 6.37049 0
M  V30 48460 O 500.767 3.72827 4.97879 0
M  V30 48461 C 499.577 4.45085 6.88694 0
M  V30 48462 O 499.187 5.7877 6.5624 0
M  V30 48463 C 498.697 3.47817 6.12078 0
M  V30 48464 C 499.407 3.39414 4.77697 0
M  V30 48465 N 499.357 2.04615 4.15333 0
M  V30 48466 H 502.196 3.41248 7.98759 0
M  V30 48467 H 502.468 2.5837 6.41742 0
M  V30 48468 H 501.6 5.02657 6.42673 0
M  V30 48469 P 497.637 6.144 6.45285 0
M  V30 48470 O 497.417 7.54673 6.86199 0
M  V30 48471 O 496.847 5.12391 7.179 0
M  V30 48472 O 497.387 5.99158 4.88404 0
M  V30 48473 C 498.327 6.60234 3.96415 0
M  V30 48474 C 497.597 7.08259 2.72856 0
M  V30 48475 O 497.387 5.9427 1.83651 0
M  V30 48476 C 496.197 7.64886 2.9555 0
M  V30 48477 O 495.807 8.53963 1.90717 0
M  V30 48478 C 495.317 6.4116 2.90739 0
M  V30 48479 C 496.027 5.55375 1.86963 0
M  V30 48480 N 495.977 4.09664 2.15742 0
M  V30 48481 H 498.816 7.45574 4.45629 0
M  V30 48482 H 499.088 5.86232 3.67314 0
M  V30 48483 H 498.22 7.84412 2.24479 0
M  V30 48484 P 494.257 8.7635 1.60911 0
M  V30 48485 O 494.037 10.1388 1.11561 0
M  V30 48486 O 493.467 8.36503 2.79617 0
M  V30 48487 O 494.007 7.71806 0.42951 0
M  V30 48488 C 494.947 7.67148 -0.673689 0
M  V30 48489 C 494.217 7.33374 -1.95559 0
M  V30 48490 O 494.007 5.88721 -2.00726 0
M  V30 48491 C 492.817 7.92526 -2.10483 0
M  V30 48492 O 492.427 8.02971 -3.47653 0
M  V30 48493 C 491.937 6.89602 -1.41652 0
M  V30 48494 C 492.647 5.59201 -1.75185 0
M  V30 48495 N 492.597 4.58235 -0.662552 0
M  V30 48496 H 495.436 8.65116 -0.777161 0
M  V30 48497 H 495.708 6.90173 -0.474152 0
M  V30 48498 H 494.84 7.66548 -2.79458 0
M  V30 48499 P 490.877 8.03563 -3.84925 0
M  V30 48500 O 490.657 8.85821 -5.0569 0
M  V30 48501 O 490.087 8.41101 -2.65469 0
M  V30 48502 O 490.627 6.4965 -4.18908 0
M  V30 48503 C 491.567 5.81037 -5.05421 0
M  V30 48504 C 490.837 4.78366 -5.89277 0
M  V30 48505 O 490.627 3.58302 -5.08433 0
M  V30 48506 C 489.437 5.17448 -6.36119 0
M  V30 48507 O 489.047 4.45271 -7.53232 0
M  V30 48508 C 488.557 4.74639 -5.19936 0
M  V30 48509 C 489.267 3.49432 -4.70418 0
M  V30 48510 N 489.217 3.32099 -3.22613 0
M  V30 48511 C 489.297 4.28245 -2.25527 0
M  V30 48512 N 489.227 3.80823 -1.04874 0
M  V30 48513 C 489.077 2.44571 -1.23535 0
M  V30 48514 C 488.947 1.37068 -0.330675 0
M  V30 48515 N 488.937 1.51472 0.990824 0
M  V30 48516 N 488.827 0.138614 -0.848756 0
M  V30 48517 C 488.837 -0.00675923 -2.16999 0
M  V30 48518 N 488.957 0.904372 -3.11122 0
M  V30 48519 C 489.077 2.12707 -2.56212 0
M  V30 48520 H 492.056 6.54213 -5.71376 0
M  V30 48521 H 492.328 5.30936 -4.43503 0
M  V30 48522 H 491.46 4.55889 -6.76652 0
M  V30 48523 H 488.805 2.61715 -5.17932 0
M  V30 48524 H 488.525 5.52155 -4.41878 0
M  V30 48525 H 487.534 4.51981 -5.53374 0
M  V30 48526 H 489.368 6.25124 -6.55234 0
M  V30 48527 H 489.409 5.34372 -2.47488 0
M  V30 48528 H 489.028 2.45153 1.4078 0
M  V30 48529 H 488.839 0.688422 1.59911 0
M  V30 48530 H 488.731 -1.02584 -2.52346 0
M  V30 48531 P 487.497 4.23843 -7.83734 0
M  V30 48532 O 487.277 4.19407 -9.29784 0
M  V30 48533 O 486.707 5.24426 -7.09156 0
M  V30 48534 O 487.247 2.7935 -7.20758 0
M  V30 48535 C 488.187 1.7299 -7.50419 0
M  V30 48536 C 487.457 0.406376 -7.57911 0
M  V30 48537 O 487.247 -0.0897726 -6.21935 0
M  V30 48538 C 486.057 0.447224 -8.1878 0
M  V30 48539 O 485.667 -0.825065 -8.71101 0
M  V30 48540 C 485.177 0.783801 -6.99623 0
M  V30 48541 C 485.887 0.0619192 -5.85967 0
M  V30 48542 N 485.837 0.7859 -4.56281 0
M  V30 48543 H 488.676 1.93423 -8.4679 0
M  V30 48544 H 488.948 1.68181 -6.71046 0
M  V30 48545 H 488.08 -0.289041 -8.15388 0
M  V30 48546 P 484.117 -1.17771 -8.83182 0
M  V30 48547 O 483.897 -2.07206 -9.98732 0
M  V30 48548 O 483.327 0.0743816 -8.81969 0
M  V30 48549 O 483.867 -1.97652 -7.47304 0
M  V30 48550 C 484.807 -3.01133 -7.08783 0
M  V30 48551 C 484.077 -4.12613 -6.37049 0
M  V30 48552 O 483.867 -3.72827 -4.97879 0
M  V30 48553 C 482.677 -4.45085 -6.88694 0
M  V30 48554 O 482.287 -5.7877 -6.5624 0
M  V30 48555 C 481.797 -3.47817 -6.12078 0
M  V30 48556 C 482.507 -3.39414 -4.77697 0
M  V30 48557 N 482.457 -2.04199 -4.15538 0
M  V30 48558 C 482.537 -0.821545 -4.76977 0
M  V30 48559 N 482.467 0.1794 -3.94592 0
M  V30 48560 C 482.317 -0.419121 -2.70776 0
M  V30 48561 C 482.187 0.109072 -1.40577 0
M  V30 48562 N 482.177 1.4104 -1.1344 0
M  V30 48563 N 482.067 -0.764381 -0.39411 0
M  V30 48564 C 482.077 -2.06587 -0.664135 0
M  V30 48565 N 482.197 -2.67948 -1.82153 0
M  V30 48566 C 482.317 -1.77942 -2.8147 0
M  V30 48567 H 485.296 -3.41248 -7.98759 0
M  V30 48568 H 485.568 -2.57728 -6.42 0
M  V30 48569 H 484.7 -5.02657 -6.42673 0
M  V30 48570 H 482.045 -4.11708 -4.08956 0
M  V30 48571 H 481.765 -2.49626 -6.61679 0
M  V30 48572 H 480.774 -3.8662 -6.00862 0
M  V30 48573 H 482.608 -4.29991 -7.97006 0
M  V30 48574 H 482.649 -0.702451 -5.84696 0
M  V30 48575 H 482.268 2.09647 -1.89651 0
M  V30 48576 H 482.079 1.73358 -0.160575 0
M  V30 48577 H 481.971 -2.71695 0.195838 0
M  V30 48578 P 480.737 -6.144 -6.45285 0
M  V30 48579 O 480.517 -7.54673 -6.86199 0
M  V30 48580 O 479.947 -5.12391 -7.179 0
M  V30 48581 O 480.487 -5.99158 -4.88404 0
M  V30 48582 C 481.427 -6.60234 -3.96415 0
M  V30 48583 C 480.697 -7.08259 -2.72856 0
M  V30 48584 O 480.487 -5.9427 -1.83651 0
M  V30 48585 C 479.297 -7.64886 -2.9555 0
M  V30 48586 O 478.907 -8.53963 -1.90717 0
M  V30 48587 C 478.417 -6.4116 -2.90739 0
M  V30 48588 C 479.127 -5.55375 -1.86963 0
M  V30 48589 N 479.077 -4.09664 -2.15742 0
M  V30 48590 H 481.916 -7.45574 -4.45629 0
M  V30 48591 H 482.188 -5.86232 -3.67314 0
M  V30 48592 H 481.32 -7.84412 -2.24479 0
M  V30 48593 P 477.357 -8.7635 -1.60911 0
M  V30 48594 O 477.137 -10.1388 -1.11561 0
M  V30 48595 O 476.567 -8.36503 -2.79617 0
M  V30 48596 O 477.107 -7.71806 -0.42951 0
M  V30 48597 C 478.047 -7.67148 0.673689 0
M  V30 48598 C 477.317 -7.33374 1.95559 0
M  V30 48599 O 477.107 -5.88721 2.00726 0
M  V30 48600 C 475.917 -7.92526 2.10483 0
M  V30 48601 O 475.527 -8.02971 3.47653 0
M  V30 48602 C 475.037 -6.89602 1.41652 0
M  V30 48603 C 475.747 -5.59201 1.75185 0
M  V30 48604 N 475.697 -4.58235 0.662552 0
M  V30 48605 H 478.536 -8.65116 0.777161 0
M  V30 48606 H 478.808 -6.90173 0.474152 0
M  V30 48607 H 477.94 -7.66548 2.79458 0
M  V30 48608 P 473.977 -8.03563 3.84925 0
M  V30 48609 O 473.757 -8.85821 5.0569 0
M  V30 48610 O 473.187 -8.41101 2.65469 0
M  V30 48611 O 473.727 -6.4965 4.18908 0
M  V30 48612 C 474.667 -5.81037 5.05421 0
M  V30 48613 C 473.937 -4.78366 5.89277 0
M  V30 48614 O 473.727 -3.58302 5.08433 0
M  V30 48615 C 472.537 -5.17448 6.36119 0
M  V30 48616 O 472.147 -4.45271 7.53232 0
M  V30 48617 C 471.657 -4.74639 5.19936 0
M  V30 48618 C 472.367 -3.49432 4.70418 0
M  V30 48619 N 472.317 -3.31776 3.22945 0
M  V30 48620 H 475.156 -6.54213 5.71376 0
M  V30 48621 H 475.428 -5.30492 4.44033 0
M  V30 48622 H 474.56 -4.55889 6.76652 0
M  V30 48623 P 470.597 -4.23843 7.83734 0
M  V30 48624 O 470.377 -4.19407 9.29784 0
M  V30 48625 O 469.807 -5.24426 7.09156 0
M  V30 48626 O 470.347 -2.79386 7.20852 0
M  V30 48627 C 471.287 -1.7299 7.50419 0
M  V30 48628 C 470.557 -0.41401 7.5797 0
M  V30 48629 O 470.347 0.089787 6.22035 0
M  V30 48630 C 469.157 -0.447224 8.1878 0
M  V30 48631 O 468.767 0.825159 8.71201 0
M  V30 48632 C 468.277 -0.783801 6.99623 0
M  V30 48633 C 468.987 -0.0619192 5.85967 0
M  V30 48634 N 468.937 -0.7859 4.56281 0
M  V30 48635 C 468.787 -0.0359258 3.39981 0
M  V30 48636 O 468.697 1.19723 3.49038 0
M  V30 48637 N 468.737 -0.869151 2.14025 0
M  V30 48638 C 468.837 -2.01207 2.14363 0
M  V30 48639 N 468.787 -2.58978 0.954287 0
M  V30 48640 C 468.987 -2.80817 3.32215 0
M  V30 48641 C 469.037 -2.13785 4.50884 0
M  V30 48642 H 471.777 -1.93401 8.46693 0
M  V30 48643 H 472.047 -1.68181 6.71046 0
M  V30 48644 H 471.18 0.289076 8.15488 0
M  V30 48645 H 468.525 0.927166 5.72947 0
M  V30 48646 H 468.245 -1.87 6.82132 0
M  V30 48647 H 467.254 -0.404009 7.13457 0
M  V30 48648 H 469.088 -1.20599 8.97534 0
M  V30 48649 H 469.16 -2.70295 5.43162 0
M  V30 48650 H 469.058 -3.89465 3.27406 0
M  V30 48651 H 468.67 -2.01616 0.107046 0
M  V30 48652 H 468.866 -3.61403 0.873101 0
M  V30 48653 P 467.217 1.17771 8.83182 0
M  V30 48654 O 466.997 2.07206 9.98732 0
M  V30 48655 O 466.427 -0.0743816 8.81969 0
M  V30 48656 O 466.967 1.97652 7.47304 0
M  V30 48657 C 467.907 3.01055 7.08599 0
M  V30 48658 C 467.177 4.12613 6.37049 0
M  V30 48659 O 466.967 3.72827 4.97879 0
M  V30 48660 C 465.777 4.45719 6.88164 0
M  V30 48661 O 465.387 5.7877 6.5624 0
M  V30 48662 C 464.897 3.47768 6.11991 0
M  V30 48663 C 465.607 3.39356 4.77615 0
M  V30 48664 N 465.557 2.04571 4.15244 0
M  V30 48665 C 465.407 1.98587 2.78314 0
M  V30 48666 O 465.317 2.98134 2.08835 0
M  V30 48667 N 465.367 0.714467 2.24925 0
M  V30 48668 C 465.457 -0.470001 2.94169 0
M  V30 48669 O 465.407 -1.55587 2.35195 0
M  V30 48670 C 465.607 -0.312541 4.36783 0
M  V30 48671 C 465.717 -1.57711 5.16352 0
M  V30 48672 C 465.657 0.914512 4.92583 0
M  V30 48673 H 468.398 3.41169 7.98575 0
M  V30 48674 H 468.667 2.58295 6.41556 0
M  V30 48675 H 467.8 5.02657 6.42673 0
M  V30 48676 H 465.145 4.11637 4.08885 0
M  V30 48677 H 464.866 2.49626 6.61679 0
M  V30 48678 H 463.874 3.86566 6.00778 0
M  V30 48679 H 465.708 4.29943 7.96918 0
M  V30 48680 H 465.779 1.00937 6.00374 0
M  V30 48681 H 464.749 -1.80153 5.63503 0
M  V30 48682 H 466.486 -1.4566 5.94104 0
M  V30 48683 H 465.998 -2.40664 4.49645 0
M  V30 48684 H 465.262 0.647622 1.25697 0
M  V30 48685 P 463.837 6.144 6.45285 0
M  V30 48686 O 463.617 7.54673 6.86199 0
M  V30 48687 O 463.047 5.12391 7.179 0
M  V30 48688 O 463.587 5.99158 4.88404 0
M  V30 48689 C 464.527 6.60234 3.96415 0
M  V30 48690 C 463.797 7.08259 2.72856 0
M  V30 48691 O 463.587 5.9427 1.83651 0
M  V30 48692 C 462.397 7.64886 2.9555 0
M  V30 48693 O 462.007 8.53963 1.90717 0
M  V30 48694 C 461.517 6.4116 2.90739 0
M  V30 48695 C 462.227 5.55375 1.86963 0
M  V30 48696 N 462.177 4.09664 2.15742 0
M  V30 48697 H 465.016 7.45574 4.45629 0
M  V30 48698 H 465.288 5.86232 3.67314 0
M  V30 48699 H 464.42 7.84412 2.24479 0
M  V30 48700 P 460.457 8.7635 1.60911 0
M  V30 48701 O 460.237 10.1388 1.11561 0
M  V30 48702 O 459.667 8.36503 2.79617 0
M  V30 48703 O 460.207 7.71806 0.42951 0
M  V30 48704 C 461.147 7.66948 -0.673514 0
M  V30 48705 C 460.417 7.33374 -1.95559 0
M  V30 48706 O 460.207 5.88721 -2.00726 0
M  V30 48707 C 459.017 7.92218 -2.1125 0
M  V30 48708 O 458.627 8.02971 -3.47653 0
M  V30 48709 C 458.137 6.89504 -1.41631 0
M  V30 48710 C 458.847 5.59106 -1.75155 0
M  V30 48711 N 458.797 4.58136 -0.662409 0
M  V30 48712 C 458.647 3.26059 -1.02863 0
M  V30 48713 O 458.557 2.90743 -2.19009 0
M  V30 48714 N 458.607 2.35995 0.0155585 0
M  V30 48715 C 458.697 2.65248 1.35603 0
M  V30 48716 O 458.647 1.75605 2.20651 0
M  V30 48717 C 458.847 4.05747 1.64698 0
M  V30 48718 C 458.957 4.42345 3.09553 0
M  V30 48719 C 458.897 4.96734 0.652411 0
M  V30 48720 H 461.638 8.64917 -0.776982 0
M  V30 48721 H 461.907 6.89974 -0.474015 0
M  V30 48722 H 461.04 7.66548 -2.79458 0
M  V30 48723 H 458.385 5.16076 -2.65138 0
M  V30 48724 H 458.106 7.06433 -0.329384 0
M  V30 48725 H 457.114 6.90829 -1.81996 0
M  V30 48726 H 458.948 8.90774 -1.62639 0
M  V30 48727 H 459.019 6.02181 0.895285 0
M  V30 48728 H 457.989 4.80252 3.45468 0
M  V30 48729 H 459.726 5.20015 3.22119 0
M  V30 48730 H 459.238 3.53269 3.67833 0
M  V30 48731 H 458.502 1.39558 -0.227499 0
M  V30 48732 P 457.077 8.03563 -3.84925 0
M  V30 48733 O 456.857 8.85821 -5.0569 0
M  V30 48734 O 456.287 8.41101 -2.65469 0
M  V30 48735 O 456.827 6.4965 -4.18908 0
M  V30 48736 C 457.767 5.81037 -5.05421 0
M  V30 48737 C 457.037 4.78366 -5.89277 0
M  V30 48738 O 456.827 3.58302 -5.08433 0
M  V30 48739 C 455.637 5.17448 -6.36119 0
M  V30 48740 O 455.247 4.45271 -7.53232 0
M  V30 48741 C 454.757 4.74639 -5.19936 0
M  V30 48742 C 455.467 3.49432 -4.70418 0
M  V30 48743 N 455.417 3.31776 -3.22945 0
M  V30 48744 H 458.256 6.54213 -5.71376 0
M  V30 48745 H 458.528 5.30492 -4.44033 0
M  V30 48746 H 457.66 4.55889 -6.76652 0
M  V30 48747 P 453.697 4.23843 -7.83734 0
M  V30 48748 O 453.477 4.19407 -9.29784 0
M  V30 48749 O 452.907 5.24426 -7.09156 0
M  V30 48750 O 453.447 2.7935 -7.20758 0
M  V30 48751 C 454.387 1.7299 -7.50419 0
M  V30 48752 C 453.657 0.406376 -7.57911 0
M  V30 48753 O 453.447 -0.0897726 -6.21935 0
M  V30 48754 C 452.257 0.447224 -8.1878 0
M  V30 48755 O 451.867 -0.825065 -8.71101 0
M  V30 48756 C 451.377 0.783801 -6.99623 0
M  V30 48757 C 452.087 0.0619192 -5.85967 0
M  V30 48758 N 452.037 0.790462 -4.56202 0
M  V30 48759 H 454.876 1.93423 -8.4679 0
M  V30 48760 H 455.148 1.68852 -6.70877 0
M  V30 48761 H 454.28 -0.289041 -8.15388 0
M  V30 48762 H 451.625 -0.927006 -5.72848 0
M  V30 48763 H 451.345 1.86973 -6.82036 0
M  V30 48764 H 450.354 0.403953 -7.13357 0
M  V30 48765 H 452.188 1.20599 -8.97534 0
M  V30 48766 P 450.317 -1.17771 -8.83182 0
M  V30 48767 O 450.097 -2.07206 -9.98732 0
M  V30 48768 O 449.527 0.0743816 -8.81969 0
M  V30 48769 O 450.067 -1.97652 -7.47304 0
M  V30 48770 C 451.007 -3.01133 -7.08783 0
M  V30 48771 C 450.277 -4.12613 -6.37049 0
M  V30 48772 O 450.067 -3.72827 -4.97879 0
M  V30 48773 C 448.877 -4.45085 -6.88694 0
M  V30 48774 O 448.487 -5.7877 -6.5624 0
M  V30 48775 C 447.997 -3.47817 -6.12078 0
M  V30 48776 C 448.707 -3.39414 -4.77697 0
M  V30 48777 N 448.657 -2.04615 -4.15333 0
M  V30 48778 H 451.496 -3.41248 -7.98759 0
M  V30 48779 H 451.768 -2.5837 -6.41742 0
M  V30 48780 H 450.9 -5.02657 -6.42673 0
M  V30 48781 P 446.937 -6.144 -6.45285 0
M  V30 48782 O 446.717 -7.54673 -6.86199 0
M  V30 48783 O 446.147 -5.12391 -7.179 0
M  V30 48784 O 446.687 -5.99236 -4.88467 0
M  V30 48785 C 447.627 -6.60234 -3.96415 0
M  V30 48786 C 446.897 -7.08079 -2.736 0
M  V30 48787 O 446.687 -5.94365 -1.8368 0
M  V30 48788 C 445.497 -7.64886 -2.9555 0
M  V30 48789 O 445.107 -8.5406 -1.90739 0
M  V30 48790 C 444.617 -6.4116 -2.90739 0
M  V30 48791 C 445.327 -5.55375 -1.86963 0
M  V30 48792 N 445.277 -4.09664 -2.15742 0
M  V30 48793 C 445.127 -3.22231 -1.08477 0
M  V30 48794 O 445.037 -3.68951 0.0600489 0
M  V30 48795 N 445.077 -1.76692 -1.48799 0
M  V30 48796 C 445.177 -1.41695 -2.57602 0
M  V30 48797 N 445.127 -0.107296 -2.75791 0
M  V30 48798 C 445.327 -2.29178 -3.69733 0
M  V30 48799 C 445.377 -3.62753 -3.42653 0
M  V30 48800 H 448.117 -7.45488 -4.45578 0
M  V30 48801 H 448.387 -5.86232 -3.67314 0
M  V30 48802 H 447.52 -7.84508 -2.24507 0
M  V30 48803 H 444.865 -5.73556 -0.888715 0
M  V30 48804 H 444.585 -5.9096 -3.88638 0
M  V30 48805 H 443.594 -6.66053 -2.58894 0
M  V30 48806 H 445.428 -8.16339 -3.92049 0
M  V30 48807 H 445.5 -4.33052 -4.24913 0
M  V30 48808 H 445.398 -1.9103 -4.71577 0
M  V30 48809 H 445.01 0.521221 -1.95056 0
M  V30 48810 H 445.206 0.286429 -3.70695 0
M  V30 48811 P 443.557 -8.7635 -1.60911 0
M  V30 48812 O 443.337 -10.1388 -1.11561 0
M  V30 48813 O 442.767 -8.36503 -2.79617 0
M  V30 48814 O 443.307 -7.71906 -0.429565 0
M  V30 48815 C 444.247 -7.67148 0.673689 0
M  V30 48816 C 443.517 -7.33666 1.94851 0
M  V30 48817 O 443.307 -5.88816 2.00759 0
M  V30 48818 C 442.117 -7.92526 2.10483 0
M  V30 48819 O 441.727 -8.03063 3.47693 0
M  V30 48820 C 441.237 -6.89602 1.41652 0
M  V30 48821 C 441.947 -5.59201 1.75185 0
M  V30 48822 N 441.897 -4.58235 0.662552 0
M  V30 48823 C 441.747 -3.24451 1.01643 0
M  V30 48824 O 441.657 -2.94958 2.21722 0
M  V30 48825 N 441.697 -2.30408 -0.165238 0
M  V30 48826 C 441.797 -2.66048 -1.25118 0
M  V30 48827 N 441.747 -1.70787 -2.16813 0
M  V30 48828 C 441.947 -4.02732 -1.64413 0
M  V30 48829 C 441.997 -4.9488 -0.63991 0
M  V30 48830 H 444.737 -8.65017 0.777072 0
M  V30 48831 H 445.007 -6.90173 0.474152 0
M  V30 48832 H 444.14 -7.66642 2.79492 0
M  V30 48833 H 441.485 -5.16254 2.65229 0
M  V30 48834 H 441.205 -7.06532 0.329431 0
M  V30 48835 H 440.214 -6.91023 1.82047 0
M  V30 48836 H 442.048 -8.90873 1.62657 0
M  V30 48837 H 442.12 -6.00104 -0.892197 0
M  V30 48838 H 442.018 -4.31733 -2.69229 0
M  V30 48839 H 441.63 -0.724835 -1.8844 0
M  V30 48840 H 441.826 -1.94716 -3.16734 0
M  V30 48841 P 440.177 -8.03563 3.84925 0
M  V30 48842 O 439.957 -8.85821 5.0569 0
M  V30 48843 O 439.387 -8.41101 2.65469 0
M  V30 48844 O 439.927 -6.4965 4.18908 0
M  V30 48845 C 440.867 -5.81037 5.05421 0
M  V30 48846 C 440.137 -4.78366 5.89277 0
M  V30 48847 O 439.927 -3.58302 5.08433 0
M  V30 48848 C 438.737 -5.17448 6.36119 0
M  V30 48849 O 438.347 -4.45271 7.53232 0
M  V30 48850 C 437.857 -4.74639 5.19936 0
M  V30 48851 C 438.567 -3.49432 4.70418 0
M  V30 48852 N 438.517 -3.31776 3.22945 0
M  V30 48853 H 441.356 -6.54213 5.71376 0
M  V30 48854 H 441.628 -5.30492 4.44033 0
M  V30 48855 H 440.76 -4.55889 6.76652 0
M  V30 48856 P 436.797 -4.23843 7.83734 0
M  V30 48857 O 436.577 -4.19407 9.29784 0
M  V30 48858 O 436.007 -5.24426 7.09156 0
M  V30 48859 O 436.547 -2.7935 7.20758 0
M  V30 48860 C 437.487 -1.7299 7.50419 0
M  V30 48861 C 436.757 -0.406376 7.57911 0
M  V30 48862 O 436.547 0.0897726 6.21935 0
M  V30 48863 C 435.357 -0.447224 8.1878 0
M  V30 48864 O 434.967 0.825065 8.71101 0
M  V30 48865 C 434.477 -0.783801 6.99623 0
M  V30 48866 C 435.187 -0.0619192 5.85967 0
M  V30 48867 N 435.137 -0.7859 4.56281 0
M  V30 48868 H 437.976 -1.93423 8.4679 0
M  V30 48869 H 438.248 -1.68181 6.71046 0
M  V30 48870 H 437.38 0.289041 8.15388 0
M  V30 48871 P 433.417 1.17771 8.83182 0
M  V30 48872 O 433.197 2.07206 9.98732 0
M  V30 48873 O 432.627 -0.0743816 8.81969 0
M  V30 48874 O 433.167 1.97652 7.47304 0
M  V30 48875 C 434.107 3.01055 7.08599 0
M  V30 48876 C 433.377 4.12613 6.37049 0
M  V30 48877 O 433.167 3.72827 4.97879 0
M  V30 48878 C 431.977 4.45719 6.88164 0
M  V30 48879 O 431.587 5.7877 6.5624 0
M  V30 48880 C 431.097 3.47768 6.11991 0
M  V30 48881 C 431.807 3.39356 4.77615 0
M  V30 48882 N 431.757 2.04571 4.15244 0
M  V30 48883 C 431.607 1.98587 2.78314 0
M  V30 48884 O 431.517 2.98134 2.08835 0
M  V30 48885 N 431.567 0.714467 2.24925 0
M  V30 48886 C 431.657 -0.470001 2.94169 0
M  V30 48887 C 431.807 -0.312541 4.36783 0
M  V30 48888 C 431.857 0.914512 4.92583 0
M  V30 48889 H 434.598 3.41169 7.98575 0
M  V30 48890 H 434.867 2.58295 6.41556 0
M  V30 48891 H 434 5.02657 6.42673 0
M  V30 48892 H 431.345 4.11637 4.08885 0
M  V30 48893 H 431.066 2.49626 6.61679 0
M  V30 48894 H 430.074 3.86566 6.00778 0
M  V30 48895 H 431.908 4.29943 7.96918 0
M  V30 48896 H 431.979 1.00937 6.00374 0
M  V30 48897 P 430.037 6.144 6.45285 0
M  V30 48898 O 429.817 7.54673 6.86199 0
M  V30 48899 O 429.247 5.12391 7.179 0
M  V30 48900 O 429.787 5.99158 4.88404 0
M  V30 48901 C 430.727 6.60234 3.96415 0
M  V30 48902 C 429.997 7.08259 2.72856 0
M  V30 48903 O 429.787 5.9427 1.83651 0
M  V30 48904 C 428.597 7.64886 2.9555 0
M  V30 48905 O 428.207 8.53963 1.90717 0
M  V30 48906 C 427.717 6.4116 2.90739 0
M  V30 48907 C 428.427 5.55375 1.86963 0
M  V30 48908 N 428.377 4.09448 2.16152 0
M  V30 48909 H 431.216 7.45574 4.45629 0
M  V30 48910 H 431.488 5.85864 3.679 0
M  V30 48911 H 430.62 7.84412 2.24479 0
M  V30 48912 H 427.965 5.73457 0.888562 0
M  V30 48913 H 427.685 5.90877 3.88583 0
M  V30 48914 H 426.694 6.6596 2.58858 0
M  V30 48915 H 428.528 8.16339 3.92049 0
M  V30 48916 P 426.657 8.7635 1.60911 0
M  V30 48917 O 426.437 10.1388 1.11561 0
M  V30 48918 O 425.867 8.36503 2.79617 0
M  V30 48919 O 426.407 7.71806 0.42951 0
M  V30 48920 C 427.347 7.66948 -0.673514 0
M  V30 48921 C 426.617 7.33374 -1.95559 0
M  V30 48922 O 426.407 5.88721 -2.00726 0
M  V30 48923 C 425.217 7.92218 -2.1125 0
M  V30 48924 O 424.827 8.02971 -3.47653 0
M  V30 48925 C 424.337 6.89504 -1.41631 0
M  V30 48926 C 425.047 5.59106 -1.75155 0
M  V30 48927 N 424.997 4.58136 -0.662409 0
M  V30 48928 C 424.847 3.26059 -1.02863 0
M  V30 48929 O 424.757 2.90743 -2.19009 0
M  V30 48930 N 424.807 2.35995 0.0155585 0
M  V30 48931 C 424.897 2.65248 1.35603 0
M  V30 48932 C 425.047 4.05747 1.64698 0
M  V30 48933 C 425.097 4.96734 0.652411 0
M  V30 48934 H 427.838 8.64917 -0.776982 0
M  V30 48935 H 428.107 6.89974 -0.474015 0
M  V30 48936 H 427.24 7.66548 -2.79458 0
M  V30 48937 H 424.585 5.16076 -2.65138 0
M  V30 48938 H 424.306 7.06433 -0.329384 0
M  V30 48939 H 423.314 6.90829 -1.81996 0
M  V30 48940 H 425.148 8.90774 -1.62639 0
M  V30 48941 H 425.219 6.02181 0.895285 0
M  V30 48942 P 423.278 8.03563 -3.84925 0
M  V30 48943 O 423.058 8.85821 -5.0569 0
M  V30 48944 O 422.488 8.41101 -2.65469 0
M  V30 48945 O 423.028 6.4965 -4.18908 0
M  V30 48946 C 423.968 5.80886 -5.05289 0
M  V30 48947 C 423.238 4.78366 -5.89277 0
M  V30 48948 O 423.028 3.58302 -5.08433 0
M  V30 48949 C 421.838 5.16748 -6.36559 0
M  V30 48950 O 421.448 4.45271 -7.53232 0
M  V30 48951 C 420.958 4.74572 -5.19863 0
M  V30 48952 C 421.668 3.49373 -4.70338 0
M  V30 48953 N 421.618 3.31704 -3.22876 0
M  V30 48954 C 421.468 2.03326 -2.74871 0
M  V30 48955 O 421.378 1.06486 -3.48076 0
M  V30 48956 N 421.428 1.91838 -1.37456 0
M  V30 48957 C 421.518 2.94295 -0.462035 0
M  V30 48958 C 421.668 4.25064 -1.05249 0
M  V30 48959 C 421.718 4.40214 -2.39192 0
M  V30 48960 H 424.459 6.54063 -5.71245 0
M  V30 48961 H 424.728 5.30339 -4.43905 0
M  V30 48962 H 423.861 4.55889 -6.76652 0
M  V30 48963 H 421.206 2.6167 -5.17842 0
M  V30 48964 H 420.927 5.52155 -4.41878 0
M  V30 48965 H 419.935 4.51918 -5.53297 0
M  V30 48966 H 421.769 6.25055 -6.55162 0
M  V30 48967 H 421.84 5.39798 -2.81523 0
M  V30 48968 P 419.898 4.23843 -7.83734 0
M  V30 48969 O 419.678 4.19407 -9.29784 0
M  V30 48970 O 419.108 5.24426 -7.09156 0
M  V30 48971 O 419.648 2.7935 -7.20758 0
M  V30 48972 C 420.588 1.7299 -7.50419 0
M  V30 48973 C 419.858 0.406376 -7.57911 0
M  V30 48974 O 419.648 -0.0897726 -6.21935 0
M  V30 48975 C 418.458 0.447224 -8.1878 0
M  V30 48976 O 418.068 -0.825065 -8.71101 0
M  V30 48977 C 417.578 0.783801 -6.99623 0
M  V30 48978 C 418.288 0.0619192 -5.85967 0
M  V30 48979 N 418.238 0.7859 -4.56281 0
M  V30 48980 H 421.077 1.93423 -8.4679 0
M  V30 48981 H 421.349 1.68181 -6.71046 0
M  V30 48982 H 420.481 -0.289041 -8.15388 0
M  V30 48983 P 416.518 -1.17771 -8.83182 0
M  V30 48984 O 416.298 -2.07206 -9.98732 0
M  V30 48985 O 415.728 0.0743816 -8.81969 0
M  V30 48986 O 416.268 -1.97652 -7.47304 0
M  V30 48987 C 417.208 -3.01133 -7.08783 0
M  V30 48988 C 416.478 -4.12613 -6.37049 0
M  V30 48989 O 416.268 -3.72827 -4.97879 0
M  V30 48990 C 415.078 -4.45085 -6.88694 0
M  V30 48991 O 414.688 -5.7877 -6.5624 0
M  V30 48992 C 414.198 -3.47817 -6.12078 0
M  V30 48993 C 414.908 -3.39414 -4.77697 0
M  V30 48994 N 414.858 -2.04615 -4.15333 0
M  V30 48995 H 417.697 -3.41248 -7.98759 0
M  V30 48996 H 417.969 -2.5837 -6.41742 0
M  V30 48997 H 417.101 -5.02657 -6.42673 0
M  V30 48998 P 413.138 -6.144 -6.45285 0
M  V30 48999 O 412.918 -7.54673 -6.86199 0
M  V30 49000 O 412.348 -5.12391 -7.179 0
M  V30 49001 O 412.888 -5.99158 -4.88404 0
M  V30 49002 C 413.828 -6.60234 -3.96415 0
M  V30 49003 C 413.098 -7.08259 -2.72856 0
M  V30 49004 O 412.888 -5.9427 -1.83651 0
M  V30 49005 C 411.698 -7.64886 -2.9555 0
M  V30 49006 O 411.308 -8.53963 -1.90717 0
M  V30 49007 C 410.818 -6.4116 -2.90739 0
M  V30 49008 C 411.528 -5.55375 -1.86963 0
M  V30 49009 N 411.478 -4.09664 -2.15742 0
M  V30 49010 H 414.317 -7.45574 -4.45629 0
M  V30 49011 H 414.589 -5.86232 -3.67314 0
M  V30 49012 H 413.721 -7.84412 -2.24479 0
M  V30 49013 P 409.758 -8.7635 -1.60911 0
M  V30 49014 O 409.538 -10.1388 -1.11561 0
M  V30 49015 O 408.968 -8.36503 -2.79617 0
M  V30 49016 O 409.508 -7.71906 -0.429565 0
M  V30 49017 C 410.448 -7.67148 0.673689 0
M  V30 49018 C 409.718 -7.33666 1.94851 0
M  V30 49019 O 409.508 -5.88816 2.00759 0
M  V30 49020 C 408.318 -7.92526 2.10483 0
M  V30 49021 O 407.928 -8.03063 3.47693 0
M  V30 49022 C 407.438 -6.89602 1.41652 0
M  V30 49023 C 408.148 -5.59201 1.75185 0
M  V30 49024 N 408.098 -4.58235 0.662552 0
M  V30 49025 C 407.948 -3.24451 1.01643 0
M  V30 49026 O 407.858 -2.94958 2.21722 0
M  V30 49027 N 407.898 -2.30408 -0.165238 0
M  V30 49028 C 407.998 -2.66048 -1.25118 0
M  V30 49029 N 407.948 -1.70787 -2.16813 0
M  V30 49030 C 408.148 -4.02732 -1.64413 0
M  V30 49031 C 408.198 -4.9488 -0.63991 0
M  V30 49032 H 410.938 -8.65017 0.777072 0
M  V30 49033 H 411.208 -6.90173 0.474152 0
M  V30 49034 H 410.341 -7.66642 2.79492 0
M  V30 49035 H 407.686 -5.16254 2.65229 0
M  V30 49036 H 407.406 -7.06532 0.329431 0
M  V30 49037 H 406.415 -6.91023 1.82047 0
M  V30 49038 H 408.249 -8.90873 1.62657 0
M  V30 49039 H 408.321 -6.00104 -0.892197 0
M  V30 49040 H 408.219 -4.31733 -2.69229 0
M  V30 49041 H 407.831 -0.724835 -1.8844 0
M  V30 49042 H 408.027 -1.94716 -3.16734 0
M  V30 49043 P 406.378 -8.03563 3.84925 0
M  V30 49044 O 406.158 -8.85821 5.0569 0
M  V30 49045 O 405.588 -8.41101 2.65469 0
M  V30 49046 O 406.128 -6.49734 4.18962 0
M  V30 49047 C 407.068 -5.81037 5.05421 0
M  V30 49048 C 406.338 -4.79018 5.88876 0
M  V30 49049 O 406.128 -3.58359 5.08515 0
M  V30 49050 C 404.938 -5.17448 6.36119 0
M  V30 49051 O 404.548 -4.45322 7.53318 0
M  V30 49052 C 404.058 -4.74639 5.19936 0
M  V30 49053 C 404.768 -3.49432 4.70418 0
M  V30 49054 N 404.718 -3.31776 3.22945 0
M  V30 49055 C 404.568 -2.02742 2.72939 0
M  V30 49056 O 404.478 -1.08301 3.52749 0
M  V30 49057 N 404.518 -1.96117 1.22063 0
M  V30 49058 C 404.618 -2.8878 0.551566 0
M  V30 49059 N 404.568 -2.65609 -0.750198 0
M  V30 49060 C 404.768 -4.22457 1.03707 0
M  V30 49061 C 404.818 -4.37979 2.39113 0
M  V30 49062 H 407.558 -6.54138 5.7131 0
M  V30 49063 H 407.828 -5.30492 4.44033 0
M  V30 49064 H 406.961 -4.55945 6.76735 0
M  V30 49065 H 404.306 -2.6176 5.18021 0
M  V30 49066 H 404.026 -5.52233 4.41941 0
M  V30 49067 H 403.035 -4.52045 5.53452 0
M  V30 49068 H 404.869 -6.25124 6.55234 0
M  V30 49069 H 404.941 -5.37936 2.80552 0
M  V30 49070 H 404.839 -5.07528 0.359553 0
M  V30 49071 H 404.451 -1.69403 -1.09847 0
M  V30 49072 H 404.647 -3.43701 -1.41792 0
M  V30 49073 P 402.998 -4.23843 7.83734 0
M  V30 49074 O 402.778 -4.19407 9.29784 0
M  V30 49075 O 402.208 -5.24426 7.09156 0
M  V30 49076 O 402.748 -2.7935 7.20758 0
M  V30 49077 C 403.688 -1.7299 7.50419 0
M  V30 49078 C 402.958 -0.406376 7.57911 0
M  V30 49079 O 402.748 0.0897726 6.21935 0
M  V30 49080 C 401.558 -0.447224 8.1878 0
M  V30 49081 O 401.168 0.825065 8.71101 0
M  V30 49082 C 400.678 -0.783801 6.99623 0
M  V30 49083 C 401.388 -0.0619192 5.85967 0
M  V30 49084 N 401.338 -0.790462 4.56202 0
M  V30 49085 H 404.177 -1.93423 8.4679 0
M  V30 49086 H 404.449 -1.68852 6.70877 0
M  V30 49087 H 403.581 0.289041 8.15388 0
M  V30 49088 H 400.926 0.927006 5.72848 0
M  V30 49089 H 400.646 -1.86973 6.82036 0
M  V30 49090 H 399.655 -0.403953 7.13357 0
M  V30 49091 H 401.489 -1.20599 8.97534 0
M  V30 49092 P 399.618 1.17771 8.83182 0
M  V30 49093 O 399.398 2.07206 9.98732 0
M  V30 49094 O 398.828 -0.0743816 8.81969 0
M  V30 49095 O 399.368 1.97678 7.474 0
M  V30 49096 C 400.308 3.01133 7.08783 0
M  V30 49097 C 399.578 4.1203 6.37546 0
M  V30 49098 O 399.368 3.72887 4.9796 0
M  V30 49099 C 398.178 4.45085 6.88694 0
M  V30 49100 O 397.788 5.78836 6.56315 0
M  V30 49101 C 397.298 3.47817 6.12078 0
M  V30 49102 C 398.008 3.39414 4.77697 0
M  V30 49103 N 397.958 2.04615 4.15333 0
M  V30 49104 C 397.808 1.96929 2.77162 0
M  V30 49105 O 397.718 3.02017 2.12006 0
M  V30 49106 N 397.758 0.55485 2.24237 0
M  V30 49107 C 397.858 -0.367808 2.9169 0
M  V30 49108 N 397.808 -1.53426 2.29427 0
M  V30 49109 C 398.008 -0.319148 4.33828 0
M  V30 49110 C 398.058 0.920672 4.90433 0
M  V30 49111 H 400.798 3.41209 7.98667 0
M  V30 49112 H 401.068 2.5837 6.41742 0
M  V30 49113 H 400.201 5.02718 6.42752 0
M  V30 49114 H 397.546 4.11779 4.09026 0
M  V30 49115 H 397.266 2.49661 6.61772 0
M  V30 49116 H 396.275 3.86674 6.00946 0
M  V30 49117 H 398.109 4.29991 7.97006 0
M  V30 49118 H 398.181 1.00589 5.98303 0
M  V30 49119 H 398.079 -1.22639 4.93799 0
M  V30 49120 H 397.691 -1.56819 1.27167 0
M  V30 49121 H 397.887 -2.41062 2.83063 0
M  V30 49122 P 396.238 6.144 6.45285 0
M  V30 49123 O 396.018 7.54673 6.86199 0
M  V30 49124 O 395.448 5.12391 7.179 0
M  V30 49125 O 395.988 5.99158 4.88404 0
M  V30 49126 C 396.928 6.60234 3.96415 0
M  V30 49127 C 396.198 7.08259 2.72856 0
M  V30 49128 O 395.988 5.9427 1.83651 0
M  V30 49129 C 394.798 7.64886 2.9555 0
M  V30 49130 O 394.408 8.53963 1.90717 0
M  V30 49131 C 393.918 6.4116 2.90739 0
M  V30 49132 C 394.628 5.55375 1.86963 0
M  V30 49133 N 394.578 4.09664 2.15742 0
M  V30 49134 H 397.417 7.45574 4.45629 0
M  V30 49135 H 397.689 5.86232 3.67314 0
M  V30 49136 H 396.821 7.84412 2.24479 0
M  V30 49137 P 392.858 8.7635 1.60911 0
M  V30 49138 O 392.638 10.1388 1.11561 0
M  V30 49139 O 392.068 8.36503 2.79617 0
M  V30 49140 O 392.608 7.71806 0.42951 0
M  V30 49141 C 393.548 7.66948 -0.673514 0
M  V30 49142 C 392.818 7.33374 -1.95559 0
M  V30 49143 O 392.608 5.88721 -2.00726 0
M  V30 49144 C 391.418 7.92218 -2.1125 0
M  V30 49145 O 391.028 8.02971 -3.47653 0
M  V30 49146 C 390.538 6.89504 -1.41631 0
M  V30 49147 C 391.248 5.59106 -1.75155 0
M  V30 49148 N 391.198 4.58136 -0.662409 0
M  V30 49149 C 391.048 3.26059 -1.02863 0
M  V30 49150 O 390.958 2.90743 -2.19009 0
M  V30 49151 N 391.008 2.35995 0.0155585 0
M  V30 49152 C 391.098 2.65248 1.35603 0
M  V30 49153 C 391.248 4.05747 1.64698 0
M  V30 49154 C 391.298 4.96734 0.652411 0
M  V30 49155 H 394.039 8.64917 -0.776982 0
M  V30 49156 H 394.308 6.89974 -0.474015 0
M  V30 49157 H 393.441 7.66548 -2.79458 0
M  V30 49158 H 390.786 5.16076 -2.65138 0
M  V30 49159 H 390.507 7.06433 -0.329384 0
M  V30 49160 H 389.515 6.90829 -1.81996 0
M  V30 49161 H 391.349 8.90774 -1.62639 0
M  V30 49162 H 391.42 6.02181 0.895285 0
M  V30 49163 P 389.478 8.03563 -3.84925 0
M  V30 49164 O 389.258 8.85821 -5.0569 0
M  V30 49165 O 388.688 8.41101 -2.65469 0
M  V30 49166 O 389.228 6.4965 -4.18908 0
M  V30 49167 C 390.168 5.81037 -5.05421 0
M  V30 49168 C 389.438 4.78366 -5.89277 0
M  V30 49169 O 389.228 3.58302 -5.08433 0
M  V30 49170 C 388.038 5.17448 -6.36119 0
M  V30 49171 O 387.648 4.45271 -7.53232 0
M  V30 49172 C 387.158 4.74639 -5.19936 0
M  V30 49173 C 387.868 3.49432 -4.70418 0
M  V30 49174 N 387.818 3.31776 -3.22945 0
M  V30 49175 H 390.657 6.54213 -5.71376 0
M  V30 49176 H 390.929 5.30492 -4.44033 0
M  V30 49177 H 390.061 4.55889 -6.76652 0
M  V30 49178 P 386.098 4.23843 -7.83734 0
M  V30 49179 O 385.878 4.19407 -9.29784 0
M  V30 49180 O 385.308 5.24426 -7.09156 0
M  V30 49181 O 385.848 2.7935 -7.20758 0
M  V30 49182 C 386.788 1.7299 -7.50419 0
M  V30 49183 C 386.058 0.406376 -7.57911 0
M  V30 49184 O 385.848 -0.0897726 -6.21935 0
M  V30 49185 C 384.658 0.447224 -8.1878 0
M  V30 49186 O 384.268 -0.825065 -8.71101 0
M  V30 49187 C 383.778 0.783801 -6.99623 0
M  V30 49188 C 384.488 0.0619192 -5.85967 0
M  V30 49189 N 384.438 0.7859 -4.56281 0
M  V30 49190 H 387.277 1.93423 -8.4679 0
M  V30 49191 H 387.549 1.68181 -6.71046 0
M  V30 49192 H 386.681 -0.289041 -8.15388 0
M  V30 49193 P 382.718 -1.17771 -8.83182 0
M  V30 49194 O 382.498 -2.07206 -9.98732 0
M  V30 49195 O 381.928 0.0743816 -8.81969 0
M  V30 49196 O 382.468 -1.97652 -7.47304 0
M  V30 49197 C 383.408 -3.01133 -7.08783 0
M  V30 49198 C 382.678 -4.12613 -6.37049 0
M  V30 49199 O 382.468 -3.72827 -4.97879 0
M  V30 49200 C 381.278 -4.45085 -6.88694 0
M  V30 49201 O 380.888 -5.7877 -6.5624 0
M  V30 49202 C 380.398 -3.47817 -6.12078 0
M  V30 49203 C 381.108 -3.39414 -4.77697 0
M  V30 49204 N 381.058 -2.04199 -4.15538 0
M  V30 49205 H 383.897 -3.41248 -7.98759 0
M  V30 49206 H 384.169 -2.57728 -6.42 0
M  V30 49207 H 383.301 -5.02657 -6.42673 0
M  V30 49208 H 380.646 -4.11708 -4.08956 0
M  V30 49209 H 380.366 -2.49626 -6.61679 0
M  V30 49210 H 379.375 -3.8662 -6.00862 0
M  V30 49211 H 381.209 -4.29991 -7.97006 0
M  V30 49212 P 379.338 -6.144 -6.45285 0
M  V30 49213 O 379.118 -7.54673 -6.86199 0
M  V30 49214 O 378.548 -5.12391 -7.179 0
M  V30 49215 O 379.088 -5.99158 -4.88404 0
M  V30 49216 C 380.028 -6.60062 -3.96313 0
M  V30 49217 C 379.298 -7.08259 -2.72856 0
M  V30 49218 O 379.088 -5.9427 -1.83651 0
M  V30 49219 C 377.898 -7.65087 -2.94749 0
M  V30 49220 O 377.508 -8.53963 -1.90717 0
M  V30 49221 C 377.018 -6.41069 -2.90698 0
M  V30 49222 C 377.728 -5.5528 -1.86931 0
M  V30 49223 N 377.678 -4.09575 -2.15696 0
M  V30 49224 C 377.528 -3.24249 -1.08435 0
M  V30 49225 O 377.438 -3.63946 0.0628747 0
M  V30 49226 N 377.488 -1.90009 -1.39973 0
M  V30 49227 C 377.578 -1.34884 -2.65614 0
M  V30 49228 C 377.728 -2.3145 -3.71736 0
M  V30 49229 C 377.778 -3.63518 -3.44754 0
M  V30 49230 H 380.519 -7.45402 -4.45526 0
M  V30 49231 H 380.788 -5.86062 -3.67208 0
M  V30 49232 H 379.921 -7.84412 -2.24479 0
M  V30 49233 H 377.266 -5.73358 -0.888409 0
M  V30 49234 H 376.987 -5.90877 -3.88583 0
M  V30 49235 H 375.995 -6.65867 -2.58821 0
M  V30 49236 H 377.829 -8.16248 -3.92006 0
M  V30 49237 H 377.9 -4.34551 -4.26383 0
M  V30 49238 P 375.958 -8.7635 -1.60911 0
M  V30 49239 O 375.738 -10.1388 -1.11561 0
M  V30 49240 O 375.168 -8.36503 -2.79617 0
M  V30 49241 O 375.708 -7.71806 -0.42951 0
M  V30 49242 C 376.648 -7.67148 0.673689 0
M  V30 49243 C 375.918 -7.33374 1.95559 0
M  V30 49244 O 375.708 -5.88721 2.00726 0
M  V30 49245 C 374.518 -7.92526 2.10483 0
M  V30 49246 O 374.128 -8.02971 3.47653 0
M  V30 49247 C 373.638 -6.89602 1.41652 0
M  V30 49248 C 374.348 -5.59201 1.75185 0
M  V30 49249 N 374.298 -4.58235 0.662552 0
M  V30 49250 H 377.137 -8.65116 0.777161 0
M  V30 49251 H 377.409 -6.90173 0.474152 0
M  V30 49252 H 376.541 -7.66548 2.79458 0
M  V30 49253 P 372.578 -8.03563 3.84925 0
M  V30 49254 O 372.358 -8.85821 5.0569 0
M  V30 49255 O 371.788 -8.41101 2.65469 0
M  V30 49256 O 372.328 -6.4965 4.18908 0
M  V30 49257 C 373.268 -5.81037 5.05421 0
M  V30 49258 C 372.538 -4.78366 5.89277 0
M  V30 49259 O 372.328 -3.58302 5.08433 0
M  V30 49260 C 371.138 -5.17448 6.36119 0
M  V30 49261 O 370.748 -4.45271 7.53232 0
M  V30 49262 C 370.258 -4.74639 5.19936 0
M  V30 49263 C 370.968 -3.49432 4.70418 0
M  V30 49264 N 370.918 -3.32099 3.22613 0
M  V30 49265 H 373.757 -6.54213 5.71376 0
M  V30 49266 H 374.029 -5.30936 4.43503 0
M  V30 49267 H 373.161 -4.55889 6.76652 0
M  V30 49268 H 370.506 -2.61715 5.17932 0
M  V30 49269 H 370.226 -5.52155 4.41878 0
M  V30 49270 H 369.235 -4.51981 5.53374 0
M  V30 49271 H 371.069 -6.25124 6.55234 0
M  V30 49272 P 369.198 -4.23843 7.83734 0
M  V30 49273 O 368.978 -4.19407 9.29784 0
M  V30 49274 O 368.408 -5.24426 7.09156 0
M  V30 49275 O 368.948 -2.79386 7.20852 0
M  V30 49276 C 369.888 -1.7299 7.50419 0
M  V30 49277 C 369.158 -0.41401 7.5797 0
M  V30 49278 O 368.948 0.089787 6.22035 0
M  V30 49279 C 367.758 -0.447224 8.1878 0
M  V30 49280 O 367.368 0.825159 8.71201 0
M  V30 49281 C 366.878 -0.783801 6.99623 0
M  V30 49282 C 367.588 -0.0619192 5.85967 0
M  V30 49283 N 367.538 -0.7859 4.56281 0
M  V30 49284 C 367.388 -0.0359258 3.39981 0
M  V30 49285 O 367.298 1.19723 3.49038 0
M  V30 49286 N 367.338 -0.869151 2.14025 0
M  V30 49287 C 367.438 -2.01207 2.14363 0
M  V30 49288 N 367.388 -2.58978 0.954287 0
M  V30 49289 C 367.588 -2.80817 3.32215 0
M  V30 49290 C 367.638 -2.13785 4.50884 0
M  V30 49291 H 370.378 -1.93401 8.46693 0
M  V30 49292 H 370.648 -1.68181 6.71046 0
M  V30 49293 H 369.781 0.289076 8.15488 0
M  V30 49294 H 367.126 0.927166 5.72947 0
M  V30 49295 H 366.846 -1.87 6.82132 0
M  V30 49296 H 365.855 -0.404009 7.13457 0
M  V30 49297 H 367.689 -1.20599 8.97534 0
M  V30 49298 H 367.761 -2.70295 5.43162 0
M  V30 49299 H 367.659 -3.89465 3.27406 0
M  V30 49300 H 367.271 -2.01616 0.107046 0
M  V30 49301 H 367.467 -3.61403 0.873101 0
M  V30 49302 P 365.818 1.17771 8.83182 0
M  V30 49303 O 365.598 2.07206 9.98732 0
M  V30 49304 O 365.028 -0.0743816 8.81969 0
M  V30 49305 O 365.568 1.97678 7.474 0
M  V30 49306 C 366.508 3.01133 7.08783 0
M  V30 49307 C 365.778 4.1203 6.37546 0
M  V30 49308 O 365.568 3.72887 4.9796 0
M  V30 49309 C 364.378 4.45085 6.88694 0
M  V30 49310 O 363.988 5.78836 6.56315 0
M  V30 49311 C 363.498 3.47817 6.12078 0
M  V30 49312 C 364.208 3.39414 4.77697 0
M  V30 49313 N 364.158 2.04615 4.15333 0
M  V30 49314 C 364.008 1.96929 2.77162 0
M  V30 49315 O 363.918 3.02017 2.12006 0
M  V30 49316 N 363.958 0.55485 2.24237 0
M  V30 49317 C 364.058 -0.367808 2.9169 0
M  V30 49318 N 364.008 -1.53426 2.29427 0
M  V30 49319 C 364.208 -0.319148 4.33828 0
M  V30 49320 C 364.258 0.920672 4.90433 0
M  V30 49321 H 366.998 3.41209 7.98667 0
M  V30 49322 H 367.268 2.5837 6.41742 0
M  V30 49323 H 366.401 5.02718 6.42752 0
M  V30 49324 H 363.746 4.11779 4.09026 0
M  V30 49325 H 363.466 2.49661 6.61772 0
M  V30 49326 H 362.475 3.86674 6.00946 0
M  V30 49327 H 364.309 4.29991 7.97006 0
M  V30 49328 H 364.381 1.00589 5.98303 0
M  V30 49329 H 364.279 -1.22639 4.93799 0
M  V30 49330 H 363.891 -1.56819 1.27167 0
M  V30 49331 H 364.087 -2.41062 2.83063 0
M  V30 49332 P 362.438 6.144 6.45285 0
M  V30 49333 O 362.218 7.54673 6.86199 0
M  V30 49334 O 361.648 5.12391 7.179 0
M  V30 49335 O 362.188 5.99158 4.88404 0
M  V30 49336 C 363.128 6.60234 3.96415 0
M  V30 49337 C 362.398 7.08259 2.72856 0
M  V30 49338 O 362.188 5.9427 1.83651 0
M  V30 49339 C 360.998 7.64886 2.9555 0
M  V30 49340 O 360.608 8.53963 1.90717 0
M  V30 49341 C 360.118 6.4116 2.90739 0
M  V30 49342 C 360.828 5.55375 1.86963 0
M  V30 49343 N 360.778 4.09664 2.15742 0
M  V30 49344 C 360.858 3.44381 3.37233 0
M  V30 49345 N 360.778 2.14131 3.28347 0
M  V30 49346 C 360.638 1.90247 1.91588 0
M  V30 49347 C 360.508 0.683992 1.20892 0
M  V30 49348 O 360.488 -0.46618 1.64523 0
M  V30 49349 N 360.388 0.903396 -0.173998 0
M  V30 49350 C 360.388 2.14171 -0.784879 0
M  V30 49351 N 360.258 2.1435 -2.11317 0
M  V30 49352 N 360.518 3.28784 -0.119316 0
M  V30 49353 C 360.638 3.0977 1.22194 0
M  V30 49354 H 363.617 7.45574 4.45629 0
M  V30 49355 H 363.889 5.86232 3.67314 0
M  V30 49356 H 363.021 7.84412 2.24479 0
M  V30 49357 H 360.366 5.73556 0.888715 0
M  V30 49358 H 360.086 5.9096 3.88638 0
M  V30 49359 H 359.095 6.66053 2.58894 0
M  V30 49360 H 360.929 8.16429 3.92093 0
M  V30 49361 H 360.978 3.96785 4.32043 0
M  V30 49362 H 360.296 0.0999567 -0.761467 0
M  V30 49363 H 360.259 3.03436 -2.63076 0
M  V30 49364 H 360.158 1.25228 -2.62233 0
M  V30 49365 P 359.058 8.7635 1.60911 0
M  V30 49366 O 358.838 10.1388 1.11561 0
M  V30 49367 O 358.268 8.36503 2.79617 0
M  V30 49368 O 358.808 7.71806 0.42951 0
M  V30 49369 C 359.748 7.67148 -0.673689 0
M  V30 49370 C 359.018 7.33374 -1.95559 0
M  V30 49371 O 358.808 5.88721 -2.00726 0
M  V30 49372 C 357.618 7.92526 -2.10483 0
M  V30 49373 O 357.228 8.02971 -3.47653 0
M  V30 49374 C 356.738 6.89602 -1.41652 0
M  V30 49375 C 357.448 5.59201 -1.75185 0
M  V30 49376 N 357.398 4.58235 -0.662552 0
M  V30 49377 C 357.478 4.7683 0.704049 0
M  V30 49378 N 357.398 3.66233 1.39775 0
M  V30 49379 C 357.258 2.66526 0.431739 0
M  V30 49380 C 357.128 1.26394 0.575992 0
M  V30 49381 N 357.008 0.62859 -0.67177 0
M  V30 49382 C 357.008 1.27134 -1.89385 0
M  V30 49383 N 356.878 0.492035 -2.96951 0
M  V30 49384 N 357.138 2.58978 -2.02907 0
M  V30 49385 C 357.258 3.22433 -0.832218 0
M  V30 49386 H 360.237 8.65116 -0.777161 0
M  V30 49387 H 360.509 6.90173 -0.474152 0
M  V30 49388 H 359.641 7.66548 -2.79458 0
M  V30 49389 P 355.678 8.03563 -3.84925 0
M  V30 49390 O 355.458 8.85821 -5.0569 0
M  V30 49391 O 354.888 8.41101 -2.65469 0
M  V30 49392 O 355.428 6.4965 -4.18908 0
M  V30 49393 C 356.368 5.81037 -5.05421 0
M  V30 49394 C 355.638 4.78366 -5.89277 0
M  V30 49395 O 355.428 3.58302 -5.08433 0
M  V30 49396 C 354.238 5.17448 -6.36119 0
M  V30 49397 O 353.848 4.45271 -7.53232 0
M  V30 49398 C 353.358 4.74639 -5.19936 0
M  V30 49399 C 354.068 3.49432 -4.70418 0
M  V30 49400 N 354.018 3.31776 -3.22945 0
M  V30 49401 H 356.857 6.54213 -5.71376 0
M  V30 49402 H 357.129 5.30492 -4.44033 0
M  V30 49403 H 356.261 4.55889 -6.76652 0
M  V30 49404 P 352.298 4.23843 -7.83734 0
M  V30 49405 O 352.078 4.19407 -9.29784 0
M  V30 49406 O 351.508 5.24426 -7.09156 0
M  V30 49407 O 352.048 2.7935 -7.20758 0
M  V30 49408 C 352.988 1.7299 -7.50419 0
M  V30 49409 C 352.258 0.406376 -7.57911 0
M  V30 49410 O 352.048 -0.0897726 -6.21935 0
M  V30 49411 C 350.858 0.447224 -8.1878 0
M  V30 49412 O 350.468 -0.825065 -8.71101 0
M  V30 49413 C 349.978 0.783801 -6.99623 0
M  V30 49414 C 350.688 0.0619192 -5.85967 0
M  V30 49415 N 350.638 0.790462 -4.56202 0
M  V30 49416 H 353.477 1.93423 -8.4679 0
M  V30 49417 H 353.749 1.68852 -6.70877 0
M  V30 49418 H 352.881 -0.289041 -8.15388 0
M  V30 49419 H 350.226 -0.927006 -5.72848 0
M  V30 49420 H 349.946 1.86973 -6.82036 0
M  V30 49421 H 348.955 0.403953 -7.13357 0
M  V30 49422 H 350.789 1.20599 -8.97534 0
M  V30 49423 P 348.918 -1.17771 -8.83182 0
M  V30 49424 O 348.698 -2.07206 -9.98732 0
M  V30 49425 O 348.128 0.0743816 -8.81969 0
M  V30 49426 O 348.668 -1.97652 -7.47304 0
M  V30 49427 C 349.608 -3.01133 -7.08783 0
M  V30 49428 C 348.878 -4.12613 -6.37049 0
M  V30 49429 O 348.668 -3.72827 -4.97879 0
M  V30 49430 C 347.478 -4.45085 -6.88694 0
M  V30 49431 O 347.088 -5.7877 -6.5624 0
M  V30 49432 C 346.598 -3.47817 -6.12078 0
M  V30 49433 C 347.308 -3.39414 -4.77697 0
M  V30 49434 N 347.258 -2.04615 -4.15333 0
M  V30 49435 H 350.097 -3.41248 -7.98759 0
M  V30 49436 H 350.369 -2.5837 -6.41742 0
M  V30 49437 H 349.501 -5.02657 -6.42673 0
M  V30 49438 P 345.538 -6.144 -6.45285 0
M  V30 49439 O 345.318 -7.54673 -6.86199 0
M  V30 49440 O 344.748 -5.12391 -7.179 0
M  V30 49441 O 345.288 -5.99158 -4.88404 0
M  V30 49442 C 346.228 -6.60062 -3.96313 0
M  V30 49443 C 345.498 -7.08259 -2.72856 0
M  V30 49444 O 345.288 -5.9427 -1.83651 0
M  V30 49445 C 344.098 -7.65087 -2.94749 0
M  V30 49446 O 343.708 -8.53963 -1.90717 0
M  V30 49447 C 343.218 -6.41069 -2.90698 0
M  V30 49448 C 343.928 -5.5528 -1.86931 0
M  V30 49449 N 343.878 -4.09575 -2.15696 0
M  V30 49450 C 343.728 -3.24249 -1.08435 0
M  V30 49451 O 343.638 -3.63946 0.0628747 0
M  V30 49452 N 343.688 -1.90009 -1.39973 0
M  V30 49453 C 343.778 -1.34884 -2.65614 0
M  V30 49454 O 343.728 -0.123716 -2.81728 0
M  V30 49455 C 343.928 -2.3145 -3.71736 0
M  V30 49456 C 344.038 -1.75913 -5.10438 0
M  V30 49457 C 343.978 -3.63518 -3.44754 0
M  V30 49458 H 346.719 -7.45402 -4.45526 0
M  V30 49459 H 346.988 -5.86062 -3.67208 0
M  V30 49460 H 346.121 -7.84412 -2.24479 0
M  V30 49461 H 343.466 -5.73358 -0.888409 0
M  V30 49462 H 343.187 -5.90877 -3.88583 0
M  V30 49463 H 342.195 -6.65867 -2.58821 0
M  V30 49464 H 344.029 -8.16248 -3.92006 0
M  V30 49465 H 344.1 -4.34551 -4.26383 0
M  V30 49466 H 343.07 -1.85471 -5.61775 0
M  V30 49467 H 344.807 -2.31364 -5.66257 0
M  V30 49468 H 344.319 -0.695936 -5.05229 0
M  V30 49469 H 343.583 -1.26277 -0.63625 0
M  V30 49470 P 342.158 -8.7635 -1.60911 0
M  V30 49471 O 341.938 -10.1388 -1.11561 0
M  V30 49472 O 341.368 -8.36503 -2.79617 0
M  V30 49473 O 341.908 -7.71806 -0.42951 0
M  V30 49474 C 342.848 -7.66948 0.673514 0
M  V30 49475 C 342.118 -7.33374 1.95559 0
M  V30 49476 O 341.908 -5.88721 2.00726 0
M  V30 49477 C 340.718 -7.92218 2.1125 0
M  V30 49478 O 340.328 -8.02971 3.47653 0
M  V30 49479 C 339.838 -6.89504 1.41631 0
M  V30 49480 C 340.548 -5.59106 1.75155 0
M  V30 49481 N 340.498 -4.58136 0.662409 0
M  V30 49482 C 340.348 -3.26059 1.02863 0
M  V30 49483 O 340.258 -2.90743 2.19009 0
M  V30 49484 N 340.308 -2.35995 -0.0155585 0
M  V30 49485 C 340.398 -2.65248 -1.35603 0
M  V30 49486 C 340.548 -4.05747 -1.64698 0
M  V30 49487 C 340.598 -4.96734 -0.652411 0
M  V30 49488 H 343.339 -8.64917 0.776982 0
M  V30 49489 H 343.608 -6.89974 0.474015 0
M  V30 49490 H 342.741 -7.66548 2.79458 0
M  V30 49491 H 340.086 -5.16076 2.65138 0
M  V30 49492 H 339.807 -7.06433 0.329384 0
M  V30 49493 H 338.815 -6.90829 1.81996 0
M  V30 49494 H 340.649 -8.90774 1.62639 0
M  V30 49495 H 340.72 -6.02181 -0.895285 0
M  V30 49496 P 338.778 -8.03563 3.84925 0
M  V30 49497 O 338.558 -8.85821 5.0569 0
M  V30 49498 O 337.988 -8.41101 2.65469 0
M  V30 49499 O 338.528 -6.4965 4.18908 0
M  V30 49500 C 339.468 -5.81037 5.05421 0
M  V30 49501 C 338.738 -4.78366 5.89277 0
M  V30 49502 O 338.528 -3.58302 5.08433 0
M  V30 49503 C 337.338 -5.17448 6.36119 0
M  V30 49504 O 336.948 -4.45271 7.53232 0
M  V30 49505 C 336.458 -4.74639 5.19936 0
M  V30 49506 C 337.168 -3.49432 4.70418 0
M  V30 49507 N 337.118 -3.32099 3.22613 0
M  V30 49508 H 339.957 -6.54213 5.71376 0
M  V30 49509 H 340.229 -5.30936 4.43503 0
M  V30 49510 H 339.361 -4.55889 6.76652 0
M  V30 49511 H 336.706 -2.61715 5.17932 0
M  V30 49512 H 336.426 -5.52155 4.41878 0
M  V30 49513 H 335.435 -4.51981 5.53374 0
M  V30 49514 H 337.269 -6.25124 6.55234 0
M  V30 49515 P 335.398 -4.23843 7.83734 0
M  V30 49516 O 335.178 -4.19407 9.29784 0
M  V30 49517 O 334.608 -5.24426 7.09156 0
M  V30 49518 O 335.148 -2.7935 7.20758 0
M  V30 49519 C 336.088 -1.7299 7.50419 0
M  V30 49520 C 335.358 -0.406376 7.57911 0
M  V30 49521 O 335.148 0.0897726 6.21935 0
M  V30 49522 C 333.958 -0.447224 8.1878 0
M  V30 49523 O 333.568 0.825065 8.71101 0
M  V30 49524 C 333.078 -0.783801 6.99623 0
M  V30 49525 C 333.788 -0.0619192 5.85967 0
M  V30 49526 N 333.738 -0.7859 4.56281 0
M  V30 49527 H 336.577 -1.93423 8.4679 0
M  V30 49528 H 336.849 -1.68181 6.71046 0
M  V30 49529 H 335.981 0.289041 8.15388 0
M  V30 49530 P 332.018 1.17771 8.83182 0
M  V30 49531 O 331.798 2.07206 9.98732 0
M  V30 49532 O 331.228 -0.0743816 8.81969 0
M  V30 49533 O 331.768 1.97652 7.47304 0
M  V30 49534 C 332.708 3.01133 7.08783 0
M  V30 49535 C 331.978 4.12613 6.37049 0
M  V30 49536 O 331.768 3.72827 4.97879 0
M  V30 49537 C 330.578 4.45085 6.88694 0
M  V30 49538 O 330.188 5.7877 6.5624 0
M  V30 49539 C 329.698 3.47817 6.12078 0
M  V30 49540 C 330.408 3.39414 4.77697 0
M  V30 49541 N 330.358 2.04615 4.15333 0
M  V30 49542 H 333.197 3.41248 7.98759 0
M  V30 49543 H 333.469 2.5837 6.41742 0
M  V30 49544 H 332.601 5.02657 6.42673 0
M  V30 49545 P 328.638 6.144 6.45285 0
M  V30 49546 O 328.418 7.54673 6.86199 0
M  V30 49547 O 327.848 5.12391 7.179 0
M  V30 49548 O 328.388 5.99236 4.88467 0
M  V30 49549 C 329.328 6.60234 3.96415 0
M  V30 49550 C 328.598 7.08079 2.736 0
M  V30 49551 O 328.388 5.94365 1.8368 0
M  V30 49552 C 327.198 7.64886 2.9555 0
M  V30 49553 O 326.808 8.5406 1.90739 0
M  V30 49554 C 326.318 6.4116 2.90739 0
M  V30 49555 C 327.028 5.55375 1.86963 0
M  V30 49556 N 326.978 4.09664 2.15742 0
M  V30 49557 C 326.828 3.22231 1.08477 0
M  V30 49558 O 326.738 3.68951 -0.0600489 0
M  V30 49559 N 326.778 1.76692 1.48799 0
M  V30 49560 C 326.878 1.41695 2.57602 0
M  V30 49561 N 326.828 0.107296 2.75791 0
M  V30 49562 C 327.028 2.29178 3.69733 0
M  V30 49563 C 327.078 3.62753 3.42653 0
M  V30 49564 H 329.818 7.45488 4.45578 0
M  V30 49565 H 330.088 5.86232 3.67314 0
M  V30 49566 H 329.221 7.84508 2.24507 0
M  V30 49567 H 326.566 5.73556 0.888715 0
M  V30 49568 H 326.286 5.9096 3.88638 0
M  V30 49569 H 325.295 6.66053 2.58894 0
M  V30 49570 H 327.129 8.16339 3.92049 0
M  V30 49571 H 327.201 4.33052 4.24913 0
M  V30 49572 H 327.099 1.9103 4.71577 0
M  V30 49573 H 326.711 -0.521221 1.95056 0
M  V30 49574 H 326.907 -0.286429 3.70695 0
M  V30 49575 P 325.258 8.7635 1.60911 0
M  V30 49576 O 325.038 10.1388 1.11561 0
M  V30 49577 O 324.468 8.36503 2.79617 0
M  V30 49578 O 325.008 7.71806 0.42951 0
M  V30 49579 C 325.948 7.67148 -0.673689 0
M  V30 49580 C 325.218 7.33374 -1.95559 0
M  V30 49581 O 325.008 5.88721 -2.00726 0
M  V30 49582 C 323.818 7.92526 -2.10483 0
M  V30 49583 O 323.428 8.02971 -3.47653 0
M  V30 49584 C 322.938 6.89602 -1.41652 0
M  V30 49585 C 323.648 5.59201 -1.75185 0
M  V30 49586 N 323.598 4.58301 -0.657969 0
M  V30 49587 H 326.437 8.65116 -0.777161 0
M  V30 49588 H 326.709 6.9022 -0.46725 0
M  V30 49589 H 325.841 7.66548 -2.79458 0
M  V30 49590 H 323.186 5.16165 -2.65183 0
M  V30 49591 H 322.906 7.06433 -0.329384 0
M  V30 49592 H 321.915 6.90926 -1.82021 0
M  V30 49593 H 323.749 8.90873 -1.62657 0
M  V30 49594 P 321.878 8.03563 -3.84925 0
M  V30 49595 O 321.658 8.85821 -5.0569 0
M  V30 49596 O 321.088 8.41101 -2.65469 0
M  V30 49597 O 321.628 6.4965 -4.18908 0
M  V30 49598 C 322.568 5.81037 -5.05421 0
M  V30 49599 C 321.838 4.78366 -5.89277 0
M  V30 49600 O 321.628 3.58302 -5.08433 0
M  V30 49601 C 320.438 5.17448 -6.36119 0
M  V30 49602 O 320.048 4.45271 -7.53232 0
M  V30 49603 C 319.558 4.74639 -5.19936 0
M  V30 49604 C 320.268 3.49432 -4.70418 0
M  V30 49605 N 320.218 3.31776 -3.22945 0
M  V30 49606 H 323.057 6.54213 -5.71376 0
M  V30 49607 H 323.329 5.30492 -4.44033 0
M  V30 49608 H 322.461 4.55889 -6.76652 0
M  V30 49609 P 318.498 4.23843 -7.83734 0
M  V30 49610 O 318.278 4.19407 -9.29784 0
M  V30 49611 O 317.708 5.24426 -7.09156 0
M  V30 49612 O 318.248 2.7935 -7.20758 0
M  V30 49613 C 319.188 1.7299 -7.50419 0
M  V30 49614 C 318.458 0.406376 -7.57911 0
M  V30 49615 O 318.248 -0.0897726 -6.21935 0
M  V30 49616 C 317.058 0.447224 -8.1878 0
M  V30 49617 O 316.668 -0.825065 -8.71101 0
M  V30 49618 C 316.178 0.783801 -6.99623 0
M  V30 49619 C 316.888 0.0619192 -5.85967 0
M  V30 49620 N 316.838 0.7859 -4.56281 0
M  V30 49621 H 319.677 1.93423 -8.4679 0
M  V30 49622 H 319.949 1.68181 -6.71046 0
M  V30 49623 H 319.081 -0.289041 -8.15388 0
M  V30 49624 P 315.118 -1.17771 -8.83182 0
M  V30 49625 O 314.898 -2.07206 -9.98732 0
M  V30 49626 O 314.328 0.0743816 -8.81969 0
M  V30 49627 O 314.868 -1.97678 -7.474 0
M  V30 49628 C 315.808 -3.01133 -7.08783 0
M  V30 49629 C 315.078 -4.1203 -6.37546 0
M  V30 49630 O 314.868 -3.72887 -4.9796 0
M  V30 49631 C 313.678 -4.45085 -6.88694 0
M  V30 49632 O 313.288 -5.78836 -6.56315 0
M  V30 49633 C 312.798 -3.47817 -6.12078 0
M  V30 49634 C 313.508 -3.39414 -4.77697 0
M  V30 49635 N 313.458 -2.04615 -4.15333 0
M  V30 49636 C 313.308 -1.96929 -2.77162 0
M  V30 49637 O 313.218 -3.02017 -2.12006 0
M  V30 49638 N 313.258 -0.55485 -2.24237 0
M  V30 49639 C 313.358 0.367808 -2.9169 0
M  V30 49640 N 313.308 1.53426 -2.29427 0
M  V30 49641 C 313.508 0.319148 -4.33828 0
M  V30 49642 C 313.558 -0.920672 -4.90433 0
M  V30 49643 H 316.298 -3.41209 -7.98667 0
M  V30 49644 H 316.568 -2.5837 -6.41742 0
M  V30 49645 H 315.701 -5.02718 -6.42752 0
M  V30 49646 H 313.046 -4.11779 -4.09026 0
M  V30 49647 H 312.766 -2.49661 -6.61772 0
M  V30 49648 H 311.775 -3.86674 -6.00946 0
M  V30 49649 H 313.609 -4.29991 -7.97006 0
M  V30 49650 H 313.681 -1.00589 -5.98303 0
M  V30 49651 H 313.579 1.22639 -4.93799 0
M  V30 49652 H 313.191 1.56819 -1.27167 0
M  V30 49653 H 313.387 2.41062 -2.83063 0
M  V30 49654 P 311.738 -6.144 -6.45285 0
M  V30 49655 O 311.518 -7.54673 -6.86199 0
M  V30 49656 O 310.948 -5.12391 -7.179 0
M  V30 49657 O 311.488 -5.99158 -4.88404 0
M  V30 49658 C 312.428 -6.60062 -3.96313 0
M  V30 49659 C 311.698 -7.08259 -2.72856 0
M  V30 49660 O 311.488 -5.9427 -1.83651 0
M  V30 49661 C 310.298 -7.65087 -2.94749 0
M  V30 49662 O 309.908 -8.53963 -1.90717 0
M  V30 49663 C 309.418 -6.41069 -2.90698 0
M  V30 49664 C 310.128 -5.5528 -1.86931 0
M  V30 49665 N 310.078 -4.09575 -2.15696 0
M  V30 49666 C 309.928 -3.24249 -1.08435 0
M  V30 49667 O 309.838 -3.63946 0.0628747 0
M  V30 49668 N 309.888 -1.90009 -1.39973 0
M  V30 49669 C 309.978 -1.34884 -2.65614 0
M  V30 49670 O 309.928 -0.123716 -2.81728 0
M  V30 49671 C 310.128 -2.3145 -3.71736 0
M  V30 49672 C 310.238 -1.75913 -5.10438 0
M  V30 49673 C 310.178 -3.63518 -3.44754 0
M  V30 49674 H 312.919 -7.45402 -4.45526 0
M  V30 49675 H 313.188 -5.86062 -3.67208 0
M  V30 49676 H 312.321 -7.84412 -2.24479 0
M  V30 49677 H 309.666 -5.73358 -0.888409 0
M  V30 49678 H 309.387 -5.90877 -3.88583 0
M  V30 49679 H 308.395 -6.65867 -2.58821 0
M  V30 49680 H 310.229 -8.16248 -3.92006 0
M  V30 49681 H 310.3 -4.34551 -4.26383 0
M  V30 49682 H 309.27 -1.85471 -5.61775 0
M  V30 49683 H 311.007 -2.31364 -5.66257 0
M  V30 49684 H 310.519 -0.695936 -5.05229 0
M  V30 49685 H 309.783 -1.26277 -0.63625 0
M  V30 49686 P 308.358 -8.7635 -1.60911 0
M  V30 49687 O 308.138 -10.1388 -1.11561 0
M  V30 49688 O 307.568 -8.36503 -2.79617 0
M  V30 49689 O 308.108 -7.71806 -0.42951 0
M  V30 49690 C 309.048 -7.66948 0.673514 0
M  V30 49691 C 308.318 -7.33374 1.95559 0
M  V30 49692 O 308.108 -5.88721 2.00726 0
M  V30 49693 C 306.918 -7.92218 2.1125 0
M  V30 49694 O 306.528 -8.02971 3.47653 0
M  V30 49695 C 306.038 -6.89504 1.41631 0
M  V30 49696 C 306.748 -5.59106 1.75155 0
M  V30 49697 N 306.698 -4.58136 0.662409 0
M  V30 49698 C 306.548 -3.26059 1.02863 0
M  V30 49699 O 306.458 -2.90743 2.19009 0
M  V30 49700 N 306.508 -2.35995 -0.0155585 0
M  V30 49701 C 306.598 -2.65248 -1.35603 0
M  V30 49702 C 306.748 -4.05747 -1.64698 0
M  V30 49703 C 306.798 -4.96734 -0.652411 0
M  V30 49704 H 309.539 -8.64917 0.776982 0
M  V30 49705 H 309.808 -6.89974 0.474015 0
M  V30 49706 H 308.941 -7.66548 2.79458 0
M  V30 49707 H 306.286 -5.16076 2.65138 0
M  V30 49708 H 306.007 -7.06433 0.329384 0
M  V30 49709 H 305.015 -6.90829 1.81996 0
M  V30 49710 H 306.849 -8.90774 1.62639 0
M  V30 49711 H 306.92 -6.02181 -0.895285 0
M  V30 49712 P 304.978 -8.03563 3.84925 0
M  V30 49713 O 304.758 -8.85821 5.0569 0
M  V30 49714 O 304.188 -8.41101 2.65469 0
M  V30 49715 O 304.728 -6.4965 4.18908 0
M  V30 49716 C 305.668 -5.81037 5.05421 0
M  V30 49717 C 304.938 -4.78366 5.89277 0
M  V30 49718 O 304.728 -3.58302 5.08433 0
M  V30 49719 C 303.538 -5.17448 6.36119 0
M  V30 49720 O 303.148 -4.45271 7.53232 0
M  V30 49721 C 302.658 -4.74639 5.19936 0
M  V30 49722 C 303.368 -3.49432 4.70418 0
M  V30 49723 N 303.318 -3.32099 3.22613 0
M  V30 49724 H 306.157 -6.54213 5.71376 0
M  V30 49725 H 306.429 -5.30936 4.43503 0
M  V30 49726 H 305.561 -4.55889 6.76652 0
M  V30 49727 H 302.906 -2.61715 5.17932 0
M  V30 49728 H 302.626 -5.52155 4.41878 0
M  V30 49729 H 301.635 -4.51981 5.53374 0
M  V30 49730 H 303.469 -6.25124 6.55234 0
M  V30 49731 P 301.598 -4.23843 7.83734 0
M  V30 49732 O 301.378 -4.19407 9.29784 0
M  V30 49733 O 300.808 -5.24426 7.09156 0
M  V30 49734 O 301.348 -2.7935 7.20758 0
M  V30 49735 C 302.288 -1.7299 7.50419 0
M  V30 49736 C 301.558 -0.406376 7.57911 0
M  V30 49737 O 301.348 0.0897726 6.21935 0
M  V30 49738 C 300.158 -0.447224 8.1878 0
M  V30 49739 O 299.768 0.825065 8.71101 0
M  V30 49740 C 299.278 -0.783801 6.99623 0
M  V30 49741 C 299.988 -0.0619192 5.85967 0
M  V30 49742 N 299.938 -0.7859 4.56281 0
M  V30 49743 H 302.777 -1.93423 8.4679 0
M  V30 49744 H 303.049 -1.68181 6.71046 0
M  V30 49745 H 302.181 0.289041 8.15388 0
M  V30 49746 P 298.218 1.17771 8.83182 0
M  V30 49747 O 297.998 2.07206 9.98732 0
M  V30 49748 O 297.428 -0.0743816 8.81969 0
M  V30 49749 O 297.968 1.97652 7.47304 0
M  V30 49750 C 298.908 3.01133 7.08783 0
M  V30 49751 C 298.178 4.12613 6.37049 0
M  V30 49752 O 297.968 3.72827 4.97879 0
M  V30 49753 C 296.778 4.45085 6.88694 0
M  V30 49754 O 296.388 5.7877 6.5624 0
M  V30 49755 C 295.898 3.47817 6.12078 0
M  V30 49756 C 296.608 3.39414 4.77697 0
M  V30 49757 N 296.558 2.04615 4.15333 0
M  V30 49758 H 299.397 3.41248 7.98759 0
M  V30 49759 H 299.669 2.5837 6.41742 0
M  V30 49760 H 298.801 5.02657 6.42673 0
M  V30 49761 P 294.838 6.144 6.45285 0
M  V30 49762 O 294.618 7.54673 6.86199 0
M  V30 49763 O 294.048 5.12391 7.179 0
M  V30 49764 O 294.588 5.99158 4.88404 0
M  V30 49765 C 295.528 6.60234 3.96415 0
M  V30 49766 C 294.798 7.08259 2.72856 0
M  V30 49767 O 294.588 5.9427 1.83651 0
M  V30 49768 C 293.398 7.64886 2.9555 0
M  V30 49769 O 293.008 8.53963 1.90717 0
M  V30 49770 C 292.518 6.4116 2.90739 0
M  V30 49771 C 293.228 5.55375 1.86963 0
M  V30 49772 N 293.178 4.09664 2.15742 0
M  V30 49773 H 296.017 7.45574 4.45629 0
M  V30 49774 H 296.289 5.86232 3.67314 0
M  V30 49775 H 295.421 7.84412 2.24479 0
M  V30 49776 P 291.458 8.7635 1.60911 0
M  V30 49777 O 291.238 10.1388 1.11561 0
M  V30 49778 O 290.668 8.36503 2.79617 0
M  V30 49779 O 291.208 7.71806 0.42951 0
M  V30 49780 C 292.148 7.66948 -0.673514 0
M  V30 49781 C 291.418 7.33374 -1.95559 0
M  V30 49782 O 291.208 5.88721 -2.00726 0
M  V30 49783 C 290.018 7.92218 -2.1125 0
M  V30 49784 O 289.628 8.02971 -3.47653 0
M  V30 49785 C 289.138 6.89504 -1.41631 0
M  V30 49786 C 289.848 5.59106 -1.75155 0
M  V30 49787 N 289.798 4.58136 -0.662409 0
M  V30 49788 C 289.648 3.26059 -1.02863 0
M  V30 49789 O 289.558 2.90743 -2.19009 0
M  V30 49790 N 289.608 2.35995 0.0155585 0
M  V30 49791 C 289.698 2.65248 1.35603 0
M  V30 49792 O 289.648 1.75605 2.20651 0
M  V30 49793 C 289.848 4.05747 1.64698 0
M  V30 49794 C 289.958 4.42345 3.09553 0
M  V30 49795 C 289.898 4.96734 0.652411 0
M  V30 49796 H 292.639 8.64917 -0.776982 0
M  V30 49797 H 292.908 6.89974 -0.474015 0
M  V30 49798 H 292.041 7.66548 -2.79458 0
M  V30 49799 H 289.386 5.16076 -2.65138 0
M  V30 49800 H 289.107 7.06433 -0.329384 0
M  V30 49801 H 288.115 6.90829 -1.81996 0
M  V30 49802 H 289.949 8.90774 -1.62639 0
M  V30 49803 H 290.02 6.02181 0.895285 0
M  V30 49804 H 288.99 4.80252 3.45468 0
M  V30 49805 H 290.727 5.20015 3.22119 0
M  V30 49806 H 290.239 3.53269 3.67833 0
M  V30 49807 H 289.503 1.39558 -0.227499 0
M  V30 49808 P 288.078 8.03563 -3.84925 0
M  V30 49809 O 287.858 8.85821 -5.0569 0
M  V30 49810 O 287.288 8.41101 -2.65469 0
M  V30 49811 O 287.828 6.4965 -4.18908 0
M  V30 49812 C 288.768 5.81037 -5.05421 0
M  V30 49813 C 288.038 4.78366 -5.89277 0
M  V30 49814 O 287.828 3.58302 -5.08433 0
M  V30 49815 C 286.638 5.17448 -6.36119 0
M  V30 49816 O 286.248 4.45271 -7.53232 0
M  V30 49817 C 285.758 4.74639 -5.19936 0
M  V30 49818 C 286.468 3.49432 -4.70418 0
M  V30 49819 N 286.418 3.32099 -3.22613 0
M  V30 49820 H 289.257 6.54213 -5.71376 0
M  V30 49821 H 289.529 5.30936 -4.43503 0
M  V30 49822 H 288.661 4.55889 -6.76652 0
M  V30 49823 H 286.006 2.61715 -5.17932 0
M  V30 49824 H 285.726 5.52155 -4.41878 0
M  V30 49825 H 284.735 4.51981 -5.53374 0
M  V30 49826 H 286.569 6.25124 -6.55234 0
M  V30 49827 P 284.698 4.23843 -7.83734 0
M  V30 49828 O 284.478 4.19407 -9.29784 0
M  V30 49829 O 283.908 5.24426 -7.09156 0
M  V30 49830 O 284.448 2.7935 -7.20758 0
M  V30 49831 C 285.388 1.7299 -7.50419 0
M  V30 49832 C 284.658 0.406376 -7.57911 0
M  V30 49833 O 284.448 -0.0897726 -6.21935 0
M  V30 49834 C 283.258 0.447224 -8.1878 0
M  V30 49835 O 282.868 -0.825065 -8.71101 0
M  V30 49836 C 282.378 0.783801 -6.99623 0
M  V30 49837 C 283.088 0.0619192 -5.85967 0
M  V30 49838 N 283.038 0.7859 -4.56281 0
M  V30 49839 H 285.877 1.93423 -8.4679 0
M  V30 49840 H 286.149 1.68181 -6.71046 0
M  V30 49841 H 285.281 -0.289041 -8.15388 0
M  V30 49842 P 281.318 -1.17771 -8.83182 0
M  V30 49843 O 281.098 -2.07206 -9.98732 0
M  V30 49844 O 280.528 0.0743816 -8.81969 0
M  V30 49845 O 281.068 -1.97652 -7.47304 0
M  V30 49846 C 282.008 -3.01133 -7.08783 0
M  V30 49847 C 281.278 -4.12613 -6.37049 0
M  V30 49848 O 281.068 -3.72827 -4.97879 0
M  V30 49849 C 279.878 -4.45085 -6.88694 0
M  V30 49850 O 279.488 -5.7877 -6.5624 0
M  V30 49851 C 278.998 -3.47817 -6.12078 0
M  V30 49852 C 279.708 -3.39414 -4.77697 0
M  V30 49853 N 279.658 -2.04199 -4.15538 0
M  V30 49854 H 282.497 -3.41248 -7.98759 0
M  V30 49855 H 282.769 -2.57728 -6.42 0
M  V30 49856 H 281.901 -5.02657 -6.42673 0
M  V30 49857 H 279.246 -4.11708 -4.08956 0
M  V30 49858 H 278.966 -2.49626 -6.61679 0
M  V30 49859 H 277.975 -3.8662 -6.00862 0
M  V30 49860 H 279.809 -4.29991 -7.97006 0
M  V30 49861 P 277.938 -6.144 -6.45285 0
M  V30 49862 O 277.718 -7.54673 -6.86199 0
M  V30 49863 O 277.148 -5.12391 -7.179 0
M  V30 49864 O 277.688 -5.99158 -4.88404 0
M  V30 49865 C 278.628 -6.60234 -3.96415 0
M  V30 49866 C 277.898 -7.08259 -2.72856 0
M  V30 49867 O 277.688 -5.9427 -1.83651 0
M  V30 49868 C 276.498 -7.64886 -2.9555 0
M  V30 49869 O 276.108 -8.53963 -1.90717 0
M  V30 49870 C 275.618 -6.4116 -2.90739 0
M  V30 49871 C 276.328 -5.55375 -1.86963 0
M  V30 49872 N 276.278 -4.09664 -2.15742 0
M  V30 49873 H 279.117 -7.45574 -4.45629 0
M  V30 49874 H 279.389 -5.86232 -3.67314 0
M  V30 49875 H 278.521 -7.84412 -2.24479 0
M  V30 49876 P 274.558 -8.7635 -1.60911 0
M  V30 49877 O 274.338 -10.1388 -1.11561 0
M  V30 49878 O 273.768 -8.36503 -2.79617 0
M  V30 49879 O 274.308 -7.71806 -0.42951 0
M  V30 49880 C 275.248 -7.67148 0.673689 0
M  V30 49881 C 274.518 -7.33374 1.95559 0
M  V30 49882 O 274.308 -5.88721 2.00726 0
M  V30 49883 C 273.118 -7.92526 2.10483 0
M  V30 49884 O 272.728 -8.02971 3.47653 0
M  V30 49885 C 272.238 -6.89602 1.41652 0
M  V30 49886 C 272.948 -5.59201 1.75185 0
M  V30 49887 N 272.898 -4.58235 0.662552 0
M  V30 49888 H 275.737 -8.65116 0.777161 0
M  V30 49889 H 276.009 -6.90173 0.474152 0
M  V30 49890 H 275.141 -7.66548 2.79458 0
M  V30 49891 P 271.178 -8.03563 3.84925 0
M  V30 49892 O 270.958 -8.85821 5.0569 0
M  V30 49893 O 270.388 -8.41101 2.65469 0
M  V30 49894 O 270.928 -6.4965 4.18908 0
M  V30 49895 C 271.868 -5.80886 5.05289 0
M  V30 49896 C 271.138 -4.78366 5.89277 0
M  V30 49897 O 270.928 -3.58302 5.08433 0
M  V30 49898 C 269.738 -5.16748 6.36559 0
M  V30 49899 O 269.348 -4.45271 7.53232 0
M  V30 49900 C 268.858 -4.74572 5.19863 0
M  V30 49901 C 269.568 -3.49373 4.70338 0
M  V30 49902 N 269.518 -3.31704 3.22876 0
M  V30 49903 C 269.368 -2.03326 2.74871 0
M  V30 49904 O 269.278 -1.06486 3.48076 0
M  V30 49905 N 269.328 -1.91838 1.37456 0
M  V30 49906 C 269.418 -2.94295 0.462035 0
M  V30 49907 C 269.568 -4.25064 1.05249 0
M  V30 49908 C 269.618 -4.40214 2.39192 0
M  V30 49909 H 272.359 -6.54063 5.71245 0
M  V30 49910 H 272.628 -5.30339 4.43905 0
M  V30 49911 H 271.761 -4.55889 6.76652 0
M  V30 49912 H 269.106 -2.6167 5.17842 0
M  V30 49913 H 268.827 -5.52155 4.41878 0
M  V30 49914 H 267.835 -4.51918 5.53297 0
M  V30 49915 H 269.669 -6.25055 6.55162 0
M  V30 49916 H 269.74 -5.39798 2.81523 0
M  V30 49917 P 267.798 -4.23843 7.83734 0
M  V30 49918 O 267.578 -4.19407 9.29784 0
M  V30 49919 O 267.008 -5.24426 7.09156 0
M  V30 49920 O 267.548 -2.7935 7.20758 0
M  V30 49921 C 268.488 -1.7299 7.50419 0
M  V30 49922 C 267.758 -0.406376 7.57911 0
M  V30 49923 O 267.548 0.0897726 6.21935 0
M  V30 49924 C 266.358 -0.447224 8.1878 0
M  V30 49925 O 265.968 0.825065 8.71101 0
M  V30 49926 C 265.478 -0.783801 6.99623 0
M  V30 49927 C 266.188 -0.0619192 5.85967 0
M  V30 49928 N 266.138 -0.7859 4.56281 0
M  V30 49929 H 268.977 -1.93423 8.4679 0
M  V30 49930 H 269.249 -1.68181 6.71046 0
M  V30 49931 H 268.381 0.289041 8.15388 0
M  V30 49932 P 264.418 1.17771 8.83182 0
M  V30 49933 O 264.198 2.07206 9.98732 0
M  V30 49934 O 263.628 -0.0743816 8.81969 0
M  V30 49935 O 264.168 1.97652 7.47304 0
M  V30 49936 C 265.108 3.01055 7.08599 0
M  V30 49937 C 264.378 4.12613 6.37049 0
M  V30 49938 O 264.168 3.72827 4.97879 0
M  V30 49939 C 262.978 4.45719 6.88164 0
M  V30 49940 O 262.588 5.7877 6.5624 0
M  V30 49941 C 262.098 3.47768 6.11991 0
M  V30 49942 C 262.808 3.39356 4.77615 0
M  V30 49943 N 262.758 2.04571 4.15244 0
M  V30 49944 C 262.608 1.98587 2.78314 0
M  V30 49945 O 262.518 2.98134 2.08835 0
M  V30 49946 N 262.568 0.714467 2.24925 0
M  V30 49947 C 262.658 -0.470001 2.94169 0
M  V30 49948 O 262.608 -1.55587 2.35195 0
M  V30 49949 C 262.808 -0.312541 4.36783 0
M  V30 49950 C 262.918 -1.57711 5.16352 0
M  V30 49951 C 262.858 0.914512 4.92583 0
M  V30 49952 H 265.599 3.41169 7.98575 0
M  V30 49953 H 265.868 2.58295 6.41556 0
M  V30 49954 H 265.001 5.02657 6.42673 0
M  V30 49955 H 262.346 4.11637 4.08885 0
M  V30 49956 H 262.067 2.49626 6.61679 0
M  V30 49957 H 261.075 3.86566 6.00778 0
M  V30 49958 H 262.909 4.29943 7.96918 0
M  V30 49959 H 262.98 1.00937 6.00374 0
M  V30 49960 H 261.95 -1.80153 5.63503 0
M  V30 49961 H 263.687 -1.4566 5.94104 0
M  V30 49962 H 263.199 -2.40664 4.49645 0
M  V30 49963 H 262.463 0.647622 1.25697 0
M  V30 49964 P 261.038 6.144 6.45285 0
M  V30 49965 O 260.818 7.54673 6.86199 0
M  V30 49966 O 260.248 5.12391 7.179 0
M  V30 49967 O 260.788 5.99158 4.88404 0
M  V30 49968 C 261.728 6.60234 3.96415 0
M  V30 49969 C 260.998 7.08259 2.72856 0
M  V30 49970 O 260.788 5.9427 1.83651 0
M  V30 49971 C 259.598 7.64886 2.9555 0
M  V30 49972 O 259.208 8.53963 1.90717 0
M  V30 49973 C 258.718 6.4116 2.90739 0
M  V30 49974 C 259.428 5.55375 1.86963 0
M  V30 49975 N 259.378 4.09664 2.15742 0
M  V30 49976 H 262.217 7.45574 4.45629 0
M  V30 49977 H 262.489 5.86232 3.67314 0
M  V30 49978 H 261.621 7.84412 2.24479 0
M  V30 49979 P 257.658 8.7635 1.60911 0
M  V30 49980 O 257.438 10.1388 1.11561 0
M  V30 49981 O 256.868 8.36503 2.79617 0
M  V30 49982 O 257.408 7.71806 0.42951 0
M  V30 49983 C 258.348 7.67148 -0.673689 0
M  V30 49984 C 257.618 7.33374 -1.95559 0
M  V30 49985 O 257.408 5.88721 -2.00726 0
M  V30 49986 C 256.218 7.92526 -2.10483 0
M  V30 49987 O 255.828 8.02971 -3.47653 0
M  V30 49988 C 255.338 6.89602 -1.41652 0
M  V30 49989 C 256.048 5.59201 -1.75185 0
M  V30 49990 N 255.998 4.58235 -0.662552 0
M  V30 49991 H 258.837 8.65116 -0.777161 0
M  V30 49992 H 259.109 6.90173 -0.474152 0
M  V30 49993 H 258.241 7.66548 -2.79458 0
M  V30 49994 P 254.279 8.03563 -3.84925 0
M  V30 49995 O 254.059 8.85821 -5.0569 0
M  V30 49996 O 253.489 8.41101 -2.65469 0
M  V30 49997 O 254.029 6.4965 -4.18908 0
M  V30 49998 C 254.969 5.80886 -5.05289 0
M  V30 49999 C 254.239 4.78366 -5.89277 0
M  V30 50000 O 254.029 3.58302 -5.08433 0
M  V30 50001 C 252.839 5.16748 -6.36559 0
M  V30 50002 O 252.449 4.45271 -7.53232 0
M  V30 50003 C 251.959 4.74572 -5.19863 0
M  V30 50004 C 252.669 3.49373 -4.70338 0
M  V30 50005 N 252.619 3.31704 -3.22876 0
M  V30 50006 C 252.469 2.03326 -2.74871 0
M  V30 50007 O 252.379 1.06486 -3.48076 0
M  V30 50008 N 252.429 1.91838 -1.37456 0
M  V30 50009 C 252.519 2.94295 -0.462035 0
M  V30 50010 C 252.669 4.25064 -1.05249 0
M  V30 50011 C 252.719 4.40214 -2.39192 0
M  V30 50012 H 255.46 6.54063 -5.71245 0
M  V30 50013 H 255.729 5.30339 -4.43905 0
M  V30 50014 H 254.862 4.55889 -6.76652 0
M  V30 50015 H 252.207 2.6167 -5.17842 0
M  V30 50016 H 251.928 5.52155 -4.41878 0
M  V30 50017 H 250.936 4.51918 -5.53297 0
M  V30 50018 H 252.77 6.25055 -6.55162 0
M  V30 50019 H 252.841 5.39798 -2.81523 0
M  V30 50020 P 250.899 4.23843 -7.83734 0
M  V30 50021 O 250.679 4.19407 -9.29784 0
M  V30 50022 O 250.109 5.24426 -7.09156 0
M  V30 50023 O 250.649 2.7935 -7.20758 0
M  V30 50024 C 251.589 1.7299 -7.50419 0
M  V30 50025 C 250.859 0.406376 -7.57911 0
M  V30 50026 O 250.649 -0.0897726 -6.21935 0
M  V30 50027 C 249.459 0.447224 -8.1878 0
M  V30 50028 O 249.069 -0.825065 -8.71101 0
M  V30 50029 C 248.579 0.783801 -6.99623 0
M  V30 50030 C 249.289 0.0619192 -5.85967 0
M  V30 50031 N 249.239 0.7859 -4.56281 0
M  V30 50032 H 252.078 1.93423 -8.4679 0
M  V30 50033 H 252.35 1.68181 -6.71046 0
M  V30 50034 H 251.482 -0.289041 -8.15388 0
M  V30 50035 P 247.519 -1.17771 -8.83182 0
M  V30 50036 O 247.299 -2.07206 -9.98732 0
M  V30 50037 O 246.729 0.0743816 -8.81969 0
M  V30 50038 O 247.269 -1.97652 -7.47304 0
M  V30 50039 C 248.209 -3.01133 -7.08783 0
M  V30 50040 C 247.479 -4.12613 -6.37049 0
M  V30 50041 O 247.269 -3.72827 -4.97879 0
M  V30 50042 C 246.079 -4.45085 -6.88694 0
M  V30 50043 O 245.689 -5.7877 -6.5624 0
M  V30 50044 C 245.199 -3.47817 -6.12078 0
M  V30 50045 C 245.909 -3.39414 -4.77697 0
M  V30 50046 N 245.859 -2.04615 -4.15333 0
M  V30 50047 H 248.698 -3.41248 -7.98759 0
M  V30 50048 H 248.97 -2.5837 -6.41742 0
M  V30 50049 H 248.102 -5.02657 -6.42673 0
M  V30 50050 P 244.139 -6.144 -6.45285 0
M  V30 50051 O 243.919 -7.54673 -6.86199 0
M  V30 50052 O 243.349 -5.12391 -7.179 0
M  V30 50053 O 243.889 -5.99158 -4.88404 0
M  V30 50054 C 244.829 -6.60234 -3.96415 0
M  V30 50055 C 244.099 -7.08259 -2.72856 0
M  V30 50056 O 243.889 -5.9427 -1.83651 0
M  V30 50057 C 242.699 -7.64886 -2.9555 0
M  V30 50058 O 242.309 -8.53963 -1.90717 0
M  V30 50059 C 241.819 -6.4116 -2.90739 0
M  V30 50060 C 242.529 -5.55375 -1.86963 0
M  V30 50061 N 242.479 -4.09448 -2.16152 0
M  V30 50062 H 245.318 -7.45574 -4.45629 0
M  V30 50063 H 245.59 -5.85864 -3.679 0
M  V30 50064 H 244.722 -7.84412 -2.24479 0
M  V30 50065 H 242.067 -5.73457 -0.888562 0
M  V30 50066 H 241.787 -5.90877 -3.88583 0
M  V30 50067 H 240.796 -6.6596 -2.58858 0
M  V30 50068 H 242.63 -8.16339 -3.92049 0
M  V30 50069 P 240.759 -8.7635 -1.60911 0
M  V30 50070 O 240.539 -10.1388 -1.11561 0
M  V30 50071 O 239.969 -8.36503 -2.79617 0
M  V30 50072 O 240.509 -7.71806 -0.42951 0
M  V30 50073 C 241.449 -7.67148 0.673689 0
M  V30 50074 C 240.719 -7.33374 1.95559 0
M  V30 50075 O 240.509 -5.88721 2.00726 0
M  V30 50076 C 239.319 -7.92526 2.10483 0
M  V30 50077 O 238.929 -8.02971 3.47653 0
M  V30 50078 C 238.439 -6.89602 1.41652 0
M  V30 50079 C 239.149 -5.59201 1.75185 0
M  V30 50080 N 239.099 -4.58235 0.662552 0
M  V30 50081 C 239.179 -4.7683 -0.704049 0
M  V30 50082 N 239.099 -3.66233 -1.39775 0
M  V30 50083 C 238.959 -2.66526 -0.431739 0
M  V30 50084 C 238.829 -1.26394 -0.575992 0
M  V30 50085 O 238.809 -0.589894 -1.60503 0
M  V30 50086 N 238.709 -0.62859 0.67177 0
M  V30 50087 C 238.709 -1.27134 1.89385 0
M  V30 50088 N 238.579 -0.492035 2.96951 0
M  V30 50089 N 238.839 -2.58978 2.02907 0
M  V30 50090 C 238.959 -3.22433 0.832218 0
M  V30 50091 H 241.938 -8.65116 0.777161 0
M  V30 50092 H 242.21 -6.90173 0.474152 0
M  V30 50093 H 241.342 -7.66548 2.79458 0
M  V30 50094 H 238.687 -5.16254 2.65229 0
M  V30 50095 H 238.407 -7.06532 0.329431 0
M  V30 50096 H 237.416 -6.91023 1.82047 0
M  V30 50097 H 239.25 -8.90971 1.62675 0
M  V30 50098 H 239.299 -5.74954 -1.16305 0
M  V30 50099 H 238.617 0.366713 0.674793 0
M  V30 50100 H 238.58 -0.908532 3.91188 0
M  V30 50101 H 238.479 0.528253 2.85758 0
M  V30 50102 P 237.379 -8.03563 3.84925 0
M  V30 50103 O 237.159 -8.85821 5.0569 0
M  V30 50104 O 236.589 -8.41101 2.65469 0
M  V30 50105 O 237.129 -6.4965 4.18908 0
M  V30 50106 C 238.069 -5.81037 5.05421 0
M  V30 50107 C 237.339 -4.78366 5.89277 0
M  V30 50108 O 237.129 -3.58302 5.08433 0
M  V30 50109 C 235.939 -5.17448 6.36119 0
M  V30 50110 O 235.549 -4.45271 7.53232 0
M  V30 50111 C 235.059 -4.74639 5.19936 0
M  V30 50112 C 235.769 -3.49432 4.70418 0
M  V30 50113 N 235.719 -3.31776 3.22945 0
M  V30 50114 H 238.558 -6.54213 5.71376 0
M  V30 50115 H 238.83 -5.30492 4.44033 0
M  V30 50116 H 237.962 -4.55889 6.76652 0
M  V30 50117 P 233.999 -4.23843 7.83734 0
M  V30 50118 O 233.779 -4.19407 9.29784 0
M  V30 50119 O 233.209 -5.24426 7.09156 0
M  V30 50120 O 233.749 -2.7935 7.20758 0
M  V30 50121 C 234.689 -1.7299 7.50419 0
M  V30 50122 C 233.959 -0.406376 7.57911 0
M  V30 50123 O 233.749 0.0897726 6.21935 0
M  V30 50124 C 232.559 -0.447224 8.1878 0
M  V30 50125 O 232.169 0.825065 8.71101 0
M  V30 50126 C 231.679 -0.783801 6.99623 0
M  V30 50127 C 232.389 -0.0619192 5.85967 0
M  V30 50128 N 232.339 -0.790462 4.56202 0
M  V30 50129 H 235.178 -1.93423 8.4679 0
M  V30 50130 H 235.45 -1.68852 6.70877 0
M  V30 50131 H 234.582 0.289041 8.15388 0
M  V30 50132 H 231.927 0.927006 5.72848 0
M  V30 50133 H 231.647 -1.86973 6.82036 0
M  V30 50134 H 230.656 -0.403953 7.13357 0
M  V30 50135 H 232.49 -1.20599 8.97534 0
M  V30 50136 P 230.619 1.17771 8.83182 0
M  V30 50137 O 230.399 2.07206 9.98732 0
M  V30 50138 O 229.829 -0.0743816 8.81969 0
M  V30 50139 O 230.369 1.97652 7.47304 0
M  V30 50140 C 231.309 3.01133 7.08783 0
M  V30 50141 C 230.579 4.12613 6.37049 0
M  V30 50142 O 230.369 3.72827 4.97879 0
M  V30 50143 C 229.179 4.45085 6.88694 0
M  V30 50144 O 228.789 5.7877 6.5624 0
M  V30 50145 C 228.299 3.47817 6.12078 0
M  V30 50146 C 229.009 3.39414 4.77697 0
M  V30 50147 N 228.959 2.04615 4.15333 0
M  V30 50148 C 229.039 0.803897 4.75249 0
M  V30 50149 N 228.959 -0.197615 3.91502 0
M  V30 50150 C 228.819 0.413002 2.66823 0
M  V30 50151 C 228.689 -0.157221 1.38007 0
M  V30 50152 N 228.569 0.833136 0.390236 0
M  V30 50153 C 228.569 2.19402 0.623885 0
M  V30 50154 N 228.439 2.97622 -0.449677 0
M  V30 50155 N 228.699 2.73005 1.83601 0
M  V30 50156 C 228.819 1.78786 2.80935 0
M  V30 50157 H 231.798 3.41248 7.98759 0
M  V30 50158 H 232.07 2.5837 6.41742 0
M  V30 50159 H 231.202 5.02657 6.42673 0
M  V30 50160 P 227.239 6.144 6.45285 0
M  V30 50161 O 227.019 7.54673 6.86199 0
M  V30 50162 O 226.449 5.12391 7.179 0
M  V30 50163 O 226.989 5.99158 4.88404 0
M  V30 50164 C 227.929 6.60234 3.96415 0
M  V30 50165 C 227.199 7.08259 2.72856 0
M  V30 50166 O 226.989 5.9427 1.83651 0
M  V30 50167 C 225.799 7.64886 2.9555 0
M  V30 50168 O 225.409 8.53963 1.90717 0
M  V30 50169 C 224.919 6.4116 2.90739 0
M  V30 50170 C 225.629 5.55375 1.86963 0
M  V30 50171 N 225.579 4.09664 2.15742 0
M  V30 50172 C 225.659 3.44381 3.37233 0
M  V30 50173 N 225.579 2.14131 3.28347 0
M  V30 50174 C 225.439 1.90247 1.91588 0
M  V30 50175 C 225.309 0.683992 1.20892 0
M  V30 50176 N 225.189 0.903396 -0.173998 0
M  V30 50177 C 225.189 2.14171 -0.784879 0
M  V30 50178 N 225.059 2.1435 -2.11317 0
M  V30 50179 N 225.319 3.28784 -0.119316 0
M  V30 50180 C 225.439 3.0977 1.22194 0
M  V30 50181 H 228.418 7.45574 4.45629 0
M  V30 50182 H 228.69 5.86232 3.67314 0
M  V30 50183 H 227.822 7.84412 2.24479 0
M  V30 50184 P 223.859 8.7635 1.60911 0
M  V30 50185 O 223.639 10.1388 1.11561 0
M  V30 50186 O 223.069 8.36503 2.79617 0
M  V30 50187 O 223.609 7.71806 0.42951 0
M  V30 50188 C 224.549 7.67148 -0.673689 0
M  V30 50189 C 223.819 7.33374 -1.95559 0
M  V30 50190 O 223.609 5.88721 -2.00726 0
M  V30 50191 C 222.419 7.92526 -2.10483 0
M  V30 50192 O 222.029 8.02971 -3.47653 0
M  V30 50193 C 221.539 6.89602 -1.41652 0
M  V30 50194 C 222.249 5.59201 -1.75185 0
M  V30 50195 N 222.199 4.58301 -0.657969 0
M  V30 50196 C 222.279 4.79019 0.692603 0
M  V30 50197 N 222.209 3.69736 1.38998 0
M  V30 50198 C 222.059 2.70474 0.438135 0
M  V30 50199 C 221.929 1.30327 0.538142 0
M  V30 50200 N 221.919 0.64304 1.69192 0
M  V30 50201 N 221.809 0.611027 -0.605183 0
M  V30 50202 C 221.819 1.27002 -1.75953 0
M  V30 50203 N 221.939 2.56038 -1.98546 0
M  V30 50204 C 222.059 3.22681 -0.822541 0
M  V30 50205 H 225.038 8.65116 -0.777161 0
M  V30 50206 H 225.31 6.9022 -0.46725 0
M  V30 50207 H 224.442 7.66548 -2.79458 0
M  V30 50208 H 221.787 5.16165 -2.65183 0
M  V30 50209 H 221.507 7.06433 -0.329384 0
M  V30 50210 H 220.516 6.90926 -1.82021 0
M  V30 50211 H 222.35 8.90873 -1.62657 0
M  V30 50212 H 222.391 5.77785 1.13874 0
M  V30 50213 H 222.01 1.15585 2.57991 0
M  V30 50214 H 221.821 -0.382989 1.69835 0
M  V30 50215 H 221.713 0.653331 -2.64449 0
M  V30 50216 P 220.479 8.03563 -3.84925 0
M  V30 50217 O 220.259 8.85821 -5.0569 0
M  V30 50218 O 219.689 8.41101 -2.65469 0
M  V30 50219 O 220.229 6.4965 -4.18908 0
M  V30 50220 C 221.169 5.81037 -5.05421 0
M  V30 50221 C 220.439 4.78366 -5.89277 0
M  V30 50222 O 220.229 3.58302 -5.08433 0
M  V30 50223 C 219.039 5.17448 -6.36119 0
M  V30 50224 O 218.649 4.45271 -7.53232 0
M  V30 50225 C 218.159 4.74639 -5.19936 0
M  V30 50226 C 218.869 3.49432 -4.70418 0
M  V30 50227 N 218.819 3.31776 -3.22945 0
M  V30 50228 H 221.658 6.54213 -5.71376 0
M  V30 50229 H 221.93 5.30492 -4.44033 0
M  V30 50230 H 221.062 4.55889 -6.76652 0
M  V30 50231 P 217.099 4.23843 -7.83734 0
M  V30 50232 O 216.879 4.19407 -9.29784 0
M  V30 50233 O 216.309 5.24426 -7.09156 0
M  V30 50234 O 216.849 2.7935 -7.20758 0
M  V30 50235 C 217.789 1.72945 -7.50224 0
M  V30 50236 C 217.059 0.406376 -7.57911 0
M  V30 50237 O 216.849 -0.0897726 -6.21935 0
M  V30 50238 C 215.659 0.438983 -8.18724 0
M  V30 50239 O 215.269 -0.825065 -8.71101 0
M  V30 50240 C 214.779 0.783689 -6.99524 0
M  V30 50241 C 215.489 0.0619086 -5.85867 0
M  V30 50242 N 215.439 0.78573 -4.56183 0
M  V30 50243 C 215.289 0.0292889 -3.41887 0
M  V30 50244 O 215.199 -1.18445 -3.4419 0
M  V30 50245 N 215.249 0.744061 -2.23964 0
M  V30 50246 C 215.339 2.10932 -2.10362 0
M  V30 50247 C 215.489 2.8202 -3.34994 0
M  V30 50248 C 215.539 2.15547 -4.52261 0
M  V30 50249 H 218.28 1.93379 -8.46595 0
M  V30 50250 H 218.549 1.68132 -6.70852 0
M  V30 50251 H 217.682 -0.289041 -8.15388 0
M  V30 50252 H 215.027 -0.926847 -5.72749 0
M  V30 50253 H 214.748 1.86973 -6.82036 0
M  V30 50254 H 213.756 0.403896 -7.13257 0
M  V30 50255 H 215.59 1.20585 -8.97435 0
M  V30 50256 H 215.661 2.71231 -5.45042 0
M  V30 50257 P 213.719 -1.17771 -8.83182 0
M  V30 50258 O 213.499 -2.07206 -9.98732 0
M  V30 50259 O 212.929 0.0743816 -8.81969 0
M  V30 50260 O 213.469 -1.97652 -7.47304 0
M  V30 50261 C 214.409 -3.01133 -7.08783 0
M  V30 50262 C 213.679 -4.12613 -6.37049 0
M  V30 50263 O 213.469 -3.72827 -4.97879 0
M  V30 50264 C 212.279 -4.45085 -6.88694 0
M  V30 50265 O 211.889 -5.7877 -6.5624 0
M  V30 50266 C 211.399 -3.47817 -6.12078 0
M  V30 50267 C 212.109 -3.39414 -4.77697 0
M  V30 50268 N 212.059 -2.04615 -4.15333 0
M  V30 50269 H 214.898 -3.41248 -7.98759 0
M  V30 50270 H 215.17 -2.5837 -6.41742 0
M  V30 50271 H 214.302 -5.02657 -6.42673 0
M  V30 50272 P 210.339 -6.144 -6.45285 0
M  V30 50273 O 210.119 -7.54673 -6.86199 0
M  V30 50274 O 209.549 -5.12391 -7.179 0
M  V30 50275 O 210.089 -5.99158 -4.88404 0
M  V30 50276 C 211.029 -6.60234 -3.96415 0
M  V30 50277 C 210.299 -7.08259 -2.72856 0
M  V30 50278 O 210.089 -5.9427 -1.83651 0
M  V30 50279 C 208.899 -7.64886 -2.9555 0
M  V30 50280 O 208.509 -8.53963 -1.90717 0
M  V30 50281 C 208.019 -6.4116 -2.90739 0
M  V30 50282 C 208.729 -5.55375 -1.86963 0
M  V30 50283 N 208.679 -4.09448 -2.16152 0
M  V30 50284 C 208.759 -3.46824 -3.37593 0
M  V30 50285 N 208.689 -2.17422 -3.29777 0
M  V30 50286 C 208.539 -1.93065 -1.94427 0
M  V30 50287 C 208.409 -0.738053 -1.20141 0
M  V30 50288 N 208.399 0.474256 -1.74676 0
M  V30 50289 N 208.289 -0.850049 0.13045 0
M  V30 50290 C 208.299 -2.06169 0.676992 0
M  V30 50291 N 208.419 -3.23842 0.101312 0
M  V30 50292 C 208.539 -3.09402 -1.23122 0
M  V30 50293 H 211.518 -7.45574 -4.45629 0
M  V30 50294 H 211.79 -5.85864 -3.679 0
M  V30 50295 H 210.922 -7.84412 -2.24479 0
M  V30 50296 H 208.267 -5.73457 -0.888562 0
M  V30 50297 H 207.987 -5.90877 -3.88583 0
M  V30 50298 H 206.996 -6.6596 -2.58858 0
M  V30 50299 H 208.83 -8.16339 -3.92049 0
M  V30 50300 H 208.871 -4.00505 -4.3174 0
M  V30 50301 H 208.49 0.581337 -2.76658 0
M  V30 50302 H 208.301 1.30811 -1.14888 0
M  V30 50303 H 208.193 -2.08295 1.75542 0
M  V30 50304 P 206.959 -8.7635 -1.60911 0
M  V30 50305 O 206.739 -10.1388 -1.11561 0
M  V30 50306 O 206.169 -8.36503 -2.79617 0
M  V30 50307 O 206.709 -7.71806 -0.42951 0
M  V30 50308 C 207.649 -7.67148 0.673689 0
M  V30 50309 C 206.919 -7.33374 1.95559 0
M  V30 50310 O 206.709 -5.88721 2.00726 0
M  V30 50311 C 205.519 -7.92526 2.10483 0
M  V30 50312 O 205.129 -8.02971 3.47653 0
M  V30 50313 C 204.639 -6.89602 1.41652 0
M  V30 50314 C 205.349 -5.59201 1.75185 0
M  V30 50315 N 205.299 -4.58235 0.662552 0
M  V30 50316 H 208.138 -8.65116 0.777161 0
M  V30 50317 H 208.41 -6.90173 0.474152 0
M  V30 50318 H 207.542 -7.66548 2.79458 0
M  V30 50319 P 203.579 -8.03563 3.84925 0
M  V30 50320 O 203.359 -8.85821 5.0569 0
M  V30 50321 O 202.789 -8.41101 2.65469 0
M  V30 50322 O 203.329 -6.49734 4.18962 0
M  V30 50323 C 204.269 -5.81037 5.05421 0
M  V30 50324 C 203.539 -4.79018 5.88876 0
M  V30 50325 O 203.329 -3.58359 5.08515 0
M  V30 50326 C 202.139 -5.17448 6.36119 0
M  V30 50327 O 201.749 -4.45322 7.53318 0
M  V30 50328 C 201.259 -4.74639 5.19936 0
M  V30 50329 C 201.969 -3.49432 4.70418 0
M  V30 50330 N 201.919 -3.31776 3.22945 0
M  V30 50331 C 201.769 -2.02742 2.72939 0
M  V30 50332 O 201.679 -1.08301 3.52749 0
M  V30 50333 N 201.719 -1.96117 1.22063 0
M  V30 50334 C 201.819 -2.8878 0.551566 0
M  V30 50335 N 201.769 -2.65609 -0.750198 0
M  V30 50336 C 201.969 -4.22457 1.03707 0
M  V30 50337 C 202.019 -4.37979 2.39113 0
M  V30 50338 H 204.759 -6.54138 5.7131 0
M  V30 50339 H 205.029 -5.30492 4.44033 0
M  V30 50340 H 204.162 -4.55945 6.76735 0
M  V30 50341 H 201.507 -2.6176 5.18021 0
M  V30 50342 H 201.227 -5.52233 4.41941 0
M  V30 50343 H 200.236 -4.52045 5.53452 0
M  V30 50344 H 202.07 -6.25124 6.55234 0
M  V30 50345 H 202.142 -5.37936 2.80552 0
M  V30 50346 H 202.04 -5.07528 0.359553 0
M  V30 50347 H 201.652 -1.69403 -1.09847 0
M  V30 50348 H 201.848 -3.43701 -1.41792 0
M  V30 50349 P 200.199 -4.23843 7.83734 0
M  V30 50350 O 199.979 -4.19407 9.29784 0
M  V30 50351 O 199.409 -5.24426 7.09156 0
M  V30 50352 O 199.949 -2.7935 7.20758 0
M  V30 50353 C 200.889 -1.7299 7.50419 0
M  V30 50354 C 200.159 -0.406376 7.57911 0
M  V30 50355 O 199.949 0.0897726 6.21935 0
M  V30 50356 C 198.759 -0.447224 8.1878 0
M  V30 50357 O 198.369 0.825065 8.71101 0
M  V30 50358 C 197.879 -0.783801 6.99623 0
M  V30 50359 C 198.589 -0.0619192 5.85967 0
M  V30 50360 N 198.539 -0.790462 4.56202 0
M  V30 50361 C 198.619 -2.13895 4.34171 0
M  V30 50362 N 198.549 -2.46449 3.08687 0
M  V30 50363 C 198.399 -1.2525 2.43697 0
M  V30 50364 C 198.269 -0.914535 1.07318 0
M  V30 50365 N 198.259 -1.80782 0.0887348 0
M  V30 50366 N 198.149 0.386745 0.768133 0
M  V30 50367 C 198.159 1.28096 1.75159 0
M  V30 50368 N 198.279 1.09708 3.04861 0
M  V30 50369 C 198.399 -0.214857 3.32306 0
M  V30 50370 H 201.378 -1.93423 8.4679 0
M  V30 50371 H 201.65 -1.68852 6.70877 0
M  V30 50372 H 200.782 0.289041 8.15388 0
M  V30 50373 H 198.127 0.927006 5.72848 0
M  V30 50374 H 197.847 -1.86973 6.82036 0
M  V30 50375 H 196.856 -0.403953 7.13357 0
M  V30 50376 H 198.69 -1.20599 8.97534 0
M  V30 50377 H 198.731 -2.86846 5.14318 0
M  V30 50378 H 198.35 -2.81082 0.302037 0
M  V30 50379 H 198.161 -1.49688 -0.889064 0
M  V30 50380 H 198.053 2.31317 1.43855 0
M  V30 50381 P 196.819 1.17771 8.83182 0
M  V30 50382 O 196.599 2.07206 9.98732 0
M  V30 50383 O 196.029 -0.0743816 8.81969 0
M  V30 50384 O 196.569 1.97652 7.47304 0
M  V30 50385 C 197.509 3.01133 7.08783 0
M  V30 50386 C 196.779 4.12613 6.37049 0
M  V30 50387 O 196.569 3.72827 4.97879 0
M  V30 50388 C 195.379 4.45085 6.88694 0
M  V30 50389 O 194.989 5.7877 6.5624 0
M  V30 50390 C 194.499 3.47817 6.12078 0
M  V30 50391 C 195.209 3.39414 4.77697 0
M  V30 50392 N 195.159 2.04615 4.15333 0
M  V30 50393 H 197.998 3.41248 7.98759 0
M  V30 50394 H 198.27 2.5837 6.41742 0
M  V30 50395 H 197.402 5.02657 6.42673 0
M  V30 50396 P 193.439 6.144 6.45285 0
M  V30 50397 O 193.219 7.54673 6.86199 0
M  V30 50398 O 192.649 5.12391 7.179 0
M  V30 50399 O 193.189 5.99158 4.88404 0
M  V30 50400 C 194.129 6.60234 3.96415 0
M  V30 50401 C 193.399 7.08259 2.72856 0
M  V30 50402 O 193.189 5.9427 1.83651 0
M  V30 50403 C 191.999 7.64886 2.9555 0
M  V30 50404 O 191.609 8.53963 1.90717 0
M  V30 50405 C 191.119 6.4116 2.90739 0
M  V30 50406 C 191.829 5.55375 1.86963 0
M  V30 50407 N 191.779 4.09448 2.16152 0
M  V30 50408 H 194.618 7.45574 4.45629 0
M  V30 50409 H 194.89 5.85864 3.679 0
M  V30 50410 H 194.022 7.84412 2.24479 0
M  V30 50411 H 191.367 5.73457 0.888562 0
M  V30 50412 H 191.087 5.90877 3.88583 0
M  V30 50413 H 190.096 6.6596 2.58858 0
M  V30 50414 H 191.93 8.16339 3.92049 0
M  V30 50415 P 190.059 8.7635 1.60911 0
M  V30 50416 O 189.839 10.1388 1.11561 0
M  V30 50417 O 189.269 8.36503 2.79617 0
M  V30 50418 O 189.809 7.71806 0.42951 0
M  V30 50419 C 190.749 7.67148 -0.673689 0
M  V30 50420 C 190.019 7.33374 -1.95559 0
M  V30 50421 O 189.809 5.88721 -2.00726 0
M  V30 50422 C 188.619 7.92526 -2.10483 0
M  V30 50423 O 188.229 8.02971 -3.47653 0
M  V30 50424 C 187.739 6.89602 -1.41652 0
M  V30 50425 C 188.449 5.59201 -1.75185 0
M  V30 50426 N 188.399 4.58235 -0.662552 0
M  V30 50427 H 191.238 8.65116 -0.777161 0
M  V30 50428 H 191.51 6.90173 -0.474152 0
M  V30 50429 H 190.642 7.66548 -2.79458 0
M  V30 50430 P 186.679 8.03563 -3.84925 0
M  V30 50431 O 186.459 8.85821 -5.0569 0
M  V30 50432 O 185.889 8.41101 -2.65469 0
M  V30 50433 O 186.429 6.4965 -4.18908 0
M  V30 50434 C 187.369 5.81037 -5.05421 0
M  V30 50435 C 186.639 4.78366 -5.89277 0
M  V30 50436 O 186.429 3.58302 -5.08433 0
M  V30 50437 C 185.239 5.17448 -6.36119 0
M  V30 50438 O 184.849 4.45271 -7.53232 0
M  V30 50439 C 184.359 4.74639 -5.19936 0
M  V30 50440 C 185.069 3.49432 -4.70418 0
M  V30 50441 N 185.019 3.31776 -3.22945 0
M  V30 50442 H 187.858 6.54213 -5.71376 0
M  V30 50443 H 188.13 5.30492 -4.44033 0
M  V30 50444 H 187.262 4.55889 -6.76652 0
M  V30 50445 P 183.299 4.23843 -7.83734 0
M  V30 50446 O 183.079 4.19407 -9.29784 0
M  V30 50447 O 182.509 5.24426 -7.09156 0
M  V30 50448 O 183.049 2.7935 -7.20758 0
M  V30 50449 C 183.989 1.7299 -7.50419 0
M  V30 50450 C 183.259 0.406376 -7.57911 0
M  V30 50451 O 183.049 -0.0897726 -6.21935 0
M  V30 50452 C 181.859 0.447224 -8.1878 0
M  V30 50453 O 181.469 -0.825065 -8.71101 0
M  V30 50454 C 180.979 0.783801 -6.99623 0
M  V30 50455 C 181.689 0.0619192 -5.85967 0
M  V30 50456 N 181.639 0.790462 -4.56202 0
M  V30 50457 C 181.719 2.13895 -4.34171 0
M  V30 50458 N 181.649 2.46449 -3.08687 0
M  V30 50459 C 181.499 1.2525 -2.43697 0
M  V30 50460 C 181.369 0.914535 -1.07318 0
M  V30 50461 N 181.359 1.80782 -0.0887348 0
M  V30 50462 N 181.249 -0.386745 -0.768133 0
M  V30 50463 C 181.259 -1.28096 -1.75159 0
M  V30 50464 N 181.379 -1.09708 -3.04861 0
M  V30 50465 C 181.499 0.214857 -3.32306 0
M  V30 50466 H 184.478 1.93423 -8.4679 0
M  V30 50467 H 184.75 1.68852 -6.70877 0
M  V30 50468 H 183.882 -0.289041 -8.15388 0
M  V30 50469 H 181.227 -0.927006 -5.72848 0
M  V30 50470 H 180.947 1.86973 -6.82036 0
M  V30 50471 H 179.956 0.403953 -7.13357 0
M  V30 50472 H 181.79 1.20599 -8.97534 0
M  V30 50473 H 181.831 2.86846 -5.14318 0
M  V30 50474 H 181.45 2.81082 -0.302037 0
M  V30 50475 H 181.261 1.49688 0.889064 0
M  V30 50476 H 181.153 -2.31317 -1.43855 0
M  V30 50477 P 179.919 -1.17771 -8.83182 0
M  V30 50478 O 179.699 -2.07206 -9.98732 0
M  V30 50479 O 179.129 0.0743816 -8.81969 0
M  V30 50480 O 179.669 -1.97678 -7.474 0
M  V30 50481 C 180.609 -3.01133 -7.08783 0
M  V30 50482 C 179.879 -4.1203 -6.37546 0
M  V30 50483 O 179.669 -3.72887 -4.9796 0
M  V30 50484 C 178.479 -4.45085 -6.88694 0
M  V30 50485 O 178.089 -5.78836 -6.56315 0
M  V30 50486 C 177.599 -3.47817 -6.12078 0
M  V30 50487 C 178.309 -3.39414 -4.77697 0
M  V30 50488 N 178.259 -2.04615 -4.15333 0
M  V30 50489 C 178.109 -1.96929 -2.77162 0
M  V30 50490 O 178.019 -3.02017 -2.12006 0
M  V30 50491 N 178.059 -0.55485 -2.24237 0
M  V30 50492 C 178.159 0.367808 -2.9169 0
M  V30 50493 N 178.109 1.53426 -2.29427 0
M  V30 50494 C 178.309 0.319148 -4.33828 0
M  V30 50495 C 178.359 -0.920672 -4.90433 0
M  V30 50496 H 181.099 -3.41209 -7.98667 0
M  V30 50497 H 181.369 -2.5837 -6.41742 0
M  V30 50498 H 180.502 -5.02718 -6.42752 0
M  V30 50499 H 177.847 -4.11779 -4.09026 0
M  V30 50500 H 177.567 -2.49661 -6.61772 0
M  V30 50501 H 176.576 -3.86674 -6.00946 0
M  V30 50502 H 178.41 -4.29991 -7.97006 0
M  V30 50503 H 178.482 -1.00589 -5.98303 0
M  V30 50504 H 178.38 1.22639 -4.93799 0
M  V30 50505 H 177.992 1.56819 -1.27167 0
M  V30 50506 H 178.188 2.41062 -2.83063 0
M  V30 50507 P 176.539 -6.144 -6.45285 0
M  V30 50508 O 176.319 -7.54673 -6.86199 0
M  V30 50509 O 175.749 -5.12391 -7.179 0
M  V30 50510 O 176.289 -5.99158 -4.88404 0
M  V30 50511 C 177.229 -6.60234 -3.96415 0
M  V30 50512 C 176.499 -7.08259 -2.72856 0
M  V30 50513 O 176.289 -5.9427 -1.83651 0
M  V30 50514 C 175.099 -7.64886 -2.9555 0
M  V30 50515 O 174.709 -8.53963 -1.90717 0
M  V30 50516 C 174.219 -6.4116 -2.90739 0
M  V30 50517 C 174.929 -5.55375 -1.86963 0
M  V30 50518 N 174.879 -4.09664 -2.15742 0
M  V30 50519 H 177.718 -7.45574 -4.45629 0
M  V30 50520 H 177.99 -5.86232 -3.67314 0
M  V30 50521 H 177.122 -7.84412 -2.24479 0
M  V30 50522 P 173.159 -8.7635 -1.60911 0
M  V30 50523 O 172.939 -10.1388 -1.11561 0
M  V30 50524 O 172.369 -8.36503 -2.79617 0
M  V30 50525 O 172.909 -7.71806 -0.42951 0
M  V30 50526 C 173.849 -7.67148 0.673689 0
M  V30 50527 C 173.119 -7.33374 1.95559 0
M  V30 50528 O 172.909 -5.88721 2.00726 0
M  V30 50529 C 171.719 -7.92526 2.10483 0
M  V30 50530 O 171.329 -8.02971 3.47653 0
M  V30 50531 C 170.839 -6.89602 1.41652 0
M  V30 50532 C 171.549 -5.59201 1.75185 0
M  V30 50533 N 171.499 -4.58235 0.662552 0
M  V30 50534 H 174.338 -8.65116 0.777161 0
M  V30 50535 H 174.61 -6.90173 0.474152 0
M  V30 50536 H 173.742 -7.66548 2.79458 0
M  V30 50537 P 169.779 -8.03563 3.84925 0
M  V30 50538 O 169.559 -8.85821 5.0569 0
M  V30 50539 O 168.989 -8.41101 2.65469 0
M  V30 50540 O 169.529 -6.4965 4.18908 0
M  V30 50541 C 170.469 -5.80886 5.05289 0
M  V30 50542 C 169.739 -4.78366 5.89277 0
M  V30 50543 O 169.529 -3.58302 5.08433 0
M  V30 50544 C 168.339 -5.16748 6.36559 0
M  V30 50545 O 167.949 -4.45271 7.53232 0
M  V30 50546 C 167.459 -4.74572 5.19863 0
M  V30 50547 C 168.169 -3.49373 4.70338 0
M  V30 50548 N 168.119 -3.31704 3.22876 0
M  V30 50549 C 167.969 -2.03326 2.74871 0
M  V30 50550 O 167.879 -1.06486 3.48076 0
M  V30 50551 N 167.929 -1.91838 1.37456 0
M  V30 50552 C 168.019 -2.94295 0.462035 0
M  V30 50553 O 167.969 -2.71763 -0.752928 0
M  V30 50554 C 168.169 -4.25064 1.05249 0
M  V30 50555 C 168.279 -5.39815 0.095697 0
M  V30 50556 C 168.219 -4.40214 2.39192 0
M  V30 50557 H 170.96 -6.54063 5.71245 0
M  V30 50558 H 171.229 -5.30339 4.43905 0
M  V30 50559 H 170.362 -4.55889 6.76652 0
M  V30 50560 H 167.707 -2.6167 5.17842 0
M  V30 50561 H 167.428 -5.52155 4.41878 0
M  V30 50562 H 166.436 -4.51918 5.53297 0
M  V30 50563 H 168.27 -6.25055 6.55162 0
M  V30 50564 H 168.341 -5.39798 2.81523 0
M  V30 50565 H 167.311 -5.91593 0.0279582 0
M  V30 50566 H 169.048 -6.10038 0.450573 0
M  V30 50567 H 168.56 -5.02007 -0.89937 0
M  V30 50568 H 167.824 -0.995326 1.00435 0
M  V30 50569 P 166.399 -4.23843 7.83734 0
M  V30 50570 O 166.179 -4.19407 9.29784 0
M  V30 50571 O 165.609 -5.24426 7.09156 0
M  V30 50572 O 166.149 -2.7935 7.20758 0
M  V30 50573 C 167.089 -1.7299 7.50419 0
M  V30 50574 C 166.359 -0.406376 7.57911 0
M  V30 50575 O 166.149 0.0897726 6.21935 0
M  V30 50576 C 164.959 -0.447224 8.1878 0
M  V30 50577 O 164.569 0.825065 8.71101 0
M  V30 50578 C 164.079 -0.783801 6.99623 0
M  V30 50579 C 164.789 -0.0619192 5.85967 0
M  V30 50580 N 164.739 -0.7859 4.56281 0
M  V30 50581 H 167.578 -1.93423 8.4679 0
M  V30 50582 H 167.85 -1.68181 6.71046 0
M  V30 50583 H 166.982 0.289041 8.15388 0
M  V30 50584 P 163.019 1.17771 8.83182 0
M  V30 50585 O 162.799 2.07206 9.98732 0
M  V30 50586 O 162.229 -0.0743816 8.81969 0
M  V30 50587 O 162.769 1.97652 7.47304 0
M  V30 50588 C 163.709 3.01133 7.08783 0
M  V30 50589 C 162.979 4.12613 6.37049 0
M  V30 50590 O 162.769 3.72827 4.97879 0
M  V30 50591 C 161.579 4.45085 6.88694 0
M  V30 50592 O 161.189 5.7877 6.5624 0
M  V30 50593 C 160.699 3.47817 6.12078 0
M  V30 50594 C 161.409 3.39414 4.77697 0
M  V30 50595 N 161.359 2.04615 4.15333 0
M  V30 50596 C 161.439 0.803897 4.75249 0
M  V30 50597 N 161.359 -0.197615 3.91502 0
M  V30 50598 C 161.219 0.413002 2.66823 0
M  V30 50599 C 161.089 -0.157221 1.38007 0
M  V30 50600 N 160.969 0.833136 0.390236 0
M  V30 50601 C 160.969 2.19402 0.623885 0
M  V30 50602 N 160.839 2.97622 -0.449677 0
M  V30 50603 N 161.099 2.73005 1.83601 0
M  V30 50604 C 161.219 1.78786 2.80935 0
M  V30 50605 H 164.198 3.41248 7.98759 0
M  V30 50606 H 164.47 2.5837 6.41742 0
M  V30 50607 H 163.602 5.02657 6.42673 0
M  V30 50608 P 159.639 6.144 6.45285 0
M  V30 50609 O 159.419 7.54673 6.86199 0
M  V30 50610 O 158.849 5.12391 7.179 0
M  V30 50611 O 159.389 5.99158 4.88404 0
M  V30 50612 C 160.329 6.60234 3.96415 0
M  V30 50613 C 159.599 7.08259 2.72856 0
M  V30 50614 O 159.389 5.9427 1.83651 0
M  V30 50615 C 158.199 7.64886 2.9555 0
M  V30 50616 O 157.809 8.53963 1.90717 0
M  V30 50617 C 157.319 6.4116 2.90739 0
M  V30 50618 C 158.029 5.55375 1.86963 0
M  V30 50619 N 157.979 4.09664 2.15742 0
M  V30 50620 H 160.818 7.45574 4.45629 0
M  V30 50621 H 161.09 5.86232 3.67314 0
M  V30 50622 H 160.222 7.84412 2.24479 0
M  V30 50623 P 156.259 8.7635 1.60911 0
M  V30 50624 O 156.039 10.1388 1.11561 0
M  V30 50625 O 155.469 8.36503 2.79617 0
M  V30 50626 O 156.009 7.71806 0.42951 0
M  V30 50627 C 156.949 7.67148 -0.673689 0
M  V30 50628 C 156.219 7.33374 -1.95559 0
M  V30 50629 O 156.009 5.88721 -2.00726 0
M  V30 50630 C 154.819 7.92526 -2.10483 0
M  V30 50631 O 154.429 8.02971 -3.47653 0
M  V30 50632 C 153.939 6.89602 -1.41652 0
M  V30 50633 C 154.649 5.59201 -1.75185 0
M  V30 50634 N 154.599 4.58235 -0.662552 0
M  V30 50635 H 157.438 8.65116 -0.777161 0
M  V30 50636 H 157.71 6.90173 -0.474152 0
M  V30 50637 H 156.842 7.66548 -2.79458 0
M  V30 50638 P 152.879 8.03563 -3.84925 0
M  V30 50639 O 152.659 8.85821 -5.0569 0
M  V30 50640 O 152.089 8.41101 -2.65469 0
M  V30 50641 O 152.629 6.4965 -4.18908 0
M  V30 50642 C 153.569 5.81037 -5.05421 0
M  V30 50643 C 152.839 4.78366 -5.89277 0
M  V30 50644 O 152.629 3.58302 -5.08433 0
M  V30 50645 C 151.439 5.17448 -6.36119 0
M  V30 50646 O 151.049 4.45271 -7.53232 0
M  V30 50647 C 150.559 4.74639 -5.19936 0
M  V30 50648 C 151.269 3.49432 -4.70418 0
M  V30 50649 N 151.219 3.31776 -3.22945 0
M  V30 50650 C 151.299 4.27147 -2.23315 0
M  V30 50651 N 151.219 3.78447 -1.02186 0
M  V30 50652 C 151.079 2.41001 -1.21732 0
M  V30 50653 C 150.949 1.36111 -0.27694 0
M  V30 50654 N 150.829 0.113683 -0.912949 0
M  V30 50655 C 150.829 -0.0846396 -2.27943 0
M  V30 50656 N 150.699 -1.34737 -2.6916 0
M  V30 50657 N 150.959 0.902521 -3.16379 0
M  V30 50658 C 151.079 2.11937 -2.56849 0
M  V30 50659 H 154.058 6.54213 -5.71376 0
M  V30 50660 H 154.33 5.30492 -4.44033 0
M  V30 50661 H 153.462 4.55889 -6.76652 0
M  V30 50662 P 149.499 4.23843 -7.83734 0
M  V30 50663 O 149.279 4.19407 -9.29784 0
M  V30 50664 O 148.709 5.24426 -7.09156 0
M  V30 50665 O 149.249 2.7935 -7.20758 0
M  V30 50666 C 150.189 1.7299 -7.50419 0
M  V30 50667 C 149.459 0.406376 -7.57911 0
M  V30 50668 O 149.249 -0.0897726 -6.21935 0
M  V30 50669 C 148.059 0.447224 -8.1878 0
M  V30 50670 O 147.669 -0.825065 -8.71101 0
M  V30 50671 C 147.179 0.783801 -6.99623 0
M  V30 50672 C 147.889 0.0619192 -5.85967 0
M  V30 50673 N 147.839 0.7859 -4.56281 0
M  V30 50674 H 150.678 1.93423 -8.4679 0
M  V30 50675 H 150.95 1.68181 -6.71046 0
M  V30 50676 H 150.082 -0.289041 -8.15388 0
M  V30 50677 P 146.119 -1.17771 -8.83182 0
M  V30 50678 O 145.899 -2.07206 -9.98732 0
M  V30 50679 O 145.329 0.0743816 -8.81969 0
M  V30 50680 O 145.869 -1.97652 -7.47304 0
M  V30 50681 C 146.809 -3.01133 -7.08783 0
M  V30 50682 C 146.079 -4.12613 -6.37049 0
M  V30 50683 O 145.869 -3.72827 -4.97879 0
M  V30 50684 C 144.679 -4.45085 -6.88694 0
M  V30 50685 O 144.289 -5.7877 -6.5624 0
M  V30 50686 C 143.799 -3.47817 -6.12078 0
M  V30 50687 C 144.509 -3.39414 -4.77697 0
M  V30 50688 N 144.459 -2.04615 -4.15333 0
M  V30 50689 H 147.298 -3.41248 -7.98759 0
M  V30 50690 H 147.57 -2.5837 -6.41742 0
M  V30 50691 H 146.702 -5.02657 -6.42673 0
M  V30 50692 P 142.739 -6.144 -6.45285 0
M  V30 50693 O 142.519 -7.54673 -6.86199 0
M  V30 50694 O 141.949 -5.12391 -7.179 0
M  V30 50695 O 142.489 -5.99158 -4.88404 0
M  V30 50696 C 143.429 -6.60234 -3.96415 0
M  V30 50697 C 142.699 -7.08259 -2.72856 0
M  V30 50698 O 142.489 -5.9427 -1.83651 0
M  V30 50699 C 141.299 -7.64886 -2.9555 0
M  V30 50700 O 140.909 -8.53963 -1.90717 0
M  V30 50701 C 140.419 -6.4116 -2.90739 0
M  V30 50702 C 141.129 -5.55375 -1.86963 0
M  V30 50703 N 141.079 -4.09664 -2.15742 0
M  V30 50704 H 143.918 -7.45574 -4.45629 0
M  V30 50705 H 144.19 -5.86232 -3.67314 0
M  V30 50706 H 143.322 -7.84412 -2.24479 0
M  V30 50707 P 139.359 -8.7635 -1.60911 0
M  V30 50708 O 139.139 -10.1388 -1.11561 0
M  V30 50709 O 138.569 -8.36503 -2.79617 0
M  V30 50710 O 139.109 -7.71806 -0.42951 0
M  V30 50711 C 140.049 -7.66948 0.673514 0
M  V30 50712 C 139.319 -7.33374 1.95559 0
M  V30 50713 O 139.109 -5.88721 2.00726 0
M  V30 50714 C 137.919 -7.92218 2.1125 0
M  V30 50715 O 137.529 -8.02971 3.47653 0
M  V30 50716 C 137.039 -6.89504 1.41631 0
M  V30 50717 C 137.749 -5.59106 1.75155 0
M  V30 50718 N 137.699 -4.58136 0.662409 0
M  V30 50719 C 137.549 -3.26059 1.02863 0
M  V30 50720 O 137.459 -2.90743 2.19009 0
M  V30 50721 N 137.509 -2.35995 -0.0155585 0
M  V30 50722 C 137.599 -2.65248 -1.35603 0
M  V30 50723 C 137.749 -4.05747 -1.64698 0
M  V30 50724 C 137.799 -4.96734 -0.652411 0
M  V30 50725 H 140.54 -8.64917 0.776982 0
M  V30 50726 H 140.809 -6.89974 0.474015 0
M  V30 50727 H 139.942 -7.66548 2.79458 0
M  V30 50728 H 137.287 -5.16076 2.65138 0
M  V30 50729 H 137.008 -7.06433 0.329384 0
M  V30 50730 H 136.016 -6.90829 1.81996 0
M  V30 50731 H 137.85 -8.90774 1.62639 0
M  V30 50732 H 137.921 -6.02181 -0.895285 0
M  V30 50733 P 135.979 -8.03563 3.84925 0
M  V30 50734 O 135.759 -8.85821 5.0569 0
M  V30 50735 O 135.189 -8.41101 2.65469 0
M  V30 50736 O 135.729 -6.4965 4.18908 0
M  V30 50737 C 136.669 -5.81037 5.05421 0
M  V30 50738 C 135.939 -4.78366 5.89277 0
M  V30 50739 O 135.729 -3.58302 5.08433 0
M  V30 50740 C 134.539 -5.17448 6.36119 0
M  V30 50741 O 134.149 -4.45271 7.53232 0
M  V30 50742 C 133.659 -4.74639 5.19936 0
M  V30 50743 C 134.369 -3.49432 4.70418 0
M  V30 50744 N 134.319 -3.31776 3.22945 0
M  V30 50745 H 137.158 -6.54213 5.71376 0
M  V30 50746 H 137.43 -5.30492 4.44033 0
M  V30 50747 H 136.562 -4.55889 6.76652 0
M  V30 50748 P 132.599 -4.23843 7.83734 0
M  V30 50749 O 132.379 -4.19407 9.29784 0
M  V30 50750 O 131.809 -5.24426 7.09156 0
M  V30 50751 O 132.349 -2.7935 7.20758 0
M  V30 50752 C 133.289 -1.7299 7.50419 0
M  V30 50753 C 132.559 -0.406376 7.57911 0
M  V30 50754 O 132.349 0.0897726 6.21935 0
M  V30 50755 C 131.159 -0.447224 8.1878 0
M  V30 50756 O 130.769 0.825065 8.71101 0
M  V30 50757 C 130.279 -0.783801 6.99623 0
M  V30 50758 C 130.989 -0.0619192 5.85967 0
M  V30 50759 N 130.939 -0.7859 4.56281 0
M  V30 50760 C 131.019 -2.14308 4.31736 0
M  V30 50761 N 130.939 -2.46106 3.05116 0
M  V30 50762 C 130.799 -1.23422 2.4014 0
M  V30 50763 C 130.669 -0.938381 1.02409 0
M  V30 50764 O 130.649 -1.70876 0.0650402 0
M  V30 50765 N 130.549 0.444647 0.805413 0
M  V30 50766 C 130.549 1.40829 1.79435 0
M  V30 50767 N 130.419 2.67213 1.38558 0
M  V30 50768 N 130.679 1.12947 3.09005 0
M  V30 50769 C 130.799 -0.204887 3.32369 0
M  V30 50770 H 133.778 -1.93423 8.4679 0
M  V30 50771 H 134.05 -1.68181 6.71046 0
M  V30 50772 H 133.182 0.289041 8.15388 0
M  V30 50773 H 130.527 0.927166 5.72947 0
M  V30 50774 H 130.247 -1.87 6.82132 0
M  V30 50775 H 129.256 -0.404009 7.13457 0
M  V30 50776 H 131.09 -1.20612 8.97633 0
M  V30 50777 H 131.139 -2.88284 5.10874 0
M  V30 50778 H 130.457 0.755087 -0.140242 0
M  V30 50779 H 130.42 3.43967 2.0729 0
M  V30 50780 H 130.319 2.88096 0.380644 0
M  V30 50781 P 129.219 1.17771 8.83182 0
M  V30 50782 O 128.999 2.07206 9.98732 0
M  V30 50783 O 128.429 -0.0743816 8.81969 0
M  V30 50784 O 128.969 1.97652 7.47304 0
M  V30 50785 C 129.909 3.01133 7.08783 0
M  V30 50786 C 129.179 4.12613 6.37049 0
M  V30 50787 O 128.969 3.72827 4.97879 0
M  V30 50788 C 127.779 4.45085 6.88694 0
M  V30 50789 O 127.389 5.7877 6.5624 0
M  V30 50790 C 126.899 3.47817 6.12078 0
M  V30 50791 C 127.609 3.39414 4.77697 0
M  V30 50792 N 127.559 2.04615 4.15333 0
M  V30 50793 H 130.398 3.41248 7.98759 0
M  V30 50794 H 130.67 2.5837 6.41742 0
M  V30 50795 H 129.802 5.02657 6.42673 0
M  V30 50796 P 125.839 6.144 6.45285 0
M  V30 50797 O 125.619 7.54673 6.86199 0
M  V30 50798 O 125.049 5.12391 7.179 0
M  V30 50799 O 125.589 5.99158 4.88404 0
M  V30 50800 C 126.529 6.60234 3.96415 0
M  V30 50801 C 125.799 7.08259 2.72856 0
M  V30 50802 O 125.589 5.9427 1.83651 0
M  V30 50803 C 124.399 7.64886 2.9555 0
M  V30 50804 O 124.009 8.53963 1.90717 0
M  V30 50805 C 123.519 6.4116 2.90739 0
M  V30 50806 C 124.229 5.55375 1.86963 0
M  V30 50807 N 124.179 4.09664 2.15742 0
M  V30 50808 H 127.018 7.45574 4.45629 0
M  V30 50809 H 127.29 5.86232 3.67314 0
M  V30 50810 H 126.422 7.84412 2.24479 0
M  V30 50811 P 122.459 8.7635 1.60911 0
M  V30 50812 O 122.239 10.1388 1.11561 0
M  V30 50813 O 121.669 8.36503 2.79617 0
M  V30 50814 O 122.209 7.71806 0.42951 0
M  V30 50815 C 123.149 7.67148 -0.673689 0
M  V30 50816 C 122.419 7.33374 -1.95559 0
M  V30 50817 O 122.209 5.88721 -2.00726 0
M  V30 50818 C 121.019 7.92526 -2.10483 0
M  V30 50819 O 120.629 8.02971 -3.47653 0
M  V30 50820 C 120.139 6.89602 -1.41652 0
M  V30 50821 C 120.849 5.59201 -1.75185 0
M  V30 50822 N 120.799 4.58235 -0.662552 0
M  V30 50823 H 123.638 8.65116 -0.777161 0
M  V30 50824 H 123.91 6.90173 -0.474152 0
M  V30 50825 H 123.042 7.66548 -2.79458 0
M  V30 50826 P 119.079 8.03563 -3.84925 0
M  V30 50827 O 118.859 8.85821 -5.0569 0
M  V30 50828 O 118.289 8.41101 -2.65469 0
M  V30 50829 O 118.829 6.49734 -4.18962 0
M  V30 50830 C 119.769 5.81037 -5.05421 0
M  V30 50831 C 119.039 4.79018 -5.88876 0
M  V30 50832 O 118.829 3.58359 -5.08515 0
M  V30 50833 C 117.639 5.17448 -6.36119 0
M  V30 50834 O 117.249 4.45322 -7.53318 0
M  V30 50835 C 116.759 4.74639 -5.19936 0
M  V30 50836 C 117.469 3.49432 -4.70418 0
M  V30 50837 N 117.419 3.31776 -3.22945 0
M  V30 50838 C 117.269 2.02742 -2.72939 0
M  V30 50839 O 117.179 1.08301 -3.52749 0
M  V30 50840 N 117.219 1.96117 -1.22063 0
M  V30 50841 C 117.319 2.8878 -0.551566 0
M  V30 50842 N 117.269 2.65609 0.750198 0
M  V30 50843 C 117.469 4.22457 -1.03707 0
M  V30 50844 C 117.519 4.37979 -2.39113 0
M  V30 50845 H 120.259 6.54138 -5.7131 0
M  V30 50846 H 120.529 5.30492 -4.44033 0
M  V30 50847 H 119.662 4.55945 -6.76735 0
M  V30 50848 H 117.007 2.6176 -5.18021 0
M  V30 50849 H 116.727 5.52233 -4.41941 0
M  V30 50850 H 115.736 4.52045 -5.53452 0
M  V30 50851 H 117.57 6.25124 -6.55234 0
M  V30 50852 H 117.642 5.37936 -2.80552 0
M  V30 50853 H 117.54 5.07528 -0.359553 0
M  V30 50854 H 117.152 1.69403 1.09847 0
M  V30 50855 H 117.348 3.43701 1.41792 0
M  V30 50856 P 115.699 4.23843 -7.83734 0
M  V30 50857 O 115.479 4.19407 -9.29784 0
M  V30 50858 O 114.909 5.24426 -7.09156 0
M  V30 50859 O 115.449 2.7935 -7.20758 0
M  V30 50860 C 116.389 1.72945 -7.50224 0
M  V30 50861 C 115.659 0.406376 -7.57911 0
M  V30 50862 O 115.449 -0.0897726 -6.21935 0
M  V30 50863 C 114.259 0.438983 -8.18724 0
M  V30 50864 O 113.869 -0.825065 -8.71101 0
M  V30 50865 C 113.379 0.783689 -6.99524 0
M  V30 50866 C 114.089 0.0619086 -5.85867 0
M  V30 50867 N 114.039 0.78573 -4.56183 0
M  V30 50868 C 113.889 0.0292889 -3.41887 0
M  V30 50869 O 113.799 -1.18445 -3.4419 0
M  V30 50870 N 113.849 0.744061 -2.23964 0
M  V30 50871 C 113.939 2.10932 -2.10362 0
M  V30 50872 C 114.089 2.8202 -3.34994 0
M  V30 50873 C 114.139 2.15547 -4.52261 0
M  V30 50874 H 116.88 1.93379 -8.46595 0
M  V30 50875 H 117.149 1.68132 -6.70852 0
M  V30 50876 H 116.282 -0.289041 -8.15388 0
M  V30 50877 H 113.627 -0.926847 -5.72749 0
M  V30 50878 H 113.348 1.86973 -6.82036 0
M  V30 50879 H 112.356 0.403896 -7.13257 0
M  V30 50880 H 114.19 1.20585 -8.97435 0
M  V30 50881 H 114.261 2.71231 -5.45042 0
M  V30 50882 P 112.319 -1.17771 -8.83182 0
M  V30 50883 O 112.099 -2.07206 -9.98732 0
M  V30 50884 O 111.529 0.0743816 -8.81969 0
M  V30 50885 O 112.069 -1.97678 -7.474 0
M  V30 50886 C 113.009 -3.01133 -7.08783 0
M  V30 50887 C 112.279 -4.1203 -6.37546 0
M  V30 50888 O 112.069 -3.72887 -4.9796 0
M  V30 50889 C 110.879 -4.45085 -6.88694 0
M  V30 50890 O 110.489 -5.78836 -6.56315 0
M  V30 50891 C 109.999 -3.47817 -6.12078 0
M  V30 50892 C 110.709 -3.39414 -4.77697 0
M  V30 50893 N 110.659 -2.04615 -4.15333 0
M  V30 50894 C 110.509 -1.96929 -2.77162 0
M  V30 50895 O 110.419 -3.02017 -2.12006 0
M  V30 50896 N 110.459 -0.55485 -2.24237 0
M  V30 50897 C 110.559 0.367808 -2.9169 0
M  V30 50898 N 110.509 1.53426 -2.29427 0
M  V30 50899 C 110.709 0.319148 -4.33828 0
M  V30 50900 C 110.759 -0.920672 -4.90433 0
M  V30 50901 H 113.499 -3.41209 -7.98667 0
M  V30 50902 H 113.769 -2.5837 -6.41742 0
M  V30 50903 H 112.902 -5.02718 -6.42752 0
M  V30 50904 H 110.247 -4.11779 -4.09026 0
M  V30 50905 H 109.967 -2.49661 -6.61772 0
M  V30 50906 H 108.976 -3.86674 -6.00946 0
M  V30 50907 H 110.81 -4.29991 -7.97006 0
M  V30 50908 H 110.882 -1.00589 -5.98303 0
M  V30 50909 H 110.78 1.22639 -4.93799 0
M  V30 50910 H 110.392 1.56819 -1.27167 0
M  V30 50911 H 110.588 2.41062 -2.83063 0
M  V30 50912 P 108.939 -6.144 -6.45285 0
M  V30 50913 O 108.719 -7.54673 -6.86199 0
M  V30 50914 O 108.149 -5.12391 -7.179 0
M  V30 50915 O 108.689 -5.99158 -4.88404 0
M  V30 50916 C 109.629 -6.60062 -3.96313 0
M  V30 50917 C 108.899 -7.08259 -2.72856 0
M  V30 50918 O 108.689 -5.9427 -1.83651 0
M  V30 50919 C 107.499 -7.65087 -2.94749 0
M  V30 50920 O 107.109 -8.53963 -1.90717 0
M  V30 50921 C 106.619 -6.41069 -2.90698 0
M  V30 50922 C 107.329 -5.5528 -1.86931 0
M  V30 50923 N 107.279 -4.09575 -2.15696 0
M  V30 50924 C 107.129 -3.24249 -1.08435 0
M  V30 50925 O 107.039 -3.63946 0.0628747 0
M  V30 50926 N 107.089 -1.90009 -1.39973 0
M  V30 50927 C 107.179 -1.34884 -2.65614 0
M  V30 50928 O 107.129 -0.123716 -2.81728 0
M  V30 50929 C 107.329 -2.3145 -3.71736 0
M  V30 50930 C 107.439 -1.75913 -5.10438 0
M  V30 50931 C 107.379 -3.63518 -3.44754 0
M  V30 50932 H 110.12 -7.45402 -4.45526 0
M  V30 50933 H 110.389 -5.86062 -3.67208 0
M  V30 50934 H 109.522 -7.84412 -2.24479 0
M  V30 50935 H 106.867 -5.73358 -0.888409 0
M  V30 50936 H 106.588 -5.90877 -3.88583 0
M  V30 50937 H 105.596 -6.65867 -2.58821 0
M  V30 50938 H 107.43 -8.16248 -3.92006 0
M  V30 50939 H 107.501 -4.34551 -4.26383 0
M  V30 50940 H 106.471 -1.85471 -5.61775 0
M  V30 50941 H 108.208 -2.31364 -5.66257 0
M  V30 50942 H 107.72 -0.695936 -5.05229 0
M  V30 50943 H 106.984 -1.26277 -0.63625 0
M  V30 50944 P 105.559 -8.7635 -1.60911 0
M  V30 50945 O 105.339 -10.1388 -1.11561 0
M  V30 50946 O 104.769 -8.36503 -2.79617 0
M  V30 50947 O 105.309 -7.71906 -0.429565 0
M  V30 50948 C 106.249 -7.67148 0.673689 0
M  V30 50949 C 105.519 -7.33666 1.94851 0
M  V30 50950 O 105.309 -5.88816 2.00759 0
M  V30 50951 C 104.119 -7.92526 2.10483 0
M  V30 50952 O 103.729 -8.03063 3.47693 0
M  V30 50953 C 103.239 -6.89602 1.41652 0
M  V30 50954 C 103.949 -5.59201 1.75185 0
M  V30 50955 N 103.899 -4.58235 0.662552 0
M  V30 50956 C 103.749 -3.24451 1.01643 0
M  V30 50957 O 103.659 -2.94958 2.21722 0
M  V30 50958 N 103.699 -2.30408 -0.165238 0
M  V30 50959 C 103.799 -2.66048 -1.25118 0
M  V30 50960 N 103.749 -1.70787 -2.16813 0
M  V30 50961 C 103.949 -4.02732 -1.64413 0
M  V30 50962 C 103.999 -4.9488 -0.63991 0
M  V30 50963 H 106.739 -8.65017 0.777072 0
M  V30 50964 H 107.009 -6.90173 0.474152 0
M  V30 50965 H 106.142 -7.66642 2.79492 0
M  V30 50966 H 103.487 -5.16254 2.65229 0
M  V30 50967 H 103.207 -7.06532 0.329431 0
M  V30 50968 H 102.216 -6.91023 1.82047 0
M  V30 50969 H 104.05 -8.90873 1.62657 0
M  V30 50970 H 104.122 -6.00104 -0.892197 0
M  V30 50971 H 104.02 -4.31733 -2.69229 0
M  V30 50972 H 103.632 -0.724835 -1.8844 0
M  V30 50973 H 103.828 -1.94716 -3.16734 0
M  V30 50974 P 102.179 -8.03563 3.84925 0
M  V30 50975 O 101.959 -8.85821 5.0569 0
M  V30 50976 O 101.389 -8.41101 2.65469 0
M  V30 50977 O 101.929 -6.4965 4.18908 0
M  V30 50978 C 102.869 -5.80886 5.05289 0
M  V30 50979 C 102.139 -4.78366 5.89277 0
M  V30 50980 O 101.929 -3.58302 5.08433 0
M  V30 50981 C 100.739 -5.16748 6.36559 0
M  V30 50982 O 100.349 -4.45271 7.53232 0
M  V30 50983 C 99.8594 -4.74572 5.19863 0
M  V30 50984 C 100.569 -3.49373 4.70338 0
M  V30 50985 N 100.519 -3.31704 3.22876 0
M  V30 50986 C 100.369 -2.03326 2.74871 0
M  V30 50987 O 100.279 -1.06486 3.48076 0
M  V30 50988 N 100.329 -1.91838 1.37456 0
M  V30 50989 C 100.419 -2.94295 0.462035 0
M  V30 50990 C 100.569 -4.25064 1.05249 0
M  V30 50991 C 100.619 -4.40214 2.39192 0
M  V30 50992 H 103.36 -6.54063 5.71245 0
M  V30 50993 H 103.629 -5.30339 4.43905 0
M  V30 50994 H 102.762 -4.55889 6.76652 0
M  V30 50995 H 100.107 -2.6167 5.17842 0
M  V30 50996 H 99.8284 -5.52155 4.41878 0
M  V30 50997 H 98.8364 -4.51918 5.53297 0
M  V30 50998 H 100.67 -6.25055 6.55162 0
M  V30 50999 H 100.741 -5.39798 2.81523 0
M  V30 51000 P 98.7994 -4.23843 7.83734 0
M  V30 51001 O 98.5794 -4.19407 9.29784 0
M  V30 51002 O 98.0094 -5.24426 7.09156 0
M  V30 51003 O 98.5494 -2.7935 7.20758 0
M  V30 51004 C 99.4894 -1.7299 7.50419 0
M  V30 51005 C 98.7594 -0.406376 7.57911 0
M  V30 51006 O 98.5494 0.0897726 6.21935 0
M  V30 51007 C 97.3594 -0.447224 8.1878 0
M  V30 51008 O 96.9694 0.825065 8.71101 0
M  V30 51009 C 96.4794 -0.783801 6.99623 0
M  V30 51010 C 97.1894 -0.0619192 5.85967 0
M  V30 51011 N 97.1394 -0.7859 4.56281 0
M  V30 51012 H 99.9784 -1.93423 8.4679 0
M  V30 51013 H 100.25 -1.68181 6.71046 0
M  V30 51014 H 99.3824 0.289041 8.15388 0
M  V30 51015 P 95.4195 1.17771 8.83182 0
M  V30 51016 O 95.1995 2.07206 9.98732 0
M  V30 51017 O 94.6295 -0.0743816 8.81969 0
M  V30 51018 O 95.1695 1.97678 7.474 0
M  V30 51019 C 96.1095 3.01133 7.08783 0
M  V30 51020 C 95.3795 4.1203 6.37546 0
M  V30 51021 O 95.1695 3.72887 4.9796 0
M  V30 51022 C 93.9795 4.45085 6.88694 0
M  V30 51023 O 93.5895 5.78836 6.56315 0
M  V30 51024 C 93.0995 3.47817 6.12078 0
M  V30 51025 C 93.8095 3.39414 4.77697 0
M  V30 51026 N 93.7595 2.04615 4.15333 0
M  V30 51027 C 93.6095 1.96929 2.77162 0
M  V30 51028 O 93.5195 3.02017 2.12006 0
M  V30 51029 N 93.5595 0.55485 2.24237 0
M  V30 51030 C 93.6595 -0.367808 2.9169 0
M  V30 51031 N 93.6095 -1.53426 2.29427 0
M  V30 51032 C 93.8095 -0.319148 4.33828 0
M  V30 51033 C 93.8595 0.920672 4.90433 0
M  V30 51034 H 96.5995 3.41209 7.98667 0
M  V30 51035 H 96.8695 2.5837 6.41742 0
M  V30 51036 H 96.0025 5.02718 6.42752 0
M  V30 51037 H 93.3475 4.11779 4.09026 0
M  V30 51038 H 93.0675 2.49661 6.61772 0
M  V30 51039 H 92.0765 3.86674 6.00946 0
M  V30 51040 H 93.9105 4.29991 7.97006 0
M  V30 51041 H 93.9825 1.00589 5.98303 0
M  V30 51042 H 93.8805 -1.22639 4.93799 0
M  V30 51043 H 93.4925 -1.56819 1.27167 0
M  V30 51044 H 93.6885 -2.41062 2.83063 0
M  V30 51045 P 92.0395 6.144 6.45285 0
M  V30 51046 O 91.8195 7.54673 6.86199 0
M  V30 51047 O 91.2495 5.12391 7.179 0
M  V30 51048 O 91.7895 5.99158 4.88404 0
M  V30 51049 C 92.7295 6.60062 3.96313 0
M  V30 51050 C 91.9995 7.08259 2.72856 0
M  V30 51051 O 91.7895 5.9427 1.83651 0
M  V30 51052 C 90.5995 7.65087 2.94749 0
M  V30 51053 O 90.2095 8.53963 1.90717 0
M  V30 51054 C 89.7195 6.41069 2.90698 0
M  V30 51055 C 90.4295 5.5528 1.86931 0
M  V30 51056 N 90.3795 4.09575 2.15696 0
M  V30 51057 C 90.2295 3.24249 1.08435 0
M  V30 51058 O 90.1395 3.63946 -0.0628747 0
M  V30 51059 N 90.1895 1.90009 1.39973 0
M  V30 51060 C 90.2795 1.34884 2.65614 0
M  V30 51061 O 90.2295 0.123716 2.81728 0
M  V30 51062 C 90.4295 2.3145 3.71736 0
M  V30 51063 C 90.5395 1.75913 5.10438 0
M  V30 51064 C 90.4795 3.63518 3.44754 0
M  V30 51065 H 93.2205 7.45402 4.45526 0
M  V30 51066 H 93.4895 5.86062 3.67208 0
M  V30 51067 H 92.6225 7.84412 2.24479 0
M  V30 51068 H 89.9675 5.73358 0.888409 0
M  V30 51069 H 89.6885 5.90877 3.88583 0
M  V30 51070 H 88.6965 6.65867 2.58821 0
M  V30 51071 H 90.5305 8.16248 3.92006 0
M  V30 51072 H 90.6015 4.34551 4.26383 0
M  V30 51073 H 89.5715 1.85471 5.61775 0
M  V30 51074 H 91.3085 2.31364 5.66257 0
M  V30 51075 H 90.8205 0.695936 5.05229 0
M  V30 51076 H 90.0845 1.26277 0.63625 0
M  V30 51077 P 88.6595 8.7635 1.60911 0
M  V30 51078 O 88.4395 10.1388 1.11561 0
M  V30 51079 O 87.8695 8.36503 2.79617 0
M  V30 51080 O 88.4095 7.71806 0.42951 0
M  V30 51081 C 89.3495 7.67148 -0.673689 0
M  V30 51082 C 88.6195 7.33374 -1.95559 0
M  V30 51083 O 88.4095 5.88721 -2.00726 0
M  V30 51084 C 87.2195 7.92526 -2.10483 0
M  V30 51085 O 86.8295 8.02971 -3.47653 0
M  V30 51086 C 86.3395 6.89602 -1.41652 0
M  V30 51087 C 87.0495 5.59201 -1.75185 0
M  V30 51088 N 86.9995 4.58235 -0.662552 0
M  V30 51089 H 89.8385 8.65116 -0.777161 0
M  V30 51090 H 90.1105 6.90173 -0.474152 0
M  V30 51091 H 89.2425 7.66548 -2.79458 0
M  V30 51092 P 85.2795 8.03563 -3.84925 0
M  V30 51093 O 85.0595 8.85821 -5.0569 0
M  V30 51094 O 84.4895 8.41101 -2.65469 0
M  V30 51095 O 85.0295 6.4965 -4.18908 0
M  V30 51096 C 85.9695 5.80886 -5.05289 0
M  V30 51097 C 85.2395 4.78366 -5.89277 0
M  V30 51098 O 85.0295 3.58302 -5.08433 0
M  V30 51099 C 83.8395 5.16748 -6.36559 0
M  V30 51100 O 83.4495 4.45271 -7.53232 0
M  V30 51101 C 82.9595 4.74572 -5.19863 0
M  V30 51102 C 83.6695 3.49373 -4.70338 0
M  V30 51103 N 83.6195 3.31704 -3.22876 0
M  V30 51104 C 83.4695 2.03326 -2.74871 0
M  V30 51105 O 83.3795 1.06486 -3.48076 0
M  V30 51106 N 83.4295 1.91838 -1.37456 0
M  V30 51107 C 83.5195 2.94295 -0.462035 0
M  V30 51108 O 83.4695 2.71763 0.752928 0
M  V30 51109 C 83.6695 4.25064 -1.05249 0
M  V30 51110 C 83.7795 5.39815 -0.095697 0
M  V30 51111 C 83.7195 4.40214 -2.39192 0
M  V30 51112 H 86.4605 6.54063 -5.71245 0
M  V30 51113 H 86.7295 5.30339 -4.43905 0
M  V30 51114 H 85.8625 4.55889 -6.76652 0
M  V30 51115 H 83.2075 2.6167 -5.17842 0
M  V30 51116 H 82.9285 5.52155 -4.41878 0
M  V30 51117 H 81.9365 4.51918 -5.53297 0
M  V30 51118 H 83.7705 6.25055 -6.55162 0
M  V30 51119 H 83.8415 5.39798 -2.81523 0
M  V30 51120 H 82.8115 5.91593 -0.0279582 0
M  V30 51121 H 84.5485 6.10038 -0.450573 0
M  V30 51122 H 84.0605 5.02007 0.89937 0
M  V30 51123 H 83.3245 0.995326 -1.00435 0
M  V30 51124 P 81.8995 4.23843 -7.83734 0
M  V30 51125 O 81.6795 4.19407 -9.29784 0
M  V30 51126 O 81.1095 5.24426 -7.09156 0
M  V30 51127 O 81.6495 2.7935 -7.20758 0
M  V30 51128 C 82.5895 1.7299 -7.50419 0
M  V30 51129 C 81.8595 0.406376 -7.57911 0
M  V30 51130 O 81.6495 -0.0897726 -6.21935 0
M  V30 51131 C 80.4595 0.447224 -8.1878 0
M  V30 51132 O 80.0695 -0.825065 -8.71101 0
M  V30 51133 C 79.5795 0.783801 -6.99623 0
M  V30 51134 C 80.2895 0.0619192 -5.85967 0
M  V30 51135 N 80.2395 0.7859 -4.56281 0
M  V30 51136 H 83.0785 1.93423 -8.4679 0
M  V30 51137 H 83.3505 1.68181 -6.71046 0
M  V30 51138 H 82.4825 -0.289041 -8.15388 0
M  V30 51139 P 78.5196 -1.17771 -8.83182 0
M  V30 51140 O 78.2996 -2.07206 -9.98732 0
M  V30 51141 O 77.7296 0.0743816 -8.81969 0
M  V30 51142 O 78.2696 -1.97652 -7.47304 0
M  V30 51143 C 79.2096 -3.01133 -7.08783 0
M  V30 51144 C 78.4796 -4.12613 -6.37049 0
M  V30 51145 O 78.2696 -3.72827 -4.97879 0
M  V30 51146 C 77.0796 -4.45085 -6.88694 0
M  V30 51147 O 76.6896 -5.7877 -6.5624 0
M  V30 51148 C 76.1996 -3.47817 -6.12078 0
M  V30 51149 C 76.9096 -3.39414 -4.77697 0
M  V30 51150 N 76.8596 -2.04615 -4.15333 0
M  V30 51151 H 79.6986 -3.41248 -7.98759 0
M  V30 51152 H 79.9706 -2.5837 -6.41742 0
M  V30 51153 H 79.1026 -5.02657 -6.42673 0
M  V30 51154 P 75.1396 -6.144 -6.45285 0
M  V30 51155 O 74.9196 -7.54673 -6.86199 0
M  V30 51156 O 74.3496 -5.12391 -7.179 0
M  V30 51157 O 74.8896 -5.99236 -4.88467 0
M  V30 51158 C 75.8296 -6.60234 -3.96415 0
M  V30 51159 C 75.0996 -7.08079 -2.736 0
M  V30 51160 O 74.8896 -5.94365 -1.8368 0
M  V30 51161 C 73.6996 -7.64886 -2.9555 0
M  V30 51162 O 73.3096 -8.5406 -1.90739 0
M  V30 51163 C 72.8196 -6.4116 -2.90739 0
M  V30 51164 C 73.5296 -5.55375 -1.86963 0
M  V30 51165 N 73.4796 -4.09664 -2.15742 0
M  V30 51166 C 73.3296 -3.22231 -1.08477 0
M  V30 51167 O 73.2396 -3.68951 0.0600489 0
M  V30 51168 N 73.2796 -1.76692 -1.48799 0
M  V30 51169 C 73.3796 -1.41695 -2.57602 0
M  V30 51170 N 73.3296 -0.107296 -2.75791 0
M  V30 51171 C 73.5296 -2.29178 -3.69733 0
M  V30 51172 C 73.5796 -3.62753 -3.42653 0
M  V30 51173 H 76.3196 -7.45488 -4.45578 0
M  V30 51174 H 76.5896 -5.86232 -3.67314 0
M  V30 51175 H 75.7226 -7.84508 -2.24507 0
M  V30 51176 H 73.0676 -5.73556 -0.888715 0
M  V30 51177 H 72.7876 -5.9096 -3.88638 0
M  V30 51178 H 71.7966 -6.66053 -2.58894 0
M  V30 51179 H 73.6306 -8.16339 -3.92049 0
M  V30 51180 H 73.7026 -4.33052 -4.24913 0
M  V30 51181 H 73.6006 -1.9103 -4.71577 0
M  V30 51182 H 73.2126 0.521221 -1.95056 0
M  V30 51183 H 73.4086 0.286429 -3.70695 0
M  V30 51184 P 71.7596 -8.7635 -1.60911 0
M  V30 51185 O 71.5396 -10.1388 -1.11561 0
M  V30 51186 O 70.9696 -8.36503 -2.79617 0
M  V30 51187 O 71.5096 -7.71806 -0.42951 0
M  V30 51188 C 72.4496 -7.67148 0.673689 0
M  V30 51189 C 71.7196 -7.33374 1.95559 0
M  V30 51190 O 71.5096 -5.88721 2.00726 0
M  V30 51191 C 70.3196 -7.92526 2.10483 0
M  V30 51192 O 69.9296 -8.02971 3.47653 0
M  V30 51193 C 69.4396 -6.89602 1.41652 0
M  V30 51194 C 70.1496 -5.59201 1.75185 0
M  V30 51195 N 70.0996 -4.58301 0.657969 0
M  V30 51196 H 72.9386 -8.65116 0.777161 0
M  V30 51197 H 73.2106 -6.9022 0.46725 0
M  V30 51198 H 72.3426 -7.66548 2.79458 0
M  V30 51199 H 69.6876 -5.16165 2.65183 0
M  V30 51200 H 69.4076 -7.06433 0.329384 0
M  V30 51201 H 68.4166 -6.90926 1.82021 0
M  V30 51202 H 70.2506 -8.90873 1.62657 0
M  V30 51203 P 68.3796 -8.03563 3.84925 0
M  V30 51204 O 68.1596 -8.85821 5.0569 0
M  V30 51205 O 67.5896 -8.41101 2.65469 0
M  V30 51206 O 68.1296 -6.4965 4.18908 0
M  V30 51207 C 69.0696 -5.80886 5.05289 0
M  V30 51208 C 68.3396 -4.78366 5.89277 0
M  V30 51209 O 68.1296 -3.58302 5.08433 0
M  V30 51210 C 66.9396 -5.16748 6.36559 0
M  V30 51211 O 66.5496 -4.45271 7.53232 0
M  V30 51212 C 66.0596 -4.74572 5.19863 0
M  V30 51213 C 66.7696 -3.49373 4.70338 0
M  V30 51214 N 66.7196 -3.31704 3.22876 0
M  V30 51215 C 66.5696 -2.03326 2.74871 0
M  V30 51216 O 66.4796 -1.06486 3.48076 0
M  V30 51217 N 66.5296 -1.91838 1.37456 0
M  V30 51218 C 66.6196 -2.94295 0.462035 0
M  V30 51219 O 66.5696 -2.71763 -0.752928 0
M  V30 51220 C 66.7696 -4.25064 1.05249 0
M  V30 51221 C 66.8796 -5.39815 0.095697 0
M  V30 51222 C 66.8196 -4.40214 2.39192 0
M  V30 51223 H 69.5606 -6.54063 5.71245 0
M  V30 51224 H 69.8296 -5.30339 4.43905 0
M  V30 51225 H 68.9626 -4.55889 6.76652 0
M  V30 51226 H 66.3076 -2.6167 5.17842 0
M  V30 51227 H 66.0286 -5.52155 4.41878 0
M  V30 51228 H 65.0366 -4.51918 5.53297 0
M  V30 51229 H 66.8706 -6.25055 6.55162 0
M  V30 51230 H 66.9416 -5.39798 2.81523 0
M  V30 51231 H 65.9116 -5.91593 0.0279582 0
M  V30 51232 H 67.6486 -6.10038 0.450573 0
M  V30 51233 H 67.1606 -5.02007 -0.89937 0
M  V30 51234 H 66.4246 -0.995326 1.00435 0
M  V30 51235 P 64.9996 -4.23843 7.83734 0
M  V30 51236 O 64.7796 -4.19407 9.29784 0
M  V30 51237 O 64.2096 -5.24426 7.09156 0
M  V30 51238 O 64.7496 -2.7935 7.20758 0
M  V30 51239 C 65.6896 -1.72945 7.50224 0
M  V30 51240 C 64.9596 -0.406376 7.57911 0
M  V30 51241 O 64.7496 0.0897726 6.21935 0
M  V30 51242 C 63.5596 -0.438983 8.18724 0
M  V30 51243 O 63.1696 0.825065 8.71101 0
M  V30 51244 C 62.6796 -0.783689 6.99524 0
M  V30 51245 C 63.3896 -0.0619086 5.85867 0
M  V30 51246 N 63.3396 -0.78573 4.56183 0
M  V30 51247 C 63.1896 -0.0292889 3.41887 0
M  V30 51248 O 63.0996 1.18445 3.4419 0
M  V30 51249 N 63.1496 -0.744061 2.23964 0
M  V30 51250 C 63.2396 -2.10932 2.10362 0
M  V30 51251 O 63.1896 -2.64117 0.98825 0
M  V30 51252 C 63.3896 -2.8202 3.34994 0
M  V30 51253 C 63.4996 -4.31095 3.25037 0
M  V30 51254 C 63.4396 -2.15547 4.52261 0
M  V30 51255 H 66.1806 -1.93379 8.46595 0
M  V30 51256 H 66.4496 -1.68132 6.70852 0
M  V30 51257 H 65.5826 0.289041 8.15388 0
M  V30 51258 H 62.9276 0.926847 5.72749 0
M  V30 51259 H 62.6486 -1.86973 6.82036 0
M  V30 51260 H 61.6566 -0.403896 7.13257 0
M  V30 51261 H 63.4906 -1.20585 8.97435 0
M  V30 51262 H 63.5616 -2.71231 5.45042 0
M  V30 51263 H 62.5316 -4.76966 3.49992 0
M  V30 51264 H 64.2686 -4.67047 3.95024 0
M  V30 51265 H 63.7806 -4.58996 2.22312 0
M  V30 51266 H 63.0446 -0.214893 1.39758 0
M  V30 51267 P 61.6197 1.17771 8.83182 0
M  V30 51268 O 61.3997 2.07206 9.98732 0
M  V30 51269 O 60.8297 -0.0743816 8.81969 0
M  V30 51270 O 61.3697 1.97652 7.47304 0
M  V30 51271 C 62.3097 3.01055 7.08599 0
M  V30 51272 C 61.5797 4.12613 6.37049 0
M  V30 51273 O 61.3697 3.72827 4.97879 0
M  V30 51274 C 60.1797 4.45719 6.88164 0
M  V30 51275 O 59.7897 5.7877 6.5624 0
M  V30 51276 C 59.2997 3.47768 6.11991 0
M  V30 51277 C 60.0097 3.39356 4.77615 0
M  V30 51278 N 59.9597 2.04571 4.15244 0
M  V30 51279 C 59.8097 1.98587 2.78314 0
M  V30 51280 O 59.7197 2.98134 2.08835 0
M  V30 51281 N 59.7697 0.714467 2.24925 0
M  V30 51282 C 59.8597 -0.470001 2.94169 0
M  V30 51283 C 60.0097 -0.312541 4.36783 0
M  V30 51284 C 60.0597 0.914512 4.92583 0
M  V30 51285 H 62.8007 3.41169 7.98575 0
M  V30 51286 H 63.0697 2.58295 6.41556 0
M  V30 51287 H 62.2027 5.02657 6.42673 0
M  V30 51288 H 59.5477 4.11637 4.08885 0
M  V30 51289 H 59.2687 2.49626 6.61679 0
M  V30 51290 H 58.2767 3.86566 6.00778 0
M  V30 51291 H 60.1107 4.29943 7.96918 0
M  V30 51292 H 60.1817 1.00937 6.00374 0
M  V30 51293 P 58.2397 6.144 6.45285 0
M  V30 51294 O 58.0197 7.54673 6.86199 0
M  V30 51295 O 57.4497 5.12391 7.179 0
M  V30 51296 O 57.9897 5.99158 4.88404 0
M  V30 51297 C 58.9297 6.60062 3.96313 0
M  V30 51298 C 58.1997 7.08259 2.72856 0
M  V30 51299 O 57.9897 5.9427 1.83651 0
M  V30 51300 C 56.7997 7.65087 2.94749 0
M  V30 51301 O 56.4097 8.53963 1.90717 0
M  V30 51302 C 55.9197 6.41069 2.90698 0
M  V30 51303 C 56.6297 5.5528 1.86931 0
M  V30 51304 N 56.5797 4.09575 2.15696 0
M  V30 51305 C 56.4297 3.24249 1.08435 0
M  V30 51306 O 56.3397 3.63946 -0.0628747 0
M  V30 51307 N 56.3897 1.90009 1.39973 0
M  V30 51308 C 56.4797 1.34884 2.65614 0
M  V30 51309 O 56.4297 0.123716 2.81728 0
M  V30 51310 C 56.6297 2.3145 3.71736 0
M  V30 51311 C 56.7397 1.75913 5.10438 0
M  V30 51312 C 56.6797 3.63518 3.44754 0
M  V30 51313 H 59.4207 7.45402 4.45526 0
M  V30 51314 H 59.6897 5.86062 3.67208 0
M  V30 51315 H 58.8227 7.84412 2.24479 0
M  V30 51316 H 56.1677 5.73358 0.888409 0
M  V30 51317 H 55.8887 5.90877 3.88583 0
M  V30 51318 H 54.8967 6.65867 2.58821 0
M  V30 51319 H 56.7307 8.16248 3.92006 0
M  V30 51320 H 56.8017 4.34551 4.26383 0
M  V30 51321 H 55.7717 1.85471 5.61775 0
M  V30 51322 H 57.5087 2.31364 5.66257 0
M  V30 51323 H 57.0207 0.695936 5.05229 0
M  V30 51324 H 56.2847 1.26277 0.63625 0
M  V30 51325 P 54.8597 8.7635 1.60911 0
M  V30 51326 O 54.6397 10.1388 1.11561 0
M  V30 51327 O 54.0697 8.36503 2.79617 0
M  V30 51328 O 54.6097 7.71806 0.42951 0
M  V30 51329 C 55.5497 7.66948 -0.673514 0
M  V30 51330 C 54.8197 7.33374 -1.95559 0
M  V30 51331 O 54.6097 5.88721 -2.00726 0
M  V30 51332 C 53.4197 7.92218 -2.1125 0
M  V30 51333 O 53.0297 8.02971 -3.47653 0
M  V30 51334 C 52.5397 6.89504 -1.41631 0
M  V30 51335 C 53.2497 5.59106 -1.75155 0
M  V30 51336 N 53.1997 4.58136 -0.662409 0
M  V30 51337 C 53.0497 3.26059 -1.02863 0
M  V30 51338 O 52.9597 2.90743 -2.19009 0
M  V30 51339 N 53.0097 2.35995 0.0155585 0
M  V30 51340 C 53.0997 2.65248 1.35603 0
M  V30 51341 O 53.0497 1.75605 2.20651 0
M  V30 51342 C 53.2497 4.05747 1.64698 0
M  V30 51343 C 53.3597 4.42345 3.09553 0
M  V30 51344 C 53.2997 4.96734 0.652411 0
M  V30 51345 H 56.0407 8.64917 -0.776982 0
M  V30 51346 H 56.3097 6.89974 -0.474015 0
M  V30 51347 H 55.4427 7.66548 -2.79458 0
M  V30 51348 H 52.7877 5.16076 -2.65138 0
M  V30 51349 H 52.5087 7.06433 -0.329384 0
M  V30 51350 H 51.5167 6.90829 -1.81996 0
M  V30 51351 H 53.3507 8.90774 -1.62639 0
M  V30 51352 H 53.4217 6.02181 0.895285 0
M  V30 51353 H 52.3917 4.80252 3.45468 0
M  V30 51354 H 54.1287 5.20015 3.22119 0
M  V30 51355 H 53.6407 3.53269 3.67833 0
M  V30 51356 H 52.9047 1.39558 -0.227499 0
M  V30 51357 P 51.4797 8.03563 -3.84925 0
M  V30 51358 O 51.2597 8.85821 -5.0569 0
M  V30 51359 O 50.6897 8.41101 -2.65469 0
M  V30 51360 O 51.2297 6.4965 -4.18908 0
M  V30 51361 C 52.1697 5.81037 -5.05421 0
M  V30 51362 C 51.4397 4.78366 -5.89277 0
M  V30 51363 O 51.2297 3.58302 -5.08433 0
M  V30 51364 C 50.0397 5.17448 -6.36119 0
M  V30 51365 O 49.6497 4.45271 -7.53232 0
M  V30 51366 C 49.1597 4.74639 -5.19936 0
M  V30 51367 C 49.8697 3.49432 -4.70418 0
M  V30 51368 N 49.8197 3.32099 -3.22613 0
M  V30 51369 H 52.6587 6.54213 -5.71376 0
M  V30 51370 H 52.9307 5.30936 -4.43503 0
M  V30 51371 H 52.0627 4.55889 -6.76652 0
M  V30 51372 H 49.4077 2.61715 -5.17932 0
M  V30 51373 H 49.1277 5.52155 -4.41878 0
M  V30 51374 H 48.1367 4.51981 -5.53374 0
M  V30 51375 H 49.9707 6.25124 -6.55234 0
M  V30 51376 P 48.0997 4.23843 -7.83734 0
M  V30 51377 O 47.8797 4.19407 -9.29784 0
M  V30 51378 O 47.3097 5.24426 -7.09156 0
M  V30 51379 O 47.8497 2.7935 -7.20758 0
M  V30 51380 C 48.7897 1.7299 -7.50419 0
M  V30 51381 C 48.0597 0.406376 -7.57911 0
M  V30 51382 O 47.8497 -0.0897726 -6.21935 0
M  V30 51383 C 46.6597 0.447224 -8.1878 0
M  V30 51384 O 46.2697 -0.825065 -8.71101 0
M  V30 51385 C 45.7797 0.783801 -6.99623 0
M  V30 51386 C 46.4897 0.0619192 -5.85967 0
M  V30 51387 N 46.4397 0.790462 -4.56202 0
M  V30 51388 H 49.2787 1.93423 -8.4679 0
M  V30 51389 H 49.5507 1.68852 -6.70877 0
M  V30 51390 H 48.6827 -0.289041 -8.15388 0
M  V30 51391 H 46.0277 -0.927006 -5.72848 0
M  V30 51392 H 45.7477 1.86973 -6.82036 0
M  V30 51393 H 44.7567 0.403953 -7.13357 0
M  V30 51394 H 46.5907 1.20599 -8.97534 0
M  V30 51395 P 44.7198 -1.17771 -8.83182 0
M  V30 51396 O 44.4998 -2.07206 -9.98732 0
M  V30 51397 O 43.9298 0.0743816 -8.81969 0
M  V30 51398 O 44.4698 -1.97678 -7.474 0
M  V30 51399 C 45.4098 -3.01133 -7.08783 0
M  V30 51400 C 44.6798 -4.1203 -6.37546 0
M  V30 51401 O 44.4698 -3.72887 -4.9796 0
M  V30 51402 C 43.2798 -4.45085 -6.88694 0
M  V30 51403 O 42.8898 -5.78836 -6.56315 0
M  V30 51404 C 42.3998 -3.47817 -6.12078 0
M  V30 51405 C 43.1098 -3.39414 -4.77697 0
M  V30 51406 N 43.0598 -2.04615 -4.15333 0
M  V30 51407 C 42.9098 -1.96929 -2.77162 0
M  V30 51408 O 42.8198 -3.02017 -2.12006 0
M  V30 51409 N 42.8598 -0.55485 -2.24237 0
M  V30 51410 C 42.9598 0.367808 -2.9169 0
M  V30 51411 N 42.9098 1.53426 -2.29427 0
M  V30 51412 C 43.1098 0.319148 -4.33828 0
M  V30 51413 C 43.1598 -0.920672 -4.90433 0
M  V30 51414 H 45.8998 -3.41209 -7.98667 0
M  V30 51415 H 46.1698 -2.5837 -6.41742 0
M  V30 51416 H 45.3028 -5.02718 -6.42752 0
M  V30 51417 H 42.6478 -4.11779 -4.09026 0
M  V30 51418 H 42.3678 -2.49661 -6.61772 0
M  V30 51419 H 41.3768 -3.86674 -6.00946 0
M  V30 51420 H 43.2108 -4.29991 -7.97006 0
M  V30 51421 H 43.2828 -1.00589 -5.98303 0
M  V30 51422 H 43.1808 1.22639 -4.93799 0
M  V30 51423 H 42.7928 1.56819 -1.27167 0
M  V30 51424 H 42.9888 2.41062 -2.83063 0
M  V30 51425 P 41.3398 -6.144 -6.45285 0
M  V30 51426 O 41.1198 -7.54673 -6.86199 0
M  V30 51427 O 40.5498 -5.12391 -7.179 0
M  V30 51428 O 41.0898 -5.99236 -4.88467 0
M  V30 51429 C 42.0298 -6.60234 -3.96415 0
M  V30 51430 C 41.2998 -7.08079 -2.736 0
M  V30 51431 O 41.0898 -5.94365 -1.8368 0
M  V30 51432 C 39.8998 -7.64886 -2.9555 0
M  V30 51433 O 39.5098 -8.5406 -1.90739 0
M  V30 51434 C 39.0198 -6.4116 -2.90739 0
M  V30 51435 C 39.7298 -5.55375 -1.86963 0
M  V30 51436 N 39.6798 -4.09664 -2.15742 0
M  V30 51437 C 39.5298 -3.22231 -1.08477 0
M  V30 51438 O 39.4398 -3.68951 0.0600489 0
M  V30 51439 N 39.4798 -1.76692 -1.48799 0
M  V30 51440 C 39.5798 -1.41695 -2.57602 0
M  V30 51441 N 39.5298 -0.107296 -2.75791 0
M  V30 51442 C 39.7298 -2.29178 -3.69733 0
M  V30 51443 C 39.7798 -3.62753 -3.42653 0
M  V30 51444 H 42.5198 -7.45488 -4.45578 0
M  V30 51445 H 42.7898 -5.86232 -3.67314 0
M  V30 51446 H 41.9228 -7.84508 -2.24507 0
M  V30 51447 H 39.2678 -5.73556 -0.888715 0
M  V30 51448 H 38.9878 -5.9096 -3.88638 0
M  V30 51449 H 37.9968 -6.66053 -2.58894 0
M  V30 51450 H 39.8308 -8.16339 -3.92049 0
M  V30 51451 H 39.9028 -4.33052 -4.24913 0
M  V30 51452 H 39.8008 -1.9103 -4.71577 0
M  V30 51453 H 39.4128 0.521221 -1.95056 0
M  V30 51454 H 39.6088 0.286429 -3.70695 0
M  V30 51455 P 37.9598 -8.7635 -1.60911 0
M  V30 51456 O 37.7398 -10.1388 -1.11561 0
M  V30 51457 O 37.1698 -8.36503 -2.79617 0
M  V30 51458 O 37.7098 -7.71806 -0.42951 0
M  V30 51459 C 38.6498 -7.67148 0.673689 0
M  V30 51460 C 37.9198 -7.33374 1.95559 0
M  V30 51461 O 37.7098 -5.88721 2.00726 0
M  V30 51462 C 36.5198 -7.92526 2.10483 0
M  V30 51463 O 36.1298 -8.02971 3.47653 0
M  V30 51464 C 35.6398 -6.89602 1.41652 0
M  V30 51465 C 36.3498 -5.59201 1.75185 0
M  V30 51466 N 36.2998 -4.58235 0.662552 0
M  V30 51467 H 39.1388 -8.65116 0.777161 0
M  V30 51468 H 39.4108 -6.90173 0.474152 0
M  V30 51469 H 38.5428 -7.66548 2.79458 0
M  V30 51470 P 34.5798 -8.03563 3.84925 0
M  V30 51471 O 34.3598 -8.85821 5.0569 0
M  V30 51472 O 33.7898 -8.41101 2.65469 0
M  V30 51473 O 34.3298 -6.4965 4.18908 0
M  V30 51474 C 35.2698 -5.81037 5.05421 0
M  V30 51475 C 34.5398 -4.78366 5.89277 0
M  V30 51476 O 34.3298 -3.58302 5.08433 0
M  V30 51477 C 33.1398 -5.17448 6.36119 0
M  V30 51478 O 32.7498 -4.45271 7.53232 0
M  V30 51479 C 32.2598 -4.74639 5.19936 0
M  V30 51480 C 32.9698 -3.49432 4.70418 0
M  V30 51481 N 32.9198 -3.32099 3.22613 0
M  V30 51482 H 35.7588 -6.54213 5.71376 0
M  V30 51483 H 36.0308 -5.30936 4.43503 0
M  V30 51484 H 35.1628 -4.55889 6.76652 0
M  V30 51485 H 32.5078 -2.61715 5.17932 0
M  V30 51486 H 32.2278 -5.52155 4.41878 0
M  V30 51487 H 31.2368 -4.51981 5.53374 0
M  V30 51488 H 33.0708 -6.25124 6.55234 0
M  V30 51489 P 31.1998 -4.23843 7.83734 0
M  V30 51490 O 30.9798 -4.19407 9.29784 0
M  V30 51491 O 30.4098 -5.24426 7.09156 0
M  V30 51492 O 30.9498 -2.7935 7.20758 0
M  V30 51493 C 31.8898 -1.7299 7.50419 0
M  V30 51494 C 31.1598 -0.406376 7.57911 0
M  V30 51495 O 30.9498 0.0897726 6.21935 0
M  V30 51496 C 29.7598 -0.447224 8.1878 0
M  V30 51497 O 29.3698 0.825065 8.71101 0
M  V30 51498 C 28.8798 -0.783801 6.99623 0
M  V30 51499 C 29.5898 -0.0619192 5.85967 0
M  V30 51500 N 29.5398 -0.7859 4.56281 0
M  V30 51501 H 32.3788 -1.93423 8.4679 0
M  V30 51502 H 32.6508 -1.68181 6.71046 0
M  V30 51503 H 31.7828 0.289041 8.15388 0
M  V30 51504 P 27.8199 1.17771 8.83182 0
M  V30 51505 O 27.5999 2.07206 9.98732 0
M  V30 51506 O 27.0299 -0.0743816 8.81969 0
M  V30 51507 O 27.5699 1.97652 7.47304 0
M  V30 51508 C 28.5099 3.01133 7.08783 0
M  V30 51509 C 27.7799 4.12613 6.37049 0
M  V30 51510 O 27.5699 3.72827 4.97879 0
M  V30 51511 C 26.3799 4.45085 6.88694 0
M  V30 51512 O 25.9899 5.7877 6.5624 0
M  V30 51513 C 25.4999 3.47817 6.12078 0
M  V30 51514 C 26.2099 3.39414 4.77697 0
M  V30 51515 N 26.1599 2.04615 4.15333 0
M  V30 51516 H 28.9989 3.41248 7.98759 0
M  V30 51517 H 29.2709 2.5837 6.41742 0
M  V30 51518 H 28.4029 5.02657 6.42673 0
M  V30 51519 P 24.4399 6.144 6.45285 0
M  V30 51520 O 24.2199 7.54673 6.86199 0
M  V30 51521 O 23.6499 5.12391 7.179 0
M  V30 51522 O 24.1899 5.99236 4.88467 0
M  V30 51523 C 25.1299 6.60234 3.96415 0
M  V30 51524 C 24.3999 7.08079 2.736 0
M  V30 51525 O 24.1899 5.94365 1.8368 0
M  V30 51526 C 22.9999 7.64886 2.9555 0
M  V30 51527 O 22.6099 8.5406 1.90739 0
M  V30 51528 C 22.1199 6.4116 2.90739 0
M  V30 51529 C 22.8299 5.55375 1.86963 0
M  V30 51530 N 22.7799 4.09664 2.15742 0
M  V30 51531 C 22.6299 3.22231 1.08477 0
M  V30 51532 O 22.5399 3.68951 -0.0600489 0
M  V30 51533 N 22.5799 1.76692 1.48799 0
M  V30 51534 C 22.6799 1.41695 2.57602 0
M  V30 51535 N 22.6299 0.107296 2.75791 0
M  V30 51536 C 22.8299 2.29178 3.69733 0
M  V30 51537 C 22.8799 3.62753 3.42653 0
M  V30 51538 H 25.6199 7.45488 4.45578 0
M  V30 51539 H 25.8899 5.86232 3.67314 0
M  V30 51540 H 25.0229 7.84508 2.24507 0
M  V30 51541 H 22.3679 5.73556 0.888715 0
M  V30 51542 H 22.0879 5.9096 3.88638 0
M  V30 51543 H 21.0969 6.66053 2.58894 0
M  V30 51544 H 22.9309 8.16339 3.92049 0
M  V30 51545 H 23.0029 4.33052 4.24913 0
M  V30 51546 H 22.9009 1.9103 4.71577 0
M  V30 51547 H 22.5129 -0.521221 1.95056 0
M  V30 51548 H 22.7089 -0.286429 3.70695 0
M  V30 51549 P 21.0599 8.7635 1.60911 0
M  V30 51550 O 20.8399 10.1388 1.11561 0
M  V30 51551 O 20.2699 8.36503 2.79617 0
M  V30 51552 O 20.8099 7.71906 0.429565 0
M  V30 51553 C 21.7499 7.67148 -0.673689 0
M  V30 51554 C 21.0199 7.33666 -1.94851 0
M  V30 51555 O 20.8099 5.88816 -2.00759 0
M  V30 51556 C 19.6199 7.92526 -2.10483 0
M  V30 51557 O 19.2299 8.03063 -3.47693 0
M  V30 51558 C 18.7399 6.89602 -1.41652 0
M  V30 51559 C 19.4499 5.59201 -1.75185 0
M  V30 51560 N 19.3999 4.58235 -0.662552 0
M  V30 51561 C 19.2499 3.24451 -1.01643 0
M  V30 51562 O 19.1599 2.94958 -2.21722 0
M  V30 51563 N 19.1999 2.30408 0.165238 0
M  V30 51564 C 19.2999 2.66048 1.25118 0
M  V30 51565 N 19.2499 1.70787 2.16813 0
M  V30 51566 C 19.4499 4.02732 1.64413 0
M  V30 51567 C 19.4999 4.9488 0.63991 0
M  V30 51568 H 22.2399 8.65017 -0.777072 0
M  V30 51569 H 22.5099 6.90173 -0.474152 0
M  V30 51570 H 21.6429 7.66642 -2.79492 0
M  V30 51571 H 18.9879 5.16254 -2.65229 0
M  V30 51572 H 18.7079 7.06532 -0.329431 0
M  V30 51573 H 17.7169 6.91023 -1.82047 0
M  V30 51574 H 19.5509 8.90873 -1.62657 0
M  V30 51575 H 19.6229 6.00104 0.892197 0
M  V30 51576 H 19.5209 4.31733 2.69229 0
M  V30 51577 H 19.1329 0.724835 1.8844 0
M  V30 51578 H 19.3289 1.94716 3.16734 0
M  V30 51579 P 17.6799 8.03563 -3.84925 0
M  V30 51580 O 17.4599 8.85821 -5.0569 0
M  V30 51581 O 16.8899 8.41101 -2.65469 0
M  V30 51582 O 17.4299 6.49734 -4.18962 0
M  V30 51583 C 18.3699 5.81037 -5.05421 0
M  V30 51584 C 17.6399 4.79018 -5.88876 0
M  V30 51585 O 17.4299 3.58359 -5.08515 0
M  V30 51586 C 16.2399 5.17448 -6.36119 0
M  V30 51587 O 15.8499 4.45322 -7.53318 0
M  V30 51588 C 15.3599 4.74639 -5.19936 0
M  V30 51589 C 16.0699 3.49432 -4.70418 0
M  V30 51590 N 16.0199 3.31776 -3.22945 0
M  V30 51591 C 15.8699 2.02742 -2.72939 0
M  V30 51592 O 15.7799 1.08301 -3.52749 0
M  V30 51593 N 15.8199 1.96117 -1.22063 0
M  V30 51594 C 15.9199 2.8878 -0.551566 0
M  V30 51595 N 15.8699 2.65609 0.750198 0
M  V30 51596 C 16.0699 4.22457 -1.03707 0
M  V30 51597 C 16.1199 4.37979 -2.39113 0
M  V30 51598 H 18.8599 6.54138 -5.7131 0
M  V30 51599 H 19.1299 5.30492 -4.44033 0
M  V30 51600 H 18.2629 4.55945 -6.76735 0
M  V30 51601 H 15.6079 2.6176 -5.18021 0
M  V30 51602 H 15.3279 5.52233 -4.41941 0
M  V30 51603 H 14.3369 4.52045 -5.53452 0
M  V30 51604 H 16.1709 6.25124 -6.55234 0
M  V30 51605 H 16.2429 5.37936 -2.80552 0
M  V30 51606 H 16.1409 5.07528 -0.359553 0
M  V30 51607 H 15.7529 1.69403 1.09847 0
M  V30 51608 H 15.9489 3.43701 1.41792 0
M  V30 51609 P 14.2999 4.23843 -7.83734 0
M  V30 51610 O 14.0799 4.19407 -9.29784 0
M  V30 51611 O 13.5099 5.24426 -7.09156 0
M  V30 51612 O 14.0499 2.79386 -7.20852 0
M  V30 51613 C 14.9899 1.7299 -7.50419 0
M  V30 51614 C 14.2599 0.41401 -7.5797 0
M  V30 51615 O 14.0499 -0.089787 -6.22035 0
M  V30 51616 C 12.8599 0.447224 -8.1878 0
M  V30 51617 O 12.4699 -0.825159 -8.71201 0
M  V30 51618 C 11.9799 0.783801 -6.99623 0
M  V30 51619 C 12.6899 0.0619192 -5.85967 0
M  V30 51620 N 12.6399 0.7859 -4.56281 0
M  V30 51621 C 12.4899 0.0359258 -3.39981 0
M  V30 51622 O 12.3999 -1.19723 -3.49038 0
M  V30 51623 N 12.4399 0.869151 -2.14025 0
M  V30 51624 C 12.5399 2.01207 -2.14363 0
M  V30 51625 N 12.4899 2.58978 -0.954287 0
M  V30 51626 C 12.6899 2.80817 -3.32215 0
M  V30 51627 C 12.7399 2.13785 -4.50884 0
M  V30 51628 H 15.4799 1.93401 -8.46693 0
M  V30 51629 H 15.7499 1.68181 -6.71046 0
M  V30 51630 H 14.8829 -0.289076 -8.15488 0
M  V30 51631 H 12.2279 -0.927166 -5.72947 0
M  V30 51632 H 11.9479 1.87 -6.82132 0
M  V30 51633 H 10.9569 0.404009 -7.13457 0
M  V30 51634 H 12.7909 1.20599 -8.97534 0
M  V30 51635 H 12.8629 2.70295 -5.43162 0
M  V30 51636 H 12.7609 3.89465 -3.27406 0
M  V30 51637 H 12.3729 2.01616 -0.107046 0
M  V30 51638 H 12.5689 3.61403 -0.873101 0
M  V30 51639 P 10.92 -1.17771 -8.83182 0
M  V30 51640 O 10.7 -2.07206 -9.98732 0
M  V30 51641 O 10.13 0.0743816 -8.81969 0
M  V30 51642 O 10.67 -1.97652 -7.47304 0
M  V30 51643 C 11.61 -3.01133 -7.08783 0
M  V30 51644 C 10.88 -4.12613 -6.37049 0
M  V30 51645 O 10.67 -3.72827 -4.97879 0
M  V30 51646 C 9.47996 -4.45085 -6.88694 0
M  V30 51647 O 9.08996 -5.7877 -6.5624 0
M  V30 51648 C 8.59996 -3.47817 -6.12078 0
M  V30 51649 C 9.30996 -3.39414 -4.77697 0
M  V30 51650 N 9.25996 -2.04199 -4.15538 0
M  V30 51651 H 12.099 -3.41248 -7.98759 0
M  V30 51652 H 12.371 -2.57728 -6.42 0
M  V30 51653 H 11.503 -5.02657 -6.42673 0
M  V30 51654 H 8.84796 -4.11708 -4.08956 0
M  V30 51655 H 8.56796 -2.49626 -6.61679 0
M  V30 51656 H 7.57696 -3.8662 -6.00862 0
M  V30 51657 H 9.41096 -4.29991 -7.97006 0
M  V30 51658 P 7.53998 -6.144 -6.45285 0
M  V30 51659 O 7.31998 -7.54673 -6.86199 0
M  V30 51660 O 6.74998 -5.12391 -7.179 0
M  V30 51661 O 7.28998 -5.99158 -4.88404 0
M  V30 51662 C 8.22998 -6.60234 -3.96415 0
M  V30 51663 C 7.49998 -7.08259 -2.72856 0
M  V30 51664 O 7.28998 -5.9427 -1.83651 0
M  V30 51665 C 6.09998 -7.64886 -2.9555 0
M  V30 51666 O 5.70998 -8.53963 -1.90717 0
M  V30 51667 C 5.21998 -6.4116 -2.90739 0
M  V30 51668 C 5.92998 -5.55375 -1.86963 0
M  V30 51669 N 5.87998 -4.09664 -2.15742 0
M  V30 51670 H 8.71898 -7.45574 -4.45629 0
M  V30 51671 H 8.99098 -5.86232 -3.67314 0
M  V30 51672 H 8.12298 -7.84412 -2.24479 0
M  V30 51673 P 4.16 -8.7635 -1.60911 0
M  V30 51674 O 3.94 -10.1388 -1.11561 0
M  V30 51675 O 3.37 -8.36503 -2.79617 0
M  V30 51676 O 3.91 -7.71806 -0.42951 0
M  V30 51677 C 4.85 -7.67148 0.673689 0
M  V30 51678 C 4.12 -7.33374 1.95559 0
M  V30 51679 O 3.91 -5.88721 2.00726 0
M  V30 51680 C 2.72 -7.92526 2.10483 0
M  V30 51681 O 2.33 -8.02971 3.47653 0
M  V30 51682 C 1.84 -6.89602 1.41652 0
M  V30 51683 C 2.55 -5.59201 1.75185 0
M  V30 51684 N 2.5 -4.58235 0.662552 0
M  V30 51685 H 5.339 -8.65116 0.777161 0
M  V30 51686 H 5.611 -6.90173 0.474152 0
M  V30 51687 H 4.743 -7.66548 2.79458 0
M  V30 51688 H 1.613 -8.66322 3.55694 0
M  V30 END ATOM
M  V30 BEGIN BOND
M  V30 END BOND
M  V30 END CTAB
M  END
$$$$
