drugbank_target|Q91RS4 NS3 protease (DB06290; DB07582; DB13879)
 OpenBabel12092120443D

  0  0  0     0  0            999 V3000
M  V30 BEGIN CTAB
M  V30 COUNTS 2697 2723 0 0 0
M  V30 BEGIN ATOM
M  V30 1 H -0.908 1.98254 -0.117106 0
M  V30 2 N 0 1.576 0 0
M  V30 3 C 0.963 2.07369 0.976253 0
M  V30 4 C 1.963 0.98309 1.27248 0
M  V30 5 O 3.153 1.24574 1.21766 0
M  V30 6 C 0.285 2.51514 2.30116 0
M  V30 7 H 1.478 2.94892 0.545759 0
M  V30 8 H -0.969 1.54328 0.247471 0
M  V30 9 H -0.234 1.67234 2.77855 0
M  V30 10 H -0.449 3.31163 2.09937 0
M  V30 11 H 1.041 2.90345 3.00149 0
M  V30 12 N 1.4781 -0.272755 1.55222 0
M  V30 13 C 2.8891 -0.84378 1.66545 0
M  V30 14 C 3.2401 -1.87035 0.592641 0
M  V30 15 O 2.3651 -2.14761 -0.265818 0
M  V30 16 C 2.9601 -1.53723 3.01918 0
M  V30 17 C 1.5191 -2.05628 3.15268 0
M  V30 18 C 0.6661 -0.898424 2.62343 0
M  V30 19 H 3.6171 -0.0490998 1.58624 0
M  V30 20 H 3.6381 -2.40421 2.94921 0
M  V30 21 H 3.1501 -0.78983 3.79978 0
M  V30 22 H 1.2511 -2.83329 2.41983 0
M  V30 23 H 1.3641 -2.27142 4.21833 0
M  V30 24 H -0.2719 -1.29186 2.19506 0
M  V30 25 H 0.5111 -0.164528 3.42906 0
M  V30 26 N 2.9562 -1.48159 -0.537278 0
M  V30 27 C 4.2052 -1.5506 -1.28993 0
M  V30 28 C 4.5182 -0.226211 -1.94288 0
M  V30 29 O 5.7242 -0.173395 -2.70946 0
M  V30 30 C 4.1802 -2.73429 -2.34018 0
M  V30 31 C 3.7882 -4.1248 -1.74825 0
M  V30 32 C 5.5322 -2.89638 -3.10339 0
M  V30 33 C 3.4392 -5.22121 -2.77747 0
M  V30 34 H 2.3692 -0.577231 -0.485098 0
M  V30 35 H 5.0202 -1.74478 -0.568317 0
M  V30 36 H 3.4022 -2.47431 -3.09182 0
M  V30 37 H 4.5762 -4.48466 -1.05899 0
M  V30 38 H 2.8912 -4.01327 -1.11022 0
M  V30 39 H 5.4882 -3.68718 -3.87235 0
M  V30 40 H 5.8312 -1.9882 -3.65754 0
M  V30 41 H 6.3642 -3.15502 -2.42288 0
M  V30 42 H 3.1032 -6.1488 -2.27161 0
M  V30 43 H 2.6232 -4.90631 -3.45024 0
M  V30 44 H 4.3022 -5.49924 -3.4087 0
M  V30 45 N 4.4343 0.785586 -1.36625 0
M  V30 46 C 5.6623 1.57448 -1.3423 0
M  V30 47 C 6.0773 1.88649 0.0755653 0
M  V30 48 O 5.4343 1.50414 1.03354 0
M  V30 49 C 5.4853 2.89316 -2.16745 0
M  V30 50 O 5.2063 2.59459 -3.53005 0
M  V30 51 C 6.7073 3.83606 -2.22174 0
M  V30 52 H 3.9273 0.488226 -0.4603 0
M  V30 53 H 6.4713 0.974733 -1.79775 0
M  V30 54 H 4.6263 3.4575 -1.74745 0
M  V30 55 H 5.0403 3.43804 -3.96105 0
M  V30 56 H 6.5143 4.73181 -2.8426 0
M  V30 57 H 6.9913 4.21734 -1.22627 0
M  V30 58 H 7.5973 3.33104 -2.64427 0
M  V30 59 N 5.9124 1.20967 1.01018 0
M  V30 60 C 6.8754 0.965918 2.07853 0
M  V30 61 C 7.8754 -0.0610545 1.60684 0
M  V30 62 O 9.0654 0.175681 1.73312 0
M  V30 63 C 6.1974 0.455513 3.37843 0
M  V30 64 H 7.3904 1.91365 2.3091 0
M  V30 65 H 4.9434 1.02594 1.17916 0
M  V30 66 H 5.6784 -0.497381 3.20463 0
M  V30 67 H 5.4634 1.19622 3.73407 0
M  V30 68 H 6.9534 0.304667 4.16487 0
M  V30 69 N 7.3905 -1.2043 1.01659 0
M  V30 70 C 8.6205 -1.93496 0.724081 0
M  V30 71 C 9.0285 -1.74998 -0.71918 0
M  V30 72 O 8.3715 -1.06118 -1.49949 0
M  V30 73 C 8.4335 -3.45886 0.97994 0
M  V30 74 C 8.0975 -3.88145 2.41232 0
M  V30 75 C 9.0945 -3.93907 3.39313 0
M  V30 76 C 6.7795 -4.20134 2.75305 0
M  V30 77 C 8.7735 -4.31069 4.6953 0
M  V30 78 C 6.4605 -4.56971 4.05735 0
M  V30 79 C 7.4585 -4.62411 5.02658 0
M  V30 80 O 7.1465 -4.98403 6.30754 0
M  V30 81 H 6.8785 -0.621824 0.265162 0
M  V30 82 H 9.4325 -1.53867 1.36066 0
M  V30 83 H 7.6625 -3.85639 0.286198 0
M  V30 84 H 9.3515 -4.0018 0.679021 0
M  V30 85 H 10.1175 -3.69357 3.14325 0
M  V30 86 H 5.9965 -4.1509 2.00551 0
M  V30 87 H 9.5405 -4.3523 5.45179 0
M  V30 88 H 5.4375 -4.80977 4.30502 0
M  V30 89 H 6.2055 -5.16395 6.35042 0
M  V30 90 N 8.8686 -0.792821 -1.36206 0
M  V30 91 C 9.8316 -0.199459 -2.2833 0
M  V30 92 C 10.8316 0.605189 -1.48977 0
M  V30 93 O 12.0216 0.425685 -1.68919 0
M  V30 94 C 9.1536 0.723523 -3.33134 0
M  V30 95 H 10.3466 -1.01181 -2.82316 0
M  V30 96 H 7.8996 -0.562485 -1.45828 0
M  V30 97 H 8.6346 1.56008 -2.84309 0
M  V30 98 H 8.4196 0.148436 -3.91819 0
M  V30 99 H 9.9096 1.13344 -4.01924 0
M  V30 100 N 10.3467 1.47872 -0.545128 0
M  V30 101 C 11.2787 2.27869 0.246621 0
M  V30 102 C 12.2917 1.36282 0.890561 0
M  V30 103 O 13.4807 1.61207 0.766449 0
M  V30 104 C 10.5807 3.10159 1.36582 0
M  V30 105 C 9.7537 4.29627 0.820954 0
M  V30 106 C 8.8127 4.93607 1.82314 0
M  V30 107 O 7.8387 5.52366 1.37406 0
M  V30 108 N 9.0407 4.87211 3.15603 0
M  V30 109 H 11.8057 2.96459 -0.439539 0
M  V30 110 H 9.3667 1.57367 -0.380421 0
M  V30 111 H 11.3587 3.49829 2.03474 0
M  V30 112 H 9.9287 2.43891 1.9554 0
M  V30 113 H 9.1487 3.94192 -0.0244032 0
M  V30 114 H 10.4367 5.06928 0.436063 0
M  V30 115 H 9.8347 4.40651 3.54744 0
M  V30 116 H 8.3917 5.30937 3.78087 0
M  V30 117 N 11.8248 0.280983 1.55075 0
M  V30 118 C 12.7568 -0.637268 2.20163 0
M  V30 119 C 13.7698 -1.11298 1.18813 0
M  V30 120 O 14.9588 -1.03388 1.4551 0
M  V30 121 C 12.0588 -1.88199 2.81841 0
M  V30 122 C 11.2318 -1.55211 4.08936 0
M  V30 123 C 10.2908 -2.64991 4.54606 0
M  V30 124 O 9.3168 -2.30929 5.2025 0
M  V30 125 N 10.5188 -3.95161 4.25238 0
M  V30 126 H 13.2838 -0.0801694 2.99593 0
M  V30 127 H 10.8448 0.102329 1.61576 0
M  V30 128 H 12.8368 -2.60948 3.09335 0
M  V30 129 H 11.4068 -2.34799 2.06369 0
M  V30 130 H 10.6268 -0.658185 3.88666 0
M  V30 131 H 11.9148 -1.30681 4.91732 0
M  V30 132 H 11.3128 -4.25653 3.72607 0
M  V30 133 H 9.8698 -4.6427 4.5749 0
M  V30 134 N 13.3029 -1.57598 0.00835791 0
M  V30 135 C 14.5309 -1.95214 -0.68549 0
M  V30 136 C 14.9459 -0.883706 -1.66841 0
M  V30 137 O 14.3029 0.136565 -1.81988 0
M  V30 138 C 14.3539 -3.32865 -1.41007 0
M  V30 139 O 14.0749 -4.35609 -0.466552 0
M  V30 140 C 15.5759 -3.84991 -2.19765 0
M  V30 141 H 12.7959 -0.643422 -0.190392 0
M  V30 142 H 15.3399 -2.04406 0.0619607 0
M  V30 143 H 13.4949 -3.24956 -2.10908 0
M  V30 144 H 13.9089 -5.15288 -0.978699 0
M  V30 145 H 15.3829 -4.8371 -2.65948 0
M  V30 146 H 15.8599 -3.18137 -3.02796 0
M  V30 147 H 16.4659 -3.96103 -1.54864 0
M  V30 148 N 14.781 0.264519 -1.55364 0
M  V30 149 C 16.197 0.61215 -1.47394 0
M  V30 150 C 16.397 1.89134 -0.695018 0
M  V30 151 O 15.453 2.51563 -0.217275 0
M  V30 152 C 16.766 0.731235 -2.91674 0
M  V30 153 C 18.314 0.82473 -3.01939 0
M  V30 154 C 18.789 0.975522 -4.4749 0
M  V30 155 N 20.28 1.04083 -4.51354 0
M  V30 156 C 21.015 1.17646 -5.61201 0
M  V30 157 N 20.511 1.27874 -6.80896 0
M  V30 158 N 22.304 1.20823 -5.48961 0
M  V30 159 H 14.455 -0.575456 -2.04456 0
M  V30 160 H 16.718 -0.196099 -0.927496 0
M  V30 161 H 16.424 -0.138392 -3.51428 0
M  V30 162 H 16.298 1.60883 -3.41169 0
M  V30 163 H 18.685 1.68482 -2.42276 0
M  V30 164 H 18.766 -0.0776479 -2.55682 0
M  V30 165 H 18.41 0.120058 -5.07758 0
M  V30 166 H 18.34 1.89268 -4.91412 0
M  V30 167 H 20.831 0.973846 -3.65136 0
M  V30 168 H 21.144 1.38081 -7.60364 0
M  V30 169 H 19.489 1.24863 -6.83692 0
M  V30 170 H 22.68 1.12469 -4.54388 0
M  V30 171 H 22.853 1.31049 -6.3461 0
M  V30 172 N 16.2591 1.48442 0.529413 0
M  V30 173 C 17.5071 1.56179 1.28267 0
M  V30 174 C 17.8281 0.237721 1.93546 0
M  V30 175 O 17.0981 -0.740779 1.81354 0
M  V30 176 H 15.6781 0.575367 0.476405 0
M  V30 177 H 18.3401 1.84909 0.61602 0
M  V30 178 H 17.4361 2.34312 2.06165 0
M  V30 179 N 17.7372 -0.778329 1.37039 0
M  V30 180 C 18.6672 -1.90546 1.34962 0
M  V30 181 C 19.6482 -1.68681 0.219274 0
M  V30 182 O 20.8332 -1.89634 0.418624 0
M  V30 183 C 17.9632 -3.27734 1.14925 0
M  V30 184 C 16.9172 -3.64147 2.24902 0
M  V30 185 C 16.2432 -4.99806 1.89996 0
M  V30 186 C 17.5432 -3.71579 3.67051 0
M  V30 187 H 19.2372 -1.92541 2.29277 0
M  V30 188 H 16.7832 -0.924948 1.10366 0
M  V30 189 H 18.7362 -4.06215 1.12104 0
M  V30 190 H 17.4602 -3.26154 0.170631 0
M  V30 191 H 16.1192 -2.8797 2.26868 0
M  V30 192 H 15.7672 -4.94759 0.906796 0
M  V30 193 H 15.4672 -5.25139 2.63634 0
M  V30 194 H 16.9912 -5.80694 1.88749 0
M  V30 195 H 18.4052 -4.40227 3.67251 0
M  V30 196 H 16.8022 -4.08405 4.39688 0
M  V30 197 H 17.8722 -2.72404 4.01154 0
M  V30 198 N 19.2153 -1.21501 -1.00376 0
M  V30 199 C 20.1453 -0.999478 -2.11028 0
M  V30 200 C 21.1263 0.0759671 -1.6993 0
M  V30 201 O 22.3113 -0.0841106 -1.94018 0
M  V30 202 C 19.4413 -0.564709 -3.42678 0
M  V30 203 C 18.3953 -1.58486 -3.97576 0
M  V30 204 C 17.7213 -1.00628 -5.25146 0
M  V30 205 C 19.0213 -2.97204 -4.29496 0
M  V30 206 H 20.7153 -1.92495 -2.29317 0
M  V30 207 H 18.2613 -0.92693 -1.102 0
M  V30 208 H 20.2143 -0.401091 -4.19487 0
M  V30 209 H 18.9383 0.396411 -3.24185 0
M  V30 210 H 17.5973 -1.73606 -3.22888 0
M  V30 211 H 17.2453 -0.0368439 -5.02987 0
M  V30 212 H 16.9453 -1.68771 -5.62841 0
M  V30 213 H 18.4693 -0.854015 -6.04598 0
M  V30 214 H 19.8833 -2.8552 -4.97143 0
M  V30 215 H 18.2803 -3.62372 -4.78338 0
M  V30 216 H 19.3503 -3.47956 -3.3772 0
M  V30 217 N 20.6934 1.19889 -1.02296 0
M  V30 218 C 21.9414 1.89046 -0.714558 0
M  V30 219 C 22.2624 1.79636 0.758681 0
M  V30 220 O 21.5324 1.20292 1.54618 0
M  V30 221 H 20.1124 0.699802 -0.261317 0
M  V30 222 H 22.7744 1.45574 -1.29592 0
M  V30 223 H 21.8704 2.95524 -1.0036 0
M  V30 224 N 22.1715 0.800033 1.35784 0
M  V30 225 C 23.4115 0.382891 2.00782 0
M  V30 226 C 23.7755 -1.02891 1.62103 0
M  V30 227 O 24.9765 -1.54771 2.19771 0
M  V30 228 C 23.2475 0.553299 3.53091 0
M  V30 229 S 24.8065 0.225608 4.3822 0
M  V30 230 H 21.6245 0.145737 0.695904 0
M  V30 231 H 24.2265 1.04085 1.65489 0
M  V30 232 H 22.9305 1.58091 3.78729 0
M  V30 233 H 22.4615 -0.120214 3.93216 0
M  V30 234 H 24.4765 -0.969074 4.86645 0
M  V30 235 N 23.6496 -1.47581 0.552962 0
M  V30 236 C 24.8986 -2.01684 0.0251995 0
M  V30 237 C 25.2116 -1.43317 -1.33115 0
M  V30 238 O 26.4176 -1.89057 -1.94858 0
M  V30 239 C 24.8736 -3.599 -0.00542052 0
M  V30 240 C 24.4816 -4.27257 1.34742 0
M  V30 241 C 26.2256 -4.21768 -0.4808 0
M  V30 242 C 24.1326 -5.77467 1.27614 0
M  V30 243 H 23.0626 -0.753979 0.00565033 0
M  V30 244 H 25.7136 -1.69616 0.70018 0
M  V30 245 H 24.0956 -3.88911 -0.745961 0
M  V30 246 H 25.2696 -4.09893 2.10534 0
M  V30 247 H 23.5846 -3.77358 1.76039 0
M  V30 248 H 26.1816 -5.31838 -0.55246 0
M  V30 249 H 26.5246 -3.88651 -1.49184 0
M  V30 250 H 27.0576 -3.97273 0.204752 0
M  V30 251 H 23.7966 -6.15196 2.26304 0
M  V30 252 H 23.3166 -5.9718 0.55996 0
M  V30 253 H 24.9956 -6.3959 0.976421 0
M  V30 254 N 25.1277 -0.289203 -1.54924 0
M  V30 255 C 26.3767 0.324231 -1.99077 0
M  V30 256 C 26.6897 1.5591 -1.18117 0
M  V30 257 O 27.8957 2.24637 -1.52481 0
M  V30 258 C 26.3517 0.628209 -3.54375 0
M  V30 259 C 25.9597 -0.587647 -4.44129 0
M  V30 260 C 27.7037 1.20349 -4.07083 0
M  V30 261 C 25.6107 -0.257475 -5.90839 0
M  V30 262 H 24.5407 0.124924 -0.743579 0
M  V30 263 H 27.1917 -0.396063 -1.79175 0
M  V30 264 H 25.5737 1.40778 -3.70132 0
M  V30 265 H 26.7477 -1.36418 -4.40144 0
M  V30 266 H 25.0627 -1.08074 -4.0213 0
M  V30 267 H 27.6597 1.46456 -5.14252 0
M  V30 268 H 28.0027 2.14195 -3.56968 0
M  V30 269 H 28.5357 0.485889 -3.94821 0
M  V30 270 H 25.2747 -1.16419 -6.45079 0
M  V30 271 H 24.7947 0.482018 -5.9786 0
M  V30 272 H 26.4737 0.145238 -6.46837 0
M  V30 273 N 26.6058 1.57591 -0.0167156 0
M  V30 274 C 27.8338 1.95575 0.675128 0
M  V30 275 C 28.2488 0.892542 1.6637 0
M  V30 276 O 27.6058 -0.126912 1.82058 0
M  V30 277 C 27.6568 3.33608 1.39239 0
M  V30 278 O 27.3778 4.3585 0.443444 0
M  V30 279 C 28.8788 3.86151 2.17721 0
M  V30 280 H 26.0988 0.644423 0.186978 0
M  V30 281 H 28.6428 2.0437 -0.0728 0
M  V30 282 H 26.7978 3.2607 2.09182 0
M  V30 283 H 27.2118 5.158 0.951358 0
M  V30 284 H 28.6858 4.85114 2.63379 0
M  V30 285 H 29.1628 3.19738 3.01105 0
M  V30 286 H 29.7688 3.96918 1.52761 0
M  V30 287 N 28.0839 -0.256276 1.55502 0
M  V30 288 C 29.3089 -1.00766 1.81276 0
M  V30 289 C 29.7339 -1.78524 0.59252 0
M  V30 290 O 29.0919 -1.75413 -0.45827 0
M  V30 291 C 29.1399 -1.92869 3.04687 0
M  V30 292 O 28.2439 -3.019 2.80945 0
M  V30 293 H 27.5849 -0.287224 0.598664 0
M  V30 294 H 30.1149 -0.280109 2.02674 0
M  V30 295 H 30.1249 -2.34511 3.33869 0
M  V30 296 H 28.7999 -1.35689 3.93143 0
M  V30 297 H 27.3769 -2.64454 2.62904 0
M  V30 298 N 29.562 -1.4872 -0.521534 0
M  V30 299 C 30.492 -1.66771 -1.63431 0
M  V30 300 C 31.473 -0.516499 -1.62069 0
M  V30 301 O 32.658 -0.750013 -1.79132 0
M  V30 302 C 29.788 -1.71515 -3.01993 0
M  V30 303 C 28.742 -2.86222 -3.18216 0
M  V30 304 C 28.068 -2.76061 -4.57924 0
M  V30 305 C 29.368 -4.27419 -3.00184 0
M  V30 306 H 31.062 -2.59932 -1.48579 0
M  V30 307 H 28.608 -1.25089 -0.713358 0
M  V30 308 H 30.561 -1.82731 -3.7972 0
M  V30 309 H 29.285 -0.749393 -3.17886 0
M  V30 310 H 27.944 -2.74575 -2.42908 0
M  V30 311 H 27.592 -1.77437 -4.70665 0
M  V30 312 H 27.292 -3.53037 -4.69722 0
M  V30 313 H 28.816 -2.89256 -5.37739 0
M  V30 314 H 30.23 -4.39855 -3.67697 0
M  V30 315 H 28.627 -5.05458 -3.2347 0
M  V30 316 H 29.697 -4.43293 -1.96518 0
M  V30 317 N 31.0401 0.771051 -1.3745 0
M  V30 318 C 32.2681 1.56015 -1.35893 0
M  V30 319 C 32.6831 1.88718 0.0555523 0
M  V30 320 O 32.0401 1.51502 1.01752 0
M  V30 321 C 32.0911 2.87001 -2.19801 0
M  V30 322 O 31.8121 2.557 -3.55738 0
M  V30 323 C 33.3131 3.81228 -2.26231 0
M  V30 324 H 30.5331 0.483317 -0.465453 0
M  V30 325 H 33.0771 0.955611 -1.80799 0
M  V30 326 H 31.2321 3.43877 -1.78402 0
M  V30 327 H 31.6461 3.39584 -3.99729 0
M  V30 328 H 33.1201 4.70139 -2.89263 0
M  V30 329 H 33.5971 4.20409 -1.27093 0
M  V30 330 H 34.2031 3.30281 -2.67945 0
M  V30 331 N 32.5182 1.22032 0.997298 0
M  V30 332 C 33.7662 1.04016 1.73278 0
M  V30 333 C 34.0872 -0.426255 1.90284 0
M  V30 334 O 33.3572 -1.30694 1.45931 0
M  V30 335 H 31.9372 0.381897 0.642 0
M  V30 336 H 34.5992 1.5347 1.20137 0
M  V30 337 H 33.6952 1.51441 2.72896 0
M  V30 338 N 33.9963 -1.19345 1.0293 0
M  V30 339 C 35.4123 -1.41069 0.746446 0
M  V30 340 C 35.6123 -1.90078 -0.668776 0
M  V30 341 O 34.6683 -2.0778 -1.4347 0
M  V30 342 C 35.9813 -2.42141 1.78292 0
M  V30 343 C 37.5293 -2.55887 1.80252 0
M  V30 344 C 38.0043 -3.60214 2.8286 0
M  V30 345 N 39.4953 -3.67711 2.81679 0
M  V30 346 C 40.2303 -4.48128 3.57727 0
M  V30 347 N 39.7263 -5.32248 4.43491 0
M  V30 348 N 41.5193 -4.42782 3.46267 0
M  V30 349 H 33.6703 -0.858536 1.94275 0
M  V30 350 H 35.9333 -0.439541 0.839945 0
M  V30 351 H 35.6393 -2.13155 2.79746 0
M  V30 352 H 35.5133 -3.41323 1.60557 0
M  V30 353 H 37.9003 -2.84196 0.794757 0
M  V30 354 H 37.9813 -1.56858 2.02062 0
M  V30 355 H 37.6253 -3.32647 3.83807 0
M  V30 356 H 37.5553 -4.58895 2.58307 0
M  V30 357 H 40.0463 -3.07634 2.19476 0
M  V30 358 H 40.3593 -5.90729 4.98256 0
M  V30 359 H 38.7043 -5.31707 4.47564 0
M  V30 360 H 41.8953 -3.76107 2.78677 0
M  V30 361 H 42.0683 -5.05215 4.05785 0
M  V30 362 N 35.4744 -0.807222 -1.35358 0
M  V30 363 C 36.7514 -0.311126 -1.9311 0
M  V30 364 C 37.1314 1.19937 -1.73719 0
M  V30 365 O 36.4794 1.99918 -1.10657 0
M  V30 366 C 36.6894 -0.723226 -3.41424 0
M  V30 367 C 38.0374 -0.713078 -4.18569 0
M  V30 368 O 39.0614 -0.664811 -3.49941 0
M  V30 369 O 37.9204 -0.772022 -5.41019 0
M  V30 370 H 35.0144 -0.081526 -0.822972 0
M  V30 371 H 37.5604 -0.890962 -1.4443 0
M  V30 372 H 36.3324 -1.76426 -3.4927 0
M  V30 373 H 35.9554 -0.118232 -3.97424 0
M  V30 374 N 36.9525 1.47285 -0.560781 0
M  V30 375 C 37.8995 2.30058 0.18491 0
M  V30 376 C 38.8695 1.39281 0.904986 0
M  V30 377 O 40.0545 1.68241 0.899979 0
M  V30 378 C 37.1945 3.23317 1.20666 0
M  V30 379 C 36.3075 4.29186 0.492285 0
M  V30 380 C 35.4425 5.09592 1.49964 0
M  V30 381 C 34.4815 6.07232 0.770439 0
M  V30 382 N 33.6185 6.80584 1.72479 0
M  V30 383 H 38.4585 2.93302 -0.527048 0
M  V30 384 H 35.9955 1.44568 -0.271738 0
M  V30 385 H 37.9535 3.75811 1.81168 0
M  V30 386 H 36.5835 2.61929 1.88661 0
M  V30 387 H 35.6355 3.7972 -0.227333 0
M  V30 388 H 36.9475 4.98738 -0.0787929 0
M  V30 389 H 36.1015 5.66254 2.17809 0
M  V30 390 H 34.8405 4.3995 2.10464 0
M  V30 391 H 33.8455 5.49745 0.0780846 0
M  V30 392 H 35.0705 6.78884 0.171134 0
M  V30 393 H 33.0165 6.1367 2.3183 0
M  V30 394 H 32.9335 7.46319 1.20596 0
M  V30 395 H 34.2015 7.41818 2.39428 0
M  V30 396 N 38.4306 0.297415 1.54768 0
M  V30 397 C 39.3786 -0.596051 2.24833 0
M  V30 398 C 40.3726 -1.13992 1.25308 0
M  V30 399 O 41.5786 -1.09098 1.4317 0
M  V30 400 H 37.9536 -0.210814 0.721846 0
M  V30 401 H 39.9246 0.0174667 2.98395 0
M  V30 402 C 38.6736 -1.75818 2.99972 0
M  V30 403 H 37.9966 -1.3489 3.76357 0
M  V30 404 H 39.4366 -2.35949 3.52284 0
M  V30 405 C 37.8956 -2.66014 2.06732 0
M  V30 406 O 38.4256 -3.67009 1.63302 0
M  V30 407 N 36.6316 -2.33669 1.72763 0
M  V30 408 H 36.1786 -1.51586 2.08277 0
M  V30 409 H 36.1366 -2.94285 1.10652 0
M  V30 410 N 39.9087 -1.5758 0.0250728 0
M  V30 411 C 40.8407 -2.06869 -0.986796 0
M  V30 412 C 41.8537 -0.991332 -1.29137 0
M  V30 413 O 43.0427 -1.26761 -1.25674 0
M  V30 414 C 40.1427 -2.47486 -2.31525 0
M  V30 415 C 39.3157 -3.78253 -2.19643 0
M  V30 416 C 38.3747 -4.05464 -3.35388 0
M  V30 417 O 37.4007 -4.75774 -3.12454 0
M  V30 418 N 38.6027 -3.55321 -4.59051 0
M  V30 419 H 41.3677 -2.94302 -0.566276 0
M  V30 420 H 38.9287 -1.6109 -0.161776 0
M  V30 421 H 40.9207 -2.62785 -3.07776 0
M  V30 422 H 39.4907 -1.65441 -2.65232 0
M  V30 423 H 38.7107 -3.7279 -1.28144 0
M  V30 424 H 39.9987 -4.63936 -2.08903 0
M  V30 425 H 39.3967 -2.98431 -4.80578 0
M  V30 426 H 37.9537 -3.75905 -5.32483 0
M  V30 427 N 41.3868 0.248026 -1.55636 0
M  V30 428 C 42.6328 0.97767 -1.77678 0
M  V30 429 C 42.9658 1.85016 -0.590135 0
M  V30 430 O 42.2408 1.90095 0.411611 0
M  V30 431 C 42.5238 1.83914 -3.09593 0
M  V30 432 C 42.3768 0.99491 -4.38659 0
M  V30 433 C 43.6958 2.82183 -3.37729 0
M  V30 434 H 40.8148 0.354005 -0.646413 0
M  V30 435 H 43.4568 0.248253 -1.88371 0
M  V30 436 H 41.6068 2.46104 -3.00608 0
M  V30 437 H 43.2788 0.391789 -4.59633 0
M  V30 438 H 41.5218 0.299231 -4.32767 0
M  V30 439 H 42.1928 1.63145 -5.2734 0
M  V30 440 H 44.6688 2.30129 -3.4667 0
M  V30 441 H 43.5448 3.39582 -4.31249 0
M  V30 442 H 43.8058 3.58588 -2.58586 0
M  V30 443 N 42.8649 1.48995 0.513639 0
M  V30 444 C 43.7749 1.67443 1.64317 0
M  V30 445 C 44.7909 0.556947 1.64846 0
M  V30 446 O 45.9669 0.830082 1.83498 0
M  V30 447 C 43.0319 1.72515 3.00732 0
M  V30 448 C 42.0929 2.96009 3.1093 0
M  V30 449 C 41.3259 3.00829 4.40837 0
M  V30 450 O 41.5489 2.13594 5.28898 0
M  V30 451 O 40.4829 3.93168 4.55744 0
M  V30 452 H 44.3089 2.63106 1.51687 0
M  V30 453 H 41.8939 1.32588 0.688543 0
M  V30 454 H 43.7759 1.78277 3.81831 0
M  V30 455 H 42.4509 0.800278 3.13651 0
M  V30 456 H 41.3579 2.9577 2.29065 0
M  V30 457 H 42.6909 3.87934 3.02933 0
M  V30 458 N 44.343 -0.763751 1.37857 0
M  V30 459 C 45.591 -1.51957 1.33243 0
M  V30 460 C 45.912 -1.94835 -0.0801709 0
M  V30 461 O 45.182 -1.66894 -1.02582 0
M  V30 462 H 43.762 -0.563626 0.49024 0
M  V30 463 H 46.424 -0.908504 1.7243 0
M  V30 464 H 45.52 -2.41523 1.97669 0
M  V30 465 N 45.8211 -1.22559 -0.990812 0
M  V30 466 C 46.7311 -1.01394 -2.11557 0
M  V30 467 C 47.7471 0.0383962 -1.73958 0
M  V30 468 O 48.9231 -0.154787 -2.00804 0
M  V30 469 C 45.9881 -0.596569 -3.41529 0
M  V30 470 C 45.0491 -1.72276 -3.93217 0
M  V30 471 C 44.2821 -1.32521 -5.16985 0
M  V30 472 O 44.5051 -0.204909 -5.70032 0
M  V30 473 O 43.4391 -2.14247 -5.62478 0
M  V30 474 H 47.2651 -1.95633 -2.32296 0
M  V30 475 H 44.8501 -1.01172 -1.0993 0
M  V30 476 H 46.7321 -0.374263 -4.19735 0
M  V30 477 H 45.4071 0.316939 -3.22145 0
M  V30 478 H 44.3141 -1.99961 -3.16174 0
M  V30 479 H 45.6471 -2.61421 -4.17037 0
M  V30 480 N 47.2992 1.18797 -1.03562 0
M  V30 481 C 48.5452 1.8893 -0.737113 0
M  V30 482 C 48.8782 1.79837 0.732956 0
M  V30 483 O 48.1532 1.19525 1.5344 0
M  V30 484 C 48.4362 3.39607 -1.19745 0
M  V30 485 C 48.2892 3.57537 -2.72924 0
M  V30 486 C 49.6082 4.33069 -0.783526 0
M  V30 487 H 46.7272 0.686057 -0.269249 0
M  V30 488 H 49.3692 1.39797 -1.28673 0
M  V30 489 H 47.5192 3.81583 -0.729855 0
M  V30 490 H 49.1912 3.24688 -3.27682 0
M  V30 491 H 47.4342 3.00363 -3.12993 0
M  V30 492 H 48.1052 4.63238 -3.00191 0
M  V30 493 H 50.5812 3.98846 -1.18581 0
M  V30 494 H 49.4572 5.3707 -1.13343 0
M  V30 495 H 49.7182 4.40986 0.313681 0
M  V30 496 N 48.7773 0.814389 1.34928 0
M  V30 497 C 49.7093 0.187834 2.28429 0
M  V30 498 C 50.7223 -0.617374 1.5064 0
M  V30 499 O 51.9113 -0.448454 1.72775 0
M  V30 500 C 49.0113 -0.755962 3.30361 0
M  V30 501 C 48.1843 0.00456686 4.374 0
M  V30 502 C 47.2433 -0.858876 5.19143 0
M  V30 503 O 46.2693 -0.306968 5.68372 0
M  V30 504 N 47.4713 -2.17988 5.38016 0
M  V30 505 H 50.2363 0.991105 2.82838 0
M  V30 506 H 47.7973 0.670561 1.4736 0
M  V30 507 H 49.7893 -1.338 3.81942 0
M  V30 508 H 48.3593 -1.46001 2.7641 0
M  V30 509 H 47.5793 0.767865 3.86649 0
M  V30 510 H 48.8673 0.528422 5.06049 0
M  V30 511 H 48.2653 -2.65212 4.99679 0
M  V30 512 H 46.8223 -2.71098 5.92747 0
M  V30 513 N 50.2554 -1.46986 0.568584 0
M  V30 514 C 51.5044 -2.01646 0.0465894 0
M  V30 515 C 51.8174 -1.44721 -1.31587 0
M  V30 516 O 53.0234 -1.91113 -1.92842 0
M  V30 517 C 51.4794 -3.59885 0.032752 0
M  V30 518 C 51.0874 -4.25804 1.39266 0
M  V30 519 C 52.8314 -4.22255 -0.436038 0
M  V30 520 C 50.7384 -5.76081 1.33732 0
M  V30 521 H 49.6684 -0.753876 0.013647 0
M  V30 522 H 52.3194 -1.68864 0.718131 0
M  V30 523 H 50.7014 -3.8968 -0.704669 0
M  V30 524 H 51.8754 -4.07637 2.1487 0
M  V30 525 H 50.1904 -3.7547 1.80032 0
M  V30 526 H 52.7874 -5.32394 -0.49602 0
M  V30 527 H 53.1304 -3.90212 -1.45053 0
M  V30 528 H 53.6634 -3.97033 0.246877 0
M  V30 529 H 50.4024 -6.12761 2.32817 0
M  V30 530 H 49.9224 -5.96553 0.623267 0
M  V30 531 H 51.6014 -6.38518 1.0442 0
M  V30 532 N 51.7335 -0.305618 -1.54608 0
M  V30 533 C 52.9795 0.302746 -2.00528 0
M  V30 534 C 53.3125 1.53184 -1.19367 0
M  V30 535 O 52.5875 1.92598 -0.271321 0
M  V30 536 C 52.8705 0.654756 -3.54097 0
M  V30 537 C 52.7235 -0.583793 -4.45995 0
M  V30 538 C 54.0425 1.47947 -4.14487 0
M  V30 539 H 51.1615 0.108564 -0.72896 0
M  V30 540 H 53.8035 -0.418634 -1.85331 0
M  V30 541 H 51.9535 1.26935 -3.67178 0
M  V30 542 H 53.6255 -1.22224 -4.44814 0
M  V30 543 H 51.8685 -1.21615 -4.16404 0
M  V30 544 H 52.5395 -0.293287 -5.5122 0
M  V30 545 H 55.0155 0.96013 -4.04871 0
M  V30 546 H 53.8915 1.69454 -5.22088 0
M  V30 547 H 54.1525 2.47011 -3.66658 0
M  V30 548 N 53.2116 1.57565 -0.0334293 0
M  V30 549 C 54.4366 1.96689 0.657895 0
M  V30 550 C 54.8616 0.910057 1.64619 0
M  V30 551 O 54.2196 -0.128598 1.80843 0
M  V30 552 C 54.2676 3.34905 1.33683 0
M  V30 553 O 53.3716 3.31574 2.45219 0
M  V30 554 H 52.7126 0.641205 0.172489 0
M  V30 555 H 55.2426 2.04372 -0.0965621 0
M  V30 556 H 55.2526 3.71234 1.69262 0
M  V30 557 H 53.9276 4.11366 0.612411 0
M  V30 558 H 52.5046 3.06968 2.11719 0
M  V30 559 N 54.6897 -0.239769 1.55765 0
M  V30 560 C 55.9177 -0.98417 1.81994 0
M  V30 561 C 56.3327 -1.7867 0.610124 0
M  V30 562 O 55.6897 -1.77571 -0.421271 0
M  V30 563 C 55.7407 -1.91635 3.06526 0
M  V30 564 O 55.4617 -1.14629 4.22838 0
M  V30 565 C 56.9627 -2.77616 3.45607 0
M  V30 566 H 54.1827 -0.28928 0.605441 0
M  V30 567 H 56.7267 -0.260499 2.02834 0
M  V30 568 H 54.8817 -2.5942 2.87715 0
M  V30 569 H 55.2957 -1.77745 4.93464 0
M  V30 570 H 56.7697 -3.38759 4.35828 0
M  V30 571 H 57.2467 -3.4909 2.6652 0
M  V30 572 H 57.8527 -2.15271 3.66795 0
M  V30 573 N 56.1678 -1.49265 -0.50573 0
M  V30 574 C 57.1308 -1.65075 -1.59006 0
M  V30 575 C 58.1308 -0.522768 -1.52065 0
M  V30 576 O 59.3208 -0.789117 -1.55302 0
M  V30 577 C 56.4528 -1.64369 -2.98656 0
M  V30 578 H 57.6458 -2.61784 -1.46319 0
M  V30 579 H 55.1988 -1.38226 -0.729616 0
M  V30 580 H 55.9338 -0.692272 -3.16825 0
M  V30 581 H 55.7188 -2.46282 -3.05103 0
M  V30 582 H 57.2088 -1.78674 -3.77446 0
M  V30 583 N 57.6459 0.756429 -1.3826 0
M  V30 584 C 58.6089 1.85176 -1.35065 0
M  V30 585 C 59.6089 1.58818 -0.251703 0
M  V30 586 O 60.7989 1.66615 -0.508433 0
M  V30 587 C 57.9309 3.22596 -1.10201 0
M  V30 588 H 59.1239 1.89417 -2.3251 0
M  V30 589 H 56.6769 0.95783 -1.23512 0
M  V30 590 H 57.4119 3.24025 -0.133504 0
M  V30 591 H 57.1969 3.43122 -1.89762 0
M  V30 592 H 58.6869 4.02673 -1.10654 0
M  V30 593 N 59.124 1.23083 0.984299 0
M  V30 594 C 60.056 0.96636 2.07832 0
M  V30 595 C 61.069 -0.0582135 1.62696 0
M  V30 596 O 62.258 0.176843 1.77622 0
M  V30 597 C 59.358 0.433397 3.36117 0
M  V30 598 C 58.531 1.51722 4.10243 0
M  V30 599 C 57.59 0.989821 5.16807 0
M  V30 600 O 56.616 1.67794 5.43906 0
M  V30 601 N 57.818 -0.184367 5.80207 0
M  V30 602 H 60.583 1.90824 2.31098 0
M  V30 603 H 58.144 1.13888 1.1507 0
M  V30 604 H 60.136 0.065699 4.04647 0
M  V30 605 H 58.706 -0.413806 3.09849 0
M  V30 606 H 57.926 2.05786 3.36223 0
M  V30 607 H 59.214 2.24619 4.56534 0
M  V30 608 H 58.612 -0.760062 5.60571 0
M  V30 609 H 57.169 -0.493366 6.4993 0
M  V30 610 N 60.6021 -1.18246 1.0419 0
M  V30 611 C 61.8301 -1.92195 0.766072 0
M  V30 612 C 62.2451 -1.76247 -0.676933 0
M  V30 613 O 61.6021 -1.09293 -1.46155 0
M  V30 614 C 61.6531 -3.43568 1.12442 0
M  V30 615 O 61.3741 -3.59015 2.51078 0
M  V30 616 C 62.8751 -4.34613 0.873275 0
M  V30 617 H 60.0951 -0.610114 0.279288 0
M  V30 618 H 62.6391 -1.50007 1.38989 0
M  V30 619 H 60.7941 -3.8354 0.545542 0
M  V30 620 H 61.2081 -4.5273 2.64831 0
M  V30 621 H 62.6821 -5.39374 1.17385 0
M  V30 622 H 63.1591 -4.38781 -0.191909 0
M  V30 623 H 63.7651 -4.00341 1.43551 0
M  V30 624 N 62.0802 -0.821533 -1.34494 0
M  V30 625 C 63.3272 -0.408946 -1.98328 0
M  V30 626 C 63.6552 1.02764 -1.65136 0
M  V30 627 O 62.9102 1.73026 -0.914349 0
M  V30 628 C 63.2092 -0.556512 -3.53041 0
M  V30 629 C 62.8752 -1.95861 -4.0614 0
M  V30 630 C 61.5372 -2.34217 -4.20352 0
M  V30 631 C 63.8892 -2.87523 -4.34718 0
M  V30 632 C 61.2172 -3.63572 -4.6047 0
M  V30 633 C 63.5692 -4.1634 -4.76281 0
M  V30 634 C 62.2332 -4.54675 -4.88699 0
M  V30 635 H 61.5032 -0.149644 -0.725732 0
M  V30 636 H 64.1502 -1.04521 -1.6046 0
M  V30 637 H 62.4552 0.163148 -3.9146 0
M  V30 638 H 64.1522 -0.217826 -4.00408 0
M  V30 639 H 60.7422 -1.65066 -3.95539 0
M  V30 640 H 64.9262 -2.59133 -4.23277 0
M  V30 641 H 60.1822 -3.93101 -4.68275 0
M  V30 642 H 64.3562 -4.87455 -4.97354 0
M  V30 643 H 61.9832 -5.54959 -5.19542 0
M  V30 644 N 63.5583 1.46682 -0.576371 0
M  V30 645 C 64.4883 2.33028 0.148397 0
M  V30 646 C 65.4693 1.44961 0.889956 0
M  V30 647 O 66.6543 1.73789 0.866662 0
M  V30 648 C 63.7843 3.27117 1.1667 0
M  V30 649 C 62.7383 4.24575 0.540386 0
M  V30 650 C 62.0643 5.08126 1.6647 0
M  V30 651 C 63.3643 5.19722 -0.518331 0
M  V30 652 H 65.0583 2.93875 -0.572509 0
M  V30 653 H 62.6043 1.41315 -0.276768 0
M  V30 654 H 64.5573 3.86374 1.68204 0
M  V30 655 H 63.2813 2.64364 1.9178 0
M  V30 656 H 61.9403 3.66571 0.0461769 0
M  V30 657 H 61.5883 4.41762 2.40531 0
M  V30 658 H 61.2883 5.74122 1.25131 0
M  V30 659 H 62.8123 5.70246 2.18293 0
M  V30 660 H 64.2263 5.73232 -0.0883058 0
M  V30 661 H 62.6233 5.94026 -0.851679 0
M  V30 662 H 63.6933 4.64037 -1.40703 0
M  V30 663 N 65.0364 0.313813 1.54444 0
M  V30 664 C 65.9994 -0.54379 2.22656 0
M  V30 665 C 66.9994 -1.05124 1.21678 0
M  V30 666 O 68.1894 -0.945225 1.46325 0
M  V30 667 C 65.3214 -1.75427 2.92298 0
M  V30 668 H 66.5144 0.0523599 2.99854 0
M  V30 669 H 64.0674 0.0647834 1.56166 0
M  V30 670 H 64.8024 -2.38991 2.19211 0
M  V30 671 H 64.5874 -1.39791 3.66334 0
M  V30 672 H 66.0774 -2.36325 3.44297 0
M  V30 673 N 66.5145 -1.57545 0.0417849 0
M  V30 674 C 67.7425 -1.96624 -0.643928 0
M  V30 675 C 68.1575 -0.918897 -1.64929 0
M  V30 676 O 67.5145 0.0979323 -1.82237 0
M  V30 677 C 67.5655 -3.35781 -1.33914 0
M  V30 678 O 67.2865 -4.365 -0.374048 0
M  V30 679 C 68.7875 -3.89566 -2.1155 0
M  V30 680 H 66.0075 -0.647316 -0.176702 0
M  V30 681 H 68.5515 -2.04229 0.105304 0
M  V30 682 H 66.7065 -3.29357 -2.03968 0
M  V30 683 H 67.1205 -5.17248 -0.869179 0
M  V30 684 H 68.5945 -4.89242 -2.55628 0
M  V30 685 H 69.0715 -3.24488 -2.9598 0
M  V30 686 H 69.6775 -3.99298 -1.46427 0
M  V30 687 N 67.9926 0.231505 -1.5589 0
M  V30 688 C 69.2326 0.964533 -1.80211 0
M  V30 689 C 69.5966 1.81926 -0.613744 0
M  V30 690 O 70.7976 2.58526 -0.736045 0
M  V30 691 C 69.0686 1.78956 -3.09369 0
M  V30 692 S 70.6276 2.57959 -3.54969 0
M  V30 693 H 67.4456 0.324173 -0.632798 0
M  V30 694 H 70.0476 0.230985 -1.94131 0
M  V30 695 H 68.7516 1.15161 -3.93911 0
M  V30 696 H 68.2826 2.56559 -2.9823 0
M  V30 697 H 70.2976 3.81309 -3.17519 0
M  V30 698 N 69.4707 1.49531 0.497807 0
M  V30 699 C 70.7197 1.58426 1.24837 0
M  V30 700 C 71.0327 0.277643 1.93619 0
M  V30 701 O 72.2387 0.24517 2.70391 0
M  V30 702 C 70.6947 2.79538 2.26686 0
M  V30 703 C 70.3027 4.16971 1.63828 0
M  V30 704 C 72.0467 2.97764 3.0255 0
M  V30 705 C 69.9537 5.29301 2.63807 0
M  V30 706 H 68.8837 0.58989 0.469623 0
M  V30 707 H 71.5347 1.75923 0.521857 0
M  V30 708 H 69.9167 2.55542 3.02514 0
M  V30 709 H 71.0907 4.51116 0.939711 0
M  V30 710 H 69.4057 4.04129 1.00342 0
M  V30 711 H 72.0027 3.78856 3.77323 0
M  V30 712 H 72.3457 2.08448 3.60354 0
M  V30 713 H 72.8787 3.21815 2.33838 0
M  V30 714 H 69.6177 6.20687 2.10779 0
M  V30 715 H 69.1377 4.99606 3.31894 0
M  V30 716 H 70.8167 5.58768 3.2617 0
M  V30 717 N 70.9488 -0.749086 1.3866 0
M  V30 718 C 71.8968 -1.88428 1.36373 0
M  V30 719 C 72.8908 -1.67561 0.248929 0
M  V30 720 O 74.0968 -1.75074 0.41821 0
M  V30 721 H 70.4718 -0.620023 0.42553 0
M  V30 722 H 72.4428 -1.87473 2.32156 0
M  V30 723 C 71.1918 -3.25961 1.21014 0
M  V30 724 H 70.5148 -3.42607 2.06059 0
M  V30 725 H 71.9548 -4.05625 1.23469 0
M  V30 726 C 70.4138 -3.36799 -0.0825941 0
M  V30 727 O 70.9438 -3.87517 -1.05797 0
M  V30 728 N 69.1498 -2.90258 -0.140939 0
M  V30 729 H 68.6968 -2.49174 0.653477 0
M  V30 730 H 68.6548 -2.97889 -1.00545 0
M  V30 731 N 72.4269 -1.23603 -0.977757 0
M  V30 732 C 73.6749 -1.06759 -1.71601 0
M  V30 733 C 73.9959 0.395929 -1.90938 0
M  V30 734 O 73.2659 1.28356 -1.47992 0
M  V30 735 H 71.8459 -0.392062 -0.635843 0
M  V30 736 H 74.5079 -1.55362 -1.1768 0
M  V30 737 H 73.6039 -1.55763 -2.70452 0
M  V30 738 N 73.905 1.17692 -1.04816 0
M  V30 739 C 75.151 1.88137 -0.75711 0
M  V30 740 C 75.484 1.80604 0.713841 0
M  V30 741 O 74.759 1.21146 1.52164 0
M  V30 742 C 75.042 3.38318 -1.2334 0
M  V30 743 C 74.895 3.54622 -2.76701 0
M  V30 744 C 76.214 4.32214 -0.829415 0
M  V30 745 H 73.333 0.683163 -0.27651 0
M  V30 746 H 75.975 1.38424 -1.30149 0
M  V30 747 H 74.125 3.80787 -0.770286 0
M  V30 748 H 75.797 3.21194 -3.31107 0
M  V30 749 H 74.04 2.97026 -3.16161 0
M  V30 750 H 74.711 4.60028 -3.05088 0
M  V30 751 H 77.187 3.97565 -1.22805 0
M  V30 752 H 76.063 5.35838 -1.19033 0
M  V30 753 H 76.324 4.41294 0.266891 0
M  V30 754 N 75.3831 0.828654 1.34056 0
M  V30 755 C 76.6231 0.425394 1.99924 0
M  V30 756 C 76.9871 -0.994294 1.64249 0
M  V30 757 O 78.1881 -1.50074 2.23005 0
M  V30 758 C 76.4591 0.628071 3.51838 0
M  V30 759 S 78.0181 0.318511 4.37642 0
M  V30 760 H 74.8361 0.160465 0.692656 0
M  V30 761 H 77.4381 1.07572 1.63244 0
M  V30 762 H 76.1421 1.66089 3.7529 0
M  V30 763 H 75.6731 -0.0367799 3.93383 0
M  V30 764 H 77.6881 -0.865632 4.88591 0
M  V30 765 N 76.8612 -1.46375 0.584142 0
M  V30 766 C 78.1072 -2.03248 0.0787103 0
M  V30 767 C 78.4622 -1.44737 -1.26763 0
M  V30 768 O 77.7552 -0.603625 -1.81843 0
M  V30 769 C 77.9492 -3.57373 -0.0439342 0
M  V30 770 C 77.7782 -4.30831 1.28897 0
M  V30 771 C 76.5482 -4.69683 1.8635 0
M  V30 772 C 78.7462 -4.64278 2.21248 0
M  V30 773 N 76.7282 -5.27898 3.13365 0
M  V30 774 C 78.0992 -5.23078 3.32851 0
M  V30 775 C 80.1542 -4.46209 2.20911 0
M  V30 776 C 78.8572 -5.65715 4.44251 0
M  V30 777 C 80.8832 -4.89864 3.31341 0
M  V30 778 C 80.2452 -5.48736 4.41665 0
M  V30 779 H 76.3442 -0.778714 0.0716144 0
M  V30 780 H 78.9282 -1.78509 0.777355 0
M  V30 781 H 77.0992 -3.81823 -0.711749 0
M  V30 782 H 78.8312 -4.00892 -0.553881 0
M  V30 783 H 75.5862 -4.52488 1.39826 0
M  V30 784 H 76.0102 -5.61525 3.78178 0
M  V30 785 H 80.6522 -4.00027 1.36888 0
M  V30 786 H 78.3702 -6.10875 5.29015 0
M  V30 787 H 81.9562 -4.77634 3.322 0
M  V30 788 H 80.8362 -5.81898 5.25704 0
M  V30 789 N 78.3393 -0.321999 -1.54275 0
M  V30 790 C 79.5673 0.283052 -2.04955 0
M  V30 791 C 79.9823 1.45904 -1.19823 0
M  V30 792 O 79.3393 1.81063 -0.228545 0
M  V30 793 C 79.3903 0.719028 -3.54277 0
M  V30 794 O 79.1113 -0.410175 -4.36176 0
M  V30 795 C 80.6123 1.38705 -4.21041 0
M  V30 796 H 77.8323 0.0584616 -0.668448 0
M  V30 797 H 80.3763 -0.467734 -1.99079 0
M  V30 798 H 78.5313 1.41979 -3.60445 0
M  V30 799 H 78.9453 -0.0669416 -5.24457 0
M  V30 800 H 80.4193 1.64306 -5.2698 0
M  V30 801 H 80.8963 2.33385 -3.72059 0
M  V30 802 H 81.5023 0.728906 -4.19007 0
M  V30 803 N 79.8174 1.5752 -0.0501392 0
M  V30 804 C 81.0634 1.92936 0.624798 0
M  V30 805 C 81.3964 0.928685 1.70555 0
M  V30 806 O 80.6714 -0.0454779 1.94447 0
M  V30 807 C 80.9544 3.38737 1.22185 0
M  V30 808 C 80.8074 4.49552 0.149218 0
M  V30 809 C 82.1264 3.84913 2.13378 0
M  V30 810 H 79.2454 0.701604 0.225657 0
M  V30 811 H 81.8874 1.89671 -0.111693 0
M  V30 812 H 80.0374 3.4165 1.84953 0
M  V30 813 H 81.7094 4.58768 -0.482648 0
M  V30 814 H 79.9524 4.30638 -0.522841 0
M  V30 815 H 80.6234 5.48653 0.606966 0
M  V30 816 H 83.0994 3.8387 1.60572 0
M  V30 817 H 81.9754 4.87584 2.52097 0
M  V30 818 H 82.2364 3.21611 3.03346 0
M  V30 819 N 81.2955 -0.223234 1.56011 0
M  V30 820 C 82.5255 -0.963413 1.82762 0
M  V30 821 C 82.9335 -1.78516 0.626804 0
M  V30 822 O 82.2765 -1.78974 -0.414014 0
M  V30 823 C 82.3385 -1.93126 3.0322 0
M  V30 824 C 82.0025 -1.2942 4.38291 0
M  V30 825 C 82.9995 -0.684916 5.15369 0
M  V30 826 C 80.6845 -1.30647 4.85012 0
M  V30 827 C 82.6785 -0.0963971 6.37327 0
M  V30 828 C 80.3655 -0.71411 6.06913 0
M  V30 829 C 81.3635 -0.110123 6.82911 0
M  V30 830 O 81.0515 0.47303 8.02507 0
M  V30 831 H 80.7835 -0.288011 0.611576 0
M  V30 832 H 83.3375 -0.244103 2.03944 0
M  V30 833 H 81.5675 -2.68952 2.77852 0
M  V30 834 H 83.2565 -2.53685 3.16857 0
M  V30 835 H 84.0225 -0.667774 4.80381 0
M  V30 836 H 79.9015 -1.76598 4.25833 0
M  V30 837 H 83.4455 0.375657 6.96588 0
M  V30 838 H 79.3425 -0.728659 6.41374 0
M  V30 839 H 80.1105 0.367186 8.17676 0
M  V30 840 N 82.7736 -1.49793 -0.48987 0
M  V30 841 C 83.7236 -1.63673 -1.5873 0
M  V30 842 C 84.7076 -0.491956 -1.53195 0
M  V30 843 O 85.8996 -0.745461 -1.60536 0
M  V30 844 C 83.0286 -1.71689 -2.97284 0
M  V30 845 C 82.1146 -2.91781 -3.07774 0
M  V30 846 N 82.5056 -4.15714 -2.88124 0
M  V30 847 C 80.8036 -2.89949 -3.38889 0
M  V30 848 C 81.5046 -4.965 -3.03088 0
M  V30 849 N 80.4806 -4.30083 -3.3246 0
M  V30 850 H 84.2826 -2.57204 -1.42208 0
M  V30 851 H 81.7966 -1.46719 -0.69623 0
M  V30 852 H 83.7936 -1.79732 -3.76168 0
M  V30 853 H 82.4536 -0.793024 -3.14867 0
M  V30 854 H 83.4646 -4.45515 -2.64077 0
M  V30 855 H 80.1416 -2.06987 -3.62578 0
M  V30 856 H 81.5316 -6.04991 -2.92294 0
M  V30 857 N 84.2517 0.741722 -1.39055 0
M  V30 858 C 85.4997 1.49818 -1.35643 0
M  V30 859 C 85.8207 1.94938 0.0491642 0
M  V30 860 O 85.0907 1.68505 0.999141 0
M  V30 861 H 83.6707 0.555755 -0.499144 0
M  V30 862 H 86.3327 0.880957 -1.73854 0
M  V30 863 H 85.4287 2.38348 -2.01486 0
M  V30 864 N 85.7298 1.2412 0.971189 0
M  V30 865 C 86.6928 1.03156 2.04674 0
M  V30 866 C 87.6928 -0.00990322 1.60797 0
M  V30 867 O 88.8828 0.230729 1.72665 0
M  V30 868 C 86.0148 0.562765 3.36223 0
M  V30 869 H 87.2078 1.98614 2.24705 0
M  V30 870 H 84.7608 1.06293 1.14593 0
M  V30 871 H 85.4958 -0.395176 3.21883 0
M  V30 872 H 85.2808 1.31441 3.69413 0
M  V30 873 H 86.7708 0.437015 4.15307 0
M  V30 874 N 87.2079 -1.17134 1.05439 0
M  V30 875 C 88.4559 -1.87085 0.764429 0
M  V30 876 C 88.7769 -1.81584 -0.710787 0
M  V30 877 O 88.0469 -1.24349 -1.51374 0
M  V30 878 H 86.6269 -0.692627 0.279779 0
M  V30 879 H 89.2889 -1.42087 1.33406 0
M  V30 880 H 88.3849 -2.92759 1.0816 0
M  V30 881 N 88.686 -0.835752 -1.33615 0
M  V30 882 C 89.914 -0.443344 -2.02094 0
M  V30 883 C 90.329 0.954522 -1.62894 0
M  V30 884 O 89.686 1.61982 -0.840723 0
M  V30 885 C 89.737 -0.550775 -3.5728 0
M  V30 886 O 89.458 -1.89356 -3.95065 0
M  V30 887 C 90.959 -0.154919 -4.43029 0
M  V30 888 H 88.179 -0.176359 -0.647409 0
M  V30 889 H 90.723 -1.12746 -1.70612 0
M  V30 890 H 88.878 0.0853997 -3.87306 0
M  V30 891 H 89.292 -1.87687 -4.89769 0
M  V30 892 H 90.766 -0.281144 -5.51284 0
M  V30 893 H 91.243 0.902863 -4.2982 0
M  V30 894 H 91.849 -0.765404 -4.18356 0
M  V30 895 N 90.1641 1.46063 -0.591896 0
M  V30 896 C 91.5801 1.57561 -0.254288 0
M  V30 897 C 91.7801 1.58565 1.24336 0
M  V30 898 O 90.8361 1.50753 2.02558 0
M  V30 899 C 92.1491 2.86549 -0.911611 0
M  V30 900 C 93.6971 3.00197 -0.886059 0
M  V30 901 C 94.1721 4.31933 -1.5231 0
M  V30 902 N 95.6631 4.38654 -1.48786 0
M  V30 903 C 96.3981 5.39222 -1.95006 0
M  V30 904 N 95.8941 6.46414 -2.49241 0
M  V30 905 N 97.6871 5.3048 -1.85868 0
M  V30 906 H 89.8381 1.43655 -1.56451 0
M  V30 907 H 92.1011 0.68583 -0.654478 0
M  V30 908 H 91.8071 2.91651 -1.96551 0
M  V30 909 H 91.6811 3.74794 -0.425368 0
M  V30 910 H 94.0681 2.9467 0.159246 0
M  V30 911 H 94.1491 2.13403 -1.41041 0
M  V30 912 H 93.7931 4.38217 -2.56765 0
M  V30 913 H 93.7231 5.17516 -0.973891 0
M  V30 914 H 96.2141 3.61793 -1.09151 0
M  V30 915 H 96.5271 7.19376 -2.82344 0
M  V30 916 H 94.8721 6.47208 -2.53272 0
M  V30 917 H 98.0631 4.45643 -1.43248 0
M  V30 918 H 98.2361 6.08711 -2.22204 0
M  V30 919 N 91.6422 0.330177 1.54103 0
M  V30 920 C 92.8702 -0.272179 2.05102 0
M  V30 921 C 93.2852 -1.45267 1.20595 0
M  V30 922 O 92.6422 -1.8094 0.238144 0
M  V30 923 C 92.6932 -0.70023 3.54653 0
M  V30 924 O 92.4142 0.433301 4.35952 0
M  V30 925 C 93.9152 -1.3647 4.21771 0
M  V30 926 H 91.1352 -0.0549159 0.668749 0
M  V30 927 H 93.6792 0.478285 1.98828 0
M  V30 928 H 91.8342 -1.40066 3.61193 0
M  V30 929 H 92.2482 0.0947539 5.24414 0
M  V30 930 H 93.7222 -1.61509 5.27843 0
M  V30 931 H 94.1992 -2.31409 3.73292 0
M  V30 932 H 94.8052 -0.706675 4.19388 0
M  V30 933 N 93.1203 -1.57491 0.0584922 0
M  V30 934 C 94.3693 -1.92155 -0.613146 0
M  V30 935 C 94.6823 -0.939334 -1.71569 0
M  V30 936 O 95.8883 -1.17829 -2.44599 0
M  V30 937 C 94.3443 -3.41303 -1.14195 0
M  V30 938 C 93.9523 -4.47944 -0.0711265 0
M  V30 939 C 95.6963 -3.84988 -1.78841 0
M  V30 940 C 93.6033 -5.88212 -0.613225 0
M  V30 941 H 92.5333 -0.717162 -0.232796 0
M  V30 942 H 95.1843 -1.83049 0.12857 0
M  V30 943 H 93.5663 -3.45437 -1.93621 0
M  V30 944 H 94.7403 -4.55408 0.702836 0
M  V30 945 H 93.0553 -4.13644 0.478313 0
M  V30 946 H 95.6523 -4.87159 -2.20408 0
M  V30 947 H 95.9953 -3.21632 -2.64308 0
M  V30 948 H 96.5283 -3.83401 -1.06059 0
M  V30 949 H 93.2673 -6.55183 0.203978 0
M  V30 950 H 92.7873 -5.84294 -1.35501 0
M  V30 951 H 94.4663 -6.37687 -1.09383 0
M  V30 952 N 94.5984 0.214957 -1.56127 0
M  V30 953 C 95.5614 1.24997 -1.92116 0
M  V30 954 C 96.5614 1.39467 -0.800344 0
M  V30 955 O 97.7514 1.37619 -1.06802 0
M  V30 956 C 94.8834 2.62271 -2.17777 0
M  V30 957 H 96.0764 0.942875 -2.84693 0
M  V30 958 H 93.6294 0.455654 -1.49511 0
M  V30 959 H 94.3644 2.98068 -1.27773 0
M  V30 960 H 94.1494 2.53143 -2.99434 0
M  V30 961 H 95.6394 3.36946 -2.46693 0
M  V30 962 N 96.0765 1.50051 0.48192 0
M  V30 963 C 97.3015 1.64508 1.26301 0
M  V30 964 C 97.7265 0.323851 1.85291 0
M  V30 965 O 97.0845 -0.710969 1.66778 0
M  V30 966 C 97.1325 2.7305 2.35533 0
M  V30 967 O 96.2365 2.3355 3.39895 0
M  V30 968 H 95.5775 0.549978 0.372048 0
M  V30 969 H 98.1075 1.9636 0.574786 0
M  V30 970 H 98.1175 2.95799 2.8101 0
M  V30 971 H 96.7925 3.68946 1.91967 0
M  V30 972 H 95.3695 2.21205 3.00204 0
M  V30 973 N 97.5546 -0.734337 1.39446 0
M  V30 974 C 98.9656 -1.31264 1.32766 0
M  V30 975 C 99.3166 -1.96198 -0.00767497 0
M  V30 976 O 98.4416 -1.96346 -0.909796 0
M  V30 977 C 99.0366 -2.38682 2.4045 0
M  V30 978 C 97.5956 -2.92184 2.37288 0
M  V30 979 C 96.7426 -1.6576 2.22304 0
M  V30 980 H 99.6936 -0.531799 1.49525 0
M  V30 981 H 99.7146 -3.19087 2.07276 0
M  V30 982 H 99.2266 -1.91392 3.37625 0
M  V30 983 H 97.3276 -3.43752 1.43754 0
M  V30 984 H 97.4406 -3.45253 3.3217 0
M  V30 985 H 95.8046 -1.9012 1.69489 0
M  V30 986 H 96.5876 -1.20521 3.21449 0
M  V30 987 N 99.0327 -1.24633 -0.964593 0
M  V30 988 C 99.9797 -1.04144 -2.05968 0
M  V30 989 C 100.95 0.046262 -1.66036 0
M  V30 990 O 102.135 -0.108972 -1.90489 0
M  V30 991 C 99.2747 -0.65563 -3.38815 0
M  V30 992 C 98.3877 -1.81714 -3.91923 0
M  V30 993 C 97.5227 -1.37662 -5.13052 0
M  V30 994 C 96.5617 -2.50788 -5.58365 0
M  V30 995 N 95.6987 -2.07582 -6.70712 0
M  V30 996 H 100.539 -1.9787 -2.22827 0
M  V30 997 H 98.0757 -0.9855 -1.09208 0
M  V30 998 H 100.034 -0.412954 -4.15151 0
M  V30 999 H 98.6637 0.244627 -3.21872 0
M  V30 1000 H 97.7157 -2.1734 -3.12198 0
M  V30 1001 H 99.0277 -2.66705 -4.21509 0
M  V30 1002 H 98.1817 -1.093 -5.96773 0
M  V30 1003 H 96.9207 -0.497293 -4.85158 0
M  V30 1004 H 95.9257 -2.79906 -4.73215 0
M  V30 1005 H 97.1507 -3.39283 -5.88272 0
M  V30 1006 H 95.0967 -1.22051 -6.44546 0
M  V30 1007 H 95.0137 -2.86125 -6.99763 0
M  V30 1008 H 96.2817 -1.82369 -7.57867 0
M  V30 1009 N 100.511 1.16574 -1.06058 0
M  V30 1010 C 101.759 1.86677 -0.77434 0
M  V30 1011 C 102.08 1.81959 0.701147 0
M  V30 1012 O 101.35 1.2515 1.50713 0
M  V30 1013 H 99.9298 0.691134 -0.283449 0
M  V30 1014 H 102.592 1.41378 -1.34158 0
M  V30 1015 H 101.688 2.92181 -1.09711 0
M  V30 1016 N 101.989 0.842826 1.3317 0
M  V30 1017 C 103.4 0.496651 1.79973 0
M  V30 1018 C 103.751 -0.984641 1.69703 0
M  V30 1019 O 102.876 -1.76743 1.24863 0
M  V30 1020 C 103.471 0.894727 3.26772 0
M  V30 1021 C 102.03 0.600629 3.71577 0
M  V30 1022 C 101.177 1.10091 2.5451 0
M  V30 1023 H 104.128 1.03116 1.20635 0
M  V30 1024 H 104.149 0.206347 3.7994 0
M  V30 1025 H 103.661 1.97287 3.34215 0
M  V30 1026 H 101.762 -0.467284 3.69658 0
M  V30 1027 H 101.875 1.15863 4.64879 0
M  V30 1028 H 100.239 0.52162 2.49301 0
M  V30 1029 H 101.022 2.18591 2.64713 0
M  V30 1030 N 103.467 -1.45747 0.599634 0
M  V30 1031 C 104.713 -2.02592 0.0918643 0
M  V30 1032 C 105.046 -1.46806 -1.27128 0
M  V30 1033 O 104.321 -0.639658 -1.83681 0
M  V30 1034 C 104.604 -3.60073 0.0443398 0
M  V30 1035 C 104.457 -4.26208 1.43759 0
M  V30 1036 C 105.776 -4.35309 -0.647608 0
M  V30 1037 H 102.895 -0.736175 0.034857 0
M  V30 1038 H 105.537 -1.73694 0.770081 0
M  V30 1039 H 103.687 -3.84823 -0.533224 0
M  V30 1040 H 105.359 -4.12668 2.06162 0
M  V30 1041 H 103.602 -3.84916 2.00056 0
M  V30 1042 H 104.273 -5.35069 1.35665 0
M  V30 1043 H 106.749 -4.15805 -0.156776 0
M  V30 1044 H 105.625 -5.45038 -0.649942 0
M  V30 1045 H 105.886 -4.07598 -1.71219 0
M  V30 1046 N 104.945 -0.338344 -1.53925 0
M  V30 1047 C 106.194 0.260732 -2.00008 0
M  V30 1048 C 106.507 1.52073 -1.23017 0
M  V30 1049 O 107.713 2.19672 -1.5955 0
M  V30 1050 C 106.169 0.51515 -3.56194 0
M  V30 1051 C 105.777 -0.728645 -4.42035 0
M  V30 1052 C 107.521 1.07337 -4.10706 0
M  V30 1053 C 105.428 -0.445315 -5.89721 0
M  V30 1054 H 104.358 0.101205 -0.747177 0
M  V30 1055 H 107.009 -0.452866 -1.77824 0
M  V30 1056 H 105.391 1.28932 -3.74423 0
M  V30 1057 H 106.565 -1.50352 -4.35581 0
M  V30 1058 H 104.88 -1.20813 -3.98489 0
M  V30 1059 H 107.477 1.30022 -5.18651 0
M  V30 1060 H 107.82 2.0273 -3.63602 0
M  V30 1061 H 108.353 0.360034 -3.96167 0
M  V30 1062 H 105.092 -1.36883 -6.41049 0
M  V30 1063 H 104.612 0.291569 -5.99091 0
M  V30 1064 H 106.291 -0.0606218 -6.46972 0
M  V30 1065 N 106.423 1.57458 -0.0668435 0
M  V30 1066 C 107.355 2.09413 0.931601 0
M  V30 1067 C 108.368 1.02522 1.26464 0
M  V30 1068 O 109.557 1.30049 1.22269 0
M  V30 1069 C 106.657 2.53537 2.24882 0
M  V30 1070 C 105.83 3.83944 2.09537 0
M  V30 1071 C 104.889 4.14214 3.2452 0
M  V30 1072 O 103.915 4.83891 2.9973 0
M  V30 1073 N 105.117 3.67367 4.49469 0
M  V30 1074 H 107.882 2.95699 0.488048 0
M  V30 1075 H 105.443 1.61462 0.119009 0
M  V30 1076 H 107.435 2.70853 3.00701 0
M  V30 1077 H 106.005 1.72415 2.60753 0
M  V30 1078 H 105.225 3.76057 1.18215 0
M  V30 1079 H 106.513 4.69312 1.96529 0
M  V30 1080 H 105.911 3.11068 4.72497 0
M  V30 1081 H 104.468 3.89891 5.2233 0
M  V30 1082 N 107.901 -0.206675 1.56239 0
M  V30 1083 C 108.834 -1.28383 1.88661 0
M  V30 1084 C 109.812 -1.44504 0.745481 0
M  V30 1085 O 110.996 -1.60079 0.995336 0
M  V30 1086 C 108.123 -2.65211 2.10667 0
M  V30 1087 C 107.169 -2.66025 3.33366 0
M  V30 1088 S 108.002 -2.18609 4.88846 0
M  V30 1089 C 109.158 -3.57283 5.13906 0
M  V30 1090 H 109.391 -1.00691 2.7973 0
M  V30 1091 H 106.924 -0.409627 1.48867 0
M  V30 1092 H 108.882 -3.43979 2.24029 0
M  V30 1093 H 107.543 -2.90121 1.20369 0
M  V30 1094 H 106.736 -3.66607 3.45855 0
M  V30 1095 H 106.338 -1.95331 3.18938 0
M  V30 1096 H 108.63 -4.53074 5.03717 0
M  V30 1097 H 109.573 -3.49699 6.15724 0
M  V30 1098 H 109.981 -3.51659 4.41583 0
M  V30 1099 N 109.379 -1.50304 -0.473955 0
M  V30 1100 C 110.609 -1.64663 -1.24778 0
M  V30 1101 C 111.017 -0.328174 -1.86332 0
M  V30 1102 O 110.36 0.699536 -1.69859 0
M  V30 1103 C 110.422 -2.6778 -2.39863 0
M  V30 1104 C 110.086 -4.11413 -1.98969 0
M  V30 1105 C 111.083 -4.97372 -1.51385 0
M  V30 1106 C 108.768 -4.57312 -2.07777 0
M  V30 1107 C 110.762 -6.27277 -1.13148 0
M  V30 1108 C 108.449 -5.87223 -1.69152 0
M  V30 1109 C 109.447 -6.72031 -1.21915 0
M  V30 1110 O 109.135 -7.99518 -0.838237 0
M  V30 1111 H 108.867 -0.556602 -0.383627 0
M  V30 1112 H 111.421 -1.9726 -0.572491 0
M  V30 1113 H 109.651 -2.30419 -3.10554 0
M  V30 1114 H 111.34 -2.71388 -3.01833 0
M  V30 1115 H 112.106 -4.63128 -1.44004 0
M  V30 1116 H 107.985 -3.91449 -2.43493 0
M  V30 1117 H 111.529 -6.93425 -0.762077 0
M  V30 1118 H 107.426 -6.20989 -1.76191 0
M  V30 1119 H 108.194 -8.12764 -0.967339 0
M  V30 1120 N 110.857 0.726932 -1.39834 0
M  V30 1121 C 112.085 1.51613 -1.40787 0
M  V30 1122 C 112.5 1.88799 -0.00451505 0
M  V30 1123 O 111.857 1.54662 0.968809 0
M  V30 1124 C 111.908 2.79863 -2.28821 0
M  V30 1125 O 111.629 2.44253 -3.63692 0
M  V30 1126 C 113.13 3.73837 -2.38245 0
M  V30 1127 H 110.35 0.468264 -0.480593 0
M  V30 1128 H 112.894 0.897607 -1.83748 0
M  V30 1129 H 111.049 3.38027 -1.89252 0
M  V30 1130 H 111.463 3.26695 -4.1033 0
M  V30 1131 H 112.937 4.60699 -3.04073 0
M  V30 1132 H 113.414 4.16153 -1.40403 0
M  V30 1133 H 114.02 3.21589 -2.78317 0
M  V30 1134 N 112.336 1.25143 0.95797 0
M  V30 1135 C 113.284 1.05019 2.07542 0
M  V30 1136 C 114.278 -0.0178751 1.69391 0
M  V30 1137 O 115.484 0.137472 1.79474 0
M  V30 1138 H 111.859 0.32265 0.679265 0
M  V30 1139 H 113.83 1.99759 2.21673 0
M  V30 1140 C 112.579 0.682074 3.40944 0
M  V30 1141 H 111.902 1.49573 3.70767 0
M  V30 1142 H 113.342 0.580945 4.20001 0
M  V30 1143 C 111.801 -0.611608 3.31302 0
M  V30 1144 O 112.331 -1.65465 3.66038 0
M  V30 1145 N 110.537 -0.595982 2.84423 0
M  V30 1146 H 110.084 0.253192 2.56353 0
M  V30 1147 H 110.042 -1.46173 2.78354 0
M  V30 1148 N 113.814 -1.1601 1.06675 0
M  V30 1149 C 115.06 -1.86909 0.786945 0
M  V30 1150 C 115.393 -1.81717 -0.685018 0
M  V30 1151 O 114.668 -1.23551 -1.50218 0
M  V30 1152 C 114.951 -3.36313 1.28707 0
M  V30 1153 C 114.804 -3.50175 2.82308 0
M  V30 1154 C 116.123 -4.3084 0.898071 0
M  V30 1155 H 113.242 -0.678677 0.287343 0
M  V30 1156 H 115.884 -1.36336 1.32334 0
M  V30 1157 H 114.034 -3.79513 0.830768 0
M  V30 1158 H 115.706 -3.15886 3.36175 0
M  V30 1159 H 113.949 -2.91959 3.20847 0
M  V30 1160 H 114.62 -4.55116 3.12368 0
M  V30 1161 H 117.096 -3.95561 1.29114 0
M  V30 1162 H 115.972 -5.33876 1.27543 0
M  V30 1163 H 116.233 -4.41662 -0.196651 0
M  V30 1164 N 115.292 -0.849877 -1.32721 0
M  V30 1165 C 116.569 -0.372405 -1.92022 0
M  V30 1166 C 116.949 1.1435 -1.77447 0
M  V30 1167 O 116.297 1.96296 -1.16962 0
M  V30 1168 C 116.507 -0.831482 -3.3895 0
M  V30 1169 C 117.855 -0.845882 -4.16089 0
M  V30 1170 O 118.879 -0.775806 -3.47649 0
M  V30 1171 O 117.738 -0.943753 -5.38289 0
M  V30 1172 H 114.832 -0.107667 -0.819961 0
M  V30 1173 H 117.378 -0.93646 -1.41522 0
M  V30 1174 H 116.15 -1.87448 -3.4348 0
M  V30 1175 H 115.773 -0.24461 -3.96847 0
M  V30 1176 N 116.77 1.45427 -0.607355 0
M  V30 1177 C 117.702 2.2871 0.149752 0
M  V30 1178 C 118.715 1.39937 0.831958 0
M  V30 1179 O 119.904 1.64313 0.697385 0
M  V30 1180 C 117.004 3.15673 1.23304 0
M  V30 1181 C 116.177 4.32722 0.637996 0
M  V30 1182 C 115.236 5.00895 1.61215 0
M  V30 1183 O 114.262 5.57697 1.13854 0
M  V30 1184 N 115.464 5.00159 2.94655 0
M  V30 1185 H 118.229 2.94328 -0.564882 0
M  V30 1186 H 115.79 1.55612 -0.446823 0
M  V30 1187 H 117.782 3.58144 1.88454 0
M  V30 1188 H 116.352 2.51965 1.8502 0
M  V30 1189 H 115.572 3.93734 -0.191572 0
M  V30 1190 H 116.86 5.08321 0.220665 0
M  V30 1191 H 116.258 4.553 3.35735 0
M  V30 1192 H 114.815 5.46495 3.55228 0
M  V30 1193 N 118.248 0.346503 1.53744 0
M  V30 1194 C 119.525 -0.304532 1.93215 0
M  V30 1195 C 119.905 -1.67993 1.27834 0
M  V30 1196 O 119.253 -2.24411 0.430352 0
M  V30 1197 C 119.463 -0.373852 3.46992 0
M  V30 1198 C 120.811 -0.62329 4.2 0
M  V30 1199 O 121.835 -0.455847 3.53271 0
M  V30 1200 O 120.694 -0.947879 5.38217 0
M  V30 1201 H 117.788 -0.178318 0.807547 0
M  V30 1202 H 120.334 0.397895 1.64969 0
M  V30 1203 H 119.106 0.591224 3.86808 0
M  V30 1204 H 118.729 -1.12294 3.81413 0
M  V30 1205 N 119.726 -1.57421 0.075193 0
M  V30 1206 C 120.656 -2.15942 -0.888324 0
M  V30 1207 C 121.637 -1.08737 -1.30806 0
M  V30 1208 O 122.822 -1.36787 -1.37851 0
M  V30 1209 C 119.952 -2.72379 -2.1547 0
M  V30 1210 C 118.906 -3.8478 -1.87425 0
M  V30 1211 C 118.232 -4.27834 -3.20721 0
M  V30 1212 C 119.532 -5.08869 -1.17684 0
M  V30 1213 H 121.226 -2.96705 -0.400799 0
M  V30 1214 H 118.772 -1.42723 -0.191342 0
M  V30 1215 H 120.725 -3.11965 -2.83295 0
M  V30 1216 H 119.449 -1.88841 -2.6647 0
M  V30 1217 H 118.108 -3.45703 -1.22004 0
M  V30 1218 H 117.756 -3.41214 -3.6957 0
M  V30 1219 H 117.456 -5.03605 -3.02746 0
M  V30 1220 H 118.98 -4.70039 -3.89738 0
M  V30 1221 H 120.394 -5.4575 -1.75584 0
M  V30 1222 H 118.791 -5.8994 -1.09956 0
M  V30 1223 H 119.861 -4.84648 -0.156453 0
M  V30 1224 N 121.204 0.198386 -1.56346 0
M  V30 1225 C 122.45 0.920648 -1.80698 0
M  V30 1226 C 122.783 1.83045 -0.648697 0
M  V30 1227 O 122.058 1.91308 0.350925 0
M  V30 1228 C 122.341 1.73971 -3.15287 0
M  V30 1229 C 122.194 0.85485 -4.41602 0
M  V30 1230 C 123.513 2.71296 -3.46535 0
M  V30 1231 H 120.632 0.333261 -0.657348 0
M  V30 1232 H 123.274 0.188198 -1.89066 0
M  V30 1233 H 121.424 2.36416 -3.08285 0
M  V30 1234 H 123.096 0.245362 -4.60647 0
M  V30 1235 H 121.339 0.161398 -4.335 0
M  V30 1236 H 122.01 1.46286 -5.32264 0
M  V30 1237 H 124.486 2.18983 -3.53816 0
M  V30 1238 H 123.362 3.2569 -4.41834 0
M  V30 1239 H 123.623 3.5018 -2.69864 0
M  V30 1240 N 122.682 1.50554 0.465978 0
M  V30 1241 C 123.93 1.61479 1.21528 0
M  V30 1242 C 124.251 0.319596 1.92363 0
M  V30 1243 O 123.521 -0.663194 1.84333 0
M  V30 1244 H 122.101 0.595055 0.451573 0
M  V30 1245 H 124.763 1.87355 0.53704 0
M  V30 1246 H 123.859 2.42846 1.96042 0
M  V30 1247 N 124.16 -0.719506 1.40217 0
M  V30 1248 C 125.406 -1.48034 1.39491 0
M  V30 1249 C 125.761 -1.92399 -0.00443536 0
M  V30 1250 O 125.054 -1.64993 -0.974061 0
M  V30 1251 C 125.248 -2.72271 2.31524 0
M  V30 1252 C 125.077 -2.40055 3.80268 0
M  V30 1253 C 123.847 -2.31588 4.49105 0
M  V30 1254 C 126.045 -2.04581 4.71859 0
M  V30 1255 N 124.027 -1.92006 5.83101 0
M  V30 1256 C 125.398 -1.75568 5.94623 0
M  V30 1257 C 127.453 -1.91183 4.59732 0
M  V30 1258 C 126.156 -1.34505 7.06612 0
M  V30 1259 C 128.182 -1.51524 5.71659 0
M  V30 1260 C 127.544 -1.23406 6.93506 0
M  V30 1261 H 123.643 -0.539927 0.565688 0
M  V30 1262 H 126.227 -0.834764 1.75897 0
M  V30 1263 H 124.398 -3.34584 1.97251 0
M  V30 1264 H 126.13 -3.38584 2.21682 0
M  V30 1265 H 122.885 -2.49199 4.02737 0
M  V30 1266 H 123.309 -1.74764 6.54054 0
M  V30 1267 H 127.951 -2.11584 3.66049 0
M  V30 1268 H 125.669 -1.12846 8.00182 0
M  V30 1269 H 129.255 -1.41741 5.6427 0
M  V30 1270 H 128.135 -0.931788 7.78645 0
M  V30 1271 N 125.638 -1.25649 -0.95132 0
M  V30 1272 C 127.049 -1.09654 -1.51106 0
M  V30 1273 C 127.4 0.326615 -1.93462 0
M  V30 1274 O 126.525 1.21697 -1.78938 0
M  V30 1275 C 127.12 -1.98437 -2.74605 0
M  V30 1276 C 125.679 -1.86618 -3.2688 0
M  V30 1277 C 124.826 -1.9239 -1.99703 0
M  V30 1278 H 127.777 -1.38887 -0.767865 0
M  V30 1279 H 127.798 -1.5263 -3.48546 0
M  V30 1280 H 127.31 -3.02009 -2.43746 0
M  V30 1281 H 125.411 -0.859421 -3.62553 0
M  V30 1282 H 125.524 -2.71607 -3.94673 0
M  V30 1283 H 123.888 -1.36317 -2.15151 0
M  V30 1284 H 124.671 -2.97573 -1.71188 0
M  V30 1285 N 127.117 1.15442 -1.07289 0
M  V30 1286 C 128.08 2.18358 -0.696591 0
M  V30 1287 C 129.08 1.58637 0.262837 0
M  V30 1288 O 130.27 1.74145 0.0438809 0
M  V30 1289 C 127.402 3.4089 -0.0266151 0
M  V30 1290 H 128.595 2.53162 -1.60776 0
M  V30 1291 H 126.148 1.29893 -0.869342 0
M  V30 1292 H 126.883 3.11653 0.896822 0
M  V30 1293 H 126.668 3.85495 -0.716657 0
M  V30 1294 H 128.158 4.17009 0.222028 0
M  V30 1295 N 128.595 0.856903 1.32268 0
M  V30 1296 C 130.006 0.515711 1.79436 0
M  V30 1297 C 130.357 -0.966586 1.70738 0
M  V30 1298 O 129.482 -1.75409 1.26731 0
M  V30 1299 C 130.077 0.929335 3.25805 0
M  V30 1300 C 128.636 0.640006 3.70919 0
M  V30 1301 C 127.783 1.12784 2.53328 0
M  V30 1302 H 130.734 1.04389 1.19535 0
M  V30 1303 H 130.755 0.246633 3.797 0
M  V30 1304 H 130.267 2.00821 3.32103 0
M  V30 1305 H 128.368 -0.428051 3.70133 0
M  V30 1306 H 128.481 1.20788 4.63624 0
M  V30 1307 H 126.845 0.548033 2.48734 0
M  V30 1308 H 127.628 2.21387 2.62379 0
M  V30 1309 N 130.073 -1.45103 0.615059 0
M  V30 1310 C 131.005 -2.28786 -0.13762 0
M  V30 1311 C 132.018 -1.40376 -0.824525 0
M  V30 1312 O 133.207 -1.64681 -0.688662 0
M  V30 1313 C 130.307 -3.16322 -1.21628 0
M  V30 1314 C 129.48 -4.33054 -0.615039 0
M  V30 1315 C 128.539 -5.01743 -1.58556 0
M  V30 1316 O 127.565 -5.58293 -1.10895 0
M  V30 1317 N 128.767 -5.01714 -2.91998 0
M  V30 1318 H 131.532 -2.94025 0.580483 0
M  V30 1319 H 129.093 -1.55373 0.45507 0
M  V30 1320 H 131.085 -3.59139 -1.86552 0
M  V30 1321 H 129.655 -2.52943 -1.83681 0
M  V30 1322 H 128.875 -3.93627 0.21245 0
M  V30 1323 H 130.163 -5.08431 -0.193704 0
M  V30 1324 H 129.561 -4.57075 -3.33316 0
M  V30 1325 H 128.118 -5.48371 -3.52325 0
M  V30 1326 N 131.551 -0.354651 -1.53558 0
M  V30 1327 C 132.799 0.237972 -2.00694 0
M  V30 1328 C 133.12 1.50173 -1.24391 0
M  V30 1329 O 132.39 1.92673 -0.354135 0
M  V30 1330 H 130.97 0.0909256 -0.741446 0
M  V30 1331 H 133.632 -0.478368 -1.88938 0
M  V30 1332 H 132.728 0.47264 -3.085 0
M  V30 1333 N 133.029 1.57378 -0.0835403 0
M  V30 1334 C 133.992 2.12252 0.864959 0
M  V30 1335 C 134.992 1.04916 1.21858 0
M  V30 1336 O 136.182 1.30853 1.14991 0
M  V30 1337 C 133.314 2.63358 2.16461 0
M  V30 1338 H 134.507 2.97371 0.388676 0
M  V30 1339 H 132.06 1.55423 0.165317 0
M  V30 1340 H 132.795 1.81727 2.686 0
M  V30 1341 H 132.58 3.41826 1.92087 0
M  V30 1342 H 134.07 3.05847 2.84337 0
M  V30 1343 N 134.507 -0.190092 1.56449 0
M  V30 1344 C 135.923 -0.54113 1.50146 0
M  V30 1345 C 136.123 -1.85603 0.784465 0
M  V30 1346 O 135.179 -2.5024 0.337051 0
M  V30 1347 C 136.492 -0.591241 2.9483 0
M  V30 1348 C 138.04 -0.679732 3.0553 0
M  V30 1349 C 138.515 -0.760908 4.51635 0
M  V30 1350 N 140.006 -0.824302 4.55806 0
M  V30 1351 C 140.741 -0.907365 5.66175 0
M  V30 1352 N 140.237 -0.952422 6.86222 0
M  V30 1353 N 142.03 -0.94494 5.541 0
M  V30 1354 H 134.181 0.67235 2.01478 0
M  V30 1355 H 136.444 0.240127 0.917084 0
M  V30 1356 H 136.15 0.305905 3.50367 0
M  V30 1357 H 136.024 -1.44422 3.48457 0
M  V30 1358 H 138.411 -1.56731 2.50039 0
M  V30 1359 H 138.492 0.199549 2.5502 0
M  V30 1360 H 138.136 0.122336 5.07753 0
M  V30 1361 H 138.066 -1.65606 4.99882 0
M  V30 1362 H 140.557 -0.798526 3.69367 0
M  V30 1363 H 140.87 -1.01645 7.66086 0
M  V30 1364 H 139.215 -0.921014 6.8887 0
M  V30 1365 H 142.406 -0.906612 4.59236 0
M  V30 1366 H 142.579 -1.00622 6.4014 0
M  V30 1367 N 135.985 -1.50799 -0.457987 0
M  V30 1368 C 137.21 -1.66496 -1.23668 0
M  V30 1369 C 137.635 -0.353288 -1.84752 0
M  V30 1370 O 136.993 0.684346 -1.67888 0
M  V30 1371 C 137.041 -2.76763 -2.3116 0
M  V30 1372 O 136.145 -2.38928 -3.36136 0
M  V30 1373 H 135.486 -0.555828 -0.363252 0
M  V30 1374 H 138.016 -1.9725 -0.543474 0
M  V30 1375 H 138.026 -3.00232 -2.76269 0
M  V30 1376 H 136.701 -3.71954 -1.86073 0
M  V30 1377 H 135.278 -2.25953 -2.96647 0
M  V30 1378 N 137.463 0.71206 -1.40597 0
M  V30 1379 C 138.393 1.83889 -1.43899 0
M  V30 1380 C 139.374 1.67442 -0.299504 0
M  V30 1381 O 140.559 1.87421 -0.508624 0
M  V30 1382 C 137.689 3.21877 -1.30431 0
M  V30 1383 C 136.643 3.53002 -2.42019 0
M  V30 1384 C 135.969 4.90172 -2.13626 0
M  V30 1385 C 137.269 3.53643 -3.84362 0
M  V30 1386 H 138.963 1.81383 -2.38203 0
M  V30 1387 H 136.509 0.871237 -1.14654 0
M  V30 1388 H 138.462 4.00404 -1.31357 0
M  V30 1389 H 137.186 3.24968 -0.326049 0
M  V30 1390 H 135.845 2.76818 -2.40349 0
M  V30 1391 H 135.493 4.89869 -1.14182 0
M  V30 1392 H 135.193 5.11962 -2.88389 0
M  V30 1393 H 136.717 5.71028 -2.1624 0
M  V30 1394 H 138.131 4.22203 -3.87837 0
M  V30 1395 H 136.528 3.86961 -4.58673 0
M  V30 1396 H 137.598 2.52954 -4.13693 0
M  V30 1397 N 138.941 1.26152 0.944643 0
M  V30 1398 C 140.169 1.14259 1.72489 0
M  V30 1399 C 140.584 -0.302555 1.8636 0
M  V30 1400 O 139.941 -1.20741 1.36849 0
M  V30 1401 C 139.992 1.80266 3.13347 0
M  V30 1402 O 139.713 3.19133 3.00143 0
M  V30 1403 C 141.214 1.74283 4.07603 0
M  V30 1404 H 138.434 0.398051 0.540181 0
M  V30 1405 H 140.978 1.66706 1.18446 0
M  V30 1406 H 139.133 1.31766 3.64303 0
M  V30 1407 H 139.547 3.51744 3.89071 0
M  V30 1408 H 141.021 2.25111 5.04013 0
M  V30 1409 H 141.498 0.708631 4.33446 0
M  V30 1410 H 142.104 2.22319 3.62567 0
M  V30 1411 N 140.419 -1.14872 1.07899 0
M  V30 1412 C 141.83 -1.67367 0.827363 0
M  V30 1413 C 142.181 -1.85236 -0.646693 0
M  V30 1414 O 141.306 -1.55974 -1.50004 0
M  V30 1415 C 141.901 -3.04016 1.49532 0
M  V30 1416 C 140.46 -3.53566 1.29106 0
M  V30 1417 C 139.607 -2.29161 1.56143 0
M  V30 1418 H 142.558 -0.990083 1.24028 0
M  V30 1419 H 142.579 -3.69219 0.919643 0
M  V30 1420 H 142.091 -2.90978 2.56814 0
M  V30 1421 H 140.192 -3.71835 0.238713 0
M  V30 1422 H 140.305 -4.34661 2.01511 0
M  V30 1423 H 138.669 -2.34978 0.982717 0
M  V30 1424 H 139.452 -2.18705 2.64619 0
M  V30 1425 N 141.898 -0.863906 -1.31812 0
M  V30 1426 C 143.138 -0.47825 -1.98726 0
M  V30 1427 C 143.502 0.950397 -1.66828 0
M  V30 1428 O 144.703 1.44109 -2.26905 0
M  V30 1429 C 142.974 -0.721134 -3.50049 0
M  V30 1430 S 144.533 -0.434432 -4.36644 0
M  V30 1431 H 141.351 -0.178773 -0.688158 0
M  V30 1432 H 143.953 -1.11862 -1.60334 0
M  V30 1433 H 142.657 -1.75981 -3.70755 0
M  V30 1434 H 142.188 -0.0675315 -3.93342 0
M  V30 1435 H 144.203 0.735786 -4.90714 0
M  V30 1436 N 143.376 1.44774 -0.622745 0
M  V30 1437 C 144.604 2.06487 -0.130722 0
M  V30 1438 C 145.019 1.46476 1.19123 0
M  V30 1439 O 144.376 0.584502 1.72887 0
M  V30 1440 C 144.427 3.615 -0.000807207 0
M  V30 1441 O 144.148 4.19274 -1.27048 0
M  V30 1442 C 145.649 4.40229 0.520898 0
M  V30 1443 H 142.869 0.666704 -0.0758106 0
M  V30 1444 H 145.413 1.85779 -0.854774 0
M  V30 1445 H 143.568 3.81498 0.673643 0
M  V30 1446 H 143.982 5.12622 -1.1099 0
M  V30 1447 H 145.456 5.49144 0.560838 0
M  V30 1448 H 145.933 4.1108 1.54627 0
M  V30 1449 H 146.539 4.25131 -0.120018 0
M  V30 1450 N 144.854 0.36279 1.53368 0
M  V30 1451 C 146.094 -0.227882 2.03126 0
M  V30 1452 C 146.458 -1.4622 1.24434 0
M  V30 1453 O 147.659 -2.12831 1.64184 0
M  V30 1454 C 145.93 -0.515427 3.53664 0
M  V30 1455 S 147.489 -1.08017 4.25297 0
M  V30 1456 H 144.307 -0.0665377 0.70788 0
M  V30 1457 H 146.909 0.50501 1.88865 0
M  V30 1458 H 145.613 0.390436 4.08539 0
M  V30 1459 H 145.144 -1.27747 3.72081 0
M  V30 1460 H 147.159 -2.36462 4.36234 0
M  V30 1461 N 146.332 -1.57332 0.0918853 0
M  V30 1462 C 147.58 -1.93853 -0.571446 0
M  V30 1463 C 147.901 -0.974212 -1.6892 0
M  V30 1464 O 147.171 -0.0257254 -1.95883 0
M  V30 1465 H 145.751 -0.715666 -0.214082 0
M  V30 1466 H 148.413 -1.94287 0.154464 0
M  V30 1467 H 147.509 -2.96191 -0.983729 0
M  V30 1468 N 147.81 0.181792 -1.56548 0
M  V30 1469 C 149.035 0.920019 -1.85877 0
M  V30 1470 C 149.46 1.75494 -0.677021 0
M  V30 1471 O 148.818 1.77399 0.374056 0
M  V30 1472 C 148.866 1.78112 -3.13542 0
M  V30 1473 O 147.97 2.88152 -2.95029 0
M  V30 1474 H 147.311 0.258334 -0.611686 0
M  V30 1475 H 149.841 0.183092 -2.03779 0
M  V30 1476 H 149.851 2.18314 -3.44678 0
M  V30 1477 H 148.526 1.16777 -3.99169 0
M  V30 1478 H 147.103 2.51609 -2.75222 0
M  V30 1479 N 149.288 1.51039 0.449983 0
M  V30 1480 C 150.513 1.6715 1.22783 0
M  V30 1481 C 150.938 0.363081 1.84563 0
M  V30 1482 O 150.296 -0.675433 1.68249 0
M  V30 1483 C 150.344 2.77985 2.29689 0
M  V30 1484 O 149.448 2.40707 3.34864 0
M  V30 1485 H 148.789 0.557746 0.360299 0
M  V30 1486 H 151.319 1.97535 0.533005 0
M  V30 1487 H 151.329 3.01693 2.74673 0
M  V30 1488 H 150.004 3.72935 1.84098 0
M  V30 1489 H 148.581 2.27523 2.95445 0
M  V30 1490 N 150.766 -0.704594 1.40972 0
M  V30 1491 C 152.043 -1.45847 1.30338 0
M  V30 1492 C 152.423 -2.10973 -0.0732344 0
M  V30 1493 O 151.771 -2.00997 -1.08685 0
M  V30 1494 C 151.981 -2.48525 2.45023 0
M  V30 1495 C 153.329 -3.1404 2.8577 0
M  V30 1496 O 154.353 -2.58848 2.44696 0
M  V30 1497 O 153.212 -4.13981 3.56766 0
M  V30 1498 H 150.306 -0.649092 0.512454 0
M  V30 1499 H 152.852 -0.735836 1.52917 0
M  V30 1500 H 151.624 -1.98994 3.36923 0
M  V30 1501 H 151.247 -3.2831 2.24272 0
M  V30 1502 N 152.244 -1.26651 -0.937939 0
M  V30 1503 C 153.174 -1.10993 -2.05433 0
M  V30 1504 C 154.155 -0.0142161 -1.70094 0
M  V30 1505 O 155.34 -0.186837 -1.93299 0
M  V30 1506 C 152.47 -0.745561 -3.39203 0
M  V30 1507 C 151.424 -1.79337 -3.88616 0
M  V30 1508 C 150.75 -1.28324 -5.19073 0
M  V30 1509 C 152.05 -3.19553 -4.13138 0
M  V30 1510 H 153.744 -2.0438 -2.1879 0
M  V30 1511 H 151.29 -0.984041 -1.05131 0
M  V30 1512 H 153.243 -0.622888 -4.16771 0
M  V30 1513 H 151.967 0.22401 -3.25831 0
M  V30 1514 H 150.626 -1.90477 -3.13231 0
M  V30 1515 H 150.274 -0.303414 -5.02084 0
M  V30 1516 H 149.974 -1.98369 -5.53103 0
M  V30 1517 H 151.498 -1.1733 -5.99221 0
M  V30 1518 H 152.912 -3.11471 -4.81309 0
M  V30 1519 H 151.309 -3.87218 -4.58457 0
M  V30 1520 H 152.379 -3.65368 -3.18801 0
M  V30 1521 N 153.722 1.14298 -1.08507 0
M  V30 1522 C 154.952 1.88945 -0.835663 0
M  V30 1523 C 155.36 1.78894 0.615928 0
M  V30 1524 O 154.703 1.1468 1.43506 0
M  V30 1525 C 154.765 3.39585 -1.17994 0
M  V30 1526 C 154.429 3.7342 -2.63451 0
M  V30 1527 C 155.426 3.73454 -3.61702 0
M  V30 1528 C 153.111 4.03368 -2.99332 0
M  V30 1529 C 155.105 4.02961 -4.93864 0
M  V30 1530 C 152.792 4.32538 -4.31687 0
M  V30 1531 C 153.79 4.32318 -5.28763 0
M  V30 1532 O 153.478 4.6078 -6.58739 0
M  V30 1533 H 153.21 0.605307 -0.300965 0
M  V30 1534 H 155.764 1.45673 -1.44806 0
M  V30 1535 H 153.994 3.83315 -0.51055 0
M  V30 1536 H 155.683 3.9554 -0.911182 0
M  V30 1537 H 156.449 3.50403 -3.35325 0
M  V30 1538 H 152.328 4.02692 -2.24411 0
M  V30 1539 H 155.872 4.02704 -5.69627 0
M  V30 1540 H 151.769 4.55059 -4.57812 0
M  V30 1541 H 152.537 4.78492 -6.64069 0
M  V30 1542 N 155.201 0.870884 1.31352 0
M  V30 1543 C 156.131 0.343096 2.30966 0
M  V30 1544 C 157.112 -0.566507 1.60389 0
M  V30 1545 O 158.297 -0.483336 1.88089 0
M  V30 1546 C 155.427 -0.455487 3.443 0
M  V30 1547 C 154.381 0.361103 4.26474 0
M  V30 1548 C 153.707 -0.563221 5.31725 0
M  V30 1549 C 155.007 1.59566 4.97329 0
M  V30 1550 H 156.701 1.17548 2.75359 0
M  V30 1551 H 154.247 0.566686 1.32381 0
M  V30 1552 H 156.2 -0.83525 4.13039 0
M  V30 1553 H 154.924 -1.32139 2.98675 0
M  V30 1554 H 153.583 0.722825 3.59403 0
M  V30 1555 H 153.231 -1.42643 4.82351 0
M  V30 1556 H 152.931 -0.0207409 5.87596 0
M  V30 1557 H 154.455 -0.939808 6.03324 0
M  V30 1558 H 155.869 1.28728 5.58661 0
M  V30 1559 H 154.266 2.07728 5.63 0
M  V30 1560 H 155.336 2.34798 4.24262 0
M  V30 1561 N 156.679 -1.44442 0.630414 0
M  V30 1562 C 157.925 -2.02351 0.134816 0
M  V30 1563 C 158.258 -1.4947 -1.23986 0
M  V30 1564 O 157.533 -0.678475 -1.82283 0
M  V30 1565 C 157.816 -3.59898 0.120707 0
M  V30 1566 C 157.669 -4.23063 1.52767 0
M  V30 1567 C 158.988 -4.36585 -0.555127 0
M  V30 1568 H 156.107 -0.73527 0.0504646 0
M  V30 1569 H 158.749 -1.72022 0.806751 0
M  V30 1570 H 156.899 -3.85868 -0.451477 0
M  V30 1571 H 158.571 -4.08202 2.14869 0
M  V30 1572 H 156.814 -3.80586 2.08175 0
M  V30 1573 H 157.485 -5.32071 1.46984 0
M  V30 1574 H 159.961 -4.16044 -0.0685429 0
M  V30 1575 H 158.837 -5.46294 -0.534185 0
M  V30 1576 H 159.098 -4.11138 -1.62535 0
M  V30 1577 N 158.157 -0.370918 -1.53173 0
M  V30 1578 C 159.385 0.217704 -2.05751 0
M  V30 1579 C 159.8 1.42018 -1.24404 0
M  V30 1580 O 159.157 1.80245 -0.286033 0
M  V30 1581 C 159.208 0.605954 -3.56385 0
M  V30 1582 O 158.929 -0.548734 -4.3465 0
M  V30 1583 C 160.43 1.2524 -4.25241 0
M  V30 1584 H 157.65 0.0371659 -0.66997 0
M  V30 1585 H 160.194 -0.530832 -1.9749 0
M  V30 1586 H 158.349 1.3044 -3.6478 0
M  V30 1587 H 158.763 -0.23376 -5.23979 0
M  V30 1588 H 160.237 1.47458 -5.3194 0
M  V30 1589 H 160.714 2.2143 -3.79296 0
M  V30 1590 H 161.32 0.595233 -4.21114 0
M  V30 1591 N 159.635 1.57281 -0.100228 0
M  V30 1592 C 161.051 1.57527 0.256416 0
M  V30 1593 C 161.251 1.11173 1.68056 0
M  V30 1594 O 160.307 0.79053 2.39806 0
M  V30 1595 C 161.62 3.00673 0.0401747 0
M  V30 1596 C 163.168 3.12815 0.107528 0
M  V30 1597 C 163.643 4.57929 -0.0807834 0
M  V30 1598 N 165.134 4.63193 -0.0261207 0
M  V30 1599 C 165.869 5.73212 -0.146999 0
M  V30 1600 N 165.365 6.92047 -0.322999 0
M  V30 1601 N 167.158 5.62031 -0.0879044 0
M  V30 1602 H 159.309 1.85718 -1.03065 0
M  V30 1603 H 161.572 0.857446 -0.404339 0
M  V30 1604 H 161.278 3.38804 -0.943649 0
M  V30 1605 H 161.152 3.69042 0.780262 0
M  V30 1606 H 163.539 2.74554 1.08186 0
M  V30 1607 H 163.62 2.47028 -0.664134 0
M  V30 1608 H 163.264 4.96886 -1.05201 0
M  V30 1609 H 163.194 5.21783 0.710635 0
M  V30 1610 H 165.685 3.77748 0.107161 0
M  V30 1611 H 165.998 7.7173 -0.406608 0
M  V30 1612 H 164.343 6.94074 -0.358733 0
M  V30 1613 H 167.534 4.68075 0.048498 0
M  V30 1614 H 167.707 6.47734 -0.185557 0
M  V30 1615 N 161.113 -0.173488 1.56642 0
M  V30 1616 C 162.063 -1.21941 1.92651 0
M  V30 1617 C 163.047 -1.39912 0.794577 0
M  V30 1618 O 164.239 -1.41919 1.05773 0
M  V30 1619 C 161.368 -2.55935 2.28806 0
M  V30 1620 C 160.454 -2.41667 3.48508 0
M  V30 1621 N 160.845 -1.9711 4.65813 0
M  V30 1622 C 159.143 -2.72499 3.53072 0
M  V30 1623 C 159.844 -1.95253 5.47952 0
M  V30 1624 N 158.82 -2.37575 4.88937 0
M  V30 1625 H 162.622 -0.866581 2.80834 0
M  V30 1626 H 160.136 -0.381776 1.57849 0
M  V30 1627 H 162.133 -3.31511 2.52797 0
M  V30 1628 H 160.793 -2.92022 1.41961 0
M  V30 1629 H 161.804 -1.67481 4.90072 0
M  V30 1630 H 158.481 -3.12639 2.767 0
M  V30 1631 H 159.871 -1.6252 6.51948 0
M  V30 1632 N 162.591 -1.51276 -0.441967 0
M  V30 1633 C 163.554 -1.7167 -1.51862 0
M  V30 1634 C 164.554 -0.586793 -1.49711 0
M  V30 1635 O 165.744 -0.854276 -1.51815 0
M  V30 1636 C 162.876 -1.76889 -2.91416 0
M  V30 1637 H 164.069 -2.67754 -1.35084 0
M  V30 1638 H 161.622 -1.41196 -0.670333 0
M  V30 1639 H 162.357 -0.826026 -3.13604 0
M  V30 1640 H 162.142 -2.59001 -2.94382 0
M  V30 1641 H 163.632 -1.94522 -3.69528 0
M  V30 1642 N 164.069 0.697108 -1.41344 0
M  V30 1643 C 165.346 1.45154 -1.31109 0
M  V30 1644 C 165.726 2.11009 0.0620449 0
M  V30 1645 O 165.074 2.01571 1.07618 0
M  V30 1646 C 165.284 2.47223 -2.46337 0
M  V30 1647 C 166.632 3.1252 -2.87431 0
M  V30 1648 O 167.656 2.57547 -2.46065 0
M  V30 1649 O 166.515 4.12083 -3.58957 0
M  V30 1650 H 163.609 0.646365 -0.515889 0
M  V30 1651 H 166.155 0.727716 -1.53305 0
M  V30 1652 H 164.927 1.97204 -3.37974 0
M  V30 1653 H 164.55 3.27116 -2.2601 0
M  V30 1654 N 165.547 1.27147 0.931209 0
M  V30 1655 C 166.793 1.13446 1.68101 0
M  V30 1656 C 167.126 -0.319628 1.91552 0
M  V30 1657 O 166.401 -1.23407 1.50336 0
M  V30 1658 C 166.684 1.91482 3.0497 0
M  V30 1659 C 166.537 3.44855 2.88782 0
M  V30 1660 C 167.856 1.71651 4.05246 0
M  V30 1661 H 164.975 0.413498 0.610072 0
M  V30 1662 H 167.617 1.56261 1.08086 0
M  V30 1663 H 165.767 1.55095 3.56199 0
M  V30 1664 H 167.439 3.9105 2.44698 0
M  V30 1665 H 165.682 3.71373 2.24198 0
M  V30 1666 H 166.353 3.94694 3.85902 0
M  V30 1667 H 168.829 2.0337 3.63015 0
M  V30 1668 H 167.705 2.28651 4.99009 0
M  V30 1669 H 167.966 0.663555 4.37092 0
M  V30 1670 N 167.025 -1.13721 1.09112 0
M  V30 1671 C 168.274 -1.84275 0.82009 0
M  V30 1672 C 168.587 -1.84253 -0.656509 0
M  V30 1673 O 169.793 -2.50668 -1.04296 0
M  V30 1674 C 168.249 -3.30825 1.41714 0
M  V30 1675 C 167.857 -3.39244 2.92605 0
M  V30 1676 C 169.601 -4.06443 1.22492 0
M  V30 1677 C 167.508 -4.80047 3.45411 0
M  V30 1678 H 166.438 -0.690387 0.30312 0
M  V30 1679 H 169.089 -1.28146 1.31343 0
M  V30 1680 H 167.471 -3.86737 0.851498 0
M  V30 1681 H 168.645 -2.93344 3.55367 0
M  V30 1682 H 166.96 -2.77088 3.10823 0
M  V30 1683 H 169.557 -5.10387 1.59402 0
M  V30 1684 H 169.9 -4.15972 0.165299 0
M  V30 1685 H 170.433 -3.56852 1.75788 0
M  V30 1686 H 167.172 -4.75709 4.50978 0
M  V30 1687 H 166.692 -5.26455 2.87411 0
M  V30 1688 H 168.371 -5.48957 3.42425 0
M  V30 1689 N 168.503 -0.877838 -1.30888 0
M  V30 1690 C 169.914 -0.544193 -1.78593 0
M  V30 1691 C 170.265 0.939301 -1.72254 0
M  V30 1692 O 169.39 1.7337 -1.29505 0
M  V30 1693 C 169.985 -0.98105 -3.24285 0
M  V30 1694 C 168.544 -0.698935 -3.69854 0
M  V30 1695 C 167.691 -1.168 -2.51502 0
M  V30 1696 H 170.642 -1.06278 -1.17859 0
M  V30 1697 H 170.663 -0.307009 -3.79259 0
M  V30 1698 H 170.175 -2.06079 -3.28866 0
M  V30 1699 H 168.276 0.369112 -3.70767 0
M  V30 1700 H 168.389 -1.28148 -4.61644 0
M  V30 1701 H 166.753 -0.587535 -2.47831 0
M  V30 1702 H 167.536 -2.25533 -2.58824 0
M  V30 1703 N 169.982 1.44106 -0.638065 0
M  V30 1704 C 171.228 2.02277 -0.145546 0
M  V30 1705 C 171.561 1.50125 1.23191 0
M  V30 1706 O 170.836 0.688133 1.8192 0
M  V30 1707 C 171.119 3.59829 -0.139791 0
M  V30 1708 C 170.972 4.22247 -1.55008 0
M  V30 1709 C 172.291 4.36873 0.531966 0
M  V30 1710 H 169.41 0.734992 -0.0543632 0
M  V30 1711 H 172.052 1.71592 -0.815863 0
M  V30 1712 H 170.202 3.86102 0.431007 0
M  V30 1713 H 171.874 4.07057 -2.1703 0
M  V30 1714 H 170.117 3.79476 -2.10191 0
M  V30 1715 H 170.788 5.31284 -1.49804 0
M  V30 1716 H 173.264 4.16074 0.0464781 0
M  V30 1717 H 172.14 5.4657 0.505206 0
M  V30 1718 H 172.401 4.11995 1.60352 0
M  V30 1719 N 171.46 0.379036 1.52974 0
M  V30 1720 C 172.876 0.0285448 1.59574 0
M  V30 1721 C 173.076 -1.45542 1.39355 0
M  V30 1722 O 172.132 -2.2187 1.20541 0
M  V30 1723 C 173.445 0.496535 2.96572 0
M  V30 1724 C 174.993 0.451909 3.0972 0
M  V30 1725 C 175.468 0.895924 4.49152 0
M  V30 1726 N 176.959 0.851522 4.55306 0
M  V30 1727 C 177.694 1.16661 5.61407 0
M  V30 1728 N 177.19 1.55166 6.752 0
M  V30 1729 N 178.983 1.08853 5.51459 0
M  V30 1730 H 171.134 1.34525 1.64367 0
M  V30 1731 H 173.397 0.550733 0.771619 0
M  V30 1732 H 173.103 1.53258 3.16552 0
M  V30 1733 H 172.977 -0.109802 3.7704 0
M  V30 1734 H 175.364 -0.575029 2.89443 0
M  V30 1735 H 175.445 1.09392 2.3123 0
M  V30 1736 H 175.089 1.92104 4.70168 0
M  V30 1737 H 175.019 0.23103 5.26093 0
M  V30 1738 H 177.51 0.568038 3.73606 0
M  V30 1739 H 177.823 1.776 7.52116 0
M  V30 1740 H 176.168 1.59044 6.76557 0
M  V30 1741 H 179.359 0.786803 4.6144 0
M  V30 1742 H 179.532 1.33742 6.34048 0
M  V30 1743 N 172.938 -1.57226 0.108567 0
M  V30 1744 C 174.354 -1.5766 -0.248058 0
M  V30 1745 C 174.554 -1.12063 -1.67464 0
M  V30 1746 O 173.61 -0.803236 -2.39383 0
M  V30 1747 C 174.923 -3.0069 -0.0242287 0
M  V30 1748 C 176.471 -3.12868 -0.0909372 0
M  V30 1749 C 176.946 -4.57879 0.105067 0
M  V30 1750 N 178.437 -4.63172 0.0506846 0
M  V30 1751 C 179.172 -5.73126 0.177396 0
M  V30 1752 N 178.668 -6.91866 0.359696 0
M  V30 1753 N 180.461 -5.61977 0.117709 0
M  V30 1754 H 172.612 -1.85169 1.04049 0
M  V30 1755 H 174.875 -0.85529 0.40888 0
M  V30 1756 H 174.581 -3.38299 0.961604 0
M  V30 1757 H 174.455 -3.6945 -0.76068 0
M  V30 1758 H 176.842 -2.75124 -1.06729 0
M  V30 1759 H 176.923 -2.46672 0.677225 0
M  V30 1760 H 176.567 -4.96321 1.07834 0
M  V30 1761 H 176.497 -5.22153 -0.682954 0
M  V30 1762 H 178.988 -3.778 -0.0871266 0
M  V30 1763 H 179.301 -7.71503 0.447529 0
M  V30 1764 H 177.646 -6.93874 0.395536 0
M  V30 1765 H 180.837 -4.68094 -0.0236741 0
M  V30 1766 H 181.01 -6.47627 0.219905 0
M  V30 1767 N 174.416 0.165178 -1.56732 0
M  V30 1768 C 175.832 0.517174 -1.50988 0
M  V30 1769 C 176.032 1.84331 -0.813894 0
M  V30 1770 O 175.088 2.49672 -0.37682 0
M  V30 1771 C 176.401 0.544261 -2.95733 0
M  V30 1772 C 177.949 0.631039 -3.06573 0
M  V30 1773 C 178.424 0.68896 -4.52788 0
M  V30 1774 N 179.915 0.751683 -4.5706 0
M  V30 1775 C 180.65 0.817177 -5.67547 0
M  V30 1776 N 180.146 0.843129 -6.8765 0
M  V30 1777 N 181.939 0.856668 -5.55534 0
M  V30 1778 H 174.09 -0.704318 -2.00382 0
M  V30 1779 H 176.353 -0.254687 -0.913148 0
M  V30 1780 H 176.059 -0.361607 -3.49836 0
M  V30 1781 H 175.933 1.3886 -3.5071 0
M  V30 1782 H 178.32 1.52733 -2.52501 0
M  V30 1783 H 178.401 -0.240095 -2.54671 0
M  V30 1784 H 178.045 -0.2031 -5.07494 0
M  V30 1785 H 177.975 1.57633 -5.02454 0
M  V30 1786 H 180.466 0.739661 -3.70591 0
M  V30 1787 H 180.779 0.894448 -7.67606 0
M  V30 1788 H 179.124 0.811304 -6.90248 0
M  V30 1789 H 182.315 0.833437 -4.60621 0
M  V30 1790 H 182.488 0.904247 -6.4166 0
M  V30 1791 N 175.894 1.51508 0.433938 0
M  V30 1792 C 177.142 1.6402 1.18075 0
M  V30 1793 C 177.463 0.360328 1.91642 0
M  V30 1794 O 176.733 -0.623945 1.85698 0
M  V30 1795 H 175.313 0.6045 0.43885 0
M  V30 1796 H 177.975 1.88452 0.497178 0
M  V30 1797 H 177.071 2.46949 1.90847 0
M  V30 1798 N 177.372 -0.689602 1.41712 0
M  V30 1799 C 178.649 -1.44457 1.31877 0
M  V30 1800 C 179.029 -2.11039 -0.0508537 0
M  V30 1801 O 178.377 -2.02138 -1.06547 0
M  V30 1802 C 178.587 -2.45913 2.47645 0
M  V30 1803 C 179.935 -3.10991 2.89084 0
M  V30 1804 O 180.959 -2.56238 2.47428 0
M  V30 1805 O 179.818 -4.10174 3.61137 0
M  V30 1806 H 176.912 -0.64362 0.519309 0
M  V30 1807 H 179.458 -0.719576 1.53689 0
M  V30 1808 H 178.23 -1.95409 3.39015 0
M  V30 1809 H 177.853 -3.25913 2.27742 0
M  V30 1810 N 178.85 -1.27639 -0.924453 0
M  V30 1811 C 180.075 -1.17101 -1.71179 0
M  V30 1812 C 180.5 0.268134 -1.86179 0
M  V30 1813 O 179.858 1.19415 -1.36418 0
M  V30 1814 C 179.906 -1.86313 -3.08739 0
M  V30 1815 O 179.01 -1.16331 -3.95652 0
M  V30 1816 H 178.351 -0.407091 -0.524569 0
M  V30 1817 H 180.881 -1.68767 -1.15666 0
M  V30 1818 H 180.891 -1.938 -3.59034 0
M  V30 1819 H 179.566 -2.91001 -2.97138 0
M  V30 1820 H 178.143 -1.16935 -3.54091 0
M  V30 1821 N 180.328 1.1314 -1.09713 0
M  V30 1822 C 181.744 1.36477 -0.827423 0
M  V30 1823 C 181.944 1.93654 0.556817 0
M  V30 1824 O 181 2.15791 1.31112 0
M  V30 1825 C 182.313 2.31334 -1.92106 0
M  V30 1826 C 183.861 2.44943 -1.94864 0
M  V30 1827 C 184.336 3.4311 -3.0338 0
M  V30 1828 N 185.827 3.50662 -3.02639 0
M  V30 1829 C 186.562 4.2651 -3.83246 0
M  V30 1830 N 186.058 5.05485 -4.73768 0
M  V30 1831 N 187.851 4.2184 -3.71493 0
M  V30 1832 H 180.002 0.743807 -1.9895 0
M  V30 1833 H 182.265 0.389823 -0.864143 0
M  V30 1834 H 181.971 1.96483 -2.91698 0
M  V30 1835 H 181.845 3.31381 -1.80184 0
M  V30 1836 H 184.232 2.79079 -0.959099 0
M  V30 1837 H 184.313 1.4481 -2.10864 0
M  V30 1838 H 183.957 3.09704 -4.02549 0
M  V30 1839 H 183.887 4.43055 -2.84622 0
M  V30 1840 H 186.378 2.94315 -2.37039 0
M  V30 1841 H 186.691 5.60675 -5.3185 0
M  V30 1842 H 185.036 5.04708 -4.77802 0
M  V30 1843 H 188.227 3.5922 -3.00131 0
M  V30 1844 H 188.4 4.80697 -4.3455 0
M  V30 1845 N 181.806 0.884767 1.30421 0
M  V30 1846 C 183.054 0.502112 1.95763 0
M  V30 1847 C 183.375 -0.951815 1.70192 0
M  V30 1848 O 182.645 -1.6692 1.0254 0
M  V30 1849 H 181.225 0.182694 0.724315 0
M  V30 1850 H 183.887 1.1278 1.58955 0
M  V30 1851 H 182.983 0.672188 3.04775 0
M  V30 1852 N 183.284 -1.43765 0.645699 0
M  V30 1853 C 184.509 -2.06767 0.161883 0
M  V30 1854 C 184.934 -1.48034 -1.16049 0
M  V30 1855 O 184.292 -0.587369 -1.71522 0
M  V30 1856 C 184.34 -3.60519 0.0762003 0
M  V30 1857 O 183.444 -4.00982 -0.963721 0
M  V30 1858 H 182.785 -0.657675 0.091429 0
M  V30 1859 H 185.315 -1.84397 0.886499 0
M  V30 1860 H 185.325 -4.07853 -0.109604 0
M  V30 1861 H 184 -4.02646 1.04157 0
M  V30 1862 H 182.577 -3.65253 -0.751312 0
M  V30 1863 N 184.763 -0.387143 -1.52771 0
M  V30 1864 C 185.693 0.440551 -2.29306 0
M  V30 1865 C 186.674 1.06535 -1.32606 0
M  V30 1866 O 187.859 1.07853 -1.61497 0
M  V30 1867 C 184.989 1.56919 -3.09829 0
M  V30 1868 C 183.943 1.07054 -4.14395 0
M  V30 1869 C 183.269 2.29109 -4.83129 0
M  V30 1870 C 184.569 0.140015 -5.22112 0
M  V30 1871 H 186.263 -0.198026 -2.98744 0
M  V30 1872 H 183.809 -0.09668 -1.43675 0
M  V30 1873 H 185.762 2.15503 -3.62128 0
M  V30 1874 H 184.486 2.23532 -2.3812 0
M  V30 1875 H 183.145 0.507247 -3.63074 0
M  V30 1876 H 182.793 2.94227 -4.0797 0
M  V30 1877 H 182.493 1.96406 -5.53804 0
M  V30 1878 H 184.017 2.88339 -5.38231 0
M  V30 1879 H 185.431 0.633978 -5.69784 0
M  V30 1880 H 183.828 -0.0971485 -6.00021 0
M  V30 1881 H 184.898 -0.811711 -4.78058 0
M  V30 1882 N 186.241 1.57166 -0.116904 0
M  V30 1883 C 187.171 2.18222 0.830759 0
M  V30 1884 C 188.152 1.12167 1.27877 0
M  V30 1885 O 189.337 1.40394 1.34176 0
M  V30 1886 C 186.467 2.77996 2.08172 0
M  V30 1887 C 185.421 3.89614 1.77157 0
M  V30 1888 C 184.747 4.36187 3.09265 0
M  V30 1889 C 186.047 5.1181 1.04151 0
M  V30 1890 H 187.741 2.97664 0.321992 0
M  V30 1891 H 185.287 1.4318 0.153434 0
M  V30 1892 H 187.24 3.19366 2.74924 0
M  V30 1893 H 185.964 1.9584 2.6137 0
M  V30 1894 H 184.623 3.48816 1.12796 0
M  V30 1895 H 184.271 3.50893 3.60393 0
M  V30 1896 H 183.971 5.11455 2.89288 0
M  V30 1897 H 185.495 4.80207 3.77139 0
M  V30 1898 H 186.909 5.50214 1.61052 0
M  V30 1899 H 185.306 5.92648 0.942762 0
M  V30 1900 H 186.376 4.84892 0.0279022 0
M  V30 1901 N 187.719 -0.156864 1.56817 0
M  V30 1902 C 188.944 -0.890331 1.87318 0
M  V30 1903 C 189.369 -1.74394 0.704855 0
M  V30 1904 O 188.727 -1.77972 -0.345786 0
M  V30 1905 C 188.775 -1.73102 3.16336 0
M  V30 1906 O 187.879 -2.83422 2.99576 0
M  V30 1907 H 187.22 -0.24857 0.615718 0
M  V30 1908 H 189.75 -0.150649 2.04045 0
M  V30 1909 H 189.76 -2.12803 3.48107 0
M  V30 1910 H 188.435 -1.10412 4.00976 0
M  V30 1911 H 187.012 -2.47199 2.7919 0
M  V30 1912 N 189.197 -1.51736 -0.425897 0
M  V30 1913 C 190.608 -1.5732 -1.00536 0
M  V30 1914 C 190.959 -0.403537 -1.92005 0
M  V30 1915 O 190.084 0.478256 -2.11049 0
M  V30 1916 C 190.679 -2.85119 -1.8301 0
M  V30 1917 C 189.238 -2.93236 -2.35987 0
M  V30 1918 C 188.385 -2.52098 -1.15508 0
M  V30 1919 H 191.336 -1.57348 -0.206739 0
M  V30 1920 H 191.357 -2.69526 -2.68581 0
M  V30 1921 H 190.869 -3.7023 -1.16411 0
M  V30 1922 H 188.97 -2.12581 -3.06007 0
M  V30 1923 H 189.083 -3.9713 -2.68001 0
M  V30 1924 H 187.447 -2.05558 -1.50393 0
M  V30 1925 H 188.23 -3.39565 -0.505014 0
M  V30 1926 N 190.675 0.682077 -1.42076 0
M  V30 1927 C 192.091 0.994324 -1.24841 0
M  V30 1928 C 192.291 2.0096 -0.147389 0
M  V30 1929 O 191.347 2.47822 0.483782 0
M  V30 1930 C 192.66 1.50607 -2.60265 0
M  V30 1931 C 194.208 1.62421 -2.6756 0
M  V30 1932 C 194.683 2.16994 -4.03333 0
M  V30 1933 N 196.174 2.24337 -4.0525 0
M  V30 1934 C 196.909 2.67621 -5.07116 0
M  V30 1935 N 196.405 3.1041 -6.19368 0
M  V30 1936 N 198.198 2.67305 -4.94474 0
M  V30 1937 H 190.349 0.00973908 -2.12398 0
M  V30 1938 H 192.612 0.0668593 -0.945639 0
M  V30 1939 H 192.318 0.834583 -3.41654 0
M  V30 1940 H 192.192 2.48602 -2.83684 0
M  V30 1941 H 194.579 2.28678 -1.86521 0
M  V30 1942 H 194.66 0.629352 -2.47937 0
M  V30 1943 H 194.304 1.51349 -4.84826 0
M  V30 1944 H 194.234 3.17258 -4.20304 0
M  V30 1945 H 196.725 1.94158 -3.24209 0
M  V30 1946 H 197.038 3.42103 -6.92954 0
M  V30 1947 H 195.383 3.08286 -6.22884 0
M  V30 1948 H 198.574 2.33233 -4.05857 0
M  V30 1949 H 198.747 3.00718 -5.73997 0
M  V30 1950 N 192.153 1.28127 0.917671 0
M  V30 1951 C 193.564 1.13622 1.48145 0
M  V30 1952 C 193.915 -0.275207 1.9426 0
M  V30 1953 O 193.04 -1.1691 1.82102 0
M  V30 1954 C 193.635 2.05648 2.69248 0
M  V30 1955 C 192.194 1.95219 3.21818 0
M  V30 1956 C 191.341 1.97618 1.94532 0
M  V30 1957 H 194.292 1.40874 0.730772 0
M  V30 1958 H 194.313 1.61818 3.44377 0
M  V30 1959 H 193.825 3.08365 2.35653 0
M  V30 1960 H 191.926 0.955244 3.60147 0
M  V30 1961 H 192.039 2.81976 3.87333 0
M  V30 1962 H 190.403 1.41973 2.11461 0
M  V30 1963 H 191.186 3.02007 1.63238 0
M  V30 1964 N 193.631 -1.12557 1.10312 0
M  V30 1965 C 194.88 -1.83395 0.839588 0
M  V30 1966 C 195.193 -1.84939 -0.636929 0
M  V30 1967 O 196.399 -2.51761 -1.01631 0
M  V30 1968 C 194.855 -3.29303 1.45215 0
M  V30 1969 C 194.463 -3.36122 2.96186 0
M  V30 1970 C 196.207 -4.05121 1.26796 0
M  V30 1971 C 194.114 -4.76357 3.50483 0
M  V30 1972 H 193.044 -0.687133 0.310425 0
M  V30 1973 H 195.695 -1.26746 1.32694 0
M  V30 1974 H 194.077 -3.85812 0.892469 0
M  V30 1975 H 195.251 -2.89559 3.58458 0
M  V30 1976 H 193.566 -2.73776 3.13745 0
M  V30 1977 H 196.163 -5.08668 1.64806 0
M  V30 1978 H 196.506 -4.15773 0.209409 0
M  V30 1979 H 197.039 -3.54967 1.79563 0
M  V30 1980 H 193.778 -4.70899 4.55998 0
M  V30 1981 H 193.298 -5.23377 2.92978 0
M  V30 1982 H 194.977 -5.45294 3.48228 0
M  V30 1983 N 195.109 -0.891671 -1.2995 0
M  V30 1984 C 196.334 -0.527932 -2.00568 0
M  V30 1985 C 196.759 0.877969 -1.66353 0
M  V30 1986 O 196.117 1.58301 -0.883762 0
M  V30 1987 C 196.165 -0.717745 -3.53385 0
M  V30 1988 O 195.269 0.233376 -4.11739 0
M  V30 1989 H 194.61 -0.20722 -0.630837 0
M  V30 1990 H 197.14 -1.20105 -1.65638 0
M  V30 1991 H 197.15 -0.619307 -4.03272 0
M  V30 1992 H 195.825 -1.74276 -3.77625 0
M  V30 1993 H 194.402 0.0880706 -3.72796 0
M  V30 1994 N 196.587 1.43421 -0.653314 0
M  V30 1995 C 197.817 2.05864 -0.174238 0
M  V30 1996 C 198.225 1.49052 1.16534 0
M  V30 1997 O 197.568 0.616481 1.73047 0
M  V30 1998 C 197.63 3.59499 -0.00875873 0
M  V30 1999 C 197.294 4.38893 -1.27364 0
M  V30 2000 C 198.291 4.70947 -2.20239 0
M  V30 2001 C 195.976 4.789 -1.51525 0
M  V30 2002 C 197.97 5.41916 -3.35568 0
M  V30 2003 C 195.657 5.49614 -2.67147 0
M  V30 2004 C 196.655 5.81044 -3.58994 0
M  V30 2005 O 196.343 6.50313 -4.72597 0
M  V30 2006 H 196.075 0.670345 -0.0872549 0
M  V30 2007 H 198.629 1.84913 -0.894226 0
M  V30 2008 H 196.859 3.79025 0.7666 0
M  V30 2009 H 198.548 4.0364 0.427687 0
M  V30 2010 H 199.314 4.40558 -2.02815 0
M  V30 2011 H 195.193 4.53843 -0.809158 0
M  V30 2012 H 198.737 5.66365 -4.07279 0
M  V30 2013 H 194.634 5.79419 -2.84505 0
M  V30 2014 H 195.402 6.68795 -4.71864 0
M  V30 2015 N 198.065 0.39524 1.52563 0
M  V30 2016 C 198.995 -0.428384 2.29537 0
M  V30 2017 C 199.976 -1.05831 1.33169 0
M  V30 2018 O 201.161 -1.06995 1.62067 0
M  V30 2019 C 198.291 -1.55274 3.10656 0
M  V30 2020 C 197.245 -1.04855 4.14957 0
M  V30 2021 C 196.571 -2.26543 4.84337 0
M  V30 2022 C 197.871 -0.112324 5.22179 0
M  V30 2023 H 199.565 0.213867 2.98635 0
M  V30 2024 H 197.111 0.104298 1.43622 0
M  V30 2025 H 199.064 -2.1358 3.63265 0
M  V30 2026 H 197.788 -2.22266 2.39302 0
M  V30 2027 H 196.447 -0.487985 3.63338 0
M  V30 2028 H 196.095 -2.92059 4.09525 0
M  V30 2029 H 195.795 -1.93466 5.54837 0
M  V30 2030 H 197.319 -2.85481 5.39753 0
M  V30 2031 H 198.733 -0.603752 5.70112 0
M  V30 2032 H 197.13 0.128968 5.99961 0
M  V30 2033 H 198.2 0.837052 4.77621 0
M  V30 2034 N 199.544 -1.57102 0.125237 0
M  V30 2035 C 200.491 -2.15641 -0.822655 0
M  V30 2036 C 201.461 -1.08313 -1.25927 0
M  V30 2037 O 202.646 -1.36251 -1.33567 0
M  V30 2038 C 199.786 -2.76504 -2.06494 0
M  V30 2039 C 198.899 -3.98158 -1.67612 0
M  V30 2040 C 198.034 -4.47088 -2.86854 0
M  V30 2041 C 197.073 -5.6126 -2.44242 0
M  V30 2042 N 196.21 -6.04905 -3.56419 0
M  V30 2043 H 201.05 -2.96313 -0.316625 0
M  V30 2044 H 198.587 -1.46388 -0.144588 0
M  V30 2045 H 200.545 -3.09925 -2.79289 0
M  V30 2046 H 199.175 -1.98512 -2.54545 0
M  V30 2047 H 198.227 -3.70858 -0.846661 0
M  V30 2048 H 199.539 -4.80934 -1.32301 0
M  V30 2049 H 198.693 -4.82451 -3.67867 0
M  V30 2050 H 197.432 -3.63275 -3.25396 0
M  V30 2051 H 196.437 -5.25495 -1.61663 0
M  V30 2052 H 197.662 -6.46843 -2.0681 0
M  V30 2053 H 195.608 -5.24032 -3.94623 0
M  V30 2054 H 195.525 -6.82552 -3.25051 0
M  V30 2055 H 196.793 -6.44907 -4.37853 0
M  V30 2056 N 201.022 0.148545 -1.56898 0
M  V30 2057 C 202.27 0.859717 -1.82902 0
M  V30 2058 C 202.591 1.81775 -0.70588 0
M  V30 2059 O 201.861 1.93994 0.272586 0
M  V30 2060 H 200.441 0.320469 -0.674766 0
M  V30 2061 H 203.103 0.142918 -1.94375 0
M  V30 2062 H 202.199 1.4229 -2.77777 0
M  V30 2063 N 202.5 1.5196 0.417844 0
M  V30 2064 C 203.725 1.69717 1.1921 0
M  V30 2065 C 204.15 0.402148 1.83751 0
M  V30 2066 O 203.508 -0.639593 1.69643 0
M  V30 2067 C 203.556 2.82794 2.2374 0
M  V30 2068 O 202.66 2.47756 3.29683 0
M  V30 2069 H 202.001 0.565263 0.348387 0
M  V30 2070 H 204.531 1.98621 0.490985 0
M  V30 2071 H 204.541 3.07452 2.68212 0
M  V30 2072 H 203.216 3.76756 1.76146 0
M  V30 2073 H 201.793 2.33739 2.90552 0
M  V30 2074 N 203.978 -0.674533 1.42435 0
M  V30 2075 C 205.203 -1.46784 1.46524 0
M  V30 2076 C 205.628 -1.87938 0.078066 0
M  V30 2077 O 204.986 -1.56014 -0.92354 0
M  V30 2078 C 205.034 -2.69307 2.39805 0
M  V30 2079 O 204.138 -3.67587 1.86959 0
M  V30 2080 H 203.479 -0.440959 0.496439 0
M  V30 2081 H 206.009 -0.827326 1.87127 0
M  V30 2082 H 206.019 -3.17374 2.56393 0
M  V30 2083 H 204.694 -2.38692 3.40586 0
M  V30 2084 H 203.271 -3.2662 1.79927 0
M  V30 2085 N 205.456 -1.28612 -0.910864 0
M  V30 2086 C 206.704 -1.15705 -1.65701 0
M  V30 2087 C 207.025 0.29416 -1.92769 0
M  V30 2088 O 206.295 1.20331 -1.54588 0
M  V30 2089 H 204.875 -0.425216 -0.614167 0
M  V30 2090 H 207.537 -1.61381 -1.0928 0
M  V30 2091 H 206.633 -1.6988 -2.61815 0
M  V30 2092 N 206.934 1.1197 -1.10907 0
M  V30 2093 C 208.182 1.83225 -0.852819 0
M  V30 2094 C 208.503 1.84769 0.623341 0
M  V30 2095 O 207.773 1.3143 1.45269 0
M  V30 2096 H 206.353 0.67849 -0.312507 0
M  V30 2097 H 209.015 1.3556 -1.40033 0
M  V30 2098 H 208.111 2.87265 -1.22005 0
M  V30 2099 N 208.412 0.89855 1.29475 0
M  V30 2100 C 209.823 0.572537 1.77705 0
M  V30 2101 C 210.174 -0.911778 1.73727 0
M  V30 2102 O 209.299 -1.71288 1.32247 0
M  V30 2103 C 209.894 1.03252 3.22683 0
M  V30 2104 C 208.453 0.757687 3.68695 0
M  V30 2105 C 207.6 1.20787 2.49612 0
M  V30 2106 H 210.551 1.08139 1.16153 0
M  V30 2107 H 210.572 0.367307 3.78723 0
M  V30 2108 H 210.084 2.11285 3.25546 0
M  V30 2109 H 208.185 -0.310079 3.71308 0
M  V30 2110 H 208.298 1.35476 4.59547 0
M  V30 2111 H 206.662 0.626888 2.46865 0
M  V30 2112 H 207.445 2.29622 2.55203 0
M  V30 2113 N 209.89 -1.43072 0.660911 0
M  V30 2114 C 210.82 -2.33497 -0.0122829 0
M  V30 2115 C 211.801 -1.49903 -0.803925 0
M  V30 2116 O 212.986 -1.78546 -0.763864 0
M  V30 2117 C 210.116 -3.33363 -0.973994 0
M  V30 2118 C 209.07 -4.27003 -0.291928 0
M  V30 2119 C 208.396 -5.16967 -1.36562 0
M  V30 2120 C 209.696 -5.15816 0.820462 0
M  V30 2121 H 211.39 -2.90038 0.742873 0
M  V30 2122 H 208.936 -1.39461 0.358688 0
M  V30 2123 H 210.889 -3.95524 -1.45392 0
M  V30 2124 H 209.613 -2.75095 -1.7604 0
M  V30 2125 H 208.272 -3.66217 0.167623 0
M  V30 2126 H 207.92 -4.55034 -2.14366 0
M  V30 2127 H 207.62 -5.80441 -0.914454 0
M  V30 2128 H 209.144 -5.82003 -1.84675 0
M  V30 2129 H 210.558 -5.71742 0.422366 0
M  V30 2130 H 208.955 -5.8805 1.19656 0
M  V30 2131 H 210.025 -4.55045 1.67518 0
M  V30 2132 N 211.368 -0.403325 -1.52352 0
M  V30 2133 C 212.298 0.416205 -2.29761 0
M  V30 2134 C 213.279 1.05123 -1.33728 0
M  V30 2135 O 214.464 1.06134 -1.62632 0
M  V30 2136 C 211.594 1.53624 -3.11475 0
M  V30 2137 C 210.548 1.02653 -4.15507 0
M  V30 2138 C 209.874 2.23971 -4.85532 0
M  V30 2139 C 211.174 0.08463 -5.22231 0
M  V30 2140 H 212.868 -0.229701 -2.98518 0
M  V30 2141 H 210.414 -0.111913 -1.43564 0
M  V30 2142 H 212.367 2.1165 -3.64393 0
M  V30 2143 H 211.091 2.20994 -2.40477 0
M  V30 2144 H 209.75 0.46871 -3.63591 0
M  V30 2145 H 209.398 2.89883 -4.11068 0
M  V30 2146 H 209.098 1.90521 -5.55856 0
M  V30 2147 H 210.622 2.82614 -5.41259 0
M  V30 2148 H 212.036 0.573509 -5.70424 0
M  V30 2149 H 210.433 -0.160783 -5.99885 0
M  V30 2150 H 211.503 -0.86237 -4.7717 0
M  V30 2151 N 212.846 1.57033 -0.133567 0
M  V30 2152 C 214.086 1.97575 0.523789 0
M  V30 2153 C 214.45 1.01605 1.62912 0
M  V30 2154 O 215.651 1.3114 2.3464 0
M  V30 2155 C 213.922 3.42256 1.02935 0
M  V30 2156 S 215.481 4.04817 1.69319 0
M  V30 2157 H 212.299 0.690427 0.169799 0
M  V30 2158 H 214.901 1.94234 -0.222101 0
M  V30 2159 H 213.605 4.09842 0.213917 0
M  V30 2160 H 213.136 3.4928 1.81017 0
M  V30 2161 H 215.151 3.96767 2.97977 0
M  V30 2162 N 214.325 -0.140222 1.56975 0
M  V30 2163 C 215.736 -0.699596 1.73097 0
M  V30 2164 C 216.087 -1.8134 0.749022 0
M  V30 2165 O 215.212 -2.16241 -0.0828503 0
M  V30 2166 C 215.807 -1.27582 3.1386 0
M  V30 2167 C 214.366 -1.78169 3.31561 0
M  V30 2168 C 213.513 -0.672855 2.69013 0
M  V30 2169 H 216.464 0.0855115 1.58469 0
M  V30 2170 H 216.485 -2.14561 3.14235 0
M  V30 2171 H 215.997 -0.464955 3.85305 0
M  V30 2172 H 214.098 -2.61801 2.65124 0
M  V30 2173 H 214.211 -1.90574 4.39566 0
M  V30 2174 H 212.575 -1.10118 2.29665 0
M  V30 2175 H 213.358 0.126679 3.43066 0
M  V30 2176 N 215.803 -1.52179 -0.40978 0
M  V30 2177 C 216.766 -1.74853 -1.48186 0
M  V30 2178 C 217.766 -0.618417 -1.48433 0
M  V30 2179 O 218.956 -0.886286 -1.49969 0
M  V30 2180 C 216.088 -1.8303 -2.87598 0
M  V30 2181 H 217.281 -2.70559 -1.29374 0
M  V30 2182 H 214.834 -1.42586 -0.640233 0
M  V30 2183 H 215.569 -0.89236 -3.11781 0
M  V30 2184 H 215.354 -2.65187 -2.88822 0
M  V30 2185 H 216.844 -2.02316 -3.65319 0
M  V30 2186 N 217.281 0.66697 -1.42791 0
M  V30 2187 C 218.529 1.42417 -1.43394 0
M  V30 2188 C 218.85 1.94925 -0.0542373 0
M  V30 2189 O 218.12 1.73564 0.908415 0
M  V30 2190 H 216.7 0.528515 -0.527902 0
M  V30 2191 H 219.362 0.787562 -1.78279 0
M  V30 2192 H 218.458 2.27333 -2.13837 0
M  V30 2193 N 218.759 1.29093 0.90403 0
M  V30 2194 C 219.709 1.10482 1.99443 0
M  V30 2195 C 220.693 0.0255401 1.6088 0
M  V30 2196 O 221.885 0.24677 1.75271 0
M  V30 2197 C 219.014 0.778882 3.34348 0
M  V30 2198 C 218.1 1.89749 3.79284 0
M  V30 2199 N 218.491 3.14045 3.96497 0
M  V30 2200 C 216.789 1.78955 4.08523 0
M  V30 2201 C 217.49 3.86996 4.34292 0
M  V30 2202 N 216.466 3.14909 4.43095 0
M  V30 2203 H 220.268 2.04778 2.10815 0
M  V30 2204 H 217.782 1.20155 1.09255 0
M  V30 2205 H 219.779 0.62661 4.12164 0
M  V30 2206 H 218.439 -0.156205 3.24324 0
M  V30 2207 H 219.45 3.49548 3.82148 0
M  V30 2208 H 216.127 0.926886 4.07081 0
M  V30 2209 H 217.517 4.93941 4.55491 0
M  V30 2210 N 220.237 -1.11381 1.11499 0
M  V30 2211 C 221.2 -2.15622 0.777153 0
M  V30 2212 C 222.2 -1.59504 -0.203779 0
M  V30 2213 O 223.39 -1.74188 0.020782 0
M  V30 2214 C 220.522 -3.40556 0.153116 0
M  V30 2215 H 221.715 -2.47021 1.70061 0
M  V30 2216 H 219.268 -1.26577 0.916952 0
M  V30 2217 H 220.003 -3.14767 -0.780536 0
M  V30 2218 H 219.788 -3.8257 0.859238 0
M  V30 2219 H 221.278 -4.17546 -0.0671044 0
M  V30 2220 N 221.715 -0.905404 -1.28997 0
M  V30 2221 C 222.961 -0.535039 -1.95615 0
M  V30 2222 C 223.294 0.917404 -1.71165 0
M  V30 2223 O 222.569 1.65123 -1.02785 0
M  V30 2224 C 222.852 -0.834918 -3.50287 0
M  V30 2225 C 222.705 -2.33948 -3.84172 0
M  V30 2226 C 224.024 -0.325318 -4.38896 0
M  V30 2227 H 221.143 -0.195861 -0.710498 0
M  V30 2228 H 223.785 -1.13313 -1.52513 0
M  V30 2229 H 221.935 -0.325904 -3.87131 0
M  V30 2230 H 223.607 -2.91847 -3.57243 0
M  V30 2231 H 221.85 -2.79789 -3.31513 0
M  V30 2232 H 222.521 -2.49987 -4.92149 0
M  V30 2233 H 224.997 -0.761256 -4.09077 0
M  V30 2234 H 223.873 -0.564295 -5.45992 0
M  V30 2235 H 224.134 0.774144 -4.35269 0
M  V30 2236 N 223.193 1.4272 -0.668489 0
M  V30 2237 C 224.441 2.01226 -0.187769 0
M  V30 2238 C 224.762 1.53092 1.2078 0
M  V30 2239 O 224.032 0.74993 1.80977 0
M  V30 2240 H 222.612 0.744041 -0.0664272 0
M  V30 2241 H 225.274 1.74723 -0.863583 0
M  V30 2242 H 224.37 3.11556 -0.184166 0
M  V30 2243 N 224.671 0.411399 1.52136 0
M  V30 2244 C 225.601 -0.404015 2.29978 0
M  V30 2245 C 226.582 -1.04412 1.34284 0
M  V30 2246 O 227.767 -1.0527 1.63192 0
M  V30 2247 C 224.897 -1.5197 3.12286 0
M  V30 2248 C 223.851 -1.00448 4.16046 0
M  V30 2249 C 223.177 -2.21393 4.86712 0
M  V30 2250 C 224.477 -0.0569336 5.22269 0
M  V30 2251 H 226.171 0.245529 2.98392 0
M  V30 2252 H 223.717 0.119525 1.43503 0
M  V30 2253 H 225.67 -2.09715 3.6551 0
M  V30 2254 H 224.394 -2.19716 2.41646 0
M  V30 2255 H 223.053 -0.449421 3.63835 0
M  V30 2256 H 222.701 -2.87699 4.12599 0
M  V30 2257 H 222.401 -1.87571 5.56858 0
M  V30 2258 H 223.925 -2.7974 5.4275 0
M  V30 2259 H 225.339 -0.54325 5.7072 0
M  V30 2260 H 223.736 0.192594 5.99791 0
M  V30 2261 H 224.806 0.887663 4.76706 0
M  V30 2262 N 226.149 -1.5696 0.141893 0
M  V30 2263 C 227.396 -1.9596 -0.510492 0
M  V30 2264 C 227.724 -1.02648 -1.65208 0
M  V30 2265 O 226.979 -0.0546947 -1.95624 0
M  V30 2266 C 227.278 -3.41242 -1.06249 0
M  V30 2267 C 226.944 -4.50882 -0.0398791 0
M  V30 2268 C 225.606 -4.80595 0.241247 0
M  V30 2269 C 227.958 -5.17058 0.65578 0
M  V30 2270 C 225.286 -5.73792 1.22393 0
M  V30 2271 C 227.638 -6.11313 1.62724 0
M  V30 2272 C 226.302 -6.39407 1.91612 0
M  V30 2273 H 225.572 -0.717068 -0.186802 0
M  V30 2274 H 228.219 -1.90142 0.227643 0
M  V30 2275 H 226.524 -3.43866 -1.87785 0
M  V30 2276 H 228.221 -3.68742 -1.57576 0
M  V30 2277 H 224.811 -4.27754 -0.269174 0
M  V30 2278 H 228.995 -4.94239 0.451779 0
M  V30 2279 H 224.251 -5.93853 1.45424 0
M  V30 2280 H 228.425 -6.61668 2.17183 0
M  V30 2281 H 226.052 -7.11427 2.6791 0
M  V30 2282 N 227.627 0.131896 -1.57047 0
M  V30 2283 C 229.043 0.485031 -1.52051 0
M  V30 2284 C 229.243 1.82563 -0.85281 0
M  V30 2285 O 228.299 2.48817 -0.429694 0
M  V30 2286 C 229.612 0.481409 -2.96821 0
M  V30 2287 C 231.16 0.565868 -3.07842 0
M  V30 2288 C 231.635 0.592762 -4.54148 0
M  V30 2289 N 233.126 0.654564 -4.58552 0
M  V30 2290 C 233.861 0.696608 -5.69153 0
M  V30 2291 N 233.357 0.697078 -6.89284 0
M  V30 2292 N 235.15 0.738639 -5.57226 0
M  V30 2293 H 227.301 -0.746664 -1.98843 0
M  V30 2294 H 229.564 -0.273999 -0.90754 0
M  V30 2295 H 229.27 -0.435731 -3.4899 0
M  V30 2296 H 229.144 1.3139 -3.53577 0
M  V30 2297 H 231.531 1.47343 -2.55684 0
M  V30 2298 H 231.612 -0.29406 -2.54104 0
M  V30 2299 H 231.256 -0.310701 -5.06949 0
M  V30 2300 H 231.186 1.46939 -5.05684 0
M  V30 2301 H 233.677 0.660887 -3.72076 0
M  V30 2302 H 233.99 0.731426 -7.69331 0
M  V30 2303 H 232.335 0.66471 -6.91814 0
M  V30 2304 H 235.526 0.735545 -4.62285 0
M  V30 2305 H 235.699 0.767938 -6.43434 0
M  V30 2306 N 229.106 1.52395 0.401703 0
M  V30 2307 C 230.069 1.75636 1.47257 0
M  V30 2308 C 231.069 0.62628 1.48103 0
M  V30 2309 O 232.259 0.894227 1.49497 0
M  V30 2310 C 229.391 1.84553 2.86624 0
M  V30 2311 H 230.584 2.71241 1.27938 0
M  V30 2312 H 228.137 1.42923 0.632662 0
M  V30 2313 H 228.872 0.908882 3.11303 0
M  V30 2314 H 228.657 2.66715 2.87412 0
M  V30 2315 H 230.147 2.04251 3.64241 0
M  V30 2316 N 230.584 -0.659388 1.43143 0
M  V30 2317 C 231.547 -1.75432 1.47501 0
M  V30 2318 C 232.547 -1.56707 0.360512 0
M  V30 2319 O 233.737 -1.62717 0.622002 0
M  V30 2320 C 230.869 -3.14239 1.32162 0
M  V30 2321 H 232.062 -1.7295 2.45006 0
M  V30 2322 H 229.615 -0.870469 1.29817 0
M  V30 2323 H 230.35 -3.22336 0.356401 0
M  V30 2324 H 230.135 -3.29235 2.12948 0
M  V30 2325 H 231.625 -3.94094 1.3813 0
M  V30 2326 N 232.062 -1.29571 -0.897171 0
M  V30 2327 C 233.308 -1.17863 -1.65034 0
M  V30 2328 C 233.641 0.268729 -1.92332 0
M  V30 2329 O 232.916 1.19378 -1.53555 0
M  V30 2330 C 233.199 -1.995 -2.99786 0
M  V30 2331 C 233.052 -3.5239 -2.79538 0
M  V30 2332 C 234.371 -1.82335 -4.00552 0
M  V30 2333 H 231.49 -0.429528 -0.598895 0
M  V30 2334 H 234.132 -1.59072 -1.03905 0
M  V30 2335 H 232.282 -1.64485 -3.51962 0
M  V30 2336 H 233.954 -3.97401 -2.34244 0
M  V30 2337 H 232.197 -3.77187 -2.14273 0
M  V30 2338 H 232.868 -4.04787 -3.75302 0
M  V30 2339 H 235.344 -2.12924 -3.57495 0
M  V30 2340 H 234.22 -2.41801 -4.92771 0
M  V30 2341 H 234.481 -0.779209 -4.35179 0
M  V30 2342 N 233.54 1.10788 -1.12088 0
M  V30 2343 C 234.78 1.84297 -0.883974 0
M  V30 2344 C 235.144 1.83036 0.579797 0
M  V30 2345 O 236.345 2.52061 0.933734 0
M  V30 2346 C 234.616 3.27173 -1.43849 0
M  V30 2347 S 236.175 4.17853 -1.33957 0
M  V30 2348 H 232.993 0.635433 -0.318977 0
M  V30 2349 H 235.595 1.33341 -1.4297 0
M  V30 2350 H 234.299 3.25658 -2.49749 0
M  V30 2351 H 233.83 3.83198 -0.890096 0
M  V30 2352 H 235.845 4.95239 -0.308603 0
M  V30 2353 N 235.018 0.912232 1.28515 0
M  V30 2354 C 236.246 0.560416 1.99166 0
M  V30 2355 C 236.661 -0.857927 1.68182 0
M  V30 2356 O 236.018 -1.56805 0.933733 0
M  V30 2357 C 236.069 0.758142 3.53461 0
M  V30 2358 O 235.79 2.12067 3.83352 0
M  V30 2359 C 237.291 0.412954 4.41372 0
M  V30 2360 H 234.511 0.213805 0.636026 0
M  V30 2361 H 237.055 1.22502 1.63749 0
M  V30 2362 H 235.21 0.140556 3.87145 0
M  V30 2363 H 235.624 2.15923 4.77993 0
M  V30 2364 H 237.098 0.60208 5.48707 0
M  V30 2365 H 237.575 -0.65073 4.34353 0
M  V30 2366 H 238.181 1.00802 4.13182 0
M  V30 2367 N 236.496 -1.42363 0.676048 0
M  V30 2368 C 237.912 -1.55811 0.345718 0
M  V30 2369 C 238.112 -1.65544 -1.14879 0
M  V30 2370 O 237.168 -1.62306 -1.93424 0
M  V30 2371 C 238.481 -2.80746 1.07713 0
M  V30 2372 C 240.029 -2.9452 1.05958 0
M  V30 2373 C 240.504 -4.22318 1.77233 0
M  V30 2374 N 241.995 -4.29233 1.74108 0
M  V30 2375 C 242.73 -5.26935 2.26113 0
M  V30 2376 N 242.226 -6.30783 2.86505 0
M  V30 2377 N 244.019 -5.18741 2.1648 0
M  V30 2378 H 236.17 -1.34289 1.6456 0
M  V30 2379 H 238.433 -0.646506 0.69335 0
M  V30 2380 H 238.139 -2.79696 2.13221 0
M  V30 2381 H 238.013 -3.71676 0.64316 0
M  V30 2382 H 240.4 -2.95097 0.0128255 0
M  V30 2383 H 240.481 -2.04817 1.53244 0
M  V30 2384 H 240.125 -4.22502 2.81877 0
M  V30 2385 H 240.055 -5.10958 1.27396 0
M  V30 2386 H 242.546 -3.54814 1.30059 0
M  V30 2387 H 242.859 -7.01691 3.23805 0
M  V30 2388 H 241.204 -6.31341 2.90575 0
M  V30 2389 H 244.395 -4.36533 1.68987 0
M  V30 2390 H 244.568 -5.94721 2.57316 0
M  V30 2391 N 237.974 -0.419461 -1.51915 0
M  V30 2392 C 239.222 0.152637 -2.01523 0
M  V30 2393 C 239.543 1.44762 -1.30649 0
M  V30 2394 O 238.813 1.90997 -0.435535 0
M  V30 2395 H 237.393 0.0593966 -0.744635 0
M  V30 2396 H 240.055 -0.558073 -1.86739 0
M  V30 2397 H 239.151 0.341369 -3.10227 0
M  V30 2398 N 239.452 1.56882 -0.150215 0
M  V30 2399 C 240.698 1.96518 0.500834 0
M  V30 2400 C 241.031 1.03527 1.64304 0
M  V30 2401 O 240.306 0.0782751 1.94342 0
M  V30 2402 C 240.589 3.45822 1.00395 0
M  V30 2403 C 240.442 4.49591 -0.136983 0
M  V30 2404 C 241.761 3.97704 1.88467 0
M  V30 2405 H 238.88 0.714535 0.18058 0
M  V30 2406 H 241.522 1.88577 -0.232091 0
M  V30 2407 H 239.672 3.5272 1.62851 0
M  V30 2408 H 241.344 4.5477 -0.77343 0
M  V30 2409 H 239.587 4.26441 -0.795652 0
M  V30 2410 H 240.258 5.51402 0.256815 0
M  V30 2411 H 242.734 3.93304 1.35834 0
M  V30 2412 H 241.61 5.0263 2.20578 0
M  V30 2413 H 241.871 3.40252 2.82279 0
M  V30 2414 N 240.93 -0.123565 1.57115 0
M  V30 2415 C 241.893 -1.13583 1.99076 0
M  V30 2416 C 242.893 -1.34564 0.880296 0
M  V30 2417 O 244.083 -1.31158 1.14644 0
M  V30 2418 C 241.215 -2.49128 2.32698 0
M  V30 2419 H 242.408 -0.775287 2.89706 0
M  V30 2420 H 239.961 -0.36771 1.51913 0
M  V30 2421 H 240.696 -2.90111 1.44934 0
M  V30 2422 H 240.481 -2.35255 3.13684 0
M  V30 2423 H 241.971 -3.2199 2.65918 0
M  V30 2424 N 242.408 -1.52605 -0.393616 0
M  V30 2425 C 243.355 -1.77055 -1.48054 0
M  V30 2426 C 244.325 -0.61358 -1.54352 0
M  V30 2427 O 245.51 -0.852806 -1.70681 0
M  V30 2428 C 242.65 -1.94108 -2.85335 0
M  V30 2429 C 241.763 -3.21792 -2.88226 0
M  V30 2430 C 240.898 -3.29188 -4.16904 0
M  V30 2431 C 239.937 -4.51013 -4.13828 0
M  V30 2432 N 239.074 -4.55716 -5.34105 0
M  V30 2433 H 243.914 -2.69815 -1.26506 0
M  V30 2434 H 241.451 -1.33683 -0.61379 0
M  V30 2435 H 243.409 -2.01979 -3.65049 0
M  V30 2436 H 242.039 -1.04713 -3.05344 0
M  V30 2437 H 241.091 -3.23015 -2.00911 0
M  V30 2438 H 242.403 -4.11557 -2.8182 0
M  V30 2439 H 241.557 -3.36216 -5.05018 0
M  V30 2440 H 240.296 -2.37389 -4.26026 0
M  V30 2441 H 239.301 -4.44115 -3.24102 0
M  V30 2442 H 240.526 -5.44123 -4.06333 0
M  V30 2443 H 238.472 -3.66807 -5.43865 0
M  V30 2444 H 238.389 -5.39346 -5.29756 0
M  V30 2445 H 239.657 -4.66993 -6.2413 0
M  V30 2446 N 243.887 0.651787 -1.4349 0
M  V30 2447 C 244.85 1.74647 -1.48429 0
M  V30 2448 C 245.85 1.56513 -0.368817 0
M  V30 2449 O 247.04 1.62385 -0.630623 0
M  V30 2450 C 244.172 3.13533 -1.33827 0
M  V30 2451 H 245.365 1.71649 -2.4592 0
M  V30 2452 H 242.918 0.863573 -1.30277 0
M  V30 2453 H 243.653 3.22142 -0.37349 0
M  V30 2454 H 243.438 3.28101 -2.14691 0
M  V30 2455 H 244.928 3.93356 -1.40218 0
M  V30 2456 N 245.365 1.30045 0.890287 0
M  V30 2457 C 246.611 1.18737 1.64406 0
M  V30 2458 C 246.944 -0.258525 1.92472 0
M  V30 2459 O 246.219 -1.18562 1.54186 0
M  V30 2460 C 246.502 2.01087 2.98724 0
M  V30 2461 C 246.355 3.53867 2.77665 0
M  V30 2462 C 247.674 1.84457 3.9958 0
M  V30 2463 H 244.793 0.432698 0.596608 0
M  V30 2464 H 247.435 1.5962 1.0306 0
M  V30 2465 H 245.585 1.66349 3.51084 0
M  V30 2466 H 247.257 3.98637 2.32133 0
M  V30 2467 H 245.5 3.78318 2.12269 0
M  V30 2468 H 246.171 4.06772 3.7315 0
M  V30 2469 H 248.647 2.14817 3.56361 0
M  V30 2470 H 247.523 2.44411 4.91482 0
M  V30 2471 H 247.784 0.802276 4.3476 0
M  V30 2472 N 246.843 -1.10192 1.12674 0
M  V30 2473 C 248.12 -1.78717 0.794965 0
M  V30 2474 C 248.5 -1.98628 -0.714853 0
M  V30 2475 O 247.848 -1.58135 -1.64941 0
M  V30 2476 C 248.058 -3.11546 1.5729 0
M  V30 2477 C 249.406 -3.86382 1.76052 0
M  V30 2478 O 250.43 -3.21274 1.53823 0
M  V30 2479 O 249.289 -5.03246 2.13087 0
M  V30 2480 H 246.383 -0.774702 0.289423 0
M  V30 2481 H 248.929 -1.16819 1.23091 0
M  V30 2482 H 247.701 -2.92489 2.59935 0
M  V30 2483 H 247.324 -3.81164 1.13137 0
M  V30 2484 N 248.321 -0.919034 -1.28029 0
M  V30 2485 C 249.568 -0.554934 -1.94748 0
M  V30 2486 C 249.896 0.90231 -1.72304 0
M  V30 2487 O 249.151 1.65767 -1.04018 0
M  V30 2488 C 249.45 -0.816855 -3.4794 0
M  V30 2489 C 249.116 -2.25448 -3.90492 0
M  V30 2490 C 247.778 -2.64752 -4.01821 0
M  V30 2491 C 250.13 -3.18977 -4.12193 0
M  V30 2492 C 247.458 -3.96727 -4.32232 0
M  V30 2493 C 249.81 -4.50523 -4.44086 0
M  V30 2494 C 248.474 -4.89673 -4.53626 0
M  V30 2495 H 247.744 -0.203065 -0.712633 0
M  V30 2496 H 250.391 -1.16136 -1.52265 0
M  V30 2497 H 248.696 -0.127677 -3.91592 0
M  V30 2498 H 250.393 -0.514238 -3.97689 0
M  V30 2499 H 246.983 -1.93952 -3.82205 0
M  V30 2500 H 251.167 -2.89817 -4.02889 0
M  V30 2501 H 246.423 -4.26754 -4.37825 0
M  V30 2502 H 250.597 -5.23005 -4.59825 0
M  V30 2503 H 248.224 -5.91969 -4.76946 0
M  V30 2504 N 249.799 1.42003 -0.683588 0
M  V30 2505 C 251.048 2.00638 -0.206681 0
M  V30 2506 C 251.361 1.5472 1.19671 0
M  V30 2507 O 252.567 2.05833 1.77045 0
M  V30 2508 C 251.023 3.58487 -0.318632 0
M  V30 2509 C 250.631 4.1339 -1.72663 0
M  V30 2510 C 252.375 4.24384 0.0991141 0
M  V30 2511 C 250.282 5.63633 -1.79087 0
M  V30 2512 H 249.212 0.750408 -0.0735107 0
M  V30 2513 H 251.863 1.62624 -0.850048 0
M  V30 2514 H 250.245 3.94047 0.392781 0
M  V30 2515 H 251.419 3.89273 -2.46583 0
M  V30 2516 H 249.734 3.59976 -2.09299 0
M  V30 2517 H 252.331 5.34652 0.0713833 0
M  V30 2518 H 252.674 4.00505 1.13586 0
M  V30 2519 H 253.207 3.93816 -0.561599 0
M  V30 2520 H 249.946 5.92323 -2.80774 0
M  V30 2521 H 249.466 5.89714 -1.09535 0
M  V30 2522 H 251.145 6.28201 -1.5483 0
M  V30 2523 N 251.277 0.427512 1.51691 0
M  V30 2524 C 252.688 -0.0378867 1.86662 0
M  V30 2525 C 253.039 -1.42819 1.34525 0
M  V30 2526 O 252.164 -2.05037 0.692014 0
M  V30 2527 C 252.759 -0.0755266 3.38716 0
M  V30 2528 C 251.318 -0.485309 3.73258 0
M  V30 2529 C 250.465 0.328399 2.75349 0
M  V30 2530 H 253.416 0.64379 1.45055 0
M  V30 2531 H 253.437 -0.887056 3.70016 0
M  V30 2532 H 252.949 0.936487 3.76632 0
M  V30 2533 H 251.05 -1.50329 3.40928 0
M  V30 2534 H 251.163 -0.21693 4.78609 0
M  V30 2535 H 249.527 -0.211905 2.53817 0
M  V30 2536 H 250.31 1.3391 3.16106 0
M  V30 2537 N 252.755 -1.56801 0.158532 0
M  V30 2538 C 254.001 -1.96781 -0.490405 0
M  V30 2539 C 254.334 -1.04397 -1.63753 0
M  V30 2540 O 253.609 -0.0885805 -1.94298 0
M  V30 2541 C 253.892 -3.4635 -0.985594 0
M  V30 2542 C 253.745 -4.49512 0.160824 0
M  V30 2543 C 255.064 -3.98697 -1.86355 0
M  V30 2544 H 252.183 -0.715482 -0.176788 0
M  V30 2545 H 254.825 -1.88451 0.242088 0
M  V30 2546 H 252.975 -3.53579 -1.60978 0
M  V30 2547 H 254.647 -4.54353 0.797537 0
M  V30 2548 H 252.89 -4.26013 0.818256 0
M  V30 2549 H 253.561 -5.51531 -0.227569 0
M  V30 2550 H 256.037 -3.94019 -1.33746 0
M  V30 2551 H 254.913 -5.03792 -2.17909 0
M  V30 2552 H 255.174 -3.41744 -2.8047 0
M  V30 2553 N 254.233 0.115231 -1.57178 0
M  V30 2554 C 255.143 1.15994 -2.03918 0
M  V30 2555 C 256.159 1.45103 -0.960268 0
M  V30 2556 O 257.335 1.56144 -1.27204 0
M  V30 2557 C 254.4 2.46568 -2.43732 0
M  V30 2558 C 253.461 2.24822 -3.65723 0
M  V30 2559 C 252.694 3.4917 -4.03629 0
M  V30 2560 O 252.917 4.56623 -3.41835 0
M  V30 2561 O 251.851 3.39949 -4.96708 0
M  V30 2562 H 255.677 0.793019 -2.93164 0
M  V30 2563 H 253.262 0.3263 -1.45793 0
M  V30 2564 H 255.144 3.23492 -2.70057 0
M  V30 2565 H 253.819 2.82726 -1.57631 0
M  V30 2566 H 252.726 1.45744 -3.44542 0
M  V30 2567 H 254.059 1.93566 -4.52541 0
M  V30 2568 N 255.711 1.52812 0.385517 0
M  V30 2569 C 256.659 1.78482 1.49155 0
M  V30 2570 C 257.653 0.652914 1.56312 0
M  V30 2571 O 258.859 0.835464 1.59436 0
M  V30 2572 H 255.234 0.5648 0.496493 0
M  V30 2573 H 257.205 2.71095 1.24699 0
M  V30 2574 C 255.954 1.97378 2.86247 0
M  V30 2575 H 255.277 2.83907 2.81491 0
M  V30 2576 H 256.717 2.19327 3.62866 0
M  V30 2577 C 255.176 0.74728 3.28508 0
M  V30 2578 O 255.706 -0.0736232 4.01633 0
M  V30 2579 N 253.912 0.576396 2.84826 0
M  V30 2580 H 253.459 1.24555 2.25486 0
M  V30 2581 H 253.417 -0.24288 3.1346 0
M  V30 2582 N 257.189 -0.644168 1.43834 0
M  V30 2583 C 258.119 -1.76814 1.52509 0
M  V30 2584 C 259.1 -1.65823 0.379052 0
M  V30 2585 O 260.285 -1.84781 0.597466 0
M  V30 2586 C 257.415 -3.15288 1.4564 0
M  V30 2587 C 256.369 -3.41053 2.58586 0
M  V30 2588 C 255.695 -4.79421 2.36769 0
M  V30 2589 C 256.995 -3.34902 4.00797 0
M  V30 2590 H 258.689 -1.69812 2.46586 0
M  V30 2591 H 256.235 -0.815542 1.1868 0
M  V30 2592 H 258.188 -3.93681 1.50311 0
M  V30 2593 H 256.912 -3.23043 0.480725 0
M  V30 2594 H 255.571 -2.65035 2.53282 0
M  V30 2595 H 255.219 -4.83863 1.37424 0
M  V30 2596 H 254.919 -4.9762 3.12487 0
M  V30 2597 H 256.443 -5.6006 2.43238 0
M  V30 2598 H 257.857 -4.03218 4.07539 0
M  V30 2599 H 256.254 -3.64637 4.76613 0
M  V30 2600 H 257.324 -2.32928 4.25291 0
M  V30 2601 N 258.668 -1.30515 -0.883378 0
M  V30 2602 C 259.578 -1.18959 -2.02203 0
M  V30 2603 C 260.594 -0.109172 -1.73657 0
M  V30 2604 O 261.77 -0.324413 -1.9877 0
M  V30 2605 C 258.835 -0.883871 -3.35244 0
M  V30 2606 C 257.896 -2.04982 -3.77201 0
M  V30 2607 C 257.129 -1.75859 -5.03894 0
M  V30 2608 O 257.352 -0.687276 -5.66244 0
M  V30 2609 O 256.286 -2.61146 -5.42297 0
M  V30 2610 H 260.112 -2.14616 -2.1488 0
M  V30 2611 H 257.697 -1.10124 -1.0096 0
M  V30 2612 H 259.579 -0.728644 -4.15053 0
M  V30 2613 H 258.254 0.0427798 -3.23672 0
M  V30 2614 H 257.161 -2.26038 -2.9809 0
M  V30 2615 H 258.494 -2.95825 -3.93381 0
M  V30 2616 N 260.146 1.09593 -1.13257 0
M  V30 2617 C 261.374 1.855 -0.916378 0
M  V30 2618 C 261.789 1.81069 0.534738 0
M  V30 2619 O 261.146 1.20562 1.37007 0
M  V30 2620 C 261.197 3.33546 -1.39388 0
M  V30 2621 O 260.918 3.37927 -2.78813 0
M  V30 2622 C 262.419 4.26299 -1.21588 0
M  V30 2623 H 259.639 0.585991 -0.326887 0
M  V30 2624 H 262.183 1.38488 -1.5047 0
M  V30 2625 H 260.338 3.77992 -0.848597 0
M  V30 2626 H 260.752 4.30254 -2.9997 0
M  V30 2627 H 262.226 5.28341 -1.59876 0
M  V30 2628 H 262.703 4.38918 -0.157376 0
M  V30 2629 H 263.309 3.87668 -1.7491 0
M  V30 2630 N 261.624 0.925811 1.2754 0
M  V30 2631 C 262.852 0.581509 1.9856 0
M  V30 2632 C 263.267 -0.840041 1.69082 0
M  V30 2633 O 262.624 -1.55805 0.950312 0
M  V30 2634 C 262.675 0.795589 3.52637 0
M  V30 2635 O 262.396 2.16121 3.81082 0
M  V30 2636 C 263.897 0.459744 4.4091 0
M  V30 2637 H 261.117 0.220538 0.633722 0
M  V30 2638 H 263.661 1.24232 1.6244 0
M  V30 2639 H 261.816 0.18161 3.86974 0
M  V30 2640 H 262.23 2.2098 4.75676 0
M  V30 2641 H 263.704 0.660244 5.48037 0
M  V30 2642 H 264.181 -0.604625 4.35018 0
M  V30 2643 H 264.787 1.05178 4.12089 0
M  V30 2644 N 263.102 -1.41638 0.69111 0
M  V30 2645 C 264.035 -2.28183 -0.0274913 0
M  V30 2646 C 265.013 -1.41984 -0.792424 0
M  V30 2647 O 266.197 -1.71415 -0.784169 0
M  V30 2648 C 263.324 -3.22135 -1.04628 0
M  V30 2649 C 262.37 -4.24848 -0.375037 0
M  V30 2650 S 263.203 -5.28231 0.879321 0
M  V30 2651 C 264.359 -6.25748 -0.137983 0
M  V30 2652 H 264.592 -2.88782 0.706553 0
M  V30 2653 H 262.125 -1.46709 0.481222 0
M  V30 2654 H 264.083 -3.76797 -1.62894 0
M  V30 2655 H 262.744 -2.6064 -1.75287 0
M  V30 2656 H 261.937 -4.90837 -1.14433 0
M  V30 2657 H 261.539 -3.73758 0.134434 0
M  V30 2658 H 263.831 -6.70188 -0.992659 0
M  V30 2659 H 264.774 -7.06417 0.487867 0
M  V30 2660 H 265.182 -5.62363 -0.490762 0
M  V30 2661 N 264.58 -0.43555 -1.51462 0
M  V30 2662 C 265.996 -0.0877501 -1.59359 0
M  V30 2663 C 266.196 1.4027 -1.4466 0
M  V30 2664 O 265.252 2.17243 -1.28693 0
M  V30 2665 C 266.565 -0.606264 -2.94525 0
M  V30 2666 C 268.113 -0.566548 -3.0783 0
M  V30 2667 C 268.588 -1.06201 -4.45517 0
M  V30 2668 N 270.079 -1.01992 -4.51832 0
M  V30 2669 C 270.814 -1.37417 -5.5669 0
M  V30 2670 N 270.31 -1.80119 -6.68976 0
M  V30 2671 N 272.103 -1.29245 -5.47039 0
M  V30 2672 H 264.254 -1.40533 -1.59261 0
M  V30 2673 H 266.517 -0.578992 -0.750648 0
M  V30 2674 H 266.223 -1.64901 -3.10645 0
M  V30 2675 H 266.097 -0.0302097 -3.77188 0
M  V30 2676 H 268.484 0.467208 -2.91378 0
M  V30 2677 H 268.565 -1.17898 -2.2701 0
M  V30 2678 H 268.209 -2.09422 -4.62715 0
M  V30 2679 H 268.139 -0.426127 -5.24873 0
M  V30 2680 H 270.63 -0.706308 -3.71241 0
M  V30 2681 H 270.943 -2.05392 -7.45006 0
M  V30 2682 H 269.288 -1.84044 -6.70189 0
M  V30 2683 H 272.479 -0.957522 -4.58202 0
M  V30 2684 H 272.652 -1.57182 -6.28648 0
M  V30 2685 N 266.058 1.56714 -0.166846 0
M  V30 2686 C 267.283 2.01557 0.488833 0
M  V30 2687 C 267.708 1.0463 1.56314 0
M  V30 2688 O 267.066 0.0251304 1.81283 0
M  V30 2689 C 267.114 3.4503 1.04818 0
M  V30 2690 O 266.218 3.51163 2.16236 0
M  V30 2691 H 265.559 0.653516 0.117526 0
M  V30 2692 H 268.089 2.02818 -0.269421 0
M  V30 2693 H 268.099 3.84243 1.37191 0
M  V30 2694 H 266.774 4.15077 0.261572 0
M  V30 2695 H 265.351 3.23807 1.84942 0
M  V30 2696 O 267.575 0.0288451 1.61474 0
M  V30 2697 H 268.266 -0.583771 1.84694 0
M  V30 END ATOM
M  V30 BEGIN BOND
M  V30 END BOND
M  V30 END CTAB
M  END
$$$$
