drugbank_target|Q92206 Squalene monooxygenase (DB00525; DB00857)
 OpenBabel12092120573D

  0  0  0     0  0            999 V3000
M  V30 BEGIN CTAB
M  V30 COUNTS 7870 7963 0 0 0
M  V30 BEGIN ATOM
M  V30 1 H -0.908 1.98254 -0.117106 0
M  V30 2 N 0 1.576 0 0
M  V30 3 C 0.933 2.03868 1.02534 0
M  V30 4 C 1.911 0.928543 1.3348 0
M  V30 5 O 3.095 1.19667 1.45644 0
M  V30 6 C 0.222 2.43627 2.35294 0
M  V30 7 C -0.732 3.65373 2.2001 0
M  V30 8 S 0.101 5.13292 1.52614 0
M  V30 9 C 1.257 5.56322 2.86805 0
M  V30 10 H 1.49 2.90518 0.631377 0
M  V30 11 H -0.977 1.52953 0.210867 0
M  V30 12 H 0.981 2.67203 3.11629 0
M  V30 13 H -0.358 1.57376 2.7183 0
M  V30 14 H -1.165 3.90944 3.18086 0
M  V30 15 H -1.563 3.418 1.51819 0
M  V30 16 H 0.729 5.58782 3.83104 0
M  V30 17 H 1.672 6.56266 2.65933 0
M  V30 18 H 2.08 4.83886 2.90714 0
M  V30 19 N 1.4781 -0.272755 1.55222 0
M  V30 20 C 2.7031 -1.02683 1.80197 0
M  V30 21 C 3.1281 -1.79142 0.573551 0
M  V30 22 O 2.4861 -1.74917 -0.476849 0
M  V30 23 C 2.5341 -1.9609 3.02624 0
M  V30 24 O 1.6381 -3.04863 2.77727 0
M  V30 25 H 0.9791 -0.293557 0.595584 0
M  V30 26 H 3.5091 -0.30159 2.02365 0
M  V30 27 H 3.5191 -2.38039 3.31363 0
M  V30 28 H 2.1941 -1.39851 3.91682 0
M  V30 29 H 0.7711 -2.67228 2.60084 0
M  V30 30 N 2.9562 -1.48159 -0.537278 0
M  V30 31 C 4.1812 -1.59707 -1.32319 0
M  V30 32 C 4.6062 -0.254859 -1.86365 0
M  V30 33 O 3.9642 0.772378 -1.64024 0
M  V30 34 C 4.0122 -2.6412 -2.45505 0
M  V30 35 O 3.1162 -2.20774 -3.48328 0
M  V30 36 H 2.4572 -0.535791 -0.392204 0
M  V30 37 H 4.9872 -1.94092 -0.647268 0
M  V30 38 H 4.9972 -2.85166 -2.91795 0
M  V30 39 H 3.6722 -3.61567 -2.05528 0
M  V30 40 H 2.2492 -2.09911 -3.08207 0
M  V30 41 N 4.4343 0.785586 -1.36625 0
M  V30 42 C 5.6803 1.54591 -1.31261 0
M  V30 43 C 6.0133 1.93906 0.106823 0
M  V30 44 O 5.2883 1.63007 1.06108 0
M  V30 45 C 5.5713 2.82038 -2.23889 0
M  V30 46 C 5.4243 2.49066 -3.74548 0
M  V30 47 C 6.7433 3.83887 -2.15217 0
M  V30 48 H 3.8623 0.560846 -0.478143 0
M  V30 49 H 6.5043 0.902278 -1.67209 0
M  V30 50 H 4.6543 3.36961 -1.93363 0
M  V30 51 H 6.3263 2.00164 -4.15611 0
M  V30 52 H 4.5693 1.81954 -3.93796 0
M  V30 53 H 5.2403 3.40109 -4.34776 0
M  V30 54 H 7.7163 3.38421 -2.42096 0
M  V30 55 H 6.5923 4.70806 -2.82193 0
M  V30 56 H 6.8533 4.27131 -1.14068 0
M  V30 57 N 5.9124 1.20967 1.01018 0
M  V30 58 C 6.8594 0.964281 2.09691 0
M  V30 59 C 7.8294 -0.107853 1.65749 0
M  V30 60 O 9.0144 0.0381987 1.90762 0
M  V30 61 C 6.1544 0.52943 3.41015 0
M  V30 62 C 5.2674 1.67043 3.98398 0
M  V30 63 C 4.4024 1.18525 5.17808 0
M  V30 64 C 3.4414 2.29892 5.67288 0
M  V30 65 N 2.5784 1.82546 6.77954 0
M  V30 66 H 7.4184 1.89463 2.30017 0
M  V30 67 H 4.9554 0.944289 1.1279 0
M  V30 68 H 6.9134 0.258588 4.16398 0
M  V30 69 H 5.5434 -0.363919 3.20742 0
M  V30 70 H 4.5954 2.05603 3.20049 0
M  V30 71 H 5.9074 2.50877 4.31117 0
M  V30 72 H 5.0614 0.870762 6.00419 0
M  V30 73 H 3.8004 0.316887 4.86669 0
M  V30 74 H 2.8054 2.6215 4.83278 0
M  V30 75 H 4.0304 3.17216 6.00459 0
M  V30 76 H 1.9764 0.980454 6.48632 0
M  V30 77 H 1.8934 2.59956 7.09901 0
M  V30 78 H 3.1614 1.54115 7.64113 0
M  V30 79 N 7.3905 -1.2043 1.01659 0
M  V30 80 C 8.6205 -1.93496 0.724081 0
M  V30 81 C 9.0285 -1.74998 -0.71918 0
M  V30 82 O 8.3715 -1.06118 -1.49949 0
M  V30 83 C 8.4335 -3.45886 0.97994 0
M  V30 84 C 8.0975 -3.88145 2.41232 0
M  V30 85 C 9.0945 -3.93907 3.39313 0
M  V30 86 C 6.7795 -4.20134 2.75305 0
M  V30 87 C 8.7735 -4.31069 4.6953 0
M  V30 88 C 6.4605 -4.56971 4.05735 0
M  V30 89 C 7.4585 -4.62411 5.02658 0
M  V30 90 O 7.1465 -4.98403 6.30754 0
M  V30 91 H 6.8785 -0.621824 0.265162 0
M  V30 92 H 9.4325 -1.53867 1.36066 0
M  V30 93 H 7.6625 -3.85639 0.286198 0
M  V30 94 H 9.3515 -4.0018 0.679021 0
M  V30 95 H 10.1175 -3.69357 3.14325 0
M  V30 96 H 5.9965 -4.1509 2.00551 0
M  V30 97 H 9.5405 -4.3523 5.45179 0
M  V30 98 H 5.4375 -4.80977 4.30502 0
M  V30 99 H 6.2055 -5.16395 6.35042 0
M  V30 100 N 8.8686 -0.792821 -1.36206 0
M  V30 101 C 10.1456 -0.290627 -1.93429 0
M  V30 102 C 10.5256 1.21773 -1.72437 0
M  V30 103 O 9.8736 2.0108 -1.08531 0
M  V30 104 C 10.0836 -0.686973 -3.42172 0
M  V30 105 C 11.4316 -0.668643 -4.19302 0
M  V30 106 O 12.4556 -0.627658 -3.50626 0
M  V30 107 O 11.3146 -0.714597 -5.41808 0
M  V30 108 H 8.4086 -0.0727927 -0.82379 0
M  V30 109 H 10.9546 -0.875593 -1.45367 0
M  V30 110 H 9.7266 -1.72711 -3.51122 0
M  V30 111 H 9.3496 -0.0760733 -3.97527 0
M  V30 112 N 10.3467 1.47872 -0.545128 0
M  V30 113 C 11.3097 2.28337 0.198717 0
M  V30 114 C 12.3097 1.36255 0.853888 0
M  V30 115 O 13.4997 1.59003 0.711606 0
M  V30 116 C 10.6317 3.15585 1.28915 0
M  V30 117 H 11.8247 2.95567 -0.507941 0
M  V30 118 H 9.3777 1.53362 -0.301616 0
M  V30 119 H 10.1127 2.53019 2.02859 0
M  V30 120 H 9.8977 3.83337 0.824309 0
M  V30 121 H 11.3877 3.76243 1.81194 0
M  V30 122 N 11.8248 0.280983 1.55075 0
M  V30 123 C 13.0738 -0.334784 1.98902 0
M  V30 124 C 13.3868 -1.56534 1.17288 0
M  V30 125 O 14.5928 -2.25443 1.51287 0
M  V30 126 C 13.0488 -0.646994 3.54037 0
M  V30 127 C 12.6568 0.564085 4.44435 0
M  V30 128 C 14.4008 -1.22506 4.06439 0
M  V30 129 C 12.3078 0.226137 5.90967 0
M  V30 130 H 11.2378 -0.128866 0.742906 0
M  V30 131 H 13.8888 0.386556 1.79382 0
M  V30 132 H 12.2708 -1.42739 3.6938 0
M  V30 133 H 13.4448 1.34082 4.40861 0
M  V30 134 H 11.7598 1.0594 4.02698 0
M  V30 135 H 14.3568 -1.49182 5.13468 0
M  V30 136 H 14.6998 -2.16085 3.55827 0
M  V30 137 H 15.2328 -0.50682 3.94558 0
M  V30 138 H 11.9718 1.12996 6.45687 0
M  V30 139 H 11.4918 -0.513717 5.97596 0
M  V30 140 H 13.1708 -0.179539 6.46751 0
M  V30 141 N 13.3029 -1.57598 0.00835791 0
M  V30 142 C 14.5519 -1.90107 -0.673968 0
M  V30 143 C 14.8649 -0.884275 -1.7447 0
M  V30 144 O 16.0709 -1.09987 -2.48224 0
M  V30 145 C 14.5269 -3.37497 -1.24995 0
M  V30 146 C 14.1349 -4.47491 -0.2136 0
M  V30 147 C 15.8789 -3.79104 -1.90999 0
M  V30 148 C 13.7859 -5.85963 -0.80005 0
M  V30 149 H 12.7159 -0.709393 -0.255495 0
M  V30 150 H 15.3669 -1.83365 0.0702693 0
M  V30 151 H 13.7489 -3.39102 -2.04513 0
M  V30 152 H 14.9229 -4.57414 0.557596 0
M  V30 153 H 13.2379 -4.14956 0.346474 0
M  V30 154 H 15.8349 -4.79901 -2.35795 0
M  V30 155 H 16.1779 -3.1306 -2.74407 0
M  V30 156 H 16.7109 -3.79833 -1.18203 0
M  V30 157 H 13.4499 -6.555 -0.00456708 0
M  V30 158 H 12.9699 -5.79687 -1.54021 0
M  V30 159 H 14.6489 -6.33884 -1.29615 0
M  V30 160 N 14.781 0.264519 -1.55364 0
M  V30 161 C 16.03 0.992812 -1.75574 0
M  V30 162 C 16.343 1.87142 -0.568979 0
M  V30 163 O 17.549 2.63513 -0.653682 0
M  V30 164 C 16.005 1.81519 -3.10771 0
M  V30 165 C 15.613 0.984839 -4.37041 0
M  V30 166 C 17.357 2.53727 -3.40327 0
M  V30 167 C 15.264 1.80209 -5.63275 0
M  V30 168 H 14.194 0.374412 -0.65447 0
M  V30 169 H 16.845 0.248138 -1.81815 0
M  V30 170 H 15.227 2.60115 -2.98591 0
M  V30 171 H 16.401 0.242455 -4.60162 0
M  V30 172 H 14.716 0.37691 -4.14691 0
M  V30 173 H 17.313 3.15292 -4.3185 0
M  V30 174 H 17.656 3.24447 -2.60845 0
M  V30 175 H 18.189 1.82156 -3.53644 0
M  V30 176 H 14.928 1.13896 -6.45529 0
M  V30 177 H 14.448 2.52022 -5.44284 0
M  V30 178 H 16.127 2.37364 -6.01887 0
M  V30 179 N 16.2591 1.48442 0.529413 0
M  V30 180 C 17.5071 1.56179 1.28267 0
M  V30 181 C 17.8281 0.237721 1.93546 0
M  V30 182 O 17.0981 -0.740779 1.81354 0
M  V30 183 H 15.6781 0.575367 0.476405 0
M  V30 184 H 18.3401 1.84909 0.61602 0
M  V30 185 H 17.4361 2.34312 2.06165 0
M  V30 186 N 17.7372 -0.778329 1.37039 0
M  V30 187 C 18.7002 -1.87301 1.32102 0
M  V30 188 C 19.7002 -1.59198 0.226405 0
M  V30 189 O 20.8902 -1.67403 0.481861 0
M  V30 190 C 18.0222 -3.24309 1.05055 0
M  V30 191 H 19.2152 -1.93093 2.29467 0
M  V30 192 H 16.7682 -0.977358 1.21973 0
M  V30 193 H 17.5032 -3.24196 0.0819373 0
M  V30 194 H 17.2882 -3.46098 1.84279 0
M  V30 195 H 18.7782 -4.04382 1.04234 0
M  V30 196 N 19.2153 -1.21501 -1.00376 0
M  V30 197 C 20.4633 -1.03095 -1.73827 0
M  V30 198 C 20.7843 0.436341 -1.90055 0
M  V30 199 O 20.0543 1.31466 -1.45236 0
M  V30 200 H 18.6343 -0.378487 -0.644016 0
M  V30 201 H 21.2963 -1.52831 -1.20949 0
M  V30 202 H 20.3923 -1.49991 -2.73695 0
M  V30 203 N 20.6934 1.19889 -1.02296 0
M  V30 204 C 21.9394 1.89701 -0.717033 0
M  V30 205 C 22.2724 1.7905 0.751989 0
M  V30 206 O 21.5474 1.17891 1.547 0
M  V30 207 C 21.8304 3.40858 -1.16136 0
M  V30 208 C 21.6834 3.60411 -2.69117 0
M  V30 209 C 23.0024 4.33876 -0.737549 0
M  V30 210 H 20.1214 0.688874 -0.261957 0
M  V30 211 H 22.7634 1.41154 -1.27183 0
M  V30 212 H 20.9134 3.82335 -0.689342 0
M  V30 213 H 22.5854 3.28145 -3.2422 0
M  V30 214 H 20.8284 3.03665 -3.0979 0
M  V30 215 H 21.4994 4.66396 -2.95261 0
M  V30 216 H 23.9754 4.00081 -1.14344 0
M  V30 217 H 22.8514 5.38242 -1.0764 0
M  V30 218 H 23.1124 4.40628 0.360436 0
M  V30 219 N 22.1715 0.800033 1.35784 0
M  V30 220 C 23.4205 0.37387 1.98205 0
M  V30 221 C 23.7335 -1.06302 1.64193 0
M  V30 222 O 24.9395 -1.59198 2.19928 0
M  V30 223 C 23.3955 0.617532 3.54562 0
M  V30 224 C 23.0035 2.06654 3.9749 0
M  V30 225 C 24.7475 0.256401 4.23725 0
M  V30 226 C 22.6545 2.2563 5.46667 0
M  V30 227 H 21.5845 0.136055 0.741623 0
M  V30 228 H 24.2355 0.983166 1.54939 0
M  V30 229 H 22.6175 -0.0616248 3.95952 0
M  V30 230 H 23.7915 2.78296 3.67271 0
M  V30 231 H 22.1065 2.38691 3.41197 0
M  V30 232 H 24.7035 0.376318 5.33374 0
M  V30 233 H 25.0465 -0.796692 4.08606 0
M  V30 234 H 25.5795 0.889214 3.87734 0
M  V30 235 H 22.3185 3.2936 5.66747 0
M  V30 236 H 21.8385 1.58504 5.78478 0
M  V30 237 H 23.5175 2.06861 6.1304 0
M  V30 238 N 23.6496 -1.47581 0.552962 0
M  V30 239 C 24.8976 -2.02082 0.0272703 0
M  V30 240 C 25.2186 -1.4301 -1.32563 0
M  V30 241 O 24.4886 -0.603745 -1.86365 0
M  V30 242 H 23.0686 -0.746966 0.00709182 0
M  V30 243 H 25.7306 -1.81033 0.722008 0
M  V30 244 H 24.8266 -3.12034 -0.0639951 0
M  V30 245 N 25.1277 -0.289203 -1.54924 0
M  V30 246 C 26.5387 0.205791 -1.85562 0
M  V30 247 C 26.8897 1.54351 -1.2112 0
M  V30 248 O 26.0147 2.10435 -0.504601 0
M  V30 249 C 26.6097 0.380177 -3.3666 0
M  V30 250 C 25.1687 0.819395 -3.67373 0
M  V30 251 C 24.3157 -0.079159 -2.77187 0
M  V30 252 H 27.2667 -0.510577 -1.50262 0
M  V30 253 H 27.2877 1.21659 -3.60526 0
M  V30 254 H 26.7997 -0.593589 -3.83534 0
M  V30 255 H 24.9007 1.80413 -3.26009 0
M  V30 256 H 25.0137 0.646957 -4.74712 0
M  V30 257 H 23.3777 0.439565 -2.50878 0
M  V30 258 H 24.1607 -1.04906 -3.26878 0
M  V30 259 N 26.6058 1.57591 -0.0167156 0
M  V30 260 C 27.8338 1.95575 0.675128 0
M  V30 261 C 28.2488 0.892542 1.6637 0
M  V30 262 O 27.6058 -0.126912 1.82058 0
M  V30 263 C 27.6568 3.33608 1.39239 0
M  V30 264 O 27.3778 4.3585 0.443444 0
M  V30 265 C 28.8788 3.86151 2.17721 0
M  V30 266 H 26.0988 0.644423 0.186978 0
M  V30 267 H 28.6428 2.0437 -0.0728 0
M  V30 268 H 26.7978 3.2607 2.09182 0
M  V30 269 H 27.2118 5.158 0.951358 0
M  V30 270 H 28.6858 4.85114 2.63379 0
M  V30 271 H 29.1628 3.19738 3.01105 0
M  V30 272 H 29.7688 3.96918 1.52761 0
M  V30 273 N 28.0839 -0.256276 1.55502 0
M  V30 274 C 29.3329 -0.983486 1.76098 0
M  V30 275 C 29.6459 -1.86837 0.578896 0
M  V30 276 O 30.8519 -2.63163 0.667648 0
M  V30 277 C 29.3079 -1.79868 3.1173 0
M  V30 278 C 28.9159 -0.961648 4.37557 0
M  V30 279 C 30.6599 -2.51919 3.41668 0
M  V30 280 C 28.5669 -1.77219 5.64223 0
M  V30 281 H 27.4969 -0.370936 0.656447 0
M  V30 282 H 30.1479 -0.238492 1.81944 0
M  V30 283 H 28.5299 -2.58527 2.99966 0
M  V30 284 H 29.7039 -0.218048 4.60284 0
M  V30 285 H 28.0189 -0.354913 4.14885 0
M  V30 286 H 30.6159 -3.12998 4.33516 0
M  V30 287 H 30.9589 -3.23059 2.62562 0
M  V30 288 H 31.4919 -1.80278 3.54605 0
M  V30 289 H 28.2309 -1.10471 6.46124 0
M  V30 290 H 27.7509 -2.49132 5.45613 0
M  V30 291 H 29.4299 -2.34169 6.03137 0
M  V30 292 N 29.562 -1.4872 -0.521534 0
M  V30 293 C 30.525 -1.63379 -1.60748 0
M  V30 294 C 31.525 -0.50661 -1.52611 0
M  V30 295 O 32.715 -0.772601 -1.5613 0
M  V30 296 C 29.847 -1.61192 -3.00383 0
M  V30 297 H 31.04 -2.60217 -1.49087 0
M  V30 298 H 28.593 -1.37444 -0.744235 0
M  V30 299 H 29.328 -0.65863 -3.17541 0
M  V30 300 H 29.113 -2.43032 -3.07698 0
M  V30 301 H 30.603 -1.7466 -3.7932 0
M  V30 302 N 31.0401 0.771051 -1.3745 0
M  V30 303 C 32.2681 1.56015 -1.35893 0
M  V30 304 C 32.6831 1.88718 0.0555523 0
M  V30 305 O 32.0401 1.51502 1.01752 0
M  V30 306 C 32.0911 2.87001 -2.19801 0
M  V30 307 O 31.8121 2.557 -3.55738 0
M  V30 308 C 33.3131 3.81228 -2.26231 0
M  V30 309 H 30.5331 0.483317 -0.465453 0
M  V30 310 H 33.0771 0.955611 -1.80799 0
M  V30 311 H 31.2321 3.43877 -1.78402 0
M  V30 312 H 31.6461 3.39584 -3.99729 0
M  V30 313 H 33.1201 4.70139 -2.89263 0
M  V30 314 H 33.5971 4.20409 -1.27093 0
M  V30 315 H 34.2031 3.30281 -2.67945 0
M  V30 316 N 32.5182 1.22032 0.997298 0
M  V30 317 C 33.4812 0.987909 2.06816 0
M  V30 318 C 34.4812 -0.0440084 1.6074 0
M  V30 319 O 35.6712 0.194053 1.73116 0
M  V30 320 C 32.8032 0.49132 3.37341 0
M  V30 321 H 33.9962 1.93803 2.28868 0
M  V30 322 H 31.5492 1.03838 1.16822 0
M  V30 323 H 32.2842 -0.463364 3.20973 0
M  V30 324 H 32.0692 1.23575 3.72118 0
M  V30 325 H 33.5592 0.348824 4.16141 0
M  V30 326 N 33.9963 -1.19345 1.0293 0
M  V30 327 C 35.2433 -1.89038 0.726008 0
M  V30 328 C 35.5713 -1.79649 -0.745427 0
M  V30 329 O 34.8263 -1.18354 -1.55855 0
M  V30 330 C 35.1253 -3.39292 1.12319 0
M  V30 331 C 34.7913 -3.68885 2.59297 0
M  V30 332 C 33.4533 -3.76671 2.99453 0
M  V30 333 C 35.8053 -3.82178 3.54386 0
M  V30 334 C 33.1333 -3.9522 4.33611 0
M  V30 335 C 35.4853 -4.0224 4.88248 0
M  V30 336 C 34.1493 -4.08259 5.28092 0
M  V30 337 H 33.4193 -0.691739 0.265665 0
M  V30 338 H 36.0663 -1.41328 1.29223 0
M  V30 339 H 34.3713 -3.88903 0.475584 0
M  V30 340 H 36.0683 -3.91536 0.866037 0
M  V30 341 H 32.6583 -3.63433 2.27189 0
M  V30 342 H 36.8423 -3.75505 3.24514 0
M  V30 343 H 32.0983 -3.98119 4.64016 0
M  V30 344 H 36.2723 -4.11468 5.61843 0
M  V30 345 H 33.8993 -4.22384 6.32057 0
M  V30 346 N 35.4744 -0.807222 -1.35358 0
M  V30 347 C 36.4374 -0.223665 -2.28106 0
M  V30 348 C 37.4374 0.589354 -1.4961 0
M  V30 349 O 38.6274 0.407745 -1.69361 0
M  V30 350 C 35.7594 0.688149 -3.33882 0
M  V30 351 H 36.9524 -1.04169 -2.81227 0
M  V30 352 H 34.5054 -0.577921 -1.45223 0
M  V30 353 H 35.2404 1.52984 -2.85948 0
M  V30 354 H 35.0254 0.10687 -3.91954 0
M  V30 355 H 36.5154 1.09075 -4.03104 0
M  V30 356 N 36.9525 1.47285 -0.560781 0
M  V30 357 C 38.3685 1.58065 -0.22081 0
M  V30 358 C 38.5685 1.55892 1.27671 0
M  V30 359 O 37.6245 1.46422 2.0571 0
M  V30 360 C 38.9375 2.88418 -0.850625 0
M  V30 361 C 40.4855 3.02009 -0.822184 0
M  V30 362 C 40.9605 4.35066 -1.43113 0
M  V30 363 N 42.4515 4.41711 -1.39448 0
M  V30 364 C 43.1865 5.43237 -1.83525 0
M  V30 365 N 42.6825 6.51555 -2.35474 0
M  V30 366 N 44.4755 5.34304 -1.74574 0
M  V30 367 H 36.6265 1.46941 -1.53369 0
M  V30 368 H 38.8895 0.699558 -0.639783 0
M  V30 369 H 38.5955 2.95755 -1.9032 0
M  V30 370 H 38.4695 3.75612 -0.345773 0
M  V30 371 H 40.8565 2.94266 0.221714 0
M  V30 372 H 40.9375 2.16347 -1.36483 0
M  V30 373 H 40.5815 4.43565 -2.47412 0
M  V30 374 H 40.5115 5.19465 -0.863899 0
M  V30 375 H 43.0025 3.64027 -1.01452 0
M  V30 376 H 43.3155 7.25203 -2.67021 0
M  V30 377 H 41.6605 6.52435 -2.39487 0
M  V30 378 H 44.8515 4.48581 -1.33763 0
M  V30 379 H 45.0245 6.13288 -2.09242 0
M  V30 380 N 38.4306 0.297415 1.54768 0
M  V30 381 C 39.3626 -0.613881 2.20826 0
M  V30 382 C 40.3756 -1.10032 1.19987 0
M  V30 383 O 41.5646 -1.01839 1.46598 0
M  V30 384 C 38.6646 -1.852 2.83821 0
M  V30 385 C 37.8376 -1.50865 4.10559 0
M  V30 386 C 36.8966 -2.60154 4.57391 0
M  V30 387 O 35.9226 -2.25398 5.2267 0
M  V30 388 N 37.1246 -3.90629 4.29406 0
M  V30 389 H 39.8896 -0.048389 2.99661 0
M  V30 390 H 37.4506 0.11946 1.61459 0
M  V30 391 H 39.4426 -2.57652 3.12086 0
M  V30 392 H 38.0126 -2.32597 2.08847 0
M  V30 393 H 37.2326 -0.616925 3.89343 0
M  V30 394 H 38.5206 -1.25458 4.9309 0
M  V30 395 H 37.9186 -4.21677 3.77101 0
M  V30 396 H 36.4756 -4.59391 4.62388 0
M  V30 397 N 39.9087 -1.5758 0.0250728 0
M  V30 398 C 41.1567 -1.91255 -0.653151 0
M  V30 399 C 41.4777 -0.901691 -1.729 0
M  V30 400 O 40.7477 0.0573785 -1.95816 0
M  V30 401 H 39.3277 -0.705942 -0.244243 0
M  V30 402 H 41.9897 -1.94767 0.0719209 0
M  V30 403 H 41.0857 -2.91752 -1.10847 0
M  V30 404 N 41.3868 0.248026 -1.55636 0
M  V30 405 C 42.8028 0.596483 -1.48035 0
M  V30 406 C 43.0028 1.88386 -0.715039 0
M  V30 407 O 42.0588 2.51319 -0.243944 0
M  V30 408 C 43.3718 0.700258 -2.92433 0
M  V30 409 C 44.9198 0.792659 -3.02797 0
M  V30 410 C 45.3948 0.928005 -4.485 0
M  V30 411 N 46.8858 0.992903 -4.52433 0
M  V30 412 C 47.6208 1.11687 -5.62418 0
M  V30 413 N 47.1168 1.20645 -6.82214 0
M  V30 414 N 48.9098 1.14994 -5.50212 0
M  V30 415 H 41.0608 -0.597109 -2.03834 0
M  V30 416 H 43.3238 -0.205925 -0.925364 0
M  V30 417 H 43.0298 -0.175658 -3.51261 0
M  V30 418 H 42.9038 1.57255 -3.42857 0
M  V30 419 H 45.2908 1.65903 -2.4405 0
M  V30 420 H 45.3718 -0.104762 -2.55585 0
M  V30 421 H 45.0158 0.0661971 -5.07857 0
M  V30 422 H 44.9458 1.84045 -4.93391 0
M  V30 423 H 47.4368 0.935064 -3.66149 0
M  V30 424 H 47.7498 1.30008 -7.61786 0
M  V30 425 H 46.0948 1.17605 -6.84977 0
M  V30 426 H 49.2858 1.07643 -4.55555 0
M  V30 427 H 49.4588 1.24311 -6.35965 0
M  V30 428 N 42.8649 1.48995 0.513639 0
M  V30 429 C 43.8119 1.6473 1.61656 0
M  V30 430 C 44.7819 0.488984 1.58739 0
M  V30 431 O 45.9669 0.714478 1.76918 0
M  V30 432 C 43.1069 1.7082 2.99858 0
M  V30 433 C 42.2199 2.9787 3.12885 0
M  V30 434 C 41.3549 2.95017 4.41744 0
M  V30 435 C 40.3939 4.16702 4.48359 0
M  V30 436 N 39.5309 4.11832 5.68629 0
M  V30 437 H 44.3709 2.58909 1.47547 0
M  V30 438 H 41.9079 1.28382 0.71808 0
M  V30 439 H 43.8659 1.72331 3.79944 0
M  V30 440 H 42.4959 0.801181 3.12699 0
M  V30 441 H 41.5479 3.06029 2.25944 0
M  V30 442 H 42.8599 3.8786 3.13633 0
M  V30 443 H 42.0139 2.95021 5.30139 0
M  V30 444 H 40.7529 2.02784 4.43542 0
M  V30 445 H 39.7579 4.16955 3.58369 0
M  V30 446 H 40.9829 5.10113 4.48287 0
M  V30 447 H 38.9289 3.22428 5.71293 0
M  V30 448 H 38.8459 4.95543 5.7094 0
M  V30 449 H 40.1139 4.1592 6.59266 0
M  V30 450 N 44.343 -0.763751 1.37857 0
M  V30 451 C 45.589 -1.52483 1.33704 0
M  V30 452 C 45.922 -1.94051 -0.0759612 0
M  V30 453 O 45.197 -1.64675 -1.03501 0
M  V30 454 C 45.48 -2.78441 2.28348 0
M  V30 455 C 45.333 -2.43075 3.78463 0
M  V30 456 C 46.652 -3.80415 2.21298 0
M  V30 457 H 43.771 -0.553169 0.487005 0
M  V30 458 H 46.413 -0.875562 1.68624 0
M  V30 459 H 44.563 -3.33842 1.987 0
M  V30 460 H 46.235 -1.93527 4.18742 0
M  V30 461 H 44.478 -1.75666 3.96641 0
M  V30 462 H 45.149 -3.33149 4.40132 0
M  V30 463 H 47.625 -3.34527 2.47449 0
M  V30 464 H 46.501 -4.66257 2.89647 0
M  V30 465 H 46.762 -4.25262 1.20849 0
M  V30 466 N 45.8211 -1.22559 -0.990812 0
M  V30 467 C 46.7511 -1.0218 -2.09956 0
M  V30 468 C 47.7321 0.0579394 -1.70001 0
M  V30 469 O 48.9171 -0.104684 -1.93918 0
M  V30 470 C 46.0471 -0.601023 -3.4206 0
M  V30 471 C 45.0011 -1.62694 -3.95872 0
M  V30 472 C 44.3271 -1.06193 -5.24049 0
M  V30 473 C 45.6271 -3.01743 -4.2632 0
M  V30 474 H 47.3211 -1.94916 -2.27262 0
M  V30 475 H 44.8671 -0.938566 -1.09211 0
M  V30 476 H 46.8201 -0.445561 -4.19038 0
M  V30 477 H 45.5441 0.362005 -3.24588 0
M  V30 478 H 44.2031 -1.77021 -3.21028 0
M  V30 479 H 43.8511 -0.0901903 -5.02919 0
M  V30 480 H 43.5511 -1.74732 -5.61019 0
M  V30 481 H 45.0751 -0.918092 -6.03658 0
M  V30 482 H 46.4891 -2.90777 -4.94087 0
M  V30 483 H 44.8861 -3.67425 -4.74467 0
M  V30 484 H 45.9561 -3.51518 -3.34011 0
M  V30 485 N 47.2992 1.18797 -1.03562 0
M  V30 486 C 48.5482 1.87978 -0.731235 0
M  V30 487 C 48.8612 1.80911 0.743671 0
M  V30 488 O 50.0672 2.45407 1.16137 0
M  V30 489 C 48.5232 3.3721 -1.25768 0
M  V30 490 C 48.1312 3.52818 -2.76085 0
M  V30 491 C 49.8752 4.11825 -1.0296 0
M  V30 492 C 47.7822 4.9598 -3.22114 0
M  V30 493 H 46.7122 0.704063 -0.269835 0
M  V30 494 H 49.3632 1.34266 -1.25079 0
M  V30 495 H 47.7452 3.90359 -0.666011 0
M  V30 496 H 48.9192 3.09965 -3.40966 0
M  V30 497 H 47.2342 2.91602 -2.97249 0
M  V30 498 H 49.8312 5.17411 -1.34869 0
M  V30 499 H 50.1742 4.16287 0.0333546 0
M  V30 500 H 50.7072 3.64833 -1.58562 0
M  V30 501 H 47.4462 4.96684 -4.27768 0
M  V30 502 H 46.9662 5.39569 -2.61965 0
M  V30 503 H 48.6452 5.6467 -3.15844 0
M  V30 504 N 48.7773 0.814389 1.34928 0
M  V30 505 C 50.0233 0.399013 1.98836 0
M  V30 506 C 50.3563 -1.03314 1.64438 0
M  V30 507 O 49.6313 -1.71811 0.911659 0
M  V30 508 C 49.9143 0.591629 3.55207 0
M  V30 509 C 49.7673 2.06928 3.99376 0
M  V30 510 C 51.0863 0.022199 4.40094 0
M  V30 511 H 48.2053 0.146451 0.722303 0
M  V30 512 H 50.8473 1.02537 1.59957 0
M  V30 513 H 48.9973 0.0584441 3.88456 0
M  V30 514 H 50.6693 2.66544 3.76499 0
M  V30 515 H 48.9123 2.56287 3.49999 0
M  V30 516 H 49.5833 2.1549 5.08201 0
M  V30 517 H 52.0593 0.477643 4.13349 0
M  V30 518 H 50.9353 0.186832 5.48582 0
M  V30 519 H 51.1963 -1.07215 4.28902 0
M  V30 520 N 50.2554 -1.46986 0.568584 0
M  V30 521 C 51.1654 -2.33942 -0.17555 0
M  V30 522 C 52.1814 -1.48891 -0.90041 0
M  V30 523 O 53.3574 -1.81794 -0.86676 0
M  V30 524 C 50.4224 -3.25811 -1.18524 0
M  V30 525 C 49.4834 -4.26757 -0.466582 0
M  V30 526 C 48.7164 -5.14236 -1.42817 0
M  V30 527 O 48.9394 -5.04379 -2.66379 0
M  V30 528 O 47.8734 -5.94412 -0.946453 0
M  V30 529 H 51.6994 -2.98896 0.538036 0
M  V30 530 H 49.2844 -1.4573 0.329097 0
M  V30 531 H 51.1664 -3.82527 -1.76779 0
M  V30 532 H 49.8414 -2.63471 -1.88055 0
M  V30 533 H 48.7484 -3.73769 0.157451 0
M  V30 534 H 50.0814 -4.91843 0.187485 0
M  V30 535 N 51.7335 -0.305618 -1.54608 0
M  V30 536 C 53.1495 0.0476228 -1.59529 0
M  V30 537 C 53.3495 1.52025 -1.32252 0
M  V30 538 O 52.4055 2.27368 -1.09818 0
M  V30 539 C 53.7185 -0.354471 -2.98603 0
M  V30 540 C 55.2665 -0.303622 -3.11524 0
M  V30 541 C 55.7415 -0.680608 -4.52915 0
M  V30 542 N 57.2325 -0.63332 -4.5885 0
M  V30 543 C 57.9675 -0.897432 -5.66334 0
M  V30 544 N 57.4635 -1.22775 -6.81834 0
M  V30 545 N 59.2565 -0.824186 -5.56025 0
M  V30 546 H 51.4075 -1.2653 -1.70599 0
M  V30 547 H 53.6705 -0.513291 -0.797017 0
M  V30 548 H 53.3765 -1.3798 -3.23503 0
M  V30 549 H 53.2505 0.289568 -3.76087 0
M  V30 550 H 55.6375 0.712472 -2.8637 0
M  V30 551 H 55.7185 -0.982348 -2.36185 0
M  V30 552 H 55.3625 -1.69453 -4.78799 0
M  V30 553 H 55.2925 0.0202385 -5.26596 0
M  V30 554 H 57.7835 -0.389138 -3.75891 0
M  V30 555 H 58.0965 -1.41513 -7.59733 0
M  V30 556 H 56.4415 -1.26583 -6.83375 0
M  V30 557 H 59.6325 -0.565748 -4.64669 0
M  V30 558 H 59.8055 -1.03338 -6.39707 0
M  V30 559 N 53.2116 1.57565 -0.0334293 0
M  V30 560 C 54.4886 1.83282 0.683163 0
M  V30 561 C 54.8686 0.91823 1.90084 0
M  V30 562 O 54.2166 -0.025113 2.28486 0
M  V30 563 C 54.4266 3.32599 1.0573 0
M  V30 564 C 55.7746 3.99179 1.44711 0
M  V30 565 O 56.7986 3.3712 1.15015 0
M  V30 566 O 55.6576 5.08565 2.0006 0
M  V30 567 H 52.7516 0.755869 0.335546 0
M  V30 568 H 55.2976 1.69589 -0.0614402 0
M  V30 569 H 54.0696 3.90834 0.190828 0
M  V30 570 H 53.6926 3.51415 1.85993 0
M  V30 571 N 54.6897 -0.239769 1.55765 0
M  V30 572 C 55.9357 -0.963942 1.79108 0
M  V30 573 C 56.2907 -1.82689 0.60352 0
M  V30 574 O 55.5837 -1.87313 -0.403033 0
M  V30 575 C 55.7777 -1.852 3.05672 0
M  V30 576 C 55.6067 -1.07651 4.36625 0
M  V30 577 C 54.3767 -0.778738 4.99263 0
M  V30 578 C 56.5747 -0.45062 5.12322 0
M  V30 579 N 54.5567 0.0200708 6.13897 0
M  V30 580 C 55.9277 0.212429 6.19636 0
M  V30 581 C 57.9827 -0.361806 4.96584 0
M  V30 582 C 56.6857 0.955772 7.12922 0
M  V30 583 C 58.7117 0.368023 5.90254 0
M  V30 584 C 58.0737 1.01968 6.96981 0
M  V30 585 H 54.1727 -0.333601 0.707272 0
M  V30 586 H 56.7567 -0.236425 1.93259 0
M  V30 587 H 54.9277 -2.55149 2.92837 0
M  V30 588 H 56.6597 -2.51228 3.1728 0
M  V30 589 H 53.4147 -1.09229 4.60832 0
M  V30 590 H 53.8387 0.407777 6.75771 0
M  V30 591 H 58.4807 -0.851286 4.14141 0
M  V30 592 H 56.1987 1.45683 7.9486 0
M  V30 593 H 59.7847 0.437504 5.80153 0
M  V30 594 H 58.6647 1.5754 7.68213 0
M  V30 595 N 56.1678 -1.49265 -0.50573 0
M  V30 596 C 57.3928 -1.62478 -1.28902 0
M  V30 597 C 57.8178 -0.294332 -1.85783 0
M  V30 598 O 57.1758 0.737412 -1.65626 0
M  V30 599 C 57.2238 -2.69268 -2.39848 0
M  V30 600 O 56.3278 -2.28113 -3.43567 0
M  V30 601 H 55.6688 -0.54399 -0.380751 0
M  V30 602 H 58.1988 -1.95421 -0.605952 0
M  V30 603 H 58.2088 -2.91291 -2.85681 0
M  V30 604 H 56.8838 -3.65846 -1.97812 0
M  V30 605 H 55.4608 -2.16401 -3.03685 0
M  V30 606 N 57.6459 0.756429 -1.3826 0
M  V30 607 C 58.5929 1.87011 -1.35261 0
M  V30 608 C 59.5629 1.64695 -0.215616 0
M  V30 609 O 60.7479 1.864 -0.407399 0
M  V30 610 C 57.8879 3.24275 -1.18068 0
M  V30 611 C 57.0009 3.58442 -2.41129 0
M  V30 612 C 56.1359 4.84994 -2.16689 0
M  V30 613 C 55.1749 5.11939 -3.35537 0
M  V30 614 N 54.3119 6.29685 -3.10549 0
M  V30 615 H 59.1519 1.8891 -2.30472 0
M  V30 616 H 56.6889 0.923373 -1.14509 0
M  V30 617 H 58.6469 4.03479 -1.06116 0
M  V30 618 H 57.2769 3.21711 -0.264973 0
M  V30 619 H 56.3289 2.74103 -2.63764 0
M  V30 620 H 57.6409 3.74283 -3.29717 0
M  V30 621 H 56.7949 5.72135 -2.01857 0
M  V30 622 H 55.5339 4.71286 -1.25462 0
M  V30 623 H 54.5389 4.23268 -3.50891 0
M  V30 624 H 55.7639 5.27546 -4.27635 0
M  V30 625 H 53.7099 6.17306 -2.21967 0
M  V30 626 H 53.6269 6.46014 -3.92686 0
M  V30 627 H 54.8949 7.19722 -2.99367 0
M  V30 628 N 59.124 1.23083 0.984299 0
M  V30 629 C 60.535 1.05609 1.5396 0
M  V30 630 C 60.886 -0.377793 1.92528 0
M  V30 631 O 60.011 -1.26398 1.75649 0
M  V30 632 C 60.606 1.91087 2.7977 0
M  V30 633 C 59.165 1.77885 3.31713 0
M  V30 634 C 58.312 1.87028 2.04733 0
M  V30 635 H 61.263 1.36802 0.804419 0
M  V30 636 H 61.284 1.43336 3.5247 0
M  V30 637 H 60.796 2.9544 2.51668 0
M  V30 638 H 58.897 0.762995 3.64704 0
M  V30 639 H 59.01 2.61047 4.01735 0
M  V30 640 H 57.374 1.30565 2.18689 0
M  V30 641 H 58.157 2.92929 1.79017 0
M  V30 642 N 60.6021 -1.18246 1.0419 0
M  V30 643 C 61.8791 -1.84121 0.660208 0
M  V30 644 C 62.2591 -1.92778 -0.860221 0
M  V30 645 O 61.6071 -1.45464 -1.76217 0
M  V30 646 C 61.8171 -3.22355 1.33747 0
M  V30 647 C 63.1651 -3.98376 1.46906 0
M  V30 648 O 64.1891 -3.31799 1.29568 0
M  V30 649 O 63.0481 -5.17665 1.75171 0
M  V30 650 H 60.1421 -0.794036 0.231161 0
M  V30 651 H 62.6881 -1.25628 1.14087 0
M  V30 652 H 61.4601 -3.10964 2.37522 0
M  V30 653 H 61.0831 -3.88506 0.845515 0
M  V30 654 N 62.0802 -0.821533 -1.34494 0
M  V30 655 C 63.4962 -0.507117 -1.51329 0
M  V30 656 C 63.6962 0.968964 -1.76673 0
M  V30 657 O 62.7522 1.75348 -1.81685 0
M  V30 658 C 64.0652 -1.36544 -2.67911 0
M  V30 659 C 65.6132 -1.36242 -2.81793 0
M  V30 660 C 66.0882 -2.2052 -4.01416 0
M  V30 661 N 67.5792 -2.18136 -4.08621 0
M  V30 662 C 68.3142 -2.80095 -5.00334 0
M  V30 663 N 67.8102 -3.51039 -5.9728 0
M  V30 664 N 69.6032 -2.69656 -4.93196 0
M  V30 665 H 61.7542 -1.77729 -1.16302 0
M  V30 666 H 64.0172 -0.757291 -0.570276 0
M  V30 667 H 63.7232 -2.41361 -2.55808 0
M  V30 668 H 63.5972 -1.02917 -3.62888 0
M  V30 669 H 65.9842 -0.322041 -2.93338 0
M  V30 670 H 66.0652 -1.73866 -1.87628 0
M  V30 671 H 65.7092 -3.24607 -3.90631 0
M  V30 672 H 65.6392 -1.80247 -4.94791 0
M  V30 673 H 68.1302 -1.6653 -3.39229 0
M  V30 674 H 68.4432 -3.95565 -6.63889 0
M  V30 675 H 66.7882 -3.55145 -5.97409 0
M  V30 676 H 69.9792 -2.13808 -4.16418 0
M  V30 677 H 70.1522 -3.1823 -5.64476 0
M  V30 678 N 63.5583 1.46682 -0.576371 0
M  V30 679 C 64.8073 2.01619 -0.0572825 0
M  V30 680 C 65.1203 1.45417 1.30818 0
M  V30 681 O 66.3263 1.92133 1.91825 0
M  V30 682 C 64.7823 3.59863 -0.0518371 0
M  V30 683 C 64.3903 4.25059 -1.41523 0
M  V30 684 C 66.1343 4.2248 0.413639 0
M  V30 685 C 64.0413 5.75364 -1.36785 0
M  V30 686 H 62.9713 0.753794 -0.0176448 0
M  V30 687 H 65.6223 1.68481 -0.727076 0
M  V30 688 H 64.0043 3.90048 0.683994 0
M  V30 689 H 65.1783 4.06491 -2.17029 0
M  V30 690 H 63.4933 3.7451 -1.8202 0
M  V30 691 H 66.0903 5.3265 0.467779 0
M  V30 692 H 66.4333 3.90976 1.42982 0
M  V30 693 H 66.9663 3.96897 -0.267929 0
M  V30 694 H 63.7053 6.11518 -2.36063 0
M  V30 695 H 63.2253 5.96214 -0.654895 0
M  V30 696 H 64.9043 6.37955 -1.07805 0
M  V30 697 N 65.0364 0.313813 1.54444 0
M  V30 698 C 66.2824 -0.292108 2.00685 0
M  V30 699 C 66.6154 -1.52548 1.20177 0
M  V30 700 O 65.8904 -1.92452 0.281531 0
M  V30 701 C 66.1734 -0.635968 3.5444 0
M  V30 702 C 66.0264 0.607437 4.4568 0
M  V30 703 C 67.3454 -1.45747 4.15266 0
M  V30 704 H 64.4644 -0.104697 0.729526 0
M  V30 705 H 67.1064 0.428457 1.85106 0
M  V30 706 H 65.2564 -1.24986 3.67846 0
M  V30 707 H 66.9284 1.24581 4.44159 0
M  V30 708 H 65.1714 1.23822 4.15753 0
M  V30 709 H 65.8424 0.322515 5.51057 0
M  V30 710 H 68.3184 -0.938645 4.05375 0
M  V30 711 H 67.1944 -1.66683 5.2298 0
M  V30 712 H 67.4554 -2.45063 3.67963 0
M  V30 713 N 66.5145 -1.57545 0.0417849 0
M  V30 714 C 67.7625 -1.91937 -0.632829 0
M  V30 715 C 68.0835 -0.919978 -1.71934 0
M  V30 716 O 67.3535 0.0366064 -1.95866 0
M  V30 717 H 65.9335 -0.708493 -0.236742 0
M  V30 718 H 68.5955 -1.9468 0.0925745 0
M  V30 719 H 67.6915 -2.92912 -1.07746 0
M  V30 720 N 67.9926 0.231505 -1.5589 0
M  V30 721 C 68.9026 1.308 -1.94752 0
M  V30 722 C 69.9186 1.51826 -0.849989 0
M  V30 723 O 71.0946 1.6515 -1.15271 0
M  V30 724 C 68.1596 2.63968 -2.24771 0
M  V30 725 C 67.2206 2.51331 -3.48039 0
M  V30 726 C 66.4536 3.78148 -3.76616 0
M  V30 727 O 66.6766 4.80722 -3.07022 0
M  V30 728 O 65.6106 3.75857 -4.70123 0
M  V30 729 H 69.4366 1.0083 -2.86474 0
M  V30 730 H 67.0216 0.433547 -1.42971 0
M  V30 731 H 68.9036 3.42633 -2.45318 0
M  V30 732 H 67.5786 2.9364 -1.36225 0
M  V30 733 H 66.4856 1.709 -3.32782 0
M  V30 734 H 67.8186 2.26601 -4.36936 0
M  V30 735 N 69.4707 1.49531 0.497807 0
M  V30 736 C 70.4007 1.6935 1.60757 0
M  V30 737 C 71.3817 0.542218 1.61227 0
M  V30 738 O 72.5667 0.778417 1.77917 0
M  V30 739 C 69.6967 1.76298 2.99226 0
M  V30 740 C 68.6507 2.91248 3.13622 0
M  V30 741 C 67.9767 2.83312 4.53474 0
M  V30 742 C 69.2767 4.3214 2.93346 0
M  V30 743 H 70.9707 2.62263 1.44425 0
M  V30 744 H 68.5167 1.26208 0.693367 0
M  V30 745 H 70.4697 1.88749 3.76765 0
M  V30 746 H 69.1937 0.799871 3.16654 0
M  V30 747 H 67.8527 2.78404 2.38509 0
M  V30 748 H 67.5007 1.84902 4.67782 0
M  V30 749 H 67.2007 3.60465 4.64046 0
M  V30 750 H 68.7247 2.97775 5.33069 0
M  V30 751 H 70.1387 4.45649 3.60652 0
M  V30 752 H 68.5357 5.1054 3.15387 0
M  V30 753 H 69.6057 4.46363 1.89441 0
M  V30 754 N 70.9488 -0.749086 1.3866 0
M  V30 755 C 71.8818 -1.87111 1.30631 0
M  V30 756 C 72.8598 -1.61572 0.18251 0
M  V30 757 O 74.0438 -1.85019 0.360592 0
M  V30 758 C 71.1708 -3.22815 1.02511 0
M  V30 759 C 70.2168 -3.67234 2.1689 0
M  V30 760 S 71.0498 -3.78245 3.79066 0
M  V30 761 C 72.2058 -5.16761 3.53142 0
M  V30 762 H 72.4388 -1.93636 2.25594 0
M  V30 763 H 69.9718 -0.912525 1.24549 0
M  V30 764 H 71.9298 -4.01181 0.869701 0
M  V30 765 H 70.5908 -3.13964 0.0925884 0
M  V30 766 H 69.7838 -4.65677 1.92771 0
M  V30 767 H 69.3858 -2.96034 2.28561 0
M  V30 768 H 71.6778 -6.02656 3.09534 0
M  V30 769 H 72.6208 -5.45902 4.50995 0
M  V30 770 H 73.0288 -4.85771 2.87554 0
M  V30 771 N 72.4269 -1.23603 -0.977757 0
M  V30 772 C 73.3589 -0.977369 -2.07317 0
M  V30 773 C 74.3719 0.0495845 -1.62724 0
M  V30 774 O 75.5609 -0.186261 -1.77526 0
M  V30 775 C 72.6609 -0.451216 -3.35883 0
M  V30 776 C 71.8339 -1.53896 -4.09432 0
M  V30 777 C 70.8929 -1.01721 -5.16274 0
M  V30 778 O 69.9189 -1.70676 -5.43009 0
M  V30 779 N 71.1209 0.153594 -5.80297 0
M  V30 780 H 73.8859 -1.92047 -2.30082 0
M  V30 781 H 71.4469 -1.14497 -1.14465 0
M  V30 782 H 73.4389 -0.0871574 -4.04606 0
M  V30 783 H 72.0089 0.397368 -3.10064 0
M  V30 784 H 71.2289 -2.07566 -3.35127 0
M  V30 785 H 72.5169 -2.27037 -4.55337 0
M  V30 786 H 71.9149 0.730323 -5.60966 0
M  V30 787 H 70.4719 0.458892 -6.50183 0
M  V30 788 N 73.905 1.17692 -1.04816 0
M  V30 789 C 75.316 1.69501 -0.782698 0
M  V30 790 C 75.667 1.83456 0.695577 0
M  V30 791 O 74.792 1.51942 1.54086 0
M  V30 792 C 75.387 3.07874 -1.41419 0
M  V30 793 C 73.946 3.56864 -1.19686 0
M  V30 794 C 73.093 2.3322 -1.50012 0
M  V30 795 H 76.044 1.02262 -1.2136 0
M  V30 796 H 76.065 3.71528 -0.821428 0
M  V30 797 H 75.577 2.97685 -2.49009 0
M  V30 798 H 73.678 3.72337 -0.140043 0
M  V30 799 H 73.791 4.39851 -1.89916 0
M  V30 800 H 72.155 2.37501 -0.920071 0
M  V30 801 H 72.938 2.25644 -2.58727 0
M  V30 802 N 75.3831 0.828654 1.34056 0
M  V30 803 C 76.3461 0.259927 2.27721 0
M  V30 804 C 77.3461 -0.565478 1.50529 0
M  V30 805 O 78.5361 -0.38075 1.69988 0
M  V30 806 C 75.6681 -0.634944 3.34935 0
M  V30 807 H 76.8611 1.0863 2.79534 0
M  V30 808 H 74.4141 0.600951 1.44285 0
M  V30 809 H 75.1491 -1.48416 2.88346 0
M  V30 810 H 74.9341 -0.0444999 3.92075 0
M  V30 811 H 76.4241 -1.02648 4.04788 0
M  V30 812 N 76.8612 -1.46375 0.584142 0
M  V30 813 C 78.1092 -2.01978 0.0701287 0
M  V30 814 C 78.4302 -1.4579 -1.295 0
M  V30 815 O 77.7002 -0.64314 -1.85042 0
M  V30 816 H 76.2802 -0.746648 0.0229345 0
M  V30 817 H 78.9422 -1.79461 0.760245 0
M  V30 818 H 78.0382 -3.121 0.0022064 0
M  V30 819 N 78.3393 -0.321999 -1.54275 0
M  V30 820 C 79.5883 0.281931 -1.9972 0
M  V30 821 C 79.9013 1.53369 -1.21397 0
M  V30 822 O 81.1073 2.21352 -1.57211 0
M  V30 823 C 79.5633 0.5529 -3.55628 0
M  V30 824 C 79.1713 -0.681721 -4.42783 0
M  V30 825 C 80.9153 1.11687 -4.09544 0
M  V30 826 C 78.8223 -0.382742 -5.9016 0
M  V30 827 H 77.7523 0.109124 -0.746062 0
M  V30 828 H 80.4033 -0.43398 -1.78294 0
M  V30 829 H 78.7853 1.32896 -3.73035 0
M  V30 830 H 79.9593 -1.45723 -4.37151 0
M  V30 831 H 78.2743 -1.1658 -3.99748 0
M  V30 832 H 80.8713 1.35515 -5.17242 0
M  V30 833 H 81.2143 2.06575 -3.61431 0
M  V30 834 H 81.7473 0.402032 -3.95763 0
M  V30 835 H 78.4863 -1.30076 -6.42464 0
M  V30 836 H 78.0063 0.355094 -5.98748 0
M  V30 837 H 79.6853 0.00800157 -6.47 0
M  V30 838 N 79.8174 1.5752 -0.0501392 0
M  V30 839 C 80.7644 2.1147 0.924603 0
M  V30 840 C 81.7344 1.02182 1.30951 0
M  V30 841 O 82.9194 1.29723 1.39916 0
M  V30 842 C 80.0594 2.66337 2.19451 0
M  V30 843 C 79.1724 3.89708 1.86418 0
M  V30 844 C 78.3074 4.32893 3.07859 0
M  V30 845 C 77.3464 5.48967 2.70742 0
M  V30 846 N 76.4834 5.87211 3.84874 0
M  V30 847 H 81.3234 2.94465 0.457639 0
M  V30 848 H 78.8604 1.45531 0.214266 0
M  V30 849 H 80.8184 2.96247 2.93758 0
M  V30 850 H 79.4484 1.86141 2.63726 0
M  V30 851 H 78.5004 3.66396 1.02264 0
M  V30 852 H 79.8124 4.74074 1.55096 0
M  V30 853 H 78.9664 4.6435 3.90466 0
M  V30 854 H 77.7054 3.47336 3.42358 0
M  V30 855 H 76.7104 5.17183 1.86551 0
M  V30 856 H 77.9354 6.3624 2.37436 0
M  V30 857 H 75.8814 5.04607 4.19175 0
M  V30 858 H 75.7984 6.66266 3.57247 0
M  V30 859 H 77.0664 6.23282 4.68123 0
M  V30 860 N 81.2955 -0.223234 1.56011 0
M  V30 861 C 82.2585 -1.26014 1.9145 0
M  V30 862 C 83.2585 -1.3989 0.792937 0
M  V30 863 O 84.4485 -1.38184 1.0607 0
M  V30 864 C 81.5805 -2.63422 2.16383 0
M  V30 865 H 82.7735 -0.95796 2.84189 0
M  V30 866 H 80.3265 -0.463576 1.49267 0
M  V30 867 H 81.0615 -2.98741 1.2619 0
M  V30 868 H 80.8465 -2.54728 2.98088 0
M  V30 869 H 82.3365 -3.38249 2.44903 0
M  V30 870 N 82.7736 -1.49793 -0.48987 0
M  V30 871 C 83.7036 -1.70201 -1.59856 0
M  V30 872 C 84.6846 -0.55076 -1.60937 0
M  V30 873 O 85.8696 -0.787841 -1.77501 0
M  V30 874 C 82.9996 -1.77882 -2.98287 0
M  V30 875 C 81.9536 -2.92907 -3.12073 0
M  V30 876 C 81.2796 -2.85712 -4.51965 0
M  V30 877 C 82.5796 -4.3369 -2.91051 0
M  V30 878 H 84.2736 -2.63025 -1.43032 0
M  V30 879 H 81.8196 -1.26574 -0.686664 0
M  V30 880 H 83.7726 -1.90744 -3.75759 0
M  V30 881 H 82.4966 -0.816653 -3.16225 0
M  V30 882 H 81.1556 -2.79665 -2.37029 0
M  V30 883 H 80.8036 -1.8738 -4.66795 0
M  V30 884 H 80.5036 -3.62921 -4.62128 0
M  V30 885 H 82.0276 -3.00598 -5.31482 0
M  V30 886 H 83.4416 -4.47555 -3.58284 0
M  V30 887 H 81.8386 -5.12205 -3.12675 0
M  V30 888 H 82.9086 -4.47362 -1.87071 0
M  V30 889 N 84.2517 0.741722 -1.39055 0
M  V30 890 C 85.6677 1.04638 -1.20512 0
M  V30 891 C 85.8677 2.01405 -0.0620218 0
M  V30 892 O 84.9237 2.45547 0.588457 0
M  V30 893 C 86.2367 1.6151 -2.53643 0
M  V30 894 C 87.7847 1.73623 -2.6043 0
M  V30 895 C 88.2597 2.33906 -3.93767 0
M  V30 896 N 89.7507 2.41323 -3.9537 0
M  V30 897 C 90.4857 2.88888 -4.95309 0
M  V30 898 N 89.9817 3.36401 -6.05645 0
M  V30 899 N 91.7747 2.88037 -4.82692 0
M  V30 900 H 83.9257 0.0998155 -2.12165 0
M  V30 901 H 86.1887 0.106907 -0.941953 0
M  V30 902 H 85.8947 0.978739 -3.37807 0
M  V30 903 H 85.7687 2.60411 -2.72885 0
M  V30 904 H 88.1557 2.36384 -1.76655 0
M  V30 905 H 88.2367 0.733945 -2.45045 0
M  V30 906 H 87.8807 1.71776 -4.7797 0
M  V30 907 H 87.8107 3.34799 -4.06469 0
M  V30 908 H 90.3017 2.07734 -3.15682 0
M  V30 909 H 90.6147 3.71186 -6.77821 0
M  V30 910 H 88.9597 3.34427 -6.09248 0
M  V30 911 H 92.1507 2.50237 -3.95599 0
M  V30 912 H 92.3237 3.24792 -5.60726 0
M  V30 913 N 85.7298 1.2412 0.971189 0
M  V30 914 C 86.6398 1.04747 2.09917 0
M  V30 915 C 87.6558 -0.0107162 1.73997 0
M  V30 916 O 88.8318 0.186714 2.00533 0
M  V30 917 C 85.8968 0.650828 3.40537 0
M  V30 918 C 84.9578 1.7851 3.90426 0
M  V30 919 C 84.1908 1.40729 5.14812 0
M  V30 920 O 84.4138 0.29557 5.69634 0
M  V30 921 O 83.3478 2.23168 5.58999 0
M  V30 922 H 87.1738 1.99304 2.29154 0
M  V30 923 H 84.7588 1.02908 1.08307 0
M  V30 924 H 86.6408 0.440992 4.19086 0
M  V30 925 H 85.3158 -0.265649 3.22608 0
M  V30 926 H 84.2228 2.04966 3.12953 0
M  V30 927 H 85.5558 2.68023 4.12825 0
M  V30 928 N 87.2079 -1.17134 1.05439 0
M  V30 929 C 88.1379 -2.2342 0.678649 0
M  V30 930 C 89.1189 -1.66971 -0.32476 0
M  V30 931 O 90.3039 -1.93149 -0.201802 0
M  V30 932 C 87.4339 -3.47256 0.0552099 0
M  V30 933 C 86.3879 -4.16543 0.98365 0
M  V30 934 C 85.7139 -5.34231 0.223961 0
M  V30 935 C 87.0139 -4.68495 2.3089 0
M  V30 936 H 88.7079 -2.55105 1.56722 0
M  V30 937 H 86.2539 -1.2262 0.754998 0
M  V30 938 H 88.2069 -4.20828 -0.21946 0
M  V30 939 H 86.9309 -3.14846 -0.868319 0
M  V30 940 H 85.5899 -3.44887 1.24293 0
M  V30 941 H 85.2379 -4.98071 -0.702412 0
M  V30 942 H 84.9379 -5.81527 0.842627 0
M  V30 943 H 86.4619 -6.10585 -0.0433671 0
M  V30 944 H 87.8759 -5.33691 2.09396 0
M  V30 945 H 86.2729 -5.26379 2.88176 0
M  V30 946 H 87.3429 -3.85169 2.94572 0
M  V30 947 N 88.686 -0.835752 -1.33615 0
M  V30 948 C 89.934 -0.429109 -1.97492 0
M  V30 949 C 90.255 1.01433 -1.66543 0
M  V30 950 O 89.525 1.70611 -0.962744 0
M  V30 951 H 88.105 -0.155686 -0.730596 0
M  V30 952 H 90.767 -1.06802 -1.63031 0
M  V30 953 H 89.863 -0.55861 -3.0706 0
M  V30 954 N 90.1641 1.46063 -0.591896 0
M  V30 955 C 91.0971 2.27452 0.184617 0
M  V30 956 C 92.0751 1.36188 0.888351 0
M  V30 957 O 93.2591 1.65606 0.90039 0
M  V30 958 C 90.3861 3.14162 1.26571 0
M  V30 959 C 89.4321 4.21255 0.666814 0
M  V30 960 S 90.2651 5.33034 -0.513345 0
M  V30 961 C 91.4211 6.23311 0.56872 0
M  V30 962 H 91.6541 2.92963 -0.505939 0
M  V30 963 H 89.1871 1.49676 -0.379014 0
M  V30 964 H 91.1451 3.6468 1.88463 0
M  V30 965 H 89.8061 2.47946 1.92826 0
M  V30 966 H 88.9991 4.81788 1.47974 0
M  V30 967 H 88.6011 3.73797 0.123359 0
M  V30 968 H 90.8931 6.61758 1.45198 0
M  V30 969 H 91.8361 7.081 -7.23824e-05 0
M  V30 970 H 92.2441 5.57646 0.876996 0
M  V30 971 N 91.6422 0.330177 1.54103 0
M  V30 972 C 92.8912 -0.271336 1.99867 0
M  V30 973 C 93.2042 -1.52723 1.22209 0
M  V30 974 O 94.4102 -2.20515 1.58383 0
M  V30 975 C 92.8662 -0.534032 3.55916 0
M  V30 976 C 92.4742 0.705193 4.42415 0
M  V30 977 C 94.2182 -1.09514 4.1013 0
M  V30 978 C 92.1252 0.414035 5.89949 0
M  V30 979 H 91.0552 -0.105166 0.74663 0
M  V30 980 H 93.7062 0.443429 1.78062 0
M  V30 981 H 92.0882 -1.30915 3.73734 0
M  V30 982 H 93.2622 1.4804 4.36372 0
M  V30 983 H 91.5772 1.18698 3.99124 0
M  V30 984 H 94.1742 -1.3277 5.17954 0
M  V30 985 H 94.5172 -2.04656 3.62521 0
M  V30 986 H 95.0502 -0.381038 3.95971 0
M  V30 987 H 91.7892 1.33481 6.41766 0
M  V30 988 H 91.3092 -0.323336 5.98928 0
M  V30 989 H 92.9882 0.0263105 6.46995 0
M  V30 990 N 93.1203 -1.57491 0.0584922 0
M  V30 991 C 94.0673 -2.11958 -0.913376 0
M  V30 992 C 95.0373 -1.02875 -1.30407 0
M  V30 993 O 96.2223 -1.30464 -1.39226 0
M  V30 994 C 93.3623 -2.67497 -2.18035 0
M  V30 995 C 92.4753 -3.90691 -1.84349 0
M  V30 996 C 91.6103 -4.3452 -3.05559 0
M  V30 997 C 90.6493 -5.50395 -2.67827 0
M  V30 998 N 89.7863 -5.89244 -3.81754 0
M  V30 999 H 94.6263 -2.94704 -0.442017 0
M  V30 1000 H 92.1633 -1.45643 -0.206545 0
M  V30 1001 H 94.1213 -2.978 -2.92183 0
M  V30 1002 H 92.7513 -1.87537 -2.62735 0
M  V30 1003 H 91.8033 -3.66934 -1.00319 0
M  V30 1004 H 93.1153 -4.7489 -1.5258 0
M  V30 1005 H 92.2693 -4.66414 -3.87998 0
M  V30 1006 H 91.0083 -3.49147 -3.40511 0
M  V30 1007 H 90.0133 -5.18165 -1.83806 0
M  V30 1008 H 91.2383 -6.3749 -2.34059 0
M  V30 1009 H 89.1843 -5.06823 -4.16493 0
M  V30 1010 H 89.1013 -6.68151 -3.53708 0
M  V30 1011 H 90.3693 -6.25756 -4.64811 0
M  V30 1012 N 94.5984 0.214957 -1.56127 0
M  V30 1013 C 95.5614 1.24997 -1.92116 0
M  V30 1014 C 96.5614 1.39467 -0.800344 0
M  V30 1015 O 97.7514 1.37619 -1.06802 0
M  V30 1016 C 94.8834 2.62271 -2.17777 0
M  V30 1017 H 96.0764 0.942875 -2.84693 0
M  V30 1018 H 93.6294 0.455654 -1.49511 0
M  V30 1019 H 94.3644 2.98068 -1.27773 0
M  V30 1020 H 94.1494 2.53143 -2.99434 0
M  V30 1021 H 95.6394 3.36946 -2.46693 0
M  V30 1022 N 96.0765 1.50051 0.48192 0
M  V30 1023 C 97.3255 1.59741 1.23149 0
M  V30 1024 C 97.6385 0.298163 1.93314 0
M  V30 1025 O 98.8445 0.273835 2.70116 0
M  V30 1026 C 97.3005 2.81926 2.23708 0
M  V30 1027 C 96.9085 4.18685 1.59396 0
M  V30 1028 C 98.6525 3.00956 2.99375 0
M  V30 1029 C 96.5595 5.3207 2.58178 0
M  V30 1030 H 95.4895 0.594838 0.46334 0
M  V30 1031 H 98.1405 1.76467 0.503169 0
M  V30 1032 H 96.5225 2.58736 2.99786 0
M  V30 1033 H 97.6965 4.52088 0.891811 0
M  V30 1034 H 96.0115 4.05171 0.960503 0
M  V30 1035 H 98.6085 3.82836 3.73283 0
M  V30 1036 H 98.9515 2.12258 3.58123 0
M  V30 1037 H 99.4845 3.24277 2.30411 0
M  V30 1038 H 96.2235 6.22888 2.04184 0
M  V30 1039 H 95.7435 5.03098 3.26577 0
M  V30 1040 H 97.4225 5.62196 3.20225 0
M  V30 1041 N 97.5546 -0.734337 1.39446 0
M  V30 1042 C 98.5026 -1.86971 1.38364 0
M  V30 1043 C 99.4966 -1.67288 0.266687 0
M  V30 1044 O 100.703 -1.74621 0.436755 0
M  V30 1045 H 97.0776 -0.615474 0.432082 0
M  V30 1046 H 99.0486 -1.85 2.34132 0
M  V30 1047 C 97.7976 -3.2466 1.24465 0
M  V30 1048 H 97.1206 -3.40402 2.09682 0
M  V30 1049 H 98.5606 -4.04292 1.27764 0
M  V30 1050 C 97.0196 -3.36867 -0.0468674 0
M  V30 1051 O 97.5496 -3.88618 -1.01681 0
M  V30 1052 N 95.7556 -2.90391 -0.110145 0
M  V30 1053 H 95.3026 -2.48466 0.679868 0
M  V30 1054 H 95.2606 -2.98939 -0.973799 0
M  V30 1055 N 99.0327 -1.24633 -0.964593 0
M  V30 1056 C 99.9807 -1.03917 -2.08096 0
M  V30 1057 C 100.975 0.0268581 -1.69379 0
M  V30 1058 O 102.181 -0.127952 -1.79545 0
M  V30 1059 H 98.5557 -0.319044 -0.680966 0
M  V30 1060 H 100.527 -1.98581 -2.22729 0
M  V30 1061 C 99.2757 -0.663983 -3.41301 0
M  V30 1062 H 98.5987 -1.47605 -3.71555 0
M  V30 1063 H 100.039 -0.558663 -4.20303 0
M  V30 1064 C 98.4977 0.629169 -3.30973 0
M  V30 1065 O 99.0277 1.67404 -3.65156 0
M  V30 1066 N 97.2337 0.611057 -2.84103 0
M  V30 1067 H 96.7807 -0.239593 -2.56483 0
M  V30 1068 H 96.7387 1.47647 -2.77575 0
M  V30 1069 N 100.511 1.16574 -1.06058 0
M  V30 1070 C 101.76 1.86385 -0.770944 0
M  V30 1071 C 102.073 1.82448 0.705129 0
M  V30 1072 O 103.279 2.47815 1.10905 0
M  V30 1073 C 101.735 3.34466 -1.32893 0
M  V30 1074 C 101.343 3.46883 -2.83507 0
M  V30 1075 C 103.087 4.09548 -1.11672 0
M  V30 1076 C 100.994 4.89036 -3.32562 0
M  V30 1077 H 99.9238 0.698181 -0.284709 0
M  V30 1078 H 102.575 1.31583 -1.27899 0
M  V30 1079 H 100.957 3.88859 -0.748662 0
M  V30 1080 H 102.131 3.02663 -3.47465 0
M  V30 1081 H 100.446 2.85232 -3.03368 0
M  V30 1082 H 103.043 5.14434 -1.45814 0
M  V30 1083 H 103.386 4.16264 -0.0549535 0
M  V30 1084 H 103.919 3.61387 -1.66265 0
M  V30 1085 H 100.658 4.87499 -4.38207 0
M  V30 1086 H 100.178 5.3389 -2.73351 0
M  V30 1087 H 101.857 5.57843 -3.2775 0
M  V30 1088 N 101.989 0.842826 1.3317 0
M  V30 1089 C 103.405 0.531128 1.50503 0
M  V30 1090 C 103.605 -0.940734 1.78192 0
M  V30 1091 O 102.661 -1.72436 1.84451 0
M  V30 1092 C 103.974 1.40789 2.65705 0
M  V30 1093 C 105.522 1.40708 2.79589 0
M  V30 1094 C 105.997 2.26878 3.97857 0
M  V30 1095 N 107.488 2.24609 4.05099 0
M  V30 1096 C 108.223 2.88019 4.95815 0
M  V30 1097 N 107.719 3.60496 5.9162 0
M  V30 1098 N 109.512 2.77469 4.88843 0
M  V30 1099 H 101.663 1.79557 1.1346 0
M  V30 1100 H 103.926 0.766267 0.558156 0
M  V30 1101 H 103.632 2.454 2.51936 0
M  V30 1102 H 103.506 1.08677 3.61205 0
M  V30 1103 H 105.893 0.368668 2.92788 0
M  V30 1104 H 105.974 1.76829 1.84838 0
M  V30 1105 H 105.618 3.3078 3.85418 0
M  V30 1106 H 105.548 1.88096 4.91861 0
M  V30 1107 H 108.039 1.71906 3.36536 0
M  V30 1108 H 108.352 4.06076 6.57512 0
M  V30 1109 H 106.697 3.64604 5.91683 0
M  V30 1110 H 109.888 2.20406 4.12963 0
M  V30 1111 H 110.061 3.2717 5.59342 0
M  V30 1112 N 103.467 -1.45747 0.599634 0
M  V30 1113 C 104.43 -2.28917 -0.113835 0
M  V30 1114 C 105.43 -1.3933 -0.802729 0
M  V30 1115 O 106.62 -1.61534 -0.652103 0
M  V30 1116 C 103.752 -3.20152 -1.17114 0
M  V30 1117 H 104.945 -2.93478 0.617289 0
M  V30 1118 H 102.498 -1.52137 0.358327 0
M  V30 1119 H 103.233 -2.60374 -1.93329 0
M  V30 1120 H 103.018 -3.86133 -0.681468 0
M  V30 1121 H 104.508 -3.82708 -1.67105 0
M  V30 1122 N 104.945 -0.338344 -1.53925 0
M  V30 1123 C 106.191 0.260143 -2.01125 0
M  V30 1124 C 106.524 1.50617 -1.22589 0
M  V30 1125 O 105.799 1.91979 -0.312113 0
M  V30 1126 C 106.082 0.579499 -3.55407 0
M  V30 1127 C 105.935 -0.678264 -4.44657 0
M  V30 1128 C 107.254 1.39122 -4.17532 0
M  V30 1129 H 104.373 0.0930772 -0.731099 0
M  V30 1130 H 107.015 -0.457852 -1.84401 0
M  V30 1131 H 105.165 1.19118 -3.69788 0
M  V30 1132 H 106.837 -1.31631 -4.42121 0
M  V30 1133 H 105.08 -1.3042 -4.13731 0
M  V30 1134 H 105.751 -0.410143 -5.50474 0
M  V30 1135 H 108.227 0.874035 -4.06817 0
M  V30 1136 H 107.103 1.58342 -5.25565 0
M  V30 1137 H 107.364 2.39178 -3.71815 0
M  V30 1138 N 106.423 1.57458 -0.0668435 0
M  V30 1139 C 107.7 1.8469 0.644132 0
M  V30 1140 C 108.08 0.958343 1.88093 0
M  V30 1141 O 107.428 0.0233579 2.28488 0
M  V30 1142 C 107.638 3.34767 0.986509 0
M  V30 1143 C 108.986 4.02159 1.36212 0
M  V30 1144 O 110.01 3.39484 1.07839 0
M  V30 1145 O 108.869 5.12694 1.89227 0
M  V30 1146 H 105.963 0.762816 0.319437 0
M  V30 1147 H 108.509 1.6942 -0.0973986 0
M  V30 1148 H 107.281 3.91151 0.107883 0
M  V30 1149 H 106.904 3.55281 1.78497 0
M  V30 1150 N 107.901 -0.206675 1.56239 0
M  V30 1151 C 109.141 -0.93574 1.81723 0
M  V30 1152 C 109.505 -1.80927 0.642609 0
M  V30 1153 O 110.706 -2.57323 0.777081 0
M  V30 1154 C 108.977 -1.74012 3.12177 0
M  V30 1155 S 110.536 -2.52279 3.59028 0
M  V30 1156 H 107.354 -0.314065 0.637875 0
M  V30 1157 H 109.956 -0.200071 1.94474 0
M  V30 1158 H 108.66 -1.0888 3.95693 0
M  V30 1159 H 108.191 -2.51782 3.02274 0
M  V30 1160 H 110.206 -3.76209 3.23545 0
M  V30 1161 N 109.379 -1.50304 -0.473955 0
M  V30 1162 C 110.607 -1.64902 -1.24959 0
M  V30 1163 C 111.022 -0.331198 -1.85872 0
M  V30 1164 O 110.379 0.68652 -1.69095 0
M  V30 1165 C 110.43 -2.73803 -2.36038 0
M  V30 1166 O 110.151 -4.00477 -1.77624 0
M  V30 1167 C 111.652 -2.99349 -3.26964 0
M  V30 1168 H 108.872 -0.554383 -0.378022 0
M  V30 1169 H 111.416 -1.9651 -0.566054 0
M  V30 1170 H 109.571 -2.44898 -3.00173 0
M  V30 1171 H 109.985 -4.60678 -2.5075 0
M  V30 1172 H 111.459 -3.79217 -4.01121 0
M  V30 1173 H 111.936 -2.10307 -3.85574 0
M  V30 1174 H 112.542 -3.29774 -2.68569 0
M  V30 1175 N 110.857 0.726932 -1.39834 0
M  V30 1176 C 112.105 1.4837 -1.37225 0
M  V30 1177 C 112.426 1.94979 0.0284857 0
M  V30 1178 O 111.696 1.69555 0.981213 0
M  V30 1179 H 110.276 0.55043 -0.505011 0
M  V30 1180 H 112.938 0.862468 -1.74778 0
M  V30 1181 H 112.034 2.36198 -2.04003 0
M  V30 1182 N 112.336 1.25143 0.95797 0
M  V30 1183 C 113.566 1.12261 1.73439 0
M  V30 1184 C 113.974 -0.326715 1.86358 0
M  V30 1185 O 113.317 -1.2367 1.35836 0
M  V30 1186 C 113.379 1.69966 3.16784 0
M  V30 1187 C 113.043 3.18936 3.27305 0
M  V30 1188 C 114.04 4.15968 3.11877 0
M  V30 1189 C 111.725 3.59083 3.51234 0
M  V30 1190 C 113.719 5.51126 3.20217 0
M  V30 1191 C 111.406 4.9438 3.5921 0
M  V30 1192 C 112.404 5.90211 3.43716 0
M  V30 1193 O 112.092 7.23046 3.51368 0
M  V30 1194 H 111.824 0.392476 0.550399 0
M  V30 1195 H 114.378 1.65927 1.21068 0
M  V30 1196 H 112.608 1.10744 3.70503 0
M  V30 1197 H 114.297 1.52232 3.76272 0
M  V30 1198 H 115.063 3.86292 2.93264 0
M  V30 1199 H 110.942 2.84989 3.62356 0
M  V30 1200 H 114.486 6.25905 3.0804 0
M  V30 1201 H 110.383 5.23723 3.77339 0
M  V30 1202 H 111.151 7.31097 3.6802 0
M  V30 1203 N 113.814 -1.1601 1.06675 0
M  V30 1204 C 115.044 -1.90251 0.805497 0
M  V30 1205 C 115.452 -1.77891 -0.64431 0
M  V30 1206 O 114.795 -1.12383 -1.45313 0
M  V30 1207 C 114.857 -3.41419 1.12576 0
M  V30 1208 C 114.521 -3.77564 2.57477 0
M  V30 1209 C 115.518 -3.79161 3.55715 0
M  V30 1210 C 113.203 -4.08079 2.92877 0
M  V30 1211 C 115.197 -4.10767 4.8739 0
M  V30 1212 C 112.884 -4.39351 4.24751 0
M  V30 1213 C 113.882 -4.40675 5.21818 0
M  V30 1214 O 113.57 -4.71202 6.51325 0
M  V30 1215 H 113.302 -0.610018 0.291297 0
M  V30 1216 H 115.856 -1.47958 1.4247 0
M  V30 1217 H 114.086 -3.84079 0.449503 0
M  V30 1218 H 115.775 -3.9694 0.84814 0
M  V30 1219 H 116.541 -3.55693 3.29708 0
M  V30 1220 H 112.42 -4.06211 2.17976 0
M  V30 1221 H 115.964 -4.11715 5.63148 0
M  V30 1222 H 111.861 -4.62285 4.50514 0
M  V30 1223 H 112.629 -4.88996 6.56373 0
M  V30 1224 N 115.292 -0.849877 -1.32721 0
M  V30 1225 C 116.541 -0.447175 -1.96681 0
M  V30 1226 C 116.854 1.00135 -1.68025 0
M  V30 1227 O 118.06 1.50926 -2.25685 0
M  V30 1228 C 116.516 -0.7487 -3.52026 0
M  V30 1229 C 116.124 -2.21264 -3.89546 0
M  V30 1230 C 117.868 -0.413487 -4.22481 0
M  V30 1231 C 115.775 -2.45763 -5.37917 0
M  V30 1232 H 114.705 -0.163486 -0.736063 0
M  V30 1233 H 117.356 -1.03999 -1.51183 0
M  V30 1234 H 115.738 -0.0853727 -3.95908 0
M  V30 1235 H 116.912 -2.91736 -3.56689 0
M  V30 1236 H 115.227 -2.5119 -3.32103 0
M  V30 1237 H 117.824 -0.574017 -5.3161 0
M  V30 1238 H 118.167 0.644492 -4.11281 0
M  V30 1239 H 118.7 -1.03251 -3.84167 0
M  V30 1240 H 115.439 -3.50168 -5.54132 0
M  V30 1241 H 114.959 -1.79864 -5.72197 0
M  V30 1242 H 116.638 -2.29471 -6.0494 0
M  V30 1243 N 116.77 1.45427 -0.607355 0
M  V30 1244 C 117.717 2.3053 0.111625 0
M  V30 1245 C 118.687 1.4209 0.860216 0
M  V30 1246 O 119.872 1.71019 0.845998 0
M  V30 1247 C 117.012 3.26992 1.10319 0
M  V30 1248 C 116.125 4.30535 0.355493 0
M  V30 1249 C 115.26 5.14105 1.33676 0
M  V30 1250 C 114.299 6.09376 0.576862 0
M  V30 1251 N 113.436 6.85727 1.5074 0
M  V30 1252 H 118.276 2.91477 -0.620093 0
M  V30 1253 H 115.813 1.43631 -0.317594 0
M  V30 1254 H 117.771 3.81385 1.6912 0
M  V30 1255 H 116.401 2.67799 1.80232 0
M  V30 1256 H 115.453 3.78805 -0.348023 0
M  V30 1257 H 116.765 4.98235 -0.237423 0
M  V30 1258 H 115.919 5.72897 1.99684 0
M  V30 1259 H 114.658 4.46423 1.9636 0
M  V30 1260 H 113.663 5.49715 -0.0968519 0
M  V30 1261 H 114.888 6.79085 -0.0449341 0
M  V30 1262 H 112.834 6.20735 2.12189 0
M  V30 1263 H 112.751 7.49778 0.967913 0
M  V30 1264 H 114.019 7.4906 2.15706 0
M  V30 1265 N 118.248 0.346503 1.53744 0
M  V30 1266 C 119.478 -0.250047 2.05081 0
M  V30 1267 C 119.886 -1.44529 1.22098 0
M  V30 1268 O 119.229 -1.81992 0.249917 0
M  V30 1269 C 119.291 -0.725934 3.52094 0
M  V30 1270 C 118.955 0.350053 4.55657 0
M  V30 1271 C 119.952 1.19372 5.0601 0
M  V30 1272 C 117.637 0.504827 4.99757 0
M  V30 1273 C 119.631 2.17768 5.99046 0
M  V30 1274 C 117.318 1.49218 5.92602 0
M  V30 1275 C 118.316 2.32706 6.42135 0
M  V30 1276 O 118.004 3.2976 7.33153 0
M  V30 1277 H 117.736 -0.0515469 0.674032 0
M  V30 1278 H 120.29 0.497559 1.99282 0
M  V30 1279 H 118.52 -1.52483 3.55367 0
M  V30 1280 H 120.209 -1.24336 3.86388 0
M  V30 1281 H 120.975 1.08525 4.72702 0
M  V30 1282 H 116.854 -0.135178 4.60802 0
M  V30 1283 H 120.398 2.82971 6.37631 0
M  V30 1284 H 116.295 1.6012 6.25325 0
M  V30 1285 H 117.063 3.25265 7.51096 0
M  V30 1286 N 119.726 -1.57421 0.075193 0
M  V30 1287 C 120.956 -1.97659 -0.601203 0
M  V30 1288 C 121.364 -0.952427 -1.63479 0
M  V30 1289 O 120.707 0.0688241 -1.83571 0
M  V30 1290 C 120.769 -3.34218 -1.32434 0
M  V30 1291 C 120.433 -4.5484 -0.443826 0
M  V30 1292 C 121.43 -5.19034 0.299969 0
M  V30 1293 C 119.115 -5.00952 -0.367709 0
M  V30 1294 C 121.109 -6.27695 1.10807 0
M  V30 1295 C 118.796 -6.09484 0.444058 0
M  V30 1296 C 119.794 -6.72719 1.18061 0
M  V30 1297 O 119.482 -7.79161 1.97898 0
M  V30 1298 H 119.214 -0.65494 -0.167422 0
M  V30 1299 H 121.768 -2.04886 0.145157 0
M  V30 1300 H 119.998 -3.23615 -2.11685 0
M  V30 1301 H 121.687 -3.59038 -1.89331 0
M  V30 1302 H 122.453 -4.84351 0.250776 0
M  V30 1303 H 118.332 -4.51509 -0.930638 0
M  V30 1304 H 121.876 -6.76982 1.68347 0
M  V30 1305 H 117.773 -6.43601 0.494803 0
M  V30 1306 H 118.541 -7.96055 1.90367 0
M  V30 1307 N 121.204 0.198386 -1.56346 0
M  V30 1308 C 122.481 0.944982 -1.71258 0
M  V30 1309 C 122.861 2.0151 -0.629048 0
M  V30 1310 O 122.209 2.25639 0.360473 0
M  V30 1311 C 122.419 1.5344 -3.1346 0
M  V30 1312 C 123.767 2.01778 -3.73591 0
M  V30 1313 O 124.791 1.63288 -3.16568 0
M  V30 1314 O 123.65 2.72594 -4.73661 0
M  V30 1315 H 120.744 0.442939 -0.69838 0
M  V30 1316 H 123.29 0.188342 -1.68652 0
M  V30 1317 H 122.062 0.762869 -3.83792 0
M  V30 1318 H 121.685 2.35596 -3.20282 0
M  V30 1319 N 122.682 1.50554 0.465978 0
M  V30 1320 C 123.592 1.72585 1.58907 0
M  V30 1321 C 124.608 0.60911 1.6299 0
M  V30 1322 O 125.784 0.88804 1.80765 0
M  V30 1323 C 122.849 1.81995 2.95091 0
M  V30 1324 C 121.91 3.05751 3.01355 0
M  V30 1325 C 121.143 3.14702 4.31043 0
M  V30 1326 O 121.366 2.30313 5.21835 0
M  V30 1327 O 120.3 4.07468 4.43005 0
M  V30 1328 H 124.126 2.67799 1.43239 0
M  V30 1329 H 121.711 1.34711 0.646013 0
M  V30 1330 H 123.593 1.90335 3.75966 0
M  V30 1331 H 122.268 0.899659 3.10947 0
M  V30 1332 H 121.175 3.02908 2.19539 0
M  V30 1333 H 122.508 3.97375 2.90437 0
M  V30 1334 N 124.16 -0.719506 1.40217 0
M  V30 1335 C 125.388 -1.50864 1.41589 0
M  V30 1336 C 125.803 -1.88794 0.0145275 0
M  V30 1337 O 125.16 -1.55174 -0.960594 0
M  V30 1338 C 125.211 -2.78646 2.30302 0
M  V30 1339 O 124.932 -2.42321 3.64983 0
M  V30 1340 C 126.433 -3.72569 2.40224 0
M  V30 1341 H 123.653 -0.465709 0.48307 0
M  V30 1342 H 126.197 -0.88785 1.84221 0
M  V30 1343 H 124.352 -3.37019 1.91042 0
M  V30 1344 H 124.766 -3.24514 4.12057 0
M  V30 1345 H 126.24 -4.5908 3.06512 0
M  V30 1346 H 126.717 -4.15403 1.42608 0
M  V30 1347 H 127.323 -3.20109 2.80019 0
M  V30 1348 N 125.638 -1.25649 -0.95132 0
M  V30 1349 C 126.887 -1.09988 -1.69073 0
M  V30 1350 C 127.2 0.358355 -1.92289 0
M  V30 1351 O 128.406 0.635466 -2.63958 0
M  V30 1352 C 126.862 -1.92012 -3.044 0
M  V30 1353 C 126.47 -3.42347 -2.88968 0
M  V30 1354 C 128.214 -1.8493 -3.82101 0
M  V30 1355 C 126.121 -4.16655 -4.19705 0
M  V30 1356 H 125.051 -0.407993 -0.63408 0
M  V30 1357 H 127.702 -1.49873 -1.05879 0
M  V30 1358 H 126.084 -1.44952 -3.68517 0
M  V30 1359 H 127.258 -3.97104 -2.33762 0
M  V30 1360 H 125.573 -3.50557 -2.24719 0
M  V30 1361 H 128.17 -2.37739 -4.78941 0
M  V30 1362 H 128.513 -0.817883 -4.08187 0
M  V30 1363 H 129.046 -2.29758 -3.2474 0
M  V30 1364 H 125.785 -5.20224 -3.98807 0
M  V30 1365 H 125.305 -3.66681 -4.74663 0
M  V30 1366 H 126.984 -4.24551 -4.88227 0
M  V30 1367 N 127.117 1.15442 -1.07289 0
M  V30 1368 C 128.345 1.90096 -0.81676 0
M  V30 1369 C 128.76 1.7798 0.629966 0
M  V30 1370 O 128.117 1.1313 1.43206 0
M  V30 1371 C 128.168 3.40466 -1.21512 0
M  V30 1372 O 127.889 3.52232 -2.60508 0
M  V30 1373 C 129.39 4.32145 -0.988198 0
M  V30 1374 H 126.61 0.602495 -0.295366 0
M  V30 1375 H 129.154 1.4627 -1.42918 0
M  V30 1376 H 127.309 3.81958 -0.647039 0
M  V30 1377 H 127.723 4.45549 -2.76742 0
M  V30 1378 H 129.197 5.36072 -1.31645 0
M  V30 1379 H 129.674 4.39135 0.0755063 0
M  V30 1380 H 130.28 3.96395 -1.54115 0
M  V30 1381 N 128.595 0.856903 1.32268 0
M  V30 1382 C 129.844 0.457599 1.96441 0
M  V30 1383 C 130.157 -0.992426 1.68553 0
M  V30 1384 O 131.363 -1.49727 2.26482 0
M  V30 1385 C 129.819 0.767358 3.51624 0
M  V30 1386 C 129.427 2.23326 3.88367 0
M  V30 1387 C 131.171 0.435887 4.22256 0
M  V30 1388 C 129.078 2.48613 5.36606 0
M  V30 1389 H 128.008 0.167387 0.735185 0
M  V30 1390 H 130.659 1.048 1.5063 0
M  V30 1391 H 129.041 0.106367 3.95857 0
M  V30 1392 H 130.215 2.93623 3.55137 0
M  V30 1393 H 128.53 2.52948 3.30766 0
M  V30 1394 H 131.127 0.602202 5.31298 0
M  V30 1395 H 131.47 -0.622672 4.11617 0
M  V30 1396 H 132.003 1.05286 3.83614 0
M  V30 1397 H 128.742 3.53101 5.52268 0
M  V30 1398 H 128.262 1.82896 5.71235 0
M  V30 1399 H 129.941 2.32676 6.03714 0
M  V30 1400 N 130.073 -1.45103 0.615059 0
M  V30 1401 C 131.484 -1.85654 0.197383 0
M  V30 1402 C 131.835 -1.51433 -1.24749 0
M  V30 1403 O 130.96 -0.944608 -1.94695 0
M  V30 1404 C 131.555 -3.36972 0.351448 0
M  V30 1405 C 130.114 -3.76398 -0.011593 0
M  V30 1406 C 129.261 -2.69024 0.672394 0
M  V30 1407 H 132.212 -1.35797 0.821263 0
M  V30 1408 H 132.233 -3.78239 -0.414227 0
M  V30 1409 H 131.745 -3.61847 1.40314 0
M  V30 1410 H 129.846 -3.5714 -1.06217 0
M  V30 1411 H 129.959 -4.77532 0.387265 0
M  V30 1412 H 128.323 -2.54465 0.109284 0
M  V30 1413 H 129.106 -2.96735 1.72636 0
M  V30 1414 N 131.551 -0.354651 -1.53558 0
M  V30 1415 C 132.781 0.239167 -2.05211 0
M  V30 1416 C 133.189 1.43879 -1.22863 0
M  V30 1417 O 132.532 1.81857 -0.259565 0
M  V30 1418 C 132.594 0.707251 -3.52474 0
M  V30 1419 C 132.258 -0.374212 -4.55465 0
M  V30 1420 C 133.255 -1.22054 -5.0537 0
M  V30 1421 C 130.94 -0.531323 -4.99482 0
M  V30 1422 C 132.934 -2.20942 -5.97882 0
M  V30 1423 C 130.621 -1.52358 -5.91802 0
M  V30 1424 C 131.619 -2.36108 -6.40892 0
M  V30 1425 O 131.307 -3.33643 -7.31394 0
M  V30 1426 H 131.039 0.0479716 -0.674296 0
M  V30 1427 H 133.593 -0.508121 -1.99016 0
M  V30 1428 H 131.823 1.50596 -3.56171 0
M  V30 1429 H 133.512 1.22285 -3.87042 0
M  V30 1430 H 134.278 -1.1103 -4.7212 0
M  V30 1431 H 130.157 0.110738 -4.60867 0
M  V30 1432 H 133.701 -2.86348 -6.36121 0
M  V30 1433 H 129.598 -1.63434 -6.24467 0
M  V30 1434 H 130.366 -3.29244 -7.4936 0
M  V30 1435 N 133.029 1.57378 -0.0835403 0
M  V30 1436 C 134.44 1.81261 0.447358 0
M  V30 1437 C 134.791 0.998331 1.68902 0
M  V30 1438 O 133.916 0.224282 2.15235 0
M  V30 1439 C 134.511 3.28767 0.818386 0
M  V30 1440 C 133.07 3.53455 1.29409 0
M  V30 1441 C 132.217 2.75831 0.285024 0
M  V30 1442 H 135.168 1.5566 -0.309115 0
M  V30 1443 H 135.189 3.41459 1.67887 0
M  V30 1444 H 134.701 3.88006 -0.0855019 0
M  V30 1445 H 132.802 2.99534 2.21608 0
M  V30 1446 H 132.915 4.62128 1.2639 0
M  V30 1447 H 131.279 2.42947 0.764767 0
M  V30 1448 H 132.062 3.37813 -0.611341 0
M  V30 1449 N 134.507 -0.190092 1.56449 0
M  V30 1450 C 135.437 -1.23816 1.97969 0
M  V30 1451 C 136.418 -1.47201 0.852395 0
M  V30 1452 O 137.603 -1.58854 1.1171 0
M  V30 1453 C 134.733 -2.5813 2.3235 0
M  V30 1454 C 133.687 -2.49348 3.47864 0
M  V30 1455 C 133.013 -3.8798 3.67934 0
M  V30 1456 C 134.313 -2.01424 4.81898 0
M  V30 1457 H 136.007 -0.89311 2.85769 0
M  V30 1458 H 133.553 -0.428177 1.37487 0
M  V30 1459 H 135.506 -3.31637 2.59991 0
M  V30 1460 H 134.23 -2.94386 1.41438 0
M  V30 1461 H 132.889 -1.78297 3.20321 0
M  V30 1462 H 132.537 -4.21597 2.74344 0
M  V30 1463 H 132.237 -3.82978 4.45648 0
M  V30 1464 H 133.761 -4.63101 3.97957 0
M  V30 1465 H 135.175 -2.64693 5.08538 0
M  V30 1466 H 133.572 -2.07413 5.63116 0
M  V30 1467 H 134.642 -0.967677 4.75146 0
M  V30 1468 N 135.985 -1.50799 -0.457987 0
M  V30 1469 C 136.932 -1.70617 -1.5543 0
M  V30 1470 C 137.902 -0.547562 -1.56815 0
M  V30 1471 O 139.087 -0.779647 -1.74144 0
M  V30 1472 C 136.227 -1.81831 -2.93311 0
M  V30 1473 C 135.34 -3.09278 -3.01615 0
M  V30 1474 C 134.475 -3.11209 -4.30491 0
M  V30 1475 C 133.514 -4.33055 -4.32585 0
M  V30 1476 N 132.651 -4.32652 -5.52952 0
M  V30 1477 H 137.491 -2.64207 -1.37836 0
M  V30 1478 H 135.028 -1.30959 -0.669937 0
M  V30 1479 H 136.986 -1.86314 -3.73287 0
M  V30 1480 H 135.616 -0.916685 -3.0951 0
M  V30 1481 H 134.668 -3.14203 -2.1443 0
M  V30 1482 H 135.98 -3.99233 -2.99022 0
M  V30 1483 H 135.134 -3.14494 -5.18824 0
M  V30 1484 H 133.873 -2.19106 -4.35711 0
M  V30 1485 H 132.878 -4.29969 -3.42647 0
M  V30 1486 H 134.103 -5.264 -4.29046 0
M  V30 1487 H 132.049 -3.43409 -5.58933 0
M  V30 1488 H 131.966 -5.16392 -5.52155 0
M  V30 1489 H 133.234 -4.40101 -6.43375 0
M  V30 1490 N 137.463 0.71206 -1.40597 0
M  V30 1491 C 138.41 1.82613 -1.41142 0
M  V30 1492 C 139.38 1.63925 -0.267903 0
M  V30 1493 O 140.565 1.85009 -0.466495 0
M  V30 1494 C 137.705 3.20354 -1.28324 0
M  V30 1495 C 136.818 3.50589 -2.52411 0
M  V30 1496 C 135.953 4.77855 -2.32009 0
M  V30 1497 C 134.992 5.01005 -3.51654 0
M  V30 1498 N 134.129 6.19487 -3.30425 0
M  V30 1499 H 138.969 1.81482 -2.36365 0
M  V30 1500 H 136.506 0.886475 -1.17388 0
M  V30 1501 H 138.464 3.99899 -1.18899 0
M  V30 1502 H 137.094 3.20705 -0.367189 0
M  V30 1503 H 136.146 2.65573 -2.72351 0
M  V30 1504 H 137.458 3.63604 -3.41458 0
M  V30 1505 H 136.612 5.65424 -2.19956 0
M  V30 1506 H 135.351 4.67056 -1.40392 0
M  V30 1507 H 134.356 4.1189 -3.64179 0
M  V30 1508 H 135.581 5.13674 -4.44202 0
M  V30 1509 H 133.527 6.09932 -2.41494 0
M  V30 1510 H 133.444 6.33194 -4.13039 0
M  V30 1511 H 134.712 7.09834 -3.22113 0
M  V30 1512 N 138.941 1.26152 0.944643 0
M  V30 1513 C 140.218 1.02247 1.66748 0
M  V30 1514 C 140.598 -0.448202 2.06287 0
M  V30 1515 O 139.946 -1.42779 1.78399 0
M  V30 1516 C 140.156 1.96788 2.88228 0
M  V30 1517 C 141.504 2.25201 3.59958 0
M  V30 1518 O 142.528 1.94626 2.98327 0
M  V30 1519 O 141.387 2.77242 4.70956 0
M  V30 1520 H 138.481 0.388517 0.730057 0
M  V30 1521 H 141.027 1.37348 0.99668 0
M  V30 1522 H 139.799 2.96047 2.55875 0
M  V30 1523 H 139.422 1.62145 3.63035 0
M  V30 1524 N 140.419 -1.14872 1.07899 0
M  V30 1525 C 141.382 -2.17986 0.708161 0
M  V30 1526 C 142.382 -1.58775 -0.25442 0
M  V30 1527 O 143.572 -1.74166 -0.034645 0
M  V30 1528 C 140.704 -3.40871 0.0446929 0
M  V30 1529 H 141.897 -2.52306 1.62116 0
M  V30 1530 H 139.45 -1.2943 0.876218 0
M  V30 1531 H 140.185 -3.12124 -0.880281 0
M  V30 1532 H 139.97 -3.8511 0.737091 0
M  V30 1533 H 141.46 -4.17121 -0.19991 0
M  V30 1534 N 141.898 -0.863906 -1.31812 0
M  V30 1535 C 143.138 -0.47825 -1.98726 0
M  V30 1536 C 143.502 0.950397 -1.66828 0
M  V30 1537 O 144.703 1.44109 -2.26905 0
M  V30 1538 C 142.974 -0.721134 -3.50049 0
M  V30 1539 S 144.533 -0.434432 -4.36644 0
M  V30 1540 H 141.351 -0.178773 -0.688158 0
M  V30 1541 H 143.953 -1.11862 -1.60334 0
M  V30 1542 H 142.657 -1.75981 -3.70755 0
M  V30 1543 H 142.188 -0.0675315 -3.93342 0
M  V30 1544 H 144.203 0.735786 -4.90714 0
M  V30 1545 N 143.376 1.44774 -0.622745 0
M  V30 1546 C 144.625 2.01334 -0.121397 0
M  V30 1547 C 144.938 1.49505 1.26125 0
M  V30 1548 O 146.144 1.98139 1.85616 0
M  V30 1549 C 144.6 3.59516 -0.166298 0
M  V30 1550 C 144.208 4.20342 -1.54974 0
M  V30 1551 C 145.952 4.23582 0.279021 0
M  V30 1552 C 143.859 5.70721 -1.55021 0
M  V30 1553 H 142.789 0.752851 -0.0416172 0
M  V30 1554 H 145.44 1.66083 -0.780309 0
M  V30 1555 H 143.822 3.92027 0.559557 0
M  V30 1556 H 144.996 3.99381 -2.29851 0
M  V30 1557 H 143.311 3.68529 -1.93843 0
M  V30 1558 H 145.908 5.33868 0.298083 0
M  V30 1559 H 146.251 3.95327 1.30471 0
M  V30 1560 H 146.784 3.95843 -0.394063 0
M  V30 1561 H 143.523 6.03698 -2.55399 0
M  V30 1562 H 143.043 5.93829 -0.844245 0
M  V30 1563 H 144.722 6.34203 -1.28047 0
M  V30 1564 N 144.854 0.36279 1.53368 0
M  V30 1565 C 146.082 -0.228613 2.05633 0
M  V30 1566 C 146.497 -1.42676 1.23649 0
M  V30 1567 O 145.854 -1.80394 0.27647 0
M  V30 1568 C 145.905 -0.624845 3.56059 0
M  V30 1569 O 145.626 0.525675 4.34935 0
M  V30 1570 C 147.127 -1.27493 4.24571 0
M  V30 1571 H 144.347 -0.0407183 0.669763 0
M  V30 1572 H 146.891 0.520352 1.97769 0
M  V30 1573 H 145.046 -1.32373 3.64083 0
M  V30 1574 H 145.46 0.205969 5.24095 0
M  V30 1575 H 146.934 -1.50277 5.31151 0
M  V30 1576 H 147.411 -2.23439 3.78116 0
M  V30 1577 H 148.017 -0.617558 4.20792 0
M  V30 1578 N 146.332 -1.57332 0.0918853 0
M  V30 1579 C 147.28 -2.15075 -0.885747 0
M  V30 1580 C 148.274 -1.09277 -1.29441 0
M  V30 1581 O 149.48 -1.27627 -1.26931 0
M  V30 1582 H 145.855 -0.687966 -0.303656 0
M  V30 1583 H 147.826 -2.96047 -0.373995 0
M  V30 1584 C 146.575 -2.74325 -2.13638 0
M  V30 1585 H 145.898 -3.55418 -1.8308 0
M  V30 1586 H 147.338 -3.183 -2.80109 0
M  V30 1587 C 145.797 -1.70062 -2.90827 0
M  V30 1588 O 146.327 -1.13763 -3.85254 0
M  V30 1589 N 144.533 -1.40628 -2.54307 0
M  V30 1590 H 144.08 -1.866 -1.7759 0
M  V30 1591 H 144.038 -0.711043 -3.06254 0
M  V30 1592 N 147.81 0.181792 -1.56548 0
M  V30 1593 C 149.221 0.745244 -1.71181 0
M  V30 1594 C 149.572 1.83262 -0.70068 0
M  V30 1595 O 148.697 2.15946 0.140154 0
M  V30 1596 C 149.292 1.35859 -3.10367 0
M  V30 1597 C 147.851 1.86898 -3.2672 0
M  V30 1598 C 146.998 0.743942 -2.67134 0
M  V30 1599 H 149.949 -0.0434661 -1.5864 0
M  V30 1600 H 149.97 2.22817 -3.08436 0
M  V30 1601 H 149.482 0.566948 -3.83937 0
M  V30 1602 H 147.583 2.68738 -2.5809 0
M  V30 1603 H 147.696 2.02162 -4.34359 0
M  V30 1604 H 146.06 1.16169 -2.26665 0
M  V30 1605 H 146.843 -0.035676 -3.43281 0
M  V30 1606 N 149.288 1.51039 0.449983 0
M  V30 1607 C 150.534 1.63322 1.20223 0
M  V30 1608 C 150.867 0.34241 1.91158 0
M  V30 1609 O 150.142 -0.657344 1.83055 0
M  V30 1610 C 150.425 2.82801 2.22925 0
M  V30 1611 C 150.278 4.21823 1.56157 0
M  V30 1612 C 151.597 2.97807 3.24035 0
M  V30 1613 H 148.716 0.594407 0.435718 0
M  V30 1614 H 151.358 1.83489 0.493136 0
M  V30 1615 H 149.508 2.65738 2.834 0
M  V30 1616 H 151.18 4.50526 0.991162 0
M  V30 1617 H 149.423 4.25105 0.864172 0
M  V30 1618 H 150.094 5.01391 2.30891 0
M  V30 1619 H 152.57 3.13497 2.73603 0
M  V30 1620 H 151.446 3.82992 3.93202 0
M  V30 1621 H 151.707 2.09328 3.89402 0
M  V30 1622 N 150.766 -0.704594 1.40972 0
M  V30 1623 C 151.713 -1.81862 1.42109 0
M  V30 1624 C 152.683 -1.63781 0.276593 0
M  V30 1625 O 153.868 -1.84759 0.4763 0
M  V30 1626 C 151.008 -3.19669 1.30022 0
M  V30 1627 C 150.121 -3.49246 2.54267 0
M  V30 1628 C 149.256 -4.76618 2.3454 0
M  V30 1629 C 148.295 -4.99133 3.54306 0
M  V30 1630 N 147.432 -6.17726 3.33706 0
M  V30 1631 H 152.272 -1.80226 2.37324 0
M  V30 1632 H 149.809 -0.880238 1.17857 0
M  V30 1633 H 151.767 -3.99263 1.21018 0
M  V30 1634 H 150.397 -3.20506 0.384192 0
M  V30 1635 H 149.449 -2.64125 2.73756 0
M  V30 1636 H 150.761 -3.61788 3.43381 0
M  V30 1637 H 149.915 -5.64249 2.22952 0
M  V30 1638 H 148.654 -4.66305 1.42867 0
M  V30 1639 H 147.659 -4.09953 3.66359 0
M  V30 1640 H 148.884 -5.11311 4.4692 0
M  V30 1641 H 146.83 -6.08642 2.44725 0
M  V30 1642 H 146.747 -6.30995 4.16391 0
M  V30 1643 H 148.015 -7.08115 3.25873 0
M  V30 1644 N 152.244 -1.26651 -0.937939 0
M  V30 1645 C 153.655 -1.1125 -1.49934 0
M  V30 1646 C 154.006 0.306077 -1.93798 0
M  V30 1647 O 153.131 1.19792 -1.80219 0
M  V30 1648 C 153.726 -2.01339 -2.72485 0
M  V30 1649 C 152.285 -1.90074 -3.24883 0
M  V30 1650 C 151.432 -1.94498 -1.97651 0
M  V30 1651 H 154.383 -1.39693 -0.753091 0
M  V30 1652 H 154.404 -1.56319 -3.46907 0
M  V30 1653 H 153.916 -3.04577 -2.40529 0
M  V30 1654 H 152.017 -0.897827 -3.61621 0
M  V30 1655 H 152.13 -2.75778 -3.9177 0
M  V30 1656 H 150.494 -1.38591 -2.13693 0
M  V30 1657 H 151.277 -2.99372 -1.68022 0
M  V30 1658 N 153.722 1.14298 -1.08507 0
M  V30 1659 C 154.968 1.85633 -0.816581 0
M  V30 1660 C 155.301 1.82784 0.656021 0
M  V30 1661 O 154.576 1.25926 1.48233 0
M  V30 1662 C 154.859 3.34223 -1.34041 0
M  V30 1663 C 154.712 3.45639 -2.87843 0
M  V30 1664 C 156.031 4.29356 -0.9665 0
M  V30 1665 H 153.15 0.67402 -0.298104 0
M  V30 1666 H 155.792 1.34214 -1.34487 0
M  V30 1667 H 153.942 3.78144 -0.89104 0
M  V30 1668 H 155.614 3.10498 -3.41158 0
M  V30 1669 H 153.857 2.86817 -3.25451 0
M  V30 1670 H 154.528 4.50089 -3.19569 0
M  V30 1671 H 157.004 3.93457 -1.35391 0
M  V30 1672 H 155.88 5.3178 -1.3602 0
M  V30 1673 H 156.141 4.41919 0.126362 0
M  V30 1674 N 155.201 0.870884 1.31352 0
M  V30 1675 C 156.612 0.534714 1.78879 0
M  V30 1676 C 156.963 -0.948423 1.71754 0
M  V30 1677 O 156.088 -1.74055 1.28584 0
M  V30 1678 C 156.683 0.963839 3.24801 0
M  V30 1679 C 155.242 0.679311 3.70219 0
M  V30 1680 C 154.389 1.15465 2.52117 0
M  V30 1681 H 157.34 1.05651 1.18421 0
M  V30 1682 H 157.361 0.286892 3.79417 0
M  V30 1683 H 156.873 2.04332 3.29955 0
M  V30 1684 H 154.974 -0.388769 3.70566 0
M  V30 1685 H 155.087 1.25698 4.62317 0
M  V30 1686 H 153.451 0.574383 2.48139 0
M  V30 1687 H 154.234 2.24157 2.60016 0
M  V30 1688 N 156.679 -1.44442 0.630414 0
M  V30 1689 C 157.956 -1.9549 0.0655657 0
M  V30 1690 C 158.336 -1.5724 -1.40851 0
M  V30 1691 O 157.684 -0.846116 -2.12257 0
M  V30 1692 C 157.894 -3.47812 0.287691 0
M  V30 1693 C 159.242 -4.24216 0.180513 0
M  V30 1694 O 160.266 -3.55526 0.219019 0
M  V30 1695 O 159.125 -5.46434 0.0848493 0
M  V30 1696 H 156.219 -0.826688 -0.0227177 0
M  V30 1697 H 158.765 -1.54496 0.702068 0
M  V30 1698 H 157.537 -3.687 1.31056 0
M  V30 1699 H 157.16 -3.95751 -0.382984 0
M  V30 1700 N 158.157 -0.370918 -1.53173 0
M  V30 1701 C 159.12 0.460778 -2.24521 0
M  V30 1702 C 160.12 1.00536 -1.25496 0
M  V30 1703 O 161.31 0.890266 -1.49733 0
M  V30 1704 C 158.442 1.64457 -2.98608 0
M  V30 1705 H 159.635 -0.163613 -2.99453 0
M  V30 1706 H 157.188 -0.122699 -1.55818 0
M  V30 1707 H 157.923 2.30691 -2.2793 0
M  V30 1708 H 157.708 1.26099 -3.7127 0
M  V30 1709 H 159.198 2.23384 -3.5283 0
M  V30 1710 N 159.635 1.57281 -0.100228 0
M  V30 1711 C 160.881 1.94826 0.563101 0
M  V30 1712 C 161.214 0.982475 1.67514 0
M  V30 1713 O 160.489 0.0164069 1.94493 0
M  V30 1714 C 160.772 3.42453 1.11346 0
M  V30 1715 C 160.625 4.498 0.00612081 0
M  V30 1716 C 161.944 3.91506 2.01024 0
M  V30 1717 H 159.063 0.708428 0.203221 0
M  V30 1718 H 161.705 1.8922 -0.171979 0
M  V30 1719 H 159.855 3.47361 1.7399 0
M  V30 1720 H 161.527 4.57 -0.628357 0
M  V30 1721 H 159.77 4.28756 -0.659581 0
M  V30 1722 H 160.441 5.50306 0.432109 0
M  V30 1723 H 162.917 3.88784 1.48278 0
M  V30 1724 H 161.793 4.95358 2.36457 0
M  V30 1725 H 162.054 3.31099 2.92961 0
M  V30 1726 N 161.113 -0.173488 1.56642 0
M  V30 1727 C 162.39 -0.917617 1.7274 0
M  V30 1728 C 162.77 -2.00484 0.661027 0
M  V30 1729 O 162.118 -2.26184 -0.32453 0
M  V30 1730 C 162.328 -1.48433 3.15862 0
M  V30 1731 C 163.676 -1.95809 3.76754 0
M  V30 1732 O 164.7 -1.58231 3.19126 0
M  V30 1733 O 163.559 -2.65024 4.77938 0
M  V30 1734 H 160.653 -0.431772 0.705338 0
M  V30 1735 H 163.199 -0.161487 1.6893 0
M  V30 1736 H 161.971 -0.701715 3.84957 0
M  V30 1737 H 161.594 -2.30471 3.23989 0
M  V30 1738 N 162.591 -1.51276 -0.441967 0
M  V30 1739 C 163.839 -1.63392 -1.18943 0
M  V30 1740 C 164.16 -0.350159 -1.9183 0
M  V30 1741 O 163.43 0.633784 -1.85364 0
M  V30 1742 H 162.01 -0.602164 -0.442049 0
M  V30 1743 H 164.672 -1.88186 -0.507165 0
M  V30 1744 H 163.768 -2.45934 -1.92154 0
M  V30 1745 N 164.069 0.697108 -1.41344 0
M  V30 1746 C 165.315 1.4593 -1.40827 0
M  V30 1747 C 165.648 1.94193 -0.0167098 0
M  V30 1748 O 164.923 1.69425 0.955263 0
M  V30 1749 C 165.206 2.67229 -2.41373 0
M  V30 1750 C 165.059 2.24741 -3.8963 0
M  V30 1751 C 166.378 3.69423 -2.39196 0
M  V30 1752 H 163.497 0.529303 -0.512842 0
M  V30 1753 H 166.139 0.794112 -1.72609 0
M  V30 1754 H 164.289 3.23982 -2.14401 0
M  V30 1755 H 165.961 1.73327 -4.27499 0
M  V30 1756 H 164.204 1.56542 -4.0457 0
M  V30 1757 H 164.875 3.1177 -4.55525 0
M  V30 1758 H 167.351 3.2234 -2.63128 0
M  V30 1759 H 166.227 4.51907 -3.11563 0
M  V30 1760 H 166.488 4.19012 -1.41001 0
M  V30 1761 N 165.547 1.27147 0.931209 0
M  V30 1762 C 166.495 1.09398 2.05268 0
M  V30 1763 C 167.489 0.0180591 1.6939 0
M  V30 1764 O 168.695 0.17551 1.79142 0
M  V30 1765 H 165.07 0.336986 0.672268 0
M  V30 1766 H 167.041 2.04416 2.17386 0
M  V30 1767 C 165.79 0.75424 3.39421 0
M  V30 1768 H 165.113 1.57404 3.67511 0
M  V30 1769 H 166.553 0.669903 4.18674 0
M  V30 1770 C 165.012 -0.541197 3.32525 0
M  V30 1771 O 165.542 -1.57664 3.69466 0
M  V30 1772 N 163.748 -0.535517 2.85623 0
M  V30 1773 H 163.295 0.307511 2.55758 0
M  V30 1774 H 163.253 -1.40236 2.81392 0
M  V30 1775 N 167.025 -1.13721 1.09112 0
M  V30 1776 C 168.302 -1.81155 0.737706 0
M  V30 1777 C 168.682 -1.96253 -0.777683 0
M  V30 1778 O 168.03 -1.52807 -1.69889 0
M  V30 1779 C 168.24 -3.16392 1.47299 0
M  V30 1780 C 169.588 -3.91787 1.63671 0
M  V30 1781 O 170.612 -3.26005 1.43524 0
M  V30 1782 O 169.471 -5.0977 1.96969 0
M  V30 1783 H 166.565 -0.783518 0.26463 0
M  V30 1784 H 169.111 -1.20676 1.19312 0
M  V30 1785 H 167.883 -3.0061 2.50498 0
M  V30 1786 H 167.506 -3.8457 1.00953 0
M  V30 1787 N 168.503 -0.877838 -1.30888 0
M  V30 1788 C 169.45 -0.337538 -2.28318 0
M  V30 1789 C 170.42 0.568346 -1.56074 0
M  V30 1790 O 171.605 0.498298 -1.84178 0
M  V30 1791 C 168.745 0.448142 -3.42178 0
M  V30 1792 C 167.858 -0.48615 -4.29256 0
M  V30 1793 C 166.993 0.314427 -5.30269 0
M  V30 1794 C 166.032 -0.615791 -6.08995 0
M  V30 1795 N 165.169 0.14902 -7.01942 0
M  V30 1796 H 170.009 -1.17356 -2.73919 0
M  V30 1797 H 167.546 -0.590094 -1.34745 0
M  V30 1798 H 169.504 0.919517 -4.06941 0
M  V30 1799 H 168.134 1.24879 -2.97666 0
M  V30 1800 H 167.186 -1.076 -3.64865 0
M  V30 1801 H 168.498 -1.19909 -4.84173 0
M  V30 1802 H 167.652 0.847969 -6.00745 0
M  V30 1803 H 166.391 1.06062 -4.76027 0
M  V30 1804 H 165.396 -1.16102 -5.37401 0
M  V30 1805 H 166.621 -1.36097 -6.65323 0
M  V30 1806 H 164.567 0.877884 -6.50099 0
M  V30 1807 H 164.484 -0.504433 -7.54315 0
M  V30 1808 H 165.752 0.663537 -7.76671 0
M  V30 1809 N 169.982 1.44106 -0.638065 0
M  V30 1810 C 170.912 2.33448 0.0494287 0
M  V30 1811 C 171.893 1.48606 0.827672 0
M  V30 1812 O 173.078 1.77308 0.792173 0
M  V30 1813 C 170.208 3.31771 1.02691 0
M  V30 1814 C 169.162 4.26485 0.359823 0
M  V30 1815 C 168.488 5.14729 1.44769 0
M  V30 1816 C 169.788 5.17056 -0.738296 0
M  V30 1817 H 171.482 2.91183 -0.696636 0
M  V30 1818 H 169.028 1.40014 -0.336456 0
M  V30 1819 H 170.981 3.93161 1.51666 0
M  V30 1820 H 169.705 2.7226 1.80395 0
M  V30 1821 H 168.364 3.66437 -0.10934 0
M  V30 1822 H 168.012 4.51566 2.21578 0
M  V30 1823 H 167.712 5.78913 1.00668 0
M  V30 1824 H 169.236 5.78991 1.93911 0
M  V30 1825 H 170.65 5.72342 -0.331354 0
M  V30 1826 H 169.047 5.89879 -1.10286 0
M  V30 1827 H 170.117 4.57652 -1.60258 0
M  V30 1828 N 171.46 0.379036 1.52974 0
M  V30 1829 C 172.737 -0.263479 1.93817 0
M  V30 1830 C 173.117 -1.65244 1.31368 0
M  V30 1831 O 172.465 -2.23448 0.477856 0
M  V30 1832 C 172.675 -0.300166 3.47707 0
M  V30 1833 C 174.023 -0.534061 4.21228 0
M  V30 1834 O 175.047 -0.38081 3.54159 0
M  V30 1835 O 173.906 -0.833501 5.40106 0
M  V30 1836 H 171 -0.161149 0.811147 0
M  V30 1837 H 173.546 0.432798 1.64088 0
M  V30 1838 H 172.318 0.673138 3.85467 0
M  V30 1839 H 171.941 -1.04179 3.83709 0
M  V30 1840 N 172.938 -1.57226 0.108567 0
M  V30 1841 C 174.163 -1.99604 -0.563303 0
M  V30 1842 C 174.588 -0.987563 -1.6009 0
M  V30 1843 O 173.946 0.0421687 -1.81251 0
M  V30 1844 C 173.994 -3.40902 -1.17552 0
M  V30 1845 O 173.098 -3.42896 -2.2912 0
M  V30 1846 H 172.439 -0.648704 -0.1417 0
M  V30 1847 H 174.969 -2.03679 0.193961 0
M  V30 1848 H 174.979 -3.78886 -1.51357 0
M  V30 1849 H 173.654 -4.1382 -0.415445 0
M  V30 1850 H 172.231 -3.1672 -1.96832 0
M  V30 1851 N 174.416 0.165178 -1.56732 0
M  V30 1852 C 175.693 0.908443 -1.73224 0
M  V30 1853 C 176.073 2.0013 -0.67165 0
M  V30 1854 O 175.421 2.26353 0.31253 0
M  V30 1855 C 175.631 1.46756 -3.16644 0
M  V30 1856 C 176.979 1.93809 -3.77787 0
M  V30 1857 O 178.003 1.56537 -3.1996 0
M  V30 1858 O 176.862 2.62486 -4.79336 0
M  V30 1859 H 173.956 0.428025 -0.707618 0
M  V30 1860 H 176.502 0.152526 -1.69013 0
M  V30 1861 H 175.274 0.68129 -3.85323 0
M  V30 1862 H 174.897 2.28749 -3.25207 0
M  V30 1863 N 175.894 1.51508 0.433938 0
M  V30 1864 C 177.119 1.68443 1.21003 0
M  V30 1865 C 177.544 0.382636 1.84167 0
M  V30 1866 O 176.902 -0.65755 1.68956 0
M  V30 1867 C 176.95 2.80405 2.26727 0
M  V30 1868 O 176.054 2.44245 3.32292 0
M  V30 1869 H 175.395 0.561536 0.354363 0
M  V30 1870 H 177.925 1.9809 0.512024 0
M  V30 1871 H 177.935 3.0459 2.71457 0
M  V30 1872 H 176.61 3.74867 1.80132 0
M  V30 1873 H 175.187 2.30644 2.93015 0
M  V30 1874 N 177.372 -0.689602 1.41712 0
M  V30 1875 C 178.6 -1.47827 1.44758 0
M  V30 1876 C 179.015 -1.88721 0.0545703 0
M  V30 1877 O 178.372 -1.57176 -0.927463 0
M  V30 1878 C 178.423 -2.73698 2.3616 0
M  V30 1879 O 178.144 -2.34524 3.7004 0
M  V30 1880 C 179.645 -3.67389 2.48072 0
M  V30 1881 H 176.865 -0.455357 0.49284 0
M  V30 1882 H 179.409 -0.848574 1.86063 0
M  V30 1883 H 177.564 -3.32891 1.98148 0
M  V30 1884 H 177.978 -3.15701 4.18847 0
M  V30 1885 H 179.452 -4.52475 3.16181 0
M  V30 1886 H 179.929 -4.12284 1.51388 0
M  V30 1887 H 180.535 -3.14097 2.86746 0
M  V30 1888 N 178.85 -1.27639 -0.924453 0
M  V30 1889 C 179.78 -1.13166 -2.04244 0
M  V30 1890 C 180.761 -0.032256 -1.70069 0
M  V30 1891 O 181.946 -0.207328 -1.9309 0
M  V30 1892 C 179.076 -0.781496 -3.38393 0
M  V30 1893 C 178.03 -1.83449 -3.86692 0
M  V30 1894 C 177.356 -1.33822 -5.17683 0
M  V30 1895 C 178.656 -3.23917 -4.09726 0
M  V30 1896 H 180.35 -2.06689 -2.1661 0
M  V30 1897 H 177.896 -0.995136 -1.04082 0
M  V30 1898 H 179.849 -0.667057 -4.16087 0
M  V30 1899 H 178.573 0.189439 -3.2605 0
M  V30 1900 H 177.232 -1.93789 -3.11193 0
M  V30 1901 H 176.88 -0.35665 -5.01734 0
M  V30 1902 H 176.58 -2.04224 -5.50968 0
M  V30 1903 H 178.104 -1.23679 -5.97943 0
M  V30 1904 H 179.518 -3.16559 -4.77978 0
M  V30 1905 H 177.915 -3.92059 -4.54324 0
M  V30 1906 H 178.985 -3.68729 -3.14908 0
M  V30 1907 N 180.328 1.1314 -1.09713 0
M  V30 1908 C 181.276 2.20717 -0.733934 0
M  V30 1909 C 182.27 1.6729 0.266506 0
M  V30 1910 O 183.476 1.79547 0.127656 0
M  V30 1911 H 179.851 0.719292 -0.21937 0
M  V30 1912 H 181.822 2.48611 -1.6503 0
M  V30 1913 C 180.571 3.47265 -0.173849 0
M  V30 1914 H 179.894 3.88716 -0.934873 0
M  V30 1915 H 181.334 4.23979 0.0423126 0
M  V30 1916 C 179.793 3.18724 1.09164 0
M  V30 1917 O 180.323 3.37762 2.17439 0
M  V30 1918 N 178.529 2.72583 1.00732 0
M  V30 1919 H 178.076 2.57291 0.126121 0
M  V30 1920 H 178.034 2.53862 1.85476 0
M  V30 1921 N 181.806 0.884767 1.30421 0
M  V30 1922 C 183.052 0.503851 1.96441 0
M  V30 1923 C 183.385 -0.944518 1.69684 0
M  V30 1924 O 182.66 -1.66737 1.00145 0
M  V30 1925 C 182.943 0.779085 3.51571 0
M  V30 1926 C 182.796 2.27807 3.87846 0
M  V30 1927 C 184.115 0.255452 4.39358 0
M  V30 1928 H 181.234 0.184533 0.713524 0
M  V30 1929 H 183.876 1.10872 1.54297 0
M  V30 1930 H 182.026 0.264274 3.876 0
M  V30 1931 H 183.698 2.86127 3.61841 0
M  V30 1932 H 181.941 2.74479 3.35922 0
M  V30 1933 H 182.612 2.42125 4.96064 0
M  V30 1934 H 185.088 0.696079 4.10236 0
M  V30 1935 H 183.964 0.477361 5.4682 0
M  V30 1936 H 184.225 -0.843293 4.33983 0
M  V30 1937 N 183.284 -1.43765 0.645699 0
M  V30 1938 C 184.561 -1.9541 0.0862963 0
M  V30 1939 C 184.941 -1.58725 -1.39175 0
M  V30 1940 O 184.289 -0.868581 -2.11348 0
M  V30 1941 C 184.499 -3.47488 0.324565 0
M  V30 1942 C 185.847 -4.24001 0.225497 0
M  V30 1943 O 186.871 -3.55274 0.256715 0
M  V30 1944 O 185.73 -5.46313 0.142801 0
M  V30 1945 H 182.824 -0.826882 -0.0139483 0
M  V30 1946 H 185.37 -1.53743 0.718415 0
M  V30 1947 H 184.142 -3.67289 1.3496 0
M  V30 1948 H 183.765 -3.96135 -0.340987 0
M  V30 1949 N 184.763 -0.387143 -1.52771 0
M  V30 1950 C 186.04 0.253197 -1.93954 0
M  V30 1951 C 186.42 1.64545 -1.32243 0
M  V30 1952 O 185.768 2.23191 -0.489699 0
M  V30 1953 C 185.978 0.281722 -3.47861 0
M  V30 1954 C 187.326 0.511715 -4.21505 0
M  V30 1955 O 188.35 0.362023 -3.54356 0
M  V30 1956 O 187.209 0.804847 -5.40541 0
M  V30 1957 H 184.303 0.156845 -0.811991 0
M  V30 1958 H 186.849 -0.441494 -1.63856 0
M  V30 1959 H 185.621 -0.693571 -3.85104 0
M  V30 1960 H 185.244 1.02142 -3.84256 0
M  V30 1961 N 186.241 1.57166 -0.116904 0
M  V30 1962 C 187.487 1.96206 0.536166 0
M  V30 1963 C 187.842 0.99915 1.64422 0
M  V30 1964 O 187.135 0.0288195 1.91578 0
M  V30 1965 C 187.329 3.39508 1.11664 0
M  V30 1966 C 187.158 4.49651 0.0663474 0
M  V30 1967 C 185.928 5.03982 -0.36474 0
M  V30 1968 C 188.126 5.09322 -0.713829 0
M  V30 1969 N 186.108 5.97699 -1.40102 0
M  V30 1970 C 187.479 5.98963 -1.60136 0
M  V30 1971 C 189.534 4.91989 -0.764948 0
M  V30 1972 C 188.237 6.73128 -2.53556 0
M  V30 1973 C 190.263 5.66833 -1.68685 0
M  V30 1974 C 189.625 6.56158 -2.56196 0
M  V30 1975 H 185.724 0.764203 0.165886 0
M  V30 1976 H 188.308 1.93623 -0.204535 0
M  V30 1977 H 186.479 3.42743 1.82707 0
M  V30 1978 H 188.211 3.65677 1.73386 0
M  V30 1979 H 184.966 4.73592 0.027252 0
M  V30 1980 H 185.39 6.49262 -1.91802 0
M  V30 1981 H 190.032 4.22676 -0.102501 0
M  V30 1982 H 187.75 7.41689 -3.20816 0
M  V30 1983 H 191.336 5.55427 -1.73181 0
M  V30 1984 H 190.216 7.13057 -3.26372 0
M  V30 1985 N 187.719 -0.156864 1.56817 0
M  V30 1986 C 188.996 -0.899244 1.73704 0
M  V30 1987 C 189.376 -1.99771 0.682254 0
M  V30 1988 O 188.724 -2.26515 -0.300522 0
M  V30 1989 C 188.934 -1.45075 3.17418 0
M  V30 1990 C 190.282 -1.91802 3.7881 0
M  V30 1991 O 191.306 -1.54838 3.20786 0
M  V30 1992 O 190.165 -2.5994 4.80722 0
M  V30 1993 H 187.259 -0.424267 0.709878 0
M  V30 1994 H 189.805 -0.143561 1.69092 0
M  V30 1995 H 188.577 -0.660846 3.85679 0
M  V30 1996 H 188.2 -2.27021 3.26416 0
M  V30 1997 N 189.197 -1.51736 -0.425897 0
M  V30 1998 C 190.444 -1.6497 -1.17436 0
M  V30 1999 C 190.772 -0.371445 -1.9092 0
M  V30 2000 O 190.027 0.644963 -1.84767 0
M  V30 2001 C 190.326 -2.81103 -2.20717 0
M  V30 2002 C 189.992 -4.19954 -1.64162 0
M  V30 2003 C 188.654 -4.57725 -1.48462 0
M  V30 2004 C 191.006 -5.06552 -1.22696 0
M  V30 2005 C 188.334 -5.79789 -0.897873 0
M  V30 2006 C 190.686 -6.29205 -0.654464 0
M  V30 2007 C 189.35 -6.6574 -0.484456 0
M  V30 2008 H 188.62 -0.603668 -0.429727 0
M  V30 2009 H 191.267 -1.85798 -0.463829 0
M  V30 2010 H 189.572 -2.54542 -2.97852 0
M  V30 2011 H 191.269 -2.8854 -2.78471 0
M  V30 2012 H 187.859 -3.90181 -1.77361 0
M  V30 2013 H 192.043 -4.77968 -1.33642 0
M  V30 2014 H 187.299 -6.06733 -0.75402 0
M  V30 2015 H 191.473 -6.95643 -0.324694 0
M  V30 2016 H 189.1 -7.60195 -0.0276833 0
M  V30 2017 N 190.675 0.682077 -1.42076 0
M  V30 2018 C 191.952 1.43755 -1.32642 0
M  V30 2019 C 192.332 2.11063 0.0396611 0
M  V30 2020 O 191.68 2.02701 1.05474 0
M  V30 2021 C 191.89 2.44596 -2.48946 0
M  V30 2022 C 193.238 3.09454 -2.9073 0
M  V30 2023 O 194.262 2.54922 -2.48783 0
M  V30 2024 O 193.121 4.08253 -3.63307 0
M  V30 2025 H 190.215 0.640857 -0.522715 0
M  V30 2026 H 192.761 0.711415 -1.54068 0
M  V30 2027 H 191.533 1.93609 -3.40046 0
M  V30 2028 H 191.156 3.24701 -2.29467 0
M  V30 2029 N 192.153 1.28127 0.917671 0
M  V30 2030 C 193.063 1.13556 2.05286 0
M  V30 2031 C 194.079 0.0630914 1.73886 0
M  V30 2032 O 195.255 0.271598 1.9956 0
M  V30 2033 C 192.32 0.794676 3.3747 0
M  V30 2034 C 191.381 1.94909 3.82504 0
M  V30 2035 C 190.614 1.62437 5.0838 0
M  V30 2036 O 190.837 0.536905 5.67867 0
M  V30 2037 O 189.771 2.46677 5.4903 0
M  V30 2038 H 193.597 2.08844 2.20495 0
M  V30 2039 H 191.182 1.07409 1.03845 0
M  V30 2040 H 193.064 0.618344 4.16839 0
M  V30 2041 H 191.739 -0.128581 3.23445 0
M  V30 2042 H 190.646 2.18055 3.03978 0
M  V30 2043 H 191.979 2.85291 4.01086 0
M  V30 2044 N 193.631 -1.12557 1.10312 0
M  V30 2045 C 195.047 -1.36036 0.834649 0
M  V30 2046 C 195.247 -1.93946 -0.546539 0
M  V30 2047 O 194.303 -2.16484 -1.29966 0
M  V30 2048 C 195.616 -2.30312 1.9333 0
M  V30 2049 C 197.164 -2.43906 1.9616 0
M  V30 2050 C 197.639 -3.41496 3.05195 0
M  V30 2051 N 199.13 -3.49053 3.04494 0
M  V30 2052 C 199.865 -4.24471 3.85502 0
M  V30 2053 N 199.361 -5.02966 4.76442 0
M  V30 2054 N 201.154 -4.19864 3.73725 0
M  V30 2055 H 193.305 -0.733246 1.99342 0
M  V30 2056 H 195.568 -0.385234 0.866198 0
M  V30 2057 H 195.274 -1.94933 2.92735 0
M  V30 2058 H 195.148 -3.30421 1.81939 0
M  V30 2059 H 197.535 -2.78567 0.973886 0
M  V30 2060 H 197.616 -1.4369 2.11629 0
M  V30 2061 H 197.26 -3.07565 4.04186 0
M  V30 2062 H 197.19 -4.41539 2.86968 0
M  V30 2063 H 199.681 -2.93053 2.38596 0
M  V30 2064 H 199.994 -5.57846 5.34815 0
M  V30 2065 H 198.339 -5.02167 4.80472 0
M  V30 2066 H 201.53 -3.57623 3.02032 0
M  V30 2067 H 201.703 -4.78386 4.37093 0
M  V30 2068 N 195.109 -0.891671 -1.2995 0
M  V30 2069 C 196.355 -0.514261 -1.96171 0
M  V30 2070 C 196.688 0.935506 -1.70182 0
M  V30 2071 O 195.963 1.66204 -1.01028 0
M  V30 2072 C 196.246 -0.797719 -3.51153 0
M  V30 2073 C 196.099 -2.2986 -3.86632 0
M  V30 2074 C 197.418 -0.278749 -4.39216 0
M  V30 2075 H 194.537 -0.188314 -0.712535 0
M  V30 2076 H 197.179 -1.11689 -1.53706 0
M  V30 2077 H 195.329 -0.284826 -3.87455 0
M  V30 2078 H 197.001 -2.88042 -3.60319 0
M  V30 2079 H 195.244 -2.76257 -3.34462 0
M  V30 2080 H 195.915 -2.44753 -4.94773 0
M  V30 2081 H 198.391 -0.717825 -4.09862 0
M  V30 2082 H 197.267 -0.506353 -5.46559 0
M  V30 2083 H 197.528 0.820266 -4.34424 0
M  V30 2084 N 196.587 1.43421 -0.653314 0
M  V30 2085 C 198.003 1.56341 -0.320886 0
M  V30 2086 C 198.203 1.63696 1.17499 0
M  V30 2087 O 197.259 1.59208 1.95982 0
M  V30 2088 C 198.572 2.82424 -1.03233 0
M  V30 2089 C 200.12 2.96168 -1.01259 0
M  V30 2090 C 200.595 4.25084 -1.70492 0
M  V30 2091 N 202.086 4.31948 -1.67257 0
M  V30 2092 C 202.821 5.30466 -2.17701 0
M  V30 2093 N 202.317 6.35261 -2.76434 0
M  V30 2094 N 204.11 5.2212 -2.082 0
M  V30 2095 H 196.261 1.3689 -1.62403 0
M  V30 2096 H 198.524 0.657455 -0.682977 0
M  V30 2097 H 198.23 2.83053 -2.08744 0
M  V30 2098 H 198.104 3.72653 -0.583948 0
M  V30 2099 H 200.491 2.9508 0.0341235 0
M  V30 2100 H 200.572 2.07229 -1.49966 0
M  V30 2101 H 200.216 4.26932 -2.7512 0
M  V30 2102 H 200.146 5.1292 -1.19251 0
M  V30 2103 H 202.637 3.56838 -1.24398 0
M  V30 2104 H 202.95 7.06754 -3.12601 0
M  V30 2105 H 201.295 6.35884 -2.80495 0
M  V30 2106 H 204.486 4.39166 -1.62021 0
M  V30 2107 H 204.659 5.98739 -2.47822 0
M  V30 2108 N 198.065 0.39524 1.52563 0
M  V30 2109 C 199.313 -0.184678 2.01254 0
M  V30 2110 C 199.634 -1.46822 1.28329 0
M  V30 2111 O 198.904 -1.91666 0.405094 0
M  V30 2112 H 197.484 -0.0712355 0.743596 0
M  V30 2113 H 200.146 0.528293 1.87603 0
M  V30 2114 H 199.242 -0.390681 3.09645 0
M  V30 2115 N 199.544 -1.57102 0.125237 0
M  V30 2116 C 200.507 -2.14471 -0.80838 0
M  V30 2117 C 201.507 -1.0811 -1.19033 0
M  V30 2118 O 202.697 -1.33856 -1.11482 0
M  V30 2119 C 199.829 -2.69005 -2.09402 0
M  V30 2120 H 201.022 -2.98297 -0.309696 0
M  V30 2121 H 198.575 -1.55807 -0.124051 0
M  V30 2122 H 199.31 -1.88785 -2.63687 0
M  V30 2123 H 199.095 -3.46799 -1.82957 0
M  V30 2124 H 200.585 -3.13278 -2.76128 0
M  V30 2125 N 201.022 0.148545 -1.56898 0
M  V30 2126 C 201.985 1.16736 -1.97244 0
M  V30 2127 C 202.985 1.35947 -0.858777 0
M  V30 2128 O 204.175 1.32966 -1.12542 0
M  V30 2129 C 201.307 2.52798 -2.28705 0
M  V30 2130 H 202.5 0.821279 -2.88435 0
M  V30 2131 H 200.053 0.391831 -1.51309 0
M  V30 2132 H 200.788 2.92381 -1.403 0
M  V30 2133 H 200.573 2.40216 -3.09901 0
M  V30 2134 H 202.063 3.26179 -2.60762 0
M  V30 2135 N 202.5 1.5196 0.417844 0
M  V30 2136 C 203.747 1.65591 1.16559 0
M  V30 2137 C 204.075 0.381565 1.90721 0
M  V30 2138 O 203.33 -0.635156 1.85106 0
M  V30 2139 C 203.629 2.82269 2.19223 0
M  V30 2140 C 203.295 4.20819 1.61933 0
M  V30 2141 C 201.957 4.58506 1.46033 0
M  V30 2142 C 204.309 5.07196 1.20008 0
M  V30 2143 C 201.637 5.80257 0.867113 0
M  V30 2144 C 203.989 6.29544 0.621086 0
M  V30 2145 C 202.653 6.65987 0.449144 0
M  V30 2146 H 201.923 0.605939 0.42652 0
M  V30 2147 H 204.57 1.86041 0.45397 0
M  V30 2148 H 202.875 2.56118 2.96498 0
M  V30 2149 H 204.572 2.90012 2.76936 0
M  V30 2150 H 201.162 3.91116 1.7529 0
M  V30 2151 H 205.346 4.7867 1.31105 0
M  V30 2152 H 200.602 6.07124 0.721833 0
M  V30 2153 H 204.776 6.95805 0.287798 0
M  V30 2154 H 202.403 7.60199 -0.012632 0
M  V30 2155 N 203.978 -0.674533 1.42435 0
M  V30 2156 C 204.928 -1.7807 1.4239 0
M  V30 2157 C 205.912 -1.58169 0.295202 0
M  V30 2158 O 207.104 -1.68643 0.537449 0
M  V30 2159 C 204.233 -3.16532 1.32901 0
M  V30 2160 C 203.319 -3.42055 2.50717 0
M  V30 2161 N 203.71 -3.38162 3.76139 0
M  V30 2162 C 202.008 -3.72692 2.44983 0
M  V30 2163 C 202.709 -3.63177 4.54398 0
M  V30 2164 N 201.685 -3.83954 3.84812 0
M  V30 2165 H 205.487 -1.73454 2.37257 0
M  V30 2166 H 203.001 -0.875381 1.36788 0
M  V30 2167 H 204.998 -3.958 1.30951 0
M  V30 2168 H 203.658 -3.22345 0.390363 0
M  V30 2169 H 204.669 -3.18057 4.0873 0
M  V30 2170 H 201.346 -3.85749 1.59699 0
M  V30 2171 H 202.736 -3.66125 5.63384 0
M  V30 2172 N 205.456 -1.28612 -0.910864 0
M  V30 2173 C 206.406 -1.09423 -2.00026 0
M  V30 2174 C 207.39 -0.0170079 -1.60891 0
M  V30 2175 O 208.582 -0.237472 -1.754 0
M  V30 2176 C 205.711 -0.76114 -3.34756 0
M  V30 2177 C 204.797 -1.87735 -3.80285 0
M  V30 2178 N 205.188 -3.11938 -3.98156 0
M  V30 2179 C 203.486 -1.76786 -4.09467 0
M  V30 2180 C 204.187 -3.84687 -4.36338 0
M  V30 2181 N 203.163 -3.12555 -4.44759 0
M  V30 2182 H 206.965 -2.03658 -2.11898 0
M  V30 2183 H 204.479 -1.19573 -1.09891 0
M  V30 2184 H 206.476 -0.604743 -4.12491 0
M  V30 2185 H 205.136 0.173403 -3.24237 0
M  V30 2186 H 206.147 -3.47516 -3.83996 0
M  V30 2187 H 202.824 -0.905284 -4.07567 0
M  V30 2188 H 204.214 -4.91518 -4.58104 0
M  V30 2189 N 206.934 1.1197 -1.10907 0
M  V30 2190 C 208.182 1.83225 -0.852819 0
M  V30 2191 C 208.503 1.84769 0.623341 0
M  V30 2192 O 207.773 1.3143 1.45269 0
M  V30 2193 H 206.353 0.67849 -0.312507 0
M  V30 2194 H 209.015 1.3556 -1.40033 0
M  V30 2195 H 208.111 2.87265 -1.22005 0
M  V30 2196 N 208.412 0.89855 1.29475 0
M  V30 2197 C 209.689 0.443416 1.90508 0
M  V30 2198 C 210.069 -1.07685 1.81569 0
M  V30 2199 O 209.417 -1.9182 1.24166 0
M  V30 2200 C 209.627 0.956708 3.35631 0
M  V30 2201 C 210.975 0.999728 4.12663 0
M  V30 2202 O 211.999 0.904299 3.4453 0
M  V30 2203 O 210.858 1.14289 5.34416 0
M  V30 2204 H 207.952 0.138025 0.815401 0
M  V30 2205 H 210.498 0.98834 1.37949 0
M  V30 2206 H 209.27 2.00067 3.36287 0
M  V30 2207 H 208.893 0.391728 3.95666 0
M  V30 2208 N 209.89 -1.43072 0.660911 0
M  V30 2209 C 211.137 -2.01721 0.177445 0
M  V30 2210 C 211.465 -1.5218 -1.21126 0
M  V30 2211 O 210.72 -0.708659 -1.82419 0
M  V30 2212 C 211.019 -3.57103 0.145563 0
M  V30 2213 C 210.685 -4.26021 1.47705 0
M  V30 2214 C 209.347 -4.44563 1.84165 0
M  V30 2215 C 211.699 -4.64983 2.35458 0
M  V30 2216 C 209.027 -4.99334 3.0803 0
M  V30 2217 C 211.379 -5.21127 3.58622 0
M  V30 2218 C 210.043 -5.37884 3.95268 0
M  V30 2219 H 209.313 -0.73815 0.0649317 0
M  V30 2220 H 211.96 -1.71446 0.853144 0
M  V30 2221 H 210.265 -3.86965 -0.61361 0
M  V30 2222 H 211.962 -4.00248 -0.2455 0
M  V30 2223 H 208.552 -4.11939 1.18339 0
M  V30 2224 H 212.736 -4.50343 2.08579 0
M  V30 2225 H 207.992 -5.10493 3.36462 0
M  V30 2226 H 212.166 -5.50262 4.26831 0
M  V30 2227 H 209.793 -5.80089 4.91325 0
M  V30 2228 N 211.368 -0.403325 -1.52352 0
M  V30 2229 C 212.298 0.416205 -2.29761 0
M  V30 2230 C 213.279 1.05123 -1.33728 0
M  V30 2231 O 214.464 1.06134 -1.62632 0
M  V30 2232 C 211.594 1.53624 -3.11475 0
M  V30 2233 C 210.548 1.02653 -4.15507 0
M  V30 2234 C 209.874 2.23971 -4.85532 0
M  V30 2235 C 211.174 0.08463 -5.22231 0
M  V30 2236 H 212.868 -0.229701 -2.98518 0
M  V30 2237 H 210.414 -0.111913 -1.43564 0
M  V30 2238 H 212.367 2.1165 -3.64393 0
M  V30 2239 H 211.091 2.20994 -2.40477 0
M  V30 2240 H 209.75 0.46871 -3.63591 0
M  V30 2241 H 209.398 2.89883 -4.11068 0
M  V30 2242 H 209.098 1.90521 -5.55856 0
M  V30 2243 H 210.622 2.82614 -5.41259 0
M  V30 2244 H 212.036 0.573509 -5.70424 0
M  V30 2245 H 210.433 -0.160783 -5.99885 0
M  V30 2246 H 211.503 -0.86237 -4.7717 0
M  V30 2247 N 212.846 1.57033 -0.133567 0
M  V30 2248 C 213.779 2.11824 0.848872 0
M  V30 2249 C 214.757 1.03833 1.2513 0
M  V30 2250 O 215.941 1.31579 1.34978 0
M  V30 2251 C 213.068 2.62692 2.138 0
M  V30 2252 C 212.114 3.82705 1.88253 0
M  V30 2253 S 212.947 5.2438 1.08563 0
M  V30 2254 C 214.103 5.78627 2.38624 0
M  V30 2255 H 214.336 2.94824 0.38289 0
M  V30 2256 H 211.869 1.5419 0.0804796 0
M  V30 2257 H 213.827 2.92652 2.87863 0
M  V30 2258 H 212.488 1.79847 2.57515 0
M  V30 2259 H 211.681 4.16496 2.83809 0
M  V30 2260 H 211.283 3.53437 1.22305 0
M  V30 2261 H 213.575 5.8924 3.34369 0
M  V30 2262 H 214.518 6.76443 2.09358 0
M  V30 2263 H 214.926 5.06783 2.48658 0
M  V30 2264 N 214.325 -0.140222 1.56975 0
M  V30 2265 C 215.273 -1.19207 1.99731 0
M  V30 2266 C 216.267 -1.44089 0.890777 0
M  V30 2267 O 217.473 -1.44301 1.07597 0
M  V30 2268 H 213.848 -0.40142 0.635898 0
M  V30 2269 H 215.819 -0.804813 2.87342 0
M  V30 2270 C 214.568 -2.51617 2.39967 0
M  V30 2271 H 213.891 -2.33303 3.24669 0
M  V30 2272 H 215.331 -3.23827 2.73701 0
M  V30 2273 C 213.79 -3.12654 1.25496 0
M  V30 2274 O 214.32 -3.97786 0.559371 0
M  V30 2275 N 212.526 -2.72206 1.01746 0
M  V30 2276 H 212.073 -2.03074 1.58489 0
M  V30 2277 H 212.031 -3.13377 0.253461 0
M  V30 2278 N 215.803 -1.52179 -0.40978 0
M  V30 2279 C 216.733 -1.78435 -1.5061 0
M  V30 2280 C 217.714 -0.635295 -1.57791 0
M  V30 2281 O 218.899 -0.880823 -1.73076 0
M  V30 2282 C 216.029 -1.93444 -2.88439 0
M  V30 2283 C 214.983 -3.09038 -2.96108 0
M  V30 2284 C 214.309 -3.09268 -4.36185 0
M  V30 2285 C 215.609 -4.48508 -2.67652 0
M  V30 2286 H 217.303 -2.70237 -1.28889 0
M  V30 2287 H 214.849 -1.30036 -0.618605 0
M  V30 2288 H 216.802 -2.10394 -3.65119 0
M  V30 2289 H 215.526 -0.983129 -3.11452 0
M  V30 2290 H 214.185 -2.91837 -2.21872 0
M  V30 2291 H 213.833 -2.11861 -4.56206 0
M  V30 2292 H 213.533 -3.86907 -4.42241 0
M  V30 2293 H 215.057 -3.28348 -5.14801 0
M  V30 2294 H 216.471 -4.65918 -3.34056 0
M  V30 2295 H 214.868 -5.28059 -2.85085 0
M  V30 2296 H 215.938 -4.56649 -1.63095 0
M  V30 2297 N 217.281 0.66697 -1.42791 0
M  V30 2298 C 218.697 0.981027 -1.25889 0
M  V30 2299 C 218.897 2.00793 -0.168695 0
M  V30 2300 O 217.953 2.48321 0.45747 0
M  V30 2301 C 219.266 1.47838 -2.61848 0
M  V30 2302 C 220.814 1.59575 -2.69267 0
M  V30 2303 C 221.289 2.12704 -4.05612 0
M  V30 2304 N 222.78 2.20026 -4.07606 0
M  V30 2305 C 223.515 2.62227 -5.09926 0
M  V30 2306 N 223.011 3.03824 -6.22626 0
M  V30 2307 N 224.804 2.62045 -4.97281 0
M  V30 2308 H 216.955 -0.0127891 -2.12396 0
M  V30 2309 H 219.218 0.0568258 -0.946295 0
M  V30 2310 H 218.924 0.798299 -3.4252 0
M  V30 2311 H 218.798 2.45579 -2.86305 0
M  V30 2312 H 221.185 2.26687 -1.88936 0
M  V30 2313 H 221.266 0.60302 -2.48591 0
M  V30 2314 H 220.91 1.46198 -4.86404 0
M  V30 2315 H 220.84 3.12782 -4.23645 0
M  V30 2316 H 223.331 1.90708 -3.2625 0
M  V30 2317 H 223.644 3.34734 -6.96544 0
M  V30 2318 H 221.989 3.01662 -6.26119 0
M  V30 2319 H 225.18 2.28916 -4.08308 0
M  V30 2320 H 225.353 2.94613 -5.77154 0
M  V30 2321 N 218.759 1.29093 0.90403 0
M  V30 2322 C 219.691 1.09658 2.01266 0
M  V30 2323 C 220.704 0.0453729 1.62737 0
M  V30 2324 O 221.893 0.289446 1.76138 0
M  V30 2325 C 218.993 0.646278 3.32681 0
M  V30 2326 C 218.166 1.77505 3.99763 0
M  V30 2327 C 217.225 1.31649 5.09465 0
M  V30 2328 O 216.251 2.02045 5.32134 0
M  V30 2329 N 217.453 0.184997 5.80205 0
M  V30 2330 H 220.218 2.05135 2.18494 0
M  V30 2331 H 217.779 1.20975 1.07594 0
M  V30 2332 H 219.771 0.322906 4.0341 0
M  V30 2333 H 218.341 -0.215916 3.11853 0
M  V30 2334 H 217.561 2.26752 3.22455 0
M  V30 2335 H 218.849 2.53198 4.41325 0
M  V30 2336 H 218.247 -0.402021 5.6427 0
M  V30 2337 H 216.804 -0.0790358 6.51752 0
M  V30 2338 N 220.237 -1.11381 1.11499 0
M  V30 2339 C 221.486 -1.82494 0.858993 0
M  V30 2340 C 221.799 -1.85605 -0.617278 0
M  V30 2341 O 223.005 -2.52824 -0.989552 0
M  V30 2342 C 221.461 -3.27745 1.48699 0
M  V30 2343 C 221.069 -3.32961 2.99735 0
M  V30 2344 C 222.813 -4.03754 1.31085 0
M  V30 2345 C 220.72 -4.72612 3.55516 0
M  V30 2346 H 219.65 -0.683802 0.317696 0
M  V30 2347 H 222.301 -1.25331 1.34031 0
M  V30 2348 H 220.683 -3.84844 0.933339 0
M  V30 2349 H 221.857 -2.85741 3.61509 0
M  V30 2350 H 220.172 -2.70433 3.16631 0
M  V30 2351 H 222.769 -5.06891 1.70192 0
M  V30 2352 H 223.112 -4.15527 0.253496 0
M  V30 2353 H 223.645 -3.53043 1.83318 0
M  V30 2354 H 220.384 -4.66036 4.60967 0
M  V30 2355 H 219.904 -5.2024 2.98513 0
M  V30 2356 H 221.583 -5.4157 3.53992 0
M  V30 2357 N 221.715 -0.905404 -1.28997 0
M  V30 2358 C 222.955 -0.541232 -1.97104 0
M  V30 2359 C 223.319 0.896841 -1.69767 0
M  V30 2360 O 224.52 1.36817 -2.31375 0
M  V30 2361 C 222.791 -0.832134 -3.47578 0
M  V30 2362 S 224.35 -0.573127 -4.35041 0
M  V30 2363 H 221.168 -0.200576 -0.682122 0
M  V30 2364 H 223.77 -1.16906 -1.56694 0
M  V30 2365 H 222.474 -1.87687 -3.64968 0
M  V30 2366 H 222.005 -0.192636 -3.92928 0
M  V30 2367 H 224.02 0.579297 -4.92807 0
M  V30 2368 N 223.193 1.4272 -0.668489 0
M  V30 2369 C 224.609 1.55992 -0.33745 0
M  V30 2370 C 224.809 1.64933 1.15756 0
M  V30 2371 O 223.865 1.61278 1.94282 0
M  V30 2372 C 225.178 2.81314 -1.06222 0
M  V30 2373 C 226.726 2.95078 -1.04394 0
M  V30 2374 C 227.201 4.23252 -1.74991 0
M  V30 2375 N 228.692 4.3015 -1.71829 0
M  V30 2376 C 229.427 5.28127 -2.23315 0
M  V30 2377 N 228.923 6.32293 -2.83156 0
M  V30 2378 N 230.716 5.19882 -2.13726 0
M  V30 2379 H 222.867 1.3516 -1.63846 0
M  V30 2380 H 225.13 0.650174 -0.689912 0
M  V30 2381 H 224.836 2.80823 -2.11734 0
M  V30 2382 H 224.71 3.72012 -0.62344 0
M  V30 2383 H 227.097 2.951 0.0028244 0
M  V30 2384 H 227.178 2.05627 -1.52155 0
M  V30 2385 H 226.822 4.2399 -2.79633 0
M  V30 2386 H 226.752 5.11626 -1.24685 0
M  V30 2387 H 229.243 3.55499 -1.28175 0
M  V30 2388 H 229.556 7.03398 -3.20079 0
M  V30 2389 H 227.901 6.32873 -2.87223 0
M  V30 2390 H 231.092 4.37423 -1.66669 0
M  V30 2391 H 231.265 5.96077 -2.54158 0
M  V30 2392 N 224.671 0.411399 1.52136 0
M  V30 2393 C 225.948 -0.222308 1.94333 0
M  V30 2394 C 226.328 -1.6242 1.34844 0
M  V30 2395 O 225.676 -2.22384 0.525145 0
M  V30 2396 C 225.886 -0.226345 3.48265 0
M  V30 2397 C 227.234 -0.444592 4.22266 0
M  V30 2398 O 228.258 -0.305602 3.54887 0
M  V30 2399 O 227.117 -0.718749 5.41753 0
M  V30 2400 H 224.211 -0.143907 0.814383 0
M  V30 2401 H 226.757 0.467506 1.63133 0
M  V30 2402 H 225.529 0.75475 3.83952 0
M  V30 2403 H 225.152 -0.960163 3.85832 0
M  V30 2404 N 226.149 -1.5696 0.141893 0
M  V30 2405 C 227.059 -2.20066 -0.812905 0
M  V30 2406 C 228.075 -1.18344 -1.27557 0
M  V30 2407 O 229.251 -1.50902 -1.33381 0
M  V30 2408 C 226.316 -2.80583 -2.03652 0
M  V30 2409 C 225.377 -3.97414 -1.62359 0
M  V30 2410 C 224.61 -4.55036 -2.78887 0
M  V30 2411 O 224.833 -4.11538 -3.94959 0
M  V30 2412 O 223.767 -5.45376 -2.54653 0
M  V30 2413 H 227.593 -3.02157 -0.305746 0
M  V30 2414 H 225.178 -1.49159 -0.0848799 0
M  V30 2415 H 227.06 -3.19067 -2.75272 0
M  V30 2416 H 225.735 -2.01508 -2.5333 0
M  V30 2417 H 224.642 -3.63656 -0.877775 0
M  V30 2418 H 225.975 -4.77994 -1.17401 0
M  V30 2419 N 227.627 0.131896 -1.57047 0
M  V30 2420 C 229.038 0.690407 -1.73465 0
M  V30 2421 C 229.389 1.8094 -0.758629 0
M  V30 2422 O 228.514 2.16282 0.0713813 0
M  V30 2423 C 229.109 1.25916 -3.14532 0
M  V30 2424 C 227.668 1.76409 -3.32501 0
M  V30 2425 C 226.815 0.658579 -2.69366 0
M  V30 2426 H 229.766 -0.0939144 -1.58422 0
M  V30 2427 H 229.787 2.12892 -3.15369 0
M  V30 2428 H 229.299 0.444515 -3.85546 0
M  V30 2429 H 227.4 2.60391 -2.66509 0
M  V30 2430 H 227.513 1.88241 -4.4057 0
M  V30 2431 H 225.877 1.08899 -2.30246 0
M  V30 2432 H 226.66 -0.14487 -3.42994 0
M  V30 2433 N 229.106 1.52395 0.401703 0
M  V30 2434 C 230.054 1.7689 1.51039 0
M  V30 2435 C 231.048 0.636298 1.56996 0
M  V30 2436 O 232.254 0.818507 1.60314 0
M  V30 2437 H 228.629 0.559502 0.502456 0
M  V30 2438 H 230.6 2.69757 1.27568 0
M  V30 2439 C 229.349 1.94331 2.88324 0
M  V30 2440 H 228.672 2.80905 2.84486 0
M  V30 2441 H 230.112 2.15466 3.65172 0
M  V30 2442 C 228.571 0.712396 3.29282 0
M  V30 2443 O 229.101 -0.116218 4.01532 0
M  V30 2444 N 227.307 0.546154 2.85422 0
M  V30 2445 H 226.854 1.22156 2.26794 0
M  V30 2446 H 226.812 -0.276113 3.13185 0
M  V30 2447 N 230.584 -0.659388 1.43143 0
M  V30 2448 C 231.83 -1.42145 1.44647 0
M  V30 2449 C 232.163 -1.9408 0.0681907 0
M  V30 2450 O 231.438 -1.71899 -0.910007 0
M  V30 2451 C 231.721 -2.60735 2.48373 0
M  V30 2452 C 231.574 -2.14332 3.95451 0
M  V30 2453 C 232.893 -3.62951 2.48906 0
M  V30 2454 H 230.012 -0.51552 0.526696 0
M  V30 2455 H 232.654 -0.748069 1.74654 0
M  V30 2456 H 230.804 -3.18184 2.22916 0
M  V30 2457 H 232.476 -1.61932 4.31944 0
M  V30 2458 H 230.719 -1.4576 4.08578 0
M  V30 2459 H 231.39 -2.99583 4.63631 0
M  V30 2460 H 233.866 -3.1525 2.71582 0
M  V30 2461 H 232.742 -4.43487 3.23435 0
M  V30 2462 H 233.003 -4.15126 1.52061 0
M  V30 2463 N 232.062 -1.29571 -0.897171 0
M  V30 2464 C 233.29 -1.20583 -1.68129 0
M  V30 2465 C 233.705 0.233181 -1.87354 0
M  V30 2466 O 233.062 1.15579 -1.41236 0
M  V30 2467 C 233.113 -1.91772 -3.06441 0
M  V30 2468 O 232.834 -3.30053 -2.88091 0
M  V30 2469 C 234.335 -1.89291 -4.00854 0
M  V30 2470 H 231.555 -0.417826 -0.525036 0
M  V30 2471 H 234.099 -1.70987 -1.12177 0
M  V30 2472 H 232.254 -1.45196 -3.59161 0
M  V30 2473 H 232.668 -3.65942 -3.75748 0
M  V30 2474 H 234.142 -2.43662 -4.95311 0
M  V30 2475 H 234.619 -0.869014 -4.30517 0
M  V30 2476 H 235.225 -2.35622 -3.54066 0
M  V30 2477 N 233.54 1.10788 -1.12088 0
M  V30 2478 C 234.503 2.15207 -0.788577 0
M  V30 2479 C 235.503 1.59609 0.195317 0
M  V30 2480 O 236.693 1.74174 -0.0300193 0
M  V30 2481 C 233.825 3.4047 -0.171174 0
M  V30 2482 H 235.018 2.46116 -1.71368 0
M  V30 2483 H 232.571 1.26089 -0.923652 0
M  V30 2484 H 233.306 3.15176 0.763832 0
M  V30 2485 H 233.091 3.82109 -0.879514 0
M  V30 2486 H 234.581 4.17576 0.04496 0
M  V30 2487 N 235.018 0.912232 1.28515 0
M  V30 2488 C 236.264 0.545405 1.95328 0
M  V30 2489 C 236.597 -0.908313 1.71649 0
M  V30 2490 O 235.872 -1.64575 1.03659 0
M  V30 2491 C 236.155 0.853483 3.4984 0
M  V30 2492 C 236.008 2.35982 3.82926 0
M  V30 2493 C 237.327 0.348589 4.38717 0
M  V30 2494 H 234.446 0.199626 0.709449 0
M  V30 2495 H 237.088 1.1412 1.5191 0
M  V30 2496 H 235.238 0.34643 3.86952 0
M  V30 2497 H 236.91 2.93738 3.55691 0
M  V30 2498 H 235.153 2.81543 3.30024 0
M  V30 2499 H 235.824 2.52593 4.90816 0
M  V30 2500 H 238.3 0.78294 4.08668 0
M  V30 2501 H 237.176 0.593242 5.45685 0
M  V30 2502 H 237.437 -0.751049 4.35674 0
M  V30 2503 N 236.496 -1.42363 0.676048 0
M  V30 2504 C 237.406 -2.346 -0.00153389 0
M  V30 2505 C 238.422 -1.5516 -0.787485 0
M  V30 2506 O 239.598 -1.87723 -0.729521 0
M  V30 2507 C 236.663 -3.33705 -0.940298 0
M  V30 2508 C 235.724 -4.29042 -0.148739 0
M  V30 2509 C 234.957 -5.23413 -1.04279 0
M  V30 2510 O 235.18 -5.22749 -2.28232 0
M  V30 2511 O 234.114 -5.99795 -0.502925 0
M  V30 2512 H 237.94 -2.94082 0.758268 0
M  V30 2513 H 235.525 -1.42888 0.436289 0
M  V30 2514 H 237.407 -3.94586 -1.47917 0
M  V30 2515 H 236.082 -2.76695 -1.67993 0
M  V30 2516 H 234.989 -3.71571 0.43427 0
M  V30 2517 H 236.322 -4.89097 0.551805 0
M  V30 2518 N 237.974 -0.419461 -1.51915 0
M  V30 2519 C 238.937 0.389116 -2.25873 0
M  V30 2520 C 239.937 0.964924 -1.28631 0
M  V30 2521 O 241.127 0.842179 -1.52489 0
M  V30 2522 C 238.259 1.54874 -3.03689 0
M  V30 2523 H 239.452 -0.258799 -2.98781 0
M  V30 2524 H 237.005 -0.172209 -1.55348 0
M  V30 2525 H 237.74 2.23323 -2.35154 0
M  V30 2526 H 237.525 1.14223 -3.75094 0
M  V30 2527 H 239.015 2.12046 -3.59759 0
M  V30 2528 N 239.452 1.56882 -0.150215 0
M  V30 2529 C 240.68 2.00593 0.506948 0
M  V30 2530 C 241.095 1.03033 1.58208 0
M  V30 2531 O 240.452 0.0278396 1.82479 0
M  V30 2532 C 240.503 3.44209 1.10465 0
M  V30 2533 O 240.224 4.3804 0.0724636 0
M  V30 2534 C 241.725 4.03214 1.84211 0
M  V30 2535 H 238.945 0.65795 0.13169 0
M  V30 2536 H 241.489 2.03018 -0.245743 0
M  V30 2537 H 239.644 3.42625 1.80795 0
M  V30 2538 H 240.058 5.22007 0.510793 0
M  V30 2539 H 241.532 5.0569 2.21318 0
M  V30 2540 H 242.009 3.44107 2.72923 0
M  V30 2541 H 242.615 4.08437 1.18572 0
M  V30 2542 N 240.93 -0.123565 1.57115 0
M  V30 2543 C 242.176 -0.833386 1.84885 0
M  V30 2544 C 242.509 -1.79742 0.735292 0
M  V30 2545 O 241.784 -1.92764 -0.25925 0
M  V30 2546 C 242.067 -1.5873 3.23228 0
M  V30 2547 C 241.92 -0.643183 4.45178 0
M  V30 2548 C 243.239 -2.54453 3.59085 0
M  V30 2549 H 240.358 -0.301518 0.6725 0
M  V30 2550 H 243 -0.097778 1.89748 0
M  V30 2551 H 241.15 -2.21438 3.19214 0
M  V30 2552 H 242.822 -0.0253015 4.61293 0
M  V30 2553 H 241.065 0.0456139 4.33776 0
M  V30 2554 H 241.736 -1.20724 5.38637 0
M  V30 2555 H 244.212 -2.01853 3.63861 0
M  V30 2556 H 243.088 -3.04238 4.5687 0
M  V30 2557 H 243.349 -3.36906 2.86264 0
M  V30 2558 N 242.408 -1.52605 -0.393616 0
M  V30 2559 C 243.636 -1.71294 -1.16043 0
M  V30 2560 C 244.051 -0.429259 -1.83855 0
M  V30 2561 O 243.408 0.595921 -1.72496 0
M  V30 2562 C 243.459 -2.8593 -2.21193 0
M  V30 2563 O 243.18 -4.09329 -1.56146 0
M  V30 2564 C 244.681 -3.16259 -3.10636 0
M  V30 2565 H 241.901 -0.573641 -0.348104 0
M  V30 2566 H 244.445 -1.99234 -0.461092 0
M  V30 2567 H 242.6 -2.60465 -2.86769 0
M  V30 2568 H 243.014 -4.73323 -2.25978 0
M  V30 2569 H 244.488 -3.99946 -3.80456 0
M  V30 2570 H 244.965 -2.3045 -3.73884 0
M  V30 2571 H 245.571 -3.43547 -2.50711 0
M  V30 2572 N 243.887 0.651787 -1.4349 0
M  V30 2573 C 244.834 1.76462 -1.4876 0
M  V30 2574 C 245.804 1.62641 -0.337189 0
M  V30 2575 O 246.989 1.82864 -0.544544 0
M  V30 2576 C 244.129 3.14623 -1.41796 0
M  V30 2577 C 243.242 3.39568 -2.67053 0
M  V30 2578 C 242.377 4.67585 -2.52068 0
M  V30 2579 C 241.416 4.85639 -3.72587 0
M  V30 2580 N 240.553 6.04915 -3.56402 0
M  V30 2581 H 245.393 1.71293 -2.43849 0
M  V30 2582 H 242.93 0.835889 -1.21043 0
M  V30 2583 H 244.888 3.94496 -1.35753 0
M  V30 2584 H 243.518 3.18859 -0.50288 0
M  V30 2585 H 242.57 2.53783 -2.8337 0
M  V30 2586 H 243.882 3.48795 -3.56572 0
M  V30 2587 H 243.036 5.55586 -2.4374 0
M  V30 2588 H 241.775 4.60681 -1.60075 0
M  V30 2589 H 240.78 3.96073 -3.81321 0
M  V30 2590 H 242.005 4.94372 -4.65589 0
M  V30 2591 H 239.951 5.9914 -2.67146 0
M  V30 2592 H 239.868 6.15106 -4.39524 0
M  V30 2593 H 241.136 6.95533 -3.51929 0
M  V30 2594 N 245.365 1.30045 0.890287 0
M  V30 2595 C 246.614 1.17929 1.63633 0
M  V30 2596 C 246.927 -0.266204 1.9378 0
M  V30 2597 O 248.133 -0.508804 2.6669 0
M  V30 2598 C 246.589 2.06317 2.94892 0
M  V30 2599 C 246.197 3.55745 2.72305 0
M  V30 2600 C 247.941 2.0295 3.72843 0
M  V30 2601 C 245.848 4.36205 3.99348 0
M  V30 2602 H 244.778 0.437782 0.613892 0
M  V30 2603 H 247.429 1.54754 0.986075 0
M  V30 2604 H 245.811 1.6237 3.61182 0
M  V30 2605 H 246.985 4.07805 2.1455 0
M  V30 2606 H 245.3 3.6088 2.07737 0
M  V30 2607 H 247.897 2.60319 4.67053 0
M  V30 2608 H 248.24 1.0117 4.0382 0
M  V30 2609 H 248.773 2.4499 3.13408 0
M  V30 2610 H 245.512 5.38659 3.73533 0
M  V30 2611 H 245.032 3.8891 4.56628 0
M  V30 2612 H 246.711 4.47362 4.67415 0
M  V30 2613 N 246.843 -1.10192 1.12674 0
M  V30 2614 C 247.773 -2.18652 0.819362 0
M  V30 2615 C 248.754 -1.68698 -0.217915 0
M  V30 2616 O 249.939 -1.94041 -0.0785581 0
M  V30 2617 C 247.069 -3.46202 0.27594 0
M  V30 2618 C 246.023 -4.09444 1.24656 0
M  V30 2619 C 245.349 -5.31725 0.563258 0
M  V30 2620 C 246.649 -4.52863 2.60217 0
M  V30 2621 H 248.343 -2.44622 1.72628 0
M  V30 2622 H 245.889 -1.17571 0.831451 0
M  V30 2623 H 247.842 -4.21372 0.0486149 0
M  V30 2624 H 246.566 -3.1973 -0.666331 0
M  V30 2625 H 245.225 -3.36284 1.45974 0
M  V30 2626 H 244.873 -5.0153 -0.384235 0
M  V30 2627 H 244.573 -5.74991 1.21075 0
M  V30 2628 H 246.097 -6.09624 0.34503 0
M  V30 2629 H 247.511 -5.19294 2.42913 0
M  V30 2630 H 245.908 -5.06986 3.21068 0
M  V30 2631 H 246.978 -3.65656 3.18471 0
M  V30 2632 N 248.321 -0.919034 -1.28029 0
M  V30 2633 C 249.737 -0.617972 -1.4715 0
M  V30 2634 C 249.937 0.835242 -1.83374 0
M  V30 2635 O 248.993 1.61388 -1.94191 0
M  V30 2636 C 250.306 -1.56041 -2.57044 0
M  V30 2637 C 251.854 -1.56769 -2.7091 0
M  V30 2638 C 252.329 -2.49688 -3.83953 0
M  V30 2639 N 253.82 -2.47845 -3.91314 0
M  V30 2640 C 254.555 -3.16437 -4.78179 0
M  V30 2641 N 254.051 -3.94376 -5.69596 0
M  V30 2642 N 255.844 -3.05498 -4.71834 0
M  V30 2643 H 247.995 -1.85866 -1.02798 0
M  V30 2644 H 250.258 -0.797506 -0.512531 0
M  V30 2645 H 249.964 -2.59671 -2.372 0
M  V30 2646 H 249.838 -1.29551 -3.54255 0
M  V30 2647 H 252.225 -0.538745 -2.90141 0
M  V30 2648 H 252.306 -1.87305 -1.74214 0
M  V30 2649 H 251.95 -3.52688 -3.65477 0
M  V30 2650 H 251.88 -2.16453 -4.80058 0
M  V30 2651 H 254.371 -1.91234 -3.25941 0
M  V30 2652 H 254.684 -4.43721 -6.32718 0
M  V30 2653 H 253.029 -3.98481 -5.69419 0
M  V30 2654 H 256.22 -2.44108 -3.99411 0
M  V30 2655 H 256.393 -3.59225 -5.39316 0
M  V30 2656 N 249.799 1.42003 -0.683588 0
M  V30 2657 C 251.076 1.95112 -0.138075 0
M  V30 2658 C 251.456 1.62359 1.34918 0
M  V30 2659 O 250.804 0.924311 2.08971 0
M  V30 2660 C 251.014 3.46505 -0.416581 0
M  V30 2661 C 252.362 4.23254 -0.337834 0
M  V30 2662 O 253.386 3.54468 -0.35082 0
M  V30 2663 O 252.245 5.45743 -0.287596 0
M  V30 2664 H 249.339 0.826961 -0.00797996 0
M  V30 2665 H 251.885 1.51784 -0.758924 0
M  V30 2666 H 250.657 3.63582 -1.4465 0
M  V30 2667 H 250.28 3.969 0.235839 0
M  V30 2668 N 251.277 0.427512 1.51691 0
M  V30 2669 C 252.688 -0.0378867 1.86662 0
M  V30 2670 C 253.039 -1.42819 1.34525 0
M  V30 2671 O 252.164 -2.05037 0.692014 0
M  V30 2672 C 252.759 -0.0755266 3.38716 0
M  V30 2673 C 251.318 -0.485309 3.73258 0
M  V30 2674 C 250.465 0.328399 2.75349 0
M  V30 2675 H 253.416 0.64379 1.45055 0
M  V30 2676 H 253.437 -0.887056 3.70016 0
M  V30 2677 H 252.949 0.936487 3.76632 0
M  V30 2678 H 251.05 -1.50329 3.40928 0
M  V30 2679 H 251.163 -0.21693 4.78609 0
M  V30 2680 H 249.527 -0.211905 2.53817 0
M  V30 2681 H 250.31 1.3391 3.16106 0
M  V30 2682 N 252.755 -1.56801 0.158532 0
M  V30 2683 C 253.98 -2.01295 -0.499516 0
M  V30 2684 C 254.405 -1.03799 -1.56867 0
M  V30 2685 O 253.763 -0.0155162 -1.81293 0
M  V30 2686 C 253.811 -3.44469 -1.06647 0
M  V30 2687 O 252.915 -3.50012 -2.18095 0
M  V30 2688 H 252.256 -0.652884 -0.12099 0
M  V30 2689 H 254.786 -2.02958 0.258661 0
M  V30 2690 H 254.796 -3.8351 -1.39227 0
M  V30 2691 H 253.471 -4.14932 -0.283581 0
M  V30 2692 H 252.048 -3.22822 -1.86656 0
M  V30 2693 N 254.233 0.115231 -1.57178 0
M  V30 2694 C 255.51 0.852873 -1.76027 0
M  V30 2695 C 255.89 1.97892 -0.73498 0
M  V30 2696 O 255.238 2.27232 0.24036 0
M  V30 2697 C 255.448 1.36608 -3.21153 0
M  V30 2698 C 256.796 1.81692 -3.83762 0
M  V30 2699 O 257.82 1.46278 -3.24779 0
M  V30 2700 O 256.679 2.47104 -4.87444 0
M  V30 2701 H 253.773 0.405296 -0.720877 0
M  V30 2702 H 256.319 0.0986785 -1.69413 0
M  V30 2703 H 255.091 0.558357 -3.87296 0
M  V30 2704 H 254.714 2.18287 -3.3232 0
M  V30 2705 N 255.711 1.52812 0.385517 0
M  V30 2706 C 257.122 1.5993 0.963293 0
M  V30 2707 C 257.473 0.454302 1.90868 0
M  V30 2708 O 256.598 -0.422132 2.12243 0
M  V30 2709 C 257.193 2.89871 1.75387 0
M  V30 2710 C 255.752 2.99389 2.28129 0
M  V30 2711 C 254.899 2.55071 1.08783 0
M  V30 2712 H 257.85 1.5784 0.164948 0
M  V30 2713 H 257.871 2.76553 2.61341 0
M  V30 2714 H 257.383 3.73186 1.06554 0
M  V30 2715 H 255.484 2.20619 3.00263 0
M  V30 2716 H 255.597 4.04096 2.57377 0
M  V30 2717 H 253.961 2.09473 1.4489 0
M  V30 2718 H 254.744 3.40785 0.414807 0
M  V30 2719 N 257.189 -0.644168 1.43834 0
M  V30 2720 C 258.137 -1.77793 1.49974 0
M  V30 2721 C 259.131 -1.65253 0.372536 0
M  V30 2722 O 260.337 -1.7149 0.546924 0
M  V30 2723 H 256.712 -0.58675 0.47035 0
M  V30 2724 H 258.683 -1.69736 2.45423 0
M  V30 2725 C 257.432 -3.16087 1.4486 0
M  V30 2726 H 256.755 -3.26378 2.30905 0
M  V30 2727 H 258.195 -3.95349 1.53217 0
M  V30 2728 C 256.654 -3.36484 0.167463 0
M  V30 2729 O 257.184 -3.94298 -0.767609 0
M  V30 2730 N 255.39 -2.90504 0.0747556 0
M  V30 2731 H 254.937 -2.4364 0.836507 0
M  V30 2732 H 254.895 -3.04527 -0.781714 0
M  V30 2733 N 258.668 -1.30515 -0.883378 0
M  V30 2734 C 259.896 -1.22359 -1.66841 0
M  V30 2735 C 260.311 0.213296 -1.87591 0
M  V30 2736 O 259.668 1.14075 -1.42454 0
M  V30 2737 C 259.719 -1.95011 -3.04389 0
M  V30 2738 O 259.44 -3.3309 -2.84575 0
M  V30 2739 C 260.941 -1.93532 -3.98824 0
M  V30 2740 H 258.161 -0.423371 -0.520575 0
M  V30 2741 H 260.705 -1.72167 -1.10357 0
M  V30 2742 H 258.86 -1.48997 -3.57601 0
M  V30 2743 H 259.274 -3.69907 -3.71846 0
M  V30 2744 H 260.748 -2.48902 -4.92699 0
M  V30 2745 H 261.225 -0.914627 -4.29571 0
M  V30 2746 H 261.831 -2.39364 -3.51547 0
M  V30 2747 N 260.146 1.09593 -1.13257 0
M  V30 2748 C 261.392 1.82003 -0.89458 0
M  V30 2749 C 261.725 1.85402 0.577906 0
M  V30 2750 O 261 1.32099 1.42759 0
M  V30 2751 C 261.283 3.28237 -1.48096 0
M  V30 2752 C 261.136 3.3312 -3.02244 0
M  V30 2753 C 262.455 4.24871 -1.14774 0
M  V30 2754 H 259.574 0.66077 -0.326424 0
M  V30 2755 H 262.216 1.28389 -1.40058 0
M  V30 2756 H 260.366 3.74024 -1.05062 0
M  V30 2757 H 262.038 2.95748 -3.54021 0
M  V30 2758 H 260.281 2.72756 -3.37323 0
M  V30 2759 H 260.952 4.3613 -3.38371 0
M  V30 2760 H 263.428 3.87361 -1.51957 0
M  V30 2761 H 262.304 5.25532 -1.58452 0
M  V30 2762 H 262.565 4.42058 -0.0611849 0
M  V30 2763 N 261.624 0.925811 1.2754 0
M  V30 2764 C 262.873 0.561084 1.93739 0
M  V30 2765 C 263.186 -0.901685 1.73577 0
M  V30 2766 O 264.392 -1.37511 2.34101 0
M  V30 2767 C 262.848 0.952668 3.47062 0
M  V30 2768 C 262.456 2.43599 3.75983 0
M  V30 2769 C 264.2 0.659103 4.19352 0
M  V30 2770 C 262.107 2.76707 5.22673 0
M  V30 2771 H 261.037 0.206122 0.725279 0
M  V30 2772 H 263.688 1.12637 1.44863 0
M  V30 2773 H 262.07 0.316053 3.94737 0
M  V30 2774 H 263.244 3.12035 3.39073 0
M  V30 2775 H 261.559 2.70125 3.16893 0
M  V30 2776 H 264.156 0.882985 5.27359 0
M  V30 2777 H 264.499 -0.403607 4.14339 0
M  V30 2778 H 265.032 1.25473 3.77494 0
M  V30 2779 H 261.771 3.8188 5.32774 0
M  V30 2780 H 261.291 2.12919 5.60737 0
M  V30 2781 H 262.97 2.6435 5.90532 0
M  V30 2782 N 263.102 -1.41638 0.69111 0
M  V30 2783 C 264.35 -2.00902 0.219758 0
M  V30 2784 C 264.671 -1.54994 -1.18329 0
M  V30 2785 O 263.941 -0.778628 -1.79762 0
M  V30 2786 H 262.521 -0.74289 0.0782558 0
M  V30 2787 H 265.183 -1.73327 0.891271 0
M  V30 2788 H 264.279 -3.11224 0.233708 0
M  V30 2789 N 264.58 -0.43555 -1.51462 0
M  V30 2790 C 265.826 0.131709 -2.02372 0
M  V30 2791 C 266.159 1.42516 -1.3192 0
M  V30 2792 O 265.434 1.89606 -0.433573 0
M  V30 2793 C 265.717 0.352301 -3.58373 0
M  V30 2794 C 265.57 -0.959676 -4.39443 0
M  V30 2795 C 266.889 1.12286 -4.25535 0
M  V30 2796 H 264.008 0.0463936 -0.735538 0
M  V30 2797 H 266.65 -0.574197 -1.81116 0
M  V30 2798 H 264.8 0.9536 -3.76615 0
M  V30 2799 H 266.472 -1.59482 -4.32855 0
M  V30 2800 H 264.715 -1.56468 -4.04599 0
M  V30 2801 H 265.386 -0.759394 -5.46752 0
M  V30 2802 H 267.862 0.613545 -4.11552 0
M  V30 2803 H 266.738 1.24598 -5.34571 0
M  V30 2804 H 266.999 2.15048 -3.86273 0
M  V30 2805 N 266.058 1.56714 -0.166846 0
M  V30 2806 C 266.99 2.14914 0.796537 0
M  V30 2807 C 268.003 1.10357 1.19688 0
M  V30 2808 O 269.192 1.37561 1.13751 0
M  V30 2809 C 266.292 2.67326 2.08303 0
M  V30 2810 C 265.465 3.96493 1.84696 0
M  V30 2811 C 264.524 4.34014 2.97521 0
M  V30 2812 O 263.55 5.01973 2.6835 0
M  V30 2813 N 264.752 3.95208 4.25196 0
M  V30 2814 H 267.517 2.98205 0.299006 0
M  V30 2815 H 265.078 1.61892 0.0160839 0
M  V30 2816 H 267.07 2.89428 2.82867 0
M  V30 2817 H 265.64 1.88649 2.4926 0
M  V30 2818 H 264.86 3.82814 0.940602 0
M  V30 2819 H 266.148 4.8086 1.66285 0
M  V30 2820 H 265.546 3.40487 4.51758 0
M  V30 2821 H 264.103 4.2232 4.96477 0
M  V30 2822 N 267.536 -0.106894 1.57237 0
M  V30 2823 C 268.764 -0.826389 1.8968 0
M  V30 2824 C 269.179 -1.72856 0.759353 0
M  V30 2825 O 268.536 -1.80503 -0.269263 0
M  V30 2826 C 268.587 -1.64967 3.21665 0
M  V30 2827 O 268.308 -0.783804 4.31031 0
M  V30 2828 C 269.809 -2.47326 3.67892 0
M  V30 2829 H 267.029 -0.236927 0.627779 0
M  V30 2830 H 269.573 -0.0876593 2.04312 0
M  V30 2831 H 267.728 -2.34103 3.08666 0
M  V30 2832 H 268.142 -1.35284 5.06753 0
M  V30 2833 H 269.616 -3.00604 4.6297 0
M  V30 2834 H 270.093 -3.25247 2.95146 0
M  V30 2835 H 270.699 -1.83411 3.83719 0
M  V30 2836 N 269.014 -1.53014 -0.377408 0
M  V30 2837 C 269.961 -1.78616 -1.46168 0
M  V30 2838 C 270.931 -0.629917 -1.53692 0
M  V30 2839 O 272.116 -0.870861 -1.69766 0
M  V30 2840 C 269.256 -1.97123 -2.8326 0
M  V30 2841 C 268.369 -3.24831 -2.84796 0
M  V30 2842 C 267.504 -3.33591 -4.13389 0
M  V30 2843 C 266.543 -4.55377 -4.09021 0
M  V30 2844 N 265.68 -4.61355 -5.29241 0
M  V30 2845 H 270.52 -2.71142 -1.23637 0
M  V30 2846 H 268.057 -1.34326 -0.599577 0
M  V30 2847 H 270.015 -2.05839 -3.62886 0
M  V30 2848 H 268.645 -1.07946 -3.04216 0
M  V30 2849 H 267.697 -3.25128 -1.97474 0
M  V30 2850 H 269.009 -4.14523 -2.77439 0
M  V30 2851 H 268.163 -3.41554 -5.01424 0
M  V30 2852 H 266.902 -2.41894 -4.23484 0
M  V30 2853 H 265.907 -4.47527 -3.19373 0
M  V30 2854 H 267.132 -5.48402 -4.00539 0
M  V30 2855 H 265.078 -3.72554 -5.39944 0
M  V30 2856 H 264.995 -5.44935 -5.24006 0
M  V30 2857 H 266.263 -4.73586 -6.19141 0
M  V30 2858 N 270.492 0.636531 -1.44174 0
M  V30 2859 C 271.424 1.7618 -1.46606 0
M  V30 2860 C 272.437 1.58768 -0.360091 0
M  V30 2861 O 273.626 1.67181 -0.625518 0
M  V30 2862 C 270.726 3.13833 -1.27915 0
M  V30 2863 C 269.899 3.57753 -2.51658 0
M  V30 2864 C 268.958 4.74265 -2.27945 0
M  V30 2865 O 267.984 4.82852 -3.01401 0
M  V30 2866 N 269.186 5.65604 -1.30662 0
M  V30 2867 H 271.951 1.74567 -2.43612 0
M  V30 2868 H 269.512 0.820924 -1.39544 0
M  V30 2869 H 271.504 3.8949 -1.09907 0
M  V30 2870 H 270.074 3.10121 -0.39293 0
M  V30 2871 H 269.294 2.72362 -2.84978 0
M  V30 2872 H 270.582 3.83847 -3.33974 0
M  V30 2873 H 269.98 5.61354 -0.699844 0
M  V30 2874 H 268.537 6.40913 -1.18634 0
M  V30 2875 N 271.97 1.30982 0.876444 0
M  V30 2876 C 273.381 1.18277 1.44456 0
M  V30 2877 C 273.732 -0.213265 1.95037 0
M  V30 2878 O 272.857 -1.11057 1.85729 0
M  V30 2879 C 273.452 2.1411 2.62569 0
M  V30 2880 C 272.011 2.05358 3.15444 0
M  V30 2881 C 271.158 2.03706 1.88146 0
M  V30 2882 H 274.109 1.43127 0.685584 0
M  V30 2883 H 274.13 1.72692 3.39054 0
M  V30 2884 H 273.642 3.15706 2.25724 0
M  V30 2885 H 271.743 1.06934 3.56926 0
M  V30 2886 H 271.856 2.94156 3.78166 0
M  V30 2887 H 270.22 1.48629 2.06837 0
M  V30 2888 H 271.003 3.07047 1.53547 0
M  V30 2889 N 273.449 -1.08991 1.13837 0
M  V30 2890 C 274.674 -1.85551 0.926585 0
M  V30 2891 C 275.099 -1.80782 -0.519566 0
M  V30 2892 O 274.457 -1.18855 -1.36906 0
M  V30 2893 C 274.505 -3.31266 1.42462 0
M  V30 2894 O 273.609 -4.07822 0.612789 0
M  V30 2895 H 272.95 -0.575192 0.331738 0
M  V30 2896 H 275.48 -1.37604 1.51414 0
M  V30 2897 H 275.49 -3.82112 1.43019 0
M  V30 2898 H 274.165 -3.34052 2.47754 0
M  V30 2899 H 272.742 -3.66731 0.675463 0
M  V30 2900 N 274.927 -0.932562 -1.27047 0
M  V30 2901 C 276.175 -0.574422 -1.93765 0
M  V30 2902 C 276.496 0.887993 -1.73608 0
M  V30 2903 O 275.766 1.62999 -1.08665 0
M  V30 2904 H 274.346 -0.209451 -0.717035 0
M  V30 2905 H 277.008 -1.18601 -1.5466 0
M  V30 2906 H 276.104 -0.784841 -3.02071 0
M  V30 2907 N 276.405 1.4127 -0.698611 0
M  V30 2908 C 277.633 2.05503 -0.239992 0
M  V30 2909 C 278.048 1.52584 1.11191 0
M  V30 2910 O 277.405 0.675323 1.69545 0
M  V30 2911 C 277.456 3.60987 -0.192429 0
M  V30 2912 O 277.177 4.1195 -1.49094 0
M  V30 2913 C 278.678 4.42371 0.28681 0
M  V30 2914 H 275.898 0.661748 -0.111045 0
M  V30 2915 H 278.442 1.80987 -0.95205 0
M  V30 2916 H 276.597 3.84533 0.470472 0
M  V30 2917 H 277.011 5.06018 -1.38007 0
M  V30 2918 H 278.485 5.51344 0.26896 0
M  V30 2919 H 278.962 4.18699 1.32619 0
M  V30 2920 H 279.568 4.23897 -0.345201 0
M  V30 2921 N 277.883 0.443576 1.51229 0
M  V30 2922 C 279.129 -0.120975 2.02439 0
M  V30 2923 C 279.462 -1.41815 1.32674 0
M  V30 2924 O 278.737 -1.89373 0.443622 0
M  V30 2925 C 279.02 -0.333291 3.58554 0
M  V30 2926 C 278.873 0.982968 4.38928 0
M  V30 2927 C 280.192 -1.10028 4.26124 0
M  V30 2928 H 277.311 -0.0424923 0.735774 0
M  V30 2929 H 279.953 0.583794 1.80809 0
M  V30 2930 H 278.103 -0.933614 3.77115 0
M  V30 2931 H 279.775 1.61775 4.32003 0
M  V30 2932 H 278.018 1.58611 4.03763 0
M  V30 2933 H 278.689 0.788379 5.46341 0
M  V30 2934 H 281.165 -0.591711 4.11871 0
M  V30 2935 H 280.041 -1.21761 5.35225 0
M  V30 2936 H 280.302 -2.12996 3.87408 0
M  V30 2937 N 279.361 -1.56624 0.175154 0
M  V30 2938 C 280.638 -1.88688 -0.515373 0
M  V30 2939 C 281.018 -1.08564 -1.81044 0
M  V30 2940 O 280.366 -0.180703 -2.27784 0
M  V30 2941 C 280.576 -3.40768 -0.753552 0
M  V30 2942 C 281.924 -4.10587 -1.08184 0
M  V30 2943 O 282.948 -3.46106 -0.841961 0
M  V30 2944 O 281.807 -5.24512 -1.53459 0
M  V30 2945 H 278.901 -0.78301 -0.26613 0
M  V30 2946 H 281.447 -1.68347 0.213877 0
M  V30 2947 H 280.219 -3.90965 0.161829 0
M  V30 2948 H 279.842 -3.66733 -1.53598 0
M  V30 2949 N 280.839 0.0985539 -1.57292 0
M  V30 2950 C 282.069 0.815135 -1.8984 0
M  V30 2951 C 282.477 1.7297 -0.766679 0
M  V30 2952 O 281.82 1.81698 0.270483 0
M  V30 2953 C 281.882 1.6842 -3.17608 0
M  V30 2954 C 281.546 0.94182 -4.4719 0
M  V30 2955 C 282.543 0.273212 -5.19182 0
M  V30 2956 C 280.228 0.916927 -4.9386 0
M  V30 2957 C 282.222 -0.410361 -6.36078 0
M  V30 2958 C 279.909 0.229567 -6.10669 0
M  V30 2959 C 280.907 -0.432902 -6.81627 0
M  V30 2960 O 280.595 -1.10925 -7.9621 0
M  V30 2961 H 280.327 0.238501 -0.632529 0
M  V30 2962 H 282.881 0.0812659 -2.05239 0
M  V30 2963 H 281.111 2.46022 -2.98345 0
M  V30 2964 H 282.8 2.27704 -3.36015 0
M  V30 2965 H 283.566 0.283927 -4.84168 0
M  V30 2966 H 279.445 1.42201 -4.3852 0
M  V30 2967 H 282.989 -0.928013 -6.914 0
M  V30 2968 H 278.886 0.216686 -6.45136 0
M  V30 2969 H 279.654 -1.01579 -8.12172 0
M  V30 2970 N 282.317 1.53212 0.369288 0
M  V30 2971 C 283.267 1.75769 1.45222 0
M  V30 2972 C 284.251 0.612136 1.48801 0
M  V30 2973 O 285.443 0.870674 1.54105 0
M  V30 2974 C 282.572 1.94769 2.82701 0
M  V30 2975 C 281.658 3.15315 2.83615 0
M  V30 2976 N 282.049 4.37295 2.54178 0
M  V30 2977 C 280.347 3.15962 3.14776 0
M  V30 2978 C 281.048 5.19015 2.62675 0
M  V30 2979 N 280.024 4.55142 2.97232 0
M  V30 2980 H 283.826 2.67691 1.2132 0
M  V30 2981 H 281.34 1.51787 0.577438 0
M  V30 2982 H 283.337 2.09056 3.60696 0
M  V30 2983 H 281.997 1.04073 3.07569 0
M  V30 2984 H 283.008 4.65091 2.27839 0
M  V30 2985 H 279.685 2.35144 3.44983 0
M  V30 2986 H 281.075 6.26305 2.43294 0
M  V30 2987 N 283.795 -0.628877 1.44509 0
M  V30 2988 C 284.758 -1.72263 1.51188 0
M  V30 2989 C 285.758 -1.55907 0.39367 0
M  V30 2990 O 286.948 -1.61361 0.656377 0
M  V30 2991 C 284.08 -3.11365 1.38798 0
M  V30 2992 H 285.273 -1.67714 2.4862 0
M  V30 2993 H 282.826 -0.842737 1.31634 0
M  V30 2994 H 283.561 -3.21507 0.424693 0
M  V30 2995 H 283.346 -3.24644 2.19884 0
M  V30 2996 H 284.836 -3.91075 1.46458 0
M  V30 2997 N 285.273 -1.31445 -0.869486 0
M  V30 2998 C 286.22 -1.19135 -1.97675 0
M  V30 2999 C 287.19 -0.0770266 -1.65921 0
M  V30 3000 O 288.375 -0.249972 -1.89155 0
M  V30 3001 C 285.515 -0.905149 -3.33018 0
M  V30 3002 C 284.628 -2.10285 -3.77365 0
M  V30 3003 C 283.763 -1.75339 -5.01427 0
M  V30 3004 C 282.802 -2.91515 -5.38224 0
M  V30 3005 N 281.939 -2.56762 -6.53466 0
M  V30 3006 H 286.779 -2.13853 -2.07535 0
M  V30 3007 H 284.316 -1.06379 -1.01597 0
M  V30 3008 H 286.274 -0.719765 -4.10944 0
M  V30 3009 H 284.904 0.00519624 -3.228 0
M  V30 3010 H 283.956 -2.39899 -2.95216 0
M  V30 3011 H 285.268 -2.97237 -4.00564 0
M  V30 3012 H 284.422 -1.53266 -5.87022 0
M  V30 3013 H 283.161 -0.855801 -4.80133 0
M  V30 3014 H 282.166 -3.14237 -4.51149 0
M  V30 3015 H 283.391 -3.81985 -5.61484 0
M  V30 3016 H 281.337 -1.69526 -6.33717 0
M  V30 3017 H 281.254 -3.37243 -6.76612 0
M  V30 3018 H 282.522 -2.38083 -7.42251 0
M  V30 3019 N 286.751 1.08385 -1.14413 0
M  V30 3020 C 287.681 2.17321 -0.854044 0
M  V30 3021 C 288.662 1.69024 0.191049 0
M  V30 3022 O 289.847 1.94141 0.0476779 0
M  V30 3023 C 286.977 3.45719 -0.330983 0
M  V30 3024 C 285.931 4.07409 -1.31155 0
M  V30 3025 C 285.257 5.30762 -0.64778 0
M  V30 3026 C 286.557 4.48665 -2.67388 0
M  V30 3027 H 288.251 2.41845 -1.76498 0
M  V30 3028 H 285.797 1.16233 -0.850051 0
M  V30 3029 H 287.75 4.21241 -0.115645 0
M  V30 3030 H 286.474 3.2075 0.615381 0
M  V30 3031 H 285.133 3.33919 -1.51306 0
M  V30 3032 H 284.781 5.02078 0.304398 0
M  V30 3033 H 284.481 5.72992 -1.30207 0
M  V30 3034 H 286.005 6.08998 -0.441972 0
M  V30 3035 H 287.419 5.15364 -2.51143 0
M  V30 3036 H 285.816 5.01814 -3.29093 0
M  V30 3037 H 286.886 3.60543 -3.24248 0
M  V30 3038 N 288.23 0.939286 1.26551 0
M  V30 3039 C 289.458 0.602536 1.97932 0
M  V30 3040 C 289.873 -0.82206 1.69964 0
M  V30 3041 O 289.23 -1.54789 0.966784 0
M  V30 3042 C 289.281 0.832946 3.51773 0
M  V30 3043 O 289.002 2.20151 3.78768 0
M  V30 3044 C 290.503 0.506483 4.40397 0
M  V30 3045 H 287.723 0.227248 0.631347 0
M  V30 3046 H 290.267 1.25948 1.61113 0
M  V30 3047 H 288.422 0.222644 3.8676 0
M  V30 3048 H 288.836 2.26013 4.73306 0
M  V30 3049 H 290.31 0.718333 5.47306 0
M  V30 3050 H 290.787 -0.558451 4.35635 0
M  V30 3051 H 291.393 1.09543 4.10951 0
M  V30 3052 N 289.708 -1.40897 0.706093 0
M  V30 3053 C 290.957 -2.00284 0.238574 0
M  V30 3054 C 291.27 -1.56604 -1.17194 0
M  V30 3055 O 292.476 -2.08624 -1.73748 0
M  V30 3056 C 290.932 -3.57934 0.375623 0
M  V30 3057 C 290.54 -4.10591 1.79217 0
M  V30 3058 C 292.284 -4.24488 -0.0315857 0
M  V30 3059 C 290.191 -5.60712 1.88032 0
M  V30 3060 H 289.121 -0.749144 0.0854398 0
M  V30 3061 H 291.772 -1.61251 0.875813 0
M  V30 3062 H 290.154 -3.94622 -0.330042 0
M  V30 3063 H 291.328 -3.85301 2.52745 0
M  V30 3064 H 289.643 -3.56601 2.15 0
M  V30 3065 H 292.24 -5.34698 0.0136842 0
M  V30 3066 H 292.583 -4.02261 -1.072 0
M  V30 3067 H 293.116 -3.92873 0.624181 0
M  V30 3068 H 289.855 -5.87781 2.90161 0
M  V30 3069 H 289.375 -5.87896 1.18903 0
M  V30 3070 H 291.054 -6.25658 1.64805 0
M  V30 3071 N 291.186 -0.45159 -1.50991 0
M  V30 3072 C 292.411 0.110667 -2.07105 0
M  V30 3073 C 292.836 1.3446 -1.31538 0
M  V30 3074 O 292.194 1.77743 -0.357365 0
M  V30 3075 C 292.242 0.397238 -3.58405 0
M  V30 3076 O 291.346 1.48124 -3.84881 0
M  V30 3077 H 290.687 -0.00439271 -0.663985 0
M  V30 3078 H 293.217 -0.637026 -1.9443 0
M  V30 3079 H 293.227 0.64351 -4.02893 0
M  V30 3080 H 291.902 -0.504553 -4.12828 0
M  V30 3081 H 290.479 1.22381 -3.52246 0
M  V30 3082 N 292.664 1.56529 -0.183458 0
M  V30 3083 C 293.904 1.99141 0.460667 0
M  V30 3084 C 294.268 1.06736 1.59597 0
M  V30 3085 O 295.469 1.38538 2.30349 0
M  V30 3086 C 293.74 3.45358 0.919939 0
M  V30 3087 S 295.299 4.09999 1.56354 0
M  V30 3088 H 292.117 0.695479 0.147748 0
M  V30 3089 H 294.719 1.93429 -0.283782 0
M  V30 3090 H 293.423 4.10315 0.0834208 0
M  V30 3091 H 292.954 3.54862 1.69814 0
M  V30 3092 H 294.969 4.06046 2.85203 0
M  V30 3093 N 294.142 -0.090211 1.57342 0
M  V30 3094 C 295.419 -0.824761 1.77361 0
M  V30 3095 C 295.799 -1.96698 0.76637 0
M  V30 3096 O 295.147 -2.27586 -0.204179 0
M  V30 3097 C 295.357 -1.31481 3.23286 0
M  V30 3098 C 296.705 -1.75563 3.86604 0
M  V30 3099 O 297.729 -1.41093 3.27065 0
M  V30 3100 O 296.588 -2.39317 4.91314 0
M  V30 3101 H 293.682 -0.393776 0.727234 0
M  V30 3102 H 296.228 -0.0717138 1.69548 0
M  V30 3103 H 295 -0.496671 3.88135 0
M  V30 3104 H 294.623 -2.12973 3.35751 0
M  V30 3105 N 295.62 -1.53406 -0.361157 0
M  V30 3106 C 296.868 -1.69467 -1.10115 0
M  V30 3107 C 297.189 -0.451352 -1.89705 0
M  V30 3108 O 296.459 0.534636 -1.88463 0
M  V30 3109 H 295.039 -0.624749 -0.409508 0
M  V30 3110 H 297.701 -1.90609 -0.406699 0
M  V30 3111 H 296.797 -2.55774 -1.78847 0
M  V30 3112 N 297.098 0.621204 -1.44841 0
M  V30 3113 C 298.347 1.37658 -1.47422 0
M  V30 3114 C 298.66 1.95264 -0.114629 0
M  V30 3115 O 299.866 2.71494 -0.0180199 0
M  V30 3116 C 298.322 2.49285 -2.59586 0
M  V30 3117 C 297.93 1.98149 -4.01797 0
M  V30 3118 C 299.674 3.26409 -2.71399 0
M  V30 3119 C 297.581 3.07178 -5.05367 0
M  V30 3120 H 296.511 0.517344 -0.548517 0
M  V30 3121 H 299.162 0.667257 -1.70938 0
M  V30 3122 H 297.544 3.22839 -2.29328 0
M  V30 3123 H 298.718 1.31395 -4.41669 0
M  V30 3124 H 297.033 1.33812 -3.94314 0
M  V30 3125 H 299.63 4.07706 -3.45948 0
M  V30 3126 H 299.973 3.76535 -1.77559 0
M  V30 3127 H 300.506 2.5995 -3.01116 0
M  V30 3128 H 297.245 2.61985 -6.00869 0
M  V30 3129 H 296.765 3.72542 -4.70077 0
M  V30 3130 H 298.444 3.71789 -5.29511 0
M  V30 3131 N 298.576 1.31904 0.862503 0
M  V30 3132 C 299.806 1.24817 1.64634 0
M  V30 3133 C 300.214 -0.187579 1.88268 0
M  V30 3134 O 299.557 -1.13253 1.44635 0
M  V30 3135 C 299.619 1.92996 3.03303 0
M  V30 3136 C 299.283 3.42336 3.02746 0
M  V30 3137 C 300.28 4.37956 2.80162 0
M  V30 3138 C 297.965 3.84147 3.2363 0
M  V30 3139 C 299.959 5.73361 2.78453 0
M  V30 3140 C 297.646 5.19663 3.21549 0
M  V30 3141 C 298.644 6.14081 2.98988 0
M  V30 3142 O 298.332 7.47118 2.96766 0
M  V30 3143 H 298.064 0.432222 0.519769 0
M  V30 3144 H 300.618 1.7445 1.08427 0
M  V30 3145 H 298.848 1.37922 3.61268 0
M  V30 3146 H 300.537 1.79723 3.63943 0
M  V30 3147 H 301.303 4.06981 2.63802 0
M  V30 3148 H 297.182 3.11083 3.40218 0
M  V30 3149 H 300.726 6.4703 2.60763 0
M  V30 3150 H 296.623 5.5027 3.37451 0
M  V30 3151 H 297.391 7.56382 3.12775 0
M  V30 3152 N 300.054 -1.07777 1.14986 0
M  V30 3153 C 301.279 -1.84558 0.946213 0
M  V30 3154 C 301.704 -1.81323 -0.500362 0
M  V30 3155 O 301.062 -1.20301 -1.35637 0
M  V30 3156 C 301.11 -3.29736 1.45968 0
M  V30 3157 O 300.214 -4.07149 0.65601 0
M  V30 3158 H 299.555 -0.571641 0.33782 0
M  V30 3159 H 302.085 -1.35991 1.52865 0
M  V30 3160 H 302.095 -3.80574 1.47063 0
M  V30 3161 H 300.77 -3.31406 2.51283 0
M  V30 3162 H 299.347 -3.65994 0.714322 0
M  V30 3163 N 301.532 -0.945985 -1.26051 0
M  V30 3164 C 302.479 -0.45809 -2.26208 0
M  V30 3165 C 303.449 0.484816 -1.58867 0
M  V30 3166 O 304.634 0.399969 -1.86561 0
M  V30 3167 C 301.774 0.266131 -3.44072 0
M  V30 3168 C 300.887 -0.713005 -4.26075 0
M  V30 3169 C 300.022 0.0329013 -5.3119 0
M  V30 3170 C 299.061 -0.93774 -6.04874 0
M  V30 3171 N 298.198 -0.223274 -7.01745 0
M  V30 3172 H 303.038 -1.3171 -2.67313 0
M  V30 3173 H 300.575 -0.66069 -1.31428 0
M  V30 3174 H 302.533 0.702514 -4.11243 0
M  V30 3175 H 301.163 1.08925 -3.03867 0
M  V30 3176 H 300.215 -1.26789 -3.58648 0
M  V30 3177 H 301.527 -1.45406 -4.77136 0
M  V30 3178 H 300.681 0.528335 -6.04395 0
M  V30 3179 H 299.42 0.806801 -4.8098 0
M  V30 3180 H 298.425 -1.44425 -5.30492 0
M  V30 3181 H 299.65 -1.71172 -6.57173 0
M  V30 3182 H 297.596 0.532046 -6.53839 0
M  V30 3183 H 297.513 -0.90357 -7.50581 0
M  V30 3184 H 298.781 0.250907 -7.79096 0
M  V30 3185 N 303.011 1.40521 -0.713556 0
M  V30 3186 C 304.258 2.00923 -0.25219 0
M  V30 3187 C 304.586 1.56571 1.15395 0
M  V30 3188 O 303.841 0.775874 1.79663 0
M  V30 3189 C 304.14 3.56317 -0.278 0
M  V30 3190 C 303.806 4.20246 -1.63415 0
M  V30 3191 C 302.468 4.37422 -2.00538 0
M  V30 3192 C 304.82 4.55923 -2.52554 0
M  V30 3193 C 302.148 4.87558 -3.2635 0
M  V30 3194 C 304.5 5.07458 -3.77716 0
M  V30 3195 C 303.164 5.22843 -4.14959 0
M  V30 3196 H 302.434 0.735231 -0.0922829 0
M  V30 3197 H 305.081 1.68161 -0.916188 0
M  V30 3198 H 303.386 3.88976 0.469567 0
M  V30 3199 H 305.083 4.00883 0.0967819 0
M  V30 3200 H 301.673 4.07263 -1.33546 0
M  V30 3201 H 305.857 4.42291 -2.25149 0
M  V30 3202 H 301.113 4.97654 -3.55176 0
M  V30 3203 H 305.287 5.34041 -4.4696 0
M  V30 3204 H 302.914 5.61454 -5.12516 0
M  V30 3205 N 304.489 0.459591 1.5075 0
M  V30 3206 C 305.905 0.113092 1.59199 0
M  V30 3207 C 306.105 -1.37951 1.46874 0
M  V30 3208 O 305.161 -2.15168 1.32132 0
M  V30 3209 C 306.474 0.653043 2.93523 0
M  V30 3210 C 308.022 0.615449 3.0689 0
M  V30 3211 C 308.497 1.13275 4.43771 0
M  V30 3212 N 309.988 1.09167 4.50152 0
M  V30 3213 C 310.723 1.46256 5.54434 0
M  V30 3214 N 310.219 1.90739 6.66026 0
M  V30 3215 N 312.012 1.37932 5.44914 0
M  V30 3216 H 304.163 1.43049 1.57005 0
M  V30 3217 H 306.426 0.590861 0.741341 0
M  V30 3218 H 306.132 1.69822 3.07983 0
M  V30 3219 H 306.006 0.0902132 3.77092 0
M  V30 3220 H 308.393 -0.420793 2.92084 0
M  V30 3221 H 308.474 1.21495 2.25106 0
M  V30 3222 H 308.118 2.16757 4.59324 0
M  V30 3223 H 308.048 0.509576 5.24129 0
M  V30 3224 H 310.539 0.76528 3.7007 0
M  V30 3225 H 310.852 2.17218 7.41644 0
M  V30 3226 H 309.197 1.94683 6.67176 0
M  V30 3227 H 312.388 1.0303 4.56621 0
M  V30 3228 H 312.561 1.67164 6.26067 0
M  V30 3229 N 305.967 -1.56429 0.191757 0
M  V30 3230 C 306.914 -2.18936 -0.730454 0
M  V30 3231 C 307.884 -1.13557 -1.21219 0
M  V30 3232 O 309.069 -1.41794 -1.27668 0
M  V30 3233 C 306.209 -2.85013 -1.9458 0
M  V30 3234 C 305.322 -4.04909 -1.50574 0
M  V30 3235 C 304.457 -4.58853 -2.67634 0
M  V30 3236 C 303.496 -5.71114 -2.20217 0
M  V30 3237 N 302.633 -6.19478 -3.30442 0
M  V30 3238 H 307.473 -2.97389 -0.190664 0
M  V30 3239 H 305.01 -1.46869 -0.0823694 0
M  V30 3240 H 306.968 -3.21492 -2.65893 0
M  V30 3241 H 305.598 -2.09129 -2.45896 0
M  V30 3242 H 304.65 -3.74115 -0.688605 0
M  V30 3243 H 305.962 -4.86113 -1.11784 0
M  V30 3244 H 305.116 -4.97619 -3.47074 0
M  V30 3245 H 303.855 -3.76749 -3.09696 0
M  V30 3246 H 302.86 -5.31879 -1.3923 0
M  V30 3247 H 304.085 -6.55033 -1.79189 0
M  V30 3248 H 302.031 -5.40297 -3.72041 0
M  V30 3249 H 301.948 -6.95725 -2.9581 0
M  V30 3250 H 303.216 -6.62898 -4.10106 0
M  V30 3251 N 307.445 0.0818655 -1.57387 0
M  V30 3252 C 308.355 1.11642 -2.06333 0
M  V30 3253 C 309.371 1.43033 -0.99083 0
M  V30 3254 O 310.547 1.53411 -1.30488 0
M  V30 3255 C 307.612 2.41342 -2.48907 0
M  V30 3256 C 306.673 2.17014 -3.7041 0
M  V30 3257 C 305.906 3.4053 -4.10944 0
M  V30 3258 O 306.129 4.4927 -3.51444 0
M  V30 3259 O 305.063 3.29336 -5.03807 0
M  V30 3260 H 308.889 0.730657 -2.9478 0
M  V30 3261 H 306.474 0.295301 -1.46452 0
M  V30 3262 H 308.356 3.17691 -2.76858 0
M  V30 3263 H 307.031 2.79319 -1.63593 0
M  V30 3264 H 305.938 1.38403 -3.47556 0
M  V30 3265 H 307.271 1.83923 -4.56545 0
M  V30 3266 N 308.923 1.53595 0.353017 0
M  V30 3267 C 309.853 1.83902 1.43883 0
M  V30 3268 C 310.834 0.693421 1.55324 0
M  V30 3269 O 312.019 0.944452 1.69687 0
M  V30 3270 C 309.149 2.04016 2.8106 0
M  V30 3271 C 308.103 3.19814 2.84434 0
M  V30 3272 C 307.429 3.25244 4.24406 0
M  V30 3273 C 308.729 4.58133 2.50822 0
M  V30 3274 H 310.423 2.74835 1.1877 0
M  V30 3275 H 307.969 1.32242 0.569917 0
M  V30 3276 H 309.922 2.238 3.57059 0
M  V30 3277 H 308.646 1.09804 3.07588 0
M  V30 3278 H 307.305 2.9987 2.10887 0
M  V30 3279 H 306.953 2.28646 4.48029 0
M  V30 3280 H 306.653 4.03054 4.27576 0
M  V30 3281 H 308.177 3.47228 5.0226 0
M  V30 3282 H 309.591 4.77995 3.16534 0
M  V30 3283 H 307.988 5.38276 2.6529 0
M  V30 3284 H 309.058 4.62387 1.46034 0
M  V30 3285 N 310.401 -0.613514 1.45168 0
M  V30 3286 C 311.626 -1.40437 1.52618 0
M  V30 3287 C 312.051 -1.87438 0.157707 0
M  V30 3288 O 311.409 -1.59791 -0.856537 0
M  V30 3289 C 311.457 -2.58894 2.51011 0
M  V30 3290 O 310.561 -3.59326 2.02382 0
M  V30 3291 H 309.902 -0.419506 0.514695 0
M  V30 3292 H 312.432 -0.747215 1.90467 0
M  V30 3293 H 312.442 -3.06214 2.69624 0
M  V30 3294 H 311.117 -2.24032 3.50403 0
M  V30 3295 H 309.694 -3.18695 1.93618 0
M  V30 3296 N 311.879 -1.3236 -0.855495 0
M  V30 3297 C 313.29 -1.2056 -1.42556 0
M  V30 3298 C 313.641 0.182209 -1.95352 0
M  V30 3299 O 312.766 1.08088 -1.87472 0
M  V30 3300 C 313.361 -2.1826 -2.59129 0
M  V30 3301 C 311.92 -2.10351 -3.12137 0
M  V30 3302 C 311.067 -2.06674 -1.84882 0
M  V30 3303 H 314.018 -1.442 -0.662727 0
M  V30 3304 H 314.039 -1.78064 -3.36264 0
M  V30 3305 H 313.551 -3.19257 -2.20673 0
M  V30 3306 H 311.652 -1.12599 -3.55179 0
M  V30 3307 H 311.765 -3.00135 -3.73438 0
M  V30 3308 H 310.129 -1.51901 -2.04446 0
M  V30 3309 H 310.912 -3.09451 -1.48643 0
M  V30 3310 N 313.357 1.07166 -1.15556 0
M  V30 3311 C 314.585 1.83514 -0.955519 0
M  V30 3312 C 315 1.82163 0.49621 0
M  V30 3313 O 314.357 1.23441 1.34419 0
M  V30 3314 C 314.408 3.30515 -1.46432 0
M  V30 3315 O 314.129 3.31937 -2.85918 0
M  V30 3316 C 315.63 4.23625 -1.30603 0
M  V30 3317 H 312.85 0.578926 -0.339244 0
M  V30 3318 H 315.394 1.35265 -1.53374 0
M  V30 3319 H 313.549 3.76106 -0.928584 0
M  V30 3320 H 313.963 4.23794 -3.09029 0
M  V30 3321 H 315.437 5.24831 -1.71047 0
M  V30 3322 H 315.914 4.38485 -0.250441 0
M  V30 3323 H 316.52 3.83871 -1.83094 0
M  V30 3324 N 314.835 0.952656 1.25548 0
M  V30 3325 C 315.783 0.462354 2.27958 0
M  V30 3326 C 316.777 -0.46634 1.62855 0
M  V30 3327 O 317.983 -0.343287 1.76696 0
M  V30 3328 H 314.358 0.13101 0.7405 0
M  V30 3329 H 316.329 1.33839 2.66702 0
M  V30 3330 C 315.078 -0.24628 3.46827 0
M  V30 3331 H 314.401 0.459192 3.97154 0
M  V30 3332 H 315.841 -0.553393 4.20373 0
M  V30 3333 C 314.3 -1.4681 3.0323 0
M  V30 3334 O 314.83 -2.56591 3.09069 0
M  V30 3335 N 313.036 -1.32874 2.58443 0
M  V30 3336 H 312.583 -0.435536 2.53891 0
M  V30 3337 H 312.541 -2.14742 2.29637 0
M  V30 3338 N 316.313 -1.40141 0.720998 0
M  V30 3339 C 317.559 -2.01084 0.263231 0
M  V30 3340 C 317.892 -1.57052 -1.14229 0
M  V30 3341 O 317.167 -0.793027 -1.77599 0
M  V30 3342 C 317.45 -3.58401 0.349344 0
M  V30 3343 C 317.303 -4.12491 1.79363 0
M  V30 3344 C 318.622 -4.39231 -0.276351 0
M  V30 3345 H 315.741 -0.730572 0.0971228 0
M  V30 3346 H 318.383 -1.66543 0.914518 0
M  V30 3347 H 316.533 -3.87958 -0.205165 0
M  V30 3348 H 318.205 -3.93711 2.40394 0
M  V30 3349 H 316.448 -3.66576 2.31958 0
M  V30 3350 H 317.119 -5.21646 1.80524 0
M  V30 3351 H 319.595 -4.15637 0.196184 0
M  V30 3352 H 318.471 -5.48586 -0.185681 0
M  V30 3353 H 318.732 -4.20643 -1.36059 0
M  V30 3354 N 317.792 -0.46758 -1.50504 0
M  V30 3355 C 319.203 -0.0116166 -1.86696 0
M  V30 3356 C 319.554 1.39202 -1.38265 0
M  V30 3357 O 318.679 2.0313 -0.746132 0
M  V30 3358 C 319.274 -0.0143044 -3.38797 0
M  V30 3359 C 317.833 0.386175 -3.74414 0
M  V30 3360 C 316.98 -0.401287 -2.74381 0
M  V30 3361 H 319.931 -0.682022 -1.43297 0
M  V30 3362 H 319.952 0.788641 -3.72237 0
M  V30 3363 H 319.464 -1.03602 -3.74016 0
M  V30 3364 H 317.565 1.41237 -3.44794 0
M  V30 3365 H 317.678 0.0899596 -4.79016 0
M  V30 3366 H 316.042 0.144536 -2.5429 0
M  V30 3367 H 316.825 -1.42244 -3.12444 0
M  V30 3368 N 319.27 1.56325 -0.20005 0
M  V30 3369 C 320.498 2.02105 0.442874 0
M  V30 3370 C 320.913 1.08014 1.5485 0
M  V30 3371 O 320.27 0.0858797 1.82298 0
M  V30 3372 C 320.321 3.47549 0.994583 0
M  V30 3373 O 320.042 4.38049 -0.0669322 0
M  V30 3374 C 321.543 4.0887 1.7129 0
M  V30 3375 H 318.763 0.661807 0.110691 0
M  V30 3376 H 321.307 2.02134 -0.310207 0
M  V30 3377 H 319.462 3.48204 1.69803 0
M  V30 3378 H 319.876 5.23368 0.344462 0
M  V30 3379 H 321.35 5.12475 2.05118 0
M  V30 3380 H 321.827 3.52615 2.61838 0
M  V30 3381 H 322.433 4.12002 1.05518 0
M  V30 3382 N 320.748 -0.0735177 1.57428 0
M  V30 3383 C 321.997 -0.771809 1.86349 0
M  V30 3384 C 322.31 -1.78828 0.792452 0
M  V30 3385 O 323.516 -2.53602 0.96945 0
M  V30 3386 C 321.972 -1.42358 3.30548 0
M  V30 3387 C 321.58 -0.445761 4.45777 0
M  V30 3388 C 323.324 -2.10434 3.6867 0
M  V30 3389 C 321.231 -1.10335 5.81016 0
M  V30 3390 H 320.161 -0.291999 0.695164 0
M  V30 3391 H 322.812 -0.0250749 1.83483 0
M  V30 3392 H 321.194 -2.21852 3.28021 0
M  V30 3393 H 322.368 0.319239 4.59693 0
M  V30 3394 H 320.683 0.130457 4.16196 0
M  V30 3395 H 323.28 -2.60405 4.67004 0
M  V30 3396 H 323.623 -2.90298 2.98383 0
M  V30 3397 H 324.156 -1.37773 3.7318 0
M  V30 3398 H 320.895 -0.345061 6.54591 0
M  V30 3399 H 320.415 -1.83925 5.70904 0
M  V30 3400 H 322.094 -1.62367 6.26295 0
M  V30 3401 N 322.226 -1.5378 -0.344866 0
M  V30 3402 C 323.474 -1.70625 -1.08311 0
M  V30 3403 C 323.795 -0.471447 -1.89215 0
M  V30 3404 O 323.065 0.514616 -1.8902 0
M  V30 3405 H 321.645 -0.629058 -0.402859 0
M  V30 3406 H 324.307 -1.9103 -0.386459 0
M  V30 3407 H 323.403 -2.57656 -1.76124 0
M  V30 3408 N 323.704 0.605807 -1.45491 0
M  V30 3409 C 324.929 1.39625 -1.53361 0
M  V30 3410 C 325.354 1.87351 -0.167645 0
M  V30 3411 O 324.712 1.60243 0.848051 0
M  V30 3412 C 324.76 2.57559 -2.5238 0
M  V30 3413 O 323.864 3.58248 -2.04285 0
M  V30 3414 H 323.205 0.416771 -0.516912 0
M  V30 3415 H 325.735 0.737103 -1.90861 0
M  V30 3416 H 325.745 3.0478 -2.71244 0
M  V30 3417 H 324.42 2.22171 -3.51586 0
M  V30 3418 H 322.997 3.17664 -1.95305 0
M  V30 3419 N 325.182 1.32811 0.848464 0
M  V30 3420 C 326.412 1.26556 1.63301 0
M  V30 3421 C 326.82 -0.1676 1.88456 0
M  V30 3422 O 326.163 -1.11713 1.45828 0
M  V30 3423 C 326.225 1.96202 3.01239 0
M  V30 3424 C 325.889 3.45528 2.99098 0
M  V30 3425 C 326.886 4.40903 2.75501 0
M  V30 3426 C 324.571 3.87558 3.19537 0
M  V30 3427 C 326.565 5.76282 2.72356 0
M  V30 3428 C 324.252 5.23044 3.16019 0
M  V30 3429 C 325.25 6.17217 2.92458 0
M  V30 3430 O 324.938 7.50223 2.88825 0
M  V30 3431 H 324.67 0.43771 0.515156 0
M  V30 3432 H 327.224 1.7559 1.0657 0
M  V30 3433 H 325.454 1.41746 3.59785 0
M  V30 3434 H 327.143 1.83573 3.62016 0
M  V30 3435 H 327.909 4.09756 2.5947 0
M  V30 3436 H 323.788 3.14674 3.369 0
M  V30 3437 H 327.332 6.4976 2.53886 0
M  V30 3438 H 323.229 5.53818 3.31596 0
M  V30 3439 H 323.997 7.59657 3.04735 0
M  V30 3440 N 326.66 -1.06551 1.16123 0
M  V30 3441 C 327.907 -1.79302 0.941126 0
M  V30 3442 C 328.235 -1.87105 -0.531235 0
M  V30 3443 O 327.49 -1.35692 -1.41018 0
M  V30 3444 C 327.789 -3.23911 1.51052 0
M  V30 3445 C 327.455 -3.36193 3.00475 0
M  V30 3446 C 326.117 -3.39252 3.41265 0
M  V30 3447 C 328.469 -3.38326 3.96465 0
M  V30 3448 C 325.797 -3.42057 4.76669 0
M  V30 3449 C 328.149 -3.4267 5.31752 0
M  V30 3450 C 326.813 -3.4401 5.72026 0
M  V30 3451 H 326.083 -0.656111 0.344382 0
M  V30 3452 H 328.73 -1.25325 1.44796 0
M  V30 3453 H 327.035 -3.80723 0.925063 0
M  V30 3454 H 328.732 -3.78793 1.31593 0
M  V30 3455 H 325.322 -3.34516 2.6795 0
M  V30 3456 H 329.506 -3.35176 3.6602 0
M  V30 3457 H 324.762 -3.41398 5.07206 0
M  V30 3458 H 328.936 -3.43268 6.05921 0
M  V30 3459 H 326.563 -3.45937 6.76928 0
M  V30 3460 N 328.138 -0.959301 -1.25041 0
M  V30 3461 C 329.387 -0.612254 -1.92183 0
M  V30 3462 C 329.7 0.855347 -1.75907 0
M  V30 3463 O 330.906 1.31256 -2.37664 0
M  V30 3464 C 329.362 -1.04435 -3.44414 0
M  V30 3465 C 328.97 -2.53482 -3.69393 0
M  V30 3466 C 330.714 -0.770055 -4.17457 0
M  V30 3467 C 328.621 -2.90468 -5.15153 0
M  V30 3468 H 327.551 -0.225279 -0.719559 0
M  V30 3469 H 330.202 -1.16438 -1.41825 0
M  V30 3470 H 328.584 -0.4206 -3.9376 0
M  V30 3471 H 329.758 -3.20916 -3.30681 0
M  V30 3472 H 328.073 -2.78432 -3.0962 0
M  V30 3473 H 330.67 -1.02249 -5.24832 0
M  V30 3474 H 331.013 0.293611 -4.15263 0
M  V30 3475 H 331.546 -1.35437 -3.74034 0
M  V30 3476 H 328.285 -3.95871 -5.22462 0
M  V30 3477 H 327.805 -2.27711 -5.54894 0
M  V30 3478 H 329.484 -2.79914 -5.83315 0
M  V30 3479 N 329.616 1.39756 -0.72842 0
M  V30 3480 C 330.864 2.00248 -0.272946 0
M  V30 3481 C 331.185 1.58077 1.14178 0
M  V30 3482 O 330.455 0.826014 1.77634 0
M  V30 3483 H 329.035 0.740554 -0.0979247 0
M  V30 3484 H 331.697 1.70903 -0.936912 0
M  V30 3485 H 330.793 3.10495 -0.316142 0
M  V30 3486 N 331.094 0.475555 1.50254 0
M  V30 3487 C 332.024 -0.30611 2.31485 0
M  V30 3488 C 333.005 -0.986228 1.38591 0
M  V30 3489 O 334.19 -0.982541 1.67511 0
M  V30 3490 C 331.32 -1.38588 3.1845 0
M  V30 3491 C 330.274 -0.827115 4.19932 0
M  V30 3492 C 329.6 -2.00551 4.95665 0
M  V30 3493 C 330.9 0.16463 5.2204 0
M  V30 3494 H 332.594 0.371866 2.97082 0
M  V30 3495 H 330.14 0.180282 1.42867 0
M  V30 3496 H 332.093 -1.94023 3.74076 0
M  V30 3497 H 330.817 -2.09269 2.50747 0
M  V30 3498 H 329.476 -0.294702 3.65414 0
M  V30 3499 H 329.124 -2.6994 4.2443 0
M  V30 3500 H 328.824 -1.63784 5.64313 0
M  V30 3501 H 330.348 -2.56468 5.54127 0
M  V30 3502 H 331.762 -0.300699 5.72511 0
M  V30 3503 H 330.159 0.446813 5.98434 0
M  V30 3504 H 331.229 1.08905 4.72512 0
M  V30 3505 N 332.573 -1.56217 0.208337 0
M  V30 3506 C 333.803 -2.02043 -0.431523 0
M  V30 3507 C 334.211 -1.08755 -1.54819 0
M  V30 3508 O 333.554 -0.0870009 -1.83494 0
M  V30 3509 C 333.616 -3.44239 -1.03633 0
M  V30 3510 C 333.28 -4.56965 -0.0567502 0
M  V30 3511 C 334.277 -5.14624 0.738773 0
M  V30 3512 C 331.962 -5.02266 0.0581736 0
M  V30 3513 C 333.956 -6.16045 1.63605 0
M  V30 3514 C 331.643 -6.03528 0.959001 0
M  V30 3515 C 332.641 -6.60293 1.7465 0
M  V30 3516 O 332.329 -7.59586 2.6322 0
M  V30 3517 H 332.061 -0.666772 -0.111313 0
M  V30 3518 H 334.615 -2.02919 0.318277 0
M  V30 3519 H 332.845 -3.40391 -1.83497 0
M  V30 3520 H 334.534 -3.73793 -1.58221 0
M  V30 3521 H 335.3 -4.80483 0.660364 0
M  V30 3522 H 331.179 -4.57771 -0.544633 0
M  V30 3523 H 334.723 -6.60279 2.25116 0
M  V30 3524 H 330.62 -6.37092 1.03848 0
M  V30 3525 H 331.388 -7.77057 2.57148 0
M  V30 3526 N 334.051 0.0651679 -1.57465 0
M  V30 3527 C 334.981 1.07693 -2.07182 0
M  V30 3528 C 335.962 1.39962 -0.966673 0
M  V30 3529 O 337.147 1.49475 -1.2398 0
M  V30 3530 C 334.277 2.3885 -2.52127 0
M  V30 3531 C 333.231 2.20917 -3.66579 0
M  V30 3532 C 332.557 3.57515 -3.97601 0
M  V30 3533 C 333.857 1.62493 -4.9638 0
M  V30 3534 H 335.551 0.663199 -2.91962 0
M  V30 3535 H 333.097 0.317569 -1.40455 0
M  V30 3536 H 335.05 3.09928 -2.85522 0
M  V30 3537 H 333.774 2.82215 -1.64384 0
M  V30 3538 H 332.433 1.52279 -3.33477 0
M  V30 3539 H 332.081 3.98463 -3.06979 0
M  V30 3540 H 331.781 3.46353 -4.74672 0
M  V30 3541 H 333.305 4.30013 -4.33499 0
M  V30 3542 H 334.719 2.23445 -5.27963 0
M  V30 3543 H 333.116 1.62009 -5.77818 0
M  V30 3544 H 334.186 0.587041 -4.81333 0
M  V30 3545 N 335.529 1.53961 0.336706 0
M  V30 3546 C 336.476 1.82428 1.41381 0
M  V30 3547 C 337.446 0.670444 1.51968 0
M  V30 3548 O 338.631 0.915565 1.67398 0
M  V30 3549 C 335.771 2.04564 2.77934 0
M  V30 3550 C 334.884 3.32267 2.76084 0
M  V30 3551 C 334.019 3.44434 4.04399 0
M  V30 3552 C 333.058 4.66061 3.96804 0
M  V30 3553 N 332.195 4.75224 5.16823 0
M  V30 3554 H 337.035 2.74324 1.16405 0
M  V30 3555 H 334.572 1.35869 0.563752 0
M  V30 3556 H 336.53 2.15388 3.57301 0
M  V30 3557 H 335.16 1.15974 3.01247 0
M  V30 3558 H 334.212 3.3025 1.88784 0
M  V30 3559 H 335.524 4.21733 2.66351 0
M  V30 3560 H 334.678 3.54728 4.92192 0
M  V30 3561 H 333.417 2.53037 4.16921 0
M  V30 3562 H 332.422 4.55838 3.07396 0
M  V30 3563 H 333.647 5.58829 3.85858 0
M  V30 3564 H 331.593 3.86739 5.29876 0
M  V30 3565 H 331.51 5.58636 5.09374 0
M  V30 3566 H 332.778 4.89835 6.06367 0
M  V30 3567 N 337.007 -0.598083 1.45811 0
M  V30 3568 C 337.955 -1.72932 1.55555 0
M  V30 3569 C 338.949 -1.63984 0.424921 0
M  V30 3570 O 340.155 -1.69663 0.601205 0
M  V30 3571 H 336.53 -0.571489 0.488779 0
M  V30 3572 H 338.501 -1.61842 2.50699 0
M  V30 3573 C 337.25 -3.11318 1.54843 0
M  V30 3574 H 336.573 -3.18867 2.41172 0
M  V30 3575 H 338.013 -3.90274 1.65717 0
M  V30 3576 C 336.472 -3.3578 0.274427 0
M  V30 3577 O 337.002 -3.9654 -0.641778 0
M  V30 3578 N 335.208 -2.90119 0.167139 0
M  V30 3579 H 334.755 -2.40855 0.913596 0
M  V30 3580 H 334.713 -3.0686 -0.684435 0
M  V30 3581 N 338.485 -1.33259 -0.841409 0
M  V30 3582 C 339.448 -1.23221 -1.9326 0
M  V30 3583 C 340.448 -0.151895 -1.60081 0
M  V30 3584 O 341.638 -0.403246 -1.69468 0
M  V30 3585 C 338.77 -0.898123 -3.28856 0
M  V30 3586 H 339.963 -2.2021 -2.03587 0
M  V30 3587 H 337.516 -1.17281 -1.03319 0
M  V30 3588 H 338.251 0.0693841 -3.24226 0
M  V30 3589 H 338.036 -1.67934 -3.54317 0
M  V30 3590 H 339.526 -0.852563 -4.08805 0
M  V30 3591 N 339.963 1.05934 -1.16686 0
M  V30 3592 C 340.873 2.17014 -0.891183 0
M  V30 3593 C 341.889 1.73453 0.137907 0
M  V30 3594 O 343.065 2.01361 -0.039592 0
M  V30 3595 C 340.13 3.44384 -0.400099 0
M  V30 3596 C 339.191 4.02433 -1.49486 0
M  V30 3597 C 338.424 5.23723 -1.02711 0
M  V30 3598 O 338.647 5.7027 0.121716 0
M  V30 3599 O 337.581 5.7382 -1.81699 0
M  V30 3600 H 341.407 2.43113 -1.82015 0
M  V30 3601 H 338.992 1.15541 -0.947132 0
M  V30 3602 H 340.874 4.21189 -0.133392 0
M  V30 3603 H 339.549 3.19802 0.500817 0
M  V30 3604 H 338.456 3.27102 -1.81535 0
M  V30 3605 H 339.789 4.31317 -2.37121 0
M  V30 3606 N 341.441 0.965919 1.2453 0
M  V30 3607 C 342.371 0.513476 2.27784 0
M  V30 3608 C 343.352 -0.445974 1.6415 0
M  V30 3609 O 344.537 -0.342485 1.91156 0
M  V30 3610 C 341.667 -0.198839 3.4673 0
M  V30 3611 C 340.621 0.676456 4.2262 0
M  V30 3612 C 339.947 -0.167248 5.34438 0
M  V30 3613 C 341.247 1.96017 4.84123 0
M  V30 3614 H 342.941 1.3765 2.65881 0
M  V30 3615 H 340.487 0.663321 1.27813 0
M  V30 3616 H 342.44 -0.526567 4.18097 0
M  V30 3617 H 341.164 -1.0962 3.07654 0
M  V30 3618 H 339.823 0.98743 3.53052 0
M  V30 3619 H 339.471 -1.0647 4.91603 0
M  V30 3620 H 339.171 0.415181 5.86131 0
M  V30 3621 H 340.695 -0.489688 6.08633 0
M  V30 3622 H 342.109 1.69814 5.47573 0
M  V30 3623 H 340.506 2.48918 5.4604 0
M  V30 3624 H 341.576 2.65622 4.05676 0
M  V30 3625 N 342.919 -1.39368 0.735821 0
M  V30 3626 C 344.33 -1.83313 0.354015 0
M  V30 3627 C 344.681 -1.61461 -1.11466 0
M  V30 3628 O 343.806 -1.10621 -1.85989 0
M  V30 3629 C 344.401 -3.32781 0.635769 0
M  V30 3630 C 342.96 -3.75142 0.307448 0
M  V30 3631 C 342.107 -2.62358 0.897974 0
M  V30 3632 H 345.058 -1.28349 0.933398 0
M  V30 3633 H 345.079 -3.80388 -0.0921773 0
M  V30 3634 H 344.591 -3.48654 1.70476 0
M  V30 3635 H 342.692 -3.64857 -0.755674 0
M  V30 3636 H 342.805 -4.72532 0.790583 0
M  V30 3637 H 341.169 -2.52624 0.324551 0
M  V30 3638 H 341.952 -2.81036 1.97164 0
M  V30 3639 N 344.397 -0.483516 -1.5 0
M  V30 3640 C 345.36 0.292965 -2.2732 0
M  V30 3641 C 346.36 0.909499 -1.32608 0
M  V30 3642 O 347.55 0.776745 -1.55924 0
M  V30 3643 C 344.682 1.41854 -3.09984 0
M  V30 3644 H 345.875 -0.385289 -2.97415 0
M  V30 3645 H 343.428 -0.237942 -1.54478 0
M  V30 3646 H 344.163 2.13148 -2.44414 0
M  V30 3647 H 343.948 0.982114 -3.79601 0
M  V30 3648 H 345.438 1.96597 -3.68429 0
M  V30 3649 N 345.875 1.56104 -0.216619 0
M  V30 3650 C 346.822 2.2007 0.695531 0
M  V30 3651 C 347.792 1.15471 1.19397 0
M  V30 3652 O 348.977 1.43807 1.25396 0
M  V30 3653 C 346.117 2.88073 1.90021 0
M  V30 3654 C 345.23 4.07253 1.44113 0
M  V30 3655 C 344.365 4.63052 2.603 0
M  V30 3656 C 343.404 5.74545 2.11103 0
M  V30 3657 N 342.541 6.24656 3.20545 0
M  V30 3658 H 347.381 2.97655 0.143327 0
M  V30 3659 H 344.918 1.46982 0.0589934 0
M  V30 3660 H 346.876 3.25681 2.60745 0
M  V30 3661 H 345.506 2.13015 2.42538 0
M  V30 3662 H 344.558 3.75164 0.628999 0
M  V30 3663 H 345.87 4.8783 1.04036 0
M  V30 3664 H 345.024 5.03078 3.39113 0
M  V30 3665 H 343.763 3.81628 3.03663 0
M  V30 3666 H 342.768 5.34027 1.3075 0
M  V30 3667 H 343.993 6.57801 1.68746 0
M  V30 3668 H 341.939 5.46148 3.63399 0
M  V30 3669 H 341.856 7.00343 2.84704 0
M  V30 3670 H 343.124 6.69338 3.99508 0
M  V30 3671 N 347.353 -0.0568162 1.57498 0
M  V30 3672 C 348.601 -0.751617 1.87604 0
M  V30 3673 C 348.922 -1.77351 0.81066 0
M  V30 3674 O 348.192 -1.95254 -0.159018 0
M  V30 3675 H 346.772 -0.280583 0.692302 0
M  V30 3676 H 349.434 -0.0293483 1.94878 0
M  V30 3677 H 348.53 -1.25852 2.856 0
M  V30 3678 N 348.832 -1.54138 -0.328536 0
M  V30 3679 C 349.779 -1.83176 -1.40411 0
M  V30 3680 C 350.749 -0.678494 -1.5161 0
M  V30 3681 O 351.934 -0.92443 -1.6691 0
M  V30 3682 C 349.074 -2.06035 -2.76846 0
M  V30 3683 C 348.187 -3.33727 -2.74318 0
M  V30 3684 C 347.322 -3.46574 -4.02567 0
M  V30 3685 C 346.361 -4.68159 -3.94327 0
M  V30 3686 N 345.498 -4.77959 -5.14296 0
M  V30 3687 H 350.338 -2.74938 -1.14948 0
M  V30 3688 H 347.875 -1.36166 -0.556538 0
M  V30 3689 H 349.833 -2.1728 -3.56153 0
M  V30 3690 H 348.463 -1.1757 -3.00628 0
M  V30 3691 H 347.515 -3.31246 -1.8703 0
M  V30 3692 H 348.827 -4.23139 -2.64111 0
M  V30 3693 H 347.981 -3.57333 -4.90304 0
M  V30 3694 H 346.72 -2.55245 -4.15574 0
M  V30 3695 H 345.725 -4.57461 -3.04974 0
M  V30 3696 H 346.95 -5.60868 -3.82889 0
M  V30 3697 H 344.896 -3.89544 -5.27818 0
M  V30 3698 H 344.813 -5.6133 -5.06404 0
M  V30 3699 H 346.081 -4.93044 -6.03761 0
M  V30 3700 N 350.31 0.590341 -1.46126 0
M  V30 3701 C 351.558 1.34616 -1.50742 0
M  V30 3702 C 351.879 1.94363 -0.157486 0
M  V30 3703 O 351.149 1.78136 0.815136 0
M  V30 3704 H 349.729 0.499789 -0.555175 0
M  V30 3705 H 352.391 0.691953 -1.82203 0
M  V30 3706 H 351.487 2.15678 -2.25587 0
M  V30 3707 N 351.788 1.33704 0.83433 0
M  V30 3708 C 352.738 1.20899 1.93306 0
M  V30 3709 C 353.722 0.110783 1.60518 0
M  V30 3710 O 354.914 0.339331 1.73717 0
M  V30 3711 C 352.043 0.955018 3.29749 0
M  V30 3712 C 351.129 2.09587 3.68692 0
M  V30 3713 N 351.52 3.34621 3.79292 0
M  V30 3714 C 349.818 2.00358 3.98463 0
M  V30 3715 C 350.519 4.09472 4.13167 0
M  V30 3716 N 349.495 3.37954 4.25779 0
M  V30 3717 H 353.297 2.15665 1.99664 0
M  V30 3718 H 350.811 1.25777 1.02732 0
M  V30 3719 H 352.808 0.844208 4.08263 0
M  V30 3720 H 351.468 0.0159317 3.24696 0
M  V30 3721 H 352.479 3.69313 3.63082 0
M  V30 3722 H 349.156 1.14137 4.01596 0
M  V30 3723 H 350.546 5.17391 4.28668 0
M  V30 3724 N 353.266 -1.05314 1.17247 0
M  V30 3725 C 354.512 -1.78557 0.961513 0
M  V30 3726 C 354.845 -1.87419 -0.508697 0
M  V30 3727 O 354.12 -1.37307 -1.37757 0
M  V30 3728 C 354.403 -3.22514 1.60176 0
M  V30 3729 C 354.256 -3.21673 3.14399 0
M  V30 3730 C 355.575 -4.20318 1.30463 0
M  V30 3731 H 352.694 -0.6482 0.350723 0
M  V30 3732 H 355.336 -1.23102 1.44727 0
M  V30 3733 H 353.486 -3.69867 1.18871 0
M  V30 3734 H 355.158 -2.82405 3.64753 0
M  V30 3735 H 353.401 -2.60048 3.47214 0
M  V30 3736 H 354.072 -4.23271 3.54324 0
M  V30 3737 H 356.548 -3.81454 1.66229 0
M  V30 3738 H 355.424 -5.19289 1.77848 0
M  V30 3739 H 355.685 -4.41526 0.22521 0
M  V30 3740 N 354.744 -0.972509 -1.24016 0
M  V30 3741 C 355.674 -0.525548 -2.27509 0
M  V30 3742 C 356.655 0.437262 -1.64384 0
M  V30 3743 O 357.84 0.332343 -1.91335 0
M  V30 3744 C 354.97 0.180448 -3.46831 0
M  V30 3745 C 353.924 -0.698859 -4.22256 0
M  V30 3746 C 353.25 0.138903 -5.3452 0
M  V30 3747 C 354.55 -1.98582 -4.83076 0
M  V30 3748 H 356.244 -1.39058 -2.65148 0
M  V30 3749 H 353.79 -0.67009 -1.27459 0
M  V30 3750 H 355.743 0.504387 -4.18371 0
M  V30 3751 H 354.467 1.07987 -3.08231 0
M  V30 3752 H 353.126 -1.00614 -3.52523 0
M  V30 3753 H 352.774 1.03862 -4.9216 0
M  V30 3754 H 352.474 -0.446259 -5.85903 0
M  V30 3755 H 353.998 0.457404 -6.08884 0
M  V30 3756 H 355.412 -1.72715 -5.46665 0
M  V30 3757 H 353.809 -2.5181 -5.44713 0
M  V30 3758 H 354.879 -2.67769 -4.04262 0
M  V30 3759 N 356.222 1.38976 -0.743202 0
M  V30 3760 C 357.152 2.33171 -0.123873 0
M  V30 3761 C 358.133 1.54336 0.71516 0
M  V30 3762 O 359.318 1.82696 0.658467 0
M  V30 3763 C 356.448 3.38474 0.777978 0
M  V30 3764 C 355.402 4.27979 0.0424758 0
M  V30 3765 C 354.728 5.2405 1.06189 0
M  V30 3766 C 356.028 5.10155 -1.1198 0
M  V30 3767 H 357.722 2.85213 -0.910709 0
M  V30 3768 H 355.268 1.37133 -0.439388 0
M  V30 3769 H 357.221 4.03328 1.22084 0
M  V30 3770 H 355.945 2.84891 1.59702 0
M  V30 3771 H 354.604 3.64616 -0.380853 0
M  V30 3772 H 354.252 4.66758 1.87472 0
M  V30 3773 H 353.952 5.84785 0.574485 0
M  V30 3774 H 355.476 5.9178 1.50428 0
M  V30 3775 H 356.89 5.68307 -0.75499 0
M  V30 3776 H 355.287 5.80073 -1.53738 0
M  V30 3777 H 356.357 4.44504 -1.93764 0
M  V30 3778 N 357.7 0.491464 1.49741 0
M  V30 3779 C 358.948 -0.0563141 2.02022 0
M  V30 3780 C 359.269 -1.38363 1.37407 0
M  V30 3781 O 358.539 -1.88702 0.526166 0
M  V30 3782 H 357.119 -0.0238014 0.746621 0
M  V30 3783 H 359.781 0.646533 1.83864 0
M  V30 3784 H 358.877 -0.192967 3.11503 0
M  V30 3785 N 359.178 -1.55987 0.224894 0
M  V30 3786 C 360.426 -1.97998 -0.405099 0
M  V30 3787 C 360.747 -1.11387 -1.60056 0
M  V30 3788 O 360.017 -0.191645 -1.9496 0
M  V30 3789 H 358.597 -0.731235 -0.152658 0
M  V30 3790 H 361.259 -1.92279 0.318567 0
M  V30 3791 H 360.355 -3.03463 -0.729167 0
M  V30 3792 N 360.656 0.0484629 -1.57525 0
M  V30 3793 C 361.606 1.06246 -2.01732 0
M  V30 3794 C 362.59 1.33155 -0.903245 0
M  V30 3795 O 363.782 1.33065 -1.16717 0
M  V30 3796 C 360.911 2.36943 -2.48421 0
M  V30 3797 C 359.997 2.13208 -3.6661 0
M  V30 3798 N 360.388 1.5947 -4.80003 0
M  V30 3799 C 358.686 2.43581 -3.7361 0
M  V30 3800 C 359.387 1.51092 -5.61735 0
M  V30 3801 N 358.363 1.9797 -5.0627 0
M  V30 3802 H 362.165 0.640675 -2.86832 0
M  V30 3803 H 359.679 0.255134 -1.60383 0
M  V30 3804 H 361.676 3.10374 -2.78341 0
M  V30 3805 H 360.336 2.79818 -1.64718 0
M  V30 3806 H 361.347 1.28008 -5.01831 0
M  V30 3807 H 358.024 2.89662 -3.00669 0
M  V30 3808 H 359.414 1.10199 -6.62801 0
M  V30 3809 N 362.134 1.5431 0.320358 0
M  V30 3810 C 363.097 1.83195 1.3774 0
M  V30 3811 C 364.097 0.703906 1.44575 0
M  V30 3812 O 365.287 0.972214 1.44546 0
M  V30 3813 C 362.419 1.99487 2.76438 0
M  V30 3814 H 363.612 2.77642 1.1338 0
M  V30 3815 H 361.165 1.46076 0.556012 0
M  V30 3816 H 361.9 1.07262 3.06048 0
M  V30 3817 H 361.685 2.81575 2.7287 0
M  V30 3818 H 363.175 2.23271 3.52902 0
M  V30 3819 N 363.613 -0.582584 1.46437 0
M  V30 3820 C 365.024 -1.1647 1.45916 0
M  V30 3821 C 365.375 -1.95177 0.200077 0
M  V30 3822 O 364.5 -2.04874 -0.696819 0
M  V30 3823 C 365.095 -2.11885 2.64367 0
M  V30 3824 C 363.654 -2.65421 2.66887 0
M  V30 3825 C 362.801 -1.41294 2.38603 0
M  V30 3826 H 365.752 -0.370514 1.54314 0
M  V30 3827 H 365.773 -2.9535 2.39892 0
M  V30 3828 H 365.285 -1.54573 3.5599 0
M  V30 3829 H 363.386 -3.26602 1.79338 0
M  V30 3830 H 363.499 -3.08147 3.66854 0
M  V30 3831 H 361.863 -1.71109 1.88663 0
M  V30 3832 H 362.646 -0.858125 3.32402 0
M  V30 3833 N 365.091 -1.34144 -0.827227 0
M  V30 3834 C 366.054 -1.25264 -1.91942 0
M  V30 3835 C 367.054 -0.168866 -1.59911 0
M  V30 3836 O 368.244 -0.421198 -1.69031 0
M  V30 3837 C 365.376 -0.932952 -3.27885 0
M  V30 3838 H 366.569 -2.22357 -2.0124 0
M  V30 3839 H 364.122 -1.1837 -1.0207 0
M  V30 3840 H 364.857 0.0349917 -3.24281 0
M  V30 3841 H 364.642 -1.71682 -3.52516 0
M  V30 3842 H 366.132 -0.895874 -4.07877 0
M  V30 3843 N 366.569 1.04691 -1.17803 0
M  V30 3844 C 367.499 2.14494 -0.92275 0
M  V30 3845 C 368.48 1.69546 0.137179 0
M  V30 3846 O 369.665 1.94195 -0.0141108 0
M  V30 3847 C 366.795 3.44491 -0.440803 0
M  V30 3848 C 365.749 4.03031 -1.4405 0
M  V30 3849 C 365.075 5.28432 -0.81631 0
M  V30 3850 C 366.375 4.39932 -2.81527 0
M  V30 3851 H 368.069 2.36107 -1.84103 0
M  V30 3852 H 365.615 1.1347 -0.886599 0
M  V30 3853 H 367.568 4.2066 -0.249602 0
M  V30 3854 H 366.292 3.22546 0.513025 0
M  V30 3855 H 364.951 3.28937 -1.61853 0
M  V30 3856 H 364.599 5.02792 0.144511 0
M  V30 3857 H 364.299 5.68559 -1.48371 0
M  V30 3858 H 365.823 6.07284 -0.635496 0
M  V30 3859 H 367.237 5.07113 -2.67412 0
M  V30 3860 H 365.634 4.9109 -3.44892 0
M  V30 3861 H 366.704 3.50045 -3.35554 0
M  V30 3862 N 368.047 0.979072 1.23499 0
M  V30 3863 C 369.296 0.642751 1.91185 0
M  V30 3864 C 369.609 -0.827253 1.77245 0
M  V30 3865 O 370.815 -1.27458 2.39722 0
M  V30 3866 C 369.271 1.09901 3.42709 0
M  V30 3867 C 368.879 2.59327 3.65313 0
M  V30 3868 C 370.623 0.836371 4.16179 0
M  V30 3869 C 368.53 2.98627 5.10467 0
M  V30 3870 H 367.46 0.236698 0.715884 0
M  V30 3871 H 370.111 1.1868 1.39955 0
M  V30 3872 H 368.493 0.48319 3.93041 0
M  V30 3873 H 369.667 3.26136 3.25533 0
M  V30 3874 H 367.982 2.83323 3.05151 0
M  V30 3875 H 370.579 1.10586 5.23139 0
M  V30 3876 H 370.922 -0.227509 4.15678 0
M  V30 3877 H 371.455 1.41371 3.71832 0
M  V30 3878 H 368.194 4.04133 5.16098 0
M  V30 3879 H 367.714 2.3651 5.51201 0
M  V30 3880 H 369.393 2.89159 5.78788 0
M  V30 3881 N 369.525 -1.3858 0.750561 0
M  V30 3882 C 370.755 -2.04175 0.31564 0
M  V30 3883 C 371.163 -1.56726 -1.05989 0
M  V30 3884 O 370.506 -0.734225 -1.68389 0
M  V30 3885 C 370.568 -3.58585 0.256389 0
M  V30 3886 C 370.232 -4.29077 1.57296 0
M  V30 3887 C 371.229 -4.54656 2.52159 0
M  V30 3888 C 368.914 -4.67324 1.84156 0
M  V30 3889 C 370.908 -5.17512 3.72103 0
M  V30 3890 C 368.595 -5.29905 3.04374 0
M  V30 3891 C 369.593 -5.54933 3.98168 0
M  V30 3892 O 369.281 -6.16212 5.16273 0
M  V30 3893 H 369.013 -0.662742 0.133226 0
M  V30 3894 H 371.567 -1.78313 1.01948 0
M  V30 3895 H 369.797 -3.83406 -0.503677 0
M  V30 3896 H 371.486 -4.05628 -0.148612 0
M  V30 3897 H 372.252 -4.25539 2.32683 0
M  V30 3898 H 368.131 -4.47191 1.11988 0
M  V30 3899 H 371.675 -5.36963 4.45327 0
M  V30 3900 H 367.572 -5.58444 3.23745 0
M  V30 3901 H 368.34 -6.34701 5.16815 0
M  V30 3902 N 371.003 -0.499398 -1.49478 0
M  V30 3903 C 372.228 0.044722 -2.07352 0
M  V30 3904 C 372.653 1.30207 -1.35749 0
M  V30 3905 O 372.011 1.76516 -0.413732 0
M  V30 3906 C 372.059 0.283013 -3.59488 0
M  V30 3907 O 371.163 1.35804 -3.89398 0
M  V30 3908 H 370.504 -0.0255147 -0.66351 0
M  V30 3909 H 373.034 -0.698561 -1.92305 0
M  V30 3910 H 373.044 0.515007 -4.04737 0
M  V30 3911 H 371.719 -0.635636 -4.11014 0
M  V30 3912 H 370.296 1.11113 -3.55961 0
M  V30 3913 N 372.481 1.55866 -0.233164 0
M  V30 3914 C 373.727 1.98897 0.395959 0
M  V30 3915 C 374.06 1.12091 1.58585 0
M  V30 3916 O 373.335 0.181182 1.93654 0
M  V30 3917 C 373.618 3.50658 0.819224 0
M  V30 3918 C 373.471 4.48233 -0.375109 0
M  V30 3919 C 374.79 4.07135 1.67121 0
M  V30 3920 H 371.909 0.723102 0.142451 0
M  V30 3921 H 374.551 1.87082 -0.331725 0
M  V30 3922 H 372.701 3.60857 1.43925 0
M  V30 3923 H 374.373 4.50031 -1.01341 0
M  V30 3924 H 372.616 4.21624 -1.02058 0
M  V30 3925 H 373.287 5.51988 -0.0358328 0
M  V30 3926 H 375.763 3.99952 1.14795 0
M  V30 3927 H 374.639 5.13615 1.93625 0
M  V30 3928 H 374.9 3.54736 2.63846 0
M  V30 3929 N 373.959 -0.0401083 1.57549 0
M  V30 3930 C 375.184 -0.748931 1.93406 0
M  V30 3931 C 375.609 -1.68686 0.832274 0
M  V30 3932 O 374.967 -1.80047 -0.212818 0
M  V30 3933 C 375.015 -1.4916 3.28304 0
M  V30 3934 O 374.119 -2.6042 3.19774 0
M  V30 3935 H 373.46 -0.202212 0.63246 0
M  V30 3936 H 375.99 0.00112086 2.046 0
M  V30 3937 H 376 -1.86395 3.62934 0
M  V30 3938 H 374.675 -0.80364 4.08062 0
M  V30 3939 H 373.252 -2.25808 2.96758 0
M  V30 3940 N 375.437 -1.54477 -0.31217 0
M  V30 3941 C 376.848 -1.64344 -0.885891 0
M  V30 3942 C 377.199 -0.54485 -1.88483 0
M  V30 3943 O 376.324 0.320387 -2.14015 0
M  V30 3944 C 376.919 -2.97908 -1.61357 0
M  V30 3945 C 375.478 -3.09933 -2.13585 0
M  V30 3946 C 374.625 -2.59971 -0.964897 0
M  V30 3947 H 377.576 -1.58448 -0.0894528 0
M  V30 3948 H 377.597 -2.88706 -2.47848 0
M  V30 3949 H 377.109 -3.77845 -0.886277 0
M  V30 3950 H 375.21 -2.34694 -2.89395 0
M  V30 3951 H 375.323 -4.15916 -2.37804 0
M  V30 3952 H 373.687 -2.16147 -1.34731 0
M  V30 3953 H 374.47 -3.42376 -0.251742 0
M  V30 3954 N 376.915 0.57481 -1.46744 0
M  V30 3955 C 378.143 1.35856 -1.56047 0
M  V30 3956 C 378.558 1.87691 -0.204365 0
M  V30 3957 O 377.915 1.64049 0.79963 0
M  V30 3958 C 377.966 2.54066 -2.57163 0
M  V30 3959 O 377.687 2.04377 -3.87507 0
M  V30 3960 C 379.188 3.46514 -2.76483 0
M  V30 3961 H 376.408 0.414754 -0.527466 0
M  V30 3962 H 378.952 0.698035 -1.92218 0
M  V30 3963 H 377.107 3.16092 -2.23974 0
M  V30 3964 H 377.521 2.81419 -4.4261 0
M  V30 3965 H 378.995 4.25919 -3.51137 0
M  V30 3966 H 379.472 3.98951 -1.83671 0
M  V30 3967 H 380.078 2.90318 -3.10799 0
M  V30 3968 N 378.394 1.34581 0.820102 0
M  V30 3969 C 379.304 1.28471 1.96297 0
M  V30 3970 C 380.32 0.191902 1.72939 0
M  V30 3971 O 381.496 0.418879 1.96996 0
M  V30 3972 C 378.561 1.04281 3.30645 0
M  V30 3973 C 377.622 2.22745 3.66992 0
M  V30 3974 C 376.855 1.997 4.9493 0
M  V30 3975 O 377.078 0.956656 5.6232 0
M  V30 3976 O 376.012 2.86723 5.2922 0
M  V30 3977 H 379.838 2.24624 2.04396 0
M  V30 3978 H 377.423 1.14816 0.955913 0
M  V30 3979 H 379.305 0.925841 4.11104 0
M  V30 3980 H 377.98 0.111697 3.23507 0
M  V30 3981 H 376.887 2.40003 2.86966 0
M  V30 3982 H 378.22 3.14257 3.78819 0
M  V30 3983 N 379.872 -1.04064 1.18357 0
M  V30 3984 C 381.1 -1.80916 1.00384 0
M  V30 3985 C 381.515 -1.83414 -0.447738 0
M  V30 3986 O 380.872 -1.26962 -1.31099 0
M  V30 3987 C 380.923 -3.26516 1.55144 0
M  V30 3988 O 380.644 -3.2424 2.94618 0
M  V30 3989 C 382.145 -4.20013 1.41789 0
M  V30 3990 H 379.365 -0.569728 0.354474 0
M  V30 3991 H 381.909 -1.31151 1.56906 0
M  V30 3992 H 380.064 -3.73512 1.02798 0
M  V30 3993 H 380.478 -4.15452 3.20156 0
M  V30 3994 H 381.952 -5.20111 1.84901 0
M  V30 3995 H 382.429 -4.37667 0.36661 0
M  V30 3996 H 383.035 -3.78881 1.93207 0
M  V30 3997 N 381.35 -0.985608 -1.22978 0
M  V30 3998 C 382.766 -0.695104 -1.43668 0
M  V30 3999 C 382.966 0.736866 -1.87543 0
M  V30 4000 O 382.022 1.50868 -2.02473 0
M  V30 4001 C 383.335 -1.69447 -2.48412 0
M  V30 4002 C 384.883 -1.70909 -2.62219 0
M  V30 4003 C 385.358 -2.6969 -3.70178 0
M  V30 4004 N 386.849 -2.6824 -3.77626 0
M  V30 4005 C 387.584 -3.41339 -4.60733 0
M  V30 4006 N 387.08 -4.24015 -5.4789 0
M  V30 4007 N 388.873 -3.30079 -4.54977 0
M  V30 4008 H 381.024 -1.91054 -0.928016 0
M  V30 4009 H 383.287 -0.823553 -0.469536 0
M  V30 4010 H 382.993 -2.7188 -2.23102 0
M  V30 4011 H 382.867 -1.48147 -3.46889 0
M  V30 4012 H 385.254 -0.691785 -2.86877 0
M  V30 4013 H 385.335 -1.96276 -1.6404 0
M  V30 4014 H 384.979 -3.71566 -3.46268 0
M  V30 4015 H 384.909 -2.41595 -4.67909 0
M  V30 4016 H 387.4 -2.08243 -3.15346 0
M  V30 4017 H 387.713 -4.76636 -6.08308 0
M  V30 4018 H 386.058 -4.28104 -5.47496 0
M  V30 4019 H 389.249 -2.64937 -3.85909 0
M  V30 4020 H 389.422 -3.87308 -5.19516 0
M  V30 4021 N 382.828 1.3818 -0.7579 0
M  V30 4022 C 384.074 2.00316 -0.316453 0
M  V30 4023 C 384.407 1.60026 1.10025 0
M  V30 4024 O 383.682 0.839835 1.75434 0
M  V30 4025 C 383.965 3.57349 -0.444245 0
M  V30 4026 C 383.818 4.07591 -1.90236 0
M  V30 4027 C 385.137 4.3981 0.1598 0
M  V30 4028 H 382.256 0.727741 -0.116459 0
M  V30 4029 H 384.898 1.6406 -0.958352 0
M  V30 4030 H 383.048 3.88365 0.102233 0
M  V30 4031 H 384.72 3.87199 -2.50748 0
M  V30 4032 H 382.963 3.60297 -2.41595 0
M  V30 4033 H 383.634 5.16677 -1.94291 0
M  V30 4034 H 386.11 4.14971 -0.306314 0
M  V30 4035 H 384.986 5.48885 0.0401675 0
M  V30 4036 H 385.247 4.24102 1.24859 0
M  V30 4037 N 384.306 0.507319 1.49211 0
M  V30 4038 C 385.236 -0.256939 2.32082 0
M  V30 4039 C 386.217 -0.956609 1.40652 0
M  V30 4040 O 387.402 -0.946788 1.69557 0
M  V30 4041 C 384.532 -1.31802 3.21318 0
M  V30 4042 C 383.486 -0.737855 4.21592 0
M  V30 4043 C 382.812 -1.89992 4.99807 0
M  V30 4044 C 384.112 0.275325 5.21574 0
M  V30 4045 H 385.806 0.434798 2.96226 0
M  V30 4046 H 383.352 0.210546 1.42452 0
M  V30 4047 H 385.305 -1.86045 3.78107 0
M  V30 4048 H 384.029 -2.03903 2.5513 0
M  V30 4049 H 382.688 -0.217126 3.65956 0
M  V30 4050 H 382.336 -2.60877 4.30061 0
M  V30 4051 H 382.036 -1.51777 5.6766 0
M  V30 4052 H 383.56 -2.44657 5.59442 0
M  V30 4053 H 384.974 -0.179193 5.7302 0
M  V30 4054 H 383.371 0.573649 5.97352 0
M  V30 4055 H 384.441 1.18903 4.70096 0
M  V30 4056 N 385.784 -1.5574 0.241426 0
M  V30 4057 C 387.024 -2.00714 -0.38644 0
M  V30 4058 C 387.388 -1.12586 -1.55526 0
M  V30 4059 O 388.589 -1.46992 -2.25048 0
M  V30 4060 C 386.86 -3.48534 -0.791128 0
M  V30 4061 S 388.419 -4.15519 -1.41029 0
M  V30 4062 H 385.237 -0.700484 -0.121834 0
M  V30 4063 H 387.839 -1.92243 0.355377 0
M  V30 4064 H 386.543 -4.10342 0.0689225 0
M  V30 4065 H 386.074 -3.6092 -1.56526 0
M  V30 4066 H 388.089 -4.16352 -2.69936 0
M  V30 4067 N 387.262 0.0317525 -1.57568 0
M  V30 4068 C 388.508 0.724175 -1.8943 0
M  V30 4069 C 388.841 1.75149 -0.838836 0
M  V30 4070 O 388.116 1.93948 0.146422 0
M  V30 4071 C 388.399 1.39615 -3.31933 0
M  V30 4072 C 388.252 0.382537 -4.4817 0
M  V30 4073 C 389.571 2.33084 -3.73309 0
M  V30 4074 H 386.69 0.261797 -0.688935 0
M  V30 4075 H 389.332 -0.013017 -1.89996 0
M  V30 4076 H 387.482 2.02451 -3.31581 0
M  V30 4077 H 389.154 -0.243689 -4.60656 0
M  V30 4078 H 387.397 -0.29844 -4.32772 0
M  V30 4079 H 388.068 0.891145 -5.44759 0
M  V30 4080 H 390.544 1.80295 -3.7501 0
M  V30 4081 H 389.42 2.77084 -4.73831 0
M  V30 4082 H 389.681 3.19643 -3.05419 0
M  V30 4083 N 388.74 1.54641 0.303973 0
M  V30 4084 C 389.97 1.77511 1.05705 0
M  V30 4085 C 390.378 0.533228 1.81531 0
M  V30 4086 O 389.721 -0.506423 1.76582 0
M  V30 4087 C 389.783 2.92779 2.08617 0
M  V30 4088 C 389.447 4.30977 1.52013 0
M  V30 4089 C 390.444 5.11115 0.9517 0
M  V30 4090 C 388.129 4.77571 1.55665 0
M  V30 4091 C 390.123 6.35966 0.427327 0
M  V30 4092 C 387.81 6.02384 1.02841 0
M  V30 4093 C 388.808 6.81417 0.464713 0
M  V30 4094 O 388.496 8.03881 -0.0555283 0
M  V30 4095 H 388.228 0.59579 0.319391 0
M  V30 4096 H 390.782 2.02401 0.349712 0
M  V30 4097 H 389.012 2.63506 2.83022 0
M  V30 4098 H 390.701 3.03252 2.69802 0
M  V30 4099 H 391.467 4.76264 0.916407 0
M  V30 4100 H 387.346 4.16085 1.9848 0
M  V30 4101 H 390.89 6.97599 -0.0133062 0
M  V30 4102 H 386.787 6.36723 1.06084 0
M  V30 4103 H 387.555 8.18479 0.0580522 0
M  V30 4104 N 390.218 -0.567019 1.47046 0
M  V30 4105 C 391.464 -1.32658 1.53394 0
M  V30 4106 C 391.797 -1.93254 0.19148 0
M  V30 4107 O 391.072 -1.77338 -0.798844 0
M  V30 4108 C 391.355 -2.44412 2.64452 0
M  V30 4109 C 391.208 -1.88749 4.08282 0
M  V30 4110 C 392.527 -3.46387 2.71485 0
M  V30 4111 H 389.646 -0.48098 0.558415 0
M  V30 4112 H 392.288 -0.635481 1.79058 0
M  V30 4113 H 390.438 -3.03363 2.427 0
M  V30 4114 H 392.11 -1.34134 4.41368 0
M  V30 4115 H 390.353 -1.19481 4.17021 0
M  V30 4116 H 391.024 -2.69491 4.81745 0
M  V30 4117 H 393.5 -2.9734 2.91081 0
M  V30 4118 H 392.376 -4.2202 3.50985 0
M  V30 4119 H 392.637 -4.04616 1.78153 0
M  V30 4120 N 391.696 -1.35014 -0.812953 0
M  V30 4121 C 392.921 -1.31187 -1.60639 0
M  V30 4122 C 393.346 0.109382 -1.87782 0
M  V30 4123 O 392.704 1.07424 -1.46047 0
M  V30 4124 C 392.752 -2.11809 -2.91838 0
M  V30 4125 O 391.856 -1.49444 -3.8437 0
M  V30 4126 H 391.197 -0.450084 -0.488181 0
M  V30 4127 H 393.727 -1.77963 -1.00947 0
M  V30 4128 H 393.737 -2.23531 -3.41318 0
M  V30 4129 H 392.412 -3.15137 -2.71407 0
M  V30 4130 H 390.989 -1.46524 -3.42907 0
M  V30 4131 N 393.175 1.03435 -1.18907 0
M  V30 4132 C 394.4 1.80919 -1.01406 0
M  V30 4133 C 394.825 1.83055 0.432721 0
M  V30 4134 O 394.183 1.25252 1.31079 0
M  V30 4135 C 394.231 3.24091 -1.58105 0
M  V30 4136 O 393.335 4.04434 -0.806669 0
M  V30 4137 H 392.676 0.558709 -0.358803 0
M  V30 4138 H 395.206 1.30223 -1.57807 0
M  V30 4139 H 395.216 3.74853 -1.61087 0
M  V30 4140 H 393.891 3.21851 -2.6341 0
M  V30 4141 H 392.468 3.63091 -0.849666 0
M  V30 4142 N 394.653 0.992116 1.22453 0
M  V30 4143 C 395.6 0.541731 2.24352 0
M  V30 4144 C 396.57 -0.425519 1.60557 0
M  V30 4145 O 397.755 -0.330453 1.87917 0
M  V30 4146 C 394.895 -0.138248 3.44823 0
M  V30 4147 C 394.008 0.870649 4.23136 0
M  V30 4148 C 393.143 0.164269 5.30946 0
M  V30 4149 C 392.182 1.16159 6.00977 0
M  V30 4150 N 391.319 0.483568 7.00433 0
M  V30 4151 H 396.159 1.41541 2.62241 0
M  V30 4152 H 393.696 0.709013 1.28885 0
M  V30 4153 H 395.654 -0.5494 4.13567 0
M  V30 4154 H 394.284 -0.975721 3.077 0
M  V30 4155 H 393.336 1.40013 3.53696 0
M  V30 4156 H 394.648 1.63014 4.7141 0
M  V30 4157 H 393.802 -0.303653 6.0594 0
M  V30 4158 H 392.541 -0.627733 4.83643 0
M  V30 4159 H 391.546 1.64015 5.24766 0
M  V30 4160 H 392.771 1.95445 6.50368 0
M  V30 4161 H 390.717 -0.289012 6.55363 0
M  V30 4162 H 390.634 1.18152 7.4671 0
M  V30 4163 H 391.902 0.0384219 7.79491 0
M  V30 4164 N 396.131 -1.37776 0.765217 0
M  V30 4165 C 397.542 -1.82521 0.392819 0
M  V30 4166 C 397.893 -1.63789 -1.08017 0
M  V30 4167 O 397.018 -1.14542 -1.83601 0
M  V30 4168 C 397.613 -3.31358 0.706214 0
M  V30 4169 C 396.172 -3.74406 0.386952 0
M  V30 4170 C 395.319 -2.60394 0.953422 0
M  V30 4171 H 398.27 -1.2634 0.960412 0
M  V30 4172 H 398.291 -3.80498 -0.0114706 0
M  V30 4173 H 397.803 -3.44959 1.77833 0
M  V30 4174 H 395.904 -3.66377 -0.678112 0
M  V30 4175 H 396.017 -4.70749 0.890636 0
M  V30 4176 H 394.381 -2.51878 0.378064 0
M  V30 4177 H 395.164 -2.76791 2.03081 0
M  V30 4178 N 397.609 -0.515225 -1.4894 0
M  V30 4179 C 399.02 -0.0710067 -1.86565 0
M  V30 4180 C 399.371 1.34733 -1.42623 0
M  V30 4181 O 398.496 2.00653 -0.810379 0
M  V30 4182 C 399.091 -0.122083 -3.3858 0
M  V30 4183 C 397.65 0.266863 -3.75453 0
M  V30 4184 C 396.797 -0.488376 -2.72966 0
M  V30 4185 H 399.748 -0.727266 -1.41055 0
M  V30 4186 H 399.769 0.669818 -3.74558 0
M  V30 4187 H 399.281 -1.15448 -3.70531 0
M  V30 4188 H 397.382 1.30196 -3.49113 0
M  V30 4189 H 397.495 -0.0624811 -4.79059 0
M  V30 4190 H 395.859 0.0635622 -2.54621 0
M  V30 4191 H 396.642 -1.52113 -3.07761 0
M  V30 4192 N 399.087 1.5561 -0.249682 0
M  V30 4193 C 400.312 2.03865 0.381305 0
M  V30 4194 C 400.737 1.12769 1.50548 0
M  V30 4195 O 400.095 0.121189 1.80895 0
M  V30 4196 C 400.143 3.50101 0.863816 0
M  V30 4197 O 399.247 3.62132 1.97318 0
M  V30 4198 H 398.588 0.658827 0.0827194 0
M  V30 4199 H 401.118 2.01105 -0.376552 0
M  V30 4200 H 401.128 3.90975 1.1663 0
M  V30 4201 H 399.803 4.1588 0.0411816 0
M  V30 4202 H 398.38 3.33155 1.67517 0
M  V30 4203 N 400.565 -0.0233959 1.57583 0
M  V30 4204 C 401.528 -1.00693 2.05897 0
M  V30 4205 C 402.528 -1.28693 0.964092 0
M  V30 4206 O 403.718 -1.23602 1.22753 0
M  V30 4207 C 400.85 -2.33825 2.4807 0
M  V30 4208 H 402.043 -0.589476 2.9405 0
M  V30 4209 H 399.596 -0.270354 1.53944 0
M  V30 4210 H 400.331 -2.80307 1.6309 0
M  V30 4211 H 400.116 -2.1483 3.2801 0
M  V30 4212 H 401.606 -3.04426 2.85857 0
M  V30 4213 N 402.043 -1.548 -0.295768 0
M  V30 4214 C 403.006 -1.85363 -1.34808 0
M  V30 4215 C 404.006 -0.726817 -1.43436 0
M  V30 4216 O 405.196 -0.995088 -1.42981 0
M  V30 4217 C 402.328 -2.03859 -2.73229 0
M  V30 4218 H 403.521 -2.7941 -1.08949 0
M  V30 4219 H 401.074 -1.46942 -0.532702 0
M  V30 4220 H 401.809 -1.12117 -3.04303 0
M  V30 4221 H 401.594 -2.8588 -2.68356 0
M  V30 4222 H 403.084 -2.28857 -3.49305 0
M  V30 4223 N 403.521 0.559213 -1.47345 0
M  V30 4224 C 404.469 1.68747 -1.60085 0
M  V30 4225 C 405.463 1.628 -0.46825 0
M  V30 4226 O 406.669 1.68009 -0.645977 0
M  V30 4227 H 403.044 0.558329 -0.503759 0
M  V30 4228 H 405.015 1.55138 -2.54902 0
M  V30 4229 C 403.764 3.07103 -1.63042 0
M  V30 4230 H 403.087 3.12361 -2.49541 0
M  V30 4231 H 404.527 3.85743 -1.76006 0
M  V30 4232 C 402.986 3.34935 -0.363357 0
M  V30 4233 O 403.516 3.98102 0.536416 0
M  V30 4234 N 401.722 2.89574 -0.244 0
M  V30 4235 H 401.269 2.38348 -0.977133 0
M  V30 4236 H 401.227 3.08566 0.602836 0
M  V30 4237 N 404.999 1.35443 0.805782 0
M  V30 4238 C 406.276 1.19325 1.54987 0
M  V30 4239 C 406.656 -0.227294 2.09873 0
M  V30 4240 O 406.004 -1.2309 1.92512 0
M  V30 4241 C 406.214 2.26196 2.65775 0
M  V30 4242 C 407.562 2.62043 3.34094 0
M  V30 4243 O 408.586 2.25115 2.76046 0
M  V30 4244 O 407.445 3.25542 4.38958 0
M  V30 4245 H 404.539 0.463623 0.684823 0
M  V30 4246 H 407.085 1.47127 0.845674 0
M  V30 4247 H 405.857 3.21471 2.23096 0
M  V30 4248 H 405.48 1.99667 3.43829 0
M  V30 4249 N 406.477 -1.02803 1.19454 0
M  V30 4250 C 407.44 -2.09264 0.934955 0
M  V30 4251 C 408.44 -1.60576 -0.0849015 0
M  V30 4252 O 409.63 -1.73554 0.149933 0
M  V30 4253 C 406.762 -3.38482 0.40531 0
M  V30 4254 H 407.955 -2.33726 1.87916 0
M  V30 4255 H 405.508 -1.19426 1.00832 0
M  V30 4256 H 406.243 -3.19689 -0.544899 0
M  V30 4257 H 406.028 -3.75142 1.14065 0
M  V30 4258 H 407.518 -4.16894 0.242806 0
M  V30 4259 N 407.956 -0.998596 -1.21925 0
M  V30 4260 C 409.202 -0.678667 -1.91107 0
M  V30 4261 C 409.535 0.78791 -1.77498 0
M  V30 4262 O 408.81 1.57043 -1.1475 0
M  V30 4263 C 409.093 -1.09245 -3.43129 0
M  V30 4264 C 408.946 -2.61801 -3.6576 0
M  V30 4265 C 410.265 -0.649984 -4.35274 0
M  V30 4266 H 407.384 -0.248025 -0.694012 0
M  V30 4267 H 410.026 -1.24314 -1.43688 0
M  V30 4268 H 408.176 -0.612171 -3.83647 0
M  V30 4269 H 409.848 -3.17543 -3.34611 0
M  V30 4270 H 408.091 -3.03609 -3.09845 0
M  V30 4271 H 408.762 -2.85804 -4.7225 0
M  V30 4272 H 411.238 -1.0626 -4.02303 0
M  V30 4273 H 410.114 -0.967743 -5.40302 0
M  V30 4274 H 410.375 0.449139 -4.39813 0
M  V30 4275 N 409.434 1.37368 -0.772513 0
M  V30 4276 C 410.664 2.03647 -0.348082 0
M  V30 4277 C 411.072 1.58392 1.03482 0
M  V30 4278 O 410.415 0.760921 1.672 0
M  V30 4279 C 410.477 3.58131 -0.313404 0
M  V30 4280 C 410.141 4.2652 -1.64102 0
M  V30 4281 C 411.138 4.50587 -2.5936 0
M  V30 4282 C 408.823 4.64335 -1.91567 0
M  V30 4283 C 410.817 5.11526 -3.80289 0
M  V30 4284 C 408.504 5.24996 -3.12766 0
M  V30 4285 C 409.502 5.48529 -4.06946 0
M  V30 4286 O 409.19 6.07921 -5.26011 0
M  V30 4287 H 408.922 0.660538 -0.143753 0
M  V30 4288 H 411.476 1.76669 -1.04772 0
M  V30 4289 H 409.706 3.84159 0.442617 0
M  V30 4290 H 411.395 4.05813 0.0840613 0
M  V30 4291 H 412.161 4.21784 -2.39423 0
M  V30 4292 H 408.04 4.45353 -1.19088 0
M  V30 4293 H 411.584 5.29811 -4.53813 0
M  V30 4294 H 407.481 5.53223 -3.32588 0
M  V30 4295 H 408.249 6.26398 -5.26847 0
M  V30 4296 N 410.912 0.523116 1.48665 0
M  V30 4297 C 411.859 -0.243398 2.29513 0
M  V30 4298 C 412.829 -0.940139 1.36933 0
M  V30 4299 O 414.014 -0.942503 1.65896 0
M  V30 4300 C 411.154 -1.28855 3.20141 0
M  V30 4301 C 410.267 -0.60135 4.27794 0
M  V30 4302 C 409.402 -1.62884 5.05611 0
M  V30 4303 C 408.441 -0.924726 6.05075 0
M  V30 4304 N 407.578 -1.89744 6.75975 0
M  V30 4305 H 412.418 0.452234 2.94549 0
M  V30 4306 H 409.955 0.234858 1.45213 0
M  V30 4307 H 411.913 -1.90674 3.71079 0
M  V30 4308 H 410.543 -1.95266 2.57043 0
M  V30 4309 H 409.595 0.130623 3.80176 0
M  V30 4310 H 410.907 -0.0481585 4.98777 0
M  V30 4311 H 410.061 -2.32149 5.60528 0
M  V30 4312 H 408.8 -2.21592 4.34452 0
M  V30 4313 H 407.805 -0.217966 5.49368 0
M  V30 4314 H 409.03 -0.343851 6.78229 0
M  V30 4315 H 406.976 -2.47373 6.07571 0
M  V30 4316 H 406.893 -1.3955 7.43009 0
M  V30 4317 H 408.161 -2.58229 7.35485 0
M  V30 4318 N 412.39 -1.55475 0.257931 0
M  V30 4319 C 413.62 -2.03314 -0.367026 0
M  V30 4320 C 414.028 -1.13625 -1.51281 0
M  V30 4321 O 413.371 -0.145334 -1.83124 0
M  V30 4322 C 413.433 -3.47362 -0.926284 0
M  V30 4323 C 413.097 -4.56914 0.0886584 0
M  V30 4324 C 414.094 -5.12013 0.902123 0
M  V30 4325 C 411.779 -5.01827 0.217936 0
M  V30 4326 C 413.773 -6.10529 1.83122 0
M  V30 4327 C 411.46 -6.00172 1.15052 0
M  V30 4328 C 412.458 -6.54402 1.95568 0
M  V30 4329 O 412.146 -7.50827 2.87253 0
M  V30 4330 H 411.878 -0.669976 -0.0900443 0
M  V30 4331 H 414.432 -2.01804 0.382673 0
M  V30 4332 H 412.662 -3.46056 -1.72575 0
M  V30 4333 H 414.351 -3.78637 -1.46249 0
M  V30 4334 H 415.117 -4.78139 0.812891 0
M  V30 4335 H 410.996 -4.59272 -0.398721 0
M  V30 4336 H 414.54 -6.52783 2.46008 0
M  V30 4337 H 410.437 -6.33465 1.24064 0
M  V30 4338 H 411.205 -7.68483 2.81739 0
M  V30 4339 N 413.868 0.0150385 -1.57593 0
M  V30 4340 C 414.798 1.01047 -2.10503 0
M  V30 4341 C 415.779 1.36816 -1.01071 0
M  V30 4342 O 416.964 1.45455 -1.28672 0
M  V30 4343 C 414.094 2.30708 -2.59598 0
M  V30 4344 C 413.048 2.09142 -3.73421 0
M  V30 4345 C 412.374 3.44685 -4.08774 0
M  V30 4346 C 413.674 1.46619 -5.01298 0
M  V30 4347 H 415.368 0.569978 -2.93925 0
M  V30 4348 H 412.914 0.272724 -1.41394 0
M  V30 4349 H 414.867 3.00687 -2.95238 0
M  V30 4350 H 413.591 2.76843 -1.73279 0
M  V30 4351 H 412.25 1.41592 -3.38153 0
M  V30 4352 H 411.898 3.88495 -3.195 0
M  V30 4353 H 411.598 3.31077 -4.8545 0
M  V30 4354 H 413.122 4.16004 -4.4696 0
M  V30 4355 H 414.536 2.06535 -5.34805 0
M  V30 4356 H 412.933 1.43544 -5.82679 0
M  V30 4357 H 414.003 0.433611 -4.82957 0
M  V30 4358 N 415.346 1.54954 0.287554 0
M  V30 4359 C 416.762 1.46469 0.633964 0
M  V30 4360 C 416.962 0.666865 1.90145 0
M  V30 4361 O 416.018 0.179906 2.51858 0
M  V30 4362 C 417.331 2.90556 0.774454 0
M  V30 4363 C 418.879 3.00681 0.869462 0
M  V30 4364 C 419.354 4.45993 1.04184 0
M  V30 4365 N 420.845 4.4976 1.10772 0
M  V30 4366 C 421.58 5.59393 1.25964 0
M  V30 4367 N 421.076 6.78923 1.37968 0
M  V30 4368 N 422.869 5.47107 1.28959 0
M  V30 4369 H 415.02 2.05288 -0.545041 0
M  V30 4370 H 417.283 0.930305 -0.182308 0
M  V30 4371 H 416.989 3.51594 -0.086207 0
M  V30 4372 H 416.863 3.38743 1.6593 0
M  V30 4373 H 419.25 2.39749 1.7206 0
M  V30 4374 H 419.331 2.55769 -0.0396831 0
M  V30 4375 H 418.975 5.07524 0.195422 0
M  V30 4376 H 418.905 4.88548 1.96542 0
M  V30 4377 H 421.396 3.63651 1.02794 0
M  V30 4378 H 421.709 7.58231 1.49353 0
M  V30 4379 H 420.054 6.81763 1.34999 0
M  V30 4380 H 423.245 4.52668 1.19202 0
M  V30 4381 H 423.418 6.32595 1.40455 0
M  V30 4382 N 416.824 -0.551391 1.4764 0
M  V30 4383 C 418.101 -1.31229 1.45046 0
M  V30 4384 C 418.481 -2.10563 0.150527 0
M  V30 4385 O 417.829 -2.11374 -0.867956 0
M  V30 4386 C 418.039 -2.21189 2.69956 0
M  V30 4387 C 419.387 -2.82021 3.1741 0
M  V30 4388 O 420.411 -2.31488 2.70724 0
M  V30 4389 O 419.27 -3.73885 3.98588 0
M  V30 4390 H 416.364 -0.591193 0.578291 0
M  V30 4391 H 418.91 -0.569813 1.59847 0
M  V30 4392 H 417.682 -1.62207 3.56096 0
M  V30 4393 H 417.305 -3.02722 2.57769 0
M  V30 4394 N 418.302 -1.35869 -0.798587 0
M  V30 4395 C 419.25 -1.29491 -1.93222 0
M  V30 4396 C 420.244 -0.18836 -1.6835 0
M  V30 4397 O 421.45 -0.354822 -1.76468 0
M  V30 4398 H 417.825 -0.402901 -0.63496 0
M  V30 4399 H 419.796 -2.25247 -1.9572 0
M  V30 4400 C 418.545 -1.09184 -3.30112 0
M  V30 4401 H 417.868 -1.93574 -3.49813 0
M  V30 4402 H 419.308 -1.08766 -4.09812 0
M  V30 4403 C 417.767 0.203959 -3.36282 0
M  V30 4404 O 418.297 1.19699 -3.83451 0
M  V30 4405 N 416.503 0.245488 -2.89561 0
M  V30 4406 H 416.05 -0.563223 -2.51367 0
M  V30 4407 H 416.008 1.11219 -2.94071 0
M  V30 4408 N 419.78 1.02168 -1.19998 0
M  V30 4409 C 421.029 1.75091 -1.0013 0
M  V30 4410 C 421.342 1.89923 0.467835 0
M  V30 4411 O 422.548 2.59888 0.785515 0
M  V30 4412 C 421.004 3.14892 -1.74273 0
M  V30 4413 C 420.612 3.0809 -3.25245 0
M  V30 4414 C 422.356 3.9206 -1.62755 0
M  V30 4415 C 420.263 4.42867 -3.91948 0
M  V30 4416 H 419.193 0.656394 -0.37103 0
M  V30 4417 H 421.844 1.14284 -1.43567 0
M  V30 4418 H 420.226 3.7621 -1.2362 0
M  V30 4419 H 421.4 2.5611 -3.83072 0
M  V30 4420 H 419.715 2.44416 -3.3712 0
M  V30 4421 H 422.312 4.91764 -2.09934 0
M  V30 4422 H 422.655 4.12199 -0.582894 0
M  V30 4423 H 423.188 3.37359 -2.10793 0
M  V30 4424 H 419.927 4.27931 -4.96543 0
M  V30 4425 H 419.447 4.94874 -3.3891 0
M  V30 4426 H 421.126 5.11728 -3.95909 0
M  V30 4427 N 421.258 1.00505 1.21394 0
M  V30 4428 C 422.188 0.585684 2.26035 0
M  V30 4429 C 423.169 -0.393525 1.65485 0
M  V30 4430 O 424.354 -0.281497 1.92149 0
M  V30 4431 C 421.484 -0.0884283 3.47187 0
M  V30 4432 C 420.438 0.810567 4.20254 0
M  V30 4433 C 419.764 0.00286382 5.347 0
M  V30 4434 C 421.064 2.1132 4.77641 0
M  V30 4435 H 422.758 1.46039 2.61368 0
M  V30 4436 H 420.304 0.703648 1.25638 0
M  V30 4437 H 422.257 -0.393286 4.19561 0
M  V30 4438 H 420.981 -0.997766 3.10986 0
M  V30 4439 H 419.64 1.09925 3.49731 0
M  V30 4440 H 419.288 -0.907765 4.94741 0
M  V30 4441 H 418.988 0.601444 5.84514 0
M  V30 4442 H 420.512 -0.295808 6.09883 0
M  V30 4443 H 421.926 1.87148 5.41893 0
M  V30 4444 H 420.323 2.66164 5.37845 0
M  V30 4445 H 421.393 2.78393 3.9702 0
M  V30 4446 N 422.737 -1.36956 0.779787 0
M  V30 4447 C 424.148 -1.82094 0.412156 0
M  V30 4448 C 424.499 -1.64926 -1.06273 0
M  V30 4449 O 423.624 -1.16483 -1.82375 0
M  V30 4450 C 424.219 -3.3059 0.741319 0
M  V30 4451 C 422.778 -3.73974 0.426641 0
M  V30 4452 C 421.925 -2.59368 0.980987 0
M  V30 4453 H 424.876 -1.25314 0.973758 0
M  V30 4454 H 424.897 -3.80489 0.028887 0
M  V30 4455 H 424.409 -3.43054 1.81482 0
M  V30 4456 H 422.51 -3.67076 -0.639215 0
M  V30 4457 H 422.623 -4.69778 0.940515 0
M  V30 4458 H 420.987 -2.51463 0.404757 0
M  V30 4459 H 421.77 -2.74621 2.06005 0
M  V30 4460 N 424.215 -0.530993 -1.48385 0
M  V30 4461 C 425.178 0.220497 -2.28137 0
M  V30 4462 C 426.178 0.866851 -1.35434 0
M  V30 4463 O 427.368 0.726746 -1.58316 0
M  V30 4464 C 424.5 1.31921 -3.1434 0
M  V30 4465 H 425.693 -0.479714 -2.96038 0
M  V30 4466 H 423.246 -0.286968 -1.53643 0
M  V30 4467 H 423.981 2.05264 -2.51072 0
M  V30 4468 H 423.766 0.86085 -3.82533 0
M  V30 4469 H 425.256 1.84776 -3.74497 0
M  V30 4470 N 425.693 1.55336 -0.266172 0
M  V30 4471 C 426.942 1.98574 0.353749 0
M  V30 4472 C 427.255 1.15789 1.57646 0
M  V30 4473 O 428.461 1.49129 2.26876 0
M  V30 4474 C 426.917 3.53403 0.680747 0
M  V30 4475 C 426.525 4.44953 -0.52165 0
M  V30 4476 C 428.269 4.05251 1.26379 0
M  V30 4477 C 426.176 5.91156 -0.169736 0
M  V30 4478 H 425.106 0.741643 0.135949 0
M  V30 4479 H 427.757 1.79743 -0.369421 0
M  V30 4480 H 426.139 3.68001 1.46257 0
M  V30 4481 H 427.313 4.42121 -1.29869 0
M  V30 4482 H 425.628 4.03691 -1.02093 0
M  V30 4483 H 428.225 5.12021 1.54074 0
M  V30 4484 H 428.568 3.53749 2.19471 0
M  V30 4485 H 429.101 3.94057 0.544447 0
M  V30 4486 H 425.84 6.46736 -1.0683 0
M  V30 4487 H 425.36 5.97079 0.570717 0
M  V30 4488 H 427.039 6.4655 0.241245 0
M  V30 4489 N 427.171 -0.0066808 1.57599 0
M  V30 4490 C 428.582 -0.550379 1.78403 0
M  V30 4491 C 428.933 -1.74339 0.900014 0
M  V30 4492 O 428.058 -2.16166 0.100713 0
M  V30 4493 C 428.653 -1.00523 3.23544 0
M  V30 4494 C 427.212 -1.49428 3.45468 0
M  V30 4495 C 426.359 -0.442444 2.73748 0
M  V30 4496 H 429.31 0.219508 1.57175 0
M  V30 4497 H 429.331 -1.87157 3.31289 0
M  V30 4498 H 428.843 -0.136735 3.87859 0
M  V30 4499 H 426.944 -2.3839 2.86358 0
M  V30 4500 H 427.057 -1.52635 4.54136 0
M  V30 4501 H 425.421 -0.902578 2.38171 0
M  V30 4502 H 426.204 0.416973 3.40758 0
M  V30 4503 N 428.649 -1.55105 -0.279332 0
M  V30 4504 C 429.596 -1.8755 -1.34513 0
M  V30 4505 C 430.566 -0.726384 -1.49375 0
M  V30 4506 O 431.751 -0.977063 -1.63884 0
M  V30 4507 C 428.891 -2.14738 -2.70151 0
M  V30 4508 C 428.004 -3.42285 -2.63562 0
M  V30 4509 C 427.139 -3.59206 -3.91337 0
M  V30 4510 C 426.178 -4.80467 -3.79233 0
M  V30 4511 N 425.315 -4.94079 -4.98829 0
M  V30 4512 H 430.155 -2.78456 -1.06143 0
M  V30 4513 H 427.692 -1.37867 -0.512936 0
M  V30 4514 H 429.65 -2.28501 -3.49061 0
M  V30 4515 H 428.28 -1.27075 -2.96735 0
M  V30 4516 H 427.332 -3.37029 -1.76397 0
M  V30 4517 H 428.644 -4.31328 -2.50515 0
M  V30 4518 H 427.798 -3.72751 -4.78687 0
M  V30 4519 H 426.537 -2.68337 -4.07243 0
M  V30 4520 H 425.542 -4.66932 -2.90266 0
M  V30 4521 H 426.767 -5.72765 -3.64852 0
M  V30 4522 H 424.713 -4.06139 -5.15158 0
M  V30 4523 H 424.63 -5.77156 -4.8829 0
M  V30 4524 H 425.898 -5.12003 -5.8777 0
M  V30 4525 N 430.127 0.543554 -1.4793 0
M  V30 4526 C 431.037 1.67657 -1.64098 0
M  V30 4527 C 432.053 1.65934 -0.523622 0
M  V30 4528 O 433.229 1.85133 -0.792943 0
M  V30 4529 C 430.294 3.04146 -1.66421 0
M  V30 4530 C 429.355 3.16831 -2.89684 0
M  V30 4531 C 428.588 4.46809 -2.91886 0
M  V30 4532 O 428.811 5.33095 -2.02895 0
M  V30 4533 O 427.745 4.63573 -3.83906 0
M  V30 4534 H 431.571 1.56957 -2.59997 0
M  V30 4535 H 429.156 0.715116 -1.31173 0
M  V30 4536 H 431.038 3.85346 -1.70548 0
M  V30 4537 H 429.713 3.152 -0.736923 0
M  V30 4538 H 428.62 2.34977 -2.91095 0
M  V30 4539 H 429.953 3.10687 -3.81752 0
M  V30 4540 N 431.605 1.3629 0.791371 0
M  V30 4541 C 432.833 1.33562 1.58016 0
M  V30 4542 C 433.248 -0.0835616 1.88615 0
M  V30 4543 O 432.605 -1.0399 1.49974 0
M  V30 4544 C 432.656 2.15517 2.90232 0
M  V30 4545 O 432.377 3.51902 2.60953 0
M  V30 4546 C 433.878 2.20546 3.84544 0
M  V30 4547 H 431.098 0.458226 0.490173 0
M  V30 4548 H 433.642 1.79361 0.982345 0
M  V30 4549 H 431.797 1.73278 3.46487 0
M  V30 4550 H 432.211 3.94644 3.4548 0
M  V30 4551 H 433.685 2.82252 4.74382 0
M  V30 4552 H 434.162 1.20838 4.2225 0
M  V30 4553 H 434.768 2.63013 3.34222 0
M  V30 4554 N 433.083 -1.0153 1.20538 0
M  V30 4555 C 434.329 -1.75408 1.01783 0
M  V30 4556 C 434.662 -1.88943 -0.448814 0
M  V30 4557 O 433.937 -1.4162 -1.33319 0
M  V30 4558 C 434.22 -3.17255 1.70356 0
M  V30 4559 C 434.073 -3.11508 3.24473 0
M  V30 4560 C 435.392 -4.15955 1.43769 0
M  V30 4561 H 432.511 -0.636713 0.371167 0
M  V30 4562 H 435.153 -1.18436 1.4857 0
M  V30 4563 H 433.303 -3.65898 1.30578 0
M  V30 4564 H 434.975 -2.70658 3.73553 0
M  V30 4565 H 433.218 -2.4887 3.55311 0
M  V30 4566 H 433.889 -4.11784 3.67611 0
M  V30 4567 H 436.365 -3.75973 1.7828 0
M  V30 4568 H 435.241 -5.13368 1.94279 0
M  V30 4569 H 435.502 -4.40586 0.365564 0
M  V30 4570 N 434.561 -1.01147 -1.20859 0
M  V30 4571 C 435.972 -0.730205 -1.71828 0
M  V30 4572 C 436.323 0.751662 -1.8123 0
M  V30 4573 O 435.448 1.58686 -1.47132 0
M  V30 4574 C 436.043 -1.31885 -3.12077 0
M  V30 4575 C 434.602 -1.08656 -3.60376 0
M  V30 4576 C 433.749 -1.42769 -2.37723 0
M  V30 4577 H 436.7 -1.18158 -1.05945 0
M  V30 4578 H 436.721 -0.706793 -3.73878 0
M  V30 4579 H 436.233 -2.39737 -3.05201 0
M  V30 4580 H 434.334 -0.0254814 -3.72591 0
M  V30 4581 H 434.447 -1.76301 -4.45483 0
M  V30 4582 H 432.811 -0.846603 -2.40218 0
M  V30 4583 H 433.594 -2.51666 -2.33493 0
M  V30 4584 N 436.039 1.36541 -0.78704 0
M  V30 4585 C 437.002 2.28413 -0.189778 0
M  V30 4586 C 438.002 1.48719 0.611499 0
M  V30 4587 O 439.192 1.68737 0.432842 0
M  V30 4588 C 436.324 3.32824 0.737638 0
M  V30 4589 H 437.517 2.82743 -0.999831 0
M  V30 4590 H 435.07 1.46065 -0.556298 0
M  V30 4591 H 435.805 2.83646 1.57212 0
M  V30 4592 H 435.59 3.91752 0.165044 0
M  V30 4593 H 437.08 4.0144 1.15047 0
M  V30 4594 N 437.518 0.538854 1.48102 0
M  V30 4595 C 438.765 0.0080018 2.02498 0
M  V30 4596 C 439.093 -1.33437 1.41509 0
M  V30 4597 O 438.348 -1.87709 0.553507 0
M  V30 4598 C 438.647 -0.153808 3.57069 0
M  V30 4599 C 438.313 1.11533 4.36888 0
M  V30 4600 C 436.975 1.46314 4.58417 0
M  V30 4601 C 439.327 1.95718 4.83057 0
M  V30 4602 C 436.655 2.6516 5.23361 0
M  V30 4603 C 439.007 3.13751 5.49312 0
M  V30 4604 C 437.671 3.48866 5.69077 0
M  V30 4605 H 436.941 0.00292807 0.740994 0
M  V30 4606 H 439.588 0.706668 1.77984 0
M  V30 4607 H 437.893 -0.935309 3.80472 0
M  V30 4608 H 439.59 -0.579607 3.96789 0
M  V30 4609 H 436.18 0.834484 4.20398 0
M  V30 4610 H 440.364 1.70158 4.66219 0
M  V30 4611 H 435.62 2.92558 5.36861 0
M  V30 4612 H 439.794 3.79282 5.84053 0
M  V30 4613 H 437.421 4.41054 6.19173 0
M  V30 4614 N 438.996 -1.55193 0.274407 0
M  V30 4615 C 439.943 -2.225 -0.613374 0
M  V30 4616 C 440.913 -1.19823 -1.15029 0
M  V30 4617 O 442.098 -1.48362 -1.19973 0
M  V30 4618 C 439.238 -2.94927 -1.79199 0
M  V30 4619 C 438.351 -4.12322 -1.28899 0
M  V30 4620 C 437.486 -4.72394 -2.42934 0
M  V30 4621 C 436.525 -5.81984 -1.89634 0
M  V30 4622 N 435.662 -6.36123 -2.9714 0
M  V30 4623 H 440.502 -2.97982 -0.032756 0
M  V30 4624 H 438.039 -1.47099 -0.00440146 0
M  V30 4625 H 439.997 -3.35134 -2.48478 0
M  V30 4626 H 438.627 -2.2187 -2.34465 0
M  V30 4627 H 437.679 -3.7724 -0.489327 0
M  V30 4628 H 438.991 -4.91355 -0.858587 0
M  V30 4629 H 438.145 -5.15317 -3.20208 0
M  V30 4630 H 436.884 -3.92636 -2.8929 0
M  V30 4631 H 435.889 -5.38511 -1.1084 0
M  V30 4632 H 437.114 -6.6361 -1.44215 0
M  V30 4633 H 435.06 -5.59259 -3.42878 0
M  V30 4634 H 434.977 -7.10427 -2.58515 0
M  V30 4635 H 436.245 -6.83704 -3.74391 0
M  V30 4636 N 440.474 -0.00167713 -1.576 0
M  V30 4637 C 441.384 1.00548 -2.1196 0
M  V30 4638 C 442.4 1.3758 -1.06526 0
M  V30 4639 O 443.576 1.46278 -1.38436 0
M  V30 4640 C 440.641 2.27809 -2.6135 0
M  V30 4641 C 439.702 1.97074 -3.81393 0
M  V30 4642 C 438.935 3.18267 -4.28417 0
M  V30 4643 O 439.158 4.30009 -3.74765 0
M  V30 4644 O 438.092 3.02167 -5.20556 0
M  V30 4645 H 441.918 0.573373 -2.98238 0
M  V30 4646 H 439.503 0.217255 -1.47812 0
M  V30 4647 H 441.385 3.02568 -2.93309 0
M  V30 4648 H 440.06 2.70254 -1.78169 0
M  V30 4649 H 438.967 1.19785 -3.54404 0
M  V30 4650 H 440.3 1.59464 -4.65652 0
M  V30 4651 N 441.952 1.55251 0.271103 0
M  V30 4652 C 442.915 1.87484 1.31842 0
M  V30 4653 C 443.915 0.749545 1.42262 0
M  V30 4654 O 445.105 1.01771 1.4138 0
M  V30 4655 C 442.237 2.0818 2.69951 0
M  V30 4656 H 443.43 2.81108 1.0449 0
M  V30 4657 H 440.983 1.47771 0.509258 0
M  V30 4658 H 441.718 1.16944 3.02481 0
M  V30 4659 H 441.503 2.90114 2.63774 0
M  V30 4660 H 442.993 2.34385 3.4562 0
M  V30 4661 N 443.43 -0.535701 1.48216 0
M  V30 4662 C 444.36 -1.65014 1.65204 0
M  V30 4663 C 445.341 -1.62554 0.501011 0
M  V30 4664 O 446.526 -1.7984 0.732886 0
M  V30 4665 C 443.656 -3.03616 1.68626 0
M  V30 4666 C 442.61 -3.20932 2.83172 0
M  V30 4667 C 441.936 -4.60537 2.71679 0
M  V30 4668 C 443.236 -3.04249 4.24535 0
M  V30 4669 H 444.93 -1.51053 2.58502 0
M  V30 4670 H 442.476 -0.725262 1.24402 0
M  V30 4671 H 444.429 -3.81446 1.79099 0
M  V30 4672 H 443.153 -3.18587 0.719026 0
M  V30 4673 H 441.812 -2.45517 2.72244 0
M  V30 4674 H 441.46 -4.72336 1.72937 0
M  V30 4675 H 441.16 -4.73069 3.48538 0
M  V30 4676 H 442.684 -5.40475 2.84112 0
M  V30 4677 H 444.098 -3.71877 4.36326 0
M  V30 4678 H 442.495 -3.28278 5.02348 0
M  V30 4679 H 443.565 -2.00739 4.41397 0
M  V30 4680 N 444.908 -1.36708 -0.784132 0
M  V30 4681 C 445.818 -1.3363 -1.92822 0
M  V30 4682 C 446.834 -0.237686 -1.72369 0
M  V30 4683 O 448.01 -0.470962 -1.95816 0
M  V30 4684 C 445.075 -1.13011 -3.27764 0
M  V30 4685 C 444.136 -2.32397 -3.60957 0
M  V30 4686 C 443.369 -2.12752 -4.89461 0
M  V30 4687 O 443.592 -1.10541 -5.59586 0
M  V30 4688 O 442.526 -3.00653 -5.21432 0
M  V30 4689 H 446.352 -2.29964 -1.98369 0
M  V30 4690 H 443.937 -1.1731 -0.925136 0
M  V30 4691 H 445.819 -1.03451 -4.08504 0
M  V30 4692 H 444.494 -0.19743 -3.23097 0
M  V30 4693 H 443.401 -2.47527 -2.80502 0
M  V30 4694 H 444.734 -3.2419 -3.70354 0
M  V30 4695 N 446.386 1.0089 -1.21074 0
M  V30 4696 C 447.296 2.13039 -0.982425 0
M  V30 4697 C 448.312 1.73881 0.0642161 0
M  V30 4698 O 449.488 2.01012 -0.12496 0
M  V30 4699 C 446.553 3.42377 -0.545803 0
M  V30 4700 C 445.614 3.95731 -1.6642 0
M  V30 4701 C 444.847 5.18896 -1.24832 0
M  V30 4702 O 445.07 5.70273 -0.120265 0
M  V30 4703 O 444.004 5.65597 -2.05873 0
M  V30 4704 H 447.83 2.35175 -1.92163 0
M  V30 4705 H 445.415 1.1142 -0.995285 0
M  V30 4706 H 447.297 4.20244 -0.311912 0
M  V30 4707 H 445.972 3.21639 0.364727 0
M  V30 4708 H 444.879 3.19108 -1.95246 0
M  V30 4709 H 446.212 4.20872 -2.55201 0
M  V30 4710 N 447.864 1.01787 1.20321 0
M  V30 4711 C 449.28 0.732951 1.41774 0
M  V30 4712 C 449.48 -0.686883 1.89431 0
M  V30 4713 O 448.536 -1.45446 2.06402 0
M  V30 4714 C 449.849 1.75973 2.43832 0
M  V30 4715 C 451.397 1.77802 2.57596 0
M  V30 4716 C 451.872 2.7941 3.62897 0
M  V30 4717 N 453.363 2.78157 3.70382 0
M  V30 4718 C 454.098 3.53434 4.51521 0
M  V30 4719 N 453.594 4.38392 5.36455 0
M  V30 4720 N 455.387 3.42026 4.46066 0
M  V30 4721 H 447.538 1.93447 0.877035 0
M  V30 4722 H 449.801 0.835712 0.447536 0
M  V30 4723 H 449.507 2.77699 2.15815 0
M  V30 4724 H 449.381 1.57292 3.4284 0
M  V30 4725 H 451.768 0.767602 2.84942 0
M  V30 4726 H 451.849 2.00557 1.58779 0
M  V30 4727 H 451.493 3.80616 3.36295 0
M  V30 4728 H 451.423 2.53916 4.61339 0
M  V30 4729 H 453.914 2.16531 3.09714 0
M  V30 4730 H 454.227 4.92596 5.95457 0
M  V30 4731 H 452.572 4.4247 5.35953 0
M  V30 4732 H 455.763 2.75075 3.78749 0
M  V30 4733 H 455.936 4.00946 5.09064 0
M  V30 4734 N 449.342 -1.36122 0.79427 0
M  V30 4735 C 450.289 -2.29982 0.194101 0
M  V30 4736 C 451.259 -1.52214 -0.664833 0
M  V30 4737 O 452.444 -1.80702 -0.612498 0
M  V30 4738 C 449.584 -3.38706 -0.661244 0
M  V30 4739 C 448.697 -4.31456 0.216766 0
M  V30 4740 C 447.832 -5.27265 -0.645411 0
M  V30 4741 C 446.871 -6.11653 0.233756 0
M  V30 4742 N 446.008 -6.99636 -0.587682 0
M  V30 4743 H 450.848 -2.80722 0.999965 0
M  V30 4744 H 448.385 -1.38172 0.504677 0
M  V30 4745 H 450.343 -4.00394 -1.17219 0
M  V30 4746 H 448.973 -2.89274 -1.43249 0
M  V30 4747 H 448.025 -3.7088 0.845724 0
M  V30 4748 H 449.337 -4.90724 0.893973 0
M  V30 4749 H 448.491 -5.94266 -1.22198 0
M  V30 4750 H 447.23 -4.68463 -1.35623 0
M  V30 4751 H 446.235 -5.4361 0.82269 0
M  V30 4752 H 447.46 -6.72531 0.942247 0
M  V30 4753 H 445.406 -6.43337 -1.2827 0
M  V30 4754 H 445.323 -7.55993 0.0317402 0
M  V30 4755 H 446.591 -7.71001 -1.14792 0
M  V30 4756 N 450.82 -0.546701 -1.47814 0
M  V30 4757 C 452.067 -0.0187407 -2.02491 0
M  V30 4758 C 452.395 1.32685 -1.42215 0
M  V30 4759 O 451.65 1.87413 -0.563454 0
M  V30 4760 C 451.949 0.134869 -3.57145 0
M  V30 4761 C 451.615 -1.13849 -4.3629 0
M  V30 4762 C 450.277 -1.48743 -4.57634 0
M  V30 4763 C 452.629 -1.98277 -4.82012 0
M  V30 4764 C 449.957 -2.67932 -5.21948 0
M  V30 4765 C 452.309 -3.16659 -5.4764 0
M  V30 4766 C 450.973 -3.51879 -5.67219 0
M  V30 4767 H 450.243 -0.0068577 -0.740968 0
M  V30 4768 H 452.89 -0.716097 -1.77607 0
M  V30 4769 H 451.195 0.915118 -3.80963 0
M  V30 4770 H 452.892 0.558556 -3.97091 0
M  V30 4771 H 449.482 -0.856767 -4.19949 0
M  V30 4772 H 453.666 -1.72628 -4.6531 0
M  V30 4773 H 448.922 -2.95401 -5.35302 0
M  V30 4774 H 453.096 -3.82374 -5.82033 0
M  V30 4775 H 450.723 -4.44331 -6.16825 0
M  V30 4776 N 452.299 1.55045 -0.282633 0
M  V30 4777 C 453.715 1.59441 0.0712997 0
M  V30 4778 C 453.915 1.2998 1.53972 0
M  V30 4779 O 452.971 1.06431 2.28973 0
M  V30 4780 C 454.284 2.99097 -0.310104 0
M  V30 4781 C 455.832 3.1194 -0.257343 0
M  V30 4782 C 456.307 4.53875 -0.613297 0
M  V30 4783 N 457.798 4.5974 -0.565134 0
M  V30 4784 C 458.533 5.67603 -0.81326 0
M  V30 4785 N 458.029 6.83582 -1.1264 0
M  V30 4786 N 459.822 5.57187 -0.741553 0
M  V30 4787 H 451.973 1.72458 -1.23984 0
M  V30 4788 H 454.236 0.804549 -0.501403 0
M  V30 4789 H 453.942 3.25516 -1.33163 0
M  V30 4790 H 453.816 3.75616 0.345366 0
M  V30 4791 H 456.203 2.85281 0.754905 0
M  V30 4792 H 456.284 2.37618 -0.947178 0
M  V30 4793 H 455.928 4.81261 -1.62327 0
M  V30 4794 H 455.858 5.26508 0.09841 0
M  V30 4795 H 458.349 3.76427 -0.333294 0
M  V30 4796 H 458.662 7.6175 -1.30219 0
M  V30 4797 H 457.007 6.85179 -1.16425 0
M  V30 4798 H 460.198 4.65457 -0.496705 0
M  V30 4799 H 460.371 6.41171 -0.938306 0
M  V30 4800 N 453.777 0.010035 1.57597 0
M  V30 4801 C 455.026 -0.671945 1.90178 0
M  V30 4802 C 455.339 -1.74376 0.886131 0
M  V30 4803 O 456.545 -2.48107 1.10252 0
M  V30 4804 C 455.001 -1.24636 3.3763 0
M  V30 4805 C 454.609 -0.208838 4.47513 0
M  V30 4806 C 456.353 -1.90595 3.79307 0
M  V30 4807 C 454.26 -0.793814 5.86048 0
M  V30 4808 H 453.19 -0.25474 0.709665 0
M  V30 4809 H 455.841 0.0722206 1.83358 0
M  V30 4810 H 454.223 -2.04152 3.3932 0
M  V30 4811 H 455.397 0.562463 4.57354 0
M  V30 4812 H 453.712 0.350889 4.14919 0
M  V30 4813 H 456.309 -2.35284 4.80151 0
M  V30 4814 H 456.652 -2.74074 3.13352 0
M  V30 4815 H 457.185 -1.17798 3.79958 0
M  V30 4816 H 453.924 0.00240855 6.555 0
M  V30 4817 H 453.444 -1.53404 5.79851 0
M  V30 4818 H 455.123 -1.2894 6.34022 0
M  V30 4819 N 455.255 -1.55392 -0.262866 0
M  V30 4820 C 456.188 -1.8391 -1.35101 0
M  V30 4821 C 457.166 -0.692901 -1.47097 0
M  V30 4822 O 458.35 -0.936979 -1.63563 0
M  V30 4823 C 455.477 -2.00969 -2.72634 0
M  V30 4824 C 454.523 -3.23559 -2.7787 0
M  V30 4825 S 455.356 -4.80647 -2.3609 0
M  V30 4826 C 456.512 -5.00692 -3.75578 0
M  V30 4827 H 456.745 -2.75918 -1.1071 0
M  V30 4828 H 454.278 -1.47294 -0.463029 0
M  V30 4829 H 456.236 -2.11482 -3.51832 0
M  V30 4830 H 454.897 -1.09832 -2.94272 0
M  V30 4831 H 454.09 -3.32413 -3.78837 0
M  V30 4832 H 453.692 -3.11689 -2.06702 0
M  V30 4833 H 455.984 -4.87055 -4.70939 0
M  V30 4834 H 456.927 -6.02717 -3.71669 0
M  V30 4835 H 457.335 -4.28619 -3.6735 0
M  V30 4836 N 456.733 0.527833 -1.48498 0
M  V30 4837 C 458.144 1.10975 -1.50138 0
M  V30 4838 C 458.495 1.943 -0.272378 0
M  V30 4839 O 457.62 2.07319 0.620301 0
M  V30 4840 C 458.215 2.01927 -2.72049 0
M  V30 4841 C 456.774 2.55332 -2.76554 0
M  V30 4842 C 455.921 1.32341 -2.43683 0
M  V30 4843 H 458.872 0.312986 -1.55583 0
M  V30 4844 H 458.893 2.86244 -2.50689 0
M  V30 4845 H 458.405 1.41254 -3.61481 0
M  V30 4846 H 456.506 3.19721 -1.91336 0
M  V30 4847 H 456.619 2.94319 -3.78038 0
M  V30 4848 H 454.983 1.63989 -1.94884 0
M  V30 4849 H 455.766 0.734165 -3.35358 0
M  V30 4850 N 458.211 1.37122 0.776871 0
M  V30 4851 C 459.159 1.32549 1.91138 0
M  V30 4852 C 460.153 0.215119 1.68029 0
M  V30 4853 O 461.359 0.382852 1.75881 0
M  V30 4854 H 457.734 0.412952 0.62847 0
M  V30 4855 H 459.705 2.28332 1.92112 0
M  V30 4856 C 458.454 1.14422 3.28333 0
M  V30 4857 H 457.777 1.99115 3.46689 0
M  V30 4858 H 459.217 1.15272 4.0803 0
M  V30 4859 C 457.676 -0.150434 3.36564 0
M  V30 4860 O 458.206 -1.13584 3.85307 0
M  V30 4861 N 456.412 -0.19939 2.89915 0
M  V30 4862 H 455.959 0.603142 2.5044 0
M  V30 4863 H 455.917 -1.06526 2.95803 0
M  V30 4864 N 459.689 -1.00246 1.21608 0
M  V30 4865 C 460.621 -2.09244 0.935401 0
M  V30 4866 C 461.634 -1.62592 -0.0823594 0
M  V30 4867 O 462.823 -1.77865 0.150456 0
M  V30 4868 C 459.923 -3.36724 0.383453 0
M  V30 4869 C 459.096 -4.1245 1.45615 0
M  V30 4870 C 458.155 -5.18219 0.912991 0
M  V30 4871 O 457.181 -5.46337 1.59701 0
M  V30 4872 N 458.383 -5.7987 -0.270478 0
M  V30 4873 H 461.148 -2.33905 1.87373 0
M  V30 4874 H 458.709 -1.16748 1.12167 0
M  V30 4875 H 460.701 -4.047 0.00562157 0
M  V30 4876 H 459.271 -3.09201 -0.459758 0
M  V30 4877 H 458.491 -3.39241 2.00772 0
M  V30 4878 H 459.779 -4.59819 2.17817 0
M  V30 4879 H 459.177 -5.59381 -0.843195 0
M  V30 4880 H 457.734 -6.49126 -0.589794 0
M  V30 4881 N 461.167 -1.02423 -1.1978 0
M  V30 4882 C 462.397 -0.736387 -1.93031 0
M  V30 4883 C 462.805 0.708023 -1.75453 0
M  V30 4884 O 462.148 1.4927 -1.07071 0
M  V30 4885 C 462.21 -1.00194 -3.45255 0
M  V30 4886 C 461.874 -2.43698 -3.86601 0
M  V30 4887 C 462.871 -3.41814 -3.91738 0
M  V30 4888 C 460.556 -2.77975 -4.18372 0
M  V30 4889 C 462.55 -4.72265 -4.28071 0
M  V30 4890 C 460.237 -4.08636 -4.54378 0
M  V30 4891 C 461.235 -5.05592 -4.59201 0
M  V30 4892 O 460.923 -6.33914 -4.94376 0
M  V30 4893 H 460.655 -0.269116 -0.620123 0
M  V30 4894 H 463.209 -1.37043 -1.52998 0
M  V30 4895 H 461.439 -0.310747 -3.85449 0
M  V30 4896 H 463.128 -0.704488 -3.9974 0
M  V30 4897 H 463.894 -3.16671 -3.67348 0
M  V30 4898 H 459.773 -2.0319 -4.13805 0
M  V30 4899 H 463.317 -5.4794 -4.3175 0
M  V30 4900 H 459.214 -4.33556 -4.78226 0
M  V30 4901 H 459.982 -6.38317 -5.12341 0
M  V30 4902 N 462.645 1.35699 -0.801477 0
M  V30 4903 C 463.575 2.32436 -0.222658 0
M  V30 4904 C 464.556 1.5723 0.649057 0
M  V30 4905 O 465.741 1.85324 0.580387 0
M  V30 4906 C 462.871 3.41469 0.633719 0
M  V30 4907 C 461.825 4.27774 -0.139083 0
M  V30 4908 C 461.151 5.28082 0.838666 0
M  V30 4909 C 462.451 5.04946 -1.33517 0
M  V30 4910 H 464.145 2.81094 -1.03086 0
M  V30 4911 H 461.691 1.35146 -0.497155 0
M  V30 4912 H 463.644 4.08143 1.04868 0
M  V30 4913 H 462.368 2.91408 1.47475 0
M  V30 4914 H 461.027 3.62673 -0.535156 0
M  V30 4915 H 460.675 4.7429 1.67506 0
M  V30 4916 H 460.375 5.86695 0.32594 0
M  V30 4917 H 461.899 5.97628 1.25194 0
M  V30 4918 H 463.313 5.64593 -0.995349 0
M  V30 4919 H 461.71 5.7303 -1.78202 0
M  V30 4920 H 462.78 4.35886 -2.12442 0
M  V30 4921 N 464.123 0.554532 1.47522 0
M  V30 4922 C 465.348 0.0322661 2.07375 0
M  V30 4923 C 465.773 -1.25079 1.40488 0
M  V30 4924 O 465.131 -1.74859 0.47896 0
M  V30 4925 C 465.179 -0.149397 3.6029 0
M  V30 4926 O 464.283 -1.21259 3.9417 0
M  V30 4927 H 463.624 0.0501228 0.662106 0
M  V30 4928 H 466.154 0.769452 1.8958 0
M  V30 4929 H 466.164 -0.364437 4.06369 0
M  V30 4930 H 464.839 0.787743 4.08372 0
M  V30 4931 H 463.416 -0.97825 3.5984 0
M  V30 4932 N 465.601 -1.54893 0.290851 0
M  V30 4933 C 466.564 -2.21824 -0.576784 0
M  V30 4934 C 467.564 -1.20104 -1.06919 0
M  V30 4935 O 468.754 -1.44906 -0.966843 0
M  V30 4936 C 465.886 -2.89662 -1.79747 0
M  V30 4937 H 467.079 -2.99899 0.00784051 0
M  V30 4938 H 464.632 -1.56245 0.0415934 0
M  V30 4939 H 465.367 -2.15639 -2.42219 0
M  V30 4940 H 465.152 -3.64219 -1.45214 0
M  V30 4941 H 466.642 -3.4075 -2.4141 0
M  V30 4942 N 467.08 -0.0183926 -1.57589 0
M  V30 4943 C 468.013 1.00148 -2.0505 0
M  V30 4944 C 468.991 1.32387 -0.944058 0
M  V30 4945 O 470.175 1.44237 -1.21358 0
M  V30 4946 C 467.302 2.32435 -2.46357 0
M  V30 4947 C 466.348 2.15731 -3.67916 0
M  V30 4948 S 467.181 1.46613 -5.15039 0
M  V30 4949 C 468.337 2.80293 -5.59631 0
M  V30 4950 H 468.57 0.597429 -2.91235 0
M  V30 4951 H 466.103 0.193002 -1.53189 0
M  V30 4952 H 468.061 3.0849 -2.70822 0
M  V30 4953 H 466.722 2.69975 -1.60537 0
M  V30 4954 H 465.915 3.13502 -3.9463 0
M  V30 4955 H 465.517 1.4782 -3.43548 0
M  V30 4956 H 467.809 3.76557 -5.63215 0
M  V30 4957 H 468.752 2.58256 -6.59325 0
M  V30 4958 H 469.16 2.85047 -4.87246 0
M  V30 4959 N 468.558 1.5553 0.254621 0
M  V30 4960 C 469.505 1.89666 1.31512 0
M  V30 4961 C 470.475 0.750057 1.482 0
M  V30 4962 O 471.66 1.00301 1.62309 0
M  V30 4963 C 468.8 2.19009 2.667 0
M  V30 4964 C 467.913 3.46435 2.58083 0
M  V30 4965 C 467.048 3.65386 3.85573 0
M  V30 4966 C 466.087 4.8644 3.71541 0
M  V30 4967 N 465.224 5.01952 4.90906 0
M  V30 4968 H 470.064 2.80109 1.017 0
M  V30 4969 H 467.601 1.38666 0.490938 0
M  V30 4970 H 469.559 2.34025 3.45381 0
M  V30 4971 H 468.189 1.31779 2.94676 0
M  V30 4972 H 467.241 3.39792 1.71013 0
M  V30 4973 H 468.553 4.35258 2.43622 0
M  V30 4974 H 467.707 3.80319 4.72697 0
M  V30 4975 H 466.446 2.74781 4.02922 0
M  V30 4976 H 465.451 4.71491 2.82801 0
M  V30 4977 H 466.676 5.78497 3.55694 0
M  V30 4978 H 464.622 4.14283 5.08631 0
M  V30 4979 H 464.539 5.84851 4.79046 0
M  V30 4980 H 465.807 5.21289 5.7955 0
M  V30 4981 N 470.036 -0.519951 1.48776 0
M  V30 4982 C 470.968 -1.63973 1.60142 0
M  V30 4983 C 471.981 -1.55404 0.485117 0
M  V30 4984 O 473.17 -1.61682 0.756391 0
M  V30 4985 C 470.27 -3.02676 1.52449 0
M  V30 4986 C 469.443 -3.36624 2.79291 0
M  V30 4987 C 468.502 -4.54652 2.64912 0
M  V30 4988 O 467.528 -4.57374 3.38818 0
M  V30 4989 N 468.73 -5.53432 1.75195 0
M  V30 4990 H 471.495 -1.54656 2.56713 0
M  V30 4991 H 469.056 -0.707439 1.45626 0
M  V30 4992 H 471.048 -3.79525 1.4051 0
M  V30 4993 H 469.618 -3.06018 0.638125 0
M  V30 4994 H 468.838 -2.48855 3.0572 0
M  V30 4995 H 470.126 -3.56094 3.6342 0
M  V30 4996 H 469.524 -5.54018 1.14371 0
M  V30 4997 H 468.081 -6.29459 1.69189 0
M  V30 4998 N 471.514 -1.37532 -0.769588 0
M  V30 4999 C 472.762 -1.32597 -1.5252 0
M  V30 5000 C 473.083 0.0884294 -1.94799 0
M  V30 5001 O 472.353 1.03289 -1.66458 0
M  V30 5002 H 470.933 -0.487846 -0.565699 0
M  V30 5003 H 473.595 -1.72044 -0.915806 0
M  V30 5004 H 472.691 -1.96643 -2.42359 0
M  V30 5005 N 472.992 0.995999 -1.22138 0
M  V30 5006 C 474.217 1.77601 -1.0711 0
M  V30 5007 C 474.642 1.84339 0.374264 0
M  V30 5008 O 474 1.29359 1.27028 0
M  V30 5009 C 474.048 3.18897 -1.68336 0
M  V30 5010 O 473.152 4.01663 -0.934928 0
M  V30 5011 H 472.493 0.547011 -0.376397 0
M  V30 5012 H 475.023 1.25137 -1.6187 0
M  V30 5013 H 475.033 3.69539 -1.72931 0
M  V30 5014 H 473.708 3.13308 -2.73516 0
M  V30 5015 H 472.285 3.60204 -0.964751 0
M  V30 5016 N 474.47 1.03057 1.19235 0
M  V30 5017 C 475.38 0.622922 2.26179 0
M  V30 5018 C 476.396 -0.346113 1.70523 0
M  V30 5019 O 477.572 -0.203572 2.00369 0
M  V30 5020 C 474.637 -0.0182063 3.46695 0
M  V30 5021 C 473.698 0.998546 4.17526 0
M  V30 5022 C 472.931 0.387917 5.32288 0
M  V30 5023 O 473.154 -0.808668 5.64639 0
M  V30 5024 O 472.088 1.1116 5.91546 0
M  V30 5025 H 475.914 1.51363 2.63292 0
M  V30 5026 H 473.499 0.800856 1.26122 0
M  V30 5027 H 475.381 -0.375606 4.19723 0
M  V30 5028 H 474.056 -0.882895 3.11427 0
M  V30 5029 H 472.963 1.40756 3.4661 0
M  V30 5030 H 474.296 1.83366 4.56769 0
M  V30 5031 N 475.948 -1.35272 0.808662 0
M  V30 5032 C 476.896 -2.31663 0.208606 0
M  V30 5033 C 477.89 -1.56731 -0.642778 0
M  V30 5034 O 479.096 -1.71843 -0.53571 0
M  V30 5035 H 475.471 -0.750421 0.0486993 0
M  V30 5036 H 477.442 -2.79814 1.03666 0
M  V30 5037 C 476.191 -3.42008 -0.626573 0
M  V30 5038 H 475.514 -3.99795 0.0192103 0
M  V30 5039 H 476.954 -4.11727 -1.01278 0
M  V30 5040 C 475.413 -2.85226 -1.79298 0
M  V30 5041 O 475.943 -2.78945 -2.89055 0
M  V30 5042 N 474.149 -2.42245 -1.60516 0
M  V30 5043 H 473.696 -2.47554 -0.712375 0
M  V30 5044 H 473.654 -2.04603 -2.38715 0
M  V30 5045 N 477.426 -0.562348 -1.47226 0
M  V30 5046 C 478.376 0.202967 -2.27095 0
M  V30 5047 C 479.36 0.880611 -1.34663 0
M  V30 5048 O 480.552 0.778069 -1.58981 0
M  V30 5049 C 477.681 1.22906 -3.20545 0
M  V30 5050 C 476.767 0.554566 -4.20459 0
M  V30 5051 N 477.158 -0.378295 -5.04383 0
M  V30 5052 C 475.456 0.807854 -4.38623 0
M  V30 5053 C 476.157 -0.770583 -5.76573 0
M  V30 5054 N 475.133 -0.124263 -5.43458 0
M  V30 5055 H 478.935 -0.514196 -2.89367 0
M  V30 5056 H 476.449 -0.382655 -1.57827 0
M  V30 5057 H 478.446 1.79134 -3.76453 0
M  V30 5058 H 477.106 1.94726 -2.59831 0
M  V30 5059 H 478.117 -0.75274 -5.124 0
M  V30 5060 H 474.794 1.51418 -3.89075 0
M  V30 5061 H 476.184 -1.53742 -6.54074 0
M  V30 5062 N 478.904 1.54736 -0.299062 0
M  V30 5063 C 479.851 2.23448 0.577899 0
M  V30 5064 C 480.821 1.21637 1.13109 0
M  V30 5065 O 482.006 1.50252 1.17597 0
M  V30 5066 C 479.146 2.9774 1.74484 0
M  V30 5067 C 478.259 4.1432 1.22323 0
M  V30 5068 C 477.394 4.76199 2.35388 0
M  V30 5069 C 476.433 5.84927 1.80351 0
M  V30 5070 N 475.57 6.4077 2.86982 0
M  V30 5071 H 480.41 2.97996 -0.0146545 0
M  V30 5072 H 477.947 1.47088 -0.0190013 0
M  V30 5073 H 479.905 3.39045 2.43114 0
M  V30 5074 H 478.535 2.25572 2.30905 0
M  V30 5075 H 477.587 3.7797 0.429249 0
M  V30 5076 H 478.899 4.92659 0.780309 0
M  V30 5077 H 478.053 5.20346 3.11969 0
M  V30 5078 H 476.792 3.97188 2.83006 0
M  V30 5079 H 475.797 5.40207 1.02259 0
M  V30 5080 H 477.022 6.65821 1.3364 0
M  V30 5081 H 474.968 5.64643 3.33938 0
M  V30 5082 H 474.885 7.1445 2.4718 0
M  V30 5083 H 476.153 6.89574 3.63466 0
M  V30 5084 N 480.382 0.0267497 1.57577 0
M  V30 5085 C 481.63 -0.651116 1.91324 0
M  V30 5086 C 481.951 -1.72804 0.90353 0
M  V30 5087 O 481.221 -1.95822 -0.0552946 0
M  V30 5088 H 479.801 -0.243491 0.706202 0
M  V30 5089 H 482.463 0.0739935 1.94759 0
M  V30 5090 H 481.559 -1.10536 2.9187 0
M  V30 5091 N 481.861 -1.55662 -0.24637 0
M  V30 5092 C 483.108 -1.77519 -0.974335 0
M  V30 5093 C 483.436 -0.591165 -1.85298 0
M  V30 5094 O 482.691 0.425497 -1.91018 0
M  V30 5095 C 482.99 -3.04885 -1.86494 0
M  V30 5096 C 482.656 -4.36209 -1.14161 0
M  V30 5097 C 481.318 -4.71896 -0.941701 0
M  V30 5098 C 483.67 -5.17391 -0.628957 0
M  V30 5099 C 480.998 -5.86299 -0.216852 0
M  V30 5100 C 483.35 -6.32546 0.0824273 0
M  V30 5101 C 482.014 -6.66853 0.293807 0
M  V30 5102 H 481.284 -0.649588 -0.356535 0
M  V30 5103 H 483.931 -1.89934 -0.244394 0
M  V30 5104 H 482.236 -2.87484 -2.66196 0
M  V30 5105 H 483.933 -3.18994 -2.42989 0
M  V30 5106 H 480.523 -4.08174 -1.30736 0
M  V30 5107 H 484.707 -4.90276 -0.770943 0
M  V30 5108 H 479.963 -6.11385 -0.0426124 0
M  V30 5109 H 484.137 -6.94693 0.487292 0
M  V30 5110 H 481.764 -7.55349 0.857428 0
M  V30 5111 N 483.339 0.512053 -1.4905 0
M  V30 5112 C 484.588 1.26343 -1.57227 0
M  V30 5113 C 484.901 1.93876 -0.259155 0
M  V30 5114 O 486.107 2.70612 -0.219358 0
M  V30 5115 C 484.563 2.29343 -2.77362 0
M  V30 5116 C 484.171 1.67799 -4.15388 0
M  V30 5117 C 485.915 3.05378 -2.94864 0
M  V30 5118 C 483.822 2.68845 -5.2676 0
M  V30 5119 H 482.752 0.475231 -0.585382 0
M  V30 5120 H 485.403 0.53862 -1.75417 0
M  V30 5121 H 483.785 3.04938 -2.52643 0
M  V30 5122 H 484.959 0.982715 -4.50199 0
M  V30 5123 H 483.274 1.04194 -4.03153 0
M  V30 5124 H 485.871 3.80921 -3.75238 0
M  V30 5125 H 486.214 3.62327 -2.05 0
M  V30 5126 H 486.747 2.36898 -3.19569 0
M  V30 5127 H 483.486 2.16692 -6.18647 0
M  V30 5128 H 483.006 3.36647 -4.96416 0
M  V30 5129 H 484.685 3.31487 -5.5563 0
M  V30 5130 N 484.817 1.37938 0.762283 0
M  V30 5131 C 485.747 1.37176 1.88958 0
M  V30 5132 C 486.728 0.238945 1.68413 0
M  V30 5133 O 487.913 0.440726 1.89133 0
M  V30 5134 C 485.043 1.18742 3.2637 0
M  V30 5135 C 483.997 2.29136 3.61498 0
M  V30 5136 C 483.323 1.95816 4.97554 0
M  V30 5137 C 484.623 3.71363 3.6727 0
M  V30 5138 H 486.317 2.31509 1.89853 0
M  V30 5139 H 483.863 1.11438 0.912005 0
M  V30 5140 H 485.816 1.16837 4.04879 0
M  V30 5141 H 484.54 0.208683 3.25933 0
M  V30 5142 H 483.199 2.30213 2.85303 0
M  V30 5143 H 482.847 0.964475 4.93667 0
M  V30 5144 H 482.547 2.69745 5.22026 0
M  V30 5145 H 484.071 1.95513 5.78452 0
M  V30 5146 H 485.485 3.72364 4.35911 0
M  V30 5147 H 483.882 4.44425 4.03245 0
M  V30 5148 H 484.952 4.04305 2.67704 0
M  V30 5149 N 486.295 -0.989507 1.22664 0
M  V30 5150 C 487.225 -2.09847 1.02404 0
M  V30 5151 C 488.206 -1.70007 -0.0561303 0
M  V30 5152 O 489.391 -1.93906 0.106748 0
M  V30 5153 C 486.521 -3.41996 0.604663 0
M  V30 5154 C 485.475 -3.95699 1.63115 0
M  V30 5155 C 484.801 -5.23936 1.0675 0
M  V30 5156 C 486.101 -4.25999 3.02196 0
M  V30 5157 H 487.795 -2.27054 1.95158 0
M  V30 5158 H 485.341 -1.09111 0.939727 0
M  V30 5159 H 487.294 -4.1899 0.45002 0
M  V30 5160 H 486.018 -3.24626 -0.35855 0
M  V30 5161 H 484.677 -3.2084 1.77362 0
M  V30 5162 H 484.325 -5.02909 0.0955422 0
M  V30 5163 H 484.025 -5.60833 1.75328 0
M  V30 5164 H 485.549 -6.0356 0.924516 0
M  V30 5165 H 486.963 -4.93777 2.91303 0
M  V30 5166 H 485.36 -4.74076 3.67929 0
M  V30 5167 H 486.43 -3.33636 3.51873 0
M  V30 5168 N 487.773 -1.03688 -1.18687 0
M  V30 5169 C 489.021 -0.736572 -1.88199 0
M  V30 5170 C 489.342 0.737665 -1.80509 0
M  V30 5171 O 488.612 1.53204 -1.22088 0
M  V30 5172 H 487.192 -0.269466 -0.696704 0
M  V30 5173 H 489.854 -1.31282 -1.44052 0
M  V30 5174 H 488.95 -1.03802 -2.94332 0
M  V30 5175 N 489.251 1.34841 -0.815825 0
M  V30 5176 C 490.528 1.92908 -0.323416 0
M  V30 5177 C 490.908 1.74479 1.18828 0
M  V30 5178 O 490.256 1.11928 1.99209 0
M  V30 5179 C 490.466 3.40957 -0.744952 0
M  V30 5180 C 491.814 4.18107 -0.739716 0
M  V30 5181 O 492.838 3.49511 -0.68708 0
M  V30 5182 O 491.697 5.40517 -0.806456 0
M  V30 5183 H 488.791 0.822436 -0.0867646 0
M  V30 5184 H 491.337 1.4386 -0.90014 0
M  V30 5185 H 490.109 3.4814 -1.78646 0
M  V30 5186 H 489.732 3.97341 -0.143535 0
M  V30 5187 N 490.729 0.570148 1.46925 0
M  V30 5188 C 491.954 0.0542592 2.07329 0
M  V30 5189 C 492.379 -1.23582 1.41806 0
M  V30 5190 O 491.737 -1.74341 0.497479 0
M  V30 5191 C 491.785 -0.111175 3.60429 0
M  V30 5192 O 490.889 -1.17071 3.95434 0
M  V30 5193 H 490.23 0.0571425 0.661537 0
M  V30 5194 H 492.76 0.789516 1.88753 0
M  V30 5195 H 492.77 -0.321315 4.06733 0
M  V30 5196 H 491.445 0.831012 4.07513 0
M  V30 5197 H 490.022 -0.940029 3.60857 0
M  V30 5198 N 492.207 -1.54576 0.307264 0
M  V30 5199 C 493.137 -2.26708 -0.55907 0
M  V30 5200 C 494.118 -1.26893 -1.1328 0
M  V30 5201 O 495.303 -1.55677 -1.16097 0
M  V30 5202 C 492.433 -3.01259 -1.72801 0
M  V30 5203 C 491.387 -4.08275 -1.28435 0
M  V30 5204 C 490.713 -4.70575 -2.53895 0
M  V30 5205 C 492.013 -5.2068 -0.411038 0
M  V30 5206 H 493.707 -2.9937 0.042576 0
M  V30 5207 H 491.253 -1.43983 0.0219173 0
M  V30 5208 H 493.206 -3.50444 -2.34023 0
M  V30 5209 H 491.93 -2.26187 -2.356 0
M  V30 5210 H 490.589 -3.59949 -0.695161 0
M  V30 5211 H 490.237 -3.92136 -3.15021 0
M  V30 5212 H 489.937 -5.42854 -2.24908 0
M  V30 5213 H 491.461 -5.22527 -3.15908 0
M  V30 5214 H 492.875 -5.65721 -0.929097 0
M  V30 5215 H 491.272 -5.99716 -0.214664 0
M  V30 5216 H 492.342 -4.81629 0.562287 0
M  V30 5217 N 493.685 -0.035106 -1.57561 0
M  V30 5218 C 494.633 0.962707 -2.11742 0
M  V30 5219 C 495.627 1.33296 -1.0454 0
M  V30 5220 O 496.833 1.31449 -1.22968 0
M  V30 5221 H 493.208 0.32826 -0.676572 0
M  V30 5222 H 495.179 0.48048 -2.94506 0
M  V30 5223 C 493.928 2.23388 -2.66445 0
M  V30 5224 H 493.251 1.95774 -3.48587 0
M  V30 5225 H 494.691 2.91402 -3.07995 0
M  V30 5226 C 493.15 2.96769 -1.59467 0
M  V30 5227 O 493.68 3.89105 -0.998 0
M  V30 5228 N 491.886 2.59212 -1.31369 0
M  V30 5229 H 491.433 1.84202 -1.80076 0
M  V30 5230 H 491.391 3.08618 -0.600173 0
M  V30 5231 N 495.163 1.55791 0.238111 0
M  V30 5232 C 496.096 1.86036 1.32158 0
M  V30 5233 C 497.074 0.716216 1.45976 0
M  V30 5234 O 498.258 0.962882 1.62052 0
M  V30 5235 C 495.385 2.05281 2.69402 0
M  V30 5236 C 494.431 3.27939 2.72687 0
M  V30 5237 S 495.264 4.84342 2.28413 0
M  V30 5238 C 496.42 5.06604 3.67565 0
M  V30 5239 H 496.653 2.77644 1.06306 0
M  V30 5240 H 494.186 1.48012 0.439537 0
M  V30 5241 H 496.144 2.17053 3.48423 0
M  V30 5242 H 494.805 1.14499 2.92487 0
M  V30 5243 H 493.998 3.38398 3.73501 0
M  V30 5244 H 493.6 3.14938 2.01717 0
M  V30 5245 H 495.892 4.94486 4.6313 0
M  V30 5246 H 496.835 6.08554 3.62033 0
M  V30 5247 H 497.243 4.34409 3.60485 0
M  V30 5248 N 496.642 -0.504142 1.49319 0
M  V30 5249 C 498.058 -0.835039 1.36012 0
M  V30 5250 C 498.258 -1.97674 0.390808 0
M  V30 5251 O 497.314 -2.51867 -0.178655 0
M  V30 5252 C 498.627 -1.17821 2.76656 0
M  V30 5253 C 500.175 -1.2866 2.85334 0
M  V30 5254 C 500.65 -1.66307 4.26739 0
M  V30 5255 N 502.141 -1.73362 4.29534 0
M  V30 5256 C 502.876 -2.0393 5.35911 0
M  V30 5257 N 502.372 -2.32744 6.52535 0
M  V30 5258 N 504.165 -2.05155 5.23324 0
M  V30 5259 H 496.316 0.248764 2.10938 0
M  V30 5260 H 498.579 0.0486962 0.946748 0
M  V30 5261 H 498.285 -0.412682 3.4927 0
M  V30 5262 H 498.159 -2.12239 3.11825 0
M  V30 5263 H 500.546 -2.04285 2.1296 0
M  V30 5264 H 500.627 -0.323004 2.53752 0
M  V30 5265 H 500.271 -0.91234 4.99639 0
M  V30 5266 H 500.201 -2.63761 4.55782 0
M  V30 5267 H 502.692 -1.53268 3.45424 0
M  V30 5268 H 503.005 -2.55248 7.2943 0
M  V30 5269 H 501.35 -2.30207 6.55767 0
M  V30 5270 H 504.541 -1.82119 4.3122 0
M  V30 5271 H 504.714 -2.28644 6.06322 0
M  V30 5272 N 498.12 -1.38341 -0.754957 0
M  V30 5273 C 499.07 -1.31964 -1.85929 0
M  V30 5274 C 500.054 -0.204181 -1.59599 0
M  V30 5275 O 501.246 -0.440036 -1.71443 0
M  V30 5276 C 498.375 -1.14565 -3.2362 0
M  V30 5277 C 497.461 -2.30727 -3.55846 0
M  V30 5278 N 497.852 -3.56165 -3.59138 0
M  V30 5279 C 496.15 -2.23249 -3.86104 0
M  V30 5280 C 496.851 -4.32865 -3.88591 0
M  V30 5281 N 495.827 -3.62203 -4.05351 0
M  V30 5282 H 499.629 -2.2694 -1.8675 0
M  V30 5283 H 497.143 -1.31553 -0.952243 0
M  V30 5284 H 499.14 -1.0808 -4.02647 0
M  V30 5285 H 497.8 -0.205212 -3.24051 0
M  V30 5286 H 498.811 -3.89854 -3.40932 0
M  V30 5287 H 495.488 -1.37357 -3.94258 0
M  V30 5288 H 496.878 -5.41504 -3.97773 0
M  V30 5289 N 499.598 0.982988 -1.23187 0
M  V30 5290 C 501.009 1.53847 -1.05773 0
M  V30 5291 C 501.36 1.92568 0.375744 0
M  V30 5292 O 500.485 1.75783 1.26211 0
M  V30 5293 C 501.08 2.79567 -1.91384 0
M  V30 5294 C 499.639 3.31524 -1.78238 0
M  V30 5295 C 498.786 2.04534 -1.87246 0
M  V30 5296 H 501.737 0.802962 -1.36888 0
M  V30 5297 H 501.758 3.52317 -1.43711 0
M  V30 5298 H 501.27 2.51353 -2.95708 0
M  V30 5299 H 499.371 3.64623 -0.766875 0
M  V30 5300 H 499.484 4.01457 -2.61475 0
M  V30 5301 H 497.848 2.1855 -1.30797 0
M  V30 5302 H 498.631 1.78706 -2.9312 0
M  V30 5303 N 501.076 1.04316 1.18135 0
M  V30 5304 C 502.006 0.657299 2.24058 0
M  V30 5305 C 502.987 -0.340678 1.66654 0
M  V30 5306 O 504.172 -0.220223 1.92947 0
M  V30 5307 C 501.302 0.0220715 3.47293 0
M  V30 5308 C 500.256 0.943857 4.17463 0
M  V30 5309 C 499.582 0.172973 5.3442 0
M  V30 5310 C 500.882 2.26409 4.70677 0
M  V30 5311 H 502.576 1.5428 2.56589 0
M  V30 5312 H 500.122 0.743263 1.23335 0
M  V30 5313 H 502.075 -0.259607 4.206 0
M  V30 5314 H 500.799 -0.898323 3.14003 0
M  V30 5315 H 499.458 1.20996 3.46057 0
M  V30 5316 H 499.106 -0.749907 4.97379 0
M  V30 5317 H 498.806 0.787098 5.82304 0
M  V30 5318 H 500.33 -0.101628 6.10515 0
M  V30 5319 H 501.744 2.04294 5.35665 0
M  V30 5320 H 500.141 2.8314 5.29105 0
M  V30 5321 H 501.211 2.90883 3.87962 0
M  V30 5322 N 502.554 -1.34406 0.822964 0
M  V30 5323 C 503.782 -2.02508 0.424039 0
M  V30 5324 C 504.197 -1.61975 -0.970022 0
M  V30 5325 O 503.554 -0.825228 -1.62777 0
M  V30 5326 C 503.605 -3.57789 0.516657 0
M  V30 5327 O 503.326 -3.96853 1.85577 0
M  V30 5328 C 504.827 -4.43157 0.112637 0
M  V30 5329 H 502.047 -0.649063 0.170173 0
M  V30 5330 H 504.591 -1.7168 1.11113 0
M  V30 5331 H 502.746 -3.87207 -0.122353 0
M  V30 5332 H 503.16 -4.91538 1.83005 0
M  V30 5333 H 504.634 -5.51527 0.228526 0
M  V30 5334 H 505.111 -4.28939 -0.943837 0
M  V30 5335 H 505.717 -4.19067 0.725449 0
M  V30 5336 N 504.032 -0.577932 -1.46621 0
M  V30 5337 C 505.28 -0.061566 -2.02006 0
M  V30 5338 C 505.601 1.30117 -1.4524 0
M  V30 5339 O 504.871 1.85313 -0.63529 0
M  V30 5340 H 503.451 -0.0197692 -0.746738 0
M  V30 5341 H 506.113 -0.752631 -1.79782 0
M  V30 5342 H 505.209 0.0110238 -3.12098 0
M  V30 5343 N 505.51 1.54411 -0.315457 0
M  V30 5344 C 506.758 2.00023 0.288971 0
M  V30 5345 C 507.079 1.20529 1.5329 0
M  V30 5346 O 506.349 0.304986 1.93511 0
M  V30 5347 H 504.929 0.738891 0.109766 0
M  V30 5348 H 507.591 1.90094 -0.430129 0
M  V30 5349 H 506.687 3.07198 0.550999 0
M  V30 5350 N 506.988 0.0434614 1.5754 0
M  V30 5351 C 508.236 -0.630786 1.92004 0
M  V30 5352 C 508.557 -1.71836 0.921807 0
M  V30 5353 O 507.827 -1.9587 -0.034522 0
M  V30 5354 H 506.407 -0.235988 0.708745 0
M  V30 5355 H 509.069 0.0946462 1.9467 0
M  V30 5356 H 508.165 -1.07434 2.93026 0
M  V30 5357 N 508.466 -1.55915 -0.229846 0
M  V30 5358 C 509.399 -1.86734 -1.3117 0
M  V30 5359 C 510.377 -0.723947 -1.45595 0
M  V30 5360 O 511.561 -0.971462 -1.61539 0
M  V30 5361 C 508.688 -2.06707 -2.68309 0
M  V30 5362 C 507.734 -3.2938 -2.70944 0
M  V30 5363 S 508.567 -4.85547 -2.25842 0
M  V30 5364 C 509.723 -5.08546 -3.64873 0
M  V30 5365 H 509.956 -2.78204 -1.04832 0
M  V30 5366 H 507.489 -1.48243 -0.431681 0
M  V30 5367 H 509.447 -2.18898 -3.47267 0
M  V30 5368 H 508.108 -1.16049 -2.91876 0
M  V30 5369 H 507.301 -3.40374 -3.71701 0
M  V30 5370 H 506.903 -3.16004 -2.00044 0
M  V30 5371 H 509.195 -4.96935 -4.60502 0
M  V30 5372 H 510.138 -6.10465 -3.58801 0
M  V30 5373 H 510.546 -4.36314 -3.58176 0
M  V30 5374 N 509.944 0.496216 -1.49584 0
M  V30 5375 C 511.172 1.27394 -1.63029 0
M  V30 5376 C 511.587 1.86344 -0.303569 0
M  V30 5377 O 510.944 1.68057 0.711547 0
M  V30 5378 C 510.995 2.40077 -2.70269 0
M  V30 5379 O 510.716 1.83549 -3.97796 0
M  V30 5380 C 512.217 3.31372 -2.94462 0
M  V30 5381 H 509.437 0.386211 -0.54871 0
M  V30 5382 H 511.981 0.595163 -1.95648 0
M  V30 5383 H 510.136 3.03775 -2.40415 0
M  V30 5384 H 510.55 2.57561 -4.56905 0
M  V30 5385 H 512.024 4.06707 -3.73221 0
M  V30 5386 H 512.501 3.88654 -2.0456 0
M  V30 5387 H 513.107 2.73435 -3.25751 0
M  V30 5388 N 511.423 1.38739 0.74761 0
M  V30 5389 C 512.669 1.35475 1.50912 0
M  V30 5390 C 513.002 -0.0533093 1.94127 0
M  V30 5391 O 512.277 -1.01572 1.65871 0
M  V30 5392 C 512.56 2.31582 2.75757 0
M  V30 5393 C 512.413 3.81274 2.38642 0
M  V30 5394 C 513.732 2.25722 3.77806 0
M  V30 5395 H 510.851 0.493427 0.547447 0
M  V30 5396 H 513.493 1.69634 0.855823 0
M  V30 5397 H 511.643 2.02582 3.31501 0
M  V30 5398 H 513.315 4.20972 1.88626 0
M  V30 5399 H 511.558 3.98664 1.71025 0
M  V30 5400 H 512.229 4.4399 3.27989 0
M  V30 5401 H 514.705 2.51336 3.31616 0
M  V30 5402 H 513.581 2.95069 4.62845 0
M  V30 5403 H 513.842 1.25803 4.23823 0
M  V30 5404 N 512.901 -0.976442 1.23707 0
M  V30 5405 C 514.149 -1.71487 1.06942 0
M  V30 5406 C 514.47 -1.9098 -0.393897 0
M  V30 5407 O 513.74 -1.48128 -1.28198 0
M  V30 5408 H 512.32 -0.635425 0.392739 0
M  V30 5409 H 514.982 -1.17515 1.55487 0
M  V30 5410 H 514.078 -2.70286 1.56051 0
M  V30 5411 N 514.379 -1.04941 -1.1758 0
M  V30 5412 C 515.309 -0.669172 -2.23706 0
M  V30 5413 C 516.29 0.331835 -1.66832 0
M  V30 5414 O 517.475 0.209988 -1.93061 0
M  V30 5415 C 514.605 -0.0404889 -3.47276 0
M  V30 5416 C 513.559 -0.965983 -4.16957 0
M  V30 5417 C 512.885 -0.201312 -5.34321 0
M  V30 5418 C 514.185 -2.28902 -4.69469 0
M  V30 5419 H 515.879 -1.55639 -2.55767 0
M  V30 5420 H 513.425 -0.749793 -1.22939 0
M  V30 5421 H 515.378 0.237298 -4.20731 0
M  V30 5422 H 514.102 0.881658 -3.14475 0
M  V30 5423 H 512.761 -1.22829 -3.45411 0
M  V30 5424 H 512.409 0.723519 -4.97769 0
M  V30 5425 H 512.109 -0.817968 -5.81879 0
M  V30 5426 H 513.633 0.0692499 -6.10561 0
M  V30 5427 H 515.047 -2.07132 -5.34574 0
M  V30 5428 H 513.444 -2.85942 -5.27596 0
M  V30 5429 H 514.514 -2.92937 -3.86414 0
M  V30 5430 N 515.857 1.33968 -0.830081 0
M  V30 5431 C 516.805 2.31301 -0.245435 0
M  V30 5432 C 517.799 1.57734 0.617762 0
M  V30 5433 O 519.005 1.72674 0.508303 0
M  V30 5434 H 515.38 0.749552 -0.0606316 0
M  V30 5435 H 517.351 2.78129 -1.08105 0
M  V30 5436 C 516.1 3.42961 0.572084 0
M  V30 5437 H 515.423 3.99714 -0.0828118 0
M  V30 5438 H 516.863 4.13286 0.94715 0
M  V30 5439 C 515.322 2.88043 1.74737 0
M  V30 5440 O 515.852 2.83508 2.8458 0
M  V30 5441 N 514.058 2.44768 1.56642 0
M  V30 5442 H 513.605 2.48656 0.672901 0
M  V30 5443 H 513.563 2.08375 2.3543 0
M  V30 5444 N 517.335 0.585699 1.46312 0
M  V30 5445 C 518.612 0.00542031 1.95599 0
M  V30 5446 C 518.992 -1.45619 1.52834 0
M  V30 5447 O 518.34 -2.14759 0.780446 0
M  V30 5448 C 518.55 0.180601 3.48532 0
M  V30 5449 C 519.898 0.049979 4.24571 0
M  V30 5450 O 520.922 0.109589 3.56031 0
M  V30 5451 O 519.781 -0.0832226 5.46437 0
M  V30 5452 H 516.875 -0.0481281 0.825598 0
M  V30 5453 H 519.421 0.654227 1.56582 0
M  V30 5454 H 518.193 1.19657 3.72556 0
M  V30 5455 H 517.816 -0.504498 3.94386 0
M  V30 5456 N 518.813 -1.54241 0.323641 0
M  V30 5457 C 520.038 -2.05452 -0.283605 0
M  V30 5458 C 520.463 -1.19823 -1.44997 0
M  V30 5459 O 519.821 -0.207358 -1.8011 0
M  V30 5460 C 519.869 -3.53823 -0.695795 0
M  V30 5461 O 518.973 -3.71134 -1.79815 0
M  V30 5462 H 518.314 -0.662024 -0.0511917 0
M  V30 5463 H 520.844 -1.99079 0.472073 0
M  V30 5464 H 520.854 -3.96094 -0.978434 0
M  V30 5465 H 519.529 -4.15602 0.157287 0
M  V30 5466 H 518.106 -3.40768 -1.51431 0
M  V30 5467 N 520.291 -0.0518155 -1.57515 0
M  V30 5468 C 521.537 0.622745 -1.93002 0
M  V30 5469 C 521.87 1.70456 -0.930499 0
M  V30 5470 O 521.145 1.94452 0.0434086 0
M  V30 5471 C 521.428 1.21824 -3.38867 0
M  V30 5472 C 521.281 0.144434 -4.49568 0
M  V30 5473 C 522.6 2.12968 -3.8514 0
M  V30 5474 H 519.719 0.22491 -0.701844 0
M  V30 5475 H 522.361 -0.113711 -1.89659 0
M  V30 5476 H 520.511 1.8459 -3.41846 0
M  V30 5477 H 522.183 -0.48753 -4.58717 0
M  V30 5478 H 520.426 -0.527424 -4.30582 0
M  V30 5479 H 521.097 0.601127 -5.48717 0
M  V30 5480 H 523.573 1.60163 -3.8404 0
M  V30 5481 H 522.449 2.51578 -4.87852 0
M  V30 5482 H 522.71 3.03004 -3.21934 0
M  V30 5483 N 521.769 1.56035 0.221574 0
M  V30 5484 C 522.699 1.95434 1.2778 0
M  V30 5485 C 523.68 0.822564 1.48889 0
M  V30 5486 O 524.865 1.08486 1.61072 0
M  V30 5487 C 521.995 2.27102 2.62759 0
M  V30 5488 C 520.949 3.4277 2.56306 0
M  V30 5489 C 520.275 3.60043 3.95314 0
M  V30 5490 C 521.575 4.77742 2.11093 0
M  V30 5491 H 523.269 2.83912 0.950504 0
M  V30 5492 H 520.815 1.36596 0.455791 0
M  V30 5493 H 522.768 2.53256 3.36807 0
M  V30 5494 H 521.492 1.35478 2.97176 0
M  V30 5495 H 520.151 3.16664 1.84715 0
M  V30 5496 H 519.799 2.65794 4.27039 0
M  V30 5497 H 519.499 4.37841 3.91879 0
M  V30 5498 H 521.023 3.88545 4.71025 0
M  V30 5499 H 522.437 5.03102 2.74885 0
M  V30 5500 H 520.834 5.58823 2.18716 0
M  V30 5501 H 521.904 4.731 1.06321 0
M  V30 5502 N 523.247 -0.488276 1.49845 0
M  V30 5503 C 524.177 -1.59675 1.70371 0
M  V30 5504 C 525.158 -1.60878 0.552473 0
M  V30 5505 O 526.343 -1.77417 0.78973 0
M  V30 5506 C 523.473 -2.98098 1.782 0
M  V30 5507 C 522.427 -3.11761 2.93239 0
M  V30 5508 C 521.753 -4.51661 2.86193 0
M  V30 5509 C 523.053 -2.90589 4.33999 0
M  V30 5510 H 524.747 -1.42752 2.63177 0
M  V30 5511 H 522.293 -0.685317 1.26647 0
M  V30 5512 H 524.246 -3.75555 1.91144 0
M  V30 5513 H 522.97 -3.16138 0.820018 0
M  V30 5514 H 521.629 -2.36732 2.79917 0
M  V30 5515 H 521.277 -4.66595 1.87877 0
M  V30 5516 H 520.977 -4.61742 3.63412 0
M  V30 5517 H 522.501 -5.31162 3.01163 0
M  V30 5518 H 523.915 -3.57807 4.47936 0
M  V30 5519 H 522.312 -3.1213 5.12538 0
M  V30 5520 H 523.382 -1.86595 4.4756 0
M  V30 5521 N 524.725 -1.39134 -0.740242 0
M  V30 5522 C 525.688 -1.37217 -1.83587 0
M  V30 5523 C 526.688 -0.270221 -1.58513 0
M  V30 5524 O 527.878 -0.527843 -1.6601 0
M  V30 5525 C 525.01 -1.13959 -3.21288 0
M  V30 5526 H 526.203 -2.34705 -1.86691 0
M  V30 5527 H 523.756 -1.24622 -0.94335 0
M  V30 5528 H 524.491 -0.17131 -3.23847 0
M  V30 5529 H 524.276 -1.93754 -3.40884 0
M  V30 5530 H 525.766 -1.15346 -4.01354 0
M  V30 5531 N 526.204 0.969867 -1.24223 0
M  V30 5532 C 527.151 2.06407 -1.0327 0
M  V30 5533 C 528.121 1.66014 0.0533 0
M  V30 5534 O 529.306 1.90533 -0.100896 0
M  V30 5535 C 526.446 3.3909 -0.641262 0
M  V30 5536 C 525.559 3.9269 -1.80051 0
M  V30 5537 C 524.694 5.13631 -1.35486 0
M  V30 5538 C 523.733 5.59423 -2.48419 0
M  V30 5539 N 522.87 6.71586 -2.04737 0
M  V30 5540 H 527.71 2.23663 -1.96923 0
M  V30 5541 H 525.247 1.09624 -0.980862 0
M  V30 5542 H 527.205 4.15323 -0.395351 0
M  V30 5543 H 525.835 3.21765 0.258269 0
M  V30 5544 H 524.887 3.13116 -2.16014 0
M  V30 5545 H 526.199 4.22636 -2.64916 0
M  V30 5546 H 525.353 5.97231 -1.0677 0
M  V30 5547 H 524.092 4.85364 -0.476722 0
M  V30 5548 H 523.097 4.74398 -2.77897 0
M  V30 5549 H 524.322 5.89705 -3.36786 0
M  V30 5550 H 522.268 6.45058 -1.19318 0
M  V30 5551 H 522.185 7.0097 -2.83156 0
M  V30 5552 H 523.453 7.58633 -1.79154 0
M  V30 5553 N 527.682 1.05563 1.17022 0
M  V30 5554 C 528.612 0.681026 2.23348 0
M  V30 5555 C 529.593 -0.322983 1.67005 0
M  V30 5556 O 530.778 -0.199746 1.9317 0
M  V30 5557 C 527.908 0.0589053 3.4725 0
M  V30 5558 C 526.862 0.988082 4.16438 0
M  V30 5559 C 526.188 0.229646 5.34207 0
M  V30 5560 C 527.488 2.31388 4.68249 0
M  V30 5561 H 529.182 1.56993 2.54938 0
M  V30 5562 H 526.728 0.756302 1.2254 0
M  V30 5563 H 528.681 -0.214982 4.20851 0
M  V30 5564 H 527.405 -0.864968 3.14938 0
M  V30 5565 H 526.064 1.24659 3.44754 0
M  V30 5566 H 525.712 -0.697111 4.98146 0
M  V30 5567 H 525.412 0.848815 5.81437 0
M  V30 5568 H 526.936 -0.0368694 6.10589 0
M  V30 5569 H 528.35 2.09964 5.33468 0
M  V30 5570 H 526.747 2.88736 5.26072 0
M  V30 5571 H 527.817 2.94982 3.84855 0
M  V30 5572 N 529.16 -1.33526 0.837174 0
M  V30 5573 C 530.09 -2.31764 0.284206 0
M  V30 5574 C 531.071 -1.58896 -0.607142 0
M  V30 5575 O 532.256 -1.86798 -0.531047 0
M  V30 5576 C 529.386 -3.43029 -0.542962 0
M  V30 5577 C 528.34 -4.27255 0.252451 0
M  V30 5578 C 527.666 -5.3012 -0.69836 0
M  V30 5579 C 528.966 -5.01229 1.46858 0
M  V30 5580 H 530.66 -2.78262 1.10502 0
M  V30 5581 H 528.206 -1.3378 0.532812 0
M  V30 5582 H 530.159 -4.1078 -0.940096 0
M  V30 5583 H 528.883 -2.95216 -1.39697 0
M  V30 5584 H 527.542 -3.61127 0.631124 0
M  V30 5585 H 527.19 -4.78564 -1.54872 0
M  V30 5586 H 526.89 -5.87353 -0.170274 0
M  V30 5587 H 528.414 -6.00737 -1.09305 0
M  V30 5588 H 529.828 -5.61756 1.14469 0
M  V30 5589 H 528.225 -5.68104 1.93333 0
M  V30 5590 H 529.295 -4.301 2.23924 0
M  V30 5591 N 530.638 -0.59345 -1.46 0
M  V30 5592 C 531.588 0.154751 -2.27474 0
M  V30 5593 C 532.572 0.851849 -1.365 0
M  V30 5594 O 533.764 0.744171 -1.60596 0
M  V30 5595 C 530.893 1.16079 -3.2308 0
M  V30 5596 C 529.979 0.465256 -4.2154 0
M  V30 5597 N 530.37 -0.485197 -5.03467 0
M  V30 5598 C 528.668 0.714634 -4.40237 0
M  V30 5599 C 529.369 -0.892709 -5.74809 0
M  V30 5600 N 528.345 -0.239511 -5.43072 0
M  V30 5601 H 532.147 -0.57546 -2.88211 0
M  V30 5602 H 529.661 -0.416046 -1.5698 0
M  V30 5603 H 531.658 1.71108 -3.80168 0
M  V30 5604 H 530.318 1.89171 -2.63903 0
M  V30 5605 H 531.329 -0.861258 -5.10689 0
M  V30 5606 H 528.006 1.43131 -3.92199 0
M  V30 5607 H 529.396 -1.67581 -6.50666 0
M  V30 5608 N 532.116 1.54067 -0.331816 0
M  V30 5609 C 533.527 1.86059 0.15454 0
M  V30 5610 C 533.878 1.25331 1.50952 0
M  V30 5611 O 533.003 0.562441 2.08963 0
M  V30 5612 C 533.598 3.37581 0.287192 0
M  V30 5613 C 532.157 3.69493 0.717773 0
M  V30 5614 C 531.304 2.76863 -0.155569 0
M  V30 5615 H 534.255 1.48797 -0.55182 0
M  V30 5616 H 534.276 3.63744 1.11671 0
M  V30 5617 H 533.788 3.81751 -0.699131 0
M  V30 5618 H 531.889 3.3086 1.71354 0
M  V30 5619 H 532.002 4.76315 0.5158 0
M  V30 5620 H 530.366 2.51995 0.370213 0
M  V30 5621 H 531.149 3.23861 -1.13881 0
M  V30 5622 N 533.594 0.0601682 1.57485 0
M  V30 5623 C 534.541 -0.91112 2.12055 0
M  V30 5624 C 535.511 -1.30298 1.03013 0
M  V30 5625 O 536.696 -1.39087 1.30612 0
M  V30 5626 C 533.836 -2.1775 2.67729 0
M  V30 5627 C 532.949 -1.83933 3.90887 0
M  V30 5628 C 532.084 -3.05096 4.34845 0
M  V30 5629 C 531.123 -2.67241 5.5068 0
M  V30 5630 N 530.26 -3.81127 5.8965 0
M  V30 5631 H 535.1 -0.43888 2.9475 0
M  V30 5632 H 532.637 -0.204995 1.45665 0
M  V30 5633 H 534.595 -2.91866 2.98111 0
M  V30 5634 H 533.225 -2.62535 1.87816 0
M  V30 5635 H 532.277 -0.999287 3.6704 0
M  V30 5636 H 533.589 -1.52074 4.75052 0
M  V30 5637 H 532.743 -3.87502 4.66827 0
M  V30 5638 H 531.482 -3.40139 3.49509 0
M  V30 5639 H 530.487 -1.83254 5.18361 0
M  V30 5640 H 531.712 -2.3338 6.37738 0
M  V30 5641 H 529.658 -4.15954 5.07266 0
M  V30 5642 H 529.575 -3.52997 6.68528 0
M  V30 5643 H 530.843 -4.64145 6.2625 0
M  V30 5644 N 535.072 -1.5615 -0.213296 0
M  V30 5645 C 536.319 -1.79546 -0.936462 0
M  V30 5646 C 536.647 -0.630337 -1.84003 0
M  V30 5647 O 535.902 0.384883 -1.91878 0
M  V30 5648 C 536.201 -3.08772 -1.79985 0
M  V30 5649 C 535.867 -4.38532 -1.04882 0
M  V30 5650 C 534.529 -4.73787 -0.841393 0
M  V30 5651 C 536.881 -5.18609 -0.51907 0
M  V30 5652 C 534.209 -5.86627 -0.0924403 0
M  V30 5653 C 536.561 -6.32229 0.216581 0
M  V30 5654 C 535.225 -6.6608 0.435191 0
M  V30 5655 H 534.495 -0.657004 -0.342676 0
M  V30 5656 H 537.142 -1.9041 -0.204051 0
M  V30 5657 H 535.447 -2.93065 -2.60038 0
M  V30 5658 H 537.144 -3.24077 -2.36168 0
M  V30 5659 H 533.734 -4.10855 -1.22048 0
M  V30 5660 H 537.918 -4.91801 -0.666775 0
M  V30 5661 H 533.174 -6.11338 0.087081 0
M  V30 5662 H 537.348 -6.93503 0.634538 0
M  V30 5663 H 534.975 -7.5336 1.01746 0
M  V30 5664 N 536.55 0.480323 -1.50102 0
M  V30 5665 C 537.796 1.23489 -1.60867 0
M  V30 5666 C 538.129 1.91809 -0.303827 0
M  V30 5667 O 537.404 1.81694 0.694092 0
M  V30 5668 C 537.687 2.28578 -2.78252 0
M  V30 5669 C 537.54 1.64624 -4.18592 0
M  V30 5670 C 538.859 3.2997 -2.91218 0
M  V30 5671 H 535.978 0.447605 -0.585507 0
M  V30 5672 H 538.62 0.530005 -1.82458 0
M  V30 5673 H 536.77 2.88697 -2.59974 0
M  V30 5674 H 538.442 1.08173 -4.48438 0
M  V30 5675 H 536.685 0.949645 -4.23278 0
M  V30 5676 H 537.356 2.40946 -4.96638 0
M  V30 5677 H 539.832 2.79864 -3.07921 0
M  V30 5678 H 538.708 4.00839 -3.74993 0
M  V30 5679 H 538.969 3.93541 -2.0144 0
M  V30 5680 N 538.028 1.39524 0.732853 0
M  V30 5681 C 538.938 1.40695 1.87729 0
M  V30 5682 C 539.954 0.301496 1.71368 0
M  V30 5683 O 541.13 0.543313 1.93933 0
M  V30 5684 C 538.195 1.25098 3.23344 0
M  V30 5685 C 537.256 2.45634 3.52083 0
M  V30 5686 C 536.489 2.30772 4.81228 0
M  V30 5687 O 536.712 1.31233 5.55098 0
M  V30 5688 O 535.646 3.19799 5.09914 0
M  V30 5689 H 539.472 2.37168 1.89697 0
M  V30 5690 H 537.057 1.20663 0.880959 0
M  V30 5691 H 538.939 1.18541 4.04383 0
M  V30 5692 H 537.614 0.317209 3.22142 0
M  V30 5693 H 536.521 2.57767 2.71122 0
M  V30 5694 H 537.854 3.37712 3.58066 0
M  V30 5695 N 539.506 -0.963266 1.24736 0
M  V30 5696 C 540.783 -1.68248 0.9976 0
M  V30 5697 C 541.163 -2.05599 -0.478776 0
M  V30 5698 O 540.511 -1.7626 -1.45412 0
M  V30 5699 C 540.721 -2.91118 1.92487 0
M  V30 5700 C 542.069 -3.63261 2.19833 0
M  V30 5701 O 543.093 -3.01184 1.90176 0
M  V30 5702 O 541.952 -4.75019 2.7022 0
M  V30 5703 H 539.046 -0.735744 0.377637 0
M  V30 5704 H 541.592 -1.01696 1.35853 0
M  V30 5705 H 540.364 -2.60242 2.92215 0
M  V30 5706 H 539.987 -3.65402 1.56738 0
M  V30 5707 N 540.985 -1.06182 -1.16461 0
M  V30 5708 C 542.232 -0.777863 -1.86964 0
M  V30 5709 C 542.56 0.695602 -1.81636 0
M  V30 5710 O 541.815 1.52532 -1.22607 0
M  V30 5711 C 542.114 -1.21633 -3.36066 0
M  V30 5712 C 541.78 -2.69371 -3.61594 0
M  V30 5713 C 540.442 -3.09727 -3.6827 0
M  V30 5714 C 542.794 -3.64791 -3.7226 0
M  V30 5715 C 540.122 -4.44345 -3.83112 0
M  V30 5716 C 542.474 -4.99155 -3.88623 0
M  V30 5717 C 541.138 -5.39149 -3.93541 0
M  V30 5718 H 540.408 -0.28464 -0.68415 0
M  V30 5719 H 543.055 -1.33071 -1.37711 0
M  V30 5720 H 541.36 -0.582651 -3.87443 0
M  V30 5721 H 543.057 -0.973682 -3.88999 0
M  V30 5722 H 539.647 -2.37124 -3.57029 0
M  V30 5723 H 543.831 -3.34746 -3.66413 0
M  V30 5724 H 539.087 -4.74819 -3.85172 0
M  V30 5725 H 543.261 -5.72976 -3.95817 0
M  V30 5726 H 540.888 -6.43464 -4.04794 0
M  V30 5727 N 542.463 1.3308 -0.844243 0
M  V30 5728 C 543.74 1.92178 -0.364261 0
M  V30 5729 C 544.12 1.76961 1.15101 0
M  V30 5730 O 543.468 1.16128 1.9679 0
M  V30 5731 C 543.678 3.393 -0.817106 0
M  V30 5732 C 545.026 4.16444 -0.828236 0
M  V30 5733 O 546.05 3.47975 -0.761062 0
M  V30 5734 O 544.909 5.38685 -0.920926 0
M  V30 5735 H 542.003 0.820411 -0.10419 0
M  V30 5736 H 544.549 1.41918 -0.930453 0
M  V30 5737 H 543.321 3.44272 -1.85991 0
M  V30 5738 H 542.944 3.96947 -0.227785 0
M  V30 5739 N 543.941 0.601185 1.45683 0
M  V30 5740 C 545.218 0.0261659 1.95582 0
M  V30 5741 C 545.598 -1.4399 1.5437 0
M  V30 5742 O 544.946 -2.13919 0.80318 0
M  V30 5743 C 545.156 0.217557 3.48321 0
M  V30 5744 C 546.504 0.0950076 4.24494 0
M  V30 5745 O 547.528 0.147345 3.55895 0
M  V30 5746 O 546.387 -0.025261 5.46494 0
M  V30 5747 H 543.481 -0.0393688 0.826062 0
M  V30 5748 H 546.027 0.670798 1.55879 0
M  V30 5749 H 544.799 1.23601 3.71266 0
M  V30 5750 H 544.422 -0.46264 3.94899 0
M  V30 5751 N 545.419 -1.53889 0.339982 0
M  V30 5752 C 546.369 -2.2165 -0.534354 0
M  V30 5753 C 547.353 -1.20266 -1.06887 0
M  V30 5754 O 548.545 -1.45827 -1.00316 0
M  V30 5755 C 545.674 -2.99014 -1.68659 0
M  V30 5756 C 544.76 -4.07751 -1.16618 0
M  V30 5757 N 545.151 -5.04469 -0.366717 0
M  V30 5758 C 543.449 -4.21998 -1.4434 0
M  V30 5759 C 544.15 -5.81638 -0.0847275 0
M  V30 5760 N 543.126 -5.39388 -0.675391 0
M  V30 5761 H 546.928 -2.93781 0.0835562 0
M  V30 5762 H 544.442 -1.61736 0.146665 0
M  V30 5763 H 546.439 -3.46056 -2.32489 0
M  V30 5764 H 545.099 -2.28408 -2.30781 0
M  V30 5765 H 546.11 -5.17899 -0.00811038 0
M  V30 5766 H 542.787 -3.62612 -2.06928 0
M  V30 5767 H 544.177 -6.69563 0.559943 0
M  V30 5768 N 546.897 -0.0685191 -1.57451 0
M  V30 5769 C 547.829 0.929372 -2.09512 0
M  V30 5770 C 548.842 1.26354 -1.02657 0
M  V30 5771 O 550.031 1.2213 -1.30179 0
M  V30 5772 C 547.131 2.24612 -2.53777 0
M  V30 5773 C 546.304 2.09128 -3.84167 0
M  V30 5774 C 545.363 3.24079 -4.14559 0
M  V30 5775 O 544.389 2.99215 -4.8421 0
M  V30 5776 N 545.591 4.49077 -3.67845 0
M  V30 5777 H 548.356 0.484901 -2.95751 0
M  V30 5778 H 545.917 0.11729 -1.61475 0
M  V30 5779 H 547.909 3.00412 -2.71172 0
M  V30 5780 H 546.479 2.60569 -1.72692 0
M  V30 5781 H 545.699 1.17815 -3.76182 0
M  V30 5782 H 546.987 1.9603 -4.69521 0
M  V30 5783 H 546.385 4.72165 -3.11571 0
M  V30 5784 H 544.942 5.21915 -3.90446 0
M  V30 5785 N 548.375 1.56261 0.205012 0
M  V30 5786 C 549.305 1.96779 1.257 0
M  V30 5787 C 550.286 0.838309 1.48008 0
M  V30 5788 O 551.471 1.10189 1.59913 0
M  V30 5789 C 548.601 2.29876 2.60335 0
M  V30 5790 C 547.555 3.45469 2.52656 0
M  V30 5791 C 546.881 3.64215 3.91473 0
M  V30 5792 C 548.181 4.79954 2.06014 0
M  V30 5793 H 549.875 2.84904 0.920338 0
M  V30 5794 H 547.421 1.37072 0.441277 0
M  V30 5795 H 549.374 2.56814 3.34102 0
M  V30 5796 H 548.098 1.38622 2.95722 0
M  V30 5797 H 546.757 3.18605 1.81345 0
M  V30 5798 H 546.405 2.70309 4.24196 0
M  V30 5799 H 546.105 4.41973 3.87213 0
M  V30 5800 H 547.629 3.93519 4.66878 0
M  V30 5801 H 549.043 5.05989 2.69533 0
M  V30 5802 H 547.44 5.61111 2.12777 0
M  V30 5803 H 548.51 4.74201 1.01297 0
M  V30 5804 N 549.853 -0.472356 1.50355 0
M  V30 5805 C 551.102 -1.2213 1.60522 0
M  V30 5806 C 551.415 -1.9312 0.310466 0
M  V30 5807 O 552.621 -2.69936 0.291029 0
M  V30 5808 C 551.077 -2.21909 2.83345 0
M  V30 5809 C 550.685 -1.56727 4.19691 0
M  V30 5810 C 552.429 -2.97453 3.02856 0
M  V30 5811 C 550.336 -2.54785 5.33703 0
M  V30 5812 H 549.266 -0.459543 0.597776 0
M  V30 5813 H 551.917 -0.491922 1.76783 0
M  V30 5814 H 550.299 -2.98133 2.60639 0
M  V30 5815 H 551.473 -0.863007 4.52646 0
M  V30 5816 H 549.788 -0.934685 4.05774 0
M  V30 5817 H 552.385 -3.70838 3.85205 0
M  V30 5818 H 552.728 -3.56764 2.14534 0
M  V30 5819 H 553.261 -2.28342 3.25737 0
M  V30 5820 H 550 -2.00214 6.24175 0
M  V30 5821 H 549.52 -3.23367 5.05167 0
M  V30 5822 H 551.199 -3.16639 5.64224 0
M  V30 5823 N 551.331 -1.39911 -0.725443 0
M  V30 5824 C 552.294 -1.39156 -1.82121 0
M  V30 5825 C 553.294 -0.287018 -1.58218 0
M  V30 5826 O 554.484 -0.545421 -1.65441 0
M  V30 5827 C 551.616 -1.1736 -3.20062 0
M  V30 5828 H 552.809 -2.36672 -1.84191 0
M  V30 5829 H 550.362 -1.25615 -0.930079 0
M  V30 5830 H 551.097 -0.205648 -3.23647 0
M  V30 5831 H 550.882 -1.97358 -3.3881 0
M  V30 5832 H 552.372 -1.19596 -4.00108 0
M  V30 5833 N 552.809 0.956637 -1.25245 0
M  V30 5834 C 553.756 2.053 -1.05454 0
M  V30 5835 C 554.726 1.66062 0.0356889 0
M  V30 5836 O 555.911 1.90415 -0.121099 0
M  V30 5837 C 553.051 3.38391 -0.677191 0
M  V30 5838 C 552.164 3.90758 -1.84206 0
M  V30 5839 C 551.299 5.12165 -1.40926 0
M  V30 5840 C 550.338 5.56757 -2.54338 0
M  V30 5841 N 549.475 6.69376 -2.11848 0
M  V30 5842 H 554.315 2.21562 -1.99284 0
M  V30 5843 H 551.852 1.08578 -0.992434 0
M  V30 5844 H 553.81 4.1488 -0.43938 0
M  V30 5845 H 552.44 3.22021 0.224127 0
M  V30 5846 H 551.492 3.10808 -2.19323 0
M  V30 5847 H 552.804 4.19802 -2.69383 0
M  V30 5848 H 551.958 5.96065 -1.13098 0
M  V30 5849 H 550.697 4.84832 -0.528175 0
M  V30 5850 H 549.702 4.71423 -2.82913 0
M  V30 5851 H 550.927 5.861 -3.43022 0
M  V30 5852 H 548.873 6.43756 -1.26153 0
M  V30 5853 H 548.79 6.97927 -2.90574 0
M  V30 5854 H 550.058 7.5669 -1.87191 0
M  V30 5855 N 554.287 1.06798 1.15896 0
M  V30 5856 C 555.703 0.792423 1.38538 0
M  V30 5857 C 555.903 -0.60592 1.92174 0
M  V30 5858 O 554.959 -1.36561 2.12385 0
M  V30 5859 C 556.272 1.86157 2.36149 0
M  V30 5860 C 557.82 1.88567 2.49823 0
M  V30 5861 C 558.295 2.9455 3.5072 0
M  V30 5862 N 559.786 2.93616 3.58251 0
M  V30 5863 C 560.521 3.72267 4.36125 0
M  V30 5864 N 560.017 4.60751 5.17379 0
M  V30 5865 N 561.81 3.60637 4.31158 0
M  V30 5866 H 553.961 1.96993 0.794198 0
M  V30 5867 H 556.224 0.853942 0.411688 0
M  V30 5868 H 555.93 2.86603 2.03843 0
M  V30 5869 H 555.804 1.71692 3.3586 0
M  V30 5870 H 558.191 0.887765 2.8143 0
M  V30 5871 H 558.272 2.0711 1.5013 0
M  V30 5872 H 557.916 3.94537 3.19849 0
M  V30 5873 H 557.846 2.73255 4.50155 0
M  V30 5874 H 560.337 2.29472 3.00252 0
M  V30 5875 H 560.65 5.17408 5.74028 0
M  V30 5876 H 558.995 4.64803 5.16704 0
M  V30 5877 H 562.186 2.90892 3.66742 0
M  V30 5878 H 562.359 4.22176 4.91601 0
M  V30 5879 N 555.766 -1.3263 0.851289 0
M  V30 5880 C 556.696 -2.31449 0.308771 0
M  V30 5881 C 557.677 -1.59531 -0.590255 0
M  V30 5882 O 558.862 -1.87351 -0.511205 0
M  V30 5883 C 555.992 -3.43586 -0.506548 0
M  V30 5884 C 554.946 -4.26963 0.297753 0
M  V30 5885 C 554.272 -5.30831 -0.642094 0
M  V30 5886 C 555.572 -4.99643 1.52166 0
M  V30 5887 H 557.266 -2.77074 1.13447 0
M  V30 5888 H 554.812 -1.33207 0.546971 0
M  V30 5889 H 556.765 -4.11754 -0.896474 0
M  V30 5890 H 555.489 -2.96681 -1.36558 0
M  V30 5891 H 554.148 -3.60437 0.669391 0
M  V30 5892 H 553.796 -4.8018 -1.49788 0
M  V30 5893 H 553.496 -5.87501 -0.107968 0
M  V30 5894 H 555.02 -6.01862 -1.02927 0
M  V30 5895 H 556.434 -5.6051 1.20421 0
M  V30 5896 H 554.831 -5.66022 1.99347 0
M  V30 5897 H 555.901 -4.27701 2.28474 0
M  V30 5898 N 557.244 -0.608902 -1.45362 0
M  V30 5899 C 558.191 0.109172 -2.30542 0
M  V30 5900 C 559.161 0.858704 -1.42181 0
M  V30 5901 O 560.346 0.844178 -1.71109 0
M  V30 5902 C 557.486 1.09971 -3.27109 0
M  V30 5903 C 556.599 0.350911 -4.30572 0
M  V30 5904 C 555.734 1.33129 -5.14247 0
M  V30 5905 C 554.773 0.570377 -6.09437 0
M  V30 5906 N 553.91 1.5001 -6.85887 0
M  V30 5907 H 558.75 -0.623195 -2.91411 0
M  V30 5908 H 556.287 -0.319122 -1.43597 0
M  V30 5909 H 558.245 1.68714 -3.81564 0
M  V30 5910 H 556.875 1.79947 -2.67991 0
M  V30 5911 H 555.927 -0.352054 -3.78767 0
M  V30 5912 H 557.239 -0.242725 -4.98209 0
M  V30 5913 H 556.393 1.99074 -5.73109 0
M  V30 5914 H 555.132 1.95885 -4.46632 0
M  V30 5915 H 554.137 -0.102702 -5.49704 0
M  V30 5916 H 555.362 -0.0521607 -6.7908 0
M  V30 5917 H 553.308 2.11529 -6.2096 0
M  V30 5918 H 553.225 0.959934 -7.49881 0
M  V30 5919 H 554.493 2.14909 -7.49289 0
M  V30 5920 N 558.722 1.53707 -0.348139 0
M  V30 5921 C 559.95 2.05406 0.248224 0
M  V30 5922 C 560.365 1.22282 1.43849 0
M  V30 5923 O 559.722 0.259244 1.80649 0
M  V30 5924 C 559.773 3.55446 0.658793 0
M  V30 5925 O 559.494 4.35417 -0.484149 0
M  V30 5926 C 560.995 4.23335 1.31539 0
M  V30 5927 H 558.215 0.669344 0.0471075 0
M  V30 5928 H 560.759 1.98257 -0.501456 0
M  V30 5929 H 558.914 3.62803 1.35841 0
M  V30 5930 H 559.328 5.24268 -0.155949 0
M  V30 5931 H 560.802 5.29692 1.55338 0
M  V30 5932 H 561.279 3.75967 2.27036 0
M  V30 5933 H 561.885 4.20184 0.657683 0
M  V30 5934 N 560.2 0.0768682 1.57412 0
M  V30 5935 C 561.447 -0.591085 1.93681 0
M  V30 5936 C 561.775 -1.69311 0.957286 0
M  V30 5937 O 561.03 -1.95682 -0.0262428 0
M  V30 5938 C 561.329 -1.20268 3.36557 0
M  V30 5939 C 560.995 -0.226286 4.50332 0
M  V30 5940 C 559.657 0.0423142 4.81181 0
M  V30 5941 C 562.009 0.441415 5.19327 0
M  V30 5942 C 559.337 0.985616 5.78362 0
M  V30 5943 C 561.689 1.37307 6.17519 0
M  V30 5944 C 560.353 1.65009 6.46783 0
M  V30 5945 H 559.623 -0.216293 0.70873 0
M  V30 5946 H 562.27 0.148824 1.90921 0
M  V30 5947 H 560.575 -2.01844 3.35807 0
M  V30 5948 H 562.272 -1.72688 3.61911 0
M  V30 5949 H 558.862 -0.445821 4.26275 0
M  V30 5950 H 563.046 0.247023 4.95685 0
M  V30 5951 H 558.302 1.20743 5.99359 0
M  V30 5952 H 562.476 1.89637 6.70083 0
M  V30 5953 H 560.103 2.38263 7.21897 0
M  V30 5954 N 561.678 -1.56367 -0.196722 0
M  V30 5955 C 562.628 -1.9082 -1.24787 0
M  V30 5956 C 563.612 -0.773719 -1.41076 0
M  V30 5957 O 564.804 -1.03655 -1.43474 0
M  V30 5958 C 561.933 -2.24982 -2.59303 0
M  V30 5959 C 561.019 -3.44882 -2.46814 0
M  V30 5960 N 561.41 -4.62835 -2.04003 0
M  V30 5961 C 559.708 -3.48988 -2.77711 0
M  V30 5962 C 560.409 -5.44993 -2.03366 0
M  V30 5963 N 559.385 -4.85356 -2.44807 0
M  V30 5964 H 563.187 -2.79516 -0.908175 0
M  V30 5965 H 560.701 -1.57265 -0.405166 0
M  V30 5966 H 562.698 -2.47848 -3.35227 0
M  V30 5967 H 561.358 -1.37611 -2.94098 0
M  V30 5968 H 562.369 -4.87532 -1.74738 0
M  V30 5969 H 559.046 -2.72029 -3.16712 0
M  V30 5970 H 560.436 -6.49464 -1.72181 0
M  V30 5971 N 563.156 0.464375 -1.50603 0
M  V30 5972 C 564.572 0.798684 -1.38178 0
M  V30 5973 C 564.772 1.96568 -0.44308 0
M  V30 5974 O 563.828 2.52252 0.111814 0
M  V30 5975 C 565.141 1.10444 -2.79683 0
M  V30 5976 C 566.689 1.2105 -2.88645 0
M  V30 5977 C 567.164 1.54934 -4.30998 0
M  V30 5978 N 568.655 1.61913 -4.3398 0
M  V30 5979 C 569.39 1.8965 -5.41129 0
M  V30 5980 N 568.886 2.15361 -6.58477 0
M  V30 5981 N 570.679 1.91207 -5.28579 0
M  V30 5982 H 562.83 -0.304603 -2.10204 0
M  V30 5983 H 565.093 -0.0737804 -0.945125 0
M  V30 5984 H 564.799 0.319934 -3.50242 0
M  V30 5985 H 564.673 2.03896 -3.17342 0
M  V30 5986 H 567.06 1.98567 -2.18301 0
M  V30 5987 H 567.141 0.255613 -2.5452 0
M  V30 5988 H 566.785 0.779549 -5.01882 0
M  V30 5989 H 566.715 2.51584 -4.62615 0
M  V30 5990 H 569.206 1.44055 -3.49366 0
M  V30 5991 H 569.519 2.35818 -7.35941 0
M  V30 5992 H 567.864 2.1274 -6.6164 0
M  V30 5993 H 571.055 1.70622 -4.35897 0
M  V30 5994 H 571.228 2.12488 -6.12171 0
M  V30 5995 N 564.634 1.40294 0.718013 0
M  V30 5996 C 565.581 1.40367 1.8321 0
M  V30 5997 C 566.551 0.260952 1.64037 0
M  V30 5998 O 567.736 0.458648 1.85205 0
M  V30 5999 C 564.876 1.26965 3.20895 0
M  V30 6000 C 563.989 2.50922 3.51656 0
M  V30 6001 C 563.124 2.29981 4.78834 0
M  V30 6002 C 562.163 3.49527 5.02491 0
M  V30 6003 N 561.3 3.27796 6.20882 0
M  V30 6004 H 566.14 2.35593 1.82482 0
M  V30 6005 H 563.677 1.17012 0.891444 0
M  V30 6006 H 565.635 1.17202 4.00399 0
M  V30 6007 H 564.265 0.353591 3.20858 0
M  V30 6008 H 563.317 2.71223 2.66725 0
M  V30 6009 H 564.629 3.39913 3.65048 0
M  V30 6010 H 563.783 2.17558 5.66351 0
M  V30 6011 H 562.522 1.38411 4.67647 0
M  V30 6012 H 561.527 3.6243 4.1343 0
M  V30 6013 H 562.752 4.42021 5.15553 0
M  V30 6014 H 560.698 2.38906 6.1095 0
M  V30 6015 H 560.615 4.10351 6.34939 0
M  V30 6016 H 561.883 3.19101 7.11193 0
M  V30 6017 N 566.112 -0.949982 1.2575 0
M  V30 6018 C 567.528 -1.22191 1.02672 0
M  V30 6019 C 567.728 -1.99898 -0.253588 0
M  V30 6020 O 566.784 -2.33329 -0.965076 0
M  V30 6021 C 568.097 -1.99175 2.25277 0
M  V30 6022 C 569.645 -2.12201 2.30087 0
M  V30 6023 C 570.12 -2.92586 3.5236 0
M  V30 6024 N 571.611 -3.00163 3.52784 0
M  V30 6025 C 572.346 -3.62766 4.44059 0
M  V30 6026 N 571.842 -4.26943 5.45611 0
M  V30 6027 N 573.635 -3.59953 4.3173 0
M  V30 6028 H 565.786 -0.430258 2.07996 0
M  V30 6029 H 568.049 -0.252844 0.91366 0
M  V30 6030 H 567.755 -1.49479 3.18354 0
M  V30 6031 H 567.629 -2.99868 2.28821 0
M  V30 6032 H 570.016 -2.61093 1.3753 0
M  V30 6033 H 570.097 -1.10799 2.30559 0
M  V30 6034 H 569.741 -2.44383 4.45241 0
M  V30 6035 H 569.671 -3.94224 3.49134 0
M  V30 6036 H 572.162 -2.54529 2.79327 0
M  V30 6037 H 572.475 -4.72583 6.11461 0
M  V30 6038 H 570.82 -4.25557 5.49478 0
M  V30 6039 H 574.011 -3.09003 3.51617 0
M  V30 6040 H 574.184 -4.08455 5.03059 0
M  V30 6041 N 567.59 -1.07411 -1.15328 0
M  V30 6042 C 568.537 -0.694995 -2.20087 0
M  V30 6043 C 569.507 0.313904 -1.63107 0
M  V30 6044 O 570.692 0.200216 -1.89747 0
M  V30 6045 C 567.832 -0.0996218 -3.44956 0
M  V30 6046 C 566.945 -1.16007 -4.16133 0
M  V30 6047 C 566.08 -0.529636 -5.28553 0
M  V30 6048 C 565.119 -1.57283 -5.91548 0
M  V30 6049 N 564.256 -0.964932 -6.95438 0
M  V30 6050 H 569.096 -1.5927 -2.51867 0
M  V30 6051 H 566.633 -0.796115 -1.23695 0
M  V30 6052 H 568.591 0.263197 -4.16369 0
M  V30 6053 H 567.221 0.761435 -3.13691 0
M  V30 6054 H 566.273 -1.64045 -3.4321 0
M  V30 6055 H 567.585 -1.95101 -4.59061 0
M  V30 6056 H 566.739 -0.114487 -6.06592 0
M  V30 6057 H 565.478 0.29307 -4.86819 0
M  V30 6058 H 564.483 -1.99775 -5.12221 0
M  V30 6059 H 565.708 -2.39783 -6.35359 0
M  V30 6060 H 563.654 -0.16314 -6.55797 0
M  V30 6061 H 563.571 -1.69311 -7.36797 0
M  V30 6062 H 564.839 -0.575305 -7.77374 0
M  V30 6063 N 569.068 1.32177 -0.85831 0
M  V30 6064 C 570.016 2.30729 -0.294442 0
M  V30 6065 C 571.01 1.59009 0.584165 0
M  V30 6066 O 572.216 1.73713 0.471562 0
M  V30 6067 H 568.591 0.748097 -0.0765171 0
M  V30 6068 H 570.562 2.75774 -1.1398 0
M  V30 6069 C 569.311 3.44098 0.499208 0
M  V30 6070 H 568.634 3.99449 -0.167579 0
M  V30 6071 H 570.074 4.15202 0.859273 0
M  V30 6072 C 568.533 2.91684 1.68588 0
M  V30 6073 O 569.063 2.89481 2.78503 0
M  V30 6074 N 567.269 2.48036 1.51415 0
M  V30 6075 H 566.816 2.50027 0.620006 0
M  V30 6076 H 566.774 2.13322 2.30957 0
M  V30 6077 N 570.547 0.616602 1.45037 0
M  V30 6078 C 571.477 -0.0840787 2.33349 0
M  V30 6079 C 572.458 -0.849641 1.4736 0
M  V30 6080 O 573.643 -0.818407 1.76113 0
M  V30 6081 C 570.773 -1.07604 3.3021 0
M  V30 6082 C 569.727 -0.423096 4.25904 0
M  V30 6083 C 569.053 -1.52394 5.12523 0
M  V30 6084 C 570.353 0.661457 5.18095 0
M  V30 6085 H 572.047 0.653333 2.92185 0
M  V30 6086 H 569.593 0.315634 1.40498 0
M  V30 6087 H 571.546 -1.57485 3.90866 0
M  V30 6088 H 570.27 -1.84416 2.69552 0
M  V30 6089 H 568.929 0.05493 3.66559 0
M  V30 6090 H 568.577 -2.28257 4.48227 0
M  V30 6091 H 568.277 -1.09251 5.77354 0
M  V30 6092 H 569.801 -2.02485 5.76049 0
M  V30 6093 H 571.215 0.246353 5.7277 0
M  V30 6094 H 569.612 1.01517 5.91451 0
M  V30 6095 H 570.682 1.53446 4.59981 0
M  V30 6096 N 572.025 -1.5352 0.356285 0
M  V30 6097 C 573.302 -1.93405 -0.292223 0
M  V30 6098 C 573.682 -1.28901 -1.67176 0
M  V30 6099 O 573.03 -0.444632 -2.24132 0
M  V30 6100 C 573.24 -3.47223 -0.35175 0
M  V30 6101 C 574.588 -4.20389 -0.596534 0
M  V30 6102 O 575.612 -3.53554 -0.433344 0
M  V30 6103 O 574.471 -5.3881 -0.913589 0
M  V30 6104 H 571.565 -0.808666 -0.173172 0
M  V30 6105 H 574.111 -1.64713 0.408391 0
M  V30 6106 H 572.883 -3.86423 0.615841 0
M  V30 6107 H 572.506 -3.8212 -1.09864 0
M  V30 6108 N 573.503 -0.0852151 -1.57369 0
M  V30 6109 C 574.466 0.8627 -2.12344 0
M  V30 6110 C 575.466 1.21746 -1.05046 0
M  V30 6111 O 576.656 1.14852 -1.30976 0
M  V30 6112 C 573.788 2.1618 -2.63589 0
M  V30 6113 H 574.981 0.385511 -2.97412 0
M  V30 6114 H 572.534 0.163663 -1.55441 0
M  V30 6115 H 573.269 2.68406 -1.82013 0
M  V30 6116 H 573.054 1.91723 -3.4203 0
M  V30 6117 H 574.544 2.84011 -3.06149 0
M  V30 6118 N 574.981 1.5647 0.188427 0
M  V30 6119 C 576.227 1.81281 0.909124 0
M  V30 6120 C 576.56 0.66034 1.82628 0
M  V30 6121 O 575.835 -0.338737 1.91528 0
M  V30 6122 C 576.118 3.16388 1.7196 0
M  V30 6123 C 575.971 4.42137 0.826714 0
M  V30 6124 C 577.29 3.48256 2.69083 0
M  V30 6125 H 574.409 0.659457 0.329068 0
M  V30 6126 H 577.051 1.89182 0.176156 0
M  V30 6127 H 575.201 3.09784 2.34448 0
M  V30 6128 H 576.873 4.60794 0.216025 0
M  V30 6129 H 575.116 4.33594 0.133792 0
M  V30 6130 H 575.787 5.33184 1.42893 0
M  V30 6131 H 578.263 3.55203 2.16726 0
M  V30 6132 H 577.139 4.43899 3.2287 0
M  V30 6133 H 577.4 2.72088 3.48455 0
M  V30 6134 N 576.459 -0.456382 1.50847 0
M  V30 6135 C 577.708 -1.2042 1.61808 0
M  V30 6136 C 578.021 -1.9278 0.330932 0
M  V30 6137 O 579.227 -2.69612 0.319643 0
M  V30 6138 C 577.683 -2.18891 2.85683 0
M  V30 6139 C 577.291 -1.52267 4.2133 0
M  V30 6140 C 579.035 -2.94224 3.05994 0
M  V30 6141 C 576.942 -2.4911 5.36375 0
M  V30 6142 H 575.872 -0.453177 0.602616 0
M  V30 6143 H 578.523 -0.473144 1.77295 0
M  V30 6144 H 576.905 -2.95351 2.63787 0
M  V30 6145 H 578.079 -0.814949 4.53536 0
M  V30 6146 H 576.394 -0.891594 4.06743 0
M  V30 6147 H 578.991 -3.66732 3.89117 0
M  V30 6148 H 579.334 -3.54469 2.18306 0
M  V30 6149 H 579.867 -2.24874 3.28141 0
M  V30 6150 H 576.606 -1.93582 6.26264 0
M  V30 6151 H 576.126 -3.17991 5.08569 0
M  V30 6152 H 577.805 -3.10637 5.67551 0
M  V30 6153 N 577.937 -1.40673 -0.710563 0
M  V30 6154 C 578.885 -1.41517 -1.84596 0
M  V30 6155 C 579.879 -0.295043 -1.66811 0
M  V30 6156 O 581.085 -0.466331 -1.73854 0
M  V30 6157 H 577.46 -0.442467 -0.608052 0
M  V30 6158 H 579.431 -2.37238 -1.80999 0
M  V30 6159 C 578.18 -1.29957 -3.225 0
M  V30 6160 H 577.503 -2.15429 -3.36794 0
M  V30 6161 H 578.943 -1.34608 -4.02066 0
M  V30 6162 C 577.402 -0.0103164 -3.36898 0
M  V30 6163 O 577.932 0.950707 -3.90288 0
M  V30 6164 N 576.138 0.0608409 -2.90536 0
M  V30 6165 H 575.685 -0.721943 -2.47277 0
M  V30 6166 H 575.643 0.92292 -3.00549 0
M  V30 6167 N 579.415 0.9433 -1.26252 0
M  V30 6168 C 580.643 1.72367 -1.14443 0
M  V30 6169 C 581.058 1.86392 0.300572 0
M  V30 6170 O 580.415 1.36978 1.20596 0
M  V30 6171 C 580.466 3.13155 -1.806 0
M  V30 6172 O 580.187 2.99803 -3.19452 0
M  V30 6173 C 581.688 4.07417 -1.74717 0
M  V30 6174 H 578.908 0.539758 -0.398626 0
M  V30 6175 H 581.452 1.18268 -1.66832 0
M  V30 6176 H 579.607 3.64162 -1.32154 0
M  V30 6177 H 580.021 3.88697 -3.52158 0
M  V30 6178 H 581.495 5.03773 -2.25647 0
M  V30 6179 H 581.972 4.3337 -0.713244 0
M  V30 6180 H 582.578 3.6233 -2.22704 0
M  V30 6181 N 580.893 1.08022 1.14757 0
M  V30 6182 C 581.823 0.728248 2.21853 0
M  V30 6183 C 582.804 -0.287486 1.67653 0
M  V30 6184 O 583.989 -0.158727 1.9355 0
M  V30 6185 C 581.119 0.132549 3.47047 0
M  V30 6186 C 580.073 1.07619 4.14249 0
M  V30 6187 C 579.399 0.342907 5.33599 0
M  V30 6188 C 580.699 2.41268 4.63235 0
M  V30 6189 H 582.393 1.62365 2.51551 0
M  V30 6190 H 579.939 0.782125 1.20908 0
M  V30 6191 H 581.892 -0.125665 4.21213 0
M  V30 6192 H 580.616 -0.797971 3.16702 0
M  V30 6193 H 579.275 1.31944 3.42033 0
M  V30 6194 H 578.923 -0.59129 4.99513 0
M  V30 6195 H 578.623 0.971955 5.79506 0
M  V30 6196 H 580.147 0.0926538 6.1053 0
M  V30 6197 H 581.561 2.21232 5.28894 0
M  V30 6198 H 579.958 2.9983 5.19829 0
M  V30 6199 H 581.028 3.03079 3.78512 0
M  V30 6200 N 582.371 -1.3172 0.865308 0
M  V30 6201 C 583.596 -2.01591 0.487415 0
M  V30 6202 C 584.021 -1.6455 -0.911307 0
M  V30 6203 O 583.379 -0.851689 -1.6005 0
M  V30 6204 C 583.427 -3.54759 0.646401 0
M  V30 6205 O 582.531 -4.11185 -0.316284 0
M  V30 6206 H 581.872 -0.634884 0.194468 0
M  V30 6207 H 584.402 -1.68024 1.16744 0
M  V30 6208 H 584.412 -4.04438 0.537932 0
M  V30 6209 H 583.087 -3.8106 1.66632 0
M  V30 6210 H 581.664 -3.72543 -0.163162 0
M  V30 6211 N 583.85 -0.624285 -1.44708 0
M  V30 6212 C 585.099 -0.123539 -2.01321 0
M  V30 6213 C 585.412 1.25966 -1.49639 0
M  V30 6214 O 586.618 1.85405 -1.98336 0
M  V30 6215 C 585.074 -0.170124 -3.59498 0
M  V30 6216 C 584.682 -1.55421 -4.20176 0
M  V30 6217 C 586.426 0.274513 -4.23611 0
M  V30 6218 C 584.332 -1.55628 -5.70556 0
M  V30 6219 H 583.263 -0.0424183 -0.752806 0
M  V30 6220 H 585.913 -0.782076 -1.65999 0
M  V30 6221 H 584.296 0.555385 -3.92086 0
M  V30 6222 H 585.47 -2.30276 -3.99136 0
M  V30 6223 H 583.784 -1.94235 -3.68323 0
M  V30 6224 H 586.382 0.292402 -5.339 0
M  V30 6225 H 586.725 1.3005 -3.95465 0
M  V30 6226 H 587.258 -0.398275 -3.95801 0
M  V30 6227 H 583.997 -2.56041 -6.03426 0
M  V30 6228 H 583.517 -0.850563 -5.93739 0
M  V30 6229 H 585.196 -1.28721 -6.34066 0
M  V30 6230 N 585.328 1.53329 -0.364422 0
M  V30 6231 C 586.553 2.06132 0.229033 0
M  V30 6232 C 586.978 1.23625 1.41769 0
M  V30 6233 O 586.336 0.255038 1.79497 0
M  V30 6234 C 586.384 3.55544 0.60174 0
M  V30 6235 O 585.488 3.75771 1.69912 0
M  V30 6236 H 584.829 0.663148 0.0336213 0
M  V30 6237 H 587.359 1.97758 -0.524689 0
M  V30 6238 H 587.369 3.98549 0.873073 0
M  V30 6239 H 586.044 4.15039 -0.267421 0
M  V30 6240 H 584.621 3.44663 1.42343 0
M  V30 6241 N 586.806 0.0935595 1.57322 0
M  V30 6242 C 587.736 -0.863062 2.16964 0
M  V30 6243 C 588.717 -1.29528 1.10256 0
M  V30 6244 O 589.902 -1.36245 1.38387 0
M  V30 6245 C 587.032 -2.12276 2.74875 0
M  V30 6246 C 585.986 -1.82921 3.86942 0
M  V30 6247 C 585.312 -3.15707 4.31548 0
M  V30 6248 C 586.612 -1.11737 5.10208 0
M  V30 6249 H 588.306 -0.366145 2.97153 0
M  V30 6250 H 585.852 -0.174673 1.42937 0
M  V30 6251 H 587.805 -2.79634 3.1525 0
M  V30 6252 H 586.529 -2.64248 1.91938 0
M  V30 6253 H 585.188 -1.17961 3.47103 0
M  V30 6254 H 584.836 -3.65563 3.45504 0
M  V30 6255 H 584.536 -2.96849 5.07104 0
M  V30 6256 H 586.06 -3.84226 4.74555 0
M  V30 6257 H 587.474 -1.69203 5.47762 0
M  V30 6258 H 585.871 -1.03064 5.91183 0
M  V30 6259 H 586.941 -0.0998818 4.84797 0
M  V30 6260 N 588.284 -1.56567 -0.180126 0
M  V30 6261 C 589.514 -1.85349 -0.912647 0
M  V30 6262 C 589.922 -0.675795 -1.76719 0
M  V30 6263 O 589.265 0.3645 -1.80047 0
M  V30 6264 C 589.327 -3.08431 -1.84691 0
M  V30 6265 C 588.991 -4.41694 -1.17284 0
M  V30 6266 C 589.988 -5.17062 -0.542532 0
M  V30 6267 C 587.673 -4.8843 -1.17223 0
M  V30 6268 C 589.667 -6.37351 0.0793953 0
M  V30 6269 C 587.354 -6.08652 -0.54647 0
M  V30 6270 C 588.352 -6.82955 0.0782458 0
M  V30 6271 O 588.04 -8.00897 0.694158 0
M  V30 6272 H 587.772 -0.619286 -0.271036 0
M  V30 6273 H 590.326 -2.0454 -0.187768 0
M  V30 6274 H 588.556 -2.85163 -2.61188 0
M  V30 6275 H 590.245 -3.23733 -2.44851 0
M  V30 6276 H 591.011 -4.8204 -0.535045 0
M  V30 6277 H 586.89 -4.30542 -1.64788 0
M  V30 6278 H 590.434 -6.95287 0.567612 0
M  V30 6279 H 586.331 -6.4314 -0.55151 0
M  V30 6280 H 587.099 -8.16352 0.592537 0
M  V30 6281 N 589.762 0.448376 -1.51087 0
M  V30 6282 C 590.987 1.22605 -1.6728 0
M  V30 6283 C 591.412 1.84524 -0.365045 0
M  V30 6284 O 590.77 1.6832 0.673642 0
M  V30 6285 C 590.818 2.29393 -2.78229 0
M  V30 6286 O 589.922 3.34608 -2.41063 0
M  V30 6287 H 589.263 0.359705 -0.558129 0
M  V30 6288 H 591.793 0.530903 -1.97592 0
M  V30 6289 H 591.803 2.74352 -3.01986 0
M  V30 6290 H 590.478 1.83701 -3.73131 0
M  V30 6291 H 589.055 2.95202 -2.27838 0
M  V30 6292 N 591.24 1.41047 0.703093 0
M  V30 6293 C 592.17 1.45067 1.82969 0
M  V30 6294 C 593.151 0.31016 1.67248 0
M  V30 6295 O 594.336 0.520548 1.87093 0
M  V30 6296 C 591.466 1.32478 3.2104 0
M  V30 6297 C 590.42 2.44262 3.51454 0
M  V30 6298 C 589.746 2.16742 4.88801 0
M  V30 6299 C 591.046 3.86606 3.51189 0
M  V30 6300 H 592.74 2.39353 1.79863 0
M  V30 6301 H 590.286 1.15206 0.863919 0
M  V30 6302 H 592.239 1.33904 3.99559 0
M  V30 6303 H 590.963 0.346735 3.24754 0
M  V30 6304 H 589.622 2.42107 2.75282 0
M  V30 6305 H 589.27 1.17299 4.89132 0
M  V30 6306 H 588.97 2.91643 5.10116 0
M  V30 6307 H 590.494 2.19872 5.69639 0
M  V30 6308 H 591.908 3.90517 4.19725 0
M  V30 6309 H 590.305 4.61128 3.84033 0
M  V30 6310 H 591.375 4.15296 2.50315 0
M  V30 6311 N 592.718 -0.936591 1.26751 0
M  V30 6312 C 593.965 -1.68331 1.12566 0
M  V30 6313 C 594.293 -1.91677 -0.330168 0
M  V30 6314 O 593.548 -1.49859 -1.2586 0
M  V30 6315 C 593.847 -3.06099 1.84494 0
M  V30 6316 C 593.513 -3.02493 3.34378 0
M  V30 6317 C 592.175 -3.01217 3.75262 0
M  V30 6318 C 594.527 -2.94453 4.30055 0
M  V30 6319 C 591.855 -2.89672 5.10203 0
M  V30 6320 C 594.207 -2.84449 5.65041 0
M  V30 6321 C 592.871 -2.81518 6.0523 0
M  V30 6322 H 592.141 -0.615965 0.411907 0
M  V30 6323 H 594.788 -1.09292 1.5725 0
M  V30 6324 H 593.093 -3.6879 1.32292 0
M  V30 6325 H 594.79 -3.62733 1.70955 0
M  V30 6326 H 591.38 -3.04269 3.01858 0
M  V30 6327 H 595.564 -2.94544 3.99447 0
M  V30 6328 H 590.82 -2.85783 5.40498 0
M  V30 6329 H 594.994 -2.77192 6.38856 0
M  V30 6330 H 592.621 -2.72329 7.09747 0
M  V30 6331 N 594.196 -1.08629 -1.14182 0
M  V30 6332 C 595.159 -0.722027 -2.1753 0
M  V30 6333 C 596.159 0.244305 -1.58933 0
M  V30 6334 O 597.349 0.0235545 -1.74184 0
M  V30 6335 C 594.481 -0.0663966 -3.40835 0
M  V30 6336 H 595.674 -1.63719 -2.51269 0
M  V30 6337 H 593.227 -0.884442 -1.28869 0
M  V30 6338 H 593.962 0.860389 -3.12678 0
M  V30 6339 H 593.747 -0.761598 -3.84632 0
M  V30 6340 H 595.237 0.173346 -4.1724 0
M  V30 6341 N 595.674 1.31259 -0.872281 0
M  V30 6342 C 596.637 2.26744 -0.334656 0
M  V30 6343 C 597.637 1.52307 0.515681 0
M  V30 6344 O 598.827 1.71148 0.324656 0
M  V30 6345 C 595.959 3.36841 0.524482 0
M  V30 6346 H 597.152 2.75812 -1.17762 0
M  V30 6347 H 594.705 1.42232 -0.648064 0
M  V30 6348 H 595.44 2.93069 1.38855 0
M  V30 6349 H 595.225 3.92009 -0.0844299 0
M  V30 6350 H 596.715 4.07944 0.892838 0
M  V30 6351 N 597.152 0.631951 1.44375 0
M  V30 6352 C 598.429 0.067646 1.95483 0
M  V30 6353 C 598.809 -1.40683 1.57389 0
M  V30 6354 O 598.157 -2.12167 0.848375 0
M  V30 6355 C 598.367 0.291392 3.47781 0
M  V30 6356 C 599.715 0.185028 4.24197 0
M  V30 6357 O 600.739 0.222803 3.55503 0
M  V30 6358 O 599.598 0.0906642 5.46425 0
M  V30 6359 H 596.692 -0.0218379 0.826712 0
M  V30 6360 H 599.238 0.703711 1.54421 0
M  V30 6361 H 598.01 1.31449 3.68561 0
M  V30 6362 H 597.633 -0.378772 3.95792 0
M  V30 6363 N 598.631 -1.53133 0.372548 0
M  V30 6364 C 599.578 -2.25951 -0.470631 0
M  V30 6365 C 600.548 -1.26895 -1.07176 0
M  V30 6366 O 601.733 -1.55691 -1.10294 0
M  V30 6367 C 598.873 -3.05726 -1.6008 0
M  V30 6368 C 597.986 -4.19684 -1.02416 0
M  V30 6369 C 597.121 -4.86888 -2.124 0
M  V30 6370 C 596.16 -5.92866 -1.52238 0
M  V30 6371 N 595.297 -6.53732 -2.56084 0
M  V30 6372 H 600.137 -2.97587 0.156816 0
M  V30 6373 H 597.674 -1.4683 0.0891571 0
M  V30 6374 H 599.632 -3.50258 -2.26661 0
M  V30 6375 H 598.262 -2.36331 -2.1988 0
M  V30 6376 H 597.314 -3.79588 -0.248426 0
M  V30 6377 H 598.626 -4.95821 -0.544366 0
M  V30 6378 H 597.78 -5.34638 -2.86787 0
M  V30 6379 H 596.519 -4.10239 -2.63734 0
M  V30 6380 H 595.524 -5.4447 -0.763685 0
M  V30 6381 H 596.749 -6.71439 -1.0172 0
M  V30 6382 H 594.695 -5.79932 -3.06618 0
M  V30 6383 H 594.612 -7.25429 -2.12811 0
M  V30 6384 H 595.88 -7.0613 -3.30152 0
M  V30 6385 N 600.109 -0.101901 -1.5727 0
M  V30 6386 C 601.056 0.854577 -2.14396 0
M  V30 6387 C 602.026 1.27521 -1.06432 0
M  V30 6388 O 603.211 1.35575 -1.34253 0
M  V30 6389 C 600.351 2.10576 -2.73408 0
M  V30 6390 C 599.464 1.73504 -3.95626 0
M  V30 6391 C 598.599 2.9346 -4.42781 0
M  V30 6392 C 597.638 2.52547 -5.57572 0
M  V30 6393 N 596.775 3.65359 -5.99547 0
M  V30 6394 H 601.615 0.360578 -2.9581 0
M  V30 6395 H 599.152 0.166303 -1.46157 0
M  V30 6396 H 601.11 2.83859 -3.05745 0
M  V30 6397 H 599.74 2.57463 -1.94711 0
M  V30 6398 H 598.792 0.901622 -3.6956 0
M  V30 6399 H 600.104 1.39426 -4.78917 0
M  V30 6400 H 599.258 3.74988 -4.76937 0
M  V30 6401 H 597.997 3.30753 -3.58404 0
M  V30 6402 H 597.002 1.69446 -5.23037 0
M  V30 6403 H 598.227 2.1639 -6.43702 0
M  V30 6404 H 596.173 4.02358 -5.18116 0
M  V30 6405 H 596.09 3.35148 -6.77652 0
M  V30 6406 H 597.358 4.47378 -6.38336 0
M  V30 6407 N 601.587 1.56661 0.17182 0
M  V30 6408 C 602.998 1.71652 0.734329 0
M  V30 6409 C 603.349 0.712335 1.82812 0
M  V30 6410 O 602.474 -0.126401 2.16031 0
M  V30 6411 C 603.069 3.11226 1.3388 0
M  V30 6412 C 601.628 3.27904 1.84813 0
M  V30 6413 C 600.775 2.67603 0.726917 0
M  V30 6414 H 603.726 1.5861 -0.0535665 0
M  V30 6415 H 603.747 3.09849 2.20849 0
M  V30 6416 H 603.259 3.8429 0.54249 0
M  V30 6417 H 601.36 2.59796 2.6709 0
M  V30 6418 H 601.473 4.35637 1.99392 0
M  V30 6419 H 599.837 2.274 1.14723 0
M  V30 6420 H 600.62 3.43252 -0.0575334 0
M  V30 6421 N 603.065 -0.440357 1.51323 0
M  V30 6422 C 603.995 -1.54174 1.75364 0
M  V30 6423 C 604.976 -1.59039 0.603375 0
M  V30 6424 O 606.161 -1.74815 0.845774 0
M  V30 6425 C 603.291 -2.92277 1.87593 0
M  V30 6426 C 602.245 -3.02274 3.03009 0
M  V30 6427 C 601.571 -4.42327 3.00418 0
M  V30 6428 C 602.871 -2.76634 4.43024 0
M  V30 6429 H 604.565 -1.34307 2.67585 0
M  V30 6430 H 602.111 -0.644678 1.28763 0
M  V30 6431 H 604.064 -3.69284 2.02995 0
M  V30 6432 H 602.788 -3.13369 0.920179 0
M  V30 6433 H 601.447 -2.27706 2.87307 0
M  V30 6434 H 601.095 -4.60382 2.02626 0
M  V30 6435 H 600.795 -4.49946 3.77918 0
M  V30 6436 H 602.319 -5.21312 3.17909 0
M  V30 6437 H 603.733 -3.43376 4.59093 0
M  V30 6438 H 602.13 -2.95666 5.22208 0
M  V30 6439 H 603.2 -1.72262 4.5327 0
M  V30 6440 N 604.543 -1.41418 -0.695603 0
M  V30 6441 C 605.959 -1.23887 -1.00619 0
M  V30 6442 C 606.159 -0.128206 -2.01092 0
M  V30 6443 O 605.215 0.507408 -2.47349 0
M  V30 6444 C 606.528 -2.58816 -1.53083 0
M  V30 6445 C 608.076 -2.65998 -1.64967 0
M  V30 6446 C 608.551 -4.01244 -2.20833 0
M  V30 6447 N 610.042 -4.0309 -2.28194 0
M  V30 6448 C 610.777 -5.04539 -2.72448 0
M  V30 6449 N 610.273 -6.16378 -3.16306 0
M  V30 6450 N 612.066 -4.91901 -2.72011 0
M  V30 6451 H 604.217 -2.12379 -0.0300061 0
M  V30 6452 H 606.48 -0.944958 -0.0758797 0
M  V30 6453 H 606.186 -3.40842 -0.867147 0
M  V30 6454 H 606.06 -2.81299 -2.51298 0
M  V30 6455 H 608.447 -1.84331 -2.30448 0
M  V30 6456 H 608.528 -2.47325 -0.652982 0
M  V30 6457 H 608.172 -4.83359 -1.55968 0
M  V30 6458 H 608.102 -4.17257 -3.21254 0
M  V30 6459 H 610.593 -3.22341 -1.97242 0
M  V30 6460 H 610.906 -6.89658 -3.487 0
M  V30 6461 H 609.251 -6.19914 -3.14215 0
M  V30 6462 H 612.442 -4.03613 -2.37095 0
M  V30 6463 H 612.615 -5.71102 -3.06181 0
M  V30 6464 N 606.021 0.929856 -1.27246 0
M  V30 6465 C 607.27 1.67182 -1.12842 0
M  V30 6466 C 607.583 1.9287 0.325666 0
M  V30 6467 O 608.789 2.64999 0.590572 0
M  V30 6468 C 607.245 3.01097 -1.97151 0
M  V30 6469 C 606.853 2.83115 -3.47203 0
M  V30 6470 C 608.597 3.78907 -1.91389 0
M  V30 6471 C 606.504 4.12573 -4.23719 0
M  V30 6472 H 605.434 0.627064 -0.418697 0
M  V30 6473 H 608.085 1.0332 -1.51649 0
M  V30 6474 H 606.467 3.66004 -1.51186 0
M  V30 6475 H 607.641 2.26989 -4.01015 0
M  V30 6476 H 605.956 2.18736 -3.54321 0
M  V30 6477 H 608.553 4.74837 -2.45834 0
M  V30 6478 H 608.896 4.0674 -0.887047 0
M  V30 6479 H 609.429 3.20794 -2.35237 0
M  V30 6480 H 606.168 3.8992 -5.26918 0
M  V30 6481 H 605.688 4.68371 -3.74685 0
M  V30 6482 H 607.367 4.8095 -4.32777 0
M  V30 6483 N 607.499 1.09233 1.13605 0
M  V30 6484 C 608.429 0.751738 2.21068 0
M  V30 6485 C 609.41 -0.269688 1.67948 0
M  V30 6486 O 610.595 -0.13819 1.93708 0
M  V30 6487 C 607.725 0.16935 3.46887 0
M  V30 6488 C 606.679 1.12007 4.13084 0
M  V30 6489 C 606.005 0.399483 5.33206 0
M  V30 6490 C 607.305 2.46168 4.6065 0
M  V30 6491 H 608.999 1.65024 2.49815 0
M  V30 6492 H 606.545 0.794905 1.20072 0
M  V30 6493 H 608.498 -0.0809824 4.21322 0
M  V30 6494 H 607.222 -0.764335 3.1753 0
M  V30 6495 H 605.881 1.35564 3.40614 0
M  V30 6496 H 605.529 -0.538277 5.00112 0
M  V30 6497 H 605.229 1.03337 5.78442 0
M  V30 6498 H 606.753 0.157403 6.10397 0
M  V30 6499 H 608.167 2.26829 5.26518 0
M  V30 6500 H 606.564 3.05326 5.1662 0
M  V30 6501 H 607.634 3.07076 3.75276 0
M  V30 6502 N 608.977 -1.30795 0.87923 0
M  V30 6503 C 610.393 -1.48981 0.57243 0
M  V30 6504 C 610.593 -1.80719 -0.891236 0
M  V30 6505 O 609.649 -1.89136 -1.67283 0
M  V30 6506 C 610.962 -2.61721 1.48063 0
M  V30 6507 C 612.51 -2.75603 1.48365 0
M  V30 6508 C 612.985 -3.91449 2.37763 0
M  V30 6509 N 614.476 -3.98751 2.35695 0
M  V30 6510 C 615.211 -4.87684 3.01583 0
M  V30 6511 N 614.707 -5.81454 3.76674 0
M  V30 6512 N 616.5 -4.81005 2.90844 0
M  V30 6513 H 608.651 -1.08465 1.82617 0
M  V30 6514 H 610.914 -0.536813 0.781368 0
M  V30 6515 H 610.62 -2.45073 2.52254 0
M  V30 6516 H 610.494 -3.58071 1.18596 0
M  V30 6517 H 612.881 -2.9166 0.44927 0
M  V30 6518 H 612.962 -1.79891 1.81859 0
M  V30 6519 H 612.606 -3.76149 3.41283 0
M  V30 6520 H 612.536 -4.86487 2.01589 0
M  V30 6521 H 615.027 -3.31668 1.81121 0
M  V30 6522 H 615.34 -6.46063 4.24054 0
M  V30 6523 H 613.685 -5.81403 3.80782 0
M  V30 6524 H 616.876 -4.06728 2.31711 0
M  V30 6525 H 617.049 -5.50107 3.42471 0
M  V30 6526 N 610.455 -0.639598 -1.44038 0
M  V30 6527 C 611.403 0.0723409 -2.32487 0
M  V30 6528 C 612.397 0.827129 -1.47834 0
M  V30 6529 O 613.603 0.73907 -1.64127 0
M  V30 6530 H 609.978 0.0421696 -0.750817 0
M  V30 6531 H 611.949 -0.691593 -2.90275 0
M  V30 6532 C 610.698 1.03452 -3.31953 0
M  V30 6533 H 610.021 0.46315 -3.97108 0
M  V30 6534 H 611.461 1.502 -3.96505 0
M  V30 6535 C 609.92 2.12392 -2.61518 0
M  V30 6536 O 610.45 3.2059 -2.42044 0
M  V30 6537 N 608.656 1.88563 -2.21116 0
M  V30 6538 H 608.203 1.00577 -2.37154 0
M  V30 6539 H 608.161 2.61651 -1.74316 0
M  V30 6540 N 611.933 1.52934 -0.380664 0
M  V30 6541 C 613.181 2.01069 0.203874 0
M  V30 6542 C 613.502 1.26922 1.4804 0
M  V30 6543 O 612.772 0.386787 1.92044 0
M  V30 6544 H 611.352 0.742882 0.0783279 0
M  V30 6545 H 614.014 1.88099 -0.510368 0
M  V30 6546 H 613.11 3.09258 0.42021 0
M  V30 6547 N 613.412 0.11024 1.57214 0
M  V30 6548 C 614.652 -0.553061 1.96775 0
M  V30 6549 C 615.016 -1.64403 0.991753 0
M  V30 6550 O 616.217 -2.36561 1.27642 0
M  V30 6551 C 614.488 -1.08004 3.4069 0
M  V30 6552 S 616.047 -1.75309 4.02259 0
M  V30 6553 H 612.865 -0.18003 0.68783 0
M  V30 6554 H 615.467 0.193242 1.94543 0
M  V30 6555 H 614.171 -0.274735 4.09479 0
M  V30 6556 H 613.702 -1.86182 3.46554 0
M  V30 6557 H 615.717 -3.03834 3.923 0
M  V30 6558 N 614.89 -1.56749 -0.16351 0
M  V30 6559 C 616.137 -1.82434 -0.878866 0
M  V30 6560 C 616.465 -0.688557 -1.81904 0
M  V30 6561 O 615.72 0.323644 -1.93005 0
M  V30 6562 C 616.019 -3.14342 -1.70071 0
M  V30 6563 C 615.685 -4.41647 -0.908775 0
M  V30 6564 C 614.347 -4.76224 -0.690236 0
M  V30 6565 C 616.699 -5.19998 -0.353815 0
M  V30 6566 C 614.027 -5.86624 0.0942374 0
M  V30 6567 C 616.379 -6.3122 0.41761 0
M  V30 6568 C 615.043 -6.64358 0.646879 0
M  V30 6569 H 614.313 -0.667574 -0.3216 0
M  V30 6570 H 616.96 -1.90963 -0.14337 0
M  V30 6571 H 615.265 -3.0119 -2.50583 0
M  V30 6572 H 616.962 -3.31426 -2.25738 0
M  V30 6573 H 613.552 -4.1453 -1.08916 0
M  V30 6574 H 617.736 -4.93673 -0.509975 0
M  V30 6575 H 612.992 -6.10751 0.281529 0
M  V30 6576 H 617.166 -6.91133 0.854849 0
M  V30 6577 H 614.793 -7.49742 1.25662 0
M  V30 6578 N 616.368 0.432326 -1.51554 0
M  V30 6579 C 617.315 1.52512 -1.7323 0
M  V30 6580 C 618.285 1.55863 -0.5741 0
M  V30 6581 O 619.47 1.72796 -0.809093 0
M  V30 6582 C 616.61 2.90183 -1.86783 0
M  V30 6583 C 615.723 2.96322 -3.14352 0
M  V30 6584 C 614.858 4.25147 -3.18471 0
M  V30 6585 C 613.897 4.25172 -4.40335 0
M  V30 6586 N 613.034 5.45529 -4.41975 0
M  V30 6587 H 617.874 1.33332 -2.66508 0
M  V30 6588 H 615.411 0.647613 -1.32077 0
M  V30 6589 H 617.369 3.70071 -1.92623 0
M  V30 6590 H 615.999 3.0791 -0.969087 0
M  V30 6591 H 615.051 2.09066 -3.17798 0
M  V30 6592 H 616.363 2.92203 -4.04251 0
M  V30 6593 H 615.517 5.13411 -3.23255 0
M  V30 6594 H 614.256 4.31929 -2.2647 0
M  V30 6595 H 613.261 3.353 -4.35723 0
M  V30 6596 H 614.486 4.20049 -5.33606 0
M  V30 6597 H 612.432 5.53024 -3.52847 0
M  V30 6598 H 612.349 5.43311 -5.25689 0
M  V30 6599 H 613.617 6.35812 -4.50958 0
M  V30 6600 N 617.846 1.41785 0.688094 0
M  V30 6601 C 619.076 1.44705 1.47459 0
M  V30 6602 C 619.484 0.052916 1.89126 0
M  V30 6603 O 618.827 -0.939781 1.57841 0
M  V30 6604 C 618.889 2.29935 2.76352 0
M  V30 6605 C 618.553 3.77996 2.56843 0
M  V30 6606 C 619.55 4.69976 2.22304 0
M  V30 6607 C 617.235 4.2212 2.7225 0
M  V30 6608 C 619.229 6.04068 2.03421 0
M  V30 6609 C 616.916 5.56275 2.52985 0
M  V30 6610 C 617.914 6.47065 2.18621 0
M  V30 6611 O 617.602 7.78744 1.9953 0
M  V30 6612 H 617.334 0.494703 0.460701 0
M  V30 6613 H 619.888 1.86802 0.854057 0
M  V30 6614 H 618.118 1.82664 3.40839 0
M  V30 6615 H 619.807 2.24467 3.38186 0
M  V30 6616 H 620.573 4.37175 2.10008 0
M  V30 6617 H 616.452 3.51752 2.97979 0
M  V30 6618 H 619.996 6.74897 1.76523 0
M  V30 6619 H 615.893 5.88653 2.64873 0
M  V30 6620 H 616.661 7.89966 2.14234 0
M  V30 6621 N 619.324 -0.923095 1.27737 0
M  V30 6622 C 620.571 -1.67127 1.14345 0
M  V30 6623 C 620.899 -1.92017 -0.30982 0
M  V30 6624 O 620.154 -1.51185 -1.24264 0
M  V30 6625 C 620.453 -3.04125 1.8773 0
M  V30 6626 C 620.119 -2.98929 3.37568 0
M  V30 6627 C 618.781 -2.9722 3.78436 0
M  V30 6628 C 621.133 -2.89875 4.33154 0
M  V30 6629 C 618.461 -2.84244 5.13247 0
M  V30 6630 C 620.813 -2.7844 5.68026 0
M  V30 6631 C 619.477 -2.75083 6.08182 0
M  V30 6632 H 618.747 -0.611562 0.418417 0
M  V30 6633 H 621.394 -1.07618 1.584 0
M  V30 6634 H 619.699 -3.67366 1.36196 0
M  V30 6635 H 621.396 -3.609 1.74792 0
M  V30 6636 H 617.986 -3.0105 3.05069 0
M  V30 6637 H 622.17 -2.9029 4.02548 0
M  V30 6638 H 617.426 -2.80034 5.43499 0
M  V30 6639 H 621.6 -2.70401 6.4176 0
M  V30 6640 H 619.227 -2.64786 7.12596 0
M  V30 6641 N 620.802 -1.09834 -1.13024 0
M  V30 6642 C 621.734 -0.699379 -2.18269 0
M  V30 6643 C 622.747 0.260841 -1.60697 0
M  V30 6644 O 623.936 0.0462538 -1.7844 0
M  V30 6645 C 621.036 -0.0104537 -3.38898 0
M  V30 6646 C 620.209 -0.993275 -4.25973 0
M  V30 6647 C 619.268 -0.336982 -5.2512 0
M  V30 6648 O 618.294 -0.985892 -5.60597 0
M  V30 6649 N 619.496 0.90716 -5.73368 0
M  V30 6650 H 622.261 -1.60486 -2.5311 0
M  V30 6651 H 619.822 -0.986337 -1.28386 0
M  V30 6652 H 621.814 0.43991 -4.02302 0
M  V30 6653 H 620.384 0.797335 -3.0226 0
M  V30 6654 H 619.604 -1.62208 -3.5928 0
M  V30 6655 H 620.892 -1.65876 -4.81002 0
M  V30 6656 H 620.29 1.45384 -5.46699 0
M  V30 6657 H 618.847 1.30077 -6.38689 0
M  V30 6658 N 622.28 1.30327 -0.886154 0
M  V30 6659 C 623.696 1.48676 -0.580323 0
M  V30 6660 C 623.896 1.81189 0.881639 0
M  V30 6661 O 622.952 1.90021 1.66278 0
M  V30 6662 C 624.265 2.60932 -1.49449 0
M  V30 6663 C 625.813 2.74812 -1.49824 0
M  V30 6664 C 626.288 3.90183 -2.39836 0
M  V30 6665 N 627.779 3.97495 -2.37806 0
M  V30 6666 C 628.514 4.86078 -3.04165 0
M  V30 6667 N 628.01 5.79448 -3.79753 0
M  V30 6668 N 629.803 4.79456 -2.93391 0
M  V30 6669 H 621.954 1.07495 -1.8319 0
M  V30 6670 H 624.217 0.532661 -0.784204 0
M  V30 6671 H 623.923 2.43731 -2.5355 0
M  V30 6672 H 623.797 3.57437 -1.20494 0
M  V30 6673 H 626.184 2.91418 -0.464731 0
M  V30 6674 H 626.265 1.78924 -1.82811 0
M  V30 6675 H 625.909 3.74334 -3.43273 0
M  V30 6676 H 625.839 4.85411 -2.04166 0
M  V30 6677 H 628.33 3.30703 -1.82877 0
M  V30 6678 H 628.643 6.43805 -4.27475 0
M  V30 6679 H 626.988 5.79376 -3.8386 0
M  V30 6680 H 630.179 4.05494 -2.33864 0
M  V30 6681 H 630.352 5.48283 -3.45383 0
M  V30 6682 N 623.758 0.647228 1.43697 0
M  V30 6683 C 625.006 0.157876 2.01482 0
M  V30 6684 C 625.327 -1.23039 1.51282 0
M  V30 6685 O 624.597 -1.82071 0.722982 0
M  V30 6686 H 623.177 0.0553745 0.744945 0
M  V30 6687 H 625.839 0.83755 1.75986 0
M  V30 6688 H 624.935 0.137895 3.11795 0
M  V30 6689 N 625.236 -1.5273 0.388769 0
M  V30 6690 C 626.484 -2.01174 -0.193208 0
M  V30 6691 C 626.805 -1.27705 -1.47365 0
M  V30 6692 O 626.075 -0.396966 -1.91836 0
M  V30 6693 H 624.655 -0.743287 -0.0743871 0
M  V30 6694 H 627.317 -1.87826 0.520336 0
M  V30 6695 H 626.413 -3.09477 -0.403803 0
M  V30 6696 N 626.714 -0.118576 -1.57153 0
M  V30 6697 C 627.624 0.845484 -2.18835 0
M  V30 6698 C 628.64 1.29299 -1.16438 0
M  V30 6699 O 629.816 1.35607 -1.48905 0
M  V30 6700 C 626.881 2.07795 -2.77529 0
M  V30 6701 C 625.942 1.6824 -3.9496 0
M  V30 6702 C 625.175 2.85612 -4.50845 0
M  V30 6703 O 625.398 4.01025 -4.05629 0
M  V30 6704 O 624.332 2.62721 -5.41536 0
M  V30 6705 H 628.158 0.350568 -3.0167 0
M  V30 6706 H 625.743 0.107013 -1.49016 0
M  V30 6707 H 627.625 2.79978 -3.14945 0
M  V30 6708 H 626.3 2.56294 -1.97725 0
M  V30 6709 H 625.207 0.931663 -3.62313 0
M  V30 6710 H 626.54 1.24484 -4.76198 0
M  V30 6711 N 628.193 1.56834 0.155195 0
M  V30 6712 C 629.433 1.84701 0.875488 0
M  V30 6713 C 629.797 0.701747 1.78716 0
M  V30 6714 O 630.998 0.861263 2.54629 0
M  V30 6715 C 629.269 3.1773 1.63654 0
M  V30 6716 S 630.828 3.67128 2.40338 0
M  V30 6717 H 627.646 0.647856 0.292923 0
M  V30 6718 H 630.248 1.95026 0.136024 0
M  V30 6719 H 628.952 3.99059 0.958117 0
M  V30 6720 H 628.483 3.10388 2.41708 0
M  V30 6721 H 630.498 3.35739 3.65368 0
M  V30 6722 N 629.671 -0.424282 1.51781 0
M  V30 6723 C 630.917 -1.17434 1.6534 0
M  V30 6724 C 631.25 -1.90549 0.374806 0
M  V30 6725 O 630.525 -1.84145 -0.626179 0
M  V30 6726 C 630.808 -2.18093 2.86544 0
M  V30 6727 C 630.661 -1.48975 4.24413 0
M  V30 6728 C 631.98 -3.18934 3.03264 0
M  V30 6729 H 629.099 -0.425566 0.601716 0
M  V30 6730 H 631.741 -0.461921 1.84299 0
M  V30 6731 H 629.891 -2.78849 2.7051 0
M  V30 6732 H 631.563 -0.914551 4.52143 0
M  V30 6733 H 629.806 -0.791893 4.26511 0
M  V30 6734 H 630.477 -2.22347 5.05238 0
M  V30 6735 H 632.953 -2.68243 3.18096 0
M  V30 6736 H 631.829 -3.86645 3.89611 0
M  V30 6737 H 632.09 -3.85793 2.15908 0
M  V30 6738 N 631.149 -1.42148 -0.680565 0
M  V30 6739 C 632.097 -1.45401 -1.81552 0
M  V30 6740 C 633.091 -0.33036 -1.66147 0
M  V30 6741 O 634.297 -0.503103 -1.72826 0
M  V30 6742 H 630.672 -0.455265 -0.59853 0
M  V30 6743 H 632.643 -2.41024 -1.75926 0
M  V30 6744 C 631.392 -1.36769 -3.19671 0
M  V30 6745 H 630.715 -2.22525 -3.32149 0
M  V30 6746 H 632.155 -1.43106 -3.9912 0
M  V30 6747 C 630.614 -0.0817752 -3.36801 0
M  V30 6748 O 631.144 0.867707 -3.92216 0
M  V30 6749 N 629.35 -0.000799811 -2.906 0
M  V30 6750 H 628.897 -0.774231 -2.4569 0
M  V30 6751 H 628.855 0.858961 -3.02439 0
M  V30 6752 N 632.627 0.916307 -1.28225 0
M  V30 6753 C 633.875 1.6619 -1.15002 0
M  V30 6754 C 634.196 1.92642 0.302329 0
M  V30 6755 O 633.466 1.54076 1.20985 0
M  V30 6756 H 632.046 0.615964 -0.422608 0
M  V30 6757 H 634.708 1.09963 -1.60917 0
M  V30 6758 H 633.804 2.62533 -1.68769 0
M  V30 6759 N 634.105 1.10431 1.1244 0
M  V30 6760 C 635.516 0.864439 1.65482 0
M  V30 6761 C 635.867 -0.60527 1.8663 0
M  V30 6762 O 634.992 -1.46492 1.59276 0
M  V30 6763 C 635.587 1.56267 3.0061 0
M  V30 6764 C 634.146 1.3695 3.50602 0
M  V30 6765 C 633.293 1.61209 2.25626 0
M  V30 6766 H 636.244 1.26203 0.962209 0
M  V30 6767 H 636.265 1.00166 3.67079 0
M  V30 6768 H 635.777 2.63231 2.85186 0
M  V30 6769 H 633.878 0.321481 3.71211 0
M  V30 6770 H 633.991 2.11143 4.30064 0
M  V30 6771 H 632.355 1.03482 2.32731 0
M  V30 6772 H 633.138 2.69425 2.12756 0
M  V30 6773 N 635.583 -1.29855 0.893053 0
M  V30 6774 C 636.832 -1.95104 0.511597 0
M  V30 6775 C 637.145 -1.71226 -0.945567 0
M  V30 6776 O 638.351 -2.30525 -1.43424 0
M  V30 6777 C 636.807 -3.49374 0.864034 0
M  V30 6778 C 636.415 -3.82061 2.33952 0
M  V30 6779 C 638.159 -4.20894 0.552167 0
M  V30 6780 C 636.066 -5.29546 2.63316 0
M  V30 6781 H 634.996 -0.73029 0.187597 0
M  V30 6782 H 637.647 -1.47682 1.08914 0
M  V30 6783 H 636.029 -3.95413 0.215493 0
M  V30 6784 H 637.203 -3.46904 3.03305 0
M  V30 6785 H 635.518 -3.23665 2.61973 0
M  V30 6786 H 638.115 -5.29435 0.748489 0
M  V30 6787 H 638.458 -4.13178 -0.508924 0
M  V30 6788 H 638.991 -3.80564 1.15825 0
M  V30 6789 H 635.73 -5.4232 3.68197 0
M  V30 6790 H 635.25 -5.65974 1.9858 0
M  V30 6791 H 636.929 -5.97068 2.49236 0
M  V30 6792 N 637.061 -0.65484 -1.43351 0
M  V30 6793 C 638.309 -0.168559 -2.01396 0
M  V30 6794 C 638.63 1.22235 -1.51933 0
M  V30 6795 O 637.9 1.81685 -0.732627 0
M  V30 6796 H 636.48 -0.0593244 -0.744641 0
M  V30 6797 H 639.142 -0.846871 -1.75539 0
M  V30 6798 H 638.238 -0.154428 -3.11718 0
M  V30 6799 N 638.539 1.52521 -0.396863 0
M  V30 6800 C 639.469 2.29582 0.425941 0
M  V30 6801 C 640.45 1.33281 1.05689 0
M  V30 6802 O 641.635 1.62181 1.06823 0
M  V30 6803 C 638.765 3.10821 1.54943 0
M  V30 6804 C 637.719 4.15069 1.04413 0
M  V30 6805 C 637.045 4.84578 2.26028 0
M  V30 6806 C 638.345 5.22191 0.106767 0
M  V30 6807 H 640.039 2.98612 -0.217045 0
M  V30 6808 H 637.585 1.43611 -0.105826 0
M  V30 6809 H 639.538 3.63492 2.13193 0
M  V30 6810 H 638.262 2.39538 2.22011 0
M  V30 6811 H 636.921 3.63389 0.484118 0
M  V30 6812 H 636.569 4.09835 2.91623 0
M  V30 6813 H 636.269 5.55043 1.92876 0
M  V30 6814 H 637.793 5.40056 2.84906 0
M  V30 6815 H 639.207 5.70176 0.597685 0
M  V30 6816 H 637.604 5.99947 -0.135352 0
M  V30 6817 H 638.674 4.77531 -0.842134 0
M  V30 6818 N 640.017 0.126909 1.57088 0
M  V30 6819 C 640.947 -0.816847 2.18746 0
M  V30 6820 C 641.928 -1.27161 1.12979 0
M  V30 6821 O 643.113 -1.33279 1.41246 0
M  V30 6822 C 640.243 -2.06398 2.79315 0
M  V30 6823 C 639.197 -1.74673 3.90735 0
M  V30 6824 C 638.523 -3.06482 4.38147 0
M  V30 6825 C 639.823 -1.0089 5.12463 0
M  V30 6826 H 641.517 -0.303032 2.97863 0
M  V30 6827 H 639.063 -0.144314 1.43275 0
M  V30 6828 H 641.016 -2.72885 3.2111 0
M  V30 6829 H 639.74 -2.60118 1.975 0
M  V30 6830 H 638.399 -1.10572 3.49527 0
M  V30 6831 H 638.047 -3.58152 3.5318 0
M  V30 6832 H 637.747 -2.86025 5.13287 0
M  V30 6833 H 639.271 -3.74073 4.82599 0
M  V30 6834 H 640.685 -1.57546 5.51228 0
M  V30 6835 H 639.082 -0.905006 5.93237 0
M  V30 6836 H 640.152 0.00297335 4.849 0
M  V30 6837 N 641.495 -1.56914 -0.146875 0
M  V30 6838 C 642.72 -1.87881 -0.878386 0
M  V30 6839 C 643.145 -0.715945 -1.73942 0
M  V30 6840 O 642.503 0.334447 -1.78189 0
M  V30 6841 C 642.551 -3.17431 -1.71084 0
M  V30 6842 O 641.655 -3.01374 -2.81509 0
M  V30 6843 H 640.996 -0.617289 -0.244644 0
M  V30 6844 H 643.526 -2.04136 -0.137654 0
M  V30 6845 H 643.536 -3.49455 -2.10582 0
M  V30 6846 H 642.211 -4.01671 -1.07856 0
M  V30 6847 H 640.788 -2.80758 -2.45416 0
M  V30 6848 N 642.974 0.416227 -1.52004 0
M  V30 6849 C 644.222 1.16153 -1.65387 0
M  V30 6850 C 644.543 1.91208 -0.382669 0
M  V30 6851 O 643.813 1.86413 0.602231 0
M  V30 6852 H 642.393 0.431765 -0.60958 0
M  V30 6853 H 645.055 0.475151 -1.89019 0
M  V30 6854 H 644.151 1.87952 -2.4916 0
M  V30 6855 N 644.452 1.42507 0.673017 0
M  V30 6856 C 645.385 1.40557 1.79774 0
M  V30 6857 C 646.363 0.269606 1.60349 0
M  V30 6858 O 647.547 0.460105 1.82798 0
M  V30 6859 C 644.674 1.19815 3.168 0
M  V30 6860 C 643.72 2.36429 3.5497 0
M  V30 6861 S 644.553 3.98963 3.57196 0
M  V30 6862 C 645.709 3.80567 4.9691 0
M  V30 6863 H 645.942 2.35734 1.81154 0
M  V30 6864 H 643.475 1.293 0.843846 0
M  V30 6865 H 645.433 1.08535 3.95892 0
M  V30 6866 H 644.094 0.262215 3.13004 0
M  V30 6867 H 643.287 2.17669 4.54573 0
M  V30 6868 H 642.889 2.44233 2.83242 0
M  V30 6869 H 645.181 3.41668 5.85038 0
M  V30 6870 H 646.124 4.79852 5.20718 0
M  V30 6871 H 646.532 3.13399 4.69512 0
M  V30 6872 N 645.93 -0.909495 1.28709 0
M  V30 6873 C 646.86 -2.0291 1.15542 0
M  V30 6874 C 647.841 -1.7002 0.0521017 0
M  V30 6875 O 649.026 -1.92835 0.229849 0
M  V30 6876 C 646.156 -3.37458 0.820935 0
M  V30 6877 C 645.11 -3.84524 1.87949 0
M  V30 6878 C 644.436 -5.16086 1.39854 0
M  V30 6879 C 645.736 -4.05918 3.28676 0
M  V30 6880 H 647.43 -2.14183 2.09203 0
M  V30 6881 H 644.976 -1.02913 1.00722 0
M  V30 6882 H 646.929 -4.1528 0.715571 0
M  V30 6883 H 645.653 -3.26249 -0.151374 0
M  V30 6884 H 644.312 -3.08911 1.97408 0
M  V30 6885 H 643.96 -5.01284 0.41518 0
M  V30 6886 H 643.66 -5.48547 2.1064 0
M  V30 6887 H 645.184 -5.96459 1.30649 0
M  V30 6888 H 646.598 -4.74252 3.22115 0
M  V30 6889 H 644.995 -4.49717 3.97334 0
M  V30 6890 H 646.065 -3.10583 3.72379 0
M  V30 6891 N 647.408 -1.11026 -1.11852 0
M  V30 6892 C 648.819 -0.873203 -1.65021 0
M  V30 6893 C 649.17 0.595364 -1.86949 0
M  V30 6894 O 648.295 1.45645 -1.60051 0
M  V30 6895 C 648.89 -1.57859 -2.99777 0
M  V30 6896 C 647.449 -1.38807 -3.49871 0
M  V30 6897 C 646.596 -1.62403 -2.24768 0
M  V30 6898 H 649.547 -1.26712 -0.955503 0
M  V30 6899 H 649.568 -1.02111 -3.66543 0
M  V30 6900 H 649.08 -2.6474 -2.83786 0
M  V30 6901 H 647.181 -0.341163 -3.71035 0
M  V30 6902 H 647.294 -2.13421 -4.28938 0
M  V30 6903 H 645.658 -1.04714 -2.32179 0
M  V30 6904 H 646.441 -2.70549 -2.11324 0
M  V30 6905 N 648.886 1.2938 -0.899927 0
M  V30 6906 C 650.133 1.9555 -0.525963 0
M  V30 6907 C 650.461 1.70945 0.927789 0
M  V30 6908 O 649.716 1.01545 1.67293 0
M  V30 6909 C 650.015 3.49114 -0.765113 0
M  V30 6910 C 649.681 3.93796 -2.19626 0
M  V30 6911 C 648.343 4.05707 -2.58758 0
M  V30 6912 C 650.695 4.16883 -3.12823 0
M  V30 6913 C 648.023 4.38074 -3.90267 0
M  V30 6914 C 650.375 4.50725 -4.4388 0
M  V30 6915 C 649.039 4.60845 -4.82885 0
M  V30 6916 H 648.309 0.715569 -0.192463 0
M  V30 6917 H 650.956 1.53972 -1.13863 0
M  V30 6918 H 649.261 3.91738 -0.069531 0
M  V30 6919 H 650.958 3.98409 -0.455144 0
M  V30 6920 H 647.548 3.85042 -1.88256 0
M  V30 6921 H 651.732 4.07147 -2.83804 0
M  V30 6922 H 646.988 4.44112 -4.20207 0
M  V30 6923 H 651.162 4.67538 -5.16121 0
M  V30 6924 H 648.789 4.85681 -5.84823 0
M  V30 6925 N 650.364 0.662433 1.43002 0
M  V30 6926 C 651.775 0.258315 1.84904 0
M  V30 6927 C 652.126 -1.19703 1.55453 0
M  V30 6928 O 651.251 -1.91484 1.00811 0
M  V30 6929 C 651.846 0.462047 3.35635 0
M  V30 6930 C 650.405 0.112165 3.76233 0
M  V30 6931 C 649.552 0.760479 2.66668 0
M  V30 6932 H 652.503 0.865467 1.33024 0
M  V30 6933 H 652.524 -0.289646 3.79396 0
M  V30 6934 H 652.036 1.52135 3.57039 0
M  V30 6935 H 650.137 -0.944179 3.60439 0
M  V30 6936 H 650.25 0.544058 4.76001 0
M  V30 6937 H 648.614 0.192887 2.53969 0
M  V30 6938 H 649.397 1.82299 2.90898 0
M  V30 6939 N 651.842 -1.52309 0.404946 0
M  V30 6940 C 652.775 -2.23369 -0.467087 0
M  V30 6941 C 653.753 -1.24034 -1.0514 0
M  V30 6942 O 654.937 -1.53071 -1.10006 0
M  V30 6943 C 652.064 -2.95906 -1.64795 0
M  V30 6944 C 651.11 -4.09637 -1.18743 0
M  V30 6945 S 651.943 -5.35273 -0.156022 0
M  V30 6946 C 653.099 -6.11337 -1.34231 0
M  V30 6947 H 653.332 -2.96987 0.136294 0
M  V30 6948 H 650.865 -1.53236 0.189219 0
M  V30 6949 H 652.823 -3.38304 -2.3251 0
M  V30 6950 H 651.484 -2.21937 -2.22267 0
M  V30 6951 H 650.677 -4.59549 -2.06955 0
M  V30 6952 H 650.279 -3.69333 -0.588981 0
M  V30 6953 H 652.571 -6.38458 -2.26665 0
M  V30 6954 H 653.514 -7.02563 -0.883804 0
M  V30 6955 H 653.922 -5.42338 -1.56621 0
M  V30 6956 N 653.32 -0.135238 -1.57019 0
M  V30 6957 C 654.25 0.805235 -2.19176 0
M  V30 6958 C 655.231 1.2656 -1.13651 0
M  V30 6959 O 656.416 1.32528 -1.4195 0
M  V30 6960 C 653.546 2.04914 -2.80406 0
M  V30 6961 C 652.5 1.72598 -3.91655 0
M  V30 6962 C 651.826 3.04154 -4.39766 0
M  V30 6963 C 653.126 0.981709 -5.12991 0
M  V30 6964 H 654.82 0.287232 -2.98019 0
M  V30 6965 H 652.366 0.136714 -1.4335 0
M  V30 6966 H 654.319 2.71178 -3.22553 0
M  V30 6967 H 653.043 2.59067 -1.98877 0
M  V30 6968 H 651.702 1.08717 -3.50109 0
M  V30 6969 H 651.35 3.56274 -3.55075 0
M  V30 6970 H 651.05 2.83299 -5.14796 0
M  V30 6971 H 652.574 3.71509 -4.84576 0
M  V30 6972 H 653.988 1.5462 -5.52056 0
M  V30 6973 H 652.385 0.873533 -5.93708 0
M  V30 6974 H 653.455 -0.0286887 -4.84892 0
M  V30 6975 N 654.798 1.5699 0.138552 0
M  V30 6976 C 655.728 2.01933 1.17241 0
M  V30 6977 C 656.709 0.90033 1.44319 0
M  V30 6978 O 657.894 1.16872 1.55095 0
M  V30 6979 C 655.024 2.40711 2.50351 0
M  V30 6980 C 653.978 3.55874 2.37776 0
M  V30 6981 C 653.304 3.80491 3.75674 0
M  V30 6982 C 654.604 4.8826 1.85472 0
M  V30 6983 H 656.298 2.88551 0.798672 0
M  V30 6984 H 653.844 1.3882 0.382743 0
M  V30 6985 H 655.797 2.70754 3.22909 0
M  V30 6986 H 654.521 1.5104 2.89576 0
M  V30 6987 H 653.18 3.2601 1.67669 0
M  V30 6988 H 652.828 2.88057 4.12349 0
M  V30 6989 H 652.528 4.57998 3.68119 0
M  V30 6990 H 654.052 4.12967 4.49767 0
M  V30 6991 H 655.466 5.16965 2.4783 0
M  V30 6992 H 653.863 5.69631 1.88787 0
M  V30 6993 H 654.933 4.78071 0.810935 0
M  V30 6994 N 656.276 -0.40816 1.52223 0
M  V30 6995 C 657.523 -1.15502 1.66329 0
M  V30 6996 C 657.851 -1.90474 0.393701 0
M  V30 6997 O 657.106 -1.85507 -0.623356 0
M  V30 6998 C 657.405 -2.17422 2.83659 0
M  V30 6999 C 657.071 -1.5925 4.21841 0
M  V30 7000 C 655.733 -1.4311 4.59427 0
M  V30 7001 C 658.085 -1.16776 5.0795 0
M  V30 7002 C 655.413 -0.830148 5.80797 0
M  V30 7003 C 657.765 -0.580988 6.29926 0
M  V30 7004 C 656.429 -0.406729 6.6626 0
M  V30 7005 H 655.699 -0.422653 0.608642 0
M  V30 7006 H 658.346 -0.442114 1.86327 0
M  V30 7007 H 656.651 -2.94861 2.58001 0
M  V30 7008 H 658.348 -2.75084 2.9177 0
M  V30 7009 H 654.938 -1.72796 3.92224 0
M  V30 7010 H 659.122 -1.28055 4.79495 0
M  V30 7011 H 654.378 -0.68316 6.07571 0
M  V30 7012 H 658.552 -0.243488 6.95974 0
M  V30 7013 H 656.179 0.0610366 7.60175 0
M  V30 7014 N 657.755 -1.42862 -0.66545 0
M  V30 7015 C 658.703 -1.47319 -1.8 0
M  V30 7016 C 659.697 -0.347963 -1.65788 0
M  V30 7017 O 660.903 -0.521406 -1.72283 0
M  V30 7018 H 657.278 -0.461588 -0.593667 0
M  V30 7019 H 659.249 -2.42876 -1.7336 0
M  V30 7020 C 657.998 -1.40152 -3.18203 0
M  V30 7021 H 657.321 -2.26035 -3.2977 0
M  V30 7022 H 658.761 -1.47331 -3.9758 0
M  V30 7023 C 657.22 -0.117493 -3.36695 0
M  V30 7024 O 657.75 0.826058 -3.93115 0
M  V30 7025 N 655.956 -0.0316218 -2.90583 0
M  V30 7026 H 655.503 -0.800247 -2.44855 0
M  V30 7027 H 655.461 0.826835 -3.03333 0
M  V30 7028 N 659.233 0.902656 -1.29189 0
M  V30 7029 C 660.183 1.99326 -1.10695 0
M  V30 7030 C 661.167 1.60877 -0.0272521 0
M  V30 7031 O 662.359 1.75245 -0.248635 0
M  V30 7032 C 659.488 3.34265 -0.78244 0
M  V30 7033 C 658.574 3.79081 -1.90153 0
M  V30 7034 N 658.965 3.96162 -3.14466 0
M  V30 7035 C 657.263 4.08333 -1.79389 0
M  V30 7036 C 657.964 4.3388 -3.87458 0
M  V30 7037 N 656.94 4.42759 -3.15381 0
M  V30 7038 H 660.742 2.10597 -2.05003 0
M  V30 7039 H 658.256 1.09127 -1.20271 0
M  V30 7040 H 660.253 4.12097 -0.630996 0
M  V30 7041 H 658.913 3.2434 0.152754 0
M  V30 7042 H 659.924 3.81775 -3.49954 0
M  V30 7043 H 656.601 4.06982 -0.931217 0
M  V30 7044 H 657.991 4.54965 -4.94425 0
M  V30 7045 N 660.711 1.11618 1.11262 0
M  V30 7046 C 661.958 0.86618 1.8304 0
M  V30 7047 C 662.286 -0.608149 1.84748 0
M  V30 7048 O 661.541 -1.46508 1.29745 0
M  V30 7049 C 661.84 1.37529 3.2988 0
M  V30 7050 C 661.506 2.86317 3.4833 0
M  V30 7051 C 660.168 3.26945 3.53073 0
M  V30 7052 C 662.52 3.82136 3.54431 0
M  V30 7053 C 659.848 4.62117 3.61475 0
M  V30 7054 C 662.2 5.17128 3.64365 0
M  V30 7055 C 660.864 5.57312 3.67369 0
M  V30 7056 H 660.134 0.316958 0.66979 0
M  V30 7057 H 662.781 1.3949 1.31205 0
M  V30 7058 H 661.086 0.766842 3.84222 0
M  V30 7059 H 662.783 1.15817 3.83911 0
M  V30 7060 H 659.373 2.53889 3.45309 0
M  V30 7061 H 663.557 3.51847 3.50025 0
M  V30 7062 H 658.813 4.92655 3.62079 0
M  V30 7063 H 662.987 5.91208 3.68029 0
M  V30 7064 H 660.614 6.62045 3.73632 0
M  V30 7065 N 662.189 -1.289 0.906776 0
M  V30 7066 C 663.436 -1.95269 0.536326 0
M  V30 7067 C 663.764 -1.71435 -0.918711 0
M  V30 7068 O 663.019 -1.02431 -1.66752 0
M  V30 7069 C 663.318 -3.48704 0.783617 0
M  V30 7070 C 662.984 -3.92626 2.21711 0
M  V30 7071 C 661.646 -4.04329 2.60906 0
M  V30 7072 C 663.998 -4.15218 3.15029 0
M  V30 7073 C 661.326 -4.35998 3.92584 0
M  V30 7074 C 663.678 -4.48365 4.46264 0
M  V30 7075 C 662.342 -4.58278 4.85322 0
M  V30 7076 H 661.612 -0.714538 0.196256 0
M  V30 7077 H 664.259 -1.53366 1.14678 0
M  V30 7078 H 662.564 -3.91696 0.0903048 0
M  V30 7079 H 664.261 -3.98162 0.476267 0
M  V30 7080 H 660.851 -3.84038 1.90296 0
M  V30 7081 H 665.035 -4.05636 2.8596 0
M  V30 7082 H 660.291 -4.41878 4.22557 0
M  V30 7083 H 664.465 -4.64795 5.18593 0
M  V30 7084 H 662.092 -4.82573 5.87391 0
M  V30 7085 N 663.667 -0.670007 -1.42649 0
M  V30 7086 C 664.892 -0.196955 -2.06463 0
M  V30 7087 C 665.317 1.1352 -1.49983 0
M  V30 7088 O 664.675 1.705 -0.616397 0
M  V30 7089 C 664.723 -0.137381 -3.60338 0
M  V30 7090 O 663.827 0.895523 -4.02559 0
M  V30 7091 H 663.168 -0.102579 -0.656029 0
M  V30 7092 H 665.698 -0.917669 -1.82866 0
M  V30 7093 H 665.708 0.0403625 -4.0798 0
M  V30 7094 H 664.383 -1.10977 -4.0082 0
M  V30 7095 H 662.96 0.689209 -3.66476 0
M  V30 7096 N 665.145 1.52092 -0.413018 0
M  V30 7097 C 666.391 2.02154 0.161737 0
M  V30 7098 C 666.724 1.29789 1.44459 0
M  V30 7099 O 665.999 0.405378 1.90229 0
M  V30 7100 C 666.282 3.5781 0.405463 0
M  V30 7101 C 666.135 4.40819 -0.894335 0
M  V30 7102 C 667.454 4.23821 1.18591 0
M  V30 7103 H 664.573 0.734769 0.0573077 0
M  V30 7104 H 667.215 1.81948 -0.547247 0
M  V30 7105 H 665.365 3.75158 1.0094 0
M  V30 7106 H 667.037 4.35175 -1.53039 0
M  V30 7107 H 665.28 4.06877 -1.50444 0
M  V30 7108 H 665.951 5.47819 -0.678144 0
M  V30 7109 H 668.427 4.10596 0.674573 0
M  V30 7110 H 667.303 5.32663 1.3252 0
M  V30 7111 H 667.564 3.83038 2.20758 0
M  V30 7112 N 666.623 0.143563 1.56945 0
M  V30 7113 C 667.586 -0.783295 2.154 0
M  V30 7114 C 668.586 -1.17763 1.09492 0
M  V30 7115 O 669.776 -1.09912 1.35148 0
M  V30 7116 C 666.908 -2.06248 2.7143 0
M  V30 7117 H 668.101 -0.274863 2.98638 0
M  V30 7118 H 665.654 -0.105859 1.55941 0
M  V30 7119 H 666.389 -2.61466 1.91849 0
M  V30 7120 H 666.174 -1.78897 3.4891 0
M  V30 7121 H 667.664 -2.72453 3.16479 0
M  V30 7122 N 668.101 -1.57061 -0.130224 0
M  V30 7123 C 669.348 -1.84257 -0.839972 0
M  V30 7124 C 669.676 -0.726986 -1.80403 0
M  V30 7125 O 668.931 0.282632 -1.93648 0
M  V30 7126 C 669.23 -3.17878 -1.63365 0
M  V30 7127 C 668.896 -4.43475 -0.814891 0
M  V30 7128 C 667.558 -4.77581 -0.589066 0
M  V30 7129 C 669.91 -5.20631 -0.243437 0
M  V30 7130 C 667.238 -5.86292 0.218648 0
M  V30 7131 C 669.59 -6.30192 0.551408 0
M  V30 7132 C 668.254 -6.62837 0.787653 0
M  V30 7133 H 667.524 -0.674245 -0.307367 0
M  V30 7134 H 670.171 -1.91224 -0.102832 0
M  V30 7135 H 668.476 -3.06437 -2.44138 0
M  V30 7136 H 670.173 -3.3614 -2.18658 0
M  V30 7137 H 666.763 -4.16747 -1.00098 0
M  V30 7138 H 670.947 -4.94644 -0.405145 0
M  V30 7139 H 666.203 -6.10017 0.411016 0
M  V30 7140 H 670.377 -6.89165 1.00126 0
M  V30 7141 H 668.004 -7.46908 1.41537 0
M  V30 7142 N 669.579 0.400081 -1.52437 0
M  V30 7143 C 670.809 1.16598 -1.70553 0
M  V30 7144 C 671.217 1.8451 -0.418665 0
M  V30 7145 O 670.56 1.73069 0.615855 0
M  V30 7146 C 670.622 2.26517 -2.7916 0
M  V30 7147 C 670.286 1.78666 -4.20628 0
M  V30 7148 C 671.283 1.26946 -5.04163 0
M  V30 7149 C 668.968 1.85225 -4.66902 0
M  V30 7150 C 670.962 0.824187 -6.32049 0
M  V30 7151 C 668.649 1.40309 -5.94774 0
M  V30 7152 C 669.647 0.889922 -6.77178 0
M  V30 7153 O 669.335 0.447281 -8.02655 0
M  V30 7154 H 669.067 0.356023 -0.574651 0
M  V30 7155 H 671.621 0.475598 -1.99818 0
M  V30 7156 H 669.851 2.98946 -2.45292 0
M  V30 7157 H 671.54 2.88237 -2.85787 0
M  V30 7158 H 672.306 1.21244 -4.69601 0
M  V30 7159 H 668.185 2.24111 -4.02859 0
M  V30 7160 H 671.729 0.422958 -6.96317 0
M  V30 7161 H 667.626 1.45693 -6.28843 0
M  V30 7162 H 668.394 0.569768 -8.16514 0
M  V30 7163 N 671.057 1.43213 0.657864 0
M  V30 7164 C 672.282 1.48227 1.45064 0
M  V30 7165 C 672.707 0.0999939 1.87834 0
M  V30 7166 O 672.065 -0.905269 1.57081 0
M  V30 7167 C 672.113 2.42931 2.6649 0
M  V30 7168 O 671.217 1.91237 3.6538 0
M  V30 7169 H 670.558 0.501551 0.435135 0
M  V30 7170 H 673.088 1.8808 0.805431 0
M  V30 7171 H 673.098 2.6008 3.1436 0
M  V30 7172 H 671.773 3.43348 2.34701 0
M  V30 7173 H 670.35 1.83726 3.24498 0
M  V30 7174 N 672.536 -0.895792 1.29666 0
M  V30 7175 C 673.782 -1.64908 1.18039 0
M  V30 7176 C 674.115 -1.9236 -0.266682 0
M  V30 7177 O 673.39 -1.53682 -1.19214 0
M  V30 7178 C 673.673 -2.99574 1.99819 0
M  V30 7179 C 673.526 -2.79163 3.52687 0
M  V30 7180 C 674.845 -4.00358 1.82761 0
M  V30 7181 H 671.964 -0.598437 0.430165 0
M  V30 7182 H 674.606 -1.03736 1.59182 0
M  V30 7183 H 672.756 -3.51786 1.64859 0
M  V30 7184 H 674.428 -2.33821 3.9765 0
M  V30 7185 H 672.671 -2.13871 3.77414 0
M  V30 7186 H 673.342 -3.74871 4.05186 0
M  V30 7187 H 675.818 -3.57268 2.13304 0
M  V30 7188 H 674.694 -4.92514 2.42325 0
M  V30 7189 H 674.955 -4.35096 0.783839 0
M  V30 7190 N 674.014 -1.12206 -1.10668 0
M  V30 7191 C 675.244 -0.897332 -1.86095 0
M  V30 7192 C 675.652 0.556778 -1.80822 0
M  V30 7193 O 674.995 1.39658 -1.19337 0
M  V30 7194 C 675.057 -1.29095 -3.35522 0
M  V30 7195 C 674.721 -2.75586 -3.64556 0
M  V30 7196 C 675.718 -3.73785 -3.6136 0
M  V30 7197 C 673.403 -3.12432 -3.93309 0
M  V30 7198 C 675.397 -5.06845 -3.86506 0
M  V30 7199 C 673.084 -4.45675 -4.18111 0
M  V30 7200 C 674.082 -5.42691 -4.147 0
M  V30 7201 O 673.77 -6.73532 -4.38873 0
M  V30 7202 H 673.502 -0.320704 -0.595084 0
M  V30 7203 H 676.056 -1.49517 -1.40833 0
M  V30 7204 H 674.286 -0.636299 -3.81429 0
M  V30 7205 H 675.975 -1.04073 -3.92331 0
M  V30 7206 H 676.741 -3.46664 -3.39189 0
M  V30 7207 H 672.62 -2.3753 -3.95096 0
M  V30 7208 H 676.164 -5.82559 -3.83758 0
M  V30 7209 H 672.061 -4.72526 -4.39761 0
M  V30 7210 H 672.829 -6.79442 -4.564 0
M  V30 7211 N 675.492 1.28418 -0.913599 0
M  V30 7212 C 676.422 2.29713 -0.418847 0
M  V30 7213 C 677.403 1.62165 0.513469 0
M  V30 7214 O 678.588 1.89576 0.421235 0
M  V30 7215 C 675.718 3.45612 0.342042 0
M  V30 7216 C 674.672 4.25056 -0.501123 0
M  V30 7217 C 673.998 5.3329 0.388097 0
M  V30 7218 C 675.298 4.91814 -1.75831 0
M  V30 7219 H 676.992 2.71346 -1.26538 0
M  V30 7220 H 674.538 1.30446 -0.609903 0
M  V30 7221 H 676.491 4.15562 0.699 0
M  V30 7222 H 675.215 3.02858 1.22248 0
M  V30 7223 H 673.874 3.56833 -0.840598 0
M  V30 7224 H 673.522 4.8678 1.26707 0
M  V30 7225 H 673.222 5.87347 -0.172459 0
M  V30 7226 H 674.746 6.06088 0.74094 0
M  V30 7227 H 676.16 5.54126 -1.47026 0
M  V30 7228 H 674.557 5.55866 -2.26126 0
M  V30 7229 H 675.627 4.16313 -2.4862 0
M  V30 7230 N 676.97 0.677563 1.42291 0
M  V30 7231 C 677.918 -0.0106755 2.32598 0
M  V30 7232 C 678.912 -0.787643 1.49975 0
M  V30 7233 O 680.118 -0.695295 1.66029 0
M  V30 7234 H 676.493 -0.0222482 0.751671 0
M  V30 7235 H 678.464 0.768312 2.88339 0
M  V30 7236 C 677.213 -0.946142 3.3458 0
M  V30 7237 H 676.536 -0.357701 3.98197 0
M  V30 7238 H 677.976 -1.39634 4.00348 0
M  V30 7239 C 676.435 -2.05383 2.67057 0
M  V30 7240 O 676.965 -3.1406 2.50458 0
M  V30 7241 N 675.171 -1.82635 2.26038 0
M  V30 7242 H 674.718 -0.942534 2.39737 0
M  V30 7243 H 674.676 -2.56937 1.81192 0
M  V30 7244 N 678.448 -1.51871 0.421078 0
M  V30 7245 C 679.695 -2.01938 -0.15079 0
M  V30 7246 C 680.023 -1.30611 -1.44121 0
M  V30 7247 O 679.278 -0.404631 -1.91471 0
M  V30 7248 C 679.577 -3.54764 -0.433292 0
M  V30 7249 C 679.243 -4.44288 0.76936 0
M  V30 7250 C 677.905 -4.68477 1.09921 0
M  V30 7251 C 680.257 -4.96915 1.57242 0
M  V30 7252 C 677.585 -5.4254 2.2331 0
M  V30 7253 C 679.937 -5.7222 2.69716 0
M  V30 7254 C 678.601 -5.94678 3.03174 0
M  V30 7255 H 677.871 -0.738943 -0.0551781 0
M  V30 7256 H 680.518 -1.82977 0.564945 0
M  V30 7257 H 678.823 -3.71968 -1.23074 0
M  V30 7258 H 680.52 -3.91023 -0.888922 0
M  V30 7259 H 677.11 -4.25646 0.502305 0
M  V30 7260 H 681.294 -4.78125 1.3308 0
M  V30 7261 H 676.55 -5.58146 2.49565 0
M  V30 7262 H 680.724 -6.11992 3.32323 0
M  V30 7263 H 678.351 -6.51848 3.9115 0
M  V30 7264 N 679.926 -0.151884 -1.56866 0
M  V30 7265 C 681.175 0.497992 -1.95456 0
M  V30 7266 C 681.488 1.6569 -1.03953 0
M  V30 7267 O 682.694 2.37173 -1.32142 0
M  V30 7268 C 681.15 0.93732 -3.4748 0
M  V30 7269 C 680.758 -0.194921 -4.47576 0
M  V30 7270 C 682.502 1.55671 -3.94926 0
M  V30 7271 C 680.409 0.26295 -5.90815 0
M  V30 7272 H 679.339 0.189811 -0.729717 0
M  V30 7273 H 681.99 -0.237011 -1.81963 0
M  V30 7274 H 680.372 1.72773 -3.56322 0
M  V30 7275 H 681.546 -0.971951 -4.50433 0
M  V30 7276 H 679.861 -0.72303 -4.10075 0
M  V30 7277 H 682.458 1.91099 -4.99385 0
M  V30 7278 H 682.801 2.44748 -3.36755 0
M  V30 7279 H 683.334 0.831109 -3.89021 0
M  V30 7280 H 680.073 -0.592568 -6.52816 0
M  V30 7281 H 679.593 1.00575 -5.91308 0
M  V30 7282 H 681.272 0.713333 -6.43056 0
M  V30 7283 N 681.404 1.57128 0.121893 0
M  V30 7284 C 682.314 2.03425 1.16857 0
M  V30 7285 C 683.33 0.954108 1.45509 0
M  V30 7286 O 684.506 1.26541 1.56682 0
M  V30 7287 C 681.571 2.42685 2.47599 0
M  V30 7288 C 680.632 3.64767 2.2637 0
M  V30 7289 C 679.865 4.02145 3.50878 0
M  V30 7290 O 680.088 3.39897 4.58068 0
M  V30 7291 O 679.022 4.95262 3.42051 0
M  V30 7292 H 682.848 2.92825 0.80544 0
M  V30 7293 H 680.433 1.45654 0.332477 0
M  V30 7294 H 682.315 2.68684 3.24634 0
M  V30 7295 H 680.99 1.56432 2.83392 0
M  V30 7296 H 679.897 3.43922 1.47203 0
M  V30 7297 H 681.23 4.51716 1.95482 0
M  V30 7298 N 682.882 -0.391992 1.52647 0
M  V30 7299 C 684.298 -0.731848 1.41831 0
M  V30 7300 C 684.498 -1.9423 0.536361 0
M  V30 7301 O 683.554 -2.52499 0.00866571 0
M  V30 7302 C 684.867 -0.969743 2.84634 0
M  V30 7303 C 686.415 -1.0714 2.94092 0
M  V30 7304 C 686.89 -1.34195 4.37899 0
M  V30 7305 N 688.381 -1.41023 4.41211 0
M  V30 7306 C 689.116 -1.63616 5.49561 0
M  V30 7307 N 688.612 -1.83699 6.68002 0
M  V30 7308 N 690.405 -1.65771 5.371 0
M  V30 7309 H 682.556 0.404547 2.08512 0
M  V30 7310 H 684.819 0.11879 0.940528 0
M  V30 7311 H 684.525 -0.152465 3.51369 0
M  V30 7312 H 684.399 -1.88523 3.26709 0
M  V30 7313 H 686.786 -1.87925 2.27526 0
M  V30 7314 H 686.867 -0.133887 2.55449 0
M  V30 7315 H 686.511 -0.539207 5.0503 0
M  V30 7316 H 686.441 -2.29226 4.74092 0
M  V30 7317 H 688.932 -1.27223 3.55841 0
M  V30 7318 H 689.245 -2.00437 7.46354 0
M  V30 7319 H 687.59 -1.8093 6.71036 0
M  V30 7320 H 690.781 -1.4963 4.43541 0
M  V30 7321 H 690.954 -1.83038 6.21612 0
M  V30 7322 N 684.36 -1.4356 -0.65026 0
M  V30 7323 C 685.608 -1.45046 -1.40734 0
M  V30 7324 C 685.929 -0.0769822 -1.94848 0
M  V30 7325 O 685.199 0.888098 -1.74613 0
M  V30 7326 H 683.779 -0.534034 -0.522318 0
M  V30 7327 H 686.441 -1.79186 -0.766703 0
M  V30 7328 H 685.537 -2.16476 -2.24822 0
M  V30 7329 N 685.838 0.888903 -1.30139 0
M  V30 7330 C 686.768 2.01046 -1.18755 0
M  V30 7331 C 687.749 1.69916 -0.0791438 0
M  V30 7332 O 688.934 1.92445 -0.260498 0
M  V30 7333 C 686.064 3.36109 -0.874518 0
M  V30 7334 C 685.018 3.81486 -1.94043 0
M  V30 7335 C 684.344 5.13796 -1.48047 0
M  V30 7336 C 685.644 4.00637 -3.35093 0
M  V30 7337 H 687.338 2.10828 -2.12584 0
M  V30 7338 H 684.884 1.01298 -1.02346 0
M  V30 7339 H 686.837 4.14089 -0.781548 0
M  V30 7340 H 685.561 3.26449 0.0994519 0
M  V30 7341 H 684.22 3.05731 -2.02297 0
M  V30 7342 H 683.868 5.0056 -0.494878 0
M  V30 7343 H 683.568 5.45127 -2.19341 0
M  V30 7344 H 685.092 5.94305 -1.40121 0
M  V30 7345 H 686.506 4.69067 -3.2962 0
M  V30 7346 H 684.903 4.43339 -4.04438 0
M  V30 7347 H 685.973 3.0462 -3.77273 0
M  V30 7348 N 687.317 1.12792 1.10072 0
M  V30 7349 C 688.247 0.821688 2.18565 0
M  V30 7350 C 689.228 -0.21612 1.68721 0
M  V30 7351 O 690.413 -0.0764932 1.94049 0
M  V30 7352 C 687.543 0.279624 3.46172 0
M  V30 7353 C 686.497 1.25092 4.09312 0
M  V30 7354 C 685.823 0.568916 5.31665 0
M  V30 7355 C 687.123 2.60699 4.52585 0
M  V30 7356 H 688.817 1.72888 2.44438 0
M  V30 7357 H 686.363 0.832702 1.17482 0
M  V30 7358 H 688.316 0.053099 4.21367 0
M  V30 7359 H 687.04 -0.662929 3.19801 0
M  V30 7360 H 685.699 1.46332 3.36129 0
M  V30 7361 H 685.347 -0.378898 5.01571 0
M  V30 7362 H 685.047 1.21687 5.74862 0
M  V30 7363 H 686.571 0.351517 6.09587 0
M  V30 7364 H 687.985 2.43465 5.19035 0
M  V30 7365 H 686.382 3.21608 5.06644 0
M  V30 7366 H 687.452 3.1886 3.65317 0
M  V30 7367 N 688.795 -1.27931 0.920396 0
M  V30 7368 C 690.043 -1.94304 0.555906 0
M  V30 7369 C 690.364 -1.72753 -0.904519 0
M  V30 7370 O 689.634 -1.07104 -1.64029 0
M  V30 7371 H 688.214 -0.719001 0.202599 0
M  V30 7372 H 690.876 -1.55785 1.1712 0
M  V30 7373 H 689.972 -3.02806 0.755981 0
M  V30 7374 N 690.273 -0.685099 -1.4193 0
M  V30 7375 C 691.52 -0.211658 -2.01391 0
M  V30 7376 C 691.848 1.18526 -1.54214 0
M  V30 7377 O 691.103 1.81189 -0.739519 0
M  V30 7378 C 691.402 -0.206154 -3.56805 0
M  V30 7379 C 691.068 -1.54915 -4.23453 0
M  V30 7380 C 689.73 -1.91684 -4.41373 0
M  V30 7381 C 692.082 -2.43317 -4.60919 0
M  V30 7382 C 689.41 -3.16461 -4.94034 0
M  V30 7383 C 691.762 -3.67415 -5.14965 0
M  V30 7384 C 690.426 -4.04341 -5.31098 0
M  V30 7385 H 689.696 -0.0774511 -0.736941 0
M  V30 7386 H 692.343 -0.882121 -1.69973 0
M  V30 7387 H 690.648 0.547841 -3.87951 0
M  V30 7388 H 692.345 0.17753 -4.00607 0
M  V30 7389 H 688.935 -1.25314 -4.09871 0
M  V30 7390 H 693.119 -2.16192 -4.46738 0
M  V30 7391 H 688.375 -3.45078 -5.04709 0
M  V30 7392 H 692.549 -4.3611 -5.42938 0
M  V30 7393 H 690.176 -5.01101 -5.71666 0
M  V30 7394 N 691.751 1.51645 -0.429126 0
M  V30 7395 C 693.162 1.86665 0.0359003 0
M  V30 7396 C 693.513 1.34677 1.42676 0
M  V30 7397 O 692.638 0.694195 2.04963 0
M  V30 7398 C 693.233 3.38724 0.0719221 0
M  V30 7399 C 691.792 3.7331 0.481336 0
M  V30 7400 C 690.939 2.75313 -0.331329 0
M  V30 7401 H 693.89 1.44987 -0.645333 0
M  V30 7402 H 693.911 3.7011 0.883118 0
M  V30 7403 H 693.423 3.76532 -0.940495 0
M  V30 7404 H 691.524 3.41088 1.49966 0
M  V30 7405 H 691.637 4.78631 0.211837 0
M  V30 7406 H 690.001 2.53839 0.209204 0
M  V30 7407 H 690.784 3.15963 -1.34247 0
M  V30 7408 N 693.229 0.160201 1.56784 0
M  V30 7409 C 694.159 -0.770264 2.2043 0
M  V30 7410 C 695.14 -1.24736 1.15651 0
M  V30 7411 O 696.325 -1.30253 1.44041 0
M  V30 7412 C 693.455 -2.00427 2.83631 0
M  V30 7413 C 692.409 -1.66345 3.94352 0
M  V30 7414 C 691.735 -2.97119 4.4455 0
M  V30 7415 C 693.035 -0.899972 5.14488 0
M  V30 7416 H 694.729 -0.239783 2.98438 0
M  V30 7417 H 692.275 -0.113891 1.43549 0
M  V30 7418 H 694.228 -2.66012 3.26827 0
M  V30 7419 H 692.952 -2.5587 2.02973 0
M  V30 7420 H 691.611 -1.03133 3.51794 0
M  V30 7421 H 691.259 -3.5058 3.60698 0
M  V30 7422 H 690.959 -2.75073 5.19238 0
M  V30 7423 H 692.483 -3.63753 4.90425 0
M  V30 7424 H 693.897 -1.45818 5.54446 0
M  V30 7425 H 692.294 -0.778968 5.95023 0
M  V30 7426 H 693.364 0.105827 4.84785 0
M  V30 7427 N 694.707 -1.5719 -0.113559 0
M  V30 7428 C 695.67 -1.99796 -1.12314 0
M  V30 7429 C 696.67 -0.888847 -1.34001 0
M  V30 7430 O 697.86 -1.15476 -1.30426 0
M  V30 7431 C 694.992 -2.34279 -2.47641 0
M  V30 7432 H 696.185 -2.90193 -0.756825 0
M  V30 7433 H 693.738 -1.52144 -0.358029 0
M  V30 7434 H 694.473 -1.46778 -2.89183 0
M  V30 7435 H 694.258 -3.15175 -2.33253 0
M  V30 7436 H 695.748 -2.67963 -3.2029 0
M  V30 7437 N 696.185 0.383891 -1.52853 0
M  V30 7438 C 697.115 1.47559 -1.80965 0
M  V30 7439 C 698.096 1.5669 -0.661986 0
M  V30 7440 O 699.281 1.71556 -0.910072 0
M  V30 7441 C 696.411 2.85114 -1.98312 0
M  V30 7442 C 695.365 2.9082 -3.14019 0
M  V30 7443 C 694.691 4.30873 -3.16627 0
M  V30 7444 C 695.991 2.60001 -4.52986 0
M  V30 7445 H 697.685 1.24283 -2.72386 0
M  V30 7446 H 695.231 0.596445 -1.31067 0
M  V30 7447 H 697.184 3.61496 -2.16561 0
M  V30 7448 H 695.908 3.09738 -1.03585 0
M  V30 7449 H 694.567 2.16886 -2.9556 0
M  V30 7450 H 694.215 4.52545 -2.19573 0
M  V30 7451 H 693.915 4.3561 -3.94357 0
M  V30 7452 H 695.439 5.09154 -3.37038 0
M  V30 7453 H 696.853 3.261 -4.71521 0
M  V30 7454 H 695.25 2.76081 -5.32822 0
M  V30 7455 H 696.32 1.5532 -4.59351 0
M  V30 7456 N 697.663 1.43903 0.642637 0
M  V30 7457 C 698.91 1.46079 1.40239 0
M  V30 7458 C 699.238 0.0890335 1.94296 0
M  V30 7459 O 698.493 -0.907533 1.73385 0
M  V30 7460 C 698.792 2.45907 2.59354 0
M  V30 7461 C 698.458 3.91522 2.23654 0
M  V30 7462 C 697.12 4.31179 2.1363 0
M  V30 7463 C 699.472 4.83242 1.95261 0
M  V30 7464 C 696.8 5.60495 1.73384 0
M  V30 7465 C 699.152 6.12933 1.56511 0
M  V30 7466 C 697.816 6.51556 1.4502 0
M  V30 7467 H 697.086 0.534542 0.513172 0
M  V30 7468 H 699.733 1.77047 0.72984 0
M  V30 7469 H 698.038 2.08381 3.3179 0
M  V30 7470 H 699.735 2.44842 3.17574 0
M  V30 7471 H 696.325 3.60142 2.32369 0
M  V30 7472 H 700.509 4.53367 2.0192 0
M  V30 7473 H 695.765 5.89249 1.63082 0
M  V30 7474 H 699.939 6.83469 1.33576 0
M  V30 7475 H 697.566 7.51663 1.13606 0
M  V30 7476 N 699.141 -0.881989 1.30609 0
M  V30 7477 C 700.051 -2.02076 1.19174 0
M  V30 7478 C 701.067 -1.73645 0.11102 0
M  V30 7479 O 702.243 -1.98735 0.326528 0
M  V30 7480 C 699.308 -3.3515 0.887438 0
M  V30 7481 C 698.369 -3.76983 2.05383 0
M  V30 7482 C 697.602 -5.03707 1.76395 0
M  V30 7483 O 697.825 -5.66171 0.693302 0
M  V30 7484 O 696.759 -5.42019 2.61723 0
M  V30 7485 H 700.585 -2.14652 2.14845 0
M  V30 7486 H 698.17 -1.00843 1.10232 0
M  V30 7487 H 700.052 -4.14975 0.73306 0
M  V30 7488 H 698.727 -3.23676 -0.0393354 0
M  V30 7489 H 697.634 -2.97849 2.26355 0
M  V30 7490 H 698.967 -3.93066 2.96243 0
M  V30 7491 N 700.619 -1.13374 -1.09472 0
M  V30 7492 C 701.582 -0.813639 -2.14272 0
M  V30 7493 C 702.582 0.176677 -1.59826 0
M  V30 7494 O 703.772 -0.0503441 -1.74127 0
M  V30 7495 C 700.904 -0.210897 -3.40247 0
M  V30 7496 H 702.097 -1.74229 -2.44099 0
M  V30 7497 H 699.65 -0.938304 -1.25002 0
M  V30 7498 H 700.385 0.726998 -3.16046 0
M  V30 7499 H 700.17 -0.924048 -3.81056 0
M  V30 7500 H 701.66 -0.00377603 -4.176 0
M  V30 7501 N 702.098 1.27442 -0.927168 0
M  V30 7502 C 703.345 1.94391 -0.567324 0
M  V30 7503 C 703.673 1.72875 0.891321 0
M  V30 7504 O 702.928 1.05071 1.65102 0
M  V30 7505 C 703.227 3.47413 -0.838994 0
M  V30 7506 C 702.893 3.89049 -2.2793 0
M  V30 7507 C 701.555 4.00127 -2.67305 0
M  V30 7508 C 703.907 4.10154 -3.21595 0
M  V30 7509 C 701.235 4.29697 -3.99471 0
M  V30 7510 C 703.587 4.41208 -4.53341 0
M  V30 7511 C 702.251 4.50499 -4.92551 0
M  V30 7512 H 701.521 0.711325 -0.207598 0
M  V30 7513 H 704.168 1.51523 -1.17103 0
M  V30 7514 H 702.473 3.91503 -0.152609 0
M  V30 7515 H 704.17 3.97354 -0.53955 0
M  V30 7516 H 700.76 3.80962 -1.96381 0
M  V30 7517 H 704.944 4.01036 -2.92377 0
M  V30 7518 H 700.2 4.35099 -4.29533 0
M  V30 7519 H 704.374 4.56486 -5.25922 0
M  V30 7520 H 702.001 4.73167 -5.94994 0
M  V30 7521 N 703.576 0.692616 1.41565 0
M  V30 7522 C 704.486 0.0258451 2.34586 0
M  V30 7523 C 705.502 -0.769324 1.56069 0
M  V30 7524 O 706.678 -0.707563 1.88562 0
M  V30 7525 C 703.743 -0.901289 3.3478 0
M  V30 7526 C 702.804 -0.0986579 4.29187 0
M  V30 7527 C 702.037 -0.981634 5.24595 0
M  V30 7528 O 702.26 -2.22115 5.25377 0
M  V30 7529 O 701.194 -0.432892 6.00341 0
M  V30 7530 H 705.02 0.792537 2.93177 0
M  V30 7531 H 702.605 0.452935 1.42369 0
M  V30 7532 H 704.487 -1.43302 3.96286 0
M  V30 7533 H 703.162 -1.64752 2.78637 0
M  V30 7534 H 702.069 0.477604 3.71039 0
M  V30 7535 H 703.402 0.608848 4.8842 0
M  V30 7536 N 705.054 -1.51416 0.437162 0
M  V30 7537 C 706.3 -2.02386 -0.129555 0
M  V30 7538 C 706.633 -1.32071 -1.42376 0
M  V30 7539 O 705.908 -0.43559 -1.8956 0
M  V30 7540 C 706.191 -3.5841 -0.348487 0
M  V30 7541 C 706.044 -4.39341 0.964352 0
M  V30 7542 C 707.363 -4.25654 -1.11834 0
M  V30 7543 H 704.482 -0.735587 -0.0456109 0
M  V30 7544 H 707.124 -1.81055 0.576124 0
M  V30 7545 H 705.274 -3.76716 -0.949592 0
M  V30 7546 H 706.946 -4.32685 1.59942 0
M  V30 7547 H 705.189 -4.04432 1.56898 0
M  V30 7548 H 705.86 -5.4667 0.765212 0
M  V30 7549 H 708.336 -4.11617 -0.609165 0
M  V30 7550 H 707.212 -5.34704 -1.24029 0
M  V30 7551 H 707.473 -3.86502 -2.14636 0
M  V30 7552 N 706.532 -0.168513 -1.56696 0
M  V30 7553 C 707.462 0.758563 -2.20835 0
M  V30 7554 C 708.443 1.24121 -1.1631 0
M  V30 7555 O 709.628 1.29487 -1.4473 0
M  V30 7556 C 706.758 1.9892 -2.8469 0
M  V30 7557 C 705.712 1.64252 -3.95228 0
M  V30 7558 C 705.038 2.94757 -4.46119 0
M  V30 7559 C 706.338 0.872675 -5.14958 0
M  V30 7560 H 708.032 0.223953 -2.98561 0
M  V30 7561 H 705.578 0.106277 -1.43607 0
M  V30 7562 H 707.531 2.64275 -3.28233 0
M  V30 7563 H 706.255 2.5479 -2.04327 0
M  V30 7564 H 704.914 1.01266 -3.52336 0
M  V30 7565 H 704.562 3.48662 -3.62552 0
M  V30 7566 H 704.262 2.72316 -5.2069 0
M  V30 7567 H 705.786 3.61147 -4.92347 0
M  V30 7568 H 707.2 1.42875 -5.55211 0
M  V30 7569 H 705.597 0.747402 -5.95428 0
M  V30 7570 H 706.667 -0.131535 -4.84722 0
M  V30 7571 N 708.01 1.57248 0.105221 0
M  V30 7572 C 709.257 1.8557 0.810552 0
M  V30 7573 C 709.585 0.755595 1.79223 0
M  V30 7574 O 708.84 -0.251788 1.94073 0
M  V30 7575 C 709.139 3.20437 1.58287 0
M  V30 7576 C 708.805 4.44716 0.744235 0
M  V30 7577 C 707.467 4.78458 0.513013 0
M  V30 7578 C 709.819 5.20953 0.160578 0
M  V30 7579 C 707.147 5.8587 -0.311894 0
M  V30 7580 C 709.499 6.29235 -0.651596 0
M  V30 7581 C 708.163 6.615 -0.893005 0
M  V30 7582 H 707.433 0.67905 0.296602 0
M  V30 7583 H 710.08 1.91363 0.0723968 0
M  V30 7584 H 708.385 3.10283 2.39232 0
M  V30 7585 H 710.082 3.39576 2.13282 0
M  V30 7586 H 706.672 4.18287 0.934555 0
M  V30 7587 H 710.856 4.95226 0.3264 0
M  V30 7588 H 706.112 6.09286 -0.508012 0
M  V30 7589 H 710.286 6.87484 -1.11077 0
M  V30 7590 H 707.913 7.44562 -1.53401 0
M  V30 7591 N 709.488 -0.375779 1.53054 0
M  V30 7592 C 710.716 -1.14036 1.72637 0
M  V30 7593 C 711.131 -1.83342 0.450687 0
M  V30 7594 O 710.488 -1.7318 -0.575749 0
M  V30 7595 C 710.539 -2.17841 2.88492 0
M  V30 7596 O 710.26 -1.51358 4.11123 0
M  V30 7597 C 711.761 -3.06924 3.19863 0
M  V30 7598 H 708.981 -0.341386 0.577665 0
M  V30 7599 H 711.525 -0.437809 1.99759 0
M  V30 7600 H 709.68 -2.8371 2.63794 0
M  V30 7601 H 710.094 -2.20439 4.75928 0
M  V30 7602 H 711.568 -3.75763 4.04359 0
M  V30 7603 H 712.045 -3.71169 2.34798 0
M  V30 7604 H 712.651 -2.46684 3.46449 0
M  V30 7605 N 710.966 -1.44241 -0.634997 0
M  V30 7606 C 711.929 -1.50457 -1.72903 0
M  V30 7607 C 712.929 -0.387058 -1.56072 0
M  V30 7608 O 714.119 -0.649531 -1.61638 0
M  V30 7609 C 711.251 -1.37477 -3.1195 0
M  V30 7610 H 712.444 -2.47907 -1.68767 0
M  V30 7611 H 709.997 -1.31276 -0.84831 0
M  V30 7612 H 710.732 -0.41106 -3.21684 0
M  V30 7613 H 710.517 -2.18506 -3.25573 0
M  V30 7614 H 712.007 -1.44799 -3.91692 0
M  V30 7615 N 712.444 0.87505 -1.31075 0
M  V30 7616 C 713.693 1.62245 -1.19831 0
M  V30 7617 C 714.006 1.94078 0.24357 0
M  V30 7618 O 715.212 2.67265 0.477646 0
M  V30 7619 C 713.668 2.92464 -2.09744 0
M  V30 7620 C 713.276 2.68134 -3.58898 0
M  V30 7621 C 715.02 3.70449 -2.07287 0
M  V30 7622 C 712.927 3.9423 -4.40836 0
M  V30 7623 H 711.857 0.608741 -0.444916 0
M  V30 7624 H 714.508 0.967947 -1.55894 0
M  V30 7625 H 712.89 3.59262 -1.66574 0
M  V30 7626 H 714.064 2.09776 -4.10281 0
M  V30 7627 H 712.379 2.03511 -3.6328 0
M  V30 7628 H 714.976 4.63983 -2.65752 0
M  V30 7629 H 715.319 4.02611 -1.05876 0
M  V30 7630 H 715.852 3.10528 -2.48631 0
M  V30 7631 H 712.591 3.67221 -5.42982 0
M  V30 7632 H 712.111 4.52058 -3.94213 0
M  V30 7633 H 713.79 4.62162 -4.52786 0
M  V30 7634 N 713.922 1.13953 1.08869 0
M  V30 7635 C 715.168 0.906151 1.8143 0
M  V30 7636 C 715.501 -0.566089 1.85766 0
M  V30 7637 O 714.776 -1.41915 1.33006 0
M  V30 7638 C 715.059 1.50183 3.27287 0
M  V30 7639 C 714.912 3.04359 3.31189 0
M  V30 7640 C 716.231 1.17477 4.24131 0
M  V30 7641 H 713.35 0.330624 0.658678 0
M  V30 7642 H 715.992 1.40873 1.27495 0
M  V30 7643 H 714.142 1.07442 3.73348 0
M  V30 7644 H 715.814 3.55896 2.93488 0
M  V30 7645 H 714.057 3.39053 2.70602 0
M  V30 7646 H 714.728 3.41141 4.33966 0
M  V30 7647 H 717.204 1.5442 3.86385 0
M  V30 7648 H 716.08 1.61795 5.24513 0
M  V30 7649 H 716.341 0.0893312 4.4201 0
M  V30 7650 N 715.4 -1.26948 0.933913 0
M  V30 7651 C 716.649 -1.93378 0.573409 0
M  V30 7652 C 716.962 -1.74148 -0.890614 0
M  V30 7653 O 718.168 -2.34971 -1.36017 0
M  V30 7654 C 716.624 -3.46449 0.974747 0
M  V30 7655 C 716.232 -3.74425 2.45988 0
M  V30 7656 C 717.976 -4.18924 0.685791 0
M  V30 7657 C 715.883 -5.209 2.8003 0
M  V30 7658 H 714.813 -0.723952 0.210736 0
M  V30 7659 H 717.464 -1.44143 1.13557 0
M  V30 7660 H 715.846 -3.94528 0.341181 0
M  V30 7661 H 717.02 -3.37079 3.14188 0
M  V30 7662 H 715.335 -3.15167 2.72138 0
M  V30 7663 H 717.932 -5.26786 0.916546 0
M  V30 7664 H 718.275 -4.14587 -0.377217 0
M  V30 7665 H 718.808 -3.76687 1.27874 0
M  V30 7666 H 715.547 -5.30332 3.85264 0
M  V30 7667 H 715.067 -5.59369 2.16485 0
M  V30 7668 H 716.746 -5.88837 2.68105 0
M  V30 7669 N 716.879 -0.700114 -1.41195 0
M  V30 7670 C 718.126 -0.233006 -2.01155 0
M  V30 7671 C 718.454 1.16883 -1.55462 0
M  V30 7672 O 717.709 1.80395 -0.758695 0
M  V30 7673 C 718.008 -0.243986 -3.56566 0
M  V30 7674 C 717.674 -1.59397 -4.21786 0
M  V30 7675 C 716.336 -1.96355 -4.39316 0
M  V30 7676 C 718.688 -2.48192 -4.58312 0
M  V30 7677 C 716.016 -3.21683 -4.9065 0
M  V30 7678 C 718.368 -3.72857 -5.11039 0
M  V30 7679 C 717.032 -4.09951 -5.26779 0
M  V30 7680 H 716.302 -0.085263 -0.736078 0
M  V30 7681 H 718.949 -0.9001 -1.69028 0
M  V30 7682 H 717.254 0.506663 -3.8851 0
M  V30 7683 H 718.951 0.135031 -4.00773 0
M  V30 7684 H 715.541 -1.29654 -4.08519 0
M  V30 7685 H 719.725 -2.20918 -4.4442 0
M  V30 7686 H 714.981 -3.50412 -5.01021 0
M  V30 7687 H 719.155 -4.41844 -5.38282 0
M  V30 7688 H 716.782 -5.07136 -5.66319 0
M  V30 7689 N 718.357 1.51182 -0.445186 0
M  V30 7690 C 719.585 2.06568 0.117091 0
M  V30 7691 C 720 1.31182 1.35781 0
M  V30 7692 O 719.357 0.373605 1.78635 0
M  V30 7693 C 719.408 3.58917 0.431408 0
M  V30 7694 O 719.129 4.31456 -0.760078 0
M  V30 7695 C 720.63 4.30843 1.0435 0
M  V30 7696 H 717.85 0.670985 0.00444436 0
M  V30 7697 H 720.394 1.94666 -0.626525 0
M  V30 7698 H 718.549 3.70708 1.12493 0
M  V30 7699 H 718.963 5.22215 -0.489048 0
M  V30 7700 H 720.437 5.38499 1.21337 0
M  V30 7701 H 720.914 3.89644 2.02667 0
M  V30 7702 H 721.52 4.23516 0.38913 0
M  V30 7703 N 719.835 0.176821 1.56605 0
M  V30 7704 C 721.246 -0.338963 1.83597 0
M  V30 7705 C 721.597 -1.62677 1.09684 0
M  V30 7706 O 720.722 -2.13524 0.351661 0
M  V30 7707 C 721.317 -0.62177 3.33046 0
M  V30 7708 C 719.876 -1.08198 3.60514 0
M  V30 7709 C 719.023 -0.120774 2.77037 0
M  V30 7710 H 721.974 0.400978 1.53551 0
M  V30 7711 H 721.995 -1.47321 3.50823 0
M  V30 7712 H 721.507 0.315692 3.86814 0
M  V30 7713 H 719.608 -2.03435 3.12162 0
M  V30 7714 H 719.721 -0.987329 4.68816 0
M  V30 7715 H 718.085 -0.619192 2.47059 0
M  V30 7716 H 718.868 0.810806 3.33588 0
M  V30 7717 N 721.313 -1.57302 -0.09688 0
M  V30 7718 C 722.543 -1.89926 -0.813114 0
M  V30 7719 C 722.951 -0.76852 -1.72888 0
M  V30 7720 O 722.294 0.268549 -1.81726 0
M  V30 7721 C 722.356 -3.17787 -1.68082 0
M  V30 7722 C 722.02 -4.4729 -0.937061 0
M  V30 7723 C 723.017 -5.1921 -0.267687 0
M  V30 7724 C 720.702 -4.93957 -0.911671 0
M  V30 7725 C 722.696 -6.36034 0.417129 0
M  V30 7726 C 720.383 -6.10693 -0.223068 0
M  V30 7727 C 721.381 -6.8158 0.440155 0
M  V30 7728 O 721.069 -7.96092 1.11772 0
M  V30 7729 H 720.801 -0.632783 -0.237828 0
M  V30 7730 H 723.355 -2.05248 -0.0790818 0
M  V30 7731 H 721.585 -2.98607 -2.45705 0
M  V30 7732 H 723.274 -3.36257 -2.27346 0
M  V30 7733 H 724.04 -4.84198 -0.278774 0
M  V30 7734 H 719.919 -4.38671 -1.41734 0
M  V30 7735 H 723.463 -6.91301 0.93537 0
M  V30 7736 H 719.36 -6.45159 -0.209821 0
M  V30 7737 H 720.128 -8.12064 1.02443 0
M  V30 7738 N 722.791 0.367657 -1.53252 0
M  V30 7739 C 723.721 1.45632 -1.8252 0
M  V30 7740 C 724.702 1.55979 -0.678568 0
M  V30 7741 O 725.887 1.70581 -0.928217 0
M  V30 7742 C 723.017 2.82994 -2.01325 0
M  V30 7743 C 721.971 2.87473 -3.17086 0
M  V30 7744 C 721.297 4.2749 -3.21179 0
M  V30 7745 C 722.597 2.55182 -4.55719 0
M  V30 7746 H 724.291 1.21387 -2.73689 0
M  V30 7747 H 721.837 0.58251 -1.31692 0
M  V30 7748 H 723.79 3.59179 -2.20383 0
M  V30 7749 H 722.514 3.08622 -1.06864 0
M  V30 7750 H 721.173 2.13739 -2.97844 0
M  V30 7751 H 720.821 4.5019 -2.24361 0
M  V30 7752 H 720.521 4.31403 -3.98955 0
M  V30 7753 H 722.045 5.0555 -3.42419 0
M  V30 7754 H 723.459 3.21081 -4.74953 0
M  V30 7755 H 721.856 2.70414 -5.3572 0
M  V30 7756 H 722.926 1.5044 -4.60973 0
M  V30 7757 N 724.269 1.44576 0.627338 0
M  V30 7758 C 725.515 1.4877 1.38705 0
M  V30 7759 C 725.87 0.119976 1.92026 0
M  V30 7760 O 725.163 -0.865341 1.70946 0
M  V30 7761 C 725.357 2.48644 2.56731 0
M  V30 7762 C 725.186 3.94994 2.14965 0
M  V30 7763 C 723.956 4.63139 2.02065 0
M  V30 7764 C 726.154 4.841 1.73643 0
M  V30 7765 N 724.136 5.94296 1.53902 0
M  V30 7766 C 725.507 6.0473 1.36753 0
M  V30 7767 C 727.562 4.71131 1.61058 0
M  V30 7768 C 726.265 7.13831 0.885353 0
M  V30 7769 C 728.291 5.8026 1.14244 0
M  V30 7770 C 727.653 7.00034 0.783067 0
M  V30 7771 H 723.752 0.599415 0.50222 0
M  V30 7772 H 726.336 1.80926 0.719285 0
M  V30 7773 H 724.507 2.18472 3.2113 0
M  V30 7774 H 726.239 2.4311 3.23542 0
M  V30 7775 H 722.994 4.18007 2.22637 0
M  V30 7776 H 723.418 6.63985 1.32108 0
M  V30 7777 H 728.06 3.78964 1.87473 0
M  V30 7778 H 725.778 8.05804 0.608716 0
M  V30 7779 H 729.364 5.72254 1.0496 0
M  V30 7780 H 728.244 7.8304 0.426381 0
M  V30 7781 N 725.747 -0.868086 1.31537 0
M  V30 7782 C 726.695 -1.99688 1.1928 0
M  V30 7783 C 727.689 -1.69101 0.100656 0
M  V30 7784 O 728.895 -1.78073 0.262677 0
M  V30 7785 H 725.27 -0.655032 0.369374 0
M  V30 7786 H 727.241 -2.07157 2.14776 0
M  V30 7787 C 725.99 -3.35338 0.918892 0
M  V30 7788 H 725.313 -3.59396 1.75142 0
M  V30 7789 H 726.753 -4.14909 0.873311 0
M  V30 7790 C 725.212 -3.34769 -0.378366 0
M  V30 7791 O 725.742 -3.76716 -1.39456 0
M  V30 7792 N 723.948 -2.87895 -0.39557 0
M  V30 7793 H 723.495 -2.53954 0.431889 0
M  V30 7794 H 723.453 -2.87897 -1.26344 0
M  V30 7795 N 727.225 -1.14528 -1.08264 0
M  V30 7796 C 728.135 -0.84728 -2.18765 0
M  V30 7797 C 729.151 0.172826 -1.7314 0
M  V30 7798 O 730.327 0.000985336 -2.014 0
M  V30 7799 C 727.392 -0.330633 -3.4512 0
M  V30 7800 C 726.453 -1.41348 -4.05363 0
M  V30 7801 C 725.686 -0.921387 -5.25686 0
M  V30 7802 O 725.909 0.236587 -5.69909 0
M  V30 7803 O 724.843 -1.70101 -5.77364 0
M  V30 7804 H 728.669 -1.7708 -2.46731 0
M  V30 7805 H 726.254 -0.923661 -1.17426 0
M  V30 7806 H 728.136 -0.0485053 -4.21372 0
M  V30 7807 H 726.811 0.565147 -3.18728 0
M  V30 7808 H 725.718 -1.74908 -3.30693 0
M  V30 7809 H 727.051 -2.28383 -4.36007 0
M  V30 7810 N 728.703 1.26451 -0.940633 0
M  V30 7811 C 729.952 1.93071 -0.583656 0
M  V30 7812 C 730.265 1.74618 0.881366 0
M  V30 7813 O 731.471 2.35689 1.34769 0
M  V30 7814 C 729.927 3.45927 -0.993106 0
M  V30 7815 C 729.535 3.73115 -2.4797 0
M  V30 7816 C 731.279 4.18554 -0.707998 0
M  V30 7817 C 729.186 5.19408 -2.82788 0
M  V30 7818 H 728.116 0.722824 -0.214572 0
M  V30 7819 H 730.767 1.43538 -1.1432 0
M  V30 7820 H 729.149 3.94341 -0.362099 0
M  V30 7821 H 730.323 3.35408 -3.15971 0
M  V30 7822 H 728.638 3.13719 -2.73805 0
M  V30 7823 H 731.235 5.26293 -0.94447 0
M  V30 7824 H 731.578 4.14782 0.355225 0
M  V30 7825 H 732.111 3.76003 -1.2987 0
M  V30 7826 H 728.85 5.28281 -3.88071 0
M  V30 7827 H 728.37 5.58214 -2.19449 0
M  V30 7828 H 730.049 5.87407 -2.71224 0
M  V30 7829 N 730.181 0.707592 1.40822 0
M  V30 7830 C 731.427 0.244031 2.01326 0
M  V30 7831 C 731.76 -1.15722 1.55955 0
M  V30 7832 O 731.035 -1.78347 0.776044 0
M  V30 7833 C 731.318 0.315128 3.58718 0
M  V30 7834 C 731.171 1.75419 4.14184 0
M  V30 7835 C 732.49 -0.318251 4.38948 0
M  V30 7836 H 729.609 0.0901471 0.731466 0
M  V30 7837 H 732.251 0.898584 1.67408 0
M  V30 7838 H 730.401 -0.242176 3.87744 0
M  V30 7839 H 732.073 2.36626 3.95987 0
M  V30 7840 H 730.316 2.28449 3.68773 0
M  V30 7841 H 730.987 1.75538 5.23345 0
M  V30 7842 H 733.463 0.156514 4.15806 0
M  V30 7843 H 732.339 -0.238019 5.48384 0
M  V30 7844 H 732.6 -1.40067 4.19325 0
M  V30 7845 N 731.66 -1.50943 0.453197 0
M  V30 7846 C 733.076 -1.59245 0.106342 0
M  V30 7847 C 733.276 -1.46287 -1.38572 0
M  V30 7848 O 732.332 -1.31219 -2.15726 0
M  V30 7849 C 733.645 -2.93797 0.640595 0
M  V30 7850 C 735.193 -3.07148 0.602435 0
M  V30 7851 C 735.668 -4.44247 1.11393 0
M  V30 7852 N 737.159 -4.50611 1.07258 0
M  V30 7853 C 737.894 -5.55049 1.43905 0
M  V30 7854 N 737.39 -6.66828 1.87914 0
M  V30 7855 N 739.183 -5.45494 1.35621 0
M  V30 7856 H 731.334 -1.5761 1.42382 0
M  V30 7857 H 733.597 -0.74384 0.587713 0
M  V30 7858 H 733.303 -3.087 1.68515 0
M  V30 7859 H 733.177 -3.77127 0.0742272 0
M  V30 7860 H 735.564 -2.91903 -0.433171 0
M  V30 7861 H 735.645 -2.25619 1.20539 0
M  V30 7862 H 735.289 -4.60239 2.14808 0
M  V30 7863 H 735.219 -5.2434 0.487353 0
M  V30 7864 H 737.71 -3.70391 0.749585 0
M  V30 7865 H 738.023 -7.42558 2.14072 0
M  V30 7866 H 736.368 -6.67995 1.91853 0
M  V30 7867 H 739.559 -4.57053 1.01093 0
M  V30 7868 H 739.732 -6.2677 1.64508 0
M  V30 7869 O 733.177 -0.326351 -1.58168 0
M  V30 7870 H 733.868 0.23289 -1.92295 0
M  V30 END ATOM
M  V30 BEGIN BOND
M  V30 END BOND
M  V30 END CTAB
M  END
$$$$
