drugbank_target|Q92482 Aquaporin-3 (DB11365)
 OpenBabel12092121193D

  0  0  0     0  0            999 V3000
M  V30 BEGIN CTAB
M  V30 COUNTS 4460 4523 0 0 0
M  V30 BEGIN ATOM
M  V30 1 H -0.908 1.98254 -0.117106 0
M  V30 2 N 0 1.576 0 0
M  V30 3 C 0.933 2.03868 1.02534 0
M  V30 4 C 1.911 0.928543 1.3348 0
M  V30 5 O 3.095 1.19667 1.45644 0
M  V30 6 C 0.222 2.43627 2.35294 0
M  V30 7 C -0.732 3.65373 2.2001 0
M  V30 8 S 0.101 5.13292 1.52614 0
M  V30 9 C 1.257 5.56322 2.86805 0
M  V30 10 H 1.49 2.90518 0.631377 0
M  V30 11 H -0.977 1.52953 0.210867 0
M  V30 12 H 0.981 2.67203 3.11629 0
M  V30 13 H -0.358 1.57376 2.7183 0
M  V30 14 H -1.165 3.90944 3.18086 0
M  V30 15 H -1.563 3.418 1.51819 0
M  V30 16 H 0.729 5.58782 3.83104 0
M  V30 17 H 1.672 6.56266 2.65933 0
M  V30 18 H 2.08 4.83886 2.90714 0
M  V30 19 N 1.4781 -0.272755 1.55222 0
M  V30 20 C 2.7261 -1.00234 1.75492 0
M  V30 21 C 3.0471 -1.8681 0.5592 0
M  V30 22 O 2.3171 -1.91215 -0.425882 0
M  V30 23 H 0.8971 -0.373076 0.647166 0
M  V30 24 H 3.5591 -0.296926 1.92625 0
M  V30 25 H 2.6551 -1.63913 2.65592 0
M  V30 26 N 2.9562 -1.48159 -0.537278 0
M  V30 27 C 4.3722 -1.34118 -0.865129 0
M  V30 28 C 4.5722 -0.346678 -1.98495 0
M  V30 29 O 3.6282 0.234715 -2.51407 0
M  V30 30 C 4.9412 -2.73963 -1.23954 0
M  V30 31 C 6.4892 -2.82397 -1.34984 0
M  V30 32 C 6.9642 -4.22928 -1.75772 0
M  V30 33 N 8.4552 -4.25566 -1.82887 0
M  V30 34 C 9.1902 -5.31235 -2.15817 0
M  V30 35 N 8.6862 -6.47189 -2.47222 0
M  V30 36 N 10.4792 -5.18624 -2.16761 0
M  V30 37 H 2.6302 -2.1144 0.201715 0
M  V30 38 H 4.8932 -0.947598 0.0275949 0
M  V30 39 H 4.5992 -3.48264 -0.490381 0
M  V30 40 H 4.4732 -3.0702 -2.19132 0
M  V30 41 H 6.8602 -2.08356 -2.08978 0
M  V30 42 H 6.9412 -2.5297 -0.379448 0
M  V30 43 H 6.5852 -4.97482 -1.02341 0
M  V30 44 H 6.5152 -4.49794 -2.73848 0
M  V30 45 H 9.0062 -3.41924 -1.60924 0
M  V30 46 H 9.3192 -7.23564 -2.71433 0
M  V30 47 H 7.6642 -6.50476 -2.44757 0
M  V30 48 H 10.8552 -4.27056 -1.91679 0
M  V30 49 H 11.0282 -6.01078 -2.42093 0
M  V30 50 N 4.4343 0.785586 -1.36625 0
M  V30 51 C 5.3663 1.90711 -1.2713 0
M  V30 52 C 6.3793 1.61688 -0.189986 0
M  V30 53 O 7.5683 1.72864 -0.445014 0
M  V30 54 C 4.6683 3.25611 -0.939713 0
M  V30 55 C 3.8413 3.82385 -2.12369 0
M  V30 56 C 2.9003 4.95732 -1.76456 0
M  V30 57 O 1.9263 5.12047 -2.48589 0
M  V30 58 N 3.1283 5.76258 -0.700492 0
M  V30 59 H 5.8933 1.99376 -2.23762 0
M  V30 60 H 3.4543 0.964041 -1.30069 0
M  V30 61 H 5.4463 3.98937 -0.680554 0
M  V30 62 H 4.0163 3.12538 -0.0624074 0
M  V30 63 H 3.2363 3.01001 -2.54543 0
M  V30 64 H 4.5243 4.17047 -2.9146 0
M  V30 65 H 3.9223 5.65609 -0.101624 0
M  V30 66 H 2.4793 6.4987 -0.501165 0
M  V30 67 N 5.9124 1.20967 1.01018 0
M  V30 68 C 6.8594 0.964281 2.09691 0
M  V30 69 C 7.8294 -0.107853 1.65749 0
M  V30 70 O 9.0144 0.0381987 1.90762 0
M  V30 71 C 6.1544 0.52943 3.41015 0
M  V30 72 C 5.2674 1.67043 3.98398 0
M  V30 73 C 4.4024 1.18525 5.17808 0
M  V30 74 C 3.4414 2.29892 5.67288 0
M  V30 75 N 2.5784 1.82546 6.77954 0
M  V30 76 H 7.4184 1.89463 2.30017 0
M  V30 77 H 4.9554 0.944289 1.1279 0
M  V30 78 H 6.9134 0.258588 4.16398 0
M  V30 79 H 5.5434 -0.363919 3.20742 0
M  V30 80 H 4.5954 2.05603 3.20049 0
M  V30 81 H 5.9074 2.50877 4.31117 0
M  V30 82 H 5.0614 0.870762 6.00419 0
M  V30 83 H 3.8004 0.316887 4.86669 0
M  V30 84 H 2.8054 2.6215 4.83278 0
M  V30 85 H 4.0304 3.17216 6.00459 0
M  V30 86 H 1.9764 0.980454 6.48632 0
M  V30 87 H 1.8934 2.59956 7.09901 0
M  V30 88 H 3.1614 1.54115 7.64113 0
M  V30 89 N 7.3905 -1.2043 1.01659 0
M  V30 90 C 8.3005 -2.2689 0.596484 0
M  V30 91 C 9.3165 -1.70107 -0.36599 0
M  V30 92 O 10.4925 -2.00117 -0.226942 0
M  V30 93 C 7.5575 -3.4665 -0.0586659 0
M  V30 94 C 6.6185 -4.18662 0.949751 0
M  V30 95 C 5.8515 -5.32705 0.32577 0
M  V30 96 O 6.0745 -5.63656 -0.874509 0
M  V30 97 O 5.0085 -5.92803 1.04249 0
M  V30 98 H 8.8345 -2.65041 1.4828 0
M  V30 99 H 6.4195 -1.27048 0.786082 0
M  V30 100 H 8.3015 -4.19256 -0.424564 0
M  V30 101 H 6.9765 -3.10375 -0.91918 0
M  V30 102 H 5.8835 -3.48229 1.36702 0
M  V30 103 H 7.2165 -4.58878 1.78023 0
M  V30 104 N 8.8686 -0.792821 -1.36206 0
M  V30 105 C 9.7986 -0.207853 -2.32573 0
M  V30 106 C 10.7796 0.659055 -1.56813 0
M  V30 107 O 11.9646 0.592176 -1.84951 0
M  V30 108 C 9.0946 0.655449 -3.41059 0
M  V30 109 C 8.0486 -0.111842 -4.27854 0
M  V30 110 C 7.3746 0.872274 -5.27537 0
M  V30 111 C 8.6746 -1.30299 -5.05786 0
M  V30 112 H 10.3686 -1.01294 -2.81744 0
M  V30 113 H 7.9146 -0.48854 -1.3546 0
M  V30 114 H 9.8676 1.07464 -4.07467 0
M  V30 115 H 8.5916 1.49328 -2.90463 0
M  V30 116 H 7.2506 -0.512053 -3.63006 0
M  V30 117 H 6.8986 1.70523 -4.73214 0
M  V30 118 H 6.5986 0.363291 -5.86476 0
M  V30 119 H 8.1226 1.28996 -5.96818 0
M  V30 120 H 9.5366 -0.959379 -5.65216 0
M  V30 121 H 7.9336 -1.7455 -5.74154 0
M  V30 122 H 9.0036 -2.09663 -4.37229 0
M  V30 123 N 10.3467 1.47872 -0.545128 0
M  V30 124 C 11.5927 2.02793 -0.0166104 0
M  V30 125 C 11.9257 1.41987 1.32489 0
M  V30 126 O 11.2007 0.571045 1.85928 0
M  V30 127 C 11.4837 3.59989 0.0893294 0
M  V30 128 C 11.3367 4.3125 -1.27841 0
M  V30 129 C 12.6557 4.32606 0.808724 0
M  V30 130 H 9.7747 0.736962 -0.00751035 0
M  V30 131 H 12.4167 1.76433 -0.705085 0
M  V30 132 H 10.5667 3.82579 0.675681 0
M  V30 133 H 12.2387 4.20035 -1.90704 0
M  V30 134 H 10.4817 3.92076 -1.85632 0
M  V30 135 H 11.1527 5.39736 -1.15713 0
M  V30 136 H 13.6287 4.14936 0.310992 0
M  V30 137 H 12.5047 5.42251 0.851782 0
M  V30 138 H 12.7657 4.00963 1.86229 0
M  V30 139 N 11.8248 0.280983 1.55075 0
M  V30 140 C 13.0498 -0.340154 2.04592 0
M  V30 141 C 13.4748 -1.48246 1.15779 0
M  V30 142 O 12.8328 -1.80614 0.15761 0
M  V30 143 C 12.8808 -0.793104 3.5177 0
M  V30 144 O 11.9848 -1.89981 3.66034 0
M  V30 145 H 11.3258 -0.0694289 0.66036 0
M  V30 146 H 13.8558 0.416993 2.00306 0
M  V30 147 H 13.8658 -1.08729 3.93245 0
M  V30 148 H 12.5408 0.0426163 4.15878 0
M  V30 149 H 11.1178 -1.60771 3.36463 0
M  V30 150 N 13.3029 -1.57598 0.00835791 0
M  V30 151 C 14.7189 -1.55764 -0.347822 0
M  V30 152 C 14.9189 -1.01186 -1.74252 0
M  V30 153 O 13.9749 -0.649371 -2.44007 0
M  V30 154 C 15.2879 -2.99927 -0.215407 0
M  V30 155 C 16.8359 -3.11656 -0.289725 0
M  V30 156 C 17.3109 -4.57621 -0.18634 0
M  V30 157 N 18.8019 -4.62557 -0.243978 0
M  V30 158 C 19.5369 -5.73094 -0.18745 0
M  V30 159 N 19.0329 -6.92753 -0.0810331 0
M  V30 160 N 20.8259 -5.61588 -0.239925 0
M  V30 161 H 12.9769 -1.91411 0.92062 0
M  V30 162 H 15.2399 -0.879562 0.353659 0
M  V30 163 H 14.9459 -3.43729 0.744512 0
M  V30 164 H 14.8199 -3.63865 -0.994097 0
M  V30 165 H 17.2069 -2.67779 -1.24009 0
M  V30 166 H 17.2879 -2.5048 0.51898 0
M  V30 167 H 16.9319 -5.02174 0.760519 0
M  V30 168 H 16.8619 -5.16752 -1.01364 0
M  V30 169 H 19.3529 -3.76481 -0.327217 0
M  V30 170 H 19.6659 -7.72787 -0.0440241 0
M  V30 171 H 18.0109 -6.94984 -0.0465419 0
M  V30 172 H 21.2019 -4.66996 -0.321317 0
M  V30 173 H 21.3749 -6.47714 -0.192407 0
M  V30 174 N 14.781 0.264519 -1.55364 0
M  V30 175 C 16.021 1.00254 -1.78125 0
M  V30 176 C 16.385 1.83187 -0.575017 0
M  V30 177 O 17.586 2.60029 -0.681042 0
M  V30 178 C 15.857 1.85478 -3.05504 0
M  V30 179 S 17.416 2.6543 -3.49417 0
M  V30 180 H 14.234 0.337522 -0.625779 0
M  V30 181 H 16.836 0.272111 -1.93597 0
M  V30 182 H 15.54 1.23491 -3.9138 0
M  V30 183 H 15.071 2.62827 -2.92721 0
M  V30 184 H 17.086 3.87958 -3.09359 0
M  V30 185 N 16.2591 1.48442 0.529413 0
M  V30 186 C 17.5071 1.56179 1.28267 0
M  V30 187 C 17.8281 0.237721 1.93546 0
M  V30 188 O 17.0981 -0.740779 1.81354 0
M  V30 189 H 15.6781 0.575367 0.476405 0
M  V30 190 H 18.3401 1.84909 0.61602 0
M  V30 191 H 17.4361 2.34312 2.06165 0
M  V30 192 N 17.7372 -0.778329 1.37039 0
M  V30 193 C 18.6472 -1.92253 1.34446 0
M  V30 194 C 19.6632 -1.72267 0.244991 0
M  V30 195 O 20.8392 -1.95615 0.479258 0
M  V30 196 C 17.9042 -3.27282 1.144 0
M  V30 197 C 16.9652 -3.59969 2.33925 0
M  V30 198 C 16.1982 -4.88555 2.14825 0
M  V30 199 O 16.4212 -5.59113 1.12912 0
M  V30 200 O 15.3552 -5.20153 3.02861 0
M  V30 201 H 19.1812 -1.97392 2.30803 0
M  V30 202 H 16.7662 -0.920154 1.17701 0
M  V30 203 H 18.6482 -4.08062 1.05182 0
M  V30 204 H 17.3232 -3.23011 0.211124 0
M  V30 205 H 16.2302 -2.7945 2.48714 0
M  V30 206 H 17.5632 -3.68976 3.25757 0
M  V30 207 N 19.2153 -1.21501 -1.00376 0
M  V30 208 C 20.1483 -0.918669 -2.08892 0
M  V30 209 C 21.1263 0.134277 -1.62045 0
M  V30 210 O 22.3103 0.00504255 -1.88499 0
M  V30 211 C 19.4373 -0.379645 -3.36566 0
M  V30 212 C 18.4833 -1.41559 -4.02323 0
M  V30 213 S 19.3163 -2.98521 -4.44574 0
M  V30 214 C 20.4723 -2.46228 -5.75433 0
M  V30 215 H 20.7053 -1.83761 -2.33707 0
M  V30 216 H 18.2383 -1.04489 -1.13673 0
M  V30 217 H 20.1963 -0.0752195 -4.10431 0
M  V30 218 H 18.8573 0.518008 -3.09799 0
M  V30 219 H 18.0503 -0.988076 -4.9422 0
M  V30 220 H 17.6523 -1.66815 -3.34737 0
M  V30 221 H 19.9443 -1.86791 -6.51241 0
M  V30 222 H 20.8873 -3.36572 -6.22997 0
M  V30 223 H 21.2953 -1.87894 -5.32312 0
M  V30 224 N 20.6934 1.19889 -1.02296 0
M  V30 225 C 21.6234 2.25141 -0.619174 0
M  V30 226 C 22.6044 1.66051 0.368915 0
M  V30 227 O 23.7894 1.92546 0.252941 0
M  V30 228 C 20.9194 3.4728 0.0368783 0
M  V30 229 C 19.8734 4.19005 -0.872865 0
M  V30 230 C 19.1994 5.34637 -0.0822402 0
M  V30 231 C 20.4994 4.74452 -2.18387 0
M  V30 232 H 22.1934 2.59171 -1.49903 0
M  V30 233 H 19.7394 1.24579 -0.722222 0
M  V30 234 H 21.6924 4.20098 0.330958 0
M  V30 235 H 20.4164 3.12433 0.95149 0
M  V30 236 H 19.0754 3.48061 -1.15105 0
M  V30 237 H 18.7234 4.96034 0.83422 0
M  V30 238 H 18.4234 5.83557 -0.688149 0
M  V30 239 H 19.9474 6.10255 0.205238 0
M  V30 240 H 21.3614 5.39055 -1.95172 0
M  V30 241 H 19.7584 5.33834 -2.74119 0
M  V30 242 H 20.8284 3.92844 -2.84257 0
M  V30 243 N 22.1715 0.800033 1.35784 0
M  V30 244 C 23.1215 0.178654 2.27299 0
M  V30 245 C 24.1055 -0.643667 1.47464 0
M  V30 246 O 25.2975 -0.502 1.69732 0
M  V30 247 C 22.4265 -0.677194 3.36555 0
M  V30 248 C 21.5125 0.154497 4.23818 0
M  V30 249 N 21.9035 1.21427 4.91008 0
M  V30 250 C 20.2015 -0.0649462 4.45953 0
M  V30 251 C 20.9025 1.72147 5.55644 0
M  V30 252 N 19.8785 1.02897 5.33773 0
M  V30 253 H 23.6805 0.989637 2.76737 0
M  V30 254 H 21.1945 0.64054 1.49234 0
M  V30 255 H 23.1915 -1.13835 4.01058 0
M  V30 256 H 21.8515 -1.4866 2.8867 0
M  V30 257 H 22.8625 1.59684 4.92668 0
M  V30 258 H 19.5395 -0.844016 4.0888 0
M  V30 259 H 20.9295 2.60683 6.19269 0
M  V30 260 N 23.6496 -1.47581 0.552962 0
M  V30 261 C 24.8986 -2.01684 0.0251995 0
M  V30 262 C 25.2116 -1.43317 -1.33115 0
M  V30 263 O 26.4176 -1.89057 -1.94858 0
M  V30 264 C 24.8736 -3.599 -0.00542052 0
M  V30 265 C 24.4816 -4.27257 1.34742 0
M  V30 266 C 26.2256 -4.21768 -0.4808 0
M  V30 267 C 24.1326 -5.77467 1.27614 0
M  V30 268 H 23.0626 -0.753979 0.00565033 0
M  V30 269 H 25.7136 -1.69616 0.70018 0
M  V30 270 H 24.0956 -3.88911 -0.745961 0
M  V30 271 H 25.2696 -4.09893 2.10534 0
M  V30 272 H 23.5846 -3.77358 1.76039 0
M  V30 273 H 26.1816 -5.31838 -0.55246 0
M  V30 274 H 26.5246 -3.88651 -1.49184 0
M  V30 275 H 27.0576 -3.97273 0.204752 0
M  V30 276 H 23.7966 -6.15196 2.26304 0
M  V30 277 H 23.3166 -5.9718 0.55996 0
M  V30 278 H 24.9956 -6.3959 0.976421 0
M  V30 279 N 25.1277 -0.289203 -1.54924 0
M  V30 280 C 26.5437 0.0645403 -1.59469 0
M  V30 281 C 26.7437 1.53419 -1.30632 0
M  V30 282 O 25.7997 2.2852 -1.074 0
M  V30 283 C 27.1127 -0.32278 -2.98963 0
M  V30 284 C 28.6607 -0.270564 -3.11828 0
M  V30 285 C 29.1357 -0.632532 -4.53611 0
M  V30 286 N 30.6267 -0.584617 -4.59496 0
M  V30 287 C 31.3617 -0.837314 -5.67254 0
M  V30 288 N 30.8577 -1.15536 -6.83098 0
M  V30 289 N 32.6507 -0.765166 -5.56868 0
M  V30 290 H 24.8017 -1.24714 -1.71931 0
M  V30 291 H 27.0647 -0.504809 -0.802416 0
M  V30 292 H 26.7707 -1.34541 -3.24948 0
M  V30 293 H 26.6447 0.32944 -3.75759 0
M  V30 294 H 29.0317 0.742805 -2.85598 0
M  V30 295 H 29.1127 -0.957242 -2.37214 0
M  V30 296 H 28.7567 -1.64365 -4.80569 0
M  V30 297 H 28.6867 0.07609 -5.26545 0
M  V30 298 H 31.1777 -0.349248 -3.76283 0
M  V30 299 H 31.4907 -1.33447 -7.61191 0
M  V30 300 H 29.8357 -1.19328 -6.84679 0
M  V30 301 H 33.0267 -0.516432 -4.65243 0
M  V30 302 H 33.1997 -0.965477 -6.40767 0
M  V30 303 N 26.6058 1.57591 -0.0167156 0
M  V30 304 C 27.8358 1.95292 0.674149 0
M  V30 305 C 28.2438 0.891097 1.66901 0
M  V30 306 O 27.5868 -0.136908 1.83189 0
M  V30 307 C 27.6488 3.29072 1.44747 0
M  V30 308 C 27.3128 4.52879 0.612331 0
M  V30 309 C 28.3098 5.1979 -0.107126 0
M  V30 310 C 25.9948 4.99242 0.553381 0
M  V30 311 C 27.9888 6.31375 -0.874339 0
M  V30 312 C 25.6758 6.10713 -0.217546 0
M  V30 313 C 26.6738 6.76637 -0.930123 0
M  V30 314 O 26.3618 7.85969 -1.68844 0
M  V30 315 H 26.0938 0.648275 0.191615 0
M  V30 316 H 28.6478 2.05284 -0.0690148 0
M  V30 317 H 26.8778 3.15535 2.2355 0
M  V30 318 H 28.5668 3.51764 2.02526 0
M  V30 319 H 29.3328 4.84948 -0.0708392 0
M  V30 320 H 25.2118 4.47744 1.09757 0
M  V30 321 H 28.7558 6.82764 -1.43106 0
M  V30 322 H 24.6528 6.44994 -0.255593 0
M  V30 323 H 25.4208 8.02571 -1.6069 0
M  V30 324 N 28.0839 -0.256276 1.55502 0
M  V30 325 C 29.4999 -0.604325 1.47716 0
M  V30 326 C 29.6999 -1.88763 0.705039 0
M  V30 327 O 28.7559 -2.51445 0.230613 0
M  V30 328 C 30.0689 -0.715756 2.92057 0
M  V30 329 C 31.6169 -0.808706 3.02372 0
M  V30 330 C 32.0919 -0.951777 4.48001 0
M  V30 331 N 33.5829 -1.01688 4.519 0
M  V30 332 C 34.3179 -1.14668 5.61817 0
M  V30 333 N 33.8139 -1.24261 6.81565 0
M  V30 334 N 35.6069 -1.1791 5.49594 0
M  V30 335 H 27.7579 0.586291 2.04148 0
M  V30 336 H 30.0209 0.201015 0.926443 0
M  V30 337 H 29.7269 0.157027 3.51349 0
M  V30 338 H 29.6009 -1.59071 3.42018 0
M  V30 339 H 31.9879 -1.67195 2.43166 0
M  V30 340 H 32.0689 0.0912063 2.55637 0
M  V30 341 H 31.7129 -0.0931291 5.07815 0
M  V30 342 H 31.6429 -1.86659 4.92408 0
M  V30 343 H 34.1339 -0.954468 3.65648 0
M  V30 344 H 34.4469 -1.34046 7.61086 0
M  V30 345 H 32.7919 -1.21236 6.84344 0
M  V30 346 H 35.9829 -1.10057 4.54978 0
M  V30 347 H 36.1559 -1.27681 6.35296 0
M  V30 348 N 29.562 -1.4872 -0.521534 0
M  V30 349 C 30.492 -1.66771 -1.63431 0
M  V30 350 C 31.473 -0.516499 -1.62069 0
M  V30 351 O 32.658 -0.750013 -1.79132 0
M  V30 352 C 29.788 -1.71515 -3.01993 0
M  V30 353 C 28.742 -2.86222 -3.18216 0
M  V30 354 C 28.068 -2.76061 -4.57924 0
M  V30 355 C 29.368 -4.27419 -3.00184 0
M  V30 356 H 31.062 -2.59932 -1.48579 0
M  V30 357 H 28.608 -1.25089 -0.713358 0
M  V30 358 H 30.561 -1.82731 -3.7972 0
M  V30 359 H 29.285 -0.749393 -3.17886 0
M  V30 360 H 27.944 -2.74575 -2.42908 0
M  V30 361 H 27.592 -1.77437 -4.70665 0
M  V30 362 H 27.292 -3.53037 -4.69722 0
M  V30 363 H 28.816 -2.89256 -5.37739 0
M  V30 364 H 30.23 -4.39855 -3.67697 0
M  V30 365 H 28.627 -5.05458 -3.2347 0
M  V30 366 H 29.697 -4.43293 -1.96518 0
M  V30 367 N 31.0401 0.771051 -1.3745 0
M  V30 368 C 31.9701 1.89827 -1.3597 0
M  V30 369 C 32.9511 1.68562 -0.228216 0
M  V30 370 O 34.1361 1.8941 -0.428675 0
M  V30 371 C 31.2661 3.2712 -1.16662 0
M  V30 372 C 30.2201 3.6295 -2.2683 0
M  V30 373 C 29.5461 4.98791 -1.92644 0
M  V30 374 C 30.8461 3.69627 -3.69017 0
M  V30 375 H 32.5401 1.91323 -2.30295 0
M  V30 376 H 30.0861 0.919082 -1.10855 0
M  V30 377 H 32.0391 4.05615 -1.14256 0
M  V30 378 H 30.7631 3.26059 -0.187926 0
M  V30 379 H 29.4221 2.86763 -2.28392 0
M  V30 380 H 29.0701 4.94271 -0.933021 0
M  V30 381 H 28.7701 5.23733 -2.66416 0
M  V30 382 H 30.2941 5.79685 -1.91826 0
M  V30 383 H 31.7081 4.38273 -3.69581 0
M  V30 384 H 30.1051 4.06067 -4.41848 0
M  V30 385 H 31.1751 2.70273 -4.02592 0
M  V30 386 N 32.5182 1.22032 0.997298 0
M  V30 387 C 33.9342 0.979326 1.26021 0
M  V30 388 C 34.1342 -0.32972 1.98784 0
M  V30 389 O 33.1902 -1.05345 2.29475 0
M  V30 390 C 34.5032 2.17509 2.07631 0
M  V30 391 C 36.0512 2.21817 2.2083 0
M  V30 392 C 36.5262 3.40933 3.05825 0
M  V30 393 N 38.0172 3.41067 3.13412 0
M  V30 394 C 38.7522 4.29885 3.79455 0
M  V30 395 N 38.2482 5.28914 4.47462 0
M  V30 396 N 40.0412 4.17673 3.76173 0
M  V30 397 H 32.1922 2.06202 0.509352 0
M  V30 398 H 34.4552 0.90334 0.287541 0
M  V30 399 H 34.1612 3.12415 1.61524 0
M  V30 400 H 34.0352 2.17206 3.08385 0
M  V30 401 H 36.4222 1.27462 2.66153 0
M  V30 402 H 36.5032 2.2616 1.1952 0
M  V30 403 H 36.1472 4.35586 2.61203 0
M  V30 404 H 36.0772 3.33829 4.07266 0
M  V30 405 H 38.5682 2.69406 2.65007 0
M  V30 406 H 38.8812 5.92973 4.95583 0
M  V30 407 H 37.2262 5.32831 4.46224 0
M  V30 408 H 40.4172 3.39564 3.22202 0
M  V30 409 H 40.5902 4.87098 4.27363 0
M  V30 410 N 33.9963 -1.19345 1.0293 0
M  V30 411 C 34.9283 -2.22036 0.56857 0
M  V30 412 C 35.9413 -1.58865 -0.355779 0
M  V30 413 O 37.1303 -1.77851 -0.152103 0
M  V30 414 C 34.2303 -3.38363 -0.190752 0
M  V30 415 C 33.4033 -4.31118 0.738643 0
M  V30 416 C 32.4623 -5.26194 0.0246497 0
M  V30 417 O 31.4883 -5.65461 0.651354 0
M  V30 418 N 32.6903 -5.66971 -1.24594 0
M  V30 419 H 35.4553 -2.6219 1.45177 0
M  V30 420 H 33.0163 -1.34015 0.908381 0
M  V30 421 H 35.0083 -3.98981 -0.677961 0
M  V30 422 H 33.5783 -2.96994 -0.975366 0
M  V30 423 H 32.7983 -3.68276 1.40593 0
M  V30 424 H 34.0863 -4.90001 1.37029 0
M  V30 425 H 33.4843 -5.37104 -1.77583 0
M  V30 426 H 32.0413 -6.2984 -1.67764 0
M  V30 427 N 35.4744 -0.807222 -1.35358 0
M  V30 428 C 36.4374 -0.223665 -2.28106 0
M  V30 429 C 37.4374 0.589354 -1.4961 0
M  V30 430 O 38.6274 0.407745 -1.69361 0
M  V30 431 C 35.7594 0.688149 -3.33882 0
M  V30 432 H 36.9524 -1.04169 -2.81227 0
M  V30 433 H 34.5054 -0.577921 -1.45223 0
M  V30 434 H 35.2404 1.52984 -2.85948 0
M  V30 435 H 35.0254 0.10687 -3.91954 0
M  V30 436 H 36.5154 1.09075 -4.03104 0
M  V30 437 N 36.9525 1.47285 -0.560781 0
M  V30 438 C 37.8825 2.32857 0.173105 0
M  V30 439 C 38.8635 1.44009 0.905281 0
M  V30 440 O 40.0485 1.7286 0.885046 0
M  V30 441 C 37.1785 3.25861 1.20133 0
M  V30 442 C 36.1325 4.23978 0.585388 0
M  V30 443 C 35.4585 5.06332 1.7185 0
M  V30 444 C 36.7585 5.20242 -0.463178 0
M  V30 445 H 38.4525 2.94466 -0.541307 0
M  V30 446 H 35.9985 1.41601 -0.261764 0
M  V30 447 H 37.9515 3.84569 1.72293 0
M  V30 448 H 36.6755 2.62315 1.94573 0
M  V30 449 H 35.3345 3.66501 0.085054 0
M  V30 450 H 34.9825 4.39186 2.45203 0
M  V30 451 H 34.6825 5.72762 1.31213 0
M  V30 452 H 36.2065 5.67899 2.24329 0
M  V30 453 H 37.6205 5.73293 -0.027502 0
M  V30 454 H 36.0175 5.94896 -0.788627 0
M  V30 455 H 37.0875 4.65504 -1.35773 0
M  V30 456 N 38.4306 0.297415 1.54768 0
M  V30 457 C 39.3936 -0.567375 2.22066 0
M  V30 458 C 40.3936 -1.06409 1.20556 0
M  V30 459 O 41.5836 -0.960691 1.45315 0
M  V30 460 C 38.7156 -1.78517 2.90421 0
M  V30 461 H 39.9086 0.0205534 2.99893 0
M  V30 462 H 37.4616 0.0482163 1.56226 0
M  V30 463 H 38.1966 -2.41303 2.16664 0
M  V30 464 H 37.9816 -1.43669 3.64831 0
M  V30 465 H 39.4716 -2.39964 3.41771 0
M  V30 466 N 39.9087 -1.5758 0.0250728 0
M  V30 467 C 40.8187 -2.1343 -0.973905 0
M  V30 468 C 41.8347 -1.08556 -1.35984 0
M  V30 469 O 43.0107 -1.40592 -1.44207 0
M  V30 470 C 40.0757 -2.64703 -2.23904 0
M  V30 471 C 39.1367 -3.84276 -1.91391 0
M  V30 472 C 38.3697 -4.33095 -3.11873 0
M  V30 473 O 38.5927 -3.81107 -4.24398 0
M  V30 474 O 37.5267 -5.24984 -2.94406 0
M  V30 475 H 41.3527 -2.99057 -0.529036 0
M  V30 476 H 38.9377 -1.48118 -0.195288 0
M  V30 477 H 40.8197 -2.97769 -2.98181 0
M  V30 478 H 39.4947 -1.82161 -2.6758 0
M  V30 479 H 38.4017 -3.56143 -1.14511 0
M  V30 480 H 39.7347 -4.67968 -1.52534 0
M  V30 481 N 41.3868 0.248026 -1.55636 0
M  V30 482 C 42.6268 0.983592 -1.79178 0
M  V30 483 C 42.9908 1.82567 -0.594414 0
M  V30 484 O 44.1918 2.59292 -0.708583 0
M  V30 485 C 42.4628 1.82228 -3.07454 0
M  V30 486 S 44.0218 2.61709 -3.52213 0
M  V30 487 H 40.8398 0.330866 -0.629324 0
M  V30 488 H 43.4418 0.251562 -1.93875 0
M  V30 489 H 42.1458 1.19333 -3.92668 0
M  V30 490 H 41.6768 2.59708 -2.95492 0
M  V30 491 H 43.6918 3.84655 -3.13457 0
M  V30 492 N 42.8649 1.48995 0.513639 0
M  V30 493 C 43.7949 1.67636 1.62544 0
M  V30 494 C 44.7759 0.525087 1.61793 0
M  V30 495 O 45.9609 0.759502 1.78732 0
M  V30 496 C 43.0909 1.73114 3.01079 0
M  V30 497 C 42.0449 2.87905 3.16693 0
M  V30 498 C 41.3709 2.78486 4.56453 0
M  V30 499 C 42.6709 4.29005 2.97913 0
M  V30 500 H 44.3649 2.60716 1.47198 0
M  V30 501 H 41.9109 1.25465 0.706714 0
M  V30 502 H 43.8639 1.84742 3.78746 0
M  V30 503 H 42.5879 0.766241 3.17484 0
M  V30 504 H 41.2469 2.75859 2.41448 0
M  V30 505 H 40.8949 1.7993 4.69717 0
M  V30 506 H 40.5949 3.55523 4.67843 0
M  V30 507 H 42.1189 2.92104 5.36197 0
M  V30 508 H 43.5329 4.41798 3.65359 0
M  V30 509 H 41.9299 5.07166 3.20785 0
M  V30 510 H 42.9999 4.44329 1.94165 0
M  V30 511 N 44.343 -0.763751 1.37857 0
M  V30 512 C 45.591 -1.51957 1.33243 0
M  V30 513 C 45.912 -1.94835 -0.0801709 0
M  V30 514 O 45.182 -1.66894 -1.02582 0
M  V30 515 H 43.762 -0.563626 0.49024 0
M  V30 516 H 46.424 -0.908504 1.7243 0
M  V30 517 H 45.52 -2.41523 1.97669 0
M  V30 518 N 45.8211 -1.22559 -0.990812 0
M  V30 519 C 47.0491 -1.07779 -1.76611 0
M  V30 520 C 47.4641 0.371513 -1.85109 0
M  V30 521 O 46.8211 1.25737 -1.32274 0
M  V30 522 C 46.8721 -1.68512 -3.19822 0
M  V30 523 O 46.5931 -3.07774 -3.1178 0
M  V30 524 C 48.0941 -1.59035 -4.13791 0
M  V30 525 H 45.3141 -0.377729 -0.554583 0
M  V30 526 H 47.8581 -1.62195 -1.24551 0
M  V30 527 H 46.0131 -1.18154 -3.68942 0
M  V30 528 H 46.4271 -3.37062 -4.01858 0
M  V30 529 H 47.9011 -2.0625 -5.1202 0
M  V30 530 H 48.3781 -0.547273 -4.35777 0
M  V30 531 H 48.9841 -2.08709 -3.70568 0
M  V30 532 N 47.2992 1.18797 -1.03562 0
M  V30 533 C 48.2292 2.24472 -0.643019 0
M  V30 534 C 49.2102 1.66433 0.351283 0
M  V30 535 O 50.3952 1.92803 0.232505 0
M  V30 536 C 47.5252 3.473 4.24935e-05 0
M  V30 537 C 46.4792 4.18055 -0.917257 0
M  V30 538 C 45.8052 5.34519 -0.138941 0
M  V30 539 C 47.1052 4.72109 -2.23407 0
M  V30 540 H 48.7992 2.57566 -1.52643 0
M  V30 541 H 46.3452 1.23806 -0.735394 0
M  V30 542 H 48.2982 4.20426 0.286383 0
M  V30 543 H 47.0222 3.13424 0.918299 0
M  V30 544 H 45.6812 3.46821 -1.1879 0
M  V30 545 H 45.3292 4.96891 0.781562 0
M  V30 546 H 45.0292 5.82794 -0.750005 0
M  V30 547 H 46.5532 6.10438 0.1405 0
M  V30 548 H 47.9672 5.36955 -2.00879 0
M  V30 549 H 46.3642 5.30897 -2.79765 0
M  V30 550 H 47.4342 3.89807 -2.88407 0
M  V30 551 N 48.7773 0.814389 1.34928 0
M  V30 552 C 50.0263 0.394871 1.97797 0
M  V30 553 C 50.3393 -1.04555 1.65311 0
M  V30 554 O 51.5453 -1.56856 2.21604 0
M  V30 555 C 50.0013 0.655103 3.53888 0
M  V30 556 C 49.6093 2.10858 3.95276 0
M  V30 557 C 51.3533 0.301329 4.23429 0
M  V30 558 C 49.2603 2.31415 5.44244 0
M  V30 559 H 48.1903 0.143913 0.740139 0
M  V30 560 H 50.8413 0.999544 1.53888 0
M  V30 561 H 49.2233 -0.0196253 3.95995 0
M  V30 562 H 50.3973 2.82176 3.64298 0
M  V30 563 H 48.7123 2.42297 3.38646 0
M  V30 564 H 51.3093 0.432869 5.32945 0
M  V30 565 H 51.6523 -0.75331 4.09428 0
M  V30 566 H 52.1853 0.930288 3.86769 0
M  V30 567 H 48.9243 3.35353 5.63222 0
M  V30 568 H 48.4443 1.6463 5.76764 0
M  V30 569 H 50.1233 2.13352 6.10811 0
M  V30 570 N 50.2554 -1.46986 0.568584 0
M  V30 571 C 51.1854 -2.32946 -0.160753 0
M  V30 572 C 52.1664 -1.44487 -0.897631 0
M  V30 573 O 53.3514 -1.73327 -0.875867 0
M  V30 574 C 50.4814 -3.26494 -1.18403 0
M  V30 575 C 49.4354 -4.24282 -0.562895 0
M  V30 576 C 48.7614 -5.07236 -1.69163 0
M  V30 577 C 50.0614 -5.19989 0.490761 0
M  V30 578 H 51.7554 -2.94175 0.556916 0
M  V30 579 H 49.3014 -1.4146 0.26927 0
M  V30 580 H 51.2544 -3.85477 -1.70251 0
M  V30 581 H 49.9784 -2.63343 -1.93179 0
M  V30 582 H 48.6374 -3.66541 -0.0656164 0
M  V30 583 H 48.2854 -4.4048 -2.42871 0
M  V30 584 H 47.9854 -5.7345 -1.28174 0
M  V30 585 H 49.5094 -5.6908 -2.21314 0
M  V30 586 H 50.9234 -5.73271 0.0579047 0
M  V30 587 H 49.3204 -5.94469 0.820165 0
M  V30 588 H 50.3904 -4.64777 1.3824 0
M  V30 589 N 51.7335 -0.305618 -1.54608 0
M  V30 590 C 52.9795 0.302746 -2.00528 0
M  V30 591 C 53.3125 1.53184 -1.19367 0
M  V30 592 O 52.5875 1.92598 -0.271321 0
M  V30 593 C 52.8705 0.654756 -3.54097 0
M  V30 594 C 52.7235 -0.583793 -4.45995 0
M  V30 595 C 54.0425 1.47947 -4.14487 0
M  V30 596 H 51.1615 0.108564 -0.72896 0
M  V30 597 H 53.8035 -0.418634 -1.85331 0
M  V30 598 H 51.9535 1.26935 -3.67178 0
M  V30 599 H 53.6255 -1.22224 -4.44814 0
M  V30 600 H 51.8685 -1.21615 -4.16404 0
M  V30 601 H 52.5395 -0.293287 -5.5122 0
M  V30 602 H 55.0155 0.96013 -4.04871 0
M  V30 603 H 53.8915 1.69454 -5.22088 0
M  V30 604 H 54.1525 2.47011 -3.66658 0
M  V30 605 N 53.2116 1.57565 -0.0334293 0
M  V30 606 C 54.1446 2.05997 0.981866 0
M  V30 607 C 55.1226 0.956647 1.3148 0
M  V30 608 O 56.3066 1.22729 1.43073 0
M  V30 609 C 53.4336 2.48564 2.30074 0
M  V30 610 C 52.4796 3.69958 2.12211 0
M  V30 611 S 53.3126 5.16414 1.41692 0
M  V30 612 C 54.4686 5.6228 2.7494 0
M  V30 613 H 54.7016 2.91792 0.569612 0
M  V30 614 H 52.2346 1.53366 0.178376 0
M  V30 615 H 54.1926 2.73753 3.05892 0
M  V30 616 H 52.8536 1.63106 2.68431 0
M  V30 617 H 52.0466 3.97603 3.09722 0
M  V30 618 H 51.6486 3.44943 1.44535 0
M  V30 619 H 53.9406 5.66783 3.71165 0
M  V30 620 H 54.8836 6.61759 2.51953 0
M  V30 621 H 55.2916 4.89944 2.80384 0
M  V30 622 N 54.6897 -0.239769 1.55765 0
M  V30 623 C 55.9367 -0.966801 1.7793 0
M  V30 624 C 56.2647 -1.85046 0.599015 0
M  V30 625 O 55.5197 -1.91197 -0.417395 0
M  V30 626 C 55.8187 -1.852 3.05672 0
M  V30 627 C 55.4847 -1.1231 4.36689 0
M  V30 628 C 54.1467 -0.921689 4.72291 0
M  V30 629 C 56.4987 -0.607019 5.17653 0
M  V30 630 C 53.8267 -0.191996 5.86386 0
M  V30 631 C 56.1787 0.109241 6.32506 0
M  V30 632 C 54.8427 0.322073 6.66723 0
M  V30 633 H 54.1127 -0.353778 0.651093 0
M  V30 634 H 56.7597 -0.23634 1.90036 0
M  V30 635 H 55.0647 -2.64975 2.8861 0
M  V30 636 H 56.7617 -2.41635 3.20021 0
M  V30 637 H 53.3517 -1.29004 4.08725 0
M  V30 638 H 57.5357 -0.750153 4.90598 0
M  V30 639 H 52.7917 -0.0166949 6.11398 0
M  V30 640 H 56.9657 0.516737 6.9448 0
M  V30 641 H 54.5927 0.88944 7.54979 0
M  V30 642 N 56.1678 -1.49265 -0.50573 0
M  V30 643 C 57.4158 -1.582 -1.25766 0
M  V30 644 C 57.7368 -0.268482 -1.93143 0
M  V30 645 O 57.0068 0.711833 -1.8251 0
M  V30 646 H 55.5868 -0.582873 -0.467191 0
M  V30 647 H 58.2488 -1.85865 -0.586525 0
M  V30 648 H 57.3448 -2.37563 -2.02412 0
M  V30 649 N 57.6459 0.756429 -1.3826 0
M  V30 650 C 58.8859 1.52833 -1.35725 0
M  V30 651 C 59.2499 1.91926 0.0534106 0
M  V30 652 O 60.4509 2.68028 0.203613 0
M  V30 653 C 58.7219 2.74919 -2.28373 0
M  V30 654 S 60.2809 3.64817 -2.43832 0
M  V30 655 H 57.0989 0.523043 -0.481608 0
M  V30 656 H 59.7009 0.888212 -1.74158 0
M  V30 657 H 58.4049 2.44304 -3.29763 0
M  V30 658 H 57.9359 3.43878 -1.91079 0
M  V30 659 H 59.9509 4.676 -1.66027 0
M  V30 660 N 59.124 1.23083 0.984299 0
M  V30 661 C 60.372 1.05848 1.72165 0
M  V30 662 C 60.693 -0.406049 1.90726 0
M  V30 663 O 59.963 -1.29139 1.47309 0
M  V30 664 H 58.543 0.388685 0.637913 0
M  V30 665 H 61.205 1.54736 1.18503 0
M  V30 666 H 60.301 1.54327 2.71274 0
M  V30 667 N 60.6021 -1.18246 1.0419 0
M  V30 668 C 61.8271 -1.92736 0.765996 0
M  V30 669 C 62.2521 -1.75728 -0.67091 0
M  V30 670 O 61.6101 -1.06825 -1.46486 0
M  V30 671 C 61.6581 -3.42148 1.13875 0
M  V30 672 O 60.7621 -4.11548 0.264954 0
M  V30 673 H 60.1031 -0.601238 0.281797 0
M  V30 674 H 62.6331 -1.49942 1.39207 0
M  V30 675 H 62.6431 -3.92858 1.1012 0
M  V30 676 H 61.3181 -3.53848 2.18551 0
M  V30 677 H 59.8951 -3.71137 0.362226 0
M  V30 678 N 62.0802 -0.821533 -1.34494 0
M  V30 679 C 63.3262 -0.409552 -1.98622 0
M  V30 680 C 63.6592 1.0244 -1.64984 0
M  V30 681 O 62.9342 1.71325 -0.920758 0
M  V30 682 C 63.2172 -0.610458 -3.54888 0
M  V30 683 C 63.0702 -2.09043 -3.98273 0
M  V30 684 C 64.3892 -0.0455379 -4.40076 0
M  V30 685 H 61.5082 -0.15028 -0.721516 0
M  V30 686 H 64.1502 -1.03384 -1.59411 0
M  V30 687 H 62.3002 -0.079044 -3.8842 0
M  V30 688 H 63.9722 -2.68537 -3.75081 0
M  V30 689 H 62.2152 -2.58139 -3.48635 0
M  V30 690 H 62.8862 -2.18182 -5.07051 0
M  V30 691 H 65.3622 -0.499557 -4.1309 0
M  V30 692 H 64.2382 -0.215922 -5.48475 0
M  V30 693 H 64.4992 1.04939 -4.29465 0
M  V30 694 N 63.5583 1.46682 -0.576371 0
M  V30 695 C 64.5213 2.28707 0.150239 0
M  V30 696 C 65.5213 1.38035 0.824794 0
M  V30 697 O 66.7113 1.60476 0.677719 0
M  V30 698 C 63.8433 3.18248 1.22192 0
M  V30 699 H 65.0363 2.94423 -0.570521 0
M  V30 700 H 62.5893 1.52688 -0.334078 0
M  V30 701 H 63.3243 2.57265 1.97447 0
M  V30 702 H 63.1093 3.85 0.742812 0
M  V30 703 H 64.5993 3.80001 1.73172 0
M  V30 704 N 65.0364 0.313813 1.54444 0
M  V30 705 C 65.9684 -0.590425 2.21465 0
M  V30 706 C 66.9814 -1.08753 1.21147 0
M  V30 707 O 68.1704 -1.00278 1.4767 0
M  V30 708 C 65.2704 -1.82179 2.85769 0
M  V30 709 C 64.4434 -1.46502 4.12136 0
M  V30 710 C 63.5024 -2.55288 4.60124 0
M  V30 711 O 62.5284 -2.19842 5.25032 0
M  V30 712 N 63.7304 -3.86053 4.33525 0
M  V30 713 H 66.4954 -0.0166033 2.99695 0
M  V30 714 H 64.0564 0.136578 1.61323 0
M  V30 715 H 66.0484 -2.54328 3.14801 0
M  V30 716 H 64.6184 -2.30369 2.11303 0
M  V30 717 H 63.8384 -0.575595 3.89975 0
M  V30 718 H 65.1264 -1.20221 4.94393 0
M  V30 719 H 64.5244 -4.17654 3.81552 0
M  V30 720 H 63.0814 -4.54461 4.67235 0
M  V30 721 N 66.5145 -1.57545 0.0417849 0
M  V30 722 C 67.7605 -1.92601 -0.635021 0
M  V30 723 C 68.0935 -0.919627 -1.71045 0
M  V30 724 O 67.3685 0.0557892 -1.9442 0
M  V30 725 C 67.6515 -3.38085 -1.23979 0
M  V30 726 C 67.5045 -4.49467 -0.173057 0
M  V30 727 C 68.8235 -3.83776 -2.15416 0
M  V30 728 H 65.9425 -0.700397 -0.229374 0
M  V30 729 H 68.5845 -1.89728 0.101633 0
M  V30 730 H 66.7345 -3.40664 -1.86762 0
M  V30 731 H 68.4065 -4.59018 0.458312 0
M  V30 732 H 66.6495 -4.30909 0.499996 0
M  V30 733 H 67.3205 -5.48323 -0.636054 0
M  V30 734 H 69.7965 -3.83013 -1.62605 0
M  V30 735 H 68.6725 -4.8624 -2.54679 0
M  V30 736 H 68.9335 -3.19998 -3.05047 0
M  V30 737 N 67.9926 0.231505 -1.5589 0
M  V30 738 C 69.2386 0.95877 -1.78705 0
M  V30 739 C 69.5716 1.8438 -0.609725 0
M  V30 740 O 68.8466 1.90521 0.391426 0
M  V30 741 C 69.1296 1.8062 -3.11526 0
M  V30 742 C 68.9826 0.948328 -4.39689 0
M  V30 743 C 70.3016 2.78585 -3.40703 0
M  V30 744 H 67.4206 0.347129 -0.650131 0
M  V30 745 H 70.0626 0.228259 -1.88624 0
M  V30 746 H 68.2126 2.42902 -3.03201 0
M  V30 747 H 69.8846 0.343016 -4.60023 0
M  V30 748 H 68.1276 0.253314 -4.3306 0
M  V30 749 H 68.7986 1.57543 -5.29041 0
M  V30 750 H 71.2746 2.26439 -3.49091 0
M  V30 751 H 70.1506 3.34988 -4.34826 0
M  V30 752 H 70.4116 3.55825 -2.62375 0
M  V30 753 N 69.4707 1.49531 0.497807 0
M  V30 754 C 70.4007 1.6935 1.60757 0
M  V30 755 C 71.3817 0.542218 1.61227 0
M  V30 756 O 72.5667 0.778417 1.77917 0
M  V30 757 C 69.6967 1.76298 2.99226 0
M  V30 758 C 68.6507 2.91248 3.13622 0
M  V30 759 C 67.9767 2.83312 4.53474 0
M  V30 760 C 69.2767 4.3214 2.93346 0
M  V30 761 H 70.9707 2.62263 1.44425 0
M  V30 762 H 68.5167 1.26208 0.693367 0
M  V30 763 H 70.4697 1.88749 3.76765 0
M  V30 764 H 69.1937 0.799871 3.16654 0
M  V30 765 H 67.8527 2.78404 2.38509 0
M  V30 766 H 67.5007 1.84902 4.67782 0
M  V30 767 H 67.2007 3.60465 4.64046 0
M  V30 768 H 68.7247 2.97775 5.33069 0
M  V30 769 H 70.1387 4.45649 3.60652 0
M  V30 770 H 68.5357 5.1054 3.15387 0
M  V30 771 H 69.6057 4.46363 1.89441 0
M  V30 772 N 70.9488 -0.749086 1.3866 0
M  V30 773 C 72.1738 -1.54344 1.38538 0
M  V30 774 C 72.5988 -1.88088 -0.0216655 0
M  V30 775 O 71.9568 -1.50899 -1.00494 0
M  V30 776 C 72.0048 -2.8164 2.25192 0
M  V30 777 O 71.1088 -3.7698 1.67212 0
M  V30 778 H 70.4498 -0.466654 0.472367 0
M  V30 779 H 72.9798 -0.925355 1.82478 0
M  V30 780 H 72.9898 -3.30519 2.3921 0
M  V30 781 H 71.6648 -2.56411 3.27454 0
M  V30 782 H 70.2418 -3.35699 1.6236 0
M  V30 783 N 72.4269 -1.23603 -0.977757 0
M  V30 784 C 73.8429 -0.999251 -1.24447 0
M  V30 785 C 74.0429 0.298053 -1.99283 0
M  V30 786 O 73.0989 1.01681 -2.31122 0
M  V30 787 C 74.4119 -2.20784 -2.04144 0
M  V30 788 C 75.9599 -2.25303 -2.17273 0
M  V30 789 C 76.4349 -3.45755 -3.00362 0
M  V30 790 N 77.9259 -3.4601 -3.07947 0
M  V30 791 C 78.6609 -4.35868 -3.72568 0
M  V30 792 N 78.1569 -5.35966 -4.38991 0
M  V30 793 N 79.9499 -4.23605 -3.6948 0
M  V30 794 H 72.1009 -2.06986 -0.476483 0
M  V30 795 H 74.3639 -0.907801 -0.273134 0
M  V30 796 H 74.0699 -3.14945 -1.56533 0
M  V30 797 H 73.9439 -2.22085 -3.04891 0
M  V30 798 H 76.3309 -1.3168 -2.64092 0
M  V30 799 H 76.4119 -2.28033 -1.15907 0
M  V30 800 H 76.0559 -4.39687 -2.5424 0
M  V30 801 H 75.9859 -3.40266 -4.01904 0
M  V30 802 H 78.4769 -2.73588 -2.60688 0
M  V30 803 H 78.7899 -6.00783 -4.86086 0
M  V30 804 H 77.1349 -5.39863 -4.37691 0
M  V30 805 H 80.3259 -3.44647 -3.16759 0
M  V30 806 H 80.4989 -4.93836 -4.1956 0
M  V30 807 N 73.905 1.17692 -1.04816 0
M  V30 808 C 75.153 1.87488 -0.754497 0
M  V30 809 C 75.474 1.81205 0.720407 0
M  V30 810 O 74.744 1.23544 1.52032 0
M  V30 811 H 73.324 0.694101 -0.276102 0
M  V30 812 H 75.986 1.42793 -1.32651 0
M  V30 813 H 75.082 2.93328 -1.06606 0
M  V30 814 N 75.3831 0.828654 1.34056 0
M  V30 815 C 76.6111 0.43262 2.02326 0
M  V30 816 C 77.0261 -0.963147 1.62385 0
M  V30 817 O 76.3831 -1.62425 0.832121 0
M  V30 818 C 76.4341 0.53182 3.57567 0
M  V30 819 O 76.1551 1.87258 3.96063 0
M  V30 820 C 77.6561 0.131422 4.43105 0
M  V30 821 H 74.8761 0.172923 0.648335 0
M  V30 822 H 77.4201 1.1184 1.71208 0
M  V30 823 H 75.5751 -0.105938 3.87255 0
M  V30 824 H 75.9891 1.85087 4.90758 0
M  V30 825 H 77.4631 0.251904 5.51425 0
M  V30 826 H 77.9401 -0.925645 4.29335 0
M  V30 827 H 78.5461 0.743207 4.18756 0
M  V30 828 N 76.8612 -1.46375 0.584142 0
M  V30 829 C 77.8112 -2.27371 -0.169232 0
M  V30 830 C 78.7952 -1.35955 -0.860523 0
M  V30 831 O 79.9872 -1.60119 -0.754382 0
M  V30 832 C 77.1162 -3.22334 -1.18134 0
M  V30 833 C 76.2022 -4.21235 -0.492088 0
M  V30 834 N 76.5932 -5.03766 0.453129 0
M  V30 835 C 74.8912 -4.39773 -0.742652 0
M  V30 836 C 75.5922 -5.75366 0.85609 0
M  V30 837 N 74.5682 -5.43214 0.204926 0
M  V30 838 H 78.3702 -2.88572 0.557097 0
M  V30 839 H 75.8842 -1.57242 0.406042 0
M  V30 840 H 77.8812 -3.79071 -1.73525 0
M  V30 841 H 76.5412 -2.62693 -1.90847 0
M  V30 842 H 77.5522 -5.11227 0.828723 0
M  V30 843 H 74.2292 -3.91279 -1.45625 0
M  V30 844 H 75.6192 -6.5172 1.63434 0
M  V30 845 N 78.3393 -0.321999 -1.54275 0
M  V30 846 C 79.5873 0.280489 -2.00144 0
M  V30 847 C 79.9083 1.52777 -1.21178 0
M  V30 848 O 79.1783 1.9338 -0.313187 0
M  V30 849 H 77.7583 0.106632 -0.73935 0
M  V30 850 H 80.4203 -0.438184 -1.8991 0
M  V30 851 H 79.5163 0.537972 -3.07428 0
M  V30 852 N 79.8174 1.5752 -0.0501392 0
M  V30 853 C 81.0654 1.9227 0.622642 0
M  V30 854 C 81.3864 0.929083 1.71444 0
M  V30 855 O 80.6564 -0.0262186 1.95882 0
M  V30 856 H 79.2364 0.709739 0.232981 0
M  V30 857 H 81.8984 1.94628 -0.102898 0
M  V30 858 H 80.9944 2.93479 1.06191 0
M  V30 859 N 81.2955 -0.223234 1.56011 0
M  V30 860 C 82.5425 -0.947875 1.78946 0
M  V30 861 C 82.8705 -1.844 0.618608 0
M  V30 862 O 82.1255 -1.91629 -0.397093 0
M  V30 863 C 82.4245 -1.81948 3.0762 0
M  V30 864 C 82.0905 -1.07672 4.37856 0
M  V30 865 C 80.7525 -0.871544 4.73242 0
M  V30 866 C 83.1045 -0.552081 5.18268 0
M  V30 867 C 80.4325 -0.129791 5.86556 0
M  V30 868 C 82.7845 0.17632 6.32354 0
M  V30 869 C 81.4485 0.39277 6.66343 0
M  V30 870 H 80.7185 -0.346852 0.654809 0
M  V30 871 H 83.3655 -0.216171 1.90276 0
M  V30 872 H 81.6705 -2.61899 2.91404 0
M  V30 873 H 83.3675 -2.38227 3.22566 0
M  V30 874 H 79.9575 -1.24662 4.1007 0
M  V30 875 H 84.1415 -0.698076 4.91366 0
M  V30 876 H 79.3975 0.048153 6.11381 0
M  V30 877 H 83.5715 0.590367 6.93893 0
M  V30 878 H 81.1985 0.969466 7.53993 0
M  V30 879 N 82.7736 -1.49793 -0.48987 0
M  V30 880 C 83.7036 -1.70201 -1.59856 0
M  V30 881 C 84.6846 -0.55076 -1.60937 0
M  V30 882 O 85.8696 -0.787841 -1.77501 0
M  V30 883 C 82.9996 -1.77882 -2.98287 0
M  V30 884 C 81.9536 -2.92907 -3.12073 0
M  V30 885 C 81.2796 -2.85712 -4.51965 0
M  V30 886 C 82.5796 -4.3369 -2.91051 0
M  V30 887 H 84.2736 -2.63025 -1.43032 0
M  V30 888 H 81.8196 -1.26574 -0.686664 0
M  V30 889 H 83.7726 -1.90744 -3.75759 0
M  V30 890 H 82.4966 -0.816653 -3.16225 0
M  V30 891 H 81.1556 -2.79665 -2.37029 0
M  V30 892 H 80.8036 -1.8738 -4.66795 0
M  V30 893 H 80.5036 -3.62921 -4.62128 0
M  V30 894 H 82.0276 -3.00598 -5.31482 0
M  V30 895 H 83.4416 -4.47555 -3.58284 0
M  V30 896 H 81.8386 -5.12205 -3.12675 0
M  V30 897 H 82.9086 -4.47362 -1.87071 0
M  V30 898 N 84.2517 0.741722 -1.39055 0
M  V30 899 C 85.4797 1.53098 -1.39171 0
M  V30 900 C 85.8947 1.88794 0.0155099 0
M  V30 901 O 85.2517 1.53626 0.985159 0
M  V30 902 C 85.3027 2.82274 -2.2584 0
M  V30 903 O 85.0237 2.48097 -3.61081 0
M  V30 904 C 86.5247 3.76343 -2.34266 0
M  V30 905 H 83.7447 0.473335 -0.4756 0
M  V30 906 H 86.2887 0.917045 -1.82785 0
M  V30 907 H 84.4437 3.40015 -1.85656 0
M  V30 908 H 84.8577 3.31029 -4.06842 0
M  V30 909 H 86.3317 4.63898 -2.9917 0
M  V30 910 H 86.8087 4.17619 -1.35982 0
M  V30 911 H 87.4147 3.24523 -2.74891 0
M  V30 912 N 85.7298 1.2412 0.971189 0
M  V30 913 C 86.9788 1.07284 1.70801 0
M  V30 914 C 87.2918 -0.388902 1.91695 0
M  V30 915 O 88.4978 -0.677379 2.62914 0
M  V30 916 C 86.9538 1.87145 3.07416 0
M  V30 917 C 86.5618 3.37707 2.94377 0
M  V30 918 C 88.3058 1.78828 3.84995 0
M  V30 919 C 86.2128 4.09925 4.26281 0
M  V30 920 H 85.1428 0.397854 0.64049 0
M  V30 921 H 87.7938 1.4817 1.0825 0
M  V30 922 H 86.1758 1.39071 3.70777 0
M  V30 923 H 87.3498 3.93335 2.4005 0
M  V30 924 H 85.6648 3.46938 2.30267 0
M  V30 925 H 88.2618 2.30089 4.82662 0
M  V30 926 H 88.6048 0.75284 4.09436 0
M  V30 927 H 89.1378 2.24563 3.28354 0
M  V30 928 H 85.8768 5.13813 4.07033 0
M  V30 929 H 85.3968 3.59083 4.80437 0
M  V30 930 H 87.0758 4.1673 4.94919 0
M  V30 931 N 87.2079 -1.17134 1.05439 0
M  V30 932 C 88.1559 -2.23289 0.651511 0
M  V30 933 C 89.1499 -1.66186 -0.328411 0
M  V30 934 O 90.3559 -1.78949 -0.194206 0
M  V30 935 H 86.7309 -0.726938 0.192523 0
M  V30 936 H 88.7019 -2.54565 1.55689 0
M  V30 937 C 87.4509 -3.47671 0.0448436 0
M  V30 938 H 86.7739 -3.91918 0.78996 0
M  V30 939 H 88.2139 -4.2353 -0.19964 0
M  V30 940 C 86.6729 -3.14453 -1.20918 0
M  V30 941 O 87.2029 -3.29459 -2.29825 0
M  V30 942 N 85.4089 -2.68657 -1.10779 0
M  V30 943 H 84.9559 -2.56646 -0.221526 0
M  V30 944 H 84.9139 -2.46804 -1.9477 0
M  V30 945 N 88.686 -0.835752 -1.33615 0
M  V30 946 C 89.616 -0.281739 -2.31794 0
M  V30 947 C 90.597 0.608833 -1.58831 0
M  V30 948 O 91.782 0.533035 -1.86741 0
M  V30 949 C 88.912 0.546612 -3.42971 0
M  V30 950 C 87.866 -0.247904 -4.27281 0
M  V30 951 C 87.192 0.704001 -5.30045 0
M  V30 952 C 88.492 -1.46324 -5.01385 0
M  V30 953 H 90.186 -1.10206 -2.78379 0
M  V30 954 H 87.732 -0.531388 -1.33837 0
M  V30 955 H 89.685 0.944467 -4.1068 0
M  V30 956 H 88.409 1.40011 -2.95067 0
M  V30 957 H 87.068 -0.627281 -3.61194 0
M  V30 958 H 86.716 1.55381 -4.78399 0
M  V30 959 H 86.416 0.176524 -5.87335 0
M  V30 960 H 87.94 1.09944 -6.0062 0
M  V30 961 H 89.354 -1.13871 -5.61877 0
M  V30 962 H 87.751 -1.92728 -5.6831 0
M  V30 963 H 88.821 -2.23467 -4.30338 0
M  V30 964 N 90.1641 1.46063 -0.591896 0
M  V30 965 C 91.1271 2.28854 0.125973 0
M  V30 966 C 92.1271 1.38903 0.810107 0
M  V30 967 O 93.3171 1.61186 0.66066 0
M  V30 968 C 90.4491 3.19526 1.1881 0
M  V30 969 H 91.6421 2.93802 -0.601717 0
M  V30 970 H 89.1951 1.52325 -0.350254 0
M  V30 971 H 89.9301 2.59345 1.94707 0
M  V30 972 H 89.7151 3.85766 0.701936 0
M  V30 973 H 91.2051 3.81817 1.69132 0
M  V30 974 N 91.6422 0.330177 1.54103 0
M  V30 975 C 92.8892 -0.270405 2.00686 0
M  V30 976 C 93.2172 -1.51621 1.21825 0
M  V30 977 O 92.4722 -1.93536 0.29025 0
M  V30 978 C 92.7712 -0.643134 3.51566 0
M  V30 979 C 92.4372 0.504251 4.48072 0
M  V30 980 C 91.0992 0.819163 4.74176 0
M  V30 981 C 93.4512 1.27465 5.05373 0
M  V30 982 C 90.7792 1.90708 5.5484 0
M  V30 983 C 93.1312 2.35271 5.87223 0
M  V30 984 C 91.7952 2.67336 6.11627 0
M  V30 985 H 91.0652 -0.0989482 0.734364 0
M  V30 986 H 93.7122 0.455324 1.86008 0
M  V30 987 H 92.0172 -1.44938 3.64006 0
M  V30 988 H 93.7142 -1.11949 3.85056 0
M  V30 989 H 90.3042 0.248733 4.27878 0
M  V30 990 H 94.4882 1.04462 4.85182 0
M  V30 991 H 89.7442 2.15991 5.71977 0
M  V30 992 H 93.9182 2.95405 6.30641 0
M  V30 993 H 91.5452 3.51763 6.73919 0
M  V30 994 N 93.1203 -1.57491 0.0584922 0
M  V30 995 C 94.3683 -1.92597 -0.612436 0
M  V30 996 C 94.6893 -0.938162 -1.70949 0
M  V30 997 O 93.9593 0.0158301 -1.95894 0
M  V30 998 H 92.5393 -0.710964 -0.229214 0
M  V30 999 H 95.2013 -1.94571 0.113218 0
M  V30 1000 H 94.2973 -2.94038 -1.04633 0
M  V30 1001 N 94.5984 0.214957 -1.56127 0
M  V30 1002 C 95.8454 0.938372 -1.79446 0
M  V30 1003 C 96.1734 1.8407 -0.628378 0
M  V30 1004 O 95.4284 1.91837 0.386925 0
M  V30 1005 C 95.7274 1.80314 -3.0858 0
M  V30 1006 C 95.3934 1.05349 -4.3842 0
M  V30 1007 C 94.0554 0.846435 -4.73697 0
M  V30 1008 C 96.4074 0.524588 -5.18553 0
M  V30 1009 C 93.7354 0.098683 -5.86617 0
M  V30 1010 C 96.0874 -0.209853 -6.32252 0
M  V30 1011 C 94.7514 -0.428102 -6.66126 0
M  V30 1012 H 94.0214 0.343375 -0.656639 0
M  V30 1013 H 96.6684 0.206077 -1.90388 0
M  V30 1014 H 94.9734 2.6035 -2.92789 0
M  V30 1015 H 96.6704 2.36513 -3.23825 0
M  V30 1016 H 93.2604 1.22486 -4.10725 0
M  V30 1017 H 97.4444 0.672008 -4.91729 0
M  V30 1018 H 92.7004 -0.0805753 -6.11347 0
M  V30 1019 H 96.8744 -0.627157 -6.9357 0
M  V30 1020 H 94.5014 -1.00944 -7.53468 0
M  V30 1021 N 96.0765 1.50051 0.48192 0
M  V30 1022 C 97.0395 1.67584 1.5636 0
M  V30 1023 C 98.0395 0.546894 1.51214 0
M  V30 1024 O 99.2295 0.813725 1.54026 0
M  V30 1025 C 96.3615 1.691 2.96003 0
M  V30 1026 H 97.5545 2.64078 1.42136 0
M  V30 1027 H 95.1075 1.39369 0.707533 0
M  V30 1028 H 95.8425 0.742589 3.15684 0
M  V30 1029 H 95.6275 2.51105 3.01146 0
M  V30 1030 H 97.1175 1.84656 3.74556 0
M  V30 1031 N 97.5546 -0.734337 1.39446 0
M  V30 1032 C 98.8006 -1.49613 1.36908 0
M  V30 1033 C 99.1336 -1.94169 -0.0347829 0
M  V30 1034 O 98.4086 -1.66833 -0.999847 0
M  V30 1035 C 98.6916 -2.73534 2.34203 0
M  V30 1036 C 98.5446 -2.34993 3.83534 0
M  V30 1037 C 99.8636 -3.75635 2.29317 0
M  V30 1038 H 96.9826 -0.542714 0.498629 0
M  V30 1039 H 99.6246 -0.839597 1.70443 0
M  V30 1040 H 97.7746 -3.29553 2.05736 0
M  V30 1041 H 99.4466 -1.84601 4.22753 0
M  V30 1042 H 97.6896 -1.67213 4.00278 0
M  V30 1043 H 98.3606 -3.23738 4.47099 0
M  V30 1044 H 100.837 -3.29203 2.54489 0
M  V30 1045 H 99.7126 -4.60008 2.99472 0
M  V30 1046 H 99.9736 -4.22603 1.29842 0
M  V30 1047 N 99.0327 -1.24633 -0.964593 0
M  V30 1048 C 100.261 -1.11501 -1.74285 0
M  V30 1049 C 100.676 0.332165 -1.85855 0
M  V30 1050 O 100.033 1.22903 -1.34911 0
M  V30 1051 C 100.084 -1.75258 -3.16175 0
M  V30 1052 O 99.8047 -3.14318 -3.05182 0
M  V30 1053 C 101.306 -1.67776 -4.10324 0
M  V30 1054 H 98.5257 -0.389407 -0.546446 0
M  V30 1055 H 101.07 -1.64801 -1.21083 0
M  V30 1056 H 99.2247 -1.25954 -3.66353 0
M  V30 1057 H 99.6387 -3.4551 -3.94618 0
M  V30 1058 H 101.113 -2.17064 -5.0753 0
M  V30 1059 H 101.59 -0.639584 -4.34518 0
M  V30 1060 H 102.196 -2.16522 -3.66058 0
M  V30 1061 N 100.511 1.16574 -1.06058 0
M  V30 1062 C 101.441 2.23057 -0.690488 0
M  V30 1063 C 102.422 1.67141 0.315901 0
M  V30 1064 O 103.607 1.93253 0.191556 0
M  V30 1065 C 100.737 3.47222 -0.073625 0
M  V30 1066 C 99.6908 4.16016 -1.00573 0
M  V30 1067 C 99.0168 5.34104 -0.252289 0
M  V30 1068 C 100.317 4.67264 -2.33371 0
M  V30 1069 H 102.011 2.54271 -1.58072 0
M  V30 1070 H 99.5568 1.22218 -0.76149 0
M  V30 1071 H 101.51 4.20939 0.19714 0
M  V30 1072 H 100.234 3.15302 0.85161 0
M  V30 1073 H 98.8928 3.44223 -1.2612 0
M  V30 1074 H 98.5408 4.98437 0.675988 0
M  V30 1075 H 98.2408 5.81072 -0.873455 0
M  V30 1076 H 99.7648 6.10599 0.0109857 0
M  V30 1077 H 101.179 5.32573 -2.12223 0
M  V30 1078 H 99.5758 5.24843 -2.90963 0
M  V30 1079 H 100.646 3.83602 -2.96611 0
M  V30 1080 N 101.989 0.842826 1.3317 0
M  V30 1081 C 103.237 0.439577 1.97262 0
M  V30 1082 C 103.558 -1.00548 1.67078 0
M  V30 1083 O 102.828 -1.70098 0.971779 0
M  V30 1084 H 101.408 0.159558 0.72976 0
M  V30 1085 H 104.07 1.07665 1.62463 0
M  V30 1086 H 103.166 0.574886 3.0676 0
M  V30 1087 N 103.467 -1.45747 0.599634 0
M  V30 1088 C 104.716 -2.01502 0.0893511 0
M  V30 1089 C 105.029 -1.4748 -1.28488 0
M  V30 1090 O 106.235 -1.95161 -1.88745 0
M  V30 1091 C 104.691 -3.59735 0.109082 0
M  V30 1092 C 104.299 -4.22754 1.48267 0
M  V30 1093 C 106.043 -4.23085 -0.346374 0
M  V30 1094 C 103.95 -5.73115 1.45921 0
M  V30 1095 H 102.88 -0.753417 0.0296347 0
M  V30 1096 H 105.531 -1.67303 0.753788 0
M  V30 1097 H 103.913 -3.91087 -0.621854 0
M  V30 1098 H 105.087 -4.02987 2.23468 0
M  V30 1099 H 103.402 -3.71567 1.87955 0
M  V30 1100 H 105.999 -5.33327 -0.38298 0
M  V30 1101 H 106.342 -3.93201 -1.36743 0
M  V30 1102 H 106.875 -3.9642 0.331038 0
M  V30 1103 H 103.614 -6.07685 2.45762 0
M  V30 1104 H 103.134 -5.95097 0.749665 0
M  V30 1105 H 104.813 -6.3616 1.17941 0
M  V30 1106 N 104.945 -0.338344 -1.53925 0
M  V30 1107 C 105.875 0.51328 -2.27789 0
M  V30 1108 C 106.856 1.107 -1.29149 0
M  V30 1109 O 108.041 1.12937 -1.57984 0
M  V30 1110 C 105.171 1.66697 -3.04679 0
M  V30 1111 C 104.125 1.20183 -4.1078 0
M  V30 1112 C 103.451 2.44363 -4.75595 0
M  V30 1113 C 104.751 0.30605 -5.21403 0
M  V30 1114 H 106.445 -0.102883 -2.99223 0
M  V30 1115 H 103.991 -0.0509219 -1.4391 0
M  V30 1116 H 105.944 2.26915 -3.55088 0
M  V30 1117 H 104.668 2.30995 -2.30887 0
M  V30 1118 H 103.327 0.622499 -3.61276 0
M  V30 1119 H 102.975 3.07057 -3.98403 0
M  V30 1120 H 102.675 2.13925 -5.47275 0
M  V30 1121 H 104.199 3.05317 -5.28786 0
M  V30 1122 H 105.613 0.814929 -5.67478 0
M  V30 1123 H 104.01 0.0937929 -6.00027 0
M  V30 1124 H 105.08 -0.65921 -4.80398 0
M  V30 1125 N 106.423 1.57458 -0.0668435 0
M  V30 1126 C 107.672 1.92477 0.602947 0
M  V30 1127 C 107.985 0.948419 1.71068 0
M  V30 1128 O 109.191 1.19124 2.43971 0
M  V30 1129 C 107.647 3.41903 1.12383 0
M  V30 1130 C 107.255 4.47975 0.04737 0
M  V30 1131 C 108.999 3.85931 1.76797 0
M  V30 1132 C 106.906 5.88529 0.582022 0
M  V30 1133 H 105.836 0.718387 0.22899 0
M  V30 1134 H 108.487 1.82978 -0.138276 0
M  V30 1135 H 106.869 3.46459 1.91787 0
M  V30 1136 H 108.043 4.55029 -0.726978 0
M  V30 1137 H 106.358 4.13384 -0.500243 0
M  V30 1138 H 108.955 4.88322 2.17821 0
M  V30 1139 H 109.298 3.23029 2.62599 0
M  V30 1140 H 109.831 3.83958 1.04024 0
M  V30 1141 H 106.57 6.55065 -0.238721 0
M  V30 1142 H 106.09 5.85004 1.324 0
M  V30 1143 H 107.769 6.38258 1.05999 0
M  V30 1144 N 107.901 -0.206675 1.56239 0
M  V30 1145 C 108.864 -1.23976 1.92776 0
M  V30 1146 C 109.864 -1.39041 0.807729 0
M  V30 1147 O 111.054 -1.37051 1.0753 0
M  V30 1148 C 108.186 -2.61112 2.19165 0
M  V30 1149 H 109.379 -0.927764 2.85189 0
M  V30 1150 H 106.932 -0.447718 1.4975 0
M  V30 1151 H 107.667 -2.97386 1.29352 0
M  V30 1152 H 107.452 -2.51552 3.00772 0
M  V30 1153 H 108.942 -3.35633 2.48476 0
M  V30 1154 N 109.379 -1.50304 -0.473955 0
M  V30 1155 C 110.627 -1.60832 -1.22382 0
M  V30 1156 C 110.948 -0.30939 -1.9253 0
M  V30 1157 O 110.218 0.67296 -1.83978 0
M  V30 1158 H 108.798 -0.592652 -0.454723 0
M  V30 1159 H 111.46 -1.87068 -0.546968 0
M  V30 1160 H 110.556 -2.41803 -1.97327 0
M  V30 1161 N 110.857 0.726932 -1.39834 0
M  V30 1162 C 111.789 1.85147 -1.35104 0
M  V30 1163 C 112.802 1.60736 -0.258392 0
M  V30 1164 O 113.991 1.70821 -0.517931 0
M  V30 1165 C 111.091 3.21332 -1.07697 0
M  V30 1166 C 110.264 3.73033 -2.28396 0
M  V30 1167 C 109.323 4.87802 -1.97322 0
M  V30 1168 O 108.349 5.01043 -2.70083 0
M  V30 1169 N 109.551 5.72768 -0.944273 0
M  V30 1170 H 112.316 1.89706 -2.32017 0
M  V30 1171 H 109.877 0.908006 -1.3404 0
M  V30 1172 H 111.869 3.95691 -0.849144 0
M  V30 1173 H 110.439 3.11992 -0.194909 0
M  V30 1174 H 109.659 2.89934 -2.6708 0
M  V30 1175 H 110.947 4.0431 -3.08887 0
M  V30 1176 H 110.345 5.64669 -0.341427 0
M  V30 1177 H 108.902 6.4716 -0.776346 0
M  V30 1178 N 112.336 1.25143 0.95797 0
M  V30 1179 C 113.582 1.09855 1.70469 0
M  V30 1180 C 113.915 -0.360187 1.90831 0
M  V30 1181 O 113.19 -1.26568 1.47685 0
M  V30 1182 C 113.473 1.8497 3.08963 0
M  V30 1183 C 113.326 3.38652 2.96032 0
M  V30 1184 C 114.645 1.63016 4.08795 0
M  V30 1185 H 111.764 0.400465 0.618706 0
M  V30 1186 H 114.406 1.53933 1.11376 0
M  V30 1187 H 112.556 1.47505 3.59409 0
M  V30 1188 H 114.228 3.85772 2.52938 0
M  V30 1189 H 112.471 3.66534 2.32025 0
M  V30 1190 H 113.142 3.8642 3.94187 0
M  V30 1191 H 115.618 1.95625 3.67247 0
M  V30 1192 H 114.494 2.18015 5.03747 0
M  V30 1193 H 114.755 0.570692 4.38401 0
M  V30 1194 N 113.814 -1.1601 1.06675 0
M  V30 1195 C 115.039 -1.91068 0.806706 0
M  V30 1196 C 115.464 -1.77112 -0.633485 0
M  V30 1197 O 114.822 -1.09908 -1.44187 0
M  V30 1198 C 114.87 -3.39655 1.21106 0
M  V30 1199 O 113.974 -4.10893 0.352189 0
M  V30 1200 H 113.315 -0.595125 0.294486 0
M  V30 1201 H 115.845 -1.46955 1.42356 0
M  V30 1202 H 115.855 -3.90434 1.18428 0
M  V30 1203 H 114.53 -3.49132 2.26008 0
M  V30 1204 H 113.107 -3.70285 0.440868 0
M  V30 1205 N 115.292 -0.849877 -1.32721 0
M  V30 1206 C 116.54 -0.450032 -1.97026 0
M  V30 1207 C 116.861 0.996604 -1.67609 0
M  V30 1208 O 116.131 1.6958 -0.980786 0
M  V30 1209 H 114.711 -0.163426 -0.728904 0
M  V30 1210 H 117.373 -1.08526 -1.6189 0
M  V30 1211 H 116.469 -0.591146 -3.0645 0
M  V30 1212 N 116.77 1.45427 -0.607355 0
M  V30 1213 C 117.733 2.28974 0.101693 0
M  V30 1214 C 118.733 1.39754 0.795329 0
M  V30 1215 O 119.923 1.61878 0.643527 0
M  V30 1216 C 117.055 3.20768 1.15414 0
M  V30 1217 H 118.248 2.93147 -0.632844 0
M  V30 1218 H 115.801 1.51945 -0.366391 0
M  V30 1219 H 116.536 2.61395 1.91945 0
M  V30 1220 H 116.321 3.86489 0.66098 0
M  V30 1221 H 117.811 3.83589 1.65073 0
M  V30 1222 N 118.248 0.346503 1.53744 0
M  V30 1223 C 119.198 -0.524953 2.21874 0
M  V30 1224 C 120.182 -1.06376 1.20718 0
M  V30 1225 O 121.374 -0.996972 1.46251 0
M  V30 1226 C 118.503 -1.6739 2.99726 0
M  V30 1227 C 117.589 -1.14888 4.08242 0
M  V30 1228 N 117.98 -0.345329 5.0462 0
M  V30 1229 C 116.278 -1.4255 4.22606 0
M  V30 1230 C 116.979 -0.0600706 5.81669 0
M  V30 1231 N 115.955 -0.65252 5.39669 0
M  V30 1232 H 119.757 0.0960091 2.93743 0
M  V30 1233 H 117.271 0.15352 1.61673 0
M  V30 1234 H 119.268 -2.3102 3.47038 0
M  V30 1235 H 117.928 -2.29811 2.29384 0
M  V30 1236 H 118.939 0.0138439 5.17898 0
M  V30 1237 H 115.616 -2.05389 3.63486 0
M  V30 1238 H 117.006 0.588321 6.69319 0
M  V30 1239 N 119.726 -1.57421 0.075193 0
M  V30 1240 C 120.656 -2.15942 -0.888324 0
M  V30 1241 C 121.637 -1.08737 -1.30806 0
M  V30 1242 O 122.822 -1.36787 -1.37851 0
M  V30 1243 C 119.952 -2.72379 -2.1547 0
M  V30 1244 C 118.906 -3.8478 -1.87425 0
M  V30 1245 C 118.232 -4.27834 -3.20721 0
M  V30 1246 C 119.532 -5.08869 -1.17684 0
M  V30 1247 H 121.226 -2.96705 -0.400799 0
M  V30 1248 H 118.772 -1.42723 -0.191342 0
M  V30 1249 H 120.725 -3.11965 -2.83295 0
M  V30 1250 H 119.449 -1.88841 -2.6647 0
M  V30 1251 H 118.108 -3.45703 -1.22004 0
M  V30 1252 H 117.756 -3.41214 -3.6957 0
M  V30 1253 H 117.456 -5.03605 -3.02746 0
M  V30 1254 H 118.98 -4.70039 -3.89738 0
M  V30 1255 H 120.394 -5.4575 -1.75584 0
M  V30 1256 H 118.791 -5.8994 -1.09956 0
M  V30 1257 H 119.861 -4.84648 -0.156453 0
M  V30 1258 N 121.204 0.198386 -1.56346 0
M  V30 1259 C 122.152 1.26538 -1.95169 0
M  V30 1260 C 123.146 1.47295 -0.836685 0
M  V30 1261 O 124.352 1.48195 -1.02167 0
M  V30 1262 H 120.727 0.424744 -0.620561 0
M  V30 1263 H 122.698 0.910904 -2.84157 0
M  V30 1264 C 121.447 2.6035 -2.30463 0
M  V30 1265 H 120.77 2.45192 -3.15786 0
M  V30 1266 H 122.21 3.33762 -2.61494 0
M  V30 1267 C 120.669 3.17096 -1.13806 0
M  V30 1268 O 121.199 3.99588 -0.41135 0
M  V30 1269 N 119.405 2.75795 -0.915736 0
M  V30 1270 H 118.952 2.08816 -1.50843 0
M  V30 1271 H 118.91 3.14101 -0.136979 0
M  V30 1272 N 122.682 1.50554 0.465978 0
M  V30 1273 C 124.093 1.54599 1.04671 0
M  V30 1274 C 124.444 0.352488 1.93008 0
M  V30 1275 O 123.569 -0.534044 2.09707 0
M  V30 1276 C 124.164 2.80166 1.90505 0
M  V30 1277 C 122.723 2.86876 2.43678 0
M  V30 1278 C 121.87 2.48947 1.22151 0
M  V30 1279 H 124.821 1.56744 0.248384 0
M  V30 1280 H 124.842 2.62311 2.75633 0
M  V30 1281 H 124.354 3.67013 1.26186 0
M  V30 1282 H 122.455 2.04393 3.11536 0
M  V30 1283 H 122.568 3.89885 2.78436 0
M  V30 1284 H 120.932 2.01498 1.5579 0
M  V30 1285 H 121.715 3.38107 0.594866 0
M  V30 1286 N 124.16 -0.719506 1.40217 0
M  V30 1287 C 125.123 -1.8153 1.39927 0
M  V30 1288 C 126.123 -1.58095 0.293723 0
M  V30 1289 O 127.313 -1.65209 0.552429 0
M  V30 1290 C 124.445 -3.19561 1.18716 0
M  V30 1291 H 125.638 -1.83186 2.37451 0
M  V30 1292 H 123.191 -0.924746 1.26008 0
M  V30 1293 H 123.926 -3.23557 0.219366 0
M  V30 1294 H 123.711 -3.3797 1.98793 0
M  V30 1295 H 125.201 -3.99598 1.21291 0
M  V30 1296 N 125.638 -1.25649 -0.95132 0
M  V30 1297 C 126.884 -1.10757 -1.69884 0
M  V30 1298 C 127.217 0.350061 -1.91019 0
M  V30 1299 O 126.492 1.25783 -1.48354 0
M  V30 1300 C 126.775 -1.86606 -3.07978 0
M  V30 1301 C 126.628 -3.40217 -2.94232 0
M  V30 1302 C 127.947 -1.65182 -4.07925 0
M  V30 1303 H 125.066 -0.40374 -0.616574 0
M  V30 1304 H 127.708 -1.54521 -1.10558 0
M  V30 1305 H 125.858 -1.49409 -3.58621 0
M  V30 1306 H 127.53 -3.87108 -2.50889 0
M  V30 1307 H 125.773 -3.67759 -2.30078 0
M  V30 1308 H 126.444 -3.88505 -3.92133 0
M  V30 1309 H 128.92 -1.9757 -3.66204 0
M  V30 1310 H 127.796 -2.20683 -5.02583 0
M  V30 1311 H 128.057 -0.593933 -4.38092 0
M  V30 1312 N 127.117 1.15442 -1.07289 0
M  V30 1313 C 128.345 1.90096 -0.81676 0
M  V30 1314 C 128.76 1.7798 0.629966 0
M  V30 1315 O 128.117 1.1313 1.43206 0
M  V30 1316 C 128.168 3.40466 -1.21512 0
M  V30 1317 O 127.889 3.52232 -2.60508 0
M  V30 1318 C 129.39 4.32145 -0.988198 0
M  V30 1319 H 126.61 0.602495 -0.295366 0
M  V30 1320 H 129.154 1.4627 -1.42918 0
M  V30 1321 H 127.309 3.81958 -0.647039 0
M  V30 1322 H 127.723 4.45549 -2.76742 0
M  V30 1323 H 129.197 5.36072 -1.31645 0
M  V30 1324 H 129.674 4.39135 0.0755063 0
M  V30 1325 H 130.28 3.96395 -1.54115 0
M  V30 1326 N 128.595 0.856903 1.32268 0
M  V30 1327 C 129.842 0.461386 1.97174 0
M  V30 1328 C 130.17 -0.983491 1.67803 0
M  V30 1329 O 129.425 -1.70541 0.959903 0
M  V30 1330 C 129.724 0.649919 3.51441 0
M  V30 1331 C 129.39 2.0656 4.00804 0
M  V30 1332 C 128.052 2.45279 4.13995 0
M  V30 1333 C 130.404 2.98947 4.26943 0
M  V30 1334 C 127.732 3.75653 4.50668 0
M  V30 1335 C 130.084 4.28822 4.65075 0
M  V30 1336 C 128.748 4.67472 4.76472 0
M  V30 1337 H 128.018 0.168833 0.72151 0
M  V30 1338 H 130.665 1.08739 1.57633 0
M  V30 1339 H 128.97 -0.0593018 3.91755 0
M  V30 1340 H 130.667 0.32391 3.9969 0
M  V30 1341 H 127.257 1.75495 3.91024 0
M  V30 1342 H 131.441 2.70265 4.16258 0
M  V30 1343 H 126.697 4.05379 4.57688 0
M  V30 1344 H 130.871 5.0047 4.84255 0
M  V30 1345 H 128.498 5.68539 5.04646 0
M  V30 1346 N 130.073 -1.45103 0.615059 0
M  V30 1347 C 131.036 -2.29025 -0.0895485 0
M  V30 1348 C 132.036 -1.40174 -0.787906 0
M  V30 1349 O 133.226 -1.62217 -0.634933 0
M  V30 1350 C 130.358 -3.21376 -1.13711 0
M  V30 1351 H 131.551 -2.92807 0.648382 0
M  V30 1352 H 129.104 -1.51749 0.374444 0
M  V30 1353 H 129.839 -2.6241 -1.90556 0
M  V30 1354 H 129.624 -3.86834 -0.640475 0
M  V30 1355 H 131.114 -3.84459 -1.63036 0
M  V30 1356 N 131.551 -0.354651 -1.53558 0
M  V30 1357 C 132.484 0.540273 -2.21712 0
M  V30 1358 C 133.462 1.09161 -1.2051 0
M  V30 1359 O 134.646 1.14979 -1.49372 0
M  V30 1360 C 131.773 1.74435 -2.90328 0
M  V30 1361 C 130.819 1.32146 -4.05512 0
M  V30 1362 S 131.652 0.331924 -5.3447 0
M  V30 1363 C 132.808 1.54258 -6.06593 0
M  V30 1364 H 133.041 -0.0385776 -2.97275 0
M  V30 1365 H 130.574 -0.138736 -1.53775 0
M  V30 1366 H 132.532 2.43507 -3.30476 0
M  V30 1367 H 131.193 2.29444 -2.1451 0
M  V30 1368 H 130.386 2.21952 -4.52497 0
M  V30 1369 H 129.988 0.710091 -3.67197 0
M  V30 1370 H 132.28 2.47534 -6.30661 0
M  V30 1371 H 133.223 1.11431 -6.99277 0
M  V30 1372 H 133.631 1.74367 -5.36895 0
M  V30 1373 N 133.029 1.57378 -0.0835403 0
M  V30 1374 C 134.269 1.95808 0.586381 0
M  V30 1375 C 134.633 0.963706 1.66062 0
M  V30 1376 O 135.834 1.23608 2.38693 0
M  V30 1377 C 134.105 3.38808 1.13771 0
M  V30 1378 S 135.664 3.99225 1.82112 0
M  V30 1379 H 132.482 0.684675 0.191679 0
M  V30 1380 H 135.084 1.94843 -0.160194 0
M  V30 1381 H 133.788 4.08954 0.344197 0
M  V30 1382 H 133.319 3.43344 1.92038 0
M  V30 1383 H 135.334 3.87087 3.10449 0
M  V30 1384 N 134.507 -0.190092 1.56449 0
M  V30 1385 C 135.754 -0.909705 1.80916 0
M  V30 1386 C 136.082 -1.83047 0.657583 0
M  V30 1387 O 135.337 -1.92428 -0.356356 0
M  V30 1388 C 135.636 -1.75382 3.1141 0
M  V30 1389 C 135.302 -0.983606 4.40041 0
M  V30 1390 C 133.964 -0.770967 4.74984 0
M  V30 1391 C 136.316 -0.442024 5.19322 0
M  V30 1392 C 133.644 -0.0053448 5.867 0
M  V30 1393 C 135.996 0.310412 6.31838 0
M  V30 1394 C 134.66 0.534023 6.6536 0
M  V30 1395 H 133.93 -0.332885 0.662019 0
M  V30 1396 H 136.577 -0.175762 1.90692 0
M  V30 1397 H 134.882 -2.55659 2.96893 0
M  V30 1398 H 136.579 -2.31331 3.27547 0
M  V30 1399 H 133.169 -1.15936 4.12622 0
M  V30 1400 H 137.353 -0.593693 4.92736 0
M  V30 1401 H 132.609 0.177825 6.11141 0
M  V30 1402 H 136.783 0.737419 6.92485 0
M  V30 1403 H 134.41 1.12918 7.51767 0
M  V30 1404 N 135.985 -1.50799 -0.457987 0
M  V30 1405 C 136.915 -1.73553 -1.5621 0
M  V30 1406 C 137.896 -0.584774 -1.59732 0
M  V30 1407 O 139.081 -0.825314 -1.7579 0
M  V30 1408 C 136.211 -1.84169 -2.94447 0
M  V30 1409 C 135.165 -2.99461 -3.0579 0
M  V30 1410 C 134.491 -2.95235 -4.45803 0
M  V30 1411 C 135.791 -4.39766 -2.81786 0
M  V30 1412 H 137.485 -2.66 -1.37421 0
M  V30 1413 H 135.031 -1.28002 -0.659662 0
M  V30 1414 H 136.984 -1.98672 -3.71628 0
M  V30 1415 H 135.708 -0.883545 -3.14422 0
M  V30 1416 H 134.367 -2.8463 -2.31044 0
M  V30 1417 H 134.015 -1.97239 -4.62715 0
M  V30 1418 H 133.715 -3.72642 -4.54326 0
M  V30 1419 H 135.239 -3.11803 -5.24987 0
M  V30 1420 H 136.653 -4.55054 -3.4871 0
M  V30 1421 H 135.05 -5.18722 -3.0174 0
M  V30 1422 H 136.12 -4.51229 -1.7754 0
M  V30 1423 N 137.463 0.71206 -1.40597 0
M  V30 1424 C 138.426 1.80785 -1.40888 0
M  V30 1425 C 139.426 1.57937 -0.302103 0
M  V30 1426 O 140.616 1.64913 -0.561182 0
M  V30 1427 C 137.748 3.18927 -1.20409 0
M  V30 1428 H 138.941 1.81924 -2.38419 0
M  V30 1429 H 136.494 0.91805 -1.26497 0
M  V30 1430 H 137.229 3.23436 -0.236522 0
M  V30 1431 H 137.014 3.36911 -2.00582 0
M  V30 1432 H 138.504 3.98949 -1.23408 0
M  V30 1433 N 138.941 1.26152 0.944643 0
M  V30 1434 C 140.357 1.03189 1.21754 0
M  V30 1435 C 140.557 -0.245112 2.00004 0
M  V30 1436 O 139.613 -0.955176 2.33736 0
M  V30 1437 C 140.926 2.26119 1.98219 0
M  V30 1438 C 142.474 2.30984 2.11224 0
M  V30 1439 C 142.949 3.53597 2.91089 0
M  V30 1440 N 144.44 3.54053 2.98664 0
M  V30 1441 C 145.175 4.45593 3.60881 0
M  V30 1442 N 144.671 5.47416 4.24626 0
M  V30 1443 N 146.464 4.33252 3.58119 0
M  V30 1444 H 138.615 2.08177 0.421437 0
M  V30 1445 H 140.878 0.914723 0.248969 0
M  V30 1446 H 140.584 3.18984 1.48128 0
M  V30 1447 H 140.458 2.3009 2.98895 0
M  V30 1448 H 142.845 1.38635 2.60508 0
M  V30 1449 H 142.926 2.31026 1.09821 0
M  V30 1450 H 142.57 4.46273 2.42493 0
M  V30 1451 H 142.5 3.50802 3.92741 0
M  V30 1452 H 144.991 2.80403 2.53343 0
M  V30 1453 H 145.304 6.13459 4.69987 0
M  V30 1454 H 143.649 5.51278 4.23223 0
M  V30 1455 H 146.84 3.52924 3.0751 0
M  V30 1456 H 147.013 5.04786 4.06319 0
M  V30 1457 N 140.419 -1.14872 1.07899 0
M  V30 1458 C 141.329 -2.2341 0.715915 0
M  V30 1459 C 142.345 -1.71808 -0.275306 0
M  V30 1460 O 143.521 -2.01039 -0.120545 0
M  V30 1461 C 140.586 -3.46474 0.125168 0
M  V30 1462 C 139.647 -4.13039 1.17034 0
M  V30 1463 C 138.88 -5.30229 0.607688 0
M  V30 1464 O 139.103 -5.675 -0.574497 0
M  V30 1465 O 138.037 -5.86444 1.35526 0
M  V30 1466 H 141.863 -2.56808 1.62121 0
M  V30 1467 H 139.448 -1.22702 0.852322 0
M  V30 1468 H 141.33 -4.20917 -0.201729 0
M  V30 1469 H 140.005 -3.14811 -0.753364 0
M  V30 1470 H 138.912 -3.40493 1.54968 0
M  V30 1471 H 140.245 -4.48796 2.02097 0
M  V30 1472 N 141.898 -0.863906 -1.31812 0
M  V30 1473 C 143.309 -0.52522 -1.7916 0
M  V30 1474 C 143.66 0.957518 -1.71248 0
M  V30 1475 O 142.785 1.74734 -1.27659 0
M  V30 1476 C 143.38 -0.9466 -3.25307 0
M  V30 1477 C 141.939 -0.659668 -3.70574 0
M  V30 1478 C 141.086 -1.14126 -2.52726 0
M  V30 1479 H 144.037 -1.05022 -1.1898 0
M  V30 1480 H 144.058 -0.266766 -3.79564 0
M  V30 1481 H 143.57 -2.02579 -3.31034 0
M  V30 1482 H 141.671 0.408416 -3.70355 0
M  V30 1483 H 141.784 -1.23245 -4.62977 0
M  V30 1484 H 140.148 -0.561216 -2.4844 0
M  V30 1485 H 140.931 -2.22775 -2.61201 0
M  V30 1486 N 143.376 1.44774 -0.622745 0
M  V30 1487 C 144.622 2.02968 -0.13257 0
M  V30 1488 C 144.977 1.48047 1.22881 0
M  V30 1489 O 144.27 0.651625 1.80179 0
M  V30 1490 C 144.464 3.57364 -0.0508323 0
M  V30 1491 C 144.293 4.27262 -1.40275 0
M  V30 1492 C 143.063 4.64577 -1.98737 0
M  V30 1493 C 145.261 4.58248 -2.3348 0
M  V30 1494 N 143.243 5.19404 -3.27251 0
M  V30 1495 C 144.614 5.14069 -3.46603 0
M  V30 1496 C 146.669 4.40195 -2.32664 0
M  V30 1497 C 145.372 5.53738 -4.59093 0
M  V30 1498 C 147.398 4.80907 -3.44213 0
M  V30 1499 C 146.76 5.36834 -4.56058 0
M  V30 1500 H 142.859 0.776541 -0.0922354 0
M  V30 1501 H 145.443 1.76385 -0.82441 0
M  V30 1502 H 143.614 3.83576 0.610265 0
M  V30 1503 H 145.346 4.02219 0.447397 0
M  V30 1504 H 142.101 4.48622 -1.51774 0
M  V30 1505 H 142.525 5.51301 -3.92933 0
M  V30 1506 H 147.167 3.96257 -1.47446 0
M  V30 1507 H 144.885 5.96635 -5.45025 0
M  V30 1508 H 148.471 4.68659 -3.44747 0
M  V30 1509 H 147.351 5.67755 -5.40947 0
M  V30 1510 N 144.854 0.36279 1.53368 0
M  V30 1511 C 146.103 -0.22888 2.00397 0
M  V30 1512 C 146.416 -1.50096 1.25421 0
M  V30 1513 O 147.622 -2.17106 1.63025 0
M  V30 1514 C 146.078 -0.458417 3.56969 0
M  V30 1515 C 145.686 0.798877 4.4082 0
M  V30 1516 C 147.43 -1.00789 4.12361 0
M  V30 1517 C 145.337 0.539078 5.88938 0
M  V30 1518 H 144.267 -0.089305 0.748693 0
M  V30 1519 H 146.918 0.481099 1.77081 0
M  V30 1520 H 145.3 -1.22959 3.76427 0
M  V30 1521 H 146.474 1.57262 4.33134 0
M  V30 1522 H 144.789 1.27137 3.96516 0
M  V30 1523 H 147.386 -1.21754 5.20653 0
M  V30 1524 H 147.729 -1.9692 3.66781 0
M  V30 1525 H 148.262 -0.296961 3.9669 0
M  V30 1526 H 145.001 1.47064 6.3879 0
M  V30 1527 H 144.521 -0.196222 5.99479 0
M  V30 1528 H 146.2 0.163542 6.46793 0
M  V30 1529 N 146.332 -1.57332 0.0918853 0
M  V30 1530 C 147.279 -2.13847 -0.868211 0
M  V30 1531 C 148.249 -1.05618 -1.28196 0
M  V30 1532 O 149.434 -1.33387 -1.36427 0
M  V30 1533 C 146.574 -2.72062 -2.12312 0
M  V30 1534 C 145.687 -3.94514 -1.7602 0
M  V30 1535 C 144.822 -4.40903 -2.96273 0
M  V30 1536 C 143.861 -5.55953 -2.56092 0
M  V30 1537 N 142.998 -5.97209 -3.69169 0
M  V30 1538 H 147.838 -2.95575 -0.379406 0
M  V30 1539 H 145.375 -1.46048 -0.175606 0
M  V30 1540 H 147.333 -3.03931 -2.858 0
M  V30 1541 H 145.963 -1.93068 -2.58698 0
M  V30 1542 H 145.015 -3.68979 -0.925135 0
M  V30 1543 H 146.327 -4.7802 -1.42472 0
M  V30 1544 H 145.481 -4.74539 -3.78018 0
M  V30 1545 H 144.22 -3.56291 -3.33029 0
M  V30 1546 H 143.225 -5.21948 -1.72773 0
M  V30 1547 H 144.45 -6.42311 -2.20484 0
M  V30 1548 H 142.396 -5.15543 -4.05649 0
M  V30 1549 H 142.313 -6.75504 -3.39456 0
M  V30 1550 H 143.581 -6.35475 -4.51434 0
M  V30 1551 N 147.81 0.181792 -1.56548 0
M  V30 1552 C 148.74 1.22765 -1.98623 0
M  V30 1553 C 149.721 1.46747 -0.860189 0
M  V30 1554 O 150.906 1.58259 -1.12551 0
M  V30 1555 C 148.036 2.56894 -2.33715 0
M  V30 1556 C 146.99 2.475 -3.49182 0
M  V30 1557 C 146.316 3.86023 -3.69986 0
M  V30 1558 C 147.616 1.98866 -4.82959 0
M  V30 1559 H 149.31 0.877942 -2.86239 0
M  V30 1560 H 146.856 0.42088 -1.37712 0
M  V30 1561 H 148.809 3.30253 -2.61746 0
M  V30 1562 H 147.533 2.93632 -1.42997 0
M  V30 1563 H 146.192 1.76596 -3.21262 0
M  V30 1564 H 145.84 4.20136 -2.76576 0
M  V30 1565 H 145.54 3.80609 -4.47672 0
M  V30 1566 H 147.064 4.60984 -4.00407 0
M  V30 1567 H 148.478 2.61992 -5.09934 0
M  V30 1568 H 146.875 2.04424 -5.64208 0
M  V30 1569 H 147.945 0.942465 -4.75653 0
M  V30 1570 N 149.288 1.51039 0.449983 0
M  V30 1571 C 150.699 1.557 1.03026 0
M  V30 1572 C 151.05 0.372939 1.92623 0
M  V30 1573 O 150.175 -0.511771 2.10261 0
M  V30 1574 C 150.77 2.82171 1.87523 0
M  V30 1575 C 149.329 2.89444 2.40622 0
M  V30 1576 C 148.476 2.50228 1.19504 0
M  V30 1577 H 151.427 1.56999 0.231745 0
M  V30 1578 H 151.448 2.65219 2.72835 0
M  V30 1579 H 150.96 3.68331 1.22286 0
M  V30 1580 H 149.061 2.07685 3.0935 0
M  V30 1581 H 149.174 3.92816 2.74285 0
M  V30 1582 H 147.538 2.03139 1.53644 0
M  V30 1583 H 148.321 3.38719 0.558972 0
M  V30 1584 N 150.766 -0.704594 1.40972 0
M  V30 1585 C 152.015 -1.46018 1.39146 0
M  V30 1586 C 152.328 -1.956 0.000589254 0
M  V30 1587 O 153.534 -2.71137 -0.1403 0
M  V30 1588 C 151.99 -2.63996 2.4461 0
M  V30 1589 C 151.598 -2.21238 3.89561 0
M  V30 1590 C 153.342 -3.41677 2.51907 0
M  V30 1591 C 151.249 -3.3612 4.86598 0
M  V30 1592 H 150.179 -0.548444 0.517422 0
M  V30 1593 H 152.83 -0.765784 1.66757 0
M  V30 1594 H 151.212 -3.3566 2.10115 0
M  V30 1595 H 152.386 -1.56923 4.33257 0
M  V30 1596 H 150.701 -1.56574 3.85841 0
M  V30 1597 H 153.298 -4.27182 3.2159 0
M  V30 1598 H 153.641 -3.86247 1.55303 0
M  V30 1599 H 154.174 -2.77064 2.85448 0
M  V30 1600 H 150.913 -2.96572 5.84573 0
M  V30 1601 H 150.433 -3.99315 4.47557 0
M  V30 1602 H 152.112 -4.02029 5.06934 0
M  V30 1603 N 152.244 -1.26651 -0.937939 0
M  V30 1604 C 153.474 -1.15006 -1.71631 0
M  V30 1605 C 153.882 0.297026 -1.86854 0
M  V30 1606 O 153.225 1.21493 -1.37786 0
M  V30 1607 C 153.287 -1.74984 -3.14039 0
M  V30 1608 C 152.951 -3.24103 -3.2219 0
M  V30 1609 C 153.948 -4.20877 -3.05219 0
M  V30 1610 C 151.633 -3.64625 -3.45476 0
M  V30 1611 C 153.627 -5.56151 -3.11408 0
M  V30 1612 C 151.314 -5.00032 -3.513 0
M  V30 1613 C 152.312 -5.95604 -3.34282 0
M  V30 1614 O 152 -7.28545 -3.3982 0
M  V30 1615 H 151.732 -0.401183 -0.544085 0
M  V30 1616 H 154.286 -1.67832 -1.18413 0
M  V30 1617 H 152.516 -1.16624 -3.68695 0
M  V30 1618 H 154.205 -1.58199 -3.73802 0
M  V30 1619 H 154.971 -3.90908 -2.87081 0
M  V30 1620 H 150.85 -2.90718 -3.57777 0
M  V30 1621 H 154.394 -6.30727 -2.98043 0
M  V30 1622 H 150.291 -5.29659 -3.68959 0
M  V30 1623 H 151.059 -7.3686 -3.56343 0
M  V30 1624 N 153.722 1.14298 -1.08507 0
M  V30 1625 C 154.95 1.89219 -0.836876 0
M  V30 1626 C 155.365 1.78638 0.611054 0
M  V30 1627 O 154.722 1.14643 1.41998 0
M  V30 1628 C 154.773 3.39158 -1.25116 0
M  V30 1629 O 154.494 3.49449 -2.64229 0
M  V30 1630 C 155.995 4.31073 -1.03398 0
M  V30 1631 H 153.215 0.599328 -0.301739 0
M  V30 1632 H 155.759 1.44746 -1.44461 0
M  V30 1633 H 153.914 3.81251 -0.687514 0
M  V30 1634 H 154.328 4.42589 -2.81452 0
M  V30 1635 H 155.802 5.34646 -1.37323 0
M  V30 1636 H 156.279 4.3919 0.0289259 0
M  V30 1637 H 156.885 3.94738 -1.58311 0
M  V30 1638 N 155.201 0.870884 1.31352 0
M  V30 1639 C 156.131 0.343096 2.30966 0
M  V30 1640 C 157.112 -0.566507 1.60389 0
M  V30 1641 O 158.297 -0.483336 1.88089 0
M  V30 1642 C 155.427 -0.455487 3.443 0
M  V30 1643 C 154.381 0.361103 4.26474 0
M  V30 1644 C 153.707 -0.563221 5.31725 0
M  V30 1645 C 155.007 1.59566 4.97329 0
M  V30 1646 H 156.701 1.17548 2.75359 0
M  V30 1647 H 154.247 0.566686 1.32381 0
M  V30 1648 H 156.2 -0.83525 4.13039 0
M  V30 1649 H 154.924 -1.32139 2.98675 0
M  V30 1650 H 153.583 0.722825 3.59403 0
M  V30 1651 H 153.231 -1.42643 4.82351 0
M  V30 1652 H 152.931 -0.0207409 5.87596 0
M  V30 1653 H 154.455 -0.939808 6.03324 0
M  V30 1654 H 155.869 1.28728 5.58661 0
M  V30 1655 H 154.266 2.07728 5.63 0
M  V30 1656 H 155.336 2.34798 4.24262 0
M  V30 1657 N 156.679 -1.44442 0.630414 0
M  V30 1658 C 157.642 -2.29107 -0.0652523 0
M  V30 1659 C 158.642 -1.41002 -0.772995 0
M  V30 1660 O 159.832 -1.62881 -0.617692 0
M  V30 1661 C 156.964 -3.22564 -1.10296 0
M  V30 1662 H 158.157 -2.92103 0.679401 0
M  V30 1663 H 155.71 -1.51343 0.390517 0
M  V30 1664 H 156.445 -2.64416 -1.87762 0
M  V30 1665 H 156.23 -3.87491 -0.59941 0
M  V30 1666 H 157.72 -3.86167 -1.5895 0
M  V30 1667 N 158.157 -0.370918 -1.53173 0
M  V30 1668 C 159.089 0.507823 -2.23503 0
M  V30 1669 C 160.102 1.04182 -1.251 0
M  V30 1670 O 161.291 0.947286 -1.5129 0
M  V30 1671 C 158.391 1.71447 -2.92334 0
M  V30 1672 C 157.564 1.31105 -4.17289 0
M  V30 1673 C 156.623 2.38035 -4.69282 0
M  V30 1674 O 155.649 2.00204 -5.32829 0
M  V30 1675 N 156.851 3.69697 -4.47554 0
M  V30 1676 H 159.616 -0.0946382 -2.99551 0
M  V30 1677 H 157.177 -0.196358 -1.60705 0
M  V30 1678 H 159.169 2.42469 -3.24023 0
M  V30 1679 H 157.739 2.22368 -2.19707 0
M  V30 1680 H 156.959 0.430462 -3.91843 0
M  V30 1681 H 158.247 1.0179 -4.98514 0
M  V30 1682 H 157.645 4.03205 -3.9679 0
M  V30 1683 H 156.202 4.36807 -4.8378 0
M  V30 1684 N 159.635 1.57281 -0.100228 0
M  V30 1685 C 160.863 1.98879 0.570509 0
M  V30 1686 C 161.278 0.979476 1.61405 0
M  V30 1687 O 160.635 -0.0302288 1.82475 0
M  V30 1688 C 160.686 3.4052 1.2136 0
M  V30 1689 O 160.407 4.37588 0.211786 0
M  V30 1690 C 161.908 3.97149 1.96945 0
M  V30 1691 H 159.128 0.653428 0.152555 0
M  V30 1692 H 161.672 2.03697 -0.18103 0
M  V30 1693 H 159.827 3.367 1.91603 0
M  V30 1694 H 160.241 5.20118 0.676607 0
M  V30 1695 H 161.715 4.98393 2.37294 0
M  V30 1696 H 162.192 3.3525 2.83733 0
M  V30 1697 H 162.798 4.04458 1.31506 0
M  V30 1698 N 161.113 -0.173488 1.56642 0
M  V30 1699 C 162.043 -1.2171 1.99271 0
M  V30 1700 C 163.024 -1.46289 0.867959 0
M  V30 1701 O 164.209 -1.5766 1.13388 0
M  V30 1702 C 161.339 -2.55651 2.35074 0
M  V30 1703 C 160.293 -2.45645 3.50489 0
M  V30 1704 C 159.619 -3.84056 3.72028 0
M  V30 1705 C 160.919 -1.96302 4.84007 0
M  V30 1706 H 162.613 -0.86275 2.867 0
M  V30 1707 H 160.159 -0.413571 1.37933 0
M  V30 1708 H 162.112 -3.2886 2.63494 0
M  V30 1709 H 160.836 -2.92869 1.44552 0
M  V30 1710 H 159.495 -1.7489 3.22194 0
M  V30 1711 H 159.143 -4.18664 2.788 0
M  V30 1712 H 158.843 -3.7823 4.49684 0
M  V30 1713 H 160.367 -4.58854 4.02846 0
M  V30 1714 H 161.781 -2.59284 5.11317 0
M  V30 1715 H 160.178 -2.01429 5.65284 0
M  V30 1716 H 161.248 -0.917226 4.76146 0
M  V30 1717 N 162.591 -1.51276 -0.441967 0
M  V30 1718 C 163.839 -1.63392 -1.18943 0
M  V30 1719 C 164.16 -0.350159 -1.9183 0
M  V30 1720 O 163.43 0.633784 -1.85364 0
M  V30 1721 H 162.01 -0.602164 -0.442049 0
M  V30 1722 H 164.672 -1.88186 -0.507165 0
M  V30 1723 H 163.768 -2.45934 -1.92154 0
M  V30 1724 N 164.069 0.697108 -1.41344 0
M  V30 1725 C 165.032 1.79281 -1.42797 0
M  V30 1726 C 166.032 1.57607 -0.318837 0
M  V30 1727 O 167.222 1.64309 -0.578642 0
M  V30 1728 C 164.354 3.17632 -1.23785 0
M  V30 1729 H 165.547 1.79385 -2.40335 0
M  V30 1730 H 163.1 0.904582 -1.27464 0
M  V30 1731 H 163.835 3.23167 -0.270814 0
M  V30 1732 H 163.62 3.34765 -2.04144 0
M  V30 1733 H 165.11 3.97617 -1.27633 0
M  V30 1734 N 165.547 1.27147 0.931209 0
M  V30 1735 C 166.794 1.13278 1.67852 0
M  V30 1736 C 167.122 -0.32204 1.91815 0
M  V30 1737 O 166.377 -1.25224 1.50391 0
M  V30 1738 C 166.676 1.8579 3.05314 0
M  V30 1739 C 166.342 3.35657 3.01073 0
M  V30 1740 C 165.004 3.76536 2.99623 0
M  V30 1741 C 167.356 4.31299 2.92627 0
M  V30 1742 C 164.684 5.11426 2.87506 0
M  V30 1743 C 167.036 5.66242 2.82051 0
M  V30 1744 C 165.7 6.06418 2.7895 0
M  V30 1745 H 164.97 0.414515 0.614214 0
M  V30 1746 H 167.617 1.57712 1.08624 0
M  V30 1747 H 165.922 1.33854 3.68226 0
M  V30 1748 H 167.619 1.72491 3.62005 0
M  V30 1749 H 164.209 3.03146 3.02986 0
M  V30 1750 H 168.393 4.00692 2.92848 0
M  V30 1751 H 163.649 5.41705 2.83489 0
M  V30 1752 H 167.823 6.40026 2.74481 0
M  V30 1753 H 165.45 7.10895 2.69318 0
M  V30 1754 N 167.025 -1.13721 1.09112 0
M  V30 1755 C 167.955 -2.21148 0.749385 0
M  V30 1756 C 168.936 -1.6792 -0.271475 0
M  V30 1757 O 170.121 -1.93693 -0.140251 0
M  V30 1758 C 167.251 -3.46905 0.165659 0
M  V30 1759 C 166.205 -4.13203 1.11567 0
M  V30 1760 C 165.531 -5.33248 0.393809 0
M  V30 1761 C 166.831 -4.60912 2.45678 0
M  V30 1762 H 168.525 -2.4999 1.64758 0
M  V30 1763 H 166.071 -1.20156 0.793626 0
M  V30 1764 H 168.024 -4.21313 -0.085466 0
M  V30 1765 H 166.748 -3.17449 -0.767714 0
M  V30 1766 H 165.407 -3.40758 1.35202 0
M  V30 1767 H 165.055 -5.00054 -0.543599 0
M  V30 1768 H 164.755 -5.78552 1.02721 0
M  V30 1769 H 166.279 -6.10413 0.150908 0
M  V30 1770 H 167.693 -5.26759 2.26269 0
M  V30 1771 H 166.09 -5.16944 3.04776 0
M  V30 1772 H 167.16 -3.75603 3.06677 0
M  V30 1773 N 168.503 -0.877838 -1.30888 0
M  V30 1774 C 169.751 -0.491723 -1.96027 0
M  V30 1775 C 170.072 0.960827 -1.69685 0
M  V30 1776 O 169.342 1.67462 -1.01654 0
M  V30 1777 H 167.922 -0.17885 -0.725273 0
M  V30 1778 H 170.584 -1.11935 -1.59551 0
M  V30 1779 H 169.68 -0.656016 -3.05128 0
M  V30 1780 N 169.982 1.44106 -0.638065 0
M  V30 1781 C 170.945 2.29138 0.0531013 0
M  V30 1782 C 171.945 1.41409 0.765506 0
M  V30 1783 O 173.135 1.63206 0.609046 0
M  V30 1784 C 170.267 3.23144 1.08584 0
M  V30 1785 H 171.46 2.91739 -0.694883 0
M  V30 1786 H 169.013 1.51134 -0.398538 0
M  V30 1787 H 169.748 2.65408 1.86357 0
M  V30 1788 H 169.533 3.87804 0.578852 0
M  V30 1789 H 171.023 3.87004 1.56899 0
M  V30 1790 N 171.46 0.379036 1.52974 0
M  V30 1791 C 172.708 -0.206014 2.01047 0
M  V30 1792 C 173.029 -1.48175 1.26765 0
M  V30 1793 O 172.299 -1.92085 0.384743 0
M  V30 1794 H 170.879 -0.0791184 0.742798 0
M  V30 1795 H 173.541 0.508366 1.88153 0
M  V30 1796 H 172.637 -0.423501 3.09213 0
M  V30 1797 N 172.938 -1.57226 0.108567 0
M  V30 1798 C 174.187 -1.94008 -0.551703 0
M  V30 1799 C 174.5 -0.993442 -1.68494 0
M  V30 1800 O 175.706 -1.25551 -2.40726 0
M  V30 1801 C 174.162 -3.44763 -1.03279 0
M  V30 1802 C 173.77 -4.47943 0.0714193 0
M  V30 1803 C 175.514 -3.90483 -1.66503 0
M  V30 1804 C 173.421 -5.89865 -0.425779 0
M  V30 1805 H 172.351 -0.724206 -0.209863 0
M  V30 1806 H 175.002 -1.82547 0.186741 0
M  V30 1807 H 173.384 -3.51422 -1.82533 0
M  V30 1808 H 174.558 -4.52942 0.847365 0
M  V30 1809 H 172.873 -4.11913 0.609669 0
M  V30 1810 H 175.47 -4.93925 -2.04798 0
M  V30 1811 H 175.813 -3.29877 -2.53942 0
M  V30 1812 H 176.346 -3.86581 -0.938074 0
M  V30 1813 H 173.085 -6.54202 0.412316 0
M  V30 1814 H 172.605 -5.88309 -1.16843 0
M  V30 1815 H 174.284 -6.40844 -0.890397 0
M  V30 1816 N 174.416 0.165178 -1.56732 0
M  V30 1817 C 175.662 0.882112 -1.82611 0
M  V30 1818 C 175.995 1.81628 -0.687378 0
M  V30 1819 O 175.27 1.92009 0.310267 0
M  V30 1820 C 175.553 1.67245 -3.18906 0
M  V30 1821 C 175.406 0.760987 -4.43316 0
M  V30 1822 C 176.725 2.63884 -3.52212 0
M  V30 1823 H 173.844 0.319242 -0.664269 0
M  V30 1824 H 176.486 0.148052 -1.89422 0
M  V30 1825 H 174.636 2.29824 -3.1323 0
M  V30 1826 H 176.308 0.147596 -4.61064 0
M  V30 1827 H 174.551 0.0694102 -4.33744 0
M  V30 1828 H 175.222 1.34962 -5.35247 0
M  V30 1829 H 177.698 2.11429 -3.58381 0
M  V30 1830 H 176.574 3.16245 -4.48643 0
M  V30 1831 H 176.835 3.44377 -2.77231 0
M  V30 1832 N 175.894 1.51508 0.433938 0
M  V30 1833 C 177.141 1.64345 1.18309 0
M  V30 1834 C 177.469 0.361315 1.91115 0
M  V30 1835 O 176.724 -0.654753 1.84422 0
M  V30 1836 C 177.023 2.79928 2.22205 0
M  V30 1837 C 176.689 4.19078 1.66387 0
M  V30 1838 C 175.351 4.56932 1.50887 0
M  V30 1839 C 177.703 5.05894 1.25381 0
M  V30 1840 C 175.031 5.79305 0.928608 0
M  V30 1841 C 177.383 6.2885 0.687823 0
M  V30 1842 C 176.047 6.65473 0.519755 0
M  V30 1843 H 175.317 0.601381 0.432923 0
M  V30 1844 H 177.964 1.85549 0.473676 0
M  V30 1845 H 176.269 2.52959 2.99197 0
M  V30 1846 H 177.966 2.87059 2.79997 0
M  V30 1847 H 174.556 3.89234 1.79428 0
M  V30 1848 H 178.74 4.77253 1.36175 0
M  V30 1849 H 173.996 6.06324 0.786186 0
M  V30 1850 H 178.17 6.95461 0.361581 0
M  V30 1851 H 175.797 7.6017 0.0679979 0
M  V30 1852 N 177.372 -0.689602 1.41712 0
M  V30 1853 C 178.62 -1.4468 1.4111 0
M  V30 1854 C 178.941 -1.94986 0.0232196 0
M  V30 1855 O 178.211 -1.72097 -0.935913 0
M  V30 1856 H 176.791 -0.536847 0.519427 0
M  V30 1857 H 179.453 -0.815825 1.77004 0
M  V30 1858 H 178.549 -2.30706 2.10193 0
M  V30 1859 N 178.85 -1.27639 -0.924453 0
M  V30 1860 C 179.78 -1.13166 -2.04244 0
M  V30 1861 C 180.761 -0.032256 -1.70069 0
M  V30 1862 O 181.946 -0.207328 -1.9309 0
M  V30 1863 C 179.076 -0.781496 -3.38393 0
M  V30 1864 C 178.03 -1.83449 -3.86692 0
M  V30 1865 C 177.356 -1.33822 -5.17683 0
M  V30 1866 C 178.656 -3.23917 -4.09726 0
M  V30 1867 H 180.35 -2.06689 -2.1661 0
M  V30 1868 H 177.896 -0.995136 -1.04082 0
M  V30 1869 H 179.849 -0.667057 -4.16087 0
M  V30 1870 H 178.573 0.189439 -3.2605 0
M  V30 1871 H 177.232 -1.93789 -3.11193 0
M  V30 1872 H 176.88 -0.35665 -5.01734 0
M  V30 1873 H 176.58 -2.04224 -5.50968 0
M  V30 1874 H 178.104 -1.23679 -5.97943 0
M  V30 1875 H 179.518 -3.16559 -4.77978 0
M  V30 1876 H 177.915 -3.92059 -4.54324 0
M  V30 1877 H 178.985 -3.68729 -3.14908 0
M  V30 1878 N 180.328 1.1314 -1.09713 0
M  V30 1879 C 181.558 1.88048 -0.855656 0
M  V30 1880 C 181.966 1.79537 0.596919 0
M  V30 1881 O 181.309 1.16196 1.42282 0
M  V30 1882 C 181.371 3.38314 -1.21589 0
M  V30 1883 C 181.035 3.70605 -2.67397 0
M  V30 1884 C 182.032 3.69596 -3.65643 0
M  V30 1885 C 179.717 4.0017 -3.03593 0
M  V30 1886 C 181.711 3.977 -4.9811 0
M  V30 1887 C 179.398 4.27935 -4.36251 0
M  V30 1888 C 180.396 4.26685 -5.33318 0
M  V30 1889 O 180.084 4.53767 -6.63589 0
M  V30 1890 H 179.816 0.60208 -0.307368 0
M  V30 1891 H 182.37 1.44128 -1.46343 0
M  V30 1892 H 180.6 3.82752 -0.551177 0
M  V30 1893 H 182.289 3.94552 -0.953083 0
M  V30 1894 H 183.055 3.46826 -3.39023 0
M  V30 1895 H 178.934 4.00289 -2.2867 0
M  V30 1896 H 182.478 3.9664 -5.73866 0
M  V30 1897 H 178.375 4.50178 -4.62613 0
M  V30 1898 H 179.143 4.71422 -6.69107 0
M  V30 1899 N 181.806 0.884767 1.30421 0
M  V30 1900 C 183.036 0.517293 2.00019 0
M  V30 1901 C 183.444 -0.898632 1.66497 0
M  V30 1902 O 182.787 -1.60245 0.898181 0
M  V30 1903 C 182.849 0.612025 3.54252 0
M  V30 1904 C 182.513 1.99222 4.1129 0
M  V30 1905 C 183.51 2.9616 4.273 0
M  V30 1906 C 181.195 2.29755 4.46674 0
M  V30 1907 C 183.189 4.21764 4.77906 0
M  V30 1908 C 180.876 3.55606 4.96979 0
M  V30 1909 C 181.874 4.51425 5.12547 0
M  V30 1910 O 181.562 5.75043 5.61766 0
M  V30 1911 H 181.294 0.198529 0.64619 0
M  V30 1912 H 183.848 1.1919 1.67281 0
M  V30 1913 H 182.078 -0.119561 3.86515 0
M  V30 1914 H 183.767 0.255859 4.05093 0
M  V30 1915 H 184.533 2.73882 4.00267 0
M  V30 1916 H 180.412 1.55942 4.33824 0
M  V30 1917 H 183.956 4.96561 4.89972 0
M  V30 1918 H 179.853 3.7772 5.23448 0
M  V30 1919 H 180.621 5.77422 5.80109 0
M  V30 1920 N 183.284 -1.43765 0.645699 0
M  V30 1921 C 184.561 -1.9541 0.0862963 0
M  V30 1922 C 184.941 -1.58725 -1.39175 0
M  V30 1923 O 184.289 -0.868581 -2.11348 0
M  V30 1924 C 184.499 -3.47488 0.324565 0
M  V30 1925 C 185.847 -4.24001 0.225497 0
M  V30 1926 O 186.871 -3.55274 0.256715 0
M  V30 1927 O 185.73 -5.46313 0.142801 0
M  V30 1928 H 182.824 -0.826882 -0.0139483 0
M  V30 1929 H 185.37 -1.53743 0.718415 0
M  V30 1930 H 184.142 -3.67289 1.3496 0
M  V30 1931 H 183.765 -3.96135 -0.340987 0
M  V30 1932 N 184.763 -0.387143 -1.52771 0
M  V30 1933 C 185.726 0.436939 -2.24997 0
M  V30 1934 C 186.726 0.991991 -1.26555 0
M  V30 1935 O 187.916 0.874335 -1.50669 0
M  V30 1936 C 185.048 1.61281 -3.00335 0
M  V30 1937 H 186.241 -0.195365 -2.99263 0
M  V30 1938 H 183.794 -0.139218 -1.55679 0
M  V30 1939 H 184.529 2.2826 -2.30364 0
M  V30 1940 H 184.314 1.22154 -3.72587 0
M  V30 1941 H 185.804 2.19629 -3.5518 0
M  V30 1942 N 186.241 1.57166 -0.116904 0
M  V30 1943 C 187.49 1.94298 0.541407 0
M  V30 1944 C 187.803 1.00236 1.67964 0
M  V30 1945 O 189.009 1.26826 2.40057 0
M  V30 1946 C 187.465 3.45306 1.01449 0
M  V30 1947 C 187.073 4.47899 -0.0951738 0
M  V30 1948 C 188.817 3.91361 1.6443 0
M  V30 1949 C 186.724 5.90083 0.394491 0
M  V30 1950 H 185.654 0.725308 0.206019 0
M  V30 1951 H 188.305 1.82446 -0.196419 0
M  V30 1952 H 186.687 3.52385 1.80667 0
M  V30 1953 H 187.861 4.52486 -0.871374 0
M  V30 1954 H 186.176 4.11583 -0.631505 0
M  V30 1955 H 188.773 4.95004 2.02176 0
M  V30 1956 H 189.116 3.3122 2.52189 0
M  V30 1957 H 189.649 3.87073 0.917559 0
M  V30 1958 H 186.388 6.53974 -0.447004 0
M  V30 1959 H 185.908 5.88921 1.13722 0
M  V30 1960 H 187.587 6.41307 0.856399 0
M  V30 1961 N 187.719 -0.156864 1.56817 0
M  V30 1962 C 188.965 -0.867645 1.83966 0
M  V30 1963 C 189.32 -1.79233 0.699511 0
M  V30 1964 O 188.613 -1.89186 -0.303176 0
M  V30 1965 C 188.807 -1.68737 3.1506 0
M  V30 1966 C 188.636 -0.843548 4.41718 0
M  V30 1967 C 187.406 -0.512994 5.02689 0
M  V30 1968 C 189.604 -0.178416 5.1399 0
M  V30 1969 N 187.586 0.345456 6.12927 0
M  V30 1970 C 188.957 0.540586 6.17639 0
M  V30 1971 C 191.012 -0.0980696 4.97803 0
M  V30 1972 C 189.715 1.33233 7.06853 0
M  V30 1973 C 191.741 0.680387 5.87473 0
M  V30 1974 C 191.103 1.3877 6.90596 0
M  V30 1975 H 187.202 -0.295642 0.723961 0
M  V30 1976 H 189.786 -0.13365 1.94241 0
M  V30 1977 H 187.957 -2.39268 3.0595 0
M  V30 1978 H 189.689 -2.34056 3.30151 0
M  V30 1979 H 186.444 -0.846476 4.65974 0
M  V30 1980 H 186.868 0.765415 6.72659 0
M  V30 1981 H 191.51 -0.630562 4.18071 0
M  V30 1982 H 189.228 1.87612 7.8602 0
M  V30 1983 H 192.814 0.744415 5.77018 0
M  V30 1984 H 191.694 1.9804 7.58782 0
M  V30 1985 N 189.197 -1.51736 -0.425897 0
M  V30 1986 C 190.147 -1.70258 -1.51645 0
M  V30 1987 C 191.131 -0.556488 -1.5097 0
M  V30 1988 O 192.323 -0.812879 -1.5723 0
M  V30 1989 C 189.452 -1.84143 -2.89735 0
M  V30 1990 C 188.538 -3.04572 -2.95122 0
M  V30 1991 N 188.929 -4.2756 -2.70233 0
M  V30 1992 C 187.227 -3.04061 -3.26286 0
M  V30 1993 C 187.928 -5.08908 -2.81757 0
M  V30 1994 N 186.904 -4.43797 -3.13919 0
M  V30 1995 H 190.706 -2.63004 -1.31172 0
M  V30 1996 H 188.22 -1.4954 -0.633375 0
M  V30 1997 H 190.217 -1.95525 -3.68206 0
M  V30 1998 H 188.877 -0.925857 -3.1122 0
M  V30 1999 H 189.888 -4.56315 -2.44943 0
M  V30 2000 H 186.565 -2.22179 -3.53473 0
M  V30 2001 H 187.955 -6.16843 -2.66372 0
M  V30 2002 N 190.675 0.682077 -1.42076 0
M  V30 2003 C 191.922 1.44215 -1.42156 0
M  V30 2004 C 192.25 1.94468 -0.0354186 0
M  V30 2005 O 191.505 1.70816 0.955002 0
M  V30 2006 C 191.804 2.66036 -2.38662 0
M  V30 2007 C 191.47 2.34366 -3.85206 0
M  V30 2008 C 190.132 2.25439 -4.25124 0
M  V30 2009 C 192.484 2.08513 -4.77673 0
M  V30 2010 C 189.812 1.88775 -5.55501 0
M  V30 2011 C 192.164 1.73354 -6.08384 0
M  V30 2012 C 190.828 1.62933 -6.47309 0
M  V30 2013 H 190.098 0.527718 -0.520187 0
M  V30 2014 H 192.745 0.778387 -1.74967 0
M  V30 2015 H 191.05 3.3741 -1.99152 0
M  V30 2016 H 192.747 3.24205 -2.35991 0
M  V30 2017 H 189.337 2.42213 -3.53597 0
M  V30 2018 H 193.521 2.14346 -4.47626 0
M  V30 2019 H 188.777 1.7927 -5.84527 0
M  V30 2020 H 192.951 1.52373 -6.79526 0
M  V30 2021 H 190.578 1.34292 -7.48244 0
M  V30 2022 N 192.153 1.28127 0.917671 0
M  V30 2023 C 193.116 1.11744 2.00115 0
M  V30 2024 C 194.116 0.0583052 1.60694 0
M  V30 2025 O 195.306 0.303755 1.71531 0
M  V30 2026 C 192.438 0.704862 3.33533 0
M  V30 2027 H 193.631 2.07966 2.16079 0
M  V30 2028 H 191.184 1.11058 1.09981 0
M  V30 2029 H 191.919 -0.258299 3.2327 0
M  V30 2030 H 191.704 1.4699 3.63505 0
M  V30 2031 H 193.194 0.612768 4.1308 0
M  V30 2032 N 193.631 -1.12557 1.10312 0
M  V30 2033 C 194.908 -1.80363 0.756878 0
M  V30 2034 C 195.288 -1.97067 -0.756824 0
M  V30 2035 O 194.636 -1.54601 -1.68259 0
M  V30 2036 C 194.846 -3.14812 1.50647 0
M  V30 2037 C 196.194 -3.90029 1.67817 0
M  V30 2038 O 197.218 -3.24464 1.46974 0
M  V30 2039 O 196.077 -5.07652 2.02365 0
M  V30 2040 H 193.171 -0.780667 0.272926 0
M  V30 2041 H 195.717 -1.19404 1.20586 0
M  V30 2042 H 194.489 -2.97936 2.53672 0
M  V30 2043 H 194.112 -3.83478 1.05026 0
M  V30 2044 N 195.109 -0.891671 -1.2995 0
M  V30 2045 C 196.057 -0.353066 -2.29905 0
M  V30 2046 C 197.051 0.543509 -1.60444 0
M  V30 2047 O 198.257 0.4272 -1.74857 0
M  V30 2048 H 194.632 -0.095531 -0.745907 0
M  V30 2049 H 196.603 -1.20961 -2.72784 0
M  V30 2050 C 195.352 0.411475 -3.45257 0
M  V30 2051 H 194.675 -0.269182 -3.98893 0
M  V30 2052 H 196.115 0.753328 -4.17254 0
M  V30 2053 C 194.574 1.6111 -2.9588 0
M  V30 2054 O 195.104 2.71045 -2.96475 0
M  V30 2055 N 193.31 1.45054 -2.51809 0
M  V30 2056 H 192.857 0.556175 -2.51524 0
M  V30 2057 H 192.815 2.25453 -2.1913 0
M  V30 2058 N 196.587 1.43421 -0.653314 0
M  V30 2059 C 197.519 2.29071 0.0769134 0
M  V30 2060 C 198.532 1.42513 0.787017 0
M  V30 2061 O 199.721 1.66449 0.644757 0
M  V30 2062 C 196.821 3.19436 1.13199 0
M  V30 2063 C 195.994 4.34533 0.500006 0
M  V30 2064 C 195.053 5.05771 1.45198 0
M  V30 2065 O 194.079 5.61037 0.960538 0
M  V30 2066 N 195.281 5.0928 2.78594 0
M  V30 2067 H 198.046 2.92382 -0.658235 0
M  V30 2068 H 195.607 1.54112 -0.496104 0
M  V30 2069 H 197.599 3.63958 1.76964 0
M  V30 2070 H 196.169 2.57724 1.7691 0
M  V30 2071 H 195.389 3.92925 -0.316738 0
M  V30 2072 H 196.677 5.08766 0.0588345 0
M  V30 2073 H 196.075 4.65751 3.2108 0
M  V30 2074 H 194.632 5.57519 3.37662 0
M  V30 2075 N 198.065 0.39524 1.52563 0
M  V30 2076 C 198.995 -0.428384 2.29537 0
M  V30 2077 C 199.976 -1.05831 1.33169 0
M  V30 2078 O 201.161 -1.06995 1.62067 0
M  V30 2079 C 198.291 -1.55274 3.10656 0
M  V30 2080 C 197.245 -1.04855 4.14957 0
M  V30 2081 C 196.571 -2.26543 4.84337 0
M  V30 2082 C 197.871 -0.112324 5.22179 0
M  V30 2083 H 199.565 0.213867 2.98635 0
M  V30 2084 H 197.111 0.104298 1.43622 0
M  V30 2085 H 199.064 -2.1358 3.63265 0
M  V30 2086 H 197.788 -2.22266 2.39302 0
M  V30 2087 H 196.447 -0.487985 3.63338 0
M  V30 2088 H 196.095 -2.92059 4.09525 0
M  V30 2089 H 195.795 -1.93466 5.54837 0
M  V30 2090 H 197.319 -2.85481 5.39753 0
M  V30 2091 H 198.733 -0.603752 5.70112 0
M  V30 2092 H 197.13 0.128968 5.99961 0
M  V30 2093 H 198.2 0.837052 4.77621 0
M  V30 2094 N 199.544 -1.57102 0.125237 0
M  V30 2095 C 200.791 -1.95407 -0.531248 0
M  V30 2096 C 201.119 -1.0089 -1.66287 0
M  V30 2097 O 200.374 -0.0339431 -1.95671 0
M  V30 2098 C 200.673 -3.40096 -1.09862 0
M  V30 2099 C 200.339 -4.50815 -0.0876989 0
M  V30 2100 C 199.001 -4.80824 0.19026 0
M  V30 2101 C 201.353 -5.17724 0.600902 0
M  V30 2102 C 198.681 -5.75058 1.163 0
M  V30 2103 C 201.033 -6.13005 1.56231 0
M  V30 2104 C 199.697 -6.41403 1.8482 0
M  V30 2105 H 198.967 -0.715046 -0.194397 0
M  V30 2106 H 201.614 -1.90373 0.207463 0
M  V30 2107 H 199.919 -3.41855 -1.91422 0
M  V30 2108 H 201.616 -3.6705 -1.61478 0
M  V30 2109 H 198.206 -4.27444 -0.314528 0
M  V30 2110 H 202.39 -4.94691 0.399333 0
M  V30 2111 H 197.646 -5.95362 1.39117 0
M  V30 2112 H 201.82 -6.63934 2.10153 0
M  V30 2113 H 199.447 -7.14229 2.60349 0
M  V30 2114 N 201.022 0.148545 -1.56898 0
M  V30 2115 C 202.268 0.862694 -1.83536 0
M  V30 2116 C 202.601 1.80889 -0.706604 0
M  V30 2117 O 201.876 1.92328 0.289885 0
M  V30 2118 C 202.159 1.63853 -3.20662 0
M  V30 2119 C 202.012 0.713925 -4.44098 0
M  V30 2120 C 203.331 2.60133 -3.54991 0
M  V30 2121 H 200.45 0.312179 -0.667618 0
M  V30 2122 H 203.092 0.127953 -1.89569 0
M  V30 2123 H 201.242 2.26489 -3.1565 0
M  V30 2124 H 202.914 0.098686 -4.61194 0
M  V30 2125 H 201.157 0.0234019 -4.33794 0
M  V30 2126 H 201.828 1.29278 -5.36648 0
M  V30 2127 H 204.304 2.07616 -3.60603 0
M  V30 2128 H 203.18 3.11468 -4.51972 0
M  V30 2129 H 203.441 3.41417 -2.80868 0
M  V30 2130 N 202.5 1.5196 0.417844 0
M  V30 2131 C 203.725 1.69717 1.1921 0
M  V30 2132 C 204.15 0.402148 1.83751 0
M  V30 2133 O 203.508 -0.639593 1.69643 0
M  V30 2134 C 203.556 2.82794 2.2374 0
M  V30 2135 O 202.66 2.47756 3.29683 0
M  V30 2136 H 202.001 0.565263 0.348387 0
M  V30 2137 H 204.531 1.98621 0.490985 0
M  V30 2138 H 204.541 3.07452 2.68212 0
M  V30 2139 H 203.216 3.76756 1.76146 0
M  V30 2140 H 201.793 2.33739 2.90552 0
M  V30 2141 N 203.978 -0.674533 1.42435 0
M  V30 2142 C 205.226 -1.43175 1.42637 0
M  V30 2143 C 205.547 -1.94951 0.0438992 0
M  V30 2144 O 204.817 -1.7308 -0.917607 0
M  V30 2145 H 203.397 -0.531307 0.525092 0
M  V30 2146 H 206.059 -0.797006 1.77859 0
M  V30 2147 H 205.155 -2.28463 2.12629 0
M  V30 2148 N 205.456 -1.28612 -0.910864 0
M  V30 2149 C 206.867 -1.14406 -1.47541 0
M  V30 2150 C 207.218 0.264901 -1.94403 0
M  V30 2151 O 206.343 1.15942 -1.82719 0
M  V30 2152 C 206.938 -2.07073 -2.68153 0
M  V30 2153 C 205.497 -1.96923 -3.20778 0
M  V30 2154 C 204.644 -1.98646 -1.93481 0
M  V30 2155 H 207.595 -1.41259 -0.723291 0
M  V30 2156 H 207.616 -1.63642 -3.43514 0
M  V30 2157 H 207.128 -3.09611 -2.34015 0
M  V30 2158 H 205.229 -0.97433 -3.59635 0
M  V30 2159 H 205.342 -2.84026 -3.85832 0
M  V30 2160 H 203.706 -1.43093 -2.10705 0
M  V30 2161 H 204.489 -3.02868 -1.61634 0
M  V30 2162 N 206.934 1.1197 -1.10907 0
M  V30 2163 C 207.882 2.19927 -0.757303 0
M  V30 2164 C 208.876 1.67564 0.248747 0
M  V30 2165 O 210.082 1.79672 0.108605 0
M  V30 2166 H 206.457 0.716925 -0.226987 0
M  V30 2167 H 208.428 2.46847 -1.67658 0
M  V30 2168 C 207.177 3.47061 -0.210671 0
M  V30 2169 H 206.5 3.87703 -0.976049 0
M  V30 2170 H 207.94 4.24 -0.0026584 0
M  V30 2171 C 206.399 3.19864 1.05777 0
M  V30 2172 O 206.929 3.40049 2.13845 0
M  V30 2173 N 205.135 2.73636 0.978349 0
M  V30 2174 H 204.682 2.5741 0.0988246 0
M  V30 2175 H 204.64 2.55815 1.82773 0
M  V30 2176 N 208.412 0.89855 1.29475 0
M  V30 2177 C 209.66 0.522847 1.9522 0
M  V30 2178 C 209.981 -0.93371 1.71192 0
M  V30 2179 O 209.251 -1.65823 1.04305 0
M  V30 2180 H 207.831 0.190366 0.722336 0
M  V30 2181 H 210.493 1.14459 1.5775 0
M  V30 2182 H 209.589 0.704476 3.04045 0
M  V30 2183 N 209.89 -1.43072 0.660911 0
M  V30 2184 C 211.118 -2.06067 0.185422 0
M  V30 2185 C 211.533 -1.49582 -1.15198 0
M  V30 2186 O 210.89 -0.630134 -1.71276 0
M  V30 2187 C 210.941 -3.61371 0.0966523 0
M  V30 2188 O 210.662 -4.15758 1.38119 0
M  V30 2189 C 212.163 -4.41455 -0.403996 0
M  V30 2190 H 209.383 -0.664459 0.0934604 0
M  V30 2191 H 211.927 -1.83447 0.90373 0
M  V30 2192 H 210.082 -3.8315 -0.572259 0
M  V30 2193 H 210.496 -5.09499 1.24542 0
M  V30 2194 H 211.97 -5.50437 -0.415045 0
M  V30 2195 H 212.447 -4.15036 -1.43674 0
M  V30 2196 H 213.053 -4.24663 0.232691 0
M  V30 2197 N 211.368 -0.403325 -1.52352 0
M  V30 2198 C 212.331 0.413051 -2.25447 0
M  V30 2199 C 213.331 0.978513 -1.276 0
M  V30 2200 O 214.521 0.858305 -1.51587 0
M  V30 2201 C 211.653 1.58087 -3.02029 0
M  V30 2202 H 212.846 -0.227094 -2.99039 0
M  V30 2203 H 210.399 -0.155722 -1.55522 0
M  V30 2204 H 211.134 2.25804 -2.32772 0
M  V30 2205 H 210.919 1.18195 -3.73861 0
M  V30 2206 H 212.409 2.1585 -3.57489 0
M  V30 2207 N 212.846 1.57033 -0.133567 0
M  V30 2208 C 214.094 1.953 0.519848 0
M  V30 2209 C 214.415 1.01866 1.66278 0
M  V30 2210 O 213.685 0.0776513 1.95746 0
M  V30 2211 H 212.265 0.721091 0.195032 0
M  V30 2212 H 214.927 1.93809 -0.205921 0
M  V30 2213 H 214.023 2.98695 0.904854 0
M  V30 2214 N 214.325 -0.140222 1.56975 0
M  V30 2215 C 215.574 -0.850152 1.82908 0
M  V30 2216 C 215.887 -1.82028 0.715892 0
M  V30 2217 O 217.093 -2.57485 0.861016 0
M  V30 2218 C 215.549 -1.5625 3.24213 0
M  V30 2219 C 215.157 -0.63443 4.43485 0
M  V30 2220 C 216.901 -2.25881 3.59413 0
M  V30 2221 C 214.808 -1.34879 5.75814 0
M  V30 2222 H 213.738 -0.321221 0.682153 0
M  V30 2223 H 216.389 -0.102874 1.83211 0
M  V30 2224 H 214.771 -2.35565 3.18316 0
M  V30 2225 H 215.945 0.12398 4.60633 0
M  V30 2226 H 214.26 -0.0461836 4.16374 0
M  V30 2227 H 216.857 -2.79978 4.5554 0
M  V30 2228 H 217.2 -3.02693 2.85802 0
M  V30 2229 H 217.733 -1.53477 3.67001 0
M  V30 2230 H 214.472 -0.622385 6.52539 0
M  V30 2231 H 213.992 -2.07974 5.6259 0
M  V30 2232 H 215.671 -1.88784 6.18845 0
M  V30 2233 N 215.803 -1.52179 -0.40978 0
M  V30 2234 C 217.05 -1.66206 -1.15679 0
M  V30 2235 C 217.378 -0.391674 -1.90516 0
M  V30 2236 O 216.633 0.62533 -1.8544 0
M  V30 2237 C 216.932 -2.83428 -2.17723 0
M  V30 2238 C 216.598 -4.21672 -1.59699 0
M  V30 2239 C 215.26 -4.59274 -1.43599 0
M  V30 2240 C 217.612 -5.07825 -1.17317 0
M  V30 2241 C 214.94 -5.80709 -0.836328 0
M  V30 2242 C 217.292 -6.29864 -0.587691 0
M  V30 2243 C 215.956 -6.66216 -0.413818 0
M  V30 2244 H 215.226 -0.608192 -0.423301 0
M  V30 2245 H 217.873 -1.86279 -0.444097 0
M  V30 2246 H 216.178 -2.57687 -2.95135 0
M  V30 2247 H 217.875 -2.91477 -2.75394 0
M  V30 2248 H 214.465 -3.9204 -1.73213 0
M  V30 2249 H 218.649 -4.79359 -1.28565 0
M  V30 2250 H 213.905 -6.07498 -0.689626 0
M  V30 2251 H 218.079 -6.95948 -0.250894 0
M  V30 2252 H 215.706 -7.60182 0.0529471 0
M  V30 2253 N 217.281 0.66697 -1.42791 0
M  V30 2254 C 218.244 1.76211 -1.46568 0
M  V30 2255 C 219.244 1.56896 -0.352196 0
M  V30 2256 O 220.434 1.63044 -0.613364 0
M  V30 2257 C 217.566 3.14935 -1.30494 0
M  V30 2258 H 218.759 1.74247 -2.44086 0
M  V30 2259 H 216.312 0.877342 -1.29354 0
M  V30 2260 H 217.047 3.2252 -0.339301 0
M  V30 2261 H 216.832 3.30359 -2.11199 0
M  V30 2262 H 218.322 3.94821 -1.36038 0
M  V30 2263 N 218.759 1.29093 0.90403 0
M  V30 2264 C 219.987 1.19689 1.68766 0
M  V30 2265 C 220.402 -0.243113 1.87228 0
M  V30 2266 O 219.759 -1.16326 1.40621 0
M  V30 2267 C 219.81 1.90144 3.07453 0
M  V30 2268 O 219.531 3.2852 2.89838 0
M  V30 2269 C 221.032 1.87162 4.01852 0
M  V30 2270 H 218.252 0.415035 0.527244 0
M  V30 2271 H 220.796 1.7039 1.13082 0
M  V30 2272 H 218.951 1.43289 3.59926 0
M  V30 2273 H 219.365 3.63944 3.77684 0
M  V30 2274 H 220.839 2.41032 4.96596 0
M  V30 2275 H 221.316 0.84617 4.30972 0
M  V30 2276 H 221.922 2.33741 3.5531 0
M  V30 2277 N 220.237 -1.11381 1.11499 0
M  V30 2278 C 221.467 -1.86663 0.885464 0
M  V30 2279 C 221.875 -1.80464 -0.568281 0
M  V30 2280 O 221.218 -1.18445 -1.40415 0
M  V30 2281 C 221.28 -3.36337 1.26956 0
M  V30 2282 C 220.944 -3.66304 2.73259 0
M  V30 2283 C 221.941 -3.63733 3.71476 0
M  V30 2284 C 219.626 -3.9529 3.09921 0
M  V30 2285 C 221.62 -3.89725 5.04374 0
M  V30 2286 C 219.307 -4.20941 4.43004 0
M  V30 2287 C 220.305 -4.18147 5.40039 0
M  V30 2288 O 219.993 -4.43153 6.70724 0
M  V30 2289 H 219.725 -0.597114 0.316908 0
M  V30 2290 H 222.279 -1.41782 1.48617 0
M  V30 2291 H 220.509 -3.81826 0.611999 0
M  V30 2292 H 222.198 -3.92986 1.01573 0
M  V30 2293 H 222.964 -3.41389 3.44498 0
M  V30 2294 H 218.843 -3.966 2.35009 0
M  V30 2295 H 222.387 -3.8746 5.80104 0
M  V30 2296 H 218.284 -4.42761 4.69716 0
M  V30 2297 H 219.052 -4.60717 6.76522 0
M  V30 2298 N 221.715 -0.905404 -1.28997 0
M  V30 2299 C 223.126 -0.581953 -1.77398 0
M  V30 2300 C 223.477 0.902552 -1.74208 0
M  V30 2301 O 222.602 1.70584 -1.33154 0
M  V30 2302 C 223.197 -1.04961 -3.22131 0
M  V30 2303 C 221.756 -0.777229 -3.68288 0
M  V30 2304 C 220.903 -1.22109 -2.48967 0
M  V30 2305 H 223.854 -1.08754 -1.15578 0
M  V30 2306 H 223.875 -0.387387 -3.78523 0
M  V30 2307 H 223.387 -2.13008 -3.24421 0
M  V30 2308 H 221.488 0.290383 -3.71467 0
M  V30 2309 H 221.601 -1.37911 -4.58822 0
M  V30 2310 H 219.965 -0.639971 -2.46529 0
M  V30 2311 H 220.748 -2.30972 -2.53982 0
M  V30 2312 N 223.193 1.4272 -0.668489 0
M  V30 2313 C 224.418 2.06484 -0.194758 0
M  V30 2314 C 224.843 1.49862 1.13679 0
M  V30 2315 O 224.201 0.614582 1.70565 0
M  V30 2316 C 224.249 3.60353 -0.133546 0
M  V30 2317 O 223.353 4.02464 0.899806 0
M  V30 2318 H 222.694 0.656137 -0.10188 0
M  V30 2319 H 225.224 1.82964 -0.915722 0
M  V30 2320 H 225.234 4.07976 0.0447041 0
M  V30 2321 H 223.909 4.00938 -1.1055 0
M  V30 2322 H 222.486 3.66402 0.693109 0
M  V30 2323 N 224.671 0.411399 1.52136 0
M  V30 2324 C 225.919 -0.163322 2.01439 0
M  V30 2325 C 226.24 -1.45453 1.29879 0
M  V30 2326 O 225.51 -1.91225 0.4254 0
M  V30 2327 H 224.09 -0.0633447 0.744309 0
M  V30 2328 H 226.752 0.548161 1.87033 0
M  V30 2329 H 225.848 -0.357817 3.10042 0
M  V30 2330 N 226.149 -1.5696 0.141893 0
M  V30 2331 C 227.099 -2.13074 -0.811383 0
M  V30 2332 C 228.083 -1.05726 -1.21288 0
M  V30 2333 O 229.275 -1.31914 -1.18015 0
M  V30 2334 C 226.404 -2.75186 -2.0525 0
M  V30 2335 C 225.49 -3.8965 -1.67432 0
M  V30 2336 N 225.881 -4.95733 -1.0041 0
M  V30 2337 C 224.179 -4.00262 -1.96739 0
M  V30 2338 C 224.88 -5.75858 -0.822345 0
M  V30 2339 N 223.856 -5.26452 -1.3546 0
M  V30 2340 H 227.658 -2.92465 -0.290031 0
M  V30 2341 H 225.172 -1.6229 -0.0598218 0
M  V30 2342 H 227.169 -3.13745 -2.74535 0
M  V30 2343 H 225.829 -1.97266 -2.57907 0
M  V30 2344 H 226.84 -5.13607 -0.665441 0
M  V30 2345 H 223.517 -3.33412 -2.51282 0
M  V30 2346 H 224.907 -6.71254 -0.294496 0
M  V30 2347 N 227.627 0.131896 -1.57047 0
M  V30 2348 C 228.557 1.16384 -2.02428 0
M  V30 2349 C 229.538 1.43936 -0.90644 0
M  V30 2350 O 230.723 1.54599 -1.17528 0
M  V30 2351 C 227.853 2.49328 -2.4177 0
M  V30 2352 C 226.807 2.36266 -3.56879 0
M  V30 2353 C 226.133 3.74057 -3.8208 0
M  V30 2354 C 227.433 1.834 -4.89042 0
M  V30 2355 H 229.127 0.786433 -2.88887 0
M  V30 2356 H 226.673 0.376855 -1.38981 0
M  V30 2357 H 228.626 3.21759 -2.7212 0
M  V30 2358 H 227.35 2.88934 -1.52266 0
M  V30 2359 H 226.009 1.66286 -3.26718 0
M  V30 2360 H 225.657 4.11125 -2.89803 0
M  V30 2361 H 225.357 3.66174 -4.59554 0
M  V30 2362 H 226.881 4.48012 -4.1487 0
M  V30 2363 H 228.295 2.45636 -5.18011 0
M  V30 2364 H 226.692 1.8637 -5.70426 0
M  V30 2365 H 227.762 0.790662 -4.7841 0
M  V30 2366 N 229.106 1.52395 0.401703 0
M  V30 2367 C 230.383 1.57387 1.16141 0
M  V30 2368 C 230.763 0.359359 2.08019 0
M  V30 2369 O 230.111 -0.65326 2.18963 0
M  V30 2370 C 230.321 2.90631 1.93221 0
M  V30 2371 C 231.669 3.43904 2.49028 0
M  V30 2372 O 232.693 2.92421 2.03393 0
M  V30 2373 O 231.552 4.33823 3.32356 0
M  V30 2374 H 228.646 0.634262 0.530698 0
M  V30 2375 H 231.192 1.64725 0.407883 0
M  V30 2376 H 229.964 3.70473 1.25958 0
M  V30 2377 H 229.587 2.8662 2.75563 0
M  V30 2378 N 230.584 -0.659388 1.43143 0
M  V30 2379 C 231.517 -1.78425 1.42267 0
M  V30 2380 C 232.495 -1.60085 0.284894 0
M  V30 2381 O 233.679 -1.82351 0.477527 0
M  V30 2382 C 230.806 -3.15642 1.22833 0
M  V30 2383 C 229.852 -3.52698 2.39806 0
M  V30 2384 S 230.685 -3.53372 4.02353 0
M  V30 2385 C 231.841 -4.93256 3.85291 0
M  V30 2386 H 232.074 -1.78897 2.37452 0
M  V30 2387 H 229.607 -0.831469 1.301 0
M  V30 2388 H 231.565 -3.94838 1.12308 0
M  V30 2389 H 230.226 -3.12739 0.29207 0
M  V30 2390 H 229.419 -4.52475 2.21996 0
M  V30 2391 H 229.021 -2.80899 2.46925 0
M  V30 2392 H 231.313 -5.81751 3.47235 0
M  V30 2393 H 232.256 -5.16115 4.84799 0
M  V30 2394 H 232.664 -4.665 3.17865 0
M  V30 2395 N 232.062 -1.29571 -0.897171 0
M  V30 2396 C 233.311 -1.1706 -1.64256 0
M  V30 2397 C 233.624 0.276476 -1.93636 0
M  V30 2398 O 234.83 0.52294 -2.66416 0
M  V30 2399 C 233.286 -2.0475 -2.95982 0
M  V30 2400 C 232.894 -3.54295 -2.74187 0
M  V30 2401 C 234.638 -2.0097 -3.73914 0
M  V30 2402 C 232.545 -4.34081 -4.01656 0
M  V30 2403 H 231.475 -0.43452 -0.616205 0
M  V30 2404 H 234.126 -1.54229 -0.994268 0
M  V30 2405 H 232.508 -1.60452 -3.62038 0
M  V30 2406 H 233.682 -4.06662 -2.1671 0
M  V30 2407 H 231.997 -3.59773 -2.09648 0
M  V30 2408 H 234.594 -2.57838 -4.68427 0
M  V30 2409 H 234.937 -0.990273 -4.0435 0
M  V30 2410 H 235.47 -2.43325 -3.14703 0
M  V30 2411 H 232.209 -5.36671 -3.76384 0
M  V30 2412 H 231.729 -3.86483 -4.58684 0
M  V30 2413 H 233.408 -4.44877 -4.69781 0
M  V30 2414 N 233.54 1.10788 -1.12088 0
M  V30 2415 C 234.488 2.19111 -0.780587 0
M  V30 2416 C 235.482 1.67818 0.230961 0
M  V30 2417 O 236.688 1.79777 0.0895427 0
M  V30 2418 H 233.063 0.714477 -0.234578 0
M  V30 2419 H 235.034 2.45055 -1.70266 0
M  V30 2420 C 233.783 3.46818 -0.24747 0
M  V30 2421 H 233.106 3.86646 -1.01712 0
M  V30 2422 H 234.546 4.23973 -0.0476291 0
M  V30 2423 C 233.005 3.20968 1.02378 0
M  V30 2424 O 233.535 3.42298 2.10226 0
M  V30 2425 N 231.741 2.74658 0.949271 0
M  V30 2426 H 231.288 2.57501 0.0715173 0
M  V30 2427 H 231.246 2.57739 1.80049 0
M  V30 2428 N 235.018 0.912232 1.28515 0
M  V30 2429 C 236.266 0.543523 1.94654 0
M  V30 2430 C 236.587 -0.9155 1.72173 0
M  V30 2431 O 235.857 -1.64708 1.06058 0
M  V30 2432 H 234.437 0.198017 0.720277 0
M  V30 2433 H 237.099 1.16126 1.56527 0
M  V30 2434 H 236.195 0.736684 3.03281 0
M  V30 2435 N 236.496 -1.42363 0.676048 0
M  V30 2436 C 237.743 -2.01522 0.19883 0
M  V30 2437 C 238.071 -1.53456 -1.19505 0
M  V30 2438 O 237.326 -0.727967 -1.81657 0
M  V30 2439 C 237.625 -3.56929 0.183431 0
M  V30 2440 C 237.291 -4.24431 1.52215 0
M  V30 2441 C 235.953 -4.42585 1.8887 0
M  V30 2442 C 238.305 -4.62459 2.40377 0
M  V30 2443 C 235.633 -4.96039 3.13309 0
M  V30 2444 C 237.985 -5.17294 3.64129 0
M  V30 2445 C 236.649 -5.33661 4.00951 0
M  V30 2446 H 235.919 -0.737419 0.0727571 0
M  V30 2447 H 238.566 -1.70531 0.871281 0
M  V30 2448 H 236.871 -3.87594 -0.572532 0
M  V30 2449 H 238.568 -4.00486 -0.203035 0
M  V30 2450 H 235.158 -4.10661 1.22701 0
M  V30 2451 H 239.342 -4.48105 2.13343 0
M  V30 2452 H 234.598 -5.06896 3.41857 0
M  V30 2453 H 238.772 -5.45704 4.32644 0
M  V30 2454 H 236.399 -5.74845 4.9745 0
M  V30 2455 N 237.974 -0.419461 -1.51915 0
M  V30 2456 C 239.221 0.152939 -2.01922 0
M  V30 2457 C 239.549 1.4426 -1.30458 0
M  V30 2458 O 238.804 1.91514 -0.402593 0
M  V30 2459 C 239.103 0.437067 -3.54717 0
M  V30 2460 C 238.769 -0.764632 -4.44369 0
M  V30 2461 C 237.431 -1.09423 -4.68594 0
M  V30 2462 C 239.783 -1.56713 -4.97082 0
M  V30 2463 C 237.111 -2.22732 -5.42777 0
M  V30 2464 C 239.463 -2.69107 -5.72507 0
M  V30 2465 C 238.127 -3.02541 -5.95 0
M  V30 2466 H 237.397 0.0559644 -0.738884 0
M  V30 2467 H 240.044 -0.562998 -1.83037 0
M  V30 2468 H 238.349 1.23469 -3.71837 0
M  V30 2469 H 240.046 0.893083 -3.90928 0
M  V30 2470 H 236.636 -0.497775 -4.257 0
M  V30 2471 H 240.82 -1.32571 -4.78266 0
M  V30 2472 H 236.076 -2.48971 -5.58411 0
M  V30 2473 H 240.25 -3.31671 -6.12346 0
M  V30 2474 H 237.877 -3.90457 -6.52264 0
M  V30 2475 N 239.452 1.56882 -0.150215 0
M  V30 2476 C 240.729 1.87844 0.545327 0
M  V30 2477 C 241.109 1.0567 1.82749 0
M  V30 2478 O 240.457 0.144442 2.28043 0
M  V30 2479 C 240.667 3.39526 0.80767 0
M  V30 2480 C 242.015 4.08814 1.14703 0
M  V30 2481 O 243.039 3.44723 0.896917 0
M  V30 2482 O 241.898 5.22004 1.61784 0
M  V30 2483 H 238.992 0.778677 0.278553 0
M  V30 2484 H 241.538 1.68666 -0.187068 0
M  V30 2485 H 240.31 3.91173 -0.0996096 0
M  V30 2486 H 239.933 3.64243 1.59413 0
M  V30 2487 N 240.93 -0.123565 1.57115 0
M  V30 2488 C 241.862 -1.17739 1.96648 0
M  V30 2489 C 242.875 -1.37906 0.865201 0
M  V30 2490 O 244.064 -1.37062 1.14351 0
M  V30 2491 C 241.164 -2.53821 2.24562 0
M  V30 2492 C 240.337 -2.54317 3.55867 0
M  V30 2493 C 239.396 -3.72112 3.72047 0
M  V30 2494 O 238.422 -3.55907 4.44206 0
M  V30 2495 N 239.624 -4.90498 3.10471 0
M  V30 2496 H 242.389 -0.841147 2.87654 0
M  V30 2497 H 239.95 -0.31289 1.58848 0
M  V30 2498 H 241.942 -3.31175 2.32606 0
M  V30 2499 H 240.512 -2.79645 1.39705 0
M  V30 2500 H 239.732 -1.62711 3.59053 0
M  V30 2501 H 241.02 -2.51701 4.42181 0
M  V30 2502 H 240.418 -5.06567 2.51806 0
M  V30 2503 H 238.975 -5.65544 3.24043 0
M  V30 2504 N 242.408 -1.52605 -0.393616 0
M  V30 2505 C 243.655 -1.67424 -1.1391 0
M  V30 2506 C 243.983 -0.411859 -1.90089 0
M  V30 2507 O 243.238 0.605626 -1.86093 0
M  V30 2508 C 243.537 -2.85721 -2.14705 0
M  V30 2509 C 243.203 -4.23342 -1.55218 0
M  V30 2510 C 241.865 -4.60771 -1.3872 0
M  V30 2511 C 244.217 -5.09041 -1.11924 0
M  V30 2512 C 241.545 -5.81563 -0.774689 0
M  V30 2513 C 243.897 -6.30452 -0.520853 0
M  V30 2514 C 242.561 -6.66617 -0.343134 0
M  V30 2515 H 241.831 -0.612648 -0.416826 0
M  V30 2516 H 244.478 -1.8674 -0.424315 0
M  V30 2517 H 242.783 -2.60803 -2.92385 0
M  V30 2518 H 244.48 -2.94382 -2.72288 0
M  V30 2519 H 241.07 -3.93855 -1.69045 0
M  V30 2520 H 245.254 -4.80695 -1.23473 0
M  V30 2521 H 240.51 -6.08196 -0.625154 0
M  V30 2522 H 244.684 -6.96175 -0.177065 0
M  V30 2523 H 242.311 -7.60083 0.133571 0
M  V30 2524 N 243.887 0.651787 -1.4349 0
M  V30 2525 C 245.136 1.40754 -1.44469 0
M  V30 2526 C 245.449 1.95463 -0.0731845 0
M  V30 2527 O 246.655 2.71471 0.0395721 0
M  V30 2528 C 245.111 2.54735 -2.5424 0
M  V30 2529 C 244.719 2.06628 -3.97504 0
M  V30 2530 C 246.463 3.32092 -2.64414 0
M  V30 2531 C 244.37 3.17829 -4.98737 0
M  V30 2532 H 243.3 0.528862 -0.53742 0
M  V30 2533 H 245.951 0.703365 -1.69485 0
M  V30 2534 H 244.333 3.2763 -2.22428 0
M  V30 2535 H 245.507 1.40734 -4.38783 0
M  V30 2536 H 243.822 1.42146 -3.91387 0
M  V30 2537 H 246.419 4.14952 -3.37223 0
M  V30 2538 H 246.762 3.80217 -1.69532 0
M  V30 2539 H 247.295 2.66279 -2.95534 0
M  V30 2540 H 244.034 2.74671 -5.95177 0
M  V30 2541 H 243.554 3.82429 -4.62069 0
M  V30 2542 H 245.233 3.82937 -5.21505 0
M  V30 2543 N 245.365 1.30045 0.890287 0
M  V30 2544 C 246.613 1.18327 1.63839 0
M  V30 2545 C 246.934 -0.263455 1.93212 0
M  V30 2546 O 246.204 -1.17856 1.56482 0
M  V30 2547 H 244.784 0.434933 0.607324 0
M  V30 2548 H 247.446 1.631 1.06698 0
M  V30 2549 H 246.542 1.74024 2.59079 0
M  V30 2550 N 246.843 -1.10192 1.12674 0
M  V30 2551 C 248.071 -1.85983 0.906527 0
M  V30 2552 C 248.486 -1.80783 -0.544333 0
M  V30 2553 O 247.843 -1.19834 -1.37645 0
M  V30 2554 C 247.894 -3.34281 1.37618 0
M  V30 2555 O 247.615 -3.39401 2.77017 0
M  V30 2556 C 249.116 -4.26938 1.19325 0
M  V30 2557 H 246.336 -0.587716 0.323775 0
M  V30 2558 H 248.88 -1.39284 1.49734 0
M  V30 2559 H 247.035 -3.78436 0.828539 0
M  V30 2560 H 247.449 -4.31838 2.97684 0
M  V30 2561 H 248.923 -5.29181 1.57071 0
M  V30 2562 H 249.4 -4.38995 0.134097 0
M  V30 2563 H 250.006 -3.8859 1.72852 0
M  V30 2564 N 248.321 -0.919034 -1.28029 0
M  V30 2565 C 249.284 -0.416182 -2.2539 0
M  V30 2566 C 250.284 0.460438 -1.54067 0
M  V30 2567 O 251.474 0.262744 -1.72207 0
M  V30 2568 C 248.606 0.402707 -3.38513 0
M  V30 2569 H 249.799 -1.27629 -2.71387 0
M  V30 2570 H 247.352 -0.698919 -1.39803 0
M  V30 2571 H 248.087 1.282 -2.97885 0
M  V30 2572 H 247.872 -0.225698 -3.9145 0
M  V30 2573 H 249.362 0.745191 -4.10897 0
M  V30 2574 N 249.799 1.42003 -0.683588 0
M  V30 2575 C 251.024 2.06265 -0.216647 0
M  V30 2576 C 251.449 1.51059 1.12083 0
M  V30 2577 O 250.807 0.632638 1.69904 0
M  V30 2578 C 250.855 3.60191 -0.171759 0
M  V30 2579 O 249.959 4.03396 0.857069 0
M  V30 2580 H 249.3 0.65502 -0.108834 0
M  V30 2581 H 251.83 1.81982 -0.935077 0
M  V30 2582 H 251.84 4.08 0.0014303 0
M  V30 2583 H 250.515 3.99743 -1.14796 0
M  V30 2584 H 249.092 3.67117 0.654208 0
M  V30 2585 N 251.277 0.427512 1.51691 0
M  V30 2586 C 252.207 -0.3796 2.30394 0
M  V30 2587 C 253.188 -1.02982 1.35384 0
M  V30 2588 O 254.373 -1.03534 1.643 0
M  V30 2589 C 251.503 -1.48649 3.1388 0
M  V30 2590 C 250.457 -0.960294 4.17088 0
M  V30 2591 C 249.783 -2.16219 4.89033 0
M  V30 2592 C 251.083 -0.00153679 5.223 0
M  V30 2593 H 252.777 0.277164 2.98114 0
M  V30 2594 H 250.323 0.134739 1.43368 0
M  V30 2595 H 252.276 -2.05826 3.67714 0
M  V30 2596 H 251 -2.1714 2.43962 0
M  V30 2597 H 249.659 -0.410806 3.64291 0
M  V30 2598 H 249.307 -2.83307 4.15628 0
M  V30 2599 H 249.007 -1.81654 5.58816 0
M  V30 2600 H 250.531 -2.73968 5.45687 0
M  V30 2601 H 251.945 -0.482687 5.71264 0
M  V30 2602 H 250.342 0.256199 5.99553 0
M  V30 2603 H 251.412 0.938174 4.75738 0
M  V30 2604 N 252.755 -1.56801 0.158532 0
M  V30 2605 C 254.004 -1.95665 -0.489702 0
M  V30 2606 C 254.317 -1.04654 -1.65248 0
M  V30 2607 O 255.523 -1.33146 -2.3661 0
M  V30 2608 C 253.979 -3.47874 -0.922582 0
M  V30 2609 C 253.587 -4.47489 0.213893 0
M  V30 2610 C 255.331 -3.95583 -1.53996 0
M  V30 2611 C 253.238 -5.90921 -0.237903 0
M  V30 2612 H 252.168 -0.730516 -0.186716 0
M  V30 2613 H 254.819 -1.81861 0.244722 0
M  V30 2614 H 253.201 -3.57051 -1.71261 0
M  V30 2615 H 254.375 -4.50017 0.991036 0
M  V30 2616 H 252.69 -4.09764 0.740407 0
M  V30 2617 H 255.287 -5.0019 -1.8898 0
M  V30 2618 H 255.63 -3.37789 -2.43319 0
M  V30 2619 H 256.163 -3.8937 -0.814611 0
M  V30 2620 H 252.902 -6.52559 0.620236 0
M  V30 2621 H 252.422 -5.91729 -0.980676 0
M  V30 2622 H 254.101 -6.43352 -0.686067 0
M  V30 2623 N 254.233 0.115231 -1.57178 0
M  V30 2624 C 255.479 0.82357 -1.85325 0
M  V30 2625 C 255.812 1.79349 -0.744814 0
M  V30 2626 O 255.087 1.92899 0.249024 0
M  V30 2627 C 255.37 1.57014 -3.24066 0
M  V30 2628 C 255.223 0.619565 -4.45513 0
M  V30 2629 C 256.542 2.52545 -3.60429 0
M  V30 2630 H 253.661 0.297948 -0.674089 0
M  V30 2631 H 256.303 0.0877138 -1.89797 0
M  V30 2632 H 254.453 2.19742 -3.20383 0
M  V30 2633 H 256.125 0.000837639 -4.613 0
M  V30 2634 H 254.368 -0.0686174 -4.33746 0
M  V30 2635 H 255.039 1.17866 -5.3927 0
M  V30 2636 H 257.515 1.9992 -3.64926 0
M  V30 2637 H 256.391 3.01811 -4.58477 0
M  V30 2638 H 256.652 3.35383 -2.88047 0
M  V30 2639 N 255.711 1.52812 0.385517 0
M  V30 2640 C 256.951 1.69716 1.13911 0
M  V30 2641 C 257.315 0.42962 1.87132 0
M  V30 2642 O 258.516 0.475071 2.64569 0
M  V30 2643 C 256.787 2.90021 2.0886 0
M  V30 2644 S 258.346 3.27531 2.92009 0
M  V30 2645 H 255.164 0.59739 0.385547 0
M  V30 2646 H 257.766 1.90868 0.423061 0
M  V30 2647 H 256.47 3.80493 1.53797 0
M  V30 2648 H 256.001 2.71213 2.84969 0
M  V30 2649 H 258.016 2.77989 4.11019 0
M  V30 2650 N 257.189 -0.644168 1.43834 0
M  V30 2651 C 258.435 -1.40603 1.46146 0
M  V30 2652 C 258.768 -1.93997 0.0887717 0
M  V30 2653 O 258.043 -1.72854 -0.891724 0
M  V30 2654 C 258.326 -2.58086 2.51124 0
M  V30 2655 C 258.179 -2.10126 3.97702 0
M  V30 2656 C 259.498 -3.60291 2.52742 0
M  V30 2657 H 256.617 -0.509905 0.532134 0
M  V30 2658 H 259.259 -0.729502 1.75437 0
M  V30 2659 H 257.409 -3.15801 2.26278 0
M  V30 2660 H 259.081 -1.57342 4.33637 0
M  V30 2661 H 257.324 -1.41419 4.10101 0
M  V30 2662 H 257.995 -2.94649 4.66783 0
M  V30 2663 H 260.471 -3.12352 2.7491 0
M  V30 2664 H 259.347 -4.40032 3.28121 0
M  V30 2665 H 259.608 -4.1349 1.56455 0
M  V30 2666 N 258.668 -1.30515 -0.883378 0
M  V30 2667 C 259.598 -1.19607 -2.00541 0
M  V30 2668 C 260.579 -0.086346 -1.69881 0
M  V30 2669 O 261.764 -0.268654 -1.92333 0
M  V30 2670 C 258.894 -0.888758 -3.35736 0
M  V30 2671 C 257.848 -1.95659 -3.8066 0
M  V30 2672 C 257.174 -1.50224 -5.13164 0
M  V30 2673 C 258.474 -3.36788 -3.99213 0
M  V30 2674 H 260.168 -2.13476 -2.09925 0
M  V30 2675 H 257.714 -1.02775 -1.00863 0
M  V30 2676 H 259.667 -0.799094 -4.13754 0
M  V30 2677 H 258.391 0.0856125 -3.26488 0
M  V30 2678 H 257.05 -2.03591 -3.04871 0
M  V30 2679 H 256.698 -0.516092 -5.00345 0
M  V30 2680 H 256.398 -2.2165 -5.44192 0
M  V30 2681 H 257.922 -1.42639 -5.93706 0
M  V30 2682 H 259.336 -3.31605 -4.67665 0
M  V30 2683 H 257.733 -4.06314 -4.41621 0
M  V30 2684 H 258.803 -3.78561 -3.03017 0
M  V30 2685 N 260.146 1.09593 -1.13257 0
M  V30 2686 C 261.109 2.14359 -0.811358 0
M  V30 2687 C 262.109 1.59808 0.178377 0
M  V30 2688 O 263.299 1.74132 -0.0484911 0
M  V30 2689 C 260.431 3.40269 -0.207276 0
M  V30 2690 H 261.624 2.44284 -1.73969 0
M  V30 2691 H 259.177 1.25102 -0.936973 0
M  V30 2692 H 259.912 3.15969 0.73036 0
M  V30 2693 H 259.697 3.81154 -0.919992 0
M  V30 2694 H 261.187 4.176 0.000667944 0
M  V30 2695 N 261.624 0.925811 1.2754 0
M  V30 2696 C 262.873 0.561084 1.93739 0
M  V30 2697 C 263.186 -0.901685 1.73577 0
M  V30 2698 O 264.392 -1.37511 2.34101 0
M  V30 2699 C 262.848 0.952668 3.47062 0
M  V30 2700 C 262.456 2.43599 3.75983 0
M  V30 2701 C 264.2 0.659103 4.19352 0
M  V30 2702 C 262.107 2.76707 5.22673 0
M  V30 2703 H 261.037 0.206122 0.725279 0
M  V30 2704 H 263.688 1.12637 1.44863 0
M  V30 2705 H 262.07 0.316053 3.94737 0
M  V30 2706 H 263.244 3.12035 3.39073 0
M  V30 2707 H 261.559 2.70125 3.16893 0
M  V30 2708 H 264.156 0.882985 5.27359 0
M  V30 2709 H 264.499 -0.403607 4.14339 0
M  V30 2710 H 265.032 1.25473 3.77494 0
M  V30 2711 H 261.771 3.8188 5.32774 0
M  V30 2712 H 261.291 2.12919 5.60737 0
M  V30 2713 H 262.97 2.6435 5.90532 0
M  V30 2714 N 263.102 -1.41638 0.69111 0
M  V30 2715 C 264.348 -2.01598 0.220519 0
M  V30 2716 C 264.681 -1.54594 -1.17535 0
M  V30 2717 O 263.956 -0.755177 -1.79241 0
M  V30 2718 C 264.239 -3.59062 0.273243 0
M  V30 2719 C 264.092 -4.16203 1.70573 0
M  V30 2720 C 265.411 -4.38546 -0.369457 0
M  V30 2721 H 262.53 -0.732468 0.0816045 0
M  V30 2722 H 265.172 -1.68445 0.878986 0
M  V30 2723 H 263.322 -3.87435 -0.287411 0
M  V30 2724 H 264.994 -3.98722 2.31989 0
M  V30 2725 H 263.237 -3.71414 2.2413 0
M  V30 2726 H 263.908 -5.25358 1.69419 0
M  V30 2727 H 266.384 -4.1596 0.107977 0
M  V30 2728 H 265.26 -5.48069 -0.302002 0
M  V30 2729 H 265.521 -4.17662 -1.44951 0
M  V30 2730 N 264.58 -0.43555 -1.51462 0
M  V30 2731 C 265.857 0.191364 -1.94662 0
M  V30 2732 C 266.237 1.60254 -1.37411 0
M  V30 2733 O 265.585 2.2152 -0.560458 0
M  V30 2734 C 265.795 0.17091 -3.48581 0
M  V30 2735 C 267.143 0.377357 -4.2292 0
M  V30 2736 O 268.167 0.249104 -3.55328 0
M  V30 2737 O 267.026 0.63247 -5.42828 0
M  V30 2738 H 264.12 0.130932 -0.816569 0
M  V30 2739 H 266.666 -0.4934 -1.62369 0
M  V30 2740 H 265.438 -0.815738 -3.82703 0
M  V30 2741 H 265.061 0.898659 -3.87311 0
M  V30 2742 N 266.058 1.56714 -0.166846 0
M  V30 2743 C 267.469 1.83378 0.350646 0
M  V30 2744 C 267.82 1.08646 1.63372 0
M  V30 2745 O 266.945 0.338058 2.13743 0
M  V30 2746 C 267.54 3.32643 0.642963 0
M  V30 2747 C 266.099 3.59818 1.10491 0
M  V30 2748 C 265.246 2.76954 0.138411 0
M  V30 2749 H 268.197 1.53803 -0.391193 0
M  V30 2750 H 268.218 3.49878 1.49551 0
M  V30 2751 H 267.73 3.87007 -0.291055 0
M  V30 2752 H 265.831 3.1086 2.05418 0
M  V30 2753 H 265.944 4.68178 1.01716 0
M  V30 2754 H 264.308 2.4666 0.634911 0
M  V30 2755 H 265.091 3.34097 -0.789549 0
M  V30 2756 N 267.536 -0.106894 1.57237 0
M  V30 2757 C 268.766 -0.825191 1.89405 0
M  V30 2758 C 269.174 -1.73374 0.757496 0
M  V30 2759 O 268.517 -1.81552 -0.280115 0
M  V30 2760 C 268.579 -1.70102 3.1671 0
M  V30 2761 C 268.243 -0.965523 4.46684 0
M  V30 2762 C 269.24 -0.300741 5.19029 0
M  V30 2763 C 266.925 -0.943105 4.93367 0
M  V30 2764 C 268.919 0.376622 6.36286 0
M  V30 2765 C 266.606 -0.261949 6.10538 0
M  V30 2766 C 267.604 0.396748 6.81847 0
M  V30 2767 O 267.292 1.06701 7.96787 0
M  V30 2768 H 267.024 -0.241852 0.631255 0
M  V30 2769 H 269.578 -0.0921491 2.05193 0
M  V30 2770 H 267.808 -2.47601 2.97036 0
M  V30 2771 H 269.497 -2.29483 3.34802 0
M  V30 2772 H 270.263 -0.309599 4.84011 0
M  V30 2773 H 266.142 -1.44524 4.3776 0
M  V30 2774 H 269.686 0.891334 6.91882 0
M  V30 2775 H 265.583 -0.250896 6.45012 0
M  V30 2776 H 266.351 0.972707 8.127 0
M  V30 2777 N 269.014 -1.53014 -0.377408 0
M  V30 2778 C 269.962 -1.7927 -1.48206 0
M  V30 2779 C 270.956 -0.661195 -1.55963 0
M  V30 2780 O 272.162 -0.843908 -1.58991 0
M  V30 2781 H 268.537 -0.567425 -0.493491 0
M  V30 2782 H 270.508 -2.71753 -1.2326 0
M  V30 2783 C 269.257 -1.98894 -2.85196 0
M  V30 2784 H 268.58 -2.85395 -2.79981 0
M  V30 2785 H 270.02 -2.21249 -3.61698 0
M  V30 2786 C 268.479 -0.764691 -3.28107 0
M  V30 2787 O 269.009 0.0523226 -4.01666 0
M  V30 2788 N 267.215 -0.591493 -2.84517 0
M  V30 2789 H 266.762 -1.25749 -2.24822 0
M  V30 2790 H 266.72 0.226253 -3.13585 0
M  V30 2791 N 270.492 0.636531 -1.44174 0
M  V30 2792 C 271.44 1.76995 -1.50915 0
M  V30 2793 C 272.434 1.65053 -0.381295 0
M  V30 2794 O 273.64 1.71197 -0.55601 0
M  V30 2795 H 270.015 0.584247 -0.473455 0
M  V30 2796 H 271.986 1.68432 -2.4632 0
M  V30 2797 C 270.735 3.15314 -1.46534 0
M  V30 2798 H 270.058 3.25149 -2.32633 0
M  V30 2799 H 271.498 3.9453 -1.55312 0
M  V30 2800 C 269.957 3.3639 -0.185305 0
M  V30 2801 O 270.487 3.94699 0.746688 0
M  V30 2802 N 268.693 2.9046 -0.0901606 0
M  V30 2803 H 268.24 2.43193 -0.849416 0
M  V30 2804 H 268.198 3.04937 0.765553 0
M  V30 2805 N 271.97 1.30982 0.876444 0
M  V30 2806 C 273.381 1.18277 1.44456 0
M  V30 2807 C 273.732 -0.213265 1.95037 0
M  V30 2808 O 272.857 -1.11057 1.85729 0
M  V30 2809 C 273.452 2.1411 2.62569 0
M  V30 2810 C 272.011 2.05358 3.15444 0
M  V30 2811 C 271.158 2.03706 1.88146 0
M  V30 2812 H 274.109 1.43127 0.685584 0
M  V30 2813 H 274.13 1.72692 3.39054 0
M  V30 2814 H 273.642 3.15706 2.25724 0
M  V30 2815 H 271.743 1.06934 3.56926 0
M  V30 2816 H 271.856 2.94156 3.78166 0
M  V30 2817 H 270.22 1.48629 2.06837 0
M  V30 2818 H 271.003 3.07047 1.53547 0
M  V30 2819 N 273.449 -1.08991 1.13837 0
M  V30 2820 C 274.695 -1.81526 0.90422 0
M  V30 2821 C 275.028 -1.85706 -0.568066 0
M  V30 2822 O 274.303 -1.32855 -1.42056 0
M  V30 2823 C 274.586 -3.27447 1.49835 0
M  V30 2824 C 274.439 -3.31512 3.04006 0
M  V30 2825 C 275.758 -4.24256 1.17025 0
M  V30 2826 H 272.877 -0.659029 0.329923 0
M  V30 2827 H 275.519 -1.27644 1.40737 0
M  V30 2828 H 273.669 -3.73462 1.07044 0
M  V30 2829 H 275.341 -2.93867 3.55584 0
M  V30 2830 H 273.584 -2.70963 3.38765 0
M  V30 2831 H 274.255 -4.34329 3.40679 0
M  V30 2832 H 276.731 -3.86549 1.54009 0
M  V30 2833 H 275.607 -5.24684 1.61237 0
M  V30 2834 H 275.868 -4.42019 0.0846274 0
M  V30 2835 N 274.927 -0.932562 -1.27047 0
M  V30 2836 C 276.338 -0.619451 -1.76124 0
M  V30 2837 C 276.689 0.865397 -1.76083 0
M  V30 2838 O 275.814 1.67722 -1.36742 0
M  V30 2839 C 276.409 -1.11771 -3.19832 0
M  V30 2840 C 274.968 -0.855174 -3.66557 0
M  V30 2841 C 274.115 -1.27362 -2.46321 0
M  V30 2842 H 277.066 -1.11181 -1.13245 0
M  V30 2843 H 277.087 -0.46759 -3.77616 0
M  V30 2844 H 276.599 -2.19842 -3.1983 0
M  V30 2845 H 274.7 0.211524 -3.71999 0
M  V30 2846 H 274.813 -1.47613 -4.55793 0
M  V30 2847 H 273.177 -0.692119 -2.45116 0
M  V30 2848 H 273.96 -2.36307 -2.49025 0
M  V30 2849 N 276.405 1.4127 -0.698611 0
M  V30 2850 C 277.821 1.55241 -0.370462 0
M  V30 2851 C 278.021 1.67351 1.12231 0
M  V30 2852 O 277.077 1.65363 1.90818 0
M  V30 2853 C 278.39 2.78997 -1.12165 0
M  V30 2854 C 279.938 2.92797 -1.1063 0
M  V30 2855 C 280.413 4.19445 -1.8393 0
M  V30 2856 N 281.904 4.26409 -1.80914 0
M  V30 2857 C 282.639 5.23271 -2.34467 0
M  V30 2858 N 282.135 6.26145 -2.96504 0
M  V30 2859 N 283.928 5.15232 -2.24706 0
M  V30 2860 H 276.079 1.31654 -1.66676 0
M  V30 2861 H 278.342 0.635393 -0.703548 0
M  V30 2862 H 278.048 2.76268 -2.17644 0
M  V30 2863 H 277.922 3.70606 -0.702209 0
M  V30 2864 H 280.309 2.95039 -0.0597713 0
M  V30 2865 H 280.39 2.02353 -1.56483 0
M  V30 2866 H 280.034 4.17964 -2.88563 0
M  V30 2867 H 279.964 5.08866 -1.35509 0
M  V30 2868 H 282.455 3.527 -1.35687 0
M  V30 2869 H 282.768 6.96451 -3.34927 0
M  V30 2870 H 281.113 6.26638 -3.00583 0
M  V30 2871 H 284.304 4.33789 -1.7591 0
M  V30 2872 H 284.477 5.90552 -2.66745 0
M  V30 2873 N 277.883 0.443576 1.51229 0
M  V30 2874 C 279.131 -0.120557 2.0174 0
M  V30 2875 C 279.452 -1.42665 1.32935 0
M  V30 2876 O 278.722 -1.9028 0.465866 0
M  V30 2877 H 277.302 -0.0475426 0.745486 0
M  V30 2878 H 279.964 0.587711 1.85828 0
M  V30 2879 H 279.06 -0.291972 3.10731 0
M  V30 2880 N 279.361 -1.56624 0.175154 0
M  V30 2881 C 280.291 -2.21155 -0.749195 0
M  V30 2882 C 281.272 -1.16836 -1.23626 0
M  V30 2883 O 282.457 -1.45277 -1.28873 0
M  V30 2884 C 279.587 -2.8553 -1.97711 0
M  V30 2885 C 278.541 -3.95921 -1.62575 0
M  V30 2886 C 277.867 -4.47365 -2.92864 0
M  V30 2887 C 279.167 -5.15323 -0.850838 0
M  V30 2888 H 280.861 -2.98653 -0.211295 0
M  V30 2889 H 278.407 -1.43651 -0.100188 0
M  V30 2890 H 280.36 -3.2935 -2.62881 0
M  V30 2891 H 279.084 -2.05406 -2.53921 0
M  V30 2892 H 277.743 -3.52762 -0.997719 0
M  V30 2893 H 277.391 -3.64027 -3.47122 0
M  V30 2894 H 277.091 -5.21839 -2.70106 0
M  V30 2895 H 278.615 -4.93873 -3.59056 0
M  V30 2896 H 280.029 -5.55812 -1.40521 0
M  V30 2897 H 278.426 -5.95739 -0.722154 0
M  V30 2898 H 279.496 -4.84661 0.152082 0
M  V30 2899 N 280.839 0.0985539 -1.57292 0
M  V30 2900 C 281.749 1.13824 -2.05137 0
M  V30 2901 C 282.765 1.44076 -0.975604 0
M  V30 2902 O 283.941 1.54786 -1.28853 0
M  V30 2903 C 281.006 2.43969 -2.46333 0
M  V30 2904 C 280.067 2.2093 -3.68087 0
M  V30 2905 C 279.3 3.44869 -4.0731 0
M  V30 2906 O 279.523 4.52972 -3.46659 0
M  V30 2907 O 278.457 3.34661 -5.00285 0
M  V30 2908 H 282.283 0.761881 -2.93988 0
M  V30 2909 H 279.868 0.310818 -1.46131 0
M  V30 2910 H 281.75 3.20609 -2.73473 0
M  V30 2911 H 280.425 2.81038 -1.60621 0
M  V30 2912 H 279.332 1.42081 -3.46069 0
M  V30 2913 H 280.665 1.88755 -4.54568 0
M  V30 2914 N 282.317 1.53212 0.369288 0
M  V30 2915 C 283.28 1.7872 1.43498 0
M  V30 2916 C 284.28 0.657554 1.46741 0
M  V30 2917 O 285.47 0.925736 1.47566 0
M  V30 2918 C 282.602 1.90591 2.82645 0
M  V30 2919 H 283.795 2.73894 1.22156 0
M  V30 2920 H 281.348 1.44233 0.602203 0
M  V30 2921 H 282.083 0.974709 3.09306 0
M  V30 2922 H 281.868 2.72751 2.8169 0
M  V30 2923 H 283.358 2.11931 3.59826 0
M  V30 2924 N 283.795 -0.628877 1.44509 0
M  V30 2925 C 285.042 -1.38839 1.47411 0
M  V30 2926 C 285.37 -1.94202 0.10757 0
M  V30 2927 O 284.625 -1.74243 -0.890947 0
M  V30 2928 C 284.924 -2.56995 2.48371 0
M  V30 2929 C 284.59 -2.19908 3.93639 0
M  V30 2930 C 283.252 -2.09506 4.33198 0
M  V30 2931 C 285.604 -1.9064 4.85083 0
M  V30 2932 C 282.932 -1.68028 5.62124 0
M  V30 2933 C 285.284 -1.50655 6.14399 0
M  V30 2934 C 283.948 -1.38796 6.5291 0
M  V30 2935 H 283.218 -0.508048 0.539414 0
M  V30 2936 H 285.865 -0.712913 1.77735 0
M  V30 2937 H 284.17 -3.29786 2.11538 0
M  V30 2938 H 285.867 -3.15223 2.47861 0
M  V30 2939 H 282.457 -2.28922 3.62343 0
M  V30 2940 H 286.641 -1.97585 4.55273 0
M  V30 2941 H 281.897 -1.57452 5.90778 0
M  V30 2942 H 286.071 -1.27048 6.84713 0
M  V30 2943 H 283.698 -1.06429 7.52713 0
M  V30 2944 N 285.273 -1.31445 -0.869486 0
M  V30 2945 C 286.501 -1.24122 -1.65534 0
M  V30 2946 C 286.916 0.193387 -1.87807 0
M  V30 2947 O 286.273 1.12557 -1.43656 0
M  V30 2948 C 286.324 -1.98229 -3.02304 0
M  V30 2949 O 286.045 -3.3609 -2.81026 0
M  V30 2950 C 287.546 -1.97751 -3.96749 0
M  V30 2951 H 284.766 -0.428868 -0.516055 0
M  V30 2952 H 287.31 -1.73328 -1.08525 0
M  V30 2953 H 285.465 -1.52782 -3.56001 0
M  V30 2954 H 285.879 -3.7383 -3.67902 0
M  V30 2955 H 287.353 -2.54114 -4.90031 0
M  V30 2956 H 287.83 -0.960137 -4.28577 0
M  V30 2957 H 288.436 -2.43079 -3.48988 0
M  V30 2958 N 286.751 1.08385 -1.14413 0
M  V30 2959 C 287.997 1.81044 -0.913834 0
M  V30 2960 C 288.33 1.86004 0.558209 0
M  V30 2961 O 287.605 1.33606 1.4135 0
M  V30 2962 C 287.888 3.26648 -1.51569 0
M  V30 2963 C 287.741 3.29895 -3.0576 0
M  V30 2964 C 289.06 4.23629 -1.19273 0
M  V30 2965 H 286.179 0.65727 -0.333414 0
M  V30 2966 H 288.821 1.26896 -1.41412 0
M  V30 2967 H 286.971 3.72889 -1.09023 0
M  V30 2968 H 288.643 2.91977 -3.57137 0
M  V30 2969 H 286.886 2.69163 -3.40197 0
M  V30 2970 H 287.557 4.32516 -3.42977 0
M  V30 2971 H 290.033 3.85727 -1.56057 0
M  V30 2972 H 288.909 5.23822 -1.64017 0
M  V30 2973 H 289.17 4.41968 -0.108068 0
M  V30 2974 N 288.23 0.939286 1.26551 0
M  V30 2975 C 289.478 0.58469 1.93457 0
M  V30 2976 C 289.799 -0.878774 1.74076 0
M  V30 2977 O 289.069 -1.62421 1.09528 0
M  V30 2978 H 287.649 0.21325 0.715914 0
M  V30 2979 H 290.311 1.1942 1.54029 0
M  V30 2980 H 289.407 0.800849 3.0165 0
M  V30 2981 N 289.708 -1.40897 0.706093 0
M  V30 2982 C 290.638 -2.33418 0.0620085 0
M  V30 2983 C 291.619 -1.52385 -0.755827 0
M  V30 2984 O 292.804 -1.80886 -0.706674 0
M  V30 2985 C 289.934 -3.36293 -0.867445 0
M  V30 2986 C 288.888 -4.27716 -0.155932 0
M  V30 2987 C 288.214 -5.2105 -1.20046 0
M  V30 2988 C 289.514 -5.12944 0.984149 0
M  V30 2989 H 291.208 -2.87527 0.83477 0
M  V30 2990 H 288.754 -1.38249 0.402875 0
M  V30 2991 H 290.707 -3.99949 -1.32735 0
M  V30 2992 H 289.431 -2.80556 -1.67199 0
M  V30 2993 H 288.09 -3.65498 0.284047 0
M  V30 2994 H 287.738 -4.61624 -1.99781 0
M  V30 2995 H 287.438 -5.83056 -0.729328 0
M  V30 2996 H 288.962 -5.87584 -1.66066 0
M  V30 2997 H 290.376 -5.70109 0.604048 0
M  V30 2998 H 288.773 -5.83945 1.38304 0
M  V30 2999 H 289.843 -4.49485 1.81911 0
M  V30 3000 N 291.186 -0.45159 -1.50991 0
M  V30 3001 C 292.432 0.110237 -2.025 0
M  V30 3002 C 292.765 1.41109 -1.33424 0
M  V30 3003 O 292.04 1.89135 -0.453659 0
M  V30 3004 C 292.323 0.314271 -3.58726 0
M  V30 3005 C 292.176 -1.00623 -4.38401 0
M  V30 3006 C 293.495 1.07767 -4.26702 0
M  V30 3007 H 290.614 0.0385897 -0.735989 0
M  V30 3008 H 293.256 -0.593374 -1.80497 0
M  V30 3009 H 291.406 0.913601 -3.77605 0
M  V30 3010 H 293.078 -1.64064 -4.31139 0
M  V30 3011 H 291.321 -1.6075 -4.02917 0
M  V30 3012 H 291.992 -0.817341 -5.45915 0
M  V30 3013 H 294.468 0.56986 -4.12179 0
M  V30 3014 H 293.344 1.18921 -5.35863 0
M  V30 3015 H 293.605 2.10939 -3.88532 0
M  V30 3016 N 292.664 1.56529 -0.183458 0
M  V30 3017 C 293.91 1.97537 0.459036 0
M  V30 3018 C 294.243 1.06989 1.62071 0
M  V30 3019 O 293.518 0.11948 1.94133 0
M  V30 3020 C 293.801 3.47874 0.930368 0
M  V30 3021 C 293.654 4.492 -0.232317 0
M  V30 3022 C 294.973 4.01612 1.79989 0
M  V30 3023 H 292.092 0.718204 0.165383 0
M  V30 3024 H 294.734 1.88042 -0.272038 0
M  V30 3025 H 292.884 3.56095 1.55333 0
M  V30 3026 H 294.556 4.53027 -0.86972 0
M  V30 3027 H 292.799 4.24657 -0.885928 0
M  V30 3028 H 293.47 5.51823 0.139796 0
M  V30 3029 H 295.946 3.96097 1.27461 0
M  V30 3030 H 294.822 5.07195 2.09867 0
M  V30 3031 H 295.083 3.46163 2.74998 0
M  V30 3032 N 294.142 -0.090211 1.57342 0
M  V30 3033 C 295.072 -1.10976 2.05443 0
M  V30 3034 C 296.053 -1.41482 0.944284 0
M  V30 3035 O 297.238 -1.51428 1.21586 0
M  V30 3036 C 294.368 -2.42831 2.48295 0
M  V30 3037 C 293.322 -2.26721 3.63018 0
M  V30 3038 C 292.648 -3.63796 3.91863 0
M  V30 3039 C 293.948 -1.7037 4.93732 0
M  V30 3040 H 295.642 -0.709564 2.9087 0
M  V30 3041 H 293.188 -0.339874 1.39932 0
M  V30 3042 H 295.141 -3.14431 2.80555 0
M  V30 3043 H 293.865 -2.84795 1.59873 0
M  V30 3044 H 292.524 -1.57565 3.31012 0
M  V30 3045 H 292.172 -4.03297 3.00601 0
M  V30 3046 H 291.872 -3.53861 4.69101 0
M  V30 3047 H 293.396 -4.36855 4.26603 0
M  V30 3048 H 294.81 -2.31816 5.24342 0
M  V30 3049 H 293.207 -1.71181 5.75167 0
M  V30 3050 H 294.277 -0.663542 4.80339 0
M  V30 3051 N 295.62 -1.53406 -0.361157 0
M  V30 3052 C 296.866 -1.70054 -1.10496 0
M  V30 3053 C 297.199 -0.453278 -1.88836 0
M  V30 3054 O 296.474 0.5495 -1.86576 0
M  V30 3055 C 296.757 -2.95317 -2.06058 0
M  V30 3056 C 296.61 -4.3021 -1.31298 0
M  V30 3057 C 297.929 -3.16193 -3.06121 0
M  V30 3058 H 295.048 -0.618799 -0.400321 0
M  V30 3059 H 297.69 -1.86052 -0.385318 0
M  V30 3060 H 295.84 -2.81809 -2.67425 0
M  V30 3061 H 297.512 -4.55538 -0.726807 0
M  V30 3062 H 295.755 -4.29421 -0.614853 0
M  V30 3063 H 296.426 -5.14 -2.01265 0
M  V30 3064 H 298.902 -3.28916 -2.5486 0
M  V30 3065 H 297.778 -4.05266 -3.70204 0
M  V30 3066 H 298.039 -2.31676 -3.76535 0
M  V30 3067 N 297.098 0.621204 -1.44841 0
M  V30 3068 C 298.347 1.37658 -1.47422 0
M  V30 3069 C 298.66 1.95264 -0.114629 0
M  V30 3070 O 299.866 2.71494 -0.0180199 0
M  V30 3071 C 298.322 2.49285 -2.59586 0
M  V30 3072 C 297.93 1.98149 -4.01797 0
M  V30 3073 C 299.674 3.26409 -2.71399 0
M  V30 3074 C 297.581 3.07178 -5.05367 0
M  V30 3075 H 296.511 0.517344 -0.548517 0
M  V30 3076 H 299.162 0.667257 -1.70938 0
M  V30 3077 H 297.544 3.22839 -2.29328 0
M  V30 3078 H 298.718 1.31395 -4.41669 0
M  V30 3079 H 297.033 1.33812 -3.94314 0
M  V30 3080 H 299.63 4.07706 -3.45948 0
M  V30 3081 H 299.973 3.76535 -1.77559 0
M  V30 3082 H 300.506 2.5995 -3.01116 0
M  V30 3083 H 297.245 2.61985 -6.00869 0
M  V30 3084 H 296.765 3.72542 -4.70077 0
M  V30 3085 H 298.444 3.71789 -5.29511 0
M  V30 3086 N 298.576 1.31904 0.862503 0
M  V30 3087 C 299.824 1.21776 1.61292 0
M  V30 3088 C 300.145 -0.222413 1.93727 0
M  V30 3089 O 299.415 -1.1451 1.58947 0
M  V30 3090 H 297.995 0.447717 0.597962 0
M  V30 3091 H 300.657 1.65326 1.03215 0
M  V30 3092 H 299.753 1.7948 2.5533 0
M  V30 3093 N 300.054 -1.07777 1.14986 0
M  V30 3094 C 301.282 -1.84018 0.945773 0
M  V30 3095 C 301.697 -1.81897 -0.505863 0
M  V30 3096 O 301.054 -1.22726 -1.35072 0
M  V30 3097 C 301.105 -3.31287 1.44677 0
M  V30 3098 O 300.826 -3.33449 2.84154 0
M  V30 3099 C 302.327 -4.24311 1.28355 0
M  V30 3100 H 299.547 -0.580716 0.336169 0
M  V30 3101 H 302.091 -1.36077 1.52654 0
M  V30 3102 H 300.246 -3.76594 0.908625 0
M  V30 3103 H 300.66 -4.25427 3.06777 0
M  V30 3104 H 302.134 -5.2573 1.68261 0
M  V30 3105 H 302.611 -4.38612 0.227184 0
M  V30 3106 H 303.217 -3.84836 1.81056 0
M  V30 3107 N 301.532 -0.945985 -1.26051 0
M  V30 3108 C 302.757 -0.612525 -1.98149 0
M  V30 3109 C 303.182 0.806623 -1.69927 0
M  V30 3110 O 302.54 1.54411 -0.950108 0
M  V30 3111 C 302.588 -0.866981 -3.50023 0
M  V30 3112 O 301.692 0.0585333 -4.12358 0
M  V30 3113 H 301.033 -0.23379 -0.621481 0
M  V30 3114 H 303.563 -1.27023 -1.60395 0
M  V30 3115 H 303.573 -0.789792 -4.00283 0
M  V30 3116 H 302.248 -1.90135 -3.69894 0
M  V30 3117 H 300.825 -0.0701241 -3.72834 0
M  V30 3118 N 303.011 1.40521 -0.713556 0
M  V30 3119 C 303.944 2.28198 -0.00881422 0
M  V30 3120 C 304.922 1.43227 0.769735 0
M  V30 3121 O 306.106 1.72641 0.756799 0
M  V30 3122 C 303.233 3.23758 0.994899 0
M  V30 3123 C 302.279 4.25391 0.3074 0
M  V30 3124 S 303.112 5.26765 -0.963247 0
M  V30 3125 C 304.268 6.25888 0.0384143 0
M  V30 3126 H 304.501 2.87622 -0.752407 0
M  V30 3127 H 302.034 1.45925 -0.504502 0
M  V30 3128 H 303.992 3.79341 1.56879 0
M  V30 3129 H 302.653 2.63396 1.71118 0
M  V30 3130 H 301.846 4.92596 1.0661 0
M  V30 3131 H 301.448 3.73497 -0.193879 0
M  V30 3132 H 303.74 6.71683 0.885912 0
M  V30 3133 H 304.683 7.05552 -0.60019 0
M  V30 3134 H 305.091 5.63072 0.401233 0
M  V30 3135 N 304.489 0.459591 1.5075 0
M  V30 3136 C 305.737 -0.0991532 2.01857 0
M  V30 3137 C 306.058 -1.41247 1.34441 0
M  V30 3138 O 305.328 -1.89775 0.486022 0
M  V30 3139 H 303.908 -0.039633 0.745948 0
M  V30 3140 H 306.57 0.607387 1.85194 0
M  V30 3141 H 305.666 -0.258998 3.11023 0
M  V30 3142 N 305.967 -1.56429 0.191757 0
M  V30 3143 C 307.214 -1.97485 -0.447891 0
M  V30 3144 C 307.542 -1.07852 -1.61859 0
M  V30 3145 O 306.797 -0.116903 -1.95351 0
M  V30 3146 C 307.096 -3.44449 -0.953384 0
M  V30 3147 C 306.762 -4.50781 0.103586 0
M  V30 3148 C 305.424 -4.79584 0.394023 0
M  V30 3149 C 307.776 -5.1471 0.819946 0
M  V30 3150 C 305.104 -5.69607 1.40585 0
M  V30 3151 C 307.456 -6.05827 1.8209 0
M  V30 3152 C 306.12 -6.32987 2.11857 0
M  V30 3153 H 305.39 -0.722648 -0.163895 0
M  V30 3154 H 308.037 -1.89322 0.28802 0
M  V30 3155 H 306.342 -3.49666 -1.76751 0
M  V30 3156 H 308.039 -3.73569 -1.45765 0
M  V30 3157 H 304.629 -4.28394 -0.132951 0
M  V30 3158 H 308.813 -4.92552 0.608789 0
M  V30 3159 H 304.069 -5.88926 1.64243 0
M  V30 3160 H 308.243 -6.54424 2.38123 0
M  V30 3161 H 305.87 -7.02544 2.90407 0
M  V30 3162 N 307.445 0.0818655 -1.57387 0
M  V30 3163 C 308.393 1.11712 -2.04018 0
M  V30 3164 C 309.387 1.40683 -0.94364 0
M  V30 3165 O 310.593 1.40209 -1.12878 0
M  V30 3166 H 306.968 0.377542 -0.650358 0
M  V30 3167 H 308.939 0.697614 -2.90131 0
M  V30 3168 C 307.688 2.42537 -2.49141 0
M  V30 3169 H 307.011 2.21092 -3.33104 0
M  V30 3170 H 308.451 3.13446 -2.85531 0
M  V30 3171 C 306.91 3.0778 -1.37014 0
M  V30 3172 O 307.44 3.95436 -0.706621 0
M  V30 3173 N 305.646 2.68242 -1.11779 0
M  V30 3174 H 305.193 1.97052 -1.65917 0
M  V30 3175 H 305.151 3.1222 -0.369594 0
M  V30 3176 N 308.923 1.53595 0.353017 0
M  V30 3177 C 310.148 1.7462 1.11904 0
M  V30 3178 C 310.573 0.479721 1.8188 0
M  V30 3179 O 309.931 -0.567066 1.72204 0
M  V30 3180 C 309.979 2.92029 2.11545 0
M  V30 3181 O 309.083 2.61516 3.18878 0
M  V30 3182 H 308.424 0.579531 0.324099 0
M  V30 3183 H 310.954 2.00525 0.406301 0
M  V30 3184 H 310.964 3.18551 2.5493 0
M  V30 3185 H 309.639 3.83888 1.60008 0
M  V30 3186 H 308.216 2.45852 2.80377 0
M  V30 3187 N 310.401 -0.613514 1.45168 0
M  V30 3188 C 311.649 -1.36997 1.48581 0
M  V30 3189 C 311.97 -1.94589 0.126545 0
M  V30 3190 O 311.24 -1.76816 -0.843372 0
M  V30 3191 H 309.82 -0.508558 0.547154 0
M  V30 3192 H 312.482 -0.720853 1.81079 0
M  V30 3193 H 311.578 -2.1924 2.22127 0
M  V30 3194 N 311.879 -1.3236 -0.855495 0
M  V30 3195 C 313.109 -1.25688 -1.6397 0
M  V30 3196 C 313.517 0.177592 -1.88365 0
M  V30 3197 O 312.86 1.12485 -1.45234 0
M  V30 3198 C 312.922 -1.94602 -3.02275 0
M  V30 3199 C 312.586 -3.43937 -3.00926 0
M  V30 3200 C 313.583 -4.39435 -2.77835 0
M  V30 3201 C 311.268 -3.85858 -3.21588 0
M  V30 3202 C 313.262 -5.74829 -2.75409 0
M  V30 3203 C 310.949 -5.21361 -3.18789 0
M  V30 3204 C 311.947 -6.15658 -2.95727 0
M  V30 3205 O 311.635 -7.48681 -2.928 0
M  V30 3206 H 311.367 -0.434972 -0.51747 0
M  V30 3207 H 313.921 -1.75023 -1.075 0
M  V30 3208 H 312.151 -1.39836 -3.60531 0
M  V30 3209 H 313.84 -1.81651 -3.62985 0
M  V30 3210 H 314.606 -4.08374 -2.6164 0
M  V30 3211 H 310.485 -3.12883 -3.38564 0
M  V30 3212 H 314.029 -6.48404 -2.57328 0
M  V30 3213 H 309.926 -5.52052 -3.34528 0
M  V30 3214 H 310.694 -7.5803 -3.0876 0
M  V30 3215 N 313.357 1.07166 -1.15556 0
M  V30 3216 C 314.32 2.12589 -0.856644 0
M  V30 3217 C 315.32 1.6015 0.14444 0
M  V30 3218 O 316.51 1.7399 -0.0854163 0
M  V30 3219 C 313.642 3.39753 -0.279405 0
M  V30 3220 H 314.835 2.40539 -1.79112 0
M  V30 3221 H 312.388 1.23086 -0.963298 0
M  V30 3222 H 313.123 3.17447 0.663174 0
M  V30 3223 H 312.908 3.79117 -1.00063 0
M  V30 3224 H 314.398 4.17507 -0.0879113 0
M  V30 3225 N 314.835 0.952656 1.25548 0
M  V30 3226 C 316.081 0.607272 1.93494 0
M  V30 3227 C 316.414 -0.853245 1.74452 0
M  V30 3228 O 315.689 -1.61194 1.08843 0
M  V30 3229 C 315.972 0.96435 3.46947 0
M  V30 3230 C 315.825 2.48045 3.75225 0
M  V30 3231 C 317.144 0.487987 4.37386 0
M  V30 3232 H 314.263 0.222096 0.702739 0
M  V30 3233 H 316.905 1.18895 1.48203 0
M  V30 3234 H 315.055 0.469361 3.85654 0
M  V30 3235 H 316.727 3.04905 3.46166 0
M  V30 3236 H 314.97 2.919 3.209 0
M  V30 3237 H 315.641 2.6808 4.82532 0
M  V30 3238 H 318.117 0.912558 4.0597 0
M  V30 3239 H 316.993 0.766547 5.43521 0
M  V30 3240 H 317.254 -0.612063 4.37843 0
M  V30 3241 N 316.313 -1.40141 0.720998 0
M  V30 3242 C 317.261 -2.3252 0.0608547 0
M  V30 3243 C 318.255 -1.52326 -0.741152 0
M  V30 3244 O 319.461 -1.68089 -0.643911 0
M  V30 3245 H 315.836 -0.751999 0.000876664 0
M  V30 3246 H 317.807 -2.8584 0.856614 0
M  V30 3247 C 316.556 -3.37331 -0.842809 0
M  V30 3248 H 315.879 -3.99108 -0.235084 0
M  V30 3249 H 317.319 -4.04452 -1.27257 0
M  V30 3250 C 315.778 -2.73246 -1.97074 0
M  V30 3251 O 316.308 -2.59998 -3.06209 0
M  V30 3252 N 314.514 -2.31547 -1.75597 0
M  V30 3253 H 314.061 -2.42522 -0.868368 0
M  V30 3254 H 314.019 -1.89007 -2.51244 0
M  V30 3255 N 317.792 -0.46758 -1.50504 0
M  V30 3256 C 319.203 -0.0116166 -1.86696 0
M  V30 3257 C 319.554 1.39202 -1.38265 0
M  V30 3258 O 318.679 2.0313 -0.746132 0
M  V30 3259 C 319.274 -0.0143044 -3.38797 0
M  V30 3260 C 317.833 0.386175 -3.74414 0
M  V30 3261 C 316.98 -0.401287 -2.74381 0
M  V30 3262 H 319.931 -0.682022 -1.43297 0
M  V30 3263 H 319.952 0.788641 -3.72237 0
M  V30 3264 H 319.464 -1.03602 -3.74016 0
M  V30 3265 H 317.565 1.41237 -3.44794 0
M  V30 3266 H 317.678 0.0899596 -4.79016 0
M  V30 3267 H 316.042 0.144536 -2.5429 0
M  V30 3268 H 316.825 -1.42244 -3.12444 0
M  V30 3269 N 319.27 1.56325 -0.20005 0
M  V30 3270 C 320.233 2.18084 0.705132 0
M  V30 3271 C 321.233 1.13666 1.1374 0
M  V30 3272 O 322.423 1.39023 1.04968 0
M  V30 3273 C 319.555 2.78689 1.96329 0
M  V30 3274 H 320.748 2.99435 0.167023 0
M  V30 3275 H 318.301 1.56221 0.0495725 0
M  V30 3276 H 319.036 2.0115 2.5438 0
M  V30 3277 H 318.821 3.55133 1.66202 0
M  V30 3278 H 320.311 3.26096 2.60866 0
M  V30 3279 N 320.748 -0.0735177 1.57428 0
M  V30 3280 C 322.164 -0.428264 1.53747 0
M  V30 3281 C 322.364 -1.79272 0.91998 0
M  V30 3282 O 321.42 -2.47051 0.521745 0
M  V30 3283 C 322.733 -0.370914 2.98404 0
M  V30 3284 C 324.281 -0.451224 3.0973 0
M  V30 3285 C 324.756 -0.4238 4.56035 0
M  V30 3286 N 326.247 -0.483925 4.60665 0
M  V30 3287 C 326.982 -0.484891 5.71346 0
M  V30 3288 N 326.478 -0.440775 6.91396 0
M  V30 3289 N 328.271 -0.531319 5.59583 0
M  V30 3290 H 320.422 0.819949 1.95935 0
M  V30 3291 H 322.685 0.307493 0.896745 0
M  V30 3292 H 322.391 0.564956 3.47133 0
M  V30 3293 H 322.265 -1.18176 3.5821 0
M  V30 3294 H 324.652 -1.37752 2.60976 0
M  V30 3295 H 324.733 0.388167 2.52838 0
M  V30 3296 H 324.377 0.498638 5.05446 0
M  V30 3297 H 324.307 -1.2807 5.10789 0
M  V30 3298 H 326.798 -0.522338 3.74273 0
M  V30 3299 H 327.111 -0.44539 7.71515 0
M  V30 3300 H 325.456 -0.40749 6.93804 0
M  V30 3301 H 328.647 -0.563464 4.64696 0
M  V30 3302 H 328.82 -0.528603 6.4584 0
M  V30 3303 N 322.226 -1.5378 -0.344866 0
M  V30 3304 C 323.503 -1.61589 -1.10219 0
M  V30 3305 C 323.883 -0.436316 -2.06542 0
M  V30 3306 O 323.231 0.571543 -2.21237 0
M  V30 3307 C 323.441 -2.97602 -1.82301 0
M  V30 3308 C 324.789 -3.5291 -2.36093 0
M  V30 3309 O 325.813 -2.99768 -1.924 0
M  V30 3310 O 324.672 -4.45859 -3.16026 0
M  V30 3311 H 321.766 -0.653522 -0.506792 0
M  V30 3312 H 324.312 -1.66126 -0.346465 0
M  V30 3313 H 323.084 -3.74893 -1.12121 0
M  V30 3314 H 322.707 -2.9665 -2.64735 0
M  V30 3315 N 323.704 0.605807 -1.45491 0
M  V30 3316 C 324.951 1.36476 -1.49601 0
M  V30 3317 C 325.279 1.94007 -0.138452 0
M  V30 3318 O 324.534 1.75638 0.863114 0
M  V30 3319 C 324.833 2.53012 -2.52428 0
M  V30 3320 C 324.499 2.13617 -3.97087 0
M  V30 3321 C 323.161 2.02587 -4.36477 0
M  V30 3322 C 325.513 1.82899 -4.88055 0
M  V30 3323 C 322.841 1.59064 -5.64726 0
M  V30 3324 C 325.193 1.40861 -6.16718 0
M  V30 3325 C 323.857 1.28391 -6.55036 0
M  V30 3326 H 323.127 0.499402 -0.547429 0
M  V30 3327 H 325.774 0.684546 -1.78847 0
M  V30 3328 H 324.079 3.26379 -2.16758 0
M  V30 3329 H 325.776 3.1124 -2.52845 0
M  V30 3330 H 322.366 2.23129 -3.65939 0
M  V30 3331 H 326.55 1.90317 -4.58359 0
M  V30 3332 H 321.806 1.48034 -5.93208 0
M  V30 3333 H 325.98 1.16138 -6.86648 0
M  V30 3334 H 323.607 0.944403 -7.54311 0
M  V30 3335 N 325.182 1.32811 0.848464 0
M  V30 3336 C 326.43 1.23479 1.59991 0
M  V30 3337 C 326.751 -0.201853 1.93952 0
M  V30 3338 O 326.021 -1.12818 1.60153 0
M  V30 3339 H 324.601 0.454034 0.593179 0
M  V30 3340 H 327.263 1.66412 1.01455 0
M  V30 3341 H 326.359 1.82178 2.53412 0
M  V30 3342 N 326.66 -1.06551 1.16123 0
M  V30 3343 C 328.071 -1.60768 0.949232 0
M  V30 3344 C 328.422 -1.89523 -0.507508 0
M  V30 3345 O 327.547 -1.66671 -1.38021 0
M  V30 3346 C 328.142 -2.92086 1.71671 0
M  V30 3347 C 326.701 -3.43015 1.54977 0
M  V30 3348 C 325.848 -2.16947 1.72711 0
M  V30 3349 H 328.799 -0.895354 1.31031 0
M  V30 3350 H 328.82 -3.6138 1.19099 0
M  V30 3351 H 328.332 -2.71127 2.7769 0
M  V30 3352 H 326.433 -3.69039 0.513873 0
M  V30 3353 H 326.546 -4.18516 2.33198 0
M  V30 3354 H 324.91 -2.27041 1.15431 0
M  V30 3355 H 325.693 -1.98473 2.80113 0
M  V30 3356 N 328.138 -0.959301 -1.25041 0
M  V30 3357 C 329.554 -0.664474 -1.4511 0
M  V30 3358 C 329.754 0.776481 -1.85938 0
M  V30 3359 O 328.81 1.55128 -1.99227 0
M  V30 3360 C 330.123 -1.64139 -2.5195 0
M  V30 3361 C 331.671 -1.65309 -2.65786 0
M  V30 3362 C 332.146 -2.61777 -3.75815 0
M  V30 3363 N 333.637 -2.60169 -3.83231 0
M  V30 3364 C 334.372 -3.31489 -4.6787 0
M  V30 3365 N 333.868 -4.12298 -5.56761 0
M  V30 3366 N 335.661 -3.20354 -4.61876 0
M  V30 3367 H 327.812 -1.89043 -0.968332 0
M  V30 3368 H 330.075 -0.813408 -0.4869 0
M  V30 3369 H 329.781 -2.67086 -2.28819 0
M  V30 3370 H 329.655 -1.40756 -3.49954 0
M  V30 3371 H 332.042 -0.630778 -2.8828 0
M  V30 3372 H 332.123 -1.92753 -1.68167 0
M  V30 3373 H 331.767 -3.64137 -3.54071 0
M  V30 3374 H 331.697 -2.31616 -4.72929 0
M  V30 3375 H 334.188 -2.01507 -3.19692 0
M  V30 3376 H 334.501 -4.63625 -6.18281 0
M  V30 3377 H 332.846 -4.16395 -5.56454 0
M  V30 3378 H 336.037 -2.56692 -3.91442 0
M  V30 3379 H 336.21 -3.76201 -5.27614 0
M  V30 3380 N 329.616 1.39756 -0.72842 0
M  V30 3381 C 330.546 2.33289 -0.0991354 0
M  V30 3382 C 331.527 1.53568 0.731489 0
M  V30 3383 O 332.712 1.81987 0.677807 0
M  V30 3384 C 329.842 3.3763 0.813834 0
M  V30 3385 C 328.796 4.2791 0.0878663 0
M  V30 3386 C 328.122 5.22894 1.11741 0
M  V30 3387 C 329.422 5.11314 -1.06563 0
M  V30 3388 H 331.116 2.86163 -0.880408 0
M  V30 3389 H 328.662 1.37591 -0.424819 0
M  V30 3390 H 330.615 4.0201 1.26355 0
M  V30 3391 H 329.339 2.83181 1.62715 0
M  V30 3392 H 327.998 3.65 -0.342159 0
M  V30 3393 H 327.646 4.64744 1.92412 0
M  V30 3394 H 327.346 5.84143 0.636477 0
M  V30 3395 H 328.87 5.90151 1.56697 0
M  V30 3396 H 330.284 5.69076 -0.694671 0
M  V30 3397 H 328.681 5.81671 -1.47577 0
M  V30 3398 H 329.751 4.46534 -1.89038 0
M  V30 3399 N 331.094 0.475555 1.50254 0
M  V30 3400 C 332.341 -0.0778919 2.0235 0
M  V30 3401 C 332.669 -1.39319 1.35722 0
M  V30 3402 O 331.924 -1.89888 0.473395 0
M  V30 3403 C 332.223 -0.305114 3.56095 0
M  V30 3404 C 331.889 0.92903 4.41225 0
M  V30 3405 C 330.551 1.26739 4.6421 0
M  V30 3406 C 332.903 1.75054 4.90923 0
M  V30 3407 C 330.231 2.42724 5.34137 0
M  V30 3408 C 332.583 2.9017 5.62125 0
M  V30 3409 C 331.247 3.24416 5.83362 0
M  V30 3410 H 330.517 -0.0285027 0.740452 0
M  V30 3411 H 333.164 0.630543 1.80821 0
M  V30 3412 H 331.469 -1.09584 3.76163 0
M  V30 3413 H 333.166 -0.747377 3.93974 0
M  V30 3414 H 329.756 0.655428 4.23559 0
M  V30 3415 H 333.94 1.50231 4.73016 0
M  V30 3416 H 329.196 2.69525 5.48786 0
M  V30 3417 H 333.37 3.54169 5.99614 0
M  V30 3418 H 330.997 4.14396 6.37323 0
M  V30 3419 N 332.573 -1.56217 0.208337 0
M  V30 3420 C 333.801 -2.02337 -0.43215 0
M  V30 3421 C 334.216 -1.08834 -1.54275 0
M  V30 3422 O 333.573 -0.0955462 -1.8225 0
M  V30 3423 C 333.624 -3.48072 -0.976138 0
M  V30 3424 O 333.345 -4.38007 0.0901621 0
M  V30 3425 C 334.846 -4.09773 -1.69119 0
M  V30 3426 H 332.066 -0.662385 -0.10718 0
M  V30 3427 H 334.61 -2.01966 0.320923 0
M  V30 3428 H 332.765 -3.49099 -1.67954 0
M  V30 3429 H 333.179 -5.23543 -0.316701 0
M  V30 3430 H 334.653 -5.13556 -2.02397 0
M  V30 3431 H 335.13 -3.53999 -2.59964 0
M  V30 3432 H 335.736 -4.12556 -1.03332 0
M  V30 3433 N 334.051 0.0651679 -1.57465 0
M  V30 3434 C 335.014 1.06117 -2.03155 0
M  V30 3435 C 336.014 1.31204 -0.929632 0
M  V30 3436 O 337.204 1.26813 -1.19432 0
M  V30 3437 C 334.336 2.4032 -2.41783 0
M  V30 3438 H 335.529 0.667231 -2.92383 0
M  V30 3439 H 333.082 0.311075 -1.53173 0
M  V30 3440 H 333.817 2.84532 -1.55601 0
M  V30 3441 H 333.602 2.23451 -3.22199 0
M  V30 3442 H 335.092 3.11898 -2.77685 0
M  V30 3443 N 335.529 1.53961 0.336706 0
M  V30 3444 C 336.459 1.85417 1.41925 0
M  V30 3445 C 337.44 0.709856 1.5458 0
M  V30 3446 O 338.625 0.962396 1.68676 0
M  V30 3447 C 335.755 2.06985 2.78881 0
M  V30 3448 C 334.709 3.22813 2.81026 0
M  V30 3449 C 334.035 3.29727 4.20932 0
M  V30 3450 C 335.335 4.60767 2.45949 0
M  V30 3451 H 337.029 2.76079 1.15848 0
M  V30 3452 H 334.575 1.32839 0.555859 0
M  V30 3453 H 336.528 2.27575 3.54665 0
M  V30 3454 H 335.252 1.13061 3.06406 0
M  V30 3455 H 333.911 3.0209 2.07695 0
M  V30 3456 H 333.559 2.33385 4.45579 0
M  V30 3457 H 333.259 4.07566 4.23277 0
M  V30 3458 H 334.783 3.52536 4.98549 0
M  V30 3459 H 336.197 4.81325 3.11446 0
M  V30 3460 H 334.594 5.4106 2.59566 0
M  V30 3461 H 335.664 4.6391 1.41122 0
M  V30 3462 N 337.007 -0.598083 1.45811 0
M  V30 3463 C 337.97 -1.69018 1.54808 0
M  V30 3464 C 338.97 -1.55037 0.426652 0
M  V30 3465 O 340.16 -1.59932 0.690456 0
M  V30 3466 C 337.292 -3.0835 1.45371 0
M  V30 3467 H 338.485 -1.62403 2.52121 0
M  V30 3468 H 336.038 -0.814626 1.33392 0
M  V30 3469 H 336.773 -3.20534 0.492793 0
M  V30 3470 H 336.558 -3.19907 2.26721 0
M  V30 3471 H 338.048 -3.8788 1.54721 0
M  V30 3472 N 338.485 -1.33259 -0.841409 0
M  V30 3473 C 339.733 -1.24326 -1.59334 0
M  V30 3474 C 340.054 0.191564 -1.94057 0
M  V30 3475 O 339.324 1.11967 -1.60749 0
M  V30 3476 H 337.904 -0.457174 -0.590763 0
M  V30 3477 H 340.566 -1.66947 -1.00571 0
M  V30 3478 H 339.662 -1.8352 -2.52442 0
M  V30 3479 N 339.963 1.05934 -1.16686 0
M  V30 3480 C 341.209 1.79211 -0.962023 0
M  V30 3481 C 341.564 1.85667 0.504545 0
M  V30 3482 O 340.857 1.33991 1.36956 0
M  V30 3483 C 341.051 3.23105 -1.52767 0
M  V30 3484 C 340.88 3.30673 -3.04771 0
M  V30 3485 C 339.65 3.40395 -3.73442 0
M  V30 3486 C 341.848 3.20234 -4.02436 0
M  V30 3487 N 339.83 3.37015 -5.13122 0
M  V30 3488 C 341.201 3.24138 -5.28521 0
M  V30 3489 C 343.256 3.04143 -3.9421 0
M  V30 3490 C 341.959 3.13607 -6.47336 0
M  V30 3491 C 343.985 2.94951 -5.12599 0
M  V30 3492 C 343.347 2.99481 -6.37566 0
M  V30 3493 H 339.446 0.668442 -0.405844 0
M  V30 3494 H 342.03 1.26341 -1.48142 0
M  V30 3495 H 340.201 3.74364 -1.03471 0
M  V30 3496 H 341.933 3.84579 -1.26021 0
M  V30 3497 H 338.688 3.45344 -3.2409 0
M  V30 3498 H 339.112 3.38815 -5.86117 0
M  V30 3499 H 343.754 2.99484 -2.98445 0
M  V30 3500 H 341.472 3.17022 -7.43319 0
M  V30 3501 H 345.058 2.83583 -5.08008 0
M  V30 3502 H 343.938 2.92431 -7.27636 0
M  V30 3503 N 341.441 0.965919 1.2453 0
M  V30 3504 C 342.689 0.625593 1.92174 0
M  V30 3505 C 343.01 -0.841652 1.75901 0
M  V30 3506 O 342.28 -1.60061 1.12948 0
M  V30 3507 H 340.86 0.228388 0.71123 0
M  V30 3508 H 343.522 1.2266 1.51461 0
M  V30 3509 H 342.618 0.864653 2.99884 0
M  V30 3510 N 342.919 -1.39368 0.735821 0
M  V30 3511 C 344.144 -2.05319 0.293052 0
M  V30 3512 C 344.569 -1.55115 -1.064 0
M  V30 3513 O 343.927 -0.695261 -1.67439 0
M  V30 3514 C 343.975 -3.59305 0.305323 0
M  V30 3515 O 343.079 -4.06299 -0.706761 0
M  V30 3516 H 342.42 -0.650529 0.13307 0
M  V30 3517 H 344.95 -1.78386 1.00197 0
M  V30 3518 H 344.96 -4.07724 0.149997 0
M  V30 3519 H 343.635 -3.95207 1.29553 0
M  V30 3520 H 342.212 -3.69292 -0.517504 0
M  V30 3521 N 344.397 -0.483516 -1.5 0
M  V30 3522 C 345.36 0.292965 -2.2732 0
M  V30 3523 C 346.36 0.909499 -1.32608 0
M  V30 3524 O 347.55 0.776745 -1.55924 0
M  V30 3525 C 344.682 1.41854 -3.09984 0
M  V30 3526 H 345.875 -0.385289 -2.97415 0
M  V30 3527 H 343.428 -0.237942 -1.54478 0
M  V30 3528 H 344.163 2.13148 -2.44414 0
M  V30 3529 H 343.948 0.982114 -3.79601 0
M  V30 3530 H 345.438 1.96597 -3.68429 0
M  V30 3531 N 345.875 1.56104 -0.216619 0
M  V30 3532 C 347.121 1.98466 0.417033 0
M  V30 3533 C 347.454 1.10403 1.59765 0
M  V30 3534 O 346.729 0.160632 1.93836 0
M  V30 3535 C 347.012 3.49769 0.85637 0
M  V30 3536 C 346.865 4.48606 -0.327546 0
M  V30 3537 C 348.184 4.05339 1.7143 0
M  V30 3538 H 345.303 0.721551 0.150112 0
M  V30 3539 H 347.945 1.87423 -0.311864 0
M  V30 3540 H 346.095 3.5931 1.47745 0
M  V30 3541 H 347.767 4.5108 -0.965618 0
M  V30 3542 H 346.01 4.22682 -0.975805 0
M  V30 3543 H 346.681 5.51995 0.0227149 0
M  V30 3544 H 349.157 3.98712 1.19031 0
M  V30 3545 H 348.033 5.11533 1.99061 0
M  V30 3546 H 348.294 3.51918 2.67593 0
M  V30 3547 N 347.353 -0.0568162 1.57498 0
M  V30 3548 C 348.6 -0.753104 1.87975 0
M  V30 3549 C 348.928 -1.76815 0.81035 0
M  V30 3550 O 348.183 -1.94756 -0.19199 0
M  V30 3551 C 348.482 -1.48359 3.25153 0
M  V30 3552 C 348.148 -0.60713 4.46794 0
M  V30 3553 C 346.81 -0.365642 4.79809 0
M  V30 3554 C 349.162 -0.000305978 5.212 0
M  V30 3555 C 346.49 0.491905 5.84634 0
M  V30 3556 C 348.842 0.844781 6.26934 0
M  V30 3557 C 347.506 1.096 6.58441 0
M  V30 3558 H 346.776 -0.27558 0.687849 0
M  V30 3559 H 349.423 -0.0135173 1.91495 0
M  V30 3560 H 347.728 -2.29577 3.17492 0
M  V30 3561 H 349.425 -2.02739 3.45974 0
M  V30 3562 H 346.015 -0.805487 4.20963 0
M  V30 3563 H 350.199 -0.173961 4.95995 0
M  V30 3564 H 345.455 0.695131 6.07436 0
M  V30 3565 H 349.629 1.32165 6.83744 0
M  V30 3566 H 347.256 1.76224 7.39492 0
M  V30 3567 N 348.832 -1.54138 -0.328536 0
M  V30 3568 C 350.06 -1.76062 -1.08673 0
M  V30 3569 C 350.475 -0.506852 -1.81869 0
M  V30 3570 O 349.832 0.522223 -1.74869 0
M  V30 3571 C 349.883 -2.95054 -2.08866 0
M  V30 3572 O 349.604 -4.15583 -1.38644 0
M  V30 3573 C 351.105 -3.2915 -2.96943 0
M  V30 3574 H 348.325 -0.587889 -0.323461 0
M  V30 3575 H 350.869 -2.0101 -0.376175 0
M  V30 3576 H 349.024 -2.72394 -2.75464 0
M  V30 3577 H 349.438 -4.82481 -2.05699 0
M  V30 3578 H 350.912 -4.15723 -3.63151 0
M  V30 3579 H 351.389 -2.461 -3.63774 0
M  V30 3580 H 351.995 -3.53871 -2.35914 0
M  V30 3581 N 350.31 0.590341 -1.46126 0
M  V30 3582 C 351.538 1.37504 -1.54597 0
M  V30 3583 C 351.953 1.87897 -0.184447 0
M  V30 3584 O 351.31 1.63192 0.816984 0
M  V30 3585 C 351.361 2.56779 -2.54454 0
M  V30 3586 O 351.082 2.08476 -3.85317 0
M  V30 3587 C 352.583 3.49427 -2.72792 0
M  V30 3588 H 349.803 0.420325 -0.523037 0
M  V30 3589 H 352.347 0.718383 -1.91467 0
M  V30 3590 H 350.502 3.1845 -2.20609 0
M  V30 3591 H 350.916 2.86097 -4.396 0
M  V30 3592 H 352.39 4.29619 -3.466 0
M  V30 3593 H 352.867 4.00876 -1.79429 0
M  V30 3594 H 353.473 2.93598 -3.07702 0
M  V30 3595 N 351.788 1.33704 0.83433 0
M  V30 3596 C 353.036 1.25169 1.58673 0
M  V30 3597 C 353.357 -0.18127 1.94156 0
M  V30 3598 O 352.627 -1.11113 1.6134 0
M  V30 3599 H 351.207 0.4603 0.58833 0
M  V30 3600 H 353.869 1.67478 0.996847 0
M  V30 3601 H 352.965 1.84856 2.51465 0
M  V30 3602 N 353.266 -1.05314 1.17247 0
M  V30 3603 C 354.198 -2.13023 0.845812 0
M  V30 3604 C 355.211 -1.62096 -0.151246 0
M  V30 3605 O 356.4 -1.78343 0.0748818 0
M  V30 3606 C 353.5 -3.38047 0.240292 0
M  V30 3607 C 352.673 -4.18255 1.27991 0
M  V30 3608 C 351.732 -5.21625 0.692375 0
M  V30 3609 O 350.758 -5.52619 1.36385 0
M  V30 3610 N 351.96 -5.78201 -0.516178 0
M  V30 3611 H 354.725 -2.41642 1.77283 0
M  V30 3612 H 352.286 -1.21401 1.07115 0
M  V30 3613 H 354.278 -4.04359 -0.16603 0
M  V30 3614 H 352.848 -3.06972 -0.590487 0
M  V30 3615 H 352.068 -3.47451 1.86203 0
M  V30 3616 H 353.356 -4.68643 1.98119 0
M  V30 3617 H 352.754 -5.55301 -1.07969 0
M  V30 3618 H 351.311 -6.4604 -0.86458 0
M  V30 3619 N 354.744 -0.972509 -1.24016 0
M  V30 3620 C 355.694 -0.477561 -2.22942 0
M  V30 3621 C 356.678 0.44308 -1.54679 0
M  V30 3622 O 357.87 0.273219 -1.74879 0
M  V30 3623 C 354.999 0.226348 -3.42553 0
M  V30 3624 C 354.085 -0.713403 -4.18057 0
M  V30 3625 N 354.476 -1.8527 -4.70647 0
M  V30 3626 C 352.774 -0.525145 -4.42898 0
M  V30 3627 C 353.475 -2.44089 -5.28011 0
M  V30 3628 N 352.451 -1.72556 -5.15486 0
M  V30 3629 H 356.253 -1.34678 -2.61226 0
M  V30 3630 H 353.767 -0.832196 -1.39457 0
M  V30 3631 H 355.764 0.598184 -4.12586 0
M  V30 3632 H 354.424 1.09195 -3.05788 0
M  V30 3633 H 355.435 -2.2341 -4.67235 0
M  V30 3634 H 352.112 0.296096 -4.16449 0
M  V30 3635 H 353.502 -3.40259 -5.79374 0
M  V30 3636 N 356.222 1.38976 -0.743202 0
M  V30 3637 C 357.468 2.01114 -0.304109 0
M  V30 3638 C 357.823 1.57929 1.09892 0
M  V30 3639 O 357.116 0.801983 1.74008 0
M  V30 3640 C 357.31 3.55647 -0.353517 0
M  V30 3641 C 357.139 4.13837 -1.75981 0
M  V30 3642 C 355.909 4.46062 -2.37395 0
M  V30 3643 C 358.107 4.36812 -2.71477 0
M  V30 3644 N 356.089 4.898 -3.70093 0
M  V30 3645 C 357.46 4.82844 -3.88923 0
M  V30 3646 C 359.515 4.18893 -2.69134 0
M  V30 3647 C 358.218 5.12837 -5.04371 0
M  V30 3648 C 360.244 4.50005 -3.83731 0
M  V30 3649 C 359.606 4.96251 -4.99914 0
M  V30 3650 H 355.705 0.765931 -0.157716 0
M  V30 3651 H 358.289 1.68763 -0.970931 0
M  V30 3652 H 356.46 3.87368 0.282987 0
M  V30 3653 H 358.192 4.04564 0.104904 0
M  V30 3654 H 354.947 4.34145 -1.89248 0
M  V30 3655 H 355.371 5.16016 -4.38242 0
M  V30 3656 H 360.013 3.82335 -1.80499 0
M  V30 3657 H 357.731 5.48297 -5.9363 0
M  V30 3658 H 361.317 4.37755 -3.83225 0
M  V30 3659 H 360.197 5.19867 -5.87118 0
M  V30 3660 N 357.7 0.491464 1.49741 0
M  V30 3661 C 358.946 -0.0485431 2.03342 0
M  V30 3662 C 359.301 -1.35566 1.36527 0
M  V30 3663 O 358.594 -1.85262 0.488729 0
M  V30 3664 C 358.788 -0.267329 3.56399 0
M  V30 3665 C 358.617 1.01703 4.38049 0
M  V30 3666 C 357.387 1.56614 4.80417 0
M  V30 3667 C 359.585 1.91782 4.77204 0
M  V30 3668 N 357.567 2.7974 5.4646 0
M  V30 3669 C 358.938 2.99489 5.42868 0
M  V30 3670 C 360.993 1.92575 4.5915 0
M  V30 3671 C 359.696 4.08005 5.92389 0
M  V30 3672 C 361.722 3.0006 5.09626 0
M  V30 3673 C 361.084 4.06485 5.75282 0
M  V30 3674 H 357.183 0.0227779 0.781668 0
M  V30 3675 H 359.767 0.664204 1.8302 0
M  V30 3676 H 357.938 -0.949126 3.76625 0
M  V30 3677 H 359.67 -0.803492 3.96644 0
M  V30 3678 H 356.425 1.11256 4.60347 0
M  V30 3679 H 356.849 3.42323 5.84075 0
M  V30 3680 H 361.491 1.11605 4.07804 0
M  V30 3681 H 359.209 4.89779 6.42761 0
M  V30 3682 H 362.795 3.01681 4.97473 0
M  V30 3683 H 361.675 4.88287 6.13633 0
M  V30 3684 N 359.178 -1.55987 0.224894 0
M  V30 3685 C 360.424 -1.99433 -0.39973 0
M  V30 3686 C 360.779 -1.11004 -1.57149 0
M  V30 3687 O 360.072 -0.160725 -1.90925 0
M  V30 3688 C 360.266 -3.46394 -0.880106 0
M  V30 3689 C 360.095 -4.4904 0.243565 0
M  V30 3690 C 358.865 -5.00272 0.711056 0
M  V30 3691 C 361.063 -5.03195 1.06299 0
M  V30 3692 N 359.045 -5.86628 1.80944 0
M  V30 3693 C 360.416 -5.86508 2.01017 0
M  V30 3694 C 362.471 -4.8555 1.10205 0
M  V30 3695 C 361.174 -6.54062 2.99324 0
M  V30 3696 C 363.2 -5.53866 2.07332 0
M  V30 3697 C 362.562 -6.3695 3.00789 0
M  V30 3698 H 358.661 -0.773815 -0.112847 0
M  V30 3699 H 361.245 -1.91754 0.337432 0
M  V30 3700 H 359.416 -3.54515 -1.58662 0
M  V30 3701 H 361.148 -3.76752 -1.47783 0
M  V30 3702 H 357.903 -4.72655 0.29906 0
M  V30 3703 H 358.327 -6.34507 2.36073 0
M  V30 3704 H 362.969 -4.20966 0.39343 0
M  V30 3705 H 360.687 -7.17827 3.71147 0
M  V30 3706 H 364.273 -5.42178 2.11032 0
M  V30 3707 H 363.153 -6.8888 3.74718 0
M  V30 3708 N 360.656 0.0484629 -1.57525 0
M  V30 3709 C 361.902 0.744226 -1.88651 0
M  V30 3710 C 362.235 1.76029 -0.820212 0
M  V30 3711 O 361.51 1.93782 0.166985 0
M  V30 3712 C 361.793 1.43128 -3.30434 0
M  V30 3713 C 361.646 0.43005 -4.47739 0
M  V30 3714 C 362.965 2.37031 -3.70816 0
M  V30 3715 H 360.084 0.269089 -0.68612 0
M  V30 3716 H 362.726 0.00713532 -1.89999 0
M  V30 3717 H 360.876 2.05956 -3.29415 0
M  V30 3718 H 362.548 -0.194816 -4.60888 0
M  V30 3719 H 360.791 -0.252522 -4.33064 0
M  V30 3720 H 361.462 0.948874 -5.43783 0
M  V30 3721 H 363.938 1.84263 -3.73077 0
M  V30 3722 H 362.814 2.82094 -4.70865 0
M  V30 3723 H 363.075 3.22864 -3.02012 0
M  V30 3724 N 362.134 1.5431 0.320358 0
M  V30 3725 C 363.545 1.63872 0.894594 0
M  V30 3726 C 363.896 0.534847 1.88769 0
M  V30 3727 O 363.021 -0.331732 2.13842 0
M  V30 3728 C 363.616 2.97049 1.62934 0
M  V30 3729 C 362.175 3.08796 2.15226 0
M  V30 3730 C 361.322 2.59456 0.978671 0
M  V30 3731 H 364.273 1.58398 0.0978544 0
M  V30 3732 H 364.294 2.87388 2.49376 0
M  V30 3733 H 363.806 3.7737 0.906302 0
M  V30 3734 H 361.907 2.33156 2.90636 0
M  V30 3735 H 362.02 4.14649 2.40006 0
M  V30 3736 H 360.384 2.1543 1.35875 0
M  V30 3737 H 361.167 3.42237 0.269895 0
M  V30 3738 N 363.613 -0.582584 1.46437 0
M  V30 3739 C 364.862 -1.337 1.5102 0
M  V30 3740 C 365.175 -1.94891 0.166359 0
M  V30 3741 O 366.381 -2.71351 0.0899954 0
M  V30 3742 C 364.837 -2.42315 2.66104 0
M  V30 3743 C 364.445 -1.87427 4.06909 0
M  V30 3744 C 366.189 -3.19099 2.79958 0
M  V30 3745 C 364.096 -2.93672 5.13333 0
M  V30 3746 H 363.026 -0.502619 0.562041 0
M  V30 3747 H 365.677 -0.621701 1.72647 0
M  V30 3748 H 364.059 -3.16645 2.37807 0
M  V30 3749 H 365.233 -1.19639 4.44998 0
M  V30 3750 H 363.548 -1.2331 3.97723 0
M  V30 3751 H 366.145 -3.9839 3.56636 0
M  V30 3752 H 366.488 -3.71695 1.87479 0
M  V30 3753 H 367.021 -2.51875 3.07902 0
M  V30 3754 H 363.76 -2.45962 6.07604 0
M  V30 3755 H 363.28 -3.59948 4.79789 0
M  V30 3756 H 364.959 -3.5762 5.39182 0
M  V30 3757 N 365.091 -1.34144 -0.827227 0
M  V30 3758 C 366.337 -1.26446 -1.58554 0
M  V30 3759 C 366.67 0.1664 -1.93486 0
M  V30 3760 O 365.945 1.1107 -1.59667 0
M  V30 3761 C 366.228 -2.15111 -2.8879 0
M  V30 3762 C 366.081 -3.66712 -2.60465 0
M  V30 3763 C 367.4 -2.03311 -3.90324 0
M  V30 3764 H 364.519 -0.46067 -0.575284 0
M  V30 3765 H 367.161 -1.64356 -0.953269 0
M  V30 3766 H 365.311 -1.8291 -3.42748 0
M  V30 3767 H 366.983 -4.09259 -2.1285 0
M  V30 3768 H 365.226 -3.88014 -1.93978 0
M  V30 3769 H 365.897 -4.24112 -3.53317 0
M  V30 3770 H 368.373 -2.31574 -3.45706 0
M  V30 3771 H 367.249 -2.67582 -4.79261 0
M  V30 3772 H 367.51 -1.00879 -4.30437 0
M  V30 3773 N 366.569 1.04691 -1.17803 0
M  V30 3774 C 367.794 1.81984 -0.994813 0
M  V30 3775 C 368.219 1.82586 0.452112 0
M  V30 3776 O 367.577 1.23854 1.324 0
M  V30 3777 C 367.625 3.2575 -1.54659 0
M  V30 3778 O 366.729 4.05267 -0.763728 0
M  V30 3779 H 366.07 0.562483 -0.352857 0
M  V30 3780 H 368.6 1.3189 -1.56417 0
M  V30 3781 H 368.61 3.76541 -1.57102 0
M  V30 3782 H 367.285 3.24627 -2.59981 0
M  V30 3783 H 365.862 3.63972 -0.811108 0
M  V30 3784 N 368.047 0.979072 1.23499 0
M  V30 3785 C 369.458 0.684391 1.73704 0
M  V30 3786 C 369.809 -0.799448 1.79174 0
M  V30 3787 O 368.934 -1.62531 1.42873 0
M  V30 3788 C 369.529 1.23564 3.15464 0
M  V30 3789 C 368.088 0.99063 3.6313 0
M  V30 3790 C 367.235 1.36416 2.41425 0
M  V30 3791 H 370.186 1.15307 1.09041 0
M  V30 3792 H 370.207 0.607417 3.7562 0
M  V30 3793 H 369.719 2.31561 3.1145 0
M  V30 3794 H 367.82 -0.0733136 3.72528 0
M  V30 3795 H 367.933 1.64427 4.5 0
M  V30 3796 H 366.297 0.782616 2.42378 0
M  V30 3797 H 367.08 2.45387 2.40083 0
M  V30 3798 N 369.525 -1.3858 0.750561 0
M  V30 3799 C 370.455 -2.33102 0.136237 0
M  V30 3800 C 371.436 -1.54713 -0.706965 0
M  V30 3801 O 372.621 -1.83043 -0.648769 0
M  V30 3802 C 369.751 -3.38882 -0.760017 0
M  V30 3803 C 368.705 -4.27995 -0.0197785 0
M  V30 3804 C 368.031 -5.24605 -1.03408 0
M  V30 3805 C 369.331 -5.09554 1.14684 0
M  V30 3806 H 371.025 -2.84726 0.925822 0
M  V30 3807 H 368.571 -1.36898 0.446654 0
M  V30 3808 H 370.524 -4.0397 -1.19943 0
M  V30 3809 H 369.248 -2.85734 -1.58189 0
M  V30 3810 H 367.907 -3.64409 0.400184 0
M  V30 3811 H 367.555 -4.67746 -1.84994 0
M  V30 3812 H 367.255 -5.85081 -0.543464 0
M  V30 3813 H 368.779 -5.9257 -1.47288 0
M  V30 3814 H 370.193 -5.67899 0.785118 0
M  V30 3815 H 368.59 -5.7925 1.56812 0
M  V30 3816 H 369.66 -4.4347 1.96118 0
M  V30 3817 N 371.003 -0.499398 -1.49478 0
M  V30 3818 C 371.933 0.269244 -2.31943 0
M  V30 3819 C 372.914 0.964054 -1.40143 0
M  V30 3820 O 374.099 0.955767 -1.69052 0
M  V30 3821 C 371.229 1.33504 -3.20615 0
M  V30 3822 C 370.183 0.760202 -4.21195 0
M  V30 3823 C 369.509 1.9264 -4.98792 0
M  V30 3824 C 370.809 -0.247661 -5.21712 0
M  V30 3825 H 372.503 -0.419082 -2.96452 0
M  V30 3826 H 370.049 -0.202988 -1.42562 0
M  V30 3827 H 372.002 1.88048 -3.77115 0
M  V30 3828 H 370.726 2.05253 -2.54045 0
M  V30 3829 H 369.385 0.23653 -3.65836 0
M  V30 3830 H 369.033 2.63154 -4.28671 0
M  V30 3831 H 368.733 1.54785 -5.66847 0
M  V30 3832 H 370.257 2.4762 -5.58137 0
M  V30 3833 H 371.671 0.209579 -5.72917 0
M  V30 3834 H 370.068 -0.541962 -5.97648 0
M  V30 3835 H 371.138 -1.16409 -4.7072 0
M  V30 3836 N 372.481 1.55866 -0.233164 0
M  V30 3837 C 373.729 1.9821 0.394593 0
M  V30 3838 C 374.05 1.12234 1.59463 0
M  V30 3839 O 373.32 0.201981 1.94856 0
M  V30 3840 H 371.9 0.732034 0.148778 0
M  V30 3841 H 374.562 1.92107 -0.32876 0
M  V30 3842 H 373.658 3.03845 0.713063 0
M  V30 3843 N 373.959 -0.0401083 1.57549 0
M  V30 3844 C 375.184 -0.748931 1.93406 0
M  V30 3845 C 375.609 -1.68686 0.832274 0
M  V30 3846 O 374.967 -1.80047 -0.212818 0
M  V30 3847 C 375.015 -1.4916 3.28304 0
M  V30 3848 O 374.119 -2.6042 3.19774 0
M  V30 3849 H 373.46 -0.202212 0.63246 0
M  V30 3850 H 375.99 0.00112086 2.046 0
M  V30 3851 H 376 -1.86395 3.62934 0
M  V30 3852 H 374.675 -0.80364 4.08062 0
M  V30 3853 H 373.252 -2.25808 2.96758 0
M  V30 3854 N 375.437 -1.54477 -0.31217 0
M  V30 3855 C 376.686 -1.72438 -1.04633 0
M  V30 3856 C 376.999 -0.511163 -1.88803 0
M  V30 3857 O 378.205 -0.572341 -2.65399 0
M  V30 3858 C 376.661 -3.05043 -1.9099 0
M  V30 3859 C 376.269 -4.33806 -1.11877 0
M  V30 3860 C 378.013 -3.32364 -2.64073 0
M  V30 3861 C 375.92 -5.57467 -1.97445 0
M  V30 3862 H 374.85 -0.642647 -0.394361 0
M  V30 3863 H 377.501 -1.80966 -0.303929 0
M  V30 3864 H 375.883 -2.90451 -2.69173 0
M  V30 3865 H 377.057 -4.59199 -0.383843 0
M  V30 3866 H 375.372 -4.13336 -0.504252 0
M  V30 3867 H 377.969 -4.21951 -3.28423 0
M  V30 3868 H 378.312 -2.50745 -3.32314 0
M  V30 3869 H 378.845 -3.47875 -1.92944 0
M  V30 3870 H 375.584 -6.41722 -1.33692 0
M  V30 3871 H 375.104 -5.36277 -2.6864 0
M  V30 3872 H 376.783 -5.94303 -2.5576 0
M  V30 3873 N 376.915 0.57481 -1.46744 0
M  V30 3874 C 377.878 1.66533 -1.57478 0
M  V30 3875 C 378.878 1.54338 -0.451263 0
M  V30 3876 O 380.068 1.58814 -0.715813 0
M  V30 3877 C 377.2 3.05999 -1.50259 0
M  V30 3878 H 378.393 1.58372 -2.54673 0
M  V30 3879 H 375.946 0.793301 -1.34672 0
M  V30 3880 H 376.681 3.19709 -0.543725 0
M  V30 3881 H 376.466 3.16259 -2.31781 0
M  V30 3882 H 377.956 3.8537 -1.60872 0
M  V30 3883 N 378.394 1.34581 0.820102 0
M  V30 3884 C 379.642 1.26845 1.57336 0
M  V30 3885 C 379.963 -0.160667 1.94337 0
M  V30 3886 O 379.233 -1.09396 1.6251 0
M  V30 3887 H 377.813 0.466514 0.583415 0
M  V30 3888 H 380.475 1.68526 0.979027 0
M  V30 3889 H 379.571 1.87513 2.4949 0
M  V30 3890 N 379.872 -1.04064 1.18357 0
M  V30 3891 C 381.118 -1.77528 0.980397 0
M  V30 3892 C 381.451 -1.87948 -0.48879 0
M  V30 3893 O 380.726 -1.3876 -1.36293 0
M  V30 3894 C 381.009 -3.20797 1.63588 0
M  V30 3895 C 380.862 -3.1832 3.17793 0
M  V30 3896 C 382.181 -4.18911 1.34914 0
M  V30 3897 H 379.3 -0.644443 0.357578 0
M  V30 3898 H 381.942 -1.2156 1.46024 0
M  V30 3899 H 380.092 -3.68586 1.22788 0
M  V30 3900 H 381.764 -2.78521 3.67728 0
M  V30 3901 H 380.007 -2.56351 3.49952 0
M  V30 3902 H 380.678 -4.19489 3.58794 0
M  V30 3903 H 383.154 -3.7967 1.70265 0
M  V30 3904 H 382.03 -5.17374 1.83346 0
M  V30 3905 H 382.291 -4.41262 0.272027 0
M  V30 3906 N 381.35 -0.985608 -1.22978 0
M  V30 3907 C 382.597 -0.657386 -1.91532 0
M  V30 3908 C 382.925 0.809707 -1.76845 0
M  V30 3909 O 382.18 1.60021 -1.12658 0
M  V30 3910 C 382.479 -1.00014 -3.43121 0
M  V30 3911 C 382.145 -2.4583 -3.77993 0
M  V30 3912 C 380.807 -2.85679 -3.87222 0
M  V30 3913 C 383.159 -3.40378 -3.94705 0
M  V30 3914 C 380.487 -4.19081 -4.10595 0
M  V30 3915 C 382.839 -4.73429 -4.1958 0
M  V30 3916 C 381.503 -5.1303 -4.27032 0
M  V30 3917 H 380.773 -0.240555 -0.700867 0
M  V30 3918 H 383.42 -1.24044 -1.45895 0
M  V30 3919 H 381.725 -0.335072 -3.90365 0
M  V30 3920 H 383.422 -0.724322 -3.94404 0
M  V30 3921 H 380.012 -2.13939 -3.71387 0
M  V30 3922 H 384.196 -3.10766 -3.8696 0
M  V30 3923 H 379.452 -4.49362 -4.14589 0
M  V30 3924 H 383.626 -5.46644 -4.31455 0
M  V30 3925 H 381.253 -6.16418 -4.44896 0
M  V30 3926 N 382.828 1.3818 -0.7579 0
M  V30 3927 C 384.074 2.00316 -0.316453 0
M  V30 3928 C 384.407 1.60026 1.10025 0
M  V30 3929 O 383.682 0.839835 1.75434 0
M  V30 3930 C 383.965 3.57349 -0.444245 0
M  V30 3931 C 383.818 4.07591 -1.90236 0
M  V30 3932 C 385.137 4.3981 0.1598 0
M  V30 3933 H 382.256 0.727741 -0.116459 0
M  V30 3934 H 384.898 1.6406 -0.958352 0
M  V30 3935 H 383.048 3.88365 0.102233 0
M  V30 3936 H 384.72 3.87199 -2.50748 0
M  V30 3937 H 382.963 3.60297 -2.41595 0
M  V30 3938 H 383.634 5.16677 -1.94291 0
M  V30 3939 H 386.11 4.14971 -0.306314 0
M  V30 3940 H 384.986 5.48885 0.0401675 0
M  V30 3941 H 385.247 4.24102 1.24859 0
M  V30 3942 N 384.306 0.507319 1.49211 0
M  V30 3943 C 385.536 -0.0315292 2.06576 0
M  V30 3944 C 385.944 -1.30791 1.36713 0
M  V30 3945 O 385.287 -1.78324 0.441181 0
M  V30 3946 C 385.349 -0.349104 3.57801 0
M  V30 3947 C 385.013 0.830475 4.49391 0
M  V30 3948 C 386.01 1.72271 4.90529 0
M  V30 3949 C 383.695 1.03107 4.91604 0
M  V30 3950 C 385.689 2.79964 5.72625 0
M  V30 3951 C 383.376 2.11116 5.73475 0
M  V30 3952 C 384.374 2.99379 6.1389 0
M  V30 3953 O 384.062 4.05523 6.94123 0
M  V30 3954 H 383.794 0.0201002 0.675701 0
M  V30 3955 H 386.348 0.705737 1.92895 0
M  V30 3956 H 384.578 -1.14005 3.69513 0
M  V30 3957 H 386.267 -0.827319 3.97379 0
M  V30 3958 H 387.033 1.57958 4.58557 0
M  V30 3959 H 382.912 0.353417 4.59643 0
M  V30 3960 H 386.456 3.48884 6.04091 0
M  V30 3961 H 382.353 2.25421 6.0486 0
M  V30 3962 H 383.121 4.02953 7.1244 0
M  V30 3963 N 385.784 -1.5574 0.241426 0
M  V30 3964 C 386.716 -2.18469 -0.693091 0
M  V30 3965 C 387.729 -1.15942 -1.14286 0
M  V30 3966 O 388.918 -1.42832 -1.07058 0
M  V30 3967 C 386.018 -2.7696 -1.95311 0
M  V30 3968 C 385.191 -4.04853 -1.65568 0
M  V30 3969 C 384.25 -4.47715 -2.76474 0
M  V30 3970 O 383.276 -5.14205 -2.44094 0
M  V30 3971 N 384.478 -4.15044 -4.05855 0
M  V30 3972 H 387.243 -2.99292 -0.156388 0
M  V30 3973 H 384.804 -1.61784 0.0611752 0
M  V30 3974 H 386.796 -3.02594 -2.68736 0
M  V30 3975 H 385.366 -2.00326 -2.39975 0
M  V30 3976 H 384.586 -3.86865 -0.756886 0
M  V30 3977 H 385.874 -4.88246 -1.43153 0
M  V30 3978 H 385.272 -3.61654 -4.34998 0
M  V30 3979 H 383.829 -4.45526 -4.75762 0
M  V30 3980 N 387.262 0.0317525 -1.57568 0
M  V30 3981 C 388.192 1.03274 -2.0942 0
M  V30 3982 C 389.173 1.3788 -0.996143 0
M  V30 3983 O 390.358 1.46811 -1.27122 0
M  V30 3984 C 387.488 2.33448 -2.57137 0
M  V30 3985 C 386.442 2.13091 -3.71182 0
M  V30 3986 C 385.768 3.49001 -4.05095 0
M  V30 3987 C 387.068 1.51928 -4.99715 0
M  V30 3988 H 388.762 0.60112 -2.93303 0
M  V30 3989 H 386.308 0.287705 -1.41097 0
M  V30 3990 H 388.261 3.03802 -2.92032 0
M  V30 3991 H 386.985 2.78665 -1.70333 0
M  V30 3992 H 385.644 1.45171 -3.36632 0
M  V30 3993 H 385.292 3.91862 -3.15362 0
M  V30 3994 H 384.992 3.36207 -4.81911 0
M  V30 3995 H 386.516 4.20721 -4.42522 0
M  V30 3996 H 387.93 2.12196 -5.32584 0
M  V30 3997 H 386.327 1.49716 -5.81124 0
M  V30 3998 H 387.397 0.484811 -4.8247 0
M  V30 3999 N 388.74 1.54641 0.303973 0
M  V30 4000 C 389.673 1.80263 1.3993 0
M  V30 4001 C 390.651 0.653657 1.48883 0
M  V30 4002 O 391.835 0.893284 1.6599 0
M  V30 4003 C 388.962 1.9367 2.77866 0
M  V30 4004 C 388.008 3.16078 2.86351 0
M  V30 4005 S 388.841 4.74219 2.4875 0
M  V30 4006 C 389.997 4.90558 3.88721 0
M  V30 4007 H 390.23 2.72886 1.17986 0
M  V30 4008 H 387.763 1.46014 0.501918 0
M  V30 4009 H 389.721 2.0208 3.57315 0
M  V30 4010 H 388.382 1.01991 2.9708 0
M  V30 4011 H 387.575 3.22252 3.87517 0
M  V30 4012 H 387.177 3.06099 2.14893 0
M  V30 4013 H 389.469 4.74398 4.83687 0
M  V30 4014 H 390.412 5.92651 3.87518 0
M  V30 4015 H 390.82 4.18728 3.78585 0
M  V30 4016 N 390.218 -0.567019 1.47046 0
M  V30 4017 C 391.467 -1.32091 1.5243 0
M  V30 4018 C 391.78 -1.94704 0.187021 0
M  V30 4019 O 392.986 -2.7124 0.118771 0
M  V30 4020 C 391.442 -2.39479 2.68659 0
M  V30 4021 C 391.05 -1.831 4.08874 0
M  V30 4022 C 392.794 -3.16111 2.83327 0
M  V30 4023 C 390.701 -2.8821 5.16419 0
M  V30 4024 H 389.631 -0.496629 0.56734 0
M  V30 4025 H 392.282 -0.603354 1.73297 0
M  V30 4026 H 390.664 -3.14105 2.41152 0
M  V30 4027 H 391.838 -1.14913 4.46242 0
M  V30 4028 H 390.153 -1.19085 3.99008 0
M  V30 4029 H 392.75 -3.94585 3.60842 0
M  V30 4030 H 393.093 -3.69686 1.91411 0
M  V30 4031 H 393.626 -2.48595 3.10556 0
M  V30 4032 H 390.365 -2.39504 6.10179 0
M  V30 4033 H 389.885 -3.54839 4.8358 0
M  V30 4034 H 391.564 -3.51881 5.42945 0
M  V30 4035 N 391.696 -1.35014 -0.812953 0
M  V30 4036 C 392.944 -1.27678 -1.56661 0
M  V30 4037 C 393.265 0.150359 -1.94419 0
M  V30 4038 O 392.535 1.08532 -1.63088 0
M  V30 4039 H 391.115 -0.469602 -0.580933 0
M  V30 4040 H 393.777 -1.69043 -0.970076 0
M  V30 4041 H 392.873 -1.88833 -2.48492 0
M  V30 4042 N 393.175 1.03435 -1.18907 0
M  V30 4043 C 394.415 1.78302 -0.999391 0
M  V30 4044 C 394.779 1.86353 0.462219 0
M  V30 4045 O 395.98 2.57489 0.771543 0
M  V30 4046 C 394.251 3.17362 -1.64365 0
M  V30 4047 S 395.81 4.08488 -1.6026 0
M  V30 4048 H 392.628 0.613861 -0.358742 0
M  V30 4049 H 395.23 1.23979 -1.51161 0
M  V30 4050 H 393.934 3.09116 -2.69955 0
M  V30 4051 H 393.465 3.76762 -1.13199 0
M  V30 4052 H 395.48 4.92274 -0.622932 0
M  V30 4053 N 394.653 0.992116 1.22453 0
M  V30 4054 C 395.603 0.512969 2.22155 0
M  V30 4055 C 396.587 -0.418416 1.55364 0
M  V30 4056 O 397.779 -0.245363 1.75291 0
M  V30 4057 C 394.908 -0.171822 3.4287 0
M  V30 4058 C 393.994 0.779822 4.16869 0
M  V30 4059 N 394.385 1.92734 4.6764 0
M  V30 4060 C 392.683 0.59554 4.42006 0
M  V30 4061 C 393.384 2.52458 5.24061 0
M  V30 4062 N 392.36 1.80735 5.12675 0
M  V30 4063 H 396.162 1.38817 2.5905 0
M  V30 4064 H 393.676 0.854277 1.38115 0
M  V30 4065 H 395.673 -0.532469 4.13486 0
M  V30 4066 H 394.333 -1.04317 3.07487 0
M  V30 4067 H 395.344 2.30816 4.63621 0
M  V30 4068 H 392.021 -0.229805 4.16867 0
M  V30 4069 H 393.411 3.49433 5.73887 0
M  V30 4070 N 396.131 -1.37776 0.765217 0
M  V30 4071 C 397.061 -2.32945 0.160953 0
M  V30 4072 C 398.042 -1.55454 -0.690516 0
M  V30 4073 O 399.227 -1.83721 -0.629318 0
M  V30 4074 C 396.357 -3.39669 -0.724031 0
M  V30 4075 C 395.311 -4.27992 0.0256173 0
M  V30 4076 C 394.637 -5.25673 -0.978383 0
M  V30 4077 C 395.937 -5.08309 1.20082 0
M  V30 4078 H 397.631 -2.83728 0.955969 0
M  V30 4079 H 395.177 -1.36416 0.461149 0
M  V30 4080 H 397.13 -4.05219 -1.15652 0
M  V30 4081 H 395.854 -2.87396 -1.5515 0
M  V30 4082 H 394.513 -3.63964 0.438812 0
M  V30 4083 H 394.161 -4.69682 -1.80022 0
M  V30 4084 H 393.861 -5.85625 -0.481378 0
M  V30 4085 H 395.385 -5.94098 -1.40995 0
M  V30 4086 H 396.799 -5.67034 0.845307 0
M  V30 4087 H 395.196 -5.77554 1.62947 0
M  V30 4088 H 396.266 -4.41365 2.00811 0
M  V30 4089 N 397.609 -0.515225 -1.4894 0
M  V30 4090 C 398.519 0.259774 -2.33157 0
M  V30 4091 C 399.535 0.953501 -1.45548 0
M  V30 4092 O 400.711 0.931735 -1.78552 0
M  V30 4093 C 397.776 1.30193 -3.21326 0
M  V30 4094 C 396.837 0.620129 -4.24797 0
M  V30 4095 C 396.07 1.61263 -5.08753 0
M  V30 4096 O 396.293 2.84389 -4.94448 0
M  V30 4097 O 395.227 1.16013 -5.90614 0
M  V30 4098 H 399.053 -0.429932 -3.00641 0
M  V30 4099 H 396.638 -0.276346 -1.46822 0
M  V30 4100 H 398.52 1.90455 -3.75905 0
M  V30 4101 H 397.195 1.97431 -2.56521 0
M  V30 4102 H 396.102 -0.0226019 -3.74093 0
M  V30 4103 H 397.435 -0.0100493 -4.92199 0
M  V30 4104 N 399.087 1.5561 -0.249682 0
M  V30 4105 C 400.019 2.18834 0.681496 0
M  V30 4106 C 401.032 1.16546 1.1367 0
M  V30 4107 O 402.221 1.43397 1.06299 0
M  V30 4108 C 399.321 2.77992 1.9384 0
M  V30 4109 C 398.494 4.05725 1.63419 0
M  V30 4110 C 397.553 4.49174 2.74096 0
M  V30 4111 O 396.579 5.15492 2.41364 0
M  V30 4112 N 397.781 4.17191 4.03649 0
M  V30 4113 H 400.546 2.9937 0.140514 0
M  V30 4114 H 398.107 1.6175 -0.0697541 0
M  V30 4115 H 400.099 3.04015 2.67127 0
M  V30 4116 H 398.669 2.01596 2.38909 0
M  V30 4117 H 397.889 3.87261 0.736358 0
M  V30 4118 H 399.177 4.88999 1.40562 0
M  V30 4119 H 398.575 3.63955 4.33074 0
M  V30 4120 H 397.132 4.48043 4.73393 0
M  V30 4121 N 400.565 -0.0233959 1.57583 0
M  V30 4122 C 401.976 -0.56927 1.77809 0
M  V30 4123 C 402.327 -1.75284 0.881472 0
M  V30 4124 O 401.452 -2.1626 0.0777805 0
M  V30 4125 C 402.047 -1.03949 3.22459 0
M  V30 4126 C 400.606 -1.53084 3.43864 0
M  V30 4127 C 399.753 -0.471454 2.73263 0
M  V30 4128 H 402.704 0.202825 1.57399 0
M  V30 4129 H 402.725 -1.90661 3.29285 0
M  V30 4130 H 402.237 -0.177865 3.87692 0
M  V30 4131 H 400.338 -2.41414 2.83814 0
M  V30 4132 H 400.451 -1.57443 4.52491 0
M  V30 4133 H 398.815 -0.927788 2.37201 0
M  V30 4134 H 399.598 0.380808 3.41181 0
M  V30 4135 N 402.043 -1.548 -0.295768 0
M  V30 4136 C 403.454 -1.65274 -0.868411 0
M  V30 4137 C 403.805 -0.56481 -1.87894 0
M  V30 4138 O 402.93 0.29767 -2.14343 0
M  V30 4139 C 403.525 -2.99603 -1.58188 0
M  V30 4140 C 402.084 -3.12181 -2.10286 0
M  V30 4141 C 401.231 -2.6098 -0.93727 0
M  V30 4142 H 404.182 -1.58534 -0.0726422 0
M  V30 4143 H 404.203 -2.91319 -2.44772 0
M  V30 4144 H 403.715 -3.78764 -0.846151 0
M  V30 4145 H 401.816 -2.3775 -2.8689 0
M  V30 4146 H 401.929 -4.18415 -2.33379 0
M  V30 4147 H 400.293 -2.17564 -1.32431 0
M  V30 4148 H 401.076 -3.42623 -0.215414 0
M  V30 4149 N 403.521 0.559213 -1.47345 0
M  V30 4150 C 404.932 1.14134 -1.47751 0
M  V30 4151 C 405.283 1.94834 -0.231103 0
M  V30 4152 O 404.408 2.05957 0.664137 0
M  V30 4153 C 405.003 2.07653 -2.67705 0
M  V30 4154 C 403.562 2.61141 -2.71076 0
M  V30 4155 C 402.709 1.3748 -2.40821 0
M  V30 4156 H 405.66 0.345917 -1.54884 0
M  V30 4157 H 405.681 2.91497 -2.44561 0
M  V30 4158 H 405.193 1.4889 -3.58404 0
M  V30 4159 H 403.294 3.23707 -1.84511 0
M  V30 4160 H 403.407 3.02272 -3.7171 0
M  V30 4161 H 401.771 1.68086 -1.91362 0
M  V30 4162 H 402.554 0.805135 -3.33725 0
M  V30 4163 N 404.999 1.35443 0.805782 0
M  V30 4164 C 406.224 1.32037 1.59941 0
M  V30 4165 C 406.649 -0.0994215 1.87837 0
M  V30 4166 O 406.007 -1.06648 1.46615 0
M  V30 4167 C 406.055 2.13354 2.90711 0
M  V30 4168 O 405.159 1.5148 3.83572 0
M  V30 4169 H 404.5 0.452666 0.485787 0
M  V30 4170 H 407.03 1.78496 1.00002 0
M  V30 4171 H 407.04 2.25338 3.40128 0
M  V30 4172 H 405.715 3.16572 2.69732 0
M  V30 4173 H 404.292 1.4834 3.42125 0
M  V30 4174 N 406.477 -1.02803 1.19454 0
M  V30 4175 C 407.425 -2.13213 0.929673 0
M  V30 4176 C 408.419 -1.69011 -0.114806 0
M  V30 4177 O 409.625 -1.79967 0.0345147 0
M  V30 4178 H 406 -0.69662 0.28324 0
M  V30 4179 H 407.971 -2.32744 1.86743 0
M  V30 4180 C 406.72 -3.4429 0.485797 0
M  V30 4181 H 406.043 -3.7872 1.28105 0
M  V30 4182 H 407.483 -4.22638 0.339582 0
M  V30 4183 C 405.942 -3.27258 -0.800244 0
M  V30 4184 O 406.472 -3.55967 -1.86146 0
M  V30 4185 N 404.678 -2.80545 -0.75781 0
M  V30 4186 H 404.225 -2.57382 0.106039 0
M  V30 4187 H 404.183 -2.6953 -1.61867 0
M  V30 4188 N 407.956 -0.998596 -1.21925 0
M  V30 4189 C 408.866 -0.562736 -2.27751 0
M  V30 4190 C 409.882 0.391203 -1.69545 0
M  V30 4191 O 411.058 0.256625 -1.99758 0
M  V30 4192 C 408.123 0.11012 -3.46525 0
M  V30 4193 C 407.184 -0.887495 -4.20026 0
M  V30 4194 C 406.417 -0.246654 -5.3313 0
M  V30 4195 O 406.64 0.958088 -5.62296 0
M  V30 4196 O 405.574 -0.954374 -5.94286 0
M  V30 4197 H 409.4 -1.44329 -2.67213 0
M  V30 4198 H 406.985 -0.767135 -1.28201 0
M  V30 4199 H 408.867 0.486756 -4.18579 0
M  V30 4200 H 407.542 0.965154 -3.08976 0
M  V30 4201 H 406.449 -1.31517 -3.5022 0
M  V30 4202 H 407.782 -1.71191 -4.6147 0
M  V30 4203 N 409.434 1.37368 -0.772513 0
M  V30 4204 C 410.344 2.34053 -0.160081 0
M  V30 4205 C 411.36 1.60216 0.678728 0
M  V30 4206 O 412.536 1.92303 0.59847 0
M  V30 4207 C 409.601 3.3939 0.708182 0
M  V30 4208 C 408.662 4.29048 -0.147172 0
M  V30 4209 C 407.895 5.29354 0.679744 0
M  V30 4210 O 408.118 5.3723 1.91678 0
M  V30 4211 O 407.052 6.01835 0.0885444 0
M  V30 4212 H 410.878 2.88159 -0.959053 0
M  V30 4213 H 408.463 1.39543 -0.533685 0
M  V30 4214 H 410.345 4.03839 1.20384 0
M  V30 4215 H 409.02 2.8761 1.48533 0
M  V30 4216 H 407.927 3.67697 -0.689205 0
M  V30 4217 H 409.26 4.84134 -0.887423 0
M  V30 4218 N 410.912 0.523116 1.48665 0
M  V30 4219 C 411.822 -0.247406 2.33292 0
M  V30 4220 C 412.838 -0.945769 1.46052 0
M  V30 4221 O 414.014 -0.922253 1.79043 0
M  V30 4222 C 411.079 -1.28487 3.22012 0
M  V30 4223 C 410.14 -0.597592 4.2512 0
M  V30 4224 C 409.373 -1.58563 5.09601 0
M  V30 4225 O 409.596 -2.81763 4.95949 0
M  V30 4226 O 408.53 -1.12879 5.91221 0
M  V30 4227 H 412.356 0.445869 3.00409 0
M  V30 4228 H 409.941 0.284128 1.46673 0
M  V30 4229 H 411.823 -1.88459 3.7691 0
M  V30 4230 H 410.498 -1.96068 2.57564 0
M  V30 4231 H 409.405 0.0424407 3.74076 0
M  V30 4232 H 410.738 0.0361517 4.92187 0
M  V30 4233 N 412.39 -1.55475 0.257931 0
M  V30 4234 C 413.338 -2.23244 -0.653076 0
M  V30 4235 C 414.332 -1.22366 -1.17144 0
M  V30 4236 O 415.538 -1.40347 -1.12706 0
M  V30 4237 H 411.913 -0.716247 -0.229117 0
M  V30 4238 H 413.884 -2.98343 -0.0584788 0
M  V30 4239 C 412.633 -2.95401 -1.83395 0
M  V30 4240 H 411.956 -3.72802 -1.44424 0
M  V30 4241 H 413.396 -3.46165 -2.44838 0
M  V30 4242 C 411.855 -1.99895 -2.71189 0
M  V30 4243 O 412.385 -1.53909 -3.71046 0
M  V30 4244 N 410.591 -1.6676 -2.3799 0
M  V30 4245 H 410.138 -2.04352 -1.56837 0
M  V30 4246 H 410.096 -1.03127 -2.97005 0
M  V30 4247 N 413.868 0.0150385 -1.57593 0
M  V30 4248 C 415.114 0.704043 -1.90187 0
M  V30 4249 C 415.447 1.74249 -0.857366 0
M  V30 4250 O 414.722 1.94092 0.125843 0
M  V30 4251 C 415.005 1.36087 -3.33395 0
M  V30 4252 C 414.858 0.334981 -4.48551 0
M  V30 4253 C 416.177 2.29112 -3.7576 0
M  V30 4254 H 413.296 0.254475 -0.691673 0
M  V30 4255 H 415.938 -0.0331678 -1.89971 0
M  V30 4256 H 414.088 1.98922 -3.3371 0
M  V30 4257 H 415.76 -0.292534 -4.60372 0
M  V30 4258 H 414.003 -0.344325 -4.32431 0
M  V30 4259 H 414.674 0.833316 -5.45674 0
M  V30 4260 H 417.15 1.76308 -3.76902 0
M  V30 4261 H 416.026 2.72043 -4.76743 0
M  V30 4262 H 416.287 3.16385 -3.08793 0
M  V30 4263 N 415.346 1.54954 0.287554 0
M  V30 4264 C 416.293 1.86834 1.35505 0
M  V30 4265 C 417.263 0.718452 1.49758 0
M  V30 4266 O 418.448 0.968358 1.644 0
M  V30 4267 C 415.588 2.13303 2.71286 0
M  V30 4268 C 414.701 3.40883 2.65373 0
M  V30 4269 C 413.836 3.57125 3.93236 0
M  V30 4270 C 412.875 4.78449 3.81776 0
M  V30 4271 N 412.012 4.91426 5.01443 0
M  V30 4272 H 416.852 2.77889 1.07619 0
M  V30 4273 H 414.389 1.37593 0.520241 0
M  V30 4274 H 416.347 2.26646 3.50267 0
M  V30 4275 H 414.977 1.25499 2.97405 0
M  V30 4276 H 414.029 3.36088 1.78182 0
M  V30 4277 H 415.341 4.29993 2.52799 0
M  V30 4278 H 414.495 3.70207 4.80658 0
M  V30 4279 H 413.234 2.66173 4.0866 0
M  V30 4280 H 412.239 4.65386 2.92738 0
M  V30 4281 H 413.464 5.70822 3.67884 0
M  V30 4282 H 411.41 4.03401 5.17304 0
M  V30 4283 H 411.327 5.74559 4.91343 0
M  V30 4284 H 412.595 5.08879 5.90477 0
M  V30 4285 N 416.824 -0.551391 1.4764 0
M  V30 4286 C 417.754 -1.66757 1.63445 0
M  V30 4287 C 418.735 -1.63077 0.483742 0
M  V30 4288 O 419.92 -1.80607 0.71377 0
M  V30 4289 C 417.05 -3.05387 1.65396 0
M  V30 4290 C 416.004 -3.23918 2.79752 0
M  V30 4291 C 415.33 -4.63393 2.66779 0
M  V30 4292 C 416.63 -3.08735 4.21284 0
M  V30 4293 H 418.324 -1.53786 2.56886 0
M  V30 4294 H 415.87 -0.738415 1.23626 0
M  V30 4295 H 417.823 -3.83325 1.75043 0
M  V30 4296 H 416.547 -3.19332 0.685195 0
M  V30 4297 H 415.206 -2.48391 2.69625 0
M  V30 4298 H 414.854 -4.74144 1.67918 0
M  V30 4299 H 414.554 -4.7674 3.43501 0
M  V30 4300 H 416.078 -5.43458 2.78364 0
M  V30 4301 H 417.492 -3.76484 4.32357 0
M  V30 4302 H 415.889 -3.33588 4.98838 0
M  V30 4303 H 416.959 -2.0541 4.39243 0
M  V30 4304 N 418.302 -1.35869 -0.798587 0
M  V30 4305 C 419.265 -1.29307 -1.89242 0
M  V30 4306 C 420.265 -0.202747 -1.59517 0
M  V30 4307 O 421.455 -0.456957 -1.681 0
M  V30 4308 C 418.587 -1.00229 -3.25833 0
M  V30 4309 H 419.78 -2.26576 -1.96478 0
M  V30 4310 H 417.333 -1.20509 -0.995358 0
M  V30 4311 H 418.068 -0.033801 -3.24282 0
M  V30 4312 H 417.853 -1.79121 -3.48795 0
M  V30 4313 H 419.343 -0.98219 -4.05885 0
M  V30 4314 N 419.78 1.02168 -1.19998 0
M  V30 4315 C 420.73 2.08969 -0.911921 0
M  V30 4316 C 421.714 1.60404 0.12621 0
M  V30 4317 O 422.906 1.76817 -0.0804706 0
M  V30 4318 C 420.035 3.402 -0.460277 0
M  V30 4319 C 419.121 3.9548 -1.53155 0
M  V30 4320 N 419.512 4.24332 -2.75275 0
M  V30 4321 C 417.81 4.23572 -1.39653 0
M  V30 4322 C 418.511 4.68834 -3.44339 0
M  V30 4323 N 417.487 4.70804 -2.71744 0
M  V30 4324 H 421.289 2.29178 -1.83997 0
M  V30 4325 H 418.803 1.20094 -1.09322 0
M  V30 4326 H 420.8 4.16235 -0.235337 0
M  V30 4327 H 419.46 3.21408 0.4612 0
M  V30 4328 H 420.471 4.13393 -3.11973 0
M  V30 4329 H 417.148 4.14005 -0.539067 0
M  V30 4330 H 418.538 5.00019 -4.4881 0
M  V30 4331 N 421.258 1.00505 1.21394 0
M  V30 4332 C 422.504 0.688793 1.90745 0
M  V30 4333 C 422.837 -0.778486 1.77914 0
M  V30 4334 O 422.112 -1.56433 1.15581 0
M  V30 4335 C 422.395 1.11063 3.42545 0
M  V30 4336 C 422.248 2.63737 3.64367 0
M  V30 4337 C 423.567 0.673059 4.34923 0
M  V30 4338 H 420.686 0.251702 0.692687 0
M  V30 4339 H 423.328 1.25074 1.43026 0
M  V30 4340 H 421.478 0.632508 3.83317 0
M  V30 4341 H 423.15 3.19313 3.32922 0
M  V30 4342 H 421.393 3.05248 3.08231 0
M  V30 4343 H 422.064 2.88305 4.70727 0
M  V30 4344 H 424.54 1.08392 4.01734 0
M  V30 4345 H 423.416 0.996383 5.39781 0
M  V30 4346 H 423.677 -0.425808 4.40045 0
M  V30 4347 N 422.737 -1.36956 0.779787 0
M  V30 4348 C 423.684 -2.30175 0.169697 0
M  V30 4349 C 424.654 -1.51501 -0.68094 0
M  V30 4350 O 425.839 -1.80042 -0.631629 0
M  V30 4351 C 422.979 -3.37985 -0.697131 0
M  V30 4352 C 422.092 -4.31661 0.170992 0
M  V30 4353 C 421.227 -5.2655 -0.701298 0
M  V30 4354 C 420.266 -6.11867 0.168869 0
M  V30 4355 N 419.403 -6.98973 -0.661855 0
M  V30 4356 H 424.243 -2.81767 0.970135 0
M  V30 4357 H 421.78 -1.38699 0.489994 0
M  V30 4358 H 423.738 -3.99128 -1.2146 0
M  V30 4359 H 422.368 -2.87739 -1.46309 0
M  V30 4360 H 421.42 -3.71756 0.80634 0
M  V30 4361 H 422.732 -4.91644 0.841875 0
M  V30 4362 H 421.886 -5.92937 -1.28494 0
M  V30 4363 H 420.625 -4.66998 -1.40584 0
M  V30 4364 H 419.63 -5.44452 0.764986 0
M  V30 4365 H 420.855 -6.73493 0.870863 0
M  V30 4366 H 418.801 -6.41941 -1.35086 0
M  V30 4367 H 418.718 -7.55984 -0.0484447 0
M  V30 4368 H 419.986 -7.6974 -1.22963 0
M  V30 4369 N 424.215 -0.530993 -1.48385 0
M  V30 4370 C 425.165 0.251092 -2.26613 0
M  V30 4371 C 426.149 0.908977 -1.32765 0
M  V30 4372 O 427.341 0.811616 -1.57295 0
M  V30 4373 C 424.47 1.29677 -3.17866 0
M  V30 4374 C 423.556 0.643627 -4.19188 0
M  V30 4375 N 423.947 -0.271223 -5.05072 0
M  V30 4376 C 422.245 0.900711 -4.3681 0
M  V30 4377 C 422.946 -0.648109 -5.78078 0
M  V30 4378 N 421.922 -0.00895987 -5.43599 0
M  V30 4379 H 425.724 -0.452702 -2.90393 0
M  V30 4380 H 423.238 -0.349091 -1.58604 0
M  V30 4381 H 425.235 1.87079 -3.72568 0
M  V30 4382 H 423.895 2.00193 -2.55642 0
M  V30 4383 H 424.906 -0.643883 -5.13882 0
M  V30 4384 H 421.583 1.59636 -3.85775 0
M  V30 4385 H 422.973 -1.39833 -6.57188 0
M  V30 4386 N 425.693 1.55336 -0.266172 0
M  V30 4387 C 426.64 2.22172 0.625165 0
M  V30 4388 C 427.61 1.19211 1.15663 0
M  V30 4389 O 428.795 1.47723 1.20758 0
M  V30 4390 C 425.935 2.93972 1.8076 0
M  V30 4391 C 425.048 4.11632 1.31084 0
M  V30 4392 C 424.183 4.71099 2.45436 0
M  V30 4393 C 423.222 5.8097 1.92718 0
M  V30 4394 N 422.359 6.34538 3.00509 0
M  V30 4395 H 427.199 2.9796 0.0485582 0
M  V30 4396 H 424.736 1.47095 0.0122024 0
M  V30 4397 H 426.694 3.33811 2.50251 0
M  V30 4398 H 425.324 2.20623 2.35638 0
M  V30 4399 H 424.376 3.76975 0.509326 0
M  V30 4400 H 425.688 4.90893 0.884633 0
M  V30 4401 H 424.842 5.13612 3.22936 0
M  V30 4402 H 423.581 3.91096 2.91368 0
M  V30 4403 H 422.586 5.37916 1.13695 0
M  V30 4404 H 423.811 6.62836 1.47733 0
M  V30 4405 H 421.757 5.57433 3.45839 0
M  V30 4406 H 421.674 7.09046 2.62279 0
M  V30 4407 H 422.942 6.81709 3.78011 0
M  V30 4408 N 427.171 -0.0066808 1.57599 0
M  V30 4409 C 428.081 -1.01671 2.11424 0
M  V30 4410 C 429.097 -1.38143 1.05795 0
M  V30 4411 O 430.273 -1.47011 1.37658 0
M  V30 4412 C 427.338 -2.29192 2.60139 0
M  V30 4413 C 426.399 -1.99094 3.80342 0
M  V30 4414 C 425.632 -3.20535 4.26724 0
M  V30 4415 O 425.855 -4.3199 3.72479 0
M  V30 4416 O 424.789 -3.04924 5.18946 0
M  V30 4417 H 428.615 -0.589181 2.9793 0
M  V30 4418 H 426.2 -0.225091 1.47695 0
M  V30 4419 H 428.082 -3.0412 2.917 0
M  V30 4420 H 426.757 -2.71195 1.76733 0
M  V30 4421 H 425.664 -1.21663 3.53764 0
M  V30 4422 H 426.997 -1.61931 4.648 0
M  V30 4423 N 428.649 -1.55105 -0.279332 0
M  V30 4424 C 429.581 -1.83952 -1.36727 0
M  V30 4425 C 430.594 -0.723642 -1.45833 0
M  V30 4426 O 431.783 -1.00141 -1.47763 0
M  V30 4427 C 428.883 -1.98183 -2.74912 0
M  V30 4428 C 428.056 -3.28787 -2.88475 0
M  V30 4429 C 427.115 -3.33162 -4.07295 0
M  V30 4430 O 426.141 -4.06576 -3.98353 0
M  V30 4431 N 427.343 -2.60109 -5.18964 0
M  V30 4432 H 430.108 -2.77853 -1.12328 0
M  V30 4433 H 427.669 -1.54945 -0.469442 0
M  V30 4434 H 429.661 -1.98488 -3.52682 0
M  V30 4435 H 428.231 -1.11177 -2.92162 0
M  V30 4436 H 427.451 -3.41075 -1.97641 0
M  V30 4437 H 428.739 -4.14933 -2.94463 0
M  V30 4438 H 428.137 -2.00136 -5.29115 0
M  V30 4439 H 426.694 -2.66143 -5.94988 0
M  V30 4440 N 430.127 0.543554 -1.4793 0
M  V30 4441 C 431.376 1.29649 -1.54512 0
M  V30 4442 C 431.689 1.94382 -0.217973 0
M  V30 4443 O 432.895 2.71017 -0.161908 0
M  V30 4444 C 431.351 2.35175 -2.72435 0
M  V30 4445 C 430.959 1.76572 -4.11736 0
M  V30 4446 C 432.703 3.11564 -2.8832 0
M  V30 4447 C 430.61 2.79958 -5.20939 0
M  V30 4448 H 429.54 0.487541 -0.57517 0
M  V30 4449 H 432.191 0.575708 -1.74235 0
M  V30 4450 H 430.573 3.10229 -2.46118 0
M  V30 4451 H 431.747 1.07799 -4.48013 0
M  V30 4452 H 430.062 1.12722 -4.00852 0
M  V30 4453 H 432.659 3.88794 -3.67074 0
M  V30 4454 H 433.002 3.66594 -1.97268 0
M  V30 4455 H 433.535 2.43623 -3.14472 0
M  V30 4456 H 430.274 2.29766 -6.13912 0
M  V30 4457 H 429.794 3.47101 -4.89164 0
M  V30 4458 H 431.473 3.43198 -5.48474 0
M  V30 4459 O 431.644 1.46095 0.688375 0
M  V30 4460 H 432.335 1.39822 1.34051 0
M  V30 END ATOM
M  V30 BEGIN BOND
M  V30 END BOND
M  V30 END CTAB
M  END
$$$$
