drugbank_target|Q92506 Estradiol 17-beta-dehydrogenase 8 (DB00157; DB03461)
 OpenBabel12092119353D

  0  0  0     0  0            999 V3000
M  V30 BEGIN CTAB
M  V30 COUNTS 3794 3818 0 0 0
M  V30 BEGIN ATOM
M  V30 1 H -0.908 1.98254 -0.117106 0
M  V30 2 N 0 1.576 0 0
M  V30 3 C 0.933 2.03868 1.02534 0
M  V30 4 C 1.911 0.928543 1.3348 0
M  V30 5 O 3.095 1.19667 1.45644 0
M  V30 6 C 0.222 2.43627 2.35294 0
M  V30 7 C -0.732 3.65373 2.2001 0
M  V30 8 S 0.101 5.13292 1.52614 0
M  V30 9 C 1.257 5.56322 2.86805 0
M  V30 10 H 1.49 2.90518 0.631377 0
M  V30 11 H -0.977 1.52953 0.210867 0
M  V30 12 H 0.981 2.67203 3.11629 0
M  V30 13 H -0.358 1.57376 2.7183 0
M  V30 14 H -1.165 3.90944 3.18086 0
M  V30 15 H -1.563 3.418 1.51819 0
M  V30 16 H 0.729 5.58782 3.83104 0
M  V30 17 H 1.672 6.56266 2.65933 0
M  V30 18 H 2.08 4.83886 2.90714 0
M  V30 19 N 1.4781 -0.272755 1.55222 0
M  V30 20 C 2.4411 -1.32041 1.87344 0
M  V30 21 C 3.4411 -1.42342 0.74803 0
M  V30 22 O 4.6311 -1.41488 1.0162 0
M  V30 23 C 1.7631 -2.70173 2.07893 0
M  V30 24 H 2.9561 -1.04789 2.80997 0
M  V30 25 H 0.5091 -0.51083 1.47717 0
M  V30 26 H 1.2441 -3.02605 1.16622 0
M  V30 27 H 1.0291 -2.64082 2.89833 0
M  V30 28 H 2.5191 -3.45869 2.34017 0
M  V30 29 N 2.9562 -1.48159 -0.537278 0
M  V30 30 C 4.1812 -1.59707 -1.32319 0
M  V30 31 C 4.6062 -0.254859 -1.86365 0
M  V30 32 O 3.9642 0.772378 -1.64024 0
M  V30 33 C 4.0122 -2.6412 -2.45505 0
M  V30 34 O 3.1162 -2.20774 -3.48328 0
M  V30 35 H 2.4572 -0.535791 -0.392204 0
M  V30 36 H 4.9872 -1.94092 -0.647268 0
M  V30 37 H 4.9972 -2.85166 -2.91795 0
M  V30 38 H 3.6722 -3.61567 -2.05528 0
M  V30 39 H 2.2492 -2.09911 -3.08207 0
M  V30 40 N 4.4343 0.785586 -1.36625 0
M  V30 41 C 5.3663 1.90711 -1.2713 0
M  V30 42 C 6.3793 1.61688 -0.189986 0
M  V30 43 O 7.5683 1.72864 -0.445014 0
M  V30 44 C 4.6683 3.25611 -0.939713 0
M  V30 45 C 3.8413 3.82385 -2.12369 0
M  V30 46 C 2.9003 4.95732 -1.76456 0
M  V30 47 O 1.9263 5.12047 -2.48589 0
M  V30 48 N 3.1283 5.76258 -0.700492 0
M  V30 49 H 5.8933 1.99376 -2.23762 0
M  V30 50 H 3.4543 0.964041 -1.30069 0
M  V30 51 H 5.4463 3.98937 -0.680554 0
M  V30 52 H 4.0163 3.12538 -0.0624074 0
M  V30 53 H 3.2363 3.01001 -2.54543 0
M  V30 54 H 4.5243 4.17047 -2.9146 0
M  V30 55 H 3.9223 5.65609 -0.101624 0
M  V30 56 H 2.4793 6.4987 -0.501165 0
M  V30 57 N 5.9124 1.20967 1.01018 0
M  V30 58 C 6.8424 0.988272 2.11555 0
M  V30 59 C 7.8234 -0.0849778 1.69888 0
M  V30 60 O 9.0084 0.0738202 1.9406 0
M  V30 61 C 6.1384 0.546528 3.42973 0
M  V30 62 C 5.0924 1.56375 3.9841 0
M  V30 63 C 4.4184 0.97842 5.25672 0
M  V30 64 C 5.7184 2.94922 4.31066 0
M  V30 65 H 7.4124 1.91276 2.30334 0
M  V30 66 H 4.9584 0.921073 1.1069 0
M  V30 67 H 6.9114 0.378839 4.19694 0
M  V30 68 H 5.6354 -0.413598 3.23971 0
M  V30 69 H 4.2944 1.71891 3.23804 0
M  V30 70 H 3.9424 0.0101688 5.02999 0
M  V30 71 H 3.6424 1.65784 5.63728 0
M  V30 72 H 5.1664 0.821939 6.05043 0
M  V30 73 H 6.5804 2.8288 4.9865 0
M  V30 74 H 4.9774 3.5983 4.80253 0
M  V30 75 H 6.0474 3.4616 3.39561 0
M  V30 76 N 7.3905 -1.2043 1.01659 0
M  V30 77 C 8.3225 -2.22626 0.544988 0
M  V30 78 C 9.3355 -1.58479 -0.372609 0
M  V30 79 O 10.5245 -1.77679 -0.170958 0
M  V30 80 C 7.6245 -3.38141 -0.22663 0
M  V30 81 C 6.7975 -4.31877 0.692876 0
M  V30 82 C 5.8565 -5.26191 -0.0311616 0
M  V30 83 O 4.8825 -5.6612 0.591343 0
M  V30 84 N 6.0845 -5.65618 -1.30601 0
M  V30 85 H 8.8495 -2.63716 1.42388 0
M  V30 86 H 6.4105 -1.34971 0.894116 0
M  V30 87 H 8.4025 -3.98239 -0.72024 0
M  V30 88 H 6.9725 -2.95943 -1.00681 0
M  V30 89 H 6.1925 -3.69746 1.36679 0
M  V30 90 H 7.4805 -4.91426 1.31824 0
M  V30 91 H 6.8785 -5.3519 -1.83269 0
M  V30 92 H 5.4355 -6.28025 -1.74435 0
M  V30 93 N 8.8686 -0.792821 -1.36206 0
M  V30 94 C 9.8166 -0.181555 -2.3189 0
M  V30 95 C 10.8106 0.661025 -1.55971 0
M  V30 96 O 12.0166 0.555728 -1.71206 0
M  V30 97 H 8.3916 -0.0399382 -0.750939 0
M  V30 98 H 10.3626 -1.00394 -2.81005 0
M  V30 99 C 9.1116 0.666444 -3.41253 0
M  V30 100 H 8.4346 0.0274489 -3.99791 0
M  V30 101 H 9.8746 1.06076 -4.10517 0
M  V30 102 C 8.3336 1.82614 -2.83114 0
M  V30 103 O 8.8636 2.9229 -2.75553 0
M  V30 104 N 7.0696 1.63333 -2.40356 0
M  V30 105 H 6.6166 0.741217 -2.46706 0
M  V30 106 H 6.5746 2.41087 -2.01803 0
M  V30 107 N 10.3467 1.47872 -0.545128 0
M  V30 108 C 11.7627 1.5829 -0.204032 0
M  V30 109 C 11.9627 1.54529 1.29317 0
M  V30 110 O 11.0187 1.44232 2.07252 0
M  V30 111 C 12.3317 2.89304 -0.819987 0
M  V30 112 C 13.8797 3.02864 -0.790105 0
M  V30 113 C 14.3547 4.3656 -1.38491 0
M  V30 114 N 15.8457 4.43165 -1.34755 0
M  V30 115 C 16.5807 5.45153 -1.77753 0
M  V30 116 N 16.0767 6.54016 -2.2855 0
M  V30 117 N 17.8697 5.36125 -1.68897 0
M  V30 118 H 10.0207 1.4856 -1.51802 0
M  V30 119 H 12.2837 0.706305 -0.632327 0
M  V30 120 H 11.9897 2.97757 -1.87173 0
M  V30 121 H 11.8637 3.75957 -0.305915 0
M  V30 122 H 14.2507 2.94014 0.252913 0
M  V30 123 H 14.3317 2.17782 -1.34181 0
M  V30 124 H 13.9757 4.46164 -2.42693 0
M  V30 125 H 13.9057 5.20353 -0.808754 0
M  V30 126 H 16.3967 3.65083 -0.975855 0
M  V30 127 H 16.7097 7.27994 -2.59314 0
M  V30 128 H 15.0547 6.54938 -2.32553 0
M  V30 129 H 18.2457 4.49975 -1.28998 0
M  V30 130 H 18.4187 6.15472 -2.02726 0
M  V30 131 N 11.8248 0.280983 1.55075 0
M  V30 132 C 12.7548 -0.597469 2.25727 0
M  V30 133 C 13.7358 -1.15417 1.24952 0
M  V30 134 O 14.9208 -1.18722 1.53684 0
M  V30 135 C 12.0508 -1.7789 2.98283 0
M  V30 136 C 11.0048 -1.35347 4.06036 0
M  V30 137 C 10.3308 -2.61846 4.66198 0
M  V30 138 C 11.6308 -0.499354 5.19907 0
M  V30 139 H 13.3248 -0.00824265 2.99399 0
M  V30 140 H 10.8708 -0.0025244 1.44 0
M  V30 141 H 12.8238 -2.39937 3.46422 0
M  V30 142 H 11.5478 -2.39405 2.22155 0
M  V30 143 H 10.2068 -0.756156 3.58717 0
M  V30 144 H 9.8548 -3.21632 3.86732 0
M  V30 145 H 9.5548 -2.3409 5.38958 0
M  V30 146 H 11.0788 -3.24732 5.1709 0
M  V30 147 H 12.4928 -1.02498 5.64063 0
M  V30 148 H 10.8898 -0.316424 5.99265 0
M  V30 149 H 11.9598 0.480459 4.82514 0
M  V30 150 N 13.3029 -1.57598 0.00835791 0
M  V30 151 C 14.7189 -1.55764 -0.347822 0
M  V30 152 C 14.9189 -1.01186 -1.74252 0
M  V30 153 O 13.9749 -0.649371 -2.44007 0
M  V30 154 C 15.2879 -2.99927 -0.215407 0
M  V30 155 C 16.8359 -3.11656 -0.289725 0
M  V30 156 C 17.3109 -4.57621 -0.18634 0
M  V30 157 N 18.8019 -4.62557 -0.243978 0
M  V30 158 C 19.5369 -5.73094 -0.18745 0
M  V30 159 N 19.0329 -6.92753 -0.0810331 0
M  V30 160 N 20.8259 -5.61588 -0.239925 0
M  V30 161 H 12.9769 -1.91411 0.92062 0
M  V30 162 H 15.2399 -0.879562 0.353659 0
M  V30 163 H 14.9459 -3.43729 0.744512 0
M  V30 164 H 14.8199 -3.63865 -0.994097 0
M  V30 165 H 17.2069 -2.67779 -1.24009 0
M  V30 166 H 17.2879 -2.5048 0.51898 0
M  V30 167 H 16.9319 -5.02174 0.760519 0
M  V30 168 H 16.8619 -5.16752 -1.01364 0
M  V30 169 H 19.3529 -3.76481 -0.327217 0
M  V30 170 H 19.6659 -7.72787 -0.0440241 0
M  V30 171 H 18.0109 -6.94984 -0.0465419 0
M  V30 172 H 21.2019 -4.66996 -0.321317 0
M  V30 173 H 21.3749 -6.47714 -0.192407 0
M  V30 174 N 14.781 0.264519 -1.55364 0
M  V30 175 C 16.006 1.01726 -1.80739 0
M  V30 176 C 16.431 1.78836 -0.583044 0
M  V30 177 O 15.789 1.75167 0.467566 0
M  V30 178 C 15.837 1.94482 -3.03659 0
M  V30 179 O 14.941 3.03386 -2.7934 0
M  V30 180 H 14.282 0.290395 -0.597132 0
M  V30 181 H 16.812 0.290854 -2.02522 0
M  V30 182 H 16.822 2.36278 -3.32621 0
M  V30 183 H 15.497 1.37772 -3.92418 0
M  V30 184 H 14.074 2.65844 -2.61498 0
M  V30 185 N 16.2591 1.48442 0.529413 0
M  V30 186 C 17.2221 1.62524 1.61612 0
M  V30 187 C 18.2221 0.498509 1.52877 0
M  V30 188 O 19.4121 0.76431 1.56537 0
M  V30 189 C 16.5441 1.59597 3.01233 0
M  V30 190 H 17.7371 2.59423 1.50465 0
M  V30 191 H 15.2901 1.37047 0.751514 0
M  V30 192 H 16.0251 0.641781 3.17886 0
M  V30 193 H 15.8101 2.41397 3.08982 0
M  V30 194 H 17.3001 1.72646 3.80241 0
M  V30 195 N 17.7372 -0.778329 1.37039 0
M  V30 196 C 18.6672 -1.90546 1.34962 0
M  V30 197 C 19.6482 -1.68681 0.219274 0
M  V30 198 O 20.8332 -1.89634 0.418624 0
M  V30 199 C 17.9632 -3.27734 1.14925 0
M  V30 200 C 16.9172 -3.64147 2.24902 0
M  V30 201 C 16.2432 -4.99806 1.89996 0
M  V30 202 C 17.5432 -3.71579 3.67051 0
M  V30 203 H 19.2372 -1.92541 2.29277 0
M  V30 204 H 16.7832 -0.924948 1.10366 0
M  V30 205 H 18.7362 -4.06215 1.12104 0
M  V30 206 H 17.4602 -3.26154 0.170631 0
M  V30 207 H 16.1192 -2.8797 2.26868 0
M  V30 208 H 15.7672 -4.94759 0.906796 0
M  V30 209 H 15.4672 -5.25139 2.63634 0
M  V30 210 H 16.9912 -5.80694 1.88749 0
M  V30 211 H 18.4052 -4.40227 3.67251 0
M  V30 212 H 16.8022 -4.08405 4.39688 0
M  V30 213 H 17.8722 -2.72404 4.01154 0
M  V30 214 N 19.2153 -1.21501 -1.00376 0
M  V30 215 C 20.1783 -0.976927 -2.07337 0
M  V30 216 C 21.1783 0.0525322 -1.60714 0
M  V30 217 O 22.3683 -0.184869 -1.73216 0
M  V30 218 C 19.5003 -0.473423 -3.37597 0
M  V30 219 H 20.6933 -1.92587 -2.29892 0
M  V30 220 H 18.2463 -1.03217 -1.17371 0
M  V30 221 H 18.9813 0.480379 -3.20722 0
M  V30 222 H 18.7663 -1.216 -3.72768 0
M  V30 223 H 20.2563 -0.32675 -4.1632 0
M  V30 224 N 20.6934 1.19889 -1.02296 0
M  V30 225 C 21.6234 2.25141 -0.619174 0
M  V30 226 C 22.6044 1.66051 0.368915 0
M  V30 227 O 23.7894 1.92546 0.252941 0
M  V30 228 C 20.9194 3.4728 0.0368783 0
M  V30 229 C 19.8734 4.19005 -0.872865 0
M  V30 230 C 19.1994 5.34637 -0.0822402 0
M  V30 231 C 20.4994 4.74452 -2.18387 0
M  V30 232 H 22.1934 2.59171 -1.49903 0
M  V30 233 H 19.7394 1.24579 -0.722222 0
M  V30 234 H 21.6924 4.20098 0.330958 0
M  V30 235 H 20.4164 3.12433 0.95149 0
M  V30 236 H 19.0754 3.48061 -1.15105 0
M  V30 237 H 18.7234 4.96034 0.83422 0
M  V30 238 H 18.4234 5.83557 -0.688149 0
M  V30 239 H 19.9474 6.10255 0.205238 0
M  V30 240 H 21.3614 5.39055 -1.95172 0
M  V30 241 H 19.7584 5.33834 -2.74119 0
M  V30 242 H 20.8284 3.92844 -2.84257 0
M  V30 243 N 22.1715 0.800033 1.35784 0
M  V30 244 C 23.4175 0.377901 1.99248 0
M  V30 245 C 23.7505 -1.05052 1.63333 0
M  V30 246 O 23.0255 -1.72768 0.893385 0
M  V30 247 C 23.3085 0.553922 3.55814 0
M  V30 248 C 23.1615 2.0268 4.01548 0
M  V30 249 C 24.4805 -0.0244802 4.40093 0
M  V30 250 H 21.5995 0.138782 0.723815 0
M  V30 251 H 24.2415 1.00835 1.61035 0
M  V30 252 H 22.3915 0.0172398 3.88496 0
M  V30 253 H 24.0635 2.62536 3.79305 0
M  V30 254 H 22.3065 2.5256 3.52698 0
M  V30 255 H 22.9775 2.10087 5.10458 0
M  V30 256 H 25.4535 0.433775 4.13833 0
M  V30 257 H 24.3295 0.128637 5.48749 0
M  V30 258 H 24.5905 -1.11758 4.27741 0
M  V30 259 N 23.6496 -1.47581 0.552962 0
M  V30 260 C 24.8776 -2.06875 0.0320556 0
M  V30 261 C 25.2926 -1.40625 -1.25976 0
M  V30 262 O 24.6496 -0.501349 -1.75479 0
M  V30 263 C 24.7006 -3.61092 -0.17167 0
M  V30 264 O 24.4216 -4.24858 1.06899 0
M  V30 265 C 25.9226 -4.37242 -0.730344 0
M  V30 266 H 23.1426 -0.669561 0.043915 0
M  V30 267 H 25.6866 -1.89646 0.765163 0
M  V30 268 H 23.8416 -3.7785 -0.854894 0
M  V30 269 H 24.2556 -5.17334 0.864059 0
M  V30 270 H 25.7296 -5.45842 -0.822203 0
M  V30 271 H 26.2066 -4.03235 -1.74064 0
M  V30 272 H 26.8126 -4.25219 -0.0829543 0
M  V30 273 N 25.1277 -0.289203 -1.54924 0
M  V30 274 C 26.3757 0.322879 -1.99504 0
M  V30 275 C 26.6967 1.55313 -1.1791 0
M  V30 276 O 25.9667 1.94001 -0.272097 0
M  V30 277 H 24.5467 0.122291 -0.736922 0
M  V30 278 H 27.2087 -0.397802 -1.90797 0
M  V30 279 H 26.3047 0.603061 -3.06218 0
M  V30 280 N 26.6058 1.57591 -0.0167156 0
M  V30 281 C 27.5688 2.08393 0.954204 0
M  V30 282 C 28.5688 0.996531 1.26198 0
M  V30 283 O 29.7588 1.25858 1.20438 0
M  V30 284 C 26.8908 2.5394 2.27436 0
M  V30 285 H 28.0838 2.95455 0.514451 0
M  V30 286 H 25.6368 1.54582 0.231089 0
M  V30 287 H 26.3718 1.70171 2.76066 0
M  V30 288 H 26.1568 3.33371 2.06412 0
M  V30 289 H 27.6468 2.93512 2.97053 0
M  V30 290 N 28.0839 -0.256276 1.55502 0
M  V30 291 C 29.3319 -0.983672 1.76545 0
M  V30 292 C 29.6529 -1.86206 0.578982 0
M  V30 293 O 28.9229 -1.91656 -0.405577 0
M  V30 294 H 27.5029 -0.366191 0.651086 0
M  V30 295 H 30.1649 -0.276479 1.92929 0
M  V30 296 H 29.2609 -1.61087 2.67315 0
M  V30 297 N 29.562 -1.4872 -0.521534 0
M  V30 298 C 30.787 -1.61101 -1.30618 0
M  V30 299 C 31.212 -0.274611 -1.86085 0
M  V30 300 O 30.57 0.754937 -1.64834 0
M  V30 301 C 30.618 -2.66709 -2.4269 0
M  V30 302 O 29.722 -2.24456 -3.45967 0
M  V30 303 H 29.063 -0.539921 -0.386499 0
M  V30 304 H 31.593 -1.94767 -0.626645 0
M  V30 305 H 31.603 -2.88245 -2.88754 0
M  V30 306 H 30.278 -3.63727 -2.01682 0
M  V30 307 H 28.855 -2.13168 -3.05964 0
M  V30 308 N 31.0401 0.771051 -1.3745 0
M  V30 309 C 32.2881 1.52661 -1.32435 0
M  V30 310 C 32.6091 1.9479 0.0905024 0
M  V30 311 O 31.8791 1.66348 1.03466 0
M  V30 312 H 30.4591 0.566218 -0.487244 0
M  V30 313 H 33.1211 0.917636 -1.71946 0
M  V30 314 H 32.2171 2.42568 -1.96385 0
M  V30 315 N 32.5182 1.22032 0.997298 0
M  V30 316 C 33.7672 1.03637 1.73038 0
M  V30 317 C 34.0802 -0.429475 1.90827 0
M  V30 318 O 35.2862 -0.732995 2.61418 0
M  V30 319 C 33.7422 1.80582 3.11317 0
M  V30 320 C 33.3502 3.31387 3.01474 0
M  V30 321 C 35.0942 1.70621 3.88701 0
M  V30 322 C 33.0012 4.00791 4.3488 0
M  V30 323 H 31.9312 0.384179 0.648785 0
M  V30 324 H 34.5822 1.4584 1.11368 0
M  V30 325 H 32.9642 1.31175 3.73643 0
M  V30 326 H 34.1382 3.88155 2.4834 0
M  V30 327 H 32.4532 3.41976 2.37575 0
M  V30 328 H 35.0502 2.19799 4.87434 0
M  V30 329 H 35.3932 0.665823 4.10941 0
M  V30 330 H 35.9262 2.17547 3.33044 0
M  V30 331 H 32.6652 5.05064 4.1784 0
M  V30 332 H 32.1852 3.48811 4.87945 0
M  V30 333 H 33.8642 4.06139 5.03647 0
M  V30 334 N 33.9963 -1.19345 1.0293 0
M  V30 335 C 35.2443 -1.88665 0.724574 0
M  V30 336 C 35.5653 -1.80036 -0.749144 0
M  V30 337 O 34.8353 -1.2111 -1.53978 0
M  V30 338 H 33.4153 -0.698406 0.265025 0
M  V30 339 H 36.0773 -1.44885 1.30362 0
M  V30 340 H 35.1733 -2.94987 1.01926 0
M  V30 341 N 35.4744 -0.807222 -1.35358 0
M  V30 342 C 36.8904 -0.491038 -1.51858 0
M  V30 343 C 37.0904 0.987648 -1.75635 0
M  V30 344 O 36.1464 1.77265 -1.79815 0
M  V30 345 C 37.4594 -1.33695 -2.69344 0
M  V30 346 C 39.0074 -1.33246 -2.83222 0
M  V30 347 C 39.4824 -2.1625 -4.03733 0
M  V30 348 N 40.9734 -2.1379 -4.10911 0
M  V30 349 C 41.7084 -2.74772 -5.03277 0
M  V30 350 N 41.2044 -3.44684 -6.0097 0
M  V30 351 N 42.9974 -2.6441 -4.96028 0
M  V30 352 H 35.1484 -1.76485 -1.18181 0
M  V30 353 H 37.4114 -0.751199 -0.578276 0
M  V30 354 H 37.1174 -2.38634 -2.58354 0
M  V30 355 H 36.9914 -0.990618 -3.6396 0
M  V30 356 H 39.3784 -0.290911 -2.93663 0
M  V30 357 H 39.4594 -1.71866 -1.89461 0
M  V30 358 H 39.1034 -3.20445 -3.94052 0
M  V30 359 H 39.0334 -1.74989 -4.96675 0
M  V30 360 H 41.5244 -1.62923 -3.40976 0
M  V30 361 H 41.8374 -3.88501 -6.68047 0
M  V30 362 H 40.1824 -3.48788 -6.01142 0
M  V30 363 H 43.3734 -2.0938 -4.18662 0
M  V30 364 H 43.5464 -3.12225 -5.6782 0
M  V30 365 N 36.9525 1.47285 -0.560781 0
M  V30 366 C 37.9155 2.28535 0.174488 0
M  V30 367 C 38.9155 1.37153 0.839388 0
M  V30 368 O 40.1055 1.59748 0.694702 0
M  V30 369 C 37.2375 3.16934 1.25561 0
M  V30 370 H 38.4305 2.95012 -0.539262 0
M  V30 371 H 35.9835 1.53034 -0.317865 0
M  V30 372 H 36.7185 2.55157 2.00164 0
M  V30 373 H 36.5035 3.8419 0.783604 0
M  V30 374 H 37.9935 3.78143 1.77193 0
M  V30 375 N 38.4306 0.297415 1.54768 0
M  V30 376 C 39.6766 -0.313376 2.00364 0
M  V30 377 C 40.0096 -1.53815 1.18553 0
M  V30 378 O 39.2846 -1.92739 0.261103 0
M  V30 379 C 39.5676 -0.673525 3.53745 0
M  V30 380 C 39.4206 0.560133 4.46299 0
M  V30 381 C 40.7396 -1.50143 4.13697 0
M  V30 382 H 37.8586 -0.112428 0.728374 0
M  V30 383 H 40.5006 0.4088 1.8555 0
M  V30 384 H 38.6506 -1.28881 3.665 0
M  V30 385 H 40.3226 1.19863 4.45455 0
M  V30 386 H 38.5656 1.19405 4.17043 0
M  V30 387 H 39.2366 0.26405 5.51368 0
M  V30 388 H 41.7126 -0.981588 4.04356 0
M  V30 389 H 40.5886 -1.72221 5.21182 0
M  V30 390 H 40.8496 -2.48952 3.65343 0
M  V30 391 N 39.9087 -1.5758 0.0250728 0
M  V30 392 C 41.1337 -1.96337 -0.668317 0
M  V30 393 C 41.5587 -0.901314 -1.651 0
M  V30 394 O 40.9167 0.138187 -1.80773 0
M  V30 395 C 40.9647 -3.34191 -1.35457 0
M  V30 396 O 40.0687 -3.30269 -2.46974 0
M  V30 397 H 39.4097 -0.640281 -0.175887 0
M  V30 398 H 41.9397 -2.0442 0.0857224 0
M  V30 399 H 41.9497 -3.70331 -1.71228 0
M  V30 400 H 40.6247 -4.11036 -0.634218 0
M  V30 401 H 39.2017 -3.05841 -2.13344 0
M  V30 402 N 41.3868 0.248026 -1.55636 0
M  V30 403 C 42.6328 0.97767 -1.77678 0
M  V30 404 C 42.9658 1.85016 -0.590135 0
M  V30 405 O 42.2408 1.90095 0.411611 0
M  V30 406 C 42.5238 1.83914 -3.09593 0
M  V30 407 C 42.3768 0.99491 -4.38659 0
M  V30 408 C 43.6958 2.82183 -3.37729 0
M  V30 409 H 40.8148 0.354005 -0.646413 0
M  V30 410 H 43.4568 0.248253 -1.88371 0
M  V30 411 H 41.6068 2.46104 -3.00608 0
M  V30 412 H 43.2788 0.391789 -4.59633 0
M  V30 413 H 41.5218 0.299231 -4.32767 0
M  V30 414 H 42.1928 1.63145 -5.2734 0
M  V30 415 H 44.6688 2.30129 -3.4667 0
M  V30 416 H 43.5448 3.39582 -4.31249 0
M  V30 417 H 43.8058 3.58588 -2.58586 0
M  V30 418 N 42.8649 1.48995 0.513639 0
M  V30 419 C 44.2809 1.35478 0.843682 0
M  V30 420 C 44.4809 0.378213 1.97919 0
M  V30 421 O 43.5369 -0.194689 2.51748 0
M  V30 422 C 44.8499 2.75901 1.1958 0
M  V30 423 C 46.3979 2.84509 1.30474 0
M  V30 424 C 46.8729 4.25671 1.69021 0
M  V30 425 N 48.3639 4.28422 1.76094 0
M  V30 426 C 49.0989 5.34601 2.07338 0
M  V30 427 N 48.5949 6.5104 2.36894 0
M  V30 428 N 50.3879 5.22007 2.08483 0
M  V30 429 H 42.5389 2.11092 -0.235328 0
M  V30 430 H 44.8019 0.947039 -0.0426669 0
M  V30 431 H 44.5079 3.49001 0.434913 0
M  V30 432 H 44.3819 3.10467 2.1422 0
M  V30 433 H 46.7689 2.11655 2.05637 0
M  V30 434 H 46.8499 2.53542 0.339155 0
M  V30 435 H 46.4939 4.99048 0.944135 0
M  V30 436 H 46.4239 4.54094 2.66658 0
M  V30 437 H 48.9149 3.44441 1.55464 0
M  V30 438 H 49.2279 7.2779 2.59887 0
M  V30 439 H 47.5729 6.54287 2.34378 0
M  V30 440 H 50.7639 4.30051 1.84861 0
M  V30 441 H 50.9369 6.04854 2.325 0
M  V30 442 N 44.343 -0.763751 1.37857 0
M  V30 443 C 45.273 -1.89103 1.36975 0
M  V30 444 C 46.254 -1.68439 0.237152 0
M  V30 445 O 47.439 -1.8918 0.438713 0
M  V30 446 C 44.569 -3.26496 1.18395 0
M  V30 447 C 43.523 -3.61741 2.28751 0
M  V30 448 C 42.849 -4.97762 1.95286 0
M  V30 449 C 44.149 -3.67665 3.70972 0
M  V30 450 H 45.843 -1.90099 2.31307 0
M  V30 451 H 43.389 -0.91319 1.11341 0
M  V30 452 H 45.342 -4.05003 1.16406 0
M  V30 453 H 44.066 -3.25955 0.205215 0
M  V30 454 H 42.725 -2.85547 2.29909 0
M  V30 455 H 42.373 -4.93769 0.959221 0
M  V30 456 H 42.073 -5.22313 2.69189 0
M  V30 457 H 43.597 -5.7866 1.94898 0
M  V30 458 H 45.011 -4.36307 3.719 0
M  V30 459 H 43.408 -4.03718 4.43995 0
M  V30 460 H 44.478 -2.68134 4.0402 0
M  V30 461 N 45.8211 -1.22559 -0.990812 0
M  V30 462 C 46.7841 -0.998863 -2.0629 0
M  V30 463 C 47.7841 0.0354834 -1.60761 0
M  V30 464 O 48.9741 -0.203231 -1.7301 0
M  V30 465 C 46.1061 -0.509203 -3.37076 0
M  V30 466 H 47.2991 -1.95014 -2.27837 0
M  V30 467 H 44.8521 -1.04456 -1.16269 0
M  V30 468 H 45.5871 0.446335 -3.21214 0
M  V30 469 H 45.3721 -1.25547 -3.71457 0
M  V30 470 H 46.8621 -0.370888 -4.1595 0
M  V30 471 N 47.2992 1.18797 -1.03562 0
M  V30 472 C 48.5472 1.88278 -0.734569 0
M  V30 473 C 48.8682 1.8043 0.739586 0
M  V30 474 O 48.1382 1.21925 1.53333 0
M  V30 475 H 46.7182 0.696991 -0.268725 0
M  V30 476 H 49.3802 1.44192 -1.31129 0
M  V30 477 H 48.4762 2.94443 -1.03489 0
M  V30 478 N 48.7773 0.814389 1.34928 0
M  V30 479 C 49.6873 0.231978 2.3345 0
M  V30 480 C 50.7033 -0.629139 1.62228 0
M  V30 481 O 51.8793 -0.539052 1.94052 0
M  V30 482 C 48.9443 -0.603482 3.41407 0
M  V30 483 C 48.0053 0.279037 4.28392 0
M  V30 484 C 47.2383 -0.516643 5.31193 0
M  V30 485 O 47.4613 -1.75068 5.4287 0
M  V30 486 O 46.3953 0.0965652 6.01823 0
M  V30 487 H 50.2213 1.04721 2.85074 0
M  V30 488 H 47.8063 0.576343 1.37836 0
M  V30 489 H 49.6883 -1.07908 4.0735 0
M  V30 490 H 48.3633 -1.39618 2.92042 0
M  V30 491 H 47.2703 0.801948 3.65403 0
M  V30 492 H 48.6033 1.03588 4.81176 0
M  V30 493 N 50.2554 -1.46986 0.568584 0
M  V30 494 C 51.5034 -2.02041 0.0487022 0
M  V30 495 C 51.8244 -1.44408 -1.31039 0
M  V30 496 O 51.0944 -0.623477 -1.85714 0
M  V30 497 H 49.6744 -0.746849 0.015014 0
M  V30 498 H 52.3364 -1.80257 0.741168 0
M  V30 499 H 51.4324 -3.12085 -0.0308961 0
M  V30 500 N 51.7335 -0.305618 -1.54608 0
M  V30 501 C 52.6965 0.555591 -2.22364 0
M  V30 502 C 53.6965 1.05768 -1.21119 0
M  V30 503 O 54.8865 0.952972 -1.45822 0
M  V30 504 C 52.0185 1.76974 -2.91364 0
M  V30 505 H 53.2115 -0.0364572 -2.99878 0
M  V30 506 H 50.7645 -0.0565007 -1.56198 0
M  V30 507 H 51.4995 2.40151 -2.17941 0
M  V30 508 H 51.2845 1.41732 -3.65588 0
M  V30 509 H 52.7745 2.38148 -3.43038 0
M  V30 510 N 53.2116 1.57565 -0.0334293 0
M  V30 511 C 54.4396 1.9628 0.654347 0
M  V30 512 C 54.8546 0.910138 1.65414 0
M  V30 513 O 54.2116 -0.107595 1.82183 0
M  V30 514 C 54.2626 3.35067 1.35693 0
M  V30 515 O 53.9836 4.36296 0.397191 0
M  V30 516 C 55.4846 3.88439 2.13613 0
M  V30 517 H 52.7046 0.646369 0.180132 0
M  V30 518 H 55.2486 2.04282 -0.0944721 0
M  V30 519 H 53.4036 3.2827 2.05712 0
M  V30 520 H 53.8176 5.1678 0.896597 0
M  V30 521 H 55.2916 4.8788 2.58219 0
M  V30 522 H 55.7686 3.22914 2.97696 0
M  V30 523 H 56.3746 3.98516 1.48543 0
M  V30 524 N 54.6897 -0.239769 1.55765 0
M  V30 525 C 55.9357 -0.968234 1.78194 0
M  V30 526 C 56.2687 -1.84701 0.599938 0
M  V30 527 O 55.5437 -1.9031 -0.401524 0
M  V30 528 C 55.8267 -1.8227 3.10564 0
M  V30 529 C 55.6797 -0.971633 4.3918 0
M  V30 530 C 56.9987 -2.80388 3.39221 0
M  V30 531 H 54.1177 -0.350572 0.648281 0
M  V30 532 H 56.7597 -0.238259 1.885 0
M  V30 533 H 54.9097 -2.44507 3.01908 0
M  V30 534 H 56.5817 -0.367408 4.59835 0
M  V30 535 H 54.8247 -0.276276 4.32919 0
M  V30 536 H 55.4957 -1.60346 5.28198 0
M  V30 537 H 57.9717 -2.28287 3.47885 0
M  V30 538 H 56.8477 -3.3729 4.33044 0
M  V30 539 H 57.1087 -3.57212 2.60484 0
M  V30 540 N 56.1678 -1.49265 -0.50573 0
M  V30 541 C 57.1308 -1.65075 -1.59006 0
M  V30 542 C 58.1308 -0.522768 -1.52065 0
M  V30 543 O 59.3208 -0.789117 -1.55302 0
M  V30 544 C 56.4528 -1.64369 -2.98656 0
M  V30 545 H 57.6458 -2.61784 -1.46319 0
M  V30 546 H 55.1988 -1.38226 -0.729616 0
M  V30 547 H 55.9338 -0.692272 -3.16825 0
M  V30 548 H 55.7188 -2.46282 -3.05103 0
M  V30 549 H 57.2088 -1.78674 -3.77446 0
M  V30 550 N 57.6459 0.756429 -1.3826 0
M  V30 551 C 58.6089 1.85176 -1.35065 0
M  V30 552 C 59.6089 1.58818 -0.251703 0
M  V30 553 O 60.7989 1.66615 -0.508433 0
M  V30 554 C 57.9309 3.22596 -1.10201 0
M  V30 555 H 59.1239 1.89417 -2.3251 0
M  V30 556 H 56.6769 0.95783 -1.23512 0
M  V30 557 H 57.4119 3.24025 -0.133504 0
M  V30 558 H 57.1969 3.43122 -1.89762 0
M  V30 559 H 58.6869 4.02673 -1.10654 0
M  V30 560 N 59.124 1.23083 0.984299 0
M  V30 561 C 60.364 1.07226 1.74017 0
M  V30 562 C 60.728 -0.384766 1.88105 0
M  V30 563 O 61.929 -0.664411 2.60459 0
M  V30 564 C 60.2 1.77348 3.10294 0
M  V30 565 S 61.759 1.77014 4.01512 0
M  V30 566 H 58.577 0.383819 0.598502 0
M  V30 567 H 61.179 1.56158 1.17622 0
M  V30 568 H 59.883 2.82506 2.97689 0
M  V30 569 H 59.414 1.28682 3.71759 0
M  V30 570 H 61.429 0.825956 4.89277 0
M  V30 571 N 60.6021 -1.18246 1.0419 0
M  V30 572 C 61.8791 -1.84121 0.660208 0
M  V30 573 C 62.2591 -1.92778 -0.860221 0
M  V30 574 O 61.6071 -1.45464 -1.76217 0
M  V30 575 C 61.8171 -3.22355 1.33747 0
M  V30 576 C 63.1651 -3.98376 1.46906 0
M  V30 577 O 64.1891 -3.31799 1.29568 0
M  V30 578 O 63.0481 -5.17665 1.75171 0
M  V30 579 H 60.1421 -0.794036 0.231161 0
M  V30 580 H 62.6881 -1.25628 1.14087 0
M  V30 581 H 61.4601 -3.10964 2.37522 0
M  V30 582 H 61.0831 -3.88506 0.845515 0
M  V30 583 N 62.0802 -0.821533 -1.34494 0
M  V30 584 C 63.0102 -0.257138 -2.3208 0
M  V30 585 C 63.9912 0.625645 -1.58176 0
M  V30 586 O 65.1762 0.552811 -1.86166 0
M  V30 587 C 62.3062 0.582958 -3.42372 0
M  V30 588 C 61.2602 -0.202571 -4.2752 0
M  V30 589 C 60.5862 0.760179 -5.29269 0
M  V30 590 C 61.8862 -1.40998 -5.02908 0
M  V30 591 H 63.5802 -1.07247 -2.79532 0
M  V30 592 H 61.1262 -0.517163 -1.34393 0
M  V30 593 H 63.0792 0.987972 -4.09655 0
M  V30 594 H 61.8032 1.43133 -2.93565 0
M  V30 595 H 60.4622 -0.588936 -3.61838 0
M  V30 596 H 60.1102 1.60447 -4.76724 0
M  V30 597 H 59.8102 0.238809 -5.87115 0
M  V30 598 H 61.3342 1.16308 -5.9942 0
M  V30 599 H 62.7482 -1.07905 -5.63054 0
M  V30 600 H 61.1452 -1.86689 -5.70322 0
M  V30 601 H 62.2152 -2.1889 -4.32684 0
M  V30 602 N 63.5583 1.46682 -0.576371 0
M  V30 603 C 64.8353 1.95599 0.00703437 0
M  V30 604 C 65.2153 1.51904 1.46589 0
M  V30 605 O 64.5633 0.766755 2.15251 0
M  V30 606 C 64.7733 3.4864 -0.158404 0
M  V30 607 C 66.1213 4.24594 -0.0229439 0
M  V30 608 O 67.1453 3.56094 -0.0869173 0
M  V30 609 O 66.0043 5.46373 0.118015 0
M  V30 610 H 63.0983 0.825275 0.053384 0
M  V30 611 H 65.6443 1.56996 -0.644244 0
M  V30 612 H 64.4163 3.7331 -1.17282 0
M  V30 613 H 64.0393 3.94057 0.5296 0
M  V30 614 N 65.0364 0.313813 1.54444 0
M  V30 615 C 66.4524 -0.0391619 1.59552 0
M  V30 616 C 66.6524 -1.51322 1.33056 0
M  V30 617 O 65.7084 -2.26782 1.11022 0
M  V30 618 C 67.0214 0.370302 2.98411 0
M  V30 619 C 68.5694 0.320139 3.11358 0
M  V30 620 C 69.0444 0.704617 4.52547 0
M  V30 621 N 70.5354 0.657645 4.58508 0
M  V30 622 C 71.2704 0.927453 5.6585 0
M  V30 623 N 70.7664 1.26389 6.81174 0
M  V30 624 N 72.5594 0.853662 5.5558 0
M  V30 625 H 64.7104 1.27433 1.69925 0
M  V30 626 H 66.9734 0.517511 0.794284 0
M  V30 627 H 66.6794 1.39694 3.22767 0
M  V30 628 H 66.5534 -0.269619 3.76235 0
M  V30 629 H 68.9404 -0.697275 2.86744 0
M  V30 630 H 69.0214 0.99486 2.35661 0
M  V30 631 H 68.6654 1.7199 4.77893 0
M  V30 632 H 68.5954 0.00768843 5.26599 0
M  V30 633 H 71.0864 0.409067 3.75679 0
M  V30 634 H 71.3994 1.4554 7.58972 0
M  V30 635 H 69.7444 1.30206 6.82694 0
M  V30 636 H 72.9354 0.590383 4.64362 0
M  V30 637 H 73.1084 1.0673 6.3915 0
M  V30 638 N 66.5145 -1.57545 0.0417849 0
M  V30 639 C 67.4775 -2.09885 -0.92093 0
M  V30 640 C 68.4775 -1.01648 -1.24596 0
M  V30 641 O 69.6675 -1.27759 -1.1842 0
M  V30 642 C 66.7995 -2.57527 -2.23367 0
M  V30 643 H 67.9925 -2.96236 -0.467382 0
M  V30 644 H 65.5455 -1.5493 -0.206467 0
M  V30 645 H 66.2805 -1.74542 -2.73323 0
M  V30 646 H 66.0655 -3.36613 -2.01083 0
M  V30 647 H 67.5555 -2.98201 -2.92346 0
M  V30 648 N 67.9926 0.231505 -1.5589 0
M  V30 649 C 68.9556 1.27028 -1.90779 0
M  V30 650 C 69.9556 1.40308 -0.785507 0
M  V30 651 O 71.1456 1.38744 -1.05336 0
M  V30 652 C 68.2776 2.64566 -2.14983 0
M  V30 653 H 69.4706 0.973017 -2.83677 0
M  V30 654 H 67.0236 0.471486 -1.49019 0
M  V30 655 H 67.7586 2.99406 -1.24604 0
M  V30 656 H 67.5436 2.56305 -2.96732 0
M  V30 657 H 69.0336 3.39543 -2.43105 0
M  V30 658 N 69.4707 1.49531 0.497807 0
M  V30 659 C 70.4337 1.65916 1.58128 0
M  V30 660 C 71.4337 0.530825 1.51786 0
M  V30 661 O 72.6237 0.797342 1.54881 0
M  V30 662 C 69.7557 1.65951 2.9778 0
M  V30 663 H 70.9487 2.62556 1.44929 0
M  V30 664 H 68.5017 1.38611 0.722275 0
M  V30 665 H 69.2367 0.709065 3.16453 0
M  V30 666 H 69.0217 2.47897 3.03792 0
M  V30 667 H 70.5117 1.80673 3.76493 0
M  V30 668 N 70.9488 -0.749086 1.3866 0
M  V30 669 C 71.8808 -1.87273 1.32142 0
M  V30 670 C 72.8938 -1.61127 0.232787 0
M  V30 671 O 74.0828 -1.71623 0.49069 0
M  V30 672 C 71.1828 -3.23005 1.02571 0
M  V30 673 C 70.3558 -3.7662 2.22433 0
M  V30 674 C 69.4148 -4.90879 1.89537 0
M  V30 675 O 68.4408 -5.05276 2.62078 0
M  V30 676 N 69.6428 -5.74198 0.853031 0
M  V30 677 H 72.4078 -1.93373 2.28969 0
M  V30 678 H 69.9688 -0.929216 1.32579 0
M  V30 679 H 71.9608 -3.96992 0.786085 0
M  V30 680 H 70.5308 -3.12262 0.145249 0
M  V30 681 H 69.7508 -2.94147 2.62434 0
M  V30 682 H 71.0388 -4.09173 3.02415 0
M  V30 683 H 70.4368 -5.6514 0.25155 0
M  V30 684 H 68.9938 -6.48313 0.67329 0
M  V30 685 N 72.4269 -1.23603 -0.977757 0
M  V30 686 C 73.3369 -1.03632 -2.1047 0
M  V30 687 C 74.3529 0.0199435 -1.73989 0
M  V30 688 O 75.5289 -0.176076 -2.00629 0
M  V30 689 C 72.5939 -0.63276 -3.40877 0
M  V30 690 C 71.6549 -1.76437 -3.91367 0
M  V30 691 C 70.8879 -1.37997 -5.15551 0
M  V30 692 O 71.1109 -0.265357 -5.69782 0
M  V30 693 O 70.0449 -2.20201 -5.60174 0
M  V30 694 H 73.8709 -1.98086 -2.30208 0
M  V30 695 H 71.4559 -1.02332 -1.08851 0
M  V30 696 H 73.3379 -0.418761 -4.19314 0
M  V30 697 H 72.0129 0.282754 -3.22463 0
M  V30 698 H 70.9199 -2.03304 -3.14036 0
M  V30 699 H 72.2529 -2.6583 -4.14241 0
M  V30 700 N 73.905 1.17692 -1.04816 0
M  V30 701 C 75.133 1.91786 -0.776254 0
M  V30 702 C 75.548 1.76604 0.667577 0
M  V30 703 O 74.905 1.10067 1.45573 0
M  V30 704 C 74.956 3.42967 -1.14263 0
M  V30 705 O 74.677 3.57678 -2.52978 0
M  V30 706 C 76.178 4.34144 -0.896311 0
M  V30 707 H 73.398 0.608624 -0.282519 0
M  V30 708 H 75.942 1.49268 -1.39783 0
M  V30 709 H 74.097 3.83245 -0.565874 0
M  V30 710 H 74.511 4.51319 -2.67229 0
M  V30 711 H 75.985 5.38744 -1.20244 0
M  V30 712 H 76.462 4.38876 0.168636 0
M  V30 713 H 77.068 3.99574 -1.45672 0
M  V30 714 N 75.3831 0.828654 1.34056 0
M  V30 715 C 76.6291 0.42008 1.98402 0
M  V30 716 C 76.9621 -1.01564 1.65525 0
M  V30 717 O 76.2371 -1.70834 0.929831 0
M  V30 718 C 76.5201 0.62927 3.54559 0
M  V30 719 C 76.3731 2.11152 3.97159 0
M  V30 720 C 77.6921 0.0688756 4.40046 0
M  V30 721 H 74.8111 0.154104 0.720709 0
M  V30 722 H 77.4531 1.04228 1.5886 0
M  V30 723 H 75.6031 0.0996418 3.88372 0
M  V30 724 H 77.2751 2.70522 3.73651 0
M  V30 725 H 75.5181 2.59985 3.47261 0
M  V30 726 H 76.1891 2.20868 5.05887 0
M  V30 727 H 78.6651 0.521458 4.1282 0
M  V30 728 H 77.5411 0.245006 5.48353 0
M  V30 729 H 77.8021 -1.0266 4.30015 0
M  V30 730 N 76.8612 -1.46375 0.584142 0
M  V30 731 C 78.2772 -1.57694 0.245929 0
M  V30 732 C 78.4772 -1.57903 -1.25175 0
M  V30 733 O 77.5332 -1.49676 -2.03355 0
M  V30 734 C 78.8462 -2.87028 0.896402 0
M  V30 735 C 80.3942 -3.00662 0.870127 0
M  V30 736 C 80.8692 -4.32734 1.50017 0
M  V30 737 N 82.3602 -4.39436 1.46458 0
M  V30 738 C 83.0952 -5.40248 1.92144 0
M  V30 739 N 82.5912 -6.47726 2.4581 0
M  V30 740 N 84.3842 -5.31459 1.83052 0
M  V30 741 H 76.5352 -1.44483 1.55687 0
M  V30 742 H 78.7982 -0.689291 0.650831 0
M  V30 743 H 78.5042 -2.9269 1.95002 0
M  V30 744 H 78.3782 -3.75014 0.405486 0
M  V30 745 H 80.7652 -2.94581 -0.174871 0
M  V30 746 H 80.8462 -2.14148 1.39908 0
M  V30 747 H 80.4902 -4.39573 2.54437 0
M  V30 748 H 80.4202 -5.18025 0.946432 0
M  V30 749 H 82.9112 -3.62367 1.07231 0
M  V30 750 H 83.2242 -7.20863 2.78525 0
M  V30 751 H 81.5692 -6.48542 2.49836 0
M  V30 752 H 84.7602 -4.46396 1.40883 0
M  V30 753 H 84.9332 -6.09881 2.18973 0
M  V30 754 N 78.3393 -0.321999 -1.54275 0
M  V30 755 C 79.2693 0.537411 -2.27231 0
M  V30 756 C 80.2503 1.12064 -1.27968 0
M  V30 757 O 81.4353 1.14606 -1.56777 0
M  V30 758 C 78.5653 1.69919 -3.02894 0
M  V30 759 C 77.5193 1.24534 -4.09482 0
M  V30 760 C 76.8453 2.49394 -4.72977 0
M  V30 761 C 78.1453 0.361335 -5.21049 0
M  V30 762 H 79.8393 -0.0711406 -2.99315 0
M  V30 763 H 77.3853 -0.0356555 -1.43956 0
M  V30 764 H 79.3383 2.30668 -3.52662 0
M  V30 765 H 78.0623 2.33431 -2.28424 0
M  V30 766 H 76.7213 0.660782 -3.60596 0
M  V30 767 H 76.3693 3.11265 -3.95124 0
M  V30 768 H 76.0693 2.19718 -5.44975 0
M  V30 769 H 77.5933 3.10908 -5.25517 0
M  V30 770 H 79.0073 0.875072 -5.66582 0
M  V30 771 H 77.4043 0.157428 -5.99893 0
M  V30 772 H 78.4743 -0.60822 -4.8107 0
M  V30 773 N 79.8174 1.5752 -0.0501392 0
M  V30 774 C 80.7474 2.14502 0.922566 0
M  V30 775 C 81.7284 1.06642 1.3252 0
M  V30 776 O 82.9134 1.34577 1.4001 0
M  V30 777 C 80.0434 2.68916 2.19776 0
M  V30 778 C 78.9974 3.8175 1.93523 0
M  V30 779 C 78.3234 4.22677 3.27487 0
M  V30 780 C 79.6234 5.06932 1.25765 0
M  V30 781 H 81.3174 2.9603 0.447952 0
M  V30 782 H 78.8634 1.42401 0.214024 0
M  V30 783 H 80.8164 3.07419 2.88222 0
M  V30 784 H 79.5404 1.84578 2.69441 0
M  V30 785 H 78.1994 3.43718 1.27489 0
M  V30 786 H 77.8474 3.35291 3.74952 0
M  V30 787 H 77.5474 4.98725 3.1072 0
M  V30 788 H 79.0714 4.63779 3.97166 0
M  V30 789 H 80.4854 5.42888 1.84244 0
M  V30 790 H 78.8824 5.88116 1.19328 0
M  V30 791 H 79.9524 4.84337 0.233536 0
M  V30 792 N 81.2955 -0.223234 1.56011 0
M  V30 793 C 82.5435 -0.946003 1.78592 0
M  V30 794 C 82.8645 -1.84936 0.618349 0
M  V30 795 O 82.1345 -1.92473 -0.364833 0
M  V30 796 H 80.7145 -0.352298 0.658707 0
M  V30 797 H 83.3765 -0.235494 1.93472 0
M  V30 798 H 82.4725 -1.55381 2.70672 0
M  V30 799 N 82.7736 -1.49793 -0.48987 0
M  V30 800 C 84.0216 -1.59525 -1.24081 0
M  V30 801 C 84.3426 -0.288953 -1.92847 0
M  V30 802 O 83.6126 0.692436 -1.83254 0
M  V30 803 H 82.1926 -0.587796 -0.460983 0
M  V30 804 H 84.8546 -1.86477 -0.566778 0
M  V30 805 H 83.9506 -2.39696 -1.99881 0
M  V30 806 N 84.2517 0.741722 -1.39055 0
M  V30 807 C 85.6627 1.31966 -1.32068 0
M  V30 808 C 86.0137 1.96192 0.0180797 0
M  V30 809 O 85.1387 1.95861 0.920196 0
M  V30 810 C 85.7337 2.39954 -2.39181 0
M  V30 811 C 84.2927 2.93438 -2.35735 0
M  V30 812 C 83.4397 1.66936 -2.21422 0
M  V30 813 H 86.3907 0.539721 -1.4924 0
M  V30 814 H 86.4117 3.20182 -2.05581 0
M  V30 815 H 85.9237 1.9318 -3.36605 0
M  V30 816 H 84.0247 3.4451 -1.41929 0
M  V30 817 H 84.1377 3.4701 -3.30335 0
M  V30 818 H 82.5017 1.91016 -1.68478 0
M  V30 819 H 83.2847 1.22224 -3.20806 0
M  V30 820 N 85.7298 1.2412 0.971189 0
M  V30 821 C 86.9778 1.07668 1.71032 0
M  V30 822 C 87.2988 -0.385797 1.91146 0
M  V30 823 O 86.5688 -1.27569 1.4867 0
M  V30 824 H 85.1488 0.395429 0.633755 0
M  V30 825 H 87.8108 1.55984 1.16855 0
M  V30 826 H 86.9068 1.57195 2.69622 0
M  V30 827 N 87.2079 -1.17134 1.05439 0
M  V30 828 C 88.4329 -1.91913 0.786396 0
M  V30 829 C 88.8579 -1.7643 -0.652234 0
M  V30 830 O 88.2159 -1.08372 -1.45345 0
M  V30 831 C 88.2639 -3.40921 1.17497 0
M  V30 832 O 87.3679 -4.11244 0.308589 0
M  V30 833 H 86.7089 -0.598215 0.288158 0
M  V30 834 H 89.2389 -1.48457 1.4079 0
M  V30 835 H 89.2489 -3.91668 1.14281 0
M  V30 836 H 87.9239 -3.5151 2.22292 0
M  V30 837 H 86.5009 -3.70731 0.40157 0
M  V30 838 N 88.686 -0.835752 -1.33615 0
M  V30 839 C 89.633 -0.26473 -2.29277 0
M  V30 840 C 90.603 0.617712 -1.54187 0
M  V30 841 O 91.788 0.556641 -1.825 0
M  V30 842 C 88.928 0.556777 -3.40579 0
M  V30 843 C 88.041 -0.349339 -4.30585 0
M  V30 844 C 87.176 0.482969 -5.29 0
M  V30 845 C 86.215 -0.421732 -6.10645 0
M  V30 846 N 85.352 0.372262 -7.01112 0
M  V30 847 H 90.192 -1.08582 -2.77514 0
M  V30 848 H 87.729 -0.546927 -1.36554 0
M  V30 849 H 89.687 1.04852 -4.03809 0
M  V30 850 H 88.317 1.34286 -2.93542 0
M  V30 851 H 87.369 -0.959372 -3.68104 0
M  V30 852 H 88.681 -1.04445 -4.87742 0
M  V30 853 H 87.835 1.03866 -5.97743 0
M  V30 854 H 86.574 1.21153 -4.72412 0
M  V30 855 H 85.579 -0.989464 -5.40823 0
M  V30 856 H 86.804 -1.14861 -6.69316 0
M  V30 857 H 84.75 1.08426 -6.46977 0
M  V30 858 H 84.667 -0.264198 -7.55538 0
M  V30 859 H 85.935 0.910293 -7.74167 0
M  V30 860 N 90.1641 1.46063 -0.591896 0
M  V30 861 C 91.0741 2.34192 0.13831 0
M  V30 862 C 92.0901 1.50305 0.876608 0
M  V30 863 O 93.2661 1.8315 0.837728 0
M  V30 864 C 90.3311 3.27656 1.13326 0
M  V30 865 C 89.3921 4.27445 0.39863 0
M  V30 866 C 88.6251 5.16443 1.34618 0
M  V30 867 O 88.8481 5.08553 2.58321 0
M  V30 868 O 87.7821 5.95843 0.851768 0
M  V30 869 H 91.6081 2.98002 -0.58552 0
M  V30 870 H 89.1931 1.45188 -0.352239 0
M  V30 871 H 91.0751 3.85291 1.70671 0
M  V30 872 H 89.7501 2.6643 1.83839 0
M  V30 873 H 88.6571 3.73471 -0.216895 0
M  V30 874 H 89.9901 4.91482 -0.265709 0
M  V30 875 N 91.6422 0.330177 1.54103 0
M  V30 876 C 92.8902 -0.269871 2.0029 0
M  V30 877 C 93.2112 -1.52133 1.21986 0
M  V30 878 O 92.4812 -1.93212 0.323438 0
M  V30 879 H 91.0612 -0.10271 0.739905 0
M  V30 880 H 93.7232 0.448249 1.89675 0
M  V30 881 H 92.8192 -0.52166 3.07709 0
M  V30 882 N 93.1203 -1.57491 0.0584922 0
M  V30 883 C 94.5313 -1.80526 -0.476138 0
M  V30 884 C 94.8823 -0.971334 -1.70469 0
M  V30 885 O 94.0073 -0.190012 -2.15564 0
M  V30 886 C 94.6023 -3.27424 -0.870587 0
M  V30 887 C 93.1613 -3.51351 -1.35015 0
M  V30 888 C 92.3083 -2.75343 -0.32887 0
M  V30 889 H 95.2593 -1.56133 0.284312 0
M  V30 890 H 95.2803 -3.38745 -1.73299 0
M  V30 891 H 94.7923 -3.88093 0.0237627 0
M  V30 892 H 92.8933 -2.95971 -2.26345 0
M  V30 893 H 93.0063 -4.60059 -1.33726 0
M  V30 894 H 91.3703 -2.417 -0.803321 0
M  V30 895 H 92.1533 -3.38743 0.557521 0
M  V30 896 N 94.5984 0.214957 -1.56127 0
M  V30 897 C 96.0094 0.781386 -1.69562 0
M  V30 898 C 96.3604 1.84707 -0.66165 0
M  V30 899 O 95.4854 2.156 0.185927 0
M  V30 900 C 96.0804 1.42411 -3.07416 0
M  V30 901 C 94.6394 1.93786 -3.22683 0
M  V30 902 C 93.7864 0.800438 -2.65496 0
M  V30 903 H 96.7374 -0.00980633 -1.58697 0
M  V30 904 H 96.7584 2.29309 -3.0364 0
M  V30 905 H 96.2704 0.64826 -3.82648 0
M  V30 906 H 94.3714 2.74152 -2.52332 0
M  V30 907 H 94.4844 2.1133 -4.29973 0
M  V30 908 H 92.8484 1.2095 -2.2415 0
M  V30 909 H 93.6314 0.0371471 -3.4328 0
M  V30 910 N 96.0765 1.50051 0.48192 0
M  V30 911 C 97.4925 1.37237 0.814756 0
M  V30 912 C 97.6925 0.420109 1.97072 0
M  V30 913 O 96.7485 -0.141246 2.52105 0
M  V30 914 C 98.0615 2.78375 1.13701 0
M  V30 915 C 99.6095 2.87213 1.2441 0
M  V30 916 C 100.084 4.29161 1.59954 0
M  V30 917 N 101.575 4.32061 1.66967 0
M  V30 918 C 102.31 5.38879 1.95952 0
M  V30 919 N 101.806 6.55918 2.23031 0
M  V30 920 N 103.599 5.26312 1.97363 0
M  V30 921 H 95.7505 2.10546 -0.28005 0
M  V30 922 H 98.0135 0.945921 -0.0627454 0
M  V30 923 H 97.7195 3.49845 0.360787 0
M  V30 924 H 97.5935 3.14941 2.07586 0
M  V30 925 H 99.9805 2.15969 2.01101 0
M  V30 926 H 100.061 2.54204 0.285299 0
M  V30 927 H 99.7055 5.00938 0.838067 0
M  V30 928 H 99.6355 4.59648 2.56966 0
M  V30 929 H 102.126 3.47661 1.48123 0
M  V30 930 H 102.439 7.33139 2.44391 0
M  V30 931 H 100.784 6.59112 2.20447 0
M  V30 932 H 103.975 4.33876 1.75697 0
M  V30 933 H 104.148 6.09649 2.19618 0
M  V30 934 N 97.5546 -0.734337 1.39446 0
M  V30 935 C 98.8026 -1.49096 1.36436 0
M  V30 936 C 99.1236 -1.94961 -0.0388255 0
M  V30 937 O 98.3936 -1.69033 -0.990191 0
M  V30 938 H 96.9736 -0.5531 0.502085 0
M  V30 939 H 99.6356 -0.871725 1.74319 0
M  V30 940 H 98.7316 -2.37276 2.02747 0
M  V30 941 N 99.0327 -1.24633 -0.964593 0
M  V30 942 C 99.9807 -1.03917 -2.08096 0
M  V30 943 C 100.975 0.0268581 -1.69379 0
M  V30 944 O 102.181 -0.127952 -1.79545 0
M  V30 945 H 98.5557 -0.319044 -0.680966 0
M  V30 946 H 100.527 -1.98581 -2.22729 0
M  V30 947 C 99.2757 -0.663983 -3.41301 0
M  V30 948 H 98.5987 -1.47605 -3.71555 0
M  V30 949 H 100.039 -0.558663 -4.20303 0
M  V30 950 C 98.4977 0.629169 -3.30973 0
M  V30 951 O 99.0277 1.67404 -3.65156 0
M  V30 952 N 97.2337 0.611057 -2.84103 0
M  V30 953 H 96.7807 -0.239593 -2.56483 0
M  V30 954 H 96.7387 1.47647 -2.77575 0
M  V30 955 N 100.511 1.16574 -1.06058 0
M  V30 956 C 101.461 2.18854 -0.63929 0
M  V30 957 C 102.445 1.57505 0.328798 0
M  V30 958 O 103.637 1.76408 0.144623 0
M  V30 959 C 100.766 3.43291 -0.0247203 0
M  V30 960 C 99.8518 4.11722 -1.01716 0
M  V30 961 N 100.243 4.55841 -2.19186 0
M  V30 962 C 98.5408 4.37872 -0.847569 0
M  V30 963 C 99.2418 5.08751 -2.82042 0
M  V30 964 N 98.2178 5.01489 -2.09784 0
M  V30 965 H 102.02 2.5068 -1.53417 0
M  V30 966 H 99.5338 1.32999 -0.931935 0
M  V30 967 H 101.531 4.15856 0.294915 0
M  V30 968 H 100.191 3.12954 0.865448 0
M  V30 969 H 101.202 4.49649 -2.56975 0
M  V30 970 H 97.8788 4.17499 -0.00918848 0
M  V30 971 H 99.2688 5.52944 -3.81709 0
M  V30 972 N 101.989 0.842826 1.3317 0
M  V30 973 C 102.952 0.284065 2.27433 0
M  V30 974 C 103.952 -0.54948 1.5112 0
M  V30 975 O 105.142 -0.362699 1.70382 0
M  V30 976 C 102.274 -0.599384 3.35589 0
M  V30 977 H 103.467 1.11589 2.78366 0
M  V30 978 H 101.02 0.616221 1.4364 0
M  V30 979 H 101.755 -1.45349 2.89904 0
M  V30 980 H 101.54 -0.00291266 3.921 0
M  V30 981 H 103.03 -0.983488 4.05854 0
M  V30 982 N 103.467 -1.45747 0.599634 0
M  V30 983 C 104.43 -2.28917 -0.113835 0
M  V30 984 C 105.43 -1.3933 -0.802729 0
M  V30 985 O 106.62 -1.61534 -0.652103 0
M  V30 986 C 103.752 -3.20152 -1.17114 0
M  V30 987 H 104.945 -2.93478 0.617289 0
M  V30 988 H 102.498 -1.52137 0.358327 0
M  V30 989 H 103.233 -2.60374 -1.93329 0
M  V30 990 H 103.018 -3.86133 -0.681468 0
M  V30 991 H 104.508 -3.82708 -1.67105 0
M  V30 992 N 104.945 -0.338344 -1.53925 0
M  V30 993 C 106.192 0.259758 -2.00827 0
M  V30 994 C 106.52 1.50973 -1.22628 0
M  V30 995 O 105.775 1.93379 -0.300509 0
M  V30 996 C 106.074 0.62448 -3.51902 0
M  V30 997 C 105.74 -0.528006 -4.47798 0
M  V30 998 C 104.402 -0.844298 -4.73735 0
M  V30 999 C 106.754 -1.30143 -5.0469 0
M  V30 1000 C 104.082 -1.93648 -5.53821 0
M  V30 1001 C 106.434 -2.38382 -5.85967 0
M  V30 1002 C 105.098 -2.70576 -6.10201 0
M  V30 1003 H 104.368 0.0950523 -0.734878 0
M  V30 1004 H 107.015 -0.465182 -1.85764 0
M  V30 1005 H 105.32 1.43006 -3.64769 0
M  V30 1006 H 107.017 1.09905 -3.85645 0
M  V30 1007 H 103.607 -0.271421 -4.2774 0
M  V30 1008 H 107.791 -1.07033 -4.84621 0
M  V30 1009 H 103.047 -2.19021 -5.70824 0
M  V30 1010 H 107.221 -2.98746 -6.29066 0
M  V30 1011 H 104.848 -3.55333 -6.72044 0
M  V30 1012 N 106.423 1.57458 -0.0668435 0
M  V30 1013 C 107.355 2.09413 0.931601 0
M  V30 1014 C 108.368 1.02522 1.26464 0
M  V30 1015 O 109.557 1.30049 1.22269 0
M  V30 1016 C 106.657 2.53537 2.24882 0
M  V30 1017 C 105.83 3.83944 2.09537 0
M  V30 1018 C 104.889 4.14214 3.2452 0
M  V30 1019 O 103.915 4.83891 2.9973 0
M  V30 1020 N 105.117 3.67367 4.49469 0
M  V30 1021 H 107.882 2.95699 0.488048 0
M  V30 1022 H 105.443 1.61462 0.119009 0
M  V30 1023 H 107.435 2.70853 3.00701 0
M  V30 1024 H 106.005 1.72415 2.60753 0
M  V30 1025 H 105.225 3.76057 1.18215 0
M  V30 1026 H 106.513 4.69312 1.96529 0
M  V30 1027 H 105.911 3.11068 4.72497 0
M  V30 1028 H 104.468 3.89891 5.2233 0
M  V30 1029 N 107.901 -0.206675 1.56239 0
M  V30 1030 C 108.864 -1.23976 1.92776 0
M  V30 1031 C 109.864 -1.39041 0.807729 0
M  V30 1032 O 111.054 -1.37051 1.0753 0
M  V30 1033 C 108.186 -2.61112 2.19165 0
M  V30 1034 H 109.379 -0.927764 2.85189 0
M  V30 1035 H 106.932 -0.447718 1.4975 0
M  V30 1036 H 107.667 -2.97386 1.29352 0
M  V30 1037 H 107.452 -2.51552 3.00772 0
M  V30 1038 H 108.942 -3.35633 2.48476 0
M  V30 1039 N 109.379 -1.50304 -0.473955 0
M  V30 1040 C 110.656 -1.51667 -1.23518 0
M  V30 1041 C 111.036 -0.259701 -2.09496 0
M  V30 1042 O 110.384 0.756986 -2.15597 0
M  V30 1043 C 110.594 -2.81082 -2.06868 0
M  V30 1044 C 111.942 -3.31631 -2.65153 0
M  V30 1045 O 112.966 -2.82384 -2.17113 0
M  V30 1046 O 111.825 -4.17471 -3.52675 0
M  V30 1047 H 108.919 -0.60822 -0.560355 0
M  V30 1048 H 111.465 -1.62592 -0.486011 0
M  V30 1049 H 110.237 -3.64041 -1.4349 0
M  V30 1050 H 109.86 -2.73146 -2.88924 0
M  V30 1051 N 110.857 0.726932 -1.39834 0
M  V30 1052 C 112.103 1.48884 -1.377 0
M  V30 1053 C 112.436 1.94185 0.0244852 0
M  V30 1054 O 111.711 1.67361 0.990986 0
M  V30 1055 C 111.994 2.72288 -2.3565 0
M  V30 1056 C 111.847 2.32956 -3.84775 0
M  V30 1057 C 113.166 3.74414 -2.31306 0
M  V30 1058 H 110.285 0.540062 -0.5015 0
M  V30 1059 H 112.927 0.830547 -1.70886 0
M  V30 1060 H 111.077 3.28457 -2.07481 0
M  V30 1061 H 112.749 1.82356 -4.23726 0
M  V30 1062 H 110.992 1.65088 -4.01159 0
M  V30 1063 H 111.663 3.21362 -4.4881 0
M  V30 1064 H 114.139 3.27849 -2.56231 0
M  V30 1065 H 113.015 4.58414 -3.01907 0
M  V30 1066 H 113.276 4.21909 -1.32081 0
M  V30 1067 N 112.336 1.25143 0.95797 0
M  V30 1068 C 113.561 1.12521 1.74223 0
M  V30 1069 C 113.986 -0.317402 1.85403 0
M  V30 1070 O 113.344 -1.2299 1.33204 0
M  V30 1071 C 113.392 1.78062 3.1357 0
M  V30 1072 O 112.496 1.058 3.98598 0
M  V30 1073 H 111.837 0.39304 0.535178 0
M  V30 1074 H 114.367 1.65641 1.201 0
M  V30 1075 H 114.377 1.84213 3.64046 0
M  V30 1076 H 113.052 2.83021 3.04749 0
M  V30 1077 H 111.629 1.07506 3.57067 0
M  V30 1078 N 113.814 -1.1601 1.06675 0
M  V30 1079 C 114.724 -2.24156 0.692179 0
M  V30 1080 C 115.74 -1.71507 -0.293513 0
M  V30 1081 O 116.916 -2.009 -0.141861 0
M  V30 1082 C 113.981 -3.46587 0.0884131 0
M  V30 1083 C 113.042 -4.14257 1.12646 0
M  V30 1084 C 112.275 -5.30844 0.551416 0
M  V30 1085 O 112.498 -5.66858 -0.634656 0
M  V30 1086 O 111.432 -5.87848 1.29298 0
M  V30 1087 H 115.258 -2.58513 1.59388 0
M  V30 1088 H 112.843 -1.23599 0.83926 0
M  V30 1089 H 114.725 -4.20679 -0.246361 0
M  V30 1090 H 113.4 -3.13994 -0.786712 0
M  V30 1091 H 112.307 -3.42118 1.51348 0
M  V30 1092 H 113.64 -4.50914 1.97325 0
M  V30 1093 N 115.292 -0.849877 -1.32721 0
M  V30 1094 C 116.255 -0.296122 -2.27279 0
M  V30 1095 C 117.255 0.541458 -1.5141 0
M  V30 1096 O 118.445 0.353658 -1.70572 0
M  V30 1097 C 115.577 0.581579 -3.35902 0
M  V30 1098 H 116.77 -1.13064 -2.77771 0
M  V30 1099 H 114.323 -0.62383 -1.43311 0
M  V30 1100 H 115.058 1.43809 -2.9067 0
M  V30 1101 H 114.843 -0.0178814 -3.92096 0
M  V30 1102 H 116.333 0.961951 -4.0637 0
M  V30 1103 N 116.77 1.45427 -0.607355 0
M  V30 1104 C 118.186 1.57283 -0.270985 0
M  V30 1105 C 118.386 1.59875 1.22647 0
M  V30 1106 O 117.442 1.52893 2.00948 0
M  V30 1107 C 118.755 2.85566 -0.941952 0
M  V30 1108 C 120.303 2.9924 -0.917849 0
M  V30 1109 C 120.778 4.30293 -1.56882 0
M  V30 1110 N 122.269 4.37051 -1.5343 0
M  V30 1111 C 123.004 5.37123 -2.00715 0
M  V30 1112 N 122.5 6.43734 -2.56084 0
M  V30 1113 N 124.293 5.28479 -1.91484 0
M  V30 1114 H 116.444 1.41988 -1.57966 0
M  V30 1115 H 118.707 0.67885 -0.661715 0
M  V30 1116 H 118.413 2.8955 -1.99633 0
M  V30 1117 H 118.287 3.74322 -0.465096 0
M  V30 1118 H 120.674 2.94822 0.127984 0
M  V30 1119 H 120.755 2.11895 -1.43297 0
M  V30 1120 H 120.399 4.35469 -2.61398 0
M  V30 1121 H 120.329 5.16454 -1.02873 0
M  V30 1122 H 122.82 3.60615 -1.12982 0
M  V30 1123 H 123.133 7.16341 -2.89958 0
M  V30 1124 H 121.478 6.44485 -2.60122 0
M  V30 1125 H 124.669 4.44098 -1.47967 0
M  V30 1126 H 124.842 6.0632 -2.28648 0
M  V30 1127 N 118.248 0.346503 1.53744 0
M  V30 1128 C 119.211 -0.496439 2.23759 0
M  V30 1129 C 120.211 -1.0252 1.2388 0
M  V30 1130 O 121.401 -0.913974 1.48297 0
M  V30 1131 C 118.533 -1.69187 2.95954 0
M  V30 1132 H 119.726 0.115952 2.99676 0
M  V30 1133 H 117.279 0.0978939 1.55993 0
M  V30 1134 H 118.014 -2.34288 2.24231 0
M  V30 1135 H 117.799 -1.31989 3.69217 0
M  V30 1136 H 119.289 -2.28969 3.49232 0
M  V30 1137 N 119.726 -1.57421 0.075193 0
M  V30 1138 C 120.689 -2.11791 -0.876203 0
M  V30 1139 C 121.689 -1.04268 -1.22412 0
M  V30 1140 O 122.879 -1.30242 -1.15684 0
M  V30 1141 C 120.011 -2.62207 -2.17854 0
M  V30 1142 H 121.204 -2.9716 -0.40444 0
M  V30 1143 H 118.757 -1.55333 -0.173557 0
M  V30 1144 H 119.492 -1.803 -2.6956 0
M  V30 1145 H 119.277 -3.40802 -1.93897 0
M  V30 1146 H 120.767 -3.04335 -2.85955 0
M  V30 1147 N 121.204 0.198386 -1.56346 0
M  V30 1148 C 122.62 0.549085 -1.49857 0
M  V30 1149 C 122.82 1.86016 -0.774611 0
M  V30 1150 O 121.876 2.50416 -0.323776 0
M  V30 1151 C 123.189 0.606868 -2.94512 0
M  V30 1152 C 124.737 0.695925 -3.05165 0
M  V30 1153 C 125.212 0.784848 -4.51225 0
M  V30 1154 N 126.703 0.848463 -4.55363 0
M  V30 1155 C 127.438 0.937378 -5.65686 0
M  V30 1156 N 126.934 0.9888 -6.85707 0
M  V30 1157 N 128.727 0.974312 -5.53592 0
M  V30 1158 H 120.878 -0.661655 -2.01831 0
M  V30 1159 H 123.141 -0.235261 -0.918344 0
M  V30 1160 H 122.847 -0.28732 -3.50524 0
M  V30 1161 H 122.721 1.46268 -3.47686 0
M  V30 1162 H 125.108 1.58055 -2.49204 0
M  V30 1163 H 125.189 -0.186022 -2.55123 0
M  V30 1164 H 124.833 -0.0954072 -5.0781 0
M  V30 1165 H 124.763 1.68255 -4.98997 0
M  V30 1166 H 127.254 0.818103 -3.68938 0
M  V30 1167 H 127.567 1.05707 -7.65536 0
M  V30 1168 H 125.912 0.957534 -6.88372 0
M  V30 1169 H 129.103 0.930954 -4.58749 0
M  V30 1170 H 129.276 1.04015 -6.39597 0
M  V30 1171 N 122.682 1.50554 0.465978 0
M  V30 1172 C 123.922 1.63439 1.22747 0
M  V30 1173 C 124.286 0.329822 1.89146 0
M  V30 1174 O 125.487 0.334161 2.66715 0
M  V30 1175 C 123.758 2.78542 2.2394 0
M  V30 1176 S 125.317 3.11591 3.0896 0
M  V30 1177 H 122.135 0.576113 0.416672 0
M  V30 1178 H 124.737 1.88357 0.523641 0
M  V30 1179 H 123.441 3.71805 1.7375 0
M  V30 1180 H 122.972 2.55726 2.98944 0
M  V30 1181 H 124.987 2.55811 4.25176 0
M  V30 1182 N 124.16 -0.719506 1.40217 0
M  V30 1183 C 125.09 -1.8465 1.42922 0
M  V30 1184 C 126.071 -1.67599 0.29062 0
M  V30 1185 O 127.256 -1.87688 0.498677 0
M  V30 1186 C 124.386 -3.22565 1.28722 0
M  V30 1187 C 123.34 -3.54281 2.40144 0
M  V30 1188 C 122.666 -4.91298 2.11023 0
M  V30 1189 C 123.966 -3.55676 3.82481 0
M  V30 1190 H 125.66 -1.82644 2.37237 0
M  V30 1191 H 123.206 -0.877305 1.1419 0
M  V30 1192 H 125.159 -4.01095 1.29232 0
M  V30 1193 H 123.883 -3.25137 0.308811 0
M  V30 1194 H 122.542 -2.78088 2.38877 0
M  V30 1195 H 122.19 -4.90468 1.11582 0
M  V30 1196 H 121.89 -5.13485 2.8567 0
M  V30 1197 H 123.414 -5.72166 2.13209 0
M  V30 1198 H 124.828 -4.24254 3.85592 0
M  V30 1199 H 123.225 -3.89388 4.56614 0
M  V30 1200 H 124.295 -2.55144 4.12346 0
M  V30 1201 N 125.638 -1.25649 -0.95132 0
M  V30 1202 C 126.568 -1.08808 -2.06599 0
M  V30 1203 C 127.549 0.00382547 -1.701 0
M  V30 1204 O 128.734 -0.166325 -1.93486 0
M  V30 1205 C 125.864 -0.709542 -3.39975 0
M  V30 1206 C 124.818 -1.75206 -3.90496 0
M  V30 1207 C 124.144 -1.22811 -5.20405 0
M  V30 1208 C 125.444 -3.15153 -4.16504 0
M  V30 1209 H 127.138 -2.02048 -2.20946 0
M  V30 1210 H 124.684 -0.972835 -1.06169 0
M  V30 1211 H 126.637 -0.578649 -4.17408 0
M  V30 1212 H 125.361 0.258556 -3.25575 0
M  V30 1213 H 124.02 -1.87145 -3.15234 0
M  V30 1214 H 123.668 -0.250145 -5.02378 0
M  V30 1215 H 123.368 -1.92492 -5.55176 0
M  V30 1216 H 124.892 -1.10968 -6.00432 0
M  V30 1217 H 126.306 -3.06349 -4.84586 0
M  V30 1218 H 124.703 -3.82333 -4.62538 0
M  V30 1219 H 125.773 -3.61966 -3.22658 0
M  V30 1220 N 127.117 1.15442 -1.07289 0
M  V30 1221 C 128.027 2.23786 -0.704057 0
M  V30 1222 C 129.043 1.7166 0.284413 0
M  V30 1223 O 130.219 2.00972 0.131205 0
M  V30 1224 C 127.284 3.46535 -0.106792 0
M  V30 1225 C 126.345 4.13654 -1.14842 0
M  V30 1226 C 125.578 5.30544 -0.57956 0
M  V30 1227 O 125.801 5.67187 0.604585 0
M  V30 1228 O 124.735 5.87154 -1.32414 0
M  V30 1229 H 128.561 2.57664 -1.60757 0
M  V30 1230 H 126.146 1.23152 -0.845803 0
M  V30 1231 H 128.028 4.20804 0.224048 0
M  V30 1232 H 126.703 3.14407 0.770049 0
M  V30 1233 H 125.61 3.4131 -1.5316 0
M  V30 1234 H 126.943 4.49861 -1.99714 0
M  V30 1235 N 128.595 0.856903 1.32268 0
M  V30 1236 C 129.527 0.260412 2.27716 0
M  V30 1237 C 130.54 -0.569137 1.52528 0
M  V30 1238 O 131.729 -0.39326 1.74114 0
M  V30 1239 C 128.829 -0.650477 3.32599 0
M  V30 1240 C 128.002 0.14372 4.37164 0
M  V30 1241 C 127.061 -0.69328 5.21613 0
M  V30 1242 O 126.087 -0.12599 5.69061 0
M  V30 1243 N 127.289 -2.00761 5.44679 0
M  V30 1244 H 130.054 1.08059 2.79541 0
M  V30 1245 H 127.615 0.717103 1.45152 0
M  V30 1246 H 129.607 -1.21581 3.86005 0
M  V30 1247 H 128.177 -1.37133 2.80915 0
M  V30 1248 H 127.397 0.890486 3.8401 0
M  V30 1249 H 128.685 0.68915 5.04111 0
M  V30 1250 H 128.083 -2.49181 5.07863 0
M  V30 1251 H 126.64 -2.52103 6.01072 0
M  V30 1252 N 130.073 -1.45103 0.615059 0
M  V30 1253 C 131.319 -2.02483 0.113347 0
M  V30 1254 C 131.652 -1.48146 -1.25564 0
M  V30 1255 O 130.927 -0.659104 -1.82992 0
M  V30 1256 C 131.21 -3.60005 0.0825278 0
M  V30 1257 C 131.063 -4.2466 1.48271 0
M  V30 1258 C 132.382 -4.35972 -0.601401 0
M  V30 1259 H 129.501 -0.735764 0.0426632 0
M  V30 1260 H 132.143 -1.72868 0.788461 0
M  V30 1261 H 130.293 -3.85367 -0.492378 0
M  V30 1262 H 131.965 -4.10458 2.10527 0
M  V30 1263 H 130.208 -3.82772 2.04127 0
M  V30 1264 H 130.879 -5.336 1.41332 0
M  V30 1265 H 133.355 -4.15947 -0.112666 0
M  V30 1266 H 132.231 -5.45697 -0.592097 0
M  V30 1267 H 132.492 -4.09391 -1.66887 0
M  V30 1268 N 131.551 -0.354651 -1.53558 0
M  V30 1269 C 132.483 0.5315 -2.22952 0
M  V30 1270 C 133.496 1.05503 -1.23988 0
M  V30 1271 O 134.685 0.963279 -1.50277 0
M  V30 1272 C 131.785 1.74538 -2.90499 0
M  V30 1273 C 130.958 1.35524 -4.15875 0
M  V30 1274 C 130.017 2.42999 -4.66731 0
M  V30 1275 O 129.043 2.05844 -5.30676 0
M  V30 1276 N 130.245 3.74423 -4.43608 0
M  V30 1277 H 133.01 -0.0628615 -2.99634 0
M  V30 1278 H 130.571 -0.179302 -1.60904 0
M  V30 1279 H 132.563 2.45892 -3.21433 0
M  V30 1280 H 131.133 2.24686 -2.17336 0
M  V30 1281 H 130.353 0.471998 -3.91364 0
M  V30 1282 H 131.641 1.07071 -4.97406 0
M  V30 1283 H 131.039 4.07391 -3.92491 0
M  V30 1284 H 129.596 4.41913 -4.7912 0
M  V30 1285 N 133.029 1.57378 -0.0835403 0
M  V30 1286 C 133.992 2.12252 0.864959 0
M  V30 1287 C 134.992 1.04916 1.21858 0
M  V30 1288 O 136.182 1.30853 1.14991 0
M  V30 1289 C 133.314 2.63358 2.16461 0
M  V30 1290 H 134.507 2.97371 0.388676 0
M  V30 1291 H 132.06 1.55423 0.165317 0
M  V30 1292 H 132.795 1.81727 2.686 0
M  V30 1293 H 132.58 3.41826 1.92087 0
M  V30 1294 H 134.07 3.05847 2.84337 0
M  V30 1295 N 134.507 -0.190092 1.56449 0
M  V30 1296 C 135.747 -0.916414 1.82705 0
M  V30 1297 C 136.111 -1.80235 0.661763 0
M  V30 1298 O 137.312 -2.56484 0.80433 0
M  V30 1299 C 135.583 -1.70691 3.14005 0
M  V30 1300 S 137.142 -2.48457 3.61683 0
M  V30 1301 H 133.96 -0.307281 0.64117 0
M  V30 1302 H 136.562 -0.179433 1.94675 0
M  V30 1303 H 135.266 -1.04677 3.96826 0
M  V30 1304 H 134.797 -2.48562 3.04927 0
M  V30 1305 H 136.812 -3.72756 3.27517 0
M  V30 1306 N 135.985 -1.50799 -0.457987 0
M  V30 1307 C 137.232 -1.62442 -1.20908 0
M  V30 1308 C 137.56 -0.330865 -1.91665 0
M  V30 1309 O 136.815 0.68401 -1.83357 0
M  V30 1310 C 137.114 -2.76358 -2.2663 0
M  V30 1311 C 136.78 -4.16378 -1.73033 0
M  V30 1312 C 135.442 -4.54473 -1.58138 0
M  V30 1313 C 137.794 -5.03836 -1.33413 0
M  V30 1314 C 135.122 -5.77754 -1.02065 0
M  V30 1315 C 137.474 -6.27676 -0.78778 0
M  V30 1316 C 136.138 -6.64562 -0.625561 0
M  V30 1317 H 135.408 -0.594417 -0.442435 0
M  V30 1318 H 138.055 -1.84772 -0.503136 0
M  V30 1319 H 136.36 -2.48167 -3.03184 0
M  V30 1320 H 138.057 -2.82568 -2.84528 0
M  V30 1321 H 134.647 -3.86331 -1.85598 0
M  V30 1322 H 138.831 -4.75026 -1.4375 0
M  V30 1323 H 134.087 -6.04997 -0.882547 0
M  V30 1324 H 138.261 -6.94797 -0.472177 0
M  V30 1325 H 135.888 -7.59965 -0.188926 0
M  V30 1326 N 137.463 0.71206 -1.40597 0
M  V30 1327 C 138.688 1.50617 -1.42581 0
M  V30 1328 C 139.113 1.88079 -0.0282102 0
M  V30 1329 O 138.471 1.53511 0.964579 0
M  V30 1330 C 138.519 2.7557 -2.3258 0
M  V30 1331 O 137.623 3.72414 -1.77148 0
M  V30 1332 H 136.964 0.453966 -0.484573 0
M  V30 1333 H 139.494 0.876649 -1.84868 0
M  V30 1334 H 139.504 3.2406 -2.47889 0
M  V30 1335 H 138.179 2.47639 -3.34138 0
M  V30 1336 H 136.756 3.31276 -1.71204 0
M  V30 1337 N 138.941 1.26152 0.944643 0
M  V30 1338 C 140.357 1.03189 1.21754 0
M  V30 1339 C 140.557 -0.245112 2.00004 0
M  V30 1340 O 139.613 -0.955176 2.33736 0
M  V30 1341 C 140.926 2.26119 1.98219 0
M  V30 1342 C 142.474 2.30984 2.11224 0
M  V30 1343 C 142.949 3.53597 2.91089 0
M  V30 1344 N 144.44 3.54053 2.98664 0
M  V30 1345 C 145.175 4.45593 3.60881 0
M  V30 1346 N 144.671 5.47416 4.24626 0
M  V30 1347 N 146.464 4.33252 3.58119 0
M  V30 1348 H 138.615 2.08177 0.421437 0
M  V30 1349 H 140.878 0.914723 0.248969 0
M  V30 1350 H 140.584 3.18984 1.48128 0
M  V30 1351 H 140.458 2.3009 2.98895 0
M  V30 1352 H 142.845 1.38635 2.60508 0
M  V30 1353 H 142.926 2.31026 1.09821 0
M  V30 1354 H 142.57 4.46273 2.42493 0
M  V30 1355 H 142.5 3.50802 3.92741 0
M  V30 1356 H 144.991 2.80403 2.53343 0
M  V30 1357 H 145.304 6.13459 4.69987 0
M  V30 1358 H 143.649 5.51278 4.23223 0
M  V30 1359 H 146.84 3.52924 3.0751 0
M  V30 1360 H 147.013 5.04786 4.06319 0
M  V30 1361 N 140.419 -1.14872 1.07899 0
M  V30 1362 C 141.83 -1.67367 0.827363 0
M  V30 1363 C 142.181 -1.85236 -0.646693 0
M  V30 1364 O 141.306 -1.55974 -1.50004 0
M  V30 1365 C 141.901 -3.04016 1.49532 0
M  V30 1366 C 140.46 -3.53566 1.29106 0
M  V30 1367 C 139.607 -2.29161 1.56143 0
M  V30 1368 H 142.558 -0.990083 1.24028 0
M  V30 1369 H 142.579 -3.69219 0.919643 0
M  V30 1370 H 142.091 -2.90978 2.56814 0
M  V30 1371 H 140.192 -3.71835 0.238713 0
M  V30 1372 H 140.305 -4.34661 2.01511 0
M  V30 1373 H 138.669 -2.34978 0.982717 0
M  V30 1374 H 139.452 -2.18705 2.64619 0
M  V30 1375 N 141.898 -0.863906 -1.31812 0
M  V30 1376 C 143.309 -0.52522 -1.7916 0
M  V30 1377 C 143.66 0.957518 -1.71248 0
M  V30 1378 O 142.785 1.74734 -1.27659 0
M  V30 1379 C 143.38 -0.9466 -3.25307 0
M  V30 1380 C 141.939 -0.659668 -3.70574 0
M  V30 1381 C 141.086 -1.14126 -2.52726 0
M  V30 1382 H 144.037 -1.05022 -1.1898 0
M  V30 1383 H 144.058 -0.266766 -3.79564 0
M  V30 1384 H 143.57 -2.02579 -3.31034 0
M  V30 1385 H 141.671 0.408416 -3.70355 0
M  V30 1386 H 141.784 -1.23245 -4.62977 0
M  V30 1387 H 140.148 -0.561216 -2.4844 0
M  V30 1388 H 140.931 -2.22775 -2.61201 0
M  V30 1389 N 143.376 1.44774 -0.622745 0
M  V30 1390 C 144.601 2.06999 -0.128968 0
M  V30 1391 C 145.026 1.4617 1.1839 0
M  V30 1392 O 144.384 0.560007 1.72434 0
M  V30 1393 C 144.432 3.60595 -0.0188351 0
M  V30 1394 O 143.536 3.99398 1.02739 0
M  V30 1395 H 142.877 0.659047 -0.0809544 0
M  V30 1396 H 145.407 1.85784 -0.85705 0
M  V30 1397 H 145.417 4.07627 0.174476 0
M  V30 1398 H 144.092 4.04252 -0.977384 0
M  V30 1399 H 142.669 3.64011 0.809326 0
M  V30 1400 N 144.854 0.36279 1.53368 0
M  V30 1401 C 146.1 -0.228113 2.01513 0
M  V30 1402 C 146.433 -1.48648 1.2497 0
M  V30 1403 O 145.708 -1.91459 0.342616 0
M  V30 1404 C 145.991 -0.522884 3.56284 0
M  V30 1405 C 145.844 0.74892 4.43521 0
M  V30 1406 C 147.163 -1.32461 4.19693 0
M  V30 1407 H 144.282 -0.0814343 0.732487 0
M  V30 1408 H 146.924 0.48713 1.83649 0
M  V30 1409 H 145.074 -1.1322 3.71636 0
M  V30 1410 H 146.746 1.38648 4.39971 0
M  V30 1411 H 144.989 1.36986 4.11603 0
M  V30 1412 H 145.66 0.497667 5.49752 0
M  V30 1413 H 148.136 -0.809203 4.08156 0
M  V30 1414 H 147.012 -1.49961 5.28018 0
M  V30 1415 H 147.273 -2.33232 3.75573 0
M  V30 1416 N 146.332 -1.57332 0.0918853 0
M  V30 1417 C 147.578 -1.94524 -0.573425 0
M  V30 1418 C 147.911 -0.973578 -1.68033 0
M  V30 1419 O 147.186 -0.00609226 -1.94499 0
M  V30 1420 C 147.469 -3.41858 -1.13161 0
M  V30 1421 C 147.322 -4.4979 -0.0299747 0
M  V30 1422 C 148.641 -3.90435 -2.03098 0
M  V30 1423 H 145.76 -0.70734 -0.206975 0
M  V30 1424 H 148.402 -1.89309 0.161942 0
M  V30 1425 H 146.552 -3.46433 -1.7583 0
M  V30 1426 H 148.224 -4.57327 0.604112 0
M  V30 1427 H 146.467 -4.291 0.636833 0
M  V30 1428 H 147.138 -5.50069 -0.461287 0
M  V30 1429 H 149.614 -3.87992 -1.50338 0
M  V30 1430 H 148.49 -4.94097 -2.39081 0
M  V30 1431 H 148.751 -3.29541 -2.94712 0
M  V30 1432 N 147.81 0.181792 -1.56548 0
M  V30 1433 C 149.056 0.901431 -1.81665 0
M  V30 1434 C 149.389 1.82347 -0.668075 0
M  V30 1435 O 148.664 1.91669 0.330615 0
M  V30 1436 C 148.947 1.70618 -3.17115 0
M  V30 1437 C 148.8 0.807964 -4.42484 0
M  V30 1438 C 150.119 2.67605 -3.49393 0
M  V30 1439 H 147.238 0.32627 -0.660846 0
M  V30 1440 H 149.88 0.168134 -1.89255 0
M  V30 1441 H 148.03 2.33133 -3.10775 0
M  V30 1442 H 149.702 0.19649 -4.60881 0
M  V30 1443 H 147.945 0.115411 -4.33646 0
M  V30 1444 H 148.616 1.40632 -5.33785 0
M  V30 1445 H 151.092 2.15218 -3.56118 0
M  V30 1446 H 149.968 3.20985 -4.45264 0
M  V30 1447 H 150.229 3.47298 -2.73563 0
M  V30 1448 N 149.288 1.51039 0.449983 0
M  V30 1449 C 150.513 1.6715 1.22783 0
M  V30 1450 C 150.938 0.363081 1.84563 0
M  V30 1451 O 150.296 -0.675433 1.68249 0
M  V30 1452 C 150.344 2.77985 2.29689 0
M  V30 1453 O 149.448 2.40707 3.34864 0
M  V30 1454 H 148.789 0.557746 0.360299 0
M  V30 1455 H 151.319 1.97535 0.533005 0
M  V30 1456 H 151.329 3.01693 2.74673 0
M  V30 1457 H 150.004 3.72935 1.84098 0
M  V30 1458 H 148.581 2.27523 2.95445 0
M  V30 1459 N 150.766 -0.704594 1.40972 0
M  V30 1460 C 152.006 -1.47691 1.41304 0
M  V30 1461 C 152.37 -1.91992 0.0178582 0
M  V30 1462 O 153.571 -2.68599 -0.103996 0
M  V30 1463 C 151.842 -2.66254 2.38419 0
M  V30 1464 S 153.401 -3.55516 2.57204 0
M  V30 1465 H 150.219 -0.504808 0.500689 0
M  V30 1466 H 152.821 -0.822962 1.77335 0
M  V30 1467 H 151.525 -2.31897 3.38603 0
M  V30 1468 H 151.056 -3.3655 2.03711 0
M  V30 1469 H 153.071 -4.61115 1.83268 0
M  V30 1470 N 152.244 -1.26651 -0.937939 0
M  V30 1471 C 153.207 -1.08546 -2.01867 0
M  V30 1472 C 154.207 -0.0327327 -1.60767 0
M  V30 1473 O 155.397 -0.276427 -1.71993 0
M  V30 1474 C 152.529 -0.651711 -3.34613 0
M  V30 1475 H 153.722 -2.04502 -2.1936 0
M  V30 1476 H 151.275 -1.09294 -1.11734 0
M  V30 1477 H 152.01 0.309696 -3.22818 0
M  V30 1478 H 151.795 -1.41189 -3.65798 0
M  V30 1479 H 153.285 -0.546973 -4.14002 0
M  V30 1480 N 153.722 1.14298 -1.08507 0
M  V30 1481 C 154.97 1.84993 -0.813763 0
M  V30 1482 C 155.291 1.83405 0.662393 0
M  V30 1483 O 154.561 1.28319 1.48024 0
M  V30 1484 H 153.141 0.684966 -0.298045 0
M  V30 1485 H 155.803 1.385 -1.37126 0
M  V30 1486 H 154.899 2.89788 -1.15884 0
M  V30 1487 N 155.201 0.870884 1.31352 0
M  V30 1488 C 156.45 0.478408 1.95944 0
M  V30 1489 C 156.763 -0.974493 1.69597 0
M  V30 1490 O 157.969 -1.47316 2.28058 0
M  V30 1491 C 156.425 0.804609 3.50791 0
M  V30 1492 C 156.033 2.27433 3.85977 0
M  V30 1493 C 157.777 0.480648 4.2177 0
M  V30 1494 C 155.684 2.5429 5.33939 0
M  V30 1495 H 154.614 0.175175 0.733369 0
M  V30 1496 H 157.265 1.06391 1.4951 0
M  V30 1497 H 155.647 0.148347 3.95722 0
M  V30 1498 H 156.821 2.97373 3.52002 0
M  V30 1499 H 155.136 2.56442 3.28065 0
M  V30 1500 H 157.733 0.658519 5.30629 0
M  V30 1501 H 158.076 -0.578979 4.12254 0
M  V30 1502 H 158.609 1.09349 3.82476 0
M  V30 1503 H 155.348 3.58939 5.48491 0
M  V30 1504 H 154.868 1.88945 5.69263 0
M  V30 1505 H 156.547 2.39066 6.01212 0
M  V30 1506 N 156.679 -1.44442 0.630414 0
M  V30 1507 C 157.907 -2.06414 0.141671 0
M  V30 1508 C 158.322 -1.47105 -1.18345 0
M  V30 1509 O 157.679 -0.593662 -1.72574 0
M  V30 1510 C 157.73 -3.61494 0.0199784 0
M  V30 1511 O 157.451 -4.18594 1.29269 0
M  V30 1512 C 158.952 -4.40499 -0.497544 0
M  V30 1513 H 156.172 -0.666292 0.0793452 0
M  V30 1514 H 158.716 -1.85323 0.864614 0
M  V30 1515 H 156.871 -3.8185 -0.653402 0
M  V30 1516 H 157.285 -5.12026 1.13707 0
M  V30 1517 H 158.759 -5.49433 -0.531708 0
M  V30 1518 H 159.236 -4.11895 -1.52445 0
M  V30 1519 H 159.842 -4.25061 0.142562 0
M  V30 1520 N 158.157 -0.370918 -1.53173 0
M  V30 1521 C 159.089 0.507823 -2.23503 0
M  V30 1522 C 160.102 1.04182 -1.251 0
M  V30 1523 O 161.291 0.947286 -1.5129 0
M  V30 1524 C 158.391 1.71447 -2.92334 0
M  V30 1525 C 157.564 1.31105 -4.17289 0
M  V30 1526 C 156.623 2.38035 -4.69282 0
M  V30 1527 O 155.649 2.00204 -5.32829 0
M  V30 1528 N 156.851 3.69697 -4.47554 0
M  V30 1529 H 159.616 -0.0946382 -2.99551 0
M  V30 1530 H 157.177 -0.196358 -1.60705 0
M  V30 1531 H 159.169 2.42469 -3.24023 0
M  V30 1532 H 157.739 2.22368 -2.19707 0
M  V30 1533 H 156.959 0.430462 -3.91843 0
M  V30 1534 H 158.247 1.0179 -4.98514 0
M  V30 1535 H 157.645 4.03205 -3.9679 0
M  V30 1536 H 156.202 4.36807 -4.8378 0
M  V30 1537 N 159.635 1.57281 -0.100228 0
M  V30 1538 C 160.912 1.86014 0.604812 0
M  V30 1539 C 161.292 0.998025 1.86018 0
M  V30 1540 O 160.64 0.0718184 2.28387 0
M  V30 1541 C 160.85 3.36784 0.915278 0
M  V30 1542 C 162.198 4.04957 1.27651 0
M  V30 1543 O 163.222 3.41695 1.00613 0
M  V30 1544 O 162.081 5.16593 1.7831 0
M  V30 1545 H 159.175 0.76942 0.303185 0
M  V30 1546 H 161.721 1.69176 -0.133313 0
M  V30 1547 H 160.493 3.91292 0.0248896 0
M  V30 1548 H 160.116 3.58987 1.70921 0
M  V30 1549 N 161.113 -0.173488 1.56642 0
M  V30 1550 C 162.023 -1.23482 1.99473 0
M  V30 1551 C 163.039 -1.48567 0.905752 0
M  V30 1552 O 164.215 -1.60758 1.21321 0
M  V30 1553 C 161.28 -2.55444 2.34413 0
M  V30 1554 C 160.341 -2.38241 3.57127 0
M  V30 1555 C 159.574 -3.63909 3.90392 0
M  V30 1556 O 159.797 -4.68996 3.24653 0
M  V30 1557 O 158.731 -3.58149 4.83749 0
M  V30 1558 H 162.557 -0.901279 2.90018 0
M  V30 1559 H 160.142 -0.380185 1.44482 0
M  V30 1560 H 162.024 -3.33292 2.57865 0
M  V30 1561 H 160.699 -2.88382 1.4703 0
M  V30 1562 H 159.606 -1.58431 3.38896 0
M  V30 1563 H 160.939 -2.10228 4.45045 0
M  V30 1564 N 162.591 -1.51276 -0.441967 0
M  V30 1565 C 163.838 -1.63715 -1.19179 0
M  V30 1566 C 164.166 -0.351175 -1.91303 0
M  V30 1567 O 163.421 0.664524 -1.84072 0
M  V30 1568 C 163.72 -2.78746 -2.23686 0
M  V30 1569 C 163.386 -4.18189 -1.68607 0
M  V30 1570 C 162.048 -4.56125 -1.53308 0
M  V30 1571 C 164.4 -5.05222 -1.28062 0
M  V30 1572 C 161.728 -5.78804 -0.959317 0
M  V30 1573 C 164.08 -6.28476 -0.721162 0
M  V30 1574 C 162.744 -6.65188 -0.55504 0
M  V30 1575 H 162.014 -0.599076 -0.436106 0
M  V30 1576 H 164.661 -1.85296 -0.48351 0
M  V30 1577 H 162.966 -2.51369 -3.00535 0
M  V30 1578 H 164.663 -2.8557 -2.81515 0
M  V30 1579 H 161.253 -3.88277 -1.8149 0
M  V30 1580 H 165.437 -4.76524 -1.38704 0
M  V30 1581 H 160.693 -6.05899 -0.81833 0
M  V30 1582 H 164.867 -6.95259 -0.398458 0
M  V30 1583 H 162.494 -7.60123 -0.108311 0
M  V30 1584 N 164.069 0.697108 -1.41344 0
M  V30 1585 C 164.999 1.82353 -1.45841 0
M  V30 1586 C 165.98 1.67115 -0.317247 0
M  V30 1587 O 167.165 1.86871 -0.528474 0
M  V30 1588 C 164.295 3.20476 -1.33838 0
M  V30 1589 C 163.249 3.50415 -2.4575 0
M  V30 1590 C 162.575 4.87878 -2.18813 0
M  V30 1591 C 163.875 3.49546 -3.88091 0
M  V30 1592 H 165.569 1.78846 -2.40113 0
M  V30 1593 H 163.115 0.859028 -1.15571 0
M  V30 1594 H 165.068 3.98988 -1.35596 0
M  V30 1595 H 163.792 3.24604 -0.360498 0
M  V30 1596 H 162.451 2.74253 -2.43271 0
M  V30 1597 H 162.099 4.8863 -1.19371 0
M  V30 1598 H 161.799 5.08875 -2.93803 0
M  V30 1599 H 163.323 5.68702 -2.22284 0
M  V30 1600 H 164.737 4.18066 -3.92293 0
M  V30 1601 H 163.134 3.82075 -4.62751 0
M  V30 1602 H 164.204 2.48552 -4.16353 0
M  V30 1603 N 165.547 1.27147 0.931209 0
M  V30 1604 C 166.477 1.12081 2.04842 0
M  V30 1605 C 167.458 0.0232364 1.70084 0
M  V30 1606 O 168.643 0.197085 1.93197 0
M  V30 1607 C 165.773 0.76354 3.38803 0
M  V30 1608 C 164.727 1.81396 3.87659 0
M  V30 1609 C 164.053 1.31075 5.18385 0
M  V30 1610 C 165.353 3.21739 4.11438 0
M  V30 1611 H 167.047 2.05537 2.17703 0
M  V30 1612 H 164.593 0.989603 1.04608 0
M  V30 1613 H 166.546 0.644982 4.16435 0
M  V30 1614 H 165.27 -0.206727 3.25945 0
M  V30 1615 H 163.929 1.92136 3.12217 0
M  V30 1616 H 163.577 0.330037 5.01916 0
M  V30 1617 H 163.277 2.013 5.52044 0
M  V30 1618 H 164.801 1.20506 5.98591 0
M  V30 1619 H 166.215 3.14019 4.79651 0
M  V30 1620 H 164.612 3.89644 4.56397 0
M  V30 1621 H 165.682 3.67054 3.16859 0
M  V30 1622 N 167.025 -1.13721 1.09112 0
M  V30 1623 C 167.975 -2.17082 0.697091 0
M  V30 1624 C 168.959 -1.58321 -0.286923 0
M  V30 1625 O 170.151 -1.7673 -0.0978008 0
M  V30 1626 C 167.28 -3.43105 0.115729 0
M  V30 1627 C 166.366 -4.0888 1.12596 0
M  V30 1628 N 166.757 -4.4987 2.31195 0
M  V30 1629 C 165.055 -4.35471 0.963366 0
M  V30 1630 C 165.756 -5.01094 2.95431 0
M  V30 1631 N 164.732 -4.95751 2.23006 0
M  V30 1632 H 168.534 -2.46524 1.6001 0
M  V30 1633 H 166.048 -1.30481 0.966869 0
M  V30 1634 H 168.045 -4.16491 -0.184555 0
M  V30 1635 H 166.705 -3.15138 -0.78217 0
M  V30 1636 H 167.716 -4.42678 2.68806 0
M  V30 1637 H 164.393 -4.17328 0.119878 0
M  V30 1638 H 165.783 -5.4263 3.96236 0
M  V30 1639 N 168.503 -0.877838 -1.30888 0
M  V30 1640 C 169.436 -0.283995 -2.26426 0
M  V30 1641 C 170.414 0.591361 -1.51465 0
M  V30 1642 O 171.598 0.54304 -1.80509 0
M  V30 1643 C 168.725 0.597129 -3.33395 0
M  V30 1644 C 167.771 -0.207937 -4.25993 0
M  V30 1645 S 168.604 -1.59158 -5.11301 0
M  V30 1646 C 169.76 -0.716791 -6.21782 0
M  V30 1647 H 169.993 -1.09383 -2.76446 0
M  V30 1648 H 167.526 -0.676828 -1.38775 0
M  V30 1649 H 169.484 1.09978 -3.95493 0
M  V30 1650 H 168.145 1.38099 -2.82113 0
M  V30 1651 H 167.338 0.464163 -5.01858 0
M  V30 1652 H 166.94 -0.642963 -3.68432 0
M  V30 1653 H 169.232 0.0692833 -6.77465 0
M  V30 1654 H 170.175 -1.44682 -6.93161 0
M  V30 1655 H 170.583 -0.280855 -5.63801 0
M  V30 1656 N 169.982 1.44106 -0.638065 0
M  V30 1657 C 171.207 2.0685 -0.150916 0
M  V30 1658 C 171.632 1.47417 1.16833 0
M  V30 1659 O 170.99 0.578264 1.71831 0
M  V30 1660 C 171.038 3.60555 -0.05708 0
M  V30 1661 O 170.142 4.00465 0.984972 0
M  V30 1662 H 169.483 0.658151 -0.0879399 0
M  V30 1663 H 172.013 1.84865 -0.876707 0
M  V30 1664 H 172.023 4.07789 0.131232 0
M  V30 1665 H 170.698 4.03193 -1.02021 0
M  V30 1666 H 169.275 3.64849 0.770672 0
M  V30 1667 N 171.46 0.379036 1.52974 0
M  V30 1668 C 172.37 -0.468639 2.29872 0
M  V30 1669 C 173.386 -1.08067 1.36373 0
M  V30 1670 O 174.562 -1.08871 1.69438 0
M  V30 1671 C 171.627 -1.58594 3.083 0
M  V30 1672 C 170.688 -1.00007 4.17489 0
M  V30 1673 C 169.921 -2.06413 4.92168 0
M  V30 1674 O 170.144 -3.27751 4.66835 0
M  V30 1675 O 169.078 -1.68717 5.7777 0
M  V30 1676 H 172.904 0.157508 3.03291 0
M  V30 1677 H 170.489 0.143035 1.48714 0
M  V30 1678 H 172.371 -2.23525 3.57232 0
M  V30 1679 H 171.046 -2.19724 2.37703 0
M  V30 1680 H 169.953 -0.314299 3.72777 0
M  V30 1681 H 171.286 -0.433135 4.90291 0
M  V30 1682 N 172.938 -1.57226 0.108567 0
M  V30 1683 C 174.215 -1.86333 -0.594939 0
M  V30 1684 C 174.595 -1.00788 -1.85486 0
M  V30 1685 O 173.943 -0.0839293 -2.28346 0
M  V30 1686 C 174.153 -3.37265 -0.897405 0
M  V30 1687 C 175.501 -4.05629 -1.25501 0
M  V30 1688 O 176.525 -3.42224 -0.987998 0
M  V30 1689 O 175.384 -5.17531 -1.75567 0
M  V30 1690 H 172.478 -0.771018 -0.2991 0
M  V30 1691 H 175.024 -1.69102 0.142283 0
M  V30 1692 H 173.796 -3.913 -0.00413806 0
M  V30 1693 H 173.419 -3.59889 -1.69014 0
M  V30 1694 N 174.416 0.165178 -1.56732 0
M  V30 1695 C 175.693 0.908443 -1.73224 0
M  V30 1696 C 176.073 2.0013 -0.67165 0
M  V30 1697 O 175.421 2.26353 0.31253 0
M  V30 1698 C 175.631 1.46756 -3.16644 0
M  V30 1699 C 176.979 1.93809 -3.77787 0
M  V30 1700 O 178.003 1.56537 -3.1996 0
M  V30 1701 O 176.862 2.62486 -4.79336 0
M  V30 1702 H 173.956 0.428025 -0.707618 0
M  V30 1703 H 176.502 0.152526 -1.69013 0
M  V30 1704 H 175.274 0.68129 -3.85323 0
M  V30 1705 H 174.897 2.28749 -3.25207 0
M  V30 1706 N 175.894 1.51508 0.433938 0
M  V30 1707 C 177.14 1.65549 1.18173 0
M  V30 1708 C 177.495 0.368751 1.88833 0
M  V30 1709 O 176.788 -0.635616 1.8075 0
M  V30 1710 C 176.982 2.79928 2.22205 0
M  V30 1711 C 176.811 4.19601 1.61756 0
M  V30 1712 C 175.581 4.85489 1.40101 0
M  V30 1713 C 177.779 5.02574 1.09194 0
M  V30 1714 N 175.761 6.09266 0.752859 0
M  V30 1715 C 177.132 6.17381 0.569255 0
M  V30 1716 C 179.187 4.88079 0.984025 0
M  V30 1717 C 177.89 7.19282 -0.0507472 0
M  V30 1718 C 179.916 5.90191 0.377912 0
M  V30 1719 C 179.278 7.04272 -0.134216 0
M  V30 1720 H 175.377 0.659653 0.419979 0
M  V30 1721 H 177.961 1.88746 0.477818 0
M  V30 1722 H 176.132 2.5839 2.89982 0
M  V30 1723 H 177.864 2.83132 2.89168 0
M  V30 1724 H 174.619 4.43417 1.66369 0
M  V30 1725 H 175.043 6.75528 0.446123 0
M  V30 1726 H 179.685 4.00131 1.36583 0
M  V30 1727 H 177.403 8.06876 -0.444676 0
M  V30 1728 H 180.989 5.81045 0.296269 0
M  V30 1729 H 179.869 7.81933 -0.59585 0
M  V30 1730 N 177.372 -0.689602 1.41712 0
M  V30 1731 C 178.649 -1.44457 1.31877 0
M  V30 1732 C 179.029 -2.11039 -0.0508537 0
M  V30 1733 O 178.377 -2.02138 -1.06547 0
M  V30 1734 C 178.587 -2.45913 2.47645 0
M  V30 1735 C 179.935 -3.10991 2.89084 0
M  V30 1736 O 180.959 -2.56238 2.47428 0
M  V30 1737 O 179.818 -4.10174 3.61137 0
M  V30 1738 H 176.912 -0.64362 0.519309 0
M  V30 1739 H 179.458 -0.719576 1.53689 0
M  V30 1740 H 178.23 -1.95409 3.39015 0
M  V30 1741 H 177.853 -3.25913 2.27742 0
M  V30 1742 N 178.85 -1.27639 -0.924453 0
M  V30 1743 C 179.797 -1.10644 -2.0255 0
M  V30 1744 C 180.767 -0.00658438 -1.66099 0
M  V30 1745 O 181.952 -0.16952 -1.90045 0
M  V30 1746 C 179.092 -0.76309 -3.36557 0
M  V30 1747 C 178.205 -1.94091 -3.85944 0
M  V30 1748 C 177.34 -1.53914 -5.08413 0
M  V30 1749 C 176.379 -2.68425 -5.50104 0
M  V30 1750 N 175.516 -2.28815 -6.63768 0
M  V30 1751 H 180.356 -2.04858 -2.16419 0
M  V30 1752 H 177.893 -1.01974 -1.06017 0
M  V30 1753 H 179.851 -0.544822 -4.13627 0
M  V30 1754 H 178.481 0.142102 -3.22487 0
M  V30 1755 H 177.533 -2.27162 -3.05125 0
M  V30 1756 H 178.845 -2.7998 -4.12811 0
M  V30 1757 H 177.999 -1.28231 -5.92994 0
M  V30 1758 H 176.738 -0.651391 -4.8333 0
M  V30 1759 H 175.743 -2.94819 -4.64071 0
M  V30 1760 H 176.968 -3.57826 -5.7718 0
M  V30 1761 H 174.914 -1.42495 -6.40337 0
M  V30 1762 H 174.831 -3.08242 -6.90306 0
M  V30 1763 H 176.099 -2.06387 -7.51681 0
M  V30 1764 N 180.328 1.1314 -1.09713 0
M  V30 1765 C 181.574 1.84757 -0.836224 0
M  V30 1766 C 181.907 1.8347 0.636598 0
M  V30 1767 O 181.182 1.27491 1.46889 0
M  V30 1768 C 181.465 3.32782 -1.37578 0
M  V30 1769 C 181.318 3.42567 -2.91493 0
M  V30 1770 C 182.637 4.28307 -1.01198 0
M  V30 1771 H 179.756 0.67082 -0.305236 0
M  V30 1772 H 182.398 1.3278 -1.35903 0
M  V30 1773 H 180.548 3.77177 -0.931097 0
M  V30 1774 H 182.22 3.06862 -3.44432 0
M  V30 1775 H 180.463 2.83349 -3.28475 0
M  V30 1776 H 181.134 4.46674 -3.24324 0
M  V30 1777 H 183.61 3.91999 -1.39556 0
M  V30 1778 H 182.486 5.30307 -1.41653 0
M  V30 1779 H 182.747 4.42029 0.0794833 0
M  V30 1780 N 181.806 0.884767 1.30421 0
M  V30 1781 C 183.055 0.499164 1.95426 0
M  V30 1782 C 183.368 -0.95645 1.70621 0
M  V30 1783 O 184.574 -1.44889 2.29607 0
M  V30 1784 C 183.03 0.84177 3.49917 0
M  V30 1785 C 182.638 2.31514 3.83543 0
M  V30 1786 C 184.382 0.525355 4.21237 0
M  V30 1787 C 182.289 2.59939 5.31212 0
M  V30 1788 H 181.219 0.182944 0.73147 0
M  V30 1789 H 183.87 1.07971 1.48373 0
M  V30 1790 H 182.252 0.190311 3.95542 0
M  V30 1791 H 183.426 3.0109 3.48829 0
M  V30 1792 H 181.741 2.59907 3.25326 0
M  V30 1793 H 184.338 0.714762 5.29901 0
M  V30 1794 H 184.681 -0.535222 4.12845 0
M  V30 1795 H 185.214 1.134 3.81294 0
M  V30 1796 H 181.953 3.64736 5.44654 0
M  V30 1797 H 181.473 1.94972 5.67227 0
M  V30 1798 H 183.152 2.45429 5.98643 0
M  V30 1799 N 183.284 -1.43765 0.645699 0
M  V30 1800 C 184.247 -2.29163 -0.0409488 0
M  V30 1801 C 185.247 -1.41813 -0.757996 0
M  V30 1802 O 186.437 -1.63527 -0.600382 0
M  V30 1803 C 183.569 -3.23716 -1.06869 0
M  V30 1804 H 184.762 -2.91366 0.710345 0
M  V30 1805 H 182.315 -1.5092 0.406547 0
M  V30 1806 H 183.05 -2.66393 -1.84947 0
M  V30 1807 H 182.835 -3.88105 -0.558277 0
M  V30 1808 H 184.325 -3.87831 -1.54845 0
M  V30 1809 N 184.763 -0.387143 -1.52771 0
M  V30 1810 C 186.009 0.196025 -2.0185 0
M  V30 1811 C 186.342 1.46641 -1.27319 0
M  V30 1812 O 185.617 1.90889 -0.373032 0
M  V30 1813 C 185.9 0.466136 -3.5707 0
M  V30 1814 C 185.753 -0.819385 -4.42274 0
M  V30 1815 C 187.072 1.25768 -4.21747 0
M  V30 1816 H 184.191 0.0697708 -0.73369 0
M  V30 1817 H 186.833 -0.516286 -1.82851 0
M  V30 1818 H 184.983 1.07293 -3.7339 0
M  V30 1819 H 186.655 -1.4563 -4.37709 0
M  V30 1820 H 184.898 -1.43517 -4.09372 0
M  V30 1821 H 185.569 -0.585065 -5.48891 0
M  V30 1822 H 188.045 0.744167 -4.09391 0
M  V30 1823 H 186.921 1.41541 -5.30337 0
M  V30 1824 H 187.182 2.27228 -3.79236 0
M  V30 1825 N 186.241 1.57166 -0.116904 0
M  V30 1826 C 187.189 2.16457 0.851418 0
M  V30 1827 C 188.183 1.11323 1.27686 0
M  V30 1828 O 189.389 1.2963 1.24884 0
M  V30 1829 H 185.764 0.69271 0.292672 0
M  V30 1830 H 187.735 2.96605 0.32685 0
M  V30 1831 C 186.484 2.77689 2.09246 0
M  V30 1832 H 185.807 3.58285 1.77402 0
M  V30 1833 H 187.247 3.22716 2.7501 0
M  V30 1834 C 185.706 1.74667 2.88085 0
M  V30 1835 O 186.236 1.19877 3.83396 0
M  V30 1836 N 184.442 1.44656 2.52038 0
M  V30 1837 H 183.989 1.89402 1.74599 0
M  V30 1838 H 183.947 0.759675 3.05084 0
M  V30 1839 N 187.719 -0.156864 1.56817 0
M  V30 1840 C 188.649 -1.19589 2.00551 0
M  V30 1841 C 189.63 -1.4536 0.883426 0
M  V30 1842 O 190.815 -1.56449 1.15054 0
M  V30 1843 C 187.945 -2.53143 2.37773 0
M  V30 1844 C 186.899 -2.41913 3.53075 0
M  V30 1845 C 186.225 -3.80088 3.76081 0
M  V30 1846 C 187.525 -1.91157 4.86062 0
M  V30 1847 H 189.219 -0.832293 2.87599 0
M  V30 1848 H 186.765 -0.398918 1.38364 0
M  V30 1849 H 188.718 -3.26047 2.66967 0
M  V30 1850 H 187.442 -2.91319 1.4765 0
M  V30 1851 H 186.101 -1.71462 3.24031 0
M  V30 1852 H 185.749 -4.15683 2.83225 0
M  V30 1853 H 185.449 -3.73439 4.53671 0
M  V30 1854 H 186.973 -4.54556 4.0769 0
M  V30 1855 H 188.387 -2.53846 5.14038 0
M  V30 1856 H 186.784 -1.95422 5.67389 0
M  V30 1857 H 187.854 -0.866673 4.77092 0
M  V30 1858 N 189.197 -1.51736 -0.425897 0
M  V30 1859 C 190.144 -1.73875 -1.51776 0
M  V30 1860 C 191.114 -0.580702 -1.55618 0
M  V30 1861 O 192.299 -0.81641 -1.72451 0
M  V30 1862 C 189.439 -1.88012 -2.89388 0
M  V30 1863 C 188.552 -3.15606 -2.94986 0
M  V30 1864 C 187.687 -3.20271 -4.23793 0
M  V30 1865 C 186.726 -4.42134 -4.23302 0
M  V30 1866 N 185.863 -4.44284 -5.43651 0
M  V30 1867 H 190.703 -2.67071 -1.32201 0
M  V30 1868 H 188.24 -1.32351 -0.642008 0
M  V30 1869 H 190.198 -1.9419 -3.69251 0
M  V30 1870 H 188.828 -0.98213 -3.07496 0
M  V30 1871 H 187.88 -3.18681 -2.07717 0
M  V30 1872 H 189.192 -4.05486 -2.90486 0
M  V30 1873 H 188.346 -3.25428 -5.12036 0
M  V30 1874 H 187.085 -2.28299 -4.30965 0
M  V30 1875 H 186.09 -4.3714 -3.3345 0
M  V30 1876 H 187.315 -5.35382 -4.17783 0
M  V30 1877 H 185.261 -3.55188 -5.51523 0
M  V30 1878 H 185.178 -5.27988 -5.41078 0
M  V30 1879 H 186.446 -4.53649 -6.33895 0
M  V30 1880 N 190.675 0.682077 -1.42076 0
M  V30 1881 C 191.923 1.4393 -1.41876 0
M  V30 1882 C 192.244 1.94971 -0.0335599 0
M  V30 1883 O 191.514 1.72591 0.926773 0
M  V30 1884 H 190.094 0.534085 -0.522267 0
M  V30 1885 H 192.756 0.806427 -1.77434 0
M  V30 1886 H 191.852 2.29588 -2.11414 0
M  V30 1887 N 192.153 1.28127 0.917671 0
M  V30 1888 C 193.381 1.17892 1.70026 0
M  V30 1889 C 193.796 -0.262958 1.8696 0
M  V30 1890 O 193.153 -1.17811 1.3938 0
M  V30 1891 C 193.204 1.86872 3.09453 0
M  V30 1892 O 192.925 3.25428 2.93306 0
M  V30 1893 C 194.426 1.8289 4.03815 0
M  V30 1894 H 191.646 0.40942 0.531617 0
M  V30 1895 H 194.19 1.69181 1.14883 0
M  V30 1896 H 192.345 1.39464 3.61426 0
M  V30 1897 H 192.759 3.59918 3.81523 0
M  V30 1898 H 194.233 2.35751 4.99125 0
M  V30 1899 H 194.71 0.800412 4.31845 0
M  V30 1900 H 195.316 2.29959 3.57769 0
M  V30 1901 N 193.631 -1.12557 1.10312 0
M  V30 1902 C 194.878 -1.84038 0.844759 0
M  V30 1903 C 195.206 -1.84026 -0.629668 0
M  V30 1904 O 194.461 -1.28026 -1.48013 0
M  V30 1905 C 194.76 -3.31462 1.33669 0
M  V30 1906 C 194.426 -3.51647 2.82232 0
M  V30 1907 C 193.088 -3.56864 3.22802 0
M  V30 1908 C 195.44 -3.58867 3.77974 0
M  V30 1909 C 192.768 -3.66844 4.57867 0
M  V30 1910 C 195.12 -3.70375 5.1284 0
M  V30 1911 C 193.784 -3.73848 5.52986 0
M  V30 1912 H 193.054 -0.673444 0.309119 0
M  V30 1913 H 195.701 -1.32824 1.37949 0
M  V30 1914 H 194.006 -3.85091 0.721949 0
M  V30 1915 H 195.703 -3.85236 1.11329 0
M  V30 1916 H 192.293 -3.48249 2.49842 0
M  V30 1917 H 196.477 -3.54107 3.47738 0
M  V30 1918 H 191.733 -3.67804 4.88396 0
M  V30 1919 H 195.907 -3.74904 5.86873 0
M  V30 1920 H 193.534 -3.81333 6.57639 0
M  V30 1921 N 195.109 -0.891671 -1.2995 0
M  V30 1922 C 196.039 -0.379797 -2.30391 0
M  V30 1923 C 197.02 0.540919 -1.6127 0
M  V30 1924 O 198.205 0.453352 -1.88834 0
M  V30 1925 C 195.335 0.400654 -3.44981 0
M  V30 1926 C 194.289 -0.428905 -4.25846 0
M  V30 1927 C 193.615 0.478557 -5.32554 0
M  V30 1928 C 194.915 -1.67458 -4.94727 0
M  V30 1929 H 196.609 -1.21914 -2.73454 0
M  V30 1930 H 194.155 -0.587675 -1.31462 0
M  V30 1931 H 196.108 0.769434 -4.14316 0
M  V30 1932 H 194.832 1.27371 -3.0074 0
M  V30 1933 H 193.491 -0.779911 -3.58208 0
M  V30 1934 H 193.139 1.34951 -4.84559 0
M  V30 1935 H 192.839 -0.0727433 -5.87555 0
M  V30 1936 H 194.363 0.843705 -6.04743 0
M  V30 1937 H 195.777 -1.376 -5.56542 0
M  V30 1938 H 194.174 -2.16659 -5.59624 0
M  V30 1939 H 195.244 -2.41518 -4.20473 0
M  V30 1940 N 196.587 1.43421 -0.653314 0
M  V30 1941 C 197.833 2.02111 -0.166992 0
M  V30 1942 C 198.166 1.51423 1.21592 0
M  V30 1943 O 197.441 0.707389 1.8118 0
M  V30 1944 C 197.724 3.5966 -0.177948 0
M  V30 1945 C 197.577 4.20579 -1.59478 0
M  V30 1946 C 198.896 4.37413 0.4856 0
M  V30 1947 H 196.015 0.734374 -0.0621557 0
M  V30 1948 H 198.657 1.70717 -0.834016 0
M  V30 1949 H 196.807 3.86537 0.390032 0
M  V30 1950 H 198.479 4.04732 -2.21336 0
M  V30 1951 H 196.722 3.77226 -2.14204 0
M  V30 1952 H 197.393 5.29665 -1.5543 0
M  V30 1953 H 199.869 4.161 0.00234528 0
M  V30 1954 H 198.745 5.47075 0.447207 0
M  V30 1955 H 199.006 4.13672 1.55974 0
M  V30 1956 N 198.065 0.39524 1.52563 0
M  V30 1957 C 199.293 -0.184943 2.06072 0
M  V30 1958 C 199.708 -1.40021 1.26647 0
M  V30 1959 O 199.065 -1.79767 0.314672 0
M  V30 1960 C 199.116 -0.549179 3.57304 0
M  V30 1961 O 198.837 0.617813 4.33722 0
M  V30 1962 C 200.338 -1.18459 4.2718 0
M  V30 1963 H 197.558 -0.0265025 0.670476 0
M  V30 1964 H 200.102 0.562184 1.96621 0
M  V30 1965 H 198.257 -1.2462 3.66809 0
M  V30 1966 H 198.671 0.317091 5.23541 0
M  V30 1967 H 200.145 -1.38976 5.34219 0
M  V30 1968 H 200.622 -2.15368 3.82771 0
M  V30 1969 H 201.228 -0.528163 4.22008 0
M  V30 1970 N 199.544 -1.57102 0.125237 0
M  V30 1971 C 200.476 -2.12726 -0.853237 0
M  V30 1972 C 201.489 -1.07145 -1.22571 0
M  V30 1973 O 202.678 -1.34497 -1.17358 0
M  V30 1974 C 199.778 -2.61709 -2.15317 0
M  V30 1975 C 198.951 -3.91456 -1.95143 0
M  V30 1976 C 198.01 -4.25973 -3.08923 0
M  V30 1977 O 197.036 -4.94682 -2.81564 0
M  V30 1978 N 198.238 -3.83795 -4.35524 0
M  V30 1979 H 201.003 -2.97307 -0.377964 0
M  V30 1980 H 198.564 -1.61792 -0.0590011 0
M  V30 1981 H 200.556 -2.81826 -2.90441 0
M  V30 1982 H 199.126 -1.81974 -2.54174 0
M  V30 1983 H 198.346 -3.80185 -1.04177 0
M  V30 1984 H 199.634 -4.76283 -1.78976 0
M  V30 1985 H 199.032 -3.2839 -4.60626 0
M  V30 1986 H 197.589 -4.09008 -5.07499 0
M  V30 1987 N 201.022 0.148545 -1.56898 0
M  V30 1988 C 201.985 1.16736 -1.97244 0
M  V30 1989 C 202.985 1.35947 -0.858777 0
M  V30 1990 O 204.175 1.32966 -1.12542 0
M  V30 1991 C 201.307 2.52798 -2.28705 0
M  V30 1992 H 202.5 0.821279 -2.88435 0
M  V30 1993 H 200.053 0.391831 -1.51309 0
M  V30 1994 H 200.788 2.92381 -1.403 0
M  V30 1995 H 200.573 2.40216 -3.09901 0
M  V30 1996 H 202.063 3.26179 -2.60762 0
M  V30 1997 N 202.5 1.5196 0.417844 0
M  V30 1998 C 203.463 1.74065 1.49111 0
M  V30 1999 C 204.463 0.610537 1.48758 0
M  V30 2000 O 205.653 0.87832 1.50437 0
M  V30 2001 C 202.785 1.81502 2.88565 0
M  V30 2002 H 203.978 2.69869 1.30807 0
M  V30 2003 H 201.531 1.42244 0.647785 0
M  V30 2004 H 202.266 0.875813 3.1225 0
M  V30 2005 H 202.051 2.63651 2.90225 0
M  V30 2006 H 203.541 2.00376 3.66387 0
M  V30 2007 N 203.978 -0.674533 1.42435 0
M  V30 2008 C 204.941 -1.76986 1.45632 0
M  V30 2009 C 205.941 -1.5708 0.343871 0
M  V30 2010 O 207.131 -1.63367 0.604709 0
M  V30 2011 C 204.263 -3.15623 1.28822 0
M  V30 2012 H 205.456 -1.75539 2.43158 0
M  V30 2013 H 203.009 -0.884189 1.28887 0
M  V30 2014 H 203.744 -3.22696 0.322193 0
M  V30 2015 H 203.529 -3.31475 2.09444 0
M  V30 2016 H 205.019 -3.95537 1.33942 0
M  V30 2017 N 205.456 -1.28612 -0.910864 0
M  V30 2018 C 206.388 -1.08589 -2.01844 0
M  V30 2019 C 207.401 -0.0367419 -1.62759 0
M  V30 2020 O 208.59 -0.280101 -1.76289 0
M  V30 2021 C 205.69 -0.628626 -3.33019 0
M  V30 2022 C 204.863 -1.75382 -4.00699 0
M  V30 2023 C 203.922 -1.28945 -5.10156 0
M  V30 2024 O 202.948 -1.9922 -5.33198 0
M  V30 2025 N 204.15 -0.154224 -5.80295 0
M  V30 2026 H 206.915 -2.03973 -2.19579 0
M  V30 2027 H 204.476 -1.20403 -1.08234 0
M  V30 2028 H 206.468 -0.301508 -4.03575 0
M  V30 2029 H 205.038 0.232451 -3.11735 0
M  V30 2030 H 204.258 -2.25039 -3.23653 0
M  V30 2031 H 205.546 -2.50854 -4.42662 0
M  V30 2032 H 204.944 0.43194 -5.64049 0
M  V30 2033 H 203.501 0.113599 -6.51701 0
M  V30 2034 N 206.934 1.1197 -1.10907 0
M  V30 2035 C 207.897 2.16031 -0.765707 0
M  V30 2036 C 208.897 1.59393 0.212235 0
M  V30 2037 O 210.087 1.74196 -0.0115441 0
M  V30 2038 C 207.219 3.40632 -0.135053 0
M  V30 2039 H 208.412 2.47919 -1.68748 0
M  V30 2040 H 205.965 1.27061 -0.910226 0
M  V30 2041 H 206.7 3.14348 0.797218 0
M  V30 2042 H 206.485 3.8302 -0.838937 0
M  V30 2043 H 207.975 4.17505 0.0892469 0
M  V30 2044 N 208.412 0.89855 1.29475 0
M  V30 2045 C 209.342 0.39201 2.30186 0
M  V30 2046 C 210.323 -0.532359 1.61555 0
M  V30 2047 O 211.508 -0.443331 1.89072 0
M  V30 2048 C 208.638 -0.382353 3.45189 0
M  V30 2049 C 207.592 0.451483 4.25612 0
M  V30 2050 C 206.918 -0.450307 5.328 0
M  V30 2051 C 208.218 1.70079 4.93832 0
M  V30 2052 H 209.912 1.23362 2.72804 0
M  V30 2053 H 207.458 0.594638 1.31149 0
M  V30 2054 H 209.411 -0.747451 4.14718 0
M  V30 2055 H 208.135 -1.25774 3.01411 0
M  V30 2056 H 206.794 0.798897 3.57789 0
M  V30 2057 H 206.442 -1.32379 4.85268 0
M  V30 2058 H 206.142 0.103902 5.87508 0
M  V30 2059 H 207.666 -0.811623 6.05182 0
M  V30 2060 H 209.08 1.40549 5.55805 0
M  V30 2061 H 207.477 2.19623 5.58467 0
M  V30 2062 H 208.547 2.43744 4.19186 0
M  V30 2063 N 209.89 -1.43072 0.660911 0
M  V30 2064 C 211.136 -2.0202 0.177708 0
M  V30 2065 C 211.469 -1.52066 -1.20787 0
M  V30 2066 O 210.744 -0.716987 -1.80802 0
M  V30 2067 C 211.027 -3.59561 0.197019 0
M  V30 2068 C 210.88 -4.19727 1.61706 0
M  V30 2069 C 212.199 -4.37664 -0.462396 0
M  V30 2070 H 209.318 -0.734034 0.0660494 0
M  V30 2071 H 211.96 -1.70272 0.843058 0
M  V30 2072 H 210.11 -3.86739 -0.369527 0
M  V30 2073 H 211.782 -4.03553 2.23479 0
M  V30 2074 H 210.025 -3.76084 2.16201 0
M  V30 2075 H 210.696 -5.28834 1.58237 0
M  V30 2076 H 213.172 -4.16095 0.0197215 0
M  V30 2077 H 212.048 -5.47305 -0.418188 0
M  V30 2078 H 212.309 -4.14493 -1.53778 0
M  V30 2079 N 211.368 -0.403325 -1.52352 0
M  V30 2080 C 212.593 0.176499 -2.06648 0
M  V30 2081 C 213.018 1.38577 -1.27193 0
M  V30 2082 O 212.376 1.7879 -0.300637 0
M  V30 2083 C 212.424 0.511061 -3.5696 0
M  V30 2084 O 211.528 1.60294 -3.79973 0
M  V30 2085 H 210.869 0.0167337 -0.663789 0
M  V30 2086 H 213.399 -0.574848 -1.96359 0
M  V30 2087 H 213.409 0.771362 -4.00642 0
M  V30 2088 H 212.084 -0.37296 -4.14224 0
M  V30 2089 H 210.661 1.33526 -3.48174 0
M  V30 2090 N 212.846 1.57033 -0.133567 0
M  V30 2091 C 213.794 2.17348 0.828412 0
M  V30 2092 C 214.788 1.12671 1.26498 0
M  V30 2093 O 215.994 1.30947 1.23502 0
M  V30 2094 H 212.369 0.695775 0.285309 0
M  V30 2095 H 214.34 2.96935 0.295372 0
M  V30 2096 C 213.089 2.79893 2.06289 0
M  V30 2097 H 212.412 3.60147 1.73592 0
M  V30 2098 H 213.852 3.25615 2.71572 0
M  V30 2099 C 212.311 1.77713 2.86216 0
M  V30 2100 O 212.841 1.23937 3.82103 0
M  V30 2101 N 211.047 1.47321 2.50489 0
M  V30 2102 H 210.594 1.91243 1.7258 0
M  V30 2103 H 210.552 0.79199 3.04261 0
M  V30 2104 N 214.325 -0.140222 1.56975 0
M  V30 2105 C 215.573 -0.850005 1.83356 0
M  V30 2106 C 215.894 -1.81399 0.71551 0
M  V30 2107 O 215.164 -1.94136 -0.262294 0
M  V30 2108 H 213.744 -0.316886 0.676456 0
M  V30 2109 H 216.406 -0.132608 1.94448 0
M  V30 2110 H 215.502 -1.40814 2.78528 0
M  V30 2111 N 215.803 -1.52179 -0.40978 0
M  V30 2112 C 217.043 -1.67882 -1.16597 0
M  V30 2113 C 217.407 -0.399795 -1.87791 0
M  V30 2114 O 218.608 -0.43292 -2.65291 0
M  V30 2115 C 216.879 -2.86662 -2.13448 0
M  V30 2116 S 218.438 -3.22843 -2.97183 0
M  V30 2117 H 215.256 -0.59118 -0.395002 0
M  V30 2118 H 217.858 -1.9017 -0.453373 0
M  V30 2119 H 216.562 -3.77998 -1.59831 0
M  V30 2120 H 216.093 -2.66645 -2.89247 0
M  V30 2121 H 218.108 -2.71415 -4.15389 0
M  V30 2122 N 217.281 0.66697 -1.42791 0
M  V30 2123 C 218.697 0.981027 -1.25889 0
M  V30 2124 C 218.897 2.00793 -0.168695 0
M  V30 2125 O 217.953 2.48321 0.45747 0
M  V30 2126 C 219.266 1.47838 -2.61848 0
M  V30 2127 C 220.814 1.59575 -2.69267 0
M  V30 2128 C 221.289 2.12704 -4.05612 0
M  V30 2129 N 222.78 2.20026 -4.07606 0
M  V30 2130 C 223.515 2.62227 -5.09926 0
M  V30 2131 N 223.011 3.03824 -6.22626 0
M  V30 2132 N 224.804 2.62045 -4.97281 0
M  V30 2133 H 216.955 -0.0127891 -2.12396 0
M  V30 2134 H 219.218 0.0568258 -0.946295 0
M  V30 2135 H 218.924 0.798299 -3.4252 0
M  V30 2136 H 218.798 2.45579 -2.86305 0
M  V30 2137 H 221.185 2.26687 -1.88936 0
M  V30 2138 H 221.266 0.60302 -2.48591 0
M  V30 2139 H 220.91 1.46198 -4.86404 0
M  V30 2140 H 220.84 3.12782 -4.23645 0
M  V30 2141 H 223.331 1.90708 -3.2625 0
M  V30 2142 H 223.644 3.34734 -6.96544 0
M  V30 2143 H 221.989 3.01662 -6.26119 0
M  V30 2144 H 225.18 2.28916 -4.08308 0
M  V30 2145 H 225.353 2.94613 -5.77154 0
M  V30 2146 N 218.759 1.29093 0.90403 0
M  V30 2147 C 220.007 1.16583 1.65085 0
M  V30 2148 C 220.328 -0.283933 1.92922 0
M  V30 2149 O 219.598 -1.19509 1.55224 0
M  V30 2150 H 218.178 0.428467 0.611903 0
M  V30 2151 H 220.84 1.61959 1.08422 0
M  V30 2152 H 219.936 1.71266 2.6091 0
M  V30 2153 N 220.237 -1.11381 1.11499 0
M  V30 2154 C 221.462 -1.87475 0.887019 0
M  V30 2155 C 221.887 -1.79639 -0.557796 0
M  V30 2156 O 221.245 -1.15924 -1.39396 0
M  V30 2157 C 221.293 -3.34213 1.35403 0
M  V30 2158 O 220.397 -4.0903 0.526146 0
M  V30 2159 H 219.738 -0.582099 0.319463 0
M  V30 2160 H 222.268 -1.40785 1.48461 0
M  V30 2161 H 222.278 -3.8506 1.34881 0
M  V30 2162 H 220.953 -3.39232 2.40612 0
M  V30 2163 H 219.53 -3.68082 0.597522 0
M  V30 2164 N 221.715 -0.905404 -1.28997 0
M  V30 2165 C 222.964 -0.530191 -1.94607 0
M  V30 2166 C 223.277 0.929185 -1.72121 0
M  V30 2167 O 224.483 1.41218 -2.31883 0
M  V30 2168 C 222.939 -0.897333 -3.48534 0
M  V30 2169 C 222.547 -2.37587 -3.79811 0
M  V30 2170 C 224.291 -0.592304 -4.20347 0
M  V30 2171 C 222.198 -2.68357 -5.27009 0
M  V30 2172 H 221.128 -0.194558 -0.728466 0
M  V30 2173 H 223.779 -1.10318 -1.46636 0
M  V30 2174 H 222.161 -0.253214 -3.9519 0
M  V30 2175 H 223.335 -3.06602 -3.43994 0
M  V30 2176 H 221.65 -2.6505 -3.2115 0
M  V30 2177 H 224.247 -0.798975 -5.28697 0
M  V30 2178 H 224.59 0.469474 -4.13644 0
M  V30 2179 H 225.123 -1.19452 -3.79442 0
M  V30 2180 H 221.862 -3.73355 -5.38782 0
M  V30 2181 H 221.382 -2.03971 -5.64053 0
M  V30 2182 H 223.061 -2.54922 -5.94663 0
M  V30 2183 N 223.193 1.4272 -0.668489 0
M  V30 2184 C 224.442 2.00846 -0.185389 0
M  V30 2185 C 224.755 1.53442 1.21305 0
M  V30 2186 O 225.961 2.03944 1.79218 0
M  V30 2187 C 224.417 3.58805 -0.280591 0
M  V30 2188 C 224.025 4.15198 -1.68268 0
M  V30 2189 C 225.769 4.24255 0.14412 0
M  V30 2190 C 223.676 5.655 -1.73099 0
M  V30 2191 H 222.606 0.751145 -0.0655475 0
M  V30 2192 H 225.257 1.63516 -0.832752 0
M  V30 2193 H 223.639 3.93608 0.434553 0
M  V30 2194 H 224.813 3.91866 -2.42441 0
M  V30 2195 H 223.128 3.62176 -2.05469 0
M  V30 2196 H 225.725 5.34547 0.128086 0
M  V30 2197 H 226.068 3.99277 1.17827 0
M  V30 2198 H 226.601 3.94389 -0.519798 0
M  V30 2199 H 223.34 5.95268 -2.74475 0
M  V30 2200 H 222.86 5.90842 -1.03274 0
M  V30 2201 H 224.539 6.29808 -1.48158 0
M  V30 2202 N 224.671 0.411399 1.52136 0
M  V30 2203 C 225.619 -0.427633 2.28635 0
M  V30 2204 C 226.613 -1.04383 1.33419 0
M  V30 2205 O 227.819 -0.981772 1.50868 0
M  V30 2206 H 224.194 -0.156689 0.735495 0
M  V30 2207 H 226.165 0.238761 2.97443 0
M  V30 2208 C 224.914 -1.53082 3.12188 0
M  V30 2209 H 224.237 -1.06601 3.85326 0
M  V30 2210 H 225.677 -2.09167 3.68816 0
M  V30 2211 C 224.136 -2.49946 2.25895 0
M  V30 2212 O 224.666 -3.53884 1.90076 0
M  V30 2213 N 222.872 -2.2021 1.8962 0
M  V30 2214 H 222.419 -1.35719 2.18948 0
M  V30 2215 H 222.377 -2.85266 1.32176 0
M  V30 2216 N 226.149 -1.5696 0.141893 0
M  V30 2217 C 227.398 -1.95135 -0.510427 0
M  V30 2218 C 227.711 -1.02896 -1.66348 0
M  V30 2219 O 228.917 -1.30629 -2.38009 0
M  V30 2220 C 227.373 -3.46876 -0.959427 0
M  V30 2221 C 226.981 -4.47691 0.166419 0
M  V30 2222 C 228.725 -3.93927 -1.58183 0
M  V30 2223 C 226.632 -5.90636 -0.300565 0
M  V30 2224 H 225.562 -0.728494 -0.194454 0
M  V30 2225 H 228.213 -1.8211 0.22542 0
M  V30 2226 H 226.595 -3.55215 -1.75038 0
M  V30 2227 H 227.769 -4.51043 0.94325 0
M  V30 2228 H 226.084 -4.10527 0.696905 0
M  V30 2229 H 228.681 -4.98158 -1.94275 0
M  V30 2230 H 229.024 -3.3519 -2.46888 0
M  V30 2231 H 229.557 -3.88484 -0.855863 0
M  V30 2232 H 226.296 -6.5318 0.550989 0
M  V30 2233 H 225.816 -5.90655 -1.04338 0
M  V30 2234 H 227.495 -6.42588 -0.754265 0
M  V30 2235 N 227.627 0.131896 -1.57047 0
M  V30 2236 C 228.852 0.860418 -1.8871 0
M  V30 2237 C 229.277 1.73251 -0.73251 0
M  V30 2238 O 228.635 1.785 0.317429 0
M  V30 2239 C 228.683 1.68047 -3.19049 0
M  V30 2240 O 227.787 2.7862 -3.04047 0
M  V30 2241 H 227.128 0.238743 -0.619595 0
M  V30 2242 H 229.658 0.118169 -2.04258 0
M  V30 2243 H 229.668 2.07238 -3.51449 0
M  V30 2244 H 228.343 1.04018 -4.02682 0
M  V30 2245 H 226.92 2.42726 -2.83088 0
M  V30 2246 N 229.106 1.52395 0.401703 0
M  V30 2247 C 230.331 1.70972 1.17403 0
M  V30 2248 C 230.756 0.421615 1.83314 0
M  V30 2249 O 230.114 -0.621564 1.70312 0
M  V30 2250 C 230.162 2.85151 2.20728 0
M  V30 2251 O 229.266 2.51238 3.27037 0
M  V30 2252 H 228.607 0.568927 0.342372 0
M  V30 2253 H 231.137 1.99131 0.469891 0
M  V30 2254 H 231.147 3.10279 2.64936 0
M  V30 2255 H 229.822 3.78603 1.7214 0
M  V30 2256 H 228.399 2.36808 2.88057 0
M  V30 2257 N 230.584 -0.659388 1.43143 0
M  V30 2258 C 231.833 -1.41518 1.43721 0
M  V30 2259 C 232.146 -1.95499 0.0628176 0
M  V30 2260 O 233.352 -2.71446 -0.0539683 0
M  V30 2261 C 231.808 -2.5608 2.52885 0
M  V30 2262 C 231.416 -2.08733 3.96402 0
M  V30 2263 C 233.16 -3.3349 2.62649 0
M  V30 2264 C 231.067 -3.20469 4.97045 0
M  V30 2265 H 229.997 -0.531705 0.534608 0
M  V30 2266 H 232.648 -0.712343 1.69109 0
M  V30 2267 H 231.03 -3.28805 2.20688 0
M  V30 2268 H 232.204 -1.43059 4.3803 0
M  V30 2269 H 230.519 -1.44219 3.90627 0
M  V30 2270 H 233.116 -4.16734 3.35017 0
M  V30 2271 H 233.459 -3.8111 1.67513 0
M  V30 2272 H 233.992 -2.67842 2.94118 0
M  V30 2273 H 230.731 -2.77824 5.93712 0
M  V30 2274 H 230.251 -3.84874 4.60034 0
M  V30 2275 H 231.93 -3.85698 5.19467 0
M  V30 2276 N 232.062 -1.29571 -0.897171 0
M  V30 2277 C 233.308 -1.17863 -1.65034 0
M  V30 2278 C 233.641 0.268729 -1.92332 0
M  V30 2279 O 232.916 1.19378 -1.53555 0
M  V30 2280 C 233.199 -1.995 -2.99786 0
M  V30 2281 C 233.052 -3.5239 -2.79538 0
M  V30 2282 C 234.371 -1.82335 -4.00552 0
M  V30 2283 H 231.49 -0.429528 -0.598895 0
M  V30 2284 H 234.132 -1.59072 -1.03905 0
M  V30 2285 H 232.282 -1.64485 -3.51962 0
M  V30 2286 H 233.954 -3.97401 -2.34244 0
M  V30 2287 H 232.197 -3.77187 -2.14273 0
M  V30 2288 H 232.868 -4.04787 -3.75302 0
M  V30 2289 H 235.344 -2.12924 -3.57495 0
M  V30 2290 H 234.22 -2.41801 -4.92771 0
M  V30 2291 H 234.481 -0.779209 -4.35179 0
M  V30 2292 N 233.54 1.10788 -1.12088 0
M  V30 2293 C 234.788 1.8231 -0.872205 0
M  V30 2294 C 235.109 1.85419 0.603709 0
M  V30 2295 O 234.379 1.32963 1.43867 0
M  V30 2296 H 232.959 0.675137 -0.319686 0
M  V30 2297 H 235.621 1.34068 -1.41463 0
M  V30 2298 H 234.717 2.85955 -1.25045 0
M  V30 2299 N 235.018 0.912232 1.28515 0
M  V30 2300 C 235.965 0.397954 2.27343 0
M  V30 2301 C 236.935 -0.526766 1.57526 0
M  V30 2302 O 238.12 -0.449292 1.85435 0
M  V30 2303 C 235.26 -0.357263 3.43246 0
M  V30 2304 C 234.373 0.599788 4.27816 0
M  V30 2305 C 233.508 -0.173725 5.30916 0
M  V30 2306 C 232.547 0.777039 6.07148 0
M  V30 2307 N 231.684 0.0371398 7.0209 0
M  V30 2308 H 236.524 1.24577 2.70711 0
M  V30 2309 H 234.061 0.625612 1.33133 0
M  V30 2310 H 236.019 -0.8113 4.09236 0
M  V30 2311 H 234.649 -1.16943 3.00872 0
M  V30 2312 H 233.701 1.17235 3.61884 0
M  V30 2313 H 235.013 1.32704 4.80823 0
M  V30 2314 H 234.167 -0.688394 6.02782 0
M  V30 2315 H 232.906 -0.934041 4.78672 0
M  V30 2316 H 231.911 1.3031 5.34134 0
M  V30 2317 H 233.136 1.53689 6.61481 0
M  V30 2318 H 231.082 -0.705213 6.52198 0
M  V30 2319 H 230.999 0.704249 7.52713 0
M  V30 2320 H 232.267 -0.457383 7.78157 0
M  V30 2321 N 236.496 -1.42363 0.676048 0
M  V30 2322 C 237.742 -2.0182 0.199125 0
M  V30 2323 C 238.075 -1.53339 -1.19168 0
M  V30 2324 O 237.35 -0.736124 -1.80032 0
M  V30 2325 C 237.633 -3.59331 0.235144 0
M  V30 2326 C 237.486 -4.17989 1.66149 0
M  V30 2327 C 238.805 -4.3813 -0.41595 0
M  V30 2328 H 235.924 -0.733293 0.0738311 0
M  V30 2329 H 238.566 -1.69368 0.86107 0
M  V30 2330 H 236.716 -3.87109 -0.328487 0
M  V30 2331 H 238.388 -4.0116 2.27747 0
M  V30 2332 H 236.631 -3.7377 2.20178 0
M  V30 2333 H 237.302 -5.27126 1.63837 0
M  V30 2334 H 239.778 -4.16051 0.0638529 0
M  V30 2335 H 238.654 -5.47717 -0.360115 0
M  V30 2336 H 238.915 -4.16101 -1.49373 0
M  V30 2337 N 237.974 -0.419461 -1.51915 0
M  V30 2338 C 239.222 0.152637 -2.01523 0
M  V30 2339 C 239.543 1.44762 -1.30649 0
M  V30 2340 O 238.813 1.90997 -0.435535 0
M  V30 2341 H 237.393 0.0593966 -0.744635 0
M  V30 2342 H 240.055 -0.558073 -1.86739 0
M  V30 2343 H 239.151 0.341369 -3.10227 0
M  V30 2344 N 239.452 1.56882 -0.150215 0
M  V30 2345 C 240.4 2.18214 0.805313 0
M  V30 2346 C 241.394 1.14006 1.25296 0
M  V30 2347 O 242.6 1.3225 1.22107 0
M  V30 2348 H 238.975 0.698762 0.277913 0
M  V30 2349 H 240.946 2.97231 0.263862 0
M  V30 2350 C 239.695 2.82065 2.03309 0
M  V30 2351 H 239.018 3.61968 1.69763 0
M  V30 2352 H 240.458 3.28477 2.68103 0
M  V30 2353 C 238.917 1.80739 2.84315 0
M  V30 2354 O 239.447 1.27983 3.80767 0
M  V30 2355 N 237.653 1.4997 2.48913 0
M  V30 2356 H 237.2 1.93062 1.70542 0
M  V30 2357 H 237.158 0.824217 3.03404 0
M  V30 2358 N 240.93 -0.123565 1.57115 0
M  V30 2359 C 242.176 -0.833386 1.84885 0
M  V30 2360 C 242.509 -1.79742 0.735292 0
M  V30 2361 O 241.784 -1.92764 -0.25925 0
M  V30 2362 C 242.067 -1.5873 3.23228 0
M  V30 2363 C 241.92 -0.643183 4.45178 0
M  V30 2364 C 243.239 -2.54453 3.59085 0
M  V30 2365 H 240.358 -0.301518 0.6725 0
M  V30 2366 H 243 -0.097778 1.89748 0
M  V30 2367 H 241.15 -2.21438 3.19214 0
M  V30 2368 H 242.822 -0.0253015 4.61293 0
M  V30 2369 H 241.065 0.0456139 4.33776 0
M  V30 2370 H 241.736 -1.20724 5.38637 0
M  V30 2371 H 244.212 -2.01853 3.63861 0
M  V30 2372 H 243.088 -3.04238 4.5687 0
M  V30 2373 H 243.349 -3.36906 2.86264 0
M  V30 2374 N 242.408 -1.52605 -0.393616 0
M  V30 2375 C 243.656 -1.67093 -1.13685 0
M  V30 2376 C 243.977 -0.411011 -1.90619 0
M  V30 2377 O 243.247 0.574491 -1.87287 0
M  V30 2378 H 241.827 -0.615923 -0.422668 0
M  V30 2379 H 244.489 -1.89704 -0.447039 0
M  V30 2380 H 243.585 -2.51922 -1.84232 0
M  V30 2381 N 243.887 0.651787 -1.4349 0
M  V30 2382 C 244.819 1.77725 -1.44729 0
M  V30 2383 C 245.832 1.59141 -0.343231 0
M  V30 2384 O 247.021 1.67835 -0.607751 0
M  V30 2385 C 244.121 3.15172 -1.24579 0
M  V30 2386 C 243.294 3.60402 -2.47849 0
M  V30 2387 C 242.353 4.76656 -2.22902 0
M  V30 2388 O 241.379 4.86022 -2.96263 0
M  V30 2389 N 242.581 5.66958 -1.24656 0
M  V30 2390 H 245.346 1.77141 -2.41746 0
M  V30 2391 H 242.907 0.835678 -1.38665 0
M  V30 2392 H 244.899 3.90634 -1.0577 0
M  V30 2393 H 243.469 3.1052 -0.360015 0
M  V30 2394 H 242.689 2.75369 -2.82073 0
M  V30 2395 H 243.977 3.87368 -3.29884 0
M  V30 2396 H 243.375 5.62065 -0.640265 0
M  V30 2397 H 241.932 6.42135 -1.1183 0
M  V30 2398 N 245.365 1.30045 0.890287 0
M  V30 2399 C 246.593 1.21472 1.67487 0
M  V30 2400 C 247.008 -0.223241 1.87476 0
M  V30 2401 O 246.365 -1.14828 1.41847 0
M  V30 2402 C 246.416 1.93394 3.05419 0
M  V30 2403 O 246.137 3.31576 2.86337 0
M  V30 2404 C 247.638 1.91414 3.99844 0
M  V30 2405 H 244.858 0.420604 0.522813 0
M  V30 2406 H 247.402 1.7158 1.11268 0
M  V30 2407 H 245.557 1.47099 3.58386 0
M  V30 2408 H 245.971 3.67929 3.73802 0
M  V30 2409 H 247.445 2.46285 4.94012 0
M  V30 2410 H 247.922 0.891833 4.3005 0
M  V30 2411 H 248.528 2.37496 3.52811 0
M  V30 2412 N 246.843 -1.10192 1.12674 0
M  V30 2413 C 247.791 -2.18694 0.792196 0
M  V30 2414 C 248.785 -1.67938 -0.222058 0
M  V30 2415 O 249.991 -1.79822 -0.0800074 0
M  V30 2416 H 246.366 -0.713223 0.238364 0
M  V30 2417 H 248.337 -2.44149 1.71564 0
M  V30 2418 C 247.086 -3.46682 0.265859 0
M  V30 2419 H 246.409 -3.86101 1.03761 0
M  V30 2420 H 247.849 -4.23942 0.0701128 0
M  V30 2421 C 246.308 -3.21506 -1.00675 0
M  V30 2422 O 246.838 -3.43408 -2.08408 0
M  V30 2423 N 245.044 -2.75158 -0.934692 0
M  V30 2424 H 244.591 -2.57535 -0.0578604 0
M  V30 2425 H 244.549 -2.58691 -1.7868 0
M  V30 2426 N 248.321 -0.919034 -1.28029 0
M  V30 2427 C 249.551 -0.570143 -1.98577 0
M  V30 2428 C 249.959 0.854172 -1.68821 0
M  V30 2429 O 249.302 1.57807 -0.940351 0
M  V30 2430 C 249.364 -0.705734 -3.52505 0
M  V30 2431 C 249.028 -2.10057 -4.05863 0
M  V30 2432 C 250.025 -3.07385 -4.19298 0
M  V30 2433 C 247.71 -2.41517 -4.40426 0
M  V30 2434 C 249.704 -4.34287 -4.66555 0
M  V30 2435 C 247.391 -3.68657 -4.87376 0
M  V30 2436 C 248.389 -4.64856 -5.00398 0
M  V30 2437 O 248.077 -5.89735 -5.46322 0
M  V30 2438 H 247.809 -0.215592 -0.6407 0
M  V30 2439 H 250.363 -1.23583 -1.64062 0
M  V30 2440 H 248.593 0.0170414 -3.86696 0
M  V30 2441 H 250.282 -0.363172 -4.04272 0
M  V30 2442 H 251.048 -2.84398 -3.92865 0
M  V30 2443 H 246.927 -1.67389 -4.29537 0
M  V30 2444 H 250.471 -5.09377 -4.76635 0
M  V30 2445 H 246.368 -3.91466 -5.13249 0
M  V30 2446 H 247.136 -5.92599 -5.64596 0
M  V30 2447 N 249.799 1.42003 -0.683588 0
M  V30 2448 C 250.762 2.29191 -0.0198243 0
M  V30 2449 C 251.762 1.43773 0.72013 0
M  V30 2450 O 252.952 1.65061 0.556815 0
M  V30 2451 C 250.084 3.26435 0.982487 0
M  V30 2452 H 251.277 2.8938 -0.787345 0
M  V30 2453 H 248.83 1.49789 -0.446418 0
M  V30 2454 H 249.565 2.71203 1.77819 0
M  V30 2455 H 249.35 3.89449 0.455182 0
M  V30 2456 H 250.84 3.918 1.44508 0
M  V30 2457 N 251.277 0.427512 1.51691 0
M  V30 2458 C 252.24 -0.377132 2.26076 0
M  V30 2459 C 253.24 -0.958089 1.29141 0
M  V30 2460 O 254.43 -0.83408 1.52934 0
M  V30 2461 C 251.562 -1.53262 3.04506 0
M  V30 2462 H 252.755 0.27464 2.9864 0
M  V30 2463 H 250.308 0.180445 1.55255 0
M  V30 2464 H 251.043 -2.22072 2.36335 0
M  V30 2465 H 250.828 -1.12232 3.75694 0
M  V30 2466 H 252.318 -2.10135 3.60878 0
M  V30 2467 N 252.755 -1.56801 0.158532 0
M  V30 2468 C 253.98 -2.01295 -0.499516 0
M  V30 2469 C 254.405 -1.03799 -1.56867 0
M  V30 2470 O 253.763 -0.0155162 -1.81293 0
M  V30 2471 C 253.811 -3.44469 -1.06647 0
M  V30 2472 O 252.915 -3.50012 -2.18095 0
M  V30 2473 H 252.256 -0.652884 -0.12099 0
M  V30 2474 H 254.786 -2.02958 0.258661 0
M  V30 2475 H 254.796 -3.8351 -1.39227 0
M  V30 2476 H 253.471 -4.14932 -0.283581 0
M  V30 2477 H 252.048 -3.22822 -1.86656 0
M  V30 2478 N 254.233 0.115231 -1.57178 0
M  V30 2479 C 255.18 1.14115 -2.00615 0
M  V30 2480 C 256.15 1.40939 -0.878941 0
M  V30 2481 O 257.335 1.52741 -1.14345 0
M  V30 2482 C 254.475 2.46156 -2.4187 0
M  V30 2483 C 253.588 2.26236 -3.68024 0
M  V30 2484 C 252.723 3.51534 -3.98243 0
M  V30 2485 C 251.762 3.26787 -5.17568 0
M  V30 2486 N 250.899 4.44298 -5.43639 0
M  V30 2487 H 255.739 0.763743 -2.88047 0
M  V30 2488 H 253.276 0.365615 -1.42484 0
M  V30 2489 H 255.234 3.23189 -2.63827 0
M  V30 2490 H 253.864 2.81783 -1.57475 0
M  V30 2491 H 252.916 1.40102 -3.5366 0
M  V30 2492 H 254.228 2.03929 -4.55208 0
M  V30 2493 H 253.382 4.36984 -4.20868 0
M  V30 2494 H 252.121 3.76876 -3.09541 0
M  V30 2495 H 251.126 2.39729 -4.94783 0
M  V30 2496 H 252.351 3.02812 -6.0785 0
M  V30 2497 H 250.297 4.69754 -4.57895 0
M  V30 2498 H 250.214 4.25109 -6.25154 0
M  V30 2499 H 251.482 5.3087 -5.70786 0
M  V30 2500 N 255.711 1.52812 0.385517 0
M  V30 2501 C 256.674 1.77188 1.45386 0
M  V30 2502 C 257.674 0.641953 1.4743 0
M  V30 2503 O 258.864 0.910033 1.4854 0
M  V30 2504 C 255.996 1.87582 2.8465 0
M  V30 2505 H 257.189 2.72583 1.25054 0
M  V30 2506 H 254.742 1.43586 0.617467 0
M  V30 2507 H 255.477 0.941849 3.10322 0
M  V30 2508 H 255.262 2.69748 2.84567 0
M  V30 2509 H 256.752 2.08102 3.62054 0
M  V30 2510 N 257.189 -0.644168 1.43834 0
M  V30 2511 C 258.437 -1.40117 1.45642 0
M  V30 2512 C 258.758 -1.94814 0.0852413 0
M  V30 2513 O 258.028 -1.74988 -0.880688 0
M  V30 2514 H 256.608 -0.52005 0.536243 0
M  V30 2515 H 259.27 -0.7591 1.7951 0
M  V30 2516 H 258.366 -2.23902 2.17427 0
M  V30 2517 N 258.668 -1.30515 -0.883378 0
M  V30 2518 C 259.914 -1.19607 -1.63774 0
M  V30 2519 C 260.247 0.248314 -1.92606 0
M  V30 2520 O 259.522 1.17742 -1.54813 0
M  V30 2521 C 259.805 -2.02669 -2.97653 0
M  V30 2522 C 259.658 -3.55335 -2.75784 0
M  V30 2523 C 260.977 -1.86573 -3.98596 0
M  V30 2524 H 258.096 -0.435856 -0.594305 0
M  V30 2525 H 260.738 -1.60165 -1.02212 0
M  V30 2526 H 258.888 -1.68208 -3.50197 0
M  V30 2527 H 260.56 -3.99863 -2.30016 0
M  V30 2528 H 258.803 -3.79438 -2.1026 0
M  V30 2529 H 259.474 -4.08745 -3.70988 0
M  V30 2530 H 261.95 -2.16703 -3.55217 0
M  V30 2531 H 260.826 -2.47014 -4.90179 0
M  V30 2532 H 261.087 -0.825321 -4.34328 0
M  V30 2533 N 260.146 1.09593 -1.13257 0
M  V30 2534 C 261.395 1.81105 -0.887917 0
M  V30 2535 C 261.708 1.86563 0.587672 0
M  V30 2536 O 262.914 2.54367 0.949204 0
M  V30 2537 C 261.37 3.25338 -1.53895 0
M  V30 2538 C 260.978 3.28151 -3.04994 0
M  V30 2539 C 262.722 4.01617 -1.37492 0
M  V30 2540 C 260.629 4.66897 -3.6299 0
M  V30 2541 H 259.559 0.678661 -0.328534 0
M  V30 2542 H 262.21 1.23183 -1.36008 0
M  V30 2543 H 260.592 3.8331 -0.994446 0
M  V30 2544 H 261.766 2.79953 -3.66009 0
M  V30 2545 H 260.081 2.65361 -3.20893 0
M  V30 2546 H 262.678 5.04119 -1.78235 0
M  V30 2547 H 263.021 4.15072 -0.31957 0
M  V30 2548 H 263.554 3.50082 -1.88912 0
M  V30 2549 H 260.293 4.58643 -4.68323 0
M  V30 2550 H 259.813 5.15426 -3.06752 0
M  V30 2551 H 261.492 5.3587 -3.62563 0
M  V30 2552 N 261.624 0.925811 1.2754 0
M  V30 2553 C 262.872 0.564138 1.94067 0
M  V30 2554 C 263.193 -0.897188 1.73134 0
M  V30 2555 O 262.463 -1.63573 1.07799 0
M  V30 2556 H 261.043 0.205645 0.718136 0
M  V30 2557 H 263.705 1.1778 1.55287 0
M  V30 2558 H 262.801 0.76881 3.02483 0
M  V30 2559 N 263.102 -1.41638 0.69111 0
M  V30 2560 C 264.032 -2.3347 0.037248 0
M  V30 2561 C 265.013 -1.51575 -0.771947 0
M  V30 2562 O 266.198 -1.80126 -0.72582 0
M  V30 2563 C 263.328 -3.35354 -0.903064 0
M  V30 2564 C 262.282 -4.27526 -0.201288 0
M  V30 2565 C 261.608 -5.19747 -1.25565 0
M  V30 2566 C 262.908 -5.13959 0.929689 0
M  V30 2567 H 264.602 -2.88397 0.804227 0
M  V30 2568 H 262.148 -1.38669 0.388189 0
M  V30 2569 H 264.101 -3.98519 -1.36969 0
M  V30 2570 H 262.825 -2.78767 -1.70166 0
M  V30 2571 H 261.484 -3.65779 0.245265 0
M  V30 2572 H 261.132 -4.59479 -2.04666 0
M  V30 2573 H 260.832 -5.8225 -0.791128 0
M  V30 2574 H 262.356 -5.85789 -1.72288 0
M  V30 2575 H 263.77 -5.70718 0.543546 0
M  V30 2576 H 262.167 -5.85379 1.32103 0
M  V30 2577 H 263.237 -4.51389 1.77133 0
M  V30 2578 N 264.58 -0.43555 -1.51462 0
M  V30 2579 C 265.808 0.130242 -2.0649 0
M  V30 2580 C 266.223 1.36614 -1.30315 0
M  V30 2581 O 265.58 1.78869 -0.362223 0
M  V30 2582 C 265.631 0.454253 -3.58635 0
M  V30 2583 O 265.352 -0.73259 -4.31931 0
M  V30 2584 C 266.853 1.07091 -4.3017 0
M  V30 2585 H 264.073 0.00871669 -0.670943 0
M  V30 2586 H 266.617 -0.614117 -1.95061 0
M  V30 2587 H 264.772 1.14851 -3.69984 0
M  V30 2588 H 265.186 -0.455787 -5.22516 0
M  V30 2589 H 266.66 1.24764 -5.37716 0
M  V30 2590 H 267.137 2.05144 -3.88346 0
M  V30 2591 H 267.743 0.416089 -4.2326 0
M  V30 2592 N 266.058 1.56714 -0.166846 0
M  V30 2593 C 266.99 2.14914 0.796537 0
M  V30 2594 C 268.003 1.10357 1.19688 0
M  V30 2595 O 269.192 1.37561 1.13751 0
M  V30 2596 C 266.292 2.67326 2.08303 0
M  V30 2597 C 265.465 3.96493 1.84696 0
M  V30 2598 C 264.524 4.34014 2.97521 0
M  V30 2599 O 263.55 5.01973 2.6835 0
M  V30 2600 N 264.752 3.95208 4.25196 0
M  V30 2601 H 267.517 2.98205 0.299006 0
M  V30 2602 H 265.078 1.61892 0.0160839 0
M  V30 2603 H 267.07 2.89428 2.82867 0
M  V30 2604 H 265.64 1.88649 2.4926 0
M  V30 2605 H 264.86 3.82814 0.940602 0
M  V30 2606 H 266.148 4.8086 1.66285 0
M  V30 2607 H 265.546 3.40487 4.51758 0
M  V30 2608 H 264.103 4.2232 4.96477 0
M  V30 2609 N 267.536 -0.106894 1.57237 0
M  V30 2610 C 268.764 -0.826389 1.8968 0
M  V30 2611 C 269.179 -1.72856 0.759353 0
M  V30 2612 O 268.536 -1.80503 -0.269263 0
M  V30 2613 C 268.587 -1.64967 3.21665 0
M  V30 2614 O 268.308 -0.783804 4.31031 0
M  V30 2615 C 269.809 -2.47326 3.67892 0
M  V30 2616 H 267.029 -0.236927 0.627779 0
M  V30 2617 H 269.573 -0.0876593 2.04312 0
M  V30 2618 H 267.728 -2.34103 3.08666 0
M  V30 2619 H 268.142 -1.35284 5.06753 0
M  V30 2620 H 269.616 -3.00604 4.6297 0
M  V30 2621 H 270.093 -3.25247 2.95146 0
M  V30 2622 H 270.699 -1.83411 3.83719 0
M  V30 2623 N 269.014 -1.53014 -0.377408 0
M  V30 2624 C 269.977 -1.77957 -1.44444 0
M  V30 2625 C 270.977 -0.649763 -1.47087 0
M  V30 2626 O 272.167 -0.917897 -1.48055 0
M  V30 2627 C 269.299 -1.89089 -2.83651 0
M  V30 2628 H 270.492 -2.73243 -1.23606 0
M  V30 2629 H 268.045 -1.43912 -0.609844 0
M  V30 2630 H 268.78 -0.958293 -3.09818 0
M  V30 2631 H 268.565 -2.71254 -2.83132 0
M  V30 2632 H 270.055 -2.1002 -3.60945 0
M  V30 2633 N 270.492 0.636531 -1.44174 0
M  V30 2634 C 271.455 1.73063 -1.50273 0
M  V30 2635 C 272.455 1.56113 -0.385397 0
M  V30 2636 O 273.645 1.61707 -0.64781 0
M  V30 2637 C 270.777 3.12096 -1.37145 0
M  V30 2638 H 271.97 1.69031 -2.47727 0
M  V30 2639 H 269.523 0.849706 -1.31186 0
M  V30 2640 H 270.258 3.21728 -0.407636 0
M  V30 2641 H 270.043 3.25805 -2.18159 0
M  V30 2642 H 271.533 3.91846 -1.44382 0
M  V30 2643 N 271.97 1.30982 0.876444 0
M  V30 2644 C 273.386 1.09498 1.16113 0
M  V30 2645 C 273.586 -0.13875 2.01022 0
M  V30 2646 O 272.642 -0.829935 2.38471 0
M  V30 2647 C 273.955 2.36308 1.85954 0
M  V30 2648 C 275.503 2.41856 1.98683 0
M  V30 2649 C 275.978 3.6853 2.71937 0
M  V30 2650 N 277.469 3.69387 2.79477 0
M  V30 2651 C 278.204 4.64096 3.36753 0
M  V30 2652 N 277.7 5.69155 3.95012 0
M  V30 2653 N 279.493 4.51626 3.3465 0
M  V30 2654 H 271.644 2.10118 0.310494 0
M  V30 2655 H 273.907 0.926634 0.200131 0
M  V30 2656 H 273.613 3.26388 1.31011 0
M  V30 2657 H 273.487 2.4561 2.86278 0
M  V30 2658 H 275.874 1.52249 2.52793 0
M  V30 2659 H 275.955 2.36523 0.9742 0
M  V30 2660 H 275.599 4.58499 2.18496 0
M  V30 2661 H 275.529 3.71127 3.73593 0
M  V30 2662 H 278.02 2.93438 2.38123 0
M  V30 2663 H 278.333 6.3751 4.36808 0
M  V30 2664 H 276.678 5.72937 3.93406 0
M  V30 2665 H 279.869 3.68728 2.8837 0
M  V30 2666 H 280.042 5.25614 3.7899 0
M  V30 2667 N 273.449 -1.08991 1.13837 0
M  V30 2668 C 274.359 -2.19301 0.833333 0
M  V30 2669 C 275.375 -1.73026 -0.183847 0
M  V30 2670 O 276.551 -2.01395 -0.0138092 0
M  V30 2671 C 273.616 -3.45323 0.308651 0
M  V30 2672 C 272.677 -4.06255 1.38764 0
M  V30 2673 C 271.91 -5.26262 0.887896 0
M  V30 2674 O 272.133 -5.69747 -0.27287 0
M  V30 2675 O 271.067 -5.78435 1.66421 0
M  V30 2676 H 274.893 -2.47854 1.75506 0
M  V30 2677 H 272.478 -1.18012 0.916166 0
M  V30 2678 H 274.36 -4.21394 0.0216739 0
M  V30 2679 H 273.035 -3.18362 -0.585431 0
M  V30 2680 H 271.942 -3.318 1.72799 0
M  V30 2681 H 273.275 -4.37452 2.25602 0
M  V30 2682 N 274.927 -0.932562 -1.27047 0
M  V30 2683 C 275.857 -0.452902 -2.29066 0
M  V30 2684 C 276.838 0.489338 -1.62909 0
M  V30 2685 O 278.023 0.393046 -1.90181 0
M  V30 2686 C 275.153 0.290698 -3.46081 0
M  V30 2687 C 274.107 -0.564168 -4.24265 0
M  V30 2688 C 273.433 0.308886 -5.33807 0
M  V30 2689 C 274.733 -1.83112 -4.89149 0
M  V30 2690 H 276.427 -1.30552 -2.69437 0
M  V30 2691 H 273.973 -0.629201 -1.29526 0
M  V30 2692 H 275.926 0.637233 -4.16554 0
M  V30 2693 H 274.65 1.17738 -3.0464 0
M  V30 2694 H 273.309 -0.893477 -3.55545 0
M  V30 2695 H 272.957 1.19467 -4.88607 0
M  V30 2696 H 272.657 -0.259633 -5.87026 0
M  V30 2697 H 274.181 0.650884 -6.07121 0
M  V30 2698 H 275.595 -1.55236 -5.51883 0
M  V30 2699 H 273.992 -2.34353 -5.52448 0
M  V30 2700 H 275.062 -2.54772 -4.12576 0
M  V30 2701 N 276.405 1.4127 -0.698611 0
M  V30 2702 C 277.653 2.00782 -0.230409 0
M  V30 2703 C 277.974 1.5562 1.17505 0
M  V30 2704 O 277.244 0.78815 1.79346 0
M  V30 2705 H 275.824 0.742464 -0.0821944 0
M  V30 2706 H 278.486 1.72852 -0.90045 0
M  V30 2707 H 277.582 3.11095 -0.25021 0
M  V30 2708 N 277.883 0.443576 1.51229 0
M  V30 2709 C 279.299 0.0962001 1.5931 0
M  V30 2710 C 279.499 -1.39501 1.45402 0
M  V30 2711 O 278.555 -2.16557 1.29843 0
M  V30 2712 C 279.868 0.621875 2.94199 0
M  V30 2713 C 281.416 0.582865 3.07525 0
M  V30 2714 C 281.891 1.08562 4.44948 0
M  V30 2715 N 283.382 1.04387 4.51284 0
M  V30 2716 C 284.117 1.40368 5.55954 0
M  V30 2717 N 283.613 1.83664 6.68011 0
M  V30 2718 N 285.406 1.32145 5.46346 0
M  V30 2719 H 277.557 1.41376 1.58514 0
M  V30 2720 H 279.82 0.582965 0.747567 0
M  V30 2721 H 279.526 1.66546 3.09767 0
M  V30 2722 H 279.4 0.0502125 3.77167 0
M  V30 2723 H 281.787 -0.451749 2.91622 0
M  V30 2724 H 281.868 1.191 2.26382 0
M  V30 2725 H 281.512 2.11873 4.61598 0
M  V30 2726 H 281.442 0.453956 5.2464 0
M  V30 2727 H 283.933 0.725986 3.70861 0
M  V30 2728 H 284.246 2.0934 7.43906 0
M  V30 2729 H 282.591 1.87596 6.69203 0
M  V30 2730 H 285.782 0.981808 4.57688 0
M  V30 2731 H 285.955 1.60514 6.27805 0
M  V30 2732 N 279.361 -1.56624 0.175154 0
M  V30 2733 C 280.311 -2.14747 -0.766004 0
M  V30 2734 C 281.295 -1.08275 -1.19018 0
M  V30 2735 O 282.487 -1.34388 -1.15191 0
M  V30 2736 C 279.616 -2.79478 -1.99366 0
M  V30 2737 C 278.702 -3.93114 -1.5913 0
M  V30 2738 N 279.093 -4.97752 -0.89872 0
M  V30 2739 C 277.391 -4.04345 -1.88204 0
M  V30 2740 C 278.092 -5.77473 -0.700012 0
M  V30 2741 N 277.068 -5.29207 -1.24263 0
M  V30 2742 H 280.87 -2.93015 -0.22793 0
M  V30 2743 H 278.384 -1.6238 -0.0253843 0
M  V30 2744 H 280.381 -3.19498 -2.67818 0
M  V30 2745 H 279.041 -2.02692 -2.53665 0
M  V30 2746 H 280.052 -5.14903 -0.556347 0
M  V30 2747 H 276.729 -3.38667 -2.44153 0
M  V30 2748 H 278.119 -6.71728 -0.152047 0
M  V30 2749 N 280.839 0.0985539 -1.57292 0
M  V30 2750 C 282.087 0.801092 -1.85545 0
M  V30 2751 C 282.408 1.79438 -0.763353 0
M  V30 2752 O 281.678 1.94763 0.21073 0
M  V30 2753 H 280.258 0.29884 -0.684619 0
M  V30 2754 H 282.92 0.0810064 -1.94732 0
M  V30 2755 H 282.016 1.3338 -2.82163 0
M  V30 2756 N 282.317 1.53212 0.369288 0
M  V30 2757 C 283.566 1.68436 1.10961 0
M  V30 2758 C 283.879 0.440738 1.9057 0
M  V30 2759 O 285.085 0.473446 2.6734 0
M  V30 2760 C 283.541 2.97744 2.0218 0
M  V30 2761 C 283.149 4.29355 1.279 0
M  V30 2762 C 284.893 3.22334 2.76226 0
M  V30 2763 C 282.8 5.49755 2.17999 0
M  V30 2764 H 281.73 0.627568 0.41794 0
M  V30 2765 H 284.381 1.79713 0.370884 0
M  V30 2766 H 282.763 2.8026 2.79768 0
M  V30 2767 H 283.937 4.57458 0.554007 0
M  V30 2768 H 282.252 4.11179 0.657311 0
M  V30 2769 H 284.849 4.09471 3.43857 0
M  V30 2770 H 285.192 2.38238 3.41392 0
M  V30 2771 H 285.725 3.40475 2.05723 0
M  V30 2772 H 282.464 6.36318 1.57417 0
M  V30 2773 H 281.984 5.25937 2.88359 0
M  V30 2774 H 283.663 5.84401 2.77641 0
M  V30 2775 N 283.795 -0.628877 1.44509 0
M  V30 2776 C 285.211 -0.947305 1.28446 0
M  V30 2777 C 285.411 -2.00275 0.221872 0
M  V30 2778 O 284.467 -2.49447 -0.391471 0
M  V30 2779 C 285.78 -1.40843 2.65676 0
M  V30 2780 C 287.328 -1.52379 2.73404 0
M  V30 2781 C 287.803 -2.01875 4.11109 0
M  V30 2782 N 289.294 -2.09142 4.13296 0
M  V30 2783 C 290.029 -2.48615 5.16699 0
M  V30 2784 N 289.525 -2.87209 6.30462 0
M  V30 2785 N 291.318 -2.48768 5.04054 0
M  V30 2786 H 283.469 0.0690977 2.12288 0
M  V30 2787 H 285.732 -0.0317164 0.947469 0
M  V30 2788 H 285.438 -0.707206 3.44516 0
M  V30 2789 H 285.312 -2.37902 2.92716 0
M  V30 2790 H 287.699 -2.21598 1.9488 0
M  V30 2791 H 287.78 -0.536898 2.50102 0
M  V30 2792 H 287.424 -1.3325 4.90109 0
M  V30 2793 H 287.354 -3.0144 4.31789 0
M  V30 2794 H 289.845 -1.81991 3.31191 0
M  V30 2795 H 290.158 -3.16149 7.05174 0
M  V30 2796 H 288.503 -2.84955 6.33897 0
M  V30 2797 H 291.694 -2.18009 4.14234 0
M  V30 2798 H 291.867 -2.79207 5.84763 0
M  V30 2799 N 285.273 -1.31445 -0.869486 0
M  V30 2800 C 286.513 -1.22458 -1.63656 0
M  V30 2801 C 286.877 0.213846 -1.90805 0
M  V30 2802 O 288.078 0.427212 -2.65383 0
M  V30 2803 C 286.349 -2.04564 -2.93067 0
M  V30 2804 S 287.908 -2.12445 -3.83944 0
M  V30 2805 H 284.726 -0.436145 -0.561514 0
M  V30 2806 H 287.328 -1.66114 -1.03085 0
M  V30 2807 H 286.032 -3.0816 -2.71045 0
M  V30 2808 H 285.563 -1.6163 -3.58663 0
M  V30 2809 H 287.578 -1.26312 -4.79854 0
M  V30 2810 N 286.751 1.08385 -1.14413 0
M  V30 2811 C 287.699 2.17406 -0.826888 0
M  V30 2812 C 288.693 1.6827 0.195312 0
M  V30 2813 O 289.899 1.79927 0.0513892 0
M  V30 2814 H 286.274 0.70934 -0.249681 0
M  V30 2815 H 288.245 2.41388 -1.75426 0
M  V30 2816 C 286.994 3.46215 -0.320979 0
M  V30 2817 H 286.317 3.84401 -1.0989 0
M  V30 2818 H 287.757 4.23777 -0.137549 0
M  V30 2819 C 286.216 3.23067 0.955472 0
M  V30 2820 O 286.746 3.4668 2.02918 0
M  V30 2821 N 284.952 2.7661 0.890798 0
M  V30 2822 H 284.499 2.57594 0.0168815 0
M  V30 2823 H 284.457 2.61501 1.74542 0
M  V30 2824 N 288.23 0.939286 1.26551 0
M  V30 2825 C 289.455 0.602008 1.98471 0
M  V30 2826 C 289.88 -0.815624 1.69497 0
M  V30 2827 O 289.238 -1.54912 0.941905 0
M  V30 2828 C 289.286 0.848407 3.50477 0
M  V30 2829 O 288.39 -0.0804009 4.12322 0
M  V30 2830 H 287.731 0.23049 0.622712 0
M  V30 2831 H 290.261 1.2617 1.61066 0
M  V30 2832 H 290.271 0.768553 4.00696 0
M  V30 2833 H 288.946 1.88171 3.70897 0
M  V30 2834 H 287.523 0.0503508 3.72866 0
M  V30 2835 N 289.708 -1.40897 0.706093 0
M  V30 2836 C 290.954 -2.01352 0.241889 0
M  V30 2837 C 291.287 -1.55832 -1.15888 0
M  V30 2838 O 290.562 -0.774145 -1.7843 0
M  V30 2839 C 290.845 -3.58752 0.311311 0
M  V30 2840 C 290.698 -4.1437 1.74978 0
M  V30 2841 C 292.017 -4.38914 -0.322922 0
M  V30 2842 H 289.136 -0.731562 0.0893687 0
M  V30 2843 H 291.778 -1.67504 0.896802 0
M  V30 2844 H 289.928 -3.87718 -0.246302 0
M  V30 2845 H 291.6 -3.96239 2.36205 0
M  V30 2846 H 289.843 -3.69016 2.28057 0
M  V30 2847 H 290.514 -5.23532 1.74981 0
M  V30 2848 H 292.99 -4.15822 0.152089 0
M  V30 2849 H 291.866 -5.48358 -0.243855 0
M  V30 2850 H 292.127 -4.19176 -1.40513 0
M  V30 2851 N 291.186 -0.45159 -1.50991 0
M  V30 2852 C 292.116 0.342898 -2.30969 0
M  V30 2853 C 293.097 1.00815 -1.37005 0
M  V30 2854 O 294.282 1.00907 -1.65926 0
M  V30 2855 C 291.412 1.43637 -3.16205 0
M  V30 2856 C 290.366 0.893818 -4.18563 0
M  V30 2857 C 289.692 2.08411 -4.92411 0
M  V30 2858 C 290.992 -0.0815568 -5.22236 0
M  V30 2859 H 292.686 -0.324556 -2.97636 0
M  V30 2860 H 290.232 -0.157531 -1.43136 0
M  V30 2861 H 292.185 1.9995 -3.70942 0
M  V30 2862 H 290.909 2.13232 -2.47386 0
M  V30 2863 H 289.568 0.352798 -3.64898 0
M  V30 2864 H 289.216 2.76658 -4.20082 0
M  V30 2865 H 288.916 1.72741 -5.61636 0
M  V30 2866 H 290.44 2.65251 -5.49976 0
M  V30 2867 H 291.854 0.391742 -5.7196 0
M  V30 2868 H 290.251 -0.351551 -5.99069 0
M  V30 2869 H 291.321 -1.01374 -4.74185 0
M  V30 2870 N 292.664 1.56529 -0.183458 0
M  V30 2871 C 294.075 1.83739 0.331177 0
M  V30 2872 C 294.426 1.10373 1.62211 0
M  V30 2873 O 293.551 0.36071 2.13373 0
M  V30 2874 C 294.146 3.33306 0.607646 0
M  V30 2875 C 292.705 3.60969 1.06668 0
M  V30 2876 C 291.852 2.77086 0.109029 0
M  V30 2877 H 294.803 1.53379 -0.407484 0
M  V30 2878 H 294.824 3.51444 1.45832 0
M  V30 2879 H 294.336 3.86677 -0.332086 0
M  V30 2880 H 292.437 3.13021 2.0211 0
M  V30 2881 H 292.55 4.69231 0.967447 0
M  V30 2882 H 290.914 2.47319 0.608714 0
M  V30 2883 H 291.697 3.33241 -0.82494 0
M  V30 2884 N 294.142 -0.090211 1.57342 0
M  V30 2885 C 295.39 -0.791241 1.85967 0
M  V30 2886 C 295.711 -1.7903 0.772859 0
M  V30 2887 O 294.981 -1.94872 -0.200398 0
M  V30 2888 H 293.561 -0.295205 0.686195 0
M  V30 2889 H 296.223 -0.0706782 1.94772 0
M  V30 2890 H 295.319 -1.31882 2.82867 0
M  V30 2891 N 295.62 -1.53406 -0.361157 0
M  V30 2892 C 296.867 -1.69802 -1.10333 0
M  V30 2893 C 297.195 -0.452087 -1.89173 0
M  V30 2894 O 296.45 0.566017 -1.87336 0
M  V30 2895 C 296.749 -2.90211 -2.08596 0
M  V30 2896 C 296.415 -4.26539 -1.46203 0
M  V30 2897 C 295.077 -4.6361 -1.28915 0
M  V30 2898 C 297.429 -5.113 -1.01101 0
M  V30 2899 C 294.757 -5.83075 -0.651157 0
M  V30 2900 C 297.109 -6.31415 -0.387007 0
M  V30 2901 C 295.773 -6.67195 -0.201657 0
M  V30 2902 H 295.043 -0.621351 -0.403737 0
M  V30 2903 H 297.69 -1.87598 -0.384609 0
M  V30 2904 H 295.995 -2.66946 -2.86788 0
M  V30 2905 H 297.692 -3.00091 -2.65982 0
M  V30 2906 H 294.282 -3.97352 -1.60653 0
M  V30 2907 H 298.466 -4.83206 -1.13249 0
M  V30 2908 H 293.722 -6.09385 -0.496006 0
M  V30 2909 H 297.896 -6.96394 -0.0293563 0
M  V30 2910 H 295.523 -7.59628 0.294766 0
M  V30 2911 N 297.098 0.621204 -1.44841 0
M  V30 2912 C 298.347 1.37658 -1.47422 0
M  V30 2913 C 298.66 1.95264 -0.114629 0
M  V30 2914 O 299.866 2.71494 -0.0180199 0
M  V30 2915 C 298.322 2.49285 -2.59586 0
M  V30 2916 C 297.93 1.98149 -4.01797 0
M  V30 2917 C 299.674 3.26409 -2.71399 0
M  V30 2918 C 297.581 3.07178 -5.05367 0
M  V30 2919 H 296.511 0.517344 -0.548517 0
M  V30 2920 H 299.162 0.667257 -1.70938 0
M  V30 2921 H 297.544 3.22839 -2.29328 0
M  V30 2922 H 298.718 1.31395 -4.41669 0
M  V30 2923 H 297.033 1.33812 -3.94314 0
M  V30 2924 H 299.63 4.07706 -3.45948 0
M  V30 2925 H 299.973 3.76535 -1.77559 0
M  V30 2926 H 300.506 2.5995 -3.01116 0
M  V30 2927 H 297.245 2.61985 -6.00869 0
M  V30 2928 H 296.765 3.72542 -4.70077 0
M  V30 2929 H 298.444 3.71789 -5.29511 0
M  V30 2930 N 298.576 1.31904 0.862503 0
M  V30 2931 C 299.539 1.20131 1.95195 0
M  V30 2932 C 300.539 0.126409 1.60302 0
M  V30 2933 O 301.729 0.376234 1.70089 0
M  V30 2934 C 298.861 0.845691 3.30244 0
M  V30 2935 H 300.054 2.16943 2.07064 0
M  V30 2936 H 297.607 1.15622 1.05172 0
M  V30 2937 H 298.342 -0.120957 3.24074 0
M  V30 2938 H 298.127 1.62276 3.56944 0
M  V30 2939 H 299.617 0.787418 4.10109 0
M  V30 2940 N 300.054 -1.07777 1.14986 0
M  V30 2941 C 301.282 -1.84018 0.945773 0
M  V30 2942 C 301.697 -1.81897 -0.505863 0
M  V30 2943 O 301.054 -1.22726 -1.35072 0
M  V30 2944 C 301.105 -3.31287 1.44677 0
M  V30 2945 O 300.826 -3.33449 2.84154 0
M  V30 2946 C 302.327 -4.24311 1.28355 0
M  V30 2947 H 299.547 -0.580716 0.336169 0
M  V30 2948 H 302.091 -1.36077 1.52654 0
M  V30 2949 H 300.246 -3.76594 0.908625 0
M  V30 2950 H 300.66 -4.25427 3.06777 0
M  V30 2951 H 302.134 -5.2573 1.68261 0
M  V30 2952 H 302.611 -4.38612 0.227184 0
M  V30 2953 H 303.217 -3.84836 1.81056 0
M  V30 2954 N 301.532 -0.945985 -1.26051 0
M  V30 2955 C 302.943 -0.638096 -1.75457 0
M  V30 2956 C 303.294 0.846672 -1.76991 0
M  V30 2957 O 302.419 1.66262 -1.38513 0
M  V30 2958 C 303.014 -1.15157 -3.18629 0
M  V30 2959 C 301.573 -0.894004 -3.65629 0
M  V30 2960 C 300.72 -1.29967 -2.44957 0
M  V30 2961 H 303.671 -1.12376 -1.1206 0
M  V30 2962 H 303.692 -0.507615 -3.77099 0
M  V30 2963 H 303.204 -2.23222 -3.1748 0
M  V30 2964 H 301.305 0.172057 -3.72203 0
M  V30 2965 H 301.418 -1.52439 -4.54202 0
M  V30 2966 H 299.782 -0.718078 -2.44368 0
M  V30 2967 H 300.565 -2.38935 -2.46505 0
M  V30 2968 N 303.011 1.40521 -0.713556 0
M  V30 2969 C 303.944 2.28198 -0.00881422 0
M  V30 2970 C 304.922 1.43227 0.769735 0
M  V30 2971 O 306.106 1.72641 0.756799 0
M  V30 2972 C 303.233 3.23758 0.994899 0
M  V30 2973 C 302.279 4.25391 0.3074 0
M  V30 2974 S 303.112 5.26765 -0.963247 0
M  V30 2975 C 304.268 6.25888 0.0384143 0
M  V30 2976 H 304.501 2.87622 -0.752407 0
M  V30 2977 H 302.034 1.45925 -0.504502 0
M  V30 2978 H 303.992 3.79341 1.56879 0
M  V30 2979 H 302.653 2.63396 1.71118 0
M  V30 2980 H 301.846 4.92596 1.0661 0
M  V30 2981 H 301.448 3.73497 -0.193879 0
M  V30 2982 H 303.74 6.71683 0.885912 0
M  V30 2983 H 304.683 7.05552 -0.60019 0
M  V30 2984 H 305.091 5.63072 0.401233 0
M  V30 2985 N 304.489 0.459591 1.5075 0
M  V30 2986 C 305.717 -0.0973749 2.06671 0
M  V30 2987 C 306.132 -1.34524 1.32472 0
M  V30 2988 O 305.489 -1.7827 0.390634 0
M  V30 2989 C 305.54 -0.39714 3.59312 0
M  V30 2990 O 305.261 0.801214 4.30711 0
M  V30 2991 C 306.762 -1.00234 4.31819 0
M  V30 2992 H 303.982 0.00195854 0.670997 0
M  V30 2993 H 306.526 0.645072 1.94059 0
M  V30 2994 H 304.681 -1.08951 3.71764 0
M  V30 2995 H 305.095 0.538857 5.21725 0
M  V30 2996 H 306.569 -1.16193 5.39632 0
M  V30 2997 H 307.046 -1.98939 3.91561 0
M  V30 2998 H 307.652 -0.348699 4.23868 0
M  V30 2999 N 305.967 -1.56429 0.191757 0
M  V30 3000 C 306.899 -2.16154 -0.762245 0
M  V30 3001 C 307.912 -1.12247 -1.17917 0
M  V30 3002 O 309.101 -1.39353 -1.11548 0
M  V30 3003 C 306.201 -2.70606 -2.04024 0
M  V30 3004 C 305.374 -3.99381 -1.78364 0
M  V30 3005 C 304.433 -4.38692 -2.90578 0
M  V30 3006 O 303.459 -5.06179 -2.6033 0
M  V30 3007 N 304.661 -4.01922 -4.18854 0
M  V30 3008 H 307.426 -2.98643 -0.251526 0
M  V30 3009 H 304.987 -1.61897 0.00967373 0
M  V30 3010 H 306.979 -2.93891 -2.78227 0
M  V30 3011 H 305.549 -1.9259 -2.46227 0
M  V30 3012 H 304.769 -3.84262 -0.879581 0
M  V30 3013 H 306.057 -4.83445 -1.58614 0
M  V30 3014 H 305.455 -3.47631 -4.46283 0
M  V30 3015 H 304.012 -4.30165 -4.89695 0
M  V30 3016 N 307.445 0.0818655 -1.57387 0
M  V30 3017 C 308.392 1.09834 -2.0299 0
M  V30 3018 C 309.362 1.39043 -0.908639 0
M  V30 3019 O 310.547 1.50282 -1.17559 0
M  V30 3020 C 307.687 2.40971 -2.47037 0
M  V30 3021 C 306.8 2.18379 -3.7274 0
M  V30 3022 C 305.935 3.43008 -4.0561 0
M  V30 3023 C 304.974 3.15736 -5.24383 0
M  V30 3024 N 304.111 4.32667 -5.52941 0
M  V30 3025 H 308.951 0.702472 -2.89602 0
M  V30 3026 H 306.488 0.33531 -1.43227 0
M  V30 3027 H 308.446 3.1752 -2.70623 0
M  V30 3028 H 307.076 2.78379 -1.63417 0
M  V30 3029 H 306.128 1.32569 -3.56552 0
M  V30 3030 H 307.44 1.94227 -4.59431 0
M  V30 3031 H 306.594 4.27958 -4.30043 0
M  V30 3032 H 305.333 3.70225 -3.17466 0
M  V30 3033 H 304.338 2.2918 -4.99757 0
M  V30 3034 H 305.563 2.8985 -6.14136 0
M  V30 3035 H 303.509 4.59935 -4.67756 0
M  V30 3036 H 303.426 4.11753 -6.34031 0
M  V30 3037 H 304.694 5.18644 -5.81918 0
M  V30 3038 N 308.923 1.53595 0.353017 0
M  V30 3039 C 310.169 1.70638 1.09593 0
M  V30 3040 C 310.502 0.463286 1.88593 0
M  V30 3041 O 309.777 -0.539597 1.86865 0
M  V30 3042 C 310.06 2.96406 2.04489 0
M  V30 3043 C 309.913 4.30901 1.29014 0
M  V30 3044 C 311.232 3.17812 3.0444 0
M  V30 3045 H 308.351 0.620913 0.397034 0
M  V30 3046 H 310.993 1.86254 0.375446 0
M  V30 3047 H 309.143 2.83223 2.65927 0
M  V30 3048 H 310.815 4.55917 0.702638 0
M  V30 3049 H 309.058 4.29741 0.592071 0
M  V30 3050 H 309.729 5.1506 1.98537 0
M  V30 3051 H 312.205 3.30263 2.53112 0
M  V30 3052 H 311.081 4.07223 3.6805 0
M  V30 3053 H 311.342 2.33669 3.75301 0
M  V30 3054 N 310.401 -0.613514 1.45168 0
M  V30 3055 C 311.812 -1.19539 1.43413 0
M  V30 3056 C 312.163 -1.95558 0.158632 0
M  V30 3057 O 311.288 -2.0335 -0.740119 0
M  V30 3058 C 311.883 -2.17445 2.59813 0
M  V30 3059 C 310.442 -2.71022 2.61197 0
M  V30 3060 C 309.589 -1.46323 2.35552 0
M  V30 3061 H 312.54 -0.403163 1.53494 0
M  V30 3062 H 312.561 -3.00373 2.33574 0
M  V30 3063 H 312.073 -1.62089 3.52631 0
M  V30 3064 H 310.174 -3.30332 1.7237 0
M  V30 3065 H 310.287 -3.15859 3.60236 0
M  V30 3066 H 308.651 -1.75072 1.84992 0
M  V30 3067 H 309.434 -0.92844 3.30507 0
M  V30 3068 N 311.879 -1.3236 -0.855495 0
M  V30 3069 C 312.811 -1.17052 -1.97057 0
M  V30 3070 C 313.824 -0.10574 -1.62456 0
M  V30 3071 O 315.013 -0.354619 -1.74942 0
M  V30 3072 C 312.113 -0.769305 -3.30053 0
M  V30 3073 C 311.286 -1.9222 -3.929 0
M  V30 3074 C 310.345 -1.50466 -5.04228 0
M  V30 3075 O 309.371 -2.21655 -5.24269 0
M  V30 3076 N 310.573 -0.400209 -5.79119 0
M  V30 3077 H 313.338 -2.13103 -2.1073 0
M  V30 3078 H 310.899 -1.24885 -1.0303 0
M  V30 3079 H 312.891 -0.472407 -4.01933 0
M  V30 3080 H 311.461 0.100025 -3.1244 0
M  V30 3081 H 310.681 -2.38563 -3.13817 0
M  V30 3082 H 311.969 -2.69403 -4.31624 0
M  V30 3083 H 311.367 0.192319 -5.65373 0
M  V30 3084 H 309.924 -0.162912 -6.51596 0
M  V30 3085 N 313.357 1.07166 -1.15556 0
M  V30 3086 C 314.304 2.14417 -0.854055 0
M  V30 3087 C 315.274 1.64965 0.193806 0
M  V30 3088 O 316.459 1.90703 0.0609443 0
M  V30 3089 C 313.599 3.43304 -0.351574 0
M  V30 3090 C 312.712 4.06537 -1.46123 0
M  V30 3091 C 311.847 5.23266 -0.914677 0
M  V30 3092 C 310.886 5.78464 -2.00114 0
M  V30 3093 N 310.023 6.86521 -1.47083 0
M  V30 3094 H 314.863 2.39548 -1.77259 0
M  V30 3095 H 312.4 1.17543 -0.884425 0
M  V30 3096 H 314.358 4.17179 -0.0419409 0
M  V30 3097 H 312.988 3.18419 0.530037 0
M  V30 3098 H 312.04 3.30297 -1.88701 0
M  V30 3099 H 313.352 4.43567 -2.28144 0
M  V30 3100 H 312.506 6.04131 -0.557698 0
M  V30 3101 H 311.245 4.87658 -0.0636583 0
M  V30 3102 H 310.25 4.96243 -2.36692 0
M  V30 3103 H 311.475 6.16126 -2.85597 0
M  V30 3104 H 309.421 6.52849 -0.642198 0
M  V30 3105 H 309.338 7.22446 -2.22729 0
M  V30 3106 H 310.606 7.71087 -1.14215 0
M  V30 3107 N 314.835 0.952656 1.25548 0
M  V30 3108 C 316.081 0.607272 1.93494 0
M  V30 3109 C 316.414 -0.853245 1.74452 0
M  V30 3110 O 315.689 -1.61194 1.08843 0
M  V30 3111 C 315.972 0.96435 3.46947 0
M  V30 3112 C 315.825 2.48045 3.75225 0
M  V30 3113 C 317.144 0.487987 4.37386 0
M  V30 3114 H 314.263 0.222096 0.702739 0
M  V30 3115 H 316.905 1.18895 1.48203 0
M  V30 3116 H 315.055 0.469361 3.85654 0
M  V30 3117 H 316.727 3.04905 3.46166 0
M  V30 3118 H 314.97 2.919 3.209 0
M  V30 3119 H 315.641 2.6808 4.82532 0
M  V30 3120 H 318.117 0.912558 4.0597 0
M  V30 3121 H 316.993 0.766547 5.43521 0
M  V30 3122 H 317.254 -0.612063 4.37843 0
M  V30 3123 N 316.313 -1.40141 0.720998 0
M  V30 3124 C 317.559 -2.01084 0.263231 0
M  V30 3125 C 317.892 -1.57052 -1.14229 0
M  V30 3126 O 317.167 -0.793027 -1.77599 0
M  V30 3127 C 317.45 -3.58401 0.349344 0
M  V30 3128 C 317.303 -4.12491 1.79363 0
M  V30 3129 C 318.622 -4.39231 -0.276351 0
M  V30 3130 H 315.741 -0.730572 0.0971228 0
M  V30 3131 H 318.383 -1.66543 0.914518 0
M  V30 3132 H 316.533 -3.87958 -0.205165 0
M  V30 3133 H 318.205 -3.93711 2.40394 0
M  V30 3134 H 316.448 -3.66576 2.31958 0
M  V30 3135 H 317.119 -5.21646 1.80524 0
M  V30 3136 H 319.595 -4.15637 0.196184 0
M  V30 3137 H 318.471 -5.48586 -0.185681 0
M  V30 3138 H 318.732 -4.20643 -1.36059 0
M  V30 3139 N 317.792 -0.46758 -1.50504 0
M  V30 3140 C 319.069 0.15003 -1.95024 0
M  V30 3141 C 319.449 1.57304 -1.40779 0
M  V30 3142 O 318.797 2.20281 -0.607319 0
M  V30 3143 C 319.007 0.0969324 -3.48865 0
M  V30 3144 C 320.355 0.287565 -4.23625 0
M  V30 3145 O 321.379 0.173678 -3.55776 0
M  V30 3146 O 320.238 0.517186 -5.44047 0
M  V30 3147 H 317.332 0.113582 -0.819163 0
M  V30 3148 H 319.878 -0.52773 -1.61286 0
M  V30 3149 H 318.65 -0.896732 -3.80886 0
M  V30 3150 H 318.273 0.816303 -3.8913 0
M  V30 3151 N 319.27 1.56325 -0.20005 0
M  V30 3152 C 320.217 2.1932 0.718833 0
M  V30 3153 C 321.187 1.14198 1.20615 0
M  V30 3154 O 322.372 1.42469 1.26914 0
M  V30 3155 C 319.512 2.86041 1.93066 0
M  V30 3156 C 318.625 4.05702 1.48425 0
M  V30 3157 C 317.76 4.60266 2.65196 0
M  V30 3158 C 316.799 5.72273 2.17185 0
M  V30 3159 N 315.936 6.21221 3.27152 0
M  V30 3160 H 320.776 2.97486 0.17489 0
M  V30 3161 H 318.313 1.46911 0.0745794 0
M  V30 3162 H 320.271 3.22897 2.64184 0
M  V30 3163 H 318.901 2.1043 2.44783 0
M  V30 3164 H 317.953 3.74475 0.668755 0
M  V30 3165 H 319.265 4.86699 1.09204 0
M  V30 3166 H 318.419 4.99453 3.4443 0
M  V30 3167 H 317.158 3.78386 3.07693 0
M  V30 3168 H 316.163 5.3261 1.36407 0
M  V30 3169 H 317.388 6.55974 1.75713 0
M  V30 3170 H 315.334 5.42263 3.69171 0
M  V30 3171 H 315.251 6.97284 2.92116 0
M  V30 3172 H 316.519 6.65063 4.06585 0
M  V30 3173 N 320.748 -0.0735177 1.57428 0
M  V30 3174 C 321.997 -0.771809 1.86349 0
M  V30 3175 C 322.31 -1.78828 0.792452 0
M  V30 3176 O 323.516 -2.53602 0.96945 0
M  V30 3177 C 321.972 -1.42358 3.30548 0
M  V30 3178 C 321.58 -0.445761 4.45777 0
M  V30 3179 C 323.324 -2.10434 3.6867 0
M  V30 3180 C 321.231 -1.10335 5.81016 0
M  V30 3181 H 320.161 -0.291999 0.695164 0
M  V30 3182 H 322.812 -0.0250749 1.83483 0
M  V30 3183 H 321.194 -2.21852 3.28021 0
M  V30 3184 H 322.368 0.319239 4.59693 0
M  V30 3185 H 320.683 0.130457 4.16196 0
M  V30 3186 H 323.28 -2.60405 4.67004 0
M  V30 3187 H 323.623 -2.90298 2.98383 0
M  V30 3188 H 324.156 -1.37773 3.7318 0
M  V30 3189 H 320.895 -0.345061 6.54591 0
M  V30 3190 H 320.415 -1.83925 5.70904 0
M  V30 3191 H 322.094 -1.62367 6.26295 0
M  V30 3192 N 322.226 -1.5378 -0.344866 0
M  V30 3193 C 323.454 -1.74899 -1.10534 0
M  V30 3194 C 323.869 -0.487534 -1.82397 0
M  V30 3195 O 323.226 0.540741 -1.74305 0
M  V30 3196 C 323.277 -2.92822 -2.11984 0
M  V30 3197 O 322.998 -4.14089 -1.43044 0
M  V30 3198 C 324.499 -3.25982 -3.00417 0
M  V30 3199 H 321.719 -0.584426 -0.329678 0
M  V30 3200 H 324.263 -2.006 -0.397474 0
M  V30 3201 H 322.418 -2.69457 -2.78338 0
M  V30 3202 H 322.832 -4.80272 -2.10805 0
M  V30 3203 H 324.306 -4.11848 -3.67539 0
M  V30 3204 H 324.783 -2.42228 -3.66363 0
M  V30 3205 H 325.389 -3.51349 -2.39654 0
M  V30 3206 N 323.704 0.605807 -1.45491 0
M  V30 3207 C 324.614 1.74466 -1.56839 0
M  V30 3208 C 325.63 1.68006 -0.452772 0
M  V30 3209 O 326.806 1.8833 -0.713708 0
M  V30 3210 C 323.871 3.10931 -1.53371 0
M  V30 3211 C 322.932 3.28832 -2.75986 0
M  V30 3212 C 322.165 4.58787 -2.72673 0
M  V30 3213 O 322.388 5.4122 -1.80102 0
M  V30 3214 O 321.322 4.79438 -3.63899 0
M  V30 3215 H 325.148 1.67843 -2.53106 0
M  V30 3216 H 322.733 0.770108 -1.28022 0
M  V30 3217 H 324.615 3.92233 -1.54051 0
M  V30 3218 H 323.29 3.18042 -0.602572 0
M  V30 3219 H 322.197 2.47112 -2.80867 0
M  V30 3220 H 323.53 3.26599 -3.68231 0
M  V30 3221 N 325.182 1.32811 0.848464 0
M  V30 3222 C 326.115 1.16601 1.96162 0
M  V30 3223 C 327.093 0.0638855 1.62474 0
M  V30 3224 O 328.277 0.224348 1.8716 0
M  V30 3225 C 325.404 0.786333 3.29446 0
M  V30 3226 C 324.45 1.89459 3.8211 0
M  V30 3227 S 325.283 3.50395 4.04949 0
M  V30 3228 C 326.439 3.14413 5.41198 0
M  V30 3229 H 326.672 2.10832 2.09612 0
M  V30 3230 H 324.205 1.17543 1.00115 0
M  V30 3231 H 326.163 0.574044 4.06466 0
M  V30 3232 H 324.824 -0.137218 3.138 0
M  V30 3233 H 324.017 1.58207 4.78526 0
M  V30 3234 H 323.619 2.06304 3.11953 0
M  V30 3235 H 325.911 2.64642 6.23675 0
M  V30 3236 H 326.854 4.09874 5.77416 0
M  V30 3237 H 327.262 2.51266 5.05495 0
M  V30 3238 N 326.66 -1.06551 1.16123 0
M  V30 3239 C 327.909 -1.78687 0.935622 0
M  V30 3240 C 328.222 -1.88056 -0.538001 0
M  V30 3241 O 329.428 -2.56794 -0.88143 0
M  V30 3242 C 327.884 -3.21143 1.62466 0
M  V30 3243 C 327.492 -3.19949 3.13587 0
M  V30 3244 C 329.236 -3.9783 1.48092 0
M  V30 3245 C 327.143 -4.57108 3.75241 0
M  V30 3246 H 326.073 -0.669712 0.346412 0
M  V30 3247 H 328.724 -1.19534 1.39226 0
M  V30 3248 H 327.106 -3.80539 1.09572 0
M  V30 3249 H 328.28 -2.70151 3.73303 0
M  V30 3250 H 326.595 -2.5676 3.27816 0
M  V30 3251 H 329.192 -4.99217 1.91538 0
M  V30 3252 H 329.535 -4.14078 0.429507 0
M  V30 3253 H 330.068 -3.4495 1.98127 0
M  V30 3254 H 326.807 -4.46065 4.80319 0
M  V30 3255 H 326.327 -5.07111 3.20309 0
M  V30 3256 H 328.006 -5.26069 3.76644 0
M  V30 3257 N 328.138 -0.959301 -1.25041 0
M  V30 3258 C 329.549 -0.65667 -1.74771 0
M  V30 3259 C 329.9 0.827852 -1.77879 0
M  V30 3260 O 329.025 1.64783 -1.40269 0
M  V30 3261 C 329.62 -1.1853 -3.1739 0
M  V30 3262 C 328.179 -0.932734 -3.6466 0
M  V30 3263 C 327.326 -1.32558 -2.43564 0
M  V30 3264 H 330.277 -1.13558 -1.10862 0
M  V30 3265 H 330.298 -0.547582 -3.76539 0
M  V30 3266 H 329.81 -2.26576 -3.15095 0
M  V30 3267 H 327.911 0.13257 -3.72364 0
M  V30 3268 H 328.024 -1.57248 -4.52559 0
M  V30 3269 H 326.388 -0.743956 -2.43593 0
M  V30 3270 H 327.171 -2.41537 -2.43957 0
M  V30 3271 N 329.616 1.39756 -0.72842 0
M  V30 3272 C 330.549 2.28176 -0.0330172 0
M  V30 3273 C 331.527 1.44035 0.754501 0
M  V30 3274 O 332.711 1.73434 0.738445 0
M  V30 3275 C 329.838 3.24795 0.960504 0
M  V30 3276 C 328.884 4.25693 0.262264 0
M  V30 3277 S 329.717 5.25714 -1.01906 0
M  V30 3278 C 330.873 6.25894 -0.0279717 0
M  V30 3279 H 331.106 2.86807 -0.78287 0
M  V30 3280 H 328.639 1.45382 -0.519951 0
M  V30 3281 H 330.597 3.80983 1.52846 0
M  V30 3282 H 329.258 2.65196 1.68315 0
M  V30 3283 H 328.451 4.93699 1.01379 0
M  V30 3284 H 328.053 3.7327 -0.233482 0
M  V30 3285 H 330.345 6.72585 0.814621 0
M  V30 3286 H 331.288 7.04876 -0.67499 0
M  V30 3287 H 331.696 5.63466 0.341489 0
M  V30 3288 N 331.094 0.475555 1.50254 0
M  V30 3289 C 332.342 -0.077738 2.0195 0
M  V30 3290 C 332.663 -1.39813 1.35931 0
M  V30 3291 O 331.933 -1.89249 0.506123 0
M  V30 3292 H 330.513 -0.031719 0.746326 0
M  V30 3293 H 333.175 0.626995 1.84539 0
M  V30 3294 H 332.271 -0.225995 3.11281 0
M  V30 3295 N 332.573 -1.56217 0.208337 0
M  V30 3296 C 333.523 -2.16324 -0.720281 0
M  V30 3297 C 334.507 -1.10775 -1.16695 0
M  V30 3298 O 335.699 -1.36801 -1.12314 0
M  V30 3299 C 332.828 -2.83644 -1.93393 0
M  V30 3300 C 331.914 -3.96401 -1.50755 0
M  V30 3301 N 332.305 -4.99546 -0.792937 0
M  V30 3302 C 330.603 -4.08246 -1.79585 0
M  V30 3303 C 331.304 -5.78828 -0.577364 0
M  V30 3304 N 330.28 -5.31723 -1.1301 0
M  V30 3305 H 334.082 -2.93432 -0.165725 0
M  V30 3306 H 331.596 -1.62397 0.00906463 0
M  V30 3307 H 333.593 -3.25107 -2.60981 0
M  V30 3308 H 332.253 -2.08027 -2.49308 0
M  V30 3309 H 333.264 -5.15967 -0.447004 0
M  V30 3310 H 329.941 -3.4377 -2.36915 0
M  V30 3311 H 331.331 -6.71899 -0.00952956 0
M  V30 3312 N 334.051 0.0651679 -1.57465 0
M  V30 3313 C 334.981 1.07693 -2.07182 0
M  V30 3314 C 335.962 1.39962 -0.966673 0
M  V30 3315 O 337.147 1.49475 -1.2398 0
M  V30 3316 C 334.277 2.3885 -2.52127 0
M  V30 3317 C 333.231 2.20917 -3.66579 0
M  V30 3318 C 332.557 3.57515 -3.97601 0
M  V30 3319 C 333.857 1.62493 -4.9638 0
M  V30 3320 H 335.551 0.663199 -2.91962 0
M  V30 3321 H 333.097 0.317569 -1.40455 0
M  V30 3322 H 335.05 3.09928 -2.85522 0
M  V30 3323 H 333.774 2.82215 -1.64384 0
M  V30 3324 H 332.433 1.52279 -3.33477 0
M  V30 3325 H 332.081 3.98463 -3.06979 0
M  V30 3326 H 331.781 3.46353 -4.74672 0
M  V30 3327 H 333.305 4.30013 -4.33499 0
M  V30 3328 H 334.719 2.23445 -5.27963 0
M  V30 3329 H 333.116 1.62009 -5.77818 0
M  V30 3330 H 334.186 0.587041 -4.81333 0
M  V30 3331 N 335.529 1.53961 0.336706 0
M  V30 3332 C 336.777 1.71197 1.07405 0
M  V30 3333 C 337.098 0.481475 1.88962 0
M  V30 3334 O 336.368 -0.504585 1.8929 0
M  V30 3335 H 334.948 0.631185 0.399517 0
M  V30 3336 H 337.61 1.91232 0.376323 0
M  V30 3337 H 336.706 2.58587 1.74755 0
M  V30 3338 N 337.007 -0.598083 1.45811 0
M  V30 3339 C 338.284 -1.35777 1.40797 0
M  V30 3340 C 338.664 -2.10935 0.083462 0
M  V30 3341 O 338.012 -2.08505 -0.934763 0
M  V30 3342 C 338.222 -2.29666 2.62783 0
M  V30 3343 C 339.57 -2.91977 3.08277 0
M  V30 3344 O 340.594 -2.39984 2.63223 0
M  V30 3345 O 339.453 -3.86376 3.86491 0
M  V30 3346 H 336.547 -0.609291 0.55919 0
M  V30 3347 H 339.093 -0.620379 1.57954 0
M  V30 3348 H 337.865 -1.73454 3.50756 0
M  V30 3349 H 337.488 -3.1077 2.48008 0
M  V30 3350 N 338.485 -1.33259 -0.841409 0
M  V30 3351 C 339.896 -1.22066 -1.41269 0
M  V30 3352 C 340.247 0.161479 -1.95534 0
M  V30 3353 O 339.372 1.06094 -1.88608 0
M  V30 3354 C 339.967 -2.20996 -2.568 0
M  V30 3355 C 338.526 -2.13649 -3.09888 0
M  V30 3356 C 337.673 -2.08623 -1.82679 0
M  V30 3357 H 340.624 -1.44895 -0.647395 0
M  V30 3358 H 340.645 -1.81621 -3.34356 0
M  V30 3359 H 340.157 -3.2158 -2.17274 0
M  V30 3360 H 338.258 -1.16359 -3.53965 0
M  V30 3361 H 338.371 -3.04079 -3.70234 0
M  V30 3362 H 336.735 -1.54061 -2.02824 0
M  V30 3363 H 337.518 -3.1101 -1.45353 0
M  V30 3364 N 339.963 1.05934 -1.16686 0
M  V30 3365 C 340.873 2.17014 -0.891183 0
M  V30 3366 C 341.889 1.73453 0.137907 0
M  V30 3367 O 343.065 2.01361 -0.039592 0
M  V30 3368 C 340.13 3.44384 -0.400099 0
M  V30 3369 C 339.191 4.02433 -1.49486 0
M  V30 3370 C 338.424 5.23723 -1.02711 0
M  V30 3371 O 338.647 5.7027 0.121716 0
M  V30 3372 O 337.581 5.7382 -1.81699 0
M  V30 3373 H 341.407 2.43113 -1.82015 0
M  V30 3374 H 338.992 1.15541 -0.947132 0
M  V30 3375 H 340.874 4.21189 -0.133392 0
M  V30 3376 H 339.549 3.19802 0.500817 0
M  V30 3377 H 338.456 3.27102 -1.81535 0
M  V30 3378 H 339.789 4.31317 -2.37121 0
M  V30 3379 N 341.441 0.965919 1.2453 0
M  V30 3380 C 342.718 0.543777 1.87889 0
M  V30 3381 C 343.098 -0.97909 1.87021 0
M  V30 3382 O 342.446 -1.84969 1.3416 0
M  V30 3383 C 342.656 1.13327 3.30088 0
M  V30 3384 C 344.004 1.21707 4.06783 0
M  V30 3385 O 345.028 1.08566 3.39252 0
M  V30 3386 O 343.887 1.42456 5.27606 0
M  V30 3387 H 340.981 0.181054 0.806938 0
M  V30 3388 H 343.527 1.06007 1.32516 0
M  V30 3389 H 342.299 2.17612 3.25209 0
M  V30 3390 H 341.922 0.600911 3.93033 0
M  V30 3391 N 342.919 -1.39368 0.735821 0
M  V30 3392 C 344.165 -2.00794 0.284544 0
M  V30 3393 C 344.498 -1.58255 -1.12557 0
M  V30 3394 O 343.773 -0.811819 -1.76748 0
M  V30 3395 C 344.056 -3.58011 0.387337 0
M  V30 3396 C 343.909 -4.10566 1.83728 0
M  V30 3397 C 345.228 -4.395 -0.22975 0
M  V30 3398 H 342.347 -0.729501 0.104866 0
M  V30 3399 H 344.989 -1.65564 0.93213 0
M  V30 3400 H 343.139 -3.88154 -0.164006 0
M  V30 3401 H 344.811 -3.91139 2.44556 0
M  V30 3402 H 343.054 -3.64095 2.35833 0
M  V30 3403 H 343.725 -5.19702 1.86047 0
M  V30 3404 H 346.201 -4.15406 0.240257 0
M  V30 3405 H 345.077 -5.48752 -0.127485 0
M  V30 3406 H 345.338 -4.22062 -1.3159 0
M  V30 3407 N 344.397 -0.483516 -1.5 0
M  V30 3408 C 345.36 0.292965 -2.2732 0
M  V30 3409 C 346.36 0.909499 -1.32608 0
M  V30 3410 O 347.55 0.776745 -1.55924 0
M  V30 3411 C 344.682 1.41854 -3.09984 0
M  V30 3412 H 345.875 -0.385289 -2.97415 0
M  V30 3413 H 343.428 -0.237942 -1.54478 0
M  V30 3414 H 344.163 2.13148 -2.44414 0
M  V30 3415 H 343.948 0.982114 -3.79601 0
M  V30 3416 H 345.438 1.96597 -3.68429 0
M  V30 3417 N 345.875 1.56104 -0.216619 0
M  V30 3418 C 347.152 1.89988 0.465165 0
M  V30 3419 C 347.532 1.13326 1.78102 0
M  V30 3420 O 346.88 0.241033 2.27225 0
M  V30 3421 C 347.09 3.42646 0.662939 0
M  V30 3422 C 348.438 4.13311 0.972602 0
M  V30 3423 O 349.462 3.48217 0.749901 0
M  V30 3424 O 348.321 5.28396 1.39499 0
M  V30 3425 H 345.415 0.78979 0.245276 0
M  V30 3426 H 347.961 1.67721 -0.258436 0
M  V30 3427 H 346.733 3.90399 -0.26543 0
M  V30 3428 H 346.356 3.70677 1.43821 0
M  V30 3429 N 347.353 -0.0568162 1.57498 0
M  V30 3430 C 348.599 -0.75422 1.88253 0
M  V30 3431 C 348.932 -1.76461 0.810865 0
M  V30 3432 O 348.207 -1.93691 -0.177259 0
M  V30 3433 C 348.49 -1.44878 3.2967 0
M  V30 3434 C 348.343 -0.453789 4.47505 0
M  V30 3435 C 349.662 -2.38994 3.69554 0
M  V30 3436 H 346.781 -0.272724 0.684683 0
M  V30 3437 H 349.423 -0.0172113 1.89992 0
M  V30 3438 H 347.573 -2.077 3.28318 0
M  V30 3439 H 349.245 0.170371 4.60985 0
M  V30 3440 H 347.488 0.229552 4.33192 0
M  V30 3441 H 348.159 -0.977699 5.43273 0
M  V30 3442 H 350.635 -1.86239 3.72095 0
M  V30 3443 H 349.511 -2.84587 4.69363 0
M  V30 3444 H 349.772 -3.24461 3.00296 0
M  V30 3445 N 348.832 -1.54138 -0.328536 0
M  V30 3446 C 350.078 -1.7236 -1.06865 0
M  V30 3447 C 350.411 -0.493231 -1.87832 0
M  V30 3448 O 349.686 0.5098 -1.877 0
M  V30 3449 C 349.969 -2.99621 -1.99747 0
M  V30 3450 C 349.822 -4.32899 -1.22143 0
M  V30 3451 C 351.141 -3.22615 -2.99345 0
M  V30 3452 H 348.26 -0.627151 -0.387105 0
M  V30 3453 H 350.902 -1.86827 -0.345767 0
M  V30 3454 H 349.052 -2.87418 -2.61387 0
M  V30 3455 H 350.724 -4.56978 -0.630017 0
M  V30 3456 H 348.967 -4.30628 -0.523628 0
M  V30 3457 H 349.638 -5.18154 -1.90318 0
M  V30 3458 H 352.114 -3.34248 -2.47826 0
M  V30 3459 H 350.99 -4.13027 -3.61524 0
M  V30 3460 H 351.251 -2.3961 -3.71536 0
M  V30 3461 N 350.31 0.590341 -1.46126 0
M  V30 3462 C 351.273 1.68194 -1.55703 0
M  V30 3463 C 352.273 1.54808 -0.434868 0
M  V30 3464 O 353.463 1.59564 -0.698928 0
M  V30 3465 C 350.595 3.07575 -1.47005 0
M  V30 3466 H 351.788 1.61064 -2.52979 0
M  V30 3467 H 349.341 0.807541 -1.33823 0
M  V30 3468 H 350.076 3.20268 -0.509785 0
M  V30 3469 H 349.861 3.187 -2.28414 0
M  V30 3470 H 351.351 3.87055 -1.56776 0
M  V30 3471 N 351.788 1.33704 0.83433 0
M  V30 3472 C 353.035 1.25417 1.58987 0
M  V30 3473 C 353.363 -0.178869 1.93676 0
M  V30 3474 O 352.618 -1.13723 1.59265 0
M  V30 3475 C 352.917 2.07926 2.90692 0
M  V30 3476 C 352.583 3.57066 2.75345 0
M  V30 3477 C 351.245 3.97724 2.70867 0
M  V30 3478 C 353.597 4.51817 2.59828 0
M  V30 3479 C 350.925 5.31344 2.48778 0
M  V30 3480 C 353.277 5.85604 2.39272 0
M  V30 3481 C 351.941 6.25439 2.33199 0
M  V30 3482 H 351.211 0.458934 0.581774 0
M  V30 3483 H 353.858 1.65335 0.966261 0
M  V30 3484 H 352.163 1.608 3.57282 0
M  V30 3485 H 353.86 1.98868 3.48213 0
M  V30 3486 H 350.45 3.24785 2.79665 0
M  V30 3487 H 354.634 4.21311 2.62319 0
M  V30 3488 H 349.89 5.61241 2.42526 0
M  V30 3489 H 354.064 6.58623 2.2625 0
M  V30 3490 H 351.691 7.28914 2.15843 0
M  V30 3491 N 353.266 -1.05314 1.17247 0
M  V30 3492 C 354.196 -2.1498 0.911362 0
M  V30 3493 C 355.177 -1.69471 -0.146169 0
M  V30 3494 O 356.362 -1.942 0.003812 0
M  V30 3495 C 353.492 -3.4472 0.422528 0
M  V30 3496 C 352.446 -4.03789 1.4191 0
M  V30 3497 C 351.772 -5.28858 0.788274 0
M  V30 3498 C 353.072 -4.41418 2.7919 0
M  V30 3499 H 354.766 -2.3708 1.82848 0
M  V30 3500 H 352.312 -1.13938 0.880569 0
M  V30 3501 H 354.265 -4.20787 0.227289 0
M  V30 3502 H 352.989 -3.22269 -0.530123 0
M  V30 3503 H 351.648 -3.2979 1.60106 0
M  V30 3504 H 351.296 -5.02709 -0.171173 0
M  V30 3505 H 350.996 -5.69338 1.45353 0
M  V30 3506 H 352.52 -6.07612 0.603282 0
M  V30 3507 H 353.934 -5.08524 2.64719 0
M  V30 3508 H 352.331 -4.92913 3.42282 0
M  V30 3509 H 353.401 -3.51819 3.33693 0
M  V30 3510 N 354.744 -0.972509 -1.24016 0
M  V30 3511 C 355.707 -0.511403 -2.23422 0
M  V30 3512 C 356.707 0.394679 -1.55881 0
M  V30 3513 O 357.897 0.189469 -1.73167 0
M  V30 3514 C 355.029 0.258769 -3.39916 0
M  V30 3515 H 356.222 -1.39024 -2.6573 0
M  V30 3516 H 353.775 -0.757585 -1.36713 0
M  V30 3517 H 354.51 1.1545 -3.03054 0
M  V30 3518 H 354.295 -0.391522 -3.9014 0
M  V30 3519 H 355.785 0.570244 -4.13688 0
M  V30 3520 N 356.222 1.38976 -0.743202 0
M  V30 3521 C 357.447 2.05161 -0.303936 0
M  V30 3522 C 357.872 1.55677 1.05576 0
M  V30 3523 O 357.23 0.704131 1.67068 0
M  V30 3524 C 357.278 3.59138 -0.324373 0
M  V30 3525 O 356.382 4.06668 0.685204 0
M  V30 3526 H 355.723 0.649815 -0.136518 0
M  V30 3527 H 358.253 1.77852 -1.01142 0
M  V30 3528 H 358.263 4.07639 -0.171618 0
M  V30 3529 H 356.938 3.94515 -1.31647 0
M  V30 3530 H 355.515 3.69561 0.497913 0
M  V30 3531 N 357.7 0.491464 1.49741 0
M  V30 3532 C 358.61 -0.296835 2.32715 0
M  V30 3533 C 359.626 -0.976536 1.44013 0
M  V30 3534 O 360.802 -0.960023 1.77047 0
M  V30 3535 C 357.867 -1.35288 3.19215 0
M  V30 3536 C 356.928 -0.687632 4.23757 0
M  V30 3537 C 356.161 -1.69336 5.06123 0
M  V30 3538 O 356.384 -2.92219 4.89861 0
M  V30 3539 O 355.318 -1.25394 5.88693 0
M  V30 3540 H 359.144 0.382048 3.01287 0
M  V30 3541 H 356.729 0.252953 1.47243 0
M  V30 3542 H 358.611 -1.96411 3.72828 0
M  V30 3543 H 357.286 -2.01487 2.53347 0
M  V30 3544 H 356.193 -0.0369159 3.74082 0
M  V30 3545 H 357.526 -0.0682566 4.92153 0
M  V30 3546 N 359.178 -1.55987 0.224894 0
M  V30 3547 C 360.455 -1.90232 -0.455083 0
M  V30 3548 C 360.835 -1.14269 -1.77499 0
M  V30 3549 O 360.183 -0.253079 -2.27094 0
M  V30 3550 C 360.393 -3.42993 -0.644758 0
M  V30 3551 C 361.741 -4.13821 -0.950669 0
M  V30 3552 O 362.765 -3.4861 -0.731423 0
M  V30 3553 O 361.624 -5.29128 -1.36695 0
M  V30 3554 H 358.718 -0.79108 -0.241084 0
M  V30 3555 H 361.264 -1.67581 0.267327 0
M  V30 3556 H 360.036 -3.90252 0.28613 0
M  V30 3557 H 359.659 -3.71434 -1.41853 0
M  V30 3558 N 360.656 0.0484629 -1.57525 0
M  V30 3559 C 361.881 0.759177 -1.93006 0
M  V30 3560 C 362.306 1.69125 -0.823317 0
M  V30 3561 O 361.664 1.79931 0.222364 0
M  V30 3562 C 361.712 1.50899 -3.27509 0
M  V30 3563 O 360.816 2.62112 -3.18388 0
M  V30 3564 H 360.157 0.205564 -0.631379 0
M  V30 3565 H 362.687 0.00972959 -2.04598 0
M  V30 3566 H 362.697 1.88317 -3.6194 0
M  V30 3567 H 361.372 0.825269 -4.0763 0
M  V30 3568 H 359.949 2.27379 -2.95556 0
M  V30 3569 N 362.134 1.5431 0.320358 0
M  V30 3570 C 363.382 1.72327 1.05583 0
M  V30 3571 C 363.703 0.50149 1.88441 0
M  V30 3572 O 362.973 -0.48448 1.89815 0
M  V30 3573 H 361.553 0.635387 0.3928 0
M  V30 3574 H 364.215 1.91621 0.356019 0
M  V30 3575 H 363.311 2.60426 1.72003 0
M  V30 3576 N 363.613 -0.582584 1.46437 0
M  V30 3577 C 364.843 -1.36484 1.55099 0
M  V30 3578 C 365.251 -1.88233 0.191056 0
M  V30 3579 O 364.594 -1.6429 -0.821858 0
M  V30 3580 C 364.656 -2.588 2.49525 0
M  V30 3581 C 364.32 -2.28517 3.95764 0
M  V30 3582 C 365.317 -1.87346 4.84972 0
M  V30 3583 C 363.002 -2.40658 4.40896 0
M  V30 3584 C 364.996 -1.5871 6.17325 0
M  V30 3585 C 362.683 -2.11635 5.73284 0
M  V30 3586 C 363.681 -1.70725 6.61318 0
M  V30 3587 O 363.369 -1.42057 7.91249 0
M  V30 3588 H 363.101 -0.423297 0.527063 0
M  V30 3589 H 365.655 -0.715188 1.92547 0
M  V30 3590 H 363.885 -3.26571 2.07095 0
M  V30 3591 H 365.574 -3.20868 2.48593 0
M  V30 3592 H 366.34 -1.77481 4.5136 0
M  V30 3593 H 362.219 -2.71463 3.72598 0
M  V30 3594 H 365.763 -1.26704 6.85997 0
M  V30 3595 H 361.66 -2.21124 6.06444 0
M  V30 3596 H 362.428 -1.55901 8.03515 0
M  V30 3597 N 365.091 -1.34144 -0.827227 0
M  V30 3598 C 366.34 -1.25602 -1.5782 0
M  V30 3599 C 366.653 0.173445 -1.94829 0
M  V30 3600 O 367.859 0.380984 -2.68814 0
M  V30 3601 C 366.315 -2.20151 -2.84713 0
M  V30 3602 C 365.923 -3.68331 -2.55021 0
M  V30 3603 C 367.667 -2.20508 -3.62735 0
M  V30 3604 C 365.574 -4.54762 -3.78082 0
M  V30 3605 H 364.504 -0.466573 -0.592306 0
M  V30 3606 H 367.155 -1.59283 -0.911116 0
M  V30 3607 H 365.537 -1.79417 -3.53023 0
M  V30 3608 H 366.711 -4.17577 -1.94849 0
M  V30 3609 H 365.026 -3.7038 -1.90283 0
M  V30 3610 H 367.623 -2.82306 -4.54101 0
M  V30 3611 H 367.966 -1.20322 -3.98533 0
M  V30 3612 H 368.499 -2.59664 -3.01362 0
M  V30 3613 H 365.238 -5.55867 -3.47407 0
M  V30 3614 H 364.758 -4.10254 -4.37552 0
M  V30 3615 H 366.437 -4.69153 -4.45538 0
M  V30 3616 N 366.569 1.04691 -1.17803 0
M  V30 3617 C 367.797 1.81446 -0.99423 0
M  V30 3618 C 368.212 1.83174 0.457459 0
M  V30 3619 O 367.569 1.26265 1.31771 0
M  V30 3620 C 367.62 3.27334 -1.5341 0
M  V30 3621 O 367.341 3.25798 -2.92895 0
M  V30 3622 C 368.842 4.20759 -1.39559 0
M  V30 3623 H 366.062 0.571599 -0.351447 0
M  V30 3624 H 368.606 1.31982 -1.56208 0
M  V30 3625 H 366.761 3.74052 -1.00815 0
M  V30 3626 H 367.175 4.17144 -3.17949 0
M  V30 3627 H 368.649 5.21084 -1.82141 0
M  V30 3628 H 369.126 4.37856 -0.343394 0
M  V30 3629 H 369.732 3.79901 -1.91195 0
M  V30 3630 N 368.047 0.979072 1.23499 0
M  V30 3631 C 369.295 0.645941 1.91499 0
M  V30 3632 C 369.616 -0.822948 1.76784 0
M  V30 3633 O 368.886 -1.58854 1.14639 0
M  V30 3634 H 367.466 0.235919 0.708767 0
M  V30 3635 H 370.128 1.2426 1.50152 0
M  V30 3636 H 369.224 0.896411 2.9895 0
M  V30 3637 N 369.525 -1.3858 0.750561 0
M  V30 3638 C 370.753 -2.04471 0.316098 0
M  V30 3639 C 371.168 -1.56606 -1.05452 0
M  V30 3640 O 370.525 -0.737784 -1.66922 0
M  V30 3641 C 370.576 -3.60025 0.326275 0
M  V30 3642 O 370.297 -4.06133 1.6428 0
M  V30 3643 C 371.798 -4.43131 -0.122429 0
M  V30 3644 H 369.018 -0.65717 0.135528 0
M  V30 3645 H 371.562 -1.77329 1.01857 0
M  V30 3646 H 369.717 -3.86014 -0.327431 0
M  V30 3647 H 370.131 -5.00547 1.56693 0
M  V30 3648 H 371.605 -5.51963 -0.0641473 0
M  V30 3649 H 372.082 -4.23333 -1.16988 0
M  V30 3650 H 372.688 -4.22323 0.50229 0
M  V30 3651 N 371.003 -0.499398 -1.49478 0
M  V30 3652 C 372.228 0.044722 -2.07352 0
M  V30 3653 C 372.653 1.30207 -1.35749 0
M  V30 3654 O 372.011 1.76516 -0.413732 0
M  V30 3655 C 372.059 0.283013 -3.59488 0
M  V30 3656 O 371.163 1.35804 -3.89398 0
M  V30 3657 H 370.504 -0.0255147 -0.66351 0
M  V30 3658 H 373.034 -0.698561 -1.92305 0
M  V30 3659 H 373.044 0.515007 -4.04737 0
M  V30 3660 H 371.719 -0.635636 -4.11014 0
M  V30 3661 H 370.296 1.11113 -3.55961 0
M  V30 3662 N 372.481 1.55866 -0.233164 0
M  V30 3663 C 373.727 1.98897 0.395959 0
M  V30 3664 C 374.06 1.12091 1.58585 0
M  V30 3665 O 373.335 0.181182 1.93654 0
M  V30 3666 C 373.618 3.50658 0.819224 0
M  V30 3667 C 373.471 4.48233 -0.375109 0
M  V30 3668 C 374.79 4.07135 1.67121 0
M  V30 3669 H 371.909 0.723102 0.142451 0
M  V30 3670 H 374.551 1.87082 -0.331725 0
M  V30 3671 H 372.701 3.60857 1.43925 0
M  V30 3672 H 374.373 4.50031 -1.01341 0
M  V30 3673 H 372.616 4.21624 -1.02058 0
M  V30 3674 H 373.287 5.51988 -0.0358328 0
M  V30 3675 H 375.763 3.99952 1.14795 0
M  V30 3676 H 374.639 5.13615 1.93625 0
M  V30 3677 H 374.9 3.54736 2.63846 0
M  V30 3678 N 373.959 -0.0401083 1.57549 0
M  V30 3679 C 374.869 -1.06133 2.0922 0
M  V30 3680 C 375.885 -1.40356 1.0284 0
M  V30 3681 O 377.061 -1.49897 1.34509 0
M  V30 3682 C 374.126 -2.34658 2.55218 0
M  V30 3683 C 373.187 -2.07117 3.76033 0
M  V30 3684 C 372.42 -3.29514 4.19829 0
M  V30 3685 O 372.643 -4.39794 3.63232 0
M  V30 3686 O 371.577 -3.15863 5.12362 0
M  V30 3687 H 375.403 -0.652244 2.96613 0
M  V30 3688 H 372.988 -0.256368 1.47184 0
M  V30 3689 H 374.87 -3.10239 2.85184 0
M  V30 3690 H 373.545 -2.74883 1.70941 0
M  V30 3691 H 372.452 -1.29139 3.51104 0
M  V30 3692 H 373.785 -1.71754 4.61261 0
M  V30 3693 N 375.437 -1.54477 -0.31217 0
M  V30 3694 C 376.683 -1.73483 -1.0503 0
M  V30 3695 C 377.016 -0.513125 -1.87298 0
M  V30 3696 O 376.291 0.489864 -1.8823 0
M  V30 3697 C 376.574 -3.01723 -1.96558 0
M  V30 3698 C 376.427 -4.3417 -1.17545 0
M  V30 3699 C 377.746 -3.25772 -2.95907 0
M  V30 3700 H 374.865 -0.631222 -0.380432 0
M  V30 3701 H 377.507 -1.87184 -0.325932 0
M  V30 3702 H 375.657 -2.90174 -2.58324 0
M  V30 3703 H 377.329 -4.5762 -0.581513 0
M  V30 3704 H 375.572 -4.31159 -0.477925 0
M  V30 3705 H 376.243 -5.20143 -1.84811 0
M  V30 3706 H 378.719 -3.36857 -2.44267 0
M  V30 3707 H 377.595 -4.16838 -3.57123 0
M  V30 3708 H 377.856 -2.43537 -3.68974 0
M  V30 3709 N 376.915 0.57481 -1.46744 0
M  V30 3710 C 378.143 1.35856 -1.56047 0
M  V30 3711 C 378.558 1.87691 -0.204365 0
M  V30 3712 O 377.915 1.64049 0.79963 0
M  V30 3713 C 377.966 2.54066 -2.57163 0
M  V30 3714 O 377.687 2.04377 -3.87507 0
M  V30 3715 C 379.188 3.46514 -2.76483 0
M  V30 3716 H 376.408 0.414754 -0.527466 0
M  V30 3717 H 378.952 0.698035 -1.92218 0
M  V30 3718 H 377.107 3.16092 -2.23974 0
M  V30 3719 H 377.521 2.81419 -4.4261 0
M  V30 3720 H 378.995 4.25919 -3.51137 0
M  V30 3721 H 379.472 3.98951 -1.83671 0
M  V30 3722 H 380.078 2.90318 -3.10799 0
M  V30 3723 N 378.394 1.34581 0.820102 0
M  V30 3724 C 379.642 1.26845 1.57336 0
M  V30 3725 C 379.963 -0.160667 1.94337 0
M  V30 3726 O 379.233 -1.09396 1.6251 0
M  V30 3727 H 377.813 0.466514 0.583415 0
M  V30 3728 H 380.475 1.68526 0.979027 0
M  V30 3729 H 379.571 1.87513 2.4949 0
M  V30 3730 N 379.872 -1.04064 1.18357 0
M  V30 3731 C 381.12 -1.76915 0.977013 0
M  V30 3732 C 381.441 -1.88624 -0.494577 0
M  V30 3733 O 380.711 -1.41125 -1.3587 0
M  V30 3734 H 379.291 -0.65535 0.358504 0
M  V30 3735 H 381.953 -1.25592 1.49039 0
M  V30 3736 H 381.049 -2.78178 1.41504 0
M  V30 3737 N 381.35 -0.985608 -1.22978 0
M  V30 3738 C 382.28 -0.549649 -2.26939 0
M  V30 3739 C 383.261 0.419803 -1.64838 0
M  V30 3740 O 384.446 0.31203 -1.91677 0
M  V30 3741 C 381.576 0.143652 -3.47003 0
M  V30 3742 C 380.53 -0.743606 -4.21491 0
M  V30 3743 C 379.856 0.0822027 -5.34637 0
M  V30 3744 C 381.156 -2.03694 -4.80943 0
M  V30 3745 H 382.85 -1.41862 -2.63658 0
M  V30 3746 H 380.396 -0.683571 -1.26741 0
M  V30 3747 H 382.349 0.459985 -4.18882 0
M  V30 3748 H 381.073 1.04711 -3.09359 0
M  V30 3749 H 379.732 -1.04347 -3.51436 0
M  V30 3750 H 379.38 0.986359 -4.93234 0
M  V30 3751 H 379.08 -0.508377 -5.85397 0
M  V30 3752 H 380.604 0.392797 -6.09335 0
M  V30 3753 H 382.018 -1.78504 -5.44802 0
M  V30 3754 H 380.415 -2.57573 -5.42011 0
M  V30 3755 H 381.485 -2.72042 -4.01399 0
M  V30 3756 N 382.828 1.3818 -0.7579 0
M  V30 3757 C 384.075 2.00019 -0.315985 0
M  V30 3758 C 384.403 1.60163 1.10355 0
M  V30 3759 O 383.658 0.83264 1.77103 0
M  V30 3760 C 383.957 3.55252 -0.391218 0
M  V30 3761 C 383.623 4.14834 -1.76702 0
M  V30 3762 C 382.285 4.30821 -2.14353 0
M  V30 3763 C 384.637 4.47658 -2.66931 0
M  V30 3764 C 381.965 4.76928 -3.41696 0
M  V30 3765 C 384.317 4.95184 -3.93669 0
M  V30 3766 C 382.981 5.09377 -4.31383 0
M  V30 3767 H 382.251 0.731923 -0.115627 0
M  V30 3768 H 384.898 1.65161 -0.969223 0
M  V30 3769 H 383.203 3.90273 0.34558 0
M  V30 3770 H 384.9 4.00988 -0.030805 0
M  V30 3771 H 381.49 4.02808 -1.46435 0
M  V30 3772 H 385.674 4.34904 -2.39106 0
M  V30 3773 H 380.93 4.86103 -3.70829 0
M  V30 3774 H 385.104 5.19551 -4.63724 0
M  V30 3775 H 382.731 5.44865 -5.30119 0
M  V30 3776 N 384.306 0.507319 1.49211 0
M  V30 3777 C 385.239 -0.314509 2.26022 0
M  V30 3778 C 386.217 -0.964849 1.30879 0
M  V30 3779 O 387.401 -0.993707 1.6018 0
M  V30 3780 C 384.528 -1.44346 3.06402 0
M  V30 3781 C 383.574 -0.90685 4.16748 0
M  V30 3782 S 384.407 0.207392 5.35098 0
M  V30 3783 C 385.563 -0.924573 6.19033 0
M  V30 3784 H 385.796 0.337416 2.95379 0
M  V30 3785 H 383.329 0.292718 1.516 0
M  V30 3786 H 385.287 -2.09029 3.53295 0
M  V30 3787 H 383.948 -2.06702 2.36502 0
M  V30 3788 H 383.141 -1.75309 4.72528 0
M  V30 3789 H 382.743 -0.33712 3.72478 0
M  V30 3790 H 385.035 -1.82839 6.52362 0
M  V30 3791 H 385.978 -0.405248 7.06939 0
M  V30 3792 H 386.386 -1.19476 5.51712 0
M  V30 3793 O 385.823 -1.56889 0.38316 0
M  V30 3794 H 386.514 -1.93009 -0.163415 0
M  V30 END ATOM
M  V30 BEGIN BOND
M  V30 END BOND
M  V30 END CTAB
M  END
$$$$
