drugbank_target|Q92637 High affinity immunoglobulin gamma Fc receptor IB (DB00028)
 OpenBabel12092120573D

  0  0  0     0  0            999 V3000
M  V30 BEGIN CTAB
M  V30 COUNTS 4542 4602 0 0 0
M  V30 BEGIN ATOM
M  V30 1 H -0.908 1.98254 -0.117106 0
M  V30 2 N 0 1.576 0 0
M  V30 3 C 0.933 2.03868 1.02534 0
M  V30 4 C 1.911 0.928543 1.3348 0
M  V30 5 O 3.095 1.19667 1.45644 0
M  V30 6 C 0.222 2.43627 2.35294 0
M  V30 7 C -0.732 3.65373 2.2001 0
M  V30 8 S 0.101 5.13292 1.52614 0
M  V30 9 C 1.257 5.56322 2.86805 0
M  V30 10 H 1.49 2.90518 0.631377 0
M  V30 11 H -0.977 1.52953 0.210867 0
M  V30 12 H 0.981 2.67203 3.11629 0
M  V30 13 H -0.358 1.57376 2.7183 0
M  V30 14 H -1.165 3.90944 3.18086 0
M  V30 15 H -1.563 3.418 1.51819 0
M  V30 16 H 0.729 5.58782 3.83104 0
M  V30 17 H 1.672 6.56266 2.65933 0
M  V30 18 H 2.08 4.83886 2.90714 0
M  V30 19 N 1.4781 -0.272755 1.55222 0
M  V30 20 C 2.7241 -1.00172 1.77023 0
M  V30 21 C 3.0791 -1.83928 0.564633 0
M  V30 22 O 2.3721 -1.86416 -0.442674 0
M  V30 23 C 2.5661 -1.91642 3.01675 0
M  V30 24 C 2.3951 -1.16888 4.34243 0
M  V30 25 C 1.1651 -0.884464 4.97499 0
M  V30 26 C 3.3631 -0.55919 5.11251 0
M  V30 27 N 1.3451 -0.11015 6.13801 0
M  V30 28 C 2.7161 0.0809469 6.19947 0
M  V30 29 C 4.7711 -0.467058 4.95705 0
M  V30 30 C 3.4741 0.804335 7.14789 0
M  V30 31 C 5.5001 0.242739 5.90902 0
M  V30 32 C 4.8621 0.871613 6.98987 0
M  V30 33 H 0.9611 -0.348529 0.700037 0
M  V30 34 H 3.5451 -0.277365 1.92714 0
M  V30 35 H 1.7161 -2.61303 2.87359 0
M  V30 36 H 3.4481 -2.57901 3.1188 0
M  V30 37 H 0.2031 -1.18979 4.58411 0
M  V30 38 H 0.6271 0.264344 6.76484 0
M  V30 39 H 5.2691 -0.93894 4.12242 0
M  V30 40 H 2.9871 1.2879 7.97771 0
M  V30 41 H 6.5731 0.314347 5.8095 0
M  V30 42 H 5.4531 1.4121 7.71381 0
M  V30 43 N 2.9562 -1.48159 -0.537278 0
M  V30 44 C 4.2032 -1.55804 -1.29349 0
M  V30 45 C 4.5312 -0.228802 -1.9315 0
M  V30 46 O 3.7862 0.780242 -1.79473 0
M  V30 47 C 4.0852 -2.63956 -2.40961 0
M  V30 48 C 3.7512 -4.0662 -1.94861 0
M  V30 49 C 2.4132 -4.45452 -1.82006 0
M  V30 50 C 4.7652 -4.96055 -1.59933 0
M  V30 51 C 2.0932 -5.71531 -1.32547 0
M  V30 52 C 4.4452 -6.22617 -1.11939 0
M  V30 53 C 3.1092 -6.60312 -0.976951 0
M  V30 54 H 2.3792 -0.570129 -0.473322 0
M  V30 55 H 5.0262 -1.81845 -0.600372 0
M  V30 56 H 3.3312 -2.31747 -3.15912 0
M  V30 57 H 5.0282 -2.67089 -2.99107 0
M  V30 58 H 1.6182 -3.75949 -2.05815 0
M  V30 59 H 5.8022 -4.66738 -1.68728 0
M  V30 60 H 1.0582 -5.99468 -1.202 0
M  V30 61 H 5.2322 -6.91318 -0.839811 0
M  V30 62 H 2.8592 -7.57895 -0.591501 0
M  V30 63 N 4.4343 0.785586 -1.36625 0
M  V30 64 C 5.3643 1.91259 -1.33949 0
M  V30 65 C 6.3453 1.68795 -0.210325 0
M  V30 66 O 7.5303 1.89854 -0.408561 0
M  V30 67 C 4.6603 3.28339 -1.13186 0
M  V30 68 C 3.6143 3.65335 -2.22967 0
M  V30 69 C 2.9403 5.00806 -1.87342 0
M  V30 70 C 4.2403 3.7352 -3.65075 0
M  V30 71 H 5.9343 1.93755 -2.28253 0
M  V30 72 H 3.4803 0.930788 -1.09874 0
M  V30 73 H 5.4333 4.06804 -1.09948 0
M  V30 74 H 4.1573 3.2624 -0.153332 0
M  V30 75 H 2.8163 2.89169 -2.25337 0
M  V30 76 H 2.4643 4.95233 -0.880545 0
M  V30 77 H 2.1643 5.26529 -2.60846 0
M  V30 78 H 3.6883 5.81687 -1.85667 0
M  V30 79 H 5.1023 4.42168 -3.64911 0
M  V30 80 H 3.4993 4.10731 -4.37516 0
M  V30 81 H 4.5693 2.74527 -3.99703 0
M  V30 82 N 5.9124 1.20967 1.01018 0
M  V30 83 C 7.1404 1.04956 1.78303 0
M  V30 84 C 7.5554 -0.400915 1.84494 0
M  V30 85 O 6.9124 -1.27826 1.30257 0
M  V30 86 C 6.9634 1.63403 3.22462 0
M  V30 87 O 6.6844 3.02775 3.16637 0
M  V30 88 C 8.1854 1.52432 4.16268 0
M  V30 89 H 5.4054 0.368858 0.560522 0
M  V30 90 H 7.9494 1.60193 1.27116 0
M  V30 91 H 6.1044 1.1227 3.70775 0
M  V30 92 H 6.5184 3.30626 4.07169 0
M  V30 93 H 7.9924 1.98078 5.15237 0
M  V30 94 H 8.4694 0.477875 4.36592 0
M  V30 95 H 9.0754 2.02787 3.73841 0
M  V30 96 N 7.3905 -1.2043 1.01659 0
M  V30 97 C 8.6185 -1.93777 0.725132 0
M  V30 98 C 9.0335 -1.74772 -0.714166 0
M  V30 99 O 8.3905 -1.06169 -1.4844 0
M  V30 100 C 8.4415 -3.45876 1.05129 0
M  V30 101 O 8.1625 -3.6426 2.43406 0
M  V30 102 C 9.6635 -4.36368 0.780891 0
M  V30 103 H 6.8835 -0.615901 0.266284 0
M  V30 104 H 9.4275 -1.52922 1.35776 0
M  V30 105 H 7.5825 -3.8461 0.464065 0
M  V30 106 H 7.9965 -4.58246 2.55169 0
M  V30 107 H 9.4705 -5.41743 1.05918 0
M  V30 108 H 9.9475 -4.38275 -0.284937 0
M  V30 109 H 10.5535 -4.03296 1.35027 0
M  V30 110 N 8.8686 -0.792821 -1.36206 0
M  V30 111 C 9.7986 -0.207853 -2.32573 0
M  V30 112 C 10.7796 0.659055 -1.56813 0
M  V30 113 O 11.9646 0.592176 -1.84951 0
M  V30 114 C 9.0946 0.655449 -3.41059 0
M  V30 115 C 8.0486 -0.111842 -4.27854 0
M  V30 116 C 7.3746 0.872274 -5.27537 0
M  V30 117 C 8.6746 -1.30299 -5.05786 0
M  V30 118 H 10.3686 -1.01294 -2.81744 0
M  V30 119 H 7.9146 -0.48854 -1.3546 0
M  V30 120 H 9.8676 1.07464 -4.07467 0
M  V30 121 H 8.5916 1.49328 -2.90463 0
M  V30 122 H 7.2506 -0.512053 -3.63006 0
M  V30 123 H 6.8986 1.70523 -4.73214 0
M  V30 124 H 6.5986 0.363291 -5.86476 0
M  V30 125 H 8.1226 1.28996 -5.96818 0
M  V30 126 H 9.5366 -0.959379 -5.65216 0
M  V30 127 H 7.9336 -1.7455 -5.74154 0
M  V30 128 H 9.0036 -2.09663 -4.37229 0
M  V30 129 N 10.3467 1.47872 -0.545128 0
M  V30 130 C 11.2767 2.32661 0.197793 0
M  V30 131 C 12.2577 1.43041 0.920504 0
M  V30 132 O 13.4427 1.71912 0.90333 0
M  V30 133 C 10.5727 3.24569 1.23582 0
M  V30 134 C 9.5267 4.23333 0.630323 0
M  V30 135 C 8.8527 5.0448 1.77211 0
M  V30 136 C 10.1527 5.20704 -0.407974 0
M  V30 137 H 11.8467 2.95024 -0.510045 0
M  V30 138 H 9.3927 1.4187 -0.246731 0
M  V30 139 H 11.3457 3.8272 1.76362 0
M  V30 140 H 10.0697 2.60236 1.97344 0
M  V30 141 H 8.7287 3.6639 0.123922 0
M  V30 142 H 8.3767 4.36561 2.49847 0
M  V30 143 H 8.0767 5.71339 1.37281 0
M  V30 144 H 9.6007 5.65487 2.3034 0
M  V30 145 H 11.0147 5.7329 0.033305 0
M  V30 146 H 9.4117 5.95699 -0.725486 0
M  V30 147 H 10.4817 4.66917 -1.30828 0
M  V30 148 N 11.8248 0.280983 1.55075 0
M  V30 149 C 12.7548 -0.597469 2.25727 0
M  V30 150 C 13.7358 -1.15417 1.24952 0
M  V30 151 O 14.9208 -1.18722 1.53684 0
M  V30 152 C 12.0508 -1.7789 2.98283 0
M  V30 153 C 11.0048 -1.35347 4.06036 0
M  V30 154 C 10.3308 -2.61846 4.66198 0
M  V30 155 C 11.6308 -0.499354 5.19907 0
M  V30 156 H 13.3248 -0.00824265 2.99399 0
M  V30 157 H 10.8708 -0.0025244 1.44 0
M  V30 158 H 12.8238 -2.39937 3.46422 0
M  V30 159 H 11.5478 -2.39405 2.22155 0
M  V30 160 H 10.2068 -0.756156 3.58717 0
M  V30 161 H 9.8548 -3.21632 3.86732 0
M  V30 162 H 9.5548 -2.3409 5.38958 0
M  V30 163 H 11.0788 -3.24732 5.1709 0
M  V30 164 H 12.4928 -1.02498 5.64063 0
M  V30 165 H 10.8898 -0.316424 5.99265 0
M  V30 166 H 11.9598 0.480459 4.82514 0
M  V30 167 N 13.3029 -1.57598 0.00835791 0
M  V30 168 C 14.5489 -1.92046 -0.670055 0
M  V30 169 C 14.9039 -0.88351 -1.70915 0
M  V30 170 O 14.1969 0.103223 -1.91322 0
M  V30 171 C 14.3909 -3.3101 -1.34787 0
M  V30 172 C 14.2199 -4.48126 -0.375945 0
M  V30 173 C 12.9899 -5.05297 0.0166914 0
M  V30 174 C 15.1879 -5.1303 0.361272 0
M  V30 175 N 13.1699 -6.05931 0.985952 0
M  V30 176 C 14.5409 -6.08571 1.18495 0
M  V30 177 C 16.5959 -4.9609 0.42421 0
M  V30 178 C 15.2989 -6.88996 2.06584 0
M  V30 179 C 17.3249 -5.77107 1.29236 0
M  V30 180 C 16.6869 -6.72248 2.10386 0
M  V30 181 H 12.7859 -0.75096 -0.218136 0
M  V30 182 H 15.3699 -1.94572 0.0706669 0
M  V30 183 H 13.5409 -3.29342 -2.05884 0
M  V30 184 H 15.2729 -3.52864 -1.98164 0
M  V30 185 H 12.0279 -4.72279 -0.353435 0
M  V30 186 H 12.4519 -6.60932 1.4662 0
M  V30 187 H 17.0939 -4.22378 -0.188915 0
M  V30 188 H 14.8119 -7.62028 2.6896 0
M  V30 189 H 18.3979 -5.66038 1.34508 0
M  V30 190 H 17.2779 -7.33846 2.76476 0
M  V30 191 N 14.781 0.264519 -1.55364 0
M  V30 192 C 16.027 0.99646 -1.76631 0
M  V30 193 C 16.36 1.85632 -0.570478 0
M  V30 194 O 15.635 1.89647 0.43175 0
M  V30 195 C 15.918 1.87187 -3.07625 0
M  V30 196 C 15.771 1.04138 -4.37579 0
M  V30 197 C 17.09 2.85749 -3.34717 0
M  V30 198 H 14.209 0.360841 -0.642622 0
M  V30 199 H 16.851 0.268218 -1.88097 0
M  V30 200 H 15.001 2.49279 -2.9798 0
M  V30 201 H 16.673 0.440517 -4.59192 0
M  V30 202 H 14.916 0.345115 -4.32425 0
M  V30 203 H 15.587 1.68729 -5.2558 0
M  V30 204 H 18.063 2.33793 -3.4421 0
M  V30 205 H 16.939 3.44136 -4.27623 0
M  V30 206 H 17.2 3.61311 -2.54768 0
M  V30 207 N 16.2591 1.48442 0.529413 0
M  V30 208 C 17.6701 1.5002 1.11134 0
M  V30 209 C 18.0211 0.27031 1.94329 0
M  V30 210 O 17.1461 -0.622507 2.07253 0
M  V30 211 C 17.7411 2.71834 2.02217 0
M  V30 212 C 16.3001 2.76283 2.55627 0
M  V30 213 C 15.4471 2.43542 1.326 0
M  V30 214 H 18.3981 1.5555 0.314641 0
M  V30 215 H 18.4191 2.50384 2.8651 0
M  V30 216 H 17.9311 3.61331 1.41639 0
M  V30 217 H 16.0321 1.90995 3.19924 0
M  V30 218 H 16.1451 3.77725 2.94721 0
M  V30 219 H 14.5091 1.94709 1.64196 0
M  V30 220 H 15.2921 3.3528 0.737734 0
M  V30 221 N 17.7372 -0.778329 1.37039 0
M  V30 222 C 18.9832 -1.53892 1.32079 0
M  V30 223 C 19.3162 -1.9396 -0.0965386 0
M  V30 224 O 18.5912 -1.63568 -1.05242 0
M  V30 225 C 18.8742 -2.80847 2.25382 0
M  V30 226 C 18.7272 -2.47076 3.75864 0
M  V30 227 C 20.0462 -3.82741 2.1725 0
M  V30 228 H 17.1652 -0.558303 0.48111 0
M  V30 229 H 19.8072 -0.893397 1.67685 0
M  V30 230 H 17.9572 -3.35931 1.95148 0
M  V30 231 H 19.6292 -1.97957 4.16666 0
M  V30 232 H 17.8722 -1.79863 3.94755 0
M  V30 233 H 18.5432 -3.37798 4.36574 0
M  V30 234 H 21.0192 -3.37133 2.43887 0
M  V30 235 H 19.8952 -4.69303 2.84686 0
M  V30 236 H 20.1562 -4.2652 1.16331 0
M  V30 237 N 19.2153 -1.21501 -1.00376 0
M  V30 238 C 20.4923 -0.941745 -1.71437 0
M  V30 239 C 20.8723 0.546114 -2.03914 0
M  V30 240 O 20.2203 1.51128 -1.71384 0
M  V30 241 C 20.4303 -1.82812 -2.97289 0
M  V30 242 C 21.7783 -2.07771 -3.70292 0
M  V30 243 O 22.8023 -1.80171 -3.07273 0
M  V30 244 O 21.6613 -2.54456 -4.83647 0
M  V30 245 H 18.7553 -0.353243 -0.747762 0
M  V30 246 H 21.3013 -1.32436 -1.06108 0
M  V30 247 H 20.0733 -2.83501 -2.69709 0
M  V30 248 H 19.6963 -1.4464 -3.70358 0
M  V30 249 N 20.6934 1.19889 -1.02296 0
M  V30 250 C 21.9414 1.89046 -0.714558 0
M  V30 251 C 22.2624 1.79636 0.758681 0
M  V30 252 O 21.5324 1.20292 1.54618 0
M  V30 253 H 20.1124 0.699802 -0.261317 0
M  V30 254 H 22.7744 1.45574 -1.29592 0
M  V30 255 H 21.8704 2.95524 -1.0036 0
M  V30 256 N 22.1715 0.800033 1.35784 0
M  V30 257 C 23.1035 0.163596 2.28615 0
M  V30 258 C 24.1165 -0.633317 1.49976 0
M  V30 259 O 25.3055 -0.466754 1.72289 0
M  V30 260 C 22.4055 -0.790958 3.29541 0
M  V30 261 C 21.5785 -0.0418255 4.3738 0
M  V30 262 C 20.6375 -0.91389 5.18203 0
M  V30 263 O 19.6635 -0.367234 5.68014 0
M  V30 264 N 20.8655 -2.23682 5.35674 0
M  V30 265 H 23.6305 0.96105 2.83873 0
M  V30 266 H 21.1915 0.654894 1.48063 0
M  V30 267 H 23.1835 -1.37844 3.80501 0
M  V30 268 H 21.7535 -1.48925 2.74846 0
M  V30 269 H 20.9735 0.726813 3.87442 0
M  V30 270 H 22.2615 0.474719 5.06581 0
M  V30 271 H 21.6595 -2.70497 4.96838 0
M  V30 272 H 20.2165 -2.77369 5.89839 0
M  V30 273 N 23.6496 -1.47581 0.552962 0
M  V30 274 C 24.8956 -2.02782 0.0273648 0
M  V30 275 C 25.2286 -1.42687 -1.31734 0
M  V30 276 O 24.5036 -0.580897 -1.85623 0
M  V30 277 C 24.7866 -3.60031 -0.0702371 0
M  V30 278 C 24.6396 -4.30566 1.30126 0
M  V30 279 C 25.9586 -4.33028 -0.785771 0
M  V30 280 H 23.0776 -0.736912 0.0114185 0
M  V30 281 H 25.7196 -1.76056 0.714432 0
M  V30 282 H 23.8696 -3.82932 -0.655382 0
M  V30 283 H 25.5416 -4.19018 1.92929 0
M  V30 284 H 23.7846 -3.91086 1.87709 0
M  V30 285 H 24.4556 -5.39114 1.18573 0
M  V30 286 H 26.9316 -4.15095 -0.288982 0
M  V30 287 H 25.8076 -5.42695 -0.823013 0
M  V30 288 H 26.0686 -4.01945 -1.841 0
M  V30 289 N 25.1277 -0.289203 -1.54924 0
M  V30 290 C 26.4047 0.376032 -1.91951 0
M  V30 291 C 26.7847 1.72622 -1.21511 0
M  V30 292 O 26.1327 2.25853 -0.346767 0
M  V30 293 C 26.3427 0.502378 -3.45365 0
M  V30 294 C 27.6907 0.778741 -4.17398 0
M  V30 295 O 28.7147 0.586647 -3.51336 0
M  V30 296 O 27.5737 1.14698 -5.34328 0
M  V30 297 H 24.6677 0.208167 -0.800372 0
M  V30 298 H 27.2137 -0.336394 -1.66332 0
M  V30 299 H 25.9857 -0.447255 -3.88736 0
M  V30 300 H 25.6087 1.26373 -3.76982 0
M  V30 301 N 26.6058 1.57591 -0.0167156 0
M  V30 302 C 27.8338 1.95575 0.675128 0
M  V30 303 C 28.2488 0.892542 1.6637 0
M  V30 304 O 27.6058 -0.126912 1.82058 0
M  V30 305 C 27.6568 3.33608 1.39239 0
M  V30 306 O 27.3778 4.3585 0.443444 0
M  V30 307 C 28.8788 3.86151 2.17721 0
M  V30 308 H 26.0988 0.644423 0.186978 0
M  V30 309 H 28.6428 2.0437 -0.0728 0
M  V30 310 H 26.7978 3.2607 2.09182 0
M  V30 311 H 27.2118 5.158 0.951358 0
M  V30 312 H 28.6858 4.85114 2.63379 0
M  V30 313 H 29.1628 3.19738 3.01105 0
M  V30 314 H 29.7688 3.96918 1.52761 0
M  V30 315 N 28.0839 -0.256276 1.55502 0
M  V30 316 C 29.3119 -1.00342 1.8094 0
M  V30 317 C 29.7269 -1.79307 0.59114 0
M  V30 318 O 29.0839 -1.77114 -0.440081 0
M  V30 319 C 29.1349 -1.94875 3.04476 0
M  V30 320 O 28.8559 -1.19107 4.21598 0
M  V30 321 C 30.3569 -2.81266 3.42644 0
M  V30 322 H 27.5769 -0.295685 0.602338 0
M  V30 323 H 30.1209 -0.281998 2.02546 0
M  V30 324 H 28.2759 -2.62457 2.84947 0
M  V30 325 H 28.6899 -1.82969 4.91551 0
M  V30 326 H 30.1639 -3.43362 4.32211 0
M  V30 327 H 30.6409 -3.51897 2.62802 0
M  V30 328 H 31.2469 -2.1915 3.64491 0
M  V30 329 N 29.562 -1.4872 -0.521534 0
M  V30 330 C 30.509 -1.63871 -1.62527 0
M  V30 331 C 31.479 -0.480559 -1.58996 0
M  V30 332 O 32.664 -0.705085 -1.77294 0
M  V30 333 C 29.804 -1.69227 -3.00759 0
M  V30 334 C 28.917 -2.96207 -3.14461 0
M  V30 335 C 28.052 -2.92671 -4.43303 0
M  V30 336 C 27.091 -4.14318 -4.50563 0
M  V30 337 N 26.228 -4.0881 -5.70805 0
M  V30 338 H 31.068 -2.58123 -1.48918 0
M  V30 339 H 28.605 -1.28 -0.724878 0
M  V30 340 H 30.563 -1.70314 -3.80853 0
M  V30 341 H 29.193 -0.784586 -3.1312 0
M  V30 342 H 28.245 -3.04826 -2.27564 0
M  V30 343 H 29.557 -3.86192 -3.15686 0
M  V30 344 H 28.711 -2.92206 -5.31696 0
M  V30 345 H 27.45 -2.00429 -4.44612 0
M  V30 346 H 26.455 -4.15049 -3.60575 0
M  V30 347 H 27.68 -5.07729 -4.50986 0
M  V30 348 H 25.626 -3.19394 -5.72995 0
M  V30 349 H 25.543 -4.92509 -5.7356 0
M  V30 350 H 26.811 -4.12418 -6.61462 0
M  V30 351 N 31.0401 0.771051 -1.3745 0
M  V30 352 C 32.0031 1.86598 -1.33093 0
M  V30 353 C 33.0031 1.59076 -0.234845 0
M  V30 354 O 34.1931 1.67145 -0.490732 0
M  V30 355 C 31.3251 3.23747 -1.06773 0
M  V30 356 H 32.5181 1.91873 -2.30488 0
M  V30 357 H 30.0711 0.970876 -1.2249 0
M  V30 358 H 30.8061 3.24148 -0.099129 0
M  V30 359 H 30.5911 3.45115 -1.86112 0
M  V30 360 H 32.0811 4.03824 -1.06377 0
M  V30 361 N 32.5182 1.22032 0.997298 0
M  V30 362 C 33.7642 1.04376 1.73878 0
M  V30 363 C 34.0972 -0.420716 1.89588 0
M  V30 364 O 33.3722 -1.31202 1.43583 0
M  V30 365 C 33.6552 1.75047 3.14691 0
M  V30 366 C 33.5082 3.29062 3.06656 0
M  V30 367 C 34.8272 1.49928 4.13775 0
M  V30 368 H 31.9462 0.380578 0.631133 0
M  V30 369 H 34.5882 1.50312 1.16217 0
M  V30 370 H 32.7382 1.35996 3.63919 0
M  V30 371 H 34.4102 3.7753 2.65083 0
M  V30 372 H 32.6532 3.58967 2.43568 0
M  V30 373 H 33.3242 3.73683 4.06282 0
M  V30 374 H 35.8002 1.83842 3.73285 0
M  V30 375 H 34.6762 2.01878 5.10428 0
M  V30 376 H 34.9372 0.430929 4.39995 0
M  V30 377 N 33.9963 -1.19345 1.0293 0
M  V30 378 C 35.2453 -1.88363 0.721256 0
M  V30 379 C 35.5583 -1.80514 -0.753254 0
M  V30 380 O 36.7643 -2.44788 -1.17436 0
M  V30 381 C 35.2203 -3.37872 1.23978 0
M  V30 382 C 34.8283 -3.54278 2.74211 0
M  V30 383 C 36.5723 -4.12365 1.00775 0
M  V30 384 C 34.4793 -4.97682 3.19479 0
M  V30 385 H 33.4093 -0.705484 0.266098 0
M  V30 386 H 36.0603 -1.34928 1.24365 0
M  V30 387 H 34.4423 -3.90707 0.6453 0
M  V30 388 H 35.6163 -3.11769 3.39318 0
M  V30 389 H 33.9313 -2.93174 2.95699 0
M  V30 390 H 36.5283 -5.18119 1.32123 0
M  V30 391 H 36.8713 -4.16263 -0.0554308 0
M  V30 392 H 37.4043 -3.65668 1.56625 0
M  V30 393 H 34.1433 -4.98945 4.25128 0
M  V30 394 H 33.6633 -5.4095 2.591 0
M  V30 395 H 35.3423 -5.66337 3.12845 0
M  V30 396 N 35.4744 -0.807222 -1.35358 0
M  V30 397 C 36.7024 -0.400377 -2.02989 0
M  V30 398 C 37.1174 0.988859 -1.60832 0
M  V30 399 O 36.4744 1.63729 -0.806175 0
M  V30 400 C 36.5254 -0.474867 -3.58368 0
M  V30 401 O 36.2464 -1.80933 -3.98992 0
M  V30 402 C 37.7474 -0.0609112 -4.43258 0
M  V30 403 H 34.9674 -0.162587 -0.651004 0
M  V30 404 H 37.5114 -1.09102 -1.72965 0
M  V30 405 H 35.6664 0.167534 -3.87038 0
M  V30 406 H 36.0804 -1.77256 -4.9364 0
M  V30 407 H 37.5544 -0.164145 -5.51756 0
M  V30 408 H 38.0314 0.993831 -4.27808 0
M  V30 409 H 38.6374 -0.676492 -4.19885 0
M  V30 410 N 36.9525 1.47285 -0.560781 0
M  V30 411 C 37.8825 2.32857 0.173105 0
M  V30 412 C 38.8635 1.44009 0.905281 0
M  V30 413 O 40.0485 1.7286 0.885046 0
M  V30 414 C 37.1785 3.25861 1.20133 0
M  V30 415 C 36.1325 4.23978 0.585388 0
M  V30 416 C 35.4585 5.06332 1.7185 0
M  V30 417 C 36.7585 5.20242 -0.463178 0
M  V30 418 H 38.4525 2.94466 -0.541307 0
M  V30 419 H 35.9985 1.41601 -0.261764 0
M  V30 420 H 37.9515 3.84569 1.72293 0
M  V30 421 H 36.6755 2.62315 1.94573 0
M  V30 422 H 35.3345 3.66501 0.085054 0
M  V30 423 H 34.9825 4.39186 2.45203 0
M  V30 424 H 34.6825 5.72762 1.31213 0
M  V30 425 H 36.2065 5.67899 2.24329 0
M  V30 426 H 37.6205 5.73293 -0.027502 0
M  V30 427 H 36.0175 5.94896 -0.788627 0
M  V30 428 H 37.0875 4.65504 -1.35773 0
M  V30 429 N 38.4306 0.297415 1.54768 0
M  V30 430 C 39.3626 -0.613881 2.20826 0
M  V30 431 C 40.3756 -1.10032 1.19987 0
M  V30 432 O 41.5646 -1.01839 1.46598 0
M  V30 433 C 38.6646 -1.852 2.83821 0
M  V30 434 C 37.8376 -1.50865 4.10559 0
M  V30 435 C 36.8966 -2.60154 4.57391 0
M  V30 436 O 35.9226 -2.25398 5.2267 0
M  V30 437 N 37.1246 -3.90629 4.29406 0
M  V30 438 H 39.8896 -0.048389 2.99661 0
M  V30 439 H 37.4506 0.11946 1.61459 0
M  V30 440 H 39.4426 -2.57652 3.12086 0
M  V30 441 H 38.0126 -2.32597 2.08847 0
M  V30 442 H 37.2326 -0.616925 3.89343 0
M  V30 443 H 38.5206 -1.25458 4.9309 0
M  V30 444 H 37.9186 -4.21677 3.77101 0
M  V30 445 H 36.4756 -4.59391 4.62388 0
M  V30 446 N 39.9087 -1.5758 0.0250728 0
M  V30 447 C 41.3197 -1.79476 -0.514323 0
M  V30 448 C 41.6707 -0.934956 -1.72491 0
M  V30 449 O 40.7957 -0.144245 -2.15919 0
M  V30 450 C 41.3907 -3.25503 -0.939842 0
M  V30 451 C 39.9497 -3.48408 -1.42438 0
M  V30 452 C 39.0967 -2.74583 -0.387201 0
M  V30 453 H 42.0477 -1.567 0.25113 0
M  V30 454 H 42.0687 -3.34992 -1.80445 0
M  V30 455 H 41.5807 -3.88056 -0.0585628 0
M  V30 456 H 39.6817 -2.91103 -2.32572 0
M  V30 457 H 39.7947 -4.57119 -1.43455 0
M  V30 458 H 38.1587 -2.39942 -0.854409 0
M  V30 459 H 38.9417 -3.39849 0.485543 0
M  V30 460 N 41.3868 0.248026 -1.55636 0
M  V30 461 C 42.7978 0.817177 -1.67866 0
M  V30 462 C 43.1488 1.86069 -0.622322 0
M  V30 463 O 42.2738 2.15157 0.231618 0
M  V30 464 C 42.8688 1.489 -3.04326 0
M  V30 465 C 41.4278 2.00587 -3.185 0
M  V30 466 C 40.5748 0.856573 -2.63739 0
M  V30 467 H 43.5258 0.0238579 -1.58682 0
M  V30 468 H 43.5468 2.35698 -2.98708 0
M  V30 469 H 43.0588 0.729279 -3.81186 0
M  V30 470 H 41.1598 2.79443 -2.4646 0
M  V30 471 H 41.2728 2.20402 -4.25393 0
M  V30 472 H 39.6368 1.25678 -2.21534 0
M  V30 473 H 40.4198 0.109953 -3.43124 0
M  V30 474 N 42.8649 1.48995 0.513639 0
M  V30 475 C 44.1109 1.59053 1.26783 0
M  V30 476 C 44.4659 0.268136 1.90522 0
M  V30 477 O 43.7589 -0.730534 1.77126 0
M  V30 478 C 43.9529 2.67756 2.36731 0
M  V30 479 C 43.7819 4.10437 1.83771 0
M  V30 480 C 42.5519 4.7738 1.65639 0
M  V30 481 C 44.7499 4.9608 1.35681 0
M  V30 482 N 42.7319 6.04419 1.07476 0
M  V30 483 C 44.1029 6.13496 0.895715 0
M  V30 484 C 46.1579 4.82177 1.24136 0
M  V30 485 C 44.8609 7.1854 0.3306 0
M  V30 486 C 46.8869 5.87358 0.690229 0
M  V30 487 C 46.2489 7.03993 0.239292 0
M  V30 488 H 42.3479 0.636463 0.454355 0
M  V30 489 H 44.9319 1.85948 0.577196 0
M  V30 490 H 43.1029 2.42655 3.03271 0
M  V30 491 H 44.8349 2.67406 3.0377 0
M  V30 492 H 41.5899 4.33974 1.8964 0
M  V30 493 H 42.0139 6.72214 0.803579 0
M  V30 494 H 46.6559 3.92329 1.57601 0
M  V30 495 H 44.3739 8.08098 -0.0163435 0
M  V30 496 H 47.9599 5.78658 0.603852 0
M  V30 497 H 46.8399 7.83992 -0.180526 0
M  V30 498 N 44.343 -0.763751 1.37857 0
M  V30 499 C 45.589 -1.52483 1.33704 0
M  V30 500 C 45.922 -1.94051 -0.0759612 0
M  V30 501 O 45.197 -1.64675 -1.03501 0
M  V30 502 C 45.48 -2.78441 2.28348 0
M  V30 503 C 45.333 -2.43075 3.78463 0
M  V30 504 C 46.652 -3.80415 2.21298 0
M  V30 505 H 43.771 -0.553169 0.487005 0
M  V30 506 H 46.413 -0.875562 1.68624 0
M  V30 507 H 44.563 -3.33842 1.987 0
M  V30 508 H 46.235 -1.93527 4.18742 0
M  V30 509 H 44.478 -1.75666 3.96641 0
M  V30 510 H 45.149 -3.33149 4.40132 0
M  V30 511 H 47.625 -3.34527 2.47449 0
M  V30 512 H 46.501 -4.66257 2.89647 0
M  V30 513 H 46.762 -4.25262 1.20849 0
M  V30 514 N 45.8211 -1.22559 -0.990812 0
M  V30 515 C 47.0461 -1.07862 -1.77145 0
M  V30 516 C 47.4711 0.366447 -1.84496 0
M  V30 517 O 46.8291 1.26478 -1.29896 0
M  V30 518 C 46.8771 -1.69686 -3.18181 0
M  V30 519 O 45.9811 -0.951946 -4.01263 0
M  V30 520 H 45.3221 -0.378712 -0.545411 0
M  V30 521 H 47.8521 -1.62399 -1.2445 0
M  V30 522 H 47.8621 -1.74496 -3.68802 0
M  V30 523 H 46.5371 -2.74841 -3.12146 0
M  V30 524 H 45.1141 -0.980011 -3.59792 0
M  V30 525 N 47.2992 1.18797 -1.03562 0
M  V30 526 C 48.5452 1.8893 -0.737113 0
M  V30 527 C 48.8782 1.79837 0.732956 0
M  V30 528 O 48.1532 1.19525 1.5344 0
M  V30 529 C 48.4362 3.39607 -1.19745 0
M  V30 530 C 48.2892 3.57537 -2.72924 0
M  V30 531 C 49.6082 4.33069 -0.783526 0
M  V30 532 H 46.7272 0.686057 -0.269249 0
M  V30 533 H 49.3692 1.39797 -1.28673 0
M  V30 534 H 47.5192 3.81583 -0.729855 0
M  V30 535 H 49.1912 3.24688 -3.27682 0
M  V30 536 H 47.4342 3.00363 -3.12993 0
M  V30 537 H 48.1052 4.63238 -3.00191 0
M  V30 538 H 50.5812 3.98846 -1.18581 0
M  V30 539 H 49.4572 5.3707 -1.13343 0
M  V30 540 H 49.7182 4.40986 0.313681 0
M  V30 541 N 48.7773 0.814389 1.34928 0
M  V30 542 C 50.0243 0.398423 1.98542 0
M  V30 543 C 50.3523 -1.03638 1.64589 0
M  V30 544 O 49.6073 -1.73509 0.90516 0
M  V30 545 C 49.9063 0.537781 3.53331 0
M  V30 546 C 49.5723 1.93704 4.07172 0
M  V30 547 C 48.2343 2.31984 4.21589 0
M  V30 548 C 50.5863 2.85213 4.36237 0
M  V30 549 C 47.9143 3.61125 4.62391 0
M  V30 550 C 50.2663 4.13809 4.78482 0
M  V30 551 C 48.9303 4.52077 4.91104 0
M  V30 552 H 48.2003 0.145793 0.726516 0
M  V30 553 H 50.8473 1.03669 1.61012 0
M  V30 554 H 49.1523 -0.183906 3.91368 0
M  V30 555 H 50.8493 0.196588 4.00518 0
M  V30 556 H 47.4393 1.62966 3.96409 0
M  V30 557 H 51.6233 2.56885 4.24645 0
M  V30 558 H 46.8793 3.90612 4.70353 0
M  V30 559 H 51.0533 4.84811 4.99932 0
M  V30 560 H 48.6803 5.52196 5.22478 0
M  V30 561 N 50.2554 -1.46986 0.568584 0
M  V30 562 C 51.1874 -2.28233 -0.210337 0
M  V30 563 C 52.2004 -1.37682 -0.868767 0
M  V30 564 O 53.3894 -1.62406 -0.740705 0
M  V30 565 C 50.4894 -3.12293 -1.3163 0
M  V30 566 C 49.6624 -4.30878 -0.7525 0
M  V30 567 C 48.7214 -4.96445 -1.74439 0
M  V30 568 O 47.7474 -5.54482 -1.286 0
M  V30 569 N 48.9494 -4.92171 -3.07812 0
M  V30 570 H 51.7144 -2.95723 0.486648 0
M  V30 571 H 49.2754 -1.56742 0.405409 0
M  V30 572 H 51.2674 -3.53022 -1.97883 0
M  V30 573 H 49.8374 -2.46971 -1.91636 0
M  V30 574 H 49.0574 -3.94104 0.0871128 0
M  V30 575 H 50.3454 -5.07558 -0.35536 0
M  V30 576 H 49.7434 -4.46239 -3.47688 0
M  V30 577 H 48.3004 -5.36884 -3.69592 0
M  V30 578 N 51.7335 -0.305618 -1.54608 0
M  V30 579 C 52.6435 0.57778 -2.27374 0
M  V30 580 C 53.6595 1.14451 -1.31061 0
M  V30 581 O 54.8355 1.16831 -1.6405 0
M  V30 582 C 51.9005 1.73123 -3.00382 0
M  V30 583 C 50.9615 1.19812 -4.12242 0
M  V30 584 C 50.1945 2.2966 -4.81759 0
M  V30 585 O 50.4175 3.49651 -4.50666 0
M  V30 586 O 49.3515 1.96091 -5.69062 0
M  V30 587 H 53.1775 -0.012624 -3.03697 0
M  V30 588 H 50.7625 -0.0719184 -1.49227 0
M  V30 589 H 52.6445 2.40315 -3.4616 0
M  V30 590 H 51.3195 2.30815 -2.26949 0
M  V30 591 H 50.2265 0.491798 -3.70853 0
M  V30 592 H 51.5595 0.666566 -4.87666 0
M  V30 593 N 53.2116 1.57565 -0.0334293 0
M  V30 594 C 54.1216 2.13943 0.962572 0
M  V30 595 C 55.1376 1.09276 1.35406 0
M  V30 596 O 56.3136 1.41355 1.4346 0
M  V30 597 C 53.3786 2.65887 2.22497 0
M  V30 598 C 52.4396 3.85286 1.8935 0
M  V30 599 C 51.6726 4.34743 3.09571 0
M  V30 600 O 51.8956 3.83352 4.22371 0
M  V30 601 O 50.8296 5.26538 2.91618 0
M  V30 602 H 54.6556 2.99333 0.513169 0
M  V30 603 H 52.2406 1.4822 0.18743 0
M  V30 604 H 54.1226 2.99346 2.96598 0
M  V30 605 H 52.7976 1.83578 2.6661 0
M  V30 606 H 51.7046 3.56746 1.1262 0
M  V30 607 H 53.0376 4.68771 1.5005 0
M  V30 608 N 54.6897 -0.239769 1.55765 0
M  V30 609 C 55.9177 -0.98417 1.81994 0
M  V30 610 C 56.3327 -1.7867 0.610124 0
M  V30 611 O 55.6897 -1.77571 -0.421271 0
M  V30 612 C 55.7407 -1.91635 3.06526 0
M  V30 613 O 55.4617 -1.14629 4.22838 0
M  V30 614 C 56.9627 -2.77616 3.45607 0
M  V30 615 H 54.1827 -0.28928 0.605441 0
M  V30 616 H 56.7267 -0.260499 2.02834 0
M  V30 617 H 54.8817 -2.5942 2.87715 0
M  V30 618 H 55.2957 -1.77745 4.93464 0
M  V30 619 H 56.7697 -3.38759 4.35828 0
M  V30 620 H 57.2467 -3.4909 2.6652 0
M  V30 621 H 57.8527 -2.15271 3.66795 0
M  V30 622 N 56.1678 -1.49265 -0.50573 0
M  V30 623 C 57.4138 -1.58748 -1.26202 0
M  V30 624 C 57.7468 -0.271227 -1.92297 0
M  V30 625 O 57.0218 0.724831 -1.80489 0
M  V30 626 C 57.3048 -2.74332 -2.33268 0
M  V30 627 C 57.1578 -4.15737 -1.71705 0
M  V30 628 C 58.4768 -2.85576 -3.34865 0
M  V30 629 H 55.5958 -0.577826 -0.457478 0
M  V30 630 H 58.2378 -1.81532 -0.560897 0
M  V30 631 H 56.3878 -2.55036 -2.93068 0
M  V30 632 H 58.0598 -4.46537 -1.15769 0
M  V30 633 H 56.3028 -4.21605 -1.02135 0
M  V30 634 H 56.9738 -4.92477 -2.49341 0
M  V30 635 H 59.4498 -3.03127 -2.8505 0
M  V30 636 H 58.3258 -3.68135 -4.07146 0
M  V30 637 H 58.5868 -1.94732 -3.96903 0
M  V30 638 N 57.6459 0.756429 -1.3826 0
M  V30 639 C 58.8739 1.54565 -1.3754 0
M  V30 640 C 59.2889 1.88767 0.0355331 0
M  V30 641 O 58.6459 1.52572 1.0014 0
M  V30 642 C 58.6969 2.84654 -2.22833 0
M  V30 643 O 58.4179 2.51912 -3.5843 0
M  V30 644 C 59.9189 3.78807 -2.30261 0
M  V30 645 H 57.1389 0.478353 -0.470553 0
M  V30 646 H 59.6829 0.936381 -1.81803 0
M  V30 647 H 57.8379 3.41965 -1.8204 0
M  V30 648 H 58.2519 3.35325 -4.03308 0
M  V30 649 H 59.7259 4.67045 -2.94233 0
M  V30 650 H 60.2029 4.19038 -1.31545 0
M  V30 651 H 60.8089 3.2742 -2.71433 0
M  V30 652 N 59.124 1.23083 0.984299 0
M  V30 653 C 60.054 1.03292 2.09411 0
M  V30 654 C 61.035 -0.048923 1.7003 0
M  V30 655 O 62.22 0.114967 1.93859 0
M  V30 656 C 59.35 0.619155 3.41736 0
M  V30 657 C 58.304 1.64791 3.95004 0
M  V30 658 C 57.63 1.0897 5.23478 0
M  V30 659 C 58.93 3.03999 4.24714 0
M  V30 660 H 60.624 1.96119 2.26225 0
M  V30 661 H 58.17 0.944344 1.08711 0
M  V30 662 H 60.123 0.467777 4.18796 0
M  V30 663 H 58.847 -0.344786 3.24775 0
M  V30 664 H 57.506 1.78721 3.20085 0
M  V30 665 H 57.154 0.11686 5.02864 0
M  V30 666 H 56.854 1.77704 5.60085 0
M  V30 667 H 58.378 0.950093 6.03163 0
M  V30 668 H 59.792 2.93393 4.92538 0
M  V30 669 H 58.189 3.69936 4.72512 0
M  V30 670 H 59.259 3.53285 3.32142 0
M  V30 671 N 60.6021 -1.18246 1.0419 0
M  V30 672 C 61.5521 -2.19843 0.604392 0
M  V30 673 C 62.5361 -1.56962 -0.353814 0
M  V30 674 O 63.7281 -1.76156 -0.17267 0
M  V30 675 C 60.8571 -3.43287 -0.0298975 0
M  V30 676 C 59.9431 -4.13288 0.951531 0
M  V30 677 N 60.3341 -4.59271 2.11906 0
M  V30 678 C 58.6321 -4.39165 0.7778 0
M  V30 679 C 59.3331 -5.13173 2.73912 0
M  V30 680 N 58.3091 -5.04763 2.01779 0
M  V30 681 H 62.1111 -2.53089 1.4941 0
M  V30 682 H 59.6251 -1.34465 0.910658 0
M  V30 683 H 61.6221 -4.15334 -0.361037 0
M  V30 684 H 60.2821 -3.11537 -0.915127 0
M  V30 685 H 61.2931 -4.5368 2.49789 0
M  V30 686 H 57.9701 -4.17461 -0.0572331 0
M  V30 687 H 59.3601 -5.58947 3.72864 0
M  V30 688 N 62.0802 -0.821533 -1.34494 0
M  V30 689 C 63.3202 -0.414785 -2.00147 0
M  V30 690 C 63.6842 1.00299 -1.6372 0
M  V30 691 O 64.8852 1.51255 -2.22206 0
M  V30 692 C 63.1562 -0.609403 -3.52166 0
M  V30 693 S 64.7152 -0.295297 -4.37805 0
M  V30 694 H 61.5332 -0.15679 -0.693497 0
M  V30 695 H 64.1352 -1.06705 -1.63812 0
M  V30 696 H 62.8392 -1.64096 -3.76166 0
M  V30 697 H 62.3702 0.0576414 -3.93358 0
M  V30 698 H 64.3852 0.891531 -4.88125 0
M  V30 699 N 63.5583 1.46682 -0.576371 0
M  V30 700 C 64.4683 2.34032 0.163141 0
M  V30 701 C 65.4843 1.49367 0.892501 0
M  V30 702 O 66.6603 1.82252 0.857106 0
M  V30 703 C 63.7253 3.26435 1.16795 0
M  V30 704 C 62.7863 4.26998 0.443944 0
M  V30 705 C 62.0193 5.14986 1.40088 0
M  V30 706 O 62.2423 5.05785 2.637 0
M  V30 707 O 61.1763 5.94906 0.914917 0
M  V30 708 H 65.0023 2.98607 -0.55388 0
M  V30 709 H 62.5873 1.45554 -0.336821 0
M  V30 710 H 64.4693 3.83459 1.74748 0
M  V30 711 H 63.1443 2.64465 1.86655 0
M  V30 712 H 62.0513 3.7368 -0.177271 0
M  V30 713 H 63.3843 4.91736 -0.213566 0
M  V30 714 N 65.0364 0.313813 1.54444 0
M  V30 715 C 66.2824 -0.292108 2.00685 0
M  V30 716 C 66.6154 -1.52548 1.20177 0
M  V30 717 O 65.8904 -1.92452 0.281531 0
M  V30 718 C 66.1734 -0.635968 3.5444 0
M  V30 719 C 66.0264 0.607437 4.4568 0
M  V30 720 C 67.3454 -1.45747 4.15266 0
M  V30 721 H 64.4644 -0.104697 0.729526 0
M  V30 722 H 67.1064 0.428457 1.85106 0
M  V30 723 H 65.2564 -1.24986 3.67846 0
M  V30 724 H 66.9284 1.24581 4.44159 0
M  V30 725 H 65.1714 1.23822 4.15753 0
M  V30 726 H 65.8424 0.322515 5.51057 0
M  V30 727 H 68.3184 -0.938645 4.05375 0
M  V30 728 H 67.1944 -1.66683 5.2298 0
M  V30 729 H 67.4554 -2.45063 3.67963 0
M  V30 730 N 66.5145 -1.57545 0.0417849 0
M  V30 731 C 67.4445 -2.14009 -0.933929 0
M  V30 732 C 68.4255 -1.05938 -1.33083 0
M  V30 733 O 69.6105 -1.33833 -1.40721 0
M  V30 734 C 66.7405 -2.67747 -2.21199 0
M  V30 735 C 65.6945 -3.80718 -1.95544 0
M  V30 736 C 65.0205 -4.20935 -3.29724 0
M  V30 737 C 66.3205 -5.06258 -1.28452 0
M  V30 738 H 68.0145 -2.95788 -0.463645 0
M  V30 739 H 65.5605 -1.42285 -0.221573 0
M  V30 740 H 67.5135 -3.05886 -2.89848 0
M  V30 741 H 66.2375 -1.83147 -2.70416 0
M  V30 742 H 64.8965 -3.43037 -1.2931 0
M  V30 743 H 64.5445 -3.33298 -3.76724 0
M  V30 744 H 64.2445 -4.9707 -3.13361 0
M  V30 745 H 65.7685 -4.61666 -3.9962 0
M  V30 746 H 67.1825 -5.41903 -1.8712 0
M  V30 747 H 65.5795 -5.87475 -1.22445 0
M  V30 748 H 66.6495 -4.84207 -0.259219 0
M  V30 749 N 67.9926 0.231505 -1.5589 0
M  V30 750 C 68.9426 1.29007 -1.87993 0
M  V30 751 C 69.9266 1.42764 -0.742102 0
M  V30 752 O 71.1186 1.45747 -1.00433 0
M  V30 753 C 68.2476 2.6425 -2.1915 0
M  V30 754 C 67.3336 2.54435 -3.39299 0
M  V30 755 N 67.7246 2.14262 -4.58176 0
M  V30 756 C 66.0226 2.85416 -3.42715 0
M  V30 757 C 66.7236 2.15455 -5.40328 0
M  V30 758 N 65.6996 2.55558 -4.79783 0
M  V30 759 H 69.5016 0.970213 -2.77424 0
M  V30 760 H 67.0156 0.440097 -1.56323 0
M  V30 761 H 69.0126 3.40665 -2.40319 0
M  V30 762 H 67.6726 2.9709 -1.31025 0
M  V30 763 H 68.6836 1.85554 -4.83518 0
M  V30 764 H 65.3606 3.22693 -2.64906 0
M  V30 765 H 66.7506 1.86605 -6.45467 0
M  V30 766 N 69.4707 1.49531 0.497807 0
M  V30 767 C 70.4007 1.6935 1.60757 0
M  V30 768 C 71.3817 0.542218 1.61227 0
M  V30 769 O 72.5667 0.778417 1.77917 0
M  V30 770 C 69.6967 1.76298 2.99226 0
M  V30 771 C 68.6507 2.91248 3.13622 0
M  V30 772 C 67.9767 2.83312 4.53474 0
M  V30 773 C 69.2767 4.3214 2.93346 0
M  V30 774 H 70.9707 2.62263 1.44425 0
M  V30 775 H 68.5167 1.26208 0.693367 0
M  V30 776 H 70.4697 1.88749 3.76765 0
M  V30 777 H 69.1937 0.799871 3.16654 0
M  V30 778 H 67.8527 2.78404 2.38509 0
M  V30 779 H 67.5007 1.84902 4.67782 0
M  V30 780 H 67.2007 3.60465 4.64046 0
M  V30 781 H 68.7247 2.97775 5.33069 0
M  V30 782 H 70.1387 4.45649 3.60652 0
M  V30 783 H 68.5357 5.1054 3.15387 0
M  V30 784 H 69.6057 4.46363 1.89441 0
M  V30 785 N 70.9488 -0.749086 1.3866 0
M  V30 786 C 72.3598 -1.32664 1.31366 0
M  V30 787 C 72.7108 -1.96179 -0.028484 0
M  V30 788 O 71.8358 -1.9537 -0.93057 0
M  V30 789 C 72.4308 -2.41219 2.37905 0
M  V30 790 C 70.9898 -2.94684 2.34176 0
M  V30 791 C 70.1368 -1.68108 2.20533 0
M  V30 792 H 73.0878 -0.547628 1.48952 0
M  V30 793 H 73.1088 -3.21268 2.0388 0
M  V30 794 H 72.6208 -1.94962 3.35576 0
M  V30 795 H 70.7218 -3.45258 1.401 0
M  V30 796 H 70.8348 -3.48757 3.2849 0
M  V30 797 H 69.1988 -1.91907 1.67463 0
M  V30 798 H 69.9818 -1.23923 3.20153 0
M  V30 799 N 72.4269 -1.23603 -0.977757 0
M  V30 800 C 73.6749 -1.06759 -1.71601 0
M  V30 801 C 73.9959 0.395929 -1.90938 0
M  V30 802 O 73.2659 1.28356 -1.47992 0
M  V30 803 H 71.8459 -0.392062 -0.635843 0
M  V30 804 H 74.5079 -1.55362 -1.1768 0
M  V30 805 H 73.6039 -1.55763 -2.70452 0
M  V30 806 N 73.905 1.17692 -1.04816 0
M  V30 807 C 75.13 1.92327 -0.776207 0
M  V30 808 C 75.555 1.76082 0.661581 0
M  V30 809 O 74.913 1.076 1.45917 0
M  V30 810 C 74.961 3.41539 -1.15687 0
M  V30 811 O 74.065 4.11402 -0.286775 0
M  V30 812 H 73.406 0.599735 -0.284981 0
M  V30 813 H 75.936 1.49201 -1.4 0
M  V30 814 H 75.946 3.92269 -1.12202 0
M  V30 815 H 74.621 3.52684 -2.20425 0
M  V30 816 H 73.198 3.70939 -0.381903 0
M  V30 817 N 75.3831 0.828654 1.34056 0
M  V30 818 C 76.6081 0.431637 2.02859 0
M  V30 819 C 77.0331 -0.956339 1.61975 0
M  V30 820 O 76.3911 -1.62338 0.807228 0
M  V30 821 C 76.4391 0.548323 3.56407 0
M  V30 822 O 75.5431 -0.429556 4.10157 0
M  V30 823 H 74.8841 0.176886 0.640006 0
M  V30 824 H 77.4141 1.12066 1.71179 0
M  V30 825 H 77.4241 0.426196 4.05768 0
M  V30 826 H 76.0991 1.5606 3.8551 0
M  V30 827 H 74.6761 -0.265836 3.71951 0
M  V30 828 N 76.8612 -1.46375 0.584142 0
M  V30 829 C 78.0862 -2.07268 0.0740405 0
M  V30 830 C 78.5112 -1.42979 -1.22223 0
M  V30 831 O 77.8692 -0.514092 -1.73859 0
M  V30 832 C 77.9172 -3.60518 -0.0767769 0
M  V30 833 O 77.0212 -3.96533 -1.13292 0
M  V30 834 H 76.3622 -0.660961 0.0634524 0
M  V30 835 H 78.8922 -1.87991 0.807492 0
M  V30 836 H 78.9022 -4.07021 -0.282489 0
M  V30 837 H 77.5772 -4.06702 0.86986 0
M  V30 838 H 76.1542 -3.61738 -0.905553 0
M  V30 839 N 78.3393 -0.321999 -1.54275 0
M  V30 840 C 79.5673 0.283052 -2.04955 0
M  V30 841 C 79.9823 1.45904 -1.19823 0
M  V30 842 O 79.3393 1.81063 -0.228545 0
M  V30 843 C 79.3903 0.719028 -3.54277 0
M  V30 844 O 79.1113 -0.410175 -4.36176 0
M  V30 845 C 80.6123 1.38705 -4.21041 0
M  V30 846 H 77.8323 0.0584616 -0.668448 0
M  V30 847 H 80.3763 -0.467734 -1.99079 0
M  V30 848 H 78.5313 1.41979 -3.60445 0
M  V30 849 H 78.9453 -0.0669416 -5.24457 0
M  V30 850 H 80.4193 1.64306 -5.2698 0
M  V30 851 H 80.8963 2.33385 -3.72059 0
M  V30 852 H 81.5023 0.728906 -4.19007 0
M  V30 853 N 79.8174 1.5752 -0.0501392 0
M  V30 854 C 80.7494 2.08413 0.95376 0
M  V30 855 C 81.7624 1.01175 1.27544 0
M  V30 856 O 82.9514 1.28744 1.23641 0
M  V30 857 C 80.0514 2.51138 2.27559 0
M  V30 858 C 79.2244 3.817 2.13598 0
M  V30 859 C 78.2834 4.10749 3.28895 0
M  V30 860 O 77.3094 4.80685 3.04845 0
M  V30 861 N 78.5114 3.62579 4.5334 0
M  V30 862 H 81.2764 2.95165 0.519383 0
M  V30 863 H 78.8374 1.61327 0.136127 0
M  V30 864 H 80.8294 2.67648 3.03557 0
M  V30 865 H 79.3994 1.6964 2.62567 0
M  V30 866 H 78.6194 3.74782 1.22197 0
M  V30 867 H 79.9074 4.67201 2.01496 0
M  V30 868 H 79.3054 3.06039 4.75769 0
M  V30 869 H 77.8624 3.84329 5.26436 0
M  V30 870 N 81.2955 -0.223234 1.56011 0
M  V30 871 C 82.5415 -0.944891 1.8012 0
M  V30 872 C 82.8965 -1.82039 0.622862 0
M  V30 873 O 82.1895 -1.8773 -0.383143 0
M  V30 874 C 82.3835 -1.81948 3.0762 0
M  V30 875 C 82.2125 -1.03014 4.37742 0
M  V30 876 C 80.9825 -0.72574 5.00061 0
M  V30 877 C 83.1805 -0.396256 5.12771 0
M  V30 878 N 81.1625 0.0851816 6.13841 0
M  V30 879 C 82.5335 0.278137 6.19376 0
M  V30 880 C 84.5885 -0.309117 4.9694 0
M  V30 881 C 83.2915 1.03133 7.11868 0
M  V30 882 C 85.3175 0.430607 5.8983 0
M  V30 883 C 84.6795 1.09355 6.9586 0
M  V30 884 H 80.7785 -0.326081 0.710771 0
M  V30 885 H 83.3625 -0.215914 1.93499 0
M  V30 886 H 81.5335 -2.52029 2.95527 0
M  V30 887 H 83.2655 -2.47848 3.19927 0
M  V30 888 H 80.0205 -1.04335 4.61964 0
M  V30 889 H 80.4445 0.479428 6.753 0
M  V30 890 H 85.0865 -0.807313 4.15021 0
M  V30 891 H 82.8045 1.54105 7.9327 0
M  V30 892 H 86.3905 0.499012 5.79656 0
M  V30 893 H 85.2705 1.65679 7.66499 0
M  V30 894 N 82.7736 -1.49793 -0.48987 0
M  V30 895 C 84.0206 -1.59841 -1.24327 0
M  V30 896 C 84.3486 -0.290135 -1.92324 0
M  V30 897 O 83.6036 0.722749 -1.81865 0
M  V30 898 C 83.9026 -2.71488 -2.32441 0
M  V30 899 C 83.5686 -4.12614 -1.81826 0
M  V30 900 C 82.2306 -4.51017 -1.67742 0
M  V30 901 C 84.5826 -5.00892 -1.4407 0
M  V30 902 C 81.9106 -5.75459 -1.14297 0
M  V30 903 C 84.2626 -6.25863 -0.920742 0
M  V30 904 C 82.9266 -6.63086 -0.766383 0
M  V30 905 H 82.1966 -0.584899 -0.454944 0
M  V30 906 H 84.8436 -1.83663 -0.542215 0
M  V30 907 H 83.1486 -2.4168 -3.0838 0
M  V30 908 H 84.8456 -2.76469 -2.90458 0
M  V30 909 H 81.4356 -3.82307 -1.93751 0
M  V30 910 H 85.6196 -4.7187 -1.53794 0
M  V30 911 H 80.8756 -6.02989 -1.01068 0
M  V30 912 H 85.0496 -6.9364 -0.619448 0
M  V30 913 H 82.6766 -7.59393 -0.350083 0
M  V30 914 N 84.2517 0.741722 -1.39055 0
M  V30 915 C 85.1817 1.869 -1.39966 0
M  V30 916 C 86.1627 1.6804 -0.26392 0
M  V30 917 O 87.3477 1.88458 -0.468755 0
M  V30 918 C 84.4777 3.24572 -1.23574 0
M  V30 919 C 83.4317 3.58056 -2.34477 0
M  V30 920 C 82.7577 4.94593 -2.0318 0
M  V30 921 C 84.0577 3.61716 -3.76774 0
M  V30 922 H 85.7517 1.86395 -2.34302 0
M  V30 923 H 83.2977 0.895361 -1.1278 0
M  V30 924 H 85.2507 4.031 -1.22834 0
M  V30 925 H 83.9747 3.25587 -0.257045 0
M  V30 926 H 82.6337 2.81854 -2.34423 0
M  V30 927 H 82.2817 4.92181 -1.03765 0
M  V30 928 H 81.9817 5.17964 -2.77465 0
M  V30 929 H 83.5057 5.75486 -2.04079 0
M  V30 930 H 84.9197 4.30335 -3.78794 0
M  V30 931 H 83.3167 3.96603 -4.50362 0
M  V30 932 H 84.3867 2.61672 -4.08235 0
M  V30 933 N 85.7298 1.2412 0.971189 0
M  V30 934 C 86.6778 1.02812 2.08644 0
M  V30 935 C 87.6718 -0.0358403 1.69362 0
M  V30 936 O 88.8778 0.118429 1.7961 0
M  V30 937 H 85.2528 0.315428 0.682649 0
M  V30 938 H 87.2238 1.97397 2.23779 0
M  V30 939 C 85.9728 0.645874 3.41649 0
M  V30 940 H 85.2958 1.45632 3.72332 0
M  V30 941 H 86.7358 0.536366 4.20594 0
M  V30 942 C 85.1948 -0.646713 3.30635 0
M  V30 943 O 85.7248 -1.69338 3.64263 0
M  V30 944 N 83.9308 -0.626115 2.83775 0
M  V30 945 H 83.4778 0.225988 2.56607 0
M  V30 946 H 83.4358 -1.49117 2.76788 0
M  V30 947 N 87.2079 -1.17134 1.05439 0
M  V30 948 C 88.4559 -1.87085 0.764429 0
M  V30 949 C 88.7769 -1.81584 -0.710787 0
M  V30 950 O 88.0469 -1.24349 -1.51374 0
M  V30 951 H 86.6269 -0.692627 0.279779 0
M  V30 952 H 89.2889 -1.42087 1.33406 0
M  V30 953 H 88.3849 -2.92759 1.0816 0
M  V30 954 N 88.686 -0.835752 -1.33615 0
M  V30 955 C 89.914 -0.443344 -2.02094 0
M  V30 956 C 90.329 0.954522 -1.62894 0
M  V30 957 O 89.686 1.61982 -0.840723 0
M  V30 958 C 89.737 -0.550775 -3.5728 0
M  V30 959 O 89.458 -1.89356 -3.95065 0
M  V30 960 C 90.959 -0.154919 -4.43029 0
M  V30 961 H 88.179 -0.176359 -0.647409 0
M  V30 962 H 90.723 -1.12746 -1.70612 0
M  V30 963 H 88.878 0.0853997 -3.87306 0
M  V30 964 H 89.292 -1.87687 -4.89769 0
M  V30 965 H 90.766 -0.281144 -5.51284 0
M  V30 966 H 91.243 0.902863 -4.2982 0
M  V30 967 H 91.849 -0.765404 -4.18356 0
M  V30 968 N 90.1641 1.46063 -0.591896 0
M  V30 969 C 91.1271 2.28854 0.125973 0
M  V30 970 C 92.1271 1.38903 0.810107 0
M  V30 971 O 93.3171 1.61186 0.66066 0
M  V30 972 C 90.4491 3.19526 1.1881 0
M  V30 973 H 91.6421 2.93802 -0.601717 0
M  V30 974 H 89.1951 1.52325 -0.350254 0
M  V30 975 H 89.9301 2.59345 1.94707 0
M  V30 976 H 89.7151 3.85766 0.701936 0
M  V30 977 H 91.2051 3.81817 1.69132 0
M  V30 978 N 91.6422 0.330177 1.54103 0
M  V30 979 C 92.8702 -0.272179 2.05102 0
M  V30 980 C 93.2852 -1.45267 1.20595 0
M  V30 981 O 92.6422 -1.8094 0.238144 0
M  V30 982 C 92.6932 -0.70023 3.54653 0
M  V30 983 O 92.4142 0.433301 4.35952 0
M  V30 984 C 93.9152 -1.3647 4.21771 0
M  V30 985 H 91.1352 -0.0549159 0.668749 0
M  V30 986 H 93.6792 0.478285 1.98828 0
M  V30 987 H 91.8342 -1.40066 3.61193 0
M  V30 988 H 92.2482 0.0947539 5.24414 0
M  V30 989 H 93.7222 -1.61509 5.27843 0
M  V30 990 H 94.1992 -2.31409 3.73292 0
M  V30 991 H 94.8052 -0.706675 4.19388 0
M  V30 992 N 93.1203 -1.57491 0.0584922 0
M  V30 993 C 94.0523 -2.08916 -0.942694 0
M  V30 994 C 95.0653 -1.0185 -1.27006 0
M  V30 995 O 96.2543 -1.29398 -1.22957 0
M  V30 996 C 93.3543 -2.52341 -2.26224 0
M  V30 997 C 92.5273 -3.82827 -2.1157 0
M  V30 998 C 91.5863 -4.12487 -3.26712 0
M  V30 999 O 90.6123 -4.82295 -3.02292 0
M  V30 1000 N 91.8143 -3.64978 -4.5141 0
M  V30 1001 H 94.5793 -2.95437 -0.503722 0
M  V30 1002 H 92.1403 -1.61397 -0.12757 0
M  V30 1003 H 94.1323 -2.69254 -3.02133 0
M  V30 1004 H 92.7023 -1.7103 -2.61663 0
M  V30 1005 H 91.9223 -3.75425 -1.20208 0
M  V30 1006 H 93.2103 -4.68263 -1.99015 0
M  V30 1007 H 92.6083 -3.08558 -4.7414 0
M  V30 1008 H 91.1653 -3.87115 -5.2439 0
M  V30 1009 N 94.5984 0.214957 -1.56127 0
M  V30 1010 C 95.8264 0.955092 -1.83536 0
M  V30 1011 C 96.2414 1.77677 -0.638472 0
M  V30 1012 O 95.5984 1.78219 0.392968 0
M  V30 1013 C 95.6494 1.86734 -3.09536 0
M  V30 1014 O 95.3704 1.07887 -4.24608 0
M  V30 1015 C 96.8714 2.72082 -3.4998 0
M  V30 1016 H 94.0914 0.279611 -0.609966 0
M  V30 1017 H 96.6354 0.228197 -2.03223 0
M  V30 1018 H 94.7904 2.5481 -2.91806 0
M  V30 1019 H 95.2044 1.69872 -4.9623 0
M  V30 1020 H 96.6784 3.31782 -4.41163 0
M  V30 1021 H 97.1554 3.44806 -2.7204 0
M  V30 1022 H 97.7614 2.09409 -3.70173 0
M  V30 1023 N 96.0765 1.50051 0.48192 0
M  V30 1024 C 97.3015 1.64508 1.26301 0
M  V30 1025 C 97.7265 0.323851 1.85291 0
M  V30 1026 O 97.0845 -0.710969 1.66778 0
M  V30 1027 C 97.1325 2.7305 2.35533 0
M  V30 1028 O 96.2365 2.3355 3.39895 0
M  V30 1029 H 95.5775 0.549978 0.372048 0
M  V30 1030 H 98.1075 1.9636 0.574786 0
M  V30 1031 H 98.1175 2.95799 2.8101 0
M  V30 1032 H 96.7925 3.68946 1.91967 0
M  V30 1033 H 95.3695 2.21205 3.00204 0
M  V30 1034 N 97.5546 -0.734337 1.39446 0
M  V30 1035 C 98.7826 -1.52358 1.39981 0
M  V30 1036 C 99.1976 -1.88799 -0.0054975 0
M  V30 1037 O 98.5546 -1.54146 -0.976998 0
M  V30 1038 C 98.6056 -2.81072 2.27333 0
M  V30 1039 O 98.3266 -2.46178 3.62392 0
M  V30 1040 C 99.8276 -3.75096 2.36259 0
M  V30 1041 H 97.0476 -0.470806 0.478103 0
M  V30 1042 H 99.5916 -0.907339 1.83269 0
M  V30 1043 H 97.7466 -3.39026 1.87457 0
M  V30 1044 H 98.1606 -3.28866 4.08592 0
M  V30 1045 H 99.6346 -4.62305 3.01626 0
M  V30 1046 H 100.112 -4.16892 1.38194 0
M  V30 1047 H 100.718 -3.23061 2.76608 0
M  V30 1048 N 99.0327 -1.24633 -0.964593 0
M  V30 1049 C 100.444 -1.08045 -1.5226 0
M  V30 1050 C 100.795 0.347116 -1.93105 0
M  V30 1051 O 99.9197 1.23588 -1.77637 0
M  V30 1052 C 100.515 -1.95514 -2.76695 0
M  V30 1053 C 99.0737 -1.8314 -3.28841 0
M  V30 1054 C 98.2207 -1.90262 -2.01732 0
M  V30 1055 H 101.172 -1.38064 -0.782553 0
M  V30 1056 H 101.193 -1.48925 -3.50145 0
M  V30 1057 H 100.705 -2.99407 -2.46936 0
M  V30 1058 H 98.8057 -0.82092 -3.63444 0
M  V30 1059 H 98.9187 -2.67406 -3.97531 0
M  V30 1060 H 97.2827 -1.34027 -2.16584 0
M  V30 1061 H 98.0657 -2.9574 -1.74334 0
M  V30 1062 N 100.511 1.16574 -1.06058 0
M  V30 1063 C 101.736 1.91493 -0.796562 0
M  V30 1064 C 102.161 1.76773 0.642868 0
M  V30 1065 O 101.519 1.09142 1.44768 0
M  V30 1066 C 101.567 3.40293 -1.19303 0
M  V30 1067 O 100.671 4.11074 -0.330394 0
M  V30 1068 H 100.012 0.596678 -0.291326 0
M  V30 1069 H 102.542 1.47708 -1.41575 0
M  V30 1070 H 102.552 3.91057 -1.16356 0
M  V30 1071 H 101.227 3.50326 -2.24153 0
M  V30 1072 H 99.8038 3.70513 -0.421225 0
M  V30 1073 N 101.989 0.842826 1.3317 0
M  V30 1074 C 103.219 0.453397 2.01564 0
M  V30 1075 C 103.627 -0.951147 1.63554 0
M  V30 1076 O 102.97 -1.63021 0.846746 0
M  V30 1077 C 103.032 0.499013 3.5602 0
M  V30 1078 C 102.696 1.86037 4.1742 0
M  V30 1079 C 103.693 2.82416 4.36506 0
M  V30 1080 C 101.378 2.15428 4.53757 0
M  V30 1081 C 103.372 4.06346 4.91082 0
M  V30 1082 C 101.059 3.39615 5.0804 0
M  V30 1083 C 102.057 4.3489 5.26649 0
M  V30 1084 O 101.745 5.5688 5.79776 0
M  V30 1085 H 101.477 0.177871 0.652179 0
M  V30 1086 H 104.031 1.13808 1.70988 0
M  V30 1087 H 102.261 -0.242467 3.85939 0
M  V30 1088 H 103.95 0.126852 4.05702 0
M  V30 1089 H 104.716 2.6101 4.08777 0
M  V30 1090 H 100.595 1.42061 4.38565 0
M  V30 1091 H 104.139 4.80722 5.05522 0
M  V30 1092 H 100.036 3.60876 5.352 0
M  V30 1093 H 100.804 5.58674 5.98185 0
M  V30 1094 N 103.467 -1.45747 0.599634 0
M  V30 1095 C 104.883 -1.57424 0.26264 0
M  V30 1096 C 105.083 -1.59222 -1.23493 0
M  V30 1097 O 104.139 -1.51825 -2.01756 0
M  V30 1098 C 105.452 -2.86061 0.926795 0
M  V30 1099 C 107 -2.99722 0.901967 0
M  V30 1100 C 107.475 -4.31119 1.54598 0
M  V30 1101 N 108.966 -4.37858 1.5111 0
M  V30 1102 C 109.701 -5.3818 1.97863 0
M  V30 1103 N 109.197 -6.45083 2.52666 0
M  V30 1104 N 110.99 -5.29487 1.88679 0
M  V30 1105 H 103.141 -1.42823 1.57211 0
M  V30 1106 H 105.404 -0.68235 0.658105 0
M  V30 1107 H 105.11 -2.90605 1.98095 0
M  V30 1108 H 104.984 -3.74563 0.445238 0
M  V30 1109 H 107.371 -2.9475 -0.143617 0
M  V30 1110 H 107.452 -2.12652 1.42171 0
M  V30 1111 H 107.096 -4.36849 2.59085 0
M  V30 1112 H 107.026 -5.16992 1.00132 0
M  V30 1113 H 109.517 -3.61209 1.11068 0
M  V30 1114 H 109.83 -7.17869 2.86155 0
M  V30 1115 H 108.175 -6.45856 2.56701 0
M  V30 1116 H 111.366 -4.44877 1.4561 0
M  V30 1117 H 111.539 -6.07524 2.25429 0
M  V30 1118 N 104.945 -0.338344 -1.53925 0
M  V30 1119 C 106.194 0.260732 -2.00008 0
M  V30 1120 C 106.507 1.52073 -1.23017 0
M  V30 1121 O 107.713 2.19672 -1.5955 0
M  V30 1122 C 106.169 0.51515 -3.56194 0
M  V30 1123 C 105.777 -0.728645 -4.42035 0
M  V30 1124 C 107.521 1.07337 -4.10706 0
M  V30 1125 C 105.428 -0.445315 -5.89721 0
M  V30 1126 H 104.358 0.101205 -0.747177 0
M  V30 1127 H 107.009 -0.452866 -1.77824 0
M  V30 1128 H 105.391 1.28932 -3.74423 0
M  V30 1129 H 106.565 -1.50352 -4.35581 0
M  V30 1130 H 104.88 -1.20813 -3.98489 0
M  V30 1131 H 107.477 1.30022 -5.18651 0
M  V30 1132 H 107.82 2.0273 -3.63602 0
M  V30 1133 H 108.353 0.360034 -3.96167 0
M  V30 1134 H 105.092 -1.36883 -6.41049 0
M  V30 1135 H 104.612 0.291569 -5.99091 0
M  V30 1136 H 106.291 -0.0606218 -6.46972 0
M  V30 1137 N 106.423 1.57458 -0.0668435 0
M  V30 1138 C 107.651 1.97624 0.612565 0
M  V30 1139 C 108.066 0.94502 1.63447 0
M  V30 1140 O 107.423 -0.0689276 1.8237 0
M  V30 1141 C 107.474 3.37869 1.28555 0
M  V30 1142 O 107.195 4.3704 0.304557 0
M  V30 1143 C 108.696 3.92882 2.05325 0
M  V30 1144 H 105.916 0.650045 0.166381 0
M  V30 1145 H 108.46 2.04035 -0.137782 0
M  V30 1146 H 106.615 3.3256 1.98702 0
M  V30 1147 H 107.029 5.18565 0.786779 0
M  V30 1148 H 108.503 4.93247 2.47812 0
M  V30 1149 H 108.98 3.29156 2.9078 0
M  V30 1150 H 109.586 4.01577 1.40056 0
M  V30 1151 N 107.901 -0.206675 1.56239 0
M  V30 1152 C 109.126 -0.949474 1.8439 0
M  V30 1153 C 109.551 -1.76549 0.649016 0
M  V30 1154 O 108.909 -1.76782 -0.402231 0
M  V30 1155 C 108.957 -1.83078 3.10668 0
M  V30 1156 O 108.061 -2.9281 2.90407 0
M  V30 1157 H 107.402 -0.268033 0.607499 0
M  V30 1158 H 109.932 -0.215488 2.03462 0
M  V30 1159 H 109.942 -2.2377 3.41161 0
M  V30 1160 H 108.617 -1.23112 3.97261 0
M  V30 1161 H 107.194 -2.55956 2.71184 0
M  V30 1162 N 109.379 -1.50304 -0.473955 0
M  V30 1163 C 110.342 -1.6841 -1.55469 0
M  V30 1164 C 111.342 -0.554905 -1.50922 0
M  V30 1165 O 112.532 -0.821882 -1.53593 0
M  V30 1166 C 109.664 -1.70667 -2.95102 0
M  V30 1167 H 110.857 -2.64828 -1.40733 0
M  V30 1168 H 108.41 -1.39742 -0.700132 0
M  V30 1169 H 109.145 -0.75932 -3.15285 0
M  V30 1170 H 108.93 -2.52698 -2.9981 0
M  V30 1171 H 110.42 -1.8664 -3.73571 0
M  V30 1172 N 110.857 0.726932 -1.39834 0
M  V30 1173 C 112.082 1.52121 -1.40976 0
M  V30 1174 C 112.507 1.88098 -0.00826029 0
M  V30 1175 O 111.865 1.52479 0.980807 0
M  V30 1176 C 111.913 2.78021 -2.29644 0
M  V30 1177 O 111.017 3.74272 -1.73188 0
M  V30 1178 H 110.358 0.45908 -0.479731 0
M  V30 1179 H 112.888 0.896207 -1.83927 0
M  V30 1180 H 112.898 3.26671 -2.44438 0
M  V30 1181 H 111.573 2.51169 -3.31492 0
M  V30 1182 H 110.15 3.33073 -1.6768 0
M  V30 1183 N 112.336 1.25143 0.95797 0
M  V30 1184 C 113.582 1.09855 1.70469 0
M  V30 1185 C 113.915 -0.360187 1.90831 0
M  V30 1186 O 113.19 -1.26568 1.47685 0
M  V30 1187 C 113.473 1.8497 3.08963 0
M  V30 1188 C 113.326 3.38652 2.96032 0
M  V30 1189 C 114.645 1.63016 4.08795 0
M  V30 1190 H 111.764 0.400465 0.618706 0
M  V30 1191 H 114.406 1.53933 1.11376 0
M  V30 1192 H 112.556 1.47505 3.59409 0
M  V30 1193 H 114.228 3.85772 2.52938 0
M  V30 1194 H 112.471 3.66534 2.32025 0
M  V30 1195 H 113.142 3.8642 3.94187 0
M  V30 1196 H 115.618 1.95625 3.67247 0
M  V30 1197 H 114.494 2.18015 5.03747 0
M  V30 1198 H 114.755 0.570692 4.38401 0
M  V30 1199 N 113.814 -1.1601 1.06675 0
M  V30 1200 C 114.762 -2.22586 0.675157 0
M  V30 1201 C 115.756 -1.66525 -0.310766 0
M  V30 1202 O 116.962 -1.79145 -0.175215 0
M  V30 1203 H 113.337 -0.724855 0.200223 0
M  V30 1204 H 115.308 -2.52899 1.58381 0
M  V30 1205 C 114.057 -3.47604 0.0817162 0
M  V30 1206 H 113.38 -3.91058 0.831484 0
M  V30 1207 H 114.82 -4.23718 -0.154708 0
M  V30 1208 C 113.279 -3.15718 -1.17576 0
M  V30 1209 O 113.809 -3.31878 -2.26318 0
M  V30 1210 N 112.015 -2.69816 -1.07923 0
M  V30 1211 H 111.562 -2.56866 -0.194293 0
M  V30 1212 H 111.52 -2.48855 -1.92141 0
M  V30 1213 N 115.292 -0.849877 -1.32721 0
M  V30 1214 C 116.569 -0.372405 -1.92022 0
M  V30 1215 C 116.949 1.1435 -1.77447 0
M  V30 1216 O 116.297 1.96296 -1.16962 0
M  V30 1217 C 116.507 -0.831482 -3.3895 0
M  V30 1218 C 117.855 -0.845882 -4.16089 0
M  V30 1219 O 118.879 -0.775806 -3.47649 0
M  V30 1220 O 117.738 -0.943753 -5.38289 0
M  V30 1221 H 114.832 -0.107667 -0.819961 0
M  V30 1222 H 117.378 -0.93646 -1.41522 0
M  V30 1223 H 116.15 -1.87448 -3.4348 0
M  V30 1224 H 115.773 -0.24461 -3.96847 0
M  V30 1225 N 116.77 1.45427 -0.607355 0
M  V30 1226 C 117.995 2.07124 -0.107006 0
M  V30 1227 C 118.42 1.44906 1.19933 0
M  V30 1228 O 117.778 0.541687 1.73019 0
M  V30 1229 C 117.826 3.60595 0.0194119 0
M  V30 1230 O 116.93 3.98285 1.0697 0
M  V30 1231 H 116.271 0.659868 -0.0739597 0
M  V30 1232 H 118.801 1.86683 -0.837297 0
M  V30 1233 H 118.811 4.07419 0.2177 0
M  V30 1234 H 117.486 4.05266 -0.934453 0
M  V30 1235 H 116.063 3.63133 0.847889 0
M  V30 1236 N 118.248 0.346503 1.53744 0
M  V30 1237 C 119.496 -0.248612 2.00565 0
M  V30 1238 C 119.817 -1.5083 1.23593 0
M  V30 1239 O 119.087 -1.92858 0.343912 0
M  V30 1240 H 117.667 -0.0948564 0.740953 0
M  V30 1241 H 120.329 0.468341 1.89189 0
M  V30 1242 H 119.425 -0.488994 3.08245 0
M  V30 1243 N 119.726 -1.57421 0.075193 0
M  V30 1244 C 120.636 -2.1642 -0.905511 0
M  V30 1245 C 121.652 -1.12828 -1.32461 0
M  V30 1246 O 122.828 -1.45109 -1.39661 0
M  V30 1247 C 119.893 -2.71693 -2.15369 0
M  V30 1248 C 118.954 -3.90171 -1.79068 0
M  V30 1249 C 118.187 -4.42798 -2.97936 0
M  V30 1250 O 118.41 -3.94416 -4.12058 0
M  V30 1251 O 117.344 -5.34085 -2.77555 0
M  V30 1252 H 121.17 -3.00588 -0.433626 0
M  V30 1253 H 118.755 -1.48664 -0.148067 0
M  V30 1254 H 120.637 -3.07104 -2.88557 0
M  V30 1255 H 119.312 -1.90582 -2.61649 0
M  V30 1256 H 118.219 -3.59606 -1.03122 0
M  V30 1257 H 119.552 -4.72584 -1.37569 0
M  V30 1258 N 121.204 0.198386 -1.56346 0
M  V30 1259 C 122.434 0.934215 -1.84271 0
M  V30 1260 C 122.842 1.77496 -0.655125 0
M  V30 1261 O 122.185 1.7961 0.385488 0
M  V30 1262 C 122.247 1.88278 -3.06254 0
M  V30 1263 C 121.911 1.22431 -4.40295 0
M  V30 1264 C 122.908 0.602839 -5.16393 0
M  V30 1265 C 120.593 1.22915 -4.87029 0
M  V30 1266 C 122.587 -0.0050083 -6.374 0
M  V30 1267 C 120.274 0.617465 -6.07973 0
M  V30 1268 C 121.272 0.00146341 -6.83 0
M  V30 1269 O 120.96 -0.600642 -8.01653 0
M  V30 1270 H 120.692 0.278245 -0.616081 0
M  V30 1271 H 123.246 0.211626 -2.04307 0
M  V30 1272 H 121.476 2.64498 -2.82095 0
M  V30 1273 H 123.165 2.48612 -3.20853 0
M  V30 1274 H 123.931 0.591265 -4.81382 0
M  V30 1275 H 119.81 1.69801 -4.28589 0
M  V30 1276 H 123.354 -0.48643 -6.95902 0
M  V30 1277 H 119.251 0.62653 -6.42452 0
M  V30 1278 H 120.019 -0.497225 -8.16988 0
M  V30 1279 N 122.682 1.50554 0.465978 0
M  V30 1280 C 124.098 1.38093 0.800154 0
M  V30 1281 C 124.298 0.440988 1.96615 0
M  V30 1282 O 123.354 -0.114499 2.5224 0
M  V30 1283 C 124.667 2.79565 1.10742 0
M  V30 1284 C 126.215 2.88516 1.21357 0
M  V30 1285 C 126.69 4.30833 1.55393 0
M  V30 1286 N 128.181 4.33807 1.62375 0
M  V30 1287 C 128.916 5.40927 1.90225 0
M  V30 1288 N 128.412 6.58247 2.16062 0
M  V30 1289 N 130.205 5.28376 1.9177 0
M  V30 1290 H 122.356 2.10237 -0.302366 0
M  V30 1291 H 124.619 0.945203 -0.0727746 0
M  V30 1292 H 124.325 3.50208 0.323661 0
M  V30 1293 H 124.199 3.17125 2.04234 0
M  V30 1294 H 126.586 2.1809 1.98799 0
M  V30 1295 H 126.667 2.54492 0.258321 0
M  V30 1296 H 126.311 5.01799 0.784889 0
M  V30 1297 H 126.241 4.62347 2.52076 0
M  V30 1298 H 128.732 3.49212 1.44427 0
M  V30 1299 H 129.045 7.3569 2.36601 0
M  V30 1300 H 127.39 6.61413 2.13444 0
M  V30 1301 H 130.581 4.35715 1.71085 0
M  V30 1302 H 130.754 6.11944 2.13139 0
M  V30 1303 N 124.16 -0.719506 1.40217 0
M  V30 1304 C 125.4 -1.49181 1.39729 0
M  V30 1305 C 125.764 -1.92 -0.00250614 0
M  V30 1306 O 126.965 -2.68473 -0.132479 0
M  V30 1307 C 125.236 -2.68767 2.35582 0
M  V30 1308 S 126.795 -3.58224 2.53418 0
M  V30 1309 H 123.613 -0.510091 0.495307 0
M  V30 1310 H 126.215 -0.841724 1.76452 0
M  V30 1311 H 124.919 -2.35475 3.36124 0
M  V30 1312 H 124.45 -3.38691 2.0013 0
M  V30 1313 H 126.465 -4.63033 1.78367 0
M  V30 1314 N 125.638 -1.25649 -0.95132 0
M  V30 1315 C 126.57 -1.02112 -2.05197 0
M  V30 1316 C 127.583 0.0150571 -1.62793 0
M  V30 1317 O 128.772 -0.223874 -1.77091 0
M  V30 1318 C 125.872 -0.522361 -3.3485 0
M  V30 1319 C 125.045 -1.62546 -4.06076 0
M  V30 1320 C 124.104 -1.12649 -5.14001 0
M  V30 1321 O 123.13 -1.82156 -5.39266 0
M  V30 1322 N 124.332 0.03047 -5.80492 0
M  V30 1323 H 127.097 -1.96885 -2.25957 0
M  V30 1324 H 124.658 -1.16899 -1.1201 0
M  V30 1325 H 126.65 -0.172961 -4.0433 0
M  V30 1326 H 125.22 0.33151 -3.10837 0
M  V30 1327 H 124.44 -2.14628 -3.30649 0
M  V30 1328 H 125.728 -2.36644 -4.50419 0
M  V30 1329 H 125.126 0.611169 -5.62389 0
M  V30 1330 H 123.683 0.320875 -6.5101 0
M  V30 1331 N 127.117 1.15442 -1.07289 0
M  V30 1332 C 128.533 1.38201 -0.798288 0
M  V30 1333 C 128.733 1.92429 0.597769 0
M  V30 1334 O 127.789 2.12962 1.3566 0
M  V30 1335 C 129.102 2.35357 -1.87156 0
M  V30 1336 C 130.65 2.49021 -1.89624 0
M  V30 1337 C 131.125 3.49468 -2.96034 0
M  V30 1338 N 132.616 3.57003 -2.95132 0
M  V30 1339 C 133.351 4.34543 -3.74112 0
M  V30 1340 N 132.847 5.15421 -4.6294 0
M  V30 1341 N 134.64 4.29625 -3.62462 0
M  V30 1342 H 126.791 0.78584 -1.97328 0
M  V30 1343 H 129.054 0.408065 -0.855679 0
M  V30 1344 H 128.76 2.02626 -2.87464 0
M  V30 1345 H 128.634 3.35129 -1.73114 0
M  V30 1346 H 131.021 2.81051 -0.899687 0
M  V30 1347 H 131.102 1.4925 -2.07745 0
M  V30 1348 H 130.746 3.18173 -3.95889 0
M  V30 1349 H 130.676 4.48992 -2.75161 0
M  V30 1350 H 133.167 2.99276 -2.30743 0
M  V30 1351 H 133.48 5.7183 -5.19837 0
M  V30 1352 H 131.825 5.14729 -4.66989 0
M  V30 1353 H 135.016 3.65505 -2.92444 0
M  V30 1354 H 135.189 4.89807 -4.24256 0
M  V30 1355 N 128.595 0.856903 1.32268 0
M  V30 1356 C 129.843 0.460474 1.96784 0
M  V30 1357 C 130.164 -0.987701 1.68135 0
M  V30 1358 O 129.434 -1.69058 0.989765 0
M  V30 1359 H 128.014 0.167289 0.728027 0
M  V30 1360 H 130.676 1.09383 1.61312 0
M  V30 1361 H 129.772 0.60739 3.06133 0
M  V30 1362 N 130.073 -1.45103 0.615059 0
M  V30 1363 C 131.003 -2.33339 -0.0865619 0
M  V30 1364 C 131.984 -1.4727 -0.851209 0
M  V30 1365 O 133.169 -1.76026 -0.820281 0
M  V30 1366 C 130.299 -3.30095 -1.07956 0
M  V30 1367 C 129.253 -4.25858 -0.427628 0
M  V30 1368 C 128.579 -5.12361 -1.5294 0
M  V30 1369 C 129.879 -5.18165 0.655944 0
M  V30 1370 H 131.573 -2.92254 0.650224 0
M  V30 1371 H 129.119 -1.40532 0.314138 0
M  V30 1372 H 131.072 -3.90698 -1.57901 0
M  V30 1373 H 129.796 -2.69355 -1.84703 0
M  V30 1374 H 128.455 -3.66564 0.0510292 0
M  V30 1375 H 128.103 -4.47984 -2.28734 0
M  V30 1376 H 127.803 -5.77238 -1.09865 0
M  V30 1377 H 129.327 -5.75833 -2.03098 0
M  V30 1378 H 130.741 -5.72796 0.240257 0
M  V30 1379 H 129.138 -5.91559 1.00888 0
M  V30 1380 H 130.208 -4.60144 1.52957 0
M  V30 1381 N 131.551 -0.354651 -1.53558 0
M  V30 1382 C 132.776 0.242153 -2.05981 0
M  V30 1383 C 133.201 1.42553 -1.2272 0
M  V30 1384 O 132.559 1.79656 -0.243604 0
M  V30 1385 C 132.607 0.624367 -3.55154 0
M  V30 1386 O 131.711 1.72301 -3.74681 0
M  V30 1387 H 131.052 0.0378432 -0.662921 0
M  V30 1388 H 133.582 -0.512087 -1.98088 0
M  V30 1389 H 133.592 0.898433 -3.97985 0
M  V30 1390 H 132.267 -0.240989 -4.15201 0
M  V30 1391 H 130.844 1.44535 -3.4375 0
M  V30 1392 N 133.029 1.57378 -0.0835403 0
M  V30 1393 C 134.277 1.93547 0.581718 0
M  V30 1394 C 134.598 0.96524 1.69435 0
M  V30 1395 O 133.868 0.0153369 1.95894 0
M  V30 1396 H 132.448 0.714521 0.217874 0
M  V30 1397 H 135.11 1.94366 -0.144158 0
M  V30 1398 H 134.206 2.95665 0.999423 0
M  V30 1399 N 134.507 -0.190092 1.56449 0
M  V30 1400 C 135.923 -0.54113 1.50146 0
M  V30 1401 C 136.123 -1.85603 0.784465 0
M  V30 1402 O 135.179 -2.5024 0.337051 0
M  V30 1403 C 136.492 -0.591241 2.9483 0
M  V30 1404 C 138.04 -0.679732 3.0553 0
M  V30 1405 C 138.515 -0.760908 4.51635 0
M  V30 1406 N 140.006 -0.824302 4.55806 0
M  V30 1407 C 140.741 -0.907365 5.66175 0
M  V30 1408 N 140.237 -0.952422 6.86222 0
M  V30 1409 N 142.03 -0.94494 5.541 0
M  V30 1410 H 134.181 0.67235 2.01478 0
M  V30 1411 H 136.444 0.240127 0.917084 0
M  V30 1412 H 136.15 0.305905 3.50367 0
M  V30 1413 H 136.024 -1.44422 3.48457 0
M  V30 1414 H 138.411 -1.56731 2.50039 0
M  V30 1415 H 138.492 0.199549 2.5502 0
M  V30 1416 H 138.136 0.122336 5.07753 0
M  V30 1417 H 138.066 -1.65606 4.99882 0
M  V30 1418 H 140.557 -0.798526 3.69367 0
M  V30 1419 H 140.87 -1.01645 7.66086 0
M  V30 1420 H 139.215 -0.921014 6.8887 0
M  V30 1421 H 142.406 -0.906612 4.59236 0
M  V30 1422 H 142.579 -1.00622 6.4014 0
M  V30 1423 N 135.985 -1.50799 -0.457987 0
M  V30 1424 C 137.21 -1.66496 -1.23668 0
M  V30 1425 C 137.635 -0.353288 -1.84752 0
M  V30 1426 O 136.993 0.684346 -1.67888 0
M  V30 1427 C 137.041 -2.76763 -2.3116 0
M  V30 1428 O 136.145 -2.38928 -3.36136 0
M  V30 1429 H 135.486 -0.555828 -0.363252 0
M  V30 1430 H 138.016 -1.9725 -0.543474 0
M  V30 1431 H 138.026 -3.00232 -2.76269 0
M  V30 1432 H 136.701 -3.71954 -1.86073 0
M  V30 1433 H 135.278 -2.25953 -2.96647 0
M  V30 1434 N 137.463 0.71206 -1.40597 0
M  V30 1435 C 138.74 1.46536 -1.29563 0
M  V30 1436 C 139.12 2.10931 0.0844217 0
M  V30 1437 O 138.468 2.00418 1.0975 0
M  V30 1438 C 138.678 2.49821 -2.43701 0
M  V30 1439 C 140.026 3.15551 -2.841 0
M  V30 1440 O 141.05 2.60142 -2.4332 0
M  V30 1441 O 139.909 4.15867 -3.54566 0
M  V30 1442 H 137.003 0.651801 -0.509004 0
M  V30 1443 H 139.549 0.743935 -1.52524 0
M  V30 1444 H 138.321 2.00778 -3.35863 0
M  V30 1445 H 137.944 3.29495 -2.22528 0
M  V30 1446 N 138.941 1.26152 0.944643 0
M  V30 1447 C 140.352 1.10454 1.50522 0
M  V30 1448 C 140.703 -0.31635 1.93633 0
M  V30 1449 O 139.828 -1.20746 1.79581 0
M  V30 1450 C 140.423 1.99891 2.73549 0
M  V30 1451 C 138.982 1.88348 3.25886 0
M  V30 1452 C 138.129 1.93447 1.9868 0
M  V30 1453 H 141.08 1.39292 0.760489 0
M  V30 1454 H 141.101 1.54477 3.47732 0
M  V30 1455 H 140.613 3.03297 2.42141 0
M  V30 1456 H 138.714 0.878636 3.62092 0
M  V30 1457 H 138.827 2.73696 3.93227 0
M  V30 1458 H 137.191 1.37456 2.14425 0
M  V30 1459 H 137.974 2.98476 1.69607 0
M  V30 1460 N 140.419 -1.14872 1.07899 0
M  V30 1461 C 141.668 -1.85135 0.800499 0
M  V30 1462 C 141.981 -1.83547 -0.676014 0
M  V30 1463 O 143.187 -2.49548 -1.06948 0
M  V30 1464 C 141.643 -3.3231 1.38197 0
M  V30 1465 C 141.251 -3.42329 2.8899 0
M  V30 1466 C 142.995 -4.0772 1.18174 0
M  V30 1467 C 140.902 -4.83684 3.403 0
M  V30 1468 H 139.832 -0.693563 0.29578 0
M  V30 1469 H 142.483 -1.29532 1.29976 0
M  V30 1470 H 140.865 -3.87618 0.810431 0
M  V30 1471 H 142.039 -2.97097 3.52236 0
M  V30 1472 H 140.354 -2.80369 3.07867 0
M  V30 1473 H 142.951 -5.12049 1.5398 0
M  V30 1474 H 143.294 -4.16124 0.12117 0
M  V30 1475 H 143.827 -3.58696 1.71994 0
M  V30 1476 H 140.566 -4.80465 4.45907 0
M  V30 1477 H 140.086 -5.29474 2.81811 0
M  V30 1478 H 141.765 -5.52558 3.36584 0
M  V30 1479 N 141.898 -0.863906 -1.31812 0
M  V30 1480 C 142.83 -0.272485 -2.27575 0
M  V30 1481 C 143.843 0.56104 -1.52827 0
M  V30 1482 O 145.032 0.384021 -1.7432 0
M  V30 1483 C 142.132 0.63283 -3.32939 0
M  V30 1484 C 141.305 -0.166902 -4.37081 0
M  V30 1485 C 140.364 0.665608 -5.21973 0
M  V30 1486 O 139.39 0.0958091 -5.69119 0
M  V30 1487 N 140.592 1.9787 -5.45736 0
M  V30 1488 H 143.357 -1.0954 -2.78964 0
M  V30 1489 H 140.918 -0.724791 -1.4477 0
M  V30 1490 H 142.91 1.19532 -3.86645 0
M  V30 1491 H 141.48 1.35642 -2.81638 0
M  V30 1492 H 140.7 -0.910838 -3.83533 0
M  V30 1493 H 141.988 -0.715874 -5.03739 0
M  V30 1494 H 141.386 2.46484 -5.09178 0
M  V30 1495 H 139.943 2.48911 -6.024 0
M  V30 1496 N 143.376 1.44774 -0.622745 0
M  V30 1497 C 144.306 2.33382 0.0741861 0
M  V30 1498 C 145.287 1.47719 0.843387 0
M  V30 1499 O 146.472 1.76458 0.810934 0
M  V30 1500 C 143.602 3.30663 1.06204 0
M  V30 1501 C 142.556 4.26079 0.405037 0
M  V30 1502 C 141.882 5.13165 1.5022 0
M  V30 1503 C 143.182 5.1781 -0.683414 0
M  V30 1504 H 144.876 2.91905 -0.665713 0
M  V30 1505 H 142.422 1.40363 -0.321587 0
M  V30 1506 H 144.375 3.9153 1.55827 0
M  V30 1507 H 143.099 2.70331 1.83272 0
M  V30 1508 H 141.758 3.66532 -0.0704683 0
M  V30 1509 H 141.406 4.49191 2.26355 0
M  V30 1510 H 141.106 5.77812 1.06803 0
M  V30 1511 H 142.63 5.76902 2.00041 0
M  V30 1512 H 144.044 5.72661 -0.270631 0
M  V30 1513 H 142.441 5.91015 -1.04023 0
M  V30 1514 H 143.511 4.59326 -1.55395 0
M  V30 1515 N 144.854 0.36279 1.53368 0
M  V30 1516 C 145.764 -0.492994 2.29362 0
M  V30 1517 C 146.78 -1.09507 1.35219 0
M  V30 1518 O 147.956 -1.10662 1.68273 0
M  V30 1519 C 145.021 -1.61855 3.066 0
M  V30 1520 C 144.082 -1.04429 4.16405 0
M  V30 1521 C 143.315 -2.11621 4.89951 0
M  V30 1522 O 143.538 -3.32684 4.63333 0
M  V30 1523 O 142.472 -1.74835 5.75948 0
M  V30 1524 H 146.298 0.125331 3.03441 0
M  V30 1525 H 143.883 0.127253 1.48857 0
M  V30 1526 H 145.765 -2.27302 3.54841 0
M  V30 1527 H 144.44 -2.22233 2.3536 0
M  V30 1528 H 143.347 -0.353819 3.72423 0
M  V30 1529 H 144.68 -0.485113 4.89804 0
M  V30 1530 N 146.332 -1.57332 0.0918853 0
M  V30 1531 C 147.581 -1.93412 -0.572249 0
M  V30 1532 C 147.894 -0.975515 -1.69538 0
M  V30 1533 O 149.1 -1.22991 -2.42045 0
M  V30 1534 C 147.556 -3.43648 -1.0693 0
M  V30 1535 C 147.164 -4.47994 0.0239049 0
M  V30 1536 C 148.908 -3.88695 -1.70635 0
M  V30 1537 C 146.815 -5.89381 -0.488319 0
M  V30 1538 H 145.745 -0.721939 -0.217532 0
M  V30 1539 H 148.396 -1.82735 0.167369 0
M  V30 1540 H 146.778 -3.49466 -1.8625 0
M  V30 1541 H 147.952 -4.53815 0.799277 0
M  V30 1542 H 146.267 -4.12536 0.565946 0
M  V30 1543 H 148.864 -4.91725 -2.10025 0
M  V30 1544 H 149.207 -3.27166 -2.57426 0
M  V30 1545 H 149.74 -3.85564 -0.979023 0
M  V30 1546 H 146.479 -6.54602 0.342906 0
M  V30 1547 H 145.999 -5.87037 -1.23077 0
M  V30 1548 H 147.678 -6.39863 -0.958317 0
M  V30 1549 N 147.81 0.181792 -1.56548 0
M  V30 1550 C 148.76 1.22961 -1.92002 0
M  V30 1551 C 149.744 1.40331 -0.787146 0
M  V30 1552 O 150.936 1.42478 -1.05019 0
M  V30 1553 C 148.065 2.57144 -2.27446 0
M  V30 1554 C 147.151 2.43512 -3.47222 0
M  V30 1555 N 147.542 1.99577 -4.64761 0
M  V30 1556 C 145.84 2.74368 -3.51622 0
M  V30 1557 C 146.541 1.98156 -5.46909 0
M  V30 1558 N 145.517 2.40164 -4.8767 0
M  V30 1559 H 149.319 0.881462 -2.8037 0
M  V30 1560 H 146.833 0.390141 -1.57644 0
M  V30 1561 H 148.83 3.32847 -2.51035 0
M  V30 1562 H 147.49 2.92771 -1.40411 0
M  V30 1563 H 148.501 1.70078 -4.89177 0
M  V30 1564 H 145.178 3.14102 -2.75038 0
M  V30 1565 H 146.568 1.65975 -6.51077 0
M  V30 1566 N 149.288 1.51039 0.449983 0
M  V30 1567 C 150.704 1.38934 0.785462 0
M  V30 1568 C 150.904 0.461817 1.96136 0
M  V30 1569 O 149.96 -0.0877389 2.52348 0
M  V30 1570 C 151.273 2.80724 1.0777 0
M  V30 1571 C 152.821 2.89787 1.1829 0
M  V30 1572 C 153.296 4.32457 1.50815 0
M  V30 1573 N 154.787 4.35505 1.57764 0
M  V30 1574 C 155.522 5.42914 1.84477 0
M  V30 1575 N 155.018 6.60502 2.09068 0
M  V30 1576 N 156.811 5.3038 1.86155 0
M  V30 1577 H 148.962 2.09904 -0.324647 0
M  V30 1578 H 151.225 0.944378 -0.0827957 0
M  V30 1579 H 150.931 3.50531 0.286498 0
M  V30 1580 H 150.805 3.19273 2.00859 0
M  V30 1581 H 153.192 2.20186 1.96474 0
M  V30 1582 H 153.273 2.54752 0.231314 0
M  V30 1583 H 152.917 5.02603 0.731622 0
M  V30 1584 H 152.847 4.64995 2.47158 0
M  V30 1585 H 155.338 3.50724 1.40715 0
M  V30 1586 H 155.651 7.38158 2.28785 0
M  V30 1587 H 153.996 6.63639 2.06416 0
M  V30 1588 H 157.187 4.37505 1.66454 0
M  V30 1589 H 157.36 6.1417 2.06637 0
M  V30 1590 N 150.766 -0.704594 1.40972 0
M  V30 1591 C 152.014 -1.46169 1.39568 0
M  V30 1592 C 152.335 -1.95 0.00253745 0
M  V30 1593 O 151.605 -1.71095 -0.954114 0
M  V30 1594 H 150.185 -0.542326 0.513704 0
M  V30 1595 H 152.847 -0.834553 1.76128 0
M  V30 1596 H 151.943 -2.32922 2.07735 0
M  V30 1597 N 152.244 -1.26651 -0.937939 0
M  V30 1598 C 153.49 -1.13562 -1.68746 0
M  V30 1599 C 153.845 0.317241 -1.89767 0
M  V30 1600 O 153.138 1.22939 -1.46957 0
M  V30 1601 C 153.332 -1.84168 -3.06295 0
M  V30 1602 C 153.161 -3.36171 -2.98696 0
M  V30 1603 C 151.931 -4.05468 -3.01535 0
M  V30 1604 C 154.129 -4.32312 -2.78588 0
M  V30 1605 N 152.111 -5.44118 -2.84269 0
M  V30 1606 C 153.482 -5.58159 -2.69924 0
M  V30 1607 C 155.537 -4.22524 -2.63396 0
M  V30 1608 C 154.24 -6.75335 -2.47618 0
M  V30 1609 C 156.266 -5.39411 -2.42466 0
M  V30 1610 C 155.628 -6.64208 -2.34536 0
M  V30 1611 H 151.727 -0.470361 -0.624728 0
M  V30 1612 H 154.311 -1.59982 -1.10968 0
M  V30 1613 H 152.482 -1.40219 -3.62206 0
M  V30 1614 H 154.214 -1.63674 -3.70126 0
M  V30 1615 H 150.969 -3.56854 -3.11372 0
M  V30 1616 H 151.393 -6.1693 -2.78795 0
M  V30 1617 H 156.035 -3.26771 -2.68292 0
M  V30 1618 H 153.753 -7.71182 -2.41463 0
M  V30 1619 H 157.339 -5.33711 -2.31611 0
M  V30 1620 H 156.219 -7.53129 -2.18555 0
M  V30 1621 N 153.722 1.14298 -1.08507 0
M  V30 1622 C 154.652 2.21542 -0.737646 0
M  V30 1623 C 155.633 1.67773 0.280377 0
M  V30 1624 O 156.818 1.93616 0.150521 0
M  V30 1625 C 153.948 3.46988 -0.147259 0
M  V30 1626 C 152.902 4.13789 -1.09374 0
M  V30 1627 C 152.228 5.33449 -0.365524 0
M  V30 1628 C 153.528 4.62208 -2.4323 0
M  V30 1629 H 155.222 2.5086 -1.6343 0
M  V30 1630 H 152.768 1.20576 -0.787243 0
M  V30 1631 H 154.721 4.21262 0.107808 0
M  V30 1632 H 153.445 3.17037 0.784538 0
M  V30 1633 H 152.104 3.4147 -1.33393 0
M  V30 1634 H 151.752 4.99759 0.57011 0
M  V30 1635 H 151.452 5.79088 -0.996512 0
M  V30 1636 H 152.976 6.10485 -0.118534 0
M  V30 1637 H 154.39 5.27952 -2.23472 0
M  V30 1638 H 152.787 5.18553 -3.02031 0
M  V30 1639 H 153.857 3.77224 -3.04681 0
M  V30 1640 N 155.201 0.870884 1.31352 0
M  V30 1641 C 156.131 0.343096 2.30966 0
M  V30 1642 C 157.112 -0.566507 1.60389 0
M  V30 1643 O 158.297 -0.483336 1.88089 0
M  V30 1644 C 155.427 -0.455487 3.443 0
M  V30 1645 C 154.381 0.361103 4.26474 0
M  V30 1646 C 153.707 -0.563221 5.31725 0
M  V30 1647 C 155.007 1.59566 4.97329 0
M  V30 1648 H 156.701 1.17548 2.75359 0
M  V30 1649 H 154.247 0.566686 1.32381 0
M  V30 1650 H 156.2 -0.83525 4.13039 0
M  V30 1651 H 154.924 -1.32139 2.98675 0
M  V30 1652 H 153.583 0.722825 3.59403 0
M  V30 1653 H 153.231 -1.42643 4.82351 0
M  V30 1654 H 152.931 -0.0207409 5.87596 0
M  V30 1655 H 154.455 -0.939808 6.03324 0
M  V30 1656 H 155.869 1.28728 5.58661 0
M  V30 1657 H 154.266 2.07728 5.63 0
M  V30 1658 H 155.336 2.34798 4.24262 0
M  V30 1659 N 156.679 -1.44442 0.630414 0
M  V30 1660 C 157.609 -2.33418 -0.0618083 0
M  V30 1661 C 158.59 -1.48165 -0.835541 0
M  V30 1662 O 159.775 -1.76886 -0.801564 0
M  V30 1663 C 156.905 -3.31222 -1.04449 0
M  V30 1664 C 155.859 -4.26288 -0.382436 0
M  V30 1665 C 155.185 -5.13954 -1.47497 0
M  V30 1666 C 156.485 -5.1744 0.710865 0
M  V30 1667 H 158.179 -2.91548 0.681184 0
M  V30 1668 H 155.725 -1.40191 0.329026 0
M  V30 1669 H 157.678 -3.92351 -1.53748 0
M  V30 1670 H 156.402 -2.71299 -1.81836 0
M  V30 1671 H 155.061 -3.6649 0.0899054 0
M  V30 1672 H 154.709 -4.50385 -2.2397 0
M  V30 1673 H 154.409 -5.7837 -1.03737 0
M  V30 1674 H 155.933 -5.77955 -1.96979 0
M  V30 1675 H 157.347 -5.72509 0.300996 0
M  V30 1676 H 155.744 -5.90455 1.07156 0
M  V30 1677 H 156.814 -4.58496 1.57829 0
M  V30 1678 N 158.157 -0.370918 -1.53173 0
M  V30 1679 C 159.089 0.507823 -2.23503 0
M  V30 1680 C 160.102 1.04182 -1.251 0
M  V30 1681 O 161.291 0.947286 -1.5129 0
M  V30 1682 C 158.391 1.71447 -2.92334 0
M  V30 1683 C 157.564 1.31105 -4.17289 0
M  V30 1684 C 156.623 2.38035 -4.69282 0
M  V30 1685 O 155.649 2.00204 -5.32829 0
M  V30 1686 N 156.851 3.69697 -4.47554 0
M  V30 1687 H 159.616 -0.0946382 -2.99551 0
M  V30 1688 H 157.177 -0.196358 -1.60705 0
M  V30 1689 H 159.169 2.42469 -3.24023 0
M  V30 1690 H 157.739 2.22368 -2.19707 0
M  V30 1691 H 156.959 0.430462 -3.91843 0
M  V30 1692 H 158.247 1.0179 -4.98514 0
M  V30 1693 H 157.645 4.03205 -3.9679 0
M  V30 1694 H 156.202 4.36807 -4.8378 0
M  V30 1695 N 159.635 1.57281 -0.100228 0
M  V30 1696 C 160.881 1.94826 0.563101 0
M  V30 1697 C 161.214 0.982475 1.67514 0
M  V30 1698 O 160.489 0.0164069 1.94493 0
M  V30 1699 C 160.772 3.42453 1.11346 0
M  V30 1700 C 160.625 4.498 0.00612081 0
M  V30 1701 C 161.944 3.91506 2.01024 0
M  V30 1702 H 159.063 0.708428 0.203221 0
M  V30 1703 H 161.705 1.8922 -0.171979 0
M  V30 1704 H 159.855 3.47361 1.7399 0
M  V30 1705 H 161.527 4.57 -0.628357 0
M  V30 1706 H 159.77 4.28756 -0.659581 0
M  V30 1707 H 160.441 5.50306 0.432109 0
M  V30 1708 H 162.917 3.88784 1.48278 0
M  V30 1709 H 161.793 4.95358 2.36457 0
M  V30 1710 H 162.054 3.31099 2.92961 0
M  V30 1711 N 161.113 -0.173488 1.56642 0
M  V30 1712 C 162.338 -0.910149 1.86363 0
M  V30 1713 C 162.763 -1.75132 0.686318 0
M  V30 1714 O 162.121 -1.77595 -0.364643 0
M  V30 1715 C 162.169 -1.76447 3.14482 0
M  V30 1716 O 161.273 -2.86584 2.96553 0
M  V30 1717 H 160.614 -0.255086 0.613047 0
M  V30 1718 H 163.144 -0.172283 2.03873 0
M  V30 1719 H 163.154 -2.16483 3.45831 0
M  V30 1720 H 161.829 -1.14658 3.99783 0
M  V30 1721 H 160.406 -2.50146 2.76553 0
M  V30 1722 N 162.591 -1.51276 -0.441967 0
M  V30 1723 C 163.816 -1.67799 -1.21895 0
M  V30 1724 C 164.241 -0.372864 -1.84367 0
M  V30 1725 O 163.599 0.666501 -1.68604 0
M  V30 1726 C 163.647 -2.79199 -2.28211 0
M  V30 1727 O 162.751 -2.42479 -3.33583 0
M  V30 1728 H 162.092 -0.559649 -0.357336 0
M  V30 1729 H 164.622 -1.97815 -0.522522 0
M  V30 1730 H 164.632 -3.03146 -2.73069 0
M  V30 1731 H 163.307 -3.73906 -1.82118 0
M  V30 1732 H 161.884 -2.29087 -2.94234 0
M  V30 1733 N 164.069 0.697108 -1.41344 0
M  V30 1734 C 165.485 1.00751 -1.2378 0
M  V30 1735 C 165.685 2.01105 -0.126066 0
M  V30 1736 O 164.741 2.47295 0.51004 0
M  V30 1737 C 166.054 1.53359 -2.58653 0
M  V30 1738 C 167.602 1.6525 -2.65822 0
M  V30 1739 C 168.077 2.2126 -4.01009 0
M  V30 1740 N 169.568 2.28622 -4.02847 0
M  V30 1741 C 170.303 2.72984 -5.04249 0
M  V30 1742 N 169.799 3.16962 -6.16041 0
M  V30 1743 N 171.592 2.72534 -4.91611 0
M  V30 1744 H 163.743 0.0322662 -2.12375 0
M  V30 1745 H 166.006 0.0768853 -0.944877 0
M  V30 1746 H 165.712 0.870773 -3.4075 0
M  V30 1747 H 165.586 2.51597 -2.81032 0
M  V30 1748 H 167.973 2.30644 -1.84086 0
M  V30 1749 H 168.054 0.655614 -2.47256 0
M  V30 1750 H 167.698 1.56482 -4.83193 0
M  V30 1751 H 167.628 3.21698 -4.16915 0
M  V30 1752 H 170.119 1.97585 -3.22131 0
M  V30 1753 H 170.432 3.49434 -6.89287 0
M  V30 1754 H 168.777 3.14875 -6.1958 0
M  V30 1755 H 171.968 2.37525 -4.0336 0
M  V30 1756 H 172.141 3.06789 -5.70775 0
M  V30 1757 N 165.547 1.27147 0.931209 0
M  V30 1758 C 166.793 1.13446 1.68101 0
M  V30 1759 C 167.126 -0.319628 1.91552 0
M  V30 1760 O 166.401 -1.23407 1.50336 0
M  V30 1761 C 166.684 1.91482 3.0497 0
M  V30 1762 C 166.537 3.44855 2.88782 0
M  V30 1763 C 167.856 1.71651 4.05246 0
M  V30 1764 H 164.975 0.413498 0.610072 0
M  V30 1765 H 167.617 1.56261 1.08086 0
M  V30 1766 H 165.767 1.55095 3.56199 0
M  V30 1767 H 167.439 3.9105 2.44698 0
M  V30 1768 H 165.682 3.71373 2.24198 0
M  V30 1769 H 166.353 3.94694 3.85902 0
M  V30 1770 H 168.829 2.0337 3.63015 0
M  V30 1771 H 167.705 2.28651 4.99009 0
M  V30 1772 H 167.966 0.663555 4.37092 0
M  V30 1773 N 167.025 -1.13721 1.09112 0
M  V30 1774 C 168.272 -1.84924 0.825192 0
M  V30 1775 C 168.6 -1.83347 -0.649151 0
M  V30 1776 O 167.855 -1.26449 -1.49362 0
M  V30 1777 C 168.154 -3.32861 1.30146 0
M  V30 1778 C 167.82 -3.54621 2.78486 0
M  V30 1779 C 166.482 -3.60268 3.18999 0
M  V30 1780 C 168.834 -3.62855 3.74146 0
M  V30 1781 C 166.162 -3.71679 4.53951 0
M  V30 1782 C 168.514 -3.75793 5.08883 0
M  V30 1783 C 167.178 -3.79692 5.4899 0
M  V30 1784 H 166.448 -0.676684 0.301959 0
M  V30 1785 H 169.095 -1.3428 1.36533 0
M  V30 1786 H 167.4 -3.85835 0.681064 0
M  V30 1787 H 169.097 -3.86395 1.07236 0
M  V30 1788 H 165.687 -3.50879 2.46134 0
M  V30 1789 H 169.871 -3.57775 3.43963 0
M  V30 1790 H 165.127 -3.72963 4.84467 0
M  V30 1791 H 169.301 -3.81107 5.82864 0
M  V30 1792 H 166.928 -3.88287 6.53558 0
M  V30 1793 N 168.503 -0.877838 -1.30888 0
M  V30 1794 C 169.436 -0.283995 -2.26426 0
M  V30 1795 C 170.414 0.591361 -1.51465 0
M  V30 1796 O 171.598 0.54304 -1.80509 0
M  V30 1797 C 168.725 0.597129 -3.33395 0
M  V30 1798 C 167.771 -0.207937 -4.25993 0
M  V30 1799 S 168.604 -1.59158 -5.11301 0
M  V30 1800 C 169.76 -0.716791 -6.21782 0
M  V30 1801 H 169.993 -1.09383 -2.76446 0
M  V30 1802 H 167.526 -0.676828 -1.38775 0
M  V30 1803 H 169.484 1.09978 -3.95493 0
M  V30 1804 H 168.145 1.38099 -2.82113 0
M  V30 1805 H 167.338 0.464163 -5.01858 0
M  V30 1806 H 166.94 -0.642963 -3.68432 0
M  V30 1807 H 169.232 0.0692833 -6.77465 0
M  V30 1808 H 170.175 -1.44682 -6.93161 0
M  V30 1809 H 170.583 -0.280855 -5.63801 0
M  V30 1810 N 169.982 1.44106 -0.638065 0
M  V30 1811 C 170.892 2.34513 0.0637334 0
M  V30 1812 C 171.908 1.53018 0.828346 0
M  V30 1813 O 173.084 1.85723 0.779036 0
M  V30 1814 C 170.149 3.31095 1.02844 0
M  V30 1815 C 169.21 4.28497 0.26244 0
M  V30 1816 C 168.443 5.20465 1.1812 0
M  V30 1817 O 168.666 5.16514 2.42011 0
M  V30 1818 O 167.6 5.98251 0.661774 0
M  V30 1819 H 171.426 2.95989 -0.68003 0
M  V30 1820 H 169.011 1.43994 -0.398252 0
M  V30 1821 H 170.893 3.90526 1.58327 0
M  V30 1822 H 169.568 2.72144 1.7527 0
M  V30 1823 H 168.475 3.72592 -0.335602 0
M  V30 1824 H 169.808 4.90388 -0.421936 0
M  V30 1825 N 171.46 0.379036 1.52974 0
M  V30 1826 C 172.708 -0.206014 2.01047 0
M  V30 1827 C 173.029 -1.48175 1.26765 0
M  V30 1828 O 172.299 -1.92085 0.384743 0
M  V30 1829 H 170.879 -0.0791184 0.742798 0
M  V30 1830 H 173.541 0.508366 1.88153 0
M  V30 1831 H 172.637 -0.423501 3.09213 0
M  V30 1832 N 172.938 -1.57226 0.108567 0
M  V30 1833 C 173.848 -2.18292 -0.859401 0
M  V30 1834 C 174.864 -1.15612 -1.30038 0
M  V30 1835 O 176.04 -1.48039 -1.36552 0
M  V30 1836 C 173.105 -2.762 -2.09558 0
M  V30 1837 C 172.166 -3.93881 -1.70752 0
M  V30 1838 C 171.399 -4.49018 -2.88477 0
M  V30 1839 O 171.622 -4.03068 -4.036 0
M  V30 1840 O 170.556 -5.39852 -2.66164 0
M  V30 1841 H 174.382 -3.01441 -0.369769 0
M  V30 1842 H 171.967 -1.48945 -0.1165 0
M  V30 1843 H 173.849 -3.13156 -2.81978 0
M  V30 1844 H 172.524 -1.96089 -2.57548 0
M  V30 1845 H 171.431 -3.61713 -0.954714 0
M  V30 1846 H 172.764 -4.75396 -1.27513 0
M  V30 1847 N 174.416 0.165178 -1.56732 0
M  V30 1848 C 175.827 0.727046 -1.71962 0
M  V30 1849 C 176.178 1.82508 -0.720078 0
M  V30 1850 O 175.303 2.16082 0.117242 0
M  V30 1851 C 175.898 1.32559 -3.11791 0
M  V30 1852 C 174.457 1.83422 -3.28684 0
M  V30 1853 C 173.604 0.715567 -2.67908 0
M  V30 1854 H 176.555 -0.0602896 -1.58585 0
M  V30 1855 H 176.576 2.19533 -3.10782 0
M  V30 1856 H 176.088 0.526195 -3.84516 0
M  V30 1857 H 174.189 2.65986 -2.60926 0
M  V30 1858 H 174.302 1.97543 -4.36478 0
M  V30 1859 H 172.666 1.13758 -2.27884 0
M  V30 1860 H 173.449 -0.0720836 -3.43224 0
M  V30 1861 N 175.894 1.51508 0.433938 0
M  V30 1862 C 176.824 1.76016 1.53429 0
M  V30 1863 C 177.805 0.610112 1.58782 0
M  V30 1864 O 178.99 0.853177 1.74455 0
M  V30 1865 C 176.12 1.88831 2.9148 0
M  V30 1866 C 175.074 3.04288 3.00987 0
M  V30 1867 C 174.4 3.0229 4.4105 0
M  V30 1868 C 175.7 4.44193 2.74754 0
M  V30 1869 H 177.394 2.68152 1.33171 0
M  V30 1870 H 174.94 1.29035 0.639214 0
M  V30 1871 H 176.893 2.04559 3.6842 0
M  V30 1872 H 175.617 0.933455 3.12976 0
M  V30 1873 H 174.276 2.8827 2.26486 0
M  V30 1874 H 173.924 2.04576 4.59519 0
M  V30 1875 H 173.624 3.79822 4.4834 0
M  V30 1876 H 175.148 3.20116 5.1996 0
M  V30 1877 H 176.562 4.60544 3.41426 0
M  V30 1878 H 174.959 5.23457 2.9345 0
M  V30 1879 H 176.029 4.53996 1.70339 0
M  V30 1880 N 177.372 -0.689602 1.41712 0
M  V30 1881 C 178.335 -1.78521 1.43746 0
M  V30 1882 C 179.335 -1.57436 0.327191 0
M  V30 1883 O 180.525 -1.64 0.587348 0
M  V30 1884 C 177.657 -3.16971 1.25467 0
M  V30 1885 H 178.85 -1.78108 2.41283 0
M  V30 1886 H 176.403 -0.89781 1.27942 0
M  V30 1887 H 177.138 -3.23019 0.287948 0
M  V30 1888 H 176.923 -3.33678 2.05917 0
M  V30 1889 H 178.413 -3.96935 1.2974 0
M  V30 1890 N 178.85 -1.27639 -0.924453 0
M  V30 1891 C 179.78 -1.13166 -2.04244 0
M  V30 1892 C 180.761 -0.032256 -1.70069 0
M  V30 1893 O 181.946 -0.207328 -1.9309 0
M  V30 1894 C 179.076 -0.781496 -3.38393 0
M  V30 1895 C 178.03 -1.83449 -3.86692 0
M  V30 1896 C 177.356 -1.33822 -5.17683 0
M  V30 1897 C 178.656 -3.23917 -4.09726 0
M  V30 1898 H 180.35 -2.06689 -2.1661 0
M  V30 1899 H 177.896 -0.995136 -1.04082 0
M  V30 1900 H 179.849 -0.667057 -4.16087 0
M  V30 1901 H 178.573 0.189439 -3.2605 0
M  V30 1902 H 177.232 -1.93789 -3.11193 0
M  V30 1903 H 176.88 -0.35665 -5.01734 0
M  V30 1904 H 176.58 -2.04224 -5.50968 0
M  V30 1905 H 178.104 -1.23679 -5.97943 0
M  V30 1906 H 179.518 -3.16559 -4.77978 0
M  V30 1907 H 177.915 -3.92059 -4.54324 0
M  V30 1908 H 178.985 -3.68729 -3.14908 0
M  V30 1909 N 180.328 1.1314 -1.09713 0
M  V30 1910 C 181.744 1.36477 -0.827423 0
M  V30 1911 C 181.944 1.93654 0.556817 0
M  V30 1912 O 181 2.15791 1.31112 0
M  V30 1913 C 182.313 2.31334 -1.92106 0
M  V30 1914 C 183.861 2.44943 -1.94864 0
M  V30 1915 C 184.336 3.4311 -3.0338 0
M  V30 1916 N 185.827 3.50662 -3.02639 0
M  V30 1917 C 186.562 4.2651 -3.83246 0
M  V30 1918 N 186.058 5.05485 -4.73768 0
M  V30 1919 N 187.851 4.2184 -3.71493 0
M  V30 1920 H 180.002 0.743807 -1.9895 0
M  V30 1921 H 182.265 0.389823 -0.864143 0
M  V30 1922 H 181.971 1.96483 -2.91698 0
M  V30 1923 H 181.845 3.31381 -1.80184 0
M  V30 1924 H 184.232 2.79079 -0.959099 0
M  V30 1925 H 184.313 1.4481 -2.10864 0
M  V30 1926 H 183.957 3.09704 -4.02549 0
M  V30 1927 H 183.887 4.43055 -2.84622 0
M  V30 1928 H 186.378 2.94315 -2.37039 0
M  V30 1929 H 186.691 5.60675 -5.3185 0
M  V30 1930 H 185.036 5.04708 -4.77802 0
M  V30 1931 H 188.227 3.5922 -3.00131 0
M  V30 1932 H 188.4 4.80697 -4.3455 0
M  V30 1933 N 181.806 0.884767 1.30421 0
M  V30 1934 C 183.046 0.509806 1.9794 0
M  V30 1935 C 183.41 -0.923736 1.68319 0
M  V30 1936 O 184.611 -1.40481 2.29169 0
M  V30 1937 C 182.882 0.776732 3.48858 0
M  V30 1938 S 184.441 0.503843 4.35898 0
M  V30 1939 H 181.259 0.189699 0.685227 0
M  V30 1940 H 183.861 1.14399 1.58535 0
M  V30 1941 H 182.565 1.81857 3.67908 0
M  V30 1942 H 182.096 0.1301 3.93185 0
M  V30 1943 H 184.111 -0.657625 4.91823 0
M  V30 1944 N 183.284 -1.43765 0.645699 0
M  V30 1945 C 184.234 -2.27884 -0.0726442 0
M  V30 1946 C 185.218 -1.39483 -0.802086 0
M  V30 1947 O 186.41 -1.63174 -0.685791 0
M  V30 1948 C 183.539 -3.27055 -1.04356 0
M  V30 1949 C 182.625 -4.22944 -0.312985 0
M  V30 1950 N 183.016 -5.01391 0.666386 0
M  V30 1951 C 181.314 -4.42528 -0.55546 0
M  V30 1952 C 182.015 -5.71217 1.09935 0
M  V30 1953 N 180.991 -5.41856 0.435137 0
M  V30 1954 H 184.793 -2.85949 0.678988 0
M  V30 1955 H 182.307 -1.55378 0.472368 0
M  V30 1956 H 184.304 -3.86089 -1.57292 0
M  V30 1957 H 182.964 -2.70551 -1.79534 0
M  V30 1958 H 183.975 -5.07252 1.04481 0
M  V30 1959 H 180.652 -3.97104 -1.28899 0
M  V30 1960 H 182.042 -6.44202 1.90929 0
M  V30 1961 N 184.763 -0.387143 -1.52771 0
M  V30 1962 C 185.726 0.436939 -2.24997 0
M  V30 1963 C 186.726 0.991991 -1.26555 0
M  V30 1964 O 187.916 0.874335 -1.50669 0
M  V30 1965 C 185.048 1.61281 -3.00335 0
M  V30 1966 H 186.241 -0.195365 -2.99263 0
M  V30 1967 H 183.794 -0.139218 -1.55679 0
M  V30 1968 H 184.529 2.2826 -2.30364 0
M  V30 1969 H 184.314 1.22154 -3.72587 0
M  V30 1970 H 185.804 2.19629 -3.5518 0
M  V30 1971 N 186.241 1.57166 -0.116904 0
M  V30 1972 C 187.487 1.96206 0.536166 0
M  V30 1973 C 187.842 0.99915 1.64422 0
M  V30 1974 O 187.135 0.0288195 1.91578 0
M  V30 1975 C 187.329 3.39508 1.11664 0
M  V30 1976 C 187.158 4.49651 0.0663474 0
M  V30 1977 C 185.928 5.03982 -0.36474 0
M  V30 1978 C 188.126 5.09322 -0.713829 0
M  V30 1979 N 186.108 5.97699 -1.40102 0
M  V30 1980 C 187.479 5.98963 -1.60136 0
M  V30 1981 C 189.534 4.91989 -0.764948 0
M  V30 1982 C 188.237 6.73128 -2.53556 0
M  V30 1983 C 190.263 5.66833 -1.68685 0
M  V30 1984 C 189.625 6.56158 -2.56196 0
M  V30 1985 H 185.724 0.764203 0.165886 0
M  V30 1986 H 188.308 1.93623 -0.204535 0
M  V30 1987 H 186.479 3.42743 1.82707 0
M  V30 1988 H 188.211 3.65677 1.73386 0
M  V30 1989 H 184.966 4.73592 0.027252 0
M  V30 1990 H 185.39 6.49262 -1.91802 0
M  V30 1991 H 190.032 4.22676 -0.102501 0
M  V30 1992 H 187.75 7.41689 -3.20816 0
M  V30 1993 H 191.336 5.55427 -1.73181 0
M  V30 1994 H 190.216 7.13057 -3.26372 0
M  V30 1995 N 187.719 -0.156864 1.56817 0
M  V30 1996 C 188.666 -1.19394 1.97519 0
M  V30 1997 C 189.636 -1.4322 0.841265 0
M  V30 1998 O 190.821 -1.55719 1.10255 0
M  V30 1999 C 187.961 -2.52483 2.35258 0
M  V30 2000 C 187.074 -2.35914 3.61896 0
M  V30 2001 C 186.209 -3.61969 3.88782 0
M  V30 2002 C 185.248 -3.40395 5.08722 0
M  V30 2003 N 184.385 -4.58556 5.31668 0
M  V30 2004 H 189.225 -0.839845 2.85921 0
M  V30 2005 H 186.762 -0.403264 1.41464 0
M  V30 2006 H 188.72 -3.30071 2.55165 0
M  V30 2007 H 187.35 -2.85859 1.49949 0
M  V30 2008 H 186.402 -1.49429 3.49821 0
M  V30 2009 H 187.714 -2.15926 4.49641 0
M  V30 2010 H 186.868 -4.47989 4.09135 0
M  V30 2011 H 185.607 -3.84951 2.9944 0
M  V30 2012 H 184.612 -2.52763 4.88253 0
M  V30 2013 H 185.837 -3.18822 5.99608 0
M  V30 2014 H 183.783 -4.81729 4.45279 0
M  V30 2015 H 183.7 -4.41535 6.13664 0
M  V30 2016 H 184.968 -5.45817 5.5651 0
M  V30 2017 N 189.197 -1.51736 -0.425897 0
M  V30 2018 C 190.474 -1.55519 -1.1863 0
M  V30 2019 C 190.854 -0.326219 -2.08564 0
M  V30 2020 O 190.202 0.688012 -2.17896 0
M  V30 2021 C 190.412 -2.87521 -1.9782 0
M  V30 2022 C 191.76 -3.39899 -2.54468 0
M  V30 2023 O 192.784 -2.89148 -2.08019 0
M  V30 2024 O 191.643 -4.2848 -3.39215 0
M  V30 2025 H 188.737 -0.625739 -0.540721 0
M  V30 2026 H 191.283 -1.64055 -0.434038 0
M  V30 2027 H 190.055 -3.68422 -1.31836 0
M  V30 2028 H 189.678 -2.822 -2.80088 0
M  V30 2029 N 190.675 0.682077 -1.42076 0
M  V30 2030 C 191.622 1.79578 -1.44984 0
M  V30 2031 C 192.592 1.6332 -0.302614 0
M  V30 2032 O 193.777 1.83978 -0.505633 0
M  V30 2033 C 190.917 3.1756 -1.35091 0
M  V30 2034 C 190.03 3.45156 -2.59791 0
M  V30 2035 C 189.165 4.72826 -2.42093 0
M  V30 2036 C 188.204 4.93433 -3.62202 0
M  V30 2037 N 187.341 6.12338 -3.43491 0
M  V30 2038 H 192.181 1.76427 -2.40161 0
M  V30 2039 H 189.718 0.861376 -1.19242 0
M  V30 2040 H 191.676 3.97287 -1.27354 0
M  V30 2041 H 190.306 3.19854 -0.435133 0
M  V30 2042 H 189.358 2.59736 -2.77923 0
M  V30 2043 H 190.67 3.5628 -3.49094 0
M  V30 2044 H 189.824 5.60631 -2.319 0
M  V30 2045 H 188.563 4.63973 -1.50268 0
M  V30 2046 H 187.568 4.04073 -3.72834 0
M  V30 2047 H 188.793 5.04136 -4.54998 0
M  V30 2048 H 186.739 6.04672 -2.54377 0
M  V30 2049 H 186.656 6.2429 -4.26377 0
M  V30 2050 H 187.924 7.02841 -3.37097 0
M  V30 2051 N 192.153 1.28127 0.917671 0
M  V30 2052 C 193.083 1.14248 2.03641 0
M  V30 2053 C 194.064 0.0412748 1.7005 0
M  V30 2054 O 195.249 0.217566 1.92977 0
M  V30 2055 C 192.379 0.799431 3.37974 0
M  V30 2056 C 191.333 1.85497 3.85713 0
M  V30 2057 C 190.659 1.36565 5.16966 0
M  V30 2058 C 191.959 3.26085 4.08002 0
M  V30 2059 H 193.653 2.07835 2.15511 0
M  V30 2060 H 191.199 1.00064 1.03553 0
M  V30 2061 H 193.152 0.689114 4.15727 0
M  V30 2062 H 191.876 -0.172145 3.26146 0
M  V30 2063 H 190.535 1.95437 3.10161 0
M  V30 2064 H 190.183 0.383253 5.01538 0
M  V30 2065 H 189.883 2.07143 5.49878 0
M  V30 2066 H 191.407 1.26848 5.97279 0
M  V30 2067 H 192.821 3.19089 4.76293 0
M  V30 2068 H 191.218 3.94462 4.52238 0
M  V30 2069 H 192.288 3.70394 3.12948 0
M  V30 2070 N 193.631 -1.12557 1.10312 0
M  V30 2071 C 194.877 -1.84311 0.846011 0
M  V30 2072 C 195.21 -1.83805 -0.626859 0
M  V30 2073 O 194.485 -1.28268 -1.46211 0
M  V30 2074 C 194.768 -3.32048 1.39341 0
M  V30 2075 C 194.621 -3.41016 2.93305 0
M  V30 2076 C 195.94 -4.27764 1.03468 0
M  V30 2077 H 193.059 -0.669192 0.30879 0
M  V30 2078 H 195.701 -1.32057 1.36605 0
M  V30 2079 H 193.851 -3.76678 0.951087 0
M  V30 2080 H 195.523 -3.05031 3.46055 0
M  V30 2081 H 193.766 -2.81603 3.29973 0
M  V30 2082 H 194.437 -4.44948 3.26689 0
M  V30 2083 H 196.913 -3.91253 1.41633 0
M  V30 2084 H 195.789 -5.29549 1.44463 0
M  V30 2085 H 196.05 -4.42064 -0.0560404 0
M  V30 2086 N 195.109 -0.891671 -1.2995 0
M  V30 2087 C 196.339 -0.527893 -1.99742 0
M  V30 2088 C 196.747 0.88979 -1.66971 0
M  V30 2089 O 196.09 1.59766 -0.906667 0
M  V30 2090 C 196.152 -0.630804 -3.53922 0
M  V30 2091 C 195.816 -2.01401 -4.10228 0
M  V30 2092 C 196.813 -2.98422 -4.25724 0
M  V30 2093 C 194.498 -2.32121 -4.45449 0
M  V30 2094 C 196.492 -4.24293 -4.75662 0
M  V30 2095 C 194.179 -3.58237 -4.95086 0
M  V30 2096 C 195.177 -4.54137 -5.10146 0
M  V30 2097 O 194.865 -5.78014 -5.58708 0
M  V30 2098 H 194.597 -0.201953 -0.645129 0
M  V30 2099 H 197.151 -1.20076 -1.66646 0
M  V30 2100 H 195.381 0.0990616 -3.86573 0
M  V30 2101 H 197.07 -0.277338 -4.04951 0
M  V30 2102 H 197.836 -2.76001 -3.98809 0
M  V30 2103 H 193.715 -1.5824 -4.32991 0
M  V30 2104 H 197.259 -4.99153 -4.87332 0
M  V30 2105 H 193.156 -3.80491 -5.21437 0
M  V30 2106 H 193.924 -5.8049 -5.77039 0
M  V30 2107 N 196.587 1.43421 -0.653314 0
M  V30 2108 C 197.535 2.32546 0.0501531 0
M  V30 2109 C 198.529 1.48617 0.812985 0
M  V30 2110 O 199.735 1.64825 0.723375 0
M  V30 2111 H 196.11 0.751185 0.0350032 0
M  V30 2112 H 198.081 2.89602 -0.719261 0
M  V30 2113 C 196.83 3.32925 1.00279 0
M  V30 2114 H 196.153 3.97532 0.425236 0
M  V30 2115 H 197.593 3.9792 1.46409 0
M  V30 2116 C 196.052 2.63532 2.09886 0
M  V30 2117 O 196.582 2.45092 3.18265 0
M  V30 2118 N 194.788 2.22905 1.86445 0
M  V30 2119 H 194.335 2.38103 0.98309 0
M  V30 2120 H 194.293 1.76805 2.59976 0
M  V30 2121 N 198.065 0.39524 1.52563 0
M  V30 2122 C 199.311 -0.185318 2.01952 0
M  V30 2123 C 199.644 -1.45964 1.28095 0
M  V30 2124 O 198.919 -1.90689 0.38315 0
M  V30 2125 C 199.202 -0.447193 3.57312 0
M  V30 2126 C 199.055 0.842828 4.41833 0
M  V30 2127 C 200.374 -1.23529 4.22408 0
M  V30 2128 H 197.493 -0.0658788 0.73405 0
M  V30 2129 H 200.135 0.525975 1.82575 0
M  V30 2130 H 198.285 -1.05312 3.73954 0
M  V30 2131 H 199.957 1.4795 4.36931 0
M  V30 2132 H 198.2 1.45686 4.08605 0
M  V30 2133 H 198.871 0.614165 5.48573 0
M  V30 2134 H 201.347 -0.722445 4.0978 0
M  V30 2135 H 200.223 -1.38727 5.3108 0
M  V30 2136 H 200.484 -2.25213 3.80436 0
M  V30 2137 N 199.544 -1.57102 0.125237 0
M  V30 2138 C 200.474 -2.18659 -0.819174 0
M  V30 2139 C 201.455 -1.12843 -1.27281 0
M  V30 2140 O 202.64 -1.41104 -1.33429 0
M  V30 2141 C 199.77 -2.79096 -2.06695 0
M  V30 2142 C 198.724 -3.90548 -1.75088 0
M  V30 2143 C 198.05 -4.37821 -3.06948 0
M  V30 2144 C 199.35 -5.12356 -1.01435 0
M  V30 2145 H 201.044 -2.9783 -0.306202 0
M  V30 2146 H 198.59 -1.4326 -0.145839 0
M  V30 2147 H 200.543 -3.2082 -2.73226 0
M  V30 2148 H 199.267 -1.97223 -2.60328 0
M  V30 2149 H 197.926 -3.49409 -1.10944 0
M  V30 2150 H 197.574 -3.52799 -3.58527 0
M  V30 2151 H 197.274 -5.12982 -2.86571 0
M  V30 2152 H 198.798 -4.822 -3.74587 0
M  V30 2153 H 200.212 -5.5106 -1.58132 0
M  V30 2154 H 198.609 -5.9314 -0.911319 0
M  V30 2155 H 199.679 -4.849 -0.00218681 0
M  V30 2156 N 201.022 0.148545 -1.56898 0
M  V30 2157 C 202.252 0.875118 -1.8715 0
M  V30 2158 C 202.66 1.75322 -0.711262 0
M  V30 2159 O 202.003 1.80745 0.328151 0
M  V30 2160 C 202.065 1.7844 -3.12089 0
M  V30 2161 C 201.729 1.08361 -4.43967 0
M  V30 2162 C 202.726 0.438247 -5.1805 0
M  V30 2163 C 200.411 1.07358 -4.90693 0
M  V30 2164 C 202.405 -0.20779 -6.37061 0
M  V30 2165 C 200.092 0.42373 -6.09629 0
M  V30 2166 C 201.09 -0.215829 -6.82659 0
M  V30 2167 O 200.778 -0.855378 -7.99336 0
M  V30 2168 H 200.51 0.258504 -0.624621 0
M  V30 2169 H 203.064 0.14652 -2.04877 0
M  V30 2170 H 201.294 2.55389 -2.90367 0
M  V30 2171 H 202.983 2.38279 -3.286 0
M  V30 2172 H 203.749 0.437817 -4.8302 0
M  V30 2173 H 199.628 1.5608 -4.33774 0
M  V30 2174 H 203.172 -0.70758 -6.94002 0
M  V30 2175 H 199.069 0.421822 -6.4412 0
M  V30 2176 H 199.837 -0.756892 -8.14993 0
M  V30 2177 N 202.5 1.5196 0.417844 0
M  V30 2178 C 203.73 1.69181 1.18581 0
M  V30 2179 C 204.138 0.397104 1.84986 0
M  V30 2180 O 203.481 -0.636011 1.72339 0
M  V30 2181 C 203.543 2.76497 2.29759 0
M  V30 2182 C 203.207 4.18514 1.83563 0
M  V30 2183 C 204.204 5.02648 1.32821 0
M  V30 2184 C 201.889 4.64708 1.90661 0
M  V30 2185 C 203.883 6.31044 0.897894 0
M  V30 2186 C 201.57 5.93096 1.47241 0
M  V30 2187 C 202.568 6.76093 0.968891 0
M  V30 2188 O 202.256 8.02078 0.540924 0
M  V30 2189 H 201.988 0.570457 0.362705 0
M  V30 2190 H 204.542 1.99249 0.498885 0
M  V30 2191 H 202.772 2.41786 3.01789 0
M  V30 2192 H 204.461 2.82403 2.91553 0
M  V30 2193 H 205.227 4.68154 1.26716 0
M  V30 2194 H 201.106 4.00216 2.28797 0
M  V30 2195 H 204.65 6.95776 0.504192 0
M  V30 2196 H 200.547 6.271 1.53022 0
M  V30 2197 H 201.315 8.15794 0.66502 0
M  V30 2198 N 203.978 -0.674533 1.42435 0
M  V30 2199 C 205.394 -0.98769 1.25367 0
M  V30 2200 C 205.594 -2.00879 0.158044 0
M  V30 2201 O 204.65 -2.48075 -0.470633 0
M  V30 2202 C 205.963 -1.49224 2.6106 0
M  V30 2203 C 207.511 -1.61 2.68417 0
M  V30 2204 C 207.986 -2.14852 4.04478 0
M  V30 2205 N 209.477 -2.22185 4.06434 0
M  V30 2206 C 210.212 -2.64928 5.08528 0
M  V30 2207 N 209.708 -3.07121 6.21006 0
M  V30 2208 N 211.501 -2.64679 4.95885 0
M  V30 2209 H 203.652 0.00152503 2.124 0
M  V30 2210 H 205.915 -0.0618434 0.945981 0
M  V30 2211 H 205.621 -0.816453 3.42092 0
M  V30 2212 H 205.495 -2.47094 2.84999 0
M  V30 2213 H 207.882 -2.27686 1.87732 0
M  V30 2214 H 207.963 -0.616195 2.48267 0
M  V30 2215 H 207.607 -1.48775 4.85622 0
M  V30 2216 H 207.537 -3.15024 4.2198 0
M  V30 2217 H 210.028 -1.92435 3.25234 0
M  V30 2218 H 210.341 -3.38423 6.94759 0
M  V30 2219 H 208.686 -3.04978 6.24511 0
M  V30 2220 H 211.877 -2.31078 4.07088 0
M  V30 2221 H 212.05 -2.9767 5.75584 0
M  V30 2222 N 205.456 -1.28612 -0.910864 0
M  V30 2223 C 206.404 -1.1265 -2.03501 0
M  V30 2224 C 207.398 -0.0450054 -1.6934 0
M  V30 2225 O 208.604 -0.203988 -1.7884 0
M  V30 2226 H 204.979 -0.347639 -0.666822 0
M  V30 2227 H 206.95 -2.07849 -2.14106 0
M  V30 2228 C 205.699 -0.808143 -3.38178 0
M  V30 2229 H 205.022 -1.63231 -3.6496 0
M  V30 2230 H 206.462 -0.736426 -4.17556 0
M  V30 2231 C 204.921 0.488226 -3.33344 0
M  V30 2232 O 205.451 1.51766 -3.71927 0
M  V30 2233 N 203.657 0.490009 -2.86439 0
M  V30 2234 H 203.204 -0.348161 -2.55236 0
M  V30 2235 H 203.162 1.35741 -2.83587 0
M  V30 2236 N 206.934 1.1197 -1.10907 0
M  V30 2237 C 208.182 1.83225 -0.852819 0
M  V30 2238 C 208.503 1.84769 0.623341 0
M  V30 2239 O 207.773 1.3143 1.45269 0
M  V30 2240 H 206.353 0.67849 -0.312507 0
M  V30 2241 H 209.015 1.3556 -1.40033 0
M  V30 2242 H 208.111 2.87265 -1.22005 0
M  V30 2243 N 208.412 0.89855 1.29475 0
M  V30 2244 C 209.359 0.373819 2.27753 0
M  V30 2245 C 210.329 -0.543444 1.56958 0
M  V30 2246 O 211.514 -0.468934 1.84948 0
M  V30 2247 C 208.654 -0.393648 3.42848 0
M  V30 2248 C 207.767 0.554379 4.28428 0
M  V30 2249 C 206.902 -0.230026 5.30702 0
M  V30 2250 C 205.941 0.712599 6.07938 0
M  V30 2251 N 205.078 -0.0373283 7.0209 0
M  V30 2252 H 209.918 1.21699 2.72017 0
M  V30 2253 H 207.455 0.611456 1.33789 0
M  V30 2254 H 209.413 -0.85466 4.08352 0
M  V30 2255 H 208.043 -1.20128 2.99615 0
M  V30 2256 H 207.095 1.13391 3.63107 0
M  V30 2257 H 208.407 1.27597 4.82204 0
M  V30 2258 H 207.561 -0.752288 6.02018 0
M  V30 2259 H 206.3 -0.984758 4.77654 0
M  V30 2260 H 205.305 1.24637 5.35486 0
M  V30 2261 H 206.53 1.46664 6.63074 0
M  V30 2262 H 204.476 -0.774348 6.51414 0
M  V30 2263 H 204.393 0.624374 7.53417 0
M  V30 2264 H 205.661 -0.539891 7.77628 0
M  V30 2265 N 209.89 -1.43072 0.660911 0
M  V30 2266 C 210.853 -2.29194 -0.0166406 0
M  V30 2267 C 211.853 -1.42609 -0.742912 0
M  V30 2268 O 213.043 -1.64155 -0.583004 0
M  V30 2269 C 210.175 -3.24831 -1.0343 0
M  V30 2270 H 211.368 -2.90596 0.741208 0
M  V30 2271 H 208.921 -1.5048 0.422532 0
M  V30 2272 H 209.656 -2.68339 -1.82111 0
M  V30 2273 H 209.441 -3.88676 -0.517082 0
M  V30 2274 H 210.931 -3.89451 -1.50723 0
M  V30 2275 N 211.368 -0.403325 -1.52352 0
M  V30 2276 C 212.615 0.174347 -2.01748 0
M  V30 2277 C 212.943 1.45636 -1.2892 0
M  V30 2278 O 212.198 1.9193 -0.382258 0
M  V30 2279 C 212.497 0.474665 -3.54234 0
M  V30 2280 C 212.163 -0.717458 -4.45155 0
M  V30 2281 C 210.825 -1.04447 -4.69728 0
M  V30 2282 C 213.177 -1.51432 -4.98716 0
M  V30 2283 C 210.505 -2.16963 -5.45109 0
M  V30 2284 C 212.857 -2.6302 -5.75329 0
M  V30 2285 C 211.521 -2.96213 -5.98175 0
M  V30 2286 H 210.791 0.0637981 -0.738248 0
M  V30 2287 H 213.438 -0.543553 -1.83624 0
M  V30 2288 H 211.743 1.27406 -3.70506 0
M  V30 2289 H 213.44 0.934496 -3.89959 0
M  V30 2290 H 210.03 -0.452596 -4.26204 0
M  V30 2291 H 214.214 -1.27491 -4.79645 0
M  V30 2292 H 209.47 -2.43034 -5.61021 0
M  V30 2293 H 213.644 -3.25158 -6.15829 0
M  V30 2294 H 211.271 -3.83516 -6.56368 0
M  V30 2295 N 212.846 1.57033 -0.133567 0
M  V30 2296 C 213.793 2.16074 0.811208 0
M  V30 2297 C 214.763 1.08979 1.2535 0
M  V30 2298 O 215.948 1.36958 1.32843 0
M  V30 2299 C 213.088 2.77595 2.05024 0
M  V30 2300 C 212.201 3.99042 1.65498 0
M  V30 2301 C 211.336 4.48603 2.84479 0
M  V30 2302 C 210.375 5.62547 2.41262 0
M  V30 2303 N 209.512 6.06787 3.53206 0
M  V30 2304 H 214.352 2.96477 0.300906 0
M  V30 2305 H 211.889 1.46462 0.136822 0
M  V30 2306 H 213.847 3.11402 2.77642 0
M  V30 2307 H 212.477 1.99859 2.53488 0
M  V30 2308 H 211.529 3.71302 0.826981 0
M  V30 2309 H 212.841 4.81629 1.29748 0
M  V30 2310 H 211.995 4.84395 3.65303 0
M  V30 2311 H 210.734 3.64995 3.23465 0
M  V30 2312 H 209.739 5.26345 1.58874 0
M  V30 2313 H 210.964 6.47931 2.03377 0
M  V30 2314 H 208.91 5.26117 3.91838 0
M  V30 2315 H 208.827 6.84266 3.21427 0
M  V30 2316 H 210.095 6.4722 4.34427 0
M  V30 2317 N 214.325 -0.140222 1.56975 0
M  V30 2318 C 215.572 -0.851687 1.83719 0
M  V30 2319 C 215.9 -1.80862 0.715485 0
M  V30 2320 O 215.155 -1.93464 -0.294956 0
M  V30 2321 C 215.454 -1.65386 3.16832 0
M  V30 2322 C 215.12 -0.843112 4.42947 0
M  V30 2323 C 213.782 -0.619464 4.77196 0
M  V30 2324 C 216.134 -0.276582 5.20466 0
M  V30 2325 C 213.462 0.181312 5.8642 0
M  V30 2326 C 215.814 0.51127 6.30531 0
M  V30 2327 C 214.478 0.745432 6.63325 0
M  V30 2328 H 213.748 -0.311654 0.672274 0
M  V30 2329 H 216.395 -0.115006 1.91154 0
M  V30 2330 H 214.7 -2.46084 3.04877 0
M  V30 2331 H 216.397 -2.20793 3.34741 0
M  V30 2332 H 212.987 -1.0275 4.16101 0
M  V30 2333 H 217.171 -0.436632 4.94376 0
M  V30 2334 H 212.427 0.372165 6.10266 0
M  V30 2335 H 216.601 0.957354 6.89788 0
M  V30 2336 H 214.228 1.36778 7.47794 0
M  V30 2337 N 215.803 -1.52179 -0.40978 0
M  V30 2338 C 217.05 -1.66206 -1.15679 0
M  V30 2339 C 217.378 -0.391674 -1.90516 0
M  V30 2340 O 216.633 0.62533 -1.8544 0
M  V30 2341 C 216.932 -2.83428 -2.17723 0
M  V30 2342 C 216.598 -4.21672 -1.59699 0
M  V30 2343 C 215.26 -4.59274 -1.43599 0
M  V30 2344 C 217.612 -5.07825 -1.17317 0
M  V30 2345 C 214.94 -5.80709 -0.836328 0
M  V30 2346 C 217.292 -6.29864 -0.587691 0
M  V30 2347 C 215.956 -6.66216 -0.413818 0
M  V30 2348 H 215.226 -0.608192 -0.423301 0
M  V30 2349 H 217.873 -1.86279 -0.444097 0
M  V30 2350 H 216.178 -2.57687 -2.95135 0
M  V30 2351 H 217.875 -2.91477 -2.75394 0
M  V30 2352 H 214.465 -3.9204 -1.73213 0
M  V30 2353 H 218.649 -4.79359 -1.28565 0
M  V30 2354 H 213.905 -6.07498 -0.689626 0
M  V30 2355 H 218.079 -6.95948 -0.250894 0
M  V30 2356 H 215.706 -7.60182 0.0529471 0
M  V30 2357 N 217.281 0.66697 -1.42791 0
M  V30 2358 C 218.231 1.77313 -1.43332 0
M  V30 2359 C 219.215 1.5801 -0.303586 0
M  V30 2360 O 220.407 1.68356 -0.546385 0
M  V30 2361 C 217.536 3.15822 -1.34578 0
M  V30 2362 C 216.622 3.40721 -2.52528 0
M  V30 2363 N 217.013 3.36162 -3.77927 0
M  V30 2364 C 215.311 3.71387 -2.46956 0
M  V30 2365 C 216.012 3.60762 -4.56318 0
M  V30 2366 N 214.988 3.81908 -3.86843 0
M  V30 2367 H 218.79 1.72193 -2.38174 0
M  V30 2368 H 216.304 0.868114 -1.3725 0
M  V30 2369 H 218.301 3.951 -1.33048 0
M  V30 2370 H 216.961 3.22133 -0.407453 0
M  V30 2371 H 217.972 3.15885 -4.10411 0
M  V30 2372 H 214.649 3.84897 -1.61743 0
M  V30 2373 H 216.039 3.63132 -5.65318 0
M  V30 2374 N 218.759 1.29093 0.90403 0
M  V30 2375 C 220.005 1.17996 1.65676 0
M  V30 2376 C 220.36 -0.266816 1.90541 0
M  V30 2377 O 219.653 -1.19 1.50165 0
M  V30 2378 C 219.847 1.92224 3.01305 0
M  V30 2379 C 219.676 3.43972 2.89678 0
M  V30 2380 C 218.446 4.1332 2.90679 0
M  V30 2381 C 220.644 4.39546 2.67028 0
M  V30 2382 N 218.626 5.51463 2.69743 0
M  V30 2383 C 219.997 5.65119 2.5503 0
M  V30 2384 C 222.052 4.29359 2.52101 0
M  V30 2385 C 220.755 6.81663 2.29626 0
M  V30 2386 C 222.781 5.4565 2.28079 0
M  V30 2387 C 222.143 6.70193 2.16843 0
M  V30 2388 H 218.242 0.486759 0.612037 0
M  V30 2389 H 220.826 1.62868 1.06688 0
M  V30 2390 H 218.997 1.49773 3.58361 0
M  V30 2391 H 220.729 1.73429 3.65656 0
M  V30 2392 H 217.484 3.64984 3.01801 0
M  V30 2393 H 217.908 6.24105 2.6234 0
M  V30 2394 H 222.55 3.33769 2.59534 0
M  V30 2395 H 220.268 7.77313 2.20932 0
M  V30 2396 H 223.854 5.39664 2.1738 0
M  V30 2397 H 222.734 7.58659 1.98511 0
M  V30 2398 N 220.237 -1.11381 1.11499 0
M  V30 2399 C 221.185 -2.19522 0.768956 0
M  V30 2400 C 222.179 -1.67693 -0.239857 0
M  V30 2401 O 223.385 -1.79727 -0.0990755 0
M  V30 2402 H 219.76 -0.715711 0.230786 0
M  V30 2403 H 221.731 -2.45954 1.68964 0
M  V30 2404 C 220.48 -3.46945 0.229073 0
M  V30 2405 H 219.803 -3.8718 0.996596 0
M  V30 2406 H 221.243 -4.23993 0.0251441 0
M  V30 2407 C 219.702 -3.2042 -1.04079 0
M  V30 2408 O 220.232 -3.41178 -2.12038 0
M  V30 2409 N 218.438 -2.74151 -0.963823 0
M  V30 2410 H 217.985 -2.57459 -0.0851722 0
M  V30 2411 H 217.943 -2.56781 -1.81414 0
M  V30 2412 N 221.715 -0.905404 -1.28997 0
M  V30 2413 C 222.94 -0.549175 -1.99997 0
M  V30 2414 C 223.365 0.860276 -1.67275 0
M  V30 2415 O 222.723 1.57355 -0.900502 0
M  V30 2416 C 222.771 -0.755185 -3.52604 0
M  V30 2417 O 221.875 0.189692 -4.11964 0
M  V30 2418 H 221.216 -0.213899 -0.628604 0
M  V30 2419 H 223.746 -1.21856 -1.64354 0
M  V30 2420 H 223.756 -0.662045 -4.02593 0
M  V30 2421 H 222.431 -1.78271 -3.75755 0
M  V30 2422 H 221.008 0.0485257 -3.72868 0
M  V30 2423 N 223.193 1.4272 -0.668489 0
M  V30 2424 C 224.141 2.32586 0.0254857 0
M  V30 2425 C 225.135 1.49471 0.797176 0
M  V30 2426 O 226.341 1.65583 0.705853 0
M  V30 2427 H 222.716 0.751514 0.0270339 0
M  V30 2428 H 224.687 2.88823 -0.749936 0
M  V30 2429 C 223.436 3.3397 0.967427 0
M  V30 2430 H 222.759 3.97961 0.383048 0
M  V30 2431 H 224.199 3.9945 1.42181 0
M  V30 2432 C 222.658 2.65744 2.0708 0
M  V30 2433 O 223.188 2.48454 3.15648 0
M  V30 2434 N 221.394 2.2487 1.8407 0
M  V30 2435 H 220.941 2.39132 0.95778 0
M  V30 2436 H 220.899 1.79552 2.58086 0
M  V30 2437 N 224.671 0.411399 1.52136 0
M  V30 2438 C 225.601 -0.404015 2.29978 0
M  V30 2439 C 226.582 -1.04412 1.34284 0
M  V30 2440 O 227.767 -1.0527 1.63192 0
M  V30 2441 C 224.897 -1.5197 3.12286 0
M  V30 2442 C 223.851 -1.00448 4.16046 0
M  V30 2443 C 223.177 -2.21393 4.86712 0
M  V30 2444 C 224.477 -0.0569336 5.22269 0
M  V30 2445 H 226.171 0.245529 2.98392 0
M  V30 2446 H 223.717 0.119525 1.43503 0
M  V30 2447 H 225.67 -2.09715 3.6551 0
M  V30 2448 H 224.394 -2.19716 2.41646 0
M  V30 2449 H 223.053 -0.449421 3.63835 0
M  V30 2450 H 222.701 -2.87699 4.12599 0
M  V30 2451 H 222.401 -1.87571 5.56858 0
M  V30 2452 H 223.925 -2.7974 5.4275 0
M  V30 2453 H 225.339 -0.54325 5.7072 0
M  V30 2454 H 223.736 0.192594 5.99791 0
M  V30 2455 H 224.806 0.887663 4.76706 0
M  V30 2456 N 226.149 -1.5696 0.141893 0
M  V30 2457 C 227.377 -2.00322 -0.517579 0
M  V30 2458 C 227.792 -1.02193 -1.58752 0
M  V30 2459 O 227.149 -0.0181619 -1.82491 0
M  V30 2460 C 227.2 -3.43618 -1.12289 0
M  V30 2461 O 226.921 -4.37995 -0.0956929 0
M  V30 2462 C 228.422 -4.02231 -1.86347 0
M  V30 2463 H 225.642 -0.657243 -0.135177 0
M  V30 2464 H 228.186 -2.03146 0.234973 0
M  V30 2465 H 226.341 -3.41662 -1.82609 0
M  V30 2466 H 226.755 -5.21729 -0.538469 0
M  V30 2467 H 228.229 -5.04509 -2.23997 0
M  V30 2468 H 228.706 -3.42655 -2.74744 0
M  V30 2469 H 229.312 -4.07802 -1.20737 0
M  V30 2470 N 227.627 0.131896 -1.57047 0
M  V30 2471 C 228.876 0.84044 -1.83356 0
M  V30 2472 C 229.189 1.81646 -0.725535 0
M  V30 2473 O 230.395 2.57025 -0.874659 0
M  V30 2474 C 228.851 1.54528 -3.25037 0
M  V30 2475 C 228.459 0.610902 -4.43815 0
M  V30 2476 C 230.203 2.23972 -3.60606 0
M  V30 2477 C 228.11 1.31823 -5.76521 0
M  V30 2478 H 227.04 0.317599 -0.683847 0
M  V30 2479 H 229.691 0.0931561 -1.83263 0
M  V30 2480 H 228.073 2.33873 -3.19561 0
M  V30 2481 H 229.247 -0.148407 -4.60561 0
M  V30 2482 H 227.562 0.0241016 -4.16393 0
M  V30 2483 H 230.159 2.77558 -4.57018 0
M  V30 2484 H 230.502 3.01173 -2.87403 0
M  V30 2485 H 231.035 1.51529 -3.6781 0
M  V30 2486 H 227.774 0.587771 -6.52859 0
M  V30 2487 H 227.294 2.04987 -5.63685 0
M  V30 2488 H 228.973 1.855 -6.19838 0
M  V30 2489 N 229.106 1.52395 0.401703 0
M  V30 2490 C 230.036 1.79231 1.49661 0
M  V30 2491 C 231.017 0.643654 1.57452 0
M  V30 2492 O 232.202 0.889989 1.72606 0
M  V30 2493 C 229.332 1.94971 2.87409 0
M  V30 2494 C 228.286 3.10604 2.94465 0
M  V30 2495 C 227.612 3.11577 4.34538 0
M  V30 2496 C 228.912 4.49921 2.6527 0
M  V30 2497 H 230.606 2.70917 1.27454 0
M  V30 2498 H 228.152 1.30362 0.6117 0
M  V30 2499 H 230.105 2.12328 3.63999 0
M  V30 2500 H 228.829 0.999632 3.10926 0
M  V30 2501 H 227.488 2.93009 2.20321 0
M  V30 2502 H 227.136 2.14277 4.55076 0
M  V30 2503 H 226.836 3.89247 4.40183 0
M  V30 2504 H 228.36 3.31073 5.13053 0
M  V30 2505 H 229.774 4.67683 3.31581 0
M  V30 2506 H 228.171 5.29564 2.82281 0
M  V30 2507 H 229.241 4.57507 1.60671 0
M  V30 2508 N 230.584 -0.659388 1.43143 0
M  V30 2509 C 231.531 -1.77249 1.47822 0
M  V30 2510 C 232.501 -1.62818 0.328558 0
M  V30 2511 O 233.686 -1.83151 0.534838 0
M  V30 2512 C 230.826 -3.15371 1.40126 0
M  V30 2513 C 229.939 -3.4098 2.65249 0
M  V30 2514 C 229.074 -4.68915 2.49584 0
M  V30 2515 C 228.113 -4.87608 3.70006 0
M  V30 2516 N 227.25 -6.06796 3.53189 0
M  V30 2517 H 232.09 -1.72584 2.42938 0
M  V30 2518 H 229.627 -0.842297 1.20598 0
M  V30 2519 H 231.585 -3.9521 1.33659 0
M  V30 2520 H 230.215 -3.19121 0.485964 0
M  V30 2521 H 229.267 -2.55282 2.8202 0
M  V30 2522 H 230.579 -3.50681 3.54717 0
M  V30 2523 H 229.733 -5.56871 2.4079 0
M  V30 2524 H 228.472 -4.61524 1.5763 0
M  V30 2525 H 227.477 -3.9809 3.79215 0
M  V30 2526 H 228.702 -4.96834 4.62961 0
M  V30 2527 H 226.648 -6.00549 2.63965 0
M  V30 2528 H 226.565 -6.17428 4.36255 0
M  V30 2529 H 227.833 -6.9739 3.48236 0
M  V30 2530 N 232.062 -1.29571 -0.897171 0
M  V30 2531 C 233.29 -1.20583 -1.68129 0
M  V30 2532 C 233.705 0.233181 -1.87354 0
M  V30 2533 O 233.062 1.15579 -1.41236 0
M  V30 2534 C 233.113 -1.91772 -3.06441 0
M  V30 2535 O 232.834 -3.30053 -2.88091 0
M  V30 2536 C 234.335 -1.89291 -4.00854 0
M  V30 2537 H 231.555 -0.417826 -0.525036 0
M  V30 2538 H 234.099 -1.70987 -1.12177 0
M  V30 2539 H 232.254 -1.45196 -3.59161 0
M  V30 2540 H 232.668 -3.65942 -3.75748 0
M  V30 2541 H 234.142 -2.43662 -4.95311 0
M  V30 2542 H 234.619 -0.869014 -4.30517 0
M  V30 2543 H 235.225 -2.35622 -3.54066 0
M  V30 2544 N 233.54 1.10788 -1.12088 0
M  V30 2545 C 234.488 2.19111 -0.780587 0
M  V30 2546 C 235.482 1.67818 0.230961 0
M  V30 2547 O 236.688 1.79777 0.0895427 0
M  V30 2548 H 233.063 0.714477 -0.234578 0
M  V30 2549 H 235.034 2.45055 -1.70266 0
M  V30 2550 C 233.783 3.46818 -0.24747 0
M  V30 2551 H 233.106 3.86646 -1.01712 0
M  V30 2552 H 234.546 4.23973 -0.0476291 0
M  V30 2553 C 233.005 3.20968 1.02378 0
M  V30 2554 O 233.535 3.42298 2.10226 0
M  V30 2555 N 231.741 2.74658 0.949271 0
M  V30 2556 H 231.288 2.57501 0.0715173 0
M  V30 2557 H 231.246 2.57739 1.80049 0
M  V30 2558 N 235.018 0.912232 1.28515 0
M  V30 2559 C 236.267 0.540504 1.94323 0
M  V30 2560 C 236.58 -0.920044 1.72611 0
M  V30 2561 O 237.786 -1.39986 2.32629 0
M  V30 2562 C 236.242 0.915803 3.48053 0
M  V30 2563 C 235.85 2.39598 3.78546 0
M  V30 2564 C 237.594 0.614588 4.20027 0
M  V30 2565 C 235.501 2.71148 5.25578 0
M  V30 2566 H 234.431 0.198418 0.727424 0
M  V30 2567 H 237.082 1.11094 1.46049 0
M  V30 2568 H 235.464 0.274168 3.9505 0
M  V30 2569 H 236.638 3.08422 3.42364 0
M  V30 2570 H 234.953 2.66749 3.1974 0
M  V30 2571 H 237.55 0.827002 5.28266 0
M  V30 2572 H 237.893 -0.447531 4.13887 0
M  V30 2573 H 238.426 1.21462 3.78803 0
M  V30 2574 H 235.165 3.76207 5.36794 0
M  V30 2575 H 234.685 2.0696 5.62963 0
M  V30 2576 H 236.364 2.58072 5.93302 0
M  V30 2577 N 236.496 -1.42363 0.676048 0
M  V30 2578 C 237.721 -2.06377 0.205705 0
M  V30 2579 C 238.146 -1.50463 -1.12883 0
M  V30 2580 O 237.504 -0.623619 -1.70237 0
M  V30 2581 C 237.552 -3.60277 0.152655 0
M  V30 2582 O 236.656 -4.02935 -0.87845 0
M  V30 2583 H 235.997 -0.655588 0.105359 0
M  V30 2584 H 238.527 -1.82475 0.925412 0
M  V30 2585 H 238.537 -4.07993 -0.0230675 0
M  V30 2586 H 237.212 -4.00346 1.12675 0
M  V30 2587 H 235.789 -3.66764 -0.673668 0
M  V30 2588 N 237.974 -0.419461 -1.51915 0
M  V30 2589 C 238.924 0.418496 -2.24126 0
M  V30 2590 C 239.908 1.00495 -1.25656 0
M  V30 2591 O 241.1 0.926058 -1.50842 0
M  V30 2592 C 238.229 1.52899 -3.07371 0
M  V30 2593 C 237.315 0.952797 -4.13258 0
M  V30 2594 N 237.706 0.104175 -5.05693 0
M  V30 2595 C 236.004 1.22224 -4.28926 0
M  V30 2596 C 236.705 -0.21752 -5.81293 0
M  V30 2597 N 235.681 0.394293 -5.42168 0
M  V30 2598 H 239.483 -0.236048 -2.92951 0
M  V30 2599 H 236.997 -0.230481 -1.60756 0
M  V30 2600 H 238.994 2.14199 -3.57665 0
M  V30 2601 H 237.654 2.18605 -2.40088 0
M  V30 2602 H 238.665 -0.260924 -5.17242 0
M  V30 2603 H 235.342 1.87812 -3.72871 0
M  V30 2604 H 236.732 -0.906992 -6.6575 0
M  V30 2605 N 239.452 1.56882 -0.150215 0
M  V30 2606 C 240.4 2.18214 0.805313 0
M  V30 2607 C 241.394 1.14006 1.25296 0
M  V30 2608 O 242.6 1.3225 1.22107 0
M  V30 2609 H 238.975 0.698762 0.277913 0
M  V30 2610 H 240.946 2.97231 0.263862 0
M  V30 2611 C 239.695 2.82065 2.03309 0
M  V30 2612 H 239.018 3.61968 1.69763 0
M  V30 2613 H 240.458 3.28477 2.68103 0
M  V30 2614 C 238.917 1.80739 2.84315 0
M  V30 2615 O 239.447 1.27983 3.80767 0
M  V30 2616 N 237.653 1.4997 2.48913 0
M  V30 2617 H 237.2 1.93062 1.70542 0
M  V30 2618 H 237.158 0.824217 3.03404 0
M  V30 2619 N 240.93 -0.123565 1.57115 0
M  V30 2620 C 242.178 -0.83051 1.84247 0
M  V30 2621 C 242.499 -1.80629 0.73471 0
M  V30 2622 O 241.769 -1.94403 -0.241688 0
M  V30 2623 H 240.349 -0.309694 0.679778 0
M  V30 2624 H 243.011 -0.111976 1.94578 0
M  V30 2625 H 242.107 -1.37852 2.80006 0
M  V30 2626 N 242.408 -1.52605 -0.393616 0
M  V30 2627 C 243.636 -1.71294 -1.16043 0
M  V30 2628 C 244.051 -0.429259 -1.83855 0
M  V30 2629 O 243.408 0.595921 -1.72496 0
M  V30 2630 C 243.459 -2.8593 -2.21193 0
M  V30 2631 O 243.18 -4.09329 -1.56146 0
M  V30 2632 C 244.681 -3.16259 -3.10636 0
M  V30 2633 H 241.901 -0.573641 -0.348104 0
M  V30 2634 H 244.445 -1.99234 -0.461092 0
M  V30 2635 H 242.6 -2.60465 -2.86769 0
M  V30 2636 H 243.014 -4.73323 -2.25978 0
M  V30 2637 H 244.488 -3.99946 -3.80456 0
M  V30 2638 H 244.965 -2.3045 -3.73884 0
M  V30 2639 H 245.571 -3.43547 -2.50711 0
M  V30 2640 N 243.887 0.651787 -1.4349 0
M  V30 2641 C 245.117 1.43728 -1.48411 0
M  V30 2642 C 245.525 1.8893 -0.10103 0
M  V30 2643 O 244.868 1.60182 0.899307 0
M  V30 2644 C 244.93 2.70411 -2.36893 0
M  V30 2645 C 244.594 2.4714 -3.8441 0
M  V30 2646 C 245.591 2.10271 -4.75481 0
M  V30 2647 C 243.276 2.6142 -4.28912 0
M  V30 2648 C 245.27 1.87982 -6.0905 0
M  V30 2649 C 242.957 2.38746 -5.62533 0
M  V30 2650 C 243.955 2.02083 -6.5242 0
M  V30 2651 O 243.643 1.79647 -7.8357 0
M  V30 2652 H 243.375 0.447962 -0.506267 0
M  V30 2653 H 245.929 0.80624 -1.88915 0
M  V30 2654 H 244.159 3.36079 -1.91278 0
M  V30 2655 H 245.848 3.32364 -2.33 0
M  V30 2656 H 246.614 1.98814 -4.42378 0
M  V30 2657 H 242.493 2.88931 -3.59222 0
M  V30 2658 H 246.037 1.5929 -6.7917 0
M  V30 2659 H 241.934 2.49806 -5.95203 0
M  V30 2660 H 242.702 1.9406 -7.95162 0
M  V30 2661 N 245.365 1.30045 0.890287 0
M  V30 2662 C 246.315 1.12592 1.9826 0
M  V30 2663 C 247.299 0.0426021 1.60844 0
M  V30 2664 O 248.491 0.265346 1.75 0
M  V30 2665 C 245.62 0.814301 3.33503 0
M  V30 2666 C 244.706 1.93761 3.7725 0
M  V30 2667 N 245.097 3.18232 3.93143 0
M  V30 2668 C 243.395 1.83277 4.06602 0
M  V30 2669 C 244.096 3.9158 4.30163 0
M  V30 2670 N 243.072 3.19591 4.3973 0
M  V30 2671 H 246.874 2.07003 2.08631 0
M  V30 2672 H 244.388 1.21307 1.07974 0
M  V30 2673 H 246.385 0.67029 4.11476 0
M  V30 2674 H 245.045 -0.121797 3.24471 0
M  V30 2675 H 246.056 3.53581 3.78419 0
M  V30 2676 H 242.733 0.97001 4.06075 0
M  V30 2677 H 244.123 4.98744 4.50226 0
M  V30 2678 N 246.843 -1.10192 1.12674 0
M  V30 2679 C 248.083 -1.83825 0.893736 0
M  V30 2680 C 248.447 -1.83341 -0.570082 0
M  V30 2681 O 249.648 -2.52553 -0.920354 0
M  V30 2682 C 247.919 -3.26405 1.45582 0
M  V30 2683 S 249.478 -4.17136 1.36171 0
M  V30 2684 H 246.296 -0.633732 0.322342 0
M  V30 2685 H 248.898 -1.32581 1.43675 0
M  V30 2686 H 247.602 -3.24329 2.51473 0
M  V30 2687 H 247.133 -3.82721 0.910405 0
M  V30 2688 H 249.148 -4.95069 0.334863 0
M  V30 2689 N 248.321 -0.919034 -1.28029 0
M  V30 2690 C 249.546 -0.570357 -1.99403 0
M  V30 2691 C 249.971 0.842486 -1.68178 0
M  V30 2692 O 249.329 1.56391 -0.917141 0
M  V30 2693 C 249.377 -0.792541 -3.51783 0
M  V30 2694 O 248.481 0.145988 -4.12142 0
M  V30 2695 H 247.822 -0.220555 -0.6263 0
M  V30 2696 H 250.352 -1.23592 -1.63053 0
M  V30 2697 H 250.362 -0.704708 -4.01868 0
M  V30 2698 H 249.037 -1.82247 -3.73844 0
M  V30 2699 H 247.614 0.00897528 -3.72899 0
M  V30 2700 N 249.799 1.42003 -0.683588 0
M  V30 2701 C 251.047 2.01015 -0.209101 0
M  V30 2702 C 251.368 1.54365 1.19149 0
M  V30 2703 O 250.638 0.769083 1.80172 0
M  V30 2704 H 249.218 0.743294 -0.074315 0
M  V30 2705 H 251.88 1.73798 -0.882066 0
M  V30 2706 H 250.976 3.11343 -0.2172 0
M  V30 2707 N 251.277 0.427512 1.51691 0
M  V30 2708 C 252.21 -0.433876 2.24037 0
M  V30 2709 C 253.188 -1.03287 1.25581 0
M  V30 2710 O 254.372 -1.07722 1.54688 0
M  V30 2711 C 251.499 -1.60385 2.98319 0
M  V30 2712 C 250.545 -1.12648 4.11355 0
M  V30 2713 S 251.378 -0.076543 5.35445 0
M  V30 2714 C 252.534 -1.25141 6.13262 0
M  V30 2715 H 252.767 0.180367 2.96752 0
M  V30 2716 H 250.3 0.211946 1.52938 0
M  V30 2717 H 252.258 -2.27462 3.41718 0
M  V30 2718 H 250.919 -2.18948 2.25213 0
M  V30 2719 H 250.112 -2.0011 4.62571 0
M  V30 2720 H 249.714 -0.534088 3.70167 0
M  V30 2721 H 252.006 -2.17162 6.41753 0
M  V30 2722 H 252.949 -0.779411 7.03797 0
M  V30 2723 H 253.357 -1.48553 5.44603 0
M  V30 2724 N 252.755 -1.56801 0.158532 0
M  V30 2725 C 254.003 -1.96102 -0.488712 0
M  V30 2726 C 254.324 -1.04498 -1.64636 0
M  V30 2727 O 253.594 -0.108783 -1.95598 0
M  V30 2728 H 252.174 -0.724102 -0.183535 0
M  V30 2729 H 254.836 -1.93457 0.236728 0
M  V30 2730 H 253.932 -3.00097 -0.857219 0
M  V30 2731 N 254.233 0.115231 -1.57178 0
M  V30 2732 C 255.18 1.14115 -2.00615 0
M  V30 2733 C 256.15 1.40939 -0.878941 0
M  V30 2734 O 257.335 1.52741 -1.14345 0
M  V30 2735 C 254.475 2.46156 -2.4187 0
M  V30 2736 C 253.588 2.26236 -3.68024 0
M  V30 2737 C 252.723 3.51534 -3.98243 0
M  V30 2738 C 251.762 3.26787 -5.17568 0
M  V30 2739 N 250.899 4.44298 -5.43639 0
M  V30 2740 H 255.739 0.763743 -2.88047 0
M  V30 2741 H 253.276 0.365615 -1.42484 0
M  V30 2742 H 255.234 3.23189 -2.63827 0
M  V30 2743 H 253.864 2.81783 -1.57475 0
M  V30 2744 H 252.916 1.40102 -3.5366 0
M  V30 2745 H 254.228 2.03929 -4.55208 0
M  V30 2746 H 253.382 4.36984 -4.20868 0
M  V30 2747 H 252.121 3.76876 -3.09541 0
M  V30 2748 H 251.126 2.39729 -4.94783 0
M  V30 2749 H 252.351 3.02812 -6.0785 0
M  V30 2750 H 250.297 4.69754 -4.57895 0
M  V30 2751 H 250.214 4.25109 -6.25154 0
M  V30 2752 H 251.482 5.3087 -5.70786 0
M  V30 2753 N 255.711 1.52812 0.385517 0
M  V30 2754 C 256.661 1.74219 1.47078 0
M  V30 2755 C 257.645 0.59632 1.49442 0
M  V30 2756 O 258.837 0.85428 1.5502 0
M  V30 2757 C 255.966 1.9176 2.84751 0
M  V30 2758 C 255.052 3.12289 2.86943 0
M  V30 2759 N 255.443 4.34575 2.58802 0
M  V30 2760 C 253.741 3.12605 3.1811 0
M  V30 2761 C 254.442 5.162 2.68166 0
M  V30 2762 N 253.418 4.51964 3.02043 0
M  V30 2763 H 257.22 2.6639 1.24152 0
M  V30 2764 H 254.734 1.51166 0.593504 0
M  V30 2765 H 256.731 2.05218 3.62893 0
M  V30 2766 H 255.391 1.00805 3.08656 0
M  V30 2767 H 256.402 4.62649 2.32759 0
M  V30 2768 H 253.079 2.31472 3.47458 0
M  V30 2769 H 254.469 6.23689 2.49923 0
M  V30 2770 N 257.189 -0.644168 1.43834 0
M  V30 2771 C 258.605 -0.960875 1.27434 0
M  V30 2772 C 258.805 -2.00499 0.200618 0
M  V30 2773 O 257.861 -2.49018 -0.417906 0
M  V30 2774 C 259.174 -1.43653 2.64167 0
M  V30 2775 C 260.722 -1.55271 2.71772 0
M  V30 2776 C 261.197 -2.06224 4.08944 0
M  V30 2777 N 262.688 -2.13513 4.11055 0
M  V30 2778 C 263.423 -2.54081 5.14033 0
M  V30 2779 N 262.919 -2.9388 6.27381 0
M  V30 2780 N 264.712 -2.54101 5.01387 0
M  V30 2781 H 256.863 0.0465779 2.12349 0
M  V30 2782 H 259.126 -0.0417638 0.94708 0
M  V30 2783 H 258.832 -0.743706 3.43747 0
M  V30 2784 H 258.706 -2.40993 2.90176 0
M  V30 2785 H 261.093 -2.23653 1.92519 0
M  V30 2786 H 261.174 -0.563395 2.49519 0
M  V30 2787 H 260.818 -1.38441 4.88668 0
M  V30 2788 H 260.748 -3.06003 4.28567 0
M  V30 2789 H 263.239 -1.85493 3.29242 0
M  V30 2790 H 263.552 -3.2361 7.01781 0
M  V30 2791 H 261.897 -2.91663 6.30839 0
M  V30 2792 H 265.088 -2.22391 4.11898 0
M  V30 2793 H 265.261 -2.85394 5.81768 0
M  V30 2794 N 258.668 -1.30515 -0.883378 0
M  V30 2795 C 259.898 -1.22182 -1.66599 0
M  V30 2796 C 260.306 0.217507 -1.87946 0
M  V30 2797 O 259.649 1.1554 -1.42815 0
M  V30 2798 C 259.711 -1.88146 -3.06335 0
M  V30 2799 C 259.375 -3.37476 -3.08154 0
M  V30 2800 C 260.372 -4.33443 -2.87094 0
M  V30 2801 C 258.057 -3.7895 -3.29701 0
M  V30 2802 C 260.051 -5.68858 -2.8754 0
M  V30 2803 C 257.738 -5.14482 -3.29776 0
M  V30 2804 C 258.736 -6.09246 -3.0872 0
M  V30 2805 O 258.424 -7.42302 -3.08615 0
M  V30 2806 H 258.156 -0.423898 -0.52658 0
M  V30 2807 H 260.71 -1.72703 -1.11188 0
M  V30 2808 H 258.94 -1.32157 -3.63416 0
M  V30 2809 H 260.629 -1.7391 -3.66756 0
M  V30 2810 H 261.395 -4.02733 -2.70243 0
M  V30 2811 H 257.274 -3.05631 -3.45124 0
M  V30 2812 H 260.818 -6.428 -2.71024 0
M  V30 2813 H 256.715 -5.44832 -3.46163 0
M  V30 2814 H 257.483 -7.5131 -3.24769 0
M  V30 2815 N 260.146 1.09593 -1.13257 0
M  V30 2816 C 261.374 1.855 -0.916378 0
M  V30 2817 C 261.789 1.81069 0.534738 0
M  V30 2818 O 261.146 1.20562 1.37007 0
M  V30 2819 C 261.197 3.33546 -1.39388 0
M  V30 2820 O 260.918 3.37927 -2.78813 0
M  V30 2821 C 262.419 4.26299 -1.21588 0
M  V30 2822 H 259.639 0.585991 -0.326887 0
M  V30 2823 H 262.183 1.38488 -1.5047 0
M  V30 2824 H 260.338 3.77992 -0.848597 0
M  V30 2825 H 260.752 4.30254 -2.9997 0
M  V30 2826 H 262.226 5.28341 -1.59876 0
M  V30 2827 H 262.703 4.38918 -0.157376 0
M  V30 2828 H 263.309 3.87668 -1.7491 0
M  V30 2829 N 261.624 0.925811 1.2754 0
M  V30 2830 C 262.849 0.580924 1.99098 0
M  V30 2831 C 263.274 -0.833555 1.68622 0
M  V30 2832 O 262.632 -1.55903 0.925422 0
M  V30 2833 C 262.68 0.811186 3.51358 0
M  V30 2834 O 261.784 -0.124129 4.12213 0
M  V30 2835 H 261.125 0.223873 0.625122 0
M  V30 2836 H 263.655 1.24455 1.62395 0
M  V30 2837 H 263.665 0.72601 4.01489 0
M  V30 2838 H 262.34 1.84227 3.72872 0
M  V30 2839 H 260.917 0.0108006 3.72898 0
M  V30 2840 N 263.102 -1.41638 0.69111 0
M  V30 2841 C 264.065 -2.29178 0.0319786 0
M  V30 2842 C 265.065 -1.44153 -0.712496 0
M  V30 2843 O 266.255 -1.65354 -0.548053 0
M  V30 2844 C 263.387 -3.26952 -0.965161 0
M  V30 2845 H 264.58 -2.88959 0.802681 0
M  V30 2846 H 262.133 -1.4955 0.454356 0
M  V30 2847 H 262.868 -2.72142 -1.76378 0
M  V30 2848 H 262.653 -3.89685 -0.434522 0
M  V30 2849 H 264.143 -3.92561 -1.42428 0
M  V30 2850 N 264.58 -0.43555 -1.51462 0
M  V30 2851 C 265.828 0.131254 -2.01673 0
M  V30 2852 C 266.149 1.43368 -1.32177 0
M  V30 2853 O 265.419 1.90524 -0.455769 0
M  V30 2854 H 263.999 0.0514954 -0.745223 0
M  V30 2855 H 266.661 -0.577847 -1.86137 0
M  V30 2856 H 265.757 0.308446 -3.10572 0
M  V30 2857 N 266.058 1.56714 -0.166846 0
M  V30 2858 C 267.307 1.95922 0.479318 0
M  V30 2859 C 267.62 1.05529 1.6469 0
M  V30 2860 O 268.826 1.34399 2.35901 0
M  V30 2861 C 267.282 3.48359 0.90412 0
M  V30 2862 C 266.89 4.47369 -0.237621 0
M  V30 2863 C 268.634 3.96394 1.51896 0
M  V30 2864 C 266.541 5.91039 0.206561 0
M  V30 2865 H 265.471 0.731495 0.18284 0
M  V30 2866 H 268.122 1.81728 -0.254363 0
M  V30 2867 H 266.504 3.57955 1.69365 0
M  V30 2868 H 267.678 4.49485 -1.01489 0
M  V30 2869 H 265.993 4.09366 -0.762128 0
M  V30 2870 H 268.59 5.01186 1.86325 0
M  V30 2871 H 268.933 3.39075 2.41524 0
M  V30 2872 H 269.466 3.89796 0.79395 0
M  V30 2873 H 266.205 6.52221 -0.654834 0
M  V30 2874 H 265.725 5.9224 0.949282 0
M  V30 2875 H 267.404 6.43707 0.651939 0
M  V30 2876 N 267.536 -0.106894 1.57237 0
M  V30 2877 C 268.761 -0.830287 1.90055 0
M  V30 2878 C 269.186 -1.72064 0.75998 0
M  V30 2879 O 268.544 -1.78982 -0.288991 0
M  V30 2880 C 268.592 -1.6295 3.21683 0
M  V30 2881 O 267.696 -2.73748 3.08441 0
M  V30 2882 H 267.037 -0.228855 0.623315 0
M  V30 2883 H 269.567 -0.085658 2.04421 0
M  V30 2884 H 269.577 -2.01621 3.54701 0
M  V30 2885 H 268.252 -0.975989 4.04286 0
M  V30 2886 H 266.829 -2.38192 2.86913 0
M  V30 2887 N 269.014 -1.53014 -0.377408 0
M  V30 2888 C 269.946 -1.74884 -1.48149 0
M  V30 2889 C 270.959 -0.629433 -1.5014 0
M  V30 2890 O 272.148 -0.905416 -1.53833 0
M  V30 2891 C 269.248 -1.80299 -2.86959 0
M  V30 2892 C 268.421 -3.09776 -3.08801 0
M  V30 2893 C 267.48 -3.06586 -4.27658 0
M  V30 2894 O 266.506 -3.80419 -4.23403 0
M  V30 2895 N 267.708 -2.26578 -5.34455 0
M  V30 2896 H 270.473 -2.70147 -1.29771 0
M  V30 2897 H 268.034 -1.51646 -0.56703 0
M  V30 2898 H 270.026 -1.75657 -3.64591 0
M  V30 2899 H 268.596 -0.92372 -2.98641 0
M  V30 2900 H 267.816 -3.27815 -2.18931 0
M  V30 2901 H 269.104 -3.95366 -3.20255 0
M  V30 2902 H 268.502 -1.66081 -5.40771 0
M  V30 2903 H 267.059 -2.27766 -6.10709 0
M  V30 2904 N 270.492 0.636531 -1.44174 0
M  V30 2905 C 271.722 1.42146 -1.49927 0
M  V30 2906 C 272.13 1.88812 -0.121063 0
M  V30 2907 O 271.473 1.61126 0.882267 0
M  V30 2908 C 271.535 2.67883 -2.39748 0
M  V30 2909 C 271.199 2.43048 -3.8701 0
M  V30 2910 C 272.196 2.05216 -4.77684 0
M  V30 2911 C 269.881 2.56856 -4.3166 0
M  V30 2912 C 271.875 1.81512 -6.11009 0
M  V30 2913 C 269.562 2.32766 -5.65034 0
M  V30 2914 C 270.56 1.95152 -6.54526 0
M  V30 2915 O 270.248 1.71326 -7.85431 0
M  V30 2916 H 269.98 0.442567 -0.51099 0
M  V30 2917 H 272.534 0.786158 -1.8976 0
M  V30 2918 H 270.764 3.34032 -1.94832 0
M  V30 2919 H 272.453 3.29874 -2.36513 0
M  V30 2920 H 273.219 1.94111 -4.44462 0
M  V30 2921 H 269.098 2.85104 -3.62266 0
M  V30 2922 H 272.642 1.52077 -6.80822 0
M  V30 2923 H 268.539 2.43479 -5.97819 0
M  V30 2924 H 269.307 1.85616 -7.97176 0
M  V30 2925 N 271.97 1.30982 0.876444 0
M  V30 2926 C 273.198 1.23242 1.6619 0
M  V30 2927 C 273.613 -0.203345 1.87702 0
M  V30 2928 O 272.97 -1.13317 1.43057 0
M  V30 2929 C 273.021 1.96623 3.03351 0
M  V30 2930 O 272.742 3.34594 2.82804 0
M  V30 2931 C 274.243 1.95644 3.97792 0
M  V30 2932 H 271.463 0.426126 0.518322 0
M  V30 2933 H 274.007 1.7275 1.09442 0
M  V30 2934 H 272.162 1.50892 3.56806 0
M  V30 2935 H 272.576 3.71873 3.69879 0
M  V30 2936 H 274.05 2.51511 4.91372 0
M  V30 2937 H 274.527 0.937395 4.2908 0
M  V30 2938 H 275.133 2.41225 3.50272 0
M  V30 2939 N 273.449 -1.08991 1.13837 0
M  V30 2940 C 274.695 -1.81526 0.90422 0
M  V30 2941 C 275.028 -1.85706 -0.568066 0
M  V30 2942 O 274.303 -1.32855 -1.42056 0
M  V30 2943 C 274.586 -3.27447 1.49835 0
M  V30 2944 C 274.439 -3.31512 3.04006 0
M  V30 2945 C 275.758 -4.24256 1.17025 0
M  V30 2946 H 272.877 -0.659029 0.329923 0
M  V30 2947 H 275.519 -1.27644 1.40737 0
M  V30 2948 H 273.669 -3.73462 1.07044 0
M  V30 2949 H 275.341 -2.93867 3.55584 0
M  V30 2950 H 273.584 -2.70963 3.38765 0
M  V30 2951 H 274.255 -4.34329 3.40679 0
M  V30 2952 H 276.731 -3.86549 1.54009 0
M  V30 2953 H 275.607 -5.24684 1.61237 0
M  V30 2954 H 275.868 -4.42019 0.0846274 0
M  V30 2955 N 274.927 -0.932562 -1.27047 0
M  V30 2956 C 275.874 -0.434072 -2.26681 0
M  V30 2957 C 276.844 0.501639 -1.58344 0
M  V30 2958 O 278.029 0.419734 -1.86126 0
M  V30 2959 C 275.169 0.30261 -3.43771 0
M  V30 2960 C 274.282 -0.667774 -4.26808 0
M  V30 2961 C 273.417 0.0892393 -5.31125 0
M  V30 2962 C 272.456 -0.873532 -6.05835 0
M  V30 2963 N 271.593 -0.148832 -7.01942 0
M  V30 2964 H 276.433 -1.28868 -2.68695 0
M  V30 2965 H 273.97 -0.646713 -1.32121 0
M  V30 2966 H 275.928 0.746092 -4.10474 0
M  V30 2967 H 274.558 1.12142 -3.02695 0
M  V30 2968 H 273.61 -1.22978 -3.59973 0
M  V30 2969 H 274.922 -1.40337 -4.78651 0
M  V30 2970 H 274.076 0.592409 -6.03801 0
M  V30 2971 H 272.815 0.85777 -4.80097 0
M  V30 2972 H 271.82 -1.38791 -5.31994 0
M  V30 2973 H 273.045 -1.64193 -6.58952 0
M  V30 2974 H 270.991 0.601365 -6.53238 0
M  V30 2975 H 270.908 -0.82391 -7.51497 0
M  V30 2976 H 272.176 0.333527 -7.78786 0
M  V30 2977 N 276.405 1.4127 -0.698611 0
M  V30 2978 C 277.653 2.00782 -0.230409 0
M  V30 2979 C 277.974 1.5562 1.17505 0
M  V30 2980 O 277.244 0.78815 1.79346 0
M  V30 2981 H 275.824 0.742464 -0.0821944 0
M  V30 2982 H 278.486 1.72852 -0.90045 0
M  V30 2983 H 277.582 3.11095 -0.25021 0
M  V30 2984 N 277.883 0.443576 1.51229 0
M  V30 2985 C 278.813 -0.355142 2.30783 0
M  V30 2986 C 279.794 -1.0154 1.36468 0
M  V30 2987 O 280.979 -1.01785 1.65389 0
M  V30 2988 C 278.109 -1.45312 3.15439 0
M  V30 2989 C 277.063 -0.916002 4.18083 0
M  V30 2990 C 276.389 -2.1102 4.91299 0
M  V30 2991 C 277.689 0.0538602 5.22272 0
M  V30 2992 H 279.383 0.308767 2.97804 0
M  V30 2993 H 276.929 0.149937 1.43217 0
M  V30 2994 H 278.882 -2.01914 3.69876 0
M  V30 2995 H 277.606 -2.14541 2.46252 0
M  V30 2996 H 276.265 -0.372145 3.64706 0
M  V30 2997 H 275.913 -2.78882 4.18609 0
M  V30 2998 H 275.613 -1.75717 5.60712 0
M  V30 2999 H 277.137 -2.68164 5.48562 0
M  V30 3000 H 278.551 -0.422069 5.71744 0
M  V30 3001 H 276.948 0.319776 5.99247 0
M  V30 3002 H 278.018 0.98858 4.74716 0
M  V30 3003 N 279.361 -1.56624 0.175154 0
M  V30 3004 C 280.293 -2.15333 -0.785128 0
M  V30 3005 C 281.306 -1.1099 -1.19101 0
M  V30 3006 O 282.495 -1.38162 -1.13019 0
M  V30 3007 C 279.595 -2.68427 -2.06882 0
M  V30 3008 C 278.768 -3.97466 -1.8259 0
M  V30 3009 C 277.827 -4.35585 -2.95215 0
M  V30 3010 O 276.853 -5.03389 -2.65684 0
M  V30 3011 N 278.055 -3.97457 -4.23094 0
M  V30 3012 H 280.82 -2.98359 -0.283187 0
M  V30 3013 H 278.381 -1.61898 -0.00749817 0
M  V30 3014 H 280.373 -2.90924 -2.81328 0
M  V30 3015 H 278.943 -1.89968 -2.48256 0
M  V30 3016 H 278.163 -3.83307 -0.920287 0
M  V30 3017 H 279.451 -4.81736 -1.63733 0
M  V30 3018 H 278.849 -3.42878 -4.49945 0
M  V30 3019 H 277.406 -4.24947 -4.9423 0
M  V30 3020 N 280.839 0.0985539 -1.57292 0
M  V30 3021 C 281.769 1.12064 -2.04851 0
M  V30 3022 C 282.75 1.41981 -0.936767 0
M  V30 3023 O 283.935 1.52071 -1.20781 0
M  V30 3024 C 281.065 2.44144 -2.47004 0
M  V30 3025 C 280.019 2.28643 -3.6181 0
M  V30 3026 C 279.345 3.65869 -3.89929 0
M  V30 3027 C 280.645 1.72986 -4.92822 0
M  V30 3028 H 282.339 0.724979 -2.9049 0
M  V30 3029 H 279.885 0.34729 -1.39749 0
M  V30 3030 H 281.838 3.15914 -2.78884 0
M  V30 3031 H 280.562 2.85639 -1.5836 0
M  V30 3032 H 279.221 1.59318 -3.30172 0
M  V30 3033 H 278.869 4.04885 -2.98458 0
M  V30 3034 H 278.569 3.56344 -4.67218 0
M  V30 3035 H 280.093 4.39112 -4.2428 0
M  V30 3036 H 281.507 2.34593 -5.23105 0
M  V30 3037 H 279.904 1.74229 -5.74251 0
M  V30 3038 H 280.974 0.689007 -4.7998 0
M  V30 3039 N 282.317 1.53212 0.369288 0
M  V30 3040 C 283.728 1.60943 0.946276 0
M  V30 3041 C 284.079 0.47452 1.90375 0
M  V30 3042 O 283.204 -0.399597 2.12679 0
M  V30 3043 C 283.799 2.91715 1.72302 0
M  V30 3044 C 282.358 3.01792 2.24941 0
M  V30 3045 C 281.505 2.56211 1.06072 0
M  V30 3046 H 284.456 1.58007 0.148198 0
M  V30 3047 H 284.477 2.79309 2.58393 0
M  V30 3048 H 283.989 3.74295 1.0259 0
M  V30 3049 H 282.09 2.23791 2.97906 0
M  V30 3050 H 282.203 4.06803 2.53077 0
M  V30 3051 H 280.567 2.10998 1.4266 0
M  V30 3052 H 281.35 3.41206 0.378639 0
M  V30 3053 N 283.795 -0.628877 1.44509 0
M  V30 3054 C 285.023 -1.41554 1.50897 0
M  V30 3055 C 285.438 -1.8832 0.134564 0
M  V30 3056 O 284.795 -1.60969 -0.859965 0
M  V30 3057 C 284.846 -2.63435 2.47556 0
M  V30 3058 O 284.567 -2.18619 3.79654 0
M  V30 3059 C 286.068 -3.56537 2.63431 0
M  V30 3060 H 283.288 -0.434044 0.511709 0
M  V30 3061 H 285.832 -0.768895 1.89495 0
M  V30 3062 H 283.987 -3.24187 2.12089 0
M  V30 3063 H 284.401 -2.97652 4.31861 0
M  V30 3064 H 285.875 -4.38657 3.35088 0
M  V30 3065 H 286.352 -4.05493 1.68738 0
M  V30 3066 H 286.958 -3.01653 2.9981 0
M  V30 3067 N 285.273 -1.31445 -0.869486 0
M  V30 3068 C 286.684 -1.19042 -1.43826 0
M  V30 3069 C 287.035 0.202919 -1.95148 0
M  V30 3070 O 286.16 1.10071 -1.86315 0
M  V30 3071 C 286.755 -2.15499 -2.6143 0
M  V30 3072 C 285.314 -2.07028 -3.14351 0
M  V30 3073 C 284.461 -2.04701 -1.87063 0
M  V30 3074 H 287.412 -1.43489 -0.677984 0
M  V30 3075 H 287.433 -1.74488 -3.38134 0
M  V30 3076 H 286.945 -3.16899 -2.24046 0
M  V30 3077 H 285.046 -1.08825 -3.56354 0
M  V30 3078 H 285.159 -2.96157 -3.766 0
M  V30 3079 H 283.523 -1.49724 -2.06046 0
M  V30 3080 H 284.306 -3.07857 -1.51917 0
M  V30 3081 N 286.751 1.08385 -1.14413 0
M  V30 3082 C 287.997 1.81044 -0.913834 0
M  V30 3083 C 288.33 1.86004 0.558209 0
M  V30 3084 O 287.605 1.33606 1.4135 0
M  V30 3085 C 287.888 3.26648 -1.51569 0
M  V30 3086 C 287.741 3.29895 -3.0576 0
M  V30 3087 C 289.06 4.23629 -1.19273 0
M  V30 3088 H 286.179 0.65727 -0.333414 0
M  V30 3089 H 288.821 1.26896 -1.41412 0
M  V30 3090 H 286.971 3.72889 -1.09023 0
M  V30 3091 H 288.643 2.91977 -3.57137 0
M  V30 3092 H 286.886 2.69163 -3.40197 0
M  V30 3093 H 287.557 4.32516 -3.42977 0
M  V30 3094 H 290.033 3.85727 -1.56057 0
M  V30 3095 H 288.909 5.23822 -1.64017 0
M  V30 3096 H 289.17 4.41968 -0.108068 0
M  V30 3097 N 288.23 0.939286 1.26551 0
M  V30 3098 C 289.476 0.596234 1.94465 0
M  V30 3099 C 289.831 -0.855013 1.72358 0
M  V30 3100 O 289.124 -1.6034 1.04889 0
M  V30 3101 C 289.318 0.872106 3.46596 0
M  V30 3102 C 289.147 2.34862 3.83497 0
M  V30 3103 C 287.917 3.00344 4.06352 0
M  V30 3104 C 290.115 3.32697 3.92195 0
M  V30 3105 N 288.097 4.38027 4.30123 0
M  V30 3106 C 289.468 4.55631 4.20476 0
M  V30 3107 C 291.523 3.27747 3.74815 0
M  V30 3108 C 290.226 5.74233 4.33185 0
M  V30 3109 C 292.252 4.45672 3.88755 0
M  V30 3110 C 291.614 5.67388 4.17433 0
M  V30 3111 H 287.713 0.268515 0.734455 0
M  V30 3112 H 290.297 1.2083 1.5267 0
M  V30 3113 H 288.468 0.289102 3.87323 0
M  V30 3114 H 290.2 0.490513 4.01716 0
M  V30 3115 H 286.955 2.50969 4.01636 0
M  V30 3116 H 287.379 5.09288 4.46044 0
M  V30 3117 H 292.021 2.34703 3.51673 0
M  V30 3118 H 289.739 6.67731 4.55149 0
M  V30 3119 H 293.325 4.43372 3.76713 0
M  V30 3120 H 292.205 6.57115 4.27983 0
M  V30 3121 N 289.708 -1.40897 0.706093 0
M  V30 3122 C 290.955 -2.01054 0.241531 0
M  V30 3123 C 291.283 -1.55956 -1.16223 0
M  V30 3124 O 290.538 -0.766336 -1.80072 0
M  V30 3125 C 290.837 -3.5646 0.259099 0
M  V30 3126 C 290.503 -4.21106 1.61184 0
M  V30 3127 C 289.165 -4.38479 1.98216 0
M  V30 3128 C 291.517 -4.57256 2.50132 0
M  V30 3129 C 288.845 -4.89282 3.2376 0
M  V30 3130 C 291.197 -5.09454 3.7502 0
M  V30 3131 C 289.861 -5.25037 4.12181 0
M  V30 3132 H 289.131 -0.73571 0.0883825 0
M  V30 3133 H 291.778 -1.68645 0.907257 0
M  V30 3134 H 290.083 -3.88721 -0.490189 0
M  V30 3135 H 291.78 -4.00826 -0.11804 0
M  V30 3136 H 288.37 -4.07966 1.31384 0
M  V30 3137 H 292.554 -4.43479 2.228 0
M  V30 3138 H 287.81 -4.99531 3.52532 0
M  V30 3139 H 291.984 -5.36404 4.44121 0
M  V30 3140 H 289.611 -5.64164 5.09532 0
M  V30 3141 N 291.186 -0.45159 -1.50991 0
M  V30 3142 C 292.136 0.370861 -2.24964 0
M  V30 3143 C 293.12 0.978074 -1.2776 0
M  V30 3144 O 294.312 0.893854 -1.52772 0
M  V30 3145 C 291.441 1.46344 -3.10545 0
M  V30 3146 C 290.527 0.864924 -4.15187 0
M  V30 3147 N 290.918 -0.00311354 -5.058 0
M  V30 3148 C 289.216 1.13099 -4.31422 0
M  V30 3149 C 289.917 -0.340772 -5.80701 0
M  V30 3150 N 288.893 0.279203 -5.42883 0
M  V30 3151 H 292.695 -0.298134 -2.92384 0
M  V30 3152 H 290.209 -0.264528 -1.60231 0
M  V30 3153 H 292.206 2.06565 -3.62128 0
M  V30 3154 H 290.866 2.13463 -2.4467 0
M  V30 3155 H 291.877 -0.37058 -5.16572 0
M  V30 3156 H 288.554 1.79861 -3.76771 0
M  V30 3157 H 289.944 -1.048 -6.63677 0
M  V30 3158 N 292.664 1.56529 -0.183458 0
M  V30 3159 C 293.91 1.97537 0.459036 0
M  V30 3160 C 294.243 1.06989 1.62071 0
M  V30 3161 O 293.518 0.11948 1.94133 0
M  V30 3162 C 293.801 3.47874 0.930368 0
M  V30 3163 C 293.654 4.492 -0.232317 0
M  V30 3164 C 294.973 4.01612 1.79989 0
M  V30 3165 H 292.092 0.718204 0.165383 0
M  V30 3166 H 294.734 1.88042 -0.272038 0
M  V30 3167 H 292.884 3.56095 1.55333 0
M  V30 3168 H 294.556 4.53027 -0.86972 0
M  V30 3169 H 292.799 4.24657 -0.885928 0
M  V30 3170 H 293.47 5.51823 0.139796 0
M  V30 3171 H 295.946 3.96097 1.27461 0
M  V30 3172 H 294.822 5.07195 2.09867 0
M  V30 3173 H 295.083 3.46163 2.74998 0
M  V30 3174 N 294.142 -0.090211 1.57342 0
M  V30 3175 C 295.072 -1.10976 2.05443 0
M  V30 3176 C 296.053 -1.41482 0.944284 0
M  V30 3177 O 297.238 -1.51428 1.21586 0
M  V30 3178 C 294.368 -2.42831 2.48295 0
M  V30 3179 C 293.322 -2.26721 3.63018 0
M  V30 3180 C 292.648 -3.63796 3.91863 0
M  V30 3181 C 293.948 -1.7037 4.93732 0
M  V30 3182 H 295.642 -0.709564 2.9087 0
M  V30 3183 H 293.188 -0.339874 1.39932 0
M  V30 3184 H 295.141 -3.14431 2.80555 0
M  V30 3185 H 293.865 -2.84795 1.59873 0
M  V30 3186 H 292.524 -1.57565 3.31012 0
M  V30 3187 H 292.172 -4.03297 3.00601 0
M  V30 3188 H 291.872 -3.53861 4.69101 0
M  V30 3189 H 293.396 -4.36855 4.26603 0
M  V30 3190 H 294.81 -2.31816 5.24342 0
M  V30 3191 H 293.207 -1.71181 5.75167 0
M  V30 3192 H 294.277 -0.663542 4.80339 0
M  V30 3193 N 295.62 -1.53406 -0.361157 0
M  V30 3194 C 296.867 -1.69802 -1.10333 0
M  V30 3195 C 297.195 -0.452087 -1.89173 0
M  V30 3196 O 296.45 0.566017 -1.87336 0
M  V30 3197 C 296.749 -2.90211 -2.08596 0
M  V30 3198 C 296.415 -4.26539 -1.46203 0
M  V30 3199 C 295.077 -4.6361 -1.28915 0
M  V30 3200 C 297.429 -5.113 -1.01101 0
M  V30 3201 C 294.757 -5.83075 -0.651157 0
M  V30 3202 C 297.109 -6.31415 -0.387007 0
M  V30 3203 C 295.773 -6.67195 -0.201657 0
M  V30 3204 H 295.043 -0.621351 -0.403737 0
M  V30 3205 H 297.69 -1.87598 -0.384609 0
M  V30 3206 H 295.995 -2.66946 -2.86788 0
M  V30 3207 H 297.692 -3.00091 -2.65982 0
M  V30 3208 H 294.282 -3.97352 -1.60653 0
M  V30 3209 H 298.466 -4.83206 -1.13249 0
M  V30 3210 H 293.722 -6.09385 -0.496006 0
M  V30 3211 H 297.896 -6.96394 -0.0293563 0
M  V30 3212 H 295.523 -7.59628 0.294766 0
M  V30 3213 N 297.098 0.621204 -1.44841 0
M  V30 3214 C 298.328 1.40548 -1.51426 0
M  V30 3215 C 298.736 1.88673 -0.141083 0
M  V30 3216 O 298.079 1.62053 0.865128 0
M  V30 3217 C 298.141 2.65325 -2.42576 0
M  V30 3218 C 297.805 2.3893 -3.89566 0
M  V30 3219 C 298.802 2.00138 -4.79834 0
M  V30 3220 C 296.487 2.52263 -4.3436 0
M  V30 3221 C 298.481 1.75021 -6.129 0
M  V30 3222 C 296.168 2.2676 -5.67471 0
M  V30 3223 C 297.166 1.88199 -6.56559 0
M  V30 3224 O 296.854 1.62986 -7.87204 0
M  V30 3225 H 296.586 0.437122 -0.515655 0
M  V30 3226 H 299.14 0.765987 -1.90583 0
M  V30 3227 H 297.37 3.31947 -1.98364 0
M  V30 3228 H 299.059 3.27347 -2.39998 0
M  V30 3229 H 299.825 1.89386 -4.46495 0
M  V30 3230 H 295.704 2.81246 -3.65269 0
M  V30 3231 H 299.248 1.44848 -6.82396 0
M  V30 3232 H 295.145 2.37125 -6.00368 0
M  V30 3233 H 295.913 1.7715 -7.991 0
M  V30 3234 N 298.576 1.31904 0.862503 0
M  V30 3235 C 299.506 1.22782 1.98612 0
M  V30 3236 C 300.487 0.113362 1.69722 0
M  V30 3237 O 301.672 0.299218 1.91881 0
M  V30 3238 C 298.802 0.942058 3.34279 0
M  V30 3239 C 297.756 2.0169 3.77499 0
M  V30 3240 C 297.082 1.58369 5.10709 0
M  V30 3241 C 298.382 3.43096 3.93805 0
M  V30 3242 H 300.076 2.16788 2.06502 0
M  V30 3243 H 297.622 1.04366 0.992154 0
M  V30 3244 H 299.575 0.864818 4.1243 0
M  V30 3245 H 298.299 -0.0336603 3.26583 0
M  V30 3246 H 296.958 2.08416 3.01593 0
M  V30 3247 H 296.606 0.595628 4.99461 0
M  V30 3248 H 296.306 2.30279 5.40597 0
M  V30 3249 H 297.83 1.52067 5.91361 0
M  V30 3250 H 299.244 3.39003 4.62331 0
M  V30 3251 H 297.641 4.13288 4.35101 0
M  V30 3252 H 298.711 3.83334 2.96957 0
M  V30 3253 N 300.054 -1.07777 1.14986 0
M  V30 3254 C 301.017 -2.13041 0.845358 0
M  V30 3255 C 302.017 -1.60071 -0.152931 0
M  V30 3256 O 303.207 -1.74033 0.0761879 0
M  V30 3257 C 300.339 -3.39896 0.261383 0
M  V30 3258 H 301.532 -2.41485 1.77834 0
M  V30 3259 H 299.085 -1.23595 0.956757 0
M  V30 3260 H 299.82 -3.17091 -0.68 0
M  V30 3261 H 299.605 -3.79642 0.980514 0
M  V30 3262 H 301.095 -4.17548 0.0657687 0
M  V30 3263 N 301.532 -0.945985 -1.26051 0
M  V30 3264 C 302.778 -0.597002 -1.93814 0
M  V30 3265 C 303.111 0.862484 -1.73997 0
M  V30 3266 O 302.386 1.61769 -1.07986 0
M  V30 3267 C 302.669 -0.945937 -3.47454 0
M  V30 3268 C 302.522 -2.46052 -3.76535 0
M  V30 3269 C 303.841 -0.464785 -4.37639 0
M  V30 3270 H 300.96 -0.218366 -0.703907 0
M  V30 3271 H 303.602 -1.18107 -1.48831 0
M  V30 3272 H 301.752 -0.448902 -3.85898 0
M  V30 3273 H 303.424 -3.03065 -3.47778 0
M  V30 3274 H 301.667 -2.90194 -3.22444 0
M  V30 3275 H 302.338 -2.65517 -4.83947 0
M  V30 3276 H 304.814 -0.891016 -4.06448 0
M  V30 3277 H 303.69 -0.737712 -5.4392 0
M  V30 3278 H 303.951 0.635274 -4.37512 0
M  V30 3279 N 303.011 1.40521 -0.713556 0
M  V30 3280 C 304.259 2.00527 -0.251692 0
M  V30 3281 C 304.58 1.56857 1.15848 0
M  V30 3282 O 303.85 0.807127 1.785 0
M  V30 3283 H 302.43 0.741551 -0.0900646 0
M  V30 3284 H 305.092 1.71887 -0.918733 0
M  V30 3285 H 304.188 3.10813 -0.283192 0
M  V30 3286 N 304.489 0.459591 1.5075 0
M  V30 3287 C 305.738 -0.100971 2.01447 0
M  V30 3288 C 306.051 -1.41816 1.34713 0
M  V30 3289 O 307.257 -2.06299 1.76502 0
M  V30 3290 C 305.713 -0.23047 3.59161 0
M  V30 3291 C 305.321 1.0776 4.34847 0
M  V30 3292 C 307.065 -0.743608 4.17936 0
M  V30 3293 C 304.972 0.91253 5.84317 0
M  V30 3294 H 303.902 -0.0415102 0.752856 0
M  V30 3295 H 306.553 0.592742 1.73663 0
M  V30 3296 H 304.935 -0.987703 3.83485 0
M  V30 3297 H 306.109 1.8449 4.22256 0
M  V30 3298 H 304.424 1.52097 3.87628 0
M  V30 3299 H 307.021 -0.883959 5.27343 0
M  V30 3300 H 307.364 -1.73196 3.78562 0
M  V30 3301 H 307.897 -0.04408 3.97776 0
M  V30 3302 H 304.636 1.87391 6.28144 0
M  V30 3303 H 304.156 0.185422 5.99513 0
M  V30 3304 H 305.835 0.574547 6.44444 0
M  V30 3305 N 305.967 -1.56429 0.191757 0
M  V30 3306 C 306.9 -2.14829 -0.76967 0
M  V30 3307 C 307.878 -1.08405 -1.2119 0
M  V30 3308 O 309.062 -1.36498 -1.30002 0
M  V30 3309 C 306.189 -2.70446 -2.03903 0
M  V30 3310 C 305.235 -3.89428 -1.7392 0
M  V30 3311 S 306.068 -5.28048 -0.890265 0
M  V30 3312 C 307.224 -5.87085 -2.16984 0
M  V30 3313 H 307.457 -2.96042 -0.273204 0
M  V30 3314 H 304.99 -1.54383 -0.0231975 0
M  V30 3315 H 306.948 -3.03134 -2.76803 0
M  V30 3316 H 305.609 -1.89281 -2.50662 0
M  V30 3317 H 304.802 -4.26742 -2.68155 0
M  V30 3318 H 304.404 -3.57732 -1.09103 0
M  V30 3319 H 306.696 -6.01244 -3.12269 0
M  V30 3320 H 307.639 -6.83747 -1.84108 0
M  V30 3321 H 308.047 -5.15663 -2.29678 0
M  V30 3322 N 307.445 0.0818655 -1.57387 0
M  V30 3323 C 308.692 0.782914 -1.86753 0
M  V30 3324 C 309.02 1.78082 -0.782118 0
M  V30 3325 O 308.275 1.94426 0.22295 0
M  V30 3326 C 308.574 1.53513 -3.22752 0
M  V30 3327 C 308.24 0.678134 -4.45771 0
M  V30 3328 C 306.902 0.441929 -4.79166 0
M  V30 3329 C 309.254 0.0832243 -5.21134 0
M  V30 3330 C 306.582 -0.398833 -5.85343 0
M  V30 3331 C 308.934 -0.744935 -6.28199 0
M  V30 3332 C 307.598 -0.991107 -6.60101 0
M  V30 3333 H 306.868 0.286489 -0.683378 0
M  V30 3334 H 309.515 0.0439808 -1.91449 0
M  V30 3335 H 307.82 2.34599 -3.138 0
M  V30 3336 H 309.517 2.08218 -3.42705 0
M  V30 3337 H 306.107 0.872357 -4.19628 0
M  V30 3338 H 310.291 0.252847 -4.95655 0
M  V30 3339 H 305.547 -0.598405 -6.08465 0
M  V30 3340 H 309.721 -1.21271 -6.8576 0
M  V30 3341 H 307.348 -1.64437 -7.42202 0
M  V30 3342 N 308.923 1.53595 0.353017 0
M  V30 3343 C 309.853 1.83902 1.43883 0
M  V30 3344 C 310.834 0.693421 1.55324 0
M  V30 3345 O 312.019 0.944452 1.69687 0
M  V30 3346 C 309.149 2.04016 2.8106 0
M  V30 3347 C 308.103 3.19814 2.84434 0
M  V30 3348 C 307.429 3.25244 4.24406 0
M  V30 3349 C 308.729 4.58133 2.50822 0
M  V30 3350 H 310.423 2.74835 1.1877 0
M  V30 3351 H 307.969 1.32242 0.569917 0
M  V30 3352 H 309.922 2.238 3.57059 0
M  V30 3353 H 308.646 1.09804 3.07588 0
M  V30 3354 H 307.305 2.9987 2.10887 0
M  V30 3355 H 306.953 2.28646 4.48029 0
M  V30 3356 H 306.653 4.03054 4.27576 0
M  V30 3357 H 308.177 3.47228 5.0226 0
M  V30 3358 H 309.591 4.77995 3.16534 0
M  V30 3359 H 307.988 5.38276 2.6529 0
M  V30 3360 H 309.058 4.62387 1.46034 0
M  V30 3361 N 310.401 -0.613514 1.45168 0
M  V30 3362 C 311.647 -1.37471 1.49096 0
M  V30 3363 C 311.98 -1.93765 0.129901 0
M  V30 3364 O 311.255 -1.74707 -0.854858 0
M  V30 3365 C 311.538 -2.52701 2.56542 0
M  V30 3366 C 311.391 -2.01643 4.0207 0
M  V30 3367 C 312.71 -3.54849 2.60327 0
M  V30 3368 H 309.829 -0.498502 0.54283 0
M  V30 3369 H 312.471 -0.692125 1.76945 0
M  V30 3370 H 310.621 -3.10931 2.32926 0
M  V30 3371 H 312.293 -1.48108 4.36877 0
M  V30 3372 H 310.536 -1.32688 4.13009 0
M  V30 3373 H 311.207 -2.84681 4.72928 0
M  V30 3374 H 313.683 -3.0645 2.81474 0
M  V30 3375 H 312.559 -4.32973 3.37381 0
M  V30 3376 H 312.82 -4.10079 1.6519 0
M  V30 3377 N 311.879 -1.3236 -0.855495 0
M  V30 3378 C 312.827 -1.2118 -1.9854 0
M  V30 3379 C 313.821 -0.116788 -1.68997 0
M  V30 3380 O 315.027 -0.279657 -1.77814 0
M  V30 3381 H 311.402 -0.375608 -0.651477 0
M  V30 3382 H 313.373 -2.16743 -2.05098 0
M  V30 3383 C 312.122 -0.950849 -3.34446 0
M  V30 3384 H 311.445 -1.78563 -3.57708 0
M  V30 3385 H 312.885 -0.912863 -4.14057 0
M  V30 3386 C 311.344 0.346404 -3.35114 0
M  V30 3387 O 311.874 1.35855 -3.7803 0
M  V30 3388 N 310.08 0.36808 -2.88259 0
M  V30 3389 H 309.627 -0.456102 -2.5353 0
M  V30 3390 H 309.585 1.23591 -2.89089 0
M  V30 3391 N 313.357 1.07166 -1.15556 0
M  V30 3392 C 314.585 1.83514 -0.955519 0
M  V30 3393 C 315 1.82163 0.49621 0
M  V30 3394 O 314.357 1.23441 1.34419 0
M  V30 3395 C 314.408 3.30515 -1.46432 0
M  V30 3396 O 314.129 3.31937 -2.85918 0
M  V30 3397 C 315.63 4.23625 -1.30603 0
M  V30 3398 H 312.85 0.578926 -0.339244 0
M  V30 3399 H 315.394 1.35265 -1.53374 0
M  V30 3400 H 313.549 3.76106 -0.928584 0
M  V30 3401 H 313.963 4.23794 -3.09029 0
M  V30 3402 H 315.437 5.24831 -1.71047 0
M  V30 3403 H 315.914 4.38485 -0.250441 0
M  V30 3404 H 316.52 3.83871 -1.83094 0
M  V30 3405 N 314.835 0.952656 1.25548 0
M  V30 3406 C 316.081 0.607272 1.93494 0
M  V30 3407 C 316.414 -0.853245 1.74452 0
M  V30 3408 O 315.689 -1.61194 1.08843 0
M  V30 3409 C 315.972 0.96435 3.46947 0
M  V30 3410 C 315.825 2.48045 3.75225 0
M  V30 3411 C 317.144 0.487987 4.37386 0
M  V30 3412 H 314.263 0.222096 0.702739 0
M  V30 3413 H 316.905 1.18895 1.48203 0
M  V30 3414 H 315.055 0.469361 3.85654 0
M  V30 3415 H 316.727 3.04905 3.46166 0
M  V30 3416 H 314.97 2.919 3.209 0
M  V30 3417 H 315.641 2.6808 4.82532 0
M  V30 3418 H 318.117 0.912558 4.0597 0
M  V30 3419 H 316.993 0.766547 5.43521 0
M  V30 3420 H 317.254 -0.612063 4.37843 0
M  V30 3421 N 316.313 -1.40141 0.720998 0
M  V30 3422 C 317.243 -2.33339 0.0867621 0
M  V30 3423 C 318.224 -1.53178 -0.739622 0
M  V30 3424 O 319.409 -1.81625 -0.687449 0
M  V30 3425 C 316.539 -3.37194 -0.831728 0
M  V30 3426 C 315.493 -4.27857 -0.110558 0
M  V30 3427 C 314.819 -5.22294 -1.14513 0
M  V30 3428 C 316.119 -5.11872 1.0385 0
M  V30 3429 H 317.813 -2.86626 0.865219 0
M  V30 3430 H 315.359 -1.37814 0.417516 0
M  V30 3431 H 317.312 -4.01335 -1.28485 0
M  V30 3432 H 316.036 -2.82314 -1.64214 0
M  V30 3433 H 314.695 -3.65176 0.322797 0
M  V30 3434 H 314.343 -4.63717 -1.94874 0
M  V30 3435 H 314.043 -5.83797 -0.667446 0
M  V30 3436 H 315.567 -5.89312 -1.59824 0
M  V30 3437 H 316.981 -5.69436 0.664482 0
M  V30 3438 H 315.378 -5.82445 1.4449 0
M  V30 3439 H 316.448 -4.4753 1.86668 0
M  V30 3440 N 317.792 -0.46758 -1.50504 0
M  V30 3441 C 319.038 0.0808869 -2.03239 0
M  V30 3442 C 319.393 1.37721 -1.34353 0
M  V30 3443 O 318.686 1.86016 -0.459194 0
M  V30 3444 C 318.88 0.323995 -3.55928 0
M  V30 3445 C 318.709 -0.947215 -4.39611 0
M  V30 3446 C 317.479 -1.48951 -4.82848 0
M  V30 3447 C 319.677 -1.84166 -4.80195 0
M  V30 3448 N 317.659 -2.71011 -5.50842 0
M  V30 3449 C 319.03 -2.90815 -5.47564 0
M  V30 3450 C 321.085 -1.85246 -4.62156 0
M  V30 3451 C 319.788 -3.98529 -5.98805 0
M  V30 3452 C 321.814 -2.91914 -5.14335 0
M  V30 3453 C 321.176 -3.97282 -5.81676 0
M  V30 3454 H 317.275 -0.0103394 -0.781932 0
M  V30 3455 H 319.859 -0.635003 -1.84054 0
M  V30 3456 H 318.03 1.00892 -3.75067 0
M  V30 3457 H 319.762 0.866492 -3.95315 0
M  V30 3458 H 316.517 -1.03918 -4.62058 0
M  V30 3459 H 316.941 -3.32988 -5.89447 0
M  V30 3460 H 321.583 -1.05103 -4.09528 0
M  V30 3461 H 319.301 -4.79491 -6.50472 0
M  V30 3462 H 322.887 -2.93729 -5.0221 0
M  V30 3463 H 321.767 -4.78462 -6.21324 0
M  V30 3464 N 319.27 1.56325 -0.20005 0
M  V30 3465 C 320.516 1.98012 0.438059 0
M  V30 3466 C 320.849 1.08702 1.60927 0
M  V30 3467 O 320.124 0.140064 1.93995 0
M  V30 3468 C 320.407 3.48841 0.893419 0
M  V30 3469 C 320.26 4.48928 -0.279947 0
M  V30 3470 C 321.579 4.03498 1.75719 0
M  V30 3471 H 318.698 0.719918 0.157757 0
M  V30 3472 H 321.34 1.87743 -0.291968 0
M  V30 3473 H 319.49 3.57723 1.51547 0
M  V30 3474 H 321.162 4.52079 -0.91772 0
M  V30 3475 H 319.405 4.23694 -0.930919 0
M  V30 3476 H 320.076 5.5194 0.0812601 0
M  V30 3477 H 322.552 3.97427 1.23253 0
M  V30 3478 H 321.428 5.09393 2.04476 0
M  V30 3479 H 321.689 3.4906 2.71311 0
M  V30 3480 N 320.748 -0.0735177 1.57428 0
M  V30 3481 C 321.976 -0.785969 1.9139 0
M  V30 3482 C 322.391 -1.71207 0.795847 0
M  V30 3483 O 321.748 -1.81033 -0.230915 0
M  V30 3484 C 321.799 -1.58107 3.25091 0
M  V30 3485 O 321.52 -0.6922 4.32597 0
M  V30 3486 C 323.021 -2.39467 3.73055 0
M  V30 3487 H 320.241 -0.223558 0.632663 0
M  V30 3488 H 322.785 -0.044302 2.04452 0
M  V30 3489 H 320.94 -2.27503 3.13562 0
M  V30 3490 H 321.354 -1.24504 5.09508 0
M  V30 3491 H 322.828 -2.90716 4.69242 0
M  V30 3492 H 323.305 -3.18913 3.01979 0
M  V30 3493 H 323.911 -1.7523 3.87523 0
M  V30 3494 N 322.226 -1.5378 -0.344866 0
M  V30 3495 C 323.475 -1.7018 -1.08267 0
M  V30 3496 C 323.788 -0.471 -1.89845 0
M  V30 3497 O 324.994 -0.515917 -2.66553 0
M  V30 3498 C 323.45 -3.00923 -1.97417 0
M  V30 3499 C 323.058 -4.31335 -1.21053 0
M  V30 3500 C 324.802 -3.26688 -2.71063 0
M  V30 3501 C 322.709 -5.53153 -2.09225 0
M  V30 3502 H 321.639 -0.634138 -0.407903 0
M  V30 3503 H 324.29 -1.8028 -0.342246 0
M  V30 3504 H 322.672 -2.84676 -2.75274 0
M  V30 3505 H 323.846 -4.58281 -0.481159 0
M  V30 3506 H 322.161 -4.12173 -0.591813 0
M  V30 3507 H 324.758 -4.1489 -3.37299 0
M  V30 3508 H 325.101 -2.43639 -3.37558 0
M  V30 3509 H 325.634 -3.43705 -2.0028 0
M  V30 3510 H 322.373 -6.38741 -1.47274 0
M  V30 3511 H 321.893 -5.30458 -2.79955 0
M  V30 3512 H 323.572 -5.88744 -2.68308 0
M  V30 3513 N 323.704 0.605807 -1.45491 0
M  V30 3514 C 325.12 0.926751 -1.29936 0
M  V30 3515 C 325.32 1.99896 -0.253706 0
M  V30 3516 O 324.376 2.50038 0.351737 0
M  V30 3517 C 325.689 1.36599 -2.67883 0
M  V30 3518 C 327.237 1.4801 -2.75793 0
M  V30 3519 C 327.712 1.95309 -4.14268 0
M  V30 3520 N 329.203 2.0254 -4.16571 0
M  V30 3521 C 329.938 2.40363 -5.20589 0
M  V30 3522 N 329.434 2.77143 -6.34952 0
M  V30 3523 N 331.227 2.40718 -5.07948 0
M  V30 3524 H 323.378 -0.102862 -2.12151 0
M  V30 3525 H 325.641 0.016639 -0.947854 0
M  V30 3526 H 325.347 0.652306 -3.45598 0
M  V30 3527 H 325.221 2.33215 -2.96463 0
M  V30 3528 H 327.608 2.1847 -1.98381 0
M  V30 3529 H 327.689 0.497041 -2.50925 0
M  V30 3530 H 327.333 1.25436 -4.92167 0
M  V30 3531 H 327.263 2.94532 -4.3653 0
M  V30 3532 H 329.754 1.76699 -3.34045 0
M  V30 3533 H 330.067 3.0489 -7.10114 0
M  V30 3534 H 328.412 2.74834 -6.3835 0
M  V30 3535 H 331.603 2.11392 -4.1765 0
M  V30 3536 H 331.776 2.69869 -5.89131 0
M  V30 3537 N 325.182 1.32811 0.848464 0
M  V30 3538 C 326.129 1.22265 1.95755 0
M  V30 3539 C 327.099 0.103413 1.65778 0
M  V30 3540 O 328.284 0.280033 1.88734 0
M  V30 3541 C 325.424 0.958014 3.31536 0
M  V30 3542 C 324.537 2.16262 3.73971 0
M  V30 3543 C 323.672 1.83295 4.98575 0
M  V30 3544 C 322.711 3.00041 5.33518 0
M  V30 3545 N 321.848 2.67125 6.49299 0
M  V30 3546 H 326.688 2.17128 2.04107 0
M  V30 3547 H 324.225 1.07982 0.998913 0
M  V30 3548 H 326.183 0.785052 4.09747 0
M  V30 3549 H 324.813 0.046159 3.22767 0
M  V30 3550 H 323.865 2.44565 2.91362 0
M  V30 3551 H 325.177 3.03572 3.95785 0
M  V30 3552 H 324.331 1.62586 5.84509 0
M  V30 3553 H 323.07 0.932078 4.7871 0
M  V30 3554 H 322.075 3.21374 4.46093 0
M  V30 3555 H 323.3 3.90869 5.55336 0
M  V30 3556 H 321.246 1.79586 6.3094 0
M  V30 3557 H 321.163 3.47965 6.71161 0
M  V30 3558 H 322.431 2.49861 7.3837 0
M  V30 3559 N 326.66 -1.06551 1.16123 0
M  V30 3560 C 327.57 -2.17484 0.879662 0
M  V30 3561 C 328.586 -1.73377 -0.147104 0
M  V30 3562 O 329.762 -2.01379 0.0289128 0
M  V30 3563 C 326.827 -3.44591 0.381829 0
M  V30 3564 C 325.888 -4.0322 1.4735 0
M  V30 3565 C 325.121 -5.24261 0.999324 0
M  V30 3566 O 325.344 -5.70198 -0.151957 0
M  V30 3567 O 324.278 -5.74775 1.78653 0
M  V30 3568 H 328.104 -2.44075 1.80724 0
M  V30 3569 H 325.689 -1.16042 0.940992 0
M  V30 3570 H 327.571 -4.21254 0.111053 0
M  V30 3571 H 326.246 -3.19532 -0.51777 0
M  V30 3572 H 325.153 -3.2806 1.79798 0
M  V30 3573 H 326.486 -4.32568 2.34831 0
M  V30 3574 N 328.138 -0.959301 -1.25041 0
M  V30 3575 C 329.068 -0.501388 -2.28053 0
M  V30 3576 C 330.049 0.454673 -1.63911 0
M  V30 3577 O 331.234 0.352618 -1.90972 0
M  V30 3578 C 328.364 0.217224 -3.4662 0
M  V30 3579 C 327.318 -0.654034 -4.22973 0
M  V30 3580 C 326.644 0.195589 -5.34342 0
M  V30 3581 C 327.944 -1.93447 -4.85155 0
M  V30 3582 H 329.638 -1.36238 -2.66608 0
M  V30 3583 H 327.184 -0.656534 -1.28163 0
M  V30 3584 H 329.137 0.548732 -4.17812 0
M  V30 3585 H 327.861 1.1125 -3.07068 0
M  V30 3586 H 326.52 -0.968693 -3.5357 0
M  V30 3587 H 326.168 1.09076 -4.91031 0
M  V30 3588 H 325.868 -0.384091 -5.86343 0
M  V30 3589 H 327.392 0.521958 -6.08365 0
M  V30 3590 H 328.806 -1.66908 -5.48466 0
M  V30 3591 H 327.203 -2.46018 -5.47353 0
M  V30 3592 H 328.273 -2.63466 -4.07079 0
M  V30 3593 N 329.616 1.39756 -0.72842 0
M  V30 3594 C 330.563 2.30647 -0.0841519 0
M  V30 3595 C 331.533 1.48869 0.7367 0
M  V30 3596 O 332.718 1.77574 0.698015 0
M  V30 3597 C 329.858 3.35165 0.822091 0
M  V30 3598 C 328.971 4.31999 -0.0106663 0
M  V30 3599 C 328.106 5.23585 0.896241 0
M  V30 3600 C 327.145 6.12072 0.0583381 0
M  V30 3601 N 326.282 6.96035 0.920818 0
M  V30 3602 H 331.122 2.85173 -0.864891 0
M  V30 3603 H 328.659 1.40422 -0.438179 0
M  V30 3604 H 330.617 3.94345 1.36189 0
M  V30 3605 H 329.247 2.8211 1.56888 0
M  V30 3606 H 328.299 3.74492 -0.66781 0
M  V30 3607 H 329.611 4.9443 -0.658825 0
M  V30 3608 H 328.765 5.87759 1.50412 0
M  V30 3609 H 327.504 4.61459 1.57819 0
M  V30 3610 H 326.509 5.46916 -0.562389 0
M  V30 3611 H 327.734 6.76261 -0.6203 0
M  V30 3612 H 325.68 6.36485 1.58818 0
M  V30 3613 H 325.597 7.55284 0.32899 0
M  V30 3614 H 326.865 7.64646 1.51447 0
M  V30 3615 N 331.094 0.475555 1.50254 0
M  V30 3616 C 332.51 0.12997 1.5907 0
M  V30 3617 C 332.71 -1.36385 1.48328 0
M  V30 3618 O 331.766 -2.13754 1.34407 0
M  V30 3619 C 333.079 0.684139 2.92814 0
M  V30 3620 C 334.627 0.647965 3.0622 0
M  V30 3621 C 335.102 1.17975 4.42545 0
M  V30 3622 N 336.593 1.13936 4.48969 0
M  V30 3623 C 337.328 1.52129 5.52851 0
M  V30 3624 N 336.824 1.97793 6.63965 0
M  V30 3625 N 338.617 1.43704 5.4342 0
M  V30 3626 H 330.768 1.44706 1.55479 0
M  V30 3627 H 333.031 0.598691 0.735033 0
M  V30 3628 H 332.737 1.73079 3.06164 0
M  V30 3629 H 332.611 0.130204 3.76975 0
M  V30 3630 H 334.998 -0.38979 2.92514 0
M  V30 3631 H 335.079 1.23876 2.23805 0
M  V30 3632 H 334.723 2.21616 4.57 0
M  V30 3633 H 334.653 0.565138 5.23559 0
M  V30 3634 H 337.144 0.804488 3.69238 0
M  V30 3635 H 337.457 2.25072 7.39299 0
M  V30 3636 H 335.802 2.01749 6.65073 0
M  V30 3637 H 338.993 1.07867 4.55502 0
M  V30 3638 H 339.166 1.73794 6.24259 0
M  V30 3639 N 332.573 -1.56217 0.208337 0
M  V30 3640 C 333.52 -2.19699 -0.707192 0
M  V30 3641 C 334.49 -1.14836 -1.20008 0
M  V30 3642 O 335.675 -1.4314 -1.26157 0
M  V30 3643 C 332.815 -2.87061 -1.91546 0
M  V30 3644 C 331.928 -4.06483 -1.46271 0
M  V30 3645 C 331.063 -4.61665 -2.62752 0
M  V30 3646 C 330.102 -5.73417 -2.14147 0
M  V30 3647 N 329.239 -6.22948 -3.23853 0
M  V30 3648 H 334.079 -2.97575 -0.159111 0
M  V30 3649 H 331.616 -1.46948 -0.0667874 0
M  V30 3650 H 333.574 -3.24294 -2.62468 0
M  V30 3651 H 332.204 -2.11725 -2.43664 0
M  V30 3652 H 331.256 -3.74825 -0.648886 0
M  V30 3653 H 332.568 -4.87271 -1.06622 0
M  V30 3654 H 331.722 -5.01272 -3.41776 0
M  V30 3655 H 330.461 -3.80013 -3.05682 0
M  V30 3656 H 329.466 -5.33326 -1.33581 0
M  V30 3657 H 330.691 -6.56897 -1.72232 0
M  V30 3658 H 328.637 -5.44213 -3.6629 0
M  V30 3659 H 328.554 -6.98823 -2.88414 0
M  V30 3660 H 329.822 -6.6721 -4.03052 0
M  V30 3661 N 334.051 0.0651679 -1.57465 0
M  V30 3662 C 334.998 1.07675 -2.04144 0
M  V30 3663 C 335.968 1.38071 -0.923335 0
M  V30 3664 O 337.153 1.49026 -1.19146 0
M  V30 3665 C 334.293 2.38337 -2.49579 0
M  V30 3666 C 333.406 2.14413 -3.75035 0
M  V30 3667 C 332.541 3.38686 -4.09225 0
M  V30 3668 C 331.58 3.10156 -5.27702 0
M  V30 3669 N 330.717 4.26778 -5.57499 0
M  V30 3670 H 335.557 0.671716 -2.90331 0
M  V30 3671 H 333.094 0.3201 -1.43575 0
M  V30 3672 H 335.052 3.14632 -2.73975 0
M  V30 3673 H 333.682 2.7663 -1.6636 0
M  V30 3674 H 332.734 1.2878 -3.57939 0
M  V30 3675 H 334.046 1.89344 -4.61466 0
M  V30 3676 H 333.2 4.23373 -4.34558 0
M  V30 3677 H 331.939 3.66837 -3.21374 0
M  V30 3678 H 330.944 2.23866 -5.02159 0
M  V30 3679 H 332.169 2.8332 -6.17176 0
M  V30 3680 H 330.115 4.54948 -4.72608 0
M  V30 3681 H 330.032 4.05005 -6.38362 0
M  V30 3682 H 331.3 5.12443 -5.87386 0
M  V30 3683 N 335.529 1.53961 0.336706 0
M  V30 3684 C 336.476 1.82428 1.41381 0
M  V30 3685 C 337.446 0.670444 1.51968 0
M  V30 3686 O 338.631 0.915565 1.67398 0
M  V30 3687 C 335.771 2.04564 2.77934 0
M  V30 3688 C 334.884 3.32267 2.76084 0
M  V30 3689 C 334.019 3.44434 4.04399 0
M  V30 3690 C 333.058 4.66061 3.96804 0
M  V30 3691 N 332.195 4.75224 5.16823 0
M  V30 3692 H 337.035 2.74324 1.16405 0
M  V30 3693 H 334.572 1.35869 0.563752 0
M  V30 3694 H 336.53 2.15388 3.57301 0
M  V30 3695 H 335.16 1.15974 3.01247 0
M  V30 3696 H 334.212 3.3025 1.88784 0
M  V30 3697 H 335.524 4.21733 2.66351 0
M  V30 3698 H 334.678 3.54728 4.92192 0
M  V30 3699 H 333.417 2.53037 4.16921 0
M  V30 3700 H 332.422 4.55838 3.07396 0
M  V30 3701 H 333.647 5.58829 3.85858 0
M  V30 3702 H 331.593 3.86739 5.29876 0
M  V30 3703 H 331.51 5.58636 5.09374 0
M  V30 3704 H 332.778 4.89835 6.06367 0
M  V30 3705 N 337.007 -0.598083 1.45811 0
M  V30 3706 C 338.253 -1.35679 1.51535 0
M  V30 3707 C 338.608 -1.91745 0.15864 0
M  V30 3708 O 337.901 -1.72654 -0.830724 0
M  V30 3709 C 338.095 -2.51669 2.53766 0
M  V30 3710 C 337.924 -2.06963 3.99245 0
M  V30 3711 C 336.694 -1.92693 4.67116 0
M  V30 3712 C 338.892 -1.63855 4.875 0
M  V30 3713 N 336.874 -1.41897 5.97276 0
M  V30 3714 C 338.245 -1.24541 6.07363 0
M  V30 3715 C 340.3 -1.51533 4.74281 0
M  V30 3716 C 339.003 -0.741354 7.15469 0
M  V30 3717 C 341.029 -1.0253 5.82444 0
M  V30 3718 C 340.391 -0.641869 7.01469 0
M  V30 3719 H 336.49 -0.490042 0.609412 0
M  V30 3720 H 339.074 -0.682687 1.82339 0
M  V30 3721 H 337.245 -3.16663 2.24898 0
M  V30 3722 H 338.977 -3.18578 2.4958 0
M  V30 3723 H 335.732 -2.1417 4.22408 0
M  V30 3724 H 336.156 -1.18704 6.66512 0
M  V30 3725 H 340.798 -1.798 3.82664 0
M  V30 3726 H 338.516 -0.446243 8.06867 0
M  V30 3727 H 342.102 -0.934088 5.74253 0
M  V30 3728 H 340.982 -0.268531 7.8374 0
M  V30 3729 N 338.485 -1.33259 -0.841409 0
M  V30 3730 C 339.433 -1.23279 -1.97244 0
M  V30 3731 C 340.427 -0.134706 -1.68864 0
M  V30 3732 O 341.633 -0.298501 -1.77508 0
M  V30 3733 H 338.008 -0.382497 -0.647457 0
M  V30 3734 H 339.979 -2.18906 -2.02787 0
M  V30 3735 C 338.728 -0.986268 -3.33419 0
M  V30 3736 H 338.051 -1.82347 -3.55794 0
M  V30 3737 H 339.491 -0.956728 -4.13065 0
M  V30 3738 C 337.95 0.310842 -3.35463 0
M  V30 3739 O 338.48 1.31838 -3.79449 0
M  V30 3740 N 336.686 0.337485 -2.88634 0
M  V30 3741 H 336.233 -0.482967 -2.53032 0
M  V30 3742 H 336.191 1.20518 -2.90384 0
M  V30 3743 N 339.963 1.05934 -1.16686 0
M  V30 3744 C 340.893 2.1546 -0.899949 0
M  V30 3745 C 341.874 1.69391 0.155154 0
M  V30 3746 O 343.059 1.94199 0.00648693 0
M  V30 3747 C 340.189 3.44939 -0.404241 0
M  V30 3748 C 339.143 4.04536 -1.39767 0
M  V30 3749 C 338.469 5.29268 -0.760216 0
M  V30 3750 C 339.769 4.42893 -2.76845 0
M  V30 3751 H 341.463 2.38046 -1.81588 0
M  V30 3752 H 339.009 1.14404 -0.874514 0
M  V30 3753 H 340.962 4.20901 -0.204971 0
M  V30 3754 H 339.686 3.21983 0.547206 0
M  V30 3755 H 338.345 3.30635 -1.58355 0
M  V30 3756 H 337.993 5.02611 0.197831 0
M  V30 3757 H 337.693 5.70101 -1.42332 0
M  V30 3758 H 339.217 6.07924 -0.57105 0
M  V30 3759 H 340.631 5.09921 -2.62019 0
M  V30 3760 H 339.028 4.94721 -3.39663 0
M  V30 3761 H 340.098 3.53584 -3.31823 0
M  V30 3762 N 341.441 0.965919 1.2453 0
M  V30 3763 C 342.351 0.502154 2.29163 0
M  V30 3764 C 343.367 -0.436017 1.68448 0
M  V30 3765 O 344.543 -0.309497 1.99008 0
M  V30 3766 C 341.608 -0.201956 3.46111 0
M  V30 3767 C 340.669 0.775821 4.22232 0
M  V30 3768 C 339.902 0.105217 5.33596 0
M  V30 3769 O 340.125 -1.10683 5.59558 0
M  V30 3770 O 339.059 0.796475 5.96607 0
M  V30 3771 H 342.885 1.37194 2.70946 0
M  V30 3772 H 340.47 0.732875 1.30189 0
M  V30 3773 H 342.352 -0.597564 4.17142 0
M  V30 3774 H 341.027 -1.04673 3.06309 0
M  V30 3775 H 339.934 1.22185 3.53584 0
M  V30 3776 H 341.267 1.58896 4.65846 0
M  V30 3777 N 342.919 -1.39368 0.735821 0
M  V30 3778 C 344.168 -1.99733 0.281004 0
M  V30 3779 C 344.481 -1.59055 -1.13846 0
M  V30 3780 O 345.687 -2.12262 -1.69284 0
M  V30 3781 C 344.143 -3.57057 0.451462 0
M  V30 3782 C 343.751 -4.06697 1.87886 0
M  V30 3783 C 345.495 -4.2446 0.0584616 0
M  V30 3784 C 343.402 -5.56598 1.99883 0
M  V30 3785 H 342.332 -0.747163 0.101311 0
M  V30 3786 H 344.983 -1.59357 0.909819 0
M  V30 3787 H 343.365 -3.95234 -0.246263 0
M  V30 3788 H 344.539 -3.79853 2.60861 0
M  V30 3789 H 342.854 -3.5196 2.22515 0
M  V30 3790 H 345.451 -5.34549 0.127099 0
M  V30 3791 H 345.794 -4.04444 -0.986433 0
M  V30 3792 H 346.327 -3.9146 0.707374 0
M  V30 3793 H 343.066 -5.81494 3.02564 0
M  V30 3794 H 342.586 -5.85242 1.31346 0
M  V30 3795 H 344.265 -6.22022 1.78039 0
M  V30 3796 N 344.397 -0.483516 -1.5 0
M  V30 3797 C 345.622 0.0667119 -2.07293 0
M  V30 3798 C 346.047 1.3164 -1.3436 0
M  V30 3799 O 345.405 1.76945 -0.394987 0
M  V30 3800 C 345.453 0.321126 -3.59167 0
M  V30 3801 O 344.557 1.39927 -3.87936 0
M  V30 3802 H 343.898 -0.0184758 -0.663743 0
M  V30 3803 H 346.428 -0.678125 -1.93035 0
M  V30 3804 H 346.438 0.557906 -4.04168 0
M  V30 3805 H 345.113 -0.592007 -4.11665 0
M  V30 3806 H 343.69 1.14882 -3.54763 0
M  V30 3807 N 345.875 1.56104 -0.216619 0
M  V30 3808 C 346.805 2.23063 0.690296 0
M  V30 3809 C 347.786 1.20072 1.20485 0
M  V30 3810 O 348.971 1.48643 1.24976 0
M  V30 3811 C 346.101 2.90672 1.90072 0
M  V30 3812 C 345.055 4.00092 1.5202 0
M  V30 3813 C 344.381 4.54972 2.80899 0
M  V30 3814 C 345.681 5.17398 0.71391 0
M  V30 3815 H 347.375 2.99109 0.132038 0
M  V30 3816 H 344.921 1.43866 0.0620664 0
M  V30 3817 H 346.874 3.36204 2.54057 0
M  V30 3818 H 345.598 2.12066 2.48386 0
M  V30 3819 H 344.257 3.55283 0.903839 0
M  V30 3820 H 343.905 3.73102 3.37348 0
M  V30 3821 H 343.605 5.28817 2.56176 0
M  V30 3822 H 345.129 5.0322 3.45836 0
M  V30 3823 H 346.543 5.59342 1.25735 0
M  V30 3824 H 344.94 5.97444 0.563951 0
M  V30 3825 H 346.01 4.84088 -0.280527 0
M  V30 3826 N 347.353 -0.0568162 1.57498 0
M  V30 3827 C 348.63 -0.786954 1.79071 0
M  V30 3828 C 349.01 -1.95028 0.80792 0
M  V30 3829 O 348.358 -2.27968 -0.155858 0
M  V30 3830 C 348.568 -1.24594 3.26002 0
M  V30 3831 C 349.916 -1.67323 3.90241 0
M  V30 3832 O 350.94 -1.34124 3.29984 0
M  V30 3833 O 349.799 -2.28842 4.9628 0
M  V30 3834 H 346.893 -0.378262 0.735423 0
M  V30 3835 H 349.439 -0.035734 1.69662 0
M  V30 3836 H 348.211 -0.41423 3.89101 0
M  V30 3837 H 347.834 -2.05803 3.40192 0
M  V30 3838 N 348.832 -1.54138 -0.328536 0
M  V30 3839 C 350.057 -1.76378 -1.09112 0
M  V30 3840 C 350.482 -0.508596 -1.81094 0
M  V30 3841 O 349.84 0.539598 -1.73084 0
M  V30 3842 C 349.888 -2.95358 -2.06872 0
M  V30 3843 O 348.992 -2.66556 -3.14677 0
M  V30 3844 H 348.333 -0.584614 -0.314838 0
M  V30 3845 H 350.863 -2.01146 -0.374348 0
M  V30 3846 H 350.873 -3.22566 -2.4983 0
M  V30 3847 H 349.548 -3.86385 -1.5388 0
M  V30 3848 H 348.125 -2.50282 -2.7643 0
M  V30 3849 N 350.31 0.590341 -1.46126 0
M  V30 3850 C 351.558 1.34616 -1.50742 0
M  V30 3851 C 351.879 1.94363 -0.157486 0
M  V30 3852 O 351.149 1.78136 0.815136 0
M  V30 3853 H 349.729 0.499789 -0.555175 0
M  V30 3854 H 352.391 0.691953 -1.82203 0
M  V30 3855 H 351.487 2.15678 -2.25587 0
M  V30 3856 N 351.788 1.33704 0.83433 0
M  V30 3857 C 352.738 1.20899 1.93306 0
M  V30 3858 C 353.722 0.110783 1.60518 0
M  V30 3859 O 354.914 0.339331 1.73717 0
M  V30 3860 C 352.043 0.955018 3.29749 0
M  V30 3861 C 351.129 2.09587 3.68692 0
M  V30 3862 N 351.52 3.34621 3.79292 0
M  V30 3863 C 349.818 2.00358 3.98463 0
M  V30 3864 C 350.519 4.09472 4.13167 0
M  V30 3865 N 349.495 3.37954 4.25779 0
M  V30 3866 H 353.297 2.15665 1.99664 0
M  V30 3867 H 350.811 1.25777 1.02732 0
M  V30 3868 H 352.808 0.844208 4.08263 0
M  V30 3869 H 351.468 0.0159317 3.24696 0
M  V30 3870 H 352.479 3.69313 3.63082 0
M  V30 3871 H 349.156 1.14137 4.01596 0
M  V30 3872 H 350.546 5.17391 4.28668 0
M  V30 3873 N 353.266 -1.05314 1.17247 0
M  V30 3874 C 354.176 -2.16538 0.90268 0
M  V30 3875 C 355.192 -1.73523 -0.128707 0
M  V30 3876 O 356.368 -2.01337 0.0502701 0
M  V30 3877 C 353.433 -3.44167 0.418356 0
M  V30 3878 C 352.494 -4.01635 1.51618 0
M  V30 3879 C 351.727 -5.23171 1.05487 0
M  V30 3880 O 351.95 -5.70327 -0.0914715 0
M  V30 3881 O 350.884 -5.72848 1.8474 0
M  V30 3882 H 354.71 -2.42145 1.83302 0
M  V30 3883 H 352.295 -1.15037 0.953246 0
M  V30 3884 H 354.177 -4.21112 0.155726 0
M  V30 3885 H 352.852 -3.20063 -0.48385 0
M  V30 3886 H 351.759 -3.26135 1.83268 0
M  V30 3887 H 353.092 -4.30053 2.39405 0
M  V30 3888 N 354.744 -0.972509 -1.24016 0
M  V30 3889 C 355.691 -0.505969 -2.25186 0
M  V30 3890 C 356.661 0.451009 -1.5986 0
M  V30 3891 O 357.846 0.360307 -1.87367 0
M  V30 3892 C 354.986 0.193089 -3.44559 0
M  V30 3893 C 354.099 -0.803222 -4.24467 0
M  V30 3894 C 353.234 -0.0797793 -5.3114 0
M  V30 3895 C 352.273 -1.06583 -6.02749 0
M  V30 3896 N 351.41 -0.372074 -7.01113 0
M  V30 3897 H 356.25 -1.37351 -2.64459 0
M  V30 3898 H 353.787 -0.688419 -1.29997 0
M  V30 3899 H 355.745 0.615125 -4.1264 0
M  V30 3900 H 354.375 1.02455 -3.06109 0
M  V30 3901 H 353.427 -1.34368 -3.55878 0
M  V30 3902 H 354.739 -1.55494 -4.73944 0
M  V30 3903 H 353.893 0.400015 -6.0538 0
M  V30 3904 H 352.632 0.704597 -4.82583 0
M  V30 3905 H 351.637 -1.55645 -5.27309 0
M  V30 3906 H 352.862 -1.85074 -6.53395 0
M  V30 3907 H 350.808 0.393238 -6.5482 0
M  V30 3908 H 350.725 -1.06258 -7.48495 0
M  V30 3909 H 351.993 0.0855932 -7.79453 0
M  V30 3910 N 356.222 1.38976 -0.743202 0
M  V30 3911 C 357.169 2.30544 -0.10861 0
M  V30 3912 C 358.139 1.49642 0.720869 0
M  V30 3913 O 359.324 1.78304 0.679142 0
M  V30 3914 C 356.464 3.36018 0.786496 0
M  V30 3915 C 355.577 4.31963 -0.0564849 0
M  V30 3916 C 354.712 5.24506 0.840657 0
M  V30 3917 C 353.751 6.121 -0.00658363 0
M  V30 3918 N 352.888 6.96973 0.846943 0
M  V30 3919 H 357.728 2.8424 -0.895088 0
M  V30 3920 H 355.265 1.3995 -0.453048 0
M  V30 3921 H 357.223 3.95768 1.31999 0
M  V30 3922 H 355.853 2.83758 1.53887 0
M  V30 3923 H 354.905 3.73763 -0.707492 0
M  V30 3924 H 356.217 4.93703 -0.711229 0
M  V30 3925 H 355.371 5.89322 1.4417 0
M  V30 3926 H 354.11 4.63107 1.52916 0
M  V30 3927 H 353.115 5.46289 -0.620366 0
M  V30 3928 H 354.34 6.75565 -0.691992 0
M  V30 3929 H 352.286 6.38133 1.52059 0
M  V30 3930 H 352.203 7.5559 0.248864 0
M  V30 3931 H 353.471 7.6621 1.43328 0
M  V30 3932 N 357.7 0.491464 1.49741 0
M  V30 3933 C 358.946 -0.0565092 2.02721 0
M  V30 3934 C 359.279 -1.37522 1.37118 0
M  V30 3935 O 358.554 -1.87866 0.503645 0
M  V30 3936 C 358.837 -0.219051 3.59433 0
M  V30 3937 C 358.69 1.12211 4.35579 0
M  V30 3938 C 360.009 -0.964157 4.29409 0
M  V30 3939 H 357.128 -0.0190627 0.736753 0
M  V30 3940 H 359.77 0.641021 1.7886 0
M  V30 3941 H 357.92 -0.813165 3.79895 0
M  V30 3942 H 359.592 1.75437 4.26637 0
M  V30 3943 H 357.835 1.71377 3.98513 0
M  V30 3944 H 358.506 0.961794 5.43556 0
M  V30 3945 H 360.982 -0.460378 4.13545 0
M  V30 3946 H 359.858 -1.04671 5.38828 0
M  V30 3947 H 360.119 -2.00563 3.93988 0
M  V30 3948 N 359.178 -1.55987 0.224894 0
M  V30 3949 C 360.427 -1.97566 -0.406273 0
M  V30 3950 C 360.74 -1.11569 -1.6066 0
M  V30 3951 O 361.946 -1.43062 -2.3075 0
M  V30 3952 C 360.402 -3.51474 -0.774207 0
M  V30 3953 C 360.01 -4.46179 0.403496 0
M  V30 3954 C 361.754 -4.01758 -1.37079 0
M  V30 3955 C 359.661 -5.91399 0.0129412 0
M  V30 3956 H 358.591 -0.737777 -0.155565 0
M  V30 3957 H 361.242 -1.80659 0.321635 0
M  V30 3958 H 359.624 -3.63994 -1.55963 0
M  V30 3959 H 360.798 -4.45409 1.18101 0
M  V30 3960 H 359.113 -4.06255 0.913536 0
M  V30 3961 H 361.71 -5.07756 -1.67596 0
M  V30 3962 H 362.053 -3.47805 -2.28773 0
M  V30 3963 H 362.586 -3.92475 -0.648733 0
M  V30 3964 H 359.325 -6.49341 0.896451 0
M  V30 3965 H 358.845 -5.95356 -0.728821 0
M  V30 3966 H 360.524 -6.45683 -0.412582 0
M  V30 3967 N 360.656 0.0484629 -1.57525 0
M  V30 3968 C 361.881 0.759177 -1.93006 0
M  V30 3969 C 362.306 1.69125 -0.823317 0
M  V30 3970 O 361.664 1.79931 0.222364 0
M  V30 3971 C 361.712 1.50899 -3.27509 0
M  V30 3972 O 360.816 2.62112 -3.18388 0
M  V30 3973 H 360.157 0.205564 -0.631379 0
M  V30 3974 H 362.687 0.00972959 -2.04598 0
M  V30 3975 H 362.697 1.88317 -3.6194 0
M  V30 3976 H 361.372 0.825269 -4.0763 0
M  V30 3977 H 359.949 2.27379 -2.95556 0
M  V30 3978 N 362.134 1.5431 0.320358 0
M  V30 3979 C 363.359 1.76954 1.08175 0
M  V30 3980 C 363.784 0.518193 1.80821 0
M  V30 3981 O 363.142 -0.530411 1.73368 0
M  V30 3982 C 363.19 2.96451 2.05303 0
M  V30 3983 O 362.294 2.68221 3.13259 0
M  V30 3984 H 361.635 0.586275 0.311733 0
M  V30 3985 H 364.165 2.01342 0.363676 0
M  V30 3986 H 364.175 3.23887 2.48116 0
M  V30 3987 H 362.85 3.87196 1.51829 0
M  V30 3988 H 361.427 2.51744 2.75099 0
M  V30 3989 N 363.613 -0.582584 1.46437 0
M  V30 3990 C 364.543 -1.70187 1.59871 0
M  V30 3991 C 365.524 -1.64066 0.449042 0
M  V30 3992 O 366.709 -1.82081 0.6753 0
M  V30 3993 C 363.839 -3.08827 1.58881 0
M  V30 3994 C 362.793 -3.29779 2.72819 0
M  V30 3995 C 362.119 -4.68947 2.5689 0
M  V30 3996 C 363.419 -3.17601 4.1464 0
M  V30 3997 H 365.113 -1.592 2.53566 0
M  V30 3998 H 362.659 -0.764472 1.22032 0
M  V30 3999 H 364.612 -3.86951 1.66873 0
M  V30 4000 H 363.336 -3.20713 0.617306 0
M  V30 4001 H 361.995 -2.54054 2.64296 0
M  V30 4002 H 361.643 -4.77599 1.57823 0
M  V30 4003 H 361.343 -4.83919 3.33312 0
M  V30 4004 H 362.867 -5.4924 2.66773 0
M  V30 4005 H 364.281 -3.8557 4.24274 0
M  V30 4006 H 362.678 -3.44094 4.9165 0
M  V30 4007 H 363.748 -2.14681 4.34788 0
M  V30 4008 N 365.091 -1.34144 -0.827227 0
M  V30 4009 C 366.023 -1.21206 -1.9453 0
M  V30 4010 C 367.036 -0.140176 -1.62195 0
M  V30 4011 O 368.225 -0.391647 -1.7415 0
M  V30 4012 C 365.325 -0.839141 -3.28347 0
M  V30 4013 C 364.498 -2.0051 -3.88734 0
M  V30 4014 C 363.557 -1.61128 -5.00923 0
M  V30 4015 O 362.583 -2.32726 -5.19449 0
M  V30 4016 N 363.785 -0.522958 -5.7814 0
M  V30 4017 H 366.55 -2.17525 -2.06162 0
M  V30 4018 H 364.111 -1.27043 -1.00358 0
M  V30 4019 H 366.103 -0.557556 -4.00841 0
M  V30 4020 H 364.673 0.0337293 -3.12582 0
M  V30 4021 H 363.893 -2.45166 -3.08686 0
M  V30 4022 H 365.181 -2.78498 -4.25812 0
M  V30 4023 H 364.579 0.0723518 -5.65654 0
M  V30 4024 H 363.136 -0.301089 -6.51104 0
M  V30 4025 N 366.569 1.04691 -1.17803 0
M  V30 4026 C 367.479 2.16057 -0.914151 0
M  V30 4027 C 368.495 1.73589 0.119503 0
M  V30 4028 O 369.671 2.01308 -0.0609468 0
M  V30 4029 C 366.736 3.4394 -0.436603 0
M  V30 4030 C 365.797 4.00825 -1.53746 0
M  V30 4031 C 365.03 5.22604 -1.0826 0
M  V30 4032 O 365.253 5.70367 0.0612244 0
M  V30 4033 O 364.187 5.7186 -1.87775 0
M  V30 4034 H 368.013 2.41169 -1.84584 0
M  V30 4035 H 365.598 1.1453 -0.959334 0
M  V30 4036 H 367.48 4.21024 -0.178057 0
M  V30 4037 H 366.155 3.20316 0.466869 0
M  V30 4038 H 365.062 3.25158 -1.84995 0
M  V30 4039 H 366.395 4.28778 -2.41683 0
M  V30 4040 N 368.047 0.979072 1.23499 0
M  V30 4041 C 369.324 0.563674 1.87302 0
M  V30 4042 C 369.704 -0.959199 1.88049 0
M  V30 4043 O 369.052 -1.83535 1.36114 0
M  V30 4044 C 369.262 1.16822 3.28867 0
M  V30 4045 C 370.61 1.26014 4.0547 0
M  V30 4046 O 371.634 1.12158 3.38082 0
M  V30 4047 O 370.493 1.48044 5.26066 0
M  V30 4048 H 367.587 0.189602 0.804972 0
M  V30 4049 H 370.133 1.07407 1.31384 0
M  V30 4050 H 368.905 2.21049 3.22883 0
M  V30 4051 H 368.528 0.642564 3.92373 0
M  V30 4052 N 369.525 -1.3858 0.750561 0
M  V30 4053 C 370.941 -1.53759 0.427824 0
M  V30 4054 C 371.141 -1.71401 -1.05943 0
M  V30 4055 O 370.197 -1.72331 -1.84549 0
M  V30 4056 C 371.51 -2.74642 1.22443 0
M  V30 4057 C 373.058 -2.88489 1.2142 0
M  V30 4058 C 373.533 -4.12329 1.9937 0
M  V30 4059 N 375.024 -4.194 1.96616 0
M  V30 4060 C 375.759 -5.14209 2.53727 0
M  V30 4061 N 375.255 -6.14709 3.19539 0
M  V30 4062 N 377.048 -5.06537 2.43673 0
M  V30 4063 H 369.199 -1.25377 1.71447 0
M  V30 4064 H 371.462 -0.608844 0.726645 0
M  V30 4065 H 371.168 -2.68 2.27747 0
M  V30 4066 H 371.042 -3.67745 0.839273 0
M  V30 4067 H 373.429 -2.94614 0.169232 0
M  V30 4068 H 373.51 -1.96406 1.63885 0
M  V30 4069 H 373.154 -4.06966 3.03877 0
M  V30 4070 H 373.084 -5.03486 1.54302 0
M  V30 4071 H 375.575 -3.47421 1.48684 0
M  V30 4072 H 375.888 -6.8354 3.60545 0
M  V30 4073 H 374.233 -6.1505 3.23633 0
M  V30 4074 H 377.424 -4.26962 1.91889 0
M  V30 4075 H 377.597 -5.80245 2.88479 0
M  V30 4076 N 371.003 -0.499398 -1.49478 0
M  V30 4077 C 371.953 0.299103 -2.2603 0
M  V30 4078 C 372.937 0.936934 -1.30807 0
M  V30 4079 O 374.129 0.844798 -1.55538 0
M  V30 4080 C 371.258 1.36391 -3.15044 0
M  V30 4081 C 370.344 0.732398 -4.17728 0
M  V30 4082 N 370.735 -0.164028 -5.05534 0
M  V30 4083 C 369.033 0.993162 -4.34801 0
M  V30 4084 C 369.734 -0.525345 -5.79323 0
M  V30 4085 N 368.71 0.106348 -5.43496 0
M  V30 4086 H 372.512 -0.391003 -2.91287 0
M  V30 4087 H 370.026 -0.31537 -1.59308 0
M  V30 4088 H 372.023 1.94939 -3.68516 0
M  V30 4089 H 370.683 2.05571 -2.51338 0
M  V30 4090 H 371.694 -0.534736 -5.15132 0
M  V30 4091 H 368.371 1.67783 -3.82302 0
M  V30 4092 H 369.761 -1.25862 -6.60006 0
M  V30 4093 N 372.481 1.55866 -0.233164 0
M  V30 4094 C 373.411 2.23783 0.666599 0
M  V30 4095 C 374.392 1.21343 1.19205 0
M  V30 4096 O 375.577 1.4996 1.23392 0
M  V30 4097 C 372.707 2.92671 1.86978 0
M  V30 4098 C 371.661 4.01682 1.47768 0
M  V30 4099 C 370.987 4.57926 2.76058 0
M  V30 4100 C 372.287 5.18126 0.658993 0
M  V30 4101 H 373.981 2.99232 0.100306 0
M  V30 4102 H 371.527 1.43924 0.046804 0
M  V30 4103 H 373.48 3.3888 2.50476 0
M  V30 4104 H 372.204 2.14688 2.46123 0
M  V30 4105 H 370.863 3.56222 0.866106 0
M  V30 4106 H 370.511 3.76659 3.33372 0
M  V30 4107 H 370.211 5.31505 2.50552 0
M  V30 4108 H 371.735 5.06859 3.40479 0
M  V30 4109 H 373.149 5.60644 1.19795 0
M  V30 4110 H 371.546 5.98009 0.500552 0
M  V30 4111 H 372.616 4.83763 -0.331856 0
M  V30 4112 N 373.959 -0.0401083 1.57549 0
M  V30 4113 C 374.869 -1.06133 2.0922 0
M  V30 4114 C 375.885 -1.40356 1.0284 0
M  V30 4115 O 377.061 -1.49897 1.34509 0
M  V30 4116 C 374.126 -2.34658 2.55218 0
M  V30 4117 C 373.187 -2.07117 3.76033 0
M  V30 4118 C 372.42 -3.29514 4.19829 0
M  V30 4119 O 372.643 -4.39794 3.63232 0
M  V30 4120 O 371.577 -3.15863 5.12362 0
M  V30 4121 H 375.403 -0.652244 2.96613 0
M  V30 4122 H 372.988 -0.256368 1.47184 0
M  V30 4123 H 374.87 -3.10239 2.85184 0
M  V30 4124 H 373.545 -2.74883 1.70941 0
M  V30 4125 H 372.452 -1.29139 3.51104 0
M  V30 4126 H 373.785 -1.71754 4.61261 0
M  V30 4127 N 375.437 -1.54477 -0.31217 0
M  V30 4128 C 376.347 -1.87695 -1.4074 0
M  V30 4129 C 377.363 -0.769975 -1.56036 0
M  V30 4130 O 378.539 -1.06537 -1.70915 0
M  V30 4131 C 375.604 -2.10755 -2.75287 0
M  V30 4132 C 374.665 -3.34514 -2.69071 0
M  V30 4133 C 373.898 -3.56465 -3.97201 0
M  V30 4134 O 374.121 -2.81637 -4.96021 0
M  V30 4135 O 373.055 -4.49964 -3.9977 0
M  V30 4136 H 376.881 -2.80849 -1.15574 0
M  V30 4137 H 374.466 -1.40526 -0.507228 0
M  V30 4138 H 376.348 -2.27188 -3.54913 0
M  V30 4139 H 375.023 -1.20788 -3.0032 0
M  V30 4140 H 373.93 -3.23456 -1.87955 0
M  V30 4141 H 375.263 -4.24575 -2.48992 0
M  V30 4142 N 376.915 0.57481 -1.46744 0
M  V30 4143 C 377.825 1.711 -1.60505 0
M  V30 4144 C 378.841 1.67008 -0.488307 0
M  V30 4145 O 380.017 1.86774 -0.753495 0
M  V30 4146 C 377.082 3.07608 -1.59932 0
M  V30 4147 C 376.143 3.22904 -2.82898 0
M  V30 4148 C 375.376 4.529 -2.82343 0
M  V30 4149 O 375.599 5.37278 -1.91542 0
M  V30 4150 O 374.533 4.71611 -3.73987 0
M  V30 4151 H 378.359 1.62436 -2.56609 0
M  V30 4152 H 375.944 0.742779 -1.29627 0
M  V30 4153 H 377.826 3.88877 -1.62336 0
M  V30 4154 H 376.501 3.16692 -0.669898 0
M  V30 4155 H 375.408 2.41099 -2.86046 0
M  V30 4156 H 376.741 3.18715 -3.75076 0
M  V30 4157 N 378.394 1.34581 0.820102 0
M  V30 4158 C 379.324 1.29038 1.94606 0
M  V30 4159 C 380.305 0.1673 1.69275 0
M  V30 4160 O 381.49 0.360112 1.90832 0
M  V30 4161 C 378.62 1.04793 3.31113 0
M  V30 4162 C 377.574 2.13597 3.70891 0
M  V30 4163 C 376.9 1.74537 5.05412 0
M  V30 4164 C 378.2 3.55451 3.8269 0
M  V30 4165 H 379.894 2.23248 1.99501 0
M  V30 4166 H 377.44 1.0747 0.958449 0
M  V30 4167 H 379.393 0.995592 4.0947 0
M  V30 4168 H 378.117 0.0702565 3.26524 0
M  V30 4169 H 376.776 2.17905 2.9481 0
M  V30 4170 H 376.424 0.754226 4.97313 0
M  V30 4171 H 376.124 2.47361 5.32997 0
M  V30 4172 H 377.648 1.70803 5.86224 0
M  V30 4173 H 379.062 3.5354 4.51312 0
M  V30 4174 H 377.459 4.26922 4.21732 0
M  V30 4175 H 378.529 3.92587 2.84611 0
M  V30 4176 N 379.872 -1.04064 1.18357 0
M  V30 4177 C 380.819 -2.12077 0.910603 0
M  V30 4178 C 381.789 -1.65421 -0.15 0
M  V30 4179 O 382.974 -1.90797 -0.0103614 0
M  V30 4180 C 380.114 -3.42252 0.442472 0
M  V30 4181 C 379.227 -4.0252 1.5685 0
M  V30 4182 C 378.362 -5.20657 1.05309 0
M  V30 4183 C 377.401 -5.72955 2.1538 0
M  V30 4184 N 376.538 -6.8238 1.65233 0
M  V30 4185 H 381.378 -2.34764 1.83548 0
M  V30 4186 H 378.915 -1.15157 0.915279 0
M  V30 4187 H 380.873 -4.16921 0.152534 0
M  V30 4188 H 379.503 -3.19712 -0.445428 0
M  V30 4189 H 378.555 -3.25178 1.97391 0
M  V30 4190 H 379.867 -4.37362 2.39824 0
M  V30 4191 H 379.021 -6.0244 0.717677 0
M  V30 4192 H 377.76 -4.87318 0.19293 0
M  V30 4193 H 376.765 -4.89793 2.49766 0
M  V30 4194 H 377.99 -6.08337 3.01832 0
M  V30 4195 H 375.936 -6.50917 0.815064 0
M  V30 4196 H 375.853 -7.16286 2.41805 0
M  V30 4197 H 377.121 -7.67788 1.34619 0
M  V30 4198 N 381.35 -0.985608 -1.22978 0
M  V30 4199 C 382.59 -0.665487 -1.93263 0
M  V30 4200 C 382.954 0.78706 -1.75127 0
M  V30 4201 O 384.155 1.21826 -2.39608 0
M  V30 4202 C 382.426 -1.0515 -3.41582 0
M  V30 4203 S 383.985 -0.848637 -4.30516 0
M  V30 4204 H 380.803 -0.24355 -0.667985 0
M  V30 4205 H 383.405 -1.26635 -1.48942 0
M  V30 4206 H 382.109 -2.10517 -3.52293 0
M  V30 4207 H 381.64 -0.442134 -3.90908 0
M  V30 4208 H 383.655 0.264717 -4.95493 0
M  V30 4209 N 382.828 1.3818 -0.7579 0
M  V30 4210 C 383.76 2.2901 -0.0932177 0
M  V30 4211 C 384.773 1.47958 0.679136 0
M  V30 4212 O 385.962 1.70773 0.519514 0
M  V30 4213 C 383.062 3.26953 0.89192 0
M  V30 4214 C 382.235 4.37045 0.176303 0
M  V30 4215 C 381.294 5.15148 1.07281 0
M  V30 4216 O 380.32 5.66616 0.541728 0
M  V30 4217 N 381.522 5.28542 2.40049 0
M  V30 4218 H 384.287 2.86694 -0.873303 0
M  V30 4219 H 381.848 1.50007 -0.609054 0
M  V30 4220 H 383.84 3.76083 1.49479 0
M  V30 4221 H 382.41 2.70136 1.57306 0
M  V30 4222 H 381.63 3.89493 -0.607328 0
M  V30 4223 H 382.918 5.07801 -0.318718 0
M  V30 4224 H 382.316 4.88285 2.85647 0
M  V30 4225 H 380.873 5.8103 2.95376 0
M  V30 4226 N 384.306 0.507319 1.49211 0
M  V30 4227 C 385.216 -0.272136 2.33016 0
M  V30 4228 C 386.232 -0.961206 1.45041 0
M  V30 4229 O 387.408 -0.941191 1.78055 0
M  V30 4230 C 384.473 -1.31895 3.20631 0
M  V30 4231 C 383.534 -0.642648 4.24463 0
M  V30 4232 C 382.767 -1.63959 5.07891 0
M  V30 4233 O 382.99 -2.87007 4.92933 0
M  V30 4234 O 381.924 -1.19143 5.8999 0
M  V30 4235 H 385.75 0.413982 3.00865 0
M  V30 4236 H 383.335 0.268556 1.46966 0
M  V30 4237 H 385.217 -1.92446 3.7489 0
M  V30 4238 H 383.892 -1.98788 2.5547 0
M  V30 4239 H 382.799 0.00276252 3.741 0
M  V30 4240 H 384.132 -0.0160534 4.92197 0
M  V30 4241 N 385.784 -1.5574 0.241426 0
M  V30 4242 C 386.716 -2.18469 -0.693091 0
M  V30 4243 C 387.729 -1.15942 -1.14286 0
M  V30 4244 O 388.918 -1.42832 -1.07058 0
M  V30 4245 C 386.018 -2.7696 -1.95311 0
M  V30 4246 C 385.191 -4.04853 -1.65568 0
M  V30 4247 C 384.25 -4.47715 -2.76474 0
M  V30 4248 O 383.276 -5.14205 -2.44094 0
M  V30 4249 N 384.478 -4.15044 -4.05855 0
M  V30 4250 H 387.243 -2.99292 -0.156388 0
M  V30 4251 H 384.804 -1.61784 0.0611752 0
M  V30 4252 H 386.796 -3.02594 -2.68736 0
M  V30 4253 H 385.366 -2.00326 -2.39975 0
M  V30 4254 H 384.586 -3.86865 -0.756886 0
M  V30 4255 H 385.874 -4.88246 -1.43153 0
M  V30 4256 H 385.272 -3.61654 -4.34998 0
M  V30 4257 H 383.829 -4.45526 -4.75762 0
M  V30 4258 N 387.262 0.0317525 -1.57568 0
M  V30 4259 C 388.209 1.0332 -2.06382 0
M  V30 4260 C 389.179 1.36082 -0.952414 0
M  V30 4261 O 390.364 1.46466 -1.2228 0
M  V30 4262 C 387.504 2.32989 -2.54578 0
M  V30 4263 C 386.617 2.0641 -3.79498 0
M  V30 4264 C 385.752 3.2993 -4.16317 0
M  V30 4265 C 384.791 2.98893 -5.34162 0
M  V30 4266 N 383.928 4.14857 -5.66426 0
M  V30 4267 H 388.768 0.609982 -2.9169 0
M  V30 4268 H 386.305 0.289573 -1.44222 0
M  V30 4269 H 388.263 3.0875 -2.80587 0
M  V30 4270 H 386.893 2.73039 -1.7219 0
M  V30 4271 H 385.945 1.21158 -3.6059 0
M  V30 4272 H 387.257 1.79513 -4.65378 0
M  V30 4273 H 386.411 4.1406 -4.4344 0
M  V30 4274 H 385.15 3.59938 -3.29083 0
M  V30 4275 H 384.155 2.13164 -5.06795 0
M  V30 4276 H 385.38 2.70165 -6.23047 0
M  V30 4277 H 383.326 4.44821 -4.82151 0
M  V30 4278 H 383.243 3.91374 -6.4681 0
M  V30 4279 H 384.511 4.99868 -5.98124 0
M  V30 4280 N 388.74 1.54641 0.303973 0
M  V30 4281 C 389.65 1.88439 1.39743 0
M  V30 4282 C 390.666 0.778239 1.55626 0
M  V30 4283 O 391.842 1.07442 1.70347 0
M  V30 4284 C 388.907 2.12212 2.74166 0
M  V30 4285 C 387.968 3.35936 2.67293 0
M  V30 4286 C 387.201 3.58566 3.95305 0
M  V30 4287 O 387.424 2.84263 4.9452 0
M  V30 4288 O 386.358 4.52078 3.97378 0
M  V30 4289 H 390.184 2.81458 1.14083 0
M  V30 4290 H 387.769 1.40793 0.499768 0
M  V30 4291 H 389.651 2.29067 3.53704 0
M  V30 4292 H 388.326 1.22379 2.99675 0
M  V30 4293 H 387.233 3.24448 1.86237 0
M  V30 4294 H 388.566 4.2589 2.46736 0
M  V30 4295 N 390.218 -0.567019 1.47046 0
M  V30 4296 C 391.128 -1.70247 1.6141 0
M  V30 4297 C 392.144 -1.66746 0.497157 0
M  V30 4298 O 393.32 -1.86371 0.763389 0
M  V30 4299 C 390.385 -3.06756 1.61561 0
M  V30 4300 C 389.446 -3.21399 2.84607 0
M  V30 4301 C 388.679 -4.51396 2.84741 0
M  V30 4302 O 388.902 -5.36255 1.94388 0
M  V30 4303 O 387.836 -4.69621 3.76483 0
M  V30 4304 H 391.662 -1.61073 2.57467 0
M  V30 4305 H 389.247 -0.735894 1.30019 0
M  V30 4306 H 391.129 -3.8801 1.64396 0
M  V30 4307 H 389.804 -3.16333 0.686684 0
M  V30 4308 H 388.711 -2.39579 2.8732 0
M  V30 4309 H 390.044 -3.16721 3.76761 0
M  V30 4310 N 391.696 -1.35014 -0.812953 0
M  V30 4311 C 392.628 -1.23262 -1.93233 0
M  V30 4312 C 393.641 -0.157371 -1.62038 0
M  V30 4313 O 394.83 -0.410096 -1.73725 0
M  V30 4314 C 391.93 -0.87392 -3.27438 0
M  V30 4315 C 391.103 -2.04622 -3.86586 0
M  V30 4316 C 390.162 -1.66432 -4.99186 0
M  V30 4317 O 389.188 -2.38222 -5.16951 0
M  V30 4318 N 390.39 -0.584248 -5.77552 0
M  V30 4319 H 393.155 -2.19699 -2.03844 0
M  V30 4320 H 390.716 -1.281 -0.99005 0
M  V30 4321 H 392.708 -0.600039 -4.00227 0
M  V30 4322 H 391.278 0.00057392 -3.126 0
M  V30 4323 H 390.498 -2.48427 -3.06068 0
M  V30 4324 H 391.786 -2.82999 -4.22835 0
M  V30 4325 H 391.184 0.0123526 -5.65699 0
M  V30 4326 H 389.741 -0.37013 -6.50748 0
M  V30 4327 N 393.175 1.03435 -1.18907 0
M  V30 4328 C 394.105 2.13503 -0.945448 0
M  V30 4329 C 395.086 1.69682 0.119189 0
M  V30 4330 O 396.271 1.94169 -0.034707 0
M  V30 4331 C 393.401 3.44004 -0.477316 0
M  V30 4332 C 392.355 4.0148 -1.48316 0
M  V30 4333 C 391.681 5.27537 -0.872311 0
M  V30 4334 C 392.981 4.36921 -2.86177 0
M  V30 4335 H 394.675 2.34141 -1.86597 0
M  V30 4336 H 392.221 1.12523 -0.898584 0
M  V30 4337 H 394.174 4.20372 -0.294204 0
M  V30 4338 H 392.898 3.23072 0.478786 0
M  V30 4339 H 391.557 3.27201 -1.65332 0
M  V30 4340 H 391.205 5.02917 0.0911752 0
M  V30 4341 H 390.905 5.66954 -1.54393 0
M  V30 4342 H 392.429 6.06576 -0.699871 0
M  V30 4343 H 393.843 5.04248 -2.72776 0
M  V30 4344 H 392.24 4.87405 -3.50081 0
M  V30 4345 H 393.31 3.46466 -3.39248 0
M  V30 4346 N 394.653 0.992116 1.22453 0
M  V30 4347 C 395.585 0.500024 2.23679 0
M  V30 4348 C 396.598 -0.404463 1.57696 0
M  V30 4349 O 397.787 -0.206722 1.77299 0
M  V30 4350 C 394.887 -0.294711 3.37616 0
M  V30 4351 C 394.06 0.605723 4.33186 0
M  V30 4352 C 393.119 -0.13717 5.26021 0
M  V30 4353 O 392.145 0.477164 5.67196 0
M  V30 4354 N 393.347 -1.4197 5.62872 0
M  V30 4355 H 396.112 1.37045 2.66531 0
M  V30 4356 H 393.673 0.866741 1.36745 0
M  V30 4357 H 395.665 -0.800329 3.96707 0
M  V30 4358 H 394.235 -1.06623 2.93854 0
M  V30 4359 H 393.455 1.29202 3.72425 0
M  V30 4360 H 394.743 1.21896 4.93983 0
M  V30 4361 H 394.141 -1.94015 5.31389 0
M  V30 4362 H 392.698 -1.87052 6.24383 0
M  V30 4363 N 396.131 -1.37776 0.765217 0
M  V30 4364 C 397.041 -2.34135 0.147666 0
M  V30 4365 C 398.057 -1.59854 -0.687215 0
M  V30 4366 O 399.233 -1.91983 -0.608659 0
M  V30 4367 C 396.298 -3.3901 -0.72617 0
M  V30 4368 C 395.359 -4.2912 0.124417 0
M  V30 4369 C 394.592 -5.28986 -0.707807 0
M  V30 4370 O 394.815 -5.36205 -1.94525 0
M  V30 4371 O 393.749 -6.01779 -0.12046 0
M  V30 4372 H 397.575 -2.88664 0.943758 0
M  V30 4373 H 395.16 -1.39824 0.526277 0
M  V30 4374 H 397.042 -4.03195 -1.22524 0
M  V30 4375 H 395.717 -2.86819 -1.50056 0
M  V30 4376 H 394.624 -3.68057 0.669696 0
M  V30 4377 H 395.957 -4.84598 0.861736 0
M  V30 4378 N 397.609 -0.515225 -1.4894 0
M  V30 4379 C 398.857 0.0241671 -2.02086 0
M  V30 4380 C 399.178 1.3616 -1.3959 0
M  V30 4381 O 398.448 1.87841 -0.556121 0
M  V30 4382 H 397.028 0.0119203 -0.746905 0
M  V30 4383 H 399.69 -0.675702 -1.82812 0
M  V30 4384 H 398.786 0.143385 -3.1177 0
M  V30 4385 N 399.087 1.5561 -0.249682 0
M  V30 4386 C 400.333 1.99306 0.374841 0
M  V30 4387 C 400.666 1.13767 1.57387 0
M  V30 4388 O 399.941 0.201711 1.93451 0
M  V30 4389 C 400.224 3.51507 0.781986 0
M  V30 4390 C 400.077 4.4781 -0.422629 0
M  V30 4391 C 401.396 4.08884 1.62793 0
M  V30 4392 H 398.515 0.724572 0.134773 0
M  V30 4393 H 401.157 1.86719 -0.351549 0
M  V30 4394 H 399.307 3.62363 1.4009 0
M  V30 4395 H 400.979 4.48931 -1.06108 0
M  V30 4396 H 399.222 4.20518 -1.06524 0
M  V30 4397 H 399.893 5.51919 -0.0943766 0
M  V30 4398 H 402.369 4.01147 1.10547 0
M  V30 4399 H 401.245 5.1564 1.88166 0
M  V30 4400 H 401.506 3.57515 2.60068 0
M  V30 4401 N 400.565 -0.0233959 1.57583 0
M  V30 4402 C 401.515 -1.03023 2.03397 0
M  V30 4403 C 402.499 -1.31701 0.924315 0
M  V30 4404 O 403.691 -1.31191 1.18819 0
M  V30 4405 C 400.82 -2.32961 2.52159 0
M  V30 4406 C 399.906 -2.07349 3.69956 0
M  V30 4407 N 400.297 -1.51814 4.82479 0
M  V30 4408 C 398.595 -2.37606 3.77438 0
M  V30 4409 C 399.296 -1.42136 5.64068 0
M  V30 4410 N 398.272 -1.89891 5.09355 0
M  V30 4411 H 402.074 -0.594962 2.87815 0
M  V30 4412 H 399.588 -0.229586 1.60769 0
M  V30 4413 H 401.585 -3.05906 2.83244 0
M  V30 4414 H 400.245 -2.77162 1.69149 0
M  V30 4415 H 401.256 -1.20008 5.03804 0
M  V30 4416 H 397.933 -2.84842 3.05239 0
M  V30 4417 H 399.323 -0.996405 6.64471 0
M  V30 4418 N 402.043 -1.548 -0.295768 0
M  V30 4419 C 403.459 -1.4613 -0.641722 0
M  V30 4420 C 403.659 -0.656771 -1.90496 0
M  V30 4421 O 402.715 -0.166547 -2.5195 0
M  V30 4422 C 404.028 -2.90141 -0.789852 0
M  V30 4423 C 405.576 -3.00216 -0.885396 0
M  V30 4424 C 406.051 -4.45434 -1.06548 0
M  V30 4425 N 407.542 -4.49166 -1.13156 0
M  V30 4426 C 408.277 -5.58717 -1.28929 0
M  V30 4427 N 407.773 -6.78182 -1.41567 0
M  V30 4428 N 409.566 -5.46415 -1.31859 0
M  V30 4429 H 401.717 -2.05574 0.534147 0
M  V30 4430 H 403.98 -0.931259 0.177372 0
M  V30 4431 H 403.686 -3.51635 0.0675598 0
M  V30 4432 H 403.56 -3.37859 -1.67724 0
M  V30 4433 H 405.947 -2.38833 -1.73329 0
M  V30 4434 H 406.028 -2.55787 0.0261185 0
M  V30 4435 H 405.672 -5.07413 -0.222335 0
M  V30 4436 H 405.602 -4.87499 -1.9913 0
M  V30 4437 H 408.093 -3.631 -1.04721 0
M  V30 4438 H 408.406 -7.57428 -1.53372 0
M  V30 4439 H 406.751 -6.81037 -1.38613 0
M  V30 4440 H 409.942 -4.5203 -1.21601 0
M  V30 4441 H 410.115 -6.31841 -1.43808 0
M  V30 4442 N 403.521 0.559213 -1.47345 0
M  V30 4443 C 404.468 1.66645 -1.59682 0
M  V30 4444 C 405.438 1.60168 -0.43994 0
M  V30 4445 O 406.623 1.79031 -0.659736 0
M  V30 4446 C 403.763 3.04969 -1.61518 0
M  V30 4447 C 402.876 3.21897 -2.88108 0
M  V30 4448 C 402.011 4.50608 -2.81294 0
M  V30 4449 C 401.05 4.60961 -4.02717 0
M  V30 4450 N 400.187 5.81024 -3.94151 0
M  V30 4451 H 405.027 1.55439 -2.54249 0
M  V30 4452 H 402.564 0.757219 -1.26113 0
M  V30 4453 H 404.522 3.85064 -1.60566 0
M  V30 4454 H 403.152 3.15015 -0.704645 0
M  V30 4455 H 402.204 2.35248 -2.98936 0
M  V30 4456 H 403.516 3.25412 -3.78032 0
M  V30 4457 H 402.67 5.3896 -2.7858 0
M  V30 4458 H 401.409 4.49568 -1.89049 0
M  V30 4459 H 400.414 3.71021 -4.05738 0
M  V30 4460 H 401.639 4.63761 -4.96087 0
M  V30 4461 H 399.585 5.80938 -3.04708 0
M  V30 4462 H 399.502 5.85909 -4.77752 0
M  V30 4463 H 400.77 6.71744 -3.9545 0
M  V30 4464 N 404.999 1.35443 0.805782 0
M  V30 4465 C 405.909 1.30546 1.94923 0
M  V30 4466 C 406.925 0.210233 1.72725 0
M  V30 4467 O 408.101 0.43975 1.9654 0
M  V30 4468 C 405.166 1.07782 3.29521 0
M  V30 4469 C 404.227 2.26625 3.64609 0
M  V30 4470 C 403.46 2.04938 4.92784 0
M  V30 4471 O 403.683 1.01624 5.61274 0
M  V30 4472 O 402.617 2.9232 5.26149 0
M  V30 4473 H 406.443 2.26779 2.02002 0
M  V30 4474 H 404.028 1.15823 0.943682 0
M  V30 4475 H 405.91 0.969392 4.10098 0
M  V30 4476 H 404.585 0.146003 3.23371 0
M  V30 4477 H 403.492 2.43033 2.84404 0
M  V30 4478 H 404.825 3.18257 3.75464 0
M  V30 4479 N 406.477 -1.02803 1.19454 0
M  V30 4480 C 407.888 -1.57667 0.999899 0
M  V30 4481 C 408.239 -1.91041 -0.446956 0
M  V30 4482 O 407.364 -1.70978 -1.32648 0
M  V30 4483 C 407.959 -2.86477 1.80877 0
M  V30 4484 C 406.518 -3.37911 1.65811 0
M  V30 4485 C 405.665 -2.11343 1.79526 0
M  V30 4486 H 408.616 -0.853214 1.33813 0
M  V30 4487 H 408.637 -3.57408 1.30536 0
M  V30 4488 H 408.149 -2.62155 2.86175 0
M  V30 4489 H 406.25 -3.67218 0.63102 0
M  V30 4490 H 406.363 -4.10885 2.46395 0
M  V30 4491 H 404.727 -2.23254 1.22596 0
M  V30 4492 H 405.51 -1.89461 2.86285 0
M  V30 4493 N 407.956 -0.998596 -1.21925 0
M  V30 4494 C 408.888 -0.511879 -2.23411 0
M  V30 4495 C 409.901 0.396094 -1.57908 0
M  V30 4496 O 411.09 0.197316 -1.77406 0
M  V30 4497 C 408.19 0.276802 -3.37768 0
M  V30 4498 C 407.363 -0.628687 -4.32858 0
M  V30 4499 C 406.422 0.109272 -5.26087 0
M  V30 4500 O 405.448 -0.507237 -5.66935 0
M  V30 4501 N 406.65 1.38983 -5.63617 0
M  V30 4502 H 409.415 -1.38457 -2.658 0
M  V30 4503 H 406.976 -0.873981 -1.36283 0
M  V30 4504 H 408.968 0.77928 -3.97126 0
M  V30 4505 H 407.538 1.05063 -2.94415 0
M  V30 4506 H 406.758 -1.31175 -3.71735 0
M  V30 4507 H 408.046 -1.24514 -4.93329 0
M  V30 4508 H 407.444 1.91194 -5.32411 0
M  V30 4509 H 406.001 1.83739 -6.25367 0
M  V30 4510 N 409.434 1.37368 -0.772513 0
M  V30 4511 C 410.682 1.99279 -0.336516 0
M  V30 4512 C 411.003 1.6163 1.09091 0
M  V30 4513 O 410.273 0.882109 1.74916 0
M  V30 4514 H 408.853 0.737063 -0.121435 0
M  V30 4515 H 411.515 1.67836 -0.990809 0
M  V30 4516 H 410.611 3.09332 -0.414763 0
M  V30 4517 N 410.912 0.523116 1.48665 0
M  V30 4518 C 411.875 -0.232592 2.28017 0
M  V30 4519 C 412.875 -0.874021 1.34972 0
M  V30 4520 O 414.065 -0.735132 1.57929 0
M  V30 4521 C 411.197 -1.33586 3.13636 0
M  V30 4522 H 412.39 0.464008 2.96289 0
M  V30 4523 H 409.943 0.278816 1.53793 0
M  V30 4524 H 410.678 -2.06593 2.4998 0
M  V30 4525 H 410.463 -0.881125 3.82071 0
M  V30 4526 H 411.953 -1.86759 3.73511 0
M  V30 4527 N 412.39 -1.55475 0.257931 0
M  V30 4528 C 413.618 -2.03609 -0.367559 0
M  V30 4529 C 414.033 -1.13687 -1.50734 0
M  V30 4530 O 413.39 -0.153479 -1.81853 0
M  V30 4531 C 413.441 -3.51001 -0.864908 0
M  V30 4532 O 413.162 -4.37499 0.229465 0
M  V30 4533 C 414.663 -4.14946 -1.55997 0
M  V30 4534 H 411.883 -0.665459 -0.0860521 0
M  V30 4535 H 414.427 -2.00843 0.385014 0
M  V30 4536 H 412.582 -3.54266 -1.56762 0
M  V30 4537 H 412.996 -5.24286 -0.14998 0
M  V30 4538 H 414.47 -5.19735 -1.85956 0
M  V30 4539 H 414.947 -3.6209 -2.4857 0
M  V30 4540 H 415.553 -4.15635 -0.901543 0
M  V30 4541 O 413.907 -0.12294 -1.61031 0
M  V30 4542 H 414.598 0.475096 -1.87783 0
M  V30 END ATOM
M  V30 BEGIN BOND
M  V30 END BOND
M  V30 END CTAB
M  END
$$$$
