drugbank_target|Q92793 CREB-binding protein (DB08655)
 OpenBabel12092120513D

  0  0  0     0  0            999 V3000
M  V30 BEGIN CTAB
M  V30 COUNTS 36823 37282 0 0 0
M  V30 BEGIN ATOM
M  V30 1 H -0.908 1.98254 -0.117106 0
M  V30 2 N 0 1.576 0 0
M  V30 3 C 0.933 2.03868 1.02534 0
M  V30 4 C 1.911 0.928543 1.3348 0
M  V30 5 O 3.095 1.19667 1.45644 0
M  V30 6 C 0.222 2.43627 2.35294 0
M  V30 7 C -0.732 3.65373 2.2001 0
M  V30 8 S 0.101 5.13292 1.52614 0
M  V30 9 C 1.257 5.56322 2.86805 0
M  V30 10 H 1.49 2.90518 0.631377 0
M  V30 11 H -0.977 1.52953 0.210867 0
M  V30 12 H 0.981 2.67203 3.11629 0
M  V30 13 H -0.358 1.57376 2.7183 0
M  V30 14 H -1.165 3.90944 3.18086 0
M  V30 15 H -1.563 3.418 1.51819 0
M  V30 16 H 0.729 5.58782 3.83104 0
M  V30 17 H 1.672 6.56266 2.65933 0
M  V30 18 H 2.08 4.83886 2.90714 0
M  V30 19 N 1.4781 -0.272755 1.55222 0
M  V30 20 C 2.4411 -1.32041 1.87344 0
M  V30 21 C 3.4411 -1.42342 0.74803 0
M  V30 22 O 4.6311 -1.41488 1.0162 0
M  V30 23 C 1.7631 -2.70173 2.07893 0
M  V30 24 H 2.9561 -1.04789 2.80997 0
M  V30 25 H 0.5091 -0.51083 1.47717 0
M  V30 26 H 1.2441 -3.02605 1.16622 0
M  V30 27 H 1.0291 -2.64082 2.89833 0
M  V30 28 H 2.5191 -3.45869 2.34017 0
M  V30 29 N 2.9562 -1.48159 -0.537278 0
M  V30 30 C 3.8662 -1.64807 -1.6696 0
M  V30 31 C 4.8822 -0.530651 -1.65711 0
M  V30 32 O 6.0582 -0.800784 -1.84796 0
M  V30 33 C 3.1232 -1.67708 -3.03438 0
M  V30 34 C 2.1842 -2.91025 -3.156 0
M  V30 35 C 1.4172 -2.93778 -4.45567 0
M  V30 36 O 1.6402 -2.05153 -5.3223 0
M  V30 37 O 0.5742 -3.85868 -4.61941 0
M  V30 38 H 4.4002 -2.6066 -1.55853 0
M  V30 39 H 1.9852 -1.31475 -0.709549 0
M  V30 40 H 3.8672 -1.7218 -3.84619 0
M  V30 41 H 2.5422 -0.750278 -3.14885 0
M  V30 42 H 1.4492 -2.92089 -2.33741 0
M  V30 43 H 2.7822 -3.83065 -3.09066 0
M  V30 44 N 4.4343 0.785586 -1.36625 0
M  V30 45 C 5.3823 1.91978 -1.31329 0
M  V30 46 C 6.3763 1.68162 -0.204416 0
M  V30 47 O 7.5823 1.76122 -0.371645 0
M  V30 48 H 3.9573 0.631087 -0.408942 0
M  V30 49 H 5.9283 1.93562 -2.27104 0
M  V30 50 C 4.6773 3.29055 -1.12329 0
M  V30 51 H 4.0003 3.4795 -1.96903 0
M  V30 52 H 5.4403 4.08756 -1.12671 0
M  V30 53 C 3.8993 3.36461 0.171861 0
M  V30 54 O 4.4293 3.84576 1.16035 0
M  V30 55 N 2.6353 2.89782 0.217846 0
M  V30 56 H 2.1823 2.50819 -0.587183 0
M  V30 57 H 2.1403 2.95119 1.08408 0
M  V30 58 N 5.9124 1.20967 1.01018 0
M  V30 59 C 6.8424 0.988272 2.11555 0
M  V30 60 C 7.8234 -0.0849778 1.69888 0
M  V30 61 O 9.0084 0.0738202 1.9406 0
M  V30 62 C 6.1384 0.546528 3.42973 0
M  V30 63 C 5.0924 1.56375 3.9841 0
M  V30 64 C 4.4184 0.97842 5.25672 0
M  V30 65 C 5.7184 2.94922 4.31066 0
M  V30 66 H 7.4124 1.91276 2.30334 0
M  V30 67 H 4.9584 0.921073 1.1069 0
M  V30 68 H 6.9114 0.378839 4.19694 0
M  V30 69 H 5.6354 -0.413598 3.23971 0
M  V30 70 H 4.2944 1.71891 3.23804 0
M  V30 71 H 3.9424 0.0101688 5.02999 0
M  V30 72 H 3.6424 1.65784 5.63728 0
M  V30 73 H 5.1664 0.821939 6.05043 0
M  V30 74 H 6.5804 2.8288 4.9865 0
M  V30 75 H 4.9774 3.5983 4.80253 0
M  V30 76 H 6.0474 3.4616 3.39561 0
M  V30 77 N 7.3905 -1.2043 1.01659 0
M  V30 78 C 8.3205 -2.25466 0.607226 0
M  V30 79 C 9.3015 -1.65853 -0.377716 0
M  V30 80 O 10.4865 -1.92409 -0.263149 0
M  V30 81 C 7.6165 -3.47256 -0.0552949 0
M  V30 82 C 6.5705 -4.19462 0.850632 0
M  V30 83 C 5.8965 -5.34673 0.0538859 0
M  V30 84 C 7.1965 -4.75603 2.15868 0
M  V30 85 H 8.8905 -2.59962 1.48526 0
M  V30 86 H 6.4365 -1.2496 0.715605 0
M  V30 87 H 8.3895 -4.19917 -0.353233 0
M  V30 88 H 7.1135 -3.11924 -0.968045 0
M  V30 89 H 5.7725 -3.48667 1.13257 0
M  V30 90 H 5.4205 -4.95585 -0.860514 0
M  V30 91 H 5.1205 -5.83913 0.657192 0
M  V30 92 H 6.6445 -6.10138 -0.237598 0
M  V30 93 H 8.0585 -5.40083 1.92311 0
M  V30 94 H 6.4555 -5.3528 2.71284 0
M  V30 95 H 7.5255 -3.94346 2.82169 0
M  V30 96 N 8.8686 -0.792821 -1.36206 0
M  V30 97 C 10.1456 -0.290627 -1.93429 0
M  V30 98 C 10.5256 1.21773 -1.72437 0
M  V30 99 O 9.8736 2.0108 -1.08531 0
M  V30 100 C 10.0836 -0.686973 -3.42172 0
M  V30 101 C 11.4316 -0.668643 -4.19302 0
M  V30 102 O 12.4556 -0.627658 -3.50626 0
M  V30 103 O 11.3146 -0.714597 -5.41808 0
M  V30 104 H 8.4086 -0.0727927 -0.82379 0
M  V30 105 H 10.9546 -0.875593 -1.45367 0
M  V30 106 H 9.7266 -1.72711 -3.51122 0
M  V30 107 H 9.3496 -0.0760733 -3.97527 0
M  V30 108 N 10.3467 1.47872 -0.545128 0
M  V30 109 C 11.5947 2.02093 -0.016553 0
M  V30 110 C 11.9157 1.42305 1.3332 0
M  V30 111 O 11.1857 0.593853 1.86682 0
M  V30 112 H 9.7657 0.746993 -0.00313038 0
M  V30 113 H 12.4277 1.81414 -0.712397 0
M  V30 114 H 11.5237 3.11996 0.0805422 0
M  V30 115 N 11.8248 0.280983 1.55075 0
M  V30 116 C 13.2358 -0.215629 1.85451 0
M  V30 117 C 13.5868 -1.54991 1.203 0
M  V30 118 O 12.7118 -2.10699 0.493435 0
M  V30 119 C 13.3068 -0.398026 3.36454 0
M  V30 120 C 11.8658 -0.838866 3.66933 0
M  V30 121 C 11.0128 0.064458 2.77225 0
M  V30 122 H 13.9638 0.502601 1.50531 0
M  V30 123 H 13.9848 -1.23569 3.59876 0
M  V30 124 H 13.4968 0.573241 3.83843 0
M  V30 125 H 11.5978 -1.8214 3.25048 0
M  V30 126 H 11.7108 -0.672123 4.74362 0
M  V30 127 H 10.0748 -0.452863 2.50642 0
M  V30 128 H 10.8578 1.03172 3.2743 0
M  V30 129 N 13.3029 -1.57598 0.00835791 0
M  V30 130 C 14.7139 -1.7892 -0.53333 0
M  V30 131 C 15.0649 -0.916609 -1.73473 0
M  V30 132 O 14.1899 -0.121336 -2.1606 0
M  V30 133 C 14.7849 -3.24488 -0.974313 0
M  V30 134 C 13.3439 -3.46878 -1.46125 0
M  V30 135 C 12.4909 -2.74157 -0.416302 0
M  V30 136 H 15.4419 -1.56958 0.234495 0
M  V30 137 H 15.4629 -3.3306 -1.83988 0
M  V30 138 H 14.9749 -3.87972 -0.099718 0
M  V30 139 H 13.0759 -2.8862 -2.35646 0
M  V30 140 H 13.1889 -4.55572 -1.48295 0
M  V30 141 H 11.5529 -2.39022 -0.87981 0
M  V30 142 H 12.3359 -3.40345 0.44947 0
M  V30 143 N 14.781 0.264519 -1.55364 0
M  V30 144 C 15.729 1.34702 -1.89626 0
M  V30 145 C 16.723 1.50712 -0.773459 0
M  V30 146 O 17.929 1.52395 -0.957897 0
M  V30 147 H 14.304 0.450682 -0.601988 0
M  V30 148 H 16.275 1.0306 -2.80038 0
M  V30 149 C 15.024 2.6989 -2.19214 0
M  V30 150 H 14.347 2.58365 -3.05103 0
M  V30 151 H 15.787 3.44553 -2.47102 0
M  V30 152 C 14.246 3.21637 -1.00254 0
M  V30 153 O 14.776 4.00973 -0.241501 0
M  V30 154 N 12.982 2.7943 -0.797938 0
M  V30 155 H 12.529 2.15026 -1.4185 0
M  V30 156 H 12.487 3.144 -0.00363422 0
M  V30 157 N 16.2591 1.48442 0.529413 0
M  V30 158 C 17.6701 1.5002 1.11134 0
M  V30 159 C 18.0211 0.27031 1.94329 0
M  V30 160 O 17.1461 -0.622507 2.07253 0
M  V30 161 C 17.7411 2.71834 2.02217 0
M  V30 162 C 16.3001 2.76283 2.55627 0
M  V30 163 C 15.4471 2.43542 1.326 0
M  V30 164 H 18.3981 1.5555 0.314641 0
M  V30 165 H 18.4191 2.50384 2.8651 0
M  V30 166 H 17.9311 3.61331 1.41639 0
M  V30 167 H 16.0321 1.90995 3.19924 0
M  V30 168 H 16.1451 3.77725 2.94721 0
M  V30 169 H 14.5091 1.94709 1.64196 0
M  V30 170 H 15.2921 3.3528 0.737734 0
M  V30 171 N 17.7372 -0.778329 1.37039 0
M  V30 172 C 18.6842 -1.89139 1.32269 0
M  V30 173 C 19.6542 -1.65017 0.189387 0
M  V30 174 O 20.8392 -1.87024 0.377693 0
M  V30 175 C 17.9792 -3.26112 1.12894 0
M  V30 176 C 17.0922 -3.62233 2.35396 0
M  V30 177 C 16.2272 -4.8838 2.08946 0
M  V30 178 C 15.2662 -5.17212 3.2735 0
M  V30 179 N 14.4032 -6.34546 3.00492 0
M  V30 180 H 19.2432 -1.92552 2.27437 0
M  V30 181 H 16.7802 -0.941473 1.13025 0
M  V30 182 H 18.7382 -4.05116 0.996835 0
M  V30 183 H 17.3682 -3.22091 0.213758 0
M  V30 184 H 16.4202 -2.78265 2.5937 0
M  V30 185 H 17.7322 -3.79481 3.23721 0
M  V30 186 H 16.8862 -5.75274 1.92729 0
M  V30 187 H 15.6252 -4.73222 1.17949 0
M  V30 188 H 14.6302 -4.28796 3.44113 0
M  V30 189 H 15.8552 -5.34283 4.19188 0
M  V30 190 H 13.8012 -6.20759 2.12118 0
M  V30 191 H 13.7182 -6.52179 3.82358 0
M  V30 192 H 14.9862 -7.24394 2.87879 0
M  V30 193 N 19.2153 -1.21501 -1.00376 0
M  V30 194 C 20.6313 -0.972629 -1.26539 0
M  V30 195 C 20.8313 0.340257 -1.98606 0
M  V30 196 O 19.8873 1.06561 -2.28913 0
M  V30 197 C 21.2003 -2.16404 -2.08781 0
M  V30 198 C 22.7483 -2.20643 -2.22004 0
M  V30 199 C 23.2233 -3.39306 -3.07629 0
M  V30 200 N 24.7143 -3.39401 -3.15217 0
M  V30 201 C 25.4493 -4.27867 -3.81729 0
M  V30 202 N 24.9453 -5.26533 -4.5026 0
M  V30 203 N 26.7383 -4.15672 -3.78382 0
M  V30 204 H 18.8893 -2.05929 -0.520281 0
M  V30 205 H 21.1523 -0.901803 -0.292328 0
M  V30 206 H 20.8583 -3.11554 -1.63178 0
M  V30 207 H 20.7323 -2.15567 -3.09533 0
M  V30 208 H 23.1193 -1.26048 -2.66825 0
M  V30 209 H 23.2003 -2.25523 -1.20718 0
M  V30 210 H 22.8443 -4.34195 -2.63509 0
M  V30 211 H 22.7743 -3.31665 -4.09031 0
M  V30 212 H 25.2653 -2.67997 -2.66432 0
M  V30 213 H 25.5783 -5.90337 -4.98721 0
M  V30 214 H 23.9233 -5.30457 -4.49044 0
M  V30 215 H 27.1143 -3.3785 -3.23998 0
M  V30 216 H 27.2873 -4.84825 -4.2994 0
M  V30 217 N 20.6934 1.19889 -1.02296 0
M  V30 218 C 21.6564 2.21116 -0.603351 0
M  V30 219 C 22.6564 1.5738 0.329884 0
M  V30 220 O 23.8464 1.73802 0.117702 0
M  V30 221 C 20.9784 3.40696 0.117992 0
M  V30 222 H 22.1714 2.59754 -1.49893 0
M  V30 223 H 19.7244 1.33463 -0.813468 0
M  V30 224 H 20.4594 3.07569 1.0282 0
M  V30 225 H 20.2444 3.88188 -0.552511 0
M  V30 226 H 21.7344 4.15692 0.398696 0
M  V30 227 N 22.1715 0.800033 1.35784 0
M  V30 228 C 23.1185 0.203848 2.29898 0
M  V30 229 C 24.0885 -0.658375 1.52495 0
M  V30 230 O 25.2735 -0.604832 1.8096 0
M  V30 231 C 22.4135 -0.64688 3.38983 0
M  V30 232 C 21.5265 0.235054 4.3136 0
M  V30 233 C 20.6615 -0.623054 5.27533 0
M  V30 234 C 19.7005 0.259682 6.11549 0
M  V30 235 N 18.8375 -0.558019 6.99879 0
M  V30 236 H 23.6775 1.01186 2.80295 0
M  V30 237 H 21.2145 0.51053 1.37957 0
M  V30 238 H 23.1725 -1.15521 4.00887 0
M  V30 239 H 21.8025 -1.42021 2.89879 0
M  V30 240 H 20.8545 0.861438 3.70518 0
M  V30 241 H 22.1665 0.914768 4.9034 0
M  V30 242 H 21.3205 -1.19678 5.94779 0
M  V30 243 H 20.0595 -1.33636 4.69034 0
M  V30 244 H 19.0645 0.845726 5.43256 0
M  V30 245 H 20.2895 0.970748 6.72126 0
M  V30 246 H 18.2355 -1.25542 6.43875 0
M  V30 247 H 18.1525 0.0637872 7.55973 0
M  V30 248 H 19.4205 -1.11523 7.71481 0
M  V30 249 N 23.6496 -1.47581 0.552962 0
M  V30 250 C 24.5796 -2.32762 -0.185451 0
M  V30 251 C 25.5606 -1.43527 -0.912905 0
M  V30 252 O 26.7456 -1.72388 -0.894201 0
M  V30 253 C 23.8756 -3.25219 -1.21859 0
M  V30 254 C 22.8296 -4.23661 -0.607864 0
M  V30 255 C 22.1556 -5.05413 -1.74533 0
M  V30 256 C 23.4556 -5.20481 0.435582 0
M  V30 257 H 25.1496 -2.94749 0.525684 0
M  V30 258 H 22.6956 -1.41738 0.254251 0
M  V30 259 H 24.6486 -3.8365 -1.7433 0
M  V30 260 H 23.3726 -2.61279 -1.95961 0
M  V30 261 H 22.0316 -3.66451 -0.104489 0
M  V30 262 H 21.6796 -4.3788 -2.47529 0
M  V30 263 H 21.3796 -5.72059 -1.34249 0
M  V30 264 H 22.9036 -5.66701 -2.27338 0
M  V30 265 H 24.3176 -5.733 -0.00290157 0
M  V30 266 H 22.7146 -5.95305 0.757067 0
M  V30 267 H 23.7846 -4.66217 1.33303 0
M  V30 268 N 25.1277 -0.289203 -1.54924 0
M  V30 269 C 26.3527 0.329299 -2.04769 0
M  V30 270 C 26.7777 1.4763 -1.16564 0
M  V30 271 O 26.1357 1.80527 -0.167186 0
M  V30 272 C 26.1837 0.774438 -3.52186 0
M  V30 273 O 25.2877 1.88038 -3.67036 0
M  V30 274 H 24.6287 0.0659259 -0.660719 0
M  V30 275 H 27.1587 -0.42761 -2.00082 0
M  V30 276 H 27.1687 1.06642 -3.93816 0
M  V30 277 H 25.8437 -0.0646707 -4.1585 0
M  V30 278 H 24.4207 1.58985 -3.3731 0
M  V30 279 N 26.6058 1.57591 -0.0167156 0
M  V30 280 C 27.8308 1.9598 0.67872 0
M  V30 281 C 28.2558 0.892546 1.65575 0
M  V30 282 O 27.6138 -0.147772 1.80697 0
M  V30 283 C 27.6618 3.33468 1.37227 0
M  V30 284 O 26.7658 3.28954 2.48722 0
M  V30 285 H 26.1068 0.639339 0.17928 0
M  V30 286 H 28.6368 2.04463 -0.0748802 0
M  V30 287 H 28.6468 3.69417 1.7319 0
M  V30 288 H 27.3218 4.10694 0.656007 0
M  V30 289 H 25.8988 3.04705 2.14963 0
M  V30 290 N 28.0839 -0.256276 1.55502 0
M  V30 291 C 29.4949 -0.826068 1.67431 0
M  V30 292 C 29.8459 -1.86396 0.612446 0
M  V30 293 O 28.9709 -2.15031 -0.243025 0
M  V30 294 C 29.5659 -1.50512 3.03532 0
M  V30 295 C 28.1249 -2.02273 3.17431 0
M  V30 296 C 27.2719 -0.870548 2.63281 0
M  V30 297 H 30.2229 -0.0322728 1.58667 0
M  V30 298 H 30.2439 -2.37279 2.97454 0
M  V30 299 H 29.7559 -0.749484 3.80794 0
M  V30 300 H 27.8569 -2.80746 2.44974 0
M  V30 301 H 27.9699 -2.22655 4.24219 0
M  V30 302 H 26.3339 -1.26851 2.20864 0
M  V30 303 H 27.1169 -0.128149 3.43061 0
M  V30 304 N 29.562 -1.4872 -0.521534 0
M  V30 305 C 30.81 -1.56857 -1.27437 0
M  V30 306 C 31.131 -0.247982 -1.93417 0
M  V30 307 O 30.401 0.731151 -1.81744 0
M  V30 308 H 28.981 -0.577885 -0.473347 0
M  V30 309 H 31.643 -1.85233 -0.606205 0
M  V30 310 H 30.739 -2.35402 -2.0492 0
M  V30 311 N 31.0401 0.771051 -1.3745 0
M  V30 312 C 32.2871 1.52963 -1.32697 0
M  V30 313 C 32.6151 1.94299 0.0883274 0
M  V30 314 O 31.8701 1.64397 1.0617 0
M  V30 315 C 32.1691 2.80676 -2.2126 0
M  V30 316 C 31.8351 2.58389 -3.69521 0
M  V30 317 C 30.4971 2.52019 -4.09927 0
M  V30 318 C 32.8491 2.38469 -4.63446 0
M  V30 319 C 30.1771 2.23721 -5.42371 0
M  V30 320 C 32.5291 2.11694 -5.96128 0
M  V30 321 C 31.1931 2.03769 -6.35637 0
M  V30 322 H 30.4631 0.559732 -0.485573 0
M  V30 323 H 33.1101 0.888083 -1.69662 0
M  V30 324 H 31.4151 3.49392 -1.77291 0
M  V30 325 H 33.1121 3.38557 -2.14895 0
M  V30 326 H 29.7021 2.6421 -3.37478 0
M  V30 327 H 33.8861 2.4238 -4.33089 0
M  V30 328 H 29.1421 2.16081 -5.71943 0
M  V30 329 H 33.3161 1.9528 -6.6846 0
M  V30 330 H 30.9431 1.81606 -7.38189 0
M  V30 331 N 32.5182 1.22032 0.997298 0
M  V30 332 C 33.7432 1.06921 1.77715 0
M  V30 333 C 34.1682 -0.376226 1.84299 0
M  V30 334 O 33.5262 -1.27165 1.29223 0
M  V30 335 C 33.5742 1.67996 3.19076 0
M  V30 336 O 32.6782 0.930653 4.01762 0
M  V30 337 H 32.0192 0.375814 0.547412 0
M  V30 338 H 34.5492 1.61737 1.25309 0
M  V30 339 H 34.5592 1.72538 3.69723 0
M  V30 340 H 33.2342 2.73182 3.13599 0
M  V30 341 H 31.8112 0.960917 3.60307 0
M  V30 342 N 33.9963 -1.19345 1.0293 0
M  V30 343 C 34.9593 -2.20793 0.615069 0
M  V30 344 C 35.9593 -1.57553 -0.321533 0
M  V30 345 O 37.1493 -1.73862 -0.108483 0
M  V30 346 C 34.2813 -3.40754 -0.0999222 0
M  V30 347 H 35.4743 -2.58955 1.51269 0
M  V30 348 H 33.0273 -1.3303 0.820534 0
M  V30 349 H 33.7623 -3.0811 -1.01187 0
M  V30 350 H 33.5473 -3.87889 0.57309 0
M  V30 351 H 35.0373 -4.15898 -0.376645 0
M  V30 352 N 35.4744 -0.807222 -1.35358 0
M  V30 353 C 36.4224 -0.20614 -2.31685 0
M  V30 354 C 37.4164 0.644445 -1.56663 0
M  V30 355 O 38.6224 0.537538 -1.71786 0
M  V30 356 H 34.9974 -0.0479006 -0.750473 0
M  V30 357 H 36.9684 -1.03369 -2.79924 0
M  V30 358 C 35.7174 0.630212 -3.41941 0
M  V30 359 H 35.0404 -0.0149558 -3.99797 0
M  V30 360 H 36.4804 1.01716 -4.11619 0
M  V30 361 C 34.9394 1.79601 -2.85035 0
M  V30 362 O 35.4694 2.89351 -2.78637 0
M  V30 363 N 33.6754 1.60774 -2.42074 0
M  V30 364 H 33.2224 0.715009 -2.47478 0
M  V30 365 H 33.1804 2.38933 -2.04349 0
M  V30 366 N 36.9525 1.47285 -0.560781 0
M  V30 367 C 38.2295 1.9558 0.0277798 0
M  V30 368 C 38.6095 1.5034 1.48192 0
M  V30 369 O 37.9575 0.743882 2.16052 0
M  V30 370 C 38.1675 3.48789 -0.121418 0
M  V30 371 C 39.5155 4.24594 0.0220912 0
M  V30 372 O 40.5395 3.56166 -0.0491439 0
M  V30 373 O 39.3985 5.46217 0.175958 0
M  V30 374 H 36.4925 0.824663 0.0621342 0
M  V30 375 H 39.0385 1.5767 -0.627556 0
M  V30 376 H 37.8105 3.74533 -1.13316 0
M  V30 377 H 37.4335 3.93473 0.571366 0
M  V30 378 N 38.4306 0.297415 1.54768 0
M  V30 379 C 39.6556 -0.318435 2.04941 0
M  V30 380 C 40.0806 -1.4701 1.17345 0
M  V30 381 O 39.4386 -1.80436 0.176758 0
M  V30 382 C 39.4866 -0.755749 3.52592 0
M  V30 383 O 38.5906 -1.86088 3.68028 0
M  V30 384 H 37.9316 -0.062421 0.661059 0
M  V30 385 H 40.4616 0.438215 1.99852 0
M  V30 386 H 40.4716 -1.04552 3.94376 0
M  V30 387 H 39.1466 0.0867233 4.1581 0
M  V30 388 H 37.7236 -1.57193 3.38149 0
M  V30 389 N 39.9087 -1.5758 0.0250728 0
M  V30 390 C 41.1367 -1.9593 -0.664747 0
M  V30 391 C 41.5517 -0.901352 -1.65895 0
M  V30 392 O 40.9087 0.117255 -1.82123 0
M  V30 393 C 40.9597 -3.34342 -1.37468 0
M  V30 394 O 40.6807 -4.36079 -0.420324 0
M  V30 395 C 42.1817 -3.873 -2.1567 0
M  V30 396 H 39.4017 -0.645405 -0.183557 0
M  V30 397 H 41.9457 -2.04329 0.0836372 0
M  V30 398 H 40.1007 -3.27175 -2.0745 0
M  V30 399 H 40.5147 -5.16297 -0.923991 0
M  V30 400 H 41.9887 -4.86504 -2.60803 0
M  V30 401 H 42.4657 -3.21331 -2.99405 0
M  V30 402 H 43.0717 -3.97723 -1.50654 0
M  V30 403 N 41.3868 0.248026 -1.55636 0
M  V30 404 C 42.6638 0.998988 -1.68165 0
M  V30 405 C 43.0438 2.03409 -0.564621 0
M  V30 406 O 42.3918 2.24378 0.432076 0
M  V30 407 C 42.6018 1.63334 -3.0842 0
M  V30 408 C 43.9498 2.13562 -3.66983 0
M  V30 409 O 44.9738 1.73277 -3.11213 0
M  V30 410 O 43.8328 2.87526 -4.64749 0
M  V30 411 H 40.9268 0.464933 -0.683935 0
M  V30 412 H 43.4728 0.241902 -1.67967 0
M  V30 413 H 42.2448 0.884583 -3.8117 0
M  V30 414 H 41.8678 2.45666 -3.12624 0
M  V30 415 N 42.8649 1.48995 0.513639 0
M  V30 416 C 44.1119 1.57843 1.26854 0
M  V30 417 C 44.4399 0.259501 1.92761 0
M  V30 418 O 43.6949 -0.75159 1.80692 0
M  V30 419 C 43.9939 2.67756 2.36731 0
M  V30 420 C 43.6599 4.09669 1.88368 0
M  V30 421 C 42.3219 4.48291 1.74896 0
M  V30 422 C 44.6739 4.98537 1.52021 0
M  V30 423 C 42.0019 5.73568 1.23438 0
M  V30 424 C 44.3539 6.24319 1.0202 0
M  V30 425 C 43.0179 6.61783 0.871778 0
M  V30 426 H 42.2879 0.577587 0.464192 0
M  V30 427 H 44.9349 1.82778 0.571366 0
M  V30 428 H 43.2399 2.36743 3.12185 0
M  V30 429 H 44.9369 2.71813 2.9482 0
M  V30 430 H 41.5269 3.79176 1.99808 0
M  V30 431 H 45.7109 4.69363 1.61281 0
M  V30 432 H 40.9669 6.01304 1.10648 0
M  V30 433 H 45.1409 6.92566 0.729722 0
M  V30 434 H 42.7679 7.5874 0.470852 0
M  V30 435 N 44.343 -0.763751 1.37857 0
M  V30 436 C 45.591 -1.51957 1.33243 0
M  V30 437 C 45.912 -1.94835 -0.0801709 0
M  V30 438 O 45.182 -1.66894 -1.02582 0
M  V30 439 H 43.762 -0.563626 0.49024 0
M  V30 440 H 46.424 -0.908504 1.7243 0
M  V30 441 H 45.52 -2.41523 1.97669 0
M  V30 442 N 45.8211 -1.22559 -0.990812 0
M  V30 443 C 47.0461 -1.07862 -1.77145 0
M  V30 444 C 47.4711 0.366447 -1.84496 0
M  V30 445 O 46.8291 1.26478 -1.29896 0
M  V30 446 C 46.8771 -1.69686 -3.18181 0
M  V30 447 O 45.9811 -0.951946 -4.01263 0
M  V30 448 H 45.3221 -0.378712 -0.545411 0
M  V30 449 H 47.8521 -1.62399 -1.2445 0
M  V30 450 H 47.8621 -1.74496 -3.68802 0
M  V30 451 H 46.5371 -2.74841 -3.12146 0
M  V30 452 H 45.1141 -0.980011 -3.59792 0
M  V30 453 N 47.2992 1.18797 -1.03562 0
M  V30 454 C 48.2292 2.24472 -0.643019 0
M  V30 455 C 49.2102 1.66433 0.351283 0
M  V30 456 O 50.3952 1.92803 0.232505 0
M  V30 457 C 47.5252 3.473 4.24935e-05 0
M  V30 458 C 46.4792 4.18055 -0.917257 0
M  V30 459 C 45.8052 5.34519 -0.138941 0
M  V30 460 C 47.1052 4.72109 -2.23407 0
M  V30 461 H 48.7992 2.57566 -1.52643 0
M  V30 462 H 46.3452 1.23806 -0.735394 0
M  V30 463 H 48.2982 4.20426 0.286383 0
M  V30 464 H 47.0222 3.13424 0.918299 0
M  V30 465 H 45.6812 3.46821 -1.1879 0
M  V30 466 H 45.3292 4.96891 0.781562 0
M  V30 467 H 45.0292 5.82794 -0.750005 0
M  V30 468 H 46.5532 6.10438 0.1405 0
M  V30 469 H 47.9672 5.36955 -2.00879 0
M  V30 470 H 46.3642 5.30897 -2.79765 0
M  V30 471 H 47.4342 3.89807 -2.88407 0
M  V30 472 N 48.7773 0.814389 1.34928 0
M  V30 473 C 50.0243 0.398423 1.98542 0
M  V30 474 C 50.3523 -1.03638 1.64589 0
M  V30 475 O 49.6073 -1.73509 0.90516 0
M  V30 476 C 49.9063 0.537781 3.53331 0
M  V30 477 C 49.5723 1.93704 4.07172 0
M  V30 478 C 48.2343 2.31984 4.21589 0
M  V30 479 C 50.5863 2.85213 4.36237 0
M  V30 480 C 47.9143 3.61125 4.62391 0
M  V30 481 C 50.2663 4.13809 4.78482 0
M  V30 482 C 48.9303 4.52077 4.91104 0
M  V30 483 H 48.2003 0.145793 0.726516 0
M  V30 484 H 50.8473 1.03669 1.61012 0
M  V30 485 H 49.1523 -0.183906 3.91368 0
M  V30 486 H 50.8493 0.196588 4.00518 0
M  V30 487 H 47.4393 1.62966 3.96409 0
M  V30 488 H 51.6233 2.56885 4.24645 0
M  V30 489 H 46.8793 3.90612 4.70353 0
M  V30 490 H 51.0533 4.84811 4.99932 0
M  V30 491 H 48.6803 5.52196 5.22478 0
M  V30 492 N 50.2554 -1.46986 0.568584 0
M  V30 493 C 51.5324 -1.95592 -0.0174074 0
M  V30 494 C 51.9124 -1.51124 -1.47393 0
M  V30 495 O 51.2604 -0.755329 -2.15655 0
M  V30 496 C 51.4704 -3.48719 0.139913 0
M  V30 497 C 52.8184 -4.246 0.000426376 0
M  V30 498 O 53.8424 -3.56135 0.0680316 0
M  V30 499 O 52.7014 -5.46302 -0.146988 0
M  V30 500 H 49.7954 -0.82498 -0.0577599 0
M  V30 501 H 52.3414 -1.57335 0.635909 0
M  V30 502 H 51.1134 -3.73927 1.15301 0
M  V30 503 H 50.7364 -3.93771 -0.550491 0
M  V30 504 N 51.7335 -0.305618 -1.54608 0
M  V30 505 C 52.6635 0.561482 -2.26649 0
M  V30 506 C 53.6445 1.13415 -1.26772 0
M  V30 507 O 54.8295 1.16262 -1.55553 0
M  V30 508 C 51.9595 1.73122 -3.01075 0
M  V30 509 C 50.9135 1.2887 -4.08138 0
M  V30 510 C 50.2395 2.54396 -4.70305 0
M  V30 511 C 51.5395 0.416578 -5.20636 0
M  V30 512 H 53.2335 -0.0393902 -2.99374 0
M  V30 513 H 50.7795 -0.020385 -1.43986 0
M  V30 514 H 52.7325 2.34396 -3.50195 0
M  V30 515 H 51.4565 2.3584 -2.25936 0
M  V30 516 H 50.1155 0.698991 -3.59875 0
M  V30 517 H 49.7635 3.15439 -3.918 0
M  V30 518 H 49.4635 2.25486 -5.42614 0
M  V30 519 H 50.9875 3.16464 -5.2219 0
M  V30 520 H 52.4015 0.935116 -5.65622 0
M  V30 521 H 50.7985 0.221046 -5.99693 0
M  V30 522 H 51.8685 -0.557162 -4.81688 0
M  V30 523 N 53.2116 1.57565 -0.0334293 0
M  V30 524 C 54.1216 2.13943 0.962572 0
M  V30 525 C 55.1376 1.09276 1.35406 0
M  V30 526 O 56.3136 1.41355 1.4346 0
M  V30 527 C 53.3786 2.65887 2.22497 0
M  V30 528 C 52.4396 3.85286 1.8935 0
M  V30 529 C 51.6726 4.34743 3.09571 0
M  V30 530 O 51.8956 3.83352 4.22371 0
M  V30 531 O 50.8296 5.26538 2.91618 0
M  V30 532 H 54.6556 2.99333 0.513169 0
M  V30 533 H 52.2406 1.4822 0.18743 0
M  V30 534 H 54.1226 2.99346 2.96598 0
M  V30 535 H 52.7976 1.83578 2.6661 0
M  V30 536 H 51.7046 3.56746 1.1262 0
M  V30 537 H 53.0376 4.68771 1.5005 0
M  V30 538 N 54.6897 -0.239769 1.55765 0
M  V30 539 C 55.6377 -1.31668 1.91745 0
M  V30 540 C 56.6317 -1.49462 0.797338 0
M  V30 541 O 57.8377 -1.50852 0.982021 0
M  V30 542 H 54.2127 -0.441048 0.609082 0
M  V30 543 H 56.1837 -0.985923 2.81642 0
M  V30 544 C 54.9327 -2.66368 2.2348 0
M  V30 545 H 54.2557 -2.53478 3.09175 0
M  V30 546 H 55.6957 -3.40578 2.52553 0
M  V30 547 C 54.1547 -3.20002 1.05359 0
M  V30 548 O 54.6847 -4.00538 0.305261 0
M  V30 549 N 52.8907 -2.78126 0.842292 0
M  V30 550 H 52.4377 -2.12742 1.45253 0
M  V30 551 H 52.3957 -3.14354 0.053652 0
M  V30 552 N 56.1678 -1.49265 -0.50573 0
M  V30 553 C 57.4448 -1.49012 -1.26707 0
M  V30 554 C 57.8248 -0.215205 -2.1 0
M  V30 555 O 57.1728 0.802547 -2.13943 0
M  V30 556 C 57.3828 -2.7663 -2.12783 0
M  V30 557 C 58.7308 -3.25932 -2.72127 0
M  V30 558 O 59.7548 -2.77715 -2.23054 0
M  V30 559 O 58.6138 -4.09897 -3.61451 0
M  V30 560 H 55.7078 -0.596197 -0.57313 0
M  V30 561 H 58.2538 -1.61524 -0.52039 0
M  V30 562 H 57.0258 -3.60916 -1.5118 0
M  V30 563 H 56.6488 -2.66956 -2.94653 0
M  V30 564 N 57.6459 0.756429 -1.3826 0
M  V30 565 C 58.5759 1.88374 -1.37976 0
M  V30 566 C 59.5569 1.68311 -0.246082 0
M  V30 567 O 60.7419 1.88944 -0.44874 0
M  V30 568 C 57.8719 3.25864 -1.20125 0
M  V30 569 C 56.8259 3.60523 -2.30666 0
M  V30 570 C 56.1519 4.9672 -1.97923 0
M  V30 571 C 57.4519 3.65692 -3.72916 0
M  V30 572 H 59.1459 1.88869 -2.32312 0
M  V30 573 H 56.6919 0.907272 -1.11824 0
M  V30 574 H 58.6449 4.0438 -1.18552 0
M  V30 575 H 57.3689 3.25841 -0.222498 0
M  V30 576 H 56.0279 2.84324 -2.3142 0
M  V30 577 H 55.6759 4.93253 -0.985393 0
M  V30 578 H 55.3759 5.20878 -2.71955 0
M  V30 579 H 56.8999 5.77618 -1.97964 0
M  V30 580 H 58.3139 4.34328 -3.74208 0
M  V30 581 H 56.7109 4.01358 -4.4613 0
M  V30 582 H 57.7809 2.65987 -4.05436 0
M  V30 583 N 59.124 1.23083 0.984299 0
M  V30 584 C 60.535 1.05609 1.5396 0
M  V30 585 C 60.886 -0.377793 1.92528 0
M  V30 586 O 60.011 -1.26398 1.75649 0
M  V30 587 C 60.606 1.91087 2.7977 0
M  V30 588 C 59.165 1.77885 3.31713 0
M  V30 589 C 58.312 1.87028 2.04733 0
M  V30 590 H 61.263 1.36802 0.804419 0
M  V30 591 H 61.284 1.43336 3.5247 0
M  V30 592 H 60.796 2.9544 2.51668 0
M  V30 593 H 58.897 0.762995 3.64704 0
M  V30 594 H 59.01 2.61047 4.01735 0
M  V30 595 H 57.374 1.30565 2.18689 0
M  V30 596 H 58.157 2.92929 1.79017 0
M  V30 597 N 60.6021 -1.18246 1.0419 0
M  V30 598 C 61.8791 -1.84121 0.660208 0
M  V30 599 C 62.2591 -1.92778 -0.860221 0
M  V30 600 O 61.6071 -1.45464 -1.76217 0
M  V30 601 C 61.8171 -3.22355 1.33747 0
M  V30 602 C 63.1651 -3.98376 1.46906 0
M  V30 603 O 64.1891 -3.31799 1.29568 0
M  V30 604 O 63.0481 -5.17665 1.75171 0
M  V30 605 H 60.1421 -0.794036 0.231161 0
M  V30 606 H 62.6881 -1.25628 1.14087 0
M  V30 607 H 61.4601 -3.10964 2.37522 0
M  V30 608 H 61.0831 -3.88506 0.845515 0
M  V30 609 N 62.0802 -0.821533 -1.34494 0
M  V30 610 C 62.9902 -0.244355 -2.33324 0
M  V30 611 C 64.0062 0.620527 -1.62559 0
M  V30 612 O 65.1822 0.528754 -1.94335 0
M  V30 613 C 62.2472 0.585368 -3.41723 0
M  V30 614 C 61.3082 -0.301752 -4.28238 0
M  V30 615 C 60.5412 0.488466 -5.3146 0
M  V30 616 O 60.7642 1.72186 -5.4379 0
M  V30 617 O 59.6982 -0.12848 -6.01763 0
M  V30 618 H 63.5242 -1.06231 -2.84515 0
M  V30 619 H 61.1092 -0.583645 -1.37528 0
M  V30 620 H 62.9912 1.05747 -4.07916 0
M  V30 621 H 61.6662 1.38068 -2.92778 0
M  V30 622 H 60.5732 -0.821315 -3.64973 0
M  V30 623 H 61.9062 -1.06138 -4.8062 0
M  V30 624 N 63.5583 1.46682 -0.576371 0
M  V30 625 C 64.4883 2.33028 0.148397 0
M  V30 626 C 65.4693 1.44961 0.889956 0
M  V30 627 O 66.6543 1.73789 0.866662 0
M  V30 628 C 63.7843 3.27117 1.1667 0
M  V30 629 C 62.7383 4.24575 0.540386 0
M  V30 630 C 62.0643 5.08126 1.6647 0
M  V30 631 C 63.3643 5.19722 -0.518331 0
M  V30 632 H 65.0583 2.93875 -0.572509 0
M  V30 633 H 62.6043 1.41315 -0.276768 0
M  V30 634 H 64.5573 3.86374 1.68204 0
M  V30 635 H 63.2813 2.64364 1.9178 0
M  V30 636 H 61.9403 3.66571 0.0461769 0
M  V30 637 H 61.5883 4.41762 2.40531 0
M  V30 638 H 61.2883 5.74122 1.25131 0
M  V30 639 H 62.8123 5.70246 2.18293 0
M  V30 640 H 64.2263 5.73232 -0.0883058 0
M  V30 641 H 62.6233 5.94026 -0.851679 0
M  V30 642 H 63.6933 4.64037 -1.40703 0
M  V30 643 N 65.0364 0.313813 1.54444 0
M  V30 644 C 66.2854 -0.292519 1.99568 0
M  V30 645 C 66.5984 -1.54011 1.20582 0
M  V30 646 O 67.8044 -2.22183 1.56035 0
M  V30 647 C 66.2604 -0.571752 3.55329 0
M  V30 648 C 65.8684 0.658229 4.43138 0
M  V30 649 C 67.6124 -1.13857 4.08946 0
M  V30 650 C 65.5194 0.351439 5.90355 0
M  V30 651 H 64.4494 -0.113079 0.745472 0
M  V30 652 H 67.1004 0.424518 1.78522 0
M  V30 653 H 65.4824 -1.34872 3.72325 0
M  V30 654 H 66.6564 1.43403 4.37918 0
M  V30 655 H 64.9714 1.14458 4.0036 0
M  V30 656 H 67.5684 -1.38257 5.16516 0
M  V30 657 H 67.9114 -2.08489 3.6033 0
M  V30 658 H 68.4444 -0.423015 3.95544 0
M  V30 659 H 65.1834 1.26667 6.43145 0
M  V30 660 H 64.7034 -0.386842 5.98551 0
M  V30 661 H 66.3824 -0.0423134 6.46986 0
M  V30 662 N 66.5145 -1.57545 0.0417849 0
M  V30 663 C 67.9255 -1.80011 -0.495259 0
M  V30 664 C 68.2765 -0.953199 -1.71489 0
M  V30 665 O 67.4015 -0.167138 -2.15754 0
M  V30 666 C 67.9965 -3.26482 -0.905265 0
M  V30 667 C 66.5555 -3.499 -1.38734 0
M  V30 668 C 65.7025 -2.74979 -0.358056 0
M  V30 669 H 68.6535 -1.56425 0.267736 0
M  V30 670 H 68.6745 -3.36887 -1.76882 0
M  V30 671 H 68.1865 -3.88096 -0.017401 0
M  V30 672 H 66.2875 -2.93553 -2.29471 0
M  V30 673 H 66.4005 -4.58615 -1.38598 0
M  V30 674 H 64.7645 -2.40834 -0.828912 0
M  V30 675 H 65.5475 -3.39315 0.521561 0
M  V30 676 N 67.9926 0.231505 -1.5589 0
M  V30 677 C 68.9406 1.30649 -1.92441 0
M  V30 678 C 69.9346 1.49037 -0.805254 0
M  V30 679 O 71.1406 1.50329 -0.990007 0
M  V30 680 H 67.5156 0.437812 -0.611412 0
M  V30 681 H 69.4866 0.970973 -2.82161 0
M  V30 682 C 68.2356 2.65179 -2.24889 0
M  V30 683 H 67.5586 2.51835 -3.10514 0
M  V30 684 H 68.9986 3.39234 -2.54355 0
M  V30 685 C 67.4576 3.19439 -1.07054 0
M  V30 686 O 67.9876 4.00371 -0.326499 0
M  V30 687 N 66.1936 2.77675 -0.85703 0
M  V30 688 H 65.7406 2.11969 -1.46379 0
M  V30 689 H 65.6986 3.14321 -0.0703223 0
M  V30 690 N 69.4707 1.49531 0.497807 0
M  V30 691 C 70.7187 1.58865 1.24926 0
M  V30 692 C 71.0397 0.278721 1.92998 0
M  V30 693 O 70.3097 -0.702144 1.82885 0
M  V30 694 H 68.8897 0.585343 0.464094 0
M  V30 695 H 71.5517 1.86174 0.57666 0
M  V30 696 H 70.6477 2.38633 2.01149 0
M  V30 697 N 70.9488 -0.749086 1.3866 0
M  V30 698 C 72.1968 -1.50535 1.34847 0
M  V30 699 C 72.5178 -1.94909 -0.0595016 0
M  V30 700 O 71.7878 -1.67973 -1.00806 0
M  V30 701 H 70.3678 -0.558395 0.49619 0
M  V30 702 H 73.0298 -0.890165 1.73384 0
M  V30 703 H 72.1258 -2.39413 2.00219 0
M  V30 704 N 72.4269 -1.23603 -0.977757 0
M  V30 705 C 73.3369 -1.03632 -2.1047 0
M  V30 706 C 74.3529 0.0199435 -1.73989 0
M  V30 707 O 75.5289 -0.176076 -2.00629 0
M  V30 708 C 72.5939 -0.63276 -3.40877 0
M  V30 709 C 71.6549 -1.76437 -3.91367 0
M  V30 710 C 70.8879 -1.37997 -5.15551 0
M  V30 711 O 71.1109 -0.265357 -5.69782 0
M  V30 712 O 70.0449 -2.20201 -5.60174 0
M  V30 713 H 73.8709 -1.98086 -2.30208 0
M  V30 714 H 71.4559 -1.02332 -1.08851 0
M  V30 715 H 73.3379 -0.418761 -4.19314 0
M  V30 716 H 72.0129 0.282754 -3.22463 0
M  V30 717 H 70.9199 -2.03304 -3.14036 0
M  V30 718 H 72.2529 -2.6583 -4.14241 0
M  V30 719 N 73.905 1.17692 -1.04816 0
M  V30 720 C 74.835 2.23777 -0.666791 0
M  V30 721 C 75.816 1.66796 0.33361 0
M  V30 722 O 77.001 1.93039 0.212042 0
M  V30 723 C 74.131 3.47281 -0.0367933 0
M  V30 724 C 73.085 4.17059 -0.961546 0
M  V30 725 C 72.411 5.34342 -0.195626 0
M  V30 726 C 73.711 4.69713 -2.28402 0
M  V30 727 H 75.405 2.55933 -1.55367 0
M  V30 728 H 72.951 1.23019 -0.748484 0
M  V30 729 H 74.904 4.20706 0.241775 0
M  V30 730 H 73.628 3.14381 0.885004 0
M  V30 731 H 72.287 3.45541 -1.22462 0
M  V30 732 H 71.935 4.97692 0.728816 0
M  V30 733 H 71.635 5.81966 -0.811775 0
M  V30 734 H 73.159 6.10553 0.0757473 0
M  V30 735 H 74.573 5.34794 -2.06563 0
M  V30 736 H 72.97 5.279 -2.8538 0
M  V30 737 H 74.04 3.86726 -2.92525 0
M  V30 738 N 75.3831 0.828654 1.34056 0
M  V30 739 C 76.6311 0.41863 1.97717 0
M  V30 740 C 76.9521 -1.02314 1.66002 0
M  V30 741 O 76.2221 -1.71119 0.953683 0
M  V30 742 H 74.8021 0.151809 0.731412 0
M  V30 743 H 77.4641 1.05936 1.63596 0
M  V30 744 H 76.5601 0.542318 3.07352 0
M  V30 745 N 76.8612 -1.46375 0.584142 0
M  V30 746 C 77.7912 -2.33103 -0.136037 0
M  V30 747 C 78.7722 -1.45431 -0.882255 0
M  V30 748 O 79.9572 -1.74246 -0.857434 0
M  V30 749 C 77.0872 -3.27731 -1.14933 0
M  V30 750 C 76.0412 -4.24855 -0.517862 0
M  V30 751 C 75.3672 -5.09001 -1.63773 0
M  V30 752 C 76.6672 -5.19439 0.545886 0
M  V30 753 H 78.3612 -2.93568 0.588086 0
M  V30 754 H 75.9072 -1.41166 0.284259 0
M  V30 755 H 77.8602 -3.87261 -1.66153 0
M  V30 756 H 76.5842 -2.65377 -1.90375 0
M  V30 757 H 75.2432 -3.6659 -0.0267361 0
M  V30 758 H 74.8912 -4.43031 -2.38185 0
M  V30 759 H 74.5912 -5.74777 -1.22085 0
M  V30 760 H 76.1152 -5.71396 -2.15266 0
M  V30 761 H 77.5292 -5.73177 0.118704 0
M  V30 762 H 75.9262 -5.93566 0.88317 0
M  V30 763 H 76.9962 -4.63285 1.43162 0
M  V30 764 N 78.3393 -0.321999 -1.54275 0
M  V30 765 C 79.2693 0.537411 -2.27231 0
M  V30 766 C 80.2503 1.12064 -1.27968 0
M  V30 767 O 81.4353 1.14606 -1.56777 0
M  V30 768 C 78.5653 1.69919 -3.02894 0
M  V30 769 C 77.5193 1.24534 -4.09482 0
M  V30 770 C 76.8453 2.49394 -4.72977 0
M  V30 771 C 78.1453 0.361335 -5.21049 0
M  V30 772 H 79.8393 -0.0711406 -2.99315 0
M  V30 773 H 77.3853 -0.0356555 -1.43956 0
M  V30 774 H 79.3383 2.30668 -3.52662 0
M  V30 775 H 78.0623 2.33431 -2.28424 0
M  V30 776 H 76.7213 0.660782 -3.60596 0
M  V30 777 H 76.3693 3.11265 -3.95124 0
M  V30 778 H 76.0693 2.19718 -5.44975 0
M  V30 779 H 77.5933 3.10908 -5.25517 0
M  V30 780 H 79.0073 0.875072 -5.66582 0
M  V30 781 H 77.4043 0.157428 -5.99893 0
M  V30 782 H 78.4743 -0.60822 -4.8107 0
M  V30 783 N 79.8174 1.5752 -0.0501392 0
M  V30 784 C 80.7654 2.12651 0.942459 0
M  V30 785 C 81.7594 1.05807 1.32292 0
M  V30 786 O 82.9654 1.24217 1.3027 0
M  V30 787 H 79.3404 0.679673 0.321789 0
M  V30 788 H 81.3114 2.94951 0.452356 0
M  V30 789 C 80.0604 2.68565 2.20836 0
M  V30 790 H 79.3834 3.50439 1.92439 0
M  V30 791 H 80.8234 3.10761 2.8845 0
M  V30 792 C 79.2824 1.62291 2.95234 0
M  V30 793 O 79.8124 1.03508 3.88135 0
M  V30 794 N 78.0184 1.33836 2.57946 0
M  V30 795 H 77.5654 1.81826 1.82475 0
M  V30 796 H 77.5234 0.629595 3.08032 0
M  V30 797 N 81.2955 -0.223234 1.56011 0
M  V30 798 C 82.5205 -0.968978 1.83373 0
M  V30 799 C 82.9455 -1.77227 0.630254 0
M  V30 800 O 82.3035 -1.76345 -0.420959 0
M  V30 801 C 82.3515 -1.86363 3.08709 0
M  V30 802 O 81.4555 -2.95873 2.87285 0
M  V30 803 H 80.7965 -0.274461 0.604622 0
M  V30 804 H 83.3265 -0.237056 2.03222 0
M  V30 805 H 83.3365 -2.27376 3.38768 0
M  V30 806 H 82.0115 -1.27319 3.95933 0
M  V30 807 H 80.5885 -2.58818 2.68454 0
M  V30 808 N 82.7736 -1.49793 -0.48987 0
M  V30 809 C 84.0216 -1.59525 -1.24081 0
M  V30 810 C 84.3426 -0.288953 -1.92847 0
M  V30 811 O 83.6126 0.692436 -1.83254 0
M  V30 812 H 82.1926 -0.587796 -0.460983 0
M  V30 813 H 84.8546 -1.86477 -0.566778 0
M  V30 814 H 83.9506 -2.39696 -1.99881 0
M  V30 815 N 84.2517 0.741722 -1.39055 0
M  V30 816 C 85.1997 1.87702 -1.3737 0
M  V30 817 C 86.1937 1.67427 -0.257812 0
M  V30 818 O 87.3997 1.7485 -0.427489 0
M  V30 819 H 83.7747 0.617757 -0.428812 0
M  V30 820 H 85.7457 1.86239 -2.33147 0
M  V30 821 C 84.4947 3.25315 -1.22741 0
M  V30 822 H 83.8177 3.41509 -2.07873 0
M  V30 823 H 85.2577 4.04964 -1.25618 0
M  V30 824 C 83.7167 3.36838 0.0647316 0
M  V30 825 O 84.2467 3.88073 1.03741 0
M  V30 826 N 82.4527 2.90329 0.125544 0
M  V30 827 H 81.9997 2.48823 -0.666682 0
M  V30 828 H 81.9577 2.98418 0.989639 0
M  V30 829 N 85.7298 1.2412 0.971189 0
M  V30 830 C 86.6598 1.05508 2.08304 0
M  V30 831 C 87.6408 -0.0308864 1.70072 0
M  V30 832 O 88.8258 0.135521 1.93727 0
M  V30 833 C 85.9558 0.655365 3.4106 0
M  V30 834 C 84.9098 1.68971 3.93234 0
M  V30 835 C 84.2358 1.14516 5.22293 0
M  V30 836 C 85.5358 3.08487 4.21465 0
M  V30 837 H 87.2298 1.98507 2.24132 0
M  V30 838 H 84.7758 0.955821 1.07704 0
M  V30 839 H 86.7288 0.51217 4.18276 0
M  V30 840 H 85.4528 -0.31032 3.25122 0
M  V30 841 H 84.1118 1.82106 3.18171 0
M  V30 842 H 83.7598 0.170189 5.02712 0
M  V30 843 H 83.4598 1.83635 5.58168 0
M  V30 844 H 84.9838 1.01401 6.02121 0
M  V30 845 H 86.3978 2.98601 4.89398 0
M  V30 846 H 84.7948 3.74926 4.68562 0
M  V30 847 H 85.8648 3.56787 3.28376 0
M  V30 848 N 87.2079 -1.17134 1.05439 0
M  V30 849 C 88.4539 -1.87733 0.767077 0
M  V30 850 C 88.7869 -1.8098 -0.704253 0
M  V30 851 O 88.0619 -1.21951 -1.5152 0
M  V30 852 C 88.3449 -3.37659 1.25133 0
M  V30 853 C 88.1979 -3.53149 2.78578 0
M  V30 854 C 89.5169 -4.31768 0.852324 0
M  V30 855 H 86.6359 -0.681687 0.280129 0
M  V30 856 H 89.2779 -1.37732 1.30881 0
M  V30 857 H 87.4279 -3.80373 0.790469 0
M  V30 858 H 89.0999 -3.19434 3.32806 0
M  V30 859 H 87.3429 -2.95345 3.17732 0
M  V30 860 H 88.0139 -4.58403 3.07523 0
M  V30 861 H 90.4899 -3.96909 1.24911 0
M  V30 862 H 89.3659 -5.35199 1.21873 0
M  V30 863 H 89.6269 -4.41429 -0.243485 0
M  V30 864 N 88.686 -0.835752 -1.33615 0
M  V30 865 C 90.097 -0.487099 -1.80234 0
M  V30 866 C 90.448 0.993627 -1.69179 0
M  V30 867 O 89.573 1.77403 -1.23924 0
M  V30 868 C 90.168 -0.877385 -3.27242 0
M  V30 869 C 88.727 -0.580915 -3.7189 0
M  V30 870 C 87.874 -1.0874 -2.5509 0
M  V30 871 H 90.825 -1.02474 -1.2118 0
M  V30 872 H 90.846 -0.186195 -3.80044 0
M  V30 873 H 90.358 -1.95512 -3.35256 0
M  V30 874 H 88.459 0.486881 -3.69405 0
M  V30 875 H 88.572 -1.13396 -4.65487 0
M  V30 876 H 86.936 -0.508392 -2.49575 0
M  V30 877 H 87.719 -2.17184 -2.65868 0
M  V30 878 N 90.1641 1.46063 -0.591896 0
M  V30 879 C 91.4411 1.95595 -0.0137119 0
M  V30 880 C 91.8211 1.5345 1.4497 0
M  V30 881 O 91.1691 0.789543 2.14426 0
M  V30 882 C 91.3791 3.48453 -0.195373 0
M  V30 883 C 92.7271 4.24546 -0.0679765 0
M  V30 884 O 93.7511 3.55982 -0.124681 0
M  V30 885 O 92.6101 5.46467 0.0600579 0
M  V30 886 H 89.7041 0.825795 0.0446279 0
M  V30 887 H 92.2501 1.56303 -0.660859 0
M  V30 888 H 91.0221 3.72045 -1.21235 0
M  V30 889 H 90.6451 3.94597 0.487775 0
M  V30 890 N 91.6422 0.330177 1.54103 0
M  V30 891 C 92.6052 -0.520144 2.2322 0
M  V30 892 C 93.6052 -1.03828 1.22786 0
M  V30 893 O 94.7952 -0.929652 1.4732 0
M  V30 894 C 91.9272 -1.72317 2.94142 0
M  V30 895 H 93.1202 0.0841605 2.99782 0
M  V30 896 H 90.6732 0.0813433 1.56088 0
M  V30 897 H 91.4082 -2.36653 2.21734 0
M  V30 898 H 91.1932 -1.35898 3.67796 0
M  V30 899 H 92.6832 -2.3266 3.46784 0
M  V30 900 N 93.1203 -1.57491 0.0584922 0
M  V30 901 C 94.0833 -2.1085 -0.898617 0
M  V30 902 C 95.0833 -1.02964 -1.23511 0
M  V30 903 O 96.2733 -1.29007 -1.17059 0
M  V30 904 C 93.4053 -2.59881 -2.20623 0
M  V30 905 H 94.5983 -2.96715 -0.435936 0
M  V30 906 H 92.1513 -1.55141 -0.190023 0
M  V30 907 H 92.8863 -1.77431 -2.71457 0
M  V30 908 H 92.6713 -3.38727 -1.97501 0
M  V30 909 H 94.1613 -3.01285 -2.89166 0
M  V30 910 N 94.5984 0.214957 -1.56127 0
M  V30 911 C 95.8234 0.95924 -1.83884 0
M  V30 912 C 96.2484 1.7689 -0.639644 0
M  V30 913 O 95.6064 1.76566 0.411601 0
M  V30 914 C 95.6544 1.84723 -3.09693 0
M  V30 915 O 94.7584 2.94346 -2.8885 0
M  V30 916 H 94.0994 0.27125 -0.606069 0
M  V30 917 H 96.6294 0.226276 -2.03345 0
M  V30 918 H 96.6394 2.25576 -3.39969 0
M  V30 919 H 95.3144 1.25218 -3.96602 0
M  V30 920 H 93.8914 2.57391 -2.69823 0
M  V30 921 N 96.0765 1.50051 0.48192 0
M  V30 922 C 97.0235 1.68122 1.58125 0
M  V30 923 C 97.9935 0.522545 1.57666 0
M  V30 924 O 99.1785 0.751844 1.75362 0
M  V30 925 C 96.3185 1.77142 2.96167 0
M  V30 926 C 95.4315 3.0444 3.06497 0
M  V30 927 C 94.5665 3.04321 4.35387 0
M  V30 928 C 93.6055 4.26118 4.3942 0
M  V30 929 N 92.7425 4.238 5.59766 0
M  V30 930 H 97.5825 2.6198 1.42022 0
M  V30 931 H 95.1195 1.29877 0.690687 0
M  V30 932 H 97.0775 1.80352 3.76203 0
M  V30 933 H 95.7075 0.867329 3.1093 0
M  V30 934 H 94.7595 3.10752 2.19402 0
M  V30 935 H 96.0715 3.94426 3.05336 0
M  V30 936 H 95.2255 3.062 5.23762 0
M  V30 937 H 93.9645 2.12147 4.39141 0
M  V30 938 H 92.9695 4.24463 3.49444 0
M  V30 939 H 94.1945 5.19507 4.37366 0
M  V30 940 H 92.1405 3.34474 5.64326 0
M  V30 941 H 92.0575 5.07542 5.60301 0
M  V30 942 H 93.3255 4.2981 6.50295 0
M  V30 943 N 97.5546 -0.734337 1.39446 0
M  V30 944 C 98.5046 -1.83949 1.34709 0
M  V30 945 C 99.4886 -1.59279 0.227851 0
M  V30 946 O 100.681 -1.70771 0.465438 0
M  V30 947 C 97.8096 -3.21884 1.19356 0
M  V30 948 C 96.8956 -3.52381 2.35984 0
M  V30 949 N 97.2866 -3.53811 3.61457 0
M  V30 950 C 95.5846 -3.82747 2.28956 0
M  V30 951 C 96.2856 -3.82122 4.38586 0
M  V30 952 N 95.2616 -3.9993 3.68181 0
M  V30 953 H 99.0636 -1.83361 2.29687 0
M  V30 954 H 96.5776 -0.932609 1.32952 0
M  V30 955 H 98.5746 -4.00998 1.14046 0
M  V30 956 H 97.2346 -3.23711 0.253295 0
M  V30 957 H 98.2456 -3.35107 3.94872 0
M  V30 958 H 94.9226 -3.92175 1.43194 0
M  V30 959 H 96.3126 -3.89691 5.47349 0
M  V30 960 N 99.0327 -1.24633 -0.964593 0
M  V30 961 C 99.9797 -1.04144 -2.05968 0
M  V30 962 C 100.95 0.046262 -1.66036 0
M  V30 963 O 102.135 -0.108972 -1.90489 0
M  V30 964 C 99.2747 -0.65563 -3.38815 0
M  V30 965 C 98.3877 -1.81714 -3.91923 0
M  V30 966 C 97.5227 -1.37662 -5.13052 0
M  V30 967 C 96.5617 -2.50788 -5.58365 0
M  V30 968 N 95.6987 -2.07582 -6.70712 0
M  V30 969 H 100.539 -1.9787 -2.22827 0
M  V30 970 H 98.0757 -0.9855 -1.09208 0
M  V30 971 H 100.034 -0.412954 -4.15151 0
M  V30 972 H 98.6637 0.244627 -3.21872 0
M  V30 973 H 97.7157 -2.1734 -3.12198 0
M  V30 974 H 99.0277 -2.66705 -4.21509 0
M  V30 975 H 98.1817 -1.093 -5.96773 0
M  V30 976 H 96.9207 -0.497293 -4.85158 0
M  V30 977 H 95.9257 -2.79906 -4.73215 0
M  V30 978 H 97.1507 -3.39283 -5.88272 0
M  V30 979 H 95.0967 -1.22051 -6.44546 0
M  V30 980 H 95.0137 -2.86125 -6.99763 0
M  V30 981 H 96.2817 -1.82369 -7.57867 0
M  V30 982 N 100.511 1.16574 -1.06058 0
M  V30 983 C 101.443 2.2045 -0.627239 0
M  V30 984 C 102.456 1.59752 0.313534 0
M  V30 985 O 103.645 1.78192 0.104896 0
M  V30 986 C 100.745 3.3875 0.100974 0
M  V30 987 C 99.9178 4.29008 -0.852687 0
M  V30 988 C 98.9768 5.25944 -0.164152 0
M  V30 989 O 98.0028 5.63535 -0.801047 0
M  V30 990 N 99.2048 5.70075 1.09518 0
M  V30 991 H 101.97 2.58249 -1.52077 0
M  V30 992 H 99.5308 1.3156 -0.943594 0
M  V30 993 H 101.523 4.00638 0.57194 0
M  V30 994 H 100.093 2.99476 0.89628 0
M  V30 995 H 99.3128 3.64419 -1.50308 0
M  V30 996 H 100.601 4.86195 -1.49972 0
M  V30 997 H 99.9988 5.41624 1.6328 0
M  V30 998 H 98.5558 6.34067 1.51006 0
M  V30 999 N 101.989 0.842826 1.3317 0
M  V30 1000 C 102.919 0.294028 2.31641 0
M  V30 1001 C 103.9 -0.600401 1.59151 0
M  V30 1002 O 105.085 -0.523124 1.87022 0
M  V30 1003 C 102.215 -0.528416 3.43257 0
M  V30 1004 C 101.169 0.27056 4.27144 0
M  V30 1005 C 100.495 -0.675881 5.30411 0
M  V30 1006 C 101.795 1.48981 5.00602 0
M  V30 1007 H 103.489 1.11681 2.77791 0
M  V30 1008 H 101.035 0.538478 1.33553 0
M  V30 1009 H 102.988 -0.922674 4.11175 0
M  V30 1010 H 101.712 -1.38445 2.95805 0
M  V30 1011 H 100.371 0.646427 3.60856 0
M  V30 1012 H 100.019 -1.52842 4.79216 0
M  V30 1013 H 99.7189 -0.145374 5.8742 0
M  V30 1014 H 101.243 -1.06757 6.01195 0
M  V30 1015 H 102.657 1.16849 5.61266 0
M  V30 1016 H 101.054 1.95739 5.6728 0
M  V30 1017 H 102.124 2.25746 4.29147 0
M  V30 1018 N 103.467 -1.45747 0.599634 0
M  V30 1019 C 104.692 -2.07178 0.0960198 0
M  V30 1020 C 105.117 -1.44268 -1.207 0
M  V30 1021 O 104.475 -0.532503 -1.73303 0
M  V30 1022 C 104.523 -3.60579 -0.0385348 0
M  V30 1023 O 103.627 -3.97713 -1.0908 0
M  V30 1024 H 102.968 -0.660251 0.0704593 0
M  V30 1025 H 105.498 -1.87124 0.827385 0
M  V30 1026 H 105.508 -4.07298 -0.239304 0
M  V30 1027 H 104.183 -4.05756 0.912947 0
M  V30 1028 H 102.76 -3.62678 -0.867135 0
M  V30 1029 N 104.945 -0.338344 -1.53925 0
M  V30 1030 C 105.855 0.529421 -2.28548 0
M  V30 1031 C 106.871 1.11645 -1.3346 0
M  V30 1032 O 108.047 1.13325 -1.66492 0
M  V30 1033 C 105.112 1.66713 -3.03987 0
M  V30 1034 C 104.173 1.11041 -4.14691 0
M  V30 1035 C 103.406 2.19389 -4.86522 0
M  V30 1036 O 103.629 3.40013 -4.57982 0
M  V30 1037 O 102.563 1.83976 -5.73094 0
M  V30 1038 H 106.389 -0.0770399 -3.03602 0
M  V30 1039 H 103.974 -0.103555 -1.49041 0
M  V30 1040 H 105.856 2.32918 -3.5118 0
M  V30 1041 H 104.531 2.25949 -2.31794 0
M  V30 1042 H 103.438 0.413024 -3.71813 0
M  V30 1043 H 104.771 0.562975 -4.8897 0
M  V30 1044 N 106.423 1.57458 -0.0668435 0
M  V30 1045 C 107.353 2.15468 0.899764 0
M  V30 1046 C 108.334 1.08042 1.31381 0
M  V30 1047 O 109.519 1.36054 1.38574 0
M  V30 1048 C 106.649 2.71232 2.16911 0
M  V30 1049 C 105.603 3.83781 1.89463 0
M  V30 1050 C 104.929 4.26127 3.22986 0
M  V30 1051 C 106.229 5.08238 1.20381 0
M  V30 1052 H 107.923 2.96488 0.416529 0
M  V30 1053 H 105.469 1.4262 0.198908 0
M  V30 1054 H 107.422 3.10458 2.84945 0
M  V30 1055 H 106.146 1.87426 2.67468 0
M  V30 1056 H 104.805 3.45051 1.23836 0
M  V30 1057 H 104.453 3.39249 3.71374 0
M  V30 1058 H 104.153 5.01993 3.05413 0
M  V30 1059 H 105.677 4.67966 3.92225 0
M  V30 1060 H 107.091 5.44811 1.78475 0
M  V30 1061 H 105.488 5.89349 1.13083 0
M  V30 1062 H 106.558 4.84558 0.182153 0
M  V30 1063 N 107.901 -0.206675 1.56239 0
M  V30 1064 C 108.831 -1.25909 1.96645 0
M  V30 1065 C 109.812 -1.48097 0.836734 0
M  V30 1066 O 110.997 -1.6003 1.10019 0
M  V30 1067 C 108.127 -2.6058 2.29599 0
M  V30 1068 C 107.081 -2.53024 3.452 0
M  V30 1069 C 106.407 -3.91861 3.63798 0
M  V30 1070 C 107.707 -2.06524 4.79734 0
M  V30 1071 H 109.401 -0.923369 2.84806 0
M  V30 1072 H 106.947 -0.442735 1.37025 0
M  V30 1073 H 108.9 -3.34375 2.56459 0
M  V30 1074 H 107.624 -2.95869 1.38307 0
M  V30 1075 H 106.283 -1.81684 3.18412 0
M  V30 1076 H 105.931 -4.24483 2.69857 0
M  V30 1077 H 105.631 -3.87683 4.4156 0
M  V30 1078 H 107.155 -4.67296 3.93022 0
M  V30 1079 H 108.569 -2.70072 5.05702 0
M  V30 1080 H 106.966 -2.13374 5.60885 0
M  V30 1081 H 108.036 -1.01802 4.74093 0
M  V30 1082 N 109.379 -1.50304 -0.473955 0
M  V30 1083 C 110.795 -1.37667 -0.807466 0
M  V30 1084 C 110.995 -0.430555 -1.96846 0
M  V30 1085 O 110.051 0.127874 -2.52176 0
M  V30 1086 C 111.364 -2.78974 -1.12223 0
M  V30 1087 C 112.912 -2.87868 -1.22885 0
M  V30 1088 C 113.387 -4.30003 -1.57676 0
M  V30 1089 N 114.878 -4.3294 -1.64673 0
M  V30 1090 C 115.613 -5.3991 -1.93091 0
M  V30 1091 N 115.109 -6.57092 -2.1955 0
M  V30 1092 N 116.902 -5.27351 -1.94569 0
M  V30 1093 H 109.053 -2.10394 0.291212 0
M  V30 1094 H 111.316 -0.945575 0.0677609 0
M  V30 1095 H 111.022 -3.50031 -0.342229 0
M  V30 1096 H 110.896 -3.16038 -2.05913 0
M  V30 1097 H 113.283 -2.17032 -1.99953 0
M  V30 1098 H 113.364 -2.54352 -0.271814 0
M  V30 1099 H 113.008 -5.01375 -0.81149 0
M  V30 1100 H 112.938 -4.61004 -2.54525 0
M  V30 1101 H 115.429 -3.48441 -1.46277 0
M  V30 1102 H 115.742 -7.34425 -2.405 0
M  V30 1103 H 114.087 -6.60272 -2.16948 0
M  V30 1104 H 117.278 -4.34801 -1.73394 0
M  V30 1105 H 117.451 -6.10805 -2.16381 0
M  V30 1106 N 110.857 0.726932 -1.39834 0
M  V30 1107 C 112.105 1.4837 -1.37225 0
M  V30 1108 C 112.426 1.94979 0.0284857 0
M  V30 1109 O 111.696 1.69555 0.981213 0
M  V30 1110 H 110.276 0.55043 -0.505011 0
M  V30 1111 H 112.938 0.862468 -1.74778 0
M  V30 1112 H 112.034 2.36198 -2.04003 0
M  V30 1113 N 112.336 1.25143 0.95797 0
M  V30 1114 C 113.584 1.09476 1.69881 0
M  V30 1115 C 113.905 -0.365502 1.91544 0
M  V30 1116 O 113.175 -1.25985 1.50015 0
M  V30 1117 H 111.755 0.402128 0.629525 0
M  V30 1118 H 114.417 1.57214 1.15194 0
M  V30 1119 H 113.513 1.60046 2.6794 0
M  V30 1120 N 113.814 -1.1601 1.06675 0
M  V30 1121 C 115.039 -1.91068 0.806706 0
M  V30 1122 C 115.464 -1.77112 -0.633485 0
M  V30 1123 O 114.822 -1.09908 -1.44187 0
M  V30 1124 C 114.87 -3.39655 1.21106 0
M  V30 1125 O 113.974 -4.10893 0.352189 0
M  V30 1126 H 113.315 -0.595125 0.294486 0
M  V30 1127 H 115.845 -1.46955 1.42356 0
M  V30 1128 H 115.855 -3.90434 1.18428 0
M  V30 1129 H 114.53 -3.49132 2.26008 0
M  V30 1130 H 113.107 -3.70285 0.440868 0
M  V30 1131 N 115.292 -0.849877 -1.32721 0
M  V30 1132 C 116.54 -0.450032 -1.97026 0
M  V30 1133 C 116.861 0.996604 -1.67609 0
M  V30 1134 O 116.131 1.6958 -0.980786 0
M  V30 1135 H 114.711 -0.163426 -0.728904 0
M  V30 1136 H 117.373 -1.08526 -1.6189 0
M  V30 1137 H 116.469 -0.591146 -3.0645 0
M  V30 1138 N 116.77 1.45427 -0.607355 0
M  V30 1139 C 117.995 2.07124 -0.107006 0
M  V30 1140 C 118.42 1.44906 1.19933 0
M  V30 1141 O 117.778 0.541687 1.73019 0
M  V30 1142 C 117.826 3.60595 0.0194119 0
M  V30 1143 O 116.93 3.98285 1.0697 0
M  V30 1144 H 116.271 0.659868 -0.0739597 0
M  V30 1145 H 118.801 1.86683 -0.837297 0
M  V30 1146 H 118.811 4.07419 0.2177 0
M  V30 1147 H 117.486 4.05266 -0.934453 0
M  V30 1148 H 116.063 3.63133 0.847889 0
M  V30 1149 N 118.248 0.346503 1.53744 0
M  V30 1150 C 119.473 -0.253074 2.0585 0
M  V30 1151 C 119.898 -1.43202 1.21962 0
M  V30 1152 O 119.256 -1.79783 0.234073 0
M  V30 1153 C 119.304 -0.643193 3.54817 0
M  V30 1154 O 118.408 -1.74286 3.73762 0
M  V30 1155 H 117.749 -0.0413583 0.662711 0
M  V30 1156 H 120.279 0.501574 1.98357 0
M  V30 1157 H 120.289 -0.919526 3.97503 0
M  V30 1158 H 118.964 0.218966 4.15323 0
M  V30 1159 H 117.541 -1.46356 3.42979 0
M  V30 1160 N 119.726 -1.57421 0.075193 0
M  V30 1161 C 120.975 -1.92794 -0.592731 0
M  V30 1162 C 121.288 -0.957478 -1.70563 0
M  V30 1163 O 122.494 -1.20417 -2.43335 0
M  V30 1164 C 120.95 -3.42495 -1.10569 0
M  V30 1165 C 120.558 -4.47994 -0.0236121 0
M  V30 1166 C 122.302 -3.86864 -1.74748 0
M  V30 1167 C 120.209 -5.88829 -0.550803 0
M  V30 1168 H 119.139 -0.719591 -0.225177 0
M  V30 1169 H 121.79 -1.82902 0.147978 0
M  V30 1170 H 120.172 -3.47471 -1.89947 0
M  V30 1171 H 121.346 -4.54637 0.751099 0
M  V30 1172 H 119.661 -4.13113 0.522159 0
M  V30 1173 H 122.258 -4.8947 -2.15229 0
M  V30 1174 H 122.601 -3.24417 -2.60882 0
M  V30 1175 H 123.134 -3.84504 -1.01986 0
M  V30 1176 H 119.873 -6.54929 0.273457 0
M  V30 1177 H 119.393 -5.85698 -1.29296 0
M  V30 1178 H 121.072 -6.38811 -1.02613 0
M  V30 1179 N 121.204 0.198386 -1.56346 0
M  V30 1180 C 122.152 1.26538 -1.95169 0
M  V30 1181 C 123.146 1.47295 -0.836685 0
M  V30 1182 O 124.352 1.48195 -1.02167 0
M  V30 1183 H 120.727 0.424744 -0.620561 0
M  V30 1184 H 122.698 0.910904 -2.84157 0
M  V30 1185 C 121.447 2.6035 -2.30463 0
M  V30 1186 H 120.77 2.45192 -3.15786 0
M  V30 1187 H 122.21 3.33762 -2.61494 0
M  V30 1188 C 120.669 3.17096 -1.13806 0
M  V30 1189 O 121.199 3.99588 -0.41135 0
M  V30 1190 N 119.405 2.75795 -0.915736 0
M  V30 1191 H 118.952 2.08816 -1.50843 0
M  V30 1192 H 118.91 3.14101 -0.136979 0
M  V30 1193 N 122.682 1.50554 0.465978 0
M  V30 1194 C 124.093 1.54599 1.04671 0
M  V30 1195 C 124.444 0.352488 1.93008 0
M  V30 1196 O 123.569 -0.534044 2.09707 0
M  V30 1197 C 124.164 2.80166 1.90505 0
M  V30 1198 C 122.723 2.86876 2.43678 0
M  V30 1199 C 121.87 2.48947 1.22151 0
M  V30 1200 H 124.821 1.56744 0.248384 0
M  V30 1201 H 124.842 2.62311 2.75633 0
M  V30 1202 H 124.354 3.67013 1.26186 0
M  V30 1203 H 122.455 2.04393 3.11536 0
M  V30 1204 H 122.568 3.89885 2.78436 0
M  V30 1205 H 120.932 2.01498 1.5579 0
M  V30 1206 H 121.715 3.38107 0.594866 0
M  V30 1207 N 124.16 -0.719506 1.40217 0
M  V30 1208 C 125.408 -1.47641 1.3801 0
M  V30 1209 C 125.729 -1.94992 -0.018145 0
M  V30 1210 O 124.999 -1.70073 -0.972207 0
M  V30 1211 H 123.579 -0.547744 0.507923 0
M  V30 1212 H 126.241 -0.853187 1.75233 0
M  V30 1213 H 125.337 -2.35112 2.05253 0
M  V30 1214 N 125.638 -1.25649 -0.95132 0
M  V30 1215 C 126.887 -1.09988 -1.69073 0
M  V30 1216 C 127.2 0.358355 -1.92289 0
M  V30 1217 O 128.406 0.635466 -2.63958 0
M  V30 1218 C 126.862 -1.92012 -3.044 0
M  V30 1219 C 126.47 -3.42347 -2.88968 0
M  V30 1220 C 128.214 -1.8493 -3.82101 0
M  V30 1221 C 126.121 -4.16655 -4.19705 0
M  V30 1222 H 125.051 -0.407993 -0.63408 0
M  V30 1223 H 127.702 -1.49873 -1.05879 0
M  V30 1224 H 126.084 -1.44952 -3.68517 0
M  V30 1225 H 127.258 -3.97104 -2.33762 0
M  V30 1226 H 125.573 -3.50557 -2.24719 0
M  V30 1227 H 128.17 -2.37739 -4.78941 0
M  V30 1228 H 128.513 -0.817883 -4.08187 0
M  V30 1229 H 129.046 -2.29758 -3.2474 0
M  V30 1230 H 125.785 -5.20224 -3.98807 0
M  V30 1231 H 125.305 -3.66681 -4.74663 0
M  V30 1232 H 126.984 -4.24551 -4.88227 0
M  V30 1233 N 127.117 1.15442 -1.07289 0
M  V30 1234 C 128.365 1.85845 -0.794096 0
M  V30 1235 C 128.686 1.82692 0.681809 0
M  V30 1236 O 127.956 1.26741 1.49377 0
M  V30 1237 H 126.536 0.688089 -0.290763 0
M  V30 1238 H 129.198 1.39947 -1.3565 0
M  V30 1239 H 128.294 2.91001 -1.12804 0
M  V30 1240 N 128.595 0.856903 1.32268 0
M  V30 1241 C 129.543 0.291987 2.3076 0
M  V30 1242 C 130.537 -0.585857 1.58947 0
M  V30 1243 O 131.743 -0.47341 1.73663 0
M  V30 1244 H 128.118 0.075721 0.748178 0
M  V30 1245 H 130.089 1.13687 2.75895 0
M  V30 1246 C 128.838 -0.502869 3.44044 0
M  V30 1247 H 128.161 0.163328 3.99466 0
M  V30 1248 H 129.601 -0.863691 4.1511 0
M  V30 1249 C 128.06 -1.68898 2.91505 0
M  V30 1250 O 128.59 -2.78811 2.89184 0
M  V30 1251 N 126.796 -1.51679 2.47875 0
M  V30 1252 H 126.343 -0.622666 2.49961 0
M  V30 1253 H 126.301 -2.31184 2.13076 0
M  V30 1254 N 130.073 -1.45103 0.615059 0
M  V30 1255 C 131.319 -2.02483 0.113347 0
M  V30 1256 C 131.652 -1.48146 -1.25564 0
M  V30 1257 O 130.927 -0.659104 -1.82992 0
M  V30 1258 C 131.21 -3.60005 0.0825278 0
M  V30 1259 C 131.063 -4.2466 1.48271 0
M  V30 1260 C 132.382 -4.35972 -0.601401 0
M  V30 1261 H 129.501 -0.735764 0.0426632 0
M  V30 1262 H 132.143 -1.72868 0.788461 0
M  V30 1263 H 130.293 -3.85367 -0.492378 0
M  V30 1264 H 131.965 -4.10458 2.10527 0
M  V30 1265 H 130.208 -3.82772 2.04127 0
M  V30 1266 H 130.879 -5.336 1.41332 0
M  V30 1267 H 133.355 -4.15947 -0.112666 0
M  V30 1268 H 132.231 -5.45697 -0.592097 0
M  V30 1269 H 132.492 -4.09391 -1.66887 0
M  V30 1270 N 131.551 -0.354651 -1.53558 0
M  V30 1271 C 132.776 0.242153 -2.05981 0
M  V30 1272 C 133.201 1.42553 -1.2272 0
M  V30 1273 O 132.559 1.79656 -0.243604 0
M  V30 1274 C 132.607 0.624367 -3.55154 0
M  V30 1275 O 131.711 1.72301 -3.74681 0
M  V30 1276 H 131.052 0.0378432 -0.662921 0
M  V30 1277 H 133.582 -0.512087 -1.98088 0
M  V30 1278 H 133.592 0.898433 -3.97985 0
M  V30 1279 H 132.267 -0.240989 -4.15201 0
M  V30 1280 H 130.844 1.44535 -3.4375 0
M  V30 1281 N 133.029 1.57378 -0.0835403 0
M  V30 1282 C 133.992 2.12252 0.864959 0
M  V30 1283 C 134.992 1.04916 1.21858 0
M  V30 1284 O 136.182 1.30853 1.14991 0
M  V30 1285 C 133.314 2.63358 2.16461 0
M  V30 1286 H 134.507 2.97371 0.388676 0
M  V30 1287 H 132.06 1.55423 0.165317 0
M  V30 1288 H 132.795 1.81727 2.686 0
M  V30 1289 H 132.58 3.41826 1.92087 0
M  V30 1290 H 134.07 3.05847 2.84337 0
M  V30 1291 N 134.507 -0.190092 1.56449 0
M  V30 1292 C 135.732 -0.929864 1.85387 0
M  V30 1293 C 136.157 -1.7585 0.667704 0
M  V30 1294 O 135.515 -1.77198 -0.383459 0
M  V30 1295 C 135.563 -1.79773 3.12593 0
M  V30 1296 O 134.667 -2.89713 2.93496 0
M  V30 1297 H 134.008 -0.261574 0.610307 0
M  V30 1298 H 136.538 -0.193896 2.03679 0
M  V30 1299 H 136.548 -2.20139 3.43515 0
M  V30 1300 H 135.223 -1.18892 3.98544 0
M  V30 1301 H 133.8 -2.53065 2.73884 0
M  V30 1302 N 135.985 -1.50799 -0.457987 0
M  V30 1303 C 137.21 -1.66496 -1.23668 0
M  V30 1304 C 137.635 -0.353288 -1.84752 0
M  V30 1305 O 136.993 0.684346 -1.67888 0
M  V30 1306 C 137.041 -2.76763 -2.3116 0
M  V30 1307 O 136.145 -2.38928 -3.36136 0
M  V30 1308 H 135.486 -0.555828 -0.363252 0
M  V30 1309 H 138.016 -1.9725 -0.543474 0
M  V30 1310 H 138.026 -3.00232 -2.76269 0
M  V30 1311 H 136.701 -3.71954 -1.86073 0
M  V30 1312 H 135.278 -2.25953 -2.96647 0
M  V30 1313 N 137.463 0.71206 -1.40597 0
M  V30 1314 C 138.874 1.29135 -1.34837 0
M  V30 1315 C 139.225 1.96186 -0.0235395 0
M  V30 1316 O 138.35 1.97768 0.878444 0
M  V30 1317 C 138.945 2.34827 -2.44217 0
M  V30 1318 C 137.504 2.88371 -2.41907 0
M  V30 1319 C 136.651 1.62202 -2.24913 0
M  V30 1320 H 139.602 0.507944 -1.50352 0
M  V30 1321 H 139.623 3.15749 -2.12327 0
M  V30 1322 H 139.135 1.85996 -3.40627 0
M  V30 1323 H 137.236 3.41422 -1.49204 0
M  V30 1324 H 137.349 3.39925 -3.37621 0
M  V30 1325 H 135.713 1.874 -1.72492 0
M  V30 1326 H 136.496 1.15391 -3.23326 0
M  V30 1327 N 138.941 1.26152 0.944643 0
M  V30 1328 C 140.187 1.11657 1.69294 0
M  V30 1329 C 140.52 -0.339926 1.91202 0
M  V30 1330 O 139.795 -1.24994 1.49019 0
M  V30 1331 C 140.078 1.88236 3.06984 0
M  V30 1332 C 139.931 3.41772 2.92424 0
M  V30 1333 C 141.25 1.67343 4.07043 0
M  V30 1334 H 138.369 0.407004 0.614424 0
M  V30 1335 H 141.011 1.55106 1.09737 0
M  V30 1336 H 139.161 1.51308 3.57824 0
M  V30 1337 H 140.833 3.88433 2.48832 0
M  V30 1338 H 139.076 3.68974 2.28124 0
M  V30 1339 H 139.747 3.90579 3.90067 0
M  V30 1340 H 142.223 1.99509 3.65151 0
M  V30 1341 H 141.099 2.23346 5.01406 0
M  V30 1342 H 141.36 0.617158 4.37771 0
M  V30 1343 N 140.419 -1.14872 1.07899 0
M  V30 1344 C 141.351 -2.19425 0.662231 0
M  V30 1345 C 142.364 -1.60231 -0.288079 0
M  V30 1346 O 143.553 -1.78336 -0.076534 0
M  V30 1347 C 140.653 -3.38867 -0.0470695 0
M  V30 1348 C 139.826 -4.27597 0.920831 0
M  V30 1349 C 138.885 -5.25616 0.247805 0
M  V30 1350 O 137.911 -5.62189 0.890599 0
M  V30 1351 N 139.113 -5.71746 -1.00435 0
M  V30 1352 H 141.878 -2.55797 1.56166 0
M  V30 1353 H 139.439 -1.30042 0.964404 0
M  V30 1354 H 141.431 -4.01497 -0.50813 0
M  V30 1355 H 140.001 -3.00864 -0.848523 0
M  V30 1356 H 139.221 -3.61982 1.56087 0
M  V30 1357 H 140.509 -4.83748 1.57688 0
M  V30 1358 H 139.907 -5.44153 -1.54642 0
M  V30 1359 H 138.464 -6.36389 -1.40899 0
M  V30 1360 N 141.898 -0.863906 -1.31812 0
M  V30 1361 C 142.83 -0.272485 -2.27575 0
M  V30 1362 C 143.843 0.56104 -1.52827 0
M  V30 1363 O 145.032 0.384021 -1.7432 0
M  V30 1364 C 142.132 0.63283 -3.32939 0
M  V30 1365 C 141.305 -0.166902 -4.37081 0
M  V30 1366 C 140.364 0.665608 -5.21973 0
M  V30 1367 O 139.39 0.0958091 -5.69119 0
M  V30 1368 N 140.592 1.9787 -5.45736 0
M  V30 1369 H 143.357 -1.0954 -2.78964 0
M  V30 1370 H 140.918 -0.724791 -1.4477 0
M  V30 1371 H 142.91 1.19532 -3.86645 0
M  V30 1372 H 141.48 1.35642 -2.81638 0
M  V30 1373 H 140.7 -0.910838 -3.83533 0
M  V30 1374 H 141.988 -0.715874 -5.03739 0
M  V30 1375 H 141.386 2.46484 -5.09178 0
M  V30 1376 H 139.943 2.48911 -6.024 0
M  V30 1377 N 143.376 1.44774 -0.622745 0
M  V30 1378 C 144.624 2.01721 -0.123655 0
M  V30 1379 C 144.945 1.49172 1.25589 0
M  V30 1380 O 144.215 0.691974 1.83272 0
M  V30 1381 H 142.795 0.745777 -0.0427225 0
M  V30 1382 H 145.457 1.77382 -0.807559 0
M  V30 1383 H 144.553 3.11984 -0.0849534 0
M  V30 1384 N 144.854 0.36279 1.53368 0
M  V30 1385 C 145.784 -0.476976 2.28576 0
M  V30 1386 C 146.765 -1.08631 1.30894 0
M  V30 1387 O 147.95 -1.10409 1.59761 0
M  V30 1388 C 145.08 -1.61828 3.07293 0
M  V30 1389 C 144.034 -1.13633 4.1264 0
M  V30 1390 C 143.36 -2.36766 4.79423 0
M  V30 1391 C 144.66 -0.223061 5.21823 0
M  V30 1392 H 146.354 0.150474 2.99022 0
M  V30 1393 H 143.9 0.0738103 1.43811 0
M  V30 1394 H 145.853 -2.21237 3.58653 0
M  V30 1395 H 144.577 -2.27292 2.34533 0
M  V30 1396 H 143.236 -0.564945 3.62221 0
M  V30 1397 H 142.884 -3.0068 4.03238 0
M  V30 1398 H 142.584 -2.05192 5.50609 0
M  V30 1399 H 144.108 -2.96865 5.33576 0
M  V30 1400 H 145.522 -0.724545 5.68703 0
M  V30 1401 H 143.919 0.001678 6.001 0
M  V30 1402 H 144.989 0.735553 4.79289 0
M  V30 1403 N 146.332 -1.57332 0.0918853 0
M  V30 1404 C 147.58 -1.93853 -0.571446 0
M  V30 1405 C 147.901 -0.974212 -1.6892 0
M  V30 1406 O 147.171 -0.0257254 -1.95883 0
M  V30 1407 H 145.751 -0.715666 -0.214082 0
M  V30 1408 H 148.413 -1.94287 0.154464 0
M  V30 1409 H 147.509 -2.96191 -0.983729 0
M  V30 1410 N 147.81 0.181792 -1.56548 0
M  V30 1411 C 149.058 0.89832 -1.81038 0
M  V30 1412 C 149.379 1.83232 -0.667164 0
M  V30 1413 O 148.649 1.93372 0.313673 0
M  V30 1414 H 147.229 0.33471 -0.667816 0
M  V30 1415 H 149.891 0.184116 -1.94028 0
M  V30 1416 H 148.987 1.4815 -2.74696 0
M  V30 1417 N 149.288 1.51039 0.449983 0
M  V30 1418 C 150.22 1.67617 1.56324 0
M  V30 1419 C 151.233 0.557083 1.52972 0
M  V30 1420 O 152.422 0.830989 1.57977 0
M  V30 1421 C 149.522 1.66402 2.95235 0
M  V30 1422 C 148.695 2.9469 3.23229 0
M  V30 1423 C 147.754 2.85832 4.41799 0
M  V30 1424 O 146.78 3.59785 4.41071 0
M  V30 1425 N 147.982 2.00821 5.44657 0
M  V30 1426 H 150.747 2.63648 1.42512 0
M  V30 1427 H 148.308 1.48767 0.638737 0
M  V30 1428 H 150.3 1.58062 3.72557 0
M  V30 1429 H 148.87 0.780182 3.02708 0
M  V30 1430 H 148.09 3.16996 2.34323 0
M  V30 1431 H 149.378 3.79636 3.38754 0
M  V30 1432 H 148.776 1.40091 5.48079 0
M  V30 1433 H 147.333 1.98368 6.20881 0
M  V30 1434 N 150.766 -0.704594 1.40972 0
M  V30 1435 C 151.729 -1.80035 1.41845 0
M  V30 1436 C 152.729 -1.57774 0.310474 0
M  V30 1437 O 153.919 -1.64613 0.56992 0
M  V30 1438 C 151.051 -3.18284 1.22098 0
M  V30 1439 H 152.244 -1.80658 2.3938 0
M  V30 1440 H 149.797 -0.911329 1.26982 0
M  V30 1441 H 150.532 -3.23306 0.253672 0
M  V30 1442 H 150.317 -3.35843 2.02366 0
M  V30 1443 H 151.807 -3.98289 1.25522 0
M  V30 1444 N 152.244 -1.26651 -0.937939 0
M  V30 1445 C 153.176 -1.04283 -2.04102 0
M  V30 1446 C 154.189 -0.00221014 -1.628 0
M  V30 1447 O 155.378 -0.242645 -1.76843 0
M  V30 1448 C 152.478 -0.557846 -3.34277 0
M  V30 1449 C 151.651 -1.66843 -4.04329 0
M  V30 1450 C 150.71 -1.18095 -5.12777 0
M  V30 1451 O 149.736 -1.87865 -5.37304 0
M  V30 1452 N 150.938 -0.0311006 -5.80492 0
M  V30 1453 H 153.703 -1.9927 -2.23856 0
M  V30 1454 H 151.264 -1.1808 -1.10764 0
M  V30 1455 H 153.256 -0.215836 -4.04124 0
M  V30 1456 H 151.826 0.298523 -3.11171 0
M  V30 1457 H 151.046 -2.18123 -3.28353 0
M  V30 1458 H 152.334 -2.41408 -4.47883 0
M  V30 1459 H 151.732 0.551486 -5.63005 0
M  V30 1460 H 150.289 0.251809 -6.51313 0
M  V30 1461 N 153.722 1.14298 -1.08507 0
M  V30 1462 C 154.97 1.84993 -0.813763 0
M  V30 1463 C 155.291 1.83405 0.662393 0
M  V30 1464 O 154.561 1.28319 1.48024 0
M  V30 1465 H 153.141 0.684966 -0.298045 0
M  V30 1466 H 155.803 1.385 -1.37126 0
M  V30 1467 H 154.899 2.89788 -1.15884 0
M  V30 1468 N 155.201 0.870884 1.31352 0
M  V30 1469 C 156.133 0.28455 2.27427 0
M  V30 1470 C 157.146 -0.552927 1.53123 0
M  V30 1471 O 158.335 -0.374771 1.74521 0
M  V30 1472 C 155.435 -0.615164 3.3327 0
M  V30 1473 C 154.608 0.190079 4.36987 0
M  V30 1474 C 153.667 -0.637917 5.22319 0
M  V30 1475 O 152.693 -0.065626 5.69162 0
M  V30 1476 N 153.895 -1.94973 5.46778 0
M  V30 1477 H 156.66 1.11017 2.7838 0
M  V30 1478 H 154.221 0.732458 1.44384 0
M  V30 1479 H 156.213 -1.1748 3.87273 0
M  V30 1480 H 154.783 -1.34146 2.82354 0
M  V30 1481 H 154.003 0.931165 3.83044 0
M  V30 1482 H 155.291 0.742579 5.03352 0
M  V30 1483 H 154.689 -2.4378 5.10478 0
M  V30 1484 H 153.246 -2.45713 6.03712 0
M  V30 1485 N 156.679 -1.44442 0.630414 0
M  V30 1486 C 158.09 -1.85434 0.217063 0
M  V30 1487 C 158.441 -1.52748 -1.23136 0
M  V30 1488 O 157.566 -0.965205 -1.93682 0
M  V30 1489 C 158.161 -3.36581 0.387168 0
M  V30 1490 C 156.72 -3.76389 0.0283297 0
M  V30 1491 C 155.867 -2.68296 0.700889 0
M  V30 1492 H 158.818 -1.34919 0.83562 0
M  V30 1493 H 158.839 -3.78657 -0.374086 0
M  V30 1494 H 158.351 -3.60339 1.44144 0
M  V30 1495 H 156.452 -3.58246 -1.02423 0
M  V30 1496 H 156.565 -4.77095 0.437892 0
M  V30 1497 H 154.929 -2.54335 0.136267 0
M  V30 1498 H 155.712 -2.94887 1.75774 0
M  V30 1499 N 158.157 -0.370918 -1.53173 0
M  V30 1500 C 159.105 0.488101 -2.27421 0
M  V30 1501 C 160.099 1.07884 -1.30604 0
M  V30 1502 O 161.305 1.02143 -1.48212 0
M  V30 1503 H 157.68 0.176134 -0.731082 0
M  V30 1504 H 159.651 -0.159815 -2.97972 0
M  V30 1505 C 158.4 1.61306 -3.08019 0
M  V30 1506 H 157.723 1.1678 -3.82364 0
M  V30 1507 H 159.163 2.18872 -3.63141 0
M  V30 1508 C 157.622 2.55848 -2.19188 0
M  V30 1509 O 158.152 3.58799 -1.80626 0
M  V30 1510 N 156.358 2.2516 -1.83715 0
M  V30 1511 H 155.905 1.41476 -2.15273 0
M  V30 1512 H 155.863 2.8867 -1.24567 0
M  V30 1513 N 159.635 1.57281 -0.100228 0
M  V30 1514 C 160.86 1.99302 0.573881 0
M  V30 1515 C 161.285 0.979059 1.60611 0
M  V30 1516 O 160.643 -0.0517803 1.81226 0
M  V30 1517 C 160.691 3.40274 1.19358 0
M  V30 1518 O 159.795 3.41676 2.30935 0
M  V30 1519 H 159.136 0.647944 0.145138 0
M  V30 1520 H 161.666 2.03779 -0.183156 0
M  V30 1521 H 161.676 3.78078 1.53365 0
M  V30 1522 H 160.351 4.13594 0.437385 0
M  V30 1523 H 158.928 3.15672 1.98509 0
M  V30 1524 N 161.113 -0.173488 1.56642 0
M  V30 1525 C 162.076 -1.19859 1.95362 0
M  V30 1526 C 163.076 -1.37296 0.83704 0
M  V30 1527 O 164.266 -1.34739 1.10413 0
M  V30 1528 C 161.398 -2.56405 2.24654 0
M  V30 1529 H 162.591 -0.867062 2.87092 0
M  V30 1530 H 160.144 -0.415853 1.50666 0
M  V30 1531 H 160.879 -2.94576 1.35631 0
M  V30 1532 H 160.664 -2.45115 3.06041 0
M  V30 1533 H 162.154 -3.30287 2.5554 0
M  V30 1534 N 162.591 -1.51276 -0.441967 0
M  V30 1535 C 163.539 -1.72823 -1.55676 0
M  V30 1536 C 164.533 -0.59445 -1.58627 0
M  V30 1537 O 165.739 -0.775715 -1.62427 0
M  V30 1538 H 162.114 -0.545983 -0.517113 0
M  V30 1539 H 164.085 -2.6628 -1.34675 0
M  V30 1540 C 162.834 -1.86619 -2.93375 0
M  V30 1541 H 162.157 -2.73264 -2.91834 0
M  V30 1542 H 163.597 -2.05709 -3.70756 0
M  V30 1543 C 162.056 -0.624842 -3.31055 0
M  V30 1544 O 162.586 0.222636 -4.01083 0
M  V30 1545 N 160.792 -0.470288 -2.86769 0
M  V30 1546 H 160.339 -1.161 -2.29953 0
M  V30 1547 H 160.297 0.359051 -3.12343 0
M  V30 1548 N 164.069 0.697108 -1.41344 0
M  V30 1549 C 165.002 1.82134 -1.37486 0
M  V30 1550 C 165.98 1.60784 -0.242351 0
M  V30 1551 O 167.164 1.83553 -0.429012 0
M  V30 1552 C 164.291 3.18788 -1.14421 0
M  V30 1553 C 163.337 3.58932 -2.3037 0
M  V30 1554 S 164.17 3.63916 -3.92843 0
M  V30 1555 C 165.326 5.03298 -3.72078 0
M  V30 1556 H 165.559 1.85129 -2.32625 0
M  V30 1557 H 163.092 0.865671 -1.2785 0
M  V30 1558 H 165.05 3.97677 -1.018 0
M  V30 1559 H 163.711 3.13404 -0.20905 0
M  V30 1560 H 162.904 4.58202 -2.09922 0
M  V30 1561 H 162.506 2.87347 -2.39391 0
M  V30 1562 H 164.798 5.90753 -3.31688 0
M  V30 1563 H 165.741 5.28788 -4.70945 0
M  V30 1564 H 166.149 4.74764 -3.05384 0
M  V30 1565 N 165.547 1.27147 0.931209 0
M  V30 1566 C 166.51 1.09615 2.01289 0
M  V30 1567 C 167.51 0.0412581 1.60747 0
M  V30 1568 O 168.7 0.285545 1.71844 0
M  V30 1569 C 165.832 0.669447 3.34262 0
M  V30 1570 H 167.025 2.05662 2.18273 0
M  V30 1571 H 164.578 1.09885 1.11153 0
M  V30 1572 H 165.313 -0.292572 3.22978 0
M  V30 1573 H 165.098 1.43127 3.65044 0
M  V30 1574 H 166.588 0.568921 4.13706 0
M  V30 1575 N 167.025 -1.13721 1.09112 0
M  V30 1576 C 168.25 -1.89314 0.847053 0
M  V30 1577 C 168.675 -1.78416 -0.595774 0
M  V30 1578 O 168.033 -1.12942 -1.41823 0
M  V30 1579 C 168.081 -3.3701 1.28284 0
M  V30 1580 O 167.185 -4.10054 0.439267 0
M  V30 1581 H 166.526 -0.588745 0.307044 0
M  V30 1582 H 169.056 -1.43902 1.45442 0
M  V30 1583 H 169.066 -3.87834 1.26683 0
M  V30 1584 H 167.741 -3.4426 2.33363 0
M  V30 1585 H 166.318 -3.69266 0.519312 0
M  V30 1586 N 168.503 -0.877838 -1.30888 0
M  V30 1587 C 169.433 -0.35534 -2.3078 0
M  V30 1588 C 170.414 0.557994 -1.60687 0
M  V30 1589 O 171.599 0.473355 -1.88343 0
M  V30 1590 C 168.729 0.437221 -3.44537 0
M  V30 1591 C 167.683 -0.383715 -4.26276 0
M  V30 1592 C 167.009 0.535014 -5.32017 0
M  V30 1593 C 168.309 -1.62201 -4.96476 0
M  V30 1594 H 170.003 -1.19007 -2.74732 0
M  V30 1595 H 167.549 -0.573698 -1.32078 0
M  V30 1596 H 169.502 0.813334 -4.13477 0
M  V30 1597 H 168.226 1.30553 -2.99372 0
M  V30 1598 H 166.885 -0.741874 -3.59015 0
M  V30 1599 H 166.533 1.40083 -4.831 0
M  V30 1600 H 166.233 -0.0104211 -5.87599 0
M  V30 1601 H 167.757 0.907799 -6.03814 0
M  V30 1602 H 169.171 -1.31689 -5.5797 0
M  V30 1603 H 167.568 -2.10711 -5.61891 0
M  V30 1604 H 168.638 -2.37044 -4.23011 0
M  V30 1605 N 169.982 1.44106 -0.638065 0
M  V30 1606 C 171.207 2.0685 -0.150916 0
M  V30 1607 C 171.632 1.47417 1.16833 0
M  V30 1608 O 170.99 0.578264 1.71831 0
M  V30 1609 C 171.038 3.60555 -0.05708 0
M  V30 1610 O 170.142 4.00465 0.984972 0
M  V30 1611 H 169.483 0.658151 -0.0879399 0
M  V30 1612 H 172.013 1.84865 -0.876707 0
M  V30 1613 H 172.023 4.07789 0.131232 0
M  V30 1614 H 170.698 4.03193 -1.02021 0
M  V30 1615 H 169.275 3.64849 0.770672 0
M  V30 1616 N 171.46 0.379036 1.52974 0
M  V30 1617 C 172.423 -0.448865 2.24762 0
M  V30 1618 C 173.423 -0.998689 1.26027 0
M  V30 1619 O 174.613 -0.882313 1.50203 0
M  V30 1620 C 171.745 -1.62872 2.99476 0
M  V30 1621 H 172.938 0.179491 2.99362 0
M  V30 1622 H 170.491 0.13096 1.5575 0
M  V30 1623 H 171.226 -2.29479 2.29151 0
M  V30 1624 H 171.011 -1.24128 3.71934 0
M  V30 1625 H 172.501 -2.2151 3.5401 0
M  V30 1626 N 172.938 -1.57226 0.108567 0
M  V30 1627 C 173.871 -2.10447 -0.882464 0
M  V30 1628 C 174.849 -1.01829 -1.26766 0
M  V30 1629 O 176.033 -1.29415 -1.37054 0
M  V30 1630 C 173.16 -2.59258 -2.17952 0
M  V30 1631 C 172.206 -3.79662 -1.94318 0
M  V30 1632 S 173.039 -5.22586 -1.16892 0
M  V30 1633 C 174.195 -5.74758 -2.47799 0
M  V30 1634 H 174.428 -2.94178 -0.429745 0
M  V30 1635 H 171.961 -1.54043 -0.105 0
M  V30 1636 H 173.919 -2.88036 -2.92482 0
M  V30 1637 H 172.58 -1.75728 -2.60343 0
M  V30 1638 H 171.773 -4.11928 -2.90399 0
M  V30 1639 H 171.375 -3.51446 -1.27913 0
M  V30 1640 H 173.667 -5.83846 -3.43701 0
M  V30 1641 H 174.61 -6.73027 -2.20093 0
M  V30 1642 H 175.018 -5.02763 -2.56689 0
M  V30 1643 N 174.416 0.165178 -1.56732 0
M  V30 1644 C 175.664 0.879068 -1.8198 0
M  V30 1645 C 175.985 1.82514 -0.686561 0
M  V30 1646 O 175.255 1.93694 0.293146 0
M  V30 1647 H 173.835 0.327608 -0.671329 0
M  V30 1648 H 176.497 0.163526 -1.94213 0
M  V30 1649 H 175.593 1.45228 -2.76252 0
M  V30 1650 N 175.894 1.51508 0.433938 0
M  V30 1651 C 176.841 1.73068 1.52696 0
M  V30 1652 C 177.811 0.572441 1.55924 0
M  V30 1653 O 178.996 0.807253 1.72882 0
M  V30 1654 C 176.136 1.86474 2.90381 0
M  V30 1655 C 175.249 3.14037 2.96656 0
M  V30 1656 C 174.384 3.18019 4.25485 0
M  V30 1657 C 173.423 4.39882 4.2564 0
M  V30 1658 N 172.56 4.41394 5.45999 0
M  V30 1659 H 177.4 2.66366 1.33615 0
M  V30 1660 H 174.937 1.32008 0.649018 0
M  V30 1661 H 176.895 1.92229 3.70275 0
M  V30 1662 H 175.525 0.965809 3.08013 0
M  V30 1663 H 174.577 3.17575 2.09404 0
M  V30 1664 H 175.889 4.0394 2.92633 0
M  V30 1665 H 175.043 3.22708 5.13755 0
M  V30 1666 H 173.782 2.2601 4.3217 0
M  V30 1667 H 172.787 4.35366 3.35763 0
M  V30 1668 H 174.012 5.33159 4.20617 0
M  V30 1669 H 171.958 3.52258 5.53399 0
M  V30 1670 H 171.875 5.25111 5.4387 0
M  V30 1671 H 173.143 4.50281 6.36292 0
M  V30 1672 N 177.372 -0.689602 1.41712 0
M  V30 1673 C 178.597 -1.48329 1.44959 0
M  V30 1674 C 179.022 -1.8801 0.0581283 0
M  V30 1675 O 178.38 -1.55026 -0.940035 0
M  V30 1676 C 178.428 -2.71835 2.36935 0
M  V30 1677 O 177.532 -3.69549 1.8305 0
M  V30 1678 H 176.873 -0.446199 0.491734 0
M  V30 1679 H 179.403 -0.847127 1.86239 0
M  V30 1680 H 179.413 -3.20076 2.53013 0
M  V30 1681 H 178.088 -2.42291 3.38035 0
M  V30 1682 H 176.665 -3.2851 1.76452 0
M  V30 1683 N 178.85 -1.27639 -0.924453 0
M  V30 1684 C 180.261 -1.12834 -1.48746 0
M  V30 1685 C 180.612 0.285505 -1.94112 0
M  V30 1686 O 179.737 1.17874 -1.81479 0
M  V30 1687 C 180.332 -2.04217 -2.70334 0
M  V30 1688 C 178.891 -1.93509 -3.22848 0
M  V30 1689 C 178.038 -1.96583 -1.95577 0
M  V30 1690 H 180.989 -1.40484 -0.738233 0
M  V30 1691 H 181.01 -1.59989 -3.4523 0
M  V30 1692 H 180.522 -3.07111 -2.37285 0
M  V30 1693 H 178.623 -0.936131 -3.60649 0
M  V30 1694 H 178.736 -2.79917 -3.88823 0
M  V30 1695 H 177.1 -1.4085 -2.12211 0
M  V30 1696 H 177.883 -3.01137 -1.64837 0
M  V30 1697 N 180.328 1.1314 -1.09713 0
M  V30 1698 C 181.258 2.20748 -0.761102 0
M  V30 1699 C 182.239 1.68061 0.262566 0
M  V30 1700 O 183.424 1.93765 0.129977 0
M  V30 1701 C 180.554 3.46812 -0.184054 0
M  V30 1702 C 179.508 4.12606 -1.13757 0
M  V30 1703 C 178.834 5.33031 -0.422083 0
M  V30 1704 C 180.134 4.59603 -2.48118 0
M  V30 1705 H 181.828 2.49113 -1.66082 0
M  V30 1706 H 179.374 1.19734 -0.799987 0
M  V30 1707 H 181.327 4.21353 0.0631215 0
M  V30 1708 H 180.051 3.17851 0.750868 0
M  V30 1709 H 178.71 3.40036 -1.37007 0
M  V30 1710 H 178.358 5.00335 0.517072 0
M  V30 1711 H 178.058 5.77999 -1.05788 0
M  V30 1712 H 179.582 6.10325 -0.183277 0
M  V30 1713 H 180.996 5.25552 -2.29059 0
M  V30 1714 H 179.393 5.15321 -3.07514 0
M  V30 1715 H 180.463 3.73971 -3.08665 0
M  V30 1716 N 181.806 0.884767 1.30421 0
M  V30 1717 C 183.031 0.517288 2.00845 0
M  V30 1718 C 183.456 -0.886779 1.65885 0
M  V30 1719 O 182.814 -1.58768 0.875354 0
M  V30 1720 C 182.862 0.698994 3.5376 0
M  V30 1721 O 181.966 -0.255208 4.1161 0
M  V30 1722 H 181.307 0.203872 0.631927 0
M  V30 1723 H 183.837 1.19225 1.66272 0
M  V30 1724 H 183.847 0.597912 4.03595 0
M  V30 1725 H 182.522 1.72271 3.78544 0
M  V30 1726 H 181.099 -0.10784 3.72744 0
M  V30 1727 N 183.284 -1.43765 0.645699 0
M  V30 1728 C 184.216 -2.29027 -0.0890605 0
M  V30 1729 C 185.229 -1.42093 -0.794563 0
M  V30 1730 O 186.418 -1.66104 -0.653575 0
M  V30 1731 C 183.518 -3.18831 -1.14891 0
M  V30 1732 C 182.691 -4.34261 -0.523043 0
M  V30 1733 C 181.75 -5.04994 -1.47878 0
M  V30 1734 O 180.776 -5.6052 -0.990277 0
M  V30 1735 N 181.978 -5.07795 -2.81291 0
M  V30 1736 H 184.743 -2.92727 0.64272 0
M  V30 1737 H 182.304 -1.54373 0.487924 0
M  V30 1738 H 184.296 -3.63015 -1.78892 0
M  V30 1739 H 182.866 -2.56782 -1.78275 0
M  V30 1740 H 182.086 -3.93088 0.295896 0
M  V30 1741 H 183.374 -5.08728 -0.0858147 0
M  V30 1742 H 182.772 -4.64042 -3.23546 0
M  V30 1743 H 181.329 -5.55721 -3.40614 0
M  V30 1744 N 184.763 -0.387143 -1.52771 0
M  V30 1745 C 186.011 0.195349 -2.01154 0
M  V30 1746 C 186.332 1.475 -1.27549 0
M  V30 1747 O 185.602 1.91878 -0.394924 0
M  V30 1748 H 184.182 0.075178 -0.743207 0
M  V30 1749 H 186.844 -0.518337 -1.87881 0
M  V30 1750 H 185.94 0.407096 -3.09434 0
M  V30 1751 N 186.241 1.57166 -0.116904 0
M  V30 1752 C 187.518 1.86645 0.585049 0
M  V30 1753 C 187.898 1.0177 1.84949 0
M  V30 1754 O 187.246 0.0960379 2.28298 0
M  V30 1755 C 187.456 3.37736 0.879507 0
M  V30 1756 C 188.804 4.06289 1.23348 0
M  V30 1757 O 189.828 3.42743 0.969836 0
M  V30 1758 O 188.687 5.18455 1.7282 0
M  V30 1759 H 185.781 0.772593 0.295007 0
M  V30 1760 H 188.327 1.69025 -0.151249 0
M  V30 1761 H 187.099 3.91296 -0.0166136 0
M  V30 1762 H 186.722 3.6078 1.67103 0
M  V30 1763 N 187.719 -0.156864 1.56817 0
M  V30 1764 C 188.944 -0.890331 1.87318 0
M  V30 1765 C 189.369 -1.74394 0.704855 0
M  V30 1766 O 188.727 -1.77972 -0.345786 0
M  V30 1767 C 188.775 -1.73102 3.16336 0
M  V30 1768 O 187.879 -2.83422 2.99576 0
M  V30 1769 H 187.22 -0.24857 0.615718 0
M  V30 1770 H 189.75 -0.150649 2.04045 0
M  V30 1771 H 189.76 -2.12803 3.48107 0
M  V30 1772 H 188.435 -1.10412 4.00976 0
M  V30 1773 H 187.012 -2.47199 2.7919 0
M  V30 1774 N 189.197 -1.51736 -0.425897 0
M  V30 1775 C 190.422 -1.69082 -1.20108 0
M  V30 1776 C 190.847 -0.392398 -1.83962 0
M  V30 1777 O 190.205 0.64858 -1.69302 0
M  V30 1778 C 190.253 -2.81604 -2.25237 0
M  V30 1779 O 189.357 -2.46004 -3.30992 0
M  V30 1780 H 188.698 -0.563408 -0.35138 0
M  V30 1781 H 191.228 -1.98358 -0.501512 0
M  V30 1782 H 191.238 -3.06025 -2.69838 0
M  V30 1783 H 189.913 -3.75817 -1.78142 0
M  V30 1784 H 188.49 -2.32195 -2.91787 0
M  V30 1785 N 190.675 0.682077 -1.42076 0
M  V30 1786 C 191.638 1.77756 -1.44691 0
M  V30 1787 C 192.638 1.5726 -0.335535 0
M  V30 1788 O 193.828 1.63686 -0.596037 0
M  V30 1789 C 190.96 3.16301 -1.27146 0
M  V30 1790 H 192.153 1.76826 -2.42224 0
M  V30 1791 H 189.706 0.891012 -1.28416 0
M  V30 1792 H 190.441 3.22862 -0.305075 0
M  V30 1793 H 190.226 3.32581 -2.07683 0
M  V30 1794 H 191.716 3.96241 -1.31843 0
M  V30 1795 N 192.153 1.28127 0.917671 0
M  V30 1796 C 193.564 1.13622 1.48145 0
M  V30 1797 C 193.915 -0.275207 1.9426 0
M  V30 1798 O 193.04 -1.1691 1.82102 0
M  V30 1799 C 193.635 2.05648 2.69248 0
M  V30 1800 C 192.194 1.95219 3.21818 0
M  V30 1801 C 191.341 1.97618 1.94532 0
M  V30 1802 H 194.292 1.40874 0.730772 0
M  V30 1803 H 194.313 1.61818 3.44377 0
M  V30 1804 H 193.825 3.08365 2.35653 0
M  V30 1805 H 191.926 0.955244 3.60147 0
M  V30 1806 H 192.039 2.81976 3.87333 0
M  V30 1807 H 190.403 1.41973 2.11461 0
M  V30 1808 H 191.186 3.02007 1.63238 0
M  V30 1809 N 193.631 -1.12557 1.10312 0
M  V30 1810 C 194.856 -1.88405 0.867085 0
M  V30 1811 C 195.281 -1.79038 -0.576817 0
M  V30 1812 O 194.639 -1.14439 -1.40618 0
M  V30 1813 C 194.687 -3.3563 1.31851 0
M  V30 1814 O 193.791 -4.09565 0.482734 0
M  V30 1815 H 193.132 -0.585455 0.313271 0
M  V30 1816 H 195.662 -1.42352 1.4696 0
M  V30 1817 H 195.672 -3.86469 1.3079 0
M  V30 1818 H 194.347 -3.41765 2.37001 0
M  V30 1819 H 192.924 -3.68695 0.558448 0
M  V30 1820 N 195.109 -0.891671 -1.2995 0
M  V30 1821 C 196.039 -0.379797 -2.30391 0
M  V30 1822 C 197.02 0.540919 -1.6127 0
M  V30 1823 O 198.205 0.453352 -1.88834 0
M  V30 1824 C 195.335 0.400654 -3.44981 0
M  V30 1825 C 194.289 -0.428905 -4.25846 0
M  V30 1826 C 193.615 0.478557 -5.32554 0
M  V30 1827 C 194.915 -1.67458 -4.94727 0
M  V30 1828 H 196.609 -1.21914 -2.73454 0
M  V30 1829 H 194.155 -0.587675 -1.31462 0
M  V30 1830 H 196.108 0.769434 -4.14316 0
M  V30 1831 H 194.832 1.27371 -3.0074 0
M  V30 1832 H 193.491 -0.779911 -3.58208 0
M  V30 1833 H 193.139 1.34951 -4.84559 0
M  V30 1834 H 192.839 -0.0727433 -5.87555 0
M  V30 1835 H 194.363 0.843705 -6.04743 0
M  V30 1836 H 195.777 -1.376 -5.56542 0
M  V30 1837 H 194.174 -2.16659 -5.59624 0
M  V30 1838 H 195.244 -2.41518 -4.20473 0
M  V30 1839 N 196.587 1.43421 -0.653314 0
M  V30 1840 C 197.998 1.85065 -0.246537 0
M  V30 1841 C 198.349 1.54688 1.2069 0
M  V30 1842 O 197.474 0.995896 1.92122 0
M  V30 1843 C 198.069 3.35922 -0.440666 0
M  V30 1844 C 196.628 3.76297 -0.0882064 0
M  V30 1845 C 195.775 2.67147 -0.743484 0
M  V30 1846 H 198.726 1.33572 -0.856979 0
M  V30 1847 H 198.747 3.79204 0.313798 0
M  V30 1848 H 198.259 3.58 -1.49858 0
M  V30 1849 H 196.36 3.5983 0.96711 0
M  V30 1850 H 196.473 4.76338 -0.513738 0
M  V30 1851 H 194.837 2.54086 -0.176712 0
M  V30 1852 H 195.62 2.92053 -1.80443 0
M  V30 1853 N 198.065 0.39524 1.52563 0
M  V30 1854 C 199.012 -0.437036 2.26624 0
M  V30 1855 C 199.982 -1.05281 1.28472 0
M  V30 1856 O 201.167 -1.07971 1.57311 0
M  V30 1857 C 198.307 -1.55524 3.08069 0
M  V30 1858 C 197.42 -0.961745 4.21158 0
M  V30 1859 C 196.555 -2.05149 4.89987 0
M  V30 1860 C 195.594 -1.4342 5.95061 0
M  V30 1861 N 194.731 -2.46351 6.57462 0
M  V30 1862 H 199.571 0.200976 2.97322 0
M  V30 1863 H 197.108 0.110944 1.46681 0
M  V30 1864 H 199.066 -2.21437 3.53584 0
M  V30 1865 H 197.696 -2.16348 2.3957 0
M  V30 1866 H 196.748 -0.192048 3.79915 0
M  V30 1867 H 198.06 -0.470701 4.96574 0
M  V30 1868 H 197.214 -2.78819 5.38837 0
M  V30 1869 H 195.953 -2.57615 4.14109 0
M  V30 1870 H 194.958 -0.682774 5.45544 0
M  V30 1871 H 196.183 -0.917416 6.72875 0
M  V30 1872 H 194.129 -2.97975 5.8442 0
M  V30 1873 H 194.046 -2.02019 7.28508 0
M  V30 1874 H 195.314 -3.19633 7.10954 0
M  V30 1875 N 199.544 -1.57102 0.125237 0
M  V30 1876 C 200.476 -2.12726 -0.853237 0
M  V30 1877 C 201.489 -1.07145 -1.22571 0
M  V30 1878 O 202.678 -1.34497 -1.17358 0
M  V30 1879 C 199.778 -2.61709 -2.15317 0
M  V30 1880 C 198.951 -3.91456 -1.95143 0
M  V30 1881 C 198.01 -4.25973 -3.08923 0
M  V30 1882 O 197.036 -4.94682 -2.81564 0
M  V30 1883 N 198.238 -3.83795 -4.35524 0
M  V30 1884 H 201.003 -2.97307 -0.377964 0
M  V30 1885 H 198.564 -1.61792 -0.0590011 0
M  V30 1886 H 200.556 -2.81826 -2.90441 0
M  V30 1887 H 199.126 -1.81974 -2.54174 0
M  V30 1888 H 198.346 -3.80185 -1.04177 0
M  V30 1889 H 199.634 -4.76283 -1.78976 0
M  V30 1890 H 199.032 -3.2839 -4.60626 0
M  V30 1891 H 197.589 -4.09008 -5.07499 0
M  V30 1892 N 201.022 0.148545 -1.56898 0
M  V30 1893 C 201.985 1.16736 -1.97244 0
M  V30 1894 C 202.985 1.35947 -0.858777 0
M  V30 1895 O 204.175 1.32966 -1.12542 0
M  V30 1896 C 201.307 2.52798 -2.28705 0
M  V30 1897 H 202.5 0.821279 -2.88435 0
M  V30 1898 H 200.053 0.391831 -1.51309 0
M  V30 1899 H 200.788 2.92381 -1.403 0
M  V30 1900 H 200.573 2.40216 -3.09901 0
M  V30 1901 H 202.063 3.26179 -2.60762 0
M  V30 1902 N 202.5 1.5196 0.417844 0
M  V30 1903 C 203.463 1.74065 1.49111 0
M  V30 1904 C 204.463 0.610537 1.48758 0
M  V30 1905 O 205.653 0.87832 1.50437 0
M  V30 1906 C 202.785 1.81502 2.88565 0
M  V30 1907 H 203.978 2.69869 1.30807 0
M  V30 1908 H 201.531 1.42244 0.647785 0
M  V30 1909 H 202.266 0.875813 3.1225 0
M  V30 1910 H 202.051 2.63651 2.90225 0
M  V30 1911 H 203.541 2.00376 3.66387 0
M  V30 1912 N 203.978 -0.674533 1.42435 0
M  V30 1913 C 205.203 -1.46784 1.46524 0
M  V30 1914 C 205.628 -1.87938 0.078066 0
M  V30 1915 O 204.986 -1.56014 -0.92354 0
M  V30 1916 C 205.034 -2.69307 2.39805 0
M  V30 1917 O 204.138 -3.67587 1.86959 0
M  V30 1918 H 203.479 -0.440959 0.496439 0
M  V30 1919 H 206.009 -0.827326 1.87127 0
M  V30 1920 H 206.019 -3.17374 2.56393 0
M  V30 1921 H 204.694 -2.38692 3.40586 0
M  V30 1922 H 203.271 -3.2662 1.79927 0
M  V30 1923 N 205.456 -1.28612 -0.910864 0
M  V30 1924 C 206.684 -1.18792 -1.69399 0
M  V30 1925 C 207.099 0.253039 -1.87097 0
M  V30 1926 O 206.456 1.17071 -1.40003 0
M  V30 1927 C 206.507 -1.88511 -3.08457 0
M  V30 1928 O 206.228 -3.26979 -2.91576 0
M  V30 1929 C 207.729 -1.85029 -4.02839 0
M  V30 1930 H 204.949 -0.412233 -0.529438 0
M  V30 1931 H 207.493 -1.69788 -1.13984 0
M  V30 1932 H 205.648 -1.41379 -3.60681 0
M  V30 1933 H 206.062 -3.61936 -3.79608 0
M  V30 1934 H 207.536 -2.38395 -4.97867 0
M  V30 1935 H 208.013 -0.823303 -4.31414 0
M  V30 1936 H 208.619 -2.31853 -3.56545 0
M  V30 1937 N 206.934 1.1197 -1.10907 0
M  V30 1938 C 208.159 1.87942 -0.877064 0
M  V30 1939 C 208.584 1.79341 0.567314 0
M  V30 1940 O 207.942 1.15184 1.40009 0
M  V30 1941 C 207.99 3.34926 -1.33629 0
M  V30 1942 O 207.094 4.09303 -0.504447 0
M  V30 1943 H 206.435 0.583785 -0.316371 0
M  V30 1944 H 208.965 1.4157 -1.47712 0
M  V30 1945 H 208.975 3.8577 -1.32837 0
M  V30 1946 H 207.65 3.40504 -2.3881 0
M  V30 1947 H 206.227 3.68393 -0.577993 0
M  V30 1948 N 208.412 0.89855 1.29475 0
M  V30 1949 C 209.66 0.522847 1.9522 0
M  V30 1950 C 209.981 -0.93371 1.71192 0
M  V30 1951 O 209.251 -1.65823 1.04305 0
M  V30 1952 H 207.831 0.190366 0.722336 0
M  V30 1953 H 210.493 1.14459 1.5775 0
M  V30 1954 H 209.589 0.704476 3.04045 0
M  V30 1955 N 209.89 -1.43072 0.660911 0
M  V30 1956 C 211.301 -1.84932 0.256348 0
M  V30 1957 C 211.652 -1.55325 -1.19868 0
M  V30 1958 O 210.777 -1.00607 -1.91591 0
M  V30 1959 C 211.372 -3.35684 0.458475 0
M  V30 1960 C 209.931 -3.76245 0.108161 0
M  V30 1961 C 209.078 -2.66749 0.757641 0
M  V30 1962 H 212.029 -1.33116 0.864051 0
M  V30 1963 H 212.05 -3.79365 -0.293683 0
M  V30 1964 H 211.562 -3.572 1.51755 0
M  V30 1965 H 209.663 -3.60338 -0.948014 0
M  V30 1966 H 209.776 -4.76058 0.538992 0
M  V30 1967 H 208.14 -2.53989 0.190185 0
M  V30 1968 H 208.923 -2.91092 1.81989 0
M  V30 1969 N 211.368 -0.403325 -1.52352 0
M  V30 1970 C 212.596 0.174012 -2.06167 0
M  V30 1971 C 213.011 1.39347 -1.27388 0
M  V30 1972 O 212.368 1.79597 -0.324201 0
M  V30 1973 C 212.419 0.530223 -3.5759 0
M  V30 1974 O 212.14 -0.640806 -4.33388 0
M  V30 1975 C 213.641 1.16192 -4.27802 0
M  V30 1976 H 210.861 0.0229464 -0.670608 0
M  V30 1977 H 213.405 -0.572604 -1.9632 0
M  V30 1978 H 211.56 1.22673 -3.67464 0
M  V30 1979 H 211.974 -0.344851 -5.23365 0
M  V30 1980 H 213.448 1.36141 -5.34948 0
M  V30 1981 H 213.925 2.13335 -3.83907 0
M  V30 1982 H 214.531 0.505775 -4.22282 0
M  V30 1983 N 212.846 1.57033 -0.133567 0
M  V30 1984 C 214.257 1.82593 0.389464 0
M  V30 1985 C 214.608 1.05156 1.6564 0
M  V30 1986 O 213.733 0.292644 2.14412 0
M  V30 1987 C 214.328 3.31204 0.713377 0
M  V30 1988 C 212.887 3.57393 1.18098 0
M  V30 1989 C 212.034 2.76598 0.197126 0
M  V30 1990 H 214.985 1.54598 -0.358481 0
M  V30 1991 H 215.006 3.46627 1.56939 0
M  V30 1992 H 214.518 3.87537 -0.2089 0
M  V30 1993 H 212.619 3.06433 2.11966 0
M  V30 1994 H 212.732 4.65915 1.11624 0
M  V30 1995 H 211.096 2.45257 0.687088 0
M  V30 1996 H 211.879 3.35697 -0.718504 0
M  V30 1997 N 214.325 -0.140222 1.56975 0
M  V30 1998 C 215.288 -1.15689 1.97861 0
M  V30 1999 C 216.288 -1.3549 0.865974 0
M  V30 2000 O 217.478 -1.32367 1.13246 0
M  V30 2001 C 214.61 -2.51582 2.30042 0
M  V30 2002 H 215.803 -0.805971 2.88867 0
M  V30 2003 H 213.356 -0.383801 1.51515 0
M  V30 2004 H 214.091 -2.91632 1.41849 0
M  V30 2005 H 213.876 -2.38569 3.11171 0
M  V30 2006 H 215.366 -3.24792 2.62488 0
M  V30 2007 N 215.803 -1.52179 -0.40978 0
M  V30 2008 C 216.766 -1.74853 -1.48186 0
M  V30 2009 C 217.766 -0.618417 -1.48433 0
M  V30 2010 O 218.956 -0.886286 -1.49969 0
M  V30 2011 C 216.088 -1.8303 -2.87598 0
M  V30 2012 H 217.281 -2.70559 -1.29374 0
M  V30 2013 H 214.834 -1.42586 -0.640233 0
M  V30 2014 H 215.569 -0.89236 -3.11781 0
M  V30 2015 H 215.354 -2.65187 -2.88822 0
M  V30 2016 H 216.844 -2.02316 -3.65319 0
M  V30 2017 N 217.281 0.66697 -1.42791 0
M  V30 2018 C 218.506 1.46004 -1.47301 0
M  V30 2019 C 218.931 1.87894 -0.0880317 0
M  V30 2020 O 218.289 1.56502 0.915253 0
M  V30 2021 C 218.337 2.68031 -2.41229 0
M  V30 2022 O 217.441 3.6659 -1.88906 0
M  V30 2023 H 216.782 0.43832 -0.49877 0
M  V30 2024 H 219.312 0.817391 -1.87563 0
M  V30 2025 H 219.322 3.1601 -2.58073 0
M  V30 2026 H 217.997 2.36883 -3.41847 0
M  V30 2027 H 216.574 3.25661 -1.81656 0
M  V30 2028 N 218.759 1.29093 0.90403 0
M  V30 2029 C 219.691 1.09658 2.01266 0
M  V30 2030 C 220.704 0.0453729 1.62737 0
M  V30 2031 O 221.893 0.289446 1.76138 0
M  V30 2032 C 218.993 0.646278 3.32681 0
M  V30 2033 C 218.166 1.77505 3.99763 0
M  V30 2034 C 217.225 1.31649 5.09465 0
M  V30 2035 O 216.251 2.02045 5.32134 0
M  V30 2036 N 217.453 0.184997 5.80205 0
M  V30 2037 H 220.218 2.05135 2.18494 0
M  V30 2038 H 217.779 1.20975 1.07594 0
M  V30 2039 H 219.771 0.322906 4.0341 0
M  V30 2040 H 218.341 -0.215916 3.11853 0
M  V30 2041 H 217.561 2.26752 3.22455 0
M  V30 2042 H 218.849 2.53198 4.41325 0
M  V30 2043 H 218.247 -0.402021 5.6427 0
M  V30 2044 H 216.804 -0.0790358 6.51752 0
M  V30 2045 N 220.237 -1.11381 1.11499 0
M  V30 2046 C 221.2 -2.15622 0.777153 0
M  V30 2047 C 222.2 -1.59504 -0.203779 0
M  V30 2048 O 223.39 -1.74188 0.020782 0
M  V30 2049 C 220.522 -3.40556 0.153116 0
M  V30 2050 H 221.715 -2.47021 1.70061 0
M  V30 2051 H 219.268 -1.26577 0.916952 0
M  V30 2052 H 220.003 -3.14767 -0.780536 0
M  V30 2053 H 219.788 -3.8257 0.859238 0
M  V30 2054 H 221.278 -4.17546 -0.0671044 0
M  V30 2055 N 221.715 -0.905404 -1.28997 0
M  V30 2056 C 222.645 -0.404212 -2.29975 0
M  V30 2057 C 223.626 0.523784 -1.61835 0
M  V30 2058 O 224.811 0.433298 -1.89304 0
M  V30 2059 C 221.941 0.364042 -3.45387 0
M  V30 2060 C 220.895 -0.474048 -4.25367 0
M  V30 2061 C 220.221 0.422045 -5.33032 0
M  V30 2062 C 221.521 -1.72696 -4.92923 0
M  V30 2063 H 223.215 -1.24807 -2.72146 0
M  V30 2064 H 220.761 -0.601585 -1.30832 0
M  V30 2065 H 222.714 0.725447 -4.15109 0
M  V30 2066 H 221.438 1.24174 -3.02074 0
M  V30 2067 H 220.097 -0.81786 -3.57361 0
M  V30 2068 H 219.745 1.29804 -4.85963 0
M  V30 2069 H 219.445 -0.135057 -5.87445 0
M  V30 2070 H 220.969 0.779517 -6.05604 0
M  V30 2071 H 222.383 -1.43495 -5.55051 0
M  V30 2072 H 220.78 -2.22582 -5.57295 0
M  V30 2073 H 221.85 -2.45964 -4.17887 0
M  V30 2074 N 223.193 1.4272 -0.668489 0
M  V30 2075 C 224.141 2.32586 0.0254857 0
M  V30 2076 C 225.135 1.49471 0.797176 0
M  V30 2077 O 226.341 1.65583 0.705853 0
M  V30 2078 H 222.716 0.751514 0.0270339 0
M  V30 2079 H 224.687 2.88823 -0.749936 0
M  V30 2080 C 223.436 3.3397 0.967427 0
M  V30 2081 H 222.759 3.97961 0.383048 0
M  V30 2082 H 224.199 3.9945 1.42181 0
M  V30 2083 C 222.658 2.65744 2.0708 0
M  V30 2084 O 223.188 2.48454 3.15648 0
M  V30 2085 N 221.394 2.2487 1.8407 0
M  V30 2086 H 220.941 2.39132 0.95778 0
M  V30 2087 H 220.899 1.79552 2.58086 0
M  V30 2088 N 224.671 0.411399 1.52136 0
M  V30 2089 C 226.082 -0.0576826 1.86611 0
M  V30 2090 C 226.433 -1.44238 1.33003 0
M  V30 2091 O 225.558 -2.05759 0.670228 0
M  V30 2092 C 226.153 -0.111448 3.38617 0
M  V30 2093 C 224.712 -0.52487 3.72723 0
M  V30 2094 C 223.859 0.299176 2.75681 0
M  V30 2095 H 226.81 0.628368 1.4573 0
M  V30 2096 H 226.831 -0.926252 3.69054 0
M  V30 2097 H 226.343 0.896488 3.77604 0
M  V30 2098 H 224.444 -1.53936 3.39315 0
M  V30 2099 H 224.557 -0.267681 4.78352 0
M  V30 2100 H 222.921 -0.238814 2.53578 0
M  V30 2101 H 223.704 1.3055 3.17508 0
M  V30 2102 N 226.149 -1.5696 0.141893 0
M  V30 2103 C 227.081 -2.13619 -0.830627 0
M  V30 2104 C 228.094 -1.08439 -1.21428 0
M  V30 2105 O 229.283 -1.35734 -1.15925 0
M  V30 2106 C 226.383 -2.63978 -2.12529 0
M  V30 2107 C 225.556 -3.93504 -1.9098 0
M  V30 2108 C 224.615 -4.29225 -3.04388 0
M  V30 2109 O 223.641 -4.97641 -2.76302 0
M  V30 2110 N 224.843 -3.88393 -4.31429 0
M  V30 2111 H 227.608 -2.97691 -0.34641 0
M  V30 2112 H 225.169 -1.61846 -0.0418375 0
M  V30 2113 H 227.161 -2.84891 -2.87436 0
M  V30 2114 H 225.731 -1.84659 -2.52229 0
M  V30 2115 H 224.951 -3.81269 -1.00139 0
M  V30 2116 H 226.239 -4.78154 -1.73914 0
M  V30 2117 H 225.637 -3.33257 -4.57117 0
M  V30 2118 H 224.194 -4.14368 -5.03133 0
M  V30 2119 N 227.627 0.131896 -1.57047 0
M  V30 2120 C 228.59 1.14638 -1.98471 0
M  V30 2121 C 229.59 1.35029 -0.873148 0
M  V30 2122 O 230.78 1.31764 -1.13946 0
M  V30 2123 C 227.912 2.50358 -2.31373 0
M  V30 2124 H 229.105 0.79064 -2.8929 0
M  V30 2125 H 226.658 0.375761 -1.51716 0
M  V30 2126 H 227.393 2.90876 -1.43393 0
M  V30 2127 H 227.178 2.36915 -3.12432 0
M  V30 2128 H 228.668 3.23395 -2.64207 0
M  V30 2129 N 229.106 1.52395 0.401703 0
M  V30 2130 C 230.038 1.72505 1.50912 0
M  V30 2131 C 231.051 0.605468 1.51122 0
M  V30 2132 O 232.24 0.880828 1.55254 0
M  V30 2133 C 229.34 1.75711 2.89791 0
M  V30 2134 C 228.513 3.04824 3.1369 0
M  V30 2135 C 227.572 2.99743 4.32482 0
M  V30 2136 O 226.598 3.73635 4.29402 0
M  V30 2137 N 227.8 2.18047 5.37992 0
M  V30 2138 H 230.565 2.68049 1.34052 0
M  V30 2139 H 228.126 1.50724 0.591084 0
M  V30 2140 H 230.118 1.69834 3.6734 0
M  V30 2141 H 228.688 0.876092 3.00072 0
M  V30 2142 H 227.908 3.2429 2.24119 0
M  V30 2143 H 229.196 3.90221 3.26504 0
M  V30 2144 H 228.594 1.57456 5.43345 0
M  V30 2145 H 227.151 2.18021 6.14256 0
M  V30 2146 N 230.584 -0.659388 1.43143 0
M  V30 2147 C 231.531 -1.77249 1.47822 0
M  V30 2148 C 232.501 -1.62818 0.328558 0
M  V30 2149 O 233.686 -1.83151 0.534838 0
M  V30 2150 C 230.826 -3.15371 1.40126 0
M  V30 2151 C 229.939 -3.4098 2.65249 0
M  V30 2152 C 229.074 -4.68915 2.49584 0
M  V30 2153 C 228.113 -4.87608 3.70006 0
M  V30 2154 N 227.25 -6.06796 3.53189 0
M  V30 2155 H 232.09 -1.72584 2.42938 0
M  V30 2156 H 229.627 -0.842297 1.20598 0
M  V30 2157 H 231.585 -3.9521 1.33659 0
M  V30 2158 H 230.215 -3.19121 0.485964 0
M  V30 2159 H 229.267 -2.55282 2.8202 0
M  V30 2160 H 230.579 -3.50681 3.54717 0
M  V30 2161 H 229.733 -5.56871 2.4079 0
M  V30 2162 H 228.472 -4.61524 1.5763 0
M  V30 2163 H 227.477 -3.9809 3.79215 0
M  V30 2164 H 228.702 -4.96834 4.62961 0
M  V30 2165 H 226.648 -6.00549 2.63965 0
M  V30 2166 H 226.565 -6.17428 4.36255 0
M  V30 2167 H 227.833 -6.9739 3.48236 0
M  V30 2168 N 232.062 -1.29571 -0.897171 0
M  V30 2169 C 232.994 -1.10724 -2.00681 0
M  V30 2170 C 234.007 -0.0540026 -1.6271 0
M  V30 2171 O 235.196 -0.298783 -1.75982 0
M  V30 2172 C 232.296 -0.663912 -3.32333 0
M  V30 2173 C 231.469 -1.79622 -3.98816 0
M  V30 2174 C 230.528 -1.34349 -5.0876 0
M  V30 2175 O 229.554 -2.04864 -5.31055 0
M  V30 2176 N 230.756 -0.215764 -5.80099 0
M  V30 2177 H 233.521 -2.06291 -2.17403 0
M  V30 2178 H 231.082 -1.21544 -1.06951 0
M  V30 2179 H 233.074 -0.344295 -4.03233 0
M  V30 2180 H 231.644 0.199375 -3.11964 0
M  V30 2181 H 230.864 -2.28459 -3.21248 0
M  V30 2182 H 232.152 -2.55535 -4.39976 0
M  V30 2183 H 231.55 0.372091 -5.64475 0
M  V30 2184 H 230.107 0.0444707 -6.51785 0
M  V30 2185 N 233.54 1.10788 -1.12088 0
M  V30 2186 C 234.786 1.82942 -0.875226 0
M  V30 2187 C 235.119 1.84779 0.597538 0
M  V30 2188 O 234.394 1.30578 1.44152 0
M  V30 2189 C 234.677 3.29789 -1.44606 0
M  V30 2190 C 234.53 3.36307 -2.98693 0
M  V30 2191 C 235.849 4.26064 -1.10261 0
M  V30 2192 H 232.968 0.664195 -0.319397 0
M  V30 2193 H 235.61 1.29867 -1.38689 0
M  V30 2194 H 233.76 3.75118 -1.01089 0
M  V30 2195 H 235.432 2.99487 -3.50864 0
M  V30 2196 H 233.675 2.76318 -3.34411 0
M  V30 2197 H 234.346 4.39694 -3.33726 0
M  V30 2198 H 236.822 3.88951 -1.4784 0
M  V30 2199 H 235.698 5.27183 -1.52869 0
M  V30 2200 H 235.959 4.42098 -0.0142953 0
M  V30 2201 N 235.018 0.912232 1.28515 0
M  V30 2202 C 236.266 0.543523 1.94654 0
M  V30 2203 C 236.587 -0.9155 1.72173 0
M  V30 2204 O 235.857 -1.64708 1.06058 0
M  V30 2205 H 234.437 0.198017 0.720277 0
M  V30 2206 H 237.099 1.16126 1.56527 0
M  V30 2207 H 236.195 0.736684 3.03281 0
M  V30 2208 N 236.496 -1.42363 0.676048 0
M  V30 2209 C 237.426 -2.33497 0.0124832 0
M  V30 2210 C 238.407 -1.50748 -0.787981 0
M  V30 2211 O 239.592 -1.79346 -0.744884 0
M  V30 2212 C 236.722 -3.34377 -0.938582 0
M  V30 2213 C 235.676 -4.27289 -0.246622 0
M  V30 2214 C 235.002 -5.18386 -1.31071 0
M  V30 2215 C 236.302 -5.14916 0.875125 0
M  V30 2216 H 237.996 -2.89233 0.773593 0
M  V30 2217 H 235.542 -1.39073 0.37346 0
M  V30 2218 H 237.495 -3.97044 -1.41188 0
M  V30 2219 H 236.219 -2.76947 -1.73113 0
M  V30 2220 H 234.878 -3.66018 0.206456 0
M  V30 2221 H 234.526 -4.57282 -2.09528 0
M  V30 2222 H 234.226 -5.81378 -0.852839 0
M  V30 2223 H 235.75 -5.83929 -1.78492 0
M  V30 2224 H 237.164 -5.71262 0.482983 0
M  V30 2225 H 235.561 -5.86747 1.25887 0
M  V30 2226 H 236.631 -4.53242 1.72335 0
M  V30 2227 N 237.974 -0.419461 -1.51915 0
M  V30 2228 C 238.937 0.389116 -2.25873 0
M  V30 2229 C 239.937 0.964924 -1.28631 0
M  V30 2230 O 241.127 0.842179 -1.52489 0
M  V30 2231 C 238.259 1.54874 -3.03689 0
M  V30 2232 H 239.452 -0.258799 -2.98781 0
M  V30 2233 H 237.005 -0.172209 -1.55348 0
M  V30 2234 H 237.74 2.23323 -2.35154 0
M  V30 2235 H 237.525 1.14223 -3.75094 0
M  V30 2236 H 239.015 2.12046 -3.59759 0
M  V30 2237 N 239.452 1.56882 -0.150215 0
M  V30 2238 C 240.68 2.00593 0.506948 0
M  V30 2239 C 241.095 1.03033 1.58208 0
M  V30 2240 O 240.452 0.0278396 1.82479 0
M  V30 2241 C 240.503 3.44209 1.10465 0
M  V30 2242 O 240.224 4.3804 0.0724636 0
M  V30 2243 C 241.725 4.03214 1.84211 0
M  V30 2244 H 238.945 0.65795 0.13169 0
M  V30 2245 H 241.489 2.03018 -0.245743 0
M  V30 2246 H 239.644 3.42625 1.80795 0
M  V30 2247 H 240.058 5.22007 0.510793 0
M  V30 2248 H 241.532 5.0569 2.21318 0
M  V30 2249 H 242.009 3.44107 2.72923 0
M  V30 2250 H 242.615 4.08437 1.18572 0
M  V30 2251 N 240.93 -0.123565 1.57115 0
M  V30 2252 C 242.155 -0.850398 1.89164 0
M  V30 2253 C 242.58 -1.7286 0.741688 0
M  V30 2254 O 241.938 -1.78665 -0.307958 0
M  V30 2255 C 241.986 -1.66353 3.19936 0
M  V30 2256 O 241.09 -2.77004 3.0552 0
M  V30 2257 H 240.431 -0.235454 0.620852 0
M  V30 2258 H 242.961 -0.107335 2.04318 0
M  V30 2259 H 242.971 -2.05372 3.52543 0
M  V30 2260 H 241.646 -1.01881 4.03228 0
M  V30 2261 H 240.223 -2.41221 2.84371 0
M  V30 2262 N 242.408 -1.52605 -0.393616 0
M  V30 2263 C 243.633 -1.71592 -1.16495 0
M  V30 2264 C 244.058 -0.43133 -1.83088 0
M  V30 2265 O 243.416 0.612523 -1.7064 0
M  V30 2266 C 243.464 -2.86318 -2.19213 0
M  V30 2267 O 242.568 -2.52969 -3.257 0
M  V30 2268 H 241.909 -0.570734 -0.33935 0
M  V30 2269 H 244.439 -1.99377 -0.459324 0
M  V30 2270 H 244.449 -3.1168 -2.63286 0
M  V30 2271 H 243.124 -3.79511 -1.7013 0
M  V30 2272 H 241.701 -2.38332 -2.86797 0
M  V30 2273 N 243.887 0.651787 -1.4349 0
M  V30 2274 C 245.298 1.233 -1.40193 0
M  V30 2275 C 245.649 1.9591 -0.106727 0
M  V30 2276 O 244.774 2.01316 0.793773 0
M  V30 2277 C 245.369 2.24257 -2.53957 0
M  V30 2278 C 243.928 2.77852 -2.5392 0
M  V30 2279 C 243.075 1.52517 -2.3159 0
M  V30 2280 H 246.026 0.443717 -1.52371 0
M  V30 2281 H 246.047 3.0646 -2.25528 0
M  V30 2282 H 245.559 1.71382 -3.4821 0
M  V30 2283 H 243.66 3.34786 -1.63551 0
M  V30 2284 H 243.773 3.25299 -3.51735 0
M  V30 2285 H 242.137 1.79915 -1.80285 0
M  V30 2286 H 242.92 1.01574 -3.27929 0
M  V30 2287 N 245.365 1.30045 0.890287 0
M  V30 2288 C 246.328 1.15963 1.977 0
M  V30 2289 C 247.328 0.0923777 1.60534 0
M  V30 2290 O 248.518 0.340071 1.70848 0
M  V30 2291 C 245.65 0.775451 3.31963 0
M  V30 2292 H 246.843 2.12502 2.11619 0
M  V30 2293 H 244.396 1.13366 1.07601 0
M  V30 2294 H 245.131 -0.189671 3.23745 0
M  V30 2295 H 244.916 1.54668 3.60306 0
M  V30 2296 H 246.406 0.700251 4.11687 0
M  V30 2297 N 246.843 -1.10192 1.12674 0
M  V30 2298 C 248.071 -1.85983 0.906527 0
M  V30 2299 C 248.486 -1.80783 -0.544333 0
M  V30 2300 O 247.843 -1.19834 -1.37645 0
M  V30 2301 C 247.894 -3.34281 1.37618 0
M  V30 2302 O 247.615 -3.39401 2.77017 0
M  V30 2303 C 249.116 -4.26938 1.19325 0
M  V30 2304 H 246.336 -0.587716 0.323775 0
M  V30 2305 H 248.88 -1.39284 1.49734 0
M  V30 2306 H 247.035 -3.78436 0.828539 0
M  V30 2307 H 247.449 -4.31838 2.97684 0
M  V30 2308 H 248.923 -5.29181 1.57071 0
M  V30 2309 H 249.4 -4.38995 0.134097 0
M  V30 2310 H 250.006 -3.8859 1.72852 0
M  V30 2311 N 248.321 -0.919034 -1.28029 0
M  V30 2312 C 249.546 -0.570357 -1.99403 0
M  V30 2313 C 249.971 0.842486 -1.68178 0
M  V30 2314 O 249.329 1.56391 -0.917141 0
M  V30 2315 C 249.377 -0.792541 -3.51783 0
M  V30 2316 O 248.481 0.145988 -4.12142 0
M  V30 2317 H 247.822 -0.220555 -0.6263 0
M  V30 2318 H 250.352 -1.23592 -1.63053 0
M  V30 2319 H 250.362 -0.704708 -4.01868 0
M  V30 2320 H 249.037 -1.82247 -3.73844 0
M  V30 2321 H 247.614 0.00897528 -3.72899 0
M  V30 2322 N 249.799 1.42003 -0.683588 0
M  V30 2323 C 250.731 2.29183 0.0283068 0
M  V30 2324 C 251.744 1.4415 0.756611 0
M  V30 2325 O 252.933 1.67779 0.609306 0
M  V30 2326 C 250.033 3.21765 1.06398 0
M  V30 2327 C 249.206 4.35496 0.407723 0
M  V30 2328 C 248.265 5.08737 1.34437 0
M  V30 2329 O 247.291 5.62948 0.841318 0
M  V30 2330 N 248.493 5.15075 2.67728 0
M  V30 2331 H 251.258 2.9092 -0.720105 0
M  V30 2332 H 248.819 1.53025 -0.528682 0
M  V30 2333 H 250.811 3.6763 1.69204 0
M  V30 2334 H 249.381 2.61418 1.71404 0
M  V30 2335 H 248.601 3.92165 -0.400012 0
M  V30 2336 H 249.889 5.08776 -0.0490956 0
M  V30 2337 H 249.287 4.72457 3.11129 0
M  V30 2338 H 247.844 5.64556 3.2576 0
M  V30 2339 N 251.277 0.427512 1.51691 0
M  V30 2340 C 252.505 -0.141191 2.06418 0
M  V30 2341 C 252.92 -1.37303 1.29589 0
M  V30 2342 O 252.277 -1.79059 0.352732 0
M  V30 2343 C 252.328 -0.473266 3.58389 0
M  V30 2344 O 252.049 0.709673 4.32314 0
M  V30 2345 C 253.55 -1.09371 4.29596 0
M  V30 2346 H 250.77 -0.0122747 0.670888 0
M  V30 2347 H 253.314 0.603764 1.95384 0
M  V30 2348 H 251.469 -1.16812 3.69369 0
M  V30 2349 H 251.883 0.42807 5.2275 0
M  V30 2350 H 253.357 -1.27613 5.37046 0
M  V30 2351 H 253.834 -2.072 3.87253 0
M  V30 2352 H 254.44 -0.43853 4.23033 0
M  V30 2353 N 252.755 -1.56801 0.158532 0
M  V30 2354 C 254.003 -1.96102 -0.488712 0
M  V30 2355 C 254.324 -1.04498 -1.64636 0
M  V30 2356 O 253.594 -0.108783 -1.95598 0
M  V30 2357 H 252.174 -0.724102 -0.183535 0
M  V30 2358 H 254.836 -1.93457 0.236728 0
M  V30 2359 H 253.932 -3.00097 -0.857219 0
M  V30 2360 N 254.233 0.115231 -1.57178 0
M  V30 2361 C 255.644 0.67197 -1.74188 0
M  V30 2362 C 255.995 1.80125 -0.777777 0
M  V30 2363 O 255.12 2.16346 0.0484376 0
M  V30 2364 C 255.715 1.22573 -3.1585 0
M  V30 2365 C 254.274 1.72872 -3.34353 0
M  V30 2366 C 253.421 0.629972 -2.70049 0
M  V30 2367 H 256.372 -0.110712 -1.58313 0
M  V30 2368 H 256.393 2.09535 -3.17609 0
M  V30 2369 H 255.905 0.403598 -3.85996 0
M  V30 2370 H 254.006 2.5755 -2.69256 0
M  V30 2371 H 254.119 1.83557 -4.42542 0
M  V30 2372 H 252.483 1.0645 -2.31388 0
M  V30 2373 H 253.266 -0.181241 -3.42821 0
M  V30 2374 N 255.711 1.52812 0.385517 0
M  V30 2375 C 256.959 1.67694 1.12797 0
M  V30 2376 C 257.28 0.421115 1.90399 0
M  V30 2377 O 256.55 -0.564551 1.87589 0
M  V30 2378 H 255.13 0.618155 0.419396 0
M  V30 2379 H 257.792 1.89938 0.436972 0
M  V30 2380 H 256.888 2.52896 1.82894 0
M  V30 2381 N 257.189 -0.644168 1.43834 0
M  V30 2382 C 258.438 -1.39985 1.45214 0
M  V30 2383 C 258.751 -1.95421 0.0835494 0
M  V30 2384 O 259.957 -2.71488 -0.0251748 0
M  V30 2385 C 258.413 -2.53384 2.55587 0
M  V30 2386 C 258.021 -2.04517 3.98594 0
M  V30 2387 C 259.765 -3.30685 2.66172 0
M  V30 2388 C 257.672 -3.1518 5.00416 0
M  V30 2389 H 256.602 -0.526005 0.540218 0
M  V30 2390 H 259.253 -0.694367 1.69855 0
M  V30 2391 H 257.635 -3.26446 2.24163 0
M  V30 2392 H 258.809 -1.38405 4.39523 0
M  V30 2393 H 257.124 -1.40068 3.92135 0
M  V30 2394 H 259.721 -4.13158 3.39418 0
M  V30 2395 H 260.064 -3.79312 1.71546 0
M  V30 2396 H 260.597 -2.64708 2.96942 0
M  V30 2397 H 257.336 -2.71511 5.96625 0
M  V30 2398 H 256.856 -3.79974 4.64091 0
M  V30 2399 H 258.535 -3.80166 5.23529 0
M  V30 2400 N 258.668 -1.30515 -0.883378 0
M  V30 2401 C 259.908 -1.20716 -1.64946 0
M  V30 2402 C 260.272 0.234072 -1.90568 0
M  V30 2403 O 261.473 0.455335 -2.64915 0
M  V30 2404 C 259.744 -2.01444 -2.9522 0
M  V30 2405 S 261.303 -2.0836 -3.86175 0
M  V30 2406 H 258.121 -0.430165 -0.566109 0
M  V30 2407 H 260.723 -1.65011 -1.04841 0
M  V30 2408 H 259.427 -3.05268 -2.74298 0
M  V30 2409 H 258.958 -1.57817 -3.60357 0
M  V30 2410 H 260.973 -1.21215 -4.81167 0
M  V30 2411 N 260.146 1.09593 -1.13257 0
M  V30 2412 C 261.079 2.15451 -0.752061 0
M  V30 2413 C 262.057 1.60493 0.260913 0
M  V30 2414 O 263.241 1.8788 0.152819 0
M  V30 2415 C 260.368 3.38506 -0.114594 0
M  V30 2416 C 259.414 4.12183 -1.09579 0
M  V30 2417 S 260.247 4.6661 -2.62745 0
M  V30 2418 C 261.403 5.92966 -2.00354 0
M  V30 2419 H 261.636 2.47395 -1.64872 0
M  V30 2420 H 259.169 1.21515 -0.952545 0
M  V30 2421 H 261.127 4.09757 0.246808 0
M  V30 2422 H 259.788 3.04784 0.759309 0
M  V30 2423 H 258.981 5.00445 -0.597545 0
M  V30 2424 H 258.583 3.46785 -1.40057 0
M  V30 2425 H 260.875 6.63882 -1.35156 0
M  V30 2426 H 261.818 6.47467 -2.86691 0
M  V30 2427 H 262.226 5.45405 -1.4558 0
M  V30 2428 N 261.624 0.925811 1.2754 0
M  V30 2429 C 262.572 0.413897 2.28888 0
M  V30 2430 C 263.566 -0.500779 1.61829 0
M  V30 2431 O 264.772 -0.38069 1.75928 0
M  V30 2432 H 261.147 0.115274 0.743112 0
M  V30 2433 H 263.118 1.28151 2.69481 0
M  V30 2434 C 261.867 -0.319792 3.46226 0
M  V30 2435 H 261.19 0.374846 3.98039 0
M  V30 2436 H 262.63 -0.642435 4.19105 0
M  V30 2437 C 261.089 -1.53209 3.00048 0
M  V30 2438 O 261.619 -2.6309 3.03557 0
M  V30 2439 N 259.825 -1.38326 2.55566 0
M  V30 2440 H 259.372 -0.489292 2.5291 0
M  V30 2441 H 259.33 -2.19564 2.25031 0
M  V30 2442 N 263.102 -1.41638 0.69111 0
M  V30 2443 C 264.065 -2.29178 0.0319786 0
M  V30 2444 C 265.065 -1.44153 -0.712496 0
M  V30 2445 O 266.255 -1.65354 -0.548053 0
M  V30 2446 C 263.387 -3.26952 -0.965161 0
M  V30 2447 H 264.58 -2.88959 0.802681 0
M  V30 2448 H 262.133 -1.4955 0.454356 0
M  V30 2449 H 262.868 -2.72142 -1.76378 0
M  V30 2450 H 262.653 -3.89685 -0.434522 0
M  V30 2451 H 264.143 -3.92561 -1.42428 0
M  V30 2452 N 264.58 -0.43555 -1.51462 0
M  V30 2453 C 265.528 0.391205 -2.29287 0
M  V30 2454 C 266.522 1.02247 -1.35062 0
M  V30 2455 O 267.728 0.957646 -1.52411 0
M  V30 2456 H 264.103 0.144968 -0.737895 0
M  V30 2457 H 266.074 -0.286051 -2.97026 0
M  V30 2458 C 264.823 1.48096 -3.14583 0
M  V30 2459 H 264.146 1.00457 -3.86973 0
M  V30 2460 H 265.586 2.03273 -3.72097 0
M  V30 2461 C 264.045 2.46321 -2.29843 0
M  V30 2462 O 264.575 3.50815 -1.95682 0
M  V30 2463 N 262.781 2.17166 -1.931 0
M  V30 2464 H 262.328 1.32218 -2.21079 0
M  V30 2465 H 262.286 2.83127 -1.36698 0
M  V30 2466 N 266.058 1.56714 -0.166846 0
M  V30 2467 C 267.305 1.96747 0.479252 0
M  V30 2468 C 267.633 1.05263 1.63554 0
M  V30 2469 O 266.888 0.0858098 1.95512 0
M  V30 2470 C 267.187 3.42889 1.00806 0
M  V30 2471 C 266.853 4.50889 -0.0318574 0
M  V30 2472 C 265.515 4.8015 -0.317675 0
M  V30 2473 C 267.867 5.15949 -0.737956 0
M  V30 2474 C 265.195 5.71772 -1.31506 0
M  V30 2475 C 267.547 6.08647 -1.72429 0
M  V30 2476 C 266.211 6.36277 -2.0176 0
M  V30 2477 H 265.481 0.719949 0.175371 0
M  V30 2478 H 268.128 1.89756 -0.257864 0
M  V30 2479 H 266.433 3.4681 1.82291 0
M  V30 2480 H 268.13 3.71203 1.51689 0
M  V30 2481 H 264.72 4.28128 0.201088 0
M  V30 2482 H 268.904 4.93458 -0.530351 0
M  V30 2483 H 264.16 5.91465 -1.54853 0
M  V30 2484 H 268.334 6.58129 -2.27682 0
M  V30 2485 H 265.961 7.07075 -2.79194 0
M  V30 2486 N 267.536 -0.106894 1.57237 0
M  V30 2487 C 268.484 -1.14944 2.02215 0
M  V30 2488 C 269.478 -1.42167 0.92114 0
M  V30 2489 O 270.684 -1.41987 1.10634 0
M  V30 2490 H 267.059 -0.387841 0.64427 0
M  V30 2491 H 269.03 -0.743683 2.88984 0
M  V30 2492 C 267.779 -2.4647 2.4525 0
M  V30 2493 H 267.102 -2.26363 3.29545 0
M  V30 2494 H 268.542 -3.17948 2.80508 0
M  V30 2495 C 267.001 -3.09921 1.321 0
M  V30 2496 O 267.531 -3.9651 0.643622 0
M  V30 2497 N 265.737 -2.69986 1.07497 0
M  V30 2498 H 265.284 -1.99667 1.62761 0
M  V30 2499 H 265.242 -3.12769 0.319876 0
M  V30 2500 N 269.014 -1.53014 -0.377408 0
M  V30 2501 C 269.946 -1.74884 -1.48149 0
M  V30 2502 C 270.959 -0.629433 -1.5014 0
M  V30 2503 O 272.148 -0.905416 -1.53833 0
M  V30 2504 C 269.248 -1.80299 -2.86959 0
M  V30 2505 C 268.421 -3.09776 -3.08801 0
M  V30 2506 C 267.48 -3.06586 -4.27658 0
M  V30 2507 O 266.506 -3.80419 -4.23403 0
M  V30 2508 N 267.708 -2.26578 -5.34455 0
M  V30 2509 H 270.473 -2.70147 -1.29771 0
M  V30 2510 H 268.034 -1.51646 -0.56703 0
M  V30 2511 H 270.026 -1.75657 -3.64591 0
M  V30 2512 H 268.596 -0.92372 -2.98641 0
M  V30 2513 H 267.816 -3.27815 -2.18931 0
M  V30 2514 H 269.104 -3.95366 -3.20255 0
M  V30 2515 H 268.502 -1.66081 -5.40771 0
M  V30 2516 H 267.059 -2.27766 -6.10709 0
M  V30 2517 N 270.492 0.636531 -1.44174 0
M  V30 2518 C 271.72 1.42353 -1.50144 0
M  V30 2519 C 272.135 1.88389 -0.124575 0
M  V30 2520 O 271.492 1.6051 0.868489 0
M  V30 2521 C 271.543 2.64744 -2.46156 0
M  V30 2522 O 271.264 2.20629 -3.7849 0
M  V30 2523 C 272.765 3.57929 -2.61537 0
M  V30 2524 H 269.985 0.436752 -0.5094 0
M  V30 2525 H 272.529 0.778933 -1.89084 0
M  V30 2526 H 270.684 3.25307 -2.10366 0
M  V30 2527 H 271.098 2.99938 -4.30276 0
M  V30 2528 H 272.572 4.40428 -3.32757 0
M  V30 2529 H 273.049 4.06382 -1.66585 0
M  V30 2530 H 273.655 3.03238 -2.98206 0
M  V30 2531 N 271.97 1.30982 0.876444 0
M  V30 2532 C 272.92 1.14688 1.97055 0
M  V30 2533 C 273.904 0.0596593 1.60789 0
M  V30 2534 O 275.096 0.283892 1.74708 0
M  V30 2535 C 272.225 0.849627 3.3262 0
M  V30 2536 C 271.311 1.97752 3.75173 0
M  V30 2537 N 271.702 3.22384 3.89746 0
M  V30 2538 C 270 1.8758 4.04635 0
M  V30 2539 C 270.701 3.96121 4.25985 0
M  V30 2540 N 269.677 3.24237 4.36315 0
M  V30 2541 H 273.479 2.09204 2.06424 0
M  V30 2542 H 270.993 1.22445 1.06682 0
M  V30 2543 H 272.99 0.713895 4.10742 0
M  V30 2544 H 271.65 -0.087376 3.24582 0
M  V30 2545 H 272.661 3.57575 3.74647 0
M  V30 2546 H 269.338 1.01303 4.05024 0
M  V30 2547 H 270.728 5.03491 4.44911 0
M  V30 2548 N 273.449 -1.08991 1.13837 0
M  V30 2549 C 274.86 -1.62746 0.914917 0
M  V30 2550 C 275.211 -1.88403 -0.547594 0
M  V30 2551 O 274.336 -1.63706 -1.41525 0
M  V30 2552 C 274.931 -2.95662 1.65437 0
M  V30 2553 C 273.49 -3.46225 1.47666 0
M  V30 2554 C 272.637 -2.20562 1.6807 0
M  V30 2555 H 275.588 -0.922946 1.29102 0
M  V30 2556 H 275.609 -3.63825 1.11407 0
M  V30 2557 H 275.121 -2.76956 2.71877 0
M  V30 2558 H 273.222 -3.70046 0.435478 0
M  V30 2559 H 273.335 -4.23368 2.24268 0
M  V30 2560 H 271.699 -2.29439 1.10589 0
M  V30 2561 H 272.482 -2.0437 2.7584 0
M  V30 2562 N 274.927 -0.932562 -1.27047 0
M  V30 2563 C 276.175 -0.574422 -1.93765 0
M  V30 2564 C 276.496 0.887993 -1.73608 0
M  V30 2565 O 275.766 1.62999 -1.08665 0
M  V30 2566 H 274.346 -0.209451 -0.717035 0
M  V30 2567 H 277.008 -1.18601 -1.5466 0
M  V30 2568 H 276.104 -0.784841 -3.02071 0
M  V30 2569 N 276.405 1.4127 -0.698611 0
M  V30 2570 C 277.335 2.33447 -0.049629 0
M  V30 2571 C 278.316 1.51982 0.763898 0
M  V30 2572 O 279.501 1.80509 0.716257 0
M  V30 2573 C 276.631 3.35828 0.885267 0
M  V30 2574 C 275.585 4.27627 0.178613 0
M  V30 2575 C 274.911 5.20406 1.22807 0
M  V30 2576 C 276.211 5.13459 -0.956933 0
M  V30 2577 H 277.905 2.87966 -0.81951 0
M  V30 2578 H 275.451 1.38461 -0.395538 0
M  V30 2579 H 277.404 3.9924 1.34854 0
M  V30 2580 H 276.128 2.79666 1.68685 0
M  V30 2581 H 274.787 3.65643 -0.26466 0
M  V30 2582 H 274.435 4.60558 2.02226 0
M  V30 2583 H 274.135 5.82661 0.760239 0
M  V30 2584 H 275.659 5.86695 1.69179 0
M  V30 2585 H 277.073 5.70421 -0.573805 0
M  V30 2586 H 275.47 5.8467 -1.35205 0
M  V30 2587 H 276.54 4.50443 -1.79524 0
M  V30 2588 N 277.883 0.443576 1.51229 0
M  V30 2589 C 278.813 -0.355142 2.30783 0
M  V30 2590 C 279.794 -1.0154 1.36468 0
M  V30 2591 O 280.979 -1.01785 1.65389 0
M  V30 2592 C 278.109 -1.45312 3.15439 0
M  V30 2593 C 277.063 -0.916002 4.18083 0
M  V30 2594 C 276.389 -2.1102 4.91299 0
M  V30 2595 C 277.689 0.0538602 5.22272 0
M  V30 2596 H 279.383 0.308767 2.97804 0
M  V30 2597 H 276.929 0.149937 1.43217 0
M  V30 2598 H 278.882 -2.01914 3.69876 0
M  V30 2599 H 277.606 -2.14541 2.46252 0
M  V30 2600 H 276.265 -0.372145 3.64706 0
M  V30 2601 H 275.913 -2.78882 4.18609 0
M  V30 2602 H 275.613 -1.75717 5.60712 0
M  V30 2603 H 277.137 -2.68164 5.48562 0
M  V30 2604 H 278.551 -0.422069 5.71744 0
M  V30 2605 H 276.948 0.319776 5.99247 0
M  V30 2606 H 278.018 0.98858 4.74716 0
M  V30 2607 N 279.361 -1.56624 0.175154 0
M  V30 2608 C 280.309 -2.19468 -0.770495 0
M  V30 2609 C 281.303 -1.15985 -1.23466 0
M  V30 2610 O 282.509 -1.34176 -1.19987 0
M  V30 2611 H 278.884 -0.703095 -0.266761 0
M  V30 2612 H 280.855 -2.97613 -0.216542 0
M  V30 2613 C 279.604 -2.85264 -1.98796 0
M  V30 2614 H 278.927 -3.64623 -1.63983 0
M  V30 2615 H 280.367 -3.327 -2.62843 0
M  V30 2616 C 278.826 -1.85239 -2.81404 0
M  V30 2617 O 279.356 -1.34024 -3.78682 0
M  V30 2618 N 277.562 -1.53911 -2.46495 0
M  V30 2619 H 277.109 -1.95751 -1.67449 0
M  V30 2620 H 277.067 -0.872382 -3.02054 0
M  V30 2621 N 280.839 0.0985539 -1.57292 0
M  V30 2622 C 282.064 0.820196 -1.90493 0
M  V30 2623 C 282.489 1.71658 -0.769094 0
M  V30 2624 O 281.847 1.79133 0.279495 0
M  V30 2625 C 281.895 1.61242 -3.22542 0
M  V30 2626 O 280.999 2.72108 -3.09888 0
M  V30 2627 H 280.34 0.225547 -0.62452 0
M  V30 2628 H 282.87 0.0748159 -2.04463 0
M  V30 2629 H 282.88 1.99737 -3.55766 0
M  V30 2630 H 281.555 0.954535 -4.04798 0
M  V30 2631 H 280.132 2.36667 -2.88172 0
M  V30 2632 N 282.317 1.53212 0.369288 0
M  V30 2633 C 283.265 1.80054 1.47253 0
M  V30 2634 C 284.259 0.669456 1.55611 0
M  V30 2635 O 285.465 0.852328 1.58541 0
M  V30 2636 H 281.84 0.570034 0.490475 0
M  V30 2637 H 283.811 2.72403 1.21817 0
M  V30 2638 C 282.56 2.00403 2.84137 0
M  V30 2639 H 281.883 2.86876 2.78464 0
M  V30 2640 H 283.323 2.23164 3.60519 0
M  V30 2641 C 281.782 0.782081 3.27697 0
M  V30 2642 O 282.312 -0.0310205 4.01688 0
M  V30 2643 N 280.518 0.606573 2.84199 0
M  V30 2644 H 280.065 1.26939 2.24152 0
M  V30 2645 H 280.023 -0.20962 3.137 0
M  V30 2646 N 283.795 -0.628877 1.44509 0
M  V30 2647 C 285.02 -1.42048 1.5112 0
M  V30 2648 C 285.445 -1.87594 0.137818 0
M  V30 2649 O 284.803 -1.58873 -0.873437 0
M  V30 2650 C 284.851 -2.61541 2.48251 0
M  V30 2651 O 283.955 -3.61453 1.98559 0
M  V30 2652 H 283.296 -0.424942 0.510216 0
M  V30 2653 H 285.826 -0.767374 1.89664 0
M  V30 2654 H 285.836 -3.09057 2.66361 0
M  V30 2655 H 284.511 -2.27736 3.48007 0
M  V30 2656 H 283.088 -3.20731 1.90227 0
M  V30 2657 N 285.273 -1.31445 -0.869486 0
M  V30 2658 C 286.521 -1.20918 -1.61936 0
M  V30 2659 C 286.842 0.232683 -1.93607 0
M  V30 2660 O 286.112 1.15352 -1.58338 0
M  V30 2661 H 284.692 -0.44454 -0.600328 0
M  V30 2662 H 287.354 -1.64776 -1.0409 0
M  V30 2663 H 286.45 -1.78124 -2.56278 0
M  V30 2664 N 286.751 1.08385 -1.14413 0
M  V30 2665 C 287.701 2.13509 -0.79987 0
M  V30 2666 C 288.685 1.5951 0.211059 0
M  V30 2667 O 289.877 1.76995 0.0133694 0
M  V30 2668 C 287.006 3.42162 -0.279297 0
M  V30 2669 C 286.092 4.03042 -1.31976 0
M  V30 2670 N 286.483 4.38327 -2.52395 0
M  V30 2671 C 284.781 4.30379 -1.17004 0
M  V30 2672 C 285.482 4.86428 -3.19003 0
M  V30 2673 N 284.458 4.84547 -2.46405 0
M  V30 2674 H 288.26 2.38609 -1.7159 0
M  V30 2675 H 285.774 1.2572 -1.02802 0
M  V30 2676 H 287.771 4.16898 -0.0143688 0
M  V30 2677 H 286.431 3.18511 0.630923 0
M  V30 2678 H 287.442 4.29349 -2.89621 0
M  V30 2679 H 284.119 4.16281 -0.318854 0
M  V30 2680 H 285.509 5.23107 -4.21674 0
M  V30 2681 N 288.23 0.939286 1.26551 0
M  V30 2682 C 289.455 0.602008 1.98471 0
M  V30 2683 C 289.88 -0.815624 1.69497 0
M  V30 2684 O 289.238 -1.54912 0.941905 0
M  V30 2685 C 289.286 0.848407 3.50477 0
M  V30 2686 O 288.39 -0.0804009 4.12322 0
M  V30 2687 H 287.731 0.23049 0.622712 0
M  V30 2688 H 290.261 1.2617 1.61066 0
M  V30 2689 H 290.271 0.768553 4.00696 0
M  V30 2690 H 288.946 1.88171 3.70897 0
M  V30 2691 H 287.523 0.0503508 3.72866 0
M  V30 2692 N 289.708 -1.40897 0.706093 0
M  V30 2693 C 290.638 -2.33418 0.0620085 0
M  V30 2694 C 291.619 -1.52385 -0.755827 0
M  V30 2695 O 292.804 -1.80886 -0.706674 0
M  V30 2696 C 289.934 -3.36293 -0.867445 0
M  V30 2697 C 288.888 -4.27716 -0.155932 0
M  V30 2698 C 288.214 -5.2105 -1.20046 0
M  V30 2699 C 289.514 -5.12944 0.984149 0
M  V30 2700 H 291.208 -2.87527 0.83477 0
M  V30 2701 H 288.754 -1.38249 0.402875 0
M  V30 2702 H 290.707 -3.99949 -1.32735 0
M  V30 2703 H 289.431 -2.80556 -1.67199 0
M  V30 2704 H 288.09 -3.65498 0.284047 0
M  V30 2705 H 287.738 -4.61624 -1.99781 0
M  V30 2706 H 287.438 -5.83056 -0.729328 0
M  V30 2707 H 288.962 -5.87584 -1.66066 0
M  V30 2708 H 290.376 -5.70109 0.604048 0
M  V30 2709 H 288.773 -5.83945 1.38304 0
M  V30 2710 H 289.843 -4.49485 1.81911 0
M  V30 2711 N 291.186 -0.45159 -1.50991 0
M  V30 2712 C 292.435 0.111653 -2.01391 0
M  V30 2713 C 292.748 1.42529 -1.33959 0
M  V30 2714 O 293.954 2.07232 -1.75405 0
M  V30 2715 C 292.41 0.249514 -3.59034 0
M  V30 2716 C 292.018 -1.05453 -4.35412 0
M  V30 2717 C 293.762 0.765762 -4.17536 0
M  V30 2718 C 291.669 -0.881529 -5.84793 0
M  V30 2719 H 290.599 0.0455022 -0.752626 0
M  V30 2720 H 293.25 -0.583524 -1.73975 0
M  V30 2721 H 291.632 1.00803 -3.82955 0
M  V30 2722 H 292.806 -1.82248 -4.23229 0
M  V30 2723 H 291.121 -1.50039 -3.88429 0
M  V30 2724 H 293.718 0.911913 -5.26866 0
M  V30 2725 H 294.061 1.75201 -3.77638 0
M  V30 2726 H 294.594 0.0651744 -3.97747 0
M  V30 2727 H 291.333 -1.84057 -6.29129 0
M  V30 2728 H 290.853 -0.153625 -5.99603 0
M  V30 2729 H 292.532 -0.540363 -6.4474 0
M  V30 2730 N 292.664 1.56529 -0.183458 0
M  V30 2731 C 293.612 2.19873 0.758845 0
M  V30 2732 C 294.606 1.16638 1.22849 0
M  V30 2733 O 295.812 1.3481 1.19274 0
M  V30 2734 H 292.187 0.7045 0.263029 0
M  V30 2735 H 294.158 2.97724 0.200755 0
M  V30 2736 C 292.907 2.86314 1.9728 0
M  V30 2737 H 292.23 3.65487 1.62047 0
M  V30 2738 H 293.67 3.3409 2.61075 0
M  V30 2739 C 292.129 1.86729 2.80418 0
M  V30 2740 O 292.659 1.36031 3.77966 0
M  V30 2741 N 290.865 1.55216 2.45675 0
M  V30 2742 H 290.412 1.96636 1.66409 0
M  V30 2743 H 290.37 0.888388 3.01588 0
M  V30 2744 N 294.142 -0.090211 1.57342 0
M  V30 2745 C 295.074 -1.13541 1.99101 0
M  V30 2746 C 296.087 -1.3604 0.894258 0
M  V30 2747 O 297.276 -1.34606 1.17233 0
M  V30 2748 C 294.376 -2.49001 2.29895 0
M  V30 2749 C 293.549 -2.46712 3.61182 0
M  V30 2750 C 292.608 -3.64136 3.79857 0
M  V30 2751 O 291.634 -3.46405 4.51655 0
M  V30 2752 N 292.836 -4.83802 3.20806 0
M  V30 2753 H 295.601 -0.779942 2.89373 0
M  V30 2754 H 293.162 -0.279125 1.59476 0
M  V30 2755 H 295.154 -3.26166 2.39578 0
M  V30 2756 H 293.724 -2.76619 1.45605 0
M  V30 2757 H 292.944 -1.55058 3.62423 0
M  V30 2758 H 294.232 -2.42265 4.4742 0
M  V30 2759 H 293.63 -5.01112 2.62494 0
M  V30 2760 H 292.187 -5.58543 3.35966 0
M  V30 2761 N 295.62 -1.53406 -0.361157 0
M  V30 2762 C 296.583 -1.79479 -1.42548 0
M  V30 2763 C 297.583 -0.665327 -1.4639 0
M  V30 2764 O 298.773 -0.933549 -1.47073 0
M  V30 2765 C 295.905 -1.92087 -2.8163 0
M  V30 2766 H 297.098 -2.74538 -1.20701 0
M  V30 2767 H 294.651 -1.4455 -0.594546 0
M  V30 2768 H 295.386 -0.991099 -3.08784 0
M  V30 2769 H 295.171 -2.74241 -2.80239 0
M  V30 2770 H 296.661 -2.13836 -3.58697 0
M  V30 2771 N 297.098 0.621204 -1.44841 0
M  V30 2772 C 298.323 1.41244 -1.51871 0
M  V30 2773 C 298.748 1.87519 -0.147764 0
M  V30 2774 O 298.106 1.59334 0.865 0
M  V30 2775 C 298.154 2.60221 -2.49634 0
M  V30 2776 O 297.258 3.60395 -2.00473 0
M  V30 2777 H 296.599 0.42223 -0.512463 0
M  V30 2778 H 299.129 0.757305 -1.90069 0
M  V30 2779 H 299.139 3.0764 -2.67996 0
M  V30 2780 H 297.814 2.25887 -3.4921 0
M  V30 2781 H 296.391 3.19717 -1.91925 0
M  V30 2782 N 298.576 1.31904 0.862503 0
M  V30 2783 C 299.508 1.16005 1.97675 0
M  V30 2784 C 300.521 0.0971234 1.6251 0
M  V30 2785 O 301.71 0.345337 1.75128 0
M  V30 2786 C 298.81 0.751791 3.30456 0
M  V30 2787 C 297.983 1.90133 3.93914 0
M  V30 2788 C 297.042 1.4779 5.05019 0
M  V30 2789 O 296.068 2.18872 5.25437 0
M  V30 2790 N 297.27 0.369491 5.79323 0
M  V30 2791 H 300.035 2.11982 2.11857 0
M  V30 2792 H 297.596 1.24337 1.03691 0
M  V30 2793 H 299.588 0.451084 4.02178 0
M  V30 2794 H 298.158 -0.116593 3.12382 0
M  V30 2795 H 297.378 2.36896 3.15078 0
M  V30 2796 H 298.666 2.67111 4.33047 0
M  V30 2797 H 298.064 -0.222299 5.65263 0
M  V30 2798 H 296.621 0.128354 6.51674 0
M  V30 2799 N 300.054 -1.07777 1.14986 0
M  V30 2800 C 301.302 -1.79934 0.920235 0
M  V30 2801 C 301.623 -1.86955 -0.554336 0
M  V30 2802 O 300.893 -1.36731 -1.40291 0
M  V30 2803 H 299.473 -0.666424 0.337473 0
M  V30 2804 H 302.135 -1.3027 1.44968 0
M  V30 2805 H 301.231 -2.82539 1.32583 0
M  V30 2806 N 301.532 -0.945985 -1.26051 0
M  V30 2807 C 302.464 -0.416662 -2.25381 0
M  V30 2808 C 303.477 0.462712 -1.56086 0
M  V30 2809 O 304.666 0.272383 -1.7641 0
M  V30 2810 C 301.766 0.419812 -3.3629 0
M  V30 2811 C 300.939 -0.444531 -4.35135 0
M  V30 2812 C 299.998 0.332305 -5.2515 0
M  V30 2813 O 299.024 -0.266324 -5.68577 0
M  V30 2814 N 300.226 1.62763 -5.57215 0
M  V30 2815 H 302.991 -1.27059 -2.71433 0
M  V30 2816 H 300.552 -0.815392 -1.39868 0
M  V30 2817 H 302.544 0.947013 -3.93464 0
M  V30 2818 H 301.114 1.17456 -2.89694 0
M  V30 2819 H 300.334 -1.15291 -3.76964 0
M  V30 2820 H 301.622 -1.03478 -4.98166 0
M  V30 2821 H 301.02 2.13603 -5.23823 0
M  V30 2822 H 299.577 2.10097 -6.17011 0
M  V30 2823 N 303.011 1.40521 -0.713556 0
M  V30 2824 C 303.974 2.29098 -0.0684347 0
M  V30 2825 C 304.974 1.45268 0.689472 0
M  V30 2826 O 306.164 1.66205 0.521677 0
M  V30 2827 C 303.296 3.28446 0.913024 0
M  V30 2828 H 304.489 2.87645 -0.84855 0
M  V30 2829 H 302.042 1.48809 -0.47809 0
M  V30 2830 H 302.777 2.74913 1.72027 0
M  V30 2831 H 302.562 3.90327 0.372472 0
M  V30 2832 H 304.052 3.94777 1.36165 0
M  V30 2833 N 304.489 0.459591 1.5075 0
M  V30 2834 C 305.421 -0.37665 2.26084 0
M  V30 2835 C 306.434 -0.967109 1.30961 0
M  V30 2836 O 307.623 -0.857468 1.56556 0
M  V30 2837 C 304.723 -1.54112 3.01832 0
M  V30 2838 C 303.896 -1.06553 4.24223 0
M  V30 2839 C 302.955 -2.1027 4.82362 0
M  V30 2840 O 301.981 -1.68798 5.43595 0
M  V30 2841 N 303.183 -3.42974 4.68347 0
M  V30 2842 H 305.948 0.269124 2.98489 0
M  V30 2843 H 303.509 0.28972 1.59287 0
M  V30 2844 H 305.501 -2.23165 3.37608 0
M  V30 2845 H 304.071 -2.0918 2.32298 0
M  V30 2846 H 303.291 -0.201274 3.93686 0
M  V30 2847 H 304.579 -0.725516 5.03601 0
M  V30 2848 H 303.977 -3.79385 4.19623 0
M  V30 2849 H 302.534 -4.07858 5.08424 0
M  V30 2850 N 305.967 -1.56429 0.191757 0
M  V30 2851 C 307.213 -1.97777 -0.448554 0
M  V30 2852 C 307.546 -1.07847 -1.61501 0
M  V30 2853 O 306.821 -0.129774 -1.94067 0
M  V30 2854 C 307.104 -3.48362 -0.911906 0
M  V30 2855 C 306.957 -4.4907 0.256136 0
M  V30 2856 C 308.276 -4.02561 -1.77857 0
M  V30 2857 H 305.395 -0.719071 -0.161572 0
M  V30 2858 H 308.037 -1.87896 0.282007 0
M  V30 2859 H 306.187 -3.56914 -1.53442 0
M  V30 2860 H 307.859 -4.5256 0.893733 0
M  V30 2861 H 306.102 -4.24181 0.908436 0
M  V30 2862 H 306.773 -5.51889 -0.11053 0
M  V30 2863 H 309.249 -3.96767 -1.25359 0
M  V30 2864 H 308.125 -5.08301 -2.07174 0
M  V30 2865 H 308.386 -3.47616 -2.73158 0
M  V30 2866 N 307.445 0.0818655 -1.57387 0
M  V30 2867 C 308.378 1.12986 -1.98266 0
M  V30 2868 C 309.356 1.38123 -0.857954 0
M  V30 2869 O 310.54 1.51663 -1.1194 0
M  V30 2870 C 307.667 2.47632 -2.31076 0
M  V30 2871 C 306.713 2.38693 -3.53452 0
M  V30 2872 S 307.546 1.79071 -5.04672 0
M  V30 2873 C 308.702 3.15316 -5.40673 0
M  V30 2874 H 308.935 0.781435 -2.86846 0
M  V30 2875 H 306.468 0.290034 -1.51651 0
M  V30 2876 H 308.426 3.25089 -2.50654 0
M  V30 2877 H 307.087 2.79638 -1.43043 0
M  V30 2878 H 306.28 3.37964 -3.73893 0
M  V30 2879 H 305.882 1.69369 -3.33452 0
M  V30 2880 H 308.174 4.11613 -5.38127 0
M  V30 2881 H 309.117 2.99664 -6.41566 0
M  V30 2882 H 309.525 3.15457 -4.68132 0
M  V30 2883 N 308.923 1.53595 0.353017 0
M  V30 2884 C 309.871 1.81605 1.45335 0
M  V30 2885 C 310.865 0.685923 1.54892 0
M  V30 2886 O 312.071 0.869095 1.57628 0
M  V30 2887 H 308.446 0.575204 0.484401 0
M  V30 2888 H 310.417 2.73679 1.18921 0
M  V30 2889 C 309.166 2.03406 2.81995 0
M  V30 2890 H 308.489 2.89814 2.75405 0
M  V30 2891 H 309.929 2.26975 3.58132 0
M  V30 2892 C 308.388 0.816794 3.26849 0
M  V30 2893 O 308.918 0.0115856 4.01698 0
M  V30 2894 N 307.124 0.636682 2.8354 0
M  V30 2895 H 306.671 1.2931 2.22793 0
M  V30 2896 H 306.629 -0.176336 3.13905 0
M  V30 2897 N 310.401 -0.613514 1.45168 0
M  V30 2898 C 311.649 -1.36997 1.48581 0
M  V30 2899 C 311.97 -1.94589 0.126545 0
M  V30 2900 O 311.24 -1.76816 -0.843372 0
M  V30 2901 H 309.82 -0.508558 0.547154 0
M  V30 2902 H 312.482 -0.720853 1.81079 0
M  V30 2903 H 311.578 -2.1924 2.22127 0
M  V30 2904 N 311.879 -1.3236 -0.855495 0
M  V30 2905 C 313.104 -1.2601 -1.64731 0
M  V30 2906 C 313.529 0.169068 -1.87339 0
M  V30 2907 O 312.887 1.12016 -1.42556 0
M  V30 2908 C 312.935 -2.02417 -2.98429 0
M  V30 2909 O 312.039 -1.3714 -3.8893 0
M  V30 2910 H 311.38 -0.434325 -0.502253 0
M  V30 2911 H 313.91 -1.74661 -1.06558 0
M  V30 2912 H 313.92 -2.12559 -3.48257 0
M  V30 2913 H 312.595 -3.06343 -2.81295 0
M  V30 2914 H 311.172 -1.3554 -3.47395 0
M  V30 2915 N 313.357 1.07166 -1.15556 0
M  V30 2916 C 314.287 2.16403 -0.877046 0
M  V30 2917 C 315.268 1.69217 0.173111 0
M  V30 2918 O 316.453 1.94181 0.027084 0
M  V30 2919 C 313.583 3.45349 -0.367632 0
M  V30 2920 C 312.537 4.05995 -1.35468 0
M  V30 2921 C 311.863 5.30045 -0.704038 0
M  V30 2922 C 313.163 4.45804 -2.72132 0
M  V30 2923 H 314.857 2.39959 -1.79053 0
M  V30 2924 H 312.403 1.15325 -0.862331 0
M  V30 2925 H 314.356 4.21095 -0.160317 0
M  V30 2926 H 313.08 3.21385 0.581326 0
M  V30 2927 H 311.739 3.32296 -1.54839 0
M  V30 2928 H 311.387 5.02373 0.251128 0
M  V30 2929 H 311.087 5.71579 -1.36277 0
M  V30 2930 H 312.611 6.08495 -0.50654 0
M  V30 2931 H 314.025 5.12671 -2.56595 0
M  V30 2932 H 312.422 4.98296 -3.34397 0
M  V30 2933 H 313.492 3.57083 -3.28054 0
M  V30 2934 N 314.835 0.952656 1.25548 0
M  V30 2935 C 316.083 0.605176 1.92826 0
M  V30 2936 C 316.404 -0.860261 1.74999 0
M  V30 2937 O 315.674 -1.6125 1.11244 0
M  V30 2938 H 314.254 0.220832 0.713612 0
M  V30 2939 H 316.916 1.21047 1.52754 0
M  V30 2940 H 316.012 0.832798 3.00784 0
M  V30 2941 N 316.313 -1.40141 0.720998 0
M  V30 2942 C 317.276 -2.29058 0.0805834 0
M  V30 2943 C 318.276 -1.45632 -0.681758 0
M  V30 2944 O 319.466 -1.6648 -0.512856 0
M  V30 2945 C 316.598 -3.28925 -0.895593 0
M  V30 2946 H 317.791 -2.87191 0.863793 0
M  V30 2947 H 315.344 -1.48553 0.485975 0
M  V30 2948 H 316.079 -2.75822 -1.70566 0
M  V30 2949 H 315.864 -3.90519 -0.351766 0
M  V30 2950 H 317.354 -3.95494 -1.34069 0
M  V30 2951 N 317.792 -0.46758 -1.50504 0
M  V30 2952 C 318.755 0.317059 -2.26996 0
M  V30 2953 C 319.755 0.923513 -1.31635 0
M  V30 2954 O 320.945 0.793239 -1.55091 0
M  V30 2955 C 318.077 1.45134 -3.08462 0
M  V30 2956 H 319.27 -0.353723 -2.97807 0
M  V30 2957 H 316.823 -0.221545 -1.54722 0
M  V30 2958 H 317.558 2.15728 -2.4214 0
M  V30 2959 H 317.343 1.02232 -3.78538 0
M  V30 2960 H 318.833 2.00493 -3.66323 0
M  V30 2961 N 319.27 1.56325 -0.20005 0
M  V30 2962 C 320.518 1.97329 0.436547 0
M  V30 2963 C 320.839 1.08826 1.61808 0
M  V30 2964 O 320.109 0.160604 1.95241 0
M  V30 2965 H 318.689 0.728714 0.164272 0
M  V30 2966 H 321.351 1.92761 -0.287937 0
M  V30 2967 H 320.447 3.02264 0.777353 0
M  V30 2968 N 320.748 -0.0735177 1.57428 0
M  V30 2969 C 322.164 -0.428264 1.53747 0
M  V30 2970 C 322.364 -1.79272 0.91998 0
M  V30 2971 O 321.42 -2.47051 0.521745 0
M  V30 2972 C 322.733 -0.370914 2.98404 0
M  V30 2973 C 324.281 -0.451224 3.0973 0
M  V30 2974 C 324.756 -0.4238 4.56035 0
M  V30 2975 N 326.247 -0.483925 4.60665 0
M  V30 2976 C 326.982 -0.484891 5.71346 0
M  V30 2977 N 326.478 -0.440775 6.91396 0
M  V30 2978 N 328.271 -0.531319 5.59583 0
M  V30 2979 H 320.422 0.819949 1.95935 0
M  V30 2980 H 322.685 0.307493 0.896745 0
M  V30 2981 H 322.391 0.564956 3.47133 0
M  V30 2982 H 322.265 -1.18176 3.5821 0
M  V30 2983 H 324.652 -1.37752 2.60976 0
M  V30 2984 H 324.733 0.388167 2.52838 0
M  V30 2985 H 324.377 0.498638 5.05446 0
M  V30 2986 H 324.307 -1.2807 5.10789 0
M  V30 2987 H 326.798 -0.522338 3.74273 0
M  V30 2988 H 327.111 -0.44539 7.71515 0
M  V30 2989 H 325.456 -0.40749 6.93804 0
M  V30 2990 H 328.647 -0.563464 4.64696 0
M  V30 2991 H 328.82 -0.528603 6.4584 0
M  V30 2992 N 322.226 -1.5378 -0.344866 0
M  V30 2993 C 323.474 -1.70625 -1.08311 0
M  V30 2994 C 323.795 -0.471447 -1.89215 0
M  V30 2995 O 323.065 0.514616 -1.8902 0
M  V30 2996 H 321.645 -0.629058 -0.402859 0
M  V30 2997 H 324.307 -1.9103 -0.386459 0
M  V30 2998 H 323.403 -2.57656 -1.76124 0
M  V30 2999 N 323.704 0.605807 -1.45491 0
M  V30 3000 C 325.12 0.926751 -1.29936 0
M  V30 3001 C 325.32 1.99896 -0.253706 0
M  V30 3002 O 324.376 2.50038 0.351737 0
M  V30 3003 C 325.689 1.36599 -2.67883 0
M  V30 3004 C 327.237 1.4801 -2.75793 0
M  V30 3005 C 327.712 1.95309 -4.14268 0
M  V30 3006 N 329.203 2.0254 -4.16571 0
M  V30 3007 C 329.938 2.40363 -5.20589 0
M  V30 3008 N 329.434 2.77143 -6.34952 0
M  V30 3009 N 331.227 2.40718 -5.07948 0
M  V30 3010 H 323.378 -0.102862 -2.12151 0
M  V30 3011 H 325.641 0.016639 -0.947854 0
M  V30 3012 H 325.347 0.652306 -3.45598 0
M  V30 3013 H 325.221 2.33215 -2.96463 0
M  V30 3014 H 327.608 2.1847 -1.98381 0
M  V30 3015 H 327.689 0.497041 -2.50925 0
M  V30 3016 H 327.333 1.25436 -4.92167 0
M  V30 3017 H 327.263 2.94532 -4.3653 0
M  V30 3018 H 329.754 1.76699 -3.34045 0
M  V30 3019 H 330.067 3.0489 -7.10114 0
M  V30 3020 H 328.412 2.74834 -6.3835 0
M  V30 3021 H 331.603 2.11392 -4.1765 0
M  V30 3022 H 331.776 2.69869 -5.89131 0
M  V30 3023 N 325.182 1.32811 0.848464 0
M  V30 3024 C 326.43 1.23479 1.59991 0
M  V30 3025 C 326.751 -0.201853 1.93952 0
M  V30 3026 O 326.021 -1.12818 1.60153 0
M  V30 3027 H 324.601 0.454034 0.593179 0
M  V30 3028 H 327.263 1.66412 1.01455 0
M  V30 3029 H 326.359 1.82178 2.53412 0
M  V30 3030 N 326.66 -1.06551 1.16123 0
M  V30 3031 C 327.623 -2.12132 0.867906 0
M  V30 3032 C 328.623 -1.60224 -0.135944 0
M  V30 3033 O 329.813 -1.73943 0.0946422 0
M  V30 3034 C 326.945 -3.396 0.297419 0
M  V30 3035 H 328.138 -2.39586 1.80385 0
M  V30 3036 H 325.691 -1.22574 0.969812 0
M  V30 3037 H 326.426 -3.17794 -0.64633 0
M  V30 3038 H 326.211 -3.78581 1.02073 0
M  V30 3039 H 327.701 -4.17455 0.110052 0
M  V30 3040 N 328.138 -0.959301 -1.25041 0
M  V30 3041 C 329.386 -0.615393 -1.92503 0
M  V30 3042 C 329.707 0.850969 -1.75452 0
M  V30 3043 O 328.977 1.60658 -1.12098 0
M  V30 3044 H 327.557 -0.224613 -0.712431 0
M  V30 3045 H 330.219 -1.21855 -1.5211 0
M  V30 3046 H 329.315 -0.848738 -3.00338 0
M  V30 3047 N 329.616 1.39756 -0.72842 0
M  V30 3048 C 330.549 2.28176 -0.0330172 0
M  V30 3049 C 331.527 1.44035 0.754501 0
M  V30 3050 O 332.711 1.73434 0.738445 0
M  V30 3051 C 329.838 3.24795 0.960504 0
M  V30 3052 C 328.884 4.25693 0.262264 0
M  V30 3053 S 329.717 5.25714 -1.01906 0
M  V30 3054 C 330.873 6.25894 -0.0279717 0
M  V30 3055 H 331.106 2.86807 -0.78287 0
M  V30 3056 H 328.639 1.45382 -0.519951 0
M  V30 3057 H 330.597 3.80983 1.52846 0
M  V30 3058 H 329.258 2.65196 1.68315 0
M  V30 3059 H 328.451 4.93699 1.01379 0
M  V30 3060 H 328.053 3.7327 -0.233482 0
M  V30 3061 H 330.345 6.72585 0.814621 0
M  V30 3062 H 331.288 7.04876 -0.67499 0
M  V30 3063 H 331.696 5.63466 0.341489 0
M  V30 3064 N 331.094 0.475555 1.50254 0
M  V30 3065 C 332.505 0.0215174 1.86688 0
M  V30 3066 C 332.856 -1.38467 1.39001 0
M  V30 3067 O 331.981 -2.02732 0.756894 0
M  V30 3068 C 332.576 0.0322715 3.38785 0
M  V30 3069 C 331.135 -0.366314 3.74613 0
M  V30 3070 C 330.282 0.415832 2.74164 0
M  V30 3071 H 333.233 0.689612 1.42934 0
M  V30 3072 H 333.254 -0.76889 3.7265 0
M  V30 3073 H 332.766 1.05584 3.73462 0
M  V30 3074 H 330.867 -1.39406 3.45538 0
M  V30 3075 H 330.98 -0.064555 4.79057 0
M  V30 3076 H 329.344 -0.131048 2.54363 0
M  V30 3077 H 330.127 1.43899 3.11686 0
M  V30 3078 N 332.573 -1.56217 0.208337 0
M  V30 3079 C 333.803 -2.02043 -0.431523 0
M  V30 3080 C 334.211 -1.08755 -1.54819 0
M  V30 3081 O 333.554 -0.0870009 -1.83494 0
M  V30 3082 C 333.616 -3.44239 -1.03633 0
M  V30 3083 C 333.28 -4.56965 -0.0567502 0
M  V30 3084 C 334.277 -5.14624 0.738773 0
M  V30 3085 C 331.962 -5.02266 0.0581736 0
M  V30 3086 C 333.956 -6.16045 1.63605 0
M  V30 3087 C 331.643 -6.03528 0.959001 0
M  V30 3088 C 332.641 -6.60293 1.7465 0
M  V30 3089 O 332.329 -7.59586 2.6322 0
M  V30 3090 H 332.061 -0.666772 -0.111313 0
M  V30 3091 H 334.615 -2.02919 0.318277 0
M  V30 3092 H 332.845 -3.40391 -1.83497 0
M  V30 3093 H 334.534 -3.73793 -1.58221 0
M  V30 3094 H 335.3 -4.80483 0.660364 0
M  V30 3095 H 331.179 -4.57771 -0.544633 0
M  V30 3096 H 334.723 -6.60279 2.25116 0
M  V30 3097 H 330.62 -6.37092 1.03848 0
M  V30 3098 H 331.388 -7.77057 2.57148 0
M  V30 3099 N 334.051 0.0651679 -1.57465 0
M  V30 3100 C 335.462 0.616213 -1.76238 0
M  V30 3101 C 335.813 1.7756 -0.834689 0
M  V30 3102 O 334.938 2.1639 -0.0204156 0
M  V30 3103 C 335.533 1.12462 -3.1959 0
M  V30 3104 C 334.092 1.62147 -3.39684 0
M  V30 3105 C 333.239 0.543739 -2.71917 0
M  V30 3106 H 336.19 -0.161022 -1.57881 0
M  V30 3107 H 336.211 1.99324 -3.24114 0
M  V30 3108 H 335.723 0.280592 -3.87084 0
M  V30 3109 H 333.824 2.48854 -2.77313 0
M  V30 3110 H 333.937 1.69385 -4.48158 0
M  V30 3111 H 332.301 0.990352 -2.34657 0
M  V30 3112 H 333.084 -0.290216 -3.42071 0
M  V30 3113 N 335.529 1.53961 0.336706 0
M  V30 3114 C 336.757 1.75483 1.09605 0
M  V30 3115 C 337.172 0.4972 1.82136 0
M  V30 3116 O 336.529 -0.53149 1.74589 0
M  V30 3117 C 336.58 2.93943 2.10428 0
M  V30 3118 O 336.301 4.14842 1.40846 0
M  V30 3119 C 337.802 3.27571 2.98684 0
M  V30 3120 H 335.022 0.586166 0.326574 0
M  V30 3121 H 337.566 2.00808 0.38683 0
M  V30 3122 H 335.721 2.70929 2.76905 0
M  V30 3123 H 336.135 4.81383 2.08255 0
M  V30 3124 H 337.609 4.13791 3.6535 0
M  V30 3125 H 338.086 2.44168 3.65074 0
M  V30 3126 H 338.692 3.52615 2.37787 0
M  V30 3127 N 337.007 -0.598083 1.45811 0
M  V30 3128 C 338.418 -1.18011 1.44673 0
M  V30 3129 C 338.769 -1.95378 0.179364 0
M  V30 3130 O 337.894 -2.04124 -0.718509 0
M  V30 3131 C 338.489 -2.14677 2.62105 0
M  V30 3132 C 337.048 -2.68236 2.64057 0
M  V30 3133 C 336.195 -1.43816 2.37091 0
M  V30 3134 H 339.146 -0.38686 1.53913 0
M  V30 3135 H 339.167 -2.97878 2.36746 0
M  V30 3136 H 338.679 -1.5834 3.5433 0
M  V30 3137 H 336.78 -3.28486 1.75864 0
M  V30 3138 H 336.893 -3.12021 3.63566 0
M  V30 3139 H 335.257 -1.731 1.86838 0
M  V30 3140 H 336.04 -0.893333 3.31473 0
M  V30 3141 N 338.485 -1.33259 -0.841409 0
M  V30 3142 C 339.448 -1.23221 -1.9326 0
M  V30 3143 C 340.448 -0.151895 -1.60081 0
M  V30 3144 O 341.638 -0.403246 -1.69468 0
M  V30 3145 C 338.77 -0.898123 -3.28856 0
M  V30 3146 H 339.963 -2.2021 -2.03587 0
M  V30 3147 H 337.516 -1.17281 -1.03319 0
M  V30 3148 H 338.251 0.0693841 -3.24226 0
M  V30 3149 H 338.036 -1.67934 -3.54317 0
M  V30 3150 H 339.526 -0.852563 -4.08805 0
M  V30 3151 N 339.963 1.05934 -1.16686 0
M  V30 3152 C 340.896 2.1295 -0.820225 0
M  V30 3153 C 341.874 1.61242 0.209722 0
M  V30 3154 O 343.058 1.88271 0.0929688 0
M  V30 3155 C 340.185 3.3797 -0.22223 0
M  V30 3156 C 339.231 4.08488 -1.22637 0
M  V30 3157 S 340.064 4.58015 -2.77457 0
M  V30 3158 C 341.22 5.86292 -2.19117 0
M  V30 3159 H 341.453 2.42025 -1.72659 0
M  V30 3160 H 338.986 1.18423 -0.990722 0
M  V30 3161 H 340.944 4.10335 0.116322 0
M  V30 3162 H 339.605 3.07045 0.66196 0
M  V30 3163 H 338.798 4.98291 -0.756455 0
M  V30 3164 H 338.4 3.42154 -1.51019 0
M  V30 3165 H 340.692 6.59246 -1.56209 0
M  V30 3166 H 341.635 6.38019 -3.07144 0
M  V30 3167 H 342.043 5.40497 -1.62858 0
M  V30 3168 N 341.441 0.965919 1.2453 0
M  V30 3169 C 342.373 0.452465 2.2469 0
M  V30 3170 C 343.386 -0.437821 1.56802 0
M  V30 3171 O 344.575 -0.244283 1.76821 0
M  V30 3172 C 341.675 -0.366258 3.36915 0
M  V30 3173 C 340.848 0.513701 4.34373 0
M  V30 3174 C 339.907 -0.248716 5.25612 0
M  V30 3175 O 338.933 0.356745 5.68081 0
M  V30 3176 N 340.135 -1.53877 5.59734 0
M  V30 3177 H 342.9 1.31361 2.69378 0
M  V30 3178 H 340.461 0.837541 1.38553 0
M  V30 3179 H 342.453 -0.884297 3.94921 0
M  V30 3180 H 341.023 -1.12832 2.91526 0
M  V30 3181 H 340.243 1.21273 3.75082 0
M  V30 3182 H 341.531 1.11391 4.96457 0
M  V30 3183 H 340.929 -2.05243 5.27154 0
M  V30 3184 H 339.486 -2.00254 6.20275 0
M  V30 3185 N 342.919 -1.39368 0.735821 0
M  V30 3186 C 344.167 -2.00101 0.283562 0
M  V30 3187 C 344.488 -1.5868 -1.13338 0
M  V30 3188 O 343.758 -0.835423 -1.77193 0
M  V30 3189 H 342.338 -0.740024 0.101851 0
M  V30 3190 H 345 -1.70404 0.945962 0
M  V30 3191 H 344.096 -3.10323 0.332604 0
M  V30 3192 N 344.397 -0.483516 -1.5 0
M  V30 3193 C 345.36 0.292965 -2.2732 0
M  V30 3194 C 346.36 0.909499 -1.32608 0
M  V30 3195 O 347.55 0.776745 -1.55924 0
M  V30 3196 C 344.682 1.41854 -3.09984 0
M  V30 3197 H 345.875 -0.385289 -2.97415 0
M  V30 3198 H 343.428 -0.237942 -1.54478 0
M  V30 3199 H 344.163 2.13148 -2.44414 0
M  V30 3200 H 343.948 0.982114 -3.79601 0
M  V30 3201 H 345.438 1.96597 -3.68429 0
M  V30 3202 N 345.875 1.56104 -0.216619 0
M  V30 3203 C 347.1 2.0301 0.424462 0
M  V30 3204 C 347.525 1.0955 1.52907 0
M  V30 3205 O 346.883 0.0827914 1.81111 0
M  V30 3206 C 346.931 3.4819 0.937883 0
M  V30 3207 O 346.035 3.57865 2.04955 0
M  V30 3208 H 345.376 0.656925 0.0966755 0
M  V30 3209 H 347.906 2.01859 -0.33381 0
M  V30 3210 H 347.916 3.88413 1.24897 0
M  V30 3211 H 346.591 4.15699 0.129387 0
M  V30 3212 H 345.168 3.29527 1.74546 0
M  V30 3213 N 347.353 -0.0568162 1.57498 0
M  V30 3214 C 348.578 -0.769402 1.92601 0
M  V30 3215 C 349.003 -1.69559 0.814336 0
M  V30 3216 O 348.361 -1.79811 -0.231903 0
M  V30 3217 C 348.409 -1.52634 3.26704 0
M  V30 3218 O 347.513 -2.63797 3.16994 0
M  V30 3219 H 346.854 -0.208909 0.63028 0
M  V30 3220 H 349.384 -0.0205798 2.0459 0
M  V30 3221 H 349.394 -1.90234 3.60936 0
M  V30 3222 H 348.069 -0.846875 4.07186 0
M  V30 3223 H 346.646 -2.28943 2.94346 0
M  V30 3224 N 348.832 -1.54138 -0.328536 0
M  V30 3225 C 350.057 -1.76378 -1.09112 0
M  V30 3226 C 350.482 -0.508596 -1.81094 0
M  V30 3227 O 349.84 0.539598 -1.73084 0
M  V30 3228 C 349.888 -2.95358 -2.06872 0
M  V30 3229 O 348.992 -2.66556 -3.14677 0
M  V30 3230 H 348.333 -0.584614 -0.314838 0
M  V30 3231 H 350.863 -2.01146 -0.374348 0
M  V30 3232 H 350.873 -3.22566 -2.4983 0
M  V30 3233 H 349.548 -3.86385 -1.5388 0
M  V30 3234 H 348.125 -2.50282 -2.7643 0
M  V30 3235 N 350.31 0.590341 -1.46126 0
M  V30 3236 C 351.556 1.35082 -1.51264 0
M  V30 3237 C 351.889 1.93534 -0.160711 0
M  V30 3238 O 351.164 1.76045 0.826956 0
M  V30 3239 C 351.447 2.48588 -2.6053 0
M  V30 3240 C 351.3 1.95221 -4.05227 0
M  V30 3241 C 352.619 3.50662 -2.6594 0
M  V30 3242 H 349.738 0.489803 -0.550692 0
M  V30 3243 H 352.38 0.663887 -1.78024 0
M  V30 3244 H 350.53 3.07186 -2.37843 0
M  V30 3245 H 352.202 1.41139 -4.39178 0
M  V30 3246 H 350.445 1.26101 -4.15068 0
M  V30 3247 H 351.116 2.77121 -4.77397 0
M  V30 3248 H 353.592 3.01934 -2.86313 0
M  V30 3249 H 352.468 4.27551 -3.44226 0
M  V30 3250 H 352.729 4.07399 -1.71694 0
M  V30 3251 N 351.788 1.33704 0.83433 0
M  V30 3252 C 352.718 1.26967 1.95963 0
M  V30 3253 C 353.699 0.149337 1.69443 0
M  V30 3254 O 354.884 0.339852 1.91203 0
M  V30 3255 C 352.014 1.01275 3.32206 0
M  V30 3256 C 350.968 2.09652 3.73136 0
M  V30 3257 C 350.294 1.69166 5.07235 0
M  V30 3258 C 351.594 3.51372 3.86439 0
M  V30 3259 H 353.288 2.2112 2.01857 0
M  V30 3260 H 350.834 1.06447 0.969793 0
M  V30 3261 H 352.787 0.952106 4.10503 0
M  V30 3262 H 351.511 0.0356203 3.26581 0
M  V30 3263 H 350.17 2.14766 2.97104 0
M  V30 3264 H 349.818 0.701437 4.98085 0
M  V30 3265 H 349.518 2.41694 5.35591 0
M  V30 3266 H 351.042 1.64576 5.88003 0
M  V30 3267 H 352.456 3.48734 4.55036 0
M  V30 3268 H 350.853 4.22425 4.26236 0
M  V30 3269 H 351.923 3.89546 2.88759 0
M  V30 3270 N 353.266 -1.05314 1.17247 0
M  V30 3271 C 354.229 -2.112 0.890357 0
M  V30 3272 C 355.229 -1.60359 -0.118943 0
M  V30 3273 O 356.419 -1.73833 0.113086 0
M  V30 3274 C 353.551 -3.39266 0.333422 0
M  V30 3275 H 354.744 -2.37659 1.82916 0
M  V30 3276 H 352.297 -1.21538 0.982758 0
M  V30 3277 H 353.032 -3.18462 -0.612587 0
M  V30 3278 H 352.817 -3.77477 1.06082 0
M  V30 3279 H 354.307 -4.17315 0.154322 0
M  V30 3280 N 354.744 -0.972509 -1.24016 0
M  V30 3281 C 355.654 -0.5143 -2.28893 0
M  V30 3282 C 356.67 0.427078 -1.68677 0
M  V30 3283 O 357.846 0.298939 -1.99169 0
M  V30 3284 C 354.911 0.183598 -3.46214 0
M  V30 3285 C 353.972 -0.798202 -4.21814 0
M  V30 3286 C 353.205 -0.133514 -5.33533 0
M  V30 3287 O 353.428 1.07714 -5.60137 0
M  V30 3288 O 352.362 -0.828103 -5.96176 0
M  V30 3289 H 356.188 -1.38629 -2.70214 0
M  V30 3290 H 353.773 -0.739769 -1.29799 0
M  V30 3291 H 355.655 0.575433 -4.17453 0
M  V30 3292 H 354.33 1.03048 -3.0686 0
M  V30 3293 H 353.237 -1.24059 -3.52931 0
M  V30 3294 H 354.57 -1.61364 -4.64997 0
M  V30 3295 N 356.222 1.38976 -0.743202 0
M  V30 3296 C 357.45 2.04636 -0.30525 0
M  V30 3297 C 357.865 1.56044 1.06281 0
M  V30 3298 O 357.222 0.728921 1.67311 0
M  V30 3299 C 357.273 3.60193 -0.307177 0
M  V30 3300 O 356.994 4.06998 -1.62124 0
M  V30 3301 C 358.495 4.4306 0.145928 0
M  V30 3302 H 355.715 0.65788 -0.132041 0
M  V30 3303 H 358.259 1.77866 -1.00915 0
M  V30 3304 H 356.414 3.85835 0.347898 0
M  V30 3305 H 356.828 5.01371 -1.54036 0
M  V30 3306 H 358.302 5.51921 0.0934183 0
M  V30 3307 H 358.779 4.22706 1.19231 0
M  V30 3308 H 359.385 4.22584 -0.479886 0
M  V30 3309 N 357.7 0.491464 1.49741 0
M  V30 3310 C 358.63 -0.28154 2.31796 0
M  V30 3311 C 359.611 -0.971473 1.3963 0
M  V30 3312 O 360.796 -0.964719 1.68543 0
M  V30 3313 C 357.926 -1.35203 3.19902 0
M  V30 3314 C 356.88 -0.782529 4.20786 0
M  V30 3315 C 356.206 -1.95283 4.97764 0
M  V30 3316 C 357.506 0.21999 5.21837 0
M  V30 3317 H 359.2 0.403355 2.96671 0
M  V30 3318 H 356.746 0.195425 1.42668 0
M  V30 3319 H 358.699 -1.90045 3.76113 0
M  V30 3320 H 357.423 -2.06598 2.52953 0
M  V30 3321 H 356.082 -0.255928 3.65706 0
M  V30 3322 H 355.73 -2.65423 4.2727 0
M  V30 3323 H 355.43 -1.57789 5.66018 0
M  V30 3324 H 356.954 -2.50577 5.56816 0
M  V30 3325 H 358.368 -0.23996 5.72798 0
M  V30 3326 H 356.765 0.51026 5.97927 0
M  V30 3327 H 357.835 1.13911 4.7133 0
M  V30 3328 N 359.178 -1.55987 0.224894 0
M  V30 3329 C 360.406 -2.02784 -0.410665 0
M  V30 3330 C 360.821 -1.10464 -1.53112 0
M  V30 3331 O 360.178 -0.114871 -1.82138 0
M  V30 3332 C 360.229 -3.49087 -0.939165 0
M  V30 3333 O 359.95 -4.37887 0.136614 0
M  V30 3334 C 361.451 -4.11543 -1.64763 0
M  V30 3335 H 358.671 -0.663484 -0.100148 0
M  V30 3336 H 361.215 -2.01614 0.342326 0
M  V30 3337 H 359.37 -3.50861 -1.64242 0
M  V30 3338 H 359.784 -5.23849 -0.261155 0
M  V30 3339 H 361.258 -5.15673 -1.96939 0
M  V30 3340 H 361.735 -3.56736 -2.56195 0
M  V30 3341 H 362.341 -4.13629 -0.989503 0
M  V30 3342 N 360.656 0.0484629 -1.57525 0
M  V30 3343 C 361.588 1.08222 -2.02041 0
M  V30 3344 C 362.601 1.33621 -0.930012 0
M  V30 3345 O 363.79 1.3145 -1.20761 0
M  V30 3346 C 360.89 2.42818 -2.36416 0
M  V30 3347 C 360.063 2.37049 -3.67596 0
M  V30 3348 C 359.122 3.53937 -3.89378 0
M  V30 3349 O 358.148 3.34308 -4.60681 0
M  V30 3350 N 359.35 4.75126 -3.3352 0
M  V30 3351 H 362.115 0.702946 -2.9134 0
M  V30 3352 H 359.676 0.236745 -1.6016 0
M  V30 3353 H 361.668 3.197 -2.48141 0
M  V30 3354 H 360.238 2.72661 -1.52888 0
M  V30 3355 H 359.458 1.45395 -3.66407 0
M  V30 3356 H 360.746 2.30318 -4.53686 0
M  V30 3357 H 360.144 4.93976 -2.75688 0
M  V30 3358 H 358.701 5.49439 -3.50656 0
M  V30 3359 N 362.134 1.5431 0.320358 0
M  V30 3360 C 363.38 1.72924 1.05949 0
M  V30 3361 C 363.713 0.503185 1.87568 0
M  V30 3362 O 362.988 -0.499839 1.87968 0
M  V30 3363 C 363.271 3.00676 1.98156 0
M  V30 3364 C 363.124 4.3354 1.19845 0
M  V30 3365 C 364.443 3.24198 2.9763 0
M  V30 3366 H 361.562 0.629195 0.383774 0
M  V30 3367 H 364.204 1.87008 0.335854 0
M  V30 3368 H 362.354 2.888 2.59859 0
M  V30 3369 H 364.026 4.57305 0.605773 0
M  V30 3370 H 362.269 4.309 0.500784 0
M  V30 3371 H 362.94 5.19156 1.87567 0
M  V30 3372 H 365.416 3.35557 2.4605 0
M  V30 3373 H 364.292 4.14938 3.59329 0
M  V30 3374 H 364.553 2.41577 3.7026 0
M  V30 3375 N 363.613 -0.582584 1.46437 0
M  V30 3376 C 364.838 -1.37168 1.55563 0
M  V30 3377 C 365.263 -1.87061 0.19743 0
M  V30 3378 O 364.621 -1.61572 -0.822451 0
M  V30 3379 C 364.669 -2.53511 2.56446 0
M  V30 3380 O 363.773 -3.54953 2.09958 0
M  V30 3381 H 363.114 -0.408494 0.523477 0
M  V30 3382 H 365.644 -0.706646 1.9201 0
M  V30 3383 H 365.654 -3.00426 2.76058 0
M  V30 3384 H 364.329 -2.16549 3.55076 0
M  V30 3385 H 362.906 -3.14516 2.00334 0
M  V30 3386 N 365.091 -1.34144 -0.827227 0
M  V30 3387 C 366.502 -1.23557 -1.39966 0
M  V30 3388 C 366.853 0.140731 -1.95695 0
M  V30 3389 O 365.978 1.04087 -1.89723 0
M  V30 3390 C 366.573 -2.23708 -2.54441 0
M  V30 3391 C 365.132 -2.16924 -3.07605 0
M  V30 3392 C 364.279 -2.10549 -1.80456 0
M  V30 3393 H 367.23 -1.45573 -0.631991 0
M  V30 3394 H 367.251 -1.85157 -3.32411 0
M  V30 3395 H 366.763 -3.23866 -2.13851 0
M  V30 3396 H 364.864 -1.20107 -3.52711 0
M  V30 3397 H 364.977 -3.07988 -3.66988 0
M  V30 3398 H 363.341 -1.56203 -2.01178 0
M  V30 3399 H 364.124 -3.12535 -1.42046 0
M  V30 3400 N 366.569 1.04691 -1.17803 0
M  V30 3401 C 367.501 2.12571 -0.857097 0
M  V30 3402 C 368.514 1.62174 0.142647 0
M  V30 3403 O 369.703 1.78301 -0.0843387 0
M  V30 3404 C 366.803 3.37915 -0.258216 0
M  V30 3405 C 365.976 4.1757 -1.30207 0
M  V30 3406 C 365.035 5.2125 -0.720029 0
M  V30 3407 O 364.061 5.51888 -1.39314 0
M  V30 3408 N 365.263 5.78466 0.485507 0
M  V30 3409 H 368.028 2.40698 -1.78562 0
M  V30 3410 H 365.589 1.20831 -1.07757 0
M  V30 3411 H 367.581 4.04442 0.144584 0
M  V30 3412 H 366.151 3.07281 0.574199 0
M  V30 3413 H 365.371 3.46458 -1.88043 0
M  V30 3414 H 366.659 4.67586 -2.00601 0
M  V30 3415 H 366.057 5.55866 1.05022 0
M  V30 3416 H 364.614 6.4649 0.830307 0
M  V30 3417 N 368.047 0.979072 1.23499 0
M  V30 3418 C 368.98 0.463027 2.23453 0
M  V30 3419 C 369.958 -0.469128 1.55685 0
M  V30 3420 O 371.142 -0.397882 1.84253 0
M  V30 3421 C 368.269 -0.330308 3.37086 0
M  V30 3422 C 367.315 0.545795 4.22993 0
M  V30 3423 S 368.148 1.99285 4.97037 0
M  V30 3424 C 369.304 1.20862 6.1412 0
M  V30 3425 H 369.537 1.31005 2.6688 0
M  V30 3426 H 367.07 0.784965 1.32957 0
M  V30 3427 H 369.028 -0.782027 4.02982 0
M  V30 3428 H 367.689 -1.15244 2.92194 0
M  V30 3429 H 366.882 -0.0638928 5.03959 0
M  V30 3430 H 366.484 0.933705 3.62157 0
M  V30 3431 H 368.776 0.469284 6.75873 0
M  V30 3432 H 369.719 1.99307 6.79472 0
M  V30 3433 H 370.127 0.727992 5.59786 0
M  V30 3434 N 369.525 -1.3858 0.750561 0
M  V30 3435 C 370.753 -2.04471 0.316098 0
M  V30 3436 C 371.168 -1.56606 -1.05452 0
M  V30 3437 O 370.525 -0.737784 -1.66922 0
M  V30 3438 C 370.576 -3.60025 0.326275 0
M  V30 3439 O 370.297 -4.06133 1.6428 0
M  V30 3440 C 371.798 -4.43131 -0.122429 0
M  V30 3441 H 369.018 -0.65717 0.135528 0
M  V30 3442 H 371.562 -1.77329 1.01857 0
M  V30 3443 H 369.717 -3.86014 -0.327431 0
M  V30 3444 H 370.131 -5.00547 1.56693 0
M  V30 3445 H 371.605 -5.51963 -0.0641473 0
M  V30 3446 H 372.082 -4.23333 -1.16988 0
M  V30 3447 H 372.688 -4.22323 0.50229 0
M  V30 3448 N 371.003 -0.499398 -1.49478 0
M  V30 3449 C 372.251 0.0455996 -2.02049 0
M  V30 3450 C 372.572 1.37633 -1.38138 0
M  V30 3451 O 371.842 1.8842 -0.536166 0
M  V30 3452 H 370.422 0.0198416 -0.746736 0
M  V30 3453 H 373.084 -0.656274 -1.83519 0
M  V30 3454 H 372.18 0.176445 -3.11601 0
M  V30 3455 N 372.481 1.55866 -0.233164 0
M  V30 3456 C 373.431 2.17442 0.685774 0
M  V30 3457 C 374.415 1.12617 1.14918 0
M  V30 3458 O 375.607 1.3857 1.10124 0
M  V30 3459 C 372.736 2.86685 1.88856 0
M  V30 3460 C 371.822 3.98749 1.4443 0
M  V30 3461 N 372.213 5.00744 0.713364 0
M  V30 3462 C 370.511 4.11052 1.73068 0
M  V30 3463 C 371.212 5.79673 0.485205 0
M  V30 3464 N 370.188 5.33454 1.04536 0
M  V30 3465 H 373.99 2.93659 0.119022 0
M  V30 3466 H 371.504 1.62362 -0.0348995 0
M  V30 3467 H 373.501 3.29218 2.55776 0
M  V30 3468 H 372.161 2.11967 2.45967 0
M  V30 3469 H 373.172 5.16613 0.364861 0
M  V30 3470 H 369.849 3.47495 2.31416 0
M  V30 3471 H 371.239 6.71829 -0.097365 0
M  V30 3472 N 373.959 -0.0401083 1.57549 0
M  V30 3473 C 374.922 -1.02871 2.04817 0
M  V30 3474 C 375.922 -1.29708 0.950388 0
M  V30 3475 O 377.112 -1.24897 1.21435 0
M  V30 3476 C 374.244 -2.36443 2.45576 0
M  V30 3477 H 375.437 -0.620631 2.93408 0
M  V30 3478 H 372.99 -0.286667 1.53649 0
M  V30 3479 H 373.725 -2.82021 1.60108 0
M  V30 3480 H 373.51 -2.18296 3.25713 0
M  V30 3481 H 375 -3.07441 2.82612 0
M  V30 3482 N 375.437 -1.54477 -0.31217 0
M  V30 3483 C 376.685 -1.72884 -1.04668 0
M  V30 3484 C 377.006 -0.511477 -1.88173 0
M  V30 3485 O 376.276 0.474407 -1.90069 0
M  V30 3486 H 374.856 -0.637461 -0.389425 0
M  V30 3487 H 377.518 -1.91807 -0.345852 0
M  V30 3488 H 376.614 -2.61334 -1.70619 0
M  V30 3489 N 376.915 0.57481 -1.46744 0
M  V30 3490 C 377.845 1.69337 -1.60771 0
M  V30 3491 C 378.826 1.63825 -0.457736 0
M  V30 3492 O 380.011 1.8172 -0.684947 0
M  V30 3493 C 377.141 3.0798 -1.60517 0
M  V30 3494 C 376.095 3.28327 -2.74564 0
M  V30 3495 C 375.421 4.67578 -2.59373 0
M  V30 3496 C 376.721 3.15398 -4.16319 0
M  V30 3497 H 378.415 1.57853 -2.54407 0
M  V30 3498 H 375.961 0.75799 -1.22436 0
M  V30 3499 H 377.914 3.86061 -1.68923 0
M  V30 3500 H 376.638 3.20381 -0.634305 0
M  V30 3501 H 375.297 2.52649 -2.65639 0
M  V30 3502 H 374.945 4.76755 -1.60353 0
M  V30 3503 H 374.645 4.82144 -3.35873 0
M  V30 3504 H 376.169 5.47817 -2.69682 0
M  V30 3505 H 377.583 3.83315 -4.26313 0
M  V30 3506 H 375.98 3.41482 -4.93468 0
M  V30 3507 H 377.05 2.12372 -4.3592 0
M  V30 3508 N 378.394 1.34581 0.820102 0
M  V30 3509 C 379.342 1.26401 1.95258 0
M  V30 3510 C 380.336 0.161553 1.68628 0
M  V30 3511 O 381.542 0.326703 1.7701 0
M  V30 3512 H 377.917 0.392749 0.64129 0
M  V30 3513 H 379.888 2.22105 1.99279 0
M  V30 3514 C 378.637 1.03919 3.31807 0
M  V30 3515 H 377.96 1.87984 3.52848 0
M  V30 3516 H 379.4 1.02232 4.11491 0
M  V30 3517 C 377.859 -0.257433 3.35915 0
M  V30 3518 O 378.389 -1.25784 3.81499 0
M  V30 3519 N 376.595 -0.291524 2.89134 0
M  V30 3520 H 376.142 0.523161 2.52232 0
M  V30 3521 H 376.1 -1.15883 2.92264 0
M  V30 3522 N 379.872 -1.04064 1.18357 0
M  V30 3523 C 381.1 -1.80916 1.00384 0
M  V30 3524 C 381.515 -1.83414 -0.447738 0
M  V30 3525 O 380.872 -1.26962 -1.31099 0
M  V30 3526 C 380.923 -3.26516 1.55144 0
M  V30 3527 O 380.644 -3.2424 2.94618 0
M  V30 3528 C 382.145 -4.20013 1.41789 0
M  V30 3529 H 379.365 -0.569728 0.354474 0
M  V30 3530 H 381.909 -1.31151 1.56906 0
M  V30 3531 H 380.064 -3.73512 1.02798 0
M  V30 3532 H 380.478 -4.15452 3.20156 0
M  V30 3533 H 381.952 -5.20111 1.84901 0
M  V30 3534 H 382.429 -4.37667 0.36661 0
M  V30 3535 H 383.035 -3.78881 1.93207 0
M  V30 3536 N 381.35 -0.985608 -1.22978 0
M  V30 3537 C 382.313 -0.535071 -2.22867 0
M  V30 3538 C 383.313 0.378123 -1.56291 0
M  V30 3539 O 384.503 0.171092 -1.73358 0
M  V30 3540 C 381.635 0.222702 -3.40172 0
M  V30 3541 H 382.828 -1.41835 -2.6424 0
M  V30 3542 H 380.381 -0.772042 -1.35901 0
M  V30 3543 H 381.116 1.12229 -3.04262 0
M  V30 3544 H 380.901 -0.43288 -3.89703 0
M  V30 3545 H 382.391 0.526335 -4.1427 0
M  V30 3546 N 382.828 1.3818 -0.7579 0
M  V30 3547 C 383.76 2.2901 -0.0932177 0
M  V30 3548 C 384.773 1.47958 0.679136 0
M  V30 3549 O 385.962 1.70773 0.519514 0
M  V30 3550 C 383.062 3.26953 0.89192 0
M  V30 3551 C 382.235 4.37045 0.176303 0
M  V30 3552 C 381.294 5.15148 1.07281 0
M  V30 3553 O 380.32 5.66616 0.541728 0
M  V30 3554 N 381.522 5.28542 2.40049 0
M  V30 3555 H 384.287 2.86694 -0.873303 0
M  V30 3556 H 381.848 1.50007 -0.609054 0
M  V30 3557 H 383.84 3.76083 1.49479 0
M  V30 3558 H 382.41 2.70136 1.57306 0
M  V30 3559 H 381.63 3.89493 -0.607328 0
M  V30 3560 H 382.918 5.07801 -0.318718 0
M  V30 3561 H 382.316 4.88285 2.85647 0
M  V30 3562 H 380.873 5.8103 2.95376 0
M  V30 3563 N 384.306 0.507319 1.49211 0
M  V30 3564 C 385.269 -0.256763 2.27757 0
M  V30 3565 C 386.269 -0.888287 1.34038 0
M  V30 3566 O 387.459 -0.751841 1.5714 0
M  V30 3567 C 384.591 -1.36905 3.12202 0
M  V30 3568 H 385.784 0.432557 2.96764 0
M  V30 3569 H 383.337 0.262488 1.5408 0
M  V30 3570 H 384.072 -2.09233 2.47775 0
M  V30 3571 H 383.857 -0.921599 3.81115 0
M  V30 3572 H 385.347 -1.9071 3.7151 0
M  V30 3573 N 385.784 -1.5574 0.241426 0
M  V30 3574 C 387.032 -1.98417 -0.384075 0
M  V30 3575 C 387.353 -1.13078 -1.58866 0
M  V30 3576 O 386.623 -0.212312 -1.94746 0
M  V30 3577 H 385.203 -0.732813 -0.144894 0
M  V30 3578 H 387.865 -1.9193 0.338943 0
M  V30 3579 H 386.961 -3.04219 -0.696939 0
M  V30 3580 N 387.262 0.0317525 -1.57568 0
M  V30 3581 C 388.51 0.721676 -1.88776 0
M  V30 3582 C 388.831 1.76039 -0.838772 0
M  V30 3583 O 388.101 1.95482 0.127935 0
M  V30 3584 H 386.681 0.269534 -0.696678 0
M  V30 3585 H 389.343 -0.00165879 -1.949 0
M  V30 3586 H 388.439 1.21293 -2.87566 0
M  V30 3587 N 388.74 1.54641 0.303973 0
M  V30 3588 C 389.673 1.80263 1.3993 0
M  V30 3589 C 390.651 0.653657 1.48883 0
M  V30 3590 O 391.835 0.893284 1.6599 0
M  V30 3591 C 388.962 1.9367 2.77866 0
M  V30 3592 C 388.008 3.16078 2.86351 0
M  V30 3593 S 388.841 4.74219 2.4875 0
M  V30 3594 C 389.997 4.90558 3.88721 0
M  V30 3595 H 390.23 2.72886 1.17986 0
M  V30 3596 H 387.763 1.46014 0.501918 0
M  V30 3597 H 389.721 2.0208 3.57315 0
M  V30 3598 H 388.382 1.01991 2.9708 0
M  V30 3599 H 387.575 3.22252 3.87517 0
M  V30 3600 H 387.177 3.06099 2.14893 0
M  V30 3601 H 389.469 4.74398 4.83687 0
M  V30 3602 H 390.412 5.92651 3.87518 0
M  V30 3603 H 390.82 4.18728 3.78585 0
M  V30 3604 N 390.218 -0.567019 1.47046 0
M  V30 3605 C 391.181 -1.65696 1.58359 0
M  V30 3606 C 392.181 -1.54097 0.459441 0
M  V30 3607 O 393.371 -1.58432 0.724225 0
M  V30 3608 C 390.503 -3.05197 1.51879 0
M  V30 3609 H 391.696 -1.57019 2.5551 0
M  V30 3610 H 389.249 -0.786148 1.3509 0
M  V30 3611 H 389.984 -3.19417 0.560673 0
M  V30 3612 H 389.769 -3.15025 2.33455 0
M  V30 3613 H 391.259 -3.84511 1.62913 0
M  V30 3614 N 391.696 -1.35014 -0.812953 0
M  V30 3615 C 392.643 -1.27412 -1.92444 0
M  V30 3616 C 393.613 -0.14733 -1.65445 0
M  V30 3617 O 394.798 -0.329974 -1.87925 0
M  V30 3618 C 391.938 -1.04558 -3.28879 0
M  V30 3619 C 391.051 -2.26101 -3.68106 0
M  V30 3620 C 390.186 -1.96449 -4.9354 0
M  V30 3621 C 389.225 -3.14081 -5.25376 0
M  V30 3622 N 388.362 -2.84246 -6.41988 0
M  V30 3623 H 393.202 -2.22463 -1.98278 0
M  V30 3624 H 390.739 -1.10593 -0.969933 0
M  V30 3625 H 392.697 -0.893413 -4.07522 0
M  V30 3626 H 391.327 -0.131719 -3.22531 0
M  V30 3627 H 390.379 -2.52204 -2.84775 0
M  V30 3628 H 391.691 -3.13959 -3.87597 0
M  V30 3629 H 390.845 -1.78026 -5.79993 0
M  V30 3630 H 389.584 -1.05867 -4.76071 0
M  V30 3631 H 388.589 -3.33089 -4.37415 0
M  V30 3632 H 389.814 -4.05455 -5.44778 0
M  V30 3633 H 387.76 -1.96252 -6.25956 0
M  V30 3634 H 387.677 -3.65637 -6.61699 0
M  V30 3635 H 388.945 -2.6935 -7.31485 0
M  V30 3636 N 393.175 1.03435 -1.18907 0
M  V30 3637 C 394.108 2.11162 -0.86521 0
M  V30 3638 C 395.086 1.6165 0.175473 0
M  V30 3639 O 396.27 1.88425 0.0530129 0
M  V30 3640 C 393.397 3.37423 -0.293868 0
M  V30 3641 C 392.443 4.05795 -1.31274 0
M  V30 3642 S 393.276 4.52027 -2.8711 0
M  V30 3643 C 394.432 5.81513 -2.31504 0
M  V30 3644 H 394.665 2.38308 -1.77754 0
M  V30 3645 H 392.198 1.16295 -1.01562 0
M  V30 3646 H 394.156 4.1049 0.0292572 0
M  V30 3647 H 392.817 3.0838 0.596682 0
M  V30 3648 H 392.01 4.96574 -0.86198 0
M  V30 3649 H 391.612 3.38874 -1.58242 0
M  V30 3650 H 393.904 6.55784 -1.70157 0
M  V30 3651 H 394.847 6.3136 -3.20608 0
M  V30 3652 H 395.255 5.36921 -1.74286 0
M  V30 3653 N 394.653 0.992116 1.22453 0
M  V30 3654 C 395.901 0.666215 1.90804 0
M  V30 3655 C 396.222 -0.804152 1.77647 0
M  V30 3656 O 395.492 -1.57629 1.16318 0
M  V30 3657 H 394.072 0.243423 0.706225 0
M  V30 3658 H 396.734 1.25845 1.48825 0
M  V30 3659 H 395.83 0.928069 2.97982 0
M  V30 3660 N 396.131 -1.37776 0.765217 0
M  V30 3661 C 397.38 -1.99092 0.323307 0
M  V30 3662 C 397.693 -1.61434 -1.10446 0
M  V30 3663 O 398.899 -2.15805 -1.64743 0
M  V30 3664 C 397.355 -3.56019 0.527098 0
M  V30 3665 C 396.963 -4.0262 1.96471 0
M  V30 3666 C 398.707 -4.2424 0.148483 0
M  V30 3667 C 396.614 -5.52233 2.11644 0
M  V30 3668 H 395.544 -0.744846 0.117137 0
M  V30 3669 H 398.195 -1.57391 0.943417 0
M  V30 3670 H 396.577 -3.95667 -0.162372 0
M  V30 3671 H 397.751 -3.74234 2.68859 0
M  V30 3672 H 396.066 -3.47161 2.29931 0
M  V30 3673 H 398.663 -5.34159 0.240456 0
M  V30 3674 H 399.006 -4.06446 -0.900422 0
M  V30 3675 H 399.539 -3.89872 0.79025 0
M  V30 3676 H 396.278 -5.74945 3.1483 0
M  V30 3677 H 395.798 -5.82324 1.4373 0
M  V30 3678 H 397.477 -6.18106 1.91193 0
M  V30 3679 N 397.609 -0.515225 -1.4894 0
M  V30 3680 C 398.837 0.0206034 -2.0689 0
M  V30 3681 C 399.252 1.29514 -1.37374 0
M  V30 3682 O 398.609 1.76698 -0.456529 0
M  V30 3683 C 398.66 0.26351 -3.60538 0
M  V30 3684 O 398.381 -0.960517 -4.27441 0
M  V30 3685 C 399.882 0.841383 -4.35242 0
M  V30 3686 H 397.102 -0.0268608 -0.670462 0
M  V30 3687 H 399.646 -0.716651 -1.91532 0
M  V30 3688 H 397.801 0.950777 -3.75552 0
M  V30 3689 H 398.215 -0.73212 -5.19365 0
M  V30 3690 H 399.689 0.96085 -5.43573 0
M  V30 3691 H 400.166 1.8427 -3.98674 0
M  V30 3692 H 400.772 0.191143 -4.2487 0
M  V30 3693 N 399.087 1.5561 -0.249682 0
M  V30 3694 C 400.335 1.98618 0.373548 0
M  V30 3695 C 400.656 1.13919 1.58264 0
M  V30 3696 O 399.926 0.222637 1.94631 0
M  V30 3697 H 398.506 0.733571 0.141006 0
M  V30 3698 H 401.168 1.91748 -0.349117 0
M  V30 3699 H 400.264 3.04584 0.680796 0
M  V30 3700 N 400.565 -0.0233959 1.57583 0
M  V30 3701 C 401.513 -1.04063 2.08023 0
M  V30 3702 C 402.507 -1.37084 0.995204 0
M  V30 3703 O 403.713 -1.35923 1.18004 0
M  V30 3704 H 400.088 -0.353144 0.663922 0
M  V30 3705 H 402.059 -0.589453 2.9252 0
M  V30 3706 C 400.808 -2.33123 2.57971 0
M  V30 3707 H 400.131 -2.08577 3.4108 0
M  V30 3708 H 401.571 -3.02632 2.96967 0
M  V30 3709 C 400.03 -3.02483 1.48342 0
M  V30 3710 O 400.56 -3.92541 0.852898 0
M  V30 3711 N 398.766 -2.63909 1.21658 0
M  V30 3712 H 398.313 -1.90758 1.73116 0
M  V30 3713 H 398.271 -3.10633 0.485218 0
M  V30 3714 N 402.043 -1.548 -0.295768 0
M  V30 3715 C 403.271 -1.78327 -1.04914 0
M  V30 3716 C 403.686 -0.545316 -1.80753 0
M  V30 3717 O 403.043 0.485013 -1.75937 0
M  V30 3718 C 403.094 -2.99418 -2.02561 0
M  V30 3719 O 402.815 -4.18431 -1.29798 0
M  V30 3720 C 404.316 -3.35375 -2.89895 0
M  V30 3721 H 401.536 -0.594618 -0.310918 0
M  V30 3722 H 404.08 -2.01763 -0.333454 0
M  V30 3723 H 402.235 -2.78175 -2.69624 0
M  V30 3724 H 402.649 -4.86736 -1.95419 0
M  V30 3725 H 404.123 -4.23332 -3.54251 0
M  V30 3726 H 404.6 -2.53761 -3.58472 0
M  V30 3727 H 405.206 -3.58796 -2.28355 0
M  V30 3728 N 403.521 0.559213 -1.47345 0
M  V30 3729 C 404.746 1.34676 -1.57725 0
M  V30 3730 C 405.171 1.86723 -0.227164 0
M  V30 3731 O 404.529 1.6286 0.796642 0
M  V30 3732 C 404.577 2.49399 -2.60447 0
M  V30 3733 O 403.681 3.51567 -2.15578 0
M  V30 3734 H 403.022 0.400115 -0.52991 0
M  V30 3735 H 405.552 0.676009 -1.93109 0
M  V30 3736 H 405.562 2.95996 -2.80803 0
M  V30 3737 H 404.237 2.10873 -3.58477 0
M  V30 3738 H 402.814 3.11289 -2.05313 0
M  V30 3739 N 404.999 1.35443 0.805782 0
M  V30 3740 C 406.41 1.25768 1.37983 0
M  V30 3741 C 406.761 -0.10958 1.95894 0
M  V30 3742 O 405.886 -1.01056 1.91355 0
M  V30 3743 C 406.481 2.27727 2.5085 0
M  V30 3744 C 405.04 2.2179 3.04115 0
M  V30 3745 C 404.187 2.13393 1.77084 0
M  V30 3746 H 407.138 1.4656 0.608752 0
M  V30 3747 H 407.159 1.90422 3.29424 0
M  V30 3748 H 406.671 3.27227 2.08671 0
M  V30 3749 H 404.772 1.25703 3.50756 0
M  V30 3750 H 404.885 3.13788 3.62042 0
M  V30 3751 H 403.249 1.59384 1.98668 0
M  V30 3752 H 404.032 3.14755 1.37056 0
M  V30 3753 N 406.477 -1.02803 1.19454 0
M  V30 3754 C 407.724 -1.76217 0.997693 0
M  V30 3755 C 408.052 -1.887 -0.47144 0
M  V30 3756 O 407.307 -1.4011 -1.3663 0
M  V30 3757 C 407.606 -3.18941 1.6128 0
M  V30 3758 C 407.272 -3.26463 3.11019 0
M  V30 3759 C 405.934 -3.28223 3.51885 0
M  V30 3760 C 408.286 -3.25542 4.07028 0
M  V30 3761 C 405.614 -3.26719 4.8731 0
M  V30 3762 C 407.966 -3.25579 5.42385 0
M  V30 3763 C 406.63 -3.25637 5.82681 0
M  V30 3764 H 405.9 -0.644823 0.365082 0
M  V30 3765 H 408.547 -1.20655 1.4871 0
M  V30 3766 H 406.852 -3.77587 1.04572 0
M  V30 3767 H 408.549 -3.74415 1.43577 0
M  V30 3768 H 405.139 -3.25822 2.78457 0
M  V30 3769 H 409.323 -3.23362 3.76498 0
M  V30 3770 H 404.579 -3.25089 5.1781 0
M  V30 3771 H 408.753 -3.23817 6.16535 0
M  V30 3772 H 406.38 -3.24226 6.87591 0
M  V30 3773 N 407.956 -0.998596 -1.21925 0
M  V30 3774 C 409.204 -0.676325 -1.90448 0
M  V30 3775 C 409.525 0.794719 -1.78071 0
M  V30 3776 O 408.795 1.5701 -1.17152 0
M  V30 3777 H 407.375 -0.247165 -0.704925 0
M  V30 3778 H 410.037 -1.26633 -1.48156 0
M  V30 3779 H 409.133 -0.943858 -2.97486 0
M  V30 3780 N 409.434 1.37368 -0.772513 0
M  V30 3781 C 410.366 2.28899 -0.117502 0
M  V30 3782 C 411.379 1.4867 0.663405 0
M  V30 3783 O 412.568 1.71314 0.501372 0
M  V30 3784 C 409.668 3.2788 0.857192 0
M  V30 3785 C 408.841 4.37207 0.129938 0
M  V30 3786 C 407.9 5.16257 1.01811 0
M  V30 3787 O 406.926 5.67159 0.481601 0
M  V30 3788 N 408.128 5.31058 2.3443 0
M  V30 3789 H 410.893 2.85752 -0.903662 0
M  V30 3790 H 408.454 1.49353 -0.62493 0
M  V30 3791 H 410.446 3.77647 1.45482 0
M  V30 3792 H 409.016 2.7179 1.54432 0
M  V30 3793 H 408.236 3.88827 -0.648605 0
M  V30 3794 H 409.524 5.07434 -0.372559 0
M  V30 3795 H 408.922 4.91287 2.80452 0
M  V30 3796 H 407.479 5.84131 2.89197 0
M  V30 3797 N 410.912 0.523116 1.48665 0
M  V30 3798 C 412.323 0.0808997 1.86525 0
M  V30 3799 C 412.674 -1.33975 1.43336 0
M  V30 3800 O 411.799 -2.00221 0.821009 0
M  V30 3801 C 412.394 0.140037 3.3851 0
M  V30 3802 C 410.953 -0.246948 3.75589 0
M  V30 3803 C 410.1 0.502845 2.72703 0
M  V30 3804 H 413.051 0.734736 1.40667 0
M  V30 3805 H 413.072 -0.649945 3.74908 0
M  V30 3806 H 412.584 1.17412 3.69914 0
M  V30 3807 H 410.685 -1.28343 3.49798 0
M  V30 3808 H 410.798 0.0878859 4.79019 0
M  V30 3809 H 409.162 -0.0500581 2.54651 0
M  V30 3810 H 409.945 1.53743 3.0695 0
M  V30 3811 N 412.39 -1.55475 0.257931 0
M  V30 3812 C 413.637 -1.99207 -0.363728 0
M  V30 3813 C 413.965 -1.1462 -1.57139 0
M  V30 3814 O 413.22 -0.199653 -1.94679 0
M  V30 3815 C 413.519 -3.48183 -0.806433 0
M  V30 3816 C 413.185 -4.49936 0.294684 0
M  V30 3817 C 411.847 -4.77481 0.597076 0
M  V30 3818 C 414.199 -5.10769 1.03751 0
M  V30 3819 C 411.527 -5.63132 1.64618 0
M  V30 3820 C 413.879 -5.97558 2.07622 0
M  V30 3821 C 412.543 -6.23432 2.38514 0
M  V30 3822 H 411.813 -0.728949 -0.133097 0
M  V30 3823 H 414.46 -1.8793 0.368059 0
M  V30 3824 H 412.765 -3.56848 -1.61761 0
M  V30 3825 H 414.462 -3.79415 -1.29789 0
M  V30 3826 H 411.052 -4.28572 0.0488649 0
M  V30 3827 H 415.236 -4.89527 0.817149 0
M  V30 3828 H 410.492 -5.8143 1.89074 0
M  V30 3829 H 414.666 -6.43735 2.65666 0
M  V30 3830 H 412.293 -6.89594 3.19943 0
M  V30 3831 N 413.868 0.0150385 -1.57593 0
M  V30 3832 C 415.093 0.718067 -1.94573 0
M  V30 3833 C 415.518 1.6734 -0.859005 0
M  V30 3834 O 414.876 1.80362 0.184147 0
M  V30 3835 C 414.924 1.43918 -3.30636 0
M  V30 3836 O 414.028 2.55299 -3.23876 0
M  V30 3837 H 413.369 0.192125 -0.635597 0
M  V30 3838 H 415.899 -0.0336708 -2.04572 0
M  V30 3839 H 415.909 1.80598 -3.65853 0
M  V30 3840 H 414.584 0.738619 -4.09289 0
M  V30 3841 H 413.161 2.21058 -3.00312 0
M  V30 3842 N 415.346 1.54954 0.287554 0
M  V30 3843 C 416.278 1.83224 1.37701 0
M  V30 3844 C 417.291 0.715898 1.46215 0
M  V30 3845 O 418.48 0.993565 1.48292 0
M  V30 3846 C 415.58 1.96723 2.75959 0
M  V30 3847 C 414.753 3.27253 2.90215 0
M  V30 3848 C 413.812 3.30998 4.09056 0
M  V30 3849 O 412.838 4.04457 4.00503 0
M  V30 3850 N 414.04 2.57353 5.20336 0
M  V30 3851 H 416.805 2.77254 1.138 0
M  V30 3852 H 414.366 1.54694 0.477652 0
M  V30 3853 H 416.358 1.96615 3.5373 0
M  V30 3854 H 414.928 1.09626 2.92747 0
M  V30 3855 H 414.148 3.40022 1.99447 0
M  V30 3856 H 415.436 4.13365 2.96659 0
M  V30 3857 H 414.834 1.97327 5.30169 0
M  V30 3858 H 413.391 2.62984 5.96391 0
M  V30 3859 N 416.824 -0.551391 1.4764 0
M  V30 3860 C 417.787 -1.64007 1.60107 0
M  V30 3861 C 418.787 -1.53601 0.47576 0
M  V30 3862 O 419.977 -1.57655 0.740988 0
M  V30 3863 C 417.109 -3.03569 1.55108 0
M  V30 3864 H 418.302 -1.543 2.57161 0
M  V30 3865 H 415.855 -0.771776 1.35917 0
M  V30 3866 H 416.59 -3.18804 0.594519 0
M  V30 3867 H 416.375 -3.12532 2.36783 0
M  V30 3868 H 417.865 -3.82762 1.66982 0
M  V30 3869 N 418.302 -1.35869 -0.798587 0
M  V30 3870 C 419.55 -1.29332 -1.55298 0
M  V30 3871 C 419.871 0.129729 -1.94568 0
M  V30 3872 O 419.141 1.06796 -1.6423 0
M  V30 3873 H 417.721 -0.475737 -0.57592 0
M  V30 3874 H 420.383 -1.70062 -0.952093 0
M  V30 3875 H 419.479 -1.91458 -2.46476 0
M  V30 3876 N 419.78 1.02168 -1.19998 0
M  V30 3877 C 421.028 1.75338 -1.00504 0
M  V30 3878 C 421.349 1.89387 0.464506 0
M  V30 3879 O 420.619 1.43268 1.33608 0
M  V30 3880 H 419.199 0.649564 -0.368885 0
M  V30 3881 H 421.861 1.23205 -1.51018 0
M  V30 3882 H 420.957 2.75892 -1.45912 0
M  V30 3883 N 421.258 1.00505 1.21394 0
M  V30 3884 C 422.19 0.52372 2.23136 0
M  V30 3885 C 423.203 -0.387714 1.58116 0
M  V30 3886 O 424.392 -0.187905 1.77508 0
M  V30 3887 C 421.492 -0.258885 3.3791 0
M  V30 3888 C 420.665 0.651634 4.32519 0
M  V30 3889 C 419.724 -0.0813705 5.26137 0
M  V30 3890 O 418.75 0.537295 5.66658 0
M  V30 3891 N 419.952 -1.35992 5.64346 0
M  V30 3892 H 422.717 1.39865 2.65062 0
M  V30 3893 H 420.278 0.881196 1.35818 0
M  V30 3894 H 422.27 -0.758208 3.97534 0
M  V30 3895 H 420.84 -1.035 2.94968 0
M  V30 3896 H 420.06 1.33145 3.71034 0
M  V30 3897 H 421.348 1.27129 4.92662 0
M  V30 3898 H 420.746 -1.88368 5.33417 0
M  V30 3899 H 419.303 -1.8042 6.26332 0
M  V30 3900 N 422.737 -1.36956 0.779787 0
M  V30 3901 C 424.148 -1.82094 0.412156 0
M  V30 3902 C 424.499 -1.64926 -1.06273 0
M  V30 3903 O 423.624 -1.16483 -1.82375 0
M  V30 3904 C 424.219 -3.3059 0.741319 0
M  V30 3905 C 422.778 -3.73974 0.426641 0
M  V30 3906 C 421.925 -2.59368 0.980987 0
M  V30 3907 H 424.876 -1.25314 0.973758 0
M  V30 3908 H 424.897 -3.80489 0.028887 0
M  V30 3909 H 424.409 -3.43054 1.81482 0
M  V30 3910 H 422.51 -3.67076 -0.639215 0
M  V30 3911 H 422.623 -4.69778 0.940515 0
M  V30 3912 H 420.987 -2.51463 0.404757 0
M  V30 3913 H 421.77 -2.74621 2.06005 0
M  V30 3914 N 424.215 -0.530993 -1.48385 0
M  V30 3915 C 425.148 0.278511 -2.26494 0
M  V30 3916 C 426.126 0.943905 -1.32398 0
M  V30 3917 O 427.31 0.968098 -1.61741 0
M  V30 3918 C 424.437 1.39453 -3.08659 0
M  V30 3919 C 423.483 0.840434 -4.18137 0
M  V30 3920 S 424.316 -0.292496 -5.34701 0
M  V30 3921 C 425.472 0.825973 -6.20426 0
M  V30 3922 H 425.705 -0.384365 -2.94805 0
M  V30 3923 H 423.238 -0.316799 -1.51115 0
M  V30 3924 H 425.196 2.03382 -3.56575 0
M  V30 3925 H 423.857 2.02913 -2.3976 0
M  V30 3926 H 423.05 1.67769 -4.75257 0
M  V30 3927 H 422.652 0.277819 -3.72967 0
M  V30 3928 H 424.944 1.72438 -6.55188 0
M  V30 3929 H 425.887 0.292728 -7.07495 0
M  V30 3930 H 426.295 1.10683 -5.53543 0
M  V30 3931 N 425.693 1.55336 -0.266172 0
M  V30 3932 C 426.941 1.99003 0.35246 0
M  V30 3933 C 427.262 1.15591 1.57047 0
M  V30 3934 O 426.532 0.243268 1.94384 0
M  V30 3935 H 425.112 0.735025 0.133217 0
M  V30 3936 H 427.774 1.91367 -0.369434 0
M  V30 3937 H 426.87 3.05289 0.648453 0
M  V30 3938 N 427.171 -0.0066808 1.57599 0
M  V30 3939 C 428.134 -0.985035 2.06953 0
M  V30 3940 C 429.134 -1.27663 0.977687 0
M  V30 3941 O 430.324 -1.22293 1.24057 0
M  V30 3942 C 427.456 -2.3118 2.50536 0
M  V30 3943 H 428.649 -0.558255 2.94658 0
M  V30 3944 H 426.202 -0.254011 1.54222 0
M  V30 3945 H 426.937 -2.78561 1.66054 0
M  V30 3946 H 426.722 -2.11338 3.3027 0
M  V30 3947 H 428.212 -3.01377 2.8907 0
M  V30 3948 N 428.649 -1.55105 -0.279332 0
M  V30 3949 C 429.877 -1.7943 -1.03017 0
M  V30 3950 C 430.292 -0.564456 -1.80165 0
M  V30 3951 O 429.649 0.466326 -1.76442 0
M  V30 3952 C 429.7 -3.0155 -1.99374 0
M  V30 3953 O 429.421 -4.19784 -1.25352 0
M  V30 3954 C 430.922 -3.3843 -2.86321 0
M  V30 3955 H 428.142 -0.597882 -0.304594 0
M  V30 3956 H 430.686 -2.02105 -0.312035 0
M  V30 3957 H 428.841 -2.81019 -2.66659 0
M  V30 3958 H 429.255 -4.88781 -1.90246 0
M  V30 3959 H 430.729 -4.27066 -3.49741 0
M  V30 3960 H 431.206 -2.57549 -3.5576 0
M  V30 3961 H 431.812 -3.61197 -2.24536 0
M  V30 3962 N 430.127 0.543554 -1.4793 0
M  V30 3963 C 431.375 1.29752 -1.54948 0
M  V30 3964 C 431.696 1.93764 -0.219242 0
M  V30 3965 O 430.966 1.80639 0.75805 0
M  V30 3966 H 429.546 0.481874 -0.570795 0
M  V30 3967 H 432.208 0.633636 -1.84312 0
M  V30 3968 H 431.304 2.08392 -2.32334 0
M  V30 3969 N 431.605 1.3629 0.791371 0
M  V30 3970 C 432.851 1.30605 1.55146 0
M  V30 3971 C 433.184 -0.115042 1.93859 0
M  V30 3972 O 432.459 -1.06798 1.62556 0
M  V30 3973 C 432.742 2.22692 2.82985 0
M  V30 3974 C 432.595 3.73489 2.50651 0
M  V30 3975 C 433.914 2.13588 3.84796 0
M  V30 3976 H 431.033 0.475761 0.562868 0
M  V30 3977 H 433.675 1.66825 0.909358 0
M  V30 3978 H 431.825 1.91933 3.37778 0
M  V30 3979 H 433.497 4.14758 2.01924 0
M  V30 3980 H 431.74 3.93021 1.83622 0
M  V30 3981 H 432.411 4.3333 3.41949 0
M  V30 3982 H 434.887 2.40659 3.39445 0
M  V30 3983 H 433.763 2.80195 4.71998 0
M  V30 3984 H 434.024 1.12256 4.27611 0
M  V30 3985 N 433.083 -1.0153 1.20538 0
M  V30 3986 C 434.031 -2.12215 0.952235 0
M  V30 3987 C 435.025 -1.69123 -0.0968735 0
M  V30 3988 O 436.231 -1.7992 0.0536006 0
M  V30 3989 H 432.606 -0.693576 0.290613 0
M  V30 3990 H 434.577 -2.3075 1.89201 0
M  V30 3991 C 433.326 -3.43755 0.522287 0
M  V30 3992 H 432.649 -3.7734 1.32115 0
M  V30 3993 H 434.089 -4.22254 0.384389 0
M  V30 3994 C 432.548 -3.28088 -0.765489 0
M  V30 3995 O 433.078 -3.57921 -1.8236 0
M  V30 3996 N 431.284 -2.81333 -0.728011 0
M  V30 3997 H 430.831 -2.57255 0.133332 0
M  V30 3998 H 430.789 -2.71232 -1.58999 0
M  V30 3999 N 434.561 -1.01147 -1.20859 0
M  V30 4000 C 435.972 -0.730205 -1.71828 0
M  V30 4001 C 436.323 0.751662 -1.8123 0
M  V30 4002 O 435.448 1.58686 -1.47132 0
M  V30 4003 C 436.043 -1.31885 -3.12077 0
M  V30 4004 C 434.602 -1.08656 -3.60376 0
M  V30 4005 C 433.749 -1.42769 -2.37723 0
M  V30 4006 H 436.7 -1.18158 -1.05945 0
M  V30 4007 H 436.721 -0.706793 -3.73878 0
M  V30 4008 H 436.233 -2.39737 -3.05201 0
M  V30 4009 H 434.334 -0.0254814 -3.72591 0
M  V30 4010 H 434.447 -1.76301 -4.45483 0
M  V30 4011 H 432.811 -0.846603 -2.40218 0
M  V30 4012 H 433.594 -2.51666 -2.33493 0
M  V30 4013 N 436.039 1.36541 -0.78704 0
M  V30 4014 C 436.971 2.28761 -0.141773 0
M  V30 4015 C 437.984 1.49365 0.647599 0
M  V30 4016 O 439.173 1.71836 0.483173 0
M  V30 4017 C 436.273 3.28771 0.822368 0
M  V30 4018 C 435.446 4.3732 0.0835594 0
M  V30 4019 C 434.505 5.17307 0.963296 0
M  V30 4020 O 433.531 5.67638 0.421419 0
M  V30 4021 N 434.733 5.33515 2.28784 0
M  V30 4022 H 437.498 2.84777 -0.933919 0
M  V30 4023 H 435.059 1.48682 -0.640735 0
M  V30 4024 H 437.051 3.79169 1.41468 0
M  V30 4025 H 435.621 2.73412 1.5154 0
M  V30 4026 H 434.841 3.88118 -0.689809 0
M  V30 4027 H 436.129 5.0701 -0.426358 0
M  V30 4028 H 435.527 4.94234 2.75226 0
M  V30 4029 H 434.084 5.87165 2.82985 0
M  V30 4030 N 437.518 0.538854 1.48102 0
M  V30 4031 C 438.448 -0.207654 2.32575 0
M  V30 4032 C 439.429 -0.926559 1.4265 0
M  V30 4033 O 440.614 -0.91061 1.71527 0
M  V30 4034 C 437.744 -1.24957 3.24042 0
M  V30 4035 C 436.698 -0.648263 4.23062 0
M  V30 4036 C 436.024 -1.79348 5.03725 0
M  V30 4037 C 437.324 0.385897 5.20872 0
M  V30 4038 H 439.018 0.497534 2.95237 0
M  V30 4039 H 436.564 0.240715 1.41974 0
M  V30 4040 H 438.517 -1.77983 3.81969 0
M  V30 4041 H 437.241 -1.98446 2.59397 0
M  V30 4042 H 435.9 -0.139452 3.66335 0
M  V30 4043 H 435.548 -2.51696 4.35498 0
M  V30 4044 H 435.248 -1.39702 5.70751 0
M  V30 4045 H 436.772 -2.32735 5.64506 0
M  V30 4046 H 438.186 -0.057607 5.73271 0
M  V30 4047 H 436.583 0.700227 5.96001 0
M  V30 4048 H 437.653 1.28848 4.67468 0
M  V30 4049 N 438.996 -1.55193 0.274407 0
M  V30 4050 C 439.959 -2.212 -0.600279 0
M  V30 4051 C 440.959 -1.18963 -1.08187 0
M  V30 4052 O 442.149 -1.43873 -0.982158 0
M  V30 4053 C 439.281 -2.87739 -1.82809 0
M  V30 4054 H 440.474 -2.9989 -0.0239682 0
M  V30 4055 H 438.027 -1.5628 0.0250192 0
M  V30 4056 H 438.762 -2.13058 -2.44493 0
M  V30 4057 H 438.547 -3.62658 -1.49069 0
M  V30 4058 H 440.037 -3.38171 -2.45011 0
M  V30 4059 N 440.474 -0.00167713 -1.576 0
M  V30 4060 C 441.699 0.69739 -1.95323 0
M  V30 4061 C 442.124 1.6642 -0.876706 0
M  V30 4062 O 441.482 1.80548 0.165007 0
M  V30 4063 C 441.53 1.40403 -3.32144 0
M  V30 4064 O 440.634 2.5185 -3.26566 0
M  V30 4065 H 439.975 0.185373 -0.637599 0
M  V30 4066 H 442.505 -0.0553665 -2.04525 0
M  V30 4067 H 442.515 1.76707 -3.67748 0
M  V30 4068 H 441.19 0.695167 -4.10049 0
M  V30 4069 H 439.767 2.17861 -3.0264 0
M  V30 4070 N 441.952 1.55251 0.271103 0
M  V30 4071 C 442.899 1.88261 1.33516 0
M  V30 4072 C 443.869 0.734296 1.48988 0
M  V30 4073 O 445.054 0.985741 1.63364 0
M  V30 4074 C 442.194 2.16168 2.69008 0
M  V30 4075 C 441.307 3.43678 2.61743 0
M  V30 4076 C 440.442 3.61276 3.89427 0
M  V30 4077 C 439.481 4.82472 3.7668 0
M  V30 4078 N 438.618 4.96717 4.96202 0
M  V30 4079 H 443.458 2.79015 1.04665 0
M  V30 4080 H 440.995 1.38137 0.505618 0
M  V30 4081 H 442.953 2.30349 3.47844 0
M  V30 4082 H 441.583 1.28646 2.96057 0
M  V30 4083 H 440.635 3.37959 1.74607 0
M  V30 4084 H 441.947 4.3265 2.48224 0
M  V30 4085 H 441.101 3.75284 4.76704 0
M  V30 4086 H 439.84 2.70492 4.05814 0
M  V30 4087 H 438.845 4.68465 2.87786 0
M  V30 4088 H 440.07 5.74692 3.61809 0
M  V30 4089 H 438.016 4.08865 5.12997 0
M  V30 4090 H 437.933 5.79738 4.85222 0
M  V30 4091 H 439.201 5.15113 5.85046 0
M  V30 4092 N 443.43 -0.535701 1.48216 0
M  V30 4093 C 444.362 -1.65662 1.58394 0
M  V30 4094 C 445.375 -1.5591 0.468607 0
M  V30 4095 O 446.564 -1.62475 0.7392 0
M  V30 4096 C 443.664 -3.04276 1.4923 0
M  V30 4097 C 442.837 -3.39567 2.75705 0
M  V30 4098 C 441.896 -4.57436 2.60075 0
M  V30 4099 O 440.922 -4.60942 3.33948 0
M  V30 4100 N 442.124 -5.55259 1.69315 0
M  V30 4101 H 444.889 -1.5737 2.55058 0
M  V30 4102 H 442.45 -0.722845 1.44867 0
M  V30 4103 H 444.442 -3.80994 1.36477 0
M  V30 4104 H 443.012 -3.06677 0.605632 0
M  V30 4105 H 442.232 -2.52083 3.03064 0
M  V30 4106 H 443.52 -3.59929 3.59623 0
M  V30 4107 H 442.918 -5.552 1.08489 0
M  V30 4108 H 441.475 -6.31218 1.62504 0
M  V30 4109 N 444.908 -1.36708 -0.784132 0
M  V30 4110 C 446.133 -1.34565 -1.5782 0
M  V30 4111 C 446.558 0.0695257 -1.87971 0
M  V30 4112 O 445.916 1.04302 -1.48293 0
M  V30 4113 C 445.964 -2.17952 -2.87279 0
M  V30 4114 O 445.068 -1.57563 -3.81114 0
M  V30 4115 H 444.409 -0.460337 -0.478524 0
M  V30 4116 H 446.939 -1.80064 -0.971495 0
M  V30 4117 H 446.949 -2.30721 -3.365 0
M  V30 4118 H 445.624 -3.20823 -2.64661 0
M  V30 4119 H 444.201 -1.53764 -3.39722 0
M  V30 4120 N 446.386 1.0089 -1.21074 0
M  V30 4121 C 447.319 2.09279 -0.909806 0
M  V30 4122 C 448.297 1.61986 0.141145 0
M  V30 4123 O 449.481 1.88495 0.0130332 0
M  V30 4124 C 446.608 3.36723 -0.365374 0
M  V30 4125 C 445.654 4.02919 -1.39852 0
M  V30 4126 S 446.487 4.45835 -2.96633 0
M  V30 4127 C 447.643 5.76471 -2.43786 0
M  V30 4128 H 447.876 2.34484 -1.82769 0
M  V30 4129 H 445.409 1.14115 -1.04006 0
M  V30 4130 H 447.367 4.10459 -0.0578203 0
M  V30 4131 H 446.028 3.09577 0.531136 0
M  V30 4132 H 445.221 4.94634 -0.967117 0
M  V30 4133 H 444.823 3.35441 -1.65395 0
M  V30 4134 H 447.115 6.52027 -1.84029 0
M  V30 4135 H 448.058 6.24418 -3.33928 0
M  V30 4136 H 448.466 5.33104 -1.85636 0
M  V30 4137 N 447.864 1.01787 1.20321 0
M  V30 4138 C 449.11 0.708985 1.90003 0
M  V30 4139 C 449.443 -0.759572 1.78729 0
M  V30 4140 O 448.718 -1.55198 1.17234 0
M  V30 4141 C 449.001 1.1469 3.41348 0
M  V30 4142 C 448.854 2.67586 3.61549 0
M  V30 4143 C 450.173 0.71915 4.34185 0
M  V30 4144 H 447.292 0.259034 0.689978 0
M  V30 4145 H 449.934 1.26584 1.41692 0
M  V30 4146 H 448.084 0.673128 3.82624 0
M  V30 4147 H 449.756 3.22826 3.29517 0
M  V30 4148 H 447.999 3.085 3.04976 0
M  V30 4149 H 448.67 2.93281 4.67643 0
M  V30 4150 H 451.146 1.12647 4.00562 0
M  V30 4151 H 450.022 1.05358 5.38694 0
M  V30 4152 H 450.283 -0.379111 4.40472 0
M  V30 4153 N 449.342 -1.36122 0.79427 0
M  V30 4154 C 450.29 -2.31871 0.184023 0
M  V30 4155 C 451.284 -1.56041 -0.659365 0
M  V30 4156 O 452.49 -1.71266 -0.553906 0
M  V30 4157 H 448.865 -0.750896 0.0407373 0
M  V30 4158 H 450.836 -2.80898 1.00693 0
M  V30 4159 C 449.585 -3.41324 -0.662813 0
M  V30 4160 H 448.908 -3.99793 -0.0231944 0
M  V30 4161 H 450.348 -4.10629 -1.05639 0
M  V30 4162 C 448.807 -2.83308 -1.82313 0
M  V30 4163 O 449.337 -2.75863 -2.91997 0
M  V30 4164 N 447.543 -2.40529 -1.63077 0
M  V30 4165 H 447.09 -2.46785 -0.738591 0
M  V30 4166 H 447.048 -2.02059 -2.40872 0
M  V30 4167 N 450.82 -0.546701 -1.47814 0
M  V30 4168 C 452.045 -0.021268 -2.07389 0
M  V30 4169 C 452.47 1.25822 -1.39822 0
M  V30 4170 O 451.828 1.75111 -0.46968 0
M  V30 4171 C 451.876 0.168502 -3.60206 0
M  V30 4172 O 450.98 1.23347 -3.93522 0
M  V30 4173 H 450.321 -0.0466108 -0.662362 0
M  V30 4174 H 452.851 -0.759387 -1.89985 0
M  V30 4175 H 452.861 0.385982 -4.0617 0
M  V30 4176 H 451.536 -0.766075 -4.08784 0
M  V30 4177 H 450.113 0.997319 -3.59316 0
M  V30 4178 N 452.299 1.55045 -0.282633 0
M  V30 4179 C 453.229 2.2579 0.595066 0
M  V30 4180 C 454.21 1.25074 1.15284 0
M  V30 4181 O 455.395 1.5381 1.18559 0
M  V30 4182 C 452.525 2.98472 1.77572 0
M  V30 4183 C 451.479 4.0618 1.34914 0
M  V30 4184 C 450.805 4.66477 2.6135 0
M  V30 4185 C 452.105 5.1996 0.493821 0
M  V30 4186 H 453.799 2.994 0.00505653 0
M  V30 4187 H 451.345 1.44 0.000992001 0
M  V30 4188 H 453.298 3.46677 2.39568 0
M  V30 4189 H 452.022 2.2241 2.39168 0
M  V30 4190 H 450.681 3.58797 0.752338 0
M  V30 4191 H 450.329 3.87074 3.2122 0
M  V30 4192 H 450.029 5.39207 2.33516 0
M  V30 4193 H 451.553 5.17435 3.24181 0
M  V30 4194 H 452.967 5.64172 1.01898 0
M  V30 4195 H 451.364 5.99299 0.310047 0
M  V30 4196 H 452.434 4.82462 -0.485593 0
M  V30 4197 N 453.777 0.010035 1.57597 0
M  V30 4198 C 455.188 -0.531426 1.78977 0
M  V30 4199 C 455.539 -1.73375 0.918454 0
M  V30 4200 O 454.664 -2.16047 0.123635 0
M  V30 4201 C 455.259 -0.97086 3.24592 0
M  V30 4202 C 453.818 -1.45756 3.47033 0
M  V30 4203 C 452.965 -0.413384 2.74201 0
M  V30 4204 H 455.916 0.236166 1.56933 0
M  V30 4205 H 455.937 -1.83633 3.33255 0
M  V30 4206 H 455.449 -0.0955893 3.87982 0
M  V30 4207 H 453.55 -2.35339 2.88871 0
M  V30 4208 H 453.663 -1.4781 4.55729 0
M  V30 4209 H 452.027 -0.877266 2.39115 0
M  V30 4210 H 452.81 0.453092 3.40297 0
M  V30 4211 N 455.255 -1.55392 -0.262866 0
M  V30 4212 C 456.483 -1.80513 -1.01108 0
M  V30 4213 C 456.898 -0.583533 -1.79556 0
M  V30 4214 O 456.255 0.447585 -1.76926 0
M  V30 4215 C 456.306 -3.03648 -1.96164 0
M  V30 4216 O 456.027 -4.2109 -1.20893 0
M  V30 4217 C 457.528 -3.41448 -2.82715 0
M  V30 4218 H 454.748 -0.601079 -0.298236 0
M  V30 4219 H 457.292 -2.02425 -0.290582 0
M  V30 4220 H 455.447 -2.83832 -2.63663 0
M  V30 4221 H 455.861 -4.90771 -1.85051 0
M  V30 4222 H 457.335 -4.30751 -3.45192 0
M  V30 4223 H 457.812 -2.61308 -3.53008 0
M  V30 4224 H 458.418 -3.63559 -2.20693 0
M  V30 4225 N 456.733 0.527833 -1.48498 0
M  V30 4226 C 457.98 1.28354 -1.56625 0
M  V30 4227 C 458.308 1.93 -0.241096 0
M  V30 4228 O 457.563 1.79967 0.768798 0
M  V30 4229 C 457.862 2.39275 -2.65485 0
M  V30 4230 C 457.528 1.92268 -4.07853 0
M  V30 4231 C 456.19 1.79166 -4.46602 0
M  V30 4232 C 458.542 1.56771 -4.97064 0
M  V30 4233 C 455.87 1.28905 -5.72364 0
M  V30 4234 C 458.222 1.07972 -6.23318 0
M  V30 4235 C 456.886 0.934887 -6.60921 0
M  V30 4236 H 456.156 0.469682 -0.573131 0
M  V30 4237 H 458.803 0.588781 -1.82224 0
M  V30 4238 H 457.108 3.1443 -2.33754 0
M  V30 4239 H 458.805 2.974 -2.68988 0
M  V30 4240 H 455.395 2.03417 -3.77252 0
M  V30 4241 H 459.579 1.65753 -4.67803 0
M  V30 4242 H 454.835 1.16381 -6.00221 0
M  V30 4243 H 459.009 0.795775 -6.91838 0
M  V30 4244 H 456.636 0.543231 -7.58257 0
M  V30 4245 N 458.211 1.37122 0.776871 0
M  V30 4246 C 459.622 1.28667 1.35284 0
M  V30 4247 C 459.973 -0.0680035 1.96082 0
M  V30 4248 O 459.098 -0.969743 1.93455 0
M  V30 4249 C 459.693 2.32997 2.45963 0
M  V30 4250 C 458.252 2.28191 2.99342 0
M  V30 4251 C 457.399 2.17101 1.72517 0
M  V30 4252 H 460.35 1.47819 0.577527 0
M  V30 4253 H 460.371 1.97366 3.2531 0
M  V30 4254 H 459.883 3.3158 2.01684 0
M  V30 4255 H 457.984 1.33115 3.4801 0
M  V30 4256 H 458.097 3.21397 3.55304 0
M  V30 4257 H 456.461 1.63562 1.95242 0
M  V30 4258 H 457.244 3.17591 1.30348 0
M  V30 4259 N 459.689 -1.00246 1.21608 0
M  V30 4260 C 460.917 -1.77631 1.06089 0
M  V30 4261 C 461.332 -1.84746 -0.38916 0
M  V30 4262 O 460.689 -1.31068 -1.26994 0
M  V30 4263 C 460.74 -3.21415 1.65453 0
M  V30 4264 O 460.461 -3.14703 3.04785 0
M  V30 4265 C 461.962 -4.15289 1.55079 0
M  V30 4266 H 459.182 -0.558162 0.37242 0
M  V30 4267 H 461.726 -1.26093 1.60999 0
M  V30 4268 H 459.881 -3.70053 1.14629 0
M  V30 4269 H 460.295 -4.05056 3.33212 0
M  V30 4270 H 461.769 -5.13965 2.01355 0
M  V30 4271 H 462.246 -4.36279 0.505665 0
M  V30 4272 H 462.852 -3.72543 2.05163 0
M  V30 4273 N 461.167 -1.02423 -1.1978 0
M  V30 4274 C 462.444 -0.632802 -1.85081 0
M  V30 4275 C 462.824 0.888745 -1.9148 0
M  V30 4276 O 462.172 1.78357 -1.42832 0
M  V30 4277 C 462.382 -1.28947 -3.24305 0
M  V30 4278 C 463.73 -1.40976 -4.00513 0
M  V30 4279 O 464.754 -1.24628 -3.33686 0
M  V30 4280 O 463.613 -1.67467 -5.20209 0
M  V30 4281 H 460.707 -0.219348 -0.79738 0
M  V30 4282 H 463.253 -1.12209 -1.27307 0
M  V30 4283 H 462.025 -2.3288 -3.14456 0
M  V30 4284 H 461.648 -0.787748 -3.89718 0
M  V30 4285 N 462.645 1.35699 -0.801477 0
M  V30 4286 C 463.894 1.98165 -0.375979 0
M  V30 4287 C 464.207 1.64306 1.06127 0
M  V30 4288 O 465.413 2.20097 1.58964 0
M  V30 4289 C 463.869 3.54497 -0.621305 0
M  V30 4290 C 463.477 3.9727 -2.07076 0
M  V30 4291 C 465.221 4.23697 -0.26091 0
M  V30 4292 C 463.128 5.46427 -2.26211 0
M  V30 4293 H 462.058 0.741478 -0.136844 0
M  V30 4294 H 464.709 1.54834 -0.984814 0
M  V30 4295 H 463.091 3.95958 0.0574112 0
M  V30 4296 H 464.265 3.66974 -2.78687 0
M  V30 4297 H 462.58 3.40943 -2.39054 0
M  V30 4298 H 465.177 5.33334 -0.381994 0
M  V30 4299 H 465.52 4.0869 0.792344 0
M  V30 4300 H 466.053 3.87639 -0.893339 0
M  V30 4301 H 462.792 5.66396 -3.29963 0
M  V30 4302 H 462.312 5.78309 -1.59119 0
M  V30 4303 H 463.991 6.12819 -2.07513 0
M  V30 4304 N 464.123 0.554532 1.47522 0
M  V30 4305 C 465.07 -0.19466 2.29978 0
M  V30 4306 C 466.04 -0.910882 1.38896 0
M  V30 4307 O 467.225 -0.907102 1.67858 0
M  V30 4308 C 464.365 -1.22035 3.22802 0
M  V30 4309 C 463.478 -0.510474 4.28973 0
M  V30 4310 C 462.613 -1.52123 5.08952 0
M  V30 4311 C 461.652 -0.796173 6.069 0
M  V30 4312 N 460.789 -1.75363 6.79847 0
M  V30 4313 H 465.629 0.51461 2.93523 0
M  V30 4314 H 463.166 0.265607 1.44682 0
M  V30 4315 H 465.124 -1.8276 3.7504 0
M  V30 4316 H 463.754 -1.89769 2.61127 0
M  V30 4317 H 462.806 0.211234 3.79813 0
M  V30 4318 H 464.118 0.0576503 4.98767 0
M  V30 4319 H 463.272 -2.20207 5.65326 0
M  V30 4320 H 462.011 -2.12327 4.39054 0
M  V30 4321 H 461.016 -0.101388 5.49707 0
M  V30 4322 H 462.241 -0.199911 6.78806 0
M  V30 4323 H 460.187 -2.3443 6.12682 0
M  V30 4324 H 460.104 -1.23759 7.45801 0
M  V30 4325 H 461.372 -2.4257 7.40797 0
M  V30 4326 N 465.601 -1.54893 0.290851 0
M  V30 4327 C 466.549 -2.24579 -0.605576 0
M  V30 4328 C 467.543 -1.24824 -1.14522 0
M  V30 4329 O 468.749 -1.42706 -1.09704 0
M  V30 4330 H 465.124 -0.720946 -0.213872 0
M  V30 4331 H 467.095 -2.984 0.0048173 0
M  V30 4332 C 465.844 -2.99224 -1.77088 0
M  V30 4333 H 465.167 -3.75782 -1.36484 0
M  V30 4334 H 466.607 -3.51281 -2.3744 0
M  V30 4335 C 465.066 -2.05602 -2.66888 0
M  V30 4336 O 465.596 -1.61745 -3.67698 0
M  V30 4337 N 463.802 -1.71771 -2.34399 0
M  V30 4338 H 463.349 -2.07633 -1.52468 0
M  V30 4339 H 463.307 -1.09403 -2.94751 0
M  V30 4340 N 467.08 -0.0183926 -1.57589 0
M  V30 4341 C 468.308 0.673046 -1.95647 0
M  V30 4342 C 468.723 1.66275 -0.894312 0
M  V30 4343 O 468.08 1.82072 0.124975 0
M  V30 4344 C 468.131 1.38884 -3.33756 0
M  V30 4345 O 467.852 0.438806 -4.35897 0
M  V30 4346 C 469.353 2.1731 -3.86383 0
M  V30 4347 H 466.573 0.186292 -0.644621 0
M  V30 4348 H 469.117 -0.0749748 -2.04363 0
M  V30 4349 H 467.272 2.08835 -3.26293 0
M  V30 4350 H 467.686 0.945869 -5.15901 0
M  V30 4351 H 469.16 2.62863 -4.85394 0
M  V30 4352 H 469.637 3.00764 -3.20059 0
M  V30 4353 H 470.243 1.52339 -3.97081 0
M  V30 4354 N 468.558 1.5553 0.254621 0
M  V30 4355 C 469.783 1.81383 1.00573 0
M  V30 4356 C 470.208 0.594419 1.78461 0
M  V30 4357 O 469.566 -0.456403 1.75461 0
M  V30 4358 C 469.614 3.04892 1.92545 0
M  V30 4359 O 468.718 2.81266 3.01601 0
M  V30 4360 H 468.059 0.598969 0.286587 0
M  V30 4361 H 470.589 2.02703 0.277952 0
M  V30 4362 H 470.599 3.34119 2.34155 0
M  V30 4363 H 469.274 3.93287 1.3527 0
M  V30 4364 H 467.851 2.63185 2.64174 0
M  V30 4365 N 470.036 -0.519951 1.48776 0
M  V30 4366 C 471.282 -1.27711 1.57536 0
M  V30 4367 C 471.615 -1.92547 0.252866 0
M  V30 4368 O 470.89 -1.7979 -0.742021 0
M  V30 4369 C 471.173 -2.35875 2.72094 0
M  V30 4370 C 471.026 -1.75664 4.1408 0
M  V30 4371 C 472.345 -3.37575 2.82367 0
M  V30 4372 H 469.464 -0.462971 0.573434 0
M  V30 4373 H 472.106 -0.578194 1.80989 0
M  V30 4374 H 470.256 -2.95488 2.52228 0
M  V30 4375 H 471.928 -1.20025 4.45412 0
M  V30 4376 H 470.171 -1.06154 4.20611 0
M  V30 4377 H 470.842 -2.54029 4.90075 0
M  V30 4378 H 473.318 -2.87929 3.00393 0
M  V30 4379 H 472.194 -4.1064 3.64233 0
M  V30 4380 H 472.455 -3.98743 1.90936 0
M  V30 4381 N 471.514 -1.37532 -0.769588 0
M  V30 4382 C 472.742 -1.36059 -1.55871 0
M  V30 4383 C 473.157 0.053544 -1.88724 0
M  V30 4384 O 472.514 1.01591 -1.5161 0
M  V30 4385 C 472.565 -2.20107 -2.86767 0
M  V30 4386 O 472.286 -3.56009 -2.55321 0
M  V30 4387 C 473.787 -2.26636 -3.80987 0
M  V30 4388 H 471.007 -0.465967 -0.482821 0
M  V30 4389 H 473.551 -1.80901 -0.953686 0
M  V30 4390 H 471.706 -1.78768 -3.43687 0
M  V30 4391 H 472.12 -4.0009 -3.39158 0
M  V30 4392 H 473.594 -2.89763 -4.69831 0
M  V30 4393 H 474.071 -1.2754 -4.20274 0
M  V30 4394 H 474.677 -2.68296 -3.29996 0
M  V30 4395 N 472.992 0.995999 -1.22138 0
M  V30 4396 C 473.94 2.10673 -0.985876 0
M  V30 4397 C 474.934 1.69255 0.0699553 0
M  V30 4398 O 476.14 1.79812 -0.0822176 0
M  V30 4399 H 472.515 0.688865 -0.30161 0
M  V30 4400 H 474.486 2.27711 -1.92848 0
M  V30 4401 C 473.235 3.42881 -0.576909 0
M  V30 4402 H 472.558 3.75191 -1.38101 0
M  V30 4403 H 473.998 4.21589 -0.451518 0
M  V30 4404 C 472.457 3.29265 0.713196 0
M  V30 4405 O 472.987 3.60777 1.76643 0
M  V30 4406 N 471.193 2.82456 0.683162 0
M  V30 4407 H 470.74 2.5701 -0.174242 0
M  V30 4408 H 470.698 2.73727 1.54663 0
M  V30 4409 N 474.47 1.03057 1.19235 0
M  V30 4410 C 475.716 0.729098 1.89241 0
M  V30 4411 C 476.049 -0.740573 1.79525 0
M  V30 4412 O 475.324 -1.53946 1.18874 0
M  V30 4413 C 475.607 1.18304 3.40112 0
M  V30 4414 C 475.46 2.71406 3.5869 0
M  V30 4415 C 476.779 0.765161 4.33397 0
M  V30 4416 H 473.898 0.266338 0.687192 0
M  V30 4417 H 476.54 1.28079 1.40341 0
M  V30 4418 H 474.69 0.713672 3.81889 0
M  V30 4419 H 476.362 3.26303 3.26074 0
M  V30 4420 H 474.605 3.11717 3.01687 0
M  V30 4421 H 475.276 2.98225 4.64506 0
M  V30 4422 H 477.752 1.16889 3.99345 0
M  V30 4423 H 476.628 1.11065 5.37546 0
M  V30 4424 H 476.889 -0.332372 4.40849 0
M  V30 4425 N 475.948 -1.35272 0.808662 0
M  V30 4426 C 477.359 -1.81179 0.450688 0
M  V30 4427 C 477.71 -1.67143 -1.02751 0
M  V30 4428 O 476.835 -1.20325 -1.79864 0
M  V30 4429 C 477.43 -3.28943 0.811275 0
M  V30 4430 C 475.989 -3.72985 0.505871 0
M  V30 4431 C 475.136 -2.57229 1.03578 0
M  V30 4432 H 478.087 -1.2322 1.00012 0
M  V30 4433 H 478.108 -3.80342 0.109588 0
M  V30 4434 H 477.62 -3.39127 1.88718 0
M  V30 4435 H 475.721 -3.68349 -0.561209 0
M  V30 4436 H 475.834 -4.67677 1.03995 0
M  V30 4437 H 474.198 -2.50548 0.458005 0
M  V30 4438 H 474.981 -2.7019 2.11784 0
M  V30 4439 N 477.426 -0.562348 -1.47226 0
M  V30 4440 C 478.374 0.195476 -2.31777 0
M  V30 4441 C 479.368 0.90433 -1.43242 0
M  V30 4442 O 480.574 0.825031 -1.59979 0
M  V30 4443 H 476.949 0.0819095 -0.747526 0
M  V30 4444 H 478.92 -0.536753 -2.93533 0
M  V30 4445 C 477.669 1.20902 -3.26003 0
M  V30 4446 H 476.992 0.672997 -3.94095 0
M  V30 4447 H 478.432 1.71006 -3.87986 0
M  V30 4448 C 476.891 2.25955 -2.49891 0
M  V30 4449 O 477.421 3.32969 -2.2471 0
M  V30 4450 N 475.627 2.00019 -2.1081 0
M  V30 4451 H 475.174 1.13006 -2.31489 0
M  V30 4452 H 475.132 2.70523 -1.60201 0
M  V30 4453 N 478.904 1.54736 -0.299062 0
M  V30 4454 C 479.837 2.1962 0.619851 0
M  V30 4455 C 480.815 1.16496 1.13434 0
M  V30 4456 O 481.999 1.4513 1.2029 0
M  V30 4457 C 479.126 2.8385 1.84788 0
M  V30 4458 C 478.172 4.00484 1.46679 0
M  V30 4459 S 479.005 5.32926 0.524389 0
M  V30 4460 C 480.161 6.00638 1.76026 0
M  V30 4461 H 480.394 2.97221 0.0686177 0
M  V30 4462 H 477.927 1.54176 -0.0832085 0
M  V30 4463 H 479.885 3.21483 2.55263 0
M  V30 4464 H 478.546 2.06099 2.37028 0
M  V30 4465 H 477.739 4.44201 2.38121 0
M  V30 4466 H 477.341 3.64398 0.842008 0
M  V30 4467 H 479.633 6.21327 2.70109 0
M  V30 4468 H 480.576 6.94805 1.36569 0
M  V30 4469 H 480.984 5.3026 1.93609 0
M  V30 4470 N 480.382 0.0267497 1.57577 0
M  V30 4471 C 481.607 -0.666227 1.96408 0
M  V30 4472 C 482.032 -1.65004 0.903071 0
M  V30 4473 O 481.39 -1.80787 -0.136263 0
M  V30 4474 C 481.438 -1.35101 3.34335 0
M  V30 4475 O 480.542 -2.46623 3.30531 0
M  V30 4476 H 479.883 -0.175206 0.640468 0
M  V30 4477 H 482.413 0.0878977 2.04411 0
M  V30 4478 H 482.423 -1.70834 3.70513 0
M  V30 4479 H 481.098 -0.629844 4.11103 0
M  V30 4480 H 479.675 -2.13019 3.06068 0
M  V30 4481 N 481.861 -1.55662 -0.24637 0
M  V30 4482 C 482.793 -1.86811 -1.32794 0
M  V30 4483 C 483.806 -0.754413 -1.44265 0
M  V30 4484 O 484.995 -1.03253 -1.45606 0
M  V30 4485 C 482.095 -2.0397 -2.70646 0
M  V30 4486 C 481.268 -3.34832 -2.81436 0
M  V30 4487 C 480.327 -3.41727 -4.00136 0
M  V30 4488 O 479.353 -4.14934 -3.89639 0
M  V30 4489 N 480.555 -2.71058 -5.1333 0
M  V30 4490 H 483.32 -2.80174 -1.06409 0
M  V30 4491 H 480.881 -1.55906 -0.43647 0
M  V30 4492 H 482.873 -2.05924 -3.48393 0
M  V30 4493 H 481.443 -1.1735 -2.89738 0
M  V30 4494 H 480.663 -3.4519 -1.90361 0
M  V30 4495 H 481.951 -4.21085 -2.85595 0
M  V30 4496 H 481.349 -2.11314 -5.2475 0
M  V30 4497 H 479.906 -2.78704 -5.89209 0
M  V30 4498 N 483.339 0.512053 -1.4905 0
M  V30 4499 C 484.272 1.63209 -1.59493 0
M  V30 4500 C 485.25 1.56407 -0.444481 0
M  V30 4501 O 486.434 1.76623 -0.658535 0
M  V30 4502 C 483.561 3.01685 -1.53961 0
M  V30 4503 C 482.607 3.26786 -2.74068 0
M  V30 4504 S 483.44 3.11107 -4.35859 0
M  V30 4505 C 484.596 4.51997 -4.32954 0
M  V30 4506 H 484.829 1.54104 -2.54243 0
M  V30 4507 H 482.362 0.696382 -1.37804 0
M  V30 4508 H 484.32 3.81538 -1.51455 0
M  V30 4509 H 482.981 3.08215 -0.605178 0
M  V30 4510 H 482.174 4.27849 -2.66386 0
M  V30 4511 H 481.776 2.54635 -2.73928 0
M  V30 4512 H 484.068 5.43871 -4.03993 0
M  V30 4513 H 485.011 4.64731 -5.34257 0
M  V30 4514 H 485.419 4.32159 -3.63178 0
M  V30 4515 N 484.817 1.37938 0.762283 0
M  V30 4516 C 485.749 1.30349 1.88525 0
M  V30 4517 C 486.762 0.217402 1.61342 0
M  V30 4518 O 487.951 0.474291 1.72084 0
M  V30 4519 C 485.051 0.994844 3.23969 0
M  V30 4520 C 484.224 2.18829 3.78725 0
M  V30 4521 C 483.283 1.84844 4.92665 0
M  V30 4522 O 482.309 2.57244 5.07754 0
M  V30 4523 N 483.511 0.798201 5.74986 0
M  V30 4524 H 486.276 2.27114 1.95549 0
M  V30 4525 H 483.837 1.31686 0.941825 0
M  V30 4526 H 485.829 0.748168 3.97724 0
M  V30 4527 H 484.399 0.115446 3.12387 0
M  V30 4528 H 483.619 2.59615 2.96637 0
M  V30 4529 H 484.907 2.98497 4.1204 0
M  V30 4530 H 484.305 0.197611 5.65355 0
M  V30 4531 H 482.862 0.611396 6.48926 0
M  V30 4532 N 486.295 -0.989507 1.22664 0
M  V30 4533 C 487.523 -1.76496 1.07967 0
M  V30 4534 C 487.938 -1.85148 -0.369543 0
M  V30 4535 O 487.295 -1.32408 -1.25596 0
M  V30 4536 C 487.346 -3.19642 1.68853 0
M  V30 4537 O 487.067 -3.11453 3.08105 0
M  V30 4538 C 488.568 -4.13621 1.59475 0
M  V30 4539 H 485.788 -0.55418 0.378319 0
M  V30 4540 H 488.332 -1.24378 1.62328 0
M  V30 4541 H 486.487 -3.68816 1.18547 0
M  V30 4542 H 486.901 -4.01499 3.37489 0
M  V30 4543 H 488.375 -5.11801 2.06795 0
M  V30 4544 H 488.852 -4.35718 0.55191 0
M  V30 4545 H 489.458 -3.70346 2.09103 0
M  V30 4546 N 487.773 -1.03688 -1.18687 0
M  V30 4547 C 488.998 -0.757819 -1.93059 0
M  V30 4548 C 489.423 0.678353 -1.75442 0
M  V30 4549 O 488.781 1.46938 -1.06203 0
M  V30 4550 C 488.829 -1.12423 -3.42627 0
M  V30 4551 O 487.933 -0.247505 -4.11657 0
M  V30 4552 H 487.274 -0.279245 -0.602427 0
M  V30 4553 H 489.804 -1.3857 -1.5053 0
M  V30 4554 H 489.814 -1.08454 -3.93322 0
M  V30 4555 H 488.489 -2.17049 -3.54771 0
M  V30 4556 H 487.066 -0.34649 -3.71287 0
M  V30 4557 N 489.251 1.34841 -0.815825 0
M  V30 4558 C 490.497 1.98793 -0.401129 0
M  V30 4559 C 490.83 1.64548 1.03139 0
M  V30 4560 O 490.105 0.913487 1.71714 0
M  V30 4561 C 490.388 3.55143 -0.595409 0
M  V30 4562 C 490.241 3.99155 -2.07352 0
M  V30 4563 C 491.56 4.40092 -0.0268823 0
M  V30 4564 H 488.679 0.722146 -0.14722 0
M  V30 4565 H 491.321 1.59847 -1.02707 0
M  V30 4566 H 489.471 3.8845 -0.0625779 0
M  V30 4567 H 491.143 3.76216 -2.66945 0
M  V30 4568 H 489.386 3.49726 -2.56659 0
M  V30 4569 H 490.057 5.07971 -2.1603 0
M  V30 4570 H 492.533 4.13298 -0.482042 0
M  V30 4571 H 491.409 5.48562 -0.19267 0
M  V30 4572 H 491.67 4.29016 1.06759 0
M  V30 4573 N 490.729 0.570148 1.46925 0
M  V30 4574 C 491.977 0.0508523 2.02036 0
M  V30 4575 C 492.298 -1.30885 1.44548 0
M  V30 4576 O 491.568 -1.85647 0.625453 0
M  V30 4577 H 490.148 0.0158088 0.746833 0
M  V30 4578 H 492.81 0.743086 1.80178 0
M  V30 4579 H 491.906 -0.027575 3.12088 0
M  V30 4580 N 492.207 -1.54576 0.307264 0
M  V30 4581 C 493.456 -1.99442 -0.300976 0
M  V30 4582 C 493.769 -1.19928 -1.5452 0
M  V30 4583 O 494.975 -1.55092 -2.22842 0
M  V30 4584 C 493.431 -3.55084 -0.586809 0
M  V30 4585 C 493.039 -4.43413 0.639438 0
M  V30 4586 C 494.783 -4.0846 -1.1559 0
M  V30 4587 C 492.69 -5.90499 0.326411 0
M  V30 4588 H 491.62 -0.744986 -0.116238 0
M  V30 4589 H 494.271 -1.787 0.416947 0
M  V30 4590 H 492.653 -3.71749 -1.36449 0
M  V30 4591 H 493.827 -4.38522 1.41545 0
M  V30 4592 H 492.142 -4.00842 1.1276 0
M  V30 4593 H 494.739 -5.15926 -1.40445 0
M  V30 4594 H 495.082 -3.59443 -2.10015 0
M  V30 4595 H 495.615 -3.95362 -0.439778 0
M  V30 4596 H 492.354 -6.43676 1.23939 0
M  V30 4597 H 491.874 -5.98382 -0.412212 0
M  V30 4598 H 493.553 -6.46962 -0.0697393 0
M  V30 4599 N 493.685 -0.035106 -1.57561 0
M  V30 4600 C 494.931 0.64318 -1.92331 0
M  V30 4601 C 495.264 1.71434 -0.912368 0
M  V30 4602 O 494.539 1.94395 0.0640303 0
M  V30 4603 C 494.822 1.25411 -3.37556 0
M  V30 4604 C 494.675 0.192109 -4.4939 0
M  V30 4605 C 495.994 2.17041 -3.82859 0
M  V30 4606 H 493.113 0.232341 -0.699419 0
M  V30 4607 H 495.755 -0.0935889 -1.89769 0
M  V30 4608 H 493.905 1.88205 -3.39869 0
M  V30 4609 H 495.577 -0.438849 -4.59208 0
M  V30 4610 H 493.82 -0.481725 -4.31117 0
M  V30 4611 H 494.491 0.659292 -5.48049 0
M  V30 4612 H 496.967 1.64228 -3.8232 0
M  V30 4613 H 495.843 2.56738 -4.85157 0
M  V30 4614 H 496.104 3.06401 -3.18702 0
M  V30 4615 N 495.163 1.55791 0.238111 0
M  V30 4616 C 496.574 1.68383 0.806472 0
M  V30 4617 C 496.925 0.634157 1.85669 0
M  V30 4618 O 496.05 -0.217913 2.153 0
M  V30 4619 C 496.645 3.05268 1.46959 0
M  V30 4620 C 495.204 3.1977 1.98555 0
M  V30 4621 C 494.351 2.64279 0.839763 0
M  V30 4622 H 497.302 1.58694 0.0137535 0
M  V30 4623 H 497.323 3.00203 2.33792 0
M  V30 4624 H 496.835 3.81643 0.704993 0
M  V30 4625 H 494.936 2.48234 2.77868 0
M  V30 4626 H 495.049 4.26788 2.17689 0
M  V30 4627 H 493.413 2.22329 1.24265 0
M  V30 4628 H 494.196 3.43187 0.0881032 0
M  V30 4629 N 496.642 -0.504142 1.49319 0
M  V30 4630 C 497.87 -1.28256 1.62351 0
M  V30 4631 C 498.285 -1.86502 0.293682 0
M  V30 4632 O 497.642 -1.67678 -0.720449 0
M  V30 4633 C 497.693 -2.41507 2.68992 0
M  V30 4634 O 497.414 -1.85656 3.96817 0
M  V30 4635 C 498.915 -3.32929 2.927 0
M  V30 4636 H 496.135 -0.389115 0.546654 0
M  V30 4637 H 498.679 -0.605531 1.95329 0
M  V30 4638 H 496.834 -3.05046 2.38801 0
M  V30 4639 H 497.248 -2.59981 4.55533 0
M  V30 4640 H 498.722 -4.0868 3.71058 0
M  V30 4641 H 499.199 -3.89733 2.02496 0
M  V30 4642 H 499.805 -2.75158 3.24296 0
M  V30 4643 N 498.12 -1.38341 -0.754957 0
M  V30 4644 C 499.052 -1.31347 -1.87831 0
M  V30 4645 C 500.065 -0.225955 -1.61224 0
M  V30 4646 O 501.254 -0.48341 -1.7183 0
M  V30 4647 C 498.354 -1.01201 -3.23437 0
M  V30 4648 C 497.527 -2.20834 -3.77559 0
M  V30 4649 C 496.586 -1.87454 -4.91678 0
M  V30 4650 O 495.612 -2.59934 -5.06382 0
M  V30 4651 N 496.814 -0.828682 -5.74555 0
M  V30 4652 H 499.579 -2.28147 -1.94342 0
M  V30 4653 H 497.14 -1.32184 -0.934828 0
M  V30 4654 H 499.132 -0.769249 -3.97322 0
M  V30 4655 H 497.702 -0.132011 -3.12321 0
M  V30 4656 H 496.922 -2.61184 -2.95256 0
M  V30 4657 H 498.21 -3.00678 -4.10451 0
M  V30 4658 H 497.608 -0.227591 -5.65242 0
M  V30 4659 H 496.165 -0.645802 -6.48593 0
M  V30 4660 N 499.598 0.982988 -1.23187 0
M  V30 4661 C 500.561 2.05649 -1.01198 0
M  V30 4662 C 501.561 1.6078 0.0252464 0
M  V30 4663 O 502.751 1.72878 -0.214243 0
M  V30 4664 C 499.883 3.36744 -0.530656 0
M  V30 4665 H 501.076 2.2659 -1.96461 0
M  V30 4666 H 498.629 1.15602 -1.05195 0
M  V30 4667 H 499.364 3.21492 0.425873 0
M  V30 4668 H 499.149 3.7065 -1.2791 0
M  V30 4669 H 500.639 4.15705 -0.397366 0
M  V30 4670 N 501.076 1.04316 1.18135 0
M  V30 4671 C 502.325 0.74319 1.87509 0
M  V30 4672 C 502.638 -0.732136 1.81381 0
M  V30 4673 O 503.844 -1.14572 2.46141 0
M  V30 4674 C 502.3 1.27913 3.36402 0
M  V30 4675 C 501.908 2.78326 3.51053 0
M  V30 4676 C 503.652 1.0558 4.11161 0
M  V30 4677 C 501.559 3.25266 4.93919 0
M  V30 4678 H 500.489 0.274313 0.702331 0
M  V30 4679 H 503.14 1.25931 1.33467 0
M  V30 4680 H 501.522 0.690853 3.89927 0
M  V30 4681 H 502.696 3.42933 3.07788 0
M  V30 4682 H 501.011 2.991 2.89704 0
M  V30 4683 H 503.608 1.38161 5.16542 0
M  V30 4684 H 503.951 -0.00684729 4.16299 0
M  V30 4685 H 504.484 1.60882 3.63816 0
M  V30 4686 H 501.223 4.30922 4.9395 0
M  V30 4687 H 500.743 2.65396 5.3789 0
M  V30 4688 H 502.422 3.19433 5.62647 0
M  V30 4689 N 502.554 -1.34406 0.822964 0
M  V30 4690 C 503.517 -2.2783 0.250271 0
M  V30 4691 C 504.517 -1.50288 -0.571854 0
M  V30 4692 O 505.707 -1.69825 -0.387952 0
M  V30 4693 C 502.839 -3.34663 -0.649137 0
M  V30 4694 H 504.032 -2.79992 1.07444 0
M  V30 4695 H 501.585 -1.44539 0.594829 0
M  V30 4696 H 502.32 -2.87714 -1.49637 0
M  V30 4697 H 502.105 -3.92052 -0.0611199 0
M  V30 4698 H 503.595 -4.04349 -1.04363 0
M  V30 4699 N 504.032 -0.577932 -1.46621 0
M  V30 4700 C 505.26 -0.0671642 -2.06791 0
M  V30 4701 C 505.675 1.23571 -1.42743 0
M  V30 4702 O 505.032 1.74602 -0.531062 0
M  V30 4703 C 505.083 0.110357 -3.61332 0
M  V30 4704 O 504.804 -1.14095 -4.22982 0
M  V30 4705 C 506.305 0.656025 -4.38419 0
M  V30 4706 H 503.525 -0.0552732 -0.66872 0
M  V30 4707 H 506.069 -0.797242 -1.8832 0
M  V30 4708 H 504.224 0.790637 -3.79246 0
M  V30 4709 H 504.638 -0.951742 -5.15793 0
M  V30 4710 H 506.112 0.729438 -5.47159 0
M  V30 4711 H 506.589 1.67195 -4.06131 0
M  V30 4712 H 507.195 0.0107692 -4.25299 0
M  V30 4713 N 505.51 1.54411 -0.315457 0
M  V30 4714 C 506.758 2.00023 0.288971 0
M  V30 4715 C 507.079 1.20529 1.5329 0
M  V30 4716 O 506.349 0.304986 1.93511 0
M  V30 4717 H 504.929 0.738891 0.109766 0
M  V30 4718 H 507.591 1.90094 -0.430129 0
M  V30 4719 H 506.687 3.07198 0.550999 0
M  V30 4720 N 506.988 0.0434614 1.5754 0
M  V30 4721 C 508.399 -0.493343 1.80064 0
M  V30 4722 C 508.75 -1.71388 0.955023 0
M  V30 4723 O 507.875 -2.15736 0.169434 0
M  V30 4724 C 508.47 -0.90179 3.26578 0
M  V30 4725 C 507.029 -1.38362 3.50047 0
M  V30 4726 C 506.176 -0.355129 2.75017 0
M  V30 4727 H 509.127 0.2694 1.56397 0
M  V30 4728 H 509.148 -1.76523 3.37075 0
M  V30 4729 H 508.66 -0.013271 3.88098 0
M  V30 4730 H 506.761 -2.29159 2.93798 0
M  V30 4731 H 506.874 -1.3811 4.58762 0
M  V30 4732 H 505.238 -0.826348 2.40922 0
M  V30 4733 H 506.021 0.525172 3.39259 0
M  V30 4734 N 508.466 -1.55915 -0.229846 0
M  V30 4735 C 509.694 -1.82617 -0.972562 0
M  V30 4736 C 510.109 -0.621488 -1.78278 0
M  V30 4737 O 509.466 0.409956 -1.77836 0
M  V30 4738 C 509.517 -3.0774 -1.89679 0
M  V30 4739 O 509.238 -4.23559 -1.11934 0
M  V30 4740 C 510.739 -3.47368 -2.75409 0
M  V30 4741 H 507.959 -0.60727 -0.285419 0
M  V30 4742 H 510.503 -2.02996 -0.247579 0
M  V30 4743 H 508.658 -2.89361 -2.57583 0
M  V30 4744 H 509.072 -4.94586 -1.74599 0
M  V30 4745 H 510.546 -4.37977 -3.35977 0
M  V30 4746 H 511.023 -2.68737 -3.47386 0
M  V30 4747 H 511.629 -3.68158 -2.12931 0
M  V30 4748 N 509.944 0.496216 -1.49584 0
M  V30 4749 C 510.907 1.57952 -1.66084 0
M  V30 4750 C 511.907 1.51729 -0.53244 0
M  V30 4751 O 513.097 1.54796 -0.79899 0
M  V30 4752 C 510.229 2.97604 -1.66268 0
M  V30 4753 H 511.422 1.44649 -2.6271 0
M  V30 4754 H 508.975 0.7208 -1.38687 0
M  V30 4755 H 509.71 3.16378 -0.712432 0
M  V30 4756 H 509.495 3.03528 -2.4822 0
M  V30 4757 H 510.985 3.76301 -1.81073 0
M  V30 4758 N 511.423 1.38739 0.74761 0
M  V30 4759 C 512.7 1.25791 1.49786 0
M  V30 4760 C 513.08 -0.138075 2.10648 0
M  V30 4761 O 512.428 -1.14815 1.9756 0
M  V30 4762 C 512.638 2.37265 2.55942 0
M  V30 4763 C 513.986 2.75978 3.22679 0
M  V30 4764 O 515.01 2.36621 2.6625 0
M  V30 4765 O 513.869 3.43867 4.24756 0
M  V30 4766 H 510.963 0.492251 0.664543 0
M  V30 4767 H 513.509 1.50582 0.782511 0
M  V30 4768 H 512.281 3.30644 2.0926 0
M  V30 4769 H 511.904 2.14071 3.35051 0
M  V30 4770 N 512.901 -0.976442 1.23707 0
M  V30 4771 C 514.312 -1.53284 1.06587 0
M  V30 4772 C 514.663 -1.92765 -0.365526 0
M  V30 4773 O 513.788 -1.7645 -1.25277 0
M  V30 4774 C 514.383 -2.78548 1.92864 0
M  V30 4775 C 512.942 -3.30574 1.79994 0
M  V30 4776 C 512.089 -2.03538 1.88328 0
M  V30 4777 H 515.04 -0.795692 1.37311 0
M  V30 4778 H 515.061 -3.5155 1.45577 0
M  V30 4779 H 514.573 -2.49782 2.97037 0
M  V30 4780 H 512.674 -3.64211 0.786202 0
M  V30 4781 H 512.787 -4.00065 2.636 0
M  V30 4782 H 511.151 -2.17853 1.31954 0
M  V30 4783 H 511.934 -1.77149 2.94063 0
M  V30 4784 N 514.379 -1.04941 -1.1758 0
M  V30 4785 C 515.289 -0.658826 -2.25159 0
M  V30 4786 C 516.305 0.318941 -1.71052 0
M  V30 4787 O 517.481 0.171669 -2.00667 0
M  V30 4788 C 514.546 -0.0369522 -3.4668 0
M  V30 4789 C 513.607 -1.06484 -4.15884 0
M  V30 4790 C 512.84 -0.472551 -5.31604 0
M  V30 4791 O 513.063 0.718736 -5.65854 0
M  V30 4792 O 511.997 -1.20557 -5.89703 0
M  V30 4793 H 515.823 -1.55533 -2.60851 0
M  V30 4794 H 513.408 -0.820819 -1.24832 0
M  V30 4795 H 515.29 0.308784 -4.20267 0
M  V30 4796 H 513.965 0.833238 -3.12792 0
M  V30 4797 H 512.872 -1.46253 -3.44327 0
M  V30 4798 H 514.205 -1.9061 -4.53794 0
M  V30 4799 N 515.857 1.33968 -0.830081 0
M  V30 4800 C 516.804 2.29387 -0.255008 0
M  V30 4801 C 517.774 1.53923 0.624243 0
M  V30 4802 O 518.959 1.82262 0.564372 0
M  V30 4803 C 516.099 3.4034 0.571209 0
M  V30 4804 C 515.212 4.30729 -0.331083 0
M  V30 4805 C 514.347 5.2879 0.505389 0
M  V30 4806 C 513.386 6.10819 -0.395843 0
M  V30 4807 N 512.523 7.00948 0.401979 0
M  V30 4808 H 517.363 2.77972 -1.07404 0
M  V30 4809 H 514.9 1.36785 -0.541133 0
M  V30 4810 H 516.858 4.03361 1.06562 0
M  V30 4811 H 515.488 2.9297 1.35529 0
M  V30 4812 H 514.54 3.68507 -0.943759 0
M  V30 4813 H 515.852 4.88181 -1.02377 0
M  V30 4814 H 515.006 5.97297 1.06399 0
M  V30 4815 H 513.745 4.71894 1.23155 0
M  V30 4816 H 512.75 5.41238 -0.966529 0
M  V30 4817 H 513.975 6.69797 -1.12023 0
M  V30 4818 H 511.921 6.46512 1.11168 0
M  V30 4819 H 511.838 7.55643 -0.232167 0
M  V30 4820 H 513.106 7.73774 0.943102 0
M  V30 4821 N 517.335 0.585699 1.46312 0
M  V30 4822 C 518.751 0.247607 1.57668 0
M  V30 4823 C 518.951 -1.25007 1.58037 0
M  V30 4824 O 518.007 -2.03196 1.49893 0
M  V30 4825 C 519.32 0.899456 2.86933 0
M  V30 4826 C 520.868 0.873326 3.00569 0
M  V30 4827 C 521.343 1.50477 4.32574 0
M  V30 4828 N 522.834 1.46925 4.3928 0
M  V30 4829 C 523.569 1.92719 5.40044 0
M  V30 4830 N 523.065 2.46499 6.47464 0
M  V30 4831 N 524.858 1.83617 5.31264 0
M  V30 4832 H 517.009 1.55841 1.44317 0
M  V30 4833 H 519.272 0.651564 0.688599 0
M  V30 4834 H 518.978 1.95313 2.92482 0
M  V30 4835 H 518.852 0.409476 3.74971 0
M  V30 4836 H 521.239 -0.171736 2.946 0
M  V30 4837 H 521.32 1.40136 2.13999 0
M  V30 4838 H 520.964 2.54905 4.39302 0
M  V30 4839 H 520.894 0.951944 5.17924 0
M  V30 4840 H 523.385 1.07616 3.62253 0
M  V30 4841 H 523.698 2.79291 7.20567 0
M  V30 4842 H 522.043 2.50526 6.48276 0
M  V30 4843 H 525.234 1.41358 4.46246 0
M  V30 4844 H 525.407 2.19622 6.09648 0
M  V30 4845 N 518.813 -1.54241 0.323641 0
M  V30 4846 C 519.76 -2.24339 -0.542277 0
M  V30 4847 C 520.73 -1.23421 -1.11159 0
M  V30 4848 O 521.915 -1.52104 -1.15192 0
M  V30 4849 C 519.055 -3.00479 -1.69725 0
M  V30 4850 C 518.168 -4.16214 -1.15716 0
M  V30 4851 C 517.303 -4.79884 -2.27783 0
M  V30 4852 C 516.342 -5.87722 -1.71023 0
M  V30 4853 N 515.479 -6.45254 -2.76752 0
M  V30 4854 H 520.319 -2.97935 0.0620613 0
M  V30 4855 H 517.856 -1.47039 0.0423993 0
M  V30 4856 H 519.814 -3.42869 -2.3769 0
M  V30 4857 H 518.444 -2.29217 -2.27288 0
M  V30 4858 H 517.496 -3.78605 -0.369063 0
M  V30 4859 H 518.808 -4.93838 -0.701832 0
M  V30 4860 H 517.962 -5.25243 -3.03651 0
M  V30 4861 H 516.701 -4.01641 -2.76652 0
M  V30 4862 H 515.706 -5.41765 -0.936518 0
M  V30 4863 H 516.931 -6.67863 -1.2303 0
M  V30 4864 H 514.877 -5.69884 -3.24912 0
M  V30 4865 H 514.794 -7.18292 -2.35782 0
M  V30 4866 H 516.062 -6.95269 -3.5245 0
M  V30 4867 N 520.291 -0.0518155 -1.57515 0
M  V30 4868 C 521.221 0.920283 -2.146 0
M  V30 4869 C 522.202 1.32406 -1.06783 0
M  V30 4870 O 523.387 1.39866 -1.34726 0
M  V30 4871 C 520.517 2.1949 -2.6915 0
M  V30 4872 C 519.471 1.93116 -3.81956 0
M  V30 4873 C 518.797 3.27037 -4.23026 0
M  V30 4874 C 520.097 1.25225 -5.07066 0
M  V30 4875 H 521.791 0.444801 -2.96077 0
M  V30 4876 H 519.337 0.212508 -1.42423 0
M  V30 4877 H 521.29 2.87894 -3.07725 0
M  V30 4878 H 520.014 2.69244 -1.84865 0
M  V30 4879 H 518.673 1.27123 -3.43854 0
M  V30 4880 H 518.321 3.74595 -3.3569 0
M  V30 4881 H 518.021 3.10189 -4.99056 0
M  V30 4882 H 519.545 3.96673 -4.64202 0
M  V30 4883 H 520.959 1.83666 -5.43083 0
M  V30 4884 H 519.356 1.18702 -5.88243 0
M  V30 4885 H 520.426 0.228382 -4.84362 0
M  V30 4886 N 521.769 1.56035 0.221574 0
M  V30 4887 C 523.018 1.78245 0.944016 0
M  V30 4888 C 523.331 0.620371 1.85501 0
M  V30 4889 O 524.537 0.726103 2.6161 0
M  V30 4890 C 522.993 3.15659 1.7288 0
M  V30 4891 C 522.601 4.39591 0.863942 0
M  V30 4892 C 524.345 3.47195 2.44246 0
M  V30 4893 C 522.252 5.6803 1.64607 0
M  V30 4894 H 521.182 0.664547 0.356222 0
M  V30 4895 H 523.833 1.8243 0.197904 0
M  V30 4896 H 522.215 3.0565 2.51781 0
M  V30 4897 H 523.389 4.60655 0.115464 0
M  V30 4898 H 521.704 4.15572 0.262407 0
M  V30 4899 H 524.301 4.40381 3.03263 0
M  V30 4900 H 524.644 2.69693 3.1713 0
M  V30 4901 H 525.177 3.58533 1.72334 0
M  V30 4902 H 521.916 6.48425 0.960507 0
M  V30 4903 H 521.436 5.51027 2.36917 0
M  V30 4904 H 523.115 6.08203 2.20675 0
M  V30 4905 N 523.247 -0.488276 1.49845 0
M  V30 4906 C 524.179 -1.60539 1.63584 0
M  V30 4907 C 525.192 -1.5434 0.517972 0
M  V30 4908 O 526.381 -1.60041 0.790516 0
M  V30 4909 C 523.481 -2.99374 1.58835 0
M  V30 4910 C 522.654 -3.30624 2.86368 0
M  V30 4911 C 521.713 -4.4893 2.74496 0
M  V30 4912 O 520.739 -4.50085 3.48443 0
M  V30 4913 N 521.941 -5.49591 1.86894 0
M  V30 4914 H 524.706 -1.49176 2.59936 0
M  V30 4915 H 522.267 -0.67639 1.47094 0
M  V30 4916 H 524.259 -3.76459 1.48529 0
M  V30 4917 H 522.829 -3.04595 0.702892 0
M  V30 4918 H 522.049 -2.42314 3.1093 0
M  V30 4919 H 523.337 -3.48305 3.70892 0
M  V30 4920 H 522.735 -5.51467 1.26097 0
M  V30 4921 H 521.292 -6.25728 1.82503 0
M  V30 4922 N 524.725 -1.39134 -0.740242 0
M  V30 4923 C 525.657 -1.33332 -1.86428 0
M  V30 4924 C 526.67 -0.243042 -1.60976 0
M  V30 4925 O 527.859 -0.501608 -1.71307 0
M  V30 4926 C 524.959 -1.04626 -3.22346 0
M  V30 4927 C 524.132 -2.24826 -3.75196 0
M  V30 4928 C 523.191 -1.92659 -4.89662 0
M  V30 4929 O 522.217 -2.6529 -5.03597 0
M  V30 4930 N 523.419 -0.889575 -5.73643 0
M  V30 4931 H 526.184 -2.30196 -1.91911 0
M  V30 4932 H 523.745 -1.33168 -0.920756 0
M  V30 4933 H 525.737 -0.811347 -3.96484 0
M  V30 4934 H 524.307 -0.165129 -3.12164 0
M  V30 4935 H 523.527 -2.64301 -2.9247 0
M  V30 4936 H 524.815 -3.05015 -4.07239 0
M  V30 4937 H 524.213 -0.287529 -5.64969 0
M  V30 4938 H 522.77 -0.714557 -6.47871 0
M  V30 4939 N 526.204 0.969867 -1.24223 0
M  V30 4940 C 527.136 2.0669 -0.99055 0
M  V30 4941 C 528.149 1.62753 0.0392222 0
M  V30 4942 O 529.338 1.77403 -0.197561 0
M  V30 4943 C 526.438 3.35589 -0.472594 0
M  V30 4944 C 525.611 4.08444 -1.56499 0
M  V30 4945 C 524.67 5.15616 -1.05007 0
M  V30 4946 O 523.696 5.41911 -1.7413 0
M  V30 4947 N 524.898 5.80383 0.116641 0
M  V30 4948 H 527.663 2.28855 -1.93508 0
M  V30 4949 H 525.224 1.13733 -1.15223 0
M  V30 4950 H 527.216 4.04542 -0.112919 0
M  V30 4951 H 525.786 3.10311 0.377617 0
M  V30 4952 H 525.006 3.33798 -2.09696 0
M  V30 4953 H 526.294 4.53882 -2.29932 0
M  V30 4954 H 525.692 5.6142 0.694589 0
M  V30 4955 H 524.249 6.50462 0.417483 0
M  V30 4956 N 527.682 1.05563 1.17022 0
M  V30 4957 C 528.612 0.681026 2.23348 0
M  V30 4958 C 529.593 -0.322983 1.67005 0
M  V30 4959 O 530.778 -0.199746 1.9317 0
M  V30 4960 C 527.908 0.0589053 3.4725 0
M  V30 4961 C 526.862 0.988082 4.16438 0
M  V30 4962 C 526.188 0.229646 5.34207 0
M  V30 4963 C 527.488 2.31388 4.68249 0
M  V30 4964 H 529.182 1.56993 2.54938 0
M  V30 4965 H 526.728 0.756302 1.2254 0
M  V30 4966 H 528.681 -0.214982 4.20851 0
M  V30 4967 H 527.405 -0.864968 3.14938 0
M  V30 4968 H 526.064 1.24659 3.44754 0
M  V30 4969 H 525.712 -0.697111 4.98146 0
M  V30 4970 H 525.412 0.848815 5.81437 0
M  V30 4971 H 526.936 -0.0368694 6.10589 0
M  V30 4972 H 528.35 2.09964 5.33468 0
M  V30 4973 H 526.747 2.88736 5.26072 0
M  V30 4974 H 527.817 2.94982 3.84855 0
M  V30 4975 N 529.16 -1.33526 0.837174 0
M  V30 4976 C 530.406 -1.9813 0.432704 0
M  V30 4977 C 530.739 -1.66168 -1.00508 0
M  V30 4978 O 530.014 -0.94069 -1.70239 0
M  V30 4979 C 530.297 -3.54151 0.651834 0
M  V30 4980 C 530.15 -3.95806 2.13676 0
M  V30 4981 C 531.469 -4.39993 0.0968937 0
M  V30 4982 H 528.588 -0.719713 0.15869 0
M  V30 4983 H 531.23 -1.58193 1.05237 0
M  V30 4984 H 529.38 -3.88301 0.124369 0
M  V30 4985 H 531.052 -3.71921 2.72896 0
M  V30 4986 H 529.295 -3.45599 2.62191 0
M  V30 4987 H 529.966 -5.0447 2.24084 0
M  V30 4988 H 532.442 -4.12479 0.547733 0
M  V30 4989 H 531.318 -5.48186 0.279917 0
M  V30 4990 H 531.579 -4.3066 -0.9992 0
M  V30 4991 N 530.638 -0.59345 -1.46 0
M  V30 4992 C 531.568 0.121192 -2.33185 0
M  V30 4993 C 532.549 0.872977 -1.4599 0
M  V30 4994 O 533.734 0.846321 -1.74789 0
M  V30 4995 C 530.864 1.12844 -3.28456 0
M  V30 4996 C 529.818 0.4908 -4.25177 0
M  V30 4997 C 529.144 1.60529 -5.10034 0
M  V30 4998 C 530.444 -0.578949 -5.19081 0
M  V30 4999 H 532.138 -0.606767 -2.93187 0
M  V30 5000 H 529.684 -0.293242 -1.40983 0
M  V30 5001 H 531.637 1.63684 -3.88311 0
M  V30 5002 H 530.361 1.88681 -2.66584 0
M  V30 5003 H 529.02 0.00339328 -3.666 0
M  V30 5004 H 528.668 2.35359 -4.44539 0
M  V30 5005 H 528.368 1.18422 -5.75543 0
M  V30 5006 H 529.892 2.11623 -5.72755 0
M  V30 5007 H 531.306 -0.155199 -5.7309 0
M  V30 5008 H 529.703 -0.920947 -5.92991 0
M  V30 5009 H 530.773 -1.46109 -4.62364 0
M  V30 5010 N 532.116 1.54067 -0.331816 0
M  V30 5011 C 533.046 2.27569 0.522932 0
M  V30 5012 C 534.027 1.28679 1.11247 0
M  V30 5013 O 535.212 1.57504 1.13605 0
M  V30 5014 C 532.342 3.0397 1.67987 0
M  V30 5015 C 531.296 4.10267 1.21924 0
M  V30 5016 C 530.622 4.74555 2.46377 0
M  V30 5017 C 531.922 5.21268 0.32815 0
M  V30 5018 H 533.616 2.99264 -0.0901977 0
M  V30 5019 H 531.162 1.4393 -0.044821 0
M  V30 5020 H 533.115 3.54123 2.28418 0
M  V30 5021 H 531.839 2.29906 2.31971 0
M  V30 5022 H 530.498 3.61009 0.637809 0
M  V30 5023 H 530.146 3.97098 3.08743 0
M  V30 5024 H 529.846 5.46363 2.16243 0
M  V30 5025 H 531.37 5.27487 3.07555 0
M  V30 5026 H 532.784 5.67128 0.838978 0
M  V30 5027 H 531.181 5.99982 0.119228 0
M  V30 5028 H 532.251 4.80673 -0.638839 0
M  V30 5029 N 533.594 0.0601682 1.57485 0
M  V30 5030 C 534.524 -0.90889 2.15085 0
M  V30 5031 C 535.505 -1.31838 1.07484 0
M  V30 5032 O 536.69 -1.3915 1.35466 0
M  V30 5033 C 533.82 -2.18059 2.7031 0
M  V30 5034 C 532.774 -1.91088 3.82974 0
M  V30 5035 C 532.1 -3.24789 4.24754 0
M  V30 5036 C 533.4 -1.22535 5.07723 0
M  V30 5037 H 535.094 -0.429093 2.96309 0
M  V30 5038 H 532.64 -0.204952 1.42534 0
M  V30 5039 H 534.593 -2.86258 3.09248 0
M  V30 5040 H 533.317 -2.6826 1.8629 0
M  V30 5041 H 531.976 -1.25297 3.44523 0
M  V30 5042 H 531.624 -3.72809 3.37672 0
M  V30 5043 H 531.324 -3.07538 5.00694 0
M  V30 5044 H 532.848 -3.94205 4.66299 0
M  V30 5045 H 534.262 -1.80783 5.4405 0
M  V30 5046 H 532.659 -1.1558 5.88864 0
M  V30 5047 H 533.729 -0.202692 4.84476 0
M  V30 5048 N 535.072 -1.5615 -0.213296 0
M  V30 5049 C 536.022 -1.89485 -1.26804 0
M  V30 5050 C 537.006 -0.758713 -1.41889 0
M  V30 5051 O 538.198 -1.02127 -1.44565 0
M  V30 5052 C 535.327 -2.22219 -2.61675 0
M  V30 5053 C 534.413 -3.42245 -2.50458 0
M  V30 5054 N 534.804 -4.60645 -2.089 0
M  V30 5055 C 533.102 -3.46023 -2.81397 0
M  V30 5056 C 533.803 -5.42805 -2.09135 0
M  V30 5057 N 532.779 -4.82732 -2.49941 0
M  V30 5058 H 536.581 -2.78537 -0.937771 0
M  V30 5059 H 534.095 -1.56826 -0.421824 0
M  V30 5060 H 536.092 -2.44278 -3.37837 0
M  V30 5061 H 534.752 -1.34484 -2.95541 0
M  V30 5062 H 535.763 -4.85651 -1.79899 0
M  V30 5063 H 532.44 -2.68654 -3.1958 0
M  V30 5064 H 533.83 -6.47601 -1.79059 0
M  V30 5065 N 536.55 0.480323 -1.50102 0
M  V30 5066 C 537.513 1.56181 -1.6775 0
M  V30 5067 C 538.513 1.51156 -0.548503 0
M  V30 5068 O 539.703 1.5394 -0.815363 0
M  V30 5069 C 536.835 2.95823 -1.69415 0
M  V30 5070 H 538.028 1.41855 -2.6423 0
M  V30 5071 H 535.581 0.70605 -1.39444 0
M  V30 5072 H 536.316 3.15604 -0.745948 0
M  V30 5073 H 536.101 3.00878 -2.51425 0
M  V30 5074 H 537.591 3.74359 -1.85054 0
M  V30 5075 N 538.028 1.39524 0.732853 0
M  V30 5076 C 538.978 1.34905 1.83806 0
M  V30 5077 C 539.962 0.229546 1.59254 0
M  V30 5078 O 541.154 0.467255 1.70721 0
M  V30 5079 C 538.283 1.19699 3.21756 0
M  V30 5080 C 537.369 2.36359 3.5213 0
M  V30 5081 N 537.76 3.61834 3.53426 0
M  V30 5082 C 536.058 2.29363 3.82503 0
M  V30 5083 C 536.759 4.38992 3.81655 0
M  V30 5084 N 535.735 3.68606 3.99538 0
M  V30 5085 H 539.537 2.29882 1.83116 0
M  V30 5086 H 537.051 1.33051 0.931194 0
M  V30 5087 H 539.048 1.14472 4.00876 0
M  V30 5088 H 537.708 0.256739 3.23683 0
M  V30 5089 H 538.719 3.95228 3.34686 0
M  V30 5090 H 535.396 1.43612 3.92023 0
M  V30 5091 H 536.786 5.47763 3.89108 0
M  V30 5092 N 539.506 -0.963266 1.24736 0
M  V30 5093 C 540.453 -2.05857 1.04363 0
M  V30 5094 C 541.423 -1.6604 -0.0444951 0
M  V30 5095 O 542.608 -1.90477 0.110999 0
M  V30 5096 C 539.748 -3.38745 0.659235 0
M  V30 5097 C 538.861 -3.9173 1.82131 0
M  V30 5098 C 537.996 -5.12906 1.38208 0
M  V30 5099 C 537.035 -5.58098 2.51382 0
M  V30 5100 N 536.172 -6.7049 2.08295 0
M  V30 5101 H 541.012 -2.22616 1.98107 0
M  V30 5102 H 538.549 -1.09103 0.986661 0
M  V30 5103 H 540.507 -4.15107 0.417371 0
M  V30 5104 H 539.137 -3.21898 -0.241201 0
M  V30 5105 H 538.189 -3.11966 2.17672 0
M  V30 5106 H 539.501 -4.21225 2.67153 0
M  V30 5107 H 538.655 -5.96657 1.09935 0
M  V30 5108 H 537.394 -4.85105 0.502456 0
M  V30 5109 H 536.399 -4.72917 2.80409 0
M  V30 5110 H 537.624 -5.87911 3.39909 0
M  V30 5111 H 535.57 -6.44416 1.22737 0
M  V30 5112 H 535.487 -6.99458 2.86869 0
M  V30 5113 H 536.755 -7.57672 1.83175 0
M  V30 5114 N 540.985 -1.06182 -1.16461 0
M  V30 5115 C 542.225 -0.787048 -1.8864 0
M  V30 5116 C 542.589 0.674093 -1.79778 0
M  V30 5117 O 543.79 1.06341 -2.46871 0
M  V30 5118 C 542.061 -1.2666 -3.34203 0
M  V30 5119 S 543.62 -1.12071 -4.24247 0
M  V30 5120 H 540.438 -0.285539 -0.651144 0
M  V30 5121 H 543.04 -1.35851 -1.40587 0
M  V30 5122 H 541.744 -2.32496 -3.38192 0
M  V30 5123 H 541.275 -0.689841 -3.87304 0
M  V30 5124 H 543.29 -0.0509341 -4.96174 0
M  V30 5125 N 542.463 1.3308 -0.844243 0
M  V30 5126 C 543.395 2.27954 -0.238671 0
M  V30 5127 C 544.408 1.51978 0.583665 0
M  V30 5128 O 545.597 1.73731 0.409857 0
M  V30 5129 C 542.697 3.31963 0.682185 0
M  V30 5130 C 541.87 4.37281 -0.101998 0
M  V30 5131 C 540.929 5.20928 0.743022 0
M  V30 5132 O 539.955 5.68914 0.180285 0
M  V30 5133 N 541.157 5.42738 2.0595 0
M  V30 5134 H 543.922 2.8056 -1.05386 0
M  V30 5135 H 541.483 1.4583 -0.70322 0
M  V30 5136 H 543.475 3.84828 1.25259 0
M  V30 5137 H 542.045 2.79594 1.39808 0
M  V30 5138 H 541.265 3.84843 -0.853802 0
M  V30 5139 H 542.553 5.04746 -0.641015 0
M  V30 5140 H 541.951 5.05463 2.54016 0
M  V30 5141 H 540.508 5.98639 2.57827 0
M  V30 5142 N 543.941 0.601185 1.45683 0
M  V30 5143 C 545.357 0.264315 1.57396 0
M  V30 5144 C 545.557 -1.23324 1.59353 0
M  V30 5145 O 544.613 -2.01594 1.52039 0
M  V30 5146 C 545.926 0.929839 2.85962 0
M  V30 5147 C 547.474 0.905156 2.99626 0
M  V30 5148 C 547.949 1.55057 4.30954 0
M  V30 5149 N 549.44 1.51576 4.37697 0
M  V30 5150 C 550.175 1.98436 5.37969 0
M  V30 5151 N 549.671 2.53352 6.44813 0
M  V30 5152 N 551.464 1.89242 5.29286 0
M  V30 5153 H 543.615 1.57363 1.42656 0
M  V30 5154 H 545.878 0.658831 0.681649 0
M  V30 5155 H 545.584 1.98404 2.90394 0
M  V30 5156 H 545.458 0.449224 3.74515 0
M  V30 5157 H 547.845 -0.14048 2.94765 0
M  V30 5158 H 547.926 1.42397 2.12501 0
M  V30 5159 H 547.57 2.5955 4.36573 0
M  V30 5160 H 547.5 1.00682 5.16886 0
M  V30 5161 H 549.991 1.11452 3.61091 0
M  V30 5162 H 550.304 2.86918 7.17564 0
M  V30 5163 H 548.649 2.57388 6.45582 0
M  V30 5164 H 551.84 1.46083 4.44722 0
M  V30 5165 H 552.013 2.26075 6.07284 0
M  V30 5166 N 545.419 -1.53889 0.339982 0
M  V30 5167 C 546.835 -1.59595 -0.0120752 0
M  V30 5168 C 547.035 -1.35605 -1.49042 0
M  V30 5169 O 546.091 -1.14856 -2.24865 0
M  V30 5170 C 547.404 -2.9774 0.420898 0
M  V30 5171 C 548.952 -3.1077 0.37294 0
M  V30 5172 C 549.427 -4.51286 0.781327 0
M  V30 5173 N 550.918 -4.57325 0.735374 0
M  V30 5174 C 551.653 -5.64194 1.02336 0
M  V30 5175 N 551.149 -6.7893 1.37933 0
M  V30 5176 N 552.942 -5.54051 0.947838 0
M  V30 5177 H 545.093 -1.67738 1.30299 0
M  V30 5178 H 547.356 -0.785385 0.530918 0
M  V30 5179 H 547.062 -3.20349 1.45152 0
M  V30 5180 H 546.936 -3.76639 -0.205721 0
M  V30 5181 H 549.323 -2.87886 -0.648505 0
M  V30 5182 H 549.404 -2.33939 1.03472 0
M  V30 5183 H 549.048 -4.74905 1.80077 0
M  V30 5184 H 548.978 -5.26511 0.0970679 0
M  V30 5185 H 551.469 -3.74931 0.472773 0
M  V30 5186 H 551.782 -7.56392 1.58402 0
M  V30 5187 H 550.127 -6.80386 1.41774 0
M  V30 5188 H 553.318 -4.63293 0.669115 0
M  V30 5189 H 553.491 -6.37246 1.17563 0
M  V30 5190 N 546.897 -0.0685191 -1.57451 0
M  V30 5191 C 547.807 0.914677 -2.16034 0
M  V30 5192 C 548.823 1.32938 -1.12265 0
M  V30 5193 O 549.999 1.40275 -1.44516 0
M  V30 5194 C 547.064 2.16519 -2.70777 0
M  V30 5195 C 546.125 1.80721 -3.89408 0
M  V30 5196 C 545.358 2.9981 -4.41531 0
M  V30 5197 O 545.581 4.13727 -3.92666 0
M  V30 5198 O 544.515 2.79817 -5.32903 0
M  V30 5199 H 548.341 0.446364 -3.00402 0
M  V30 5200 H 545.926 0.154367 -1.486 0
M  V30 5201 H 547.808 2.89856 -3.05878 0
M  V30 5202 H 546.483 2.62454 -1.89471 0
M  V30 5203 H 545.39 1.04646 -3.59166 0
M  V30 5204 H 546.723 1.39571 -4.71997 0
M  V30 5205 N 548.375 1.56261 0.205012 0
M  V30 5206 C 549.307 1.90266 1.27795 0
M  V30 5207 C 550.32 0.792397 1.42214 0
M  V30 5208 O 551.509 1.07077 1.42817 0
M  V30 5209 C 548.609 2.11074 2.65143 0
M  V30 5210 C 547.782 3.42176 2.7246 0
M  V30 5211 C 546.841 3.52216 3.90936 0
M  V30 5212 O 545.867 4.25119 3.78501 0
M  V30 5213 N 547.069 2.84573 5.05963 0
M  V30 5214 H 549.834 2.82896 0.989434 0
M  V30 5215 H 547.395 1.57008 0.394981 0
M  V30 5216 H 549.387 2.15089 3.4281 0
M  V30 5217 H 547.957 1.2499 2.86524 0
M  V30 5218 H 547.177 3.50116 1.81142 0
M  V30 5219 H 548.465 4.28509 2.74331 0
M  V30 5220 H 547.863 2.25152 5.18963 0
M  V30 5221 H 546.42 2.94228 5.81613 0
M  V30 5222 N 549.853 -0.472356 1.50355 0
M  V30 5223 C 550.816 -1.5529 1.68576 0
M  V30 5224 C 551.816 -1.50863 0.556511 0
M  V30 5225 O 553.006 -1.53505 0.823516 0
M  V30 5226 C 550.138 -2.94921 1.70981 0
M  V30 5227 H 551.331 -1.40451 2.64978 0
M  V30 5228 H 548.884 -0.698645 1.39816 0
M  V30 5229 H 549.619 -3.15204 0.762675 0
M  V30 5230 H 549.404 -2.99541 2.53017 0
M  V30 5231 H 550.894 -3.73372 1.87037 0
M  V30 5232 N 551.331 -1.39911 -0.725443 0
M  V30 5233 C 552.279 -1.39552 -1.86086 0
M  V30 5234 C 553.273 -0.277334 -1.67114 0
M  V30 5235 O 554.479 -0.447865 -1.74339 0
M  V30 5236 H 550.854 -0.435993 -0.612711 0
M  V30 5237 H 552.825 -2.35305 -1.83505 0
M  V30 5238 C 551.574 -1.26529 -3.2386 0
M  V30 5239 H 550.897 -2.11845 -3.3906 0
M  V30 5240 H 552.337 -1.30336 -4.03471 0
M  V30 5241 C 550.796 0.0254168 -3.3689 0
M  V30 5242 O 551.326 0.992048 -3.89257 0
M  V30 5243 N 549.532 0.0916528 -2.90455 0
M  V30 5244 H 549.079 -0.695675 -2.48028 0
M  V30 5245 H 549.037 0.954745 -2.99553 0
M  V30 5246 N 552.809 0.956637 -1.25245 0
M  V30 5247 C 554.057 1.69764 -1.09657 0
M  V30 5248 C 554.378 1.91583 0.363464 0
M  V30 5249 O 553.648 1.50149 1.25825 0
M  V30 5250 H 552.228 0.629097 -0.402798 0
M  V30 5251 H 554.89 1.15026 -1.57337 0
M  V30 5252 H 553.986 2.67769 -1.60331 0
M  V30 5253 N 554.287 1.06798 1.15896 0
M  V30 5254 C 555.197 0.694564 2.24083 0
M  V30 5255 C 556.213 -0.291687 1.71538 0
M  V30 5256 O 557.389 -0.139723 2.00915 0
M  V30 5257 C 554.454 0.0921014 3.46578 0
M  V30 5258 C 553.515 1.13087 4.14137 0
M  V30 5259 C 552.748 0.557064 5.30785 0
M  V30 5260 O 552.971 -0.628623 5.66925 0
M  V30 5261 O 551.905 1.29924 5.8771 0
M  V30 5262 H 555.731 1.59663 2.58344 0
M  V30 5263 H 553.316 0.840575 1.2351 0
M  V30 5264 H 555.198 -0.241884 4.20705 0
M  V30 5265 H 553.873 -0.78337 3.14078 0
M  V30 5266 H 552.78 1.51712 3.41957 0
M  V30 5267 H 554.113 1.97805 4.50704 0
M  V30 5268 N 555.766 -1.3263 0.851289 0
M  V30 5269 C 557.012 -1.9766 0.453694 0
M  V30 5270 C 557.345 -1.67225 -0.987396 0
M  V30 5271 O 556.62 -0.958693 -1.69232 0
M  V30 5272 C 556.903 -3.5344 0.68936 0
M  V30 5273 C 556.756 -3.93517 2.17862 0
M  V30 5274 C 558.075 -4.39866 0.143555 0
M  V30 5275 H 555.194 -0.717989 0.166314 0
M  V30 5276 H 557.836 -1.57068 1.06909 0
M  V30 5277 H 555.986 -3.88147 0.165546 0
M  V30 5278 H 557.658 -3.69006 2.76826 0
M  V30 5279 H 555.901 -3.42798 2.65841 0
M  V30 5280 H 556.572 -5.02065 2.29422 0
M  V30 5281 H 559.048 -4.11875 0.591451 0
M  V30 5282 H 557.924 -5.47858 0.338043 0
M  V30 5283 H 558.185 -4.31696 -0.953466 0
M  V30 5284 N 557.244 -0.608902 -1.45362 0
M  V30 5285 C 558.66 -0.272659 -1.57254 0
M  V30 5286 C 558.86 1.22477 -1.60005 0
M  V30 5287 O 557.916 2.00785 -1.53106 0
M  V30 5288 C 559.229 -0.944991 -2.85465 0
M  V30 5289 C 560.777 -0.921033 -2.99142 0
M  V30 5290 C 561.252 -1.5734 -4.30126 0
M  V30 5291 N 562.743 -1.53895 -4.36887 0
M  V30 5292 C 563.478 -2.01286 -5.36909 0
M  V30 5293 N 562.974 -2.56768 -6.43461 0
M  V30 5294 N 564.767 -1.92046 -5.28275 0
M  V30 5295 H 556.918 -1.58117 -1.4182 0
M  V30 5296 H 559.181 -0.662437 -0.678146 0
M  V30 5297 H 558.887 -1.99941 -2.89338 0
M  V30 5298 H 558.761 -0.469079 -3.74272 0
M  V30 5299 H 561.148 0.124846 -2.94836 0
M  V30 5300 H 561.229 -1.43522 -2.11743 0
M  V30 5301 H 560.873 -2.61862 -4.35191 0
M  V30 5302 H 560.803 -1.03422 -5.16344 0
M  V30 5303 H 563.294 -1.13366 -3.60495 0
M  V30 5304 H 563.607 -2.9072 -7.16032 0
M  V30 5305 H 561.952 -2.60808 -6.44208 0
M  V30 5306 H 565.143 -1.48439 -4.43941 0
M  V30 5307 H 565.316 -2.29293 -6.06077 0
M  V30 5308 N 558.722 1.53707 -0.348139 0
M  V30 5309 C 559.685 2.23812 0.494058 0
M  V30 5310 C 560.685 1.23989 1.02388 0
M  V30 5311 O 561.875 1.48395 0.912396 0
M  V30 5312 C 559.007 2.96133 1.68872 0
M  V30 5313 H 560.2 2.99663 -0.119141 0
M  V30 5314 H 557.753 1.55983 -0.0995539 0
M  V30 5315 H 558.488 2.24481 2.34049 0
M  V30 5316 H 558.273 3.69357 1.31596 0
M  V30 5317 H 559.763 3.49475 2.28597 0
M  V30 5318 N 560.2 0.0768682 1.57412 0
M  V30 5319 C 561.44 -0.594676 1.95558 0
M  V30 5320 C 561.804 -1.66469 0.956658 0
M  V30 5321 O 563.005 -2.39215 1.22595 0
M  V30 5322 C 561.276 -1.15206 3.38323 0
M  V30 5323 S 562.835 -1.83803 3.9845 0
M  V30 5324 H 559.653 -0.194579 0.683857 0
M  V30 5325 H 562.255 0.151933 1.94909 0
M  V30 5326 H 560.959 -0.36153 4.08805 0
M  V30 5327 H 560.49 -1.93491 3.42527 0
M  V30 5328 H 562.505 -3.12087 3.85767 0
M  V30 5329 N 561.678 -1.56367 -0.196722 0
M  V30 5330 C 562.903 -1.84991 -0.937714 0
M  V30 5331 C 563.328 -0.660244 -1.76132 0
M  V30 5332 O 562.686 0.390967 -1.77034 0
M  V30 5333 C 562.734 -3.11828 -1.81096 0
M  V30 5334 O 561.838 -2.92266 -2.90955 0
M  V30 5335 H 561.179 -0.609193 -0.264159 0
M  V30 5336 H 563.709 -2.03595 -0.202529 0
M  V30 5337 H 563.719 -3.42579 -2.21594 0
M  V30 5338 H 562.394 -3.98037 -1.2058 0
M  V30 5339 H 560.971 -2.72809 -2.54224 0
M  V30 5340 N 563.156 0.464375 -1.50603 0
M  V30 5341 C 564.086 1.56944 -1.72889 0
M  V30 5342 C 565.067 1.59979 -0.577997 0
M  V30 5343 O 566.252 1.76138 -0.817855 0
M  V30 5344 C 563.382 2.95225 -1.8292 0
M  V30 5345 C 562.336 3.07056 -2.98162 0
M  V30 5346 C 561.662 4.47051 -2.93343 0
M  V30 5347 C 562.962 2.83648 -4.38567 0
M  V30 5348 H 564.656 1.38547 -2.65415 0
M  V30 5349 H 562.202 0.665082 -1.27721 0
M  V30 5350 H 564.155 3.72467 -1.97095 0
M  V30 5351 H 562.879 3.14793 -0.870209 0
M  V30 5352 H 561.538 2.32248 -2.83648 0
M  V30 5353 H 561.186 4.63547 -1.95276 0
M  V30 5354 H 560.886 4.55902 -3.70712 0
M  V30 5355 H 562.41 5.26304 -3.09575 0
M  V30 5356 H 563.824 3.50636 -4.53572 0
M  V30 5357 H 562.221 3.03937 -5.17438 0
M  V30 5358 H 563.291 1.79451 -4.50472 0
M  V30 5359 N 564.634 1.40294 0.718013 0
M  V30 5360 C 566.045 1.34289 1.29705 0
M  V30 5361 C 566.396 0.0152228 1.96194 0
M  V30 5362 O 565.521 -0.88682 1.97394 0
M  V30 5363 C 566.116 2.43219 2.3586 0
M  V30 5364 C 564.675 2.40682 2.89394 0
M  V30 5365 C 563.822 2.24223 1.63154 0
M  V30 5366 H 566.773 1.50135 0.514312 0
M  V30 5367 H 566.794 2.10986 3.16647 0
M  V30 5368 H 566.306 3.39836 1.87439 0
M  V30 5369 H 564.407 1.47756 3.42051 0
M  V30 5370 H 564.52 3.36177 3.41353 0
M  V30 5371 H 562.884 1.71696 1.88129 0
M  V30 5372 H 563.667 3.22834 1.16761 0
M  V30 5373 N 566.112 -0.949982 1.2575 0
M  V30 5374 C 567.062 -2.03297 1.03221 0
M  V30 5375 C 568.046 -1.60867 -0.0324751 0
M  V30 5376 O 569.238 -1.76047 0.183423 0
M  V30 5377 C 566.367 -3.36938 0.657841 0
M  V30 5378 C 565.453 -3.85878 1.75952 0
M  V30 5379 N 565.844 -4.0756 2.99547 0
M  V30 5380 C 564.142 -4.14709 1.64111 0
M  V30 5381 C 564.843 -4.47961 3.71087 0
M  V30 5382 N 563.819 -4.5416 2.98731 0
M  V30 5383 H 567.621 -2.1806 1.97045 0
M  V30 5384 H 565.135 -1.13516 1.16138 0
M  V30 5385 H 567.132 -4.14155 0.477614 0
M  V30 5386 H 565.792 -3.2355 -0.273025 0
M  V30 5387 H 566.803 -3.94501 3.35544 0
M  V30 5388 H 563.48 -4.10158 0.779527 0
M  V30 5389 H 564.87 -4.73002 4.77199 0
M  V30 5390 N 567.59 -1.07411 -1.15328 0
M  V30 5391 C 568.83 -0.807011 -1.87794 0
M  V30 5392 C 569.194 0.654987 -1.80482 0
M  V30 5393 O 570.395 1.03716 -2.47985 0
M  V30 5394 C 568.666 -1.30198 -3.32841 0
M  V30 5395 S 570.225 -1.16564 -4.23034 0
M  V30 5396 H 567.043 -0.292429 -0.648079 0
M  V30 5397 H 569.645 -1.37334 -1.39139 0
M  V30 5398 H 568.349 -2.3607 -3.35707 0
M  V30 5399 H 567.88 -0.730881 -3.86551 0
M  V30 5400 H 569.895 -0.103557 -4.96092 0
M  V30 5401 N 569.068 1.32177 -0.85831 0
M  V30 5402 C 570.484 1.49873 -0.548656 0
M  V30 5403 C 570.684 1.79278 0.919874 0
M  V30 5404 O 569.74 1.86451 1.70271 0
M  V30 5405 C 571.053 2.64043 -1.4388 0
M  V30 5406 C 572.601 2.77928 -1.43961 0
M  V30 5407 C 573.076 3.95182 -2.31506 0
M  V30 5408 N 574.567 4.0245 -2.29321 0
M  V30 5409 C 575.302 4.9242 -2.93786 0
M  V30 5410 N 574.798 5.87373 -3.67376 0
M  V30 5411 N 576.591 4.85572 -2.83155 0
M  V30 5412 H 568.742 1.11357 -1.80868 0
M  V30 5413 H 571.005 0.549175 -0.772729 0
M  V30 5414 H 570.711 2.49055 -2.48324 0
M  V30 5415 H 570.585 3.59912 -1.12885 0
M  V30 5416 H 572.972 2.92338 -0.402813 0
M  V30 5417 H 573.053 1.82762 -1.78974 0
M  V30 5418 H 572.697 3.81531 -3.35256 0
M  V30 5419 H 572.627 4.89633 -1.93823 0
M  V30 5420 H 575.118 3.34507 -1.75822 0
M  V30 5421 H 575.431 6.52728 -4.13722 0
M  V30 5422 H 573.776 5.87388 -3.71484 0
M  V30 5423 H 576.967 4.10363 -2.25211 0
M  V30 5424 H 577.14 5.55486 -3.33676 0
M  V30 5425 N 570.547 0.616602 1.45037 0
M  V30 5426 C 571.775 0.121968 2.0654 0
M  V30 5427 C 572.19 -1.19743 1.45969 0
M  V30 5428 O 571.547 -1.73133 0.577168 0
M  V30 5429 C 571.598 -0.0145171 3.61497 0
M  V30 5430 O 571.319 1.25269 4.19809 0
M  V30 5431 C 572.82 -0.539555 4.40004 0
M  V30 5432 H 570.04 0.0729837 0.667019 0
M  V30 5433 H 572.584 0.846891 1.8614 0
M  V30 5434 H 570.739 -0.689809 3.81209 0
M  V30 5435 H 571.153 1.08816 5.13088 0
M  V30 5436 H 572.627 -0.584112 5.48901 0
M  V30 5437 H 573.104 -1.56368 4.10421 0
M  V30 5438 H 573.71 0.101995 4.25178 0
M  V30 5439 N 572.025 -1.5352 0.356285 0
M  V30 5440 C 572.958 -2.2177 -0.537913 0
M  V30 5441 C 573.936 -1.20626 -1.09033 0
M  V30 5442 O 575.12 -1.49494 -1.1482 0
M  V30 5443 C 572.247 -2.90513 -1.74126 0
M  V30 5444 C 571.293 -4.05652 -1.31715 0
M  V30 5445 S 572.126 -5.34505 -0.326236 0
M  V30 5446 C 573.282 -6.06757 -1.53612 0
M  V30 5447 H 573.515 -2.97271 0.0417411 0
M  V30 5448 H 571.048 -1.53761 0.140372 0
M  V30 5449 H 573.006 -3.30735 -2.43155 0
M  V30 5450 H 571.667 -2.14754 -2.29215 0
M  V30 5451 H 570.86 -4.52733 -2.21471 0
M  V30 5452 H 570.462 -3.67272 -0.706183 0
M  V30 5453 H 572.754 -6.30924 -2.46863 0
M  V30 5454 H 573.697 -6.99395 -1.10687 0
M  V30 5455 H 574.105 -5.3708 -1.73796 0
M  V30 5456 N 573.503 -0.0852151 -1.57369 0
M  V30 5457 C 574.45 0.877268 -2.13478 0
M  V30 5458 C 575.42 1.28642 -1.05073 0
M  V30 5459 O 576.605 1.36992 -1.32808 0
M  V30 5460 C 573.745 2.13464 -2.71159 0
M  V30 5461 C 572.858 1.77691 -3.93764 0
M  V30 5462 C 571.993 2.98139 -4.39643 0
M  V30 5463 C 571.032 2.58447 -5.54862 0
M  V30 5464 N 570.169 3.71698 -5.95639 0
M  V30 5465 H 575.009 0.391933 -2.95411 0
M  V30 5466 H 572.546 0.181796 -1.45972 0
M  V30 5467 H 574.504 2.87086 -3.02717 0
M  V30 5468 H 573.134 2.59514 -1.91969 0
M  V30 5469 H 572.186 0.940768 -3.68583 0
M  V30 5470 H 573.498 1.44497 -4.77412 0
M  V30 5471 H 572.652 3.80026 -4.72933 0
M  V30 5472 H 571.391 3.34536 -3.54876 0
M  V30 5473 H 570.396 1.74984 -5.21211 0
M  V30 5474 H 571.621 2.23205 -6.41371 0
M  V30 5475 H 569.567 4.07831 -5.13819 0
M  V30 5476 H 569.484 3.42317 -6.74059 0
M  V30 5477 H 570.752 4.54123 -6.33555 0
M  V30 5478 N 574.981 1.5647 0.188427 0
M  V30 5479 C 575.929 1.95971 1.25293 0
M  V30 5480 C 576.923 0.846047 1.4676 0
M  V30 5481 O 578.129 1.03109 1.47542 0
M  V30 5482 H 574.504 0.623253 0.420784 0
M  V30 5483 H 576.475 2.84731 0.892792 0
M  V30 5484 C 575.224 2.32116 2.58877 0
M  V30 5485 H 574.547 3.17341 2.43176 0
M  V30 5486 H 575.987 2.63613 3.3209 0
M  V30 5487 C 574.446 1.15823 3.16365 0
M  V30 5488 O 574.976 0.436785 3.99318 0
M  V30 5489 N 573.182 0.933278 2.75206 0
M  V30 5490 H 572.729 1.52169 2.07852 0
M  V30 5491 H 572.687 0.156976 3.14008 0
M  V30 5492 N 576.459 -0.456382 1.50847 0
M  V30 5493 C 577.705 -1.20914 1.62811 0
M  V30 5494 C 578.038 -1.91301 0.334304 0
M  V30 5495 O 577.313 -1.82775 -0.665098 0
M  V30 5496 C 577.596 -2.24122 2.81853 0
M  V30 5497 C 577.449 -1.57944 4.21158 0
M  V30 5498 C 578.768 -3.25295 2.96431 0
M  V30 5499 H 575.887 -0.438233 0.592554 0
M  V30 5500 H 578.529 -0.50091 1.83278 0
M  V30 5501 H 576.679 -2.84524 2.64534 0
M  V30 5502 H 578.351 -1.01025 4.50102 0
M  V30 5503 H 576.594 -0.882185 4.24735 0
M  V30 5504 H 577.265 -2.33014 5.00408 0
M  V30 5505 H 579.741 -2.7493 3.12335 0
M  V30 5506 H 578.617 -3.94822 3.81322 0
M  V30 5507 H 578.878 -3.90286 2.07676 0
M  V30 5508 N 577.937 -1.40673 -0.710563 0
M  V30 5509 C 578.867 -1.44095 -1.83736 0
M  V30 5510 C 579.848 -0.301286 -1.67411 0
M  V30 5511 O 581.033 -0.510618 -1.87367 0
M  V30 5512 C 578.163 -1.30773 -3.21738 0
M  V30 5513 C 577.117 -2.42395 -3.52745 0
M  V30 5514 C 576.443 -2.14147 -4.89944 0
M  V30 5515 C 577.743 -3.84738 -3.53234 0
M  V30 5516 H 579.437 -2.38396 -1.81129 0
M  V30 5517 H 576.983 -1.14746 -0.870017 0
M  V30 5518 H 578.936 -1.31783 -4.00264 0
M  V30 5519 H 577.66 -0.329507 -3.24934 0
M  V30 5520 H 576.319 -2.40643 -2.76562 0
M  V30 5521 H 575.967 -1.14703 -4.89747 0
M  V30 5522 H 575.667 -2.88934 -5.11655 0
M  V30 5523 H 577.191 -2.16848 -5.70797 0
M  V30 5524 H 578.605 -3.88286 -4.2179 0
M  V30 5525 H 577.002 -4.59085 -3.86473 0
M  V30 5526 H 578.072 -4.13962 -2.52514 0
M  V30 5527 N 579.415 0.9433 -1.26252 0
M  V30 5528 C 580.363 2.06302 -1.07434 0
M  V30 5529 C 581.357 1.694 -0.00189471 0
M  V30 5530 O 582.563 1.79302 -0.158408 0
M  V30 5531 H 578.938 0.675453 -0.330556 0
M  V30 5532 H 580.909 2.19326 -2.02333 0
M  V30 5533 C 579.658 3.40125 -0.721817 0
M  V30 5534 H 578.981 3.68996 -1.5389 0
M  V30 5535 H 580.421 4.19295 -0.629922 0
M  V30 5536 C 578.88 3.31993 0.572902 0
M  V30 5537 O 579.41 3.67945 1.61182 0
M  V30 5538 N 577.616 2.85099 0.562748 0
M  V30 5539 H 577.163 2.5604 -0.283092 0
M  V30 5540 H 577.121 2.80041 1.42915 0
M  V30 5541 N 580.893 1.08022 1.14757 0
M  V30 5542 C 581.843 0.676345 2.17737 0
M  V30 5543 C 582.827 -0.302018 1.5804 0
M  V30 5544 O 584.019 -0.11466 1.76628 0
M  V30 5545 C 581.148 0.082984 3.432 0
M  V30 5546 C 580.234 1.0869 4.09936 0
M  V30 5547 N 580.625 2.26891 4.52055 0
M  V30 5548 C 578.923 0.921768 4.36371 0
M  V30 5549 C 579.624 2.90636 5.0389 0
M  V30 5550 N 578.6 2.18266 4.97856 0
M  V30 5551 H 582.402 1.5765 2.4804 0
M  V30 5552 H 579.916 0.954374 1.31398 0
M  V30 5553 H 581.913 -0.224289 4.16296 0
M  V30 5554 H 580.573 -0.812206 3.14378 0
M  V30 5555 H 581.584 2.6457 4.45223 0
M  V30 5556 H 578.261 0.0800499 4.17423 0
M  V30 5557 H 579.651 3.9104 5.46386 0
M  V30 5558 N 582.371 -1.3172 0.865308 0
M  V30 5559 C 583.304 -2.26687 0.262376 0
M  V30 5560 C 584.282 -1.50894 -0.605787 0
M  V30 5561 O 585.466 -1.79982 -0.56024 0
M  V30 5562 C 582.593 -3.3281 -0.628915 0
M  V30 5563 C 581.639 -4.26172 0.167278 0
M  V30 5564 S 582.472 -5.12797 1.54272 0
M  V30 5565 C 583.628 -6.22438 0.657427 0
M  V30 5566 H 583.861 -2.77478 1.0674 0
M  V30 5567 H 581.394 -1.39414 0.663555 0
M  V30 5568 H 583.352 -3.94426 -1.13747 0
M  V30 5569 H 582.013 -2.80782 -1.40785 0
M  V30 5570 H 581.206 -5.01392 -0.51203 0
M  V30 5571 H 580.808 -3.69029 0.607777 0
M  V30 5572 H 583.1 -6.77368 -0.133925 0
M  V30 5573 H 584.043 -6.9451 1.38061 0
M  V30 5574 H 584.451 -5.64043 0.227044 0
M  V30 5575 N 583.85 -0.624285 -1.44708 0
M  V30 5576 C 585.077 -0.132919 -2.06473 0
M  V30 5577 C 585.493 1.18967 -1.46602 0
M  V30 5578 O 584.85 1.72824 -0.586341 0
M  V30 5579 C 584.901 -0.00465418 -3.615 0
M  V30 5580 O 584.622 -1.27494 -4.19138 0
M  V30 5581 C 586.123 0.516213 -4.40284 0
M  V30 5582 H 583.343 -0.0765201 -0.666623 0
M  V30 5583 H 585.887 -0.856751 -1.85688 0
M  V30 5584 H 584.042 0.669583 -3.8157 0
M  V30 5585 H 584.456 -1.11536 -5.12504 0
M  V30 5586 H 585.93 0.554994 -5.49203 0
M  V30 5587 H 586.407 1.5419 -4.11245 0
M  V30 5588 H 587.013 -0.124542 -4.25118 0
M  V30 5589 N 585.328 1.53329 -0.364422 0
M  V30 5590 C 586.278 2.22472 0.499024 0
M  V30 5591 C 587.262 1.21952 1.0496 0
M  V30 5592 O 588.454 1.47405 0.979836 0
M  V30 5593 C 585.583 3.01659 1.6388 0
M  V30 5594 C 584.669 4.09555 1.10116 0
M  V30 5595 N 585.06 5.04988 0.286414 0
M  V30 5596 C 583.358 4.2424 1.37608 0
M  V30 5597 C 584.059 5.81699 -0.00781682 0
M  V30 5598 N 583.035 5.40394 0.589494 0
M  V30 5599 H 586.837 2.93611 -0.130284 0
M  V30 5600 H 584.351 1.61483 -0.172377 0
M  V30 5601 H 586.348 3.4971 2.26954 0
M  V30 5602 H 585.008 2.32051 2.27118 0
M  V30 5603 H 586.019 5.17847 -0.0742839 0
M  V30 5604 H 582.696 3.65858 2.01133 0
M  V30 5605 H 584.086 6.68587 -0.666394 0
M  V30 5606 N 586.806 0.0935595 1.57322 0
M  V30 5607 C 588.046 -0.573901 1.96178 0
M  V30 5608 C 588.41 -1.65445 0.97426 0
M  V30 5609 O 589.611 -2.37901 1.25126 0
M  V30 5610 C 587.882 -1.11612 3.39526 0
M  V30 5611 S 589.441 -1.79566 4.00377 0
M  V30 5612 H 586.259 -0.187315 0.685882 0
M  V30 5613 H 588.861 0.172597 1.94737 0
M  V30 5614 H 587.565 -0.31815 4.09165 0
M  V30 5615 H 587.096 -1.89848 3.4456 0
M  V30 5616 H 589.111 -3.07978 3.89056 0
M  V30 5617 N 588.284 -1.56567 -0.180126 0
M  V30 5618 C 589.216 -1.92275 -1.24751 0
M  V30 5619 C 590.229 -0.814922 -1.40936 0
M  V30 5620 O 591.418 -1.09336 -1.41095 0
M  V30 5621 C 588.518 -2.15265 -2.61752 0
M  V30 5622 C 587.691 -3.46467 -2.66981 0
M  V30 5623 C 586.75 -3.58391 -3.85283 0
M  V30 5624 O 585.776 -4.31086 -3.7169 0
M  V30 5625 N 586.978 -2.92587 -5.01371 0
M  V30 5626 H 589.743 -2.84435 -0.944302 0
M  V30 5627 H 587.304 -1.57617 -0.369952 0
M  V30 5628 H 589.296 -2.20515 -3.39345 0
M  V30 5629 H 587.866 -1.29533 -2.845 0
M  V30 5630 H 587.086 -3.52953 -1.75549 0
M  V30 5631 H 588.374 -4.32819 -2.67479 0
M  V30 5632 H 587.772 -2.3338 -5.15316 0
M  V30 5633 H 586.329 -3.03444 -5.76858 0
M  V30 5634 N 589.762 0.448376 -1.51087 0
M  V30 5635 C 590.725 1.52588 -1.71025 0
M  V30 5636 C 591.725 1.49958 -0.580442 0
M  V30 5637 O 592.915 1.52176 -0.847833 0
M  V30 5638 C 590.047 2.92163 -1.75652 0
M  V30 5639 H 591.24 1.36218 -2.67179 0
M  V30 5640 H 588.793 0.676313 -1.4091 0
M  V30 5641 H 589.528 3.13951 -0.812724 0
M  V30 5642 H 589.313 2.95478 -2.57751 0
M  V30 5643 H 590.803 3.70349 -1.92953 0
M  V30 5644 N 591.24 1.41047 0.703093 0
M  V30 5645 C 592.488 1.39723 1.4602 0
M  V30 5646 C 592.809 0.00461257 1.94999 0
M  V30 5647 O 592.079 -0.952292 1.71196 0
M  V30 5648 H 590.659 0.514281 0.541779 0
M  V30 5649 H 593.321 1.76217 0.832678 0
M  V30 5650 H 592.417 2.07982 2.32701 0
M  V30 5651 N 592.718 -0.936591 1.26751 0
M  V30 5652 C 593.665 -2.03597 1.08706 0
M  V30 5653 C 594.635 -1.66097 -0.00926542 0
M  V30 5654 O 595.82 -1.90199 0.151377 0
M  V30 5655 C 592.96 -3.3727 0.73094 0
M  V30 5656 C 592.073 -3.87778 1.90399 0
M  V30 5657 C 591.208 -5.09859 1.49056 0
M  V30 5658 C 590.247 -5.5264 2.63164 0
M  V30 5659 N 589.384 -6.65921 2.22471 0
M  V30 5660 H 594.224 -2.18364 2.02784 0
M  V30 5661 H 591.761 -1.06985 1.00958 0
M  V30 5662 H 593.719 -4.14128 0.505328 0
M  V30 5663 H 592.349 -3.22337 -0.172868 0
M  V30 5664 H 591.401 -3.07279 2.2424 0
M  V30 5665 H 592.713 -4.15464 2.76028 0
M  V30 5666 H 591.867 -5.9419 1.22567 0
M  V30 5667 H 590.606 -4.8393 0.60524 0
M  V30 5668 H 589.611 -4.66863 2.90377 0
M  V30 5669 H 590.836 -5.80568 3.52303 0
M  V30 5670 H 588.782 -6.41667 1.36379 0
M  V30 5671 H 588.699 -6.93216 3.01641 0
M  V30 5672 H 589.967 -7.53616 1.99205 0
M  V30 5673 N 594.196 -1.08629 -1.14182 0
M  V30 5674 C 595.159 -0.722027 -2.1753 0
M  V30 5675 C 596.159 0.244305 -1.58933 0
M  V30 5676 O 597.349 0.0235545 -1.74184 0
M  V30 5677 C 594.481 -0.0663966 -3.40835 0
M  V30 5678 H 595.674 -1.63719 -2.51269 0
M  V30 5679 H 593.227 -0.884442 -1.28869 0
M  V30 5680 H 593.962 0.860389 -3.12678 0
M  V30 5681 H 593.747 -0.761598 -3.84632 0
M  V30 5682 H 595.237 0.173346 -4.1724 0
M  V30 5683 N 595.674 1.31259 -0.872281 0
M  V30 5684 C 596.914 1.98418 -0.490894 0
M  V30 5685 C 597.278 1.67429 0.939755 0
M  V30 5686 O 598.479 2.27818 1.42661 0
M  V30 5687 C 596.75 3.49583 -0.743408 0
M  V30 5688 S 598.309 4.36359 -0.462226 0
M  V30 5689 H 595.127 0.687005 -0.183151 0
M  V30 5690 H 597.729 1.59619 -1.12881 0
M  V30 5691 H 596.433 3.69627 -1.78338 0
M  V30 5692 H 595.964 3.93291 -0.0925758 0
M  V30 5693 H 597.979 4.91173 0.704525 0
M  V30 5694 N 597.152 0.631951 1.44375 0
M  V30 5695 C 598.084 -0.110911 2.28931 0
M  V30 5696 C 599.097 -0.808086 1.41329 0
M  V30 5697 O 600.286 -0.669396 1.65473 0
M  V30 5698 C 597.386 -1.17928 3.1772 0
M  V30 5699 C 596.559 -0.564458 4.33743 0
M  V30 5700 C 595.618 -1.5269 5.0356 0
M  V30 5701 O 594.644 -1.04372 5.59549 0
M  V30 5702 N 595.846 -2.86123 5.05088 0
M  V30 5703 H 598.611 0.614758 2.93327 0
M  V30 5704 H 596.172 0.473171 1.54831 0
M  V30 5705 H 598.164 -1.82348 3.61291 0
M  V30 5706 H 596.734 -1.80717 2.55069 0
M  V30 5707 H 595.954 0.258373 3.93352 0
M  V30 5708 H 597.242 -0.134355 5.08623 0
M  V30 5709 H 596.64 -3.27959 4.60933 0
M  V30 5710 H 595.197 -3.45901 5.52445 0
M  V30 5711 N 598.631 -1.53133 0.372548 0
M  V30 5712 C 599.877 -2.01654 -0.215277 0
M  V30 5713 C 600.21 -1.25914 -1.47849 0
M  V30 5714 O 599.485 -0.3548 -1.91237 0
M  V30 5715 C 599.768 -3.56609 -0.500187 0
M  V30 5716 C 599.621 -4.43036 0.777145 0
M  V30 5717 C 600.94 -4.20528 -1.29786 0
M  V30 5718 H 598.059 -0.732991 -0.0767686 0
M  V30 5719 H 600.701 -1.83335 0.498814 0
M  V30 5720 H 598.851 -3.7235 -1.10852 0
M  V30 5721 H 600.523 -4.39079 1.41447 0
M  V30 5722 H 598.766 -4.10723 1.39604 0
M  V30 5723 H 599.437 -5.49424 0.532662 0
M  V30 5724 H 601.913 -4.08663 -0.783198 0
M  V30 5725 H 600.789 -5.28962 -1.46596 0
M  V30 5726 H 601.05 -3.77051 -2.30836 0
M  V30 5727 N 600.109 -0.101901 -1.5727 0
M  V30 5728 C 601.072 0.840129 -2.13247 0
M  V30 5729 C 602.072 1.20625 -1.06331 0
M  V30 5730 O 603.262 1.13456 -1.32186 0
M  V30 5731 C 600.394 2.13372 -2.65867 0
M  V30 5732 H 601.587 0.353945 -2.97804 0
M  V30 5733 H 599.14 0.147167 -1.55606 0
M  V30 5734 H 599.875 2.66461 -1.84849 0
M  V30 5735 H 599.66 1.88085 -3.44044 0
M  V30 5736 H 601.15 2.80748 -3.09145 0
M  V30 5737 N 601.587 1.56661 0.17182 0
M  V30 5738 C 602.537 1.92781 1.21736 0
M  V30 5739 C 603.521 0.796065 1.39827 0
M  V30 5740 O 604.713 1.05924 1.41806 0
M  V30 5741 C 601.842 2.29079 2.55691 0
M  V30 5742 C 600.928 3.48765 2.41296 0
M  V30 5743 N 601.319 4.66022 1.96614 0
M  V30 5744 C 599.617 3.53362 2.72124 0
M  V30 5745 C 600.318 5.48159 1.94669 0
M  V30 5746 N 599.294 4.89189 2.37054 0
M  V30 5747 H 603.096 2.80926 0.863592 0
M  V30 5748 H 600.61 1.57889 0.380096 0
M  V30 5749 H 602.607 2.5315 3.31241 0
M  V30 5750 H 601.267 1.42272 2.91871 0
M  V30 5751 H 602.278 4.9025 1.66959 0
M  V30 5752 H 598.955 2.77033 3.12345 0
M  V30 5753 H 600.345 6.52121 1.61826 0
M  V30 5754 N 603.065 -0.440357 1.51323 0
M  V30 5755 C 604.305 -1.19956 1.65499 0
M  V30 5756 C 604.669 -1.88559 0.361878 0
M  V30 5757 O 605.87 -2.66109 0.379383 0
M  V30 5758 C 604.141 -2.1918 2.82303 0
M  V30 5759 S 605.7 -3.03627 3.1679 0
M  V30 5760 H 602.518 -0.406833 0.583102 0
M  V30 5761 H 605.12 -0.491596 1.89218 0
M  V30 5762 H 603.824 -1.67414 3.74701 0
M  V30 5763 H 603.355 -2.94561 2.60763 0
M  V30 5764 H 605.37 -4.20773 2.62991 0
M  V30 5765 N 604.543 -1.41418 -0.695603 0
M  V30 5766 C 605.506 -1.42988 -1.79129 0
M  V30 5767 C 606.506 -0.320514 -1.57573 0
M  V30 5768 O 607.696 -0.58039 -1.64247 0
M  V30 5769 C 604.828 -1.24122 -3.175 0
M  V30 5770 H 606.021 -2.40526 -1.7913 0
M  V30 5771 H 603.574 -1.2756 -0.903225 0
M  V30 5772 H 604.309 -0.274253 -3.23138 0
M  V30 5773 H 604.094 -2.045 -3.34547 0
M  V30 5774 H 605.584 -1.28056 -3.97481 0
M  V30 5775 N 606.021 0.929856 -1.27246 0
M  V30 5776 C 607.246 1.71674 -1.16374 0
M  V30 5777 C 607.671 1.86064 0.276024 0
M  V30 5778 O 607.029 1.3591 1.19992 0
M  V30 5779 C 607.077 3.09526 -1.85003 0
M  V30 5780 O 606.181 3.96142 -1.14653 0
M  V30 5781 H 605.522 0.52629 -0.404863 0
M  V30 5782 H 608.052 1.16381 -1.68276 0
M  V30 5783 H 608.062 3.59852 -1.92276 0
M  V30 5784 H 606.737 2.98369 -2.89739 0
M  V30 5785 H 605.314 3.54584 -1.15433 0
M  V30 5786 N 607.499 1.09233 1.13605 0
M  V30 5787 C 608.724 0.849067 1.89224 0
M  V30 5788 C 609.149 -0.593875 1.78479 0
M  V30 5789 O 608.507 -1.41703 1.13092 0
M  V30 5790 C 608.555 1.28642 3.36873 0
M  V30 5791 O 607.659 0.44363 4.10007 0
M  V30 5792 H 607 0.30767 0.588417 0
M  V30 5793 H 609.53 1.45595 1.43748 0
M  V30 5794 H 609.54 1.27096 3.87699 0
M  V30 5795 H 608.215 2.33729 3.44011 0
M  V30 5796 H 606.792 0.523241 3.69211 0
M  V30 5797 N 608.977 -1.30795 0.87923 0
M  V30 5798 C 610.393 -1.48981 0.57243 0
M  V30 5799 C 610.593 -1.80719 -0.891236 0
M  V30 5800 O 609.649 -1.89136 -1.67283 0
M  V30 5801 C 610.962 -2.61721 1.48063 0
M  V30 5802 C 612.51 -2.75603 1.48365 0
M  V30 5803 C 612.985 -3.91449 2.37763 0
M  V30 5804 N 614.476 -3.98751 2.35695 0
M  V30 5805 C 615.211 -4.87684 3.01583 0
M  V30 5806 N 614.707 -5.81454 3.76674 0
M  V30 5807 N 616.5 -4.81005 2.90844 0
M  V30 5808 H 608.651 -1.08465 1.82617 0
M  V30 5809 H 610.914 -0.536813 0.781368 0
M  V30 5810 H 610.62 -2.45073 2.52254 0
M  V30 5811 H 610.494 -3.58071 1.18596 0
M  V30 5812 H 612.881 -2.9166 0.44927 0
M  V30 5813 H 612.962 -1.79891 1.81859 0
M  V30 5814 H 612.606 -3.76149 3.41283 0
M  V30 5815 H 612.536 -4.86487 2.01589 0
M  V30 5816 H 615.027 -3.31668 1.81121 0
M  V30 5817 H 615.34 -6.46063 4.24054 0
M  V30 5818 H 613.685 -5.81403 3.80782 0
M  V30 5819 H 616.876 -4.06728 2.31711 0
M  V30 5820 H 617.049 -5.50107 3.42471 0
M  V30 5821 N 610.455 -0.639598 -1.44038 0
M  V30 5822 C 611.387 0.0987684 -2.28987 0
M  V30 5823 C 612.4 0.80058 -1.41755 0
M  V30 5824 O 613.589 0.660611 -1.65826 0
M  V30 5825 C 610.689 1.16242 -3.18341 0
M  V30 5826 C 609.862 0.541447 -4.34036 0
M  V30 5827 C 608.921 1.50017 -5.04362 0
M  V30 5828 O 607.947 1.01403 -5.60095 0
M  V30 5829 N 609.149 2.83441 -5.06598 0
M  V30 5830 H 611.914 -0.630305 -2.92997 0
M  V30 5831 H 609.475 -0.481376 -1.54578 0
M  V30 5832 H 611.467 1.80429 -3.62253 0
M  V30 5833 H 610.037 1.79362 -2.56024 0
M  V30 5834 H 609.257 -0.27923 -3.9321 0
M  V30 5835 H 610.545 0.107379 -5.08687 0
M  V30 5836 H 609.943 3.2551 -4.62666 0
M  V30 5837 H 608.5 3.42966 -5.54272 0
M  V30 5838 N 611.933 1.52934 -0.380664 0
M  V30 5839 C 613.182 2.00651 0.205477 0
M  V30 5840 C 613.495 1.27164 1.48623 0
M  V30 5841 O 614.701 1.65547 2.15189 0
M  V30 5842 C 613.157 3.57479 0.416726 0
M  V30 5843 C 612.765 4.39857 -0.850268 0
M  V30 5844 C 614.509 4.13509 0.959702 0
M  V30 5845 C 612.416 5.88269 -0.607773 0
M  V30 5846 H 611.346 0.749684 0.0805614 0
M  V30 5847 H 613.997 1.76508 -0.501732 0
M  V30 5848 H 612.379 3.77836 1.18557 0
M  V30 5849 H 613.553 4.31269 -1.62307 0
M  V30 5850 H 611.868 3.95005 -1.31756 0
M  V30 5851 H 614.465 5.22039 1.15669 0
M  V30 5852 H 614.808 3.69054 1.92626 0
M  V30 5853 H 615.341 3.9701 0.250645 0
M  V30 5854 H 612.08 6.3703 -1.54509 0
M  V30 5855 H 611.6 5.99667 0.126247 0
M  V30 5856 H 613.279 6.46558 -0.239014 0
M  V30 5857 N 613.412 0.11024 1.57214 0
M  V30 5858 C 614.661 -0.549638 1.94067 0
M  V30 5859 C 614.974 -1.68388 0.995234 0
M  V30 5860 O 616.18 -2.40593 1.25807 0
M  V30 5861 C 614.636 -1.02912 3.44873 0
M  V30 5862 C 614.244 0.0761861 4.47935 0
M  V30 5863 C 615.988 -1.66087 3.9066 0
M  V30 5864 C 613.895 -0.419502 5.8991 0
M  V30 5865 H 612.825 -0.209092 0.724428 0
M  V30 5866 H 615.476 0.188683 1.82527 0
M  V30 5867 H 613.858 -1.82159 3.51616 0
M  V30 5868 H 615.032 0.852185 4.52851 0
M  V30 5869 H 613.347 0.614052 4.11847 0
M  V30 5870 H 615.944 -2.04272 4.94143 0
M  V30 5871 H 616.287 -2.53591 3.30148 0
M  V30 5872 H 616.82 -0.933959 3.86681 0
M  V30 5873 H 613.559 0.419277 6.54158 0
M  V30 5874 H 613.079 -1.16217 5.88433 0
M  V30 5875 H 614.758 -0.883577 6.40938 0
M  V30 5876 N 614.89 -1.56749 -0.16351 0
M  V30 5877 C 616.115 -1.86938 -0.898264 0
M  V30 5878 C 616.54 -0.697456 -1.74692 0
M  V30 5879 O 615.898 0.353327 -1.77824 0
M  V30 5880 C 615.946 -3.15599 -1.74441 0
M  V30 5881 O 615.05 -2.98371 -2.8469 0
M  V30 5882 H 614.391 -0.614659 -0.251178 0
M  V30 5883 H 616.921 -2.03979 -0.159298 0
M  V30 5884 H 616.931 -3.47202 -2.14277 0
M  V30 5885 H 615.606 -4.00505 -1.1211 0
M  V30 5886 H 614.183 -2.7814 -2.4838 0
M  V30 5887 N 616.368 0.432326 -1.51554 0
M  V30 5888 C 617.318 1.52366 -1.69614 0
M  V30 5889 C 618.302 1.51205 -0.550083 0
M  V30 5890 O 619.494 1.57573 -0.806206 0
M  V30 5891 C 616.623 2.90513 -1.82913 0
M  V30 5892 C 615.709 2.9641 -3.03318 0
M  V30 5893 N 616.1 2.72043 -4.26411 0
M  V30 5894 C 614.398 3.27572 -3.02675 0
M  V30 5895 C 615.099 2.83912 -5.07709 0
M  V30 5896 N 614.075 3.15798 -4.42462 0
M  V30 5897 H 617.877 1.32285 -2.62446 0
M  V30 5898 H 615.391 0.639708 -1.4927 0
M  V30 5899 H 617.388 3.69032 -1.93962 0
M  V30 5900 H 616.048 3.1161 -0.912655 0
M  V30 5901 H 617.059 2.46876 -4.55272 0
M  V30 5902 H 613.736 3.54411 -2.20678 0
M  V30 5903 H 615.126 2.68984 -6.15709 0
M  V30 5904 N 617.846 1.41785 0.688094 0
M  V30 5905 C 619.092 1.42753 1.4489 0
M  V30 5906 C 619.447 0.0384235 1.92362 0
M  V30 5907 O 618.74 -0.937066 1.67122 0
M  V30 5908 C 618.934 2.37532 2.67046 0
M  V30 5909 C 618.763 3.85521 2.31525 0
M  V30 5910 C 617.533 4.54152 2.21527 0
M  V30 5911 C 619.731 4.76299 1.94019 0
M  V30 5912 N 617.713 5.87233 1.78969 0
M  V30 5913 C 619.084 5.98386 1.62279 0
M  V30 5914 C 621.139 4.63877 1.80895 0
M  V30 5915 C 619.842 7.09433 1.18732 0
M  V30 5916 C 621.868 5.74893 1.38752 0
M  V30 5917 C 621.23 6.96083 1.07927 0
M  V30 5918 H 617.329 0.577575 0.527192 0
M  V30 5919 H 619.913 1.77713 0.795375 0
M  V30 5920 H 618.084 2.04656 3.30107 0
M  V30 5921 H 619.816 2.29169 3.33562 0
M  V30 5922 H 616.571 4.08188 2.40166 0
M  V30 5923 H 616.995 6.57785 1.60151 0
M  V30 5924 H 621.637 3.70671 2.03378 0
M  V30 5925 H 619.355 8.02497 0.949937 0
M  V30 5926 H 622.941 5.67287 1.29136 0
M  V30 5927 H 621.821 7.80527 0.758111 0
M  V30 5928 N 619.324 -0.923095 1.27737 0
M  V30 5929 C 620.271 -2.02432 1.1086 0
M  V30 5930 C 621.241 -1.66098 0.00835195 0
M  V30 5931 O 622.426 -1.90027 0.171542 0
M  V30 5932 C 619.566 -3.36476 0.766671 0
M  V30 5933 C 618.679 -3.85737 1.94501 0
M  V30 5934 C 617.814 -5.08249 1.54455 0
M  V30 5935 C 616.853 -5.49818 2.6901 0
M  V30 5936 N 615.99 -6.63524 2.29521 0
M  V30 5937 H 620.83 -2.16201 2.05089 0
M  V30 5938 H 618.367 -1.05909 1.02087 0
M  V30 5939 H 620.325 -4.13569 0.549223 0
M  V30 5940 H 618.955 -3.22502 -0.13867 0
M  V30 5941 H 618.007 -3.04883 2.27487 0
M  V30 5942 H 619.319 -4.12513 2.80419 0
M  V30 5943 H 618.473 -5.92857 1.28862 0
M  V30 5944 H 617.212 -4.83261 0.656534 0
M  V30 5945 H 616.217 -4.63757 2.95313 0
M  V30 5946 H 617.442 -5.76799 3.5844 0
M  V30 5947 H 615.388 -6.40185 1.43177 0
M  V30 5948 H 615.305 -6.89978 3.08977 0
M  V30 5949 H 616.573 -7.51461 2.07187 0
M  V30 5950 N 620.802 -1.09834 -1.13024 0
M  V30 5951 C 621.75 -0.736283 -2.20639 0
M  V30 5952 C 622.744 0.264725 -1.67319 0
M  V30 5953 O 623.95 0.125745 -1.7956 0
M  V30 5954 H 620.325 -0.220136 -0.719058 0
M  V30 5955 H 622.296 -1.65295 -2.48436 0
M  V30 5956 C 621.045 -0.177544 -3.47246 0
M  V30 5957 H 620.368 -0.939009 -3.88616 0
M  V30 5958 H 621.808 0.0378007 -4.23983 0
M  V30 5959 C 620.267 1.08824 -3.1884 0
M  V30 5960 O 620.797 2.1708 -3.37993 0
M  V30 5961 N 619.003 1.00442 -2.7269 0
M  V30 5962 H 618.55 0.123383 -2.57304 0
M  V30 5963 H 618.508 1.85206 -2.5406 0
M  V30 5964 N 622.28 1.30327 -0.886154 0
M  V30 5965 C 623.52 1.97886 -0.511912 0
M  V30 5966 C 623.884 1.68417 0.921944 0
M  V30 5967 O 625.085 2.29319 1.40237 0
M  V30 5968 C 623.356 3.48775 -0.780444 0
M  V30 5969 S 624.915 4.35844 -0.508482 0
M  V30 5970 H 621.733 0.685024 -0.190428 0
M  V30 5971 H 624.335 1.58413 -1.14567 0
M  V30 5972 H 623.039 3.67714 -1.82248 0
M  V30 5973 H 622.57 3.93171 -0.134284 0
M  V30 5974 H 624.585 4.91893 0.65239 0
M  V30 5975 N 623.758 0.647228 1.43697 0
M  V30 5976 C 624.986 0.16575 2.06235 0
M  V30 5977 C 625.401 -1.1662 1.48476 0
M  V30 5978 O 624.758 -1.7187 0.613762 0
M  V30 5979 C 624.809 0.0621651 3.61447 0
M  V30 5980 O 624.53 1.34146 4.17057 0
M  V30 5981 C 626.031 -0.446102 4.4105 0
M  V30 5982 H 623.251 0.0871158 0.665321 0
M  V30 5983 H 625.795 0.886183 1.84301 0
M  V30 5984 H 623.95 -0.608794 3.82587 0
M  V30 5985 H 624.364 1.19675 5.10664 0
M  V30 5986 H 625.838 -0.46755 5.50016 0
M  V30 5987 H 626.315 -1.47627 4.13646 0
M  V30 5988 H 626.921 0.192159 4.24866 0
M  V30 5989 N 625.236 -1.5273 0.388769 0
M  V30 5990 C 626.652 -1.59553 0.0387049 0
M  V30 5991 C 626.852 -1.40278 -1.44652 0
M  V30 5992 O 625.908 -1.21951 -2.21098 0
M  V30 5993 C 627.221 -2.9625 0.515409 0
M  V30 5994 C 628.769 -3.09426 0.471621 0
M  V30 5995 C 629.244 -4.48572 0.924505 0
M  V30 5996 N 630.735 -4.54754 0.880496 0
M  V30 5997 C 631.47 -5.60653 1.20234 0
M  V30 5998 N 630.966 -6.74198 1.59463 0
M  V30 5999 N 632.759 -5.50755 1.12363 0
M  V30 6000 H 624.91 -1.63508 1.35569 0
M  V30 6001 H 627.173 -0.768097 0.555636 0
M  V30 6002 H 626.879 -3.15569 1.5527 0
M  V30 6003 H 626.753 -3.77102 -0.085792 0
M  V30 6004 H 629.14 -2.89804 -0.556588 0
M  V30 6005 H 629.221 -2.30528 1.10862 0
M  V30 6006 H 628.865 -4.68936 1.95094 0
M  V30 6007 H 628.795 -5.25935 0.264524 0
M  V30 6008 H 631.286 -3.73237 0.591815 0
M  V30 6009 H 631.599 -7.5097 1.82385 0
M  V30 6010 H 629.944 -6.75531 1.63349 0
M  V30 6011 H 633.135 -4.6093 0.816169 0
M  V30 6012 H 633.308 -6.33184 1.37777 0
M  V30 6013 N 626.714 -0.118576 -1.57153 0
M  V30 6014 C 627.664 0.842924 -2.11846 0
M  V30 6015 C 628.648 1.22845 -1.03914 0
M  V30 6016 O 629.84 1.19961 -1.30148 0
M  V30 6017 C 626.969 2.09312 -2.72109 0
M  V30 6018 C 626.055 1.73198 -3.87122 0
M  V30 6019 N 626.446 1.07758 -4.94188 0
M  V30 6020 C 624.744 2.02659 -3.97298 0
M  V30 6021 C 625.445 0.907741 -5.74574 0
M  V30 6022 N 624.421 1.4326 -5.24383 0
M  V30 6023 H 628.223 0.333416 -2.92003 0
M  V30 6024 H 625.737 0.0839073 -1.62183 0
M  V30 6025 H 627.734 2.79162 -3.09635 0
M  V30 6026 H 626.394 2.60807 -1.93416 0
M  V30 6027 H 627.405 0.741613 -5.12563 0
M  V30 6028 H 624.082 2.56204 -3.29645 0
M  V30 6029 H 625.472 0.394112 -6.70743 0
M  V30 6030 N 628.193 1.56834 0.155195 0
M  V30 6031 C 629.47 1.73799 0.897395 0
M  V30 6032 C 629.85 0.684379 1.99698 0
M  V30 6033 O 629.198 -0.298111 2.26547 0
M  V30 6034 C 629.408 3.17572 1.44737 0
M  V30 6035 C 630.756 3.79014 1.91399 0
M  V30 6036 O 631.78 3.20951 1.54496 0
M  V30 6037 O 630.639 4.80998 2.59429 0
M  V30 6038 H 627.733 0.710329 0.423511 0
M  V30 6039 H 630.279 1.69107 0.141761 0
M  V30 6040 H 629.051 3.85749 0.656741 0
M  V30 6041 H 628.674 3.26657 2.26674 0
M  V30 6042 N 629.671 -0.424282 1.51781 0
M  V30 6043 C 630.911 -1.18194 1.66762 0
M  V30 6044 C 631.275 -1.88164 0.381857 0
M  V30 6045 O 632.476 -2.65692 0.407586 0
M  V30 6046 C 630.747 -2.16173 2.84612 0
M  V30 6047 S 632.306 -3.0025 3.19993 0
M  V30 6048 H 629.124 -0.400626 0.587384 0
M  V30 6049 H 631.726 -0.471499 1.89729 0
M  V30 6050 H 630.43 -1.6343 3.76455 0
M  V30 6051 H 629.961 -2.91778 2.63873 0
M  V30 6052 H 631.976 -4.1796 2.67439 0
M  V30 6053 N 631.149 -1.42148 -0.680565 0
M  V30 6054 C 632.56 -1.3768 -1.26099 0
M  V30 6055 C 632.911 -0.0672348 -1.96085 0
M  V30 6056 O 632.036 0.834172 -1.99676 0
M  V30 6057 C 632.631 -2.49387 -2.29328 0
M  V30 6058 C 631.19 -2.4827 -2.82911 0
M  V30 6059 C 630.337 -2.2847 -1.57152 0
M  V30 6060 H 633.288 -1.51446 -0.474326 0
M  V30 6061 H 633.309 -2.19307 -3.10941 0
M  V30 6062 H 632.821 -3.44686 -1.78363 0
M  V30 6063 H 630.922 -1.56773 -3.38013 0
M  V30 6064 H 631.035 -3.45109 -3.3232 0
M  V30 6065 H 629.399 -1.76623 -1.83511 0
M  V30 6066 H 630.182 -3.25816 -1.0816 0
M  V30 6067 N 632.627 0.916307 -1.28225 0
M  V30 6068 C 633.873 1.66765 -1.154 0
M  V30 6069 C 634.206 1.91912 0.297251 0
M  V30 6070 O 633.481 1.51766 1.21644 0
M  V30 6071 C 633.764 3.02715 -1.95028 0
M  V30 6072 C 633.617 2.84738 -3.48201 0
M  V30 6073 C 634.936 4.03215 -1.76369 0
M  V30 6074 H 632.055 0.605205 -0.42059 0
M  V30 6075 H 634.697 1.06255 -1.57512 0
M  V30 6076 H 632.847 3.54365 -1.59242 0
M  V30 6077 H 634.519 2.40118 -3.9388 0
M  V30 6078 H 632.762 2.19848 -3.73964 0
M  V30 6079 H 633.433 3.8127 -3.99171 0
M  V30 6080 H 635.909 3.60617 -2.07593 0
M  V30 6081 H 634.785 4.96306 -2.34459 0
M  V30 6082 H 635.046 4.36288 -0.71452 0
M  V30 6083 N 634.105 1.10431 1.1244 0
M  V30 6084 C 635.345 0.856518 1.85589 0
M  V30 6085 C 635.709 -0.606905 1.82156 0
M  V30 6086 O 636.91 -0.97105 2.50647 0
M  V30 6087 C 635.181 1.38977 3.29272 0
M  V30 6088 S 636.74 1.27739 4.19795 0
M  V30 6089 H 633.558 0.309509 0.640098 0
M  V30 6090 H 636.16 1.40975 1.35449 0
M  V30 6091 H 634.864 2.44887 3.2933 0
M  V30 6092 H 634.395 0.833112 3.84477 0
M  V30 6093 H 636.41 0.235051 4.95643 0
M  V30 6094 N 635.583 -1.29855 0.893053 0
M  V30 6095 C 636.513 -2.3035 0.382249 0
M  V30 6096 C 637.494 -1.61328 -0.539203 0
M  V30 6097 O 638.679 -1.88882 -0.451342 0
M  V30 6098 C 635.809 -3.45024 -0.396983 0
M  V30 6099 C 634.763 -4.258 0.433437 0
M  V30 6100 C 634.089 -5.32605 -0.472889 0
M  V30 6101 C 635.389 -4.94549 1.67984 0
M  V30 6102 H 637.083 -2.73325 1.22205 0
M  V30 6103 H 634.629 -1.314 0.589073 0
M  V30 6104 H 636.582 -4.14398 -0.765024 0
M  V30 6105 H 635.306 -3.00875 -1.2705 0
M  V30 6106 H 633.965 -3.58125 0.783723 0
M  V30 6107 H 633.613 -4.84702 -1.34435 0
M  V30 6108 H 633.313 -5.87547 0.0789958 0
M  V30 6109 H 634.837 -6.04832 -0.837269 0
M  V30 6110 H 636.251 -5.56395 1.38192 0
M  V30 6111 H 634.648 -5.59393 2.17254 0
M  V30 6112 H 635.718 -4.20215 2.41965 0
M  V30 6113 N 637.061 -0.65484 -1.43351 0
M  V30 6114 C 638.472 -0.248506 -1.85039 0
M  V30 6115 C 638.823 1.20526 -1.54816 0
M  V30 6116 O 637.948 1.92016 -0.99794 0
M  V30 6117 C 638.543 -0.444241 -3.35875 0
M  V30 6118 C 637.102 -0.0922108 -3.76287 0
M  V30 6119 C 636.249 -0.746327 -2.67068 0
M  V30 6120 H 639.2 -0.8584 -1.33481 0
M  V30 6121 H 639.221 0.309762 -3.79237 0
M  V30 6122 H 638.733 -1.50239 -3.5784 0
M  V30 6123 H 636.834 0.96328 -3.59933 0
M  V30 6124 H 636.947 -0.518807 -4.76283 0
M  V30 6125 H 635.311 -0.179416 -2.54067 0
M  V30 6126 H 636.094 -1.80754 -2.91861 0
M  V30 6127 N 638.539 1.52521 -0.396863 0
M  V30 6128 C 639.469 2.29582 0.425941 0
M  V30 6129 C 640.45 1.33281 1.05689 0
M  V30 6130 O 641.635 1.62181 1.06823 0
M  V30 6131 C 638.765 3.10821 1.54943 0
M  V30 6132 C 637.719 4.15069 1.04413 0
M  V30 6133 C 637.045 4.84578 2.26028 0
M  V30 6134 C 638.345 5.22191 0.106767 0
M  V30 6135 H 640.039 2.98612 -0.217045 0
M  V30 6136 H 637.585 1.43611 -0.105826 0
M  V30 6137 H 639.538 3.63492 2.13193 0
M  V30 6138 H 638.262 2.39538 2.22011 0
M  V30 6139 H 636.921 3.63389 0.484118 0
M  V30 6140 H 636.569 4.09835 2.91623 0
M  V30 6141 H 636.269 5.55043 1.92876 0
M  V30 6142 H 637.793 5.40056 2.84906 0
M  V30 6143 H 639.207 5.70176 0.597685 0
M  V30 6144 H 637.604 5.99947 -0.135352 0
M  V30 6145 H 638.674 4.77531 -0.842134 0
M  V30 6146 N 640.017 0.126909 1.57088 0
M  V30 6147 C 640.964 -0.82036 2.15728 0
M  V30 6148 C 641.934 -1.25811 1.08447 0
M  V30 6149 O 643.119 -1.33422 1.36393 0
M  V30 6150 C 640.259 -2.06199 2.76724 0
M  V30 6151 C 639.372 -1.67188 3.98337 0
M  V30 6152 C 638.507 -2.86378 4.47393 0
M  V30 6153 C 637.546 -2.43644 5.61519 0
M  V30 6154 N 636.683 -3.55775 6.05284 0
M  V30 6155 H 641.523 -0.313472 2.96347 0
M  V30 6156 H 639.06 -0.14303 1.46403 0
M  V30 6157 H 641.018 -2.78959 3.10222 0
M  V30 6158 H 639.648 -2.54333 1.98782 0
M  V30 6159 H 638.7 -0.842714 3.70948 0
M  V30 6160 H 640.012 -1.31789 4.81075 0
M  V30 6161 H 639.166 -3.67353 4.82842 0
M  V30 6162 H 637.905 -3.25009 3.63621 0
M  V30 6163 H 636.91 -1.61104 5.25667 0
M  V30 6164 H 638.135 -2.06122 6.47063 0
M  V30 6165 H 636.081 -3.94065 5.24451 0
M  V30 6166 H 635.998 -3.24325 6.82898 0
M  V30 6167 H 637.266 -4.37166 6.45373 0
M  V30 6168 N 641.495 -1.56914 -0.146875 0
M  V30 6169 C 642.443 -1.99224 -1.20053 0
M  V30 6170 C 643.437 -0.884661 -1.44465 0
M  V30 6171 O 644.643 -1.06984 -1.44756 0
M  V30 6172 H 641.018 -0.634191 -0.404112 0
M  V30 6173 H 642.989 -2.86998 -0.816987 0
M  V30 6174 C 641.738 -2.38899 -2.52632 0
M  V30 6175 H 641.061 -3.23677 -2.34677 0
M  V30 6176 H 642.501 -2.72326 -3.24984 0
M  V30 6177 C 640.96 -1.2417 -3.13183 0
M  V30 6178 O 641.49 -0.542503 -3.9802 0
M  V30 6179 N 639.696 -1.00592 -2.72635 0
M  V30 6180 H 639.243 -1.57627 -2.03744 0
M  V30 6181 H 639.201 -0.240174 -3.13481 0
M  V30 6182 N 642.974 0.416227 -1.52004 0
M  V30 6183 C 643.937 1.48926 -1.74223 0
M  V30 6184 C 644.937 1.48693 -0.612119 0
M  V30 6185 O 646.127 1.50343 -0.879921 0
M  V30 6186 C 643.259 2.88372 -1.81809 0
M  V30 6187 H 644.452 1.3052 -2.70008 0
M  V30 6188 H 642.005 0.646271 -1.42313 0
M  V30 6189 H 642.74 3.12157 -0.879135 0
M  V30 6190 H 642.525 2.89944 -2.6396 0
M  V30 6191 H 644.015 3.66173 -2.00766 0
M  V30 6192 N 644.452 1.42507 0.673017 0
M  V30 6193 C 645.677 1.4668 1.46627 0
M  V30 6194 C 646.102 0.080066 1.8793 0
M  V30 6195 O 645.46 -0.921879 1.56112 0
M  V30 6196 C 645.508 2.40091 2.69051 0
M  V30 6197 O 644.612 1.8735 3.67387 0
M  V30 6198 H 643.953 0.496908 0.44043 0
M  V30 6199 H 646.483 1.87215 0.825334 0
M  V30 6200 H 646.493 2.56731 3.17101 0
M  V30 6201 H 645.168 3.4084 2.3833 0
M  V30 6202 H 643.745 1.80274 3.26429 0
M  V30 6203 N 645.93 -0.909495 1.28709 0
M  V30 6204 C 647.207 -1.63865 1.06806 0
M  V30 6205 C 647.587 -2.07445 -0.391143 0
M  V30 6206 O 646.935 -1.82269 -1.37805 0
M  V30 6207 C 647.145 -2.82692 2.04661 0
M  V30 6208 C 648.493 -3.5361 2.35042 0
M  V30 6209 O 649.517 -2.92847 2.02779 0
M  V30 6210 O 648.376 -4.63131 2.90124 0
M  V30 6211 H 645.47 -0.719065 0.408502 0
M  V30 6212 H 648.016 -0.958424 1.40044 0
M  V30 6213 H 646.788 -2.47614 3.0299 0
M  V30 6214 H 646.411 -3.58426 1.72095 0
M  V30 6215 N 647.408 -1.11026 -1.11852 0
M  V30 6216 C 648.355 -0.764662 -2.17765 0
M  V30 6217 C 649.325 0.261854 -1.64023 0
M  V30 6218 O 650.51 0.139748 -1.90288 0
M  V30 6219 C 647.65 -0.209317 -3.44465 0
M  V30 6220 C 646.763 -1.29187 -4.12231 0
M  V30 6221 C 645.898 -0.697523 -5.266 0
M  V30 6222 C 644.937 -1.76023 -5.86244 0
M  V30 6223 N 644.074 -1.18569 -6.92016 0
M  V30 6224 H 648.914 -1.67202 -2.46673 0
M  V30 6225 H 646.451 -0.835065 -1.21099 0
M  V30 6226 H 648.409 0.130599 -4.16996 0
M  V30 6227 H 647.039 0.661251 -3.15955 0
M  V30 6228 H 646.091 -1.74881 -3.37818 0
M  V30 6229 H 647.403 -2.09607 -4.52622 0
M  V30 6230 H 646.557 -0.307412 -6.05921 0
M  V30 6231 H 645.296 0.138044 -4.87505 0
M  V30 6232 H 644.301 -2.1597 -5.05606 0
M  V30 6233 H 645.526 -2.59875 -6.27409 0
M  V30 6234 H 643.472 -0.371695 -6.54946 0
M  V30 6235 H 643.389 -1.92666 -7.31038 0
M  V30 6236 H 644.657 -0.82233 -7.7515 0
M  V30 6237 N 648.886 1.2938 -0.899927 0
M  V30 6238 C 650.302 1.48052 -0.596059 0
M  V30 6239 C 650.502 1.82114 0.862372 0
M  V30 6240 O 649.558 1.91774 1.64253 0
M  V30 6241 C 650.871 2.59332 -1.52208 0
M  V30 6242 C 652.419 2.73208 -1.5273 0
M  V30 6243 C 652.894 3.87617 -2.43961 0
M  V30 6244 N 654.385 3.9495 -2.42009 0
M  V30 6245 C 655.12 4.82824 -3.09303 0
M  V30 6246 N 654.616 5.75387 -3.85877 0
M  V30 6247 N 656.409 4.76317 -2.98459 0
M  V30 6248 H 648.56 1.05546 -1.8432 0
M  V30 6249 H 650.823 0.524314 -0.78981 0
M  V30 6250 H 650.529 2.41029 -2.56121 0
M  V30 6251 H 650.403 3.56139 -1.24278 0
M  V30 6252 H 652.79 2.90908 -0.495614 0
M  V30 6253 H 652.871 1.76975 -1.84698 0
M  V30 6254 H 652.515 3.70672 -3.47224 0
M  V30 6255 H 652.445 4.83218 -2.09303 0
M  V30 6256 H 654.936 3.28744 -1.86375 0
M  V30 6257 H 655.249 6.39235 -4.34279 0
M  V30 6258 H 653.594 5.75272 -3.89984 0
M  V30 6259 H 656.785 4.0299 -2.38152 0
M  V30 6260 H 656.958 5.44589 -3.51179 0
M  V30 6261 N 650.364 0.662433 1.43002 0
M  V30 6262 C 651.312 -0.035345 2.32573 0
M  V30 6263 C 652.306 -0.803505 1.49131 0
M  V30 6264 O 653.512 -0.712865 1.65282 0
M  V30 6265 H 649.887 -0.0302194 0.751393 0
M  V30 6266 H 651.858 0.737686 2.89138 0
M  V30 6267 C 650.607 -0.981575 3.33557 0
M  V30 6268 H 649.93 -0.399914 3.97795 0
M  V30 6269 H 651.37 -1.43873 3.98844 0
M  V30 6270 C 649.829 -2.08204 2.64863 0
M  V30 6271 O 650.359 -3.16698 2.47113 0
M  V30 6272 N 648.565 -1.85022 2.24088 0
M  V30 6273 H 648.112 -0.967909 2.38724 0
M  V30 6274 H 648.07 -2.58845 1.78457 0
M  V30 6275 N 651.842 -1.52309 0.404946 0
M  V30 6276 C 652.774 -2.24579 -0.45791 0
M  V30 6277 C 653.787 -1.2739 -1.01369 0
M  V30 6278 O 654.976 -1.53363 -0.91335 0
M  V30 6279 C 652.076 -2.9608 -1.64893 0
M  V30 6280 C 651.249 -4.20106 -1.21777 0
M  V30 6281 C 650.308 -4.74468 -2.27523 0
M  V30 6282 O 649.334 -5.37157 -1.88285 0
M  V30 6283 N 650.536 -4.55678 -3.59635 0
M  V30 6284 H 653.301 -2.99265 0.161341 0
M  V30 6285 H 650.862 -1.60228 0.232107 0
M  V30 6286 H 652.854 -3.29344 -2.35191 0
M  V30 6287 H 651.424 -2.24606 -2.17419 0
M  V30 6288 H 650.644 -3.92704 -0.343071 0
M  V30 6289 H 651.932 -5.00658 -0.906596 0
M  V30 6290 H 651.33 -4.05673 -3.94266 0
M  V30 6291 H 649.887 -4.9339 -4.25922 0
M  V30 6292 N 653.32 -0.135238 -1.57019 0
M  V30 6293 C 654.252 0.839675 -2.13265 0
M  V30 6294 C 655.265 1.21887 -1.07923 0
M  V30 6295 O 656.454 1.16499 -1.35241 0
M  V30 6296 C 653.554 2.13647 -2.63075 0
M  V30 6297 C 652.727 1.92646 -3.92691 0
M  V30 6298 C 651.786 3.06205 -4.27931 0
M  V30 6299 O 650.812 2.78409 -4.96465 0
M  V30 6300 N 652.014 4.33072 -3.86561 0
M  V30 6301 H 654.779 0.359026 -2.97542 0
M  V30 6302 H 652.34 0.0486979 -1.61827 0
M  V30 6303 H 654.332 2.88641 -2.8367 0
M  V30 6304 H 652.902 2.5301 -1.83588 0
M  V30 6305 H 652.122 1.01754 -3.80841 0
M  V30 6306 H 653.41 1.75939 -4.77413 0
M  V30 6307 H 652.808 4.58526 -3.31316 0
M  V30 6308 H 651.365 5.04885 -4.12231 0
M  V30 6309 N 654.798 1.5699 0.138552 0
M  V30 6310 C 656.026 1.87976 0.864437 0
M  V30 6311 C 656.441 0.724372 1.74351 0
M  V30 6312 O 655.798 -0.305575 1.79924 0
M  V30 6313 C 655.849 3.18276 1.71414 0
M  V30 6314 O 655.57 4.29365 0.870487 0
M  V30 6315 C 657.071 3.62834 2.54688 0
M  V30 6316 H 654.291 0.622878 0.249528 0
M  V30 6317 H 656.835 2.04094 0.128805 0
M  V30 6318 H 654.99 3.03886 2.40274 0
M  V30 6319 H 655.404 5.03924 1.45466 0
M  V30 6320 H 656.878 4.5682 3.0987 0
M  V30 6321 H 657.355 2.88533 3.31127 0
M  V30 6322 H 657.961 3.79946 1.91105 0
M  V30 6323 N 656.276 -0.40816 1.52223 0
M  V30 6324 C 657.525 -1.15212 1.65557 0
M  V30 6325 C 657.838 -1.9163 0.392096 0
M  V30 6326 O 659.044 -2.68458 0.405256 0
M  V30 6327 C 657.5 -2.09691 2.92502 0
M  V30 6328 C 657.108 -1.38785 4.25961 0
M  V30 6329 C 658.852 -2.8434 3.152 0
M  V30 6330 C 656.759 -2.31919 5.44029 0
M  V30 6331 H 655.689 -0.433776 0.616729 0
M  V30 6332 H 658.34 -0.4165 1.78711 0
M  V30 6333 H 656.722 -2.8681 2.7305 0
M  V30 6334 H 657.896 -0.670248 4.55899 0
M  V30 6335 H 656.211 -0.761741 4.09373 0
M  V30 6336 H 658.808 -3.54166 4.00587 0
M  V30 6337 H 659.151 -3.47344 2.29473 0
M  V30 6338 H 659.684 -2.14321 3.35129 0
M  V30 6339 H 656.423 -1.7356 6.32105 0
M  V30 6340 H 655.943 -3.0165 5.18428 0
M  V30 6341 H 657.622 -2.92424 5.77146 0
M  V30 6342 N 657.755 -1.42862 -0.66545 0
M  V30 6343 C 658.685 -1.49867 -1.79059 0
M  V30 6344 C 659.666 -0.354394 -1.66367 0
M  V30 6345 O 660.851 -0.569969 -1.85647 0
M  V30 6346 C 657.981 -1.40943 -3.17415 0
M  V30 6347 C 656.935 -2.53495 -3.44854 0
M  V30 6348 C 656.261 -2.29626 -4.82883 0
M  V30 6349 C 657.561 -3.95781 -3.40815 0
M  V30 6350 H 659.255 -2.44037 -1.73453 0
M  V30 6351 H 656.801 -1.17456 -0.833071 0
M  V30 6352 H 658.754 -1.4445 -3.95869 0
M  V30 6353 H 657.478 -0.432716 -3.23721 0
M  V30 6354 H 656.137 -2.4932 -2.68766 0
M  V30 6355 H 655.785 -1.30226 -4.8585 0
M  V30 6356 H 655.485 -3.05065 -5.02204 0
M  V30 6357 H 657.009 -2.34897 -5.63609 0
M  V30 6358 H 658.423 -4.01508 -4.09224 0
M  V30 6359 H 656.82 -4.71148 -3.71672 0
M  V30 6360 H 657.89 -4.21786 -2.39216 0
M  V30 6361 N 659.233 0.902656 -1.29189 0
M  V30 6362 C 660.481 1.6496 -1.16758 0
M  V30 6363 C 660.802 1.92952 0.28188 0
M  V30 6364 O 660.072 1.55351 1.19344 0
M  V30 6365 H 658.652 0.611447 -0.429118 0
M  V30 6366 H 661.314 1.0825 -1.62074 0
M  V30 6367 H 660.41 2.60728 -1.71544 0
M  V30 6368 N 660.711 1.11618 1.11262 0
M  V30 6369 C 661.936 0.889013 1.8738 0
M  V30 6370 C 662.361 -0.555884 1.79698 0
M  V30 6371 O 661.719 -1.39272 1.16073 0
M  V30 6372 C 661.767 1.35759 3.34069 0
M  V30 6373 O 660.871 0.530499 4.08974 0
M  V30 6374 H 660.212 0.320082 0.581759 0
M  V30 6375 H 662.742 1.48611 1.40627 0
M  V30 6376 H 662.752 1.35291 3.84916 0
M  V30 6377 H 661.427 2.40973 3.38976 0
M  V30 6378 H 660.004 0.601439 3.68018 0
M  V30 6379 N 662.189 -1.289 0.906776 0
M  V30 6380 C 663.6 -1.77336 0.58384 0
M  V30 6381 C 663.951 -1.74304 -0.900697 0
M  V30 6382 O 663.076 -1.33335 -1.70443 0
M  V30 6383 C 663.671 -3.22019 1.05304 0
M  V30 6384 C 662.23 -3.68205 0.781148 0
M  V30 6385 C 661.377 -2.48837 1.22373 0
M  V30 6386 H 664.328 -1.15462 1.08877 0
M  V30 6387 H 664.349 -3.78481 0.391414 0
M  V30 6388 H 663.861 -3.24194 2.13353 0
M  V30 6389 H 661.962 -3.71497 -0.28643 0
M  V30 6390 H 662.075 -4.58675 1.384 0
M  V30 6391 H 660.439 -2.46461 0.642594 0
M  V30 6392 H 661.222 -2.53736 2.31242 0
M  V30 6393 N 663.667 -0.670007 -1.42649 0
M  V30 6394 C 664.63 0.00204659 -2.292 0
M  V30 6395 C 665.63 0.733817 -1.4308 0
M  V30 6396 O 666.82 0.57254 -1.64522 0
M  V30 6397 C 663.952 1.01359 -3.25483 0
M  V30 6398 H 665.145 -0.759696 -2.90118 0
M  V30 6399 H 662.698 -0.432105 -1.50208 0
M  V30 6400 H 663.433 1.80399 -2.69493 0
M  V30 6401 H 663.218 0.492323 -3.88997 0
M  V30 6402 H 664.708 1.4824 -3.90403 0
M  V30 6403 N 665.145 1.52092 -0.413018 0
M  V30 6404 C 666.37 2.06756 0.163338 0
M  V30 6405 C 666.795 1.28073 1.37764 0
M  V30 6406 O 666.153 0.312015 1.78595 0
M  V30 6407 C 666.201 3.57278 0.488322 0
M  V30 6408 O 665.305 3.80986 1.57871 0
M  V30 6409 H 664.646 0.663882 0.0125068 0
M  V30 6410 H 667.176 1.95988 -0.587339 0
M  V30 6411 H 667.186 4.01125 0.745836 0
M  V30 6412 H 665.861 4.13978 -0.399327 0
M  V30 6413 H 664.438 3.49017 1.31306 0
M  V30 6414 N 666.623 0.143563 1.56945 0
M  V30 6415 C 667.871 -0.507402 1.95627 0
M  V30 6416 C 668.192 -1.65626 1.02922 0
M  V30 6417 O 667.462 -1.95693 0.0901136 0
M  V30 6418 H 666.042 -0.190436 0.722318 0
M  V30 6419 H 668.704 0.218257 1.93674 0
M  V30 6420 H 667.8 -0.885816 2.99265 0
M  V30 6421 N 668.101 -1.57061 -0.130224 0
M  V30 6422 C 669.35 -1.83446 -0.838488 0
M  V30 6423 C 669.663 -0.727468 -1.81569 0
M  V30 6424 O 670.869 -0.877394 -2.56932 0
M  V30 6425 C 669.325 -3.25201 -1.54182 0
M  V30 6426 C 668.933 -4.4388 -0.606178 0
M  V30 6427 C 670.677 -3.60844 -2.23588 0
M  V30 6428 C 668.584 -5.76661 -1.31209 0
M  V30 6429 H 667.514 -0.684185 -0.316871 0
M  V30 6430 H 670.165 -1.83273 -0.0912059 0
M  V30 6431 H 668.547 -3.1981 -2.33533 0
M  V30 6432 H 669.721 -4.60545 0.153308 0
M  V30 6433 H 668.036 -4.16395 -0.0196705 0
M  V30 6434 H 670.633 -4.57313 -2.77072 0
M  V30 6435 H 670.976 -2.87724 -3.00867 0
M  V30 6436 H 671.509 -3.67971 -1.51137 0
M  V30 6437 H 668.248 -6.52922 -0.580823 0
M  V30 6438 H 667.768 -5.63902 -2.04387 0
M  V30 6439 H 669.447 -6.20035 -1.8484 0
M  V30 6440 N 669.579 0.400081 -1.52437 0
M  V30 6441 C 670.511 1.50729 -1.72666 0
M  V30 6442 C 671.524 1.51058 -0.607075 0
M  V30 6443 O 672.713 1.5516 -0.88248 0
M  V30 6444 C 669.813 2.89604 -1.76019 0
M  V30 6445 C 668.986 3.13365 -3.05157 0
M  V30 6446 C 668.045 4.32163 -3.00203 0
M  V30 6447 O 667.071 4.29004 -3.74092 0
M  V30 6448 N 668.273 5.3776 -2.18619 0
M  V30 6449 H 671.038 1.33767 -2.68191 0
M  V30 6450 H 668.599 0.58948 -1.50787 0
M  V30 6451 H 670.591 3.67159 -1.70225 0
M  V30 6452 H 669.161 2.99979 -0.879284 0
M  V30 6453 H 668.381 2.23774 -3.24529 0
M  V30 6454 H 669.669 3.26089 -3.90568 0
M  V30 6455 H 669.067 5.43177 -1.58035 0
M  V30 6456 H 667.624 6.14023 -2.18674 0
M  V30 6457 N 671.057 1.43213 0.657864 0
M  V30 6458 C 672.005 1.48271 1.79216 0
M  V30 6459 C 672.999 0.35675 1.65601 0
M  V30 6460 O 674.205 0.530535 1.72004 0
M  V30 6461 H 670.58 0.464729 0.591211 0
M  V30 6462 H 672.551 2.43792 1.7207 0
M  V30 6463 C 671.3 1.41837 3.17455 0
M  V30 6464 H 670.623 2.27781 3.28567 0
M  V30 6465 H 672.063 1.49438 3.96793 0
M  V30 6466 C 670.522 0.135347 3.36628 0
M  V30 6467 O 671.052 -0.805199 3.93547 0
M  V30 6468 N 669.258 0.0470316 2.90562 0
M  V30 6469 H 668.805 0.813221 2.44427 0
M  V30 6470 H 668.763 -0.810737 3.03767 0
M  V30 6471 N 672.536 -0.895792 1.29666 0
M  V30 6472 C 673.764 -1.68001 1.20761 0
M  V30 6473 C 674.179 -1.87379 -0.231187 0
M  V30 6474 O 673.536 -1.41359 -1.15429 0
M  V30 6475 C 673.587 -3.06236 1.92098 0
M  V30 6476 O 673.308 -2.8774 3.30359 0
M  V30 6477 C 674.809 -4.00652 1.89717 0
M  V30 6478 H 672.029 -0.524591 0.418384 0
M  V30 6479 H 674.573 -1.11995 1.71106 0
M  V30 6480 H 672.728 -3.59007 1.45578 0
M  V30 6481 H 673.142 -3.75359 3.66342 0
M  V30 6482 H 674.616 -4.95051 2.44189 0
M  V30 6483 H 675.093 -4.30424 0.873595 0
M  V30 6484 H 675.699 -3.53815 2.35998 0
M  V30 6485 N 674.014 -1.12206 -1.10668 0
M  V30 6486 C 675.263 -0.870595 -1.81944 0
M  V30 6487 C 675.576 0.605447 -1.85994 0
M  V30 6488 O 676.782 0.973433 -2.53449 0
M  V30 6489 C 675.238 -1.50783 -3.26791 0
M  V30 6490 C 674.846 -3.01849 -3.31046 0
M  V30 6491 C 676.59 -1.33653 -4.02911 0
M  V30 6492 C 674.497 -3.58518 -4.70339 0
M  V30 6493 H 673.427 -0.322043 -0.681765 0
M  V30 6494 H 676.078 -1.34827 -1.24475 0
M  V30 6495 H 674.46 -0.957825 -3.84242 0
M  V30 6496 H 675.634 -3.63321 -2.83433 0
M  V30 6497 H 673.949 -3.18346 -2.68411 0
M  V30 6498 H 676.546 -1.73416 -5.05797 0
M  V30 6499 H 676.889 -0.279949 -4.15358 0
M  V30 6500 H 677.422 -1.85562 -3.51868 0
M  V30 6501 H 674.161 -4.63925 -4.63091 0
M  V30 6502 H 673.681 -3.01819 -5.18329 0
M  V30 6503 H 675.36 -3.57434 -5.39305 0
M  V30 6504 N 675.492 1.28418 -0.913599 0
M  V30 6505 C 676.74 1.94596 -0.545594 0
M  V30 6506 C 677.061 1.7227 0.913668 0
M  V30 6507 O 676.331 1.06233 1.64595 0
M  V30 6508 H 674.911 0.720065 -0.198783 0
M  V30 6509 H 677.573 1.56404 -1.16292 0
M  V30 6510 H 676.669 3.03202 -0.739911 0
M  V30 6511 N 676.97 0.677563 1.42291 0
M  V30 6512 C 678.195 0.207901 2.06355 0
M  V30 6513 C 678.62 -1.12723 1.50583 0
M  V30 6514 O 677.978 -1.70171 0.62543 0
M  V30 6515 C 678.026 0.156489 3.6026 0
M  V30 6516 O 677.13 -0.874162 4.03029 0
M  V30 6517 H 676.471 0.106056 0.655475 0
M  V30 6518 H 679.001 0.927354 1.82377 0
M  V30 6519 H 679.011 -0.0187258 4.07996 0
M  V30 6520 H 677.686 1.13101 4.00226 0
M  V30 6521 H 676.263 -0.669764 3.66836 0
M  V30 6522 N 678.448 -1.51871 0.421078 0
M  V30 6523 C 679.694 -2.02237 -0.151014 0
M  V30 6524 C 680.027 -1.30554 -1.43768 0
M  V30 6525 O 679.302 -0.41546 -1.90011 0
M  V30 6526 C 679.585 -3.5802 -0.386482 0
M  V30 6527 C 679.438 -4.40339 0.9177 0
M  V30 6528 C 680.757 -4.24444 -1.16342 0
M  V30 6529 H 677.876 -0.735062 -0.0534102 0
M  V30 6530 H 680.518 -1.81656 0.556888 0
M  V30 6531 H 678.668 -3.75688 -0.989494 0
M  V30 6532 H 680.34 -4.34357 1.55344 0
M  V30 6533 H 678.583 -4.06073 1.526 0
M  V30 6534 H 679.254 -5.47451 0.707187 0
M  V30 6535 H 681.73 -4.10948 -0.652788 0
M  V30 6536 H 680.606 -5.33358 -1.29693 0
M  V30 6537 H 680.867 -3.84204 -2.18724 0
M  V30 6538 N 679.926 -0.151884 -1.56866 0
M  V30 6539 C 681.174 0.497021 -1.95893 0
M  V30 6540 C 681.495 1.65078 -1.03799 0
M  V30 6541 O 680.765 1.95642 -0.10049 0
M  V30 6542 H 679.345 0.186603 -0.723318 0
M  V30 6543 H 682.007 -0.228525 -1.93556 0
M  V30 6544 H 681.103 0.869933 -2.99731 0
M  V30 6545 N 681.404 1.57128 0.121893 0
M  V30 6546 C 682.632 1.88883 0.844451 0
M  V30 6547 C 683.047 0.742824 1.73573 0
M  V30 6548 O 682.404 -0.286475 1.80238 0
M  V30 6549 C 682.455 3.20076 1.68029 0
M  V30 6550 O 682.176 4.30264 0.824898 0
M  V30 6551 C 683.677 3.65515 2.50826 0
M  V30 6552 H 680.897 0.62549 0.242907 0
M  V30 6553 H 683.441 2.04219 0.107151 0
M  V30 6554 H 681.596 3.06418 2.37038 0
M  V30 6555 H 682.01 5.05439 1.40113 0
M  V30 6556 H 683.484 4.60081 3.05008 0
M  V30 6557 H 683.961 2.92029 3.28048 0
M  V30 6558 H 684.567 3.81952 1.87064 0
M  V30 6559 N 682.882 -0.391992 1.52647 0
M  V30 6560 C 684.13 -1.13507 1.67214 0
M  V30 6561 C 684.451 -1.90575 0.41304 0
M  V30 6562 O 683.721 -1.87348 -0.572498 0
M  V30 6563 H 682.301 -0.422013 0.616372 0
M  V30 6564 H 684.963 -0.44502 1.89751 0
M  V30 6565 H 684.059 -1.83964 2.52118 0
M  V30 6566 N 684.36 -1.4356 -0.65026 0
M  V30 6567 C 685.292 -1.44918 -1.77571 0
M  V30 6568 C 686.305 -0.344925 -1.59104 0
M  V30 6569 O 687.494 -0.609537 -1.6777 0
M  V30 6570 C 684.594 -1.24914 -3.15039 0
M  V30 6571 C 683.767 -2.48232 -3.60138 0
M  V30 6572 C 682.826 -2.23409 -4.76419 0
M  V30 6573 O 681.852 -2.9678 -4.85706 0
M  V30 6574 N 683.054 -1.25259 -5.66825 0
M  V30 6575 H 685.819 -2.41935 -1.76883 0
M  V30 6576 H 683.38 -1.38754 -0.834202 0
M  V30 6577 H 685.372 -1.06185 -3.90521 0
M  V30 6578 H 683.942 -0.363319 -3.10481 0
M  V30 6579 H 683.162 -2.82366 -2.75069 0
M  V30 6580 H 684.45 -3.30296 -3.87017 0
M  V30 6581 H 683.848 -0.646246 -5.61997 0
M  V30 6582 H 682.405 -1.12513 -6.42016 0
M  V30 6583 N 685.838 0.888903 -1.30139 0
M  V30 6584 C 686.77 1.99972 -1.11999 0
M  V30 6585 C 687.783 1.62673 -0.0643619 0
M  V30 6586 O 688.972 1.75788 -0.309983 0
M  V30 6587 C 686.072 3.31904 -0.685059 0
M  V30 6588 C 685.245 3.97665 -1.82158 0
M  V30 6589 C 684.304 5.07894 -1.37585 0
M  V30 6590 O 683.33 5.2974 -2.08241 0
M  V30 6591 N 684.532 5.7995 -0.252697 0
M  V30 6592 H 687.297 2.16085 -2.07671 0
M  V30 6593 H 684.858 1.06175 -1.22223 0
M  V30 6594 H 686.85 4.03005 -0.369964 0
M  V30 6595 H 685.42 3.12084 0.179507 0
M  V30 6596 H 684.64 3.19787 -2.305 0
M  V30 6597 H 685.928 4.3834 -2.58332 0
M  V30 6598 H 685.326 5.647 0.336141 0
M  V30 6599 H 683.883 6.518 0.00296813 0
M  V30 6600 N 687.317 1.12792 1.10072 0
M  V30 6601 C 688.265 0.794523 2.18609 0
M  V30 6602 C 689.259 -0.220271 1.67962 0
M  V30 6603 O 690.465 -0.0780938 1.79831 0
M  V30 6604 H 686.84 0.239123 0.712969 0
M  V30 6605 H 688.811 1.71823 2.43966 0
M  V30 6606 C 687.56 0.269548 3.46654 0
M  V30 6607 H 686.883 1.04171 3.8599 0
M  V30 6608 H 688.323 0.0746242 4.23934 0
M  V30 6609 C 686.782 -1.00333 3.21613 0
M  V30 6610 O 687.312 -2.08042 3.4363 0
M  V30 6611 N 685.518 -0.931763 2.75257 0
M  V30 6612 H 685.065 -0.0551197 2.57541 0
M  V30 6613 H 685.023 -1.78405 2.58881 0
M  V30 6614 N 688.795 -1.27931 0.920396 0
M  V30 6615 C 689.758 -2.25345 0.41858 0
M  V30 6616 C 690.758 -1.54116 -0.458798 0
M  V30 6617 O 691.948 -1.72235 -0.260912 0
M  V30 6618 C 689.08 -3.38556 -0.399104 0
M  V30 6619 H 690.273 -2.71251 1.27918 0
M  V30 6620 H 687.826 -1.39728 0.700406 0
M  V30 6621 H 688.561 -2.98021 -1.27882 0
M  V30 6622 H 688.346 -3.91426 0.229863 0
M  V30 6623 H 689.836 -4.10976 -0.740817 0
M  V30 6624 N 690.273 -0.685099 -1.4193 0
M  V30 6625 C 691.501 -0.220372 -2.05723 0
M  V30 6626 C 691.916 1.12642 -1.51516 0
M  V30 6627 O 691.273 1.70182 -0.659114 0
M  V30 6628 C 691.324 -0.157974 -3.61155 0
M  V30 6629 O 691.045 -1.45156 -4.13354 0
M  V30 6630 C 692.546 0.329009 -4.42077 0
M  V30 6631 H 689.766 -0.104725 -0.662777 0
M  V30 6632 H 692.31 -0.934736 -1.81887 0
M  V30 6633 H 690.465 0.507144 -3.84066 0
M  V30 6634 H 690.879 -1.33172 -5.07312 0
M  V30 6635 H 692.353 0.321559 -5.51063 0
M  V30 6636 H 692.83 1.36608 -4.17414 0
M  V30 6637 H 693.436 -0.304737 -4.24207 0
M  V30 6638 N 691.751 1.51645 -0.429126 0
M  V30 6639 C 692.976 2.06917 0.141399 0
M  V30 6640 C 693.401 1.29527 1.36398 0
M  V30 6641 O 692.759 0.33094 1.78254 0
M  V30 6642 C 692.807 3.57776 0.4504 0
M  V30 6643 O 691.911 3.82639 1.53821 0
M  V30 6644 H 691.252 0.663978 0.0054647 0
M  V30 6645 H 693.782 1.95355 -0.608093 0
M  V30 6646 H 693.792 4.01894 0.703249 0
M  V30 6647 H 692.467 4.13532 -0.443213 0
M  V30 6648 H 691.044 3.5039 1.27597 0
M  V30 6649 N 693.229 0.160201 1.56784 0
M  V30 6650 C 694.159 -0.770264 2.2043 0
M  V30 6651 C 695.14 -1.24736 1.15651 0
M  V30 6652 O 696.325 -1.30253 1.44041 0
M  V30 6653 C 693.455 -2.00427 2.83631 0
M  V30 6654 C 692.409 -1.66345 3.94352 0
M  V30 6655 C 691.735 -2.97119 4.4455 0
M  V30 6656 C 693.035 -0.899972 5.14488 0
M  V30 6657 H 694.729 -0.239783 2.98438 0
M  V30 6658 H 692.275 -0.113891 1.43549 0
M  V30 6659 H 694.228 -2.66012 3.26827 0
M  V30 6660 H 692.952 -2.5587 2.02973 0
M  V30 6661 H 691.611 -1.03133 3.51794 0
M  V30 6662 H 691.259 -3.5058 3.60698 0
M  V30 6663 H 690.959 -2.75073 5.19238 0
M  V30 6664 H 692.483 -3.63753 4.90425 0
M  V30 6665 H 693.897 -1.45818 5.54446 0
M  V30 6666 H 692.294 -0.778968 5.95023 0
M  V30 6667 H 693.364 0.105827 4.84785 0
M  V30 6668 N 694.707 -1.5719 -0.113559 0
M  V30 6669 C 695.932 -1.89702 -0.838336 0
M  V30 6670 C 696.357 -0.752679 -1.72384 0
M  V30 6671 O 695.715 0.296575 -1.78858 0
M  V30 6672 C 695.763 -3.20989 -1.64312 0
M  V30 6673 O 694.867 -3.07278 -2.75053 0
M  V30 6674 H 694.208 -0.622339 -0.231496 0
M  V30 6675 H 696.738 -2.04382 -0.0943228 0
M  V30 6676 H 696.748 -3.53843 -2.03123 0
M  V30 6677 H 695.423 -4.03869 -0.993119 0
M  V30 6678 H 694 -2.85901 -2.39406 0
M  V30 6679 N 696.185 0.383891 -1.52853 0
M  V30 6680 C 697.133 1.48965 -1.7864 0
M  V30 6681 C 698.127 1.56242 -0.654577 0
M  V30 6682 O 699.333 1.59347 -0.83716 0
M  V30 6683 H 695.708 0.495892 -0.565328 0
M  V30 6684 H 697.679 1.24411 -2.71228 0
M  V30 6685 C 696.428 2.86036 -1.97683 0
M  V30 6686 H 695.751 2.81188 -2.84206 0
M  V30 6687 H 697.191 3.62632 -2.19713 0
M  V30 6688 C 695.65 3.28428 -0.750776 0
M  V30 6689 O 696.18 4.0164 0.0693491 0
M  V30 6690 N 694.386 2.84765 -0.579427 0
M  V30 6691 H 693.933 2.25353 -1.24795 0
M  V30 6692 H 693.891 3.13486 0.239544 0
M  V30 6693 N 697.663 1.43903 0.642637 0
M  V30 6694 C 699.074 1.40975 1.22404 0
M  V30 6695 C 699.425 0.1192 1.95838 0
M  V30 6696 O 698.55 -0.780939 2.01818 0
M  V30 6697 C 699.145 2.5538 2.22636 0
M  V30 6698 C 697.704 2.55684 2.76229 0
M  V30 6699 C 696.851 2.32556 1.51039 0
M  V30 6700 H 699.802 1.5265 0.434006 0
M  V30 6701 H 699.823 2.27474 3.05017 0
M  V30 6702 H 699.335 3.49294 1.69161 0
M  V30 6703 H 697.436 1.65679 3.33738 0
M  V30 6704 H 697.549 3.53799 3.23053 0
M  V30 6705 H 695.913 1.81427 1.78764 0
M  V30 6706 H 696.696 3.28569 0.99484 0
M  V30 6707 N 699.141 -0.881989 1.30609 0
M  V30 6708 C 700.089 -2.00942 1.17155 0
M  V30 6709 C 701.083 -1.69198 0.0827154 0
M  V30 6710 O 702.289 -1.78342 0.243775 0
M  V30 6711 H 698.664 -0.658913 0.362406 0
M  V30 6712 H 700.635 -2.09423 2.12567 0
M  V30 6713 C 699.384 -3.36294 0.883273 0
M  V30 6714 H 698.707 -3.61233 1.7132 0
M  V30 6715 H 700.147 -4.15812 0.829255 0
M  V30 6716 C 698.606 -3.34348 -0.413851 0
M  V30 6717 O 699.136 -3.75216 -1.43444 0
M  V30 6718 N 697.342 -2.87459 -0.426082 0
M  V30 6719 H 696.889 -2.54397 0.40493 0
M  V30 6720 H 696.847 -2.8654 -1.29391 0
M  V30 6721 N 700.619 -1.13374 -1.09472 0
M  V30 6722 C 702.03 -0.90801 -1.63132 0
M  V30 6723 C 702.381 0.555576 -1.8817 0
M  V30 6724 O 701.506 1.42218 -1.63104 0
M  V30 6725 C 702.101 -1.64182 -2.96361 0
M  V30 6726 C 700.66 -1.46197 -3.46848 0
M  V30 6727 C 699.807 -1.67134 -2.21273 0
M  V30 6728 H 702.758 -1.2871 -0.928411 0
M  V30 6729 H 702.779 -1.09863 -3.64294 0
M  V30 6730 H 702.291 -2.707 -2.78106 0
M  V30 6731 H 700.392 -0.419788 -3.70228 0
M  V30 6732 H 700.505 -2.22472 -4.24315 0
M  V30 6733 H 698.869 -1.09616 -2.29905 0
M  V30 6734 H 699.652 -2.74971 -2.05538 0
M  V30 6735 N 702.098 1.27442 -0.927168 0
M  V30 6736 C 703.347 1.93679 -0.563146 0
M  V30 6737 C 703.66 1.73673 0.899837 0
M  V30 6738 O 704.866 2.34247 1.37262 0
M  V30 6739 C 703.322 3.46961 -0.95636 0
M  V30 6740 C 702.93 3.75724 -2.43999 0
M  V30 6741 C 704.674 4.19282 -0.663565 0
M  V30 6742 C 702.581 5.22378 -2.77263 0
M  V30 6743 H 701.511 0.725059 -0.206894 0
M  V30 6744 H 704.162 1.44743 -1.12791 0
M  V30 6745 H 702.544 3.94703 -0.320254 0
M  V30 6746 H 703.718 3.38741 -3.12396 0
M  V30 6747 H 702.033 3.16605 -2.70463 0
M  V30 6748 H 704.63 5.27265 -0.888596 0
M  V30 6749 H 704.973 4.14382 0.399198 0
M  V30 6750 H 705.506 3.7736 -1.25875 0
M  V30 6751 H 702.245 5.32367 -3.82446 0
M  V30 6752 H 701.765 5.6051 -2.13516 0
M  V30 6753 H 703.444 5.9025 -2.64979 0
M  V30 6754 N 703.576 0.692616 1.41565 0
M  V30 6755 C 704.853 0.150496 1.9502 0
M  V30 6756 C 705.233 -1.33881 1.63215 0
M  V30 6757 O 704.581 -2.08378 0.937598 0
M  V30 6758 C 704.791 0.438636 3.46233 0
M  V30 6759 C 706.139 0.364777 4.2303 0
M  V30 6760 O 707.163 0.373383 3.54238 0
M  V30 6761 O 706.022 0.32234 5.45549 0
M  V30 6762 H 703.116 0.0132454 0.826894 0
M  V30 6763 H 705.662 0.768574 1.51298 0
M  V30 6764 H 704.434 1.46962 3.62654 0
M  V30 6765 H 704.057 -0.210562 3.97042 0
M  V30 6766 N 705.054 -1.51416 0.437162 0
M  V30 6767 C 706.465 -1.86682 -0.0260005 0
M  V30 6768 C 706.816 -1.35432 -1.4196 0
M  V30 6769 O 705.941 -0.705055 -2.04592 0
M  V30 6770 C 706.536 -3.38757 -0.0539577 0
M  V30 6771 C 705.095 -3.7356 -0.461532 0
M  V30 6772 C 704.242 -2.75134 0.345924 0
M  V30 6773 H 707.193 -1.44642 0.653013 0
M  V30 6774 H 707.214 -3.70573 -0.863478 0
M  V30 6775 H 706.726 -3.76028 0.96045 0
M  V30 6776 H 704.827 -3.41878 -1.48155 0
M  V30 6777 H 704.94 -4.78737 -0.186451 0
M  V30 6778 H 703.304 -2.53947 -0.195739 0
M  V30 6779 H 704.087 -3.15247 1.35921 0
M  V30 6780 N 706.532 -0.168513 -1.56696 0
M  V30 6781 C 707.757 0.486688 -2.01609 0
M  V30 6782 C 708.182 1.56203 -1.04796 0
M  V30 6783 O 707.54 1.8128 -0.0270596 0
M  V30 6784 C 707.588 1.04451 -3.45141 0
M  V30 6785 O 706.692 2.15862 -3.51393 0
M  V30 6786 H 706.033 0.116831 -0.653641 0
M  V30 6787 H 708.563 -0.271579 -2.0279 0
M  V30 6788 H 708.573 1.36782 -3.84389 0
M  V30 6789 H 707.248 0.257155 -4.15104 0
M  V30 6790 H 705.825 1.84597 -3.24004 0
M  V30 6791 N 708.01 1.57248 0.105221 0
M  V30 6792 C 709.235 1.90143 0.828264 0
M  V30 6793 C 709.66 0.761811 1.71983 0
M  V30 6794 O 709.018 -0.287086 1.79013 0
M  V30 6795 C 709.066 3.21856 1.62608 0
M  V30 6796 O 708.17 3.08732 2.7342 0
M  V30 6797 H 707.511 0.623558 0.228192 0
M  V30 6798 H 710.041 2.0443 0.0834826 0
M  V30 6799 H 710.051 3.54916 2.01243 0
M  V30 6800 H 708.726 4.0439 0.971687 0
M  V30 6801 H 707.303 2.87167 2.37886 0
M  V30 6802 N 709.488 -0.375779 1.53054 0
M  V30 6803 C 710.421 -1.48187 1.7354 0
M  V30 6804 C 711.399 -1.5177 0.583495 0
M  V30 6805 O 712.583 -1.69976 0.81488 0
M  V30 6806 C 709.71 -2.86598 1.80497 0
M  V30 6807 C 708.756 -3.00784 3.02376 0
M  V30 6808 S 709.589 -2.70601 4.62099 0
M  V30 6809 C 710.745 -4.11181 4.71891 0
M  V30 6810 H 710.978 -1.30587 2.67085 0
M  V30 6811 H 708.511 -0.569485 1.43514 0
M  V30 6812 H 710.469 -3.66353 1.85192 0
M  V30 6813 H 709.13 -3.01514 0.880217 0
M  V30 6814 H 708.323 -4.02128 3.03824 0
M  V30 6815 H 707.925 -2.28939 2.95742 0
M  V30 6816 H 710.217 -5.0529 4.51319 0
M  V30 6817 H 711.16 -4.14742 5.73929 0
M  V30 6818 H 711.568 -3.97706 4.00612 0
M  V30 6819 N 710.966 -1.44241 -0.634997 0
M  V30 6820 C 711.898 -1.46793 -1.76024 0
M  V30 6821 C 712.911 -0.361781 -1.58729 0
M  V30 6822 O 714.1 -0.627297 -1.67114 0
M  V30 6823 C 711.2 -1.28248 -3.13697 0
M  V30 6824 C 710.373 -2.52038 -3.57485 0
M  V30 6825 C 709.432 -2.2845 -4.74022 0
M  V30 6826 O 708.458 -3.01915 -4.82531 0
M  V30 6827 N 709.66 -1.31264 -5.65464 0
M  V30 6828 H 712.425 -2.43797 -1.74307 0
M  V30 6829 H 709.986 -1.39631 -0.819438 0
M  V30 6830 H 711.978 -1.10321 -3.89373 0
M  V30 6831 H 710.548 -0.39623 -3.10079 0
M  V30 6832 H 709.768 -2.85268 -2.72059 0
M  V30 6833 H 711.056 -3.34382 -3.83492 0
M  V30 6834 H 710.454 -0.705817 -5.6128 0
M  V30 6835 H 709.011 -1.19316 -6.40786 0
M  V30 6836 N 712.444 0.87505 -1.31075 0
M  V30 6837 C 713.86 1.15997 -1.09622 0
M  V30 6838 C 714.06 2.01036 0.136611 0
M  V30 6839 O 713.116 2.38559 0.827397 0
M  V30 6840 C 714.429 1.85702 -2.36506 0
M  V30 6841 C 715.977 1.98425 -2.42067 0
M  V30 6842 C 716.452 2.71544 -3.68819 0
M  V30 6843 N 717.943 2.79084 -3.69684 0
M  V30 6844 C 718.678 3.36259 -4.64454 0
M  V30 6845 N 718.174 3.94406 -5.69575 0
M  V30 6846 N 719.967 3.34169 -4.51982 0
M  V30 6847 H 712.118 0.308258 -2.10151 0
M  V30 6848 H 714.381 0.199145 -0.926847 0
M  V30 6849 H 714.087 1.30663 -3.26527 0
M  V30 6850 H 713.961 2.86017 -2.45915 0
M  V30 6851 H 716.348 2.5263 -1.52518 0
M  V30 6852 H 716.429 0.971682 -2.36626 0
M  V30 6853 H 716.073 2.18008 -4.58732 0
M  V30 6854 H 716.003 3.73198 -3.71525 0
M  V30 6855 H 718.494 2.3781 -2.93691 0
M  V30 6856 H 718.807 4.36129 -6.37974 0
M  V30 6857 H 717.152 3.92797 -5.73355 0
M  V30 6858 H 720.343 2.87977 -3.69035 0
M  V30 6859 H 720.516 3.78431 -5.26017 0
M  V30 6860 N 713.922 1.13953 1.08869 0
M  V30 6861 C 714.885 0.824991 2.13838 0
M  V30 6862 C 715.885 -0.168198 1.59918 0
M  V30 6863 O 717.075 0.0595778 1.74098 0
M  V30 6864 C 714.207 0.228938 3.4013 0
M  V30 6865 H 715.4 1.75521 2.43171 0
M  V30 6866 H 712.953 0.94492 1.24503 0
M  V30 6867 H 713.688 -0.710227 3.16427 0
M  V30 6868 H 713.473 0.944243 3.80561 0
M  V30 6869 H 714.963 0.0259223 4.17592 0
M  V30 6870 N 715.4 -1.26948 0.933913 0
M  V30 6871 C 716.63 -1.97898 0.593279 0
M  V30 6872 C 717.038 -1.69806 -0.834412 0
M  V30 6873 O 716.381 -0.958704 -1.56699 0
M  V30 6874 C 716.443 -3.51657 0.746825 0
M  V30 6875 C 716.107 -4.03384 2.14779 0
M  V30 6876 C 717.104 -4.15682 3.12257 0
M  V30 6877 C 714.789 -4.37577 2.46641 0
M  V30 6878 C 716.783 -4.61455 4.39702 0
M  V30 6879 C 714.47 -4.8304 3.7432 0
M  V30 6880 C 715.468 -4.94939 4.70664 0
M  V30 6881 O 715.156 -5.39403 5.96071 0
M  V30 6882 H 714.888 -0.63814 0.223055 0
M  V30 6883 H 717.442 -1.62608 1.2549 0
M  V30 6884 H 715.672 -3.8669 0.0280889 0
M  V30 6885 H 717.361 -4.03821 0.410328 0
M  V30 6886 H 718.127 -3.89519 2.88964 0
M  V30 6887 H 714.006 -4.27554 1.72391 0
M  V30 6888 H 717.55 -4.70658 5.14905 0
M  V30 6889 H 713.447 -5.08646 3.97429 0
M  V30 6890 H 714.215 -5.57641 5.99148 0
M  V30 6891 N 716.879 -0.700114 -1.41195 0
M  V30 6892 C 717.842 -0.0465706 -2.29153 0
M  V30 6893 C 718.842 0.703302 -1.44604 0
M  V30 6894 O 720.032 0.537513 -1.657 0
M  V30 6895 C 717.164 0.944324 -3.2756 0
M  V30 6896 H 718.357 -0.821064 -2.88442 0
M  V30 6897 H 715.91 -0.463869 -1.49258 0
M  V30 6898 H 716.645 1.74642 -2.73259 0
M  V30 6899 H 716.43 0.409701 -3.89954 0
M  V30 6900 H 717.92 1.39925 -3.9346 0
M  V30 6901 N 718.357 1.51182 -0.445186 0
M  V30 6902 C 719.32 2.26501 0.350722 0
M  V30 6903 C 720.32 1.3025 0.942952 0
M  V30 6904 O 721.51 1.53897 0.816175 0
M  V30 6905 C 718.642 3.06274 1.49697 0
M  V30 6906 H 719.835 2.98299 -0.309474 0
M  V30 6907 H 717.388 1.55034 -0.198551 0
M  V30 6908 H 718.123 2.38911 2.19299 0
M  V30 6909 H 717.908 3.76979 1.0784 0
M  V30 6910 H 719.398 3.63306 2.05909 0
M  V30 6911 N 719.835 0.176821 1.56605 0
M  V30 6912 C 720.765 -0.746841 2.21234 0
M  V30 6913 C 721.746 -1.23502 1.16967 0
M  V30 6914 O 722.931 -1.28718 1.45414 0
M  V30 6915 C 720.061 -1.97407 2.8574 0
M  V30 6916 C 719.015 -1.62153 3.96094 0
M  V30 6917 C 718.341 -2.92387 4.47676 0
M  V30 6918 C 719.641 -0.845353 5.15413 0
M  V30 6919 H 721.335 -0.208116 2.98676 0
M  V30 6920 H 718.881 -0.0986594 1.43662 0
M  V30 6921 H 720.834 -2.62531 3.2963 0
M  V30 6922 H 719.558 -2.53703 2.05676 0
M  V30 6923 H 718.217 -0.993964 3.52868 0
M  V30 6924 H 717.865 -3.46734 3.64396 0
M  V30 6925 H 717.565 -2.69551 5.22127 0
M  V30 6926 H 719.089 -3.5853 4.94255 0
M  V30 6927 H 720.503 -1.39929 5.55961 0
M  V30 6928 H 718.9 -0.715814 5.95815 0
M  V30 6929 H 719.97 0.157239 4.84645 0
M  V30 6930 N 721.313 -1.57302 -0.09688 0
M  V30 6931 C 722.561 -1.8563 -0.799117 0
M  V30 6932 C 722.882 -0.765263 -1.79356 0
M  V30 6933 O 722.152 0.208657 -1.94786 0
M  V30 6934 H 720.732 -0.684937 -0.298111 0
M  V30 6935 H 723.394 -1.9474 -0.0789341 0
M  V30 6936 H 722.49 -2.82305 -1.3308 0
M  V30 6937 N 722.791 0.367657 -1.53252 0
M  V30 6938 C 723.721 1.45632 -1.8252 0
M  V30 6939 C 724.702 1.55979 -0.678568 0
M  V30 6940 O 725.887 1.70581 -0.928217 0
M  V30 6941 C 723.017 2.82994 -2.01325 0
M  V30 6942 C 721.971 2.87473 -3.17086 0
M  V30 6943 C 721.297 4.2749 -3.21179 0
M  V30 6944 C 722.597 2.55182 -4.55719 0
M  V30 6945 H 724.291 1.21387 -2.73689 0
M  V30 6946 H 721.837 0.58251 -1.31692 0
M  V30 6947 H 723.79 3.59179 -2.20383 0
M  V30 6948 H 722.514 3.08622 -1.06864 0
M  V30 6949 H 721.173 2.13739 -2.97844 0
M  V30 6950 H 720.821 4.5019 -2.24361 0
M  V30 6951 H 720.521 4.31403 -3.98955 0
M  V30 6952 H 722.045 5.0555 -3.42419 0
M  V30 6953 H 723.459 3.21081 -4.74953 0
M  V30 6954 H 721.856 2.70414 -5.3572 0
M  V30 6955 H 722.926 1.5044 -4.60973 0
M  V30 6956 N 724.269 1.44576 0.627338 0
M  V30 6957 C 725.68 1.42266 1.20902 0
M  V30 6958 C 726.031 0.139964 1.957 0
M  V30 6959 O 725.156 -0.759489 2.02634 0
M  V30 6960 C 725.751 2.57727 2.19914 0
M  V30 6961 C 724.31 2.58599 2.73502 0
M  V30 6962 C 723.457 2.34145 1.48564 0
M  V30 6963 H 726.408 1.53102 0.417791 0
M  V30 6964 H 726.429 2.30697 3.02588 0
M  V30 6965 H 725.941 3.51068 1.65447 0
M  V30 6966 H 724.042 1.6921 3.31962 0
M  V30 6967 H 724.155 3.57205 3.19282 0
M  V30 6968 H 722.519 1.83313 1.76829 0
M  V30 6969 H 723.302 3.29606 0.959935 0
M  V30 6970 N 725.747 -0.868086 1.31537 0
M  V30 6971 C 726.977 -1.65162 1.24118 0
M  V30 6972 C 727.385 -1.88187 -0.195558 0
M  V30 6973 O 726.728 -1.44154 -1.13866 0
M  V30 6974 C 726.79 -3.04119 1.91708 0
M  V30 6975 C 726.454 -3.04194 3.4105 0
M  V30 6976 C 727.451 -2.82016 4.36764 0
M  V30 6977 C 725.136 -3.25256 3.82772 0
M  V30 6978 C 727.13 -2.80881 5.72175 0
M  V30 6979 C 724.817 -3.23749 5.18295 0
M  V30 6980 C 725.815 -3.01589 6.12808 0
M  V30 6981 O 725.503 -2.9993 7.45853 0
M  V30 6982 H 725.235 -0.521597 0.430015 0
M  V30 6983 H 727.789 -1.09165 1.73989 0
M  V30 6984 H 726.019 -3.61849 1.36389 0
M  V30 6985 H 727.708 -3.64701 1.78179 0
M  V30 6986 H 728.474 -2.65525 4.05859 0
M  V30 6987 H 724.353 -3.41534 3.09638 0
M  V30 6988 H 727.897 -2.63503 6.45919 0
M  V30 6989 H 723.794 -3.39781 5.48834 0
M  V30 6990 H 724.562 -3.15979 7.55049 0
M  V30 6991 N 727.225 -1.14528 -1.08264 0
M  V30 6992 C 728.158 -0.777154 -2.14559 0
M  V30 6993 C 729.136 0.242165 -1.60787 0
M  V30 6994 O 730.32 0.130882 -1.88045 0
M  V30 6995 C 727.447 -0.154092 -3.38349 0
M  V30 6996 C 726.493 -1.14382 -4.10876 0
M  V30 6997 S 727.326 -2.68173 -4.63512 0
M  V30 6998 C 728.482 -2.0726 -5.90588 0
M  V30 6999 H 728.715 -1.67748 -2.45454 0
M  V30 7000 H 726.248 -0.966661 -1.20395 0
M  V30 7001 H 728.206 0.19897 -4.10018 0
M  V30 7002 H 726.867 0.723688 -3.05649 0
M  V30 7003 H 726.06 -0.655908 -4.99714 0
M  V30 7004 H 725.662 -1.44095 -3.45127 0
M  V30 7005 H 727.954 -1.42895 -6.62259 0
M  V30 7006 H 728.897 -2.94227 -6.44078 0
M  V30 7007 H 729.305 -1.51935 -5.43669 0
M  V30 7008 N 728.703 1.26451 -0.940633 0
M  V30 7009 C 729.651 2.28389 -0.440581 0
M  V30 7010 C 730.645 1.62402 0.481859 0
M  V30 7011 O 731.851 1.76361 0.360132 0
M  V30 7012 H 728.226 0.741716 -0.123938 0
M  V30 7013 H 730.197 2.67967 -1.31288 0
M  V30 7014 C 728.946 3.46576 0.279364 0
M  V30 7015 H 728.269 3.97574 -0.421274 0
M  V30 7016 H 729.709 4.19826 0.59348 0
M  V30 7017 C 728.168 3.01815 1.49697 0
M  V30 7018 O 728.698 3.06607 2.59529 0
M  V30 7019 N 726.904 2.57163 1.35334 0
M  V30 7020 H 726.451 2.53464 0.459743 0
M  V30 7021 H 726.409 2.27578 2.16923 0
M  V30 7022 N 730.181 0.707592 1.40822 0
M  V30 7023 C 731.113 0.0105968 2.29198 0
M  V30 7024 C 732.126 -0.732035 1.45414 0
M  V30 7025 O 733.315 -0.580741 1.68789 0
M  V30 7026 C 730.415 -1.00921 3.23525 0
M  V30 7027 C 729.588 -0.333747 4.36125 0
M  V30 7028 C 728.647 -1.25783 5.10945 0
M  V30 7029 O 727.673 -0.745646 5.64295 0
M  V30 7030 N 728.875 -2.58947 5.19545 0
M  V30 7031 H 731.64 0.76938 2.89656 0
M  V30 7032 H 729.201 0.554579 1.52105 0
M  V30 7033 H 731.193 -1.6294 3.70449 0
M  V30 7034 H 729.763 -1.66942 2.6429 0
M  V30 7035 H 728.983 0.466518 3.9143 0
M  V30 7036 H 730.271 0.135444 5.0862 0
M  V30 7037 H 729.669 -3.03065 4.7767 0
M  V30 7038 H 728.226 -3.16131 5.70004 0
M  V30 7039 N 731.66 -1.50943 0.453197 0
M  V30 7040 C 733.071 -1.86699 -0.00619892 0
M  V30 7041 C 733.422 -1.3693 -1.40515 0
M  V30 7042 O 732.547 -0.726715 -2.03833 0
M  V30 7043 C 733.142 -3.38795 -0.018025 0
M  V30 7044 C 731.701 -3.74028 -0.421885 0
M  V30 7045 C 730.848 -2.74752 0.375087 0
M  V30 7046 H 733.799 -1.43942 0.668317 0
M  V30 7047 H 733.82 -3.71468 -0.824125 0
M  V30 7048 H 733.332 -3.74988 1.00028 0
M  V30 7049 H 731.433 -3.43431 -1.44521 0
M  V30 7050 H 731.546 -4.78908 -0.135664 0
M  V30 7051 H 729.91 -2.5414 -0.168794 0
M  V30 7052 H 730.693 -3.13787 1.39256 0
M  V30 7053 N 733.138 -0.185124 -1.56509 0
M  V30 7054 C 734.07 0.771401 -2.15829 0
M  V30 7055 C 735.083 1.18392 -1.11747 0
M  V30 7056 O 736.272 1.12137 -1.38879 0
M  V30 7057 C 733.372 2.05169 -2.69739 0
M  V30 7058 C 732.545 1.80056 -3.98621 0
M  V30 7059 C 731.604 2.92435 -4.37456 0
M  V30 7060 O 730.63 2.62473 -5.05071 0
M  V30 7061 N 731.832 4.20554 -4.00143 0
M  V30 7062 H 734.597 0.264184 -2.98533 0
M  V30 7063 H 732.158 -0.00281069 -1.619 0
M  V30 7064 H 734.15 2.7947 -2.92709 0
M  V30 7065 H 732.72 2.47041 -1.91545 0
M  V30 7066 H 731.94 0.895862 -3.83885 0
M  V30 7067 H 733.228 1.60662 -4.82768 0
M  V30 7068 H 732.626 4.47753 -3.45736 0
M  V30 7069 H 731.183 4.91514 -4.28085 0
M  V30 7070 N 734.616 1.57351 0.0885366 0
M  V30 7071 C 735.844 1.90631 0.804196 0
M  V30 7072 C 736.259 0.779474 1.71958 0
M  V30 7073 O 735.616 -0.248179 1.80805 0
M  V30 7074 C 735.667 3.23568 1.61202 0
M  V30 7075 O 735.388 4.31917 0.733447 0
M  V30 7076 C 736.889 3.70753 2.43016 0
M  V30 7077 H 734.109 0.630501 0.229585 0
M  V30 7078 H 736.653 2.044 0.0638092 0
M  V30 7079 H 734.808 3.11377 2.30485 0
M  V30 7080 H 735.222 5.08297 1.29361 0
M  V30 7081 H 736.696 4.66447 2.9518 0
M  V30 7082 H 737.173 2.98922 3.2178 0
M  V30 7083 H 737.779 3.85834 1.7892 0
M  V30 7084 N 736.094 -0.359525 1.53444 0
M  V30 7085 C 737.026 -1.46098 1.76602 0
M  V30 7086 C 738.039 -1.49395 0.646912 0
M  V30 7087 O 739.228 -1.52765 0.923307 0
M  V30 7088 C 736.328 -2.84836 1.83635 0
M  V30 7089 C 735.501 -3.05164 3.13358 0
M  V30 7090 C 734.56 -4.24051 3.11556 0
M  V30 7091 O 733.586 -4.18935 3.85334 0
M  V30 7092 N 734.788 -5.31775 2.328 0
M  V30 7093 H 737.553 -1.2661 2.71643 0
M  V30 7094 H 735.114 -0.549294 1.52297 0
M  V30 7095 H 737.106 -3.62516 1.799 0
M  V30 7096 H 735.676 -2.97542 0.958509 0
M  V30 7097 H 734.896 -2.15091 3.30348 0
M  V30 7098 H 736.184 -3.15619 3.99076 0
M  V30 7099 H 735.582 -5.38796 1.7238 0
M  V30 7100 H 734.139 -6.0801 2.34877 0
M  V30 7101 N 737.572 -1.44907 -0.619662 0
M  V30 7102 C 738.502 -1.55488 -1.742 0
M  V30 7103 C 739.483 -0.407143 -1.65156 0
M  V30 7104 O 740.668 -0.628743 -1.8374 0
M  V30 7105 C 737.798 -1.5097 -3.1277 0
M  V30 7106 C 736.752 -2.64337 -3.36615 0
M  V30 7107 C 736.078 -2.44872 -4.75333 0
M  V30 7108 C 737.378 -4.06423 -3.28051 0
M  V30 7109 H 739.072 -2.49432 -1.65602 0
M  V30 7110 H 736.618 -1.20047 -0.795281 0
M  V30 7111 H 738.571 -1.56971 -3.91073 0
M  V30 7112 H 737.295 -0.535486 -3.2218 0
M  V30 7113 H 735.954 -2.57744 -2.60698 0
M  V30 7114 H 735.602 -1.45617 -4.81461 0
M  V30 7115 H 735.302 -3.20888 -4.92244 0
M  V30 7116 H 736.826 -2.52709 -5.55851 0
M  V30 7117 H 738.24 -4.14324 -3.96243 0
M  V30 7118 H 736.637 -4.82733 -3.56495 0
M  V30 7119 H 737.707 -4.29183 -2.25676 0
M  V30 7120 N 739.05 0.861098 -1.31996 0
M  V30 7121 C 739.982 1.97551 -1.16216 0
M  V30 7122 C 740.995 1.625 -0.0988527 0
M  V30 7123 O 742.184 1.75091 -0.3472 0
M  V30 7124 C 739.284 3.30376 -0.755307 0
M  V30 7125 C 738.457 3.93711 -1.90552 0
M  V30 7126 C 737.516 5.04862 -1.48328 0
M  V30 7127 O 736.542 5.25204 -2.19431 0
M  V30 7128 N 737.744 5.79283 -0.375656 0
M  V30 7129 H 740.509 2.11632 -2.12208 0
M  V30 7130 H 738.07 1.03559 -1.24448 0
M  V30 7131 H 740.062 4.0213 -0.455364 0
M  V30 7132 H 738.632 3.12395 0.113269 0
M  V30 7133 H 737.852 3.14825 -2.37231 0
M  V30 7134 H 739.14 4.32762 -2.67571 0
M  V30 7135 H 738.538 5.65286 0.216284 0
M  V30 7136 H 737.095 6.5166 -0.135289 0
M  V30 7137 N 740.528 1.15101 1.07655 0
M  V30 7138 C 741.939 0.933848 1.61667 0
M  V30 7139 C 742.29 -0.525569 1.8903 0
M  V30 7140 O 741.415 -1.39605 1.65346 0
M  V30 7141 C 742.01 1.68876 2.93711 0
M  V30 7142 C 740.569 1.51697 3.44478 0
M  V30 7143 C 739.716 1.70633 2.18586 0
M  V30 7144 H 742.667 1.30171 0.907816 0
M  V30 7145 H 742.688 1.15645 3.625 0
M  V30 7146 H 742.2 2.7509 2.73764 0
M  V30 7147 H 740.301 0.478635 3.69513 0
M  V30 7148 H 740.414 2.29194 4.20722 0
M  V30 7149 H 738.778 1.13259 2.28132 0
M  V30 7150 H 739.561 2.78206 2.01137 0
M  V30 7151 N 742.006 -1.2595 0.947325 0
M  V30 7152 C 742.938 -2.25336 0.41906 0
M  V30 7153 C 743.951 -1.56135 -0.461051 0
M  V30 7154 O 745.14 -1.76438 -0.270505 0
M  V30 7155 C 742.24 -3.36334 -0.416233 0
M  V30 7156 C 741.413 -4.35088 0.449162 0
M  V30 7157 C 740.472 -5.25185 -0.326716 0
M  V30 7158 O 739.498 -5.68548 0.272374 0
M  V30 7159 N 740.7 -5.57388 -1.6217 0
M  V30 7160 H 743.465 -2.71298 1.27348 0
M  V30 7161 H 741.026 -1.39781 0.81688 0
M  V30 7162 H 743.018 -3.93564 -0.942826 0
M  V30 7163 H 741.588 -2.89819 -1.17148 0
M  V30 7164 H 740.808 -3.76841 1.15692 0
M  V30 7165 H 742.096 -4.98056 1.04008 0
M  V30 7166 H 741.494 -5.2405 -2.13046 0
M  V30 7167 H 740.051 -6.17234 -2.0944 0
M  V30 7168 N 743.484 -0.715051 -1.40445 0
M  V30 7169 C 744.73 -0.254705 -2.01194 0
M  V30 7170 C 745.063 1.14894 -1.56567 0
M  V30 7171 O 744.338 1.77933 -0.785491 0
M  V30 7172 C 744.621 -0.334148 -3.58546 0
M  V30 7173 C 744.474 -1.77613 -4.13248 0
M  V30 7174 C 745.793 0.294968 -4.3911 0
M  V30 7175 H 742.912 -0.094025 -0.730978 0
M  V30 7176 H 745.554 -0.907449 -1.66929 0
M  V30 7177 H 743.704 0.221609 -3.87867 0
M  V30 7178 H 745.376 -2.38723 -3.94727 0
M  V30 7179 H 743.619 -2.30402 -3.67556 0
M  V30 7180 H 744.29 -1.78311 -5.22407 0
M  V30 7181 H 746.766 -0.178563 -4.15717 0
M  V30 7182 H 745.642 0.208934 -5.48502 0
M  V30 7183 H 745.903 1.37841 -4.20062 0
M  V30 7184 N 744.962 1.50701 -0.461195 0
M  V30 7185 C 746.373 1.867 -0.00370227 0
M  V30 7186 C 746.724 1.37673 1.39787 0
M  V30 7187 O 745.849 0.737515 2.03445 0
M  V30 7188 C 746.444 3.388 5.75786e-05 0
M  V30 7189 C 745.003 3.74247 0.402044 0
M  V30 7190 C 744.15 2.74549 -0.389652 0
M  V30 7191 H 747.101 1.43585 -0.675942 0
M  V30 7192 H 747.122 3.719 0.804414 0
M  V30 7193 H 746.634 3.74452 -1.02015 0
M  V30 7194 H 744.735 3.44192 1.42697 0
M  V30 7195 H 744.848 4.78973 0.110265 0
M  V30 7196 H 743.212 2.54226 0.155314 0
M  V30 7197 H 743.995 3.13044 -1.40919 0
M  V30 7198 N 746.441 0.193421 1.56409 0
M  V30 7199 C 747.689 -0.444908 1.97142 0
M  V30 7200 C 748.01 -1.62268 1.08139 0
M  V30 7201 O 747.28 -1.95307 0.152326 0
M  V30 7202 H 745.86 -0.16736 0.728011 0
M  V30 7203 H 748.522 0.279763 1.92882 0
M  V30 7204 H 747.618 -0.790159 3.01932 0
M  V30 7205 N 747.919 -1.57396 -0.0801906 0
M  V30 7206 C 748.851 -1.9982 -1.12271 0
M  V30 7207 C 749.864 -0.902902 -1.35468 0
M  V30 7208 O 751.053 -1.18088 -1.33856 0
M  V30 7209 C 748.153 -2.31476 -2.47532 0
M  V30 7210 C 747.326 -3.62745 -2.44407 0
M  V30 7211 C 746.385 -3.82168 -3.6171 0
M  V30 7212 O 745.411 -4.53852 -3.43522 0
M  V30 7213 N 746.613 -3.2388 -4.81749 0
M  V30 7214 H 749.378 -2.89864 -0.761501 0
M  V30 7215 H 746.939 -1.5965 -0.268965 0
M  V30 7216 H 748.931 -2.4165 -3.24634 0
M  V30 7217 H 747.501 -1.47364 -2.75686 0
M  V30 7218 H 746.721 -3.63403 -1.52747 0
M  V30 7219 H 748.009 -4.48954 -2.39412 0
M  V30 7220 H 747.407 -2.6568 -4.9943 0
M  V30 7221 H 745.964 -3.39515 -5.56392 0
M  V30 7222 N 749.397 0.351382 -1.53633 0
M  V30 7223 C 750.329 1.45159 -1.77374 0
M  V30 7224 C 751.342 1.4905 -0.654826 0
M  V30 7225 O 752.531 1.52274 -0.931396 0
M  V30 7226 C 749.631 2.83858 -1.85143 0
M  V30 7227 C 748.804 3.03498 -3.14972 0
M  V30 7228 C 747.863 4.22393 -3.138 0
M  V30 7229 O 746.889 4.16885 -3.87551 0
M  V30 7230 N 748.091 5.30533 -2.35617 0
M  V30 7231 H 750.856 1.25167 -2.72311 0
M  V30 7232 H 748.417 0.54121 -1.52586 0
M  V30 7233 H 750.409 3.61557 -1.8182 0
M  V30 7234 H 748.979 2.9703 -0.974275 0
M  V30 7235 H 748.199 2.13336 -3.31484 0
M  V30 7236 H 749.487 3.13498 -4.00745 0
M  V30 7237 H 748.885 5.37875 -1.75235 0
M  V30 7238 H 747.442 6.06756 -2.38098 0
M  V30 7239 N 750.875 1.45233 0.611969 0
M  V30 7240 C 752.286 1.4354 1.19387 0
M  V30 7241 C 752.637 0.160713 1.95541 0
M  V30 7242 O 751.762 -0.737954 2.03429 0
M  V30 7243 C 752.357 2.60045 2.17169 0
M  V30 7244 C 750.916 2.61486 2.70744 0
M  V30 7245 C 750.063 2.35708 1.46072 0
M  V30 7246 H 753.014 1.53536 0.401529 0
M  V30 7247 H 753.035 2.33893 3.00124 0
M  V30 7248 H 752.547 3.52803 1.61714 0
M  V30 7249 H 750.648 1.72721 3.30149 0
M  V30 7250 H 750.761 3.60572 3.15476 0
M  V30 7251 H 749.125 1.85178 1.74875 0
M  V30 7252 H 749.908 3.30606 0.924922 0
M  V30 7253 N 752.353 -0.854086 1.3245 0
M  V30 7254 C 753.316 -1.94427 1.21371 0
M  V30 7255 C 754.316 -1.60219 0.136613 0
M  V30 7256 O 755.506 -1.69846 0.387057 0
M  V30 7257 C 752.638 -3.29698 0.866701 0
M  V30 7258 H 753.831 -2.05679 2.18257 0
M  V30 7259 H 751.384 -1.04434 1.1629 0
M  V30 7260 H 752.119 -3.24145 -0.100319 0
M  V30 7261 H 751.904 -3.55903 1.64545 0
M  V30 7262 H 753.394 -4.09599 0.813515 0
M  V30 7263 N 753.831 -1.1567 -1.07043 0
M  V30 7264 C 754.763 -0.814095 -2.14255 0
M  V30 7265 C 755.776 0.175293 -1.61854 0
M  V30 7266 O 756.965 -0.0483984 -1.78434 0
M  V30 7267 C 754.065 -0.190082 -3.38367 0
M  V30 7268 C 753.238 -1.21768 -4.20109 0
M  V30 7269 C 752.297 -0.614863 -5.22595 0
M  V30 7270 O 751.323 -1.28167 -5.54583 0
M  V30 7271 N 752.525 0.601955 -5.77371 0
M  V30 7272 H 755.29 -1.73677 -2.44247 0
M  V30 7273 H 752.851 -1.05301 -1.22977 0
M  V30 7274 H 754.843 0.22604 -4.04068 0
M  V30 7275 H 753.413 0.635992 -3.06062 0
M  V30 7276 H 752.633 -1.81025 -3.50177 0
M  V30 7277 H 753.921 -1.9114 -4.71533 0
M  V30 7278 H 753.319 1.162 -5.53637 0
M  V30 7279 H 751.876 0.96039 -6.44686 0
M  V30 7280 N 755.309 1.25446 -0.953992 0
M  V30 7281 C 756.72 1.75047 -0.649255 0
M  V30 7282 C 757.071 1.77527 0.835385 0
M  V30 7283 O 756.196 1.39569 1.65377 0
M  V30 7284 C 756.791 3.17889 -1.17183 0
M  V30 7285 C 755.35 3.65052 -0.917267 0
M  V30 7286 C 754.497 2.44124 -1.31525 0
M  V30 7287 H 757.448 1.11342 -1.13087 0
M  V30 7288 H 757.469 3.76768 -0.531616 0
M  V30 7289 H 756.981 3.16052 -2.25239 0
M  V30 7290 H 755.082 3.72305 0.148354 0
M  V30 7291 H 755.195 4.53222 -1.55328 0
M  V30 7292 H 753.559 2.43906 -0.733624 0
M  V30 7293 H 754.342 2.44979 -2.405 0
M  V30 7294 N 756.787 0.722489 1.40064 0
M  V30 7295 C 757.719 0.0349057 2.29173 0
M  V30 7296 C 758.732 -0.716571 1.46182 0
M  V30 7297 O 759.921 -0.562806 1.69395 0
M  V30 7298 C 757.021 -0.974839 3.24577 0
M  V30 7299 C 756.194 -0.287471 4.36454 0
M  V30 7300 C 755.253 -1.20356 5.12251 0
M  V30 7301 O 754.279 -0.685753 5.65054 0
M  V30 7302 N 755.481 -2.53422 5.22262 0
M  V30 7303 H 758.246 0.800058 2.88824 0
M  V30 7304 H 755.807 0.57068 1.51509 0
M  V30 7305 H 757.799 -1.59002 3.72157 0
M  V30 7306 H 756.369 -1.6413 2.66046 0
M  V30 7307 H 755.589 0.508008 3.90913 0
M  V30 7308 H 756.877 0.189382 5.08447 0
M  V30 7309 H 756.275 -2.97981 4.80857 0
M  V30 7310 H 754.832 -3.10067 5.73325 0
M  V30 7311 N 758.265 -1.50454 0.469181 0
M  V30 7312 C 759.493 -2.06729 -0.0842134 0
M  V30 7313 C 759.908 -1.33326 -1.33677 0
M  V30 7314 O 759.265 -0.401977 -1.78018 0
M  V30 7315 C 759.316 -3.59557 -0.374253 0
M  V30 7316 O 759.037 -4.30192 0.828622 0
M  V30 7317 C 760.538 -4.32449 -0.974824 0
M  V30 7318 H 757.758 -0.670971 0.006231 0
M  V30 7319 H 760.302 -1.93645 0.657415 0
M  V30 7320 H 758.457 -3.7245 -1.06581 0
M  V30 7321 H 758.871 -5.21371 0.572066 0
M  V30 7322 H 760.345 -5.40361 -1.12755 0
M  V30 7323 H 760.822 -3.92819 -1.96442 0
M  V30 7324 H 761.428 -4.24082 -0.321703 0
M  V30 7325 N 759.743 -0.201713 -1.56304 0
M  V30 7326 C 760.693 0.729444 -2.16016 0
M  V30 7327 C 761.677 1.17164 -1.10279 0
M  V30 7328 O 762.869 1.12893 -1.36324 0
M  V30 7329 C 759.998 1.94594 -2.82822 0
M  V30 7330 C 759.084 1.52434 -3.95758 0
M  V30 7331 N 759.475 0.814106 -4.99205 0
M  V30 7332 C 757.773 1.81314 -4.07481 0
M  V30 7333 C 758.474 0.601896 -5.78578 0
M  V30 7334 N 757.45 1.15263 -5.3124 0
M  V30 7335 H 761.252 0.178163 -2.93359 0
M  V30 7336 H 758.766 -0.00218038 -1.624 0
M  V30 7337 H 760.763 2.62357 -3.23998 0
M  V30 7338 H 759.423 2.50188 -2.06969 0
M  V30 7339 H 760.434 0.468872 -5.15773 0
M  V30 7340 H 757.111 2.3837 -3.42762 0
M  V30 7341 H 758.501 0.0380119 -6.71889 0
M  V30 7342 N 761.222 1.57436 0.0718424 0
M  V30 7343 C 762.154 2.00412 1.1121 0
M  V30 7344 C 763.167 0.910074 1.34987 0
M  V30 7345 O 764.356 1.18796 1.33228 0
M  V30 7346 C 761.456 2.32786 2.46301 0
M  V30 7347 C 760.629 3.64036 2.4248 0
M  V30 7348 C 759.688 3.8408 3.59679 0
M  V30 7349 O 758.714 4.55667 3.4111 0
M  V30 7350 N 759.916 3.2643 4.80025 0
M  V30 7351 H 762.681 2.90264 0.746118 0
M  V30 7352 H 760.242 1.59791 0.260495 0
M  V30 7353 H 762.234 2.43368 3.23348 0
M  V30 7354 H 760.804 1.48824 2.74901 0
M  V30 7355 H 760.024 3.64208 1.50818 0
M  V30 7356 H 761.312 4.50217 2.37027 0
M  V30 7357 H 760.71 2.68325 4.98014 0
M  V30 7358 H 759.267 3.42461 5.54584 0
M  V30 7359 N 762.7 -0.34323 1.53817 0
M  V30 7360 C 763.632 -1.44216 1.78141 0
M  V30 7361 C 764.645 -1.48701 0.662721 0
M  V30 7362 O 765.834 -1.51778 0.939458 0
M  V30 7363 C 762.934 -2.82872 1.86646 0
M  V30 7364 C 762.107 -3.01824 3.16577 0
M  V30 7365 C 761.166 -4.20723 3.16036 0
M  V30 7366 O 760.192 -4.14824 3.89756 0
M  V30 7367 N 761.394 -5.29276 2.38427 0
M  V30 7368 H 764.159 -1.23721 2.72971 0
M  V30 7369 H 761.72 -0.53311 1.52871 0
M  V30 7370 H 763.712 -3.60588 1.83735 0
M  V30 7371 H 762.282 -2.96509 0.990014 0
M  V30 7372 H 761.502 -2.11575 3.3261 0
M  V30 7373 H 762.79 -3.11369 4.02402 0
M  V30 7374 H 762.188 -5.36938 1.78085 0
M  V30 7375 H 760.745 -6.05484 2.41313 0
M  V30 7376 N 764.178 -1.45556 -0.604258 0
M  V30 7377 C 765.111 -1.48975 -1.72863 0
M  V30 7378 C 766.089 -0.345803 -1.5888 0
M  V30 7379 O 767.273 -0.546796 -1.80395 0
M  V30 7380 C 764.4 -1.34794 -3.10722 0
M  V30 7381 C 763.446 -2.53096 -3.43285 0
M  V30 7382 S 764.279 -4.15551 -3.37754 0
M  V30 7383 C 765.435 -4.03842 -4.78187 0
M  V30 7384 H 765.668 -2.44108 -1.69701 0
M  V30 7385 H 763.201 -1.33179 -0.781194 0
M  V30 7386 H 765.159 -1.273 -3.90263 0
M  V30 7387 H 763.82 -0.411254 -3.11396 0
M  V30 7388 H 763.013 -2.39109 -4.4367 0
M  V30 7389 H 762.615 -2.57469 -2.71267 0
M  V30 7390 H 764.907 -3.69191 -5.6807 0
M  V30 7391 H 765.85 -5.0415 -4.97231 0
M  V30 7392 H 766.258 -3.35443 -4.54025 0
M  V30 7393 N 765.656 0.84705 -1.32902 0
M  V30 7394 C 767.072 1.13645 -1.12058 0
M  V30 7395 C 767.272 2.01281 0.093937 0
M  V30 7396 O 766.328 2.4026 0.776608 0
M  V30 7397 C 767.641 1.80644 -2.40392 0
M  V30 7398 C 769.189 1.93246 -2.46221 0
M  V30 7399 C 769.664 2.6366 -3.74496 0
M  V30 7400 N 771.155 2.71179 -3.75521 0
M  V30 7401 C 771.89 3.26332 -4.71482 0
M  V30 7402 N 771.386 3.82236 -5.77813 0
M  V30 7403 N 773.179 3.24507 -4.58968 0
M  V30 7404 H 765.33 0.263612 -2.10758 0
M  V30 7405 H 767.593 0.17944 -0.930863 0
M  V30 7406 H 767.299 1.23708 -3.29225 0
M  V30 7407 H 767.173 2.80736 -2.51926 0
M  V30 7408 H 769.56 2.49338 -1.57843 0
M  V30 7409 H 769.641 0.921272 -2.38634 0
M  V30 7410 H 769.285 2.08229 -4.63253 0
M  V30 7411 H 769.215 3.65234 -3.79357 0
M  V30 7412 H 771.706 2.31527 -2.9867 0
M  V30 7413 H 772.019 4.22499 -6.47082 0
M  V30 7414 H 770.364 3.80546 -5.81558 0
M  V30 7415 H 773.555 2.80085 -3.7506 0
M  V30 7416 H 773.728 3.67188 -5.33926 0
M  V30 7417 N 767.134 1.16236 1.06428 0
M  V30 7418 C 768.362 0.967184 1.82902 0
M  V30 7419 C 768.777 -0.484601 1.82475 0
M  V30 7420 O 768.134 -1.33631 1.24294 0
M  V30 7421 C 768.185 1.48534 3.29576 0
M  V30 7422 O 767.906 2.88026 3.3011 0
M  V30 7423 C 769.407 1.33298 4.22784 0
M  V30 7424 H 766.627 0.342923 0.576754 0
M  V30 7425 H 769.171 1.54232 1.34286 0
M  V30 7426 H 767.326 0.952513 3.75508 0
M  V30 7427 H 767.74 3.11721 4.21818 0
M  V30 7428 H 769.214 1.74385 5.23731 0
M  V30 7429 H 769.691 0.278356 4.38317 0
M  V30 7430 H 770.297 1.85535 3.82697 0
M  V30 7431 N 768.612 -1.24939 0.960631 0
M  V30 7432 C 769.542 -2.28 0.503815 0
M  V30 7433 C 770.523 -1.63959 -0.452928 0
M  V30 7434 O 771.708 -1.91009 -0.350585 0
M  V30 7435 C 768.838 -3.46643 -0.213535 0
M  V30 7436 C 767.792 -4.22903 0.658535 0
M  V30 7437 C 767.118 -5.34363 -0.189902 0
M  V30 7438 C 768.418 -4.84949 1.93963 0
M  V30 7439 H 770.112 -2.66462 1.36521 0
M  V30 7440 H 767.658 -1.28093 0.657897 0
M  V30 7441 H 769.611 -4.1787 -0.544286 0
M  V30 7442 H 768.335 -3.07187 -1.10923 0
M  V30 7443 H 766.994 -3.53467 0.972455 0
M  V30 7444 H 766.642 -4.91147 -1.08553 0
M  V30 7445 H 766.342 -5.86302 0.390331 0
M  V30 7446 H 767.866 -6.0842 -0.515484 0
M  V30 7447 H 769.28 -5.48288 1.67491 0
M  V30 7448 H 767.677 -5.47091 2.46601 0
M  V30 7449 H 768.747 -4.06799 2.639 0
M  V30 7450 N 770.09 -0.729906 -1.39679 0
M  V30 7451 C 771.038 -0.0756589 -2.32477 0
M  V30 7452 C 772.032 0.731438 -1.52795 0
M  V30 7453 O 773.238 0.633195 -1.68495 0
M  V30 7454 H 769.613 -0.00566492 -0.751979 0
M  V30 7455 H 771.584 -0.874797 -2.85289 0
M  V30 7456 C 770.333 0.821313 -3.37861 0
M  V30 7457 H 769.656 0.209666 -3.9925 0
M  V30 7458 H 771.096 1.24679 -4.05254 0
M  V30 7459 C 769.555 1.9533 -2.74495 0
M  V30 7460 O 770.085 3.04548 -2.61942 0
M  V30 7461 N 768.291 1.74119 -2.3266 0
M  V30 7462 H 767.838 0.852908 -2.4307 0
M  V30 7463 H 767.796 2.50036 -1.90603 0
M  V30 7464 N 771.568 1.50203 -0.477153 0
M  V30 7465 C 772.979 1.86685 -0.0235041 0
M  V30 7466 C 773.33 1.39148 1.38319 0
M  V30 7467 O 772.455 0.759051 2.02651 0
M  V30 7468 C 773.05 3.38781 -0.0358767 0
M  V30 7469 C 771.609 3.74652 0.362327 0
M  V30 7470 C 770.756 2.7412 -0.41875 0
M  V30 7471 H 773.707 1.4286 -0.691133 0
M  V30 7472 H 773.728 3.72732 0.764924 0
M  V30 7473 H 773.24 3.73349 -1.05981 0
M  V30 7474 H 771.341 3.45686 1.39039 0
M  V30 7475 H 771.454 4.79063 0.059457 0
M  V30 7476 H 769.818 2.54376 0.128341 0
M  V30 7477 H 770.601 3.11532 -1.44231 0
M  V30 7478 N 773.046 0.209999 1.56195 0
M  V30 7479 C 773.976 -0.699746 2.22769 0
M  V30 7480 C 774.957 -1.20993 1.1956 0
M  V30 7481 O 776.142 -1.25605 1.48112 0
M  V30 7482 C 773.272 -1.91302 2.89863 0
M  V30 7483 C 772.226 -1.53715 3.99444 0
M  V30 7484 C 771.552 -2.82826 4.53777 0
M  V30 7485 C 772.852 -0.735836 5.17091 0
M  V30 7486 H 774.546 -0.144716 2.9905 0
M  V30 7487 H 772.092 -0.0681645 1.43839 0
M  V30 7488 H 774.045 -2.5548 3.35124 0
M  V30 7489 H 772.769 -2.49283 2.11011 0
M  V30 7490 H 771.428 -0.918892 3.54897 0
M  V30 7491 H 771.076 -3.38927 3.71669 0
M  V30 7492 H 770.776 -2.58415 5.27727 0
M  V30 7493 H 772.3 -3.47966 5.01749 0
M  V30 7494 H 773.714 -1.28105 5.58804 0
M  V30 7495 H 772.111 -0.589272 5.972 0
M  V30 7496 H 773.181 0.260004 4.84202 0
M  V30 7497 N 774.524 -1.57472 -0.0634922 0
M  V30 7498 C 775.772 -1.87283 -0.759563 0
M  V30 7499 C 776.093 -0.803135 -1.77693 0
M  V30 7500 O 775.363 0.167293 -1.95184 0
M  V30 7501 H 773.943 -0.691106 -0.283516 0
M  V30 7502 H 776.605 -1.94864 -0.0376091 0
M  V30 7503 H 775.701 -2.85064 -1.27062 0
M  V30 7504 N 776.003 0.335068 -1.53997 0
M  V30 7505 C 776.951 1.43206 -1.83289 0
M  V30 7506 C 777.945 1.54081 -0.703953 0
M  V30 7507 O 779.151 1.56603 -0.887432 0
M  V30 7508 H 775.526 0.477655 -0.580818 0
M  V30 7509 H 777.497 1.15719 -2.75049 0
M  V30 7510 C 776.246 2.79602 -2.06683 0
M  V30 7511 H 775.569 2.72004 -2.93008 0
M  V30 7512 H 777.009 3.55459 -2.31139 0
M  V30 7513 C 775.468 3.25873 -0.854883 0
M  V30 7514 O 775.998 4.01657 -0.0584648 0
M  V30 7515 N 774.204 2.82777 -0.669729 0
M  V30 7516 H 773.751 2.21269 -1.31901 0
M  V30 7517 H 773.709 3.1409 0.13969 0
M  V30 7518 N 777.481 1.45874 0.596531 0
M  V30 7519 C 778.429 1.55739 1.72766 0
M  V30 7520 C 779.423 0.426666 1.63939 0
M  V30 7521 O 780.629 0.60301 1.69599 0
M  V30 7522 H 777.004 0.489386 0.570968 0
M  V30 7523 H 778.975 2.50871 1.61575 0
M  V30 7524 C 777.724 1.55174 3.11153 0
M  V30 7525 H 777.047 2.41511 3.1861 0
M  V30 7526 H 778.487 1.66133 3.90097 0
M  V30 7527 C 776.946 0.278001 3.35751 0
M  V30 7528 O 777.476 -0.637557 3.96608 0
M  V30 7529 N 775.682 0.170227 2.90101 0
M  V30 7530 H 775.229 0.916159 2.40758 0
M  V30 7531 H 775.187 -0.68117 3.06932 0
M  V30 7532 N 778.959 -0.83999 1.33349 0
M  V30 7533 C 780.37 -1.41139 1.22216 0
M  V30 7534 C 780.721 -1.95551 -0.159398 0
M  V30 7535 O 779.846 -1.88721 -1.05893 0
M  V30 7536 C 780.441 -2.56564 2.21269 0
M  V30 7537 C 779 -3.09661 2.13979 0
M  V30 7538 C 778.147 -1.82457 2.08818 0
M  V30 7539 H 781.098 -0.645853 1.44964 0
M  V30 7540 H 781.119 -3.34163 1.81976 0
M  V30 7541 H 780.631 -2.16932 3.21811 0
M  V30 7542 H 778.732 -3.53841 1.16736 0
M  V30 7543 H 778.845 -3.6991 3.04472 0
M  V30 7544 H 777.209 -2.0266 1.54276 0
M  V30 7545 H 777.992 -1.45022 3.11165 0
M  V30 7546 N 780.437 -1.16799 -1.0581 0
M  V30 7547 C 781.37 -0.822491 -2.12862 0
M  V30 7548 C 782.348 0.208006 -1.61264 0
M  V30 7549 O 783.532 0.0909652 -1.8828 0
M  V30 7550 C 780.659 -0.225826 -3.37946 0
M  V30 7551 C 779.705 -1.23071 -4.08357 0
M  V30 7552 S 780.538 -2.77944 -4.5772 0
M  V30 7553 C 781.694 -2.19741 -5.86059 0
M  V30 7554 H 781.927 -1.72917 -2.41841 0
M  V30 7555 H 779.46 -0.991982 -1.18318 0
M  V30 7556 H 781.418 0.111955 -4.10347 0
M  V30 7557 H 780.079 0.658692 -3.07116 0
M  V30 7558 H 779.272 -0.761758 -4.9821 0
M  V30 7559 H 778.874 -1.51383 -3.41993 0
M  V30 7560 H 781.166 -1.5691 -6.59079 0
M  V30 7561 H 782.109 -3.07823 -6.37692 0
M  V30 7562 H 782.517 -1.63433 -5.40324 0
M  V30 7563 N 781.915 1.24427 -0.967243 0
M  V30 7564 C 782.863 2.27403 -0.488927 0
M  V30 7565 C 783.857 1.63388 0.447302 0
M  V30 7566 O 785.063 1.77085 0.322643 0
M  V30 7567 H 781.438 0.738921 -0.139643 0
M  V30 7568 H 783.409 2.65122 -1.36942 0
M  V30 7569 C 782.158 3.4709 0.205787 0
M  V30 7570 H 781.481 3.96591 -0.50551 0
M  V30 7571 H 782.921 4.2099 0.504296 0
M  V30 7572 C 781.38 3.04923 1.43261 0
M  V30 7573 O 781.91 3.12043 2.52967 0
M  V30 7574 N 780.116 2.59976 1.29849 0
M  V30 7575 H 779.663 2.54382 0.405876 0
M  V30 7576 H 779.621 2.32128 2.12047 0
M  V30 7577 N 783.393 0.737304 1.3929 0
M  V30 7578 C 784.642 0.283129 1.99703 0
M  V30 7579 C 784.955 -1.13677 1.59176 0
M  V30 7580 O 786.161 -1.69058 2.12442 0
M  V30 7581 C 784.617 0.455262 3.57009 0
M  V30 7582 C 784.225 1.88319 4.06497 0
M  V30 7583 C 785.969 0.0629786 4.24453 0
M  V30 7584 C 783.876 2.00475 5.56385 0
M  V30 7585 H 782.806 0.102106 0.747054 0
M  V30 7586 H 785.457 0.911515 1.5926 0
M  V30 7587 H 783.839 -0.242057 3.9526 0
M  V30 7588 H 785.013 2.61265 3.79575 0
M  V30 7589 H 783.328 2.2289 3.51723 0
M  V30 7590 H 785.925 0.132787 5.34535 0
M  V30 7591 H 786.268 -0.982128 4.04549 0
M  V30 7592 H 786.801 0.71154 3.91385 0
M  V30 7593 H 783.54 3.03182 5.81172 0
M  V30 7594 H 783.06 1.31969 5.85102 0
M  V30 7595 H 784.739 1.787 6.21832 0
M  V30 7596 N 784.871 -1.49948 0.485112 0
M  V30 7597 C 786.282 -1.8667 0.0334041 0
M  V30 7598 C 786.633 -1.3988 -1.37579 0
M  V30 7599 O 785.758 -0.769788 -2.02245 0
M  V30 7600 C 786.353 -3.38757 0.0538426 0
M  V30 7601 C 784.912 -3.74839 -0.342453 0
M  V30 7602 C 784.059 -2.73894 0.433281 0
M  V30 7603 H 787.01 -1.42492 0.698699 0
M  V30 7604 H 787.031 -3.73132 -0.745146 0
M  V30 7605 H 786.543 -3.72782 1.07959 0
M  V30 7606 H 784.644 -3.46419 -1.37203 0
M  V30 7607 H 784.757 -4.79088 -0.0340503 0
M  V30 7608 H 783.121 -2.54441 -0.114849 0
M  V30 7609 H 783.904 -3.10763 1.45881 0
M  V30 7610 N 786.349 -0.21828 -1.56081 0
M  V30 7611 C 787.312 0.679633 -2.18892 0
M  V30 7612 C 788.312 1.12405 -1.14986 0
M  V30 7613 O 789.502 1.03339 -1.40238 0
M  V30 7614 C 786.634 1.93063 -2.80962 0
M  V30 7615 H 787.827 0.132066 -2.99609 0
M  V30 7616 H 785.38 0.0313374 -1.56269 0
M  V30 7617 H 786.115 2.52015 -2.04106 0
M  V30 7618 H 785.9 1.62046 -3.57048 0
M  V30 7619 H 787.39 2.57043 -3.29118 0
M  V30 7620 N 787.827 1.57504 0.0551401 0
M  V30 7621 C 789.075 1.87684 0.74962 0
M  V30 7622 C 789.396 0.812547 1.77264 0
M  V30 7623 O 788.666 -0.15694 1.9527 0
M  V30 7624 H 787.246 0.6926 0.279846 0
M  V30 7625 H 789.908 1.94881 0.0272745 0
M  V30 7626 H 789.004 2.85734 1.25548 0
M  V30 7627 N 789.305 -0.326896 1.54172 0
M  V30 7628 C 790.553 -1.06313 1.71878 0
M  V30 7629 C 790.874 -1.88652 0.493498 0
M  V30 7630 O 790.144 -1.89608 -0.492522 0
M  V30 7631 H 788.724 -0.39549 0.633716 0
M  V30 7632 H 791.386 -0.364139 1.91468 0
M  V30 7633 H 790.482 -1.73105 2.59694 0
M  V30 7634 N 790.784 -1.46188 -0.588786 0
M  V30 7635 C 792.033 -1.50452 -1.34339 0
M  V30 7636 C 792.346 -0.158096 -1.9496 0
M  V30 7637 O 793.552 -0.0784918 -2.71387 0
M  V30 7638 C 792.008 -2.65074 -2.43441 0
M  V30 7639 C 791.616 -4.06111 -1.8915 0
M  V30 7640 C 793.36 -2.78603 -3.20282 0
M  V30 7641 C 791.267 -5.12084 -2.95845 0
M  V30 7642 H 790.197 -0.559905 -0.504997 0
M  V30 7643 H 792.848 -1.72382 -0.629014 0
M  V30 7644 H 791.23 -2.36462 -3.1765 0
M  V30 7645 H 792.404 -4.44487 -1.21524 0
M  V30 7646 H 790.719 -3.97197 -1.24995 0
M  V30 7647 H 793.316 -3.54944 -3.99898 0
M  V30 7648 H 793.659 -1.85902 -3.72486 0
M  V30 7649 H 794.192 -3.06832 -2.53178 0
M  V30 7650 H 790.931 -6.06556 -2.48535 0
M  V30 7651 H 790.451 -4.78259 -3.61979 0
M  V30 7652 H 792.13 -5.37661 -3.59902 0
M  V30 7653 N 792.262 0.832906 -1.33792 0
M  V30 7654 C 793.49 1.62048 -1.28639 0
M  V30 7655 C 793.905 1.88269 0.141522 0
M  V30 7656 O 793.262 1.46706 1.08553 0
M  V30 7657 C 793.313 2.96722 -2.0649 0
M  V30 7658 O 793.034 2.7165 -3.43712 0
M  V30 7659 C 794.535 3.91144 -2.08617 0
M  V30 7660 H 791.755 0.504032 -0.442937 0
M  V30 7661 H 794.299 1.03704 -1.76255 0
M  V30 7662 H 792.454 3.51652 -1.62541 0
M  V30 7663 H 792.868 3.57453 -3.83833 0
M  V30 7664 H 794.342 4.82837 -2.67531 0
M  V30 7665 H 794.819 4.25766 -1.07796 0
M  V30 7666 H 795.425 3.42152 -2.52611 0
M  V30 7667 N 793.74 1.17359 1.05189 0
M  V30 7668 C 794.968 0.986529 1.81866 0
M  V30 7669 C 795.383 -0.46522 1.82979 0
M  V30 7670 O 794.74 -1.32305 1.25705 0
M  V30 7671 C 794.791 1.52021 3.27982 0
M  V30 7672 O 794.512 2.91511 3.27037 0
M  V30 7673 C 796.013 1.37774 4.21347 0
M  V30 7674 H 793.233 0.349021 0.573084 0
M  V30 7675 H 795.777 1.55648 1.32643 0
M  V30 7676 H 793.932 0.992287 3.74476 0
M  V30 7677 H 794.346 3.16178 4.18488 0
M  V30 7678 H 795.82 1.7993 5.21852 0
M  V30 7679 H 796.297 0.32483 4.37997 0
M  V30 7680 H 796.903 1.89583 3.80708 0
M  V30 7681 N 795.218 -1.23913 0.973828 0
M  V30 7682 C 796.495 -1.87539 0.555729 0
M  V30 7683 C 796.875 -1.87641 -0.967162 0
M  V30 7684 O 796.223 -1.35335 -1.84111 0
M  V30 7685 C 796.433 -3.29359 1.15427 0
M  V30 7686 C 797.781 -4.06 1.24294 0
M  V30 7687 O 798.805 -3.38554 1.10723 0
M  V30 7688 O 797.664 -5.26689 1.45813 0
M  V30 7689 H 794.758 -0.805769 0.186188 0
M  V30 7690 H 797.304 -1.31838 1.06849 0
M  V30 7691 H 796.076 -3.23817 2.19678 0
M  V30 7692 H 795.699 -3.92642 0.625925 0
M  V30 7693 N 796.696 -0.74468 -1.38897 0
M  V30 7694 C 797.628 -0.0713608 -2.29089 0
M  V30 7695 C 798.641 0.693224 -1.47303 0
M  V30 7696 O 799.83 0.535785 -1.70269 0
M  V30 7697 C 796.93 0.923078 -3.26087 0
M  V30 7698 C 796.103 0.217998 -4.36856 0
M  V30 7699 C 795.162 1.12192 -5.14101 0
M  V30 7700 O 794.188 0.595771 -5.66073 0
M  V30 7701 N 795.39 2.45082 -5.26227 0
M  V30 7702 H 798.155 -0.845906 -2.87514 0
M  V30 7703 H 795.716 -0.594712 -1.50581 0
M  V30 7704 H 797.708 1.53061 -3.74639 0
M  V30 7705 H 796.278 1.59876 -2.68623 0
M  V30 7706 H 795.498 -0.570134 -3.90055 0
M  V30 7707 H 796.786 -0.270248 -5.08082 0
M  V30 7708 H 796.184 2.90294 -4.85537 0
M  V30 7709 H 794.741 3.00907 -5.78185 0
M  V30 7710 N 798.174 1.49689 -0.493057 0
M  V30 7711 C 799.106 2.26867 0.326195 0
M  V30 7712 C 800.119 1.33083 0.937697 0
M  V30 7713 O 801.308 1.58427 0.822382 0
M  V30 7714 C 798.408 3.0519 1.4735 0
M  V30 7715 C 797.581 4.26491 0.970767 0
M  V30 7716 C 796.64 4.86926 1.99473 0
M  V30 7717 O 795.666 5.47221 1.56647 0
M  V30 7718 N 796.868 4.75871 3.32456 0
M  V30 7719 H 799.633 2.97816 -0.335547 0
M  V30 7720 H 797.194 1.58602 -0.325129 0
M  V30 7721 H 799.186 3.42496 2.15589 0
M  V30 7722 H 797.756 2.369 2.03954 0
M  V30 7723 H 796.976 3.94036 0.113529 0
M  V30 7724 H 798.264 5.05092 0.613156 0
M  V30 7725 H 797.662 4.2797 3.69944 0
M  V30 7726 H 796.219 5.17383 3.96431 0
M  V30 7727 N 799.652 0.226554 1.55963 0
M  V30 7728 C 801.063 -0.280381 1.84583 0
M  V30 7729 C 801.414 -1.59105 1.14804 0
M  V30 7730 O 800.539 -2.12297 0.419414 0
M  V30 7731 C 801.134 -0.515499 3.34855 0
M  V30 7732 C 799.693 -0.966733 3.63774 0
M  V30 7733 C 798.84 -0.0325753 2.77281 0
M  V30 7734 H 801.791 0.449626 1.52197 0
M  V30 7735 H 801.812 -1.36085 3.55332 0
M  V30 7736 H 801.324 0.438594 3.85614 0
M  V30 7737 H 799.425 -1.93401 3.18476 0
M  V30 7738 H 799.538 -0.837679 4.7172 0
M  V30 7739 H 797.902 -0.540279 2.48904 0
M  V30 7740 H 798.685 0.916524 3.30839 0
M  V30 7741 N 801.13 -1.57531 -0.0467866 0
M  V30 7742 C 802.541 -1.76945 -0.595603 0
M  V30 7743 C 802.892 -0.855354 -1.76573 0
M  V30 7744 O 802.017 -0.045668 -2.16352 0
M  V30 7745 C 802.612 -3.20881 -1.08725 0
M  V30 7746 C 801.171 -3.41553 -1.58172 0
M  V30 7747 C 800.318 -2.72533 -0.511968 0
M  V30 7748 H 803.269 -1.57682 0.179436 0
M  V30 7749 H 803.29 -3.26419 -1.95528 0
M  V30 7750 H 802.802 -3.87385 -0.235398 0
M  V30 7751 H 800.903 -2.80199 -2.456 0
M  V30 7752 H 801.016 -4.50104 -1.64143 0
M  V30 7753 H 799.38 -2.35797 -0.962899 0
M  V30 7754 H 800.163 -3.41709 0.330117 0
M  V30 7755 N 802.608 0.318715 -1.54344 0
M  V30 7756 C 803.556 1.41254 -1.84798 0
M  V30 7757 C 804.55 1.53325 -0.720256 0
M  V30 7758 O 805.756 1.55653 -0.903992 0
M  V30 7759 H 802.131 0.471468 -0.585851 0
M  V30 7760 H 804.102 1.12795 -2.7626 0
M  V30 7761 C 802.851 2.77395 -2.09637 0
M  V30 7762 H 802.174 2.68881 -2.95876 0
M  V30 7763 H 803.614 3.52987 -2.34896 0
M  V30 7764 C 802.073 3.24948 -0.889398 0
M  V30 7765 O 802.603 4.01573 -0.101063 0
M  V30 7766 N 800.809 2.82051 -0.699684 0
M  V30 7767 H 800.356 2.19858 -1.3424 0
M  V30 7768 H 800.314 3.1422 0.106368 0
M  V30 7769 N 804.086 1.46499 0.581025 0
M  V30 7770 C 805.016 1.60052 1.70017 0
M  V30 7771 C 805.997 0.450788 1.64018 0
M  V30 7772 O 807.182 0.677237 1.82009 0
M  V30 7773 C 804.312 1.5921 3.08658 0
M  V30 7774 C 803.266 2.73169 3.29488 0
M  V30 7775 C 802.592 2.57389 4.68674 0
M  V30 7776 C 803.892 4.14978 3.1716 0
M  V30 7777 H 805.586 2.53735 1.5893 0
M  V30 7778 H 803.132 1.22113 0.763173 0
M  V30 7779 H 805.085 1.67285 3.86773 0
M  V30 7780 H 803.809 0.620718 3.20647 0
M  V30 7781 H 802.468 2.64566 2.53773 0
M  V30 7782 H 802.116 1.58331 4.77431 0
M  V30 7783 H 801.816 3.33826 4.83564 0
M  V30 7784 H 803.34 2.67358 5.48956 0
M  V30 7785 H 804.754 4.24684 3.85119 0
M  V30 7786 H 803.151 4.92016 3.4357 0
M  V30 7787 H 804.221 4.35016 2.14218 0
M  V30 7788 N 805.565 -0.825799 1.34232 0
M  V30 7789 C 806.814 -1.57686 1.2577 0
M  V30 7790 C 807.127 -1.94848 -0.171372 0
M  V30 7791 O 808.333 -2.68854 -0.378123 0
M  V30 7792 C 806.789 -2.84478 2.20454 0
M  V30 7793 C 806.397 -2.54629 3.68603 0
M  V30 7794 C 808.141 -3.625 2.20893 0
M  V30 7795 C 806.048 -3.77597 4.55164 0
M  V30 7796 H 804.978 -0.591809 0.467203 0
M  V30 7797 H 807.629 -0.909421 1.59379 0
M  V30 7798 H 806.011 -3.52832 1.79793 0
M  V30 7799 H 807.185 -1.94404 4.17784 0
M  V30 7800 H 805.5 -1.89888 3.70582 0
M  V30 7801 H 808.097 -4.538 2.82789 0
M  V30 7802 H 808.44 -3.98404 1.20746 0
M  V30 7803 H 808.973 -3.01086 2.59985 0
M  V30 7804 H 805.712 -3.46815 5.56237 0
M  V30 7805 H 805.232 -4.37116 4.10719 0
M  V30 7806 H 806.911 -4.45039 4.69627 0
M  V30 7807 N 807.043 -1.17915 -1.04565 0
M  V30 7808 C 808.268 -0.996749 -1.81878 0
M  V30 7809 C 808.693 0.450169 -1.82634 0
M  V30 7810 O 808.051 1.32268 -1.23995 0
M  V30 7811 C 808.099 -1.55005 -3.25585 0
M  V30 7812 O 807.203 -0.76804 -4.05185 0
M  V30 7813 H 806.544 -0.353456 -0.562108 0
M  V30 7814 H 809.074 -1.56557 -1.31723 0
M  V30 7815 H 809.084 -1.57503 -3.76373 0
M  V30 7816 H 807.759 -2.60327 -3.2435 0
M  V30 7817 H 806.336 -0.81498 -3.63885 0
M  V30 7818 N 808.521 1.23394 -0.980386 0
M  V30 7819 C 809.431 2.28561 -0.528864 0
M  V30 7820 C 810.447 1.68946 0.416329 0
M  V30 7821 O 811.623 1.99355 0.286251 0
M  V30 7822 C 808.688 3.46323 0.16155 0
M  V30 7823 C 807.749 4.21297 -0.825044 0
M  V30 7824 C 806.982 5.33437 -0.167483 0
M  V30 7825 O 807.205 5.60812 1.04146 0
M  V30 7826 O 806.139 5.95637 -0.866047 0
M  V30 7827 H 809.965 2.69326 -1.40346 0
M  V30 7828 H 807.55 1.29325 -0.748019 0
M  V30 7829 H 809.432 4.17811 0.548841 0
M  V30 7830 H 808.107 3.0751 1.01092 0
M  V30 7831 H 807.014 3.52134 -1.26303 0
M  V30 7832 H 808.347 4.6396 -1.64322 0
M  V30 7833 N 809.999 0.752036 1.385 0
M  V30 7834 C 811.224 0.316993 2.04963 0
M  V30 7835 C 811.649 -1.04582 1.56346 0
M  V30 7836 O 811.007 -1.66616 0.714755 0
M  V30 7837 C 811.055 0.347235 3.58924 0
M  V30 7838 O 810.159 -0.659296 4.07096 0
M  V30 7839 H 809.5 0.140652 0.648932 0
M  V30 7840 H 812.03 1.02272 1.77205 0
M  V30 7841 H 812.04 0.19757 4.07521 0
M  V30 7842 H 810.715 1.34157 3.93668 0
M  V30 7843 H 809.292 -0.474371 3.6987 0
M  V30 7844 N 811.477 -1.49425 0.500989 0
M  V30 7845 C 812.44 -2.27646 -0.266416 0
M  V30 7846 C 813.44 -1.3366 -0.893961 0
M  V30 7847 O 814.63 -1.5682 -0.758495 0
M  V30 7848 C 811.762 -3.11618 -1.38227 0
M  V30 7849 H 812.955 -2.96945 0.419973 0
M  V30 7850 H 810.508 -1.5419 0.255954 0
M  V30 7851 H 811.243 -2.46885 -2.10281 0
M  V30 7852 H 811.028 -3.80721 -0.937746 0
M  V30 7853 H 812.518 -3.70698 -1.92283 0
M  V30 7854 N 812.955 -0.234822 -1.55841 0
M  V30 7855 C 813.885 0.664217 -2.23854 0
M  V30 7856 C 814.866 1.19076 -1.2147 0
M  V30 7857 O 816.051 1.23232 -1.50091 0
M  V30 7858 C 813.181 1.86666 -2.9287 0
M  V30 7859 C 812.135 1.47341 -4.01839 0
M  V30 7860 C 811.461 2.75571 -4.58219 0
M  V30 7861 C 812.761 0.653479 -5.18196 0
M  V30 7862 H 814.455 0.0971213 -2.99242 0
M  V30 7863 H 812.001 0.0452724 -1.43929 0
M  V30 7864 H 813.954 2.50116 -3.39146 0
M  V30 7865 H 812.678 2.45894 -2.1495 0
M  V30 7866 H 811.337 0.862314 -3.56314 0
M  V30 7867 H 810.985 3.32971 -3.77014 0
M  V30 7868 H 810.685 2.49987 -5.31771 0
M  V30 7869 H 812.209 3.39939 -5.07221 0
M  V30 7870 H 813.623 1.19198 -5.60771 0
M  V30 7871 H 812.02 0.494188 -5.98062 0
M  V30 7872 H 813.09 -0.337004 -4.83728 0
M  V30 7873 N 814.433 1.57553 0.0384317 0
M  V30 7874 C 815.844 1.77258 0.586211 0
M  V30 7875 C 816.195 0.864706 1.76117 0
M  V30 7876 O 815.32 0.057141 2.16325 0
M  V30 7877 C 815.915 3.21453 1.07021 0
M  V30 7878 C 814.474 3.42387 1.56358 0
M  V30 7879 C 813.621 2.72801 0.497508 0
M  V30 7880 H 816.572 1.57585 -0.187796 0
M  V30 7881 H 816.593 3.27451 1.93794 0
M  V30 7882 H 816.105 3.87505 0.214851 0
M  V30 7883 H 814.206 2.81497 2.44111 0
M  V30 7884 H 814.319 4.50968 1.61754 0
M  V30 7885 H 812.683 2.36305 0.95038 0
M  V30 7886 H 813.466 3.41529 -0.348234 0
M  V30 7887 N 815.911 -0.310526 1.54511 0
M  V30 7888 C 817.139 -1.06611 1.77318 0
M  V30 7889 C 817.554 -1.81265 0.528043 0
M  V30 7890 O 816.911 -1.75466 -0.50178 0
M  V30 7891 C 816.962 -2.05409 2.97472 0
M  V30 7892 O 816.683 -1.33785 4.17173 0
M  V30 7893 C 818.184 -2.93082 3.32593 0
M  V30 7894 H 815.404 -0.316578 0.591624 0
M  V30 7895 H 817.948 -0.352691 2.01436 0
M  V30 7896 H 816.103 -2.72266 2.7559 0
M  V30 7897 H 816.517 -2.00055 4.84849 0
M  V30 7898 H 817.991 -3.58274 4.19933 0
M  V30 7899 H 818.468 -3.60877 2.50329 0
M  V30 7900 H 819.074 -2.31768 3.566 0
M  V30 7901 N 817.389 -1.46805 -0.573248 0
M  V30 7902 C 818.614 -1.56433 -1.36175 0
M  V30 7903 C 819.039 -0.209336 -1.86932 0
M  V30 7904 O 818.397 0.812146 -1.62092 0
M  V30 7905 C 818.445 -2.58055 -2.51873 0
M  V30 7906 O 817.549 -2.12214 -3.53609 0
M  V30 7907 H 816.89 -0.526068 -0.405153 0
M  V30 7908 H 819.42 -1.92456 -0.694405 0
M  V30 7909 H 819.43 -2.77966 -2.98662 0
M  V30 7910 H 818.105 -3.56448 -2.14284 0
M  V30 7911 H 816.682 -2.02333 -3.13234 0
M  V30 7912 N 818.867 0.818669 -1.34668 0
M  V30 7913 C 819.797 1.94468 -1.29245 0
M  V30 7914 C 820.778 1.69257 -0.169101 0
M  V30 7915 O 821.963 1.90794 -0.362143 0
M  V30 7916 C 819.093 3.31001 -1.05145 0
M  V30 7917 C 818.047 3.70663 -2.13992 0
M  V30 7918 C 817.373 5.05226 -1.75074 0
M  V30 7919 C 818.673 3.82312 -3.55858 0
M  V30 7920 H 820.367 1.99263 -2.2346 0
M  V30 7921 H 817.913 0.957304 -1.07572 0
M  V30 7922 H 819.866 4.09364 -0.999949 0
M  V30 7923 H 818.59 3.26517 -0.0737312 0
M  V30 7924 H 817.249 2.94578 -2.18219 0
M  V30 7925 H 816.897 4.97233 -0.759518 0
M  V30 7926 H 816.597 5.32734 -2.47928 0
M  V30 7927 H 818.121 5.86042 -1.71427 0
M  V30 7928 H 819.535 4.50935 -3.5402 0
M  V30 7929 H 817.932 4.21278 -4.2737 0
M  V30 7930 H 819.002 2.84193 -3.9289 0
M  V30 7931 N 820.346 1.18468 1.03938 0
M  V30 7932 C 821.594 0.978895 1.76811 0
M  V30 7933 C 821.915 -0.49257 1.88676 0
M  V30 7934 O 821.185 -1.3572 1.41269 0
M  V30 7935 H 819.765 0.359201 0.654968 0
M  V30 7936 H 822.427 1.49173 1.25433 0
M  V30 7937 H 821.523 1.418 2.78027 0
M  V30 7938 N 821.824 -1.22873 0.986916 0
M  V30 7939 C 822.787 -2.2281 0.537442 0
M  V30 7940 C 823.787 -1.56331 -0.37646 0
M  V30 7941 O 824.977 -1.73376 -0.169247 0
M  V30 7942 C 822.109 -3.40195 -0.219082 0
M  V30 7943 H 823.302 -2.64089 1.42116 0
M  V30 7944 H 820.855 -1.35819 0.773488 0
M  V30 7945 H 821.59 -3.04381 -1.11905 0
M  V30 7946 H 821.375 -3.89657 0.437026 0
M  V30 7947 H 822.865 -4.14326 -0.521926 0
M  V30 7948 N 823.302 -0.75937 -1.38099 0
M  V30 7949 C 824.53 -0.329111 -2.04266 0
M  V30 7950 C 824.945 1.04453 -1.57274 0
M  V30 7951 O 824.302 1.66449 -0.748397 0
M  V30 7952 C 824.353 -0.349192 -3.5981 0
M  V30 7953 O 824.074 -1.66863 -4.05078 0
M  V30 7954 C 825.575 0.0942106 -4.432 0
M  V30 7955 H 822.795 -0.13971 -0.656294 0
M  V30 7956 H 825.339 -1.02984 -1.76677 0
M  V30 7957 H 823.494 0.302846 -3.86214 0
M  V30 7958 H 823.908 -1.59877 -4.9954 0
M  V30 7959 H 825.382 0.0290004 -5.51992 0
M  V30 7960 H 825.859 1.1429 -4.24069 0
M  V30 7961 H 826.465 -0.529171 -4.21995 0
M  V30 7962 N 824.78 1.49157 -0.508906 0
M  V30 7963 C 825.728 2.30922 0.278906 0
M  V30 7964 C 826.722 1.39889 0.955382 0
M  V30 7965 O 827.928 1.56901 0.882169 0
M  V30 7966 H 824.303 0.744087 0.108805 0
M  V30 7967 H 826.274 2.95277 -0.430583 0
M  V30 7968 C 825.023 3.21432 1.32576 0
M  V30 7969 H 824.346 3.91413 0.814634 0
M  V30 7970 H 825.786 3.81568 1.84882 0
M  V30 7971 C 824.245 2.41583 2.34817 0
M  V30 7972 O 824.775 2.1256 3.40854 0
M  V30 7973 N 822.981 2.03462 2.07489 0
M  V30 7974 H 822.528 2.27265 1.21278 0
M  V30 7975 H 822.486 1.50345 2.76123 0
M  V30 7976 N 826.258 0.243083 1.55714 0
M  V30 7977 C 827.669 -0.260788 1.8487 0
M  V30 7978 C 828.02 -1.57879 1.16485 0
M  V30 7979 O 827.145 -2.1184 0.441908 0
M  V30 7980 C 827.74 -0.479954 3.35383 0
M  V30 7981 C 826.299 -0.928096 3.64778 0
M  V30 7982 C 825.446 -0.00316416 2.773 0
M  V30 7983 H 828.397 0.465743 1.51712 0
M  V30 7984 H 828.418 -1.32308 3.56756 0
M  V30 7985 H 827.93 0.479468 3.85127 0
M  V30 7986 H 826.031 -1.90012 3.20509 0
M  V30 7987 H 826.144 -0.7876 4.72582 0
M  V30 7988 H 824.508 -0.513849 2.49463 0
M  V30 7989 H 825.291 0.951562 3.29849 0
M  V30 7990 N 827.736 -1.57571 -0.0300757 0
M  V30 7991 C 828.666 -2.0953 -1.03051 0
M  V30 7992 C 829.647 -0.99761 -1.37774 0
M  V30 7993 O 830.832 -1.27279 -1.46676 0
M  V30 7994 C 827.962 -2.57385 -2.33174 0
M  V30 7995 C 826.916 -3.71409 -2.12696 0
M  V30 7996 C 826.242 -4.05467 -3.4857 0
M  V30 7997 C 827.542 -4.99877 -1.51396 0
M  V30 7998 H 829.236 -2.93367 -0.597999 0
M  V30 7999 H 826.782 -1.41127 -0.286203 0
M  V30 8000 H 828.735 -2.92355 -3.03491 0
M  V30 8001 H 827.459 -1.70629 -2.78484 0
M  V30 8002 H 826.118 -3.36786 -1.44813 0
M  V30 8003 H 825.766 -3.15779 -3.91526 0
M  V30 8004 H 825.466 -4.82269 -3.35694 0
M  V30 8005 H 826.99 -4.4297 -4.2025 0
M  V30 8006 H 828.404 -5.3281 -2.11629 0
M  V30 8007 H 826.801 -5.81283 -1.49098 0
M  V30 8008 H 827.871 -4.82522 -0.479676 0
M  V30 8009 N 829.214 0.302327 -1.54673 0
M  V30 8010 C 830.147 1.39738 -1.80412 0
M  V30 8011 C 831.125 1.48813 -0.655241 0
M  V30 8012 O 832.309 1.65895 -0.89505 0
M  V30 8013 C 829.436 2.7766 -1.93966 0
M  V30 8014 C 828.482 2.86014 -3.16383 0
M  V30 8015 S 829.315 2.48246 -4.74483 0
M  V30 8016 C 830.471 3.88198 -4.90971 0
M  V30 8017 H 830.704 1.17696 -2.73011 0
M  V30 8018 H 828.237 0.500364 -1.46068 0
M  V30 8019 H 830.195 3.571 -2.0246 0
M  V30 8020 H 828.856 2.96971 -1.02307 0
M  V30 8021 H 828.049 3.87174 -3.22664 0
M  V30 8022 H 827.651 2.14568 -3.06328 0
M  V30 8023 H 829.943 4.83181 -4.74913 0
M  V30 8024 H 830.886 3.86887 -5.93063 0
M  V30 8025 H 831.294 3.78139 -4.19131 0
M  V30 8026 N 830.692 1.47107 0.565454 0
M  V30 8027 C 831.64 1.59368 1.69424 0
M  V30 8028 C 832.634 0.461344 1.62997 0
M  V30 8029 O 833.84 0.638849 1.68282 0
M  V30 8030 H 830.215 0.501387 0.560459 0
M  V30 8031 H 832.186 2.54242 1.56217 0
M  V30 8032 C 830.935 1.61739 3.07792 0
M  V30 8033 H 830.258 2.48215 3.13416 0
M  V30 8034 H 831.698 1.7437 3.86486 0
M  V30 8035 C 830.157 0.349156 3.35086 0
M  V30 8036 O 830.687 -0.553287 3.97871 0
M  V30 8037 N 828.893 0.231723 2.89675 0
M  V30 8038 H 828.44 0.967021 2.3876 0
M  V30 8039 H 828.398 -0.615911 3.08308 0
M  V30 8040 N 832.17 -0.811516 1.35101 0
M  V30 8041 C 833.447 -1.55491 1.18667 0
M  V30 8042 C 833.827 -2.09775 -0.236189 0
M  V30 8043 O 833.175 -1.91989 -1.23905 0
M  V30 8044 C 833.385 -2.66732 2.25067 0
M  V30 8045 C 834.733 -3.35201 2.60625 0
M  V30 8046 O 835.757 -2.76998 2.23943 0
M  V30 8047 O 834.616 -4.40334 3.23679 0
M  V30 8048 H 831.71 -0.686783 0.460716 0
M  V30 8049 H 834.256 -0.851903 1.46768 0
M  V30 8050 H 833.028 -2.24457 3.20523 0
M  V30 8051 H 832.651 -3.44673 1.98208 0
M  V30 8052 N 833.648 -1.19017 -1.03309 0
M  V30 8053 C 834.896 -0.988258 -1.76289 0
M  V30 8054 C 835.217 0.482557 -1.88935 0
M  V30 8055 O 834.487 1.34969 -1.41987 0
M  V30 8056 H 833.067 -0.36267 -0.653054 0
M  V30 8057 H 835.729 -1.49836 -1.2464 0
M  V30 8058 H 834.825 -1.43273 -2.77271 0
M  V30 8059 N 835.127 1.22348 -0.993418 0
M  V30 8060 C 836.352 1.95666 -0.687727 0
M  V30 8061 C 836.777 1.72883 0.741161 0
M  V30 8062 O 836.135 1.00837 1.50671 0
M  V30 8063 C 836.183 3.46457 -0.99998 0
M  V30 8064 O 835.287 4.12281 -0.0989386 0
M  V30 8065 H 834.628 0.612102 -0.257346 0
M  V30 8066 H 837.158 1.55428 -1.33054 0
M  V30 8067 H 837.168 3.96976 -0.942035 0
M  V30 8068 H 835.843 3.62365 -2.04118 0
M  V30 8069 H 834.42 3.72295 -0.212413 0
M  V30 8070 N 836.605 0.766683 1.37694 0
M  V30 8071 C 837.553 0.137269 2.32195 0
M  V30 8072 C 838.547 -0.69067 1.54681 0
M  V30 8073 O 839.753 -0.588299 1.70115 0
M  V30 8074 H 836.128 0.0256003 0.751564 0
M  V30 8075 H 838.099 0.950129 2.82869 0
M  V30 8076 C 836.848 -0.731446 3.39919 0
M  V30 8077 H 836.171 -0.103738 3.99665 0
M  V30 8078 H 837.611 -1.13891 4.08417 0
M  V30 8079 C 836.07 -1.87984 2.79578 0
M  V30 8080 O 836.6 -2.97496 2.69924 0
M  V30 8081 N 834.806 -1.6789 2.37195 0
M  V30 8082 H 834.353 -0.788162 2.45246 0
M  V30 8083 H 834.311 -2.44894 1.97165 0
M  V30 8084 N 838.083 -1.48885 0.516809 0
M  V30 8085 C 839.308 -2.0739 -0.0205201 0
M  V30 8086 C 839.733 -1.37259 -1.28614 0
M  V30 8087 O 839.091 -0.434304 -1.76021 0
M  V30 8088 C 839.139 -3.59793 -0.24104 0
M  V30 8089 O 838.243 -3.90957 -1.31251 0
M  V30 8090 H 837.584 -0.663167 0.0332564 0
M  V30 8091 H 840.114 -1.91477 0.720956 0
M  V30 8092 H 840.124 -4.0531 -0.467737 0
M  V30 8093 H 838.799 -4.10244 0.68356 0
M  V30 8094 H 837.376 -3.57234 -1.06951 0
M  V30 8095 N 839.561 -0.251338 -1.55583 0
M  V30 8096 C 840.809 0.371434 -1.98657 0
M  V30 8097 C 841.13 1.58143 -1.14087 0
M  V30 8098 O 840.4 1.94607 -0.224708 0
M  V30 8099 H 838.98 0.140225 -0.733721 0
M  V30 8100 H 841.642 -0.351157 -1.9171 0
M  V30 8101 H 840.738 0.677554 -3.04657 0
M  V30 8102 N 841.039 1.57585 0.0217189 0
M  V30 8103 C 841.987 2.08134 1.03842 0
M  V30 8104 C 842.981 0.996662 1.36978 0
M  V30 8105 O 844.187 1.18149 1.35797 0
M  V30 8106 H 840.562 0.664298 0.352438 0
M  V30 8107 H 842.533 2.92583 0.58634 0
M  V30 8108 C 841.282 2.58218 2.32849 0
M  V30 8109 H 840.605 3.41302 2.08214 0
M  V30 8110 H 842.045 2.97289 3.02316 0
M  V30 8111 C 840.504 1.48664 3.02325 0
M  V30 8112 O 841.034 0.857075 3.9245 0
M  V30 8113 N 839.24 1.21938 2.63779 0
M  V30 8114 H 838.787 1.73319 1.90574 0
M  V30 8115 H 838.745 0.488523 3.10581 0
M  V30 8116 N 842.517 -0.29412 1.54831 0
M  V30 8117 C 843.766 -1.02614 1.73647 0
M  V30 8118 C 844.079 -1.88193 0.533162 0
M  V30 8119 O 845.285 -2.64713 0.603275 0
M  V30 8120 C 843.741 -1.87417 3.07251 0
M  V30 8121 C 843.349 -1.06806 4.35082 0
M  V30 8122 C 845.093 -2.60176 3.35423 0
M  V30 8123 C 843 -1.90926 5.59733 0
M  V30 8124 H 841.93 -0.386834 0.647206 0
M  V30 8125 H 844.581 -0.282789 1.81308 0
M  V30 8126 H 842.963 -2.65765 2.93572 0
M  V30 8127 H 844.137 -0.330226 4.59615 0
M  V30 8128 H 842.452 -0.455979 4.13896 0
M  V30 8129 H 845.049 -3.23476 4.25755 0
M  V30 8130 H 845.392 -3.29365 2.54606 0
M  V30 8131 H 845.925 -1.88871 3.50103 0
M  V30 8132 H 842.664 -1.26194 6.43238 0
M  V30 8133 H 842.184 -2.62363 5.39375 0
M  V30 8134 H 843.863 -2.48807 5.97247 0
M  V30 8135 N 843.995 -1.47404 -0.557645 0
M  V30 8136 C 845.243 -1.53703 -1.31224 0
M  V30 8137 C 845.564 -0.200742 -1.93964 0
M  V30 8138 O 844.834 0.775253 -1.79907 0
M  V30 8139 H 843.414 -0.566171 -0.487299 0
M  V30 8140 H 846.076 -1.83699 -0.651195 0
M  V30 8141 H 845.172 -2.30335 -2.10599 0
M  V30 8142 N 845.473 0.80434 -1.35529 0
M  V30 8143 C 846.701 1.59283 -1.32048 0
M  V30 8144 C 847.116 1.88527 0.101556 0
M  V30 8145 O 846.473 1.48975 1.05417 0
M  V30 8146 C 846.524 2.92276 -2.12737 0
M  V30 8147 O 846.245 2.64299 -3.49396 0
M  V30 8148 C 847.746 3.86631 -2.16867 0
M  V30 8149 H 844.966 0.494523 -0.453528 0
M  V30 8150 H 847.51 0.999415 -1.78415 0
M  V30 8151 H 845.665 3.48125 -1.69964 0
M  V30 8152 H 846.079 3.4923 -3.91329 0
M  V30 8153 H 847.553 4.77053 -2.77712 0
M  V30 8154 H 848.03 4.23384 -1.16803 0
M  V30 8155 H 848.636 3.36717 -2.59811 0
M  V30 8156 N 846.951 1.19563 1.02676 0
M  V30 8157 C 847.881 0.959024 2.12897 0
M  V30 8158 C 848.862 -0.108382 1.69754 0
M  V30 8159 O 850.047 0.0470698 1.94143 0
M  V30 8160 C 847.177 0.499211 3.43693 0
M  V30 8161 C 846.131 1.5087 4.00528 0
M  V30 8162 C 845.457 0.905884 5.2697 0
M  V30 8163 C 846.757 2.88954 4.3509 0
M  V30 8164 H 848.451 1.88084 2.32948 0
M  V30 8165 H 845.997 0.905731 1.11949 0
M  V30 8166 H 847.95 0.320965 4.20176 0
M  V30 8167 H 846.674 -0.458205 3.2337 0
M  V30 8168 H 845.333 1.67413 3.26142 0
M  V30 8169 H 844.981 -0.0591506 5.02965 0
M  V30 8170 H 844.681 1.58 5.65959 0
M  V30 8171 H 846.205 0.73848 6.06118 0
M  V30 8172 H 847.619 2.75981 5.02501 0
M  V30 8173 H 846.016 3.53177 4.85166 0
M  V30 8174 H 847.086 3.41447 3.44299 0
M  V30 8175 N 848.429 -1.21819 0.999893 0
M  V30 8176 C 849.654 -1.95298 0.698094 0
M  V30 8177 C 850.079 -1.73273 -0.731982 0
M  V30 8178 O 849.437 -1.01634 -1.50134 0
M  V30 8179 C 849.485 -3.45922 1.01834 0
M  V30 8180 O 848.589 -4.12223 0.120801 0
M  V30 8181 H 847.93 -0.610729 0.260588 0
M  V30 8182 H 850.46 -1.5472 1.33876 0
M  V30 8183 H 850.47 -3.96471 0.963074 0
M  V30 8184 H 849.145 -3.61278 2.06037 0
M  V30 8185 H 847.722 -3.72177 0.232153 0
M  V30 8186 N 849.908 -0.773975 -1.37286 0
M  V30 8187 C 851.136 -0.350758 -2.03905 0
M  V30 8188 C 851.551 1.02779 -1.58373 0
M  V30 8189 O 850.908 1.65646 -0.766009 0
M  V30 8190 C 850.959 -0.387335 -3.59419 0
M  V30 8191 O 850.68 -1.7115 -4.03286 0
M  V30 8192 C 852.181 0.047198 -4.43275 0
M  V30 8193 H 849.401 -0.146663 -0.654775 0
M  V30 8194 H 851.945 -1.04852 -1.75574 0
M  V30 8195 H 850.1 0.261865 -3.86514 0
M  V30 8196 H 850.514 -1.65166 -4.97816 0
M  V30 8197 H 851.988 -0.0295474 -5.51992 0
M  V30 8198 H 852.465 1.09786 -4.25257 0
M  V30 8199 H 853.071 -0.573899 -4.2141 0
M  V30 8200 N 851.386 1.48609 -0.524698 0
M  V30 8201 C 852.635 2.01696 0.0132937 0
M  V30 8202 C 852.948 1.40751 1.35825 0
M  V30 8203 O 854.154 1.85304 1.9843 0
M  V30 8204 C 852.61 3.59824 0.0741012 0
M  V30 8205 C 852.218 4.2975 -1.26564 0
M  V30 8206 C 853.962 4.20774 0.5612 0
M  V30 8207 C 851.869 5.79798 -1.16571 0
M  V30 8208 H 850.799 0.753949 0.00873931 0
M  V30 8209 H 853.45 1.70922 -0.667684 0
M  V30 8210 H 851.832 3.87416 0.820043 0
M  V30 8211 H 853.006 4.13836 -2.02674 0
M  V30 8212 H 851.321 3.80649 -1.68806 0
M  V30 8213 H 853.918 5.30687 0.653853 0
M  V30 8214 H 854.261 3.85734 1.56573 0
M  V30 8215 H 854.794 3.97591 -0.128901 0
M  V30 8216 H 851.533 6.19403 -2.14523 0
M  V30 8217 H 851.053 5.9814 -0.445894 0
M  V30 8218 H 852.732 6.41337 -0.854186 0
M  V30 8219 N 852.864 0.259585 1.55447 0
M  V30 8220 C 854.275 -0.241165 1.85136 0
M  V30 8221 C 854.626 -1.56634 1.18153 0
M  V30 8222 O 853.751 -2.11359 0.464351 0
M  V30 8223 C 854.346 -0.444355 3.35873 0
M  V30 8224 C 852.905 -0.889354 3.65742 0
M  V30 8225 C 852.052 0.0262474 2.77288 0
M  V30 8226 H 855.003 0.481808 1.51209 0
M  V30 8227 H 855.024 -1.28517 3.58139 0
M  V30 8228 H 854.536 0.520289 3.84597 0
M  V30 8229 H 852.637 -1.86602 3.22507 0
M  V30 8230 H 852.75 -0.737432 4.73391 0
M  V30 8231 H 851.114 -0.487361 2.49994 0
M  V30 8232 H 851.897 0.986494 3.28821 0
M  V30 8233 N 854.342 -1.57594 -0.0133615 0
M  V30 8234 C 855.57 -1.94251 -0.712328 0
M  V30 8235 C 855.985 -0.86063 -1.68043 0
M  V30 8236 O 855.342 0.161632 -1.81783 0
M  V30 8237 C 855.393 -3.30891 -1.45581 0
M  V30 8238 O 855.114 -4.34924 -0.526539 0
M  V30 8239 C 856.615 -3.81926 -2.2505 0
M  V30 8240 H 853.835 -0.640737 -0.199241 0
M  V30 8241 H 856.379 -2.04472 0.0337855 0
M  V30 8242 H 854.534 -3.22019 -2.15366 0
M  V30 8243 H 854.948 -5.1389 -1.04962 0
M  V30 8244 H 856.422 -4.79999 -2.72589 0
M  V30 8245 H 856.899 -3.13934 -3.07152 0
M  V30 8246 H 857.505 -3.93931 -1.60308 0
M  V30 8247 N 855.82 0.285905 -1.54985 0
M  V30 8248 C 856.783 1.33625 -1.86218 0
M  V30 8249 C 857.783 1.42971 -0.735936 0
M  V30 8250 O 858.973 1.42345 -1.00417 0
M  V30 8251 C 856.105 2.71926 -2.05595 0
M  V30 8252 H 857.298 1.07167 -2.80099 0
M  V30 8253 H 854.851 0.523335 -1.47278 0
M  V30 8254 H 855.586 3.03583 -1.14053 0
M  V30 8255 H 855.371 2.6653 -2.87583 0
M  V30 8256 H 856.861 3.47841 -2.31077 0
M  V30 8257 N 857.298 1.47698 0.54982 0
M  V30 8258 C 858.261 1.60282 1.63837 0
M  V30 8259 C 859.261 0.477394 1.5355 0
M  V30 8260 O 860.451 0.742665 1.57576 0
M  V30 8261 C 857.583 1.55431 3.03404 0
M  V30 8262 H 858.776 2.57325 1.54026 0
M  V30 8263 H 856.329 1.35999 0.770329 0
M  V30 8264 H 857.064 0.597912 3.1874 0
M  V30 8265 H 856.849 2.37116 3.12279 0
M  V30 8266 H 858.339 1.6739 3.82584 0
M  V30 8267 N 858.776 -0.797141 1.35954 0
M  V30 8268 C 860.187 -1.37179 1.26644 0
M  V30 8269 C 860.538 -1.9596 -0.0971046 0
M  V30 8270 O 859.663 -1.91994 -0.998355 0
M  V30 8271 C 860.258 -2.49395 2.2932 0
M  V30 8272 C 858.817 -3.02697 2.23722 0
M  V30 8273 C 857.964 -1.75721 2.14517 0
M  V30 8274 H 860.915 -0.599407 1.46945 0
M  V30 8275 H 860.936 -3.28204 1.92515 0
M  V30 8276 H 860.448 -2.06584 3.2855 0
M  V30 8277 H 858.549 -3.49948 1.27934 0
M  V30 8278 H 858.662 -3.60036 3.16087 0
M  V30 8279 H 857.026 -1.97649 1.60646 0
M  V30 8280 H 857.809 -1.35049 3.15621 0
M  V30 8281 N 860.254 -1.20106 -1.0204 0
M  V30 8282 C 861.665 -1.00992 -1.57027 0
M  V30 8283 C 862.016 0.434782 -1.91322 0
M  V30 8284 O 861.141 1.31557 -1.71819 0
M  V30 8285 C 861.736 -1.82697 -2.85319 0
M  V30 8286 C 860.295 -1.67959 -3.36848 0
M  V30 8287 C 859.442 -1.80868 -2.10195 0
M  V30 8288 H 862.393 -1.34354 -0.844676 0
M  V30 8289 H 862.414 -1.32809 -3.5657 0
M  V30 8290 H 861.926 -2.87839 -2.60328 0
M  V30 8291 H 860.027 -0.654389 -3.66809 0
M  V30 8292 H 860.14 -2.49006 -4.09308 0
M  V30 8293 H 858.504 -1.24015 -2.22469 0
M  V30 8294 H 859.287 -2.87486 -1.87635 0
M  V30 8295 N 861.732 1.21287 -1.00634 0
M  V30 8296 C 862.957 1.94925 -0.708441 0
M  V30 8297 C 863.382 1.73659 0.722783 0
M  V30 8298 O 862.74 1.02429 1.49593 0
M  V30 8299 C 862.788 3.45377 -1.03667 0
M  V30 8300 O 861.892 4.12153 -0.142661 0
M  V30 8301 H 861.233 0.609338 -0.263824 0
M  V30 8302 H 863.763 1.54008 -1.34695 0
M  V30 8303 H 863.773 3.95954 -0.984086 0
M  V30 8304 H 862.448 3.6018 -2.0795 0
M  V30 8305 H 861.025 3.72048 -0.251888 0
M  V30 8306 N 863.21 0.781244 1.36873 0
M  V30 8307 C 864.435 0.360398 2.04245 0
M  V30 8308 C 864.86 -1.01242 1.58529 0
M  V30 8309 O 864.218 -1.65063 0.749936 0
M  V30 8310 C 864.266 0.42329 3.58107 0
M  V30 8311 O 863.37 -0.572796 4.08403 0
M  V30 8312 H 862.711 0.154386 0.645803 0
M  V30 8313 H 865.241 1.06008 1.74996 0
M  V30 8314 H 865.251 0.283967 4.07011 0
M  V30 8315 H 863.926 1.42477 3.90734 0
M  V30 8316 H 862.503 -0.395809 3.70793 0
M  V30 8317 N 864.689 -1.48329 0.532571 0
M  V30 8318 C 865.917 -2.069 0.00354299 0
M  V30 8319 C 866.332 -1.38876 -1.27902 0
M  V30 8320 O 865.689 -0.477119 -1.76153 0
M  V30 8321 C 865.74 -3.60821 -0.221416 0
M  V30 8322 O 865.461 -4.26291 1.01034 0
M  V30 8323 C 866.962 -4.36194 -0.790531 0
M  V30 8324 H 864.182 -0.670103 0.0346836 0
M  V30 8325 H 866.726 -1.90682 0.738955 0
M  V30 8326 H 864.881 -3.76636 -0.906884 0
M  V30 8327 H 865.295 -5.18475 0.792683 0
M  V30 8328 H 866.769 -5.44657 -0.897347 0
M  V30 8329 H 867.246 -4.00798 -1.79605 0
M  V30 8330 H 867.852 -4.25064 -0.141546 0
M  V30 8331 N 866.167 -0.267825 -1.55308 0
M  V30 8332 C 867.415 0.350343 -1.9904 0
M  V30 8333 C 867.736 1.56924 -1.15758 0
M  V30 8334 O 867.006 1.94358 -0.245336 0
M  V30 8335 H 865.586 0.132435 -0.735167 0
M  V30 8336 H 868.248 -0.371471 -1.91327 0
M  V30 8337 H 867.344 0.645203 -3.05358 0
M  V30 8338 N 867.645 1.57599 0.00500368 0
M  V30 8339 C 868.891 1.90631 0.691919 0
M  V30 8340 C 869.224 0.868443 1.737 0
M  V30 8341 O 868.499 -0.113482 1.94169 0
M  V30 8342 C 868.782 3.34255 1.33961 0
M  V30 8343 C 868.635 4.48755 0.306413 0
M  V30 8344 C 869.954 3.77211 2.26715 0
M  V30 8345 H 867.073 0.693279 0.250066 0
M  V30 8346 H 869.715 1.89946 -0.0452634 0
M  V30 8347 H 867.865 3.3497 1.96793 0
M  V30 8348 H 869.537 4.60176 -0.321841 0
M  V30 8349 H 867.78 4.32203 -0.371852 0
M  V30 8350 H 868.451 5.46193 0.798554 0
M  V30 8351 H 870.927 3.78017 1.73904 0
M  V30 8352 H 869.803 4.78466 2.69002 0
M  V30 8353 H 870.064 3.10801 3.14413 0
M  V30 8354 N 869.123 -0.277682 1.55134 0
M  V30 8355 C 870.539 -0.624625 1.46869 0
M  V30 8356 C 870.739 -1.89717 0.678958 0
M  V30 8357 O 869.795 -2.51739 0.195939 0
M  V30 8358 C 871.108 -0.755937 2.91043 0
M  V30 8359 C 872.656 -0.850299 3.01229 0
M  V30 8360 C 873.131 -1.01343 4.46647 0
M  V30 8361 N 874.622 -1.07906 4.50456 0
M  V30 8362 C 875.357 -1.224 5.60184 0
M  V30 8363 N 874.853 -1.33642 6.79788 0
M  V30 8364 N 876.646 -1.25473 5.47917 0
M  V30 8365 H 868.797 0.558102 2.04937 0
M  V30 8366 H 871.06 0.188228 0.929125 0
M  V30 8367 H 870.766 0.108593 3.51532 0
M  V30 8368 H 870.64 -1.6377 3.39793 0
M  V30 8369 H 873.027 -1.7053 2.40839 0
M  V30 8370 H 873.108 0.0559681 2.55739 0
M  V30 8371 H 872.752 -0.163102 5.07638 0
M  V30 8372 H 872.682 -1.93427 4.89789 0
M  V30 8373 H 875.173 -1.00477 3.64298 0
M  V30 8374 H 875.486 -1.44522 7.59166 0
M  V30 8375 H 873.831 -1.30655 6.82608 0
M  V30 8376 H 877.022 -1.16317 4.53418 0
M  V30 8377 H 877.195 -1.36424 6.33476 0
M  V30 8378 N 870.601 -1.47988 -0.541979 0
M  V30 8379 C 871.548 -1.61615 -1.6477 0
M  V30 8380 C 872.518 -0.458602 -1.59644 0
M  V30 8381 O 873.703 -0.680585 -1.78249 0
M  V30 8382 C 870.843 -1.65066 -3.03063 0
M  V30 8383 C 869.956 -2.91845 -3.18513 0
M  V30 8384 C 869.091 -2.86534 -4.47294 0
M  V30 8385 C 868.13 -4.0807 -4.5623 0
M  V30 8386 N 867.267 -4.00905 -5.76385 0
M  V30 8387 H 872.107 -2.56046 -1.52461 0
M  V30 8388 H 869.644 -1.26989 -0.742449 0
M  V30 8389 H 871.602 -1.65049 -3.83164 0
M  V30 8390 H 870.232 -0.74136 -3.14171 0
M  V30 8391 H 869.284 -3.01661 -2.31743 0
M  V30 8392 H 870.596 -3.81804 -3.20978 0
M  V30 8393 H 869.75 -2.84851 -5.35672 0
M  V30 8394 H 868.489 -1.94283 -4.47332 0
M  V30 8395 H 867.494 -4.10041 -3.66261 0
M  V30 8396 H 868.719 -5.01465 -4.5794 0
M  V30 8397 H 866.665 -3.11467 -5.77342 0
M  V30 8398 H 866.582 -4.84557 -5.80293 0
M  V30 8399 H 867.85 -4.03263 -6.67083 0
M  V30 8400 N 872.079 0.78992 -1.36375 0
M  V30 8401 C 873.327 1.54472 -1.30319 0
M  V30 8402 C 873.648 1.94647 0.117338 0
M  V30 8403 O 872.918 1.64906 1.05748 0
M  V30 8404 H 871.498 0.572879 -0.479394 0
M  V30 8405 H 874.16 0.941245 -1.70665 0
M  V30 8406 H 873.256 2.45252 -1.93024 0
M  V30 8407 N 873.557 1.20646 1.01402 0
M  V30 8408 C 874.803 1.02974 1.75408 0
M  V30 8409 C 875.158 -0.433294 1.87458 0
M  V30 8410 O 874.451 -1.31741 1.39122 0
M  V30 8411 C 874.645 1.64991 3.17037 0
M  V30 8412 C 874.474 3.17174 3.18796 0
M  V30 8413 C 873.244 3.86165 3.2589 0
M  V30 8414 C 875.442 4.14369 3.04636 0
M  V30 8415 N 873.424 5.25614 3.1718 0
M  V30 8416 C 874.795 5.4051 3.03724 0
M  V30 8417 C 876.85 4.05534 2.88872 0
M  V30 8418 C 875.553 6.58836 2.88664 0
M  V30 8419 C 877.579 5.23486 2.75166 0
M  V30 8420 C 876.941 6.48535 2.74922 0
M  V30 8421 H 873.04 0.431068 0.65246 0
M  V30 8422 H 875.624 1.52858 1.20593 0
M  V30 8423 H 873.795 1.17688 3.70141 0
M  V30 8424 H 875.527 1.40612 3.79487 0
M  V30 8425 H 872.282 3.37038 3.32719 0
M  V30 8426 H 872.706 5.98625 3.16192 0
M  V30 8427 H 877.348 3.09661 2.87872 0
M  V30 8428 H 875.066 7.5488 2.88413 0
M  V30 8429 H 878.652 5.18464 2.63982 0
M  V30 8430 H 877.532 7.3827 2.64439 0
M  V30 8431 N 875.035 -1.20752 1.01276 0
M  V30 8432 C 875.985 -2.21252 0.550602 0
M  V30 8433 C 876.969 -1.56052 -0.391985 0
M  V30 8434 O 878.161 -1.75682 -0.215575 0
M  V30 8435 C 875.29 -3.43112 -0.113601 0
M  V30 8436 C 874.376 -4.15485 0.850465 0
M  V30 8437 N 874.767 -4.64301 2.00643 0
M  V30 8438 C 873.065 -4.40932 0.670476 0
M  V30 8439 C 873.766 -5.197 2.61317 0
M  V30 8440 N 872.742 -5.09534 1.8941 0
M  V30 8441 H 876.544 -2.56657 1.43194 0
M  V30 8442 H 874.058 -1.36646 0.877597 0
M  V30 8443 H 876.055 -4.1433 -0.462211 0
M  V30 8444 H 874.715 -3.09213 -0.990825 0
M  V30 8445 H 875.726 -4.59637 2.38651 0
M  V30 8446 H 872.403 -4.17197 -0.159016 0
M  V30 8447 H 873.793 -5.67873 3.59123 0
M  V30 8448 N 876.513 -0.788492 -1.36457 0
M  V30 8449 C 877.423 -0.187385 -2.3385 0
M  V30 8450 C 878.439 0.659984 -1.60998 0
M  V30 8451 O 879.615 0.575986 -1.92988 0
M  V30 8452 C 876.68 0.668525 -3.40194 0
M  V30 8453 C 875.741 -0.197234 -4.28847 0
M  V30 8454 C 874.974 0.61792 -5.30111 0
M  V30 8455 O 875.197 1.85396 -5.3943 0
M  V30 8456 O 874.131 0.0183016 -6.01897 0
M  V30 8457 H 877.957 -0.992617 -2.87021 0
M  V30 8458 H 875.542 -0.549934 -1.3891 0
M  V30 8459 H 877.424 1.15663 -4.05216 0
M  V30 8460 H 876.099 1.45166 -2.89324 0
M  V30 8461 H 875.006 -0.73207 -3.66867 0
M  V30 8462 H 876.339 -0.943863 -4.83065 0
M  V30 8463 N 877.991 1.48044 -0.54043 0
M  V30 8464 C 878.941 2.26768 0.236657 0
M  V30 8465 C 879.925 1.33341 0.900505 0
M  V30 8466 O 881.117 1.57809 0.801584 0
M  V30 8467 C 878.246 3.18685 1.27651 0
M  V30 8468 C 877.332 4.19589 0.616923 0
M  V30 8469 N 877.723 5.04889 -0.303377 0
M  V30 8470 C 876.021 4.37375 0.872879 0
M  V30 8471 C 876.722 5.77654 -0.684905 0
M  V30 8472 N 875.698 5.43583 -0.0435728 0
M  V30 8473 H 879.5 2.90098 -0.471183 0
M  V30 8474 H 877.014 1.58378 -0.359183 0
M  V30 8475 H 879.011 3.73752 1.84702 0
M  V30 8476 H 877.671 2.56911 1.98562 0
M  V30 8477 H 878.682 5.13461 -0.676591 0
M  V30 8478 H 875.359 3.86784 1.57177 0
M  V30 8479 H 876.749 6.56285 -1.44015 0
M  V30 8480 N 879.47 0.276058 1.55163 0
M  V30 8481 C 880.716 -0.340959 1.99913 0
M  V30 8482 C 881.049 -1.55434 1.16422 0
M  V30 8483 O 880.324 -1.93081 0.234517 0
M  V30 8484 C 880.607 -0.722211 3.52783 0
M  V30 8485 C 880.46 0.498575 4.47028 0
M  V30 8486 C 881.779 -1.5583 4.11589 0
M  V30 8487 H 878.898 -0.122455 0.726756 0
M  V30 8488 H 881.54 0.38319 1.86096 0
M  V30 8489 H 879.69 -1.33919 3.64689 0
M  V30 8490 H 881.362 1.13713 4.47065 0
M  V30 8491 H 879.605 1.13646 4.18649 0
M  V30 8492 H 880.276 0.188041 5.5168 0
M  V30 8493 H 882.752 -1.03722 4.02965 0
M  V30 8494 H 881.628 -1.79387 5.1876 0
M  V30 8495 H 881.889 -2.53963 3.61877 0
M  V30 8496 N 880.948 -1.576 0.00335426 0
M  V30 8497 C 882.176 -1.94996 -0.691685 0
M  V30 8498 C 882.591 -0.878405 -1.67121 0
M  V30 8499 O 881.948 0.142343 -1.81944 0
M  V30 8500 C 881.999 -3.32416 -1.42063 0
M  V30 8501 O 881.72 -4.35458 -0.48038 0
M  V30 8502 C 883.221 -3.84291 -2.20987 0
M  V30 8503 H 880.441 -0.642814 -0.192434 0
M  V30 8504 H 882.985 -2.04425 0.0554706 0
M  V30 8505 H 881.14 -3.24285 -2.11939 0
M  V30 8506 H 881.554 -5.14975 -0.995054 0
M  V30 8507 H 883.028 -4.82863 -2.67483 0
M  V30 8508 H 883.505 -3.17174 -3.03805 0
M  V30 8509 H 884.111 -3.95609 -1.56121 0
M  V30 8510 N 882.426 0.269451 -1.5528 0
M  V30 8511 C 883.358 1.35553 -1.84819 0
M  V30 8512 C 884.371 1.45369 -0.732914 0
M  V30 8513 O 885.56 1.47122 -1.0108 0
M  V30 8514 C 882.66 2.73645 -1.9993 0
M  V30 8515 C 881.833 2.86376 -3.30617 0
M  V30 8516 C 880.892 4.05165 -3.35749 0
M  V30 8517 O 879.918 3.95756 -4.09104 0
M  V30 8518 N 881.12 5.17297 -2.63408 0
M  V30 8519 H 883.885 1.10557 -2.78563 0
M  V30 8520 H 881.446 0.459566 -1.5524 0
M  V30 8521 H 883.438 3.51411 -2.00729 0
M  V30 8522 H 882.008 2.91448 -1.13035 0
M  V30 8523 H 881.228 1.95465 -3.42326 0
M  V30 8524 H 882.516 2.91815 -4.16799 0
M  V30 8525 H 881.914 5.2783 -2.03501 0
M  V30 8526 H 880.471 5.93281 -2.69927 0
M  V30 8527 N 883.904 1.48273 0.534124 0
M  V30 8528 C 885.181 1.46567 1.29528 0
M  V30 8529 C 885.561 0.17509 2.10373 0
M  V30 8530 O 884.909 -0.843228 2.12372 0
M  V30 8531 C 885.119 2.72519 2.18023 0
M  V30 8532 C 886.467 3.2068 2.78298 0
M  V30 8533 O 887.491 2.73408 2.28313 0
M  V30 8534 O 886.35 4.02924 3.69208 0
M  V30 8535 H 883.444 0.585151 0.584403 0
M  V30 8536 H 885.99 1.60502 0.551119 0
M  V30 8537 H 884.762 3.57965 1.5804 0
M  V30 8538 H 884.385 2.61285 2.99693 0
M  V30 8539 N 885.382 -0.782676 1.36792 0
M  V30 8540 C 886.312 -1.90973 1.34356 0
M  V30 8541 C 887.293 -1.6875 0.213917 0
M  V30 8542 O 888.478 -1.89766 0.412601 0
M  V30 8543 C 885.608 -3.28097 1.13884 0
M  V30 8544 C 884.562 -3.6486 2.23744 0
M  V30 8545 C 883.888 -5.00406 1.88408 0
M  V30 8546 C 885.188 -3.72742 3.6587 0
M  V30 8547 H 886.882 -1.93268 2.28665 0
M  V30 8548 H 884.428 -0.928447 1.10072 0
M  V30 8549 H 886.381 -4.06569 1.10813 0
M  V30 8550 H 885.105 -3.26206 0.160275 0
M  V30 8551 H 883.764 -2.88689 2.25952 0
M  V30 8552 H 883.412 -4.95044 0.891083 0
M  V30 8553 H 883.112 -5.25973 2.61966 0
M  V30 8554 H 884.636 -5.81291 1.86905 0
M  V30 8555 H 886.05 -4.4139 3.65852 0
M  V30 8556 H 884.447 -4.09798 4.38389 0
M  V30 8557 H 885.517 -2.73676 4.00287 0
M  V30 8558 N 886.86 -1.21182 -1.00761 0
M  V30 8559 C 888.276 -0.968607 -1.26847 0
M  V30 8560 C 888.476 0.346561 -1.98497 0
M  V30 8561 O 887.532 1.07287 -2.28573 0
M  V30 8562 C 888.845 -2.1574 -2.09467 0
M  V30 8563 C 890.393 -2.19937 -2.22703 0
M  V30 8564 C 890.868 -3.38328 -3.08704 0
M  V30 8565 N 892.359 -3.38398 -3.16293 0
M  V30 8566 C 893.094 -4.26653 -3.83086 0
M  V30 8567 N 892.59 -5.25101 -4.5193 0
M  V30 8568 N 894.383 -4.14469 -3.797 0
M  V30 8569 H 886.534 -2.05763 -0.526816 0
M  V30 8570 H 888.797 -0.90087 -0.29519 0
M  V30 8571 H 888.503 -3.11034 -1.64167 0
M  V30 8572 H 888.377 -2.14584 -3.10216 0
M  V30 8573 H 890.764 -1.25201 -2.67224 0
M  V30 8574 H 890.845 -2.25139 -1.21433 0
M  V30 8575 H 890.489 -4.33356 -2.64886 0
M  V30 8576 H 890.419 -3.30364 -4.10082 0
M  V30 8577 H 892.91 -2.67149 -2.67282 0
M  V30 8578 H 893.223 -5.8875 -5.00592 0
M  V30 8579 H 891.568 -5.29029 -4.50726 0
M  V30 8580 H 894.759 -3.3682 -3.25069 0
M  V30 8581 H 894.932 -4.83458 -4.31477 0
M  V30 8582 N 888.338 1.20213 -1.01915 0
M  V30 8583 C 889.563 1.94163 -0.729076 0
M  V30 8584 C 889.988 1.74416 0.704323 0
M  V30 8585 O 889.346 1.0401 1.48498 0
M  V30 8586 C 889.394 3.44258 -1.07324 0
M  V30 8587 O 888.498 4.11979 -0.186367 0
M  V30 8588 H 887.839 0.606506 -0.270272 0
M  V30 8589 H 890.369 1.52571 -1.3632 0
M  V30 8590 H 890.379 3.94888 -1.02603 0
M  V30 8591 H 889.054 3.57954 -2.11759 0
M  V30 8592 H 887.631 3.7176 -0.291334 0
M  V30 8593 N 889.816 0.795718 1.36037 0
M  V30 8594 C 890.766 0.171437 2.27355 0
M  V30 8595 C 891.75 -0.648346 1.47259 0
M  V30 8596 O 892.942 -0.507386 1.69572 0
M  V30 8597 C 890.071 -0.687876 3.36338 0
M  V30 8598 C 889.157 0.141041 4.23865 0
M  V30 8599 N 889.548 1.19868 4.91391 0
M  V30 8600 C 887.846 -0.0791045 4.4593 0
M  V30 8601 C 888.547 1.70382 5.56188 0
M  V30 8602 N 887.523 1.01202 5.34097 0
M  V30 8603 H 891.325 0.980846 2.7705 0
M  V30 8604 H 888.839 0.635798 1.49437 0
M  V30 8605 H 890.836 -1.15107 4.00694 0
M  V30 8606 H 889.496 -1.49576 2.88196 0
M  V30 8607 H 890.507 1.58119 4.93172 0
M  V30 8608 H 887.184 -0.856993 4.0861 0
M  V30 8609 H 888.574 2.58715 6.20093 0
M  V30 8610 N 891.294 -1.47756 0.548274 0
M  V30 8611 C 892.224 -2.32702 -0.19284 0
M  V30 8612 C 893.205 -1.43237 -0.917457 0
M  V30 8613 O 894.39 -1.72103 -0.89967 0
M  V30 8614 C 891.52 -3.24831 -1.22891 0
M  V30 8615 C 890.474 -4.23466 -0.621312 0
M  V30 8616 C 889.8 -5.04856 -1.76137 0
M  V30 8617 C 891.1 -5.20616 0.419055 0
M  V30 8618 H 892.794 -2.94914 0.516323 0
M  V30 8619 H 890.34 -1.41818 0.24975 0
M  V30 8620 H 892.293 -3.83094 -1.75547 0
M  V30 8621 H 891.017 -2.60656 -1.9679 0
M  V30 8622 H 889.676 -3.66416 -0.116123 0
M  V30 8623 H 889.324 -4.37091 -2.48918 0
M  V30 8624 H 889.024 -5.71629 -1.36065 0
M  V30 8625 H 890.548 -5.65976 -2.29136 0
M  V30 8626 H 891.962 -5.73296 -0.0211034 0
M  V30 8627 H 890.359 -5.95543 0.738163 0
M  V30 8628 H 891.429 -4.66638 1.31822 0
M  V30 8629 N 892.772 -0.284283 -1.55015 0
M  V30 8630 C 894.018 0.330352 -2.00091 0
M  V30 8631 C 894.351 1.54814 -1.17244 0
M  V30 8632 O 893.626 1.92954 -0.244753 0
M  V30 8633 C 893.909 0.703492 -3.53161 0
M  V30 8634 C 893.762 -0.522275 -4.46758 0
M  V30 8635 C 895.081 1.53645 -4.12409 0
M  V30 8636 H 892.2 0.118599 -0.727395 0
M  V30 8637 H 894.842 -0.393054 -1.8589 0
M  V30 8638 H 892.992 1.31983 -3.65394 0
M  V30 8639 H 894.664 -1.16082 -4.46456 0
M  V30 8640 H 892.907 -1.15865 -4.1804 0
M  V30 8641 H 893.578 -0.217295 -5.51572 0
M  V30 8642 H 896.054 1.01583 -4.0351 0
M  V30 8643 H 894.93 1.76633 -5.19704 0
M  V30 8644 H 895.191 2.5204 -3.63219 0
M  V30 8645 N 894.251 1.57596 -0.0117121 0
M  V30 8646 C 895.201 2.05641 0.98467 0
M  V30 8647 C 896.185 0.953422 1.2961 0
M  V30 8648 O 897.377 1.21712 1.28512 0
M  V30 8649 C 894.506 2.57285 2.27286 0
M  V30 8650 C 893.592 3.74483 1.99057 0
M  V30 8651 N 893.983 4.85741 1.41029 0
M  V30 8652 C 892.281 3.82637 2.2914 0
M  V30 8653 C 892.982 5.67094 1.29536 0
M  V30 8654 N 891.958 5.13459 1.78497 0
M  V30 8655 H 895.76 2.89069 0.530702 0
M  V30 8656 H 893.274 1.6124 0.193717 0
M  V30 8657 H 895.271 2.89988 2.99521 0
M  V30 8658 H 893.931 1.75281 2.73325 0
M  V30 8659 H 894.942 5.06352 1.08756 0
M  V30 8660 H 891.619 3.11509 2.77972 0
M  V30 8661 H 893.009 6.66525 0.848144 0
M  V30 8662 N 895.729 -0.261212 1.5542 0
M  V30 8663 C 896.676 -1.32315 1.89107 0
M  V30 8664 C 897.646 -1.48517 0.743767 0
M  V30 8665 O 898.831 -1.62733 0.996123 0
M  V30 8666 C 895.971 -2.67626 2.17877 0
M  V30 8667 C 895.084 -2.59549 3.45338 0
M  V30 8668 C 894.219 -3.87118 3.63748 0
M  V30 8669 C 893.258 -3.736 4.8486 0
M  V30 8670 N 892.395 -4.93029 4.99867 0
M  V30 8671 H 897.235 -1.02886 2.79675 0
M  V30 8672 H 894.772 -0.496812 1.38456 0
M  V30 8673 H 896.73 -3.4637 2.32559 0
M  V30 8674 H 895.36 -2.95232 1.30529 0
M  V30 8675 H 894.412 -1.72452 3.39064 0
M  V30 8676 H 895.724 -2.45465 4.34222 0
M  V30 8677 H 894.878 -4.74305 3.78312 0
M  V30 8678 H 893.617 -4.04084 2.73071 0
M  V30 8679 H 892.622 -2.84797 4.70288 0
M  V30 8680 H 893.847 -3.58143 5.76984 0
M  V30 8681 H 891.793 -5.10383 4.12123 0
M  V30 8682 H 891.71 -4.81521 5.82815 0
M  V30 8683 H 892.978 -5.81754 5.18828 0
M  V30 8684 N 897.207 -1.48554 -0.526253 0
M  V30 8685 C 898.137 -1.66252 -1.63959 0
M  V30 8686 C 899.118 -0.511351 -1.62232 0
M  V30 8687 O 900.303 -0.744322 -1.7937 0
M  V30 8688 C 897.433 -1.70556 -3.02536 0
M  V30 8689 C 896.387 -2.8521 -3.19123 0
M  V30 8690 C 895.713 -2.74606 -4.58798 0
M  V30 8691 C 897.013 -4.26463 -3.0154 0
M  V30 8692 H 898.707 -2.59459 -1.49404 0
M  V30 8693 H 896.253 -1.24862 -0.717326 0
M  V30 8694 H 898.206 -1.81524 -3.80298 0
M  V30 8695 H 896.93 -0.739297 -3.18123 0
M  V30 8696 H 895.589 -2.73802 -2.43779 0
M  V30 8697 H 895.237 -1.75941 -4.71226 0
M  V30 8698 H 894.937 -3.51544 -4.70841 0
M  V30 8699 H 896.461 -2.87548 -5.38655 0
M  V30 8700 H 897.875 -4.38685 -3.69091 0
M  V30 8701 H 896.272 -5.04428 -3.25073 0
M  V30 8702 H 897.342 -4.42667 -1.97925 0
M  V30 8703 N 898.685 0.775411 -1.37205 0
M  V30 8704 C 899.931 1.53611 -1.32407 0
M  V30 8705 C 900.264 1.9398 0.0924103 0
M  V30 8706 O 899.539 1.63791 1.04893 0
M  V30 8707 C 899.822 2.80367 -2.25979 0
M  V30 8708 C 899.675 2.46275 -3.76389 0
M  V30 8709 C 900.994 3.82277 -2.18064 0
M  V30 8710 H 898.113 0.557278 -0.482297 0
M  V30 8711 H 900.755 0.889826 -1.67875 0
M  V30 8712 H 898.905 3.35515 -1.95862 0
M  V30 8713 H 900.577 1.9707 -4.17087 0
M  V30 8714 H 898.82 1.79023 -3.95137 0
M  V30 8715 H 899.491 3.36868 -4.37291 0
M  V30 8716 H 901.967 3.36613 -2.44604 0
M  V30 8717 H 900.843 4.68696 -2.85684 0
M  V30 8718 H 901.104 4.26272 -1.17239 0
M  V30 8719 N 900.163 1.21714 1.00117 0
M  V30 8720 C 901.095 0.937627 2.09144 0
M  V30 8721 C 902.108 -0.0806291 1.626 0
M  V30 8722 O 903.297 0.152348 1.77849 0
M  V30 8723 C 900.397 0.387036 3.36683 0
M  V30 8724 C 899.57 1.46054 4.12295 0
M  V30 8725 C 898.629 0.918505 5.18122 0
M  V30 8726 O 897.655 1.60282 5.46167 0
M  V30 8727 N 898.857 -0.264308 5.79898 0
M  V30 8728 H 901.622 1.87622 2.33705 0
M  V30 8729 H 899.183 1.12291 1.16629 0
M  V30 8730 H 901.175 0.00992825 4.04699 0
M  V30 8731 H 899.745 -0.456467 3.09249 0
M  V30 8732 H 898.965 2.01133 3.39027 0
M  V30 8733 H 900.253 2.18306 4.59587 0
M  V30 8734 H 899.651 -0.837242 5.5947 0
M  V30 8735 H 898.208 -0.582886 6.49188 0
M  V30 8736 N 901.641 -1.19671 1.02551 0
M  V30 8737 C 902.604 -2.20987 0.608055 0
M  V30 8738 C 903.604 -1.5745 -0.326534 0
M  V30 8739 O 904.794 -1.73827 -0.114003 0
M  V30 8740 C 901.926 -3.4072 -0.11074 0
M  V30 8741 H 903.119 -2.59434 1.50446 0
M  V30 8742 H 900.672 -1.3329 0.816307 0
M  V30 8743 H 901.407 -3.07787 -1.02165 0
M  V30 8744 H 901.192 -3.88069 0.560772 0
M  V30 8745 H 902.682 -4.15776 -0.389848 0
M  V30 8746 N 903.119 -0.802921 -1.35613 0
M  V30 8747 C 904.368 -0.378087 -1.98125 0
M  V30 8748 C 904.681 1.05953 -1.64418 0
M  V30 8749 O 905.887 1.58729 -2.20266 0
M  V30 8750 C 904.343 -0.625077 -3.5443 0
M  V30 8751 C 903.951 -2.07499 -3.97049 0
M  V30 8752 C 905.695 -0.265419 -4.23669 0
M  V30 8753 C 903.602 -2.26793 -5.46186 0
M  V30 8754 H 902.532 -0.137633 -0.741332 0
M  V30 8755 H 905.183 -0.986461 -1.54729 0
M  V30 8756 H 903.565 0.0531975 -3.95964 0
M  V30 8757 H 904.739 -2.79077 -3.66678 0
M  V30 8758 H 903.054 -2.39417 -3.40688 0
M  V30 8759 H 905.651 -0.387669 -5.33293 0
M  V30 8760 H 905.994 0.787994 -4.08774 0
M  V30 8761 H 906.527 -0.897464 -3.87544 0
M  V30 8762 H 903.266 -3.30566 -5.66045 0
M  V30 8763 H 902.786 -1.59735 -5.78139 0
M  V30 8764 H 904.465 -2.08165 -6.12598 0
M  V30 8765 N 904.597 1.47463 -0.556102 0
M  V30 8766 C 905.844 2.02475 -0.0316337 0
M  V30 8767 C 906.172 1.43057 1.31777 0
M  V30 8768 O 905.427 0.575376 1.87051 0
M  V30 8769 C 905.726 3.57224 0.112126 0
M  V30 8770 C 905.392 4.35557 -1.16624 0
M  V30 8771 C 904.054 4.56678 -1.51654 0
M  V30 8772 C 906.406 4.8074 -2.01342 0
M  V30 8773 C 903.734 5.20231 -2.7125 0
M  V30 8774 C 906.086 5.45613 -3.2014 0
M  V30 8775 C 904.75 5.64967 -3.55484 0
M  V30 8776 H 904.02 0.74091 -0.0115756 0
M  V30 8777 H 906.667 1.77148 -0.727392 0
M  V30 8778 H 904.972 3.81538 0.890842 0
M  V30 8779 H 906.669 3.97438 0.533261 0
M  V30 8780 H 903.259 4.19395 -0.883489 0
M  V30 8781 H 907.443 4.64201 -1.75587 0
M  V30 8782 H 902.699 5.3341 -2.98804 0
M  V30 8783 H 906.873 5.79587 -3.86073 0
M  V30 8784 H 904.5 6.13984 -4.4825 0
M  V30 8785 N 906.075 0.2925 1.54862 0
M  V30 8786 C 907.486 -0.201841 1.85606 0
M  V30 8787 C 907.837 -1.54093 1.21449 0
M  V30 8788 O 906.962 -2.10327 0.509079 0
M  V30 8789 C 907.557 -0.373011 3.3674 0
M  V30 8790 C 906.116 -0.811574 3.67547 0
M  V30 8791 C 905.263 0.0850583 2.7717 0
M  V30 8792 H 908.214 0.513774 1.50153 0
M  V30 8793 H 908.235 -1.20892 3.60785 0
M  V30 8794 H 907.747 0.601751 3.83407 0
M  V30 8795 H 905.848 -1.79719 3.26392 0
M  V30 8796 H 905.961 -0.636853 4.74848 0
M  V30 8797 H 904.325 -0.434224 2.50971 0
M  V30 8798 H 905.108 1.05602 3.26654 0
M  V30 8799 N 907.553 -1.57587 0.0200696 0
M  V30 8800 C 908.781 -1.95718 -0.670964 0
M  V30 8801 C 909.196 -0.896081 -1.6618 0
M  V30 8802 O 908.553 0.123037 -1.82085 0
M  V30 8803 C 908.604 -3.33904 -1.38529 0
M  V30 8804 O 908.325 -4.35943 -0.434167 0
M  V30 8805 C 909.826 -3.86614 -2.16898 0
M  V30 8806 H 907.046 -0.644819 -0.185606 0
M  V30 8807 H 909.59 -2.04354 0.0771495 0
M  V30 8808 H 907.745 -3.26515 -2.08487 0
M  V30 8809 H 908.159 -5.16001 -0.940378 0
M  V30 8810 H 909.633 -4.85673 -2.62346 0
M  V30 8811 H 910.11 -3.20379 -3.00423 0
M  V30 8812 H 910.716 -3.97243 -1.51916 0
M  V30 8813 N 909.032 0.252966 -1.55557 0
M  V30 8814 C 910.443 0.822503 -1.67606 0
M  V30 8815 C 910.794 1.86265 -0.616411 0
M  V30 8816 O 909.919 2.15082 0.238447 0
M  V30 8817 C 910.514 1.49866 -3.03852 0
M  V30 8818 C 909.073 2.01597 -3.17861 0
M  V30 8819 C 908.22 0.864943 -2.63465 0
M  V30 8820 H 911.171 0.0288958 -1.58674 0
M  V30 8821 H 911.192 2.36646 -2.97958 0
M  V30 8822 H 910.704 0.741378 -3.80953 0
M  V30 8823 H 908.805 2.80224 -2.45571 0
M  V30 8824 H 908.918 2.21752 -4.24692 0
M  V30 8825 H 907.282 1.2638 -2.21134 0
M  V30 8826 H 908.065 0.120847 -3.43087 0
M  V30 8827 N 910.51 1.48831 0.518367 0
M  V30 8828 C 911.787 1.47933 1.27966 0
M  V30 8829 C 912.167 0.197393 2.10175 0
M  V30 8830 O 911.515 -0.820656 2.13255 0
M  V30 8831 C 911.725 2.74816 2.15121 0
M  V30 8832 C 913.073 3.23613 2.74881 0
M  V30 8833 O 914.097 2.75814 2.254 0
M  V30 8834 O 912.956 4.06818 3.64913 0
M  V30 8835 H 910.05 0.591316 0.578164 0
M  V30 8836 H 912.596 1.61077 0.534065 0
M  V30 8837 H 911.368 3.59621 1.54234 0
M  V30 8838 H 910.991 2.64449 2.96905 0
M  V30 8839 N 911.988 -0.768124 1.37614 0
M  V30 8840 C 913.399 -1.34462 1.29525 0
M  V30 8841 C 913.75 -1.96121 -0.0555168 0
M  V30 8842 O 912.875 -1.94069 -0.957406 0
M  V30 8843 C 913.47 -2.44475 2.34558 0
M  V30 8844 C 912.029 -2.97883 2.30093 0
M  V30 8845 C 911.176 -1.71131 2.18196 0
M  V30 8846 H 914.127 -0.568103 1.48183 0
M  V30 8847 H 914.148 -3.24047 1.99434 0
M  V30 8848 H 913.66 -1.99568 3.32858 0
M  V30 8849 H 911.761 -3.47156 1.35328 0
M  V30 8850 H 911.874 -3.53251 3.23652 0
M  V30 8851 H 910.238 -1.94197 1.64802 0
M  V30 8852 H 911.021 -1.28323 3.18415 0
M  V30 8853 N 913.466 -1.22244 -0.994698 0
M  V30 8854 C 914.429 -0.992308 -2.06606 0
M  V30 8855 C 915.429 0.0405872 -1.60749 0
M  V30 8856 O 916.619 -0.197737 -1.73074 0
M  V30 8857 C 913.751 -0.498499 -3.37236 0
M  V30 8858 H 914.944 -1.9429 -2.28455 0
M  V30 8859 H 912.497 -1.04087 -1.166 0
M  V30 8860 H 913.232 0.456531 -3.21071 0
M  V30 8861 H 913.017 -1.24367 -3.71854 0
M  V30 8862 H 914.507 -0.35768 -4.16065 0
M  V30 8863 N 914.944 1.19125 -1.03184 0
M  V30 8864 C 915.907 2.20662 -0.619766 0
M  V30 8865 C 916.907 1.57621 0.318179 0
M  V30 8866 O 918.097 1.73885 0.104783 0
M  V30 8867 C 915.229 3.40774 0.0926696 0
M  V30 8868 H 916.422 2.58633 -1.5182 0
M  V30 8869 H 913.975 1.32855 -0.823364 0
M  V30 8870 H 914.71 3.08324 1.00531 0
M  V30 8871 H 914.495 3.87766 -0.581344 0
M  V30 8872 H 915.985 4.15977 0.367792 0
M  V30 8873 N 916.422 0.810101 1.35185 0
M  V30 8874 C 917.352 0.237453 2.32289 0
M  V30 8875 C 918.333 -0.639032 1.5764 0
M  V30 8876 O 919.518 -0.568575 1.8569 0
M  V30 8877 C 916.648 -0.611964 3.41866 0
M  V30 8878 C 915.602 0.166318 4.27677 0
M  V30 8879 C 914.928 -0.805024 5.28605 0
M  V30 8880 C 916.228 1.36729 5.04086 0
M  V30 8881 H 917.922 1.04874 2.80432 0
M  V30 8882 H 915.468 0.505751 1.34826 0
M  V30 8883 H 917.421 -1.02267 4.08802 0
M  V30 8884 H 916.145 -1.45617 2.92341 0
M  V30 8885 H 914.804 0.558238 3.62325 0
M  V30 8886 H 914.452 -1.64483 4.75347 0
M  V30 8887 H 914.152 -0.288577 5.86891 0
M  V30 8888 H 915.676 -1.21386 5.98413 0
M  V30 8889 H 917.09 1.03128 5.63948 0
M  V30 8890 H 915.487 1.81848 5.71884 0
M  V30 8891 H 916.557 2.15214 4.34524 0
M  V30 8892 N 917.9 -1.47166 0.563914 0
M  V30 8893 C 918.847 -2.30097 -0.180013 0
M  V30 8894 C 919.817 -1.39473 -0.902019 0
M  V30 8895 O 921.002 -1.68432 -0.896396 0
M  V30 8896 C 918.142 -3.23573 -1.19978 0
M  V30 8897 C 917.255 -4.2929 -0.483149 0
M  V30 8898 C 916.39 -5.0991 -1.48879 0
M  V30 8899 C 915.429 -6.07395 -0.757513 0
M  V30 8900 N 914.566 -6.8095 -1.71031 0
M  V30 8901 H 919.406 -2.93189 0.53329 0
M  V30 8902 H 916.943 -1.4451 0.274814 0
M  V30 8903 H 918.901 -3.76196 -1.80368 0
M  V30 8904 H 917.531 -2.6233 -1.88103 0
M  V30 8905 H 916.583 -3.79671 0.235414 0
M  V30 8906 H 917.895 -4.9872 0.0894075 0
M  V30 8907 H 917.049 -5.66717 -2.16603 0
M  V30 8908 H 915.788 -4.40397 -2.09527 0
M  V30 8909 H 914.793 -5.4976 -0.0663841 0
M  V30 8910 H 916.018 -6.78919 -0.156685 0
M  V30 8911 H 913.964 -6.14162 -2.30524 0
M  V30 8912 H 913.881 -7.46574 -1.19007 0
M  V30 8913 H 915.149 -7.42326 -2.37849 0
M  V30 8914 N 919.378 -0.300708 -1.54705 0
M  V30 8915 C 920.655 0.361757 -1.92226 0
M  V30 8916 C 921.035 1.71714 -1.2279 0
M  V30 8917 O 920.383 2.2559 -0.363542 0
M  V30 8918 C 920.593 0.476699 -3.45729 0
M  V30 8919 C 921.941 0.7477 -4.17965 0
M  V30 8920 O 922.965 0.560521 -3.51762 0
M  V30 8921 O 921.824 1.10724 -5.35166 0
M  V30 8922 H 918.918 0.202213 -0.801897 0
M  V30 8923 H 921.464 -0.348746 -1.66078 0
M  V30 8924 H 920.236 -0.476132 -3.88392 0
M  V30 8925 H 919.859 1.23568 -3.77911 0
M  V30 8926 N 920.856 1.57574 -0.0284266 0
M  V30 8927 C 922.272 1.56194 0.327958 0
M  V30 8928 C 922.472 1.03397 1.72949 0
M  V30 8929 O 921.528 0.680392 2.4316 0
M  V30 8930 C 922.841 3.00177 0.177196 0
M  V30 8931 C 924.389 3.12 0.250014 0
M  V30 8932 C 924.864 4.57821 0.128049 0
M  V30 8933 N 926.355 4.6283 0.185054 0
M  V30 8934 C 927.09 5.73286 0.114454 0
M  V30 8935 N 926.586 6.928 -0.00719225 0
M  V30 8936 N 928.379 5.61848 0.16839 0
M  V30 8937 H 920.53 1.90224 -0.944921 0
M  V30 8938 H 922.793 0.874987 -0.364832 0
M  V30 8939 H 922.499 3.42753 -0.788224 0
M  V30 8940 H 922.373 3.65101 0.94768 0
M  V30 8941 H 924.76 2.69337 1.20589 0
M  V30 8942 H 924.841 2.49799 -0.550835 0
M  V30 8943 H 924.485 5.01165 -0.824407 0
M  V30 8944 H 924.415 5.18001 0.947753 0
M  V30 8945 H 926.906 3.76867 0.279247 0
M  V30 8946 H 927.219 7.72781 -0.0543903 0
M  V30 8947 H 925.564 6.94987 -0.0419648 0
M  V30 8948 H 928.755 4.67367 0.261821 0
M  V30 8949 H 928.928 6.47907 0.109908 0
M  V30 8950 N 922.334 -0.244713 1.55689 0
M  V30 8951 C 923.75 -0.593331 1.48161 0
M  V30 8952 C 923.95 -1.88234 0.719047 0
M  V30 8953 O 923.006 -2.51266 0.249292 0
M  V30 8954 C 924.319 -0.694032 2.92581 0
M  V30 8955 C 925.867 -0.786213 3.02965 0
M  V30 8956 C 926.342 -0.918457 4.48696 0
M  V30 8957 N 927.833 -0.983272 4.52643 0
M  V30 8958 C 928.568 -1.1049 5.62654 0
M  V30 8959 N 928.064 -1.19193 6.8247 0
M  V30 8960 N 929.857 -1.13823 5.50455 0
M  V30 8961 H 922.008 0.601446 2.03707 0
M  V30 8962 H 924.271 0.207894 0.924924 0
M  V30 8963 H 923.977 0.183133 3.51223 0
M  V30 8964 H 923.851 -1.56525 3.4319 0
M  V30 8965 H 926.238 -1.65383 2.44402 0
M  V30 8966 H 926.319 0.110202 2.55563 0
M  V30 8967 H 925.963 -0.0553881 5.0787 0
M  V30 8968 H 925.893 -1.82994 4.93782 0
M  V30 8969 H 928.384 -0.927269 3.66347 0
M  V30 8970 H 928.697 -1.28387 7.62061 0
M  V30 8971 H 927.042 -1.16147 6.85226 0
M  V30 8972 H 930.233 -1.06673 4.55783 0
M  V30 8973 H 930.406 -1.22957 6.36228 0
M  V30 8974 N 923.813 -1.49104 -0.510467 0
M  V30 8975 C 924.746 -1.59667 -1.63039 0
M  V30 8976 C 925.724 -0.446145 -1.5636 0
M  V30 8977 O 926.908 -0.660414 -1.76552 0
M  V30 8978 C 924.035 -1.54282 -3.01521 0
M  V30 8979 C 923.081 -2.74415 -3.26494 0
M  V30 8980 S 923.914 -4.3619 -3.10643 0
M  V30 8981 C 925.07 -4.33435 -4.51536 0
M  V30 8982 H 925.303 -2.54407 -1.53833 0
M  V30 8983 H 922.836 -1.37878 -0.694916 0
M  V30 8984 H 924.794 -1.51861 -3.81377 0
M  V30 8985 H 923.455 -0.608458 -3.0815 0
M  V30 8986 H 922.648 -2.66841 -4.27565 0
M  V30 8987 H 922.25 -2.74199 -2.54344 0
M  V30 8988 H 924.542 -4.04571 -5.43441 0
M  V30 8989 H 925.485 -5.34752 -4.64162 0
M  V30 8990 H 925.893 -3.63638 -4.31773 0
M  V30 8991 N 925.291 0.760815 -1.38019 0
M  V30 8992 C 926.201 1.90526 -1.36884 0
M  V30 8993 C 927.217 1.71941 -0.266908 0
M  V30 8994 O 928.393 1.94988 -0.50413 0
M  V30 8995 C 925.458 3.25799 -1.18558 0
M  V30 8996 C 924.519 3.56961 -2.3849 0
M  V30 8997 C 923.752 4.8578 -2.21029 0
M  V30 8998 O 923.975 5.57629 -1.20023 0
M  V30 8999 O 922.909 5.16254 -3.0946 0
M  V30 9000 H 926.735 1.94437 -2.33298 0
M  V30 9001 H 924.32 0.905091 -1.18863 0
M  V30 9002 H 926.202 4.0669 -1.1037 0
M  V30 9003 H 924.877 3.22716 -0.252241 0
M  V30 9004 H 923.784 2.7626 -2.52252 0
M  V30 9005 H 925.117 3.64798 -3.30429 0
M  V30 9006 N 926.769 1.22769 0.988202 0
M  V30 9007 C 927.717 0.999271 2.10041 0
M  V30 9008 C 928.711 -0.0591767 1.69297 0
M  V30 9009 O 929.917 0.0936653 1.79756 0
M  V30 9010 H 926.292 0.30599 0.686931 0
M  V30 9011 H 928.263 1.94294 2.26478 0
M  V30 9012 C 927.012 0.59873 3.42506 0
M  V30 9013 H 926.335 1.40487 3.74304 0
M  V30 9014 H 927.775 0.478353 4.21293 0
M  V30 9015 C 926.234 -0.692216 3.29712 0
M  V30 9016 O 926.764 -1.74342 3.61895 0
M  V30 9017 N 924.97 -0.665163 2.82885 0
M  V30 9018 H 924.517 0.190604 2.56894 0
M  V30 9019 H 924.475 -1.52917 2.74706 0
M  V30 9020 N 928.247 -1.18576 1.03814 0
M  V30 9021 C 929.177 -2.24334 0.647795 0
M  V30 9022 C 930.158 -1.66508 -0.34774 0
M  V30 9023 O 931.343 -1.92852 -0.228401 0
M  V30 9024 C 928.473 -3.47299 0.00734922 0
M  V30 9025 C 927.427 -4.17859 0.926152 0
M  V30 9026 C 926.753 -5.34489 0.150317 0
M  V30 9027 C 928.053 -4.71632 2.24411 0
M  V30 9028 H 929.747 -2.57241 1.53191 0
M  V30 9029 H 927.293 -1.23649 0.738028 0
M  V30 9030 H 929.246 -4.20486 -0.277434 0
M  V30 9031 H 927.97 -3.13619 -0.911626 0
M  V30 9032 H 926.629 -3.46567 1.19528 0
M  V30 9033 H 926.277 -4.97056 -0.770985 0
M  V30 9034 H 925.977 -5.82633 0.762407 0
M  V30 9035 H 927.501 -6.10467 -0.127508 0
M  V30 9036 H 928.915 -5.36526 2.02021 0
M  V30 9037 H 927.312 -5.303 2.80894 0
M  V30 9038 H 928.382 -3.89192 2.89236 0
M  V30 9039 N 929.725 -0.817259 -1.34754 0
M  V30 9040 C 930.971 -0.403244 -1.98751 0
M  V30 9041 C 931.304 1.02963 -1.64658 0
M  V30 9042 O 930.579 1.71617 -0.915314 0
M  V30 9043 C 930.862 -0.599188 -3.5508 0
M  V30 9044 C 930.715 -2.07777 -3.98934 0
M  V30 9045 C 932.034 -0.0315656 -4.40089 0
M  V30 9046 H 929.153 -0.147988 -0.721989 0
M  V30 9047 H 931.795 -1.02877 -1.59738 0
M  V30 9048 H 929.945 -0.0667116 -3.88443 0
M  V30 9049 H 931.617 -2.67345 -3.75931 0
M  V30 9050 H 929.86 -2.57031 -3.49453 0
M  V30 9051 H 930.531 -2.16571 -5.07741 0
M  V30 9052 H 933.007 -0.48644 -4.13247 0
M  V30 9053 H 931.883 -0.198507 -5.48541 0
M  V30 9054 H 932.144 1.06302 -4.2913 0
M  V30 9055 N 931.203 1.46865 -0.571711 0
M  V30 9056 C 932.166 2.28658 0.157499 0
M  V30 9057 C 933.166 1.37773 0.829172 0
M  V30 9058 O 934.356 1.6026 0.682811 0
M  V30 9059 C 931.488 3.17859 1.23202 0
M  V30 9060 H 932.681 2.94603 -0.561171 0
M  V30 9061 H 930.234 1.52793 -0.329229 0
M  V30 9062 H 930.969 2.56637 1.98262 0
M  V30 9063 H 930.754 3.84762 0.755031 0
M  V30 9064 H 932.244 3.7945 1.74378 0
M  V30 9065 N 932.681 0.308908 1.54543 0
M  V30 9066 C 933.911 -0.299983 2.04411 0
M  V30 9067 C 934.319 -1.47463 1.18538 0
M  V30 9068 O 933.662 -1.82547 0.205463 0
M  V30 9069 C 933.724 -0.811579 3.50219 0
M  V30 9070 C 933.388 0.238834 4.56375 0
M  V30 9071 C 934.385 1.06997 5.08771 0
M  V30 9072 C 932.07 0.382808 5.00839 0
M  V30 9073 C 934.064 2.03096 6.04178 0
M  V30 9074 C 931.751 1.34723 5.96065 0
M  V30 9075 C 932.749 2.16978 6.47618 0
M  V30 9076 O 932.437 3.11783 7.40977 0
M  V30 9077 H 932.169 -0.0679682 0.672574 0
M  V30 9078 H 934.723 0.448815 2.00437 0
M  V30 9079 H 932.953 -1.61104 3.51543 0
M  V30 9080 H 934.642 -1.33721 3.83241 0
M  V30 9081 H 935.408 0.969654 4.75208 0
M  V30 9082 H 931.287 -0.247507 4.60335 0
M  V30 9083 H 934.831 2.67338 6.44342 0
M  V30 9084 H 930.728 1.44824 6.29044 0
M  V30 9085 H 931.496 3.06853 7.58804 0
M  V30 9086 N 934.159 -1.57557 0.0367827 0
M  V30 9087 C 935.122 -2.09591 -0.927589 0
M  V30 9088 C 936.122 -1.01252 -1.24919 0
M  V30 9089 O 937.312 -1.27382 -1.18825 0
M  V30 9090 C 934.444 -2.56816 -2.24184 0
M  V30 9091 H 935.637 -2.96086 -0.476784 0
M  V30 9092 H 933.19 -1.54864 -0.211385 0
M  V30 9093 H 933.925 -1.73673 -2.73876 0
M  V30 9094 H 933.71 -3.35973 -2.0215 0
M  V30 9095 H 935.2 -2.97271 -2.93291 0
M  V30 9096 N 935.637 0.236453 -1.55816 0
M  V30 9097 C 936.584 1.29289 -1.91188 0
M  V30 9098 C 937.554 1.47315 -0.767301 0
M  V30 9099 O 938.739 1.61128 -1.02189 0
M  V30 9100 C 935.879 2.64126 -2.22107 0
M  V30 9101 C 934.992 2.54022 -3.49423 0
M  V30 9102 C 934.127 3.81282 -3.69861 0
M  V30 9103 C 933.166 3.65839 -4.90743 0
M  V30 9104 N 932.303 4.85014 -5.07647 0
M  V30 9105 H 937.143 0.98424 -2.81277 0
M  V30 9106 H 934.68 0.474722 -1.39229 0
M  V30 9107 H 936.638 3.42626 -2.3804 0
M  V30 9108 H 935.268 2.93118 -1.35209 0
M  V30 9109 H 934.32 1.67036 -3.41765 0
M  V30 9110 H 935.632 2.38525 -4.38072 0
M  V30 9111 H 934.786 4.68226 -3.8581 0
M  V30 9112 H 933.525 3.99688 -2.79465 0
M  V30 9113 H 932.53 2.77279 -4.74759 0
M  V30 9114 H 933.755 3.48918 -5.82609 0
M  V30 9115 H 931.701 5.03762 -4.20191 0
M  V30 9116 H 931.618 4.72188 -5.90402 0
M  V30 9117 H 932.886 5.73427 -5.28017 0
M  V30 9118 N 937.115 1.49373 0.502552 0
M  V30 9119 C 938.062 1.65927 1.60427 0
M  V30 9120 C 939.032 0.500768 1.58371 0
M  V30 9121 O 940.217 0.727606 1.76382 0
M  V30 9122 C 937.357 1.73043 2.9858 0
M  V30 9123 C 936.47 3.00187 3.10663 0
M  V30 9124 C 935.605 2.98292 4.3954 0
M  V30 9125 C 934.644 4.20022 4.4525 0
M  V30 9126 N 933.781 4.16046 5.65553 0
M  V30 9127 H 938.621 2.59998 1.45619 0
M  V30 9128 H 936.158 1.28912 0.708519 0
M  V30 9129 H 938.116 1.7515 3.78653 0
M  V30 9130 H 936.746 0.824397 3.12095 0
M  V30 9131 H 935.798 3.07699 2.23663 0
M  V30 9132 H 937.11 3.9018 3.10742 0
M  V30 9133 H 936.264 2.98953 5.27932 0
M  V30 9134 H 935.003 2.06075 4.42023 0
M  V30 9135 H 934.008 4.19607 3.5526 0
M  V30 9136 H 935.233 5.13431 4.44484 0
M  V30 9137 H 933.179 3.26665 5.68881 0
M  V30 9138 H 933.096 4.99773 5.67242 0
M  V30 9139 H 934.364 4.20807 6.56156 0
M  V30 9140 N 938.594 -0.753485 1.38421 0
M  V30 9141 C 939.84 -1.51485 1.34834 0
M  V30 9142 C 940.173 -1.94102 -0.0615381 0
M  V30 9143 O 939.448 -1.65439 -1.02274 0
M  V30 9144 C 939.731 -2.76736 2.30411 0
M  V30 9145 C 939.584 -2.40256 3.80259 0
M  V30 9146 C 940.903 -3.7876 2.24119 0
M  V30 9147 H 938.022 -0.549534 0.491102 0
M  V30 9148 H 940.664 -0.863006 1.6927 0
M  V30 9149 H 938.814 -3.32357 2.01175 0
M  V30 9150 H 940.486 -1.90409 4.20169 0
M  V30 9151 H 938.729 -1.72714 3.97935 0
M  V30 9152 H 939.4 -3.29869 4.42595 0
M  V30 9153 H 941.876 -3.32679 2.49928 0
M  V30 9154 H 940.752 -4.64092 2.93104 0
M  V30 9155 H 941.013 -4.24352 1.24006 0
M  V30 9156 N 940.072 -1.23292 -0.981677 0
M  V30 9157 C 940.982 -1.02964 -2.10798 0
M  V30 9158 C 941.998 0.0254674 -1.73981 0
M  V30 9159 O 943.174 -0.169706 -2.00684 0
M  V30 9160 C 940.239 -0.621934 -3.41076 0
M  V30 9161 C 939.3 -1.75194 -3.91926 0
M  V30 9162 C 938.533 -1.36359 -5.15986 0
M  V30 9163 O 938.756 -0.247265 -5.69864 0
M  V30 9164 O 937.69 -2.18421 -5.60871 0
M  V30 9165 H 941.516 -1.97354 -2.30836 0
M  V30 9166 H 939.101 -1.01986 -1.09175 0
M  V30 9167 H 940.983 -0.405446 -4.19445 0
M  V30 9168 H 939.658 0.29299 -3.22371 0
M  V30 9169 H 938.565 -2.02305 -3.1468 0
M  V30 9170 H 939.898 -2.64513 -4.15083 0
M  V30 9171 N 941.55 1.18024 -1.04442 0
M  V30 9172 C 942.798 1.87727 -0.74854 0
M  V30 9173 C 943.119 1.80975 0.726156 0
M  V30 9174 O 942.389 1.23061 1.52423 0
M  V30 9175 H 940.969 0.694974 -0.273897 0
M  V30 9176 H 943.631 1.43213 -1.32197 0
M  V30 9177 H 942.727 2.93665 -1.05674 0
M  V30 9178 N 943.028 0.824394 1.34319 0
M  V30 9179 C 944.305 0.335692 1.92698 0
M  V30 9180 C 944.685 -1.17715 1.75232 0
M  V30 9181 O 944.033 -1.98493 1.13194 0
M  V30 9182 C 944.243 0.766647 3.40475 0
M  V30 9183 C 945.591 0.766323 4.17627 0
M  V30 9184 O 946.615 0.709321 3.49066 0
M  V30 9185 O 945.474 0.840856 5.39992 0
M  V30 9186 H 942.568 0.0919996 0.821867 0
M  V30 9187 H 945.114 0.909282 1.43283 0
M  V30 9188 H 943.886 1.80859 3.46995 0
M  V30 9189 H 943.509 0.168833 3.97241 0
M  V30 9190 N 944.506 -1.46559 0.579492 0
M  V30 9191 C 945.439 -2.27287 -0.203894 0
M  V30 9192 C 946.417 -1.3543 -0.899865 0
M  V30 9193 O 947.601 -1.64836 -0.914398 0
M  V30 9194 C 944.728 -3.13077 -1.2923 0
M  V30 9195 C 943.774 -4.20675 -0.702505 0
M  V30 9196 S 944.607 -5.3345 0.468136 0
M  V30 9197 C 945.763 -6.22806 -0.621544 0
M  V30 9198 H 945.996 -2.93382 0.481083 0
M  V30 9199 H 943.529 -1.49992 0.366311 0
M  V30 9200 H 945.487 -3.63069 -1.91548 0
M  V30 9201 H 944.148 -2.46302 -1.94921 0
M  V30 9202 H 943.341 -4.80516 -1.52053 0
M  V30 9203 H 942.943 -3.73678 -0.155046 0
M  V30 9204 H 945.235 -6.60503 -1.50803 0
M  V30 9205 H 946.178 -7.08075 -0.059961 0
M  V30 9206 H 946.586 -5.56882 -0.924242 0
M  V30 9207 N 945.984 -0.3171 -1.54377 0
M  V30 9208 C 947.214 0.289138 -2.04567 0
M  V30 9209 C 947.622 1.46833 -1.19318 0
M  V30 9210 O 946.965 1.82436 -0.215141 0
M  V30 9211 C 947.027 0.792994 -3.50645 0
M  V30 9212 C 946.691 -0.263033 -4.56242 0
M  V30 9213 C 947.688 -1.09694 -5.08196 0
M  V30 9214 C 945.373 -0.409364 -5.00629 0
M  V30 9215 C 947.367 -2.06297 -6.03092 0
M  V30 9216 C 945.054 -1.37882 -5.95342 0
M  V30 9217 C 946.052 -2.20409 -6.46459 0
M  V30 9218 O 945.74 -3.15708 -7.39313 0
M  V30 9219 H 945.472 0.0644005 -0.672925 0
M  V30 9220 H 948.026 -0.459438 -2.00196 0
M  V30 9221 H 946.256 1.59237 -3.52392 0
M  V30 9222 H 947.945 1.31687 -3.83944 0
M  V30 9223 H 948.711 -0.994842 -4.74687 0
M  V30 9224 H 944.59 0.223091 -4.6046 0
M  V30 9225 H 948.134 -2.70751 -6.42915 0
M  V30 9226 H 944.031 -1.48158 -6.28267 0
M  V30 9227 H 944.799 -3.10873 -7.57166 0
M  V30 9228 N 947.462 1.57535 -0.0451378 0
M  V30 9229 C 948.372 2.14653 0.946646 0
M  V30 9230 C 949.388 1.10279 1.3459 0
M  V30 9231 O 950.564 1.42417 1.42405 0
M  V30 9232 C 947.629 2.67533 2.20515 0
M  V30 9233 C 946.69 3.86682 1.86481 0
M  V30 9234 C 945.923 4.37031 3.06332 0
M  V30 9235 O 946.146 3.86481 4.1951 0
M  V30 9236 O 945.08 5.28691 2.87697 0
M  V30 9237 H 948.906 2.99706 0.49091 0
M  V30 9238 H 946.491 1.48355 0.17641 0
M  V30 9239 H 948.373 3.01542 2.94365 0
M  V30 9240 H 947.048 1.85554 2.65238 0
M  V30 9241 H 945.955 3.57573 1.09966 0
M  V30 9242 H 947.288 4.69873 1.46562 0
M  V30 9243 N 948.94 -0.228186 1.55939 0
M  V30 9244 C 950.165 -0.974795 1.83064 0
M  V30 9245 C 950.59 -1.77426 0.624624 0
M  V30 9246 O 949.948 -1.76211 -0.426556 0
M  V30 9247 C 949.996 -1.87342 3.08116 0
M  V30 9248 O 949.1 -2.96784 2.86344 0
M  V30 9249 H 948.441 -0.276379 0.603747 0
M  V30 9250 H 950.971 -0.243507 2.03146 0
M  V30 9251 H 950.981 -2.28451 3.38045 0
M  V30 9252 H 949.656 -1.28575 3.95526 0
M  V30 9253 H 948.233 -2.59669 2.67631 0
M  V30 9254 N 950.418 -1.49637 -0.494624 0
M  V30 9255 C 951.381 -1.66252 -1.57775 0
M  V30 9256 C 952.381 -0.534054 -1.51672 0
M  V30 9257 O 953.571 -0.800637 -1.54711 0
M  V30 9258 C 950.703 -1.66584 -2.97426 0
M  V30 9259 H 951.896 -2.62864 -1.4437 0
M  V30 9260 H 949.449 -1.38764 -0.719323 0
M  V30 9261 H 950.184 -0.715798 -3.16302 0
M  V30 9262 H 949.969 -2.48543 -3.03264 0
M  V30 9263 H 951.459 -1.81474 -3.76108 0
M  V30 9264 N 951.896 0.746133 -1.38819 0
M  V30 9265 C 952.844 1.88137 -1.36774 0
M  V30 9266 C 953.838 1.67508 -0.252495 0
M  V30 9267 O 955.044 1.74985 -0.421935 0
M  V30 9268 H 951.419 0.619116 -0.426849 0
M  V30 9269 H 953.39 1.86978 -2.32555 0
M  V30 9270 C 952.139 3.25703 -1.21708 0
M  V30 9271 H 951.462 3.42168 -2.06788 0
M  V30 9272 H 952.902 4.05361 -1.24332 0
M  V30 9273 C 951.361 3.36816 0.0754257 0
M  V30 9274 O 951.891 3.87742 1.04972 0
M  V30 9275 N 950.097 2.90287 0.134761 0
M  V30 9276 H 949.644 2.49034 -0.658779 0
M  V30 9277 H 949.602 2.98103 0.999109 0
M  V30 9278 N 953.375 1.23811 0.975125 0
M  V30 9279 C 954.6 1.10109 1.75757 0
M  V30 9280 C 955.025 -0.342922 1.84948 0
M  V30 9281 O 954.383 -1.24814 1.31496 0
M  V30 9282 C 954.431 1.73724 3.15994 0
M  V30 9283 O 953.535 1.00297 4.00018 0
M  V30 9284 H 952.876 0.385627 0.540544 0
M  V30 9285 H 955.406 1.63971 1.22372 0
M  V30 9286 H 955.416 1.79178 3.6655 0
M  V30 9287 H 954.091 2.78794 3.0862 0
M  V30 9288 H 952.668 1.02575 3.58515 0
M  V30 9289 N 954.853 -1.17469 1.05066 0
M  V30 9290 C 956.269 -1.39699 0.771769 0
M  V30 9291 C 956.469 -1.91253 -0.634382 0
M  V30 9292 O 955.525 -2.10334 -1.39699 0
M  V30 9293 C 956.838 -2.38886 1.82631 0
M  V30 9294 C 958.386 -2.52595 1.84838 0
M  V30 9295 C 958.861 -3.55054 2.89311 0
M  V30 9296 N 960.352 -3.6257 2.88266 0
M  V30 9297 C 961.087 -4.41603 3.65752 0
M  V30 9298 N 960.583 -5.24162 4.53019 0
M  V30 9299 N 962.376 -4.36464 3.54197 0
M  V30 9300 H 954.527 -0.823355 1.95792 0
M  V30 9301 H 956.79 -0.42432 0.847736 0
M  V30 9302 H 956.496 -2.08075 2.83545 0
M  V30 9303 H 956.37 -3.38371 1.66687 0
M  V30 9304 H 958.757 -2.82717 0.845888 0
M  V30 9305 H 958.838 -1.53188 2.04859 0
M  V30 9306 H 958.482 -3.2567 3.89745 0
M  V30 9307 H 958.412 -4.54162 2.66542 0
M  V30 9308 H 960.903 -3.03625 2.24989 0
M  V30 9309 H 961.216 -5.81646 5.0883 0
M  V30 9310 H 959.561 -5.23547 4.57081 0
M  V30 9311 H 962.752 -3.7102 2.85416 0
M  V30 9312 H 962.925 -4.97814 4.14832 0
M  V30 9313 N 956.331 -0.831506 -1.3388 0
M  V30 9314 C 957.608 -0.345907 -1.92517 0
M  V30 9315 C 957.988 1.16784 -1.75854 0
M  V30 9316 O 957.336 1.97889 -1.14245 0
M  V30 9317 C 957.546 -0.784692 -3.40064 0
M  V30 9318 C 958.894 -0.78846 -4.17215 0
M  V30 9319 O 959.918 -0.727823 -3.48685 0
M  V30 9320 O 958.777 -0.869481 -5.39539 0
M  V30 9321 H 955.871 -0.0963568 -0.821367 0
M  V30 9322 H 958.417 -0.916868 -1.42799 0
M  V30 9323 H 957.189 -1.82697 -3.46031 0
M  V30 9324 H 956.812 -0.189897 -3.97146 0
M  V30 9325 N 957.809 1.4625 -0.587256 0
M  V30 9326 C 958.719 2.34147 0.145744 0
M  V30 9327 C 959.735 1.50026 0.881376 0
M  V30 9328 O 960.911 1.82884 0.843539 0
M  V30 9329 C 957.976 3.27294 1.14366 0
M  V30 9330 C 957.037 4.27317 0.412199 0
M  V30 9331 C 956.27 5.16013 1.36257 0
M  V30 9332 O 956.493 5.0773 2.59934 0
M  V30 9333 O 955.427 5.95569 0.870681 0
M  V30 9334 H 959.253 2.98187 -0.576055 0
M  V30 9335 H 956.838 1.45299 -0.347628 0
M  V30 9336 H 958.72 3.84747 1.71894 0
M  V30 9337 H 957.395 2.65845 1.84684 0
M  V30 9338 H 956.302 3.73538 -0.205036 0
M  V30 9339 H 957.635 4.91564 -0.250104 0
M  V30 9340 N 959.287 0.325282 1.54207 0
M  V30 9341 C 960.517 -0.278285 2.04717 0
M  V30 9342 C 960.925 -1.46198 1.20095 0
M  V30 9343 O 960.268 -1.82319 0.224813 0
M  V30 9344 C 960.33 -0.774387 3.51061 0
M  V30 9345 C 959.994 0.287225 4.56096 0
M  V30 9346 C 960.991 1.12388 5.07607 0
M  V30 9347 C 958.676 0.435908 5.00405 0
M  V30 9348 C 960.67 2.09492 6.0199 0
M  V30 9349 C 958.357 1.41037 5.94602 0
M  V30 9350 C 959.355 2.23834 6.45281 0
M  V30 9351 O 959.043 3.19625 7.37628 0
M  V30 9352 H 958.775 -0.0608309 0.673257 0
M  V30 9353 H 961.329 0.470049 1.99949 0
M  V30 9354 H 959.559 -1.57366 3.53232 0
M  V30 9355 H 961.248 -1.29649 3.84637 0
M  V30 9356 H 962.014 1.02 4.74153 0
M  V30 9357 H 957.893 -0.198668 4.60572 0
M  V30 9358 H 961.437 2.74157 6.4147 0
M  V30 9359 H 957.334 1.51487 6.27473 0
M  V30 9360 H 958.102 3.14884 7.55507 0
M  V30 9361 N 960.765 -1.57509 0.0534917 0
M  V30 9362 C 961.995 -1.96812 -0.628386 0
M  V30 9363 C 962.403 -0.929808 -1.64776 0
M  V30 9364 O 961.746 0.0941155 -1.83459 0
M  V30 9365 C 961.808 -3.32361 -1.37027 0
M  V30 9366 C 961.472 -4.54185 -0.506465 0
M  V30 9367 C 962.469 -5.19398 0.228412 0
M  V30 9368 C 960.154 -5.00398 -0.43671 0
M  V30 9369 C 962.148 -6.29162 1.02146 0
M  V30 9370 C 959.835 -6.10039 0.360022 0
M  V30 9371 C 960.833 -6.74282 1.08779 0
M  V30 9372 O 960.521 -7.81814 1.87142 0
M  V30 9373 H 960.253 -0.65257 -0.176432 0
M  V30 9374 H 962.807 -2.05067 0.116908 0
M  V30 9375 H 961.037 -3.20667 -2.16125 0
M  V30 9376 H 962.726 -3.56395 -1.94261 0
M  V30 9377 H 963.492 -4.84651 0.184003 0
M  V30 9378 H 959.371 -4.50183 -0.992772 0
M  V30 9379 H 962.915 -6.79238 1.59002 0
M  V30 9380 H 958.812 -6.44222 0.406061 0
M  V30 9381 H 959.58 -7.98602 1.79378 0
M  V30 9382 N 962.243 0.219913 -1.56058 0
M  V30 9383 C 963.193 1.27606 -1.88946 0
M  V30 9384 C 964.177 1.42209 -0.752691 0
M  V30 9385 O 965.369 1.44996 -1.01514 0
M  V30 9386 C 962.498 2.62614 -2.21108 0
M  V30 9387 C 961.584 2.51906 -3.4118 0
M  V30 9388 N 961.975 2.10851 -4.59756 0
M  V30 9389 C 960.273 2.82861 -3.44827 0
M  V30 9390 C 960.974 2.11434 -5.41914 0
M  V30 9391 N 959.95 2.51985 -4.81669 0
M  V30 9392 H 963.752 0.94957 -2.78137 0
M  V30 9393 H 961.266 0.428468 -1.56646 0
M  V30 9394 H 963.263 3.38869 -2.42844 0
M  V30 9395 H 961.923 2.96108 -1.3323 0
M  V30 9396 H 962.934 1.81956 -4.84884 0
M  V30 9397 H 959.611 3.20716 -2.67297 0
M  V30 9398 H 961.001 1.81803 -6.46836 0
M  V30 9399 N 963.721 1.49897 0.486681 0
M  V30 9400 C 964.651 1.7054 1.59494 0
M  V30 9401 C 965.632 0.554184 1.60819 0
M  V30 9402 O 966.817 0.791617 1.77333 0
M  V30 9403 C 963.947 1.78517 2.97908 0
M  V30 9404 C 962.901 2.93571 3.11449 0
M  V30 9405 C 962.227 2.86674 4.51356 0
M  V30 9406 C 963.527 4.34308 2.90127 0
M  V30 9407 H 965.221 2.63329 1.42472 0
M  V30 9408 H 962.767 1.2672 0.683969 0
M  V30 9409 H 964.72 1.91544 3.75352 0
M  V30 9410 H 963.444 0.823381 3.16051 0
M  V30 9411 H 962.103 2.80169 2.36433 0
M  V30 9412 H 961.751 1.88373 4.66395 0
M  V30 9413 H 961.451 3.63903 4.61355 0
M  V30 9414 H 962.975 3.01728 5.30841 0
M  V30 9415 H 964.389 4.48317 3.57331 0
M  V30 9416 H 962.786 5.12869 3.11585 0
M  V30 9417 H 963.856 4.47759 1.86119 0
M  V30 9418 N 965.199 -0.738761 1.39212 0
M  V30 9419 C 966.129 -1.86602 1.40364 0
M  V30 9420 C 967.11 -1.67984 0.267495 0
M  V30 9421 O 968.295 -1.88358 0.472765 0
M  V30 9422 C 965.425 -3.24308 1.24265 0
M  V30 9423 C 964.379 -3.57557 2.35239 0
M  V30 9424 C 963.705 -4.94159 2.04233 0
M  V30 9425 C 965.005 -3.60914 3.77543 0
M  V30 9426 H 966.699 -1.85896 2.34698 0
M  V30 9427 H 964.245 -0.892959 1.1297 0
M  V30 9428 H 966.198 -4.02838 1.23692 0
M  V30 9429 H 964.922 -3.25531 0.263974 0
M  V30 9430 H 963.581 -2.81354 2.35022 0
M  V30 9431 H 963.229 -4.91959 1.04813 0
M  V30 9432 H 962.929 -5.17373 2.78567 0
M  V30 9433 H 964.453 -5.7505 2.05303 0
M  V30 9434 H 965.867 -4.29528 3.79709 0
M  V30 9435 H 964.264 -3.95644 4.51205 0
M  V30 9436 H 965.334 -2.60803 4.08791 0
M  V30 9437 N 966.677 -1.24326 -0.968545 0
M  V30 9438 C 967.64 -1.03591 -2.04454 0
M  V30 9439 C 968.64 0.0064809 -1.60799 0
M  V30 9440 O 969.83 -0.234404 -1.72616 0
M  V30 9441 C 966.962 -0.56992 -3.36102 0
M  V30 9442 H 968.155 -1.99092 -2.24282 0
M  V30 9443 H 965.708 -1.06537 -1.14366 0
M  V30 9444 H 966.443 0.388325 -3.21967 0
M  V30 9445 H 966.228 -1.32227 -3.69132 0
M  V30 9446 H 967.718 -0.445854 -4.15213 0
M  V30 9447 N 968.156 1.1691 -1.05688 0
M  V30 9448 C 969.066 2.24735 -0.67315 0
M  V30 9449 C 970.082 1.71252 0.308043 0
M  V30 9450 O 971.258 2.00772 0.158889 0
M  V30 9451 C 968.323 3.4665 -0.059026 0
M  V30 9452 C 967.384 4.15198 -1.0913 0
M  V30 9453 C 966.617 5.31292 -0.50639 0
M  V30 9454 O 966.84 5.663 0.682692 0
M  V30 9455 O 965.774 5.88923 -1.2431 0
M  V30 9456 H 969.6 2.59855 -1.57191 0
M  V30 9457 H 967.185 1.24306 -0.828751 0
M  V30 9458 H 969.067 4.20455 0.282018 0
M  V30 9459 H 967.742 3.13316 0.813304 0
M  V30 9460 H 966.649 3.43389 -1.48442 0
M  V30 9461 H 967.982 4.52571 -1.93495 0
M  V30 9462 N 969.634 0.838594 1.33437 0
M  V30 9463 C 970.581 0.269609 2.2922 0
M  V30 9464 C 971.551 -0.614429 1.54318 0
M  V30 9465 O 972.736 -0.552756 1.82618 0
M  V30 9466 C 969.876 -0.549527 3.40697 0
M  V30 9467 C 968.989 0.358502 4.3051 0
M  V30 9468 C 968.124 -0.471709 5.29101 0
M  V30 9469 C 967.163 0.434728 6.10554 0
M  V30 9470 N 966.3 -0.357339 7.0119 0
M  V30 9471 H 971.14 1.09172 2.77282 0
M  V30 9472 H 968.677 0.549832 1.36438 0
M  V30 9473 H 970.635 -1.03992 4.04032 0
M  V30 9474 H 969.265 -1.33661 2.93828 0
M  V30 9475 H 968.317 0.967204 3.67899 0
M  V30 9476 H 969.629 1.05483 4.87519 0
M  V30 9477 H 968.783 -1.02594 5.97963 0
M  V30 9478 H 967.522 -1.20147 4.72669 0
M  V30 9479 H 966.527 1.00097 5.40611 0
M  V30 9480 H 967.752 1.16285 6.6907 0
M  V30 9481 H 965.698 -1.07049 6.47207 0
M  V30 9482 H 965.615 0.280277 7.5548 0
M  V30 9483 H 966.883 -0.893814 7.74359 0
M  V30 9484 N 971.112 -1.45937 0.595003 0
M  V30 9485 C 972.361 -2.01529 0.0829531 0
M  V30 9486 C 972.674 -1.47071 -1.28955 0
M  V30 9487 O 973.88 -1.94561 -1.89363 0
M  V30 9488 C 972.336 -3.59767 0.0976597 0
M  V30 9489 C 971.944 -4.23223 1.46924 0
M  V30 9490 C 973.688 -4.22972 -0.359805 0
M  V30 9491 C 971.595 -5.73576 1.44101 0
M  V30 9492 H 970.525 -0.753508 0.0272425 0
M  V30 9493 H 973.176 -1.67541 0.748473 0
M  V30 9494 H 971.558 -3.90888 -0.634268 0
M  V30 9495 H 972.732 -4.03695 2.22187 0
M  V30 9496 H 971.047 -3.72161 1.86775 0
M  V30 9497 H 973.644 -5.33202 -0.39991 0
M  V30 9498 H 973.987 -3.92765 -1.37991 0
M  V30 9499 H 974.52 -3.96523 0.31845 0
M  V30 9500 H 971.259 -6.08462 2.43831 0
M  V30 9501 H 970.779 -5.95332 0.730767 0
M  V30 9502 H 972.458 -6.36531 1.1592 0
M  V30 9503 N 972.59 -0.333456 -1.54032 0
M  V30 9504 C 973.82 0.267425 -2.04862 0
M  V30 9505 C 974.228 1.45559 -1.20869 0
M  V30 9506 O 973.571 1.82197 -0.234478 0
M  V30 9507 C 973.633 0.755759 -3.51466 0
M  V30 9508 C 973.297 -0.311409 -4.55938 0
M  V30 9509 C 974.294 -1.15078 -5.07004 0
M  V30 9510 C 971.979 -0.462439 -5.00167 0
M  V30 9511 C 973.973 -2.12682 -6.0087 0
M  V30 9512 C 971.66 -1.44188 -5.93846 0
M  V30 9513 C 972.658 -2.27253 -6.44085 0
M  V30 9514 O 972.346 -3.23532 -7.35923 0
M  V30 9515 H 972.078 0.0572596 -0.673571 0
M  V30 9516 H 974.632 -0.480646 -1.99697 0
M  V30 9517 H 972.862 1.55491 -3.54062 0
M  V30 9518 H 974.551 1.27607 -3.8532 0
M  V30 9519 H 975.317 -1.04513 -4.73605 0
M  V30 9520 H 971.196 0.17424 -4.60671 0
M  V30 9521 H 974.74 -2.77555 -6.40007 0
M  V30 9522 H 970.637 -1.54813 -6.2666 0
M  V30 9523 H 971.405 -3.18886 -7.53826 0
M  V30 9524 N 974.068 1.57479 -0.061844 0
M  V30 9525 C 975.015 2.12152 0.908862 0
M  V30 9526 C 975.985 1.03152 1.30188 0
M  V30 9527 O 977.17 1.3076 1.38948 0
M  V30 9528 C 974.31 2.6796 2.17465 0
M  V30 9529 C 973.423 3.91083 1.83517 0
M  V30 9530 C 972.558 4.35169 3.04633 0
M  V30 9531 C 971.597 5.50964 2.66655 0
M  V30 9532 N 970.734 5.90055 3.80499 0
M  V30 9533 H 975.574 2.94797 0.435743 0
M  V30 9534 H 973.111 1.45686 0.203445 0
M  V30 9535 H 975.069 2.98421 2.91548 0
M  V30 9536 H 973.699 1.88096 2.62335 0
M  V30 9537 H 972.751 3.67146 0.995381 0
M  V30 9538 H 974.063 4.75214 1.51569 0
M  V30 9539 H 973.217 4.67239 3.87005 0
M  V30 9540 H 971.956 3.49871 3.39767 0
M  V30 9541 H 970.961 5.18556 1.82703 0
M  V30 9542 H 972.186 6.37986 2.32702 0
M  V30 9543 H 970.132 5.07708 4.15414 0
M  V30 9544 H 970.049 6.68903 3.52285 0
M  V30 9545 H 971.317 6.26744 4.63479 0
M  V30 9546 N 975.546 -0.211634 1.56173 0
M  V30 9547 C 976.795 -0.932647 1.78842 0
M  V30 9548 C 977.108 -1.85103 0.63217 0
M  V30 9549 O 978.314 -2.61143 0.742746 0
M  V30 9550 C 976.77 -1.70866 3.16753 0
M  V30 9551 C 976.378 -0.835934 4.40132 0
M  V30 9552 C 978.122 -2.4203 3.48743 0
M  V30 9553 C 976.029 -1.60987 5.69067 0
M  V30 9554 H 974.959 -0.351983 0.666801 0
M  V30 9555 H 977.61 -0.186284 1.82552 0
M  V30 9556 H 975.992 -2.4983 3.07247 0
M  V30 9557 H 977.166 -0.0861298 4.60719 0
M  V30 9558 H 975.481 -0.235941 4.15731 0
M  V30 9559 H 978.078 -3.00453 4.42303 0
M  V30 9560 H 978.421 -3.15406 2.71707 0
M  V30 9561 H 978.954 -1.70048 3.59623 0
M  V30 9562 H 975.693 -0.9192 6.49023 0
M  V30 9563 H 975.213 -2.33403 5.52524 0
M  V30 9564 H 976.892 -2.16798 6.09596 0
M  V30 9565 N 977.024 -1.50153 -0.478725 0
M  V30 9566 C 977.956 -1.64603 -1.59494 0
M  V30 9567 C 978.969 -0.527789 -1.54007 0
M  V30 9568 O 980.158 -0.80069 -1.59534 0
M  V30 9569 C 977.258 -1.60738 -2.98356 0
M  V30 9570 C 976.431 -2.88468 -3.28794 0
M  V30 9571 C 975.49 -2.77349 -4.47173 0
M  V30 9572 O 974.516 -3.51302 -4.47857 0
M  V30 9573 N 975.718 -1.9039 -5.4839 0
M  V30 9574 H 978.483 -2.6088 -1.47518 0
M  V30 9575 H 976.044 -1.47521 -0.667011 0
M  V30 9576 H 978.036 -1.50923 -3.75505 0
M  V30 9577 H 976.606 -0.722273 -3.04141 0
M  V30 9578 H 975.826 -3.12467 -2.40329 0
M  V30 9579 H 977.114 -3.73102 -3.45937 0
M  V30 9580 H 976.512 -1.29606 -5.50653 0
M  V30 9581 H 975.069 -1.86484 -6.24553 0
M  V30 9582 N 978.502 0.731368 -1.39602 0
M  V30 9583 C 979.449 1.84541 -1.38612 0
M  V30 9584 C 980.419 1.64279 -0.245287 0
M  V30 9585 O 981.604 1.85635 -0.440954 0
M  V30 9586 C 978.744 3.22092 -1.23897 0
M  V30 9587 C 977.857 3.54034 -2.47555 0
M  V30 9588 C 976.992 4.81007 -2.25402 0
M  V30 9589 C 976.031 5.05804 -3.44716 0
M  V30 9590 N 975.168 6.23981 -3.21857 0
M  V30 9591 H 980.008 1.84722 -2.33841 0
M  V30 9592 H 977.545 0.902569 -1.16156 0
M  V30 9593 H 979.503 4.01499 -1.13376 0
M  V30 9594 H 978.133 3.2118 -0.322958 0
M  V30 9595 H 977.185 2.69301 -2.68665 0
M  V30 9596 H 978.497 3.68275 -3.36415 0
M  V30 9597 H 977.651 5.68401 -2.12143 0
M  V30 9598 H 976.39 4.68946 -1.33943 0
M  V30 9599 H 975.395 4.1687 -3.58468 0
M  V30 9600 H 976.62 5.19747 -4.37081 0
M  V30 9601 H 974.566 6.13202 -2.33065 0
M  V30 9602 H 974.483 6.38826 -4.04274 0
M  V30 9603 H 975.751 7.14205 -3.123 0
M  V30 9604 N 979.98 1.24838 0.961938 0
M  V30 9605 C 980.89 1.06304 2.09133 0
M  V30 9606 C 981.906 0.00221475 1.74 0
M  V30 9607 O 983.082 0.201611 2.00388 0
M  V30 9608 C 980.147 0.676117 3.40043 0
M  V30 9609 C 979.208 1.81407 3.89089 0
M  V30 9610 C 978.441 1.44551 5.13752 0
M  V30 9611 O 978.664 0.337894 5.69398 0
M  V30 9612 O 977.598 2.27316 5.57325 0
M  V30 9613 H 981.424 2.01001 2.27667 0
M  V30 9614 H 979.009 1.0371 1.07539 0
M  V30 9615 H 980.891 0.472124 4.18747 0
M  V30 9616 H 979.566 -0.241667 3.22797 0
M  V30 9617 H 978.473 2.07286 3.11421 0
M  V30 9618 H 979.806 2.71083 4.10822 0
M  V30 9619 N 981.458 -1.16348 1.06306 0
M  V30 9620 C 982.388 -2.2291 0.695234 0
M  V30 9621 C 983.369 -1.67208 -0.312343 0
M  V30 9622 O 984.554 -1.93293 -0.187442 0
M  V30 9623 C 981.684 -3.47205 0.0810149 0
M  V30 9624 C 980.638 -4.15801 1.01458 0
M  V30 9625 C 979.964 -5.3405 0.263656 0
M  V30 9626 C 981.264 -4.66766 2.34365 0
M  V30 9627 H 982.958 -2.53934 1.58613 0
M  V30 9628 H 980.504 -1.22056 0.76409 0
M  V30 9629 H 982.457 -4.2098 -0.18818 0
M  V30 9630 H 981.181 -3.15482 -0.844897 0
M  V30 9631 H 979.84 -3.43954 1.26852 0
M  V30 9632 H 979.488 -4.9858 -0.665378 0
M  V30 9633 H 979.188 -5.80885 0.88582 0
M  V30 9634 H 980.712 -6.106 0.00200994 0
M  V30 9635 H 982.126 -5.3212 2.13356 0
M  V30 9636 H 980.523 -5.24223 2.9208 0
M  V30 9637 H 981.593 -3.82969 2.97426 0
M  V30 9638 N 982.937 -0.845659 -1.3299 0
M  V30 9639 C 983.847 -0.2864 -2.32845 0
M  V30 9640 C 984.863 0.591105 -1.63652 0
M  V30 9641 O 986.039 0.493615 -1.95257 0
M  V30 9642 C 983.104 0.523636 -3.42723 0
M  V30 9643 C 982.165 -0.378945 -4.27624 0
M  V30 9644 C 981.398 0.392526 -5.32255 0
M  V30 9645 O 981.621 1.6235 -5.46808 0
M  V30 9646 O 980.555 -0.237 -6.01433 0
M  V30 9647 H 984.381 -1.11346 -2.82552 0
M  V30 9648 H 981.966 -0.608356 -1.36453 0
M  V30 9649 H 983.848 0.983718 -4.09757 0
M  V30 9650 H 982.523 1.32764 -2.95221 0
M  V30 9651 H 981.43 -0.887012 -3.63432 0
M  V30 9652 H 982.763 -1.1479 -4.78627 0
M  V30 9653 N 984.415 1.45619 -0.602734 0
M  V30 9654 C 985.325 2.34288 0.120902 0
M  V30 9655 C 986.341 1.50952 0.865414 0
M  V30 9656 O 987.517 1.83768 0.824094 0
M  V30 9657 C 984.582 3.28489 1.10888 0
M  V30 9658 C 983.643 4.2773 0.366853 0
M  V30 9659 C 982.876 5.17429 1.30776 0
M  V30 9660 O 983.099 5.10459 2.54535 0
M  V30 9661 O 982.033 5.96459 0.807464 0
M  V30 9662 H 985.859 2.97559 -0.60765 0
M  V30 9663 H 983.444 1.44922 -0.363019 0
M  V30 9664 H 985.326 3.86549 1.67803 0
M  V30 9665 H 984.001 2.67789 1.81854 0
M  V30 9666 H 982.908 3.73299 -0.244643 0
M  V30 9667 H 984.241 4.91271 -0.302226 0
M  V30 9668 N 985.893 0.34162 1.53853 0
M  V30 9669 C 986.84 -0.516058 2.24957 0
M  V30 9670 C 987.81 -1.09711 1.2471 0
M  V30 9671 O 988.995 -1.13409 1.53438 0
M  V30 9672 C 986.135 -1.66207 3.02439 0
M  V30 9673 C 985.248 -1.10851 4.17536 0
M  V30 9674 C 984.383 -2.22167 4.82509 0
M  V30 9675 C 983.422 -1.64152 5.89678 0
M  V30 9676 N 982.559 -2.69203 6.4844 0
M  V30 9677 H 987.399 0.0968275 2.97843 0
M  V30 9678 H 984.936 0.0595565 1.46979 0
M  V30 9679 H 986.894 -2.33672 3.4562 0
M  V30 9680 H 985.524 -2.24597 2.31853 0
M  V30 9681 H 984.576 -0.324853 3.7901 0
M  V30 9682 H 985.888 -0.644151 4.94623 0
M  V30 9683 H 985.042 -2.97501 5.28751 0
M  V30 9684 H 983.781 -2.71946 4.04842 0
M  V30 9685 H 982.786 -0.873228 5.42821 0
M  V30 9686 H 984.011 -1.15228 6.69253 0
M  V30 9687 H 981.957 -3.1824 5.73637 0
M  V30 9688 H 981.874 -2.27383 7.20994 0
M  V30 9689 H 983.142 -3.44312 6.99335 0
M  V30 9690 N 987.371 -1.57444 0.0701946 0
M  V30 9691 C 988.787 -1.57009 -0.286431 0
M  V30 9692 C 988.987 -1.07946 -1.70147 0
M  V30 9693 O 988.043 -0.744622 -2.41271 0
M  V30 9694 C 989.356 -3.00542 -0.0975466 0
M  V30 9695 C 990.904 -3.12553 -0.167205 0
M  V30 9696 C 991.379 -4.58 -0.00662047 0
M  V30 9697 N 992.87 -4.63158 -0.0622778 0
M  V30 9698 C 993.605 -5.73388 0.0375831 0
M  V30 9699 N 993.101 -6.92537 0.190873 0
M  V30 9700 N 994.894 -5.62097 -0.0193672 0
M  V30 9701 H 987.045 -1.87651 0.995023 0
M  V30 9702 H 989.308 -0.865006 0.387902 0
M  V30 9703 H 989.014 -3.40543 0.878822 0
M  V30 9704 H 988.888 -3.67485 -0.850547 0
M  V30 9705 H 991.275 -2.72439 -1.13406 0
M  V30 9706 H 991.356 -2.48251 0.616871 0
M  V30 9707 H 991 -4.98803 0.956992 0
M  V30 9708 H 990.93 -5.20332 -0.810081 0
M  V30 9709 H 993.421 -3.77475 -0.179229 0
M  V30 9710 H 993.734 -7.72365 0.25926 0
M  V30 9711 H 992.079 -6.94632 0.226214 0
M  V30 9712 H 995.27 -4.67897 -0.137815 0
M  V30 9713 H 995.443 -6.4797 0.0619121 0
M  V30 9714 N 988.849 0.203349 -1.56283 0
M  V30 9715 C 990.265 0.55384 -1.49682 0
M  V30 9716 C 990.465 1.86261 -0.768701 0
M  V30 9717 O 989.521 2.50517 -0.315824 0
M  V30 9718 C 990.834 0.616216 -2.94318 0
M  V30 9719 C 992.382 0.705611 -3.04943 0
M  V30 9720 C 992.857 0.79917 -4.50974 0
M  V30 9721 N 994.348 0.862916 -4.55091 0
M  V30 9722 C 995.083 0.955334 -5.65386 0
M  V30 9723 N 994.579 1.01057 -6.8539 0
M  V30 9724 N 996.372 0.991884 -5.53279 0
M  V30 9725 H 988.523 -0.655244 -2.0204 0
M  V30 9726 H 990.786 -0.232344 -0.919087 0
M  V30 9727 H 990.492 -0.27619 -3.50614 0
M  V30 9728 H 990.366 1.47371 -3.4722 0
M  V30 9729 H 992.753 1.58845 -2.48701 0
M  V30 9730 H 992.834 -0.177921 -2.5518 0
M  V30 9731 H 992.478 -0.0792841 -5.07838 0
M  V30 9732 H 992.408 1.69838 -4.9846 0
M  V30 9733 H 994.899 0.829812 -3.68677 0
M  V30 9734 H 995.212 1.08137 -7.65197 0
M  V30 9735 H 993.557 0.979384 -6.88065 0
M  V30 9736 H 996.748 0.945514 -4.58451 0
M  V30 9737 H 996.921 1.06045 -6.39264 0
M  V30 9738 N 990.327 1.50405 0.470755 0
M  V30 9739 C 991.552 1.65442 1.25075 0
M  V30 9740 C 991.977 0.337612 1.85045 0
M  V30 9741 O 991.335 -0.698555 1.67302 0
M  V30 9742 C 991.383 2.74793 2.33498 0
M  V30 9743 O 990.487 2.36069 3.3815 0
M  V30 9744 H 989.828 0.552728 0.367951 0
M  V30 9745 H 992.358 1.96782 0.560177 0
M  V30 9746 H 992.368 2.97879 2.78804 0
M  V30 9747 H 991.043 3.70363 1.8922 0
M  V30 9748 H 989.62 2.2343 2.98552 0
M  V30 9749 N 991.805 -0.723954 1.39988 0
M  V30 9750 C 993.221 -1.03095 1.21834 0
M  V30 9751 C 993.421 -2.01309 0.0876647 0
M  V30 9752 O 992.477 -2.46277 -0.55714 0
M  V30 9753 C 993.79 -1.58267 2.5568 0
M  V30 9754 C 995.338 -1.70293 2.6262 0
M  V30 9755 C 995.813 -2.28872 3.96713 0
M  V30 9756 N 997.304 -2.36269 3.98411 0
M  V30 9757 C 998.039 -2.82557 4.98948 0
M  V30 9758 N 997.535 -3.28661 6.0988 0
M  V30 9759 N 999.328 -2.81866 4.86321 0
M  V30 9760 H 991.479 -0.0727891 2.12275 0
M  V30 9761 H 993.742 -0.0949029 0.943238 0
M  V30 9762 H 993.448 -0.935642 3.39026 0
M  V30 9763 H 993.322 -2.56914 2.76179 0
M  V30 9764 H 995.709 -2.34115 1.7965 0
M  V30 9765 H 995.79 -0.70268 2.45959 0
M  V30 9766 H 995.434 -1.65675 4.80119 0
M  V30 9767 H 995.364 -3.29595 4.107 0
M  V30 9768 H 997.855 -2.03697 3.18302 0
M  V30 9769 H 998.168 -3.62524 6.82493 0
M  V30 9770 H 996.513 -3.26641 6.13458 0
M  V30 9771 H 999.704 -2.45179 3.98754 0
M  V30 9772 H 999.877 -3.17626 5.64817 0
M  V30 9773 N 993.283 -1.25346 -0.955304 0
M  V30 9774 C 994.213 -1.08152 -2.06943 0
M  V30 9775 C 995.194 0.00922598 -1.70097 0
M  V30 9776 O 996.379 -0.160181 -1.93538 0
M  V30 9777 C 993.509 -0.698745 -3.40198 0
M  V30 9778 C 992.463 -1.73965 -3.9105 0
M  V30 9779 C 991.789 -1.21158 -5.20792 0
M  V30 9780 C 993.089 -3.13829 -4.17503 0
M  V30 9781 H 994.783 -2.01345 -2.21586 0
M  V30 9782 H 992.329 -0.969459 -1.06478 0
M  V30 9783 H 994.282 -0.565394 -4.1759 0
M  V30 9784 H 993.006 0.268892 -3.25491 0
M  V30 9785 H 991.665 -1.86143 -3.15827 0
M  V30 9786 H 991.313 -0.234193 -5.02455 0
M  V30 9787 H 991.013 -1.90728 -5.55785 0
M  V30 9788 H 992.537 -1.09061 -6.00781 0
M  V30 9789 H 993.951 -3.04809 -4.85556 0
M  V30 9790 H 992.348 -3.80863 -4.63749 0
M  V30 9791 H 993.418 -3.6094 -3.23806 0
M  V30 9792 N 994.761 1.15782 -1.06922 0
M  V30 9793 C 995.711 2.18373 -0.655537 0
M  V30 9794 C 996.695 1.57745 0.317084 0
M  V30 9795 O 997.887 1.76511 0.131509 0
M  V30 9796 C 995.016 3.43263 -0.0502314 0
M  V30 9797 C 994.102 4.10954 -1.04773 0
M  V30 9798 N 994.493 4.542 -2.22567 0
M  V30 9799 C 992.791 4.3723 -0.880087 0
M  V30 9800 C 993.492 5.06641 -2.85815 0
M  V30 9801 N 992.468 4.99917 -2.13505 0
M  V30 9802 H 996.27 2.49533 -1.55276 0
M  V30 9803 H 993.784 1.32303 -0.941793 0
M  V30 9804 H 995.781 4.16063 0.264003 0
M  V30 9805 H 994.441 3.13588 0.842167 0
M  V30 9806 H 995.452 4.47727 -2.60309 0
M  V30 9807 H 992.129 4.17481 -0.0402148 0
M  V30 9808 H 993.519 5.50092 -3.85808 0
M  V30 9809 N 996.239 0.8527 1.3254 0
M  V30 9810 C 997.186 0.293905 2.28921 0
M  V30 9811 C 998.156 -0.598027 1.54961 0
M  V30 9812 O 999.341 -0.533355 1.83194 0
M  V30 9813 C 996.481 -0.513361 3.4126 0
M  V30 9814 C 995.594 0.404144 4.30105 0
M  V30 9815 C 994.729 -0.415564 5.29572 0
M  V30 9816 C 993.768 0.499461 6.10059 0
M  V30 9817 N 992.905 -0.282949 7.0153 0
M  V30 9818 H 997.745 1.12107 2.76109 0
M  V30 9819 H 995.282 0.564272 1.35847 0
M  V30 9820 H 997.24 -0.997008 4.05112 0
M  V30 9821 H 995.87 -1.30537 2.95229 0
M  V30 9822 H 994.922 1.00617 3.66852 0
M  V30 9823 H 996.234 1.10648 4.86373 0
M  V30 9824 H 995.388 -0.962458 5.99017 0
M  V30 9825 H 994.127 -1.15127 4.73917 0
M  V30 9826 H 993.132 1.05825 5.39519 0
M  V30 9827 H 994.357 1.23375 6.67799 0
M  V30 9828 H 992.303 -1.00179 6.48306 0
M  V30 9829 H 992.22 0.36039 7.55141 0
M  V30 9830 H 993.488 -0.811632 7.75263 0
M  V30 9831 N 997.718 -1.45297 0.610449 0
M  V30 9832 C 998.65 -2.28742 -0.144884 0
M  V30 9833 C 999.663 -1.40114 -0.828977 0
M  V30 9834 O 1000.85 -1.64461 -0.693887 0
M  V30 9835 C 997.952 -3.15934 -1.22632 0
M  V30 9836 C 997.125 -4.32857 -0.628785 0
M  V30 9837 C 996.184 -5.01237 -1.60148 0
M  V30 9838 O 995.21 -5.57938 -1.12667 0
M  V30 9839 N 996.412 -5.00785 -2.9359 0
M  V30 9840 H 999.177 -2.94207 0.571145 0
M  V30 9841 H 996.738 -1.55517 0.450134 0
M  V30 9842 H 998.73 -3.58545 -1.87691 0
M  V30 9843 H 997.3 -2.52358 -1.84483 0
M  V30 9844 H 996.52 -3.93693 0.199951 0
M  V30 9845 H 997.808 -5.08367 -0.209845 0
M  V30 9846 H 997.206 -4.56014 -3.34765 0
M  V30 9847 H 995.763 -5.4725 -3.54064 0
M  V30 9848 N 999.196 -0.349774 -1.5367 0
M  V30 9849 C 1000.44 0.244343 -2.00617 0
M  V30 9850 C 1000.76 1.50567 -1.23914 0
M  V30 9851 O 1000.03 1.92784 -0.348016 0
M  V30 9852 H 998.615 0.0932792 -0.741153 0
M  V30 9853 H 1001.28 -0.472367 -1.89089 0
M  V30 9854 H 1000.37 0.482433 -3.08349 0
M  V30 9855 N 1000.67 1.57404 -0.0785433 0
M  V30 9856 C 1001.92 1.9292 0.588626 0
M  V30 9857 C 1002.24 0.961106 1.70359 0
M  V30 9858 O 1003.44 1.20934 2.43079 0
M  V30 9859 C 1001.9 3.42729 1.09839 0
M  V30 9860 C 1001.51 4.47998 0.0140773 0
M  V30 9861 C 1003.25 3.87235 1.73924 0
M  V30 9862 C 1001.16 5.88945 0.538269 0
M  V30 9863 H 1000.09 0.720069 0.223645 0
M  V30 9864 H 1002.74 1.8287 -0.15187 0
M  V30 9865 H 1001.12 3.47875 1.89207 0
M  V30 9866 H 1002.29 4.54476 -0.760773 0
M  V30 9867 H 1000.61 4.13001 -0.53095 0
M  V30 9868 H 1003.21 4.89927 2.14186 0
M  V30 9869 H 1003.55 3.24971 2.60191 0
M  V30 9870 H 1004.08 3.84721 1.01168 0
M  V30 9871 H 1000.82 6.5487 -0.287395 0
M  V30 9872 H 1000.34 5.85972 1.28049 0
M  V30 9873 H 1002.02 6.39028 1.01253 0
M  V30 9874 N 1002.15 -0.195058 1.56388 0
M  V30 9875 C 1003.08 -1.24444 1.97575 0
M  V30 9876 C 1004.06 -1.47471 0.847717 0
M  V30 9877 O 1005.25 -1.59208 1.11205 0
M  V30 9878 C 1002.38 -2.58866 2.31529 0
M  V30 9879 C 1001.33 -2.50451 3.47071 0
M  V30 9880 C 1000.66 -3.89146 3.667 0
M  V30 9881 C 1001.96 -2.02953 4.81256 0
M  V30 9882 H 1003.65 -0.902178 2.85484 0
M  V30 9883 H 1001.2 -0.43254 1.3735 0
M  V30 9884 H 1003.15 -3.3246 2.58936 0
M  V30 9885 H 1001.87 -2.94833 1.40502 0
M  V30 9886 H 1000.53 -1.79313 3.19754 0
M  V30 9887 H 1000.18 -4.22466 2.73004 0
M  V30 9888 H 999.882 -3.84391 4.44429 0
M  V30 9889 H 1001.41 -4.64363 3.96484 0
M  V30 9890 H 1002.82 -2.66306 5.07695 0
M  V30 9891 H 1001.22 -2.092 5.62455 0
M  V30 9892 H 1002.29 -0.982757 4.74837 0
M  V30 9893 N 1003.63 -1.50653 -0.462772 0
M  V30 9894 C 1004.88 -1.61737 -1.21184 0
M  V30 9895 C 1005.2 -0.32369 -1.92295 0
M  V30 9896 O 1004.47 0.659269 -1.84473 0
M  V30 9897 H 1003.05 -0.596015 -0.450306 0
M  V30 9898 H 1005.71 -1.87469 -0.533051 0
M  V30 9899 H 1004.81 -2.43262 -1.95525 0
M  V30 9900 N 1005.11 0.71652 -1.4037 0
M  V30 9901 C 1006.06 1.85194 -1.40734 0
M  V30 9902 C 1007.05 1.66934 -0.287969 0
M  V30 9903 O 1008.26 1.74051 -0.458957 0
M  V30 9904 H 1004.63 0.609922 -0.439885 0
M  V30 9905 H 1006.6 1.82003 -2.36468 0
M  V30 9906 C 1005.35 3.23048 -1.28589 0
M  V30 9907 H 1004.67 3.37704 -2.13999 0
M  V30 9908 H 1006.11 4.02633 -1.32902 0
M  V30 9909 C 1004.57 3.369 0.00396512 0
M  V30 9910 O 1005.1 3.89881 0.967243 0
M  V30 9911 N 1003.31 2.90508 0.0731565 0
M  V30 9912 H 1002.86 2.4758 -0.711454 0
M  V30 9913 H 1002.81 3.00155 0.935652 0
M  V30 9914 N 1006.59 1.25851 0.948643 0
M  V30 9915 C 1007.52 1.02549 2.04979 0
M  V30 9916 C 1008.53 -0.0115923 1.62796 0
M  V30 9917 O 1009.72 0.227643 1.77042 0
M  V30 9918 C 1006.82 0.529486 3.34738 0
M  V30 9919 C 1005.99 1.6341 4.05729 0
M  V30 9920 C 1005.05 1.13743 5.1376 0
M  V30 9921 O 1004.08 1.83303 5.38877 0
M  V30 9922 N 1005.28 -0.0181151 5.80497 0
M  V30 9923 H 1008.05 1.97365 2.25537 0
M  V30 9924 H 1005.61 1.17137 1.11761 0
M  V30 9925 H 1007.6 0.181566 4.04293 0
M  V30 9926 H 1006.17 -0.324893 3.10907 0
M  V30 9927 H 1005.39 2.15331 3.30191 0
M  V30 9928 H 1006.68 2.37603 4.49914 0
M  V30 9929 H 1006.07 -0.599198 5.62518 0
M  V30 9930 H 1004.63 -0.307019 6.51077 0
M  V30 9931 N 1008.06 -1.15214 1.07534 0
M  V30 9932 C 1009.48 -1.67628 0.822045 0
M  V30 9933 C 1009.83 -1.8503 -0.652571 0
M  V30 9934 O 1008.95 -1.55497 -1.50498 0
M  V30 9935 C 1009.55 -3.04489 1.48566 0
M  V30 9936 C 1008.11 -3.53974 1.27983 0
M  V30 9937 C 1007.25 -2.29656 1.55414 0
M  V30 9938 H 1010.2 -0.994016 1.23713 0
M  V30 9939 H 1010.22 -3.69509 0.907916 0
M  V30 9940 H 1009.74 -2.91792 2.55888 0
M  V30 9941 H 1007.84 -3.71908 0.226906 0
M  V30 9942 H 1007.95 -4.35298 2.0013 0
M  V30 9943 H 1006.31 -2.35289 0.975251 0
M  V30 9944 H 1007.1 -2.19544 2.63923 0
M  V30 9945 N 1009.54 -0.859717 -1.32086 0
M  V30 9946 C 1010.51 -0.313005 -2.27053 0
M  V30 9947 C 1011.51 0.530191 -1.51808 0
M  V30 9948 O 1012.7 0.340972 -1.7083 0
M  V30 9949 C 1009.83 0.5566 -3.36325 0
M  V30 9950 H 1011.02 -1.15125 -2.76923 0
M  V30 9951 H 1008.57 -0.634463 -1.42843 0
M  V30 9952 H 1009.31 1.41645 -2.91731 0
M  V30 9953 H 1009.09 -0.0470197 -3.92072 0
M  V30 9954 H 1010.58 0.931725 -4.07073 0
M  V30 9955 N 1011.02 1.44971 -0.618145 0
M  V30 9956 C 1011.95 2.33357 0.0815955 0
M  V30 9957 C 1012.93 1.47451 0.848072 0
M  V30 9958 O 1014.12 1.762 0.816532 0
M  V30 9959 C 1011.25 3.30324 1.07253 0
M  V30 9960 C 1010.2 4.25948 0.418563 0
M  V30 9961 C 1009.53 5.12685 1.51849 0
M  V30 9962 C 1010.83 5.18024 -0.66697 0
M  V30 9963 H 1012.52 2.92115 -0.656442 0
M  V30 9964 H 1010.07 1.40465 -0.317129 0
M  V30 9965 H 1012.02 3.91033 1.57069 0
M  V30 9966 H 1010.74 2.69748 1.8413 0
M  V30 9967 H 1009.4 3.66553 -0.0588308 0
M  V30 9968 H 1009.05 4.4847 2.2778 0
M  V30 9969 H 1008.75 5.7747 1.08637 0
M  V30 9970 H 1010.27 5.76264 2.01871 0
M  V30 9971 H 1011.69 5.72744 -0.252448 0
M  V30 9972 H 1010.09 5.91343 -1.02146 0
M  V30 9973 H 1011.16 4.59817 -1.53936 0
M  V30 9974 N 1012.5 0.357919 1.53482 0
M  V30 9975 C 1013.91 -0.122938 1.86295 0
M  V30 9976 C 1014.26 -1.48803 1.27875 0
M  V30 9977 O 1013.39 -2.07978 0.597828 0
M  V30 9978 C 1013.98 -0.229853 3.38019 0
M  V30 9979 C 1012.54 -0.654955 3.70658 0
M  V30 9980 C 1011.69 0.202539 2.76559 0
M  V30 9981 H 1014.64 0.576997 1.47839 0
M  V30 9982 H 1014.66 -1.05481 3.65587 0
M  V30 9983 H 1014.17 0.763825 3.80509 0
M  V30 9984 H 1012.27 -1.65714 3.33721 0
M  V30 9985 H 1012.38 -0.43488 4.77122 0
M  V30 9986 H 1010.75 -0.327388 2.52587 0
M  V30 9987 H 1011.53 1.19361 3.21882 0
M  V30 9988 N 1013.98 -1.5736 0.0868897 0
M  V30 9989 C 1014.94 -2.12436 -0.860439 0
M  V30 9990 C 1015.94 -1.05175 -1.21634 0
M  V30 9991 O 1017.13 -1.31098 -1.14713 0
M  V30 9992 C 1014.26 -2.63818 -2.159 0
M  V30 9993 H 1015.45 -2.97453 -0.382346 0
M  V30 9994 H 1013.01 -1.55458 -0.162009 0
M  V30 9995 H 1013.74 -1.82298 -2.68212 0
M  V30 9996 H 1013.53 -3.42234 -1.91359 0
M  V30 9997 H 1015.02 -3.06452 -2.83685 0
M  V30 9998 N 1015.45 0.186762 -1.56489 0
M  V30 9999 C 1016.87 0.750675 -1.70944 0
M  V30 10000 C 1017.22 1.83483 -0.694858 0
M  V30 10001 O 1016.34 2.159 0.147009 0
M  V30 10002 C 1016.94 1.36843 -3.09934 0
M  V30 10003 C 1015.5 1.87934 -3.26125 0
M  V30 10004 C 1014.64 0.75242 -2.66897 0
M  V30 10005 H 1017.59 -0.0384292 -1.58653 0
M  V30 10006 H 1017.61 2.23795 -3.07727 0
M  V30 10007 H 1017.13 0.579135 -3.83755 0
M  V30 10008 H 1015.23 2.69556 -2.57235 0
M  V30 10009 H 1015.34 2.0354 -4.33715 0
M  V30 10010 H 1013.7 1.16888 -2.26295 0
M  V30 10011 H 1014.49 -0.0247769 -3.43291 0
M  V30 10012 N 1016.93 1.50896 0.454776 0
M  V30 10013 C 1018.18 1.62378 1.20324 0
M  V30 10014 C 1018.5 0.333883 1.9212 0
M  V30 10015 O 1017.77 -0.649477 1.8482 0
M  V30 10016 H 1016.35 0.598395 0.447139 0
M  V30 10017 H 1019.01 1.87749 0.523102 0
M  V30 10018 H 1018.11 2.44296 1.94232 0
M  V30 10019 N 1018.41 -0.709066 1.40748 0
M  V30 10020 C 1019.37 -1.80485 1.41272 0
M  V30 10021 C 1020.37 -1.57872 0.305463 0
M  V30 10022 O 1021.56 -1.64793 0.564691 0
M  V30 10023 C 1018.7 -3.1867 1.21087 0
M  V30 10024 H 1019.89 -1.81417 2.38805 0
M  V30 10025 H 1017.44 -0.915356 1.26692 0
M  V30 10026 H 1018.18 -3.23385 0.243406 0
M  V30 10027 H 1017.96 -3.36484 2.01299 0
M  V30 10028 H 1019.45 -3.98685 1.24257 0
M  V30 10029 N 1019.89 -1.26353 -0.941956 0
M  V30 10030 C 1020.82 -1.03634 -2.04432 0
M  V30 10031 C 1021.83 0.00295864 -1.628 0
M  V30 10032 O 1023.02 -0.237029 -1.76919 0
M  V30 10033 C 1020.12 -0.547231 -3.34453 0
M  V30 10034 C 1019.3 -1.65559 -4.04857 0
M  V30 10035 C 1018.36 -1.16466 -5.13149 0
M  V30 10036 O 1017.38 -1.86158 -5.37898 0
M  V30 10037 N 1018.58 -0.0126703 -5.80499 0
M  V30 10038 H 1021.35 -1.98558 -2.24488 0
M  V30 10039 H 1018.91 -1.17728 -1.11138 0
M  V30 10040 H 1020.9 -0.203004 -4.04191 0
M  V30 10041 H 1019.47 0.308401 -3.11075 0
M  V30 10042 H 1018.69 -2.17079 -3.29044 0
M  V30 10043 H 1019.98 -2.39985 -4.48647 0
M  V30 10044 H 1019.38 0.569358 -5.62828 0
M  V30 10045 H 1017.93 0.272486 -6.5123 0
M  V30 10046 N 1021.37 1.14642 -1.08144 0
M  V30 10047 C 1022.78 1.6719 -0.830923 0
M  V30 10048 C 1023.13 1.85373 0.642749 0
M  V30 10049 O 1022.25 1.56293 1.49671 0
M  V30 10050 C 1022.85 3.03697 -1.50179 0
M  V30 10051 C 1021.41 3.5329 -1.29858 0
M  V30 10052 C 1020.56 2.28828 -1.5663 0
M  V30 10053 H 1023.51 0.987441 -1.24239 0
M  V30 10054 H 1023.53 3.69023 -0.9275 0
M  V30 10055 H 1023.04 2.90431 -2.57432 0
M  V30 10056 H 1021.14 3.71783 -0.246626 0
M  V30 10057 H 1021.25 4.34231 -2.02436 0
M  V30 10058 H 1019.62 2.34769 -0.987716 0
M  V30 10059 H 1020.4 2.18141 -2.65084 0
M  V30 10060 N 1022.85 0.866709 1.31628 0
M  V30 10061 C 1024.26 0.529032 1.79048 0
M  V30 10062 C 1024.61 -0.953871 1.71452 0
M  V30 10063 O 1023.73 -1.74462 1.28031 0
M  V30 10064 C 1024.33 0.953522 3.25105 0
M  V30 10065 C 1022.89 0.667554 3.70433 0
M  V30 10066 C 1022.03 1.14664 2.52483 0
M  V30 10067 H 1024.98 1.05275 1.18756 0
M  V30 10068 H 1025.01 0.274844 3.79506 0
M  V30 10069 H 1024.52 2.03283 3.30602 0
M  V30 10070 H 1022.62 -0.400532 3.70441 0
M  V30 10071 H 1022.73 1.2423 4.62714 0
M  V30 10072 H 1021.1 0.566502 2.4832 0
M  V30 10073 H 1021.88 2.2333 2.60727 0
M  V30 10074 N 1024.32 -1.44642 0.625825 0
M  V30 10075 C 1025.57 -2.02393 0.128391 0
M  V30 10076 C 1025.9 -1.49075 -1.2446 0
M  V30 10077 O 1025.18 -0.672684 -1.82497 0
M  V30 10078 C 1025.46 -3.59934 0.109279 0
M  V30 10079 C 1025.31 -4.23546 1.51423 0
M  V30 10080 C 1026.63 -4.36406 -0.568985 0
M  V30 10081 H 1023.75 -0.735427 0.0481299 0
M  V30 10082 H 1026.39 -1.72277 0.801286 0
M  V30 10083 H 1024.54 -3.85722 -0.463726 0
M  V30 10084 H 1026.22 -4.08882 2.13572 0
M  V30 10085 H 1024.46 -3.81245 2.06966 0
M  V30 10086 H 1025.13 -5.32535 1.45294 0
M  V30 10087 H 1027.61 -4.1602 -0.0817516 0
M  V30 10088 H 1026.48 -5.46122 -0.551527 0
M  V30 10089 H 1026.74 -4.1062 -1.6384 0
M  V30 10090 N 1025.8 -0.366053 -1.5329 0
M  V30 10091 C 1027.05 0.224614 -2.00445 0
M  V30 10092 C 1027.36 1.49829 -1.2574 0
M  V30 10093 O 1028.57 2.16759 -1.63487 0
M  V30 10094 C 1027.03 0.450818 -3.57065 0
M  V30 10095 C 1026.63 -0.808257 -4.40649 0
M  V30 10096 C 1028.38 0.999116 -4.12575 0
M  V30 10097 C 1026.28 -0.551612 -5.88822 0
M  V30 10098 H 1025.21 0.0877114 -0.748881 0
M  V30 10099 H 1027.87 -0.484866 -1.76978 0
M  V30 10100 H 1026.25 1.22157 -3.76688 0
M  V30 10101 H 1027.42 -1.58184 -4.32798 0
M  V30 10102 H 1025.74 -1.27981 -3.96245 0
M  V30 10103 H 1028.33 1.20646 -5.20911 0
M  V30 10104 H 1028.68 1.96139 -3.67199 0
M  V30 10105 H 1029.21 0.288518 -3.96752 0
M  V30 10106 H 1025.95 -1.48423 -6.38475 0
M  V30 10107 H 1025.47 0.183462 -5.99519 0
M  V30 10108 H 1027.15 -0.177307 -6.46757 0
M  V30 10109 N 1027.28 1.57312 -0.0952337 0
M  V30 10110 C 1028.69 1.81589 0.433875 0
M  V30 10111 C 1029.04 1.01086 1.68155 0
M  V30 10112 O 1028.17 0.240272 2.15062 0
M  V30 10113 C 1028.76 3.29366 0.793931 0
M  V30 10114 C 1027.32 3.54407 1.26778 0
M  V30 10115 C 1026.47 2.76035 0.264518 0
M  V30 10116 H 1029.42 1.55426 -0.320675 0
M  V30 10117 H 1029.44 3.42697 1.65345 0
M  V30 10118 H 1028.95 3.87932 -0.114334 0
M  V30 10119 H 1027.05 3.01173 2.19376 0
M  V30 10120 H 1027.17 4.63055 1.22952 0
M  V30 10121 H 1025.53 2.43509 0.746691 0
M  V30 10122 H 1026.31 3.37349 -0.636429 0
M  V30 10123 N 1028.76 -0.17846 1.56586 0
M  V30 10124 C 1029.69 -1.24547 1.92408 0
M  V30 10125 C 1030.7 -1.40849 0.816421 0
M  V30 10126 O 1031.89 -1.40979 1.09486 0
M  V30 10127 C 1028.99 -2.61523 2.15544 0
M  V30 10128 C 1028.16 -2.66613 3.46751 0
M  V30 10129 C 1027.22 -3.84901 3.588 0
M  V30 10130 O 1026.25 -3.71231 4.31482 0
M  V30 10131 N 1027.45 -5.0106 2.9312 0
M  V30 10132 H 1030.22 -0.941275 2.84535 0
M  V30 10133 H 1027.78 -0.368275 1.57656 0
M  V30 10134 H 1029.77 -3.3911 2.20876 0
M  V30 10135 H 1028.34 -2.84362 1.29835 0
M  V30 10136 H 1027.56 -1.75174 3.5314 0
M  V30 10137 H 1028.85 -2.67018 4.33104 0
M  V30 10138 H 1028.25 -5.15067 2.33928 0
M  V30 10139 H 1026.8 -5.76535 3.04057 0
M  V30 10140 N 1030.24 -1.51135 -0.446768 0
M  V30 10141 C 1031.2 -1.71187 -1.52406 0
M  V30 10142 C 1032.2 -0.582037 -1.49897 0
M  V30 10143 O 1033.39 -0.849452 -1.52085 0
M  V30 10144 C 1030.52 -1.75962 -2.91976 0
M  V30 10145 H 1031.71 -2.67324 -1.35934 0
M  V30 10146 H 1029.27 -1.40982 -0.674813 0
M  V30 10147 H 1030 -0.816065 -3.13864 0
M  V30 10148 H 1029.79 -2.58065 -2.95203 0
M  V30 10149 H 1031.28 -1.93347 -3.70144 0
M  V30 10150 N 1031.71 0.701592 -1.41122 0
M  V30 10151 C 1032.65 1.8268 -1.38422 0
M  V30 10152 C 1033.66 1.60244 -0.287342 0
M  V30 10153 O 1034.85 1.69859 -0.548658 0
M  V30 10154 C 1031.95 3.19338 -1.13475 0
M  V30 10155 C 1031.12 3.68853 -2.35088 0
M  V30 10156 C 1030.18 4.84163 -2.06089 0
M  V30 10157 O 1029.21 4.9609 -2.79077 0
M  V30 10158 N 1030.41 5.70972 -1.04743 0
M  V30 10159 H 1033.17 1.8549 -2.35401 0
M  V30 10160 H 1030.73 0.883682 -1.35656 0
M  V30 10161 H 1032.73 3.94095 -0.920377 0
M  V30 10162 H 1031.3 3.11589 -0.251152 0
M  V30 10163 H 1030.52 2.8507 -2.72266 0
M  V30 10164 H 1031.8 3.98673 -3.16129 0
M  V30 10165 H 1031.2 5.63961 -0.443221 0
M  V30 10166 H 1029.76 6.45654 -0.892949 0
M  V30 10167 N 1033.19 1.2685 0.935242 0
M  V30 10168 C 1034.6 1.11569 1.49697 0
M  V30 10169 C 1034.95 -0.301952 1.93863 0
M  V30 10170 O 1034.08 -1.19408 1.80473 0
M  V30 10171 C 1034.67 2.01918 2.72056 0
M  V30 10172 C 1033.23 1.90765 3.24477 0
M  V30 10173 C 1032.38 1.94918 1.97237 0
M  V30 10174 H 1035.33 1.39853 0.750116 0
M  V30 10175 H 1035.35 1.57056 3.46574 0
M  V30 10176 H 1034.86 3.05088 2.39881 0
M  V30 10177 H 1032.96 0.905521 3.61429 0
M  V30 10178 H 1033.08 2.76611 3.91182 0
M  V30 10179 H 1031.44 1.39046 2.13397 0
M  V30 10180 H 1032.22 2.99729 1.67385 0
M  V30 10181 N 1034.67 -1.14067 1.0875 0
M  V30 10182 C 1035.92 -1.85459 0.82053 0
M  V30 10183 C 1036.25 -1.82923 -0.65213 0
M  V30 10184 O 1035.52 -1.26241 -1.47965 0
M  V30 10185 C 1035.81 -3.33937 1.34752 0
M  V30 10186 C 1035.66 -3.45026 2.88578 0
M  V30 10187 C 1036.98 -4.2915 0.975636 0
M  V30 10188 H 1034.1 -0.673384 0.299538 0
M  V30 10189 H 1036.74 -1.33927 1.34772 0
M  V30 10190 H 1034.89 -3.77953 0.899086 0
M  V30 10191 H 1036.56 -3.09771 3.41818 0
M  V30 10192 H 1034.81 -2.86124 3.26061 0
M  V30 10193 H 1035.48 -4.49408 3.20526 0
M  V30 10194 H 1037.95 -3.93168 1.36228 0
M  V30 10195 H 1036.83 -5.31489 1.37152 0
M  V30 10196 H 1037.09 -4.41945 -0.116956 0
M  V30 10197 N 1036.15 -0.873678 -1.31166 0
M  V30 10198 C 1037.56 -0.566109 -1.49223 0
M  V30 10199 C 1037.76 0.898889 -1.80339 0
M  V30 10200 O 1036.82 1.68084 -1.88425 0
M  V30 10201 C 1038.13 -1.46952 -2.62346 0
M  V30 10202 C 1039.68 -1.47195 -2.76229 0
M  V30 10203 C 1040.16 -2.36102 -3.92454 0
M  V30 10204 N 1041.65 -2.34003 -3.99746 0
M  V30 10205 C 1042.38 -2.99513 -4.88958 0
M  V30 10206 N 1041.88 -3.74206 -5.83045 0
M  V30 10207 N 1043.67 -2.88802 -4.82234 0
M  V30 10208 H 1035.82 -1.82156 -1.09239 0
M  V30 10209 H 1038.09 -0.779086 -0.54012 0
M  V30 10210 H 1037.79 -2.51213 -2.4614 0
M  V30 10211 H 1037.67 -1.17077 -3.5857 0
M  V30 10212 H 1040.05 -0.436902 -2.91848 0
M  V30 10213 H 1040.13 -1.81095 -1.80661 0
M  V30 10214 H 1039.78 -3.39685 -3.77593 0
M  V30 10215 H 1039.71 -1.99524 -4.87337 0
M  V30 10216 H 1042.2 -1.79713 -3.32433 0
M  V30 10217 H 1042.51 -4.21312 -6.47855 0
M  V30 10218 H 1040.86 -3.78314 -5.83012 0
M  V30 10219 H 1044.05 -2.29984 -4.07707 0
M  V30 10220 H 1044.22 -3.40136 -5.51554 0
M  V30 10221 N 1037.63 1.44308 -0.633487 0
M  V30 10222 C 1039.04 1.85387 -0.221009 0
M  V30 10223 C 1039.39 1.5301 1.22811 0
M  V30 10224 O 1038.51 0.969325 1.93476 0
M  V30 10225 C 1039.11 3.36497 -0.394331 0
M  V30 10226 C 1037.67 3.76382 -0.0363405 0
M  V30 10227 C 1036.81 2.68146 -0.706598 0
M  V30 10228 H 1039.77 1.34741 -0.83849 0
M  V30 10229 H 1039.79 3.78735 0.366026 0
M  V30 10230 H 1039.3 3.60031 -1.44911 0
M  V30 10231 H 1037.4 3.58463 1.01661 0
M  V30 10232 H 1037.51 4.77 -0.448045 0
M  V30 10233 H 1035.88 2.54306 -0.14168 0
M  V30 10234 H 1036.66 2.94512 -1.76401 0
M  V30 10235 N 1039.1 0.374177 1.53094 0
M  V30 10236 C 1040.52 -0.103172 1.86415 0
M  V30 10237 C 1040.87 -1.47439 1.29446 0
M  V30 10238 O 1039.99 -2.07333 0.619853 0
M  V30 10239 C 1040.59 -0.193988 3.38244 0
M  V30 10240 C 1039.15 -0.615605 3.71332 0
M  V30 10241 C 1038.29 0.23186 2.76329 0
M  V30 10242 H 1041.24 0.592644 1.47219 0
M  V30 10243 H 1041.26 -1.01597 3.66686 0
M  V30 10244 H 1040.78 0.80414 3.79678 0
M  V30 10245 H 1038.88 -1.62165 3.3546 0
M  V30 10246 H 1038.99 -0.38425 4.77557 0
M  V30 10247 H 1037.35 -0.300579 2.5292 0
M  V30 10248 H 1038.14 1.22769 3.20597 0
M  V30 10249 N 1040.58 -1.57259 0.103575 0
M  V30 10250 C 1041.53 -2.15727 -0.869739 0
M  V30 10251 C 1042.52 -1.10236 -1.28625 0
M  V30 10252 O 1043.73 -1.28567 -1.25979 0
M  V30 10253 H 1040.11 -0.690204 -0.298535 0
M  V30 10254 H 1042.08 -2.96317 -0.351984 0
M  V30 10255 C 1040.83 -2.75905 -2.11593 0
M  V30 10256 H 1040.15 -3.56768 -1.80434 0
M  V30 10257 H 1041.59 -3.20373 -2.77736 0
M  V30 10258 C 1040.05 -1.72218 -2.89556 0
M  V30 10259 O 1040.58 -1.16623 -3.84398 0
M  V30 10260 N 1038.78 -1.42514 -2.53255 0
M  V30 10261 H 1038.33 -1.87914 -1.76198 0
M  V30 10262 H 1038.29 -0.733782 -3.05717 0
M  V30 10263 N 1042.06 0.170153 -1.56679 0
M  V30 10264 C 1043.31 0.884841 -1.817 0
M  V30 10265 C 1043.63 1.82731 -0.680763 0
M  V30 10266 O 1042.9 1.936 0.299294 0
M  V30 10267 H 1041.48 0.329738 -0.670285 0
M  V30 10268 H 1044.14 0.169691 -1.9416 0
M  V30 10269 H 1043.24 1.46104 -2.7579 0
M  V30 10270 N 1043.54 1.5137 0.438746 0
M  V30 10271 C 1044.95 1.56462 1.01866 0
M  V30 10272 C 1045.3 0.387244 1.9234 0
M  V30 10273 O 1044.43 -0.496131 2.10636 0
M  V30 10274 C 1045.02 2.83557 1.85421 0
M  V30 10275 C 1043.58 2.91224 2.38464 0
M  V30 10276 C 1042.73 2.51109 1.17641 0
M  V30 10277 H 1045.68 1.57167 0.220072 0
M  V30 10278 H 1045.7 2.6724 2.70857 0
M  V30 10279 H 1045.21 3.69229 1.19546 0
M  V30 10280 H 1043.31 2.09979 3.07798 0
M  V30 10281 H 1043.42 3.94844 2.71358 0
M  V30 10282 H 1041.79 2.04276 1.5213 0
M  V30 10283 H 1042.57 3.39125 0.533785 0
M  V30 10284 N 1045.02 -0.694098 1.41492 0
M  V30 10285 C 1045.95 -1.82042 1.46229 0
M  V30 10286 C 1046.93 -1.67047 0.320803 0
M  V30 10287 O 1048.11 -1.86758 0.53245 0
M  V30 10288 C 1045.24 -3.2019 1.34519 0
M  V30 10289 C 1044.2 -3.49892 2.46495 0
M  V30 10290 C 1043.52 -4.87411 2.1985 0
M  V30 10291 C 1044.82 -3.4872 3.88834 0
M  V30 10292 H 1046.52 -1.78335 2.40493 0
M  V30 10293 H 1044.06 -0.856566 1.15754 0
M  V30 10294 H 1046.02 -3.98699 1.36445 0
M  V30 10295 H 1044.74 -3.24527 0.367406 0
M  V30 10296 H 1043.4 -2.73734 2.43854 0
M  V30 10297 H 1043.05 -4.88375 1.20411 0
M  V30 10298 H 1042.75 -5.08248 2.94885 0
M  V30 10299 H 1044.27 -5.68228 2.23494 0
M  V30 10300 H 1045.68 -4.1723 3.93182 0
M  V30 10301 H 1044.08 -3.81089 4.63564 0
M  V30 10302 H 1045.15 -2.47665 4.16881 0
M  V30 10303 N 1046.49 -1.27344 -0.928501 0
M  V30 10304 C 1047.72 -1.16557 -1.7155 0
M  V30 10305 C 1048.14 0.274044 -1.86093 0
M  V30 10306 O 1047.5 1.19847 -1.36038 0
M  V30 10307 C 1047.55 -1.85332 -3.09329 0
M  V30 10308 O 1046.65 -1.15074 -3.9602 0
M  V30 10309 H 1046 -0.405423 -0.525859 0
M  V30 10310 H 1048.53 -1.68399 -1.16202 0
M  V30 10311 H 1048.54 -1.92659 -3.59648 0
M  V30 10312 H 1047.21 -2.90056 -2.98061 0
M  V30 10313 H 1045.79 -1.1581 -3.54461 0
M  V30 10314 N 1047.97 1.13488 -1.09353 0
M  V30 10315 C 1048.9 2.20988 -0.75409 0
M  V30 10316 C 1049.88 1.67977 0.267901 0
M  V30 10317 O 1051.07 1.93722 0.136128 0
M  V30 10318 C 1048.2 3.46869 -0.173042 0
M  V30 10319 C 1047.15 4.12965 -1.12446 0
M  V30 10320 C 1046.48 5.33163 -0.405157 0
M  V30 10321 C 1047.78 4.60388 -2.46658 0
M  V30 10322 H 1049.47 2.49639 -1.6529 0
M  V30 10323 H 1047.02 1.19987 -0.796182 0
M  V30 10324 H 1048.97 4.21331 0.0764988 0
M  V30 10325 H 1047.7 3.17611 0.760956 0
M  V30 10326 H 1046.35 3.40469 -1.35927 0
M  V30 10327 H 1046 5.00169 0.532955 0
M  V30 10328 H 1045.7 5.78332 -1.03952 0
M  V30 10329 H 1047.23 6.1038 -0.163899 0
M  V30 10330 H 1048.64 5.26276 -2.27389 0
M  V30 10331 H 1047.04 5.16294 -3.05876 0
M  V30 10332 H 1048.11 3.74949 -3.07476 0
M  V30 10333 N 1049.45 0.880621 1.30701 0
M  V30 10334 C 1050.86 0.547993 1.78477 0
M  V30 10335 C 1051.21 -0.935633 1.72454 0
M  V30 10336 O 1050.34 -1.73094 1.29874 0
M  V30 10337 C 1050.93 0.98795 3.24076 0
M  V30 10338 C 1049.49 0.706805 3.69704 0
M  V30 10339 C 1048.64 1.17335 2.51252 0
M  V30 10340 H 1051.59 1.06528 1.17633 0
M  V30 10341 H 1051.61 0.31508 3.79193 0
M  V30 10342 H 1051.12 2.06778 3.28427 0
M  V30 10343 H 1049.22 -0.36122 3.70845 0
M  V30 10344 H 1049.34 1.2913 4.6137 0
M  V30 10345 H 1047.7 0.592808 2.47705 0
M  V30 10346 H 1048.48 2.26083 2.58343 0
M  V30 10347 N 1050.93 -1.4397 0.641131 0
M  V30 10348 C 1052.18 -2.02246 0.14985 0
M  V30 10349 C 1052.51 -1.50387 -1.22871 0
M  V30 10350 O 1051.78 -0.692003 -1.81773 0
M  V30 10351 C 1052.07 -3.59798 0.147449 0
M  V30 10352 C 1051.92 -4.21916 1.55907 0
M  V30 10353 C 1053.24 -4.36985 -0.522667 0
M  V30 10354 H 1050.36 -0.734875 0.0559274 0
M  V30 10355 H 1053 -1.71418 0.819513 0
M  V30 10356 H 1051.15 -3.86193 -0.422789 0
M  V30 10357 H 1052.82 -4.06594 2.17896 0
M  V30 10358 H 1051.06 -3.79028 2.10998 0
M  V30 10359 H 1051.74 -5.30964 1.50934 0
M  V30 10360 H 1054.21 -4.16083 -0.0376226 0
M  V30 10361 H 1053.09 -5.46676 -0.493572 0
M  V30 10362 H 1053.35 -4.12335 -1.59475 0
M  V30 10363 N 1052.41 -0.382291 -1.52893 0
M  V30 10364 C 1053.36 0.471187 -2.27778 0
M  V30 10365 C 1054.35 1.0691 -1.31402 0
M  V30 10366 O 1055.56 1.01038 -1.48967 0
M  V30 10367 H 1051.93 0.170696 -0.732371 0
M  V30 10368 H 1053.9 -0.181954 -2.97845 0
M  V30 10369 C 1052.65 1.59012 -3.09209 0
M  V30 10370 H 1051.97 1.13935 -3.83222 0
M  V30 10371 H 1053.41 2.16167 -3.64757 0
M  V30 10372 C 1051.87 2.54212 -2.21084 0
M  V30 10373 O 1052.4 3.57447 -1.83288 0
M  V30 10374 N 1050.61 2.23789 -1.85383 0
M  V30 10375 H 1050.16 1.39872 -2.16318 0
M  V30 10376 H 1050.11 2.87737 -1.26708 0
M  V30 10377 N 1053.89 1.57202 -0.111913 0
M  V30 10378 C 1055.3 1.57713 0.244702 0
M  V30 10379 C 1055.5 1.12419 1.67225 0
M  V30 10380 O 1054.56 0.808329 2.39212 0
M  V30 10381 C 1055.87 3.00695 0.0178289 0
M  V30 10382 C 1057.42 3.12887 0.0842781 0
M  V30 10383 C 1057.89 4.57856 -0.114812 0
M  V30 10384 N 1059.38 4.6316 -0.0605423 0
M  V30 10385 C 1060.12 5.73086 -0.189594 0
M  V30 10386 N 1059.62 6.91787 -0.37442 0
M  V30 10387 N 1061.41 5.6195 -0.12967 0
M  V30 10388 H 1053.56 1.84947 -1.04443 0
M  V30 10389 H 1055.82 0.854418 -0.4107 0
M  V30 10390 H 1055.53 3.38093 -0.968802 0
M  V30 10391 H 1055.4 3.69611 0.752815 0
M  V30 10392 H 1057.79 2.7535 1.06143 0
M  V30 10393 H 1057.87 2.46528 -0.682474 0
M  V30 10394 H 1057.51 4.9609 -1.0889 0
M  V30 10395 H 1057.44 5.22297 0.671839 0
M  V30 10396 H 1059.94 3.77817 0.0790856 0
M  V30 10397 H 1060.25 7.71406 -0.463948 0
M  V30 10398 H 1058.59 6.93788 -0.410303 0
M  V30 10399 H 1061.78 4.68098 0.0137115 0
M  V30 10400 H 1061.96 6.47578 -0.233688 0
M  V30 10401 N 1055.36 -0.161842 1.56767 0
M  V30 10402 C 1056.3 -1.22927 1.9226 0
M  V30 10403 C 1057.27 -1.42309 0.786562 0
M  V30 10404 O 1058.46 -1.57163 1.04078 0
M  V30 10405 C 1055.59 -2.59069 2.18177 0
M  V30 10406 C 1054.63 -2.56368 3.40849 0
M  V30 10407 S 1055.46 -2.04518 4.94907 0
M  V30 10408 C 1056.62 -3.42418 5.23928 0
M  V30 10409 H 1056.85 -0.926377 2.82499 0
M  V30 10410 H 1054.39 -0.366822 1.49979 0
M  V30 10411 H 1056.34 -3.37421 2.33789 0
M  V30 10412 H 1055.01 -2.86554 1.28629 0
M  V30 10413 H 1054.2 -3.56551 3.56213 0
M  V30 10414 H 1053.8 -1.86116 3.24402 0
M  V30 10415 H 1056.09 -4.38461 5.16486 0
M  V30 10416 H 1057.04 -3.3192 6.25487 0
M  V30 10417 H 1057.44 -3.38868 4.51474 0
M  V30 10418 N 1056.84 -1.516 -0.430713 0
M  V30 10419 C 1057.77 -1.69594 -1.54177 0
M  V30 10420 C 1058.79 -0.576518 -1.5225 0
M  V30 10421 O 1059.98 -0.85104 -1.56906 0
M  V30 10422 C 1057.08 -1.70148 -2.93092 0
M  V30 10423 C 1056.25 -2.98782 -3.1945 0
M  V30 10424 C 1055.31 -2.91435 -4.38123 0
M  V30 10425 O 1054.33 -3.65372 -4.36454 0
M  V30 10426 N 1055.54 -2.0774 -5.42056 0
M  V30 10427 H 1058.3 -2.65442 -1.39143 0
M  V30 10428 H 1055.86 -1.49569 -0.61974 0
M  V30 10429 H 1057.85 -1.62793 -3.70514 0
M  V30 10430 H 1056.42 -0.818667 -3.0169 0
M  V30 10431 H 1055.64 -3.19954 -2.30267 0
M  V30 10432 H 1056.93 -3.83919 -3.33892 0
M  V30 10433 H 1056.33 -1.47059 -5.46251 0
M  V30 10434 H 1054.89 -2.06259 -6.18305 0
M  V30 10435 N 1058.32 0.686584 -1.41858 0
M  V30 10436 C 1059.57 1.44879 -1.41908 0
M  V30 10437 C 1059.9 1.94175 -0.0311408 0
M  V30 10438 O 1059.17 1.70131 0.942646 0
M  V30 10439 C 1059.46 2.65428 -2.43352 0
M  V30 10440 C 1059.31 2.2184 -3.91289 0
M  V30 10441 C 1060.63 3.67635 -2.41934 0
M  V30 10442 H 1057.75 0.525477 -0.516762 0
M  V30 10443 H 1060.39 0.781263 -1.73194 0
M  V30 10444 H 1058.54 3.2238 -2.16803 0
M  V30 10445 H 1060.21 1.70146 -4.28775 0
M  V30 10446 H 1058.45 1.53531 -4.05722 0
M  V30 10447 H 1059.13 3.08376 -4.5783 0
M  V30 10448 H 1061.6 3.20376 -2.65516 0
M  V30 10449 H 1060.48 4.49579 -3.14913 0
M  V30 10450 H 1060.74 4.17953 -1.44111 0
M  V30 10451 N 1059.8 1.27835 0.921735 0
M  V30 10452 C 1061.02 1.17465 1.70929 0
M  V30 10453 C 1061.45 -0.264171 1.86236 0
M  V30 10454 O 1060.81 -1.19124 1.36671 0
M  V30 10455 C 1060.85 1.8697 3.08342 0
M  V30 10456 O 1059.96 1.17173 3.95404 0
M  V30 10457 H 1059.3 0.408206 0.523702 0
M  V30 10458 H 1061.83 1.69013 1.15307 0
M  V30 10459 H 1061.84 1.94564 3.58621 0
M  V30 10460 H 1060.51 2.91633 2.96518 0
M  V30 10461 H 1059.09 1.17688 3.53842 0
M  V30 10462 N 1061.28 -1.12907 1.09954 0
M  V30 10463 C 1062.21 -2.18194 0.701701 0
M  V30 10464 C 1063.22 -1.60724 -0.259131 0
M  V30 10465 O 1064.41 -1.78445 -0.0443549 0
M  V30 10466 C 1061.51 -3.38897 0.0140602 0
M  V30 10467 C 1060.68 -4.25867 0.997807 0
M  V30 10468 C 1059.74 -5.25084 0.34257 0
M  V30 10469 O 1058.77 -5.60492 0.991857 0
M  V30 10470 N 1059.97 -5.73464 -0.901058 0
M  V30 10471 H 1062.73 -2.52939 1.60755 0
M  V30 10472 H 1060.3 -1.28281 0.987703 0
M  V30 10473 H 1062.29 -4.02349 -0.435628 0
M  V30 10474 H 1060.86 -3.02345 -0.794118 0
M  V30 10475 H 1060.08 -3.59107 1.6259 0
M  V30 10476 H 1061.37 -4.80825 1.66388 0
M  V30 10477 H 1060.76 -5.46854 -1.44802 0
M  V30 10478 H 1059.32 -6.38827 -1.29398 0
M  V30 10479 N 1062.75 -0.88754 -1.30232 0
M  V30 10480 C 1064 -0.506277 -1.95656 0
M  V30 10481 C 1064.32 0.948191 -1.70395 0
M  V30 10482 O 1063.59 1.66701 -1.02895 0
M  V30 10483 H 1062.17 -0.184235 -0.723924 0
M  V30 10484 H 1064.83 -1.13118 -1.58715 0
M  V30 10485 H 1063.93 -0.678673 -3.04632 0
M  V30 10486 N 1064.23 1.43628 -0.648757 0
M  V30 10487 C 1065.17 2.28001 0.0952198 0
M  V30 10488 C 1066.14 1.39569 0.834225 0
M  V30 10489 O 1067.33 1.69011 0.834711 0
M  V30 10490 C 1064.45 3.18886 1.14145 0
M  V30 10491 C 1063.5 4.23547 0.500996 0
M  V30 10492 S 1064.33 5.30609 -0.722118 0
M  V30 10493 C 1065.49 6.25062 0.323687 0
M  V30 10494 H 1065.72 2.90752 -0.620511 0
M  V30 10495 H 1063.26 1.48073 -0.437457 0
M  V30 10496 H 1065.21 3.71795 1.74008 0
M  V30 10497 H 1063.87 2.55322 1.82947 0
M  V30 10498 H 1063.07 4.87224 1.28954 0
M  V30 10499 H 1062.67 3.73993 -0.0234176 0
M  V30 10500 H 1064.96 6.66946 1.19118 0
M  V30 10501 H 1065.9 7.07554 -0.277939 0
M  V30 10502 H 1066.31 5.60658 0.657493 0
M  V30 10503 N 1065.71 0.390394 1.52688 0
M  V30 10504 C 1066.66 -0.4591 2.28024 0
M  V30 10505 C 1067.65 -1.06212 1.31967 0
M  V30 10506 O 1068.86 -1.00247 1.49501 0
M  V30 10507 H 1065.23 -0.16681 0.733266 0
M  V30 10508 H 1067.2 0.197747 2.97744 0
M  V30 10509 C 1065.95 -1.5737 3.10048 0
M  V30 10510 H 1065.28 -1.11901 3.83821 0
M  V30 10511 H 1066.72 -2.1423 3.65898 0
M  V30 10512 C 1065.18 -2.53036 2.22429 0
M  V30 10513 O 1065.71 -3.5647 1.85181 0
M  V30 10514 N 1063.91 -2.22802 1.86567 0
M  V30 10515 H 1063.46 -1.38723 2.17057 0
M  V30 10516 H 1063.42 -2.87061 1.28233 0
M  V30 10517 N 1067.19 -1.57141 0.120249 0
M  V30 10518 C 1068.41 -2.00017 -0.548454 0
M  V30 10519 C 1068.84 -0.999433 -1.59352 0
M  V30 10520 O 1068.2 0.0286978 -1.81277 0
M  V30 10521 C 1068.24 -3.41766 -1.15015 0
M  V30 10522 O 1067.35 -3.44589 -2.26566 0
M  V30 10523 H 1066.69 -0.649739 -0.136875 0
M  V30 10524 H 1069.22 -2.03529 0.209092 0
M  V30 10525 H 1069.23 -3.80001 -1.48537 0
M  V30 10526 H 1067.9 -4.14117 -0.384681 0
M  V30 10527 H 1066.48 -3.18174 -1.94473 0
M  V30 10528 N 1068.67 0.153526 -1.5685 0
M  V30 10529 C 1069.91 0.867232 -1.8299 0
M  V30 10530 C 1070.24 1.81462 -0.700125 0
M  V30 10531 O 1069.5 1.93207 0.311348 0
M  V30 10532 C 1069.8 1.68066 -3.15418 0
M  V30 10533 C 1069.46 0.880635 -4.42217 0
M  V30 10534 C 1068.12 0.659899 -4.76654 0
M  V30 10535 C 1070.48 0.320698 -5.20212 0
M  V30 10536 C 1067.8 -0.131588 -5.86552 0
M  V30 10537 C 1070.16 -0.457794 -6.30941 0
M  V30 10538 C 1068.82 -0.689168 -6.63933 0
M  V30 10539 H 1068.09 0.317343 -0.669608 0
M  V30 10540 H 1070.74 0.131208 -1.9105 0
M  V30 10541 H 1069.04 2.4866 -3.02779 0
M  V30 10542 H 1070.74 2.23623 -3.32857 0
M  V30 10543 H 1067.33 1.06274 -4.15215 0
M  V30 10544 H 1071.51 0.47853 -4.93988 0
M  V30 10545 H 1066.77 -0.320413 -6.1056 0
M  V30 10546 H 1070.94 -0.898839 -6.90575 0
M  V30 10547 H 1068.57 -1.30433 -7.48927 0
M  V30 10548 N 1070.14 1.51827 0.422667 0
M  V30 10549 C 1071.09 1.74791 1.53463 0
M  V30 10550 C 1072.09 0.614602 1.57858 0
M  V30 10551 O 1073.29 0.796336 1.61426 0
M  V30 10552 H 1069.67 0.552524 0.510118 0
M  V30 10553 H 1071.64 2.67974 1.31273 0
M  V30 10554 C 1070.39 1.90339 2.90975 0
M  V30 10555 H 1069.71 2.76958 2.8833 0
M  V30 10556 H 1071.15 2.10413 3.68106 0
M  V30 10557 C 1069.61 0.66695 3.30232 0
M  V30 10558 O 1070.14 -0.171542 4.01334 0
M  V30 10559 N 1068.35 0.506768 2.86147 0
M  V30 10560 H 1067.89 1.19019 2.28456 0
M  V30 10561 H 1067.85 -0.319247 3.12775 0
M  V30 10562 N 1071.62 -0.679052 1.4222 0
M  V30 10563 C 1073.03 -1.25953 1.37815 0
M  V30 10564 C 1073.38 -1.96077 0.0693215 0
M  V30 10565 O 1072.51 -1.99765 -0.832047 0
M  V30 10566 C 1073.1 -2.29063 2.49631 0
M  V30 10567 C 1071.66 -2.82647 2.48571 0
M  V30 10568 C 1070.81 -1.56909 2.28637 0
M  V30 10569 H 1073.76 -0.472714 1.51496 0
M  V30 10570 H 1073.78 -3.10708 2.19638 0
M  V30 10571 H 1073.29 -1.77996 3.44876 0
M  V30 10572 H 1071.4 -3.37846 1.57132 0
M  V30 10573 H 1071.51 -3.31952 3.45463 0
M  V30 10574 H 1069.87 -1.83323 1.76819 0
M  V30 10575 H 1070.66 -1.07814 3.25931 0
M  V30 10576 N 1073.1 -1.28322 -0.914942 0
M  V30 10577 C 1074.03 -1.06469 -2.01841 0
M  V30 10578 C 1075.01 0.0188681 -1.62589 0
M  V30 10579 O 1076.2 -0.128825 -1.88059 0
M  V30 10580 C 1073.32 -0.617685 -3.3302 0
M  V30 10581 C 1072.37 -1.6977 -3.91255 0
M  V30 10582 S 1073.2 -3.29337 -4.22253 0
M  V30 10583 C 1074.36 -2.86468 -5.56495 0
M  V30 10584 H 1074.59 -1.99893 -2.20068 0
M  V30 10585 H 1072.12 -1.12297 -1.05966 0
M  V30 10586 H 1074.08 -0.366481 -4.08861 0
M  V30 10587 H 1072.74 0.296709 -3.12695 0
M  V30 10588 H 1071.94 -1.33653 -4.85956 0
M  V30 10589 H 1071.54 -1.90164 -3.22046 0
M  V30 10590 H 1073.83 -2.32565 -6.36333 0
M  V30 10591 H 1074.77 -3.79962 -5.97523 0
M  V30 10592 H 1075.18 -2.2522 -5.17626 0
M  V30 10593 N 1074.58 1.12322 -1.10551 0
M  V30 10594 C 1075.8 1.8822 -0.871093 0
M  V30 10595 C 1076.23 1.7916 0.573005 0
M  V30 10596 O 1075.59 1.14738 1.40374 0
M  V30 10597 C 1075.63 3.35349 -1.32565 0
M  V30 10598 O 1074.74 4.09461 -0.49145 0
M  V30 10599 H 1074.08 0.584787 -0.314516 0
M  V30 10600 H 1076.61 1.42039 -1.47262 0
M  V30 10601 H 1076.62 3.86189 -1.31612 0
M  V30 10602 H 1075.29 3.4126 -2.37728 0
M  V30 10603 H 1073.87 3.68575 -0.566294 0
M  V30 10604 N 1076.06 0.894434 1.2976 0
M  V30 10605 C 1076.99 0.3847 2.30309 0
M  V30 10606 C 1077.97 -0.537486 1.61385 0
M  V30 10607 O 1079.15 -0.449332 1.8893 0
M  V30 10608 C 1076.28 -0.393311 3.45066 0
M  V30 10609 C 1075.24 0.437968 4.25753 0
M  V30 10610 C 1074.56 -0.467221 5.32655 0
M  V30 10611 C 1075.86 1.6851 4.9437 0
M  V30 10612 H 1077.56 1.22496 2.73194 0
M  V30 10613 H 1075.1 0.590471 1.31337 0
M  V30 10614 H 1077.06 -0.760614 4.14479 0
M  V30 10615 H 1075.78 -1.2673 3.0101 0
M  V30 10616 H 1074.44 0.787533 3.58041 0
M  V30 10617 H 1074.09 -1.33919 4.84845 0
M  V30 10618 H 1073.79 0.0852482 5.87538 0
M  V30 10619 H 1075.31 -0.830833 6.04921 0
M  V30 10620 H 1076.72 1.38784 5.56248 0
M  V30 10621 H 1075.12 2.17849 5.59162 0
M  V30 10622 H 1076.19 2.42412 4.19958 0
M  V30 10623 N 1077.53 -1.43282 0.656365 0
M  V30 10624 C 1078.78 -2.01378 0.170702 0
M  V30 10625 C 1079.1 -1.52063 -1.22073 0
M  V30 10626 O 1078.37 -0.73456 -1.81607 0
M  V30 10627 H 1076.95 -0.744577 0.0601168 0
M  V30 10628 H 1079.62 -1.75449 0.848739 0
M  V30 10629 H 1078.71 -3.11701 0.157745 0
M  V30 10630 N 1079.01 -0.398486 -1.52479 0
M  V30 10631 C 1079.96 0.447001 -2.28264 0
M  V30 10632 C 1080.96 1.05511 -1.32529 0
M  V30 10633 O 1082.16 0.994528 -1.5003 0
M  V30 10634 H 1078.54 0.162919 -0.73414 0
M  V30 10635 H 1080.51 -0.213534 -2.97635 0
M  V30 10636 C 1079.26 1.55724 -3.10879 0
M  V30 10637 H 1078.58 1.09864 -3.84409 0
M  V30 10638 H 1080.02 2.12286 -3.67029 0
M  V30 10639 C 1078.48 2.51853 -2.23768 0
M  V30 10640 O 1079.01 3.55483 -1.87069 0
M  V30 10641 N 1077.21 2.2181 -1.87746 0
M  V30 10642 H 1076.76 1.3757 -2.17789 0
M  V30 10643 H 1076.72 2.86376 -1.29753 0
M  V30 10644 N 1080.49 1.57075 -0.12858 0
M  V30 10645 C 1081.74 1.9581 0.527868 0
M  V30 10646 C 1082.07 1.01253 1.65715 0
M  V30 10647 O 1081.35 0.0514853 1.94432 0
M  V30 10648 C 1081.63 3.44406 1.05151 0
M  V30 10649 C 1081.48 4.49737 -0.0750113 0
M  V30 10650 C 1082.8 3.95069 1.9393 0
M  V30 10651 H 1079.92 0.711978 0.19041 0
M  V30 10652 H 1082.56 1.88879 -0.206081 0
M  V30 10653 H 1080.71 3.50443 1.67697 0
M  V30 10654 H 1082.38 4.55793 -0.710685 0
M  V30 10655 H 1080.63 4.27497 -0.736809 0
M  V30 10656 H 1081.3 5.50996 0.332779 0
M  V30 10657 H 1083.77 3.91395 1.41241 0
M  V30 10658 H 1082.65 4.99542 2.27484 0
M  V30 10659 H 1082.91 3.36329 2.86941 0
M  V30 10660 N 1081.97 -0.145205 1.5693 0
M  V30 10661 C 1082.9 -1.20438 1.95006 0
M  V30 10662 C 1083.91 -1.39085 0.846114 0
M  V30 10663 O 1085.1 -1.38625 1.12452 0
M  V30 10664 C 1082.2 -2.56892 2.21043 0
M  V30 10665 C 1081.38 -2.59197 3.52329 0
M  V30 10666 C 1080.44 -3.77204 3.66884 0
M  V30 10667 O 1079.46 -3.61995 4.39259 0
M  V30 10668 N 1080.66 -4.9473 3.03682 0
M  V30 10669 H 1083.43 -0.880709 2.86467 0
M  V30 10670 H 1080.99 -0.334751 1.58401 0
M  V30 10671 H 1082.98 -3.34349 2.2802 0
M  V30 10672 H 1081.55 -2.81544 1.35838 0
M  V30 10673 H 1080.77 -1.67644 3.56776 0
M  V30 10674 H 1082.06 -2.57771 4.3867 0
M  V30 10675 H 1081.46 -5.09989 2.44801 0
M  V30 10676 H 1080.01 -5.69956 3.16218 0
M  V30 10677 N 1083.45 -1.52049 -0.414609 0
M  V30 10678 C 1084.38 -1.77956 -1.51175 0
M  V30 10679 C 1085.36 -0.630282 -1.57992 0
M  V30 10680 O 1086.54 -0.875324 -1.73354 0
M  V30 10681 C 1083.67 -1.92527 -2.89051 0
M  V30 10682 C 1082.63 -3.08096 -2.97087 0
M  V30 10683 C 1081.95 -3.07882 -4.37164 0
M  V30 10684 C 1083.25 -4.47656 -2.69075 0
M  V30 10685 H 1084.95 -2.69827 -1.29746 0
M  V30 10686 H 1082.49 -1.29839 -0.62273 0
M  V30 10687 H 1084.45 -2.09234 -3.65786 0
M  V30 10688 H 1083.17 -0.973235 -3.11762 0
M  V30 10689 H 1081.83 -2.91131 -2.22797 0
M  V30 10690 H 1081.48 -2.10411 -4.56877 0
M  V30 10691 H 1081.18 -3.85501 -4.43467 0
M  V30 10692 H 1082.7 -3.26712 -5.15841 0
M  V30 10693 H 1084.12 -4.64855 -3.35534 0
M  V30 10694 H 1082.51 -5.27151 -2.8676 0
M  V30 10695 H 1083.58 -4.56129 -1.64544 0
M  V30 10696 N 1084.93 0.6715 -1.42579 0
M  V30 10697 C 1086.34 1.2522 -1.38481 0
M  V30 10698 C 1086.69 1.96038 -0.079719 0
M  V30 10699 O 1085.81 2.00203 0.821441 0
M  V30 10700 C 1086.41 2.27736 -2.50842 0
M  V30 10701 C 1084.97 2.81325 -2.50067 0
M  V30 10702 C 1084.11 1.55694 -2.29466 0
M  V30 10703 H 1087.06 0.464673 -1.51745 0
M  V30 10704 H 1087.09 3.09539 -2.21283 0
M  V30 10705 H 1086.6 1.76164 -3.45815 0
M  V30 10706 H 1084.7 3.37008 -1.58922 0
M  V30 10707 H 1084.81 3.30116 -3.47218 0
M  V30 10708 H 1083.18 1.82383 -1.77788 0
M  V30 10709 H 1083.96 1.06084 -3.26498 0
M  V30 10710 N 1086.4 1.28806 0.908124 0
M  V30 10711 C 1087.34 1.09018 2.01613 0
M  V30 10712 C 1088.35 0.0402059 1.6275 0
M  V30 10713 O 1089.54 0.283853 1.76229 0
M  V30 10714 C 1086.64 0.635712 3.32884 0
M  V30 10715 C 1085.81 1.76235 4.00325 0
M  V30 10716 C 1084.87 1.3003 5.09881 0
M  V30 10717 O 1083.9 2.00354 5.32773 0
M  V30 10718 N 1085.1 0.166575 5.80261 0
M  V30 10719 H 1087.86 2.0444 2.19144 0
M  V30 10720 H 1085.42 1.20633 1.07978 0
M  V30 10721 H 1087.42 0.310097 4.0351 0
M  V30 10722 H 1085.99 -0.225816 3.11783 0
M  V30 10723 H 1085.21 2.25727 3.23173 0
M  V30 10724 H 1086.49 2.51796 4.42127 0
M  V30 10725 H 1085.89 -0.419934 5.64139 0
M  V30 10726 H 1084.45 -0.0997281 6.51724 0
M  V30 10727 N 1087.88 -1.11734 1.11145 0
M  V30 10728 C 1088.84 -2.15868 0.770303 0
M  V30 10729 C 1089.84 -1.59438 -0.208842 0
M  V30 10730 O 1091.03 -1.74193 0.0152516 0
M  V30 10731 C 1088.17 -3.40603 0.142303 0
M  V30 10732 H 1089.36 -2.4756 1.69276 0
M  V30 10733 H 1086.91 -1.26867 0.912929 0
M  V30 10734 H 1087.65 -3.14517 -0.790526 0
M  V30 10735 H 1087.43 -3.8284 0.847087 0
M  V30 10736 H 1088.92 -4.17523 -0.0803608 0
M  V30 10737 N 1089.36 -0.901303 -1.29284 0
M  V30 10738 C 1090.77 -0.576317 -1.77582 0
M  V30 10739 C 1091.12 0.908078 -1.73921 0
M  V30 10740 O 1090.25 1.71006 -1.32611 0
M  V30 10741 C 1090.84 -1.03938 -3.22463 0
M  V30 10742 C 1089.4 -0.765533 -3.68533 0
M  V30 10743 C 1088.55 -1.21318 -2.49354 0
M  V30 10744 H 1091.5 -1.08386 -1.15923 0
M  V30 10745 H 1091.52 -0.375367 -3.78644 0
M  V30 10746 H 1091.03 -2.11977 -3.25096 0
M  V30 10747 H 1089.13 0.302176 -3.71373 0
M  V30 10748 H 1089.25 -1.36454 -4.59257 0
M  V30 10749 H 1087.61 -0.632141 -2.46731 0
M  V30 10750 H 1088.39 -2.30165 -2.54714 0
M  V30 10751 N 1090.84 1.42931 -0.663954 0
M  V30 10752 C 1091.77 2.28089 0.0710318 0
M  V30 10753 C 1092.75 1.40446 0.819375 0
M  V30 10754 O 1093.93 1.69887 0.816738 0
M  V30 10755 C 1091.06 3.20079 1.10756 0
M  V30 10756 C 1090.11 4.24055 0.456045 0
M  V30 10757 S 1090.94 5.29813 -0.778356 0
M  V30 10758 C 1092.09 6.25371 0.257373 0
M  V30 10759 H 1092.33 2.90078 -0.651315 0
M  V30 10760 H 1089.86 1.47601 -0.453137 0
M  V30 10761 H 1091.82 3.7362 1.70055 0
M  V30 10762 H 1090.48 2.57248 1.80229 0
M  V30 10763 H 1089.67 4.88564 1.23779 0
M  V30 10764 H 1089.27 3.73947 -0.0630832 0
M  V30 10765 H 1091.57 6.68172 1.12037 0
M  V30 10766 H 1092.51 7.0722 -0.352969 0
M  V30 10767 H 1092.92 5.61324 0.597991 0
M  V30 10768 N 1092.32 0.406567 1.52266 0
M  V30 10769 C 1093.56 -0.169717 2.01386 0
M  V30 10770 C 1093.88 -1.45864 1.29417 0
M  V30 10771 O 1093.15 -1.9136 0.419327 0
M  V30 10772 H 1091.73 -0.0657075 0.744105 0
M  V30 10773 H 1094.4 0.542221 1.87206 0
M  V30 10774 H 1093.49 -0.367659 3.09927 0
M  V30 10775 N 1093.79 -1.57004 0.136909 0
M  V30 10776 C 1095.21 -1.82675 -0.385577 0
M  V30 10777 C 1095.56 -1.05508 -1.65416 0
M  V30 10778 O 1094.68 -0.297207 -2.14349 0
M  V30 10779 C 1095.28 -3.31356 -0.706326 0
M  V30 10780 C 1093.84 -3.57644 -1.17337 0
M  V30 10781 C 1092.98 -2.7664 -0.191239 0
M  V30 10782 H 1095.93 -1.54522 0.36177 0
M  V30 10783 H 1095.95 -3.4696 -1.56201 0
M  V30 10784 H 1095.47 -3.87492 0.217147 0
M  V30 10785 H 1093.57 -3.06883 -2.11313 0
M  V30 10786 H 1093.68 -4.66152 -1.10632 0
M  V30 10787 H 1092.04 -2.45403 -0.681867 0
M  V30 10788 H 1092.83 -3.35543 0.725647 0
M  V30 10789 N 1095.27 0.136881 -1.57004 0
M  V30 10790 C 1096.69 0.489856 -1.51897 0
M  V30 10791 C 1096.89 1.82833 -0.847009 0
M  V30 10792 O 1095.94 2.48952 -0.421792 0
M  V30 10793 C 1097.26 0.490831 -2.96667 0
M  V30 10794 C 1098.81 0.575639 -3.07661 0
M  V30 10795 C 1099.28 0.607178 -4.53957 0
M  V30 10796 N 1100.77 0.66912 -4.58342 0
M  V30 10797 C 1101.51 0.714675 -5.68929 0
M  V30 10798 N 1101 0.718959 -6.89059 0
M  V30 10799 N 1102.8 0.756326 -5.56988 0
M  V30 10800 H 1094.95 -0.740347 -1.99079 0
M  V30 10801 H 1097.21 -0.271116 -0.908405 0
M  V30 10802 H 1096.92 -0.424648 -3.49127 0
M  V30 10803 H 1096.79 1.32512 -3.53158 0
M  V30 10804 H 1099.18 1.48154 -2.55215 0
M  V30 10805 H 1099.26 -0.285991 -2.54196 0
M  V30 10806 H 1098.9 -0.294604 -5.07045 0
M  V30 10807 H 1098.83 1.48544 -5.05215 0
M  V30 10808 H 1101.32 0.672697 -3.71864 0
M  V30 10809 H 1101.64 0.755848 -7.69095 0
M  V30 10810 H 1099.98 0.686671 -6.91599 0
M  V30 10811 H 1103.17 0.750219 -4.62049 0
M  V30 10812 H 1103.34 0.788363 -6.43186 0
M  V30 10813 N 1096.75 1.52266 0.40654 0
M  V30 10814 C 1097.71 1.75168 1.47814 0
M  V30 10815 C 1098.71 0.621575 1.48301 0
M  V30 10816 O 1099.9 0.889476 1.4978 0
M  V30 10817 C 1097.04 1.83642 2.87208 0
M  V30 10818 H 1098.23 2.70834 1.28798 0
M  V30 10819 H 1095.78 1.42722 0.637196 0
M  V30 10820 H 1096.52 0.898994 3.1159 0
M  V30 10821 H 1096.3 2.65801 2.88257 0
M  V30 10822 H 1097.79 2.03093 3.64888 0
M  V30 10823 N 1098.23 -0.663929 1.42933 0
M  V30 10824 C 1099.19 -1.75899 1.46943 0
M  V30 10825 C 1100.19 -1.5682 0.355535 0
M  V30 10826 O 1101.38 -1.62914 0.616833 0
M  V30 10827 C 1098.51 -3.14657 1.31164 0
M  V30 10828 H 1099.71 -1.73727 2.44456 0
M  V30 10829 H 1097.26 -0.874587 1.2954 0
M  V30 10830 H 1097.99 -3.22447 0.346165 0
M  V30 10831 H 1097.78 -3.29909 2.11902 0
M  V30 10832 H 1099.27 -3.9453 1.36878 0
M  V30 10833 N 1099.71 -1.29285 -0.901281 0
M  V30 10834 C 1100.93 -1.20169 -1.69039 0
M  V30 10835 C 1101.36 0.234509 -1.86632 0
M  V30 10836 O 1100.71 1.16935 -1.38549 0
M  V30 10837 C 1100.76 -1.91852 -3.05328 0
M  V30 10838 O 1099.87 -1.23448 -3.9349 0
M  V30 10839 H 1099.21 -0.416486 -0.517141 0
M  V30 10840 H 1101.74 -1.70826 -1.12603 0
M  V30 10841 H 1101.75 -2.00244 -3.5548 0
M  V30 10842 H 1100.42 -2.96313 -2.91841 0
M  V30 10843 H 1099 -1.23303 -3.51924 0
M  V30 10844 N 1101.18 1.11143 -1.11736 0
M  V30 10845 C 1102.6 1.64462 -0.883693 0
M  V30 10846 C 1102.95 1.87324 0.583448 0
M  V30 10847 O 1102.07 1.60975 1.44623 0
M  V30 10848 C 1102.67 2.98765 -1.59764 0
M  V30 10849 C 1101.23 3.4898 -1.41032 0
M  V30 10850 C 1100.37 2.23729 -1.63831 0
M  V30 10851 H 1103.32 0.947415 -1.27317 0
M  V30 10852 H 1103.34 3.65885 -1.04443 0
M  V30 10853 H 1102.86 2.82094 -2.66542 0
M  V30 10854 H 1100.96 3.7081 -0.364781 0
M  V30 10855 H 1101.07 4.27571 -2.16148 0
M  V30 10856 H 1099.43 2.31507 -1.06191 0
M  V30 10857 H 1100.22 2.09597 -2.7189 0
M  V30 10858 N 1102.66 0.908147 1.28804 0
M  V30 10859 C 1103.6 0.336764 2.25701 0
M  V30 10860 C 1104.57 -0.555849 1.52804 0
M  V30 10861 O 1105.76 -0.500763 1.81727 0
M  V30 10862 C 1102.88 -0.519154 3.34698 0
M  V30 10863 C 1101.93 0.307304 4.25391 0
M  V30 10864 S 1102.76 1.71048 5.07447 0
M  V30 10865 C 1103.92 0.861715 6.1994 0
M  V30 10866 H 1104.15 1.15806 2.73818 0
M  V30 10867 H 1101.69 0.709033 1.37157 0
M  V30 10868 H 1103.64 -1.00718 3.97952 0
M  V30 10869 H 1102.3 -1.31477 2.85259 0
M  V30 10870 H 1101.5 -0.346906 5.02805 0
M  V30 10871 H 1101.1 0.728777 3.66831 0
M  V30 10872 H 1103.39 0.088851 6.77442 0
M  V30 10873 H 1104.33 1.60821 6.89596 0
M  V30 10874 H 1104.74 0.412366 5.62992 0
M  V30 10875 N 1104.14 -1.42577 0.671525 0
M  V30 10876 C 1105.09 -2.32591 -0.0205354 0
M  V30 10877 C 1106.08 -1.4964 -0.793993 0
M  V30 10878 O 1107.29 -1.65733 -0.702327 0
M  V30 10879 H 1103.66 -0.75157 -0.0254344 0
M  V30 10880 H 1105.63 -2.88662 0.756082 0
M  V30 10881 C 1104.38 -3.34175 -0.960316 0
M  V30 10882 H 1103.71 -3.98041 -0.374577 0
M  V30 10883 H 1105.15 -3.99752 -1.4133 0
M  V30 10884 C 1103.61 -2.66184 -2.06513 0
M  V30 10885 O 1104.14 -2.49125 -3.15119 0
M  V30 10886 N 1102.34 -2.25261 -1.83591 0
M  V30 10887 H 1101.89 -2.39336 -0.952689 0
M  V30 10888 H 1101.85 -1.80101 -2.57703 0
M  V30 10889 N 1105.62 -0.414636 -1.52048 0
M  V30 10890 C 1106.57 0.42561 -2.23992 0
M  V30 10891 C 1107.55 1.00894 -1.25337 0
M  V30 10892 O 1108.74 0.930842 -1.50547 0
M  V30 10893 C 1105.87 1.53874 -3.06884 0
M  V30 10894 C 1104.96 0.965913 -4.12954 0
M  V30 10895 N 1105.35 0.12023 -5.05657 0
M  V30 10896 C 1103.65 1.23586 -4.28535 0
M  V30 10897 C 1104.35 -0.199063 -5.81359 0
M  V30 10898 N 1103.33 0.411505 -5.4204 0
M  V30 10899 H 1107.13 -0.226746 -2.93024 0
M  V30 10900 H 1104.64 -0.225376 -1.60829 0
M  V30 10901 H 1106.64 2.15334 -3.56983 0
M  V30 10902 H 1105.3 2.19366 -2.39392 0
M  V30 10903 H 1106.31 -0.244501 -5.17323 0
M  V30 10904 H 1102.99 1.88995 -3.72273 0
M  V30 10905 H 1104.38 -0.88585 -6.66035 0
M  V30 10906 N 1107.1 1.56929 -0.145233 0
M  V30 10907 C 1108.32 2.00864 0.516564 0
M  V30 10908 C 1108.75 1.02466 1.57741 0
M  V30 10909 O 1108.1 0.000145439 1.813 0
M  V30 10910 C 1108.15 3.43552 1.09563 0
M  V30 10911 O 1107.26 3.4815 2.21055 0
M  V30 10912 H 1106.6 0.651835 0.126521 0
M  V30 10913 H 1109.13 2.0317 -0.241445 0
M  V30 10914 H 1109.14 3.82316 1.42473 0
M  V30 10915 H 1107.81 4.14677 0.318749 0
M  V30 10916 H 1106.39 3.21228 1.89387 0
M  V30 10917 N 1108.58 -0.128553 1.57075 0
M  V30 10918 C 1109.82 -0.839252 1.8462 0
M  V30 10919 C 1110.15 -1.79974 0.729582 0
M  V30 10920 O 1109.43 -1.92681 -0.265369 0
M  V30 10921 C 1109.71 -1.59756 3.22723 0
M  V30 10922 C 1109.57 -0.657313 4.44971 0
M  V30 10923 C 1110.88 -2.55592 3.58275 0
M  V30 10924 H 1108 -0.303652 0.671539 0
M  V30 10925 H 1110.65 -0.103802 1.89716 0
M  V30 10926 H 1108.8 -2.22451 3.18509 0
M  V30 10927 H 1110.47 -0.0399471 4.61283 0
M  V30 10928 H 1108.71 0.0318416 4.33788 0
M  V30 10929 H 1109.38 -1.22433 5.38251 0
M  V30 10930 H 1111.86 -2.03007 3.63218 0
M  V30 10931 H 1110.73 -3.05687 4.55902 0
M  V30 10932 H 1110.99 -3.37813 2.85193 0
M  V30 10933 N 1110.05 -1.5248 -0.398459 0
M  V30 10934 C 1110.99 -1.72826 -1.50545 0
M  V30 10935 C 1112 -0.608683 -1.50993 0
M  V30 10936 O 1113.19 -0.88413 -1.55066 0
M  V30 10937 C 1110.29 -1.76327 -2.89417 0
M  V30 10938 C 1109.46 -3.05491 -3.1304 0
M  V30 10939 C 1108.52 -3.00663 -4.31843 0
M  V30 10940 O 1107.55 -3.74548 -4.28605 0
M  V30 10941 N 1108.75 -2.19191 -5.37527 0
M  V30 10942 H 1111.51 -2.68333 -1.33482 0
M  V30 10943 H 1109.07 -1.5085 -0.587875 0
M  V30 10944 H 1111.07 -1.70616 -3.66977 0
M  V30 10945 H 1109.64 -0.882476 -2.99885 0
M  V30 10946 H 1108.86 -3.24767 -2.23428 0
M  V30 10947 H 1110.14 -3.90915 -3.25673 0
M  V30 10948 H 1109.54 -1.58613 -5.43009 0
M  V30 10949 H 1108.1 -2.19328 -6.1379 0
M  V30 10950 N 1111.53 0.65634 -1.43283 0
M  V30 10951 C 1112.46 1.78122 -1.42646 0
M  V30 10952 C 1113.44 1.60024 -0.288301 0
M  V30 10953 O 1114.63 1.82249 -0.481407 0
M  V30 10954 C 1111.75 3.1538 -1.23505 0
M  V30 10955 C 1110.8 3.52186 -2.40556 0
M  V30 10956 S 1111.63 3.52515 -4.03105 0
M  V30 10957 C 1112.79 4.92435 -3.8634 0
M  V30 10958 H 1113.02 1.78391 -2.37832 0
M  V30 10959 H 1110.55 0.828699 -1.30276 0
M  V30 10960 H 1112.51 3.94598 -1.13148 0
M  V30 10961 H 1111.17 3.12676 -0.298726 0
M  V30 10962 H 1110.37 4.52002 -2.22959 0
M  V30 10963 H 1109.97 2.80373 -2.47522 0
M  V30 10964 H 1112.26 5.81011 -3.48472 0
M  V30 10965 H 1113.2 5.15082 -4.85897 0
M  V30 10966 H 1113.61 4.65823 -3.18857 0
M  V30 10967 N 1113.01 1.29761 0.894412 0
M  V30 10968 C 1113.96 1.15232 2.0205 0
M  V30 10969 C 1114.95 0.0665664 1.69269 0
M  V30 10970 O 1116.16 0.226746 1.78566 0
M  V30 10971 H 1112.53 0.356102 0.662341 0
M  V30 10972 H 1114.5 2.10559 2.11442 0
M  V30 10973 C 1113.25 0.851143 3.37121 0
M  V30 10974 H 1112.58 1.67865 3.62852 0
M  V30 10975 H 1114.02 0.78954 4.16584 0
M  V30 10976 C 1112.47 -0.445737 3.33938 0
M  V30 10977 O 1113 -1.47017 3.7383 0
M  V30 10978 N 1111.21 -0.453493 2.8704 0
M  V30 10979 H 1110.76 0.380636 2.54772 0
M  V30 10980 H 1110.72 -1.32119 2.85293 0
M  V30 10981 N 1114.49 -1.10549 1.12324 0
M  V30 10982 C 1115.71 -1.8681 0.900927 0
M  V30 10983 C 1116.14 -1.80049 -0.54443 0
M  V30 10984 O 1115.5 -1.16957 -1.38531 0
M  V30 10985 C 1115.54 -3.33197 1.37883 0
M  V30 10986 O 1114.65 -4.08628 0.556529 0
M  V30 10987 H 1113.99 -0.579709 0.32378 0
M  V30 10988 H 1116.52 -1.39678 1.49503 0
M  V30 10989 H 1116.53 -3.84047 1.37739 0
M  V30 10990 H 1115.2 -3.37435 2.43127 0
M  V30 10991 H 1113.78 -3.67627 0.62486 0
M  V30 10992 N 1115.97 -0.914965 -1.28321 0
M  V30 10993 C 1116.9 -0.348729 -2.2552 0
M  V30 10994 C 1117.88 0.547737 -1.53097 0
M  V30 10995 O 1119.06 0.491119 -1.8199 0
M  V30 10996 C 1116.19 0.501397 -3.34968 0
M  V30 10997 C 1115.23 -0.329859 -4.25223 0
M  V30 10998 S 1116.07 -1.73737 -5.06533 0
M  V30 10999 C 1117.22 -0.89458 -6.19474 0
M  V30 11000 H 1117.46 -1.17256 -2.732 0
M  V30 11001 H 1114.99 -0.716297 -1.36779 0
M  V30 11002 H 1116.95 0.986061 -3.98481 0
M  V30 11003 H 1115.61 1.29962 -2.85952 0
M  V30 11004 H 1114.8 0.320236 -5.02982 0
M  V30 11005 H 1114.4 -0.748221 -3.66439 0
M  V30 11006 H 1116.69 -0.124776 -6.77385 0
M  V30 11007 H 1117.64 -1.64475 -6.88733 0
M  V30 11008 H 1118.05 -0.442217 -5.62765 0
M  V30 11009 N 1117.44 1.42219 -0.679077 0
M  V30 11010 C 1118.69 2.01081 -0.202718 0
M  V30 11011 C 1119.01 1.53986 1.19639 0
M  V30 11012 O 1118.28 0.763359 1.80415 0
M  V30 11013 H 1116.86 0.743526 -0.0719547 0
M  V30 11014 H 1119.52 1.74077 -0.876544 0
M  V30 11015 H 1118.62 3.11411 -0.207314 0
M  V30 11016 N 1118.92 0.422693 1.51826 0
M  V30 11017 C 1120.15 -0.15017 2.06856 0
M  V30 11018 C 1120.57 -1.36946 1.28948 0
M  V30 11019 O 1119.93 -1.78393 0.32338 0
M  V30 11020 C 1119.98 -0.465563 3.57582 0
M  V30 11021 O 1119.08 -1.55442 3.81984 0
M  V30 11022 H 1118.42 -0.00827931 0.663948 0
M  V30 11023 H 1120.95 0.599806 1.95611 0
M  V30 11024 H 1120.96 -0.720279 4.01592 0
M  V30 11025 H 1119.64 0.425679 4.13716 0
M  V30 11026 H 1118.21 -1.29081 3.49846 0
M  V30 11027 N 1120.4 -1.5685 0.153553 0
M  V30 11028 C 1121.65 -1.96625 -0.49665 0
M  V30 11029 C 1121.98 -1.03877 -1.64083 0
M  V30 11030 O 1121.25 -0.0824112 -1.94325 0
M  V30 11031 C 1121.54 -3.46035 -0.996585 0
M  V30 11032 C 1121.39 -4.49561 0.146551 0
M  V30 11033 C 1122.71 -3.98104 -1.8762 0
M  V30 11034 H 1119.83 -0.714917 -0.179059 0
M  V30 11035 H 1122.47 -1.88527 0.236104 0
M  V30 11036 H 1120.62 -3.53066 -1.621 0
M  V30 11037 H 1122.29 -4.54604 0.783108 0
M  V30 11038 H 1120.53 -4.26271 0.804727 0
M  V30 11039 H 1121.21 -5.51456 -0.245078 0
M  V30 11040 H 1123.68 -3.93593 -1.34997 0
M  V30 11041 H 1122.56 -5.03098 -2.19508 0
M  V30 11042 H 1122.82 -3.40852 -2.81554 0
M  V30 11043 N 1121.88 0.120221 -1.57141 0
M  V30 11044 C 1123.29 0.677497 -1.73974 0
M  V30 11045 C 1123.64 1.80371 -0.772055 0
M  V30 11046 O 1122.76 2.16329 0.0553062 0
M  V30 11047 C 1123.36 1.23575 -3.1546 0
M  V30 11048 C 1121.92 1.73933 -3.33803 0
M  V30 11049 C 1121.07 0.638542 -2.69848 0
M  V30 11050 H 1124.02 -0.105685 -1.58348 0
M  V30 11051 H 1124.04 2.10542 -3.16942 0
M  V30 11052 H 1123.55 0.415851 -3.85866 0
M  V30 11053 H 1121.65 2.58404 -2.68437 0
M  V30 11054 H 1121.76 1.84961 -4.41957 0
M  V30 11055 H 1120.13 1.07185 -2.31049 0
M  V30 11056 H 1120.91 -0.170356 -3.42877 0
M  V30 11057 N 1123.36 1.52689 0.390367 0
M  V30 11058 C 1124.6 1.67335 1.13329 0
M  V30 11059 C 1124.93 0.415068 1.90531 0
M  V30 11060 O 1124.2 -0.570504 1.87409 0
M  V30 11061 H 1122.78 0.616821 0.421356 0
M  V30 11062 H 1125.44 1.89799 0.443 0
M  V30 11063 H 1124.53 2.52314 1.83696 0
M  V30 11064 N 1124.83 -0.648732 1.43629 0
M  V30 11065 C 1125.77 -1.77363 1.43589 0
M  V30 11066 C 1126.75 -1.59869 0.296783 0
M  V30 11067 O 1127.93 -1.81991 0.491065 0
M  V30 11068 C 1125.06 -3.1472 1.25175 0
M  V30 11069 C 1124.1 -3.50906 2.4242 0
M  V30 11070 S 1124.94 -3.50372 4.04968 0
M  V30 11071 C 1126.09 -4.90379 3.88946 0
M  V30 11072 H 1126.32 -1.77127 2.38774 0
M  V30 11073 H 1123.86 -0.821778 1.30714 0
M  V30 11074 H 1125.82 -3.93993 1.15239 0
M  V30 11075 H 1124.48 -3.12513 0.315303 0
M  V30 11076 H 1123.67 -4.50813 2.25353 0
M  V30 11077 H 1123.27 -2.79056 2.49006 0
M  V30 11078 H 1125.56 -5.79155 3.51548 0
M  V30 11079 H 1126.51 -5.12498 4.88622 0
M  V30 11080 H 1126.91 -4.64125 3.21323 0
M  V30 11081 N 1126.31 -1.30234 -0.887518 0
M  V30 11082 C 1127.28 -1.16384 -1.97452 0
M  V30 11083 C 1128.28 -0.0957942 -1.60514 0
M  V30 11084 O 1129.47 -0.343706 -1.70776 0
M  V30 11085 C 1126.6 -0.782514 -3.31797 0
M  V30 11086 H 1127.79 -2.12952 -2.11167 0
M  V30 11087 H 1125.34 -1.13594 -1.07359 0
M  V30 11088 H 1126.08 0.18278 -3.23785 0
M  V30 11089 H 1125.86 -1.55434 -3.59976 0
M  V30 11090 H 1127.35 -0.709011 -4.11537 0
M  V30 11091 N 1127.79 1.09952 -1.12909 0
M  V30 11092 C 1129.04 1.81386 -0.882163 0
M  V30 11093 C 1129.35 1.86376 0.593592 0
M  V30 11094 O 1130.56 2.54064 0.957275 0
M  V30 11095 C 1129.01 3.25824 -1.52861 0
M  V30 11096 C 1128.62 3.29117 -3.0395 0
M  V30 11097 C 1130.37 4.02051 -1.36216 0
M  V30 11098 C 1128.27 4.68047 -3.61505 0
M  V30 11099 H 1127.2 0.679701 -0.326378 0
M  V30 11100 H 1129.85 1.23614 -1.35616 0
M  V30 11101 H 1128.24 3.83624 -0.982271 0
M  V30 11102 H 1129.41 2.81114 -3.65119 0
M  V30 11103 H 1127.73 2.66379 -3.20049 0
M  V30 11104 H 1130.32 5.04683 -1.76633 0
M  V30 11105 H 1130.67 4.15171 -0.306391 0
M  V30 11106 H 1131.2 3.5068 -1.87799 0
M  V30 11107 H 1127.94 4.60128 -4.66865 0
M  V30 11108 H 1127.46 5.16397 -3.05114 0
M  V30 11109 H 1129.14 5.37018 -3.6086 0
M  V30 11110 N 1129.27 0.921757 1.27833 0
M  V30 11111 C 1130.49 0.574599 1.99281 0
M  V30 11112 C 1130.92 -0.838905 1.68357 0
M  V30 11113 O 1130.28 -1.56196 0.920468 0
M  V30 11114 C 1130.32 0.800027 3.51613 0
M  V30 11115 O 1129.43 -0.137215 4.12172 0
M  V30 11116 H 1128.77 0.221887 0.625829 0
M  V30 11117 H 1131.3 1.23939 1.62789 0
M  V30 11118 H 1131.31 0.71326 4.01717 0
M  V30 11119 H 1129.98 1.83042 3.73455 0
M  V30 11120 H 1128.56 -0.00103872 3.729 0
M  V30 11121 N 1130.75 -1.41857 0.686609 0
M  V30 11122 C 1132.16 -1.84439 0.289662 0
M  V30 11123 C 1132.51 -1.57462 -1.17047 0
M  V30 11124 O 1131.63 -1.04046 -1.89745 0
M  V30 11125 C 1132.23 -3.34802 0.518948 0
M  V30 11126 C 1130.79 -3.75988 0.176007 0
M  V30 11127 C 1129.93 -2.65339 0.805632 0
M  V30 11128 H 1132.89 -1.31536 0.88792 0
M  V30 11129 H 1132.91 -3.79833 -0.225209 0
M  V30 11130 H 1132.42 -3.54405 1.58173 0
M  V30 11131 H 1130.52 -3.61989 -0.882865 0
M  V30 11132 H 1130.63 -4.75009 0.624772 0
M  V30 11133 H 1129 -2.53605 0.235966 0
M  V30 11134 H 1129.78 -2.87762 1.8721 0
M  V30 11135 N 1132.22 -0.430739 -1.51599 0
M  V30 11136 C 1133.45 0.139197 -2.06932 0
M  V30 11137 C 1133.87 1.3626 -1.29672 0
M  V30 11138 O 1133.23 1.78219 -0.332836 0
M  V30 11139 C 1133.28 0.446593 -3.57824 0
M  V30 11140 O 1132.38 1.53414 -3.82803 0
M  V30 11141 H 1131.73 0.00475812 -0.663983 0
M  V30 11142 H 1134.26 -0.610171 -1.9529 0
M  V30 11143 H 1134.27 0.698972 -4.01968 0
M  V30 11144 H 1132.94 -0.447613 -4.13484 0
M  V30 11145 H 1131.52 1.27224 -3.50526 0
M  V30 11146 N 1133.7 1.56767 -0.161869 0
M  V30 11147 C 1135.12 1.58412 0.194403 0
M  V30 11148 C 1135.32 1.17682 1.63564 0
M  V30 11149 O 1134.37 0.884024 2.36519 0
M  V30 11150 C 1135.69 3.00599 -0.0778438 0
M  V30 11151 C 1137.24 3.12996 -0.015307 0
M  V30 11152 C 1137.71 4.57259 -0.260418 0
M  V30 11153 N 1139.2 4.62733 -0.207863 0
M  V30 11154 C 1139.94 5.72193 -0.371821 0
M  V30 11155 N 1139.43 6.90246 -0.594318 0
M  V30 11156 N 1141.23 5.61253 -0.308384 0
M  V30 11157 H 1133.38 1.81531 -1.10274 0
M  V30 11158 H 1135.64 0.840919 -0.437675 0
M  V30 11159 H 1135.35 3.3484 -1.07587 0
M  V30 11160 H 1135.22 3.71819 0.634845 0
M  V30 11161 H 1137.61 2.78588 0.97329 0
M  V30 11162 H 1137.69 2.44232 -0.760559 0
M  V30 11163 H 1137.33 4.92375 -1.24618 0
M  V30 11164 H 1137.26 5.2417 0.505334 0
M  V30 11165 H 1139.75 3.77878 -0.0411541 0
M  V30 11166 H 1140.07 7.6954 -0.70913 0
M  V30 11167 H 1138.41 6.92131 -0.630819 0
M  V30 11168 H 1141.6 4.67905 -0.135217 0
M  V30 11169 H 1141.77 6.46507 -0.439592 0
M  V30 11170 N 1135.18 -0.111886 1.57202 0
M  V30 11171 C 1136.11 -1.16749 1.96074 0
M  V30 11172 C 1137.09 -1.39735 0.831438 0
M  V30 11173 O 1138.28 -1.53772 1.09025 0
M  V30 11174 C 1135.4 -2.51996 2.26308 0
M  V30 11175 C 1134.45 -2.45394 3.48832 0
M  V30 11176 S 1135.28 -1.8867 5.01163 0
M  V30 11177 C 1136.44 -3.25576 5.34557 0
M  V30 11178 H 1136.67 -0.836033 2.85303 0
M  V30 11179 H 1134.2 -0.318922 1.5107 0
M  V30 11180 H 1136.16 -3.29813 2.44405 0
M  V30 11181 H 1134.82 -2.82317 1.3768 0
M  V30 11182 H 1134.02 -3.45038 3.67376 0
M  V30 11183 H 1133.62 -1.75702 3.30159 0
M  V30 11184 H 1135.91 -4.21807 5.30174 0
M  V30 11185 H 1136.85 -3.11853 6.35731 0
M  V30 11186 H 1137.26 -3.24333 4.62026 0
M  V30 11187 N 1136.66 -1.52894 -0.382264 0
M  V30 11188 C 1138.07 -1.60135 -0.959887 0
M  V30 11189 C 1138.42 -0.458363 -1.90771 0
M  V30 11190 O 1137.55 0.417614 -2.12332 0
M  V30 11191 C 1138.14 -2.90243 -1.74769 0
M  V30 11192 C 1136.7 -2.99874 -2.27491 0
M  V30 11193 C 1135.85 -2.55302 -1.0824 0
M  V30 11194 H 1138.8 -1.57875 -0.161589 0
M  V30 11195 H 1138.82 -2.77108 -2.60751 0
M  V30 11196 H 1138.33 -3.73412 -1.0576 0
M  V30 11197 H 1136.43 -2.21258 -2.99793 0
M  V30 11198 H 1136.54 -4.04643 -2.56516 0
M  V30 11199 H 1134.91 -2.09781 -1.44444 0
M  V30 11200 H 1135.69 -3.40872 -0.407553 0
M  V30 11201 N 1138.14 0.641106 -1.43971 0
M  V30 11202 C 1139.07 1.76645 -1.46046 0
M  V30 11203 C 1140.08 1.58881 -0.355049 0
M  V30 11204 O 1141.27 1.67379 -0.620207 0
M  V30 11205 C 1138.37 3.14237 -1.26918 0
M  V30 11206 C 1137.54 3.5855 -2.50521 0
M  V30 11207 C 1136.6 4.74986 -2.26438 0
M  V30 11208 O 1135.63 4.83807 -2.99866 0
M  V30 11209 N 1136.83 5.66016 -1.28866 0
M  V30 11210 H 1139.6 1.75339 -2.43056 0
M  V30 11211 H 1137.16 0.82535 -1.39282 0
M  V30 11212 H 1139.15 3.89837 -1.0867 0
M  V30 11213 H 1137.72 3.10244 -0.383082 0
M  V30 11214 H 1136.94 2.73265 -2.84112 0
M  V30 11215 H 1138.23 3.84906 -3.32754 0
M  V30 11216 H 1137.63 5.61574 -0.682018 0
M  V30 11217 H 1136.18 6.41286 -1.16599 0
M  V30 11218 N 1139.62 1.30703 0.880598 0
M  V30 11219 C 1141.03 1.17818 1.4483 0
M  V30 11220 C 1141.38 -0.219456 1.94969 0
M  V30 11221 O 1140.5 -1.11646 1.85375 0
M  V30 11222 C 1141.1 2.13275 2.63247 0
M  V30 11223 C 1139.66 2.04356 3.16094 0
M  V30 11224 C 1138.8 2.03108 1.88792 0
M  V30 11225 H 1141.75 1.42909 0.690125 0
M  V30 11226 H 1141.78 1.71615 3.39601 0
M  V30 11227 H 1141.29 3.14988 2.26725 0
M  V30 11228 H 1139.39 1.058 3.57263 0
M  V30 11229 H 1139.5 2.92953 3.79098 0
M  V30 11230 H 1137.87 1.47971 2.07308 0
M  V30 11231 H 1138.65 3.06558 1.54521 0
M  V30 11232 N 1141.09 -1.09351 1.1349 0
M  V30 11233 C 1142.5 -1.63035 0.909746 0
M  V30 11234 C 1142.86 -1.88229 -0.553573 0
M  V30 11235 O 1141.98 -1.63256 -1.42044 0
M  V30 11236 C 1142.58 -2.96186 1.64497 0
M  V30 11237 C 1141.13 -3.46692 1.46566 0
M  V30 11238 C 1140.28 -2.21095 1.67369 0
M  V30 11239 H 1143.23 -0.92704 1.28809 0
M  V30 11240 H 1143.25 -3.64177 1.10251 0
M  V30 11241 H 1142.77 -2.77818 2.70996 0
M  V30 11242 H 1140.87 -3.70183 0.423728 0
M  V30 11243 H 1140.98 -4.24078 2.22923 0
M  V30 11244 H 1139.34 -2.29789 1.0986 0
M  V30 11245 H 1140.13 -2.05245 2.7519 0
M  V30 11246 N 1142.57 -0.928524 -1.27343 0
M  V30 11247 C 1143.52 -0.418768 -2.28799 0
M  V30 11248 C 1144.51 0.497334 -1.61935 0
M  V30 11249 O 1145.72 0.376945 -1.76009 0
M  V30 11250 H 1142.09 -0.116855 -0.742865 0
M  V30 11251 H 1144.07 -1.28725 -2.69207 0
M  V30 11252 C 1142.81 0.312422 -3.46294 0
M  V30 11253 H 1142.14 -0.383317 -3.97958 0
M  V30 11254 H 1143.58 0.633514 -4.19241 0
M  V30 11255 C 1142.04 1.5257 -3.00373 0
M  V30 11256 O 1142.57 2.62443 -3.04116 0
M  V30 11257 N 1140.77 1.37782 -2.5586 0
M  V30 11258 H 1140.32 0.483908 -2.53014 0
M  V30 11259 H 1140.28 2.19085 -2.25498 0
M  V30 11260 N 1144.05 1.41491 -0.694123 0
M  V30 11261 C 1144.98 2.28189 0.0226347 0
M  V30 11262 C 1145.96 1.42152 0.7894 0
M  V30 11263 O 1147.14 1.71581 0.780519 0
M  V30 11264 C 1144.27 3.22357 1.03942 0
M  V30 11265 C 1143.32 4.24927 0.365994 0
M  V30 11266 S 1144.15 5.28043 -0.890562 0
M  V30 11267 C 1145.31 6.25776 0.124665 0
M  V30 11268 H 1145.54 2.88631 -0.712698 0
M  V30 11269 H 1143.07 1.46607 -0.484344 0
M  V30 11270 H 1145.03 3.77143 1.62091 0
M  V30 11271 H 1143.69 2.61013 1.74732 0
M  V30 11272 H 1142.88 4.9108 1.13388 0
M  V30 11273 H 1142.49 3.73729 -0.142389 0
M  V30 11274 H 1144.78 6.70398 0.978393 0
M  V30 11275 H 1145.72 7.06312 -0.502901 0
M  V30 11276 H 1146.13 5.62466 0.478792 0
M  V30 11277 N 1145.53 0.438773 1.51369 0
M  V30 11278 C 1146.46 -0.417215 2.24354 0
M  V30 11279 C 1147.44 -1.02351 1.26345 0
M  V30 11280 O 1148.62 -1.06569 1.55484 0
M  V30 11281 C 1145.75 -1.58163 2.99503 0
M  V30 11282 C 1144.8 -1.09588 4.1218 0
M  V30 11283 S 1145.63 -0.0367491 5.35487 0
M  V30 11284 C 1146.78 -1.2058 6.14175 0
M  V30 11285 H 1147.02 0.202416 2.9661 0
M  V30 11286 H 1144.55 0.223306 1.52777 0
M  V30 11287 H 1146.51 -2.24917 3.43399 0
M  V30 11288 H 1145.17 -2.17268 2.26833 0
M  V30 11289 H 1144.36 -1.96667 4.64045 0
M  V30 11290 H 1143.96 -0.506564 3.70554 0
M  V30 11291 H 1146.26 -2.12387 6.43349 0
M  V30 11292 H 1147.2 -0.727087 7.04357 0
M  V30 11293 H 1147.61 -1.44501 5.45692 0
M  V30 11294 N 1147.01 -1.56678 0.170181 0
M  V30 11295 C 1148.25 -1.9646 -0.474125 0
M  V30 11296 C 1148.57 -1.05719 -1.63855 0
M  V30 11297 O 1147.84 -0.123316 -1.95511 0
M  V30 11298 H 1146.42 -0.725446 -0.178149 0
M  V30 11299 H 1149.09 -1.93276 0.251099 0
M  V30 11300 H 1148.18 -3.00726 -0.834894 0
M  V30 11301 N 1148.48 0.103547 -1.57259 0
M  V30 11302 C 1149.45 1.11039 -2.00507 0
M  V30 11303 C 1150.45 1.33432 -0.897361 0
M  V30 11304 O 1151.64 1.29688 -1.16304 0
M  V30 11305 C 1148.77 2.46144 -2.35851 0
M  V30 11306 H 1149.96 0.738332 -2.90669 0
M  V30 11307 H 1147.51 0.348334 -1.52369 0
M  V30 11308 H 1148.25 2.88242 -1.48617 0
M  V30 11309 H 1148.03 2.31241 -3.16654 0
M  V30 11310 H 1149.52 3.18577 -2.69997 0
M  V30 11311 N 1149.96 1.53094 0.37415 0
M  V30 11312 C 1150.91 1.75307 1.45779 0
M  V30 11313 C 1151.9 0.607409 1.48994 0
M  V30 11314 O 1153.09 0.865777 1.5438 0
M  V30 11315 C 1150.22 1.93871 2.83318 0
M  V30 11316 C 1149.3 3.14413 2.84614 0
M  V30 11317 N 1149.69 4.36486 2.55565 0
M  V30 11318 C 1147.99 3.14961 3.15778 0
M  V30 11319 C 1148.69 5.18178 2.64322 0
M  V30 11320 N 1147.67 4.54196 2.98675 0
M  V30 11321 H 1151.47 2.67305 1.22169 0
M  V30 11322 H 1148.98 1.51603 0.582254 0
M  V30 11323 H 1150.98 2.0791 3.61357 0
M  V30 11324 H 1149.64 1.03096 3.07898 0
M  V30 11325 H 1150.65 4.64366 2.29314 0
M  V30 11326 H 1147.33 2.34048 3.45728 0
M  V30 11327 H 1148.72 6.25529 2.45282 0
M  V30 11328 N 1151.44 -0.633461 1.44309 0
M  V30 11329 C 1152.67 -1.42033 1.50447 0
M  V30 11330 C 1153.08 -1.88362 0.128585 0
M  V30 11331 O 1152.44 -1.60695 -0.865071 0
M  V30 11332 C 1152.49 -2.6422 2.46719 0
M  V30 11333 O 1152.21 -2.19823 3.78958 0
M  V30 11334 C 1153.71 -3.57372 2.62298 0
M  V30 11335 H 1150.93 -0.435667 0.510329 0
M  V30 11336 H 1153.48 -0.774907 1.8925 0
M  V30 11337 H 1151.63 -3.24859 2.11058 0
M  V30 11338 H 1152.05 -2.99022 4.30913 0
M  V30 11339 H 1153.52 -4.39719 3.33693 0
M  V30 11340 H 1154 -4.06026 1.67449 0
M  V30 11341 H 1154.6 -3.02603 2.9885 0
M  V30 11342 N 1152.92 -1.31168 -0.873655 0
M  V30 11343 C 1153.87 -1.18432 -2.00191 0
M  V30 11344 C 1154.86 -0.0934873 -1.69142 0
M  V30 11345 O 1156.07 -0.255126 -1.78183 0
M  V30 11346 H 1152.44 -0.366594 -0.656592 0
M  V30 11347 H 1154.41 -2.13896 -2.08065 0
M  V30 11348 C 1153.16 -0.904668 -3.35725 0
M  V30 11349 H 1152.48 -1.73617 -3.60135 0
M  V30 11350 H 1153.92 -0.855715 -4.15275 0
M  V30 11351 C 1152.38 0.392554 -3.34605 0
M  V30 11352 O 1152.91 1.41052 -3.76121 0
M  V30 11353 N 1151.12 0.40777 -2.87725 0
M  V30 11354 H 1150.67 -0.42112 -2.54134 0
M  V30 11355 H 1150.62 1.27564 -2.87358 0
M  V30 11356 N 1154.4 1.08748 -1.14068 0
M  V30 11357 C 1155.34 2.17667 -0.819981 0
M  V30 11358 C 1156.34 1.68207 0.200654 0
M  V30 11359 O 1157.54 1.79909 0.0571014 0
M  V30 11360 H 1153.92 0.710129 -0.247427 0
M  V30 11361 H 1155.89 2.41944 -1.74659 0
M  V30 11362 C 1154.64 3.46315 -0.309985 0
M  V30 11363 H 1153.96 3.84748 -1.08669 0
M  V30 11364 H 1155.4 4.23818 -0.124094 0
M  V30 11365 C 1153.86 3.22762 0.965724 0
M  V30 11366 O 1154.39 3.46034 2.04018 0
M  V30 11367 N 1152.6 2.76326 0.899576 0
M  V30 11368 H 1152.14 2.57588 0.0250598 0
M  V30 11369 H 1152.1 2.60945 1.75371 0
M  V30 11370 N 1155.87 0.935264 1.26849 0
M  V30 11371 C 1156.81 0.384563 2.24936 0
M  V30 11372 C 1157.79 -0.523311 1.53949 0
M  V30 11373 O 1158.97 -0.462103 1.82748 0
M  V30 11374 C 1156.1 -0.448043 3.35723 0
M  V30 11375 C 1155.14 0.397466 4.24644 0
M  V30 11376 S 1155.98 1.81773 5.03705 0
M  V30 11377 C 1157.13 0.99302 6.17972 0
M  V30 11378 H 1157.36 1.21588 2.713 0
M  V30 11379 H 1154.9 0.737966 1.35622 0
M  V30 11380 H 1156.86 -0.922541 3.99999 0
M  V30 11381 H 1155.52 -1.25397 2.87983 0
M  V30 11382 H 1154.71 -0.240176 5.03427 0
M  V30 11383 H 1154.31 0.806423 3.65202 0
M  V30 11384 H 1156.6 0.232526 6.77101 0
M  V30 11385 H 1157.55 1.75412 6.86029 0
M  V30 11386 H 1157.95 0.531692 5.6199 0
M  V30 11387 N 1157.35 -1.41121 0.701616 0
M  V30 11388 C 1158.29 -2.28198 -0.010533 0
M  V30 11389 C 1159.26 -1.42569 -0.78185 0
M  V30 11390 O 1160.45 -1.71993 -0.771408 0
M  V30 11391 C 1157.57 -3.22903 -1.02231 0
M  V30 11392 C 1156.62 -4.25115 -0.343454 0
M  V30 11393 S 1157.45 -5.27563 0.918553 0
M  V30 11394 C 1158.61 -6.25833 -0.0914763 0
M  V30 11395 H 1158.84 -2.88249 0.727995 0
M  V30 11396 H 1156.38 -1.46348 0.492112 0
M  V30 11397 H 1158.33 -3.77997 -1.60089 0
M  V30 11398 H 1156.99 -2.61936 -1.73345 0
M  V30 11399 H 1156.19 -4.91674 -1.10782 0
M  V30 11400 H 1155.79 -3.73648 0.162206 0
M  V30 11401 H 1158.08 -6.70908 -0.942826 0
M  V30 11402 H 1159.02 -7.06035 0.540351 0
M  V30 11403 H 1159.43 -5.62712 -0.448956 0
M  V30 11404 N 1158.83 -0.446794 -1.51134 0
M  V30 11405 C 1159.79 0.348311 -2.26538 0
M  V30 11406 C 1160.79 0.941566 -1.3035 0
M  V30 11407 O 1161.98 0.814537 -1.53984 0
M  V30 11408 C 1159.12 1.49371 -3.06433 0
M  V30 11409 H 1160.31 -0.312648 -2.98266 0
M  V30 11410 H 1157.86 -0.200201 -1.55013 0
M  V30 11411 H 1158.6 2.19045 -2.39144 0
M  V30 11412 H 1158.38 1.07439 -3.77093 0
M  V30 11413 H 1159.87 2.05522 -3.63525 0
M  V30 11414 N 1160.31 1.56586 -0.178487 0
M  V30 11415 C 1161.24 2.155 0.780543 0
M  V30 11416 C 1162.25 1.11244 1.18864 0
M  V30 11417 O 1163.44 1.38403 1.12725 0
M  V30 11418 C 1160.54 2.68867 2.0631 0
M  V30 11419 C 1159.72 3.97854 1.81744 0
M  V30 11420 C 1158.77 4.36213 2.94287 0
M  V30 11421 O 1157.8 5.03954 2.64612 0
M  V30 11422 N 1159 3.98356 4.22247 0
M  V30 11423 H 1161.77 2.98419 0.276836 0
M  V30 11424 H 1159.33 1.61899 0.00405241 0
M  V30 11425 H 1161.32 2.91522 2.80708 0
M  V30 11426 H 1159.89 1.90496 2.47851 0
M  V30 11427 H 1159.11 3.83502 0.912127 0
M  V30 11428 H 1160.4 4.82083 1.62707 0
M  V30 11429 H 1159.8 3.43835 4.49215 0
M  V30 11430 H 1158.35 4.25998 4.93325 0
M  V30 11431 N 1161.79 -0.095206 1.57312 0
M  V30 11432 C 1162.75 -1.09974 2.01093 0
M  V30 11433 C 1163.75 -1.32954 0.904424 0
M  V30 11434 O 1164.94 -1.29069 1.16991 0
M  V30 11435 C 1162.07 -2.4489 2.37153 0
M  V30 11436 H 1163.26 -0.722906 2.91057 0
M  V30 11437 H 1160.82 -0.340249 1.52552 0
M  V30 11438 H 1161.55 -2.8745 1.50143 0
M  V30 11439 H 1161.34 -2.29559 3.17876 0
M  V30 11440 H 1162.83 -3.17141 2.71683 0
M  V30 11441 N 1163.26 -1.53291 -0.366026 0
M  V30 11442 C 1164.68 -1.61144 -0.942849 0
M  V30 11443 C 1165.03 -0.478571 -1.90274 0
M  V30 11444 O 1164.15 0.395069 -2.12763 0
M  V30 11445 C 1164.75 -2.92081 -1.71681 0
M  V30 11446 C 1163.31 -3.0227 -2.24298 0
M  V30 11447 C 1162.45 -2.56436 -1.05526 0
M  V30 11448 H 1165.4 -1.58038 -0.144835 0
M  V30 11449 H 1165.42 -2.79858 -2.57798 0
M  V30 11450 H 1164.94 -3.74513 -1.01793 0
M  V30 11451 H 1163.04 -2.24425 -2.97429 0
M  V30 11452 H 1163.15 -4.07341 -2.5221 0
M  V30 11453 H 1161.51 -2.11301 -1.42211 0
M  V30 11454 H 1162.3 -3.41285 -0.371376 0
M  V30 11455 N 1164.74 0.6258 -1.44643 0
M  V30 11456 C 1165.71 1.71941 -1.51555 0
M  V30 11457 C 1166.71 1.55822 -0.396988 0
M  V30 11458 O 1167.9 1.61221 -0.65981 0
M  V30 11459 C 1165.03 3.11068 -1.39461 0
M  V30 11460 H 1166.22 1.67185 -2.48976 0
M  V30 11461 H 1163.77 0.839934 -1.31814 0
M  V30 11462 H 1164.51 3.21416 -0.431534 0
M  V30 11463 H 1164.29 3.24175 -2.20574 0
M  V30 11464 H 1165.78 3.90762 -1.4729 0
M  V30 11465 N 1166.22 1.31629 0.866686 0
M  V30 11466 C 1167.15 1.15377 1.98042 0
M  V30 11467 C 1168.17 0.0919633 1.6254 0
M  V30 11468 O 1169.35 0.339775 1.75236 0
M  V30 11469 C 1166.45 0.741295 3.30693 0
M  V30 11470 C 1165.63 1.88882 3.94516 0
M  V30 11471 C 1164.69 1.46186 5.05486 0
M  V30 11472 O 1163.71 2.17202 5.26129 0
M  V30 11473 N 1164.91 0.351096 5.79437 0
M  V30 11474 H 1167.68 2.11309 2.12529 0
M  V30 11475 H 1165.24 1.24007 1.04085 0
M  V30 11476 H 1167.23 0.438313 4.02319 0
M  V30 11477 H 1165.8 -0.12651 3.12344 0
M  V30 11478 H 1165.02 2.35894 3.15828 0
M  V30 11479 H 1166.31 2.65734 4.33892 0
M  V30 11480 H 1165.71 -0.240245 5.6519 0
M  V30 11481 H 1164.27 0.107663 6.51711 0
M  V30 11482 N 1167.7 -1.08142 1.14644 0
M  V30 11483 C 1168.92 -1.84857 0.940349 0
M  V30 11484 C 1169.35 -1.81163 -0.506117 0
M  V30 11485 O 1168.71 -1.19869 -1.36019 0
M  V30 11486 C 1168.76 -3.30198 1.4492 0
M  V30 11487 O 1167.86 -4.07355 0.64308 0
M  V30 11488 H 1167.2 -0.572711 0.336003 0
M  V30 11489 H 1169.73 -1.36475 1.52432 0
M  V30 11490 H 1169.74 -3.81039 1.45854 0
M  V30 11491 H 1168.42 -3.32202 2.50229 0
M  V30 11492 H 1166.99 -3.66219 0.702698 0
M  V30 11493 N 1169.18 -0.941978 -1.26351 0
M  V30 11494 C 1170.11 -0.409504 -2.25512 0
M  V30 11495 C 1171.12 0.467665 -1.55938 0
M  V30 11496 O 1172.31 0.277982 -1.76322 0
M  V30 11497 C 1169.41 0.430487 -3.36155 0
M  V30 11498 C 1168.58 -0.430714 -4.35274 0
M  V30 11499 C 1167.64 0.348976 -5.25042 0
M  V30 11500 O 1166.67 -0.24827 -5.68658 0
M  V30 11501 N 1167.87 1.64531 -5.56695 0
M  V30 11502 H 1170.64 -1.26196 -2.71836 0
M  V30 11503 H 1168.2 -0.810947 -1.40126 0
M  V30 11504 H 1170.19 0.959501 -3.93161 0
M  V30 11505 H 1168.76 1.18375 -2.8932 0
M  V30 11506 H 1167.98 -1.14093 -3.77328 0
M  V30 11507 H 1169.27 -1.01896 -4.98492 0
M  V30 11508 H 1168.67 2.15266 -5.23142 0
M  V30 11509 H 1167.22 2.12055 -6.16341 0
M  V30 11510 N 1170.66 1.40747 -0.709091 0
M  V30 11511 C 1171.9 2.01003 -0.24581 0
M  V30 11512 C 1172.23 1.56203 1.15891 0
M  V30 11513 O 1171.49 0.770166 1.79908 0
M  V30 11514 C 1171.78 3.56404 -0.266685 0
M  V30 11515 C 1171.45 4.20762 -1.6208 0
M  V30 11516 C 1170.11 4.38056 -1.99148 0
M  V30 11517 C 1172.46 4.56723 -2.51105 0
M  V30 11518 C 1169.79 4.88591 -3.248 0
M  V30 11519 C 1172.14 5.08654 -3.76103 0
M  V30 11520 C 1170.81 5.24158 -4.13297 0
M  V30 11521 H 1170.08 0.73552 -0.0899481 0
M  V30 11522 H 1172.73 1.68451 -0.910844 0
M  V30 11523 H 1171.03 3.88825 0.481915 0
M  V30 11524 H 1172.73 4.0085 0.109509 0
M  V30 11525 H 1169.32 4.07685 -1.32252 0
M  V30 11526 H 1173.5 4.43004 -2.23744 0
M  V30 11527 H 1168.76 4.98779 -3.53595 0
M  V30 11528 H 1172.93 5.35457 -4.45262 0
M  V30 11529 H 1170.56 5.63079 -5.10731 0
M  V30 11530 N 1172.13 0.454803 1.50895 0
M  V30 11531 C 1173.06 -0.337982 2.31041 0
M  V30 11532 C 1174.04 -1.00523 1.37219 0
M  V30 11533 O 1175.23 -1.00553 1.66141 0
M  V30 11534 C 1172.36 -1.42964 3.1651 0
M  V30 11535 C 1171.31 -0.884907 4.18752 0
M  V30 11536 C 1170.64 -2.07363 4.92854 0
M  V30 11537 C 1171.94 0.0926716 5.22218 0
M  V30 11538 H 1173.63 0.33089 2.97566 0
M  V30 11539 H 1171.18 0.160577 1.43102 0
M  V30 11540 H 1173.13 -1.9916 3.71367 0
M  V30 11541 H 1171.86 -2.12705 2.47839 0
M  V30 11542 H 1170.52 -0.345031 3.64973 0
M  V30 11543 H 1170.16 -2.75764 4.2067 0
M  V30 11544 H 1169.86 -1.71545 5.62002 0
M  V30 11545 H 1171.39 -2.6408 5.5054 0
M  V30 11546 H 1172.8 -0.379568 5.72042 0
M  V30 11547 H 1171.2 0.3643 5.98993 0
M  V30 11548 H 1172.27 1.02383 4.73968 0
M  V30 11549 N 1173.61 -1.56489 0.186789 0
M  V30 11550 C 1175.02 -1.83809 -0.327265 0
M  V30 11551 C 1175.37 -1.10718 -1.61976 0
M  V30 11552 O 1174.5 -0.36525 -2.13295 0
M  V30 11553 C 1175.09 -3.33435 -0.600551 0
M  V30 11554 C 1173.65 -3.61195 -1.059 0
M  V30 11555 C 1172.8 -2.77108 -0.103131 0
M  V30 11556 H 1175.75 -1.53292 0.410747 0
M  V30 11557 H 1175.77 -3.51754 -1.45084 0
M  V30 11558 H 1175.28 -3.86605 0.340315 0
M  V30 11559 H 1173.38 -3.13451 -2.01443 0
M  V30 11560 H 1173.5 -4.69435 -0.957458 0
M  V30 11561 H 1171.86 -2.47448 -0.603449 0
M  V30 11562 H 1172.64 -3.33065 0.832031 0
M  V30 11563 N 1175.09 0.086862 -1.5736 0
M  V30 11564 C 1176.02 1.13117 -1.99342 0
M  V30 11565 C 1177.03 1.35849 -0.897151 0
M  V30 11566 O 1178.22 1.34356 -1.17519 0
M  V30 11567 C 1175.32 2.48511 -2.30425 0
M  V30 11568 C 1174.5 2.45942 -3.61706 0
M  V30 11569 C 1173.56 3.63327 -3.80631 0
M  V30 11570 O 1172.58 3.45443 -4.52392 0
M  V30 11571 N 1173.78 4.83118 -3.21835 0
M  V30 11572 H 1176.55 0.773782 -2.89539 0
M  V30 11573 H 1174.11 0.275731 -1.59535 0
M  V30 11574 H 1176.1 3.25656 -2.40272 0
M  V30 11575 H 1174.67 2.76308 -1.46194 0
M  V30 11576 H 1173.89 1.54287 -3.62752 0
M  V30 11577 H 1175.18 2.41313 -4.47935 0
M  V30 11578 H 1174.58 5.00552 -2.6356 0
M  V30 11579 H 1173.13 5.57827 -3.37154 0
M  V30 11580 N 1176.57 1.53483 0.357892 0
M  V30 11581 C 1177.52 1.81143 1.45911 0
M  V30 11582 C 1178.51 0.681002 1.55109 0
M  V30 11583 O 1179.72 0.864086 1.57904 0
M  V30 11584 H 1176.09 0.573663 0.486225 0
M  V30 11585 H 1178.06 2.733 1.19789 0
M  V30 11586 C 1176.81 2.02509 2.8264 0
M  V30 11587 H 1176.13 2.88938 2.76324 0
M  V30 11588 H 1177.57 2.25837 3.58851 0
M  V30 11589 C 1176.03 0.806412 3.27106 0
M  V30 11590 O 1176.56 -0.00116809 4.017 0
M  V30 11591 N 1174.77 0.627677 2.8374 0
M  V30 11592 H 1174.32 1.28601 2.23203 0
M  V30 11593 H 1174.27 -0.186301 3.13848 0
M  V30 11594 N 1178.05 -0.61812 1.44973 0
M  V30 11595 C 1178.98 -1.74299 1.48837 0
M  V30 11596 C 1179.99 -1.58296 0.38028 0
M  V30 11597 O 1181.18 -1.66371 0.646757 0
M  V30 11598 C 1178.28 -3.12179 1.31901 0
M  V30 11599 C 1177.45 -3.54519 2.56193 0
M  V30 11600 C 1176.51 -4.71324 2.33966 0
M  V30 11601 O 1175.54 -4.78975 3.07525 0
M  V30 11602 N 1176.74 -5.63894 1.37854 0
M  V30 11603 H 1179.5 -1.7145 2.45815 0
M  V30 11604 H 1177.07 -0.803087 1.40578 0
M  V30 11605 H 1179.06 -3.88059 1.14858 0
M  V30 11606 H 1177.63 -3.09595 0.43239 0
M  V30 11607 H 1176.85 -2.68711 2.88423 0
M  V30 11608 H 1178.14 -3.79563 3.38835 0
M  V30 11609 H 1177.53 -5.60418 0.771273 0
M  V30 11610 H 1176.09 -6.3935 1.26787 0
M  V30 11611 N 1179.52 -1.32087 -0.859693 0
M  V30 11612 C 1180.77 -1.2236 -1.61351 0
M  V30 11613 C 1181.1 0.215796 -1.93299 0
M  V30 11614 O 1180.35 1.16742 -1.57066 0
M  V30 11615 C 1180.65 -2.0234 -2.94607 0
M  V30 11616 C 1180.32 -3.51746 -2.82109 0
M  V30 11617 C 1178.98 -3.92482 -2.78408 0
M  V30 11618 C 1181.33 -4.46776 -2.68403 0
M  V30 11619 C 1178.66 -5.265 -2.58873 0
M  V30 11620 C 1181.01 -5.80931 -2.50404 0
M  V30 11621 C 1179.68 -6.20875 -2.45092 0
M  V30 11622 H 1178.95 -0.447748 -0.590426 0
M  V30 11623 H 1181.59 -1.63461 -0.997637 0
M  V30 11624 H 1179.9 -1.53952 -3.60286 0
M  V30 11625 H 1181.6 -1.92187 -3.51945 0
M  V30 11626 H 1178.19 -3.19389 -2.85812 0
M  V30 11627 H 1182.37 -4.16228 -2.70311 0
M  V30 11628 H 1177.63 -5.5651 -2.53192 0
M  V30 11629 H 1181.8 -6.54185 -2.38777 0
M  V30 11630 H 1179.43 -7.24662 -2.29714 0
M  V30 11631 N 1181 1.07532 -1.15215 0
M  V30 11632 C 1182.41 1.61567 -0.935568 0
M  V30 11633 C 1182.76 1.89085 0.523557 0
M  V30 11634 O 1181.89 1.65495 1.39429 0
M  V30 11635 C 1182.48 2.93531 -1.69189 0
M  V30 11636 C 1181.04 3.44316 -1.52063 0
M  V30 11637 C 1180.19 2.18404 -1.70866 0
M  V30 11638 H 1183.14 0.906431 -1.30267 0
M  V30 11639 H 1183.16 3.62377 -1.16031 0
M  V30 11640 H 1182.67 2.73471 -2.75381 0
M  V30 11641 H 1180.77 3.69462 -0.482567 0
M  V30 11642 H 1180.89 4.20478 -2.29642 0
M  V30 11643 H 1179.25 2.28012 -1.13502 0
M  V30 11644 H 1180.03 2.00841 -2.7842 0
M  V30 11645 N 1182.48 0.948665 1.2585 0
M  V30 11646 C 1183.71 0.616741 1.98018 0
M  V30 11647 C 1184.13 -0.803005 1.70098 0
M  V30 11648 O 1183.49 -1.54208 0.953392 0
M  V30 11649 C 1183.54 0.874429 3.49837 0
M  V30 11650 O 1182.64 -0.0497568 4.1237 0
M  V30 11651 H 1181.98 0.235112 0.620982 0
M  V30 11652 H 1184.51 1.27364 1.60124 0
M  V30 11653 H 1184.52 0.798309 4.00114 0
M  V30 11654 H 1183.2 1.90922 3.69488 0
M  V30 11655 H 1181.77 0.0780591 3.72818 0
M  V30 11656 N 1183.96 -1.40369 0.716545 0
M  V30 11657 C 1185.18 -2.05704 0.264729 0
M  V30 11658 C 1185.61 -1.53634 -1.08527 0
M  V30 11659 O 1184.97 -0.67212 -1.68381 0
M  V30 11660 C 1185.01 -3.59692 0.255778 0
M  V30 11661 O 1184.12 -4.05286 -0.762686 0
M  V30 11662 H 1183.46 -0.652301 0.124092 0
M  V30 11663 H 1185.99 -1.7975 0.977295 0
M  V30 11664 H 1186 -4.07892 0.0937944 0
M  V30 11665 H 1184.67 -3.96955 1.24095 0
M  V30 11666 H 1183.25 -3.68543 -0.568347 0
M  V30 11667 N 1185.44 -0.462799 -1.50652 0
M  V30 11668 C 1186.66 0.0952726 -2.07181 0
M  V30 11669 C 1187.09 1.33479 -1.32533 0
M  V30 11670 O 1186.44 1.77473 -0.370564 0
M  V30 11671 C 1186.49 0.370592 -3.58691 0
M  V30 11672 O 1185.6 1.4526 -3.85971 0
M  V30 11673 H 1184.94 -0.00932702 -0.663934 0
M  V30 11674 H 1187.47 -0.651458 -1.93951 0
M  V30 11675 H 1187.48 0.613551 -4.0336 0
M  V30 11676 H 1186.15 -0.535219 -4.12442 0
M  V30 11677 H 1184.73 1.1976 -3.53146 0
M  V30 11678 N 1186.91 1.56388 -0.195085 0
M  V30 11679 C 1188.16 1.97189 0.44281 0
M  V30 11680 C 1188.48 1.08312 1.62153 0
M  V30 11681 O 1187.75 0.154404 1.95291 0
M  V30 11682 H 1186.33 0.728188 0.166585 0
M  V30 11683 H 1189 1.92852 -0.281815 0
M  V30 11684 H 1188.09 3.02016 0.786945 0
M  V30 11685 N 1188.39 -0.0785156 1.57404 0
M  V30 11686 C 1189.36 -1.07835 2.02248 0
M  V30 11687 C 1190.36 -1.31987 0.918475 0
M  V30 11688 O 1191.55 -1.27821 1.18353 0
M  V30 11689 C 1188.68 -2.42361 2.39737 0
M  V30 11690 H 1189.87 -0.691995 2.91807 0
M  V30 11691 H 1187.42 -0.32405 1.52904 0
M  V30 11692 H 1188.16 -2.85841 1.53183 0
M  V30 11693 H 1187.94 -2.26174 3.20293 0
M  V30 11694 H 1189.43 -3.14241 2.75031 0
M  V30 11695 N 1189.87 -1.5367 -0.349747 0
M  V30 11696 C 1190.8 -1.7603 -1.4522 0
M  V30 11697 C 1191.78 -0.609171 -1.50758 0
M  V30 11698 O 1192.97 -0.843613 -1.68569 0
M  V30 11699 C 1190.09 -1.85336 -2.83493 0
M  V30 11700 C 1189.14 -3.07438 -2.95608 0
M  V30 11701 S 1189.97 -4.66625 -2.62719 0
M  V30 11702 C 1191.13 -4.78802 -4.03112 0
M  V30 11703 H 1191.36 -2.69263 -1.26035 0
M  V30 11704 H 1188.89 -1.4446 -0.545044 0
M  V30 11705 H 1190.85 -1.91383 -3.63157 0
M  V30 11706 H 1189.51 -0.931267 -2.99977 0
M  V30 11707 H 1188.71 -3.10606 -3.96913 0
M  V30 11708 H 1188.31 -2.99585 -2.23886 0
M  V30 11709 H 1190.6 -4.5983 -4.97557 0
M  V30 11710 H 1191.54 -5.80886 -4.04941 0
M  V30 11711 H 1191.95 -4.07305 -3.90849 0
M  V30 11712 N 1191.35 0.610423 -1.45298 0
M  V30 11713 C 1192.57 1.40112 -1.52917 0
M  V30 11714 C 1193 1.87404 -0.161696 0
M  V30 11715 O 1192.36 1.59973 0.853135 0
M  V30 11716 C 1192.4 2.58359 -2.51561 0
M  V30 11717 O 1191.51 3.58895 -2.03146 0
M  V30 11718 H 1190.85 0.41841 -0.515586 0
M  V30 11719 H 1193.38 0.743159 -1.90626 0
M  V30 11720 H 1193.39 3.0564 -2.70275 0
M  V30 11721 H 1192.06 2.23286 -3.50879 0
M  V30 11722 H 1190.64 3.18282 -1.94296 0
M  V30 11723 N 1192.83 1.32541 0.852676 0
M  V30 11724 C 1194.07 1.23397 1.60938 0
M  V30 11725 C 1194.41 -0.203294 1.93133 0
M  V30 11726 O 1193.68 -1.14097 1.57519 0
M  V30 11727 C 1193.96 2.0956 2.92842 0
M  V30 11728 C 1193.82 3.61675 2.67416 0
M  V30 11729 C 1195.14 1.95825 3.94133 0
M  V30 11730 H 1192.25 0.449608 0.583971 0
M  V30 11731 H 1194.9 1.62507 0.98446 0
M  V30 11732 H 1193.05 1.76336 3.46176 0
M  V30 11733 H 1194.72 4.05122 2.20621 0
M  V30 11734 H 1192.96 3.84242 2.01347 0
M  V30 11735 H 1193.63 4.17292 3.61347 0
M  V30 11736 H 1196.11 2.24935 3.50062 0
M  V30 11737 H 1194.98 2.58387 4.8428 0
M  V30 11738 H 1195.25 0.926466 4.32284 0
M  V30 11739 N 1194.3 -1.0692 1.15784 0
M  V30 11740 C 1195.55 -1.79245 0.933581 0
M  V30 11741 C 1195.87 -1.87362 -0.540427 0
M  V30 11742 O 1195.14 -1.37769 -1.39271 0
M  V30 11743 H 1193.72 -0.663898 0.342416 0
M  V30 11744 H 1196.39 -1.29189 1.45932 0
M  V30 11745 H 1195.48 -2.81546 1.34679 0
M  V30 11746 N 1195.78 -0.955326 -1.25345 0
M  V30 11747 C 1196.72 -0.420299 -2.24296 0
M  V30 11748 C 1197.69 0.498753 -1.54762 0
M  V30 11749 O 1198.88 0.432971 -1.8346 0
M  V30 11750 C 1196 0.394576 -3.36394 0
M  V30 11751 C 1195.05 -0.464973 -4.23958 0
M  V30 11752 S 1195.88 -1.89764 -5.00749 0
M  V30 11753 C 1197.04 -1.09121 -6.16314 0
M  V30 11754 H 1197.27 -1.25888 -2.69331 0
M  V30 11755 H 1194.81 -0.759449 -1.34431 0
M  V30 11756 H 1196.76 0.858788 -4.01416 0
M  V30 11757 H 1195.42 1.20799 -2.89942 0
M  V30 11758 H 1194.62 0.160055 -5.03746 0
M  V30 11759 H 1194.22 -0.864422 -3.63873 0
M  V30 11760 H 1196.51 -0.340218 -6.76645 0
M  V30 11761 H 1197.45 -1.86304 -6.83152 0
M  V30 11762 H 1197.86 -0.621033 -5.61073 0
M  V30 11763 N 1197.26 1.39987 -0.723979 0
M  V30 11764 C 1198.51 2.00334 -0.266587 0
M  V30 11765 C 1198.83 1.57714 1.14679 0
M  V30 11766 O 1198.1 0.82037 1.77895 0
M  V30 11767 H 1196.68 0.740861 -0.095573 0
M  V30 11768 H 1199.34 1.712 -0.931481 0
M  V30 11769 H 1198.44 3.10594 -0.306282 0
M  V30 11770 N 1198.74 0.470782 1.50404 0
M  V30 11771 C 1199.67 -0.359838 2.26358 0
M  V30 11772 C 1200.68 -0.95735 1.31676 0
M  V30 11773 O 1201.87 -0.84581 1.57189 0
M  V30 11774 C 1198.97 -1.51864 3.02969 0
M  V30 11775 C 1198.15 -1.03397 4.25003 0
M  V30 11776 C 1197.21 -2.06679 4.83911 0
M  V30 11777 O 1196.23 -1.64754 5.44835 0
M  V30 11778 N 1197.43 -3.39484 4.70883 0
M  V30 11779 H 1200.2 0.291299 2.98281 0
M  V30 11780 H 1197.76 0.301549 1.59067 0
M  V30 11781 H 1199.75 -2.2065 3.39258 0
M  V30 11782 H 1198.32 -2.07448 2.33846 0
M  V30 11783 H 1197.54 -0.172012 3.93825 0
M  V30 11784 H 1198.83 -0.68807 5.04126 0
M  V30 11785 H 1198.23 -3.76256 4.22431 0
M  V30 11786 H 1196.78 -4.04068 5.11441 0
M  V30 11787 N 1200.22 -1.56282 0.203376 0
M  V30 11788 C 1201.63 -1.84146 -0.307752 0
M  V30 11789 C 1201.98 -1.12429 -1.60792 0
M  V30 11790 O 1201.1 -0.387852 -2.12896 0
M  V30 11791 C 1201.7 -3.34053 -0.565152 0
M  V30 11792 C 1200.26 -3.62298 -1.02063 0
M  V30 11793 C 1199.41 -2.77202 -0.0737343 0
M  V30 11794 H 1202.36 -1.52848 0.426983 0
M  V30 11795 H 1202.38 -3.53273 -1.41345 0
M  V30 11796 H 1201.89 -3.86222 0.381301 0
M  V30 11797 H 1199.99 -3.1557 -1.98107 0
M  V30 11798 H 1200.1 -4.70424 -0.907614 0
M  V30 11799 H 1198.47 -2.48074 -0.577169 0
M  V30 11800 H 1199.25 -3.32164 0.86731 0
M  V30 11801 N 1201.7 0.070167 -1.57444 0
M  V30 11802 C 1203.11 0.621805 -1.76041 0
M  V30 11803 C 1203.46 1.77824 -0.829047 0
M  V30 11804 O 1202.58 2.16396 -0.0135453 0
M  V30 11805 C 1203.18 1.13476 -3.19231 0
M  V30 11806 C 1201.74 1.63225 -3.39167 0
M  V30 11807 C 1200.88 0.552369 -2.71743 0
M  V30 11808 H 1203.83 -0.156009 -1.57931 0
M  V30 11809 H 1203.86 2.00352 -3.2348 0
M  V30 11810 H 1203.37 0.29288 -3.86993 0
M  V30 11811 H 1201.47 2.49733 -2.76522 0
M  V30 11812 H 1201.58 1.70807 -4.47618 0
M  V30 11813 H 1199.95 0.997797 -2.34342 0
M  V30 11814 H 1200.73 -0.279354 -3.42162 0
M  V30 11815 N 1203.17 1.53854 0.341593 0
M  V30 11816 C 1204.14 1.8128 1.40251 0
M  V30 11817 C 1205.14 0.683915 1.45531 0
M  V30 11818 O 1206.33 0.952202 1.45872 0
M  V30 11819 C 1203.46 1.95658 2.79161 0
M  V30 11820 H 1204.65 2.76053 1.17195 0
M  V30 11821 H 1202.2 1.45296 0.57609 0
M  V30 11822 H 1202.94 1.03034 3.07497 0
M  V30 11823 H 1202.72 2.77788 2.76724 0
M  V30 11824 H 1204.21 2.18387 3.55945 0
M  V30 11825 N 1204.65 -0.602709 1.4562 0
M  V30 11826 C 1205.58 -1.7271 1.50678 0
M  V30 11827 C 1206.6 -1.57884 0.397048 0
M  V30 11828 O 1207.79 -1.65676 0.664367 0
M  V30 11829 C 1204.89 -3.10762 1.35204 0
M  V30 11830 C 1204.06 -3.51782 2.59939 0
M  V30 11831 C 1203.12 -4.68816 2.38952 0
M  V30 11832 O 1202.14 -4.75686 3.12588 0
M  V30 11833 N 1203.35 -5.624 1.43827 0
M  V30 11834 H 1206.11 -1.68833 2.47619 0
M  V30 11835 H 1203.67 -0.788131 1.41422 0
M  V30 11836 H 1205.66 -3.86819 1.18967 0
M  V30 11837 H 1204.23 -3.09119 0.465203 0
M  V30 11838 H 1203.45 -2.65637 2.91257 0
M  V30 11839 H 1204.74 -3.75948 3.42842 0
M  V30 11840 H 1204.14 -5.59568 0.830669 0
M  V30 11841 H 1202.7 -6.37969 1.33561 0
M  V30 11842 N 1206.13 -1.32992 -0.845635 0
M  V30 11843 C 1207.36 -1.27087 -1.63268 0
M  V30 11844 C 1207.77 0.159481 -1.88125 0
M  V30 11845 O 1207.13 1.09948 -1.45663 0
M  V30 11846 C 1207.18 -2.03649 -2.98679 0
M  V30 11847 O 1206.9 -3.41104 -2.74918 0
M  V30 11848 C 1208.4 -2.04875 -3.93117 0
M  V30 11849 H 1205.62 -0.438107 -0.508236 0
M  V30 11850 H 1208.17 -1.75257 -1.05381 0
M  V30 11851 H 1206.32 -1.59178 -3.53187 0
M  V30 11852 H 1206.74 -3.80405 -3.61099 0
M  V30 11853 H 1208.21 -2.62911 -4.85368 0
M  V30 11854 H 1208.69 -1.03728 -4.26775 0
M  V30 11855 H 1209.29 -2.49334 -3.44547 0
M  V30 11856 N 1207.61 1.06304 -1.1635 0
M  V30 11857 C 1208.86 1.78747 -0.943074 0
M  V30 11858 C 1209.18 1.87646 0.530483 0
M  V30 11859 O 1208.45 1.38506 1.38538 0
M  V30 11860 H 1207.03 0.662072 -0.345932 0
M  V30 11861 H 1209.69 1.28413 -1.46615 0
M  V30 11862 H 1208.78 2.80828 -1.3617 0
M  V30 11863 N 1209.09 0.96196 1.24836 0
M  V30 11864 C 1210.33 0.621634 1.93038 0
M  V30 11865 C 1210.66 -0.840257 1.75081 0
M  V30 11866 O 1209.94 -1.60381 1.10038 0
M  V30 11867 C 1210.22 0.990107 3.46221 0
M  V30 11868 C 1210.08 2.50827 3.73371 0
M  V30 11869 C 1211.39 0.520478 4.37011 0
M  V30 11870 H 1208.51 0.227312 0.701069 0
M  V30 11871 H 1211.16 1.19993 1.47315 0
M  V30 11872 H 1209.31 0.498008 3.85295 0
M  V30 11873 H 1210.98 3.07469 3.4389 0
M  V30 11874 H 1209.22 2.94277 3.18722 0
M  V30 11875 H 1209.89 2.71659 4.80526 0
M  V30 11876 H 1212.37 0.942703 4.05281 0
M  V30 11877 H 1211.24 0.806918 5.42937 0
M  V30 11878 H 1211.5 -0.579507 4.38285 0
M  V30 11879 N 1210.56 -1.39601 0.731392 0
M  V30 11880 C 1211.79 -2.05411 0.286532 0
M  V30 11881 C 1212.21 -1.54777 -1.06892 0
M  V30 11882 O 1211.57 -0.689942 -1.67659 0
M  V30 11883 C 1211.62 -3.594 0.293914 0
M  V30 11884 O 1210.72 -4.06072 -0.719657 0
M  V30 11885 H 1210.06 -0.650949 0.131004 0
M  V30 11886 H 1212.59 -1.78703 0.996305 0
M  V30 11887 H 1212.6 -4.0777 0.137052 0
M  V30 11888 H 1211.28 -3.95617 1.28298 0
M  V30 11889 H 1209.86 -3.69125 -0.529226 0
M  V30 11890 N 1212.04 -0.478751 -1.50152 0
M  V30 11891 C 1212.97 0.347829 -2.26545 0
M  V30 11892 C 1213.99 0.950354 -1.32182 0
M  V30 11893 O 1215.18 0.837462 -1.57635 0
M  V30 11894 C 1212.28 1.50255 -3.0377 0
M  V30 11895 C 1211.45 1.01142 -4.25546 0
M  V30 11896 C 1210.51 2.0411 -4.85 0
M  V30 11897 O 1209.53 1.61862 -5.45701 0
M  V30 11898 N 1210.74 3.36982 -4.72677 0
M  V30 11899 H 1213.5 -0.307113 -2.98122 0
M  V30 11900 H 1211.06 -0.309981 -1.58905 0
M  V30 11901 H 1213.05 2.18848 -3.40423 0
M  V30 11902 H 1211.62 2.06205 -2.34943 0
M  V30 11903 H 1210.84 0.151124 -3.9391 0
M  V30 11904 H 1212.13 0.661326 -5.04484 0
M  V30 11905 H 1211.53 3.74011 -4.2442 0
M  V30 11906 H 1210.09 4.0135 -5.13577 0
M  V30 11907 N 1213.52 1.56172 -0.211661 0
M  V30 11908 C 1214.77 1.97648 0.421871 0
M  V30 11909 C 1215.09 1.10026 1.60995 0
M  V30 11910 O 1214.36 0.175109 1.95116 0
M  V30 11911 H 1212.94 0.729914 0.158852 0
M  V30 11912 H 1215.6 1.92542 -0.302254 0
M  V30 11913 H 1214.7 3.02834 0.754868 0
M  V30 11914 N 1215 -0.0618163 1.57479 0
M  V30 11915 C 1215.93 -1.09931 2.01116 0
M  V30 11916 C 1216.94 -1.34405 0.91865 0
M  V30 11917 O 1218.13 -1.32469 1.19642 0
M  V30 11918 C 1215.23 -2.44814 2.34349 0
M  V30 11919 C 1214.41 -2.40157 3.65573 0
M  V30 11920 C 1213.46 -3.57226 3.86363 0
M  V30 11921 O 1212.49 -3.38202 4.5783 0
M  V30 11922 N 1213.69 -4.77937 3.2948 0
M  V30 11923 H 1216.46 -0.727621 2.90733 0
M  V30 11924 H 1214.02 -0.250315 1.59953 0
M  V30 11925 H 1216.01 -3.21792 2.45422 0
M  V30 11926 H 1214.58 -2.73947 1.50571 0
M  V30 11927 H 1213.8 -1.48496 3.65161 0
M  V30 11928 H 1215.09 -2.34156 4.51717 0
M  V30 11929 H 1214.49 -4.96296 2.7149 0
M  V30 11930 H 1213.04 -5.52392 3.45986 0
M  V30 11931 N 1216.48 -1.54033 -0.333429 0
M  V30 11932 C 1217.72 -1.72019 -1.07411 0
M  V30 11933 C 1218.06 -0.487265 -1.87988 0
M  V30 11934 O 1217.33 0.515757 -1.87537 0
M  V30 11935 C 1217.61 -2.98986 -2.00698 0
M  V30 11936 C 1217.47 -4.32509 -1.23517 0
M  V30 11937 C 1218.79 -3.21663 -3.00368 0
M  V30 11938 H 1215.9 -0.625919 -0.389094 0
M  V30 11939 H 1218.55 -1.86717 -0.351697 0
M  V30 11940 H 1216.7 -2.86586 -2.62298 0
M  V30 11941 H 1218.37 -4.56775 -0.644522 0
M  V30 11942 H 1216.61 -4.3046 -0.537298 0
M  V30 11943 H 1217.28 -5.17547 -1.91962 0
M  V30 11944 H 1219.76 -3.33459 -2.48886 0
M  V30 11945 H 1218.63 -4.11877 -3.62834 0
M  V30 11946 H 1218.9 -2.3843 -3.72295 0
M  V30 11947 N 1217.95 0.594978 -1.45938 0
M  V30 11948 C 1219.37 1.17703 -1.44924 0
M  V30 11949 C 1219.72 1.9534 -0.183522 0
M  V30 11950 O 1218.84 2.04276 0.714163 0
M  V30 11951 C 1219.44 2.14119 -2.62561 0
M  V30 11952 C 1218 2.67674 -2.64627 0
M  V30 11953 C 1217.14 1.43312 -2.37397 0
M  V30 11954 H 1220.09 0.383583 -1.53995 0
M  V30 11955 H 1220.11 2.97374 -2.3738 0
M  V30 11956 H 1219.63 1.57586 -3.54667 0
M  V30 11957 H 1217.73 3.28111 -1.76562 0
M  V30 11958 H 1217.84 3.11246 -3.64229 0
M  V30 11959 H 1216.2 1.72702 -1.87206 0
M  V30 11960 H 1216.99 0.886276 -3.31663 0
M  V30 11961 N 1219.43 1.33438 0.838571 0
M  V30 11962 C 1220.68 1.24665 1.59069 0
M  V30 11963 C 1221 -0.187433 1.94097 0
M  V30 11964 O 1220.27 -1.11625 1.60987 0
M  V30 11965 H 1218.85 0.45843 0.589789 0
M  V30 11966 H 1221.51 1.67161 1.00216 0
M  V30 11967 H 1220.61 1.84057 2.52051 0
M  V30 11968 N 1220.91 -1.05686 1.16912 0
M  V30 11969 C 1221.87 -2.11481 0.883647 0
M  V30 11970 C 1222.87 -1.60321 -0.124034 0
M  V30 11971 O 1224.06 -1.73868 0.107566 0
M  V30 11972 C 1221.2 -3.3937 0.322649 0
M  V30 11973 H 1222.39 -2.38239 1.8216 0
M  V30 11974 H 1219.94 -1.2185 0.978895 0
M  V30 11975 H 1220.68 -3.18266 -0.622695 0
M  V30 11976 H 1220.46 -3.77812 1.04883 0
M  V30 11977 H 1221.95 -4.17362 0.141072 0
M  V30 11978 N 1222.39 -0.968567 -1.24324 0
M  V30 11979 C 1223.35 -0.504307 -2.23583 0
M  V30 11980 C 1224.35 0.399626 -1.55755 0
M  V30 11981 O 1225.54 0.194966 -1.73106 0
M  V30 11982 C 1222.67 0.26956 -3.39833 0
M  V30 11983 H 1223.87 -1.3818 -2.6617 0
M  V30 11984 H 1221.42 -0.753241 -1.36952 0
M  V30 11985 H 1222.15 1.16411 -3.02686 0
M  V30 11986 H 1221.94 -0.379133 -3.90263 0
M  V30 11987 H 1223.43 0.583376 -4.13505 0
M  V30 11988 N 1223.87 1.39211 -0.738786 0
M  V30 11989 C 1224.8 2.33209 -0.11647 0
M  V30 11990 C 1225.78 1.54108 0.720056 0
M  V30 11991 O 1226.96 1.82486 0.664264 0
M  V30 11992 C 1224.09 3.38226 0.78872 0
M  V30 11993 C 1223.05 4.27963 0.0560636 0
M  V30 11994 C 1222.37 5.2371 1.07852 0
M  V30 11995 C 1223.67 5.10508 -1.1036 0
M  V30 11996 H 1225.37 2.85501 -0.901649 0
M  V30 11997 H 1222.91 1.37272 -0.435032 0
M  V30 11998 H 1224.87 4.02938 1.23364 0
M  V30 11999 H 1223.59 2.84382 1.60606 0
M  V30 12000 H 1222.25 3.64735 -0.369274 0
M  V30 12001 H 1221.9 4.66161 1.88953 0
M  V30 12002 H 1221.6 5.846 0.593048 0
M  V30 12003 H 1223.12 5.91299 1.52307 0
M  V30 12004 H 1224.53 5.68544 -0.736943 0
M  V30 12005 H 1222.93 5.80558 -1.51895 0
M  V30 12006 H 1224 4.45117 -1.92352 0
M  V30 12007 N 1225.34 0.486708 1.49896 0
M  V30 12008 C 1226.76 0.0353906 1.86666 0
M  V30 12009 C 1227.11 -1.3743 1.40026 0
M  V30 12010 O 1226.23 -2.02163 0.77194 0
M  V30 12011 C 1226.83 0.0574475 3.38751 0
M  V30 12012 C 1225.39 -0.338464 3.74875 0
M  V30 12013 C 1224.53 0.436196 2.73848 0
M  V30 12014 H 1227.48 0.700215 1.42417 0
M  V30 12015 H 1227.5 -0.741175 3.73212 0
M  V30 12016 H 1227.02 1.08356 3.72667 0
M  V30 12017 H 1225.12 -1.36835 3.46565 0
M  V30 12018 H 1225.23 -0.0289519 4.79091 0
M  V30 12019 H 1223.59 -0.112141 2.54453 0
M  V30 12020 H 1224.38 1.46212 3.10608 0
M  V30 12021 N 1226.82 -1.56058 0.219941 0
M  V30 12022 C 1227.77 -2.21585 -0.707321 0
M  V30 12023 C 1228.77 -1.19473 -1.20094 0
M  V30 12024 O 1229.97 -1.37557 -1.16095 0
M  V30 12025 H 1226.35 -0.710447 -0.246515 0
M  V30 12026 H 1228.32 -2.98111 -0.131214 0
M  V30 12027 C 1227.07 -2.90841 -1.90544 0
M  V30 12028 H 1226.39 -3.6917 -1.53472 0
M  V30 12029 H 1227.83 -3.40092 -2.53206 0
M  V30 12030 C 1226.29 -1.93223 -2.75983 0
M  V30 12031 O 1226.82 -1.44815 -3.74689 0
M  V30 12032 N 1225.02 -1.60907 -2.41986 0
M  V30 12033 H 1224.57 -2.00467 -1.61774 0
M  V30 12034 H 1224.53 -0.958534 -2.99432 0
M  V30 12035 N 1228.3 0.053464 -1.57509 0
M  V30 12036 C 1229.71 0.603099 -1.76691 0
M  V30 12037 C 1230.06 1.76934 -0.847861 0
M  V30 12038 O 1229.19 2.16369 -0.0364962 0
M  V30 12039 C 1229.78 1.10084 -3.20417 0
M  V30 12040 C 1228.34 1.59618 -3.4088 0
M  V30 12041 C 1227.49 0.523516 -2.72313 0
M  V30 12042 H 1230.44 -0.172751 -1.57757 0
M  V30 12043 H 1230.46 1.9691 -3.25587 0
M  V30 12044 H 1229.97 0.251818 -3.87282 0
M  V30 12045 H 1228.07 2.46786 -2.79155 0
M  V30 12046 H 1228.19 1.6605 -4.49404 0
M  V30 12047 H 1226.55 0.972886 -2.35387 0
M  V30 12048 H 1227.33 -0.315629 -3.41846 0
M  V30 12049 N 1229.78 1.54207 0.325255 0
M  V30 12050 C 1230.71 1.86467 1.40543 0
M  V30 12051 C 1231.69 0.721324 1.54048 0
M  V30 12052 O 1232.88 0.974905 1.67956 0
M  V30 12053 C 1230.01 2.09052 2.77335 0
M  V30 12054 C 1228.96 3.24893 2.78619 0
M  V30 12055 C 1228.29 3.32846 4.1847 0
M  V30 12056 C 1229.59 4.62582 2.42518 0
M  V30 12057 H 1231.28 2.76932 1.13794 0
M  V30 12058 H 1228.83 1.33248 0.545971 0
M  V30 12059 H 1230.78 2.30204 3.52964 0
M  V30 12060 H 1229.5 1.15335 3.05558 0
M  V30 12061 H 1228.16 3.03625 2.05444 0
M  V30 12062 H 1227.81 2.3669 4.43832 0
M  V30 12063 H 1227.51 4.10701 4.20237 0
M  V30 12064 H 1229.03 3.56231 4.95915 0
M  V30 12065 H 1230.45 4.83627 3.07861 0
M  V30 12066 H 1228.84 5.42974 2.55538 0
M  V30 12067 H 1229.91 4.64946 1.3767 0
M  V30 12068 N 1231.26 -0.58723 1.46251 0
M  V30 12069 C 1232.21 -1.71771 1.56836 0
M  V30 12070 C 1233.2 -1.63664 0.437096 0
M  V30 12071 O 1234.41 -1.69212 0.613797 0
M  V30 12072 H 1230.78 -0.567841 0.493012 0
M  V30 12073 H 1232.75 -1.59974 2.51895 0
M  V30 12074 C 1231.5 -3.10159 1.57152 0
M  V30 12075 H 1230.82 -3.17066 2.43535 0
M  V30 12076 H 1232.26 -3.89032 1.68613 0
M  V30 12077 C 1230.72 -3.35567 0.299374 0
M  V30 12078 O 1231.25 -3.97006 -0.612291 0
M  V30 12079 N 1229.46 -2.89987 0.188695 0
M  V30 12080 H 1229.01 -2.4017 0.93147 0
M  V30 12081 H 1228.96 -3.0736 -0.661612 0
M  V30 12082 N 1232.74 -1.33881 -0.831482 0
M  V30 12083 C 1233.67 -1.19089 -1.94661 0
M  V30 12084 C 1234.65 -0.0845706 -1.6238 0
M  V30 12085 O 1235.83 -0.248163 -1.86859 0
M  V30 12086 C 1232.96 -0.828223 -3.28418 0
M  V30 12087 C 1232 -1.94309 -3.79666 0
M  V30 12088 S 1232.84 -3.55524 -4.00454 0
M  V30 12089 C 1233.99 -3.21279 -5.3715 0
M  V30 12090 H 1234.23 -2.13484 -2.0691 0
M  V30 12091 H 1231.76 -1.18809 -0.986098 0
M  V30 12092 H 1233.72 -0.625759 -4.05702 0
M  V30 12093 H 1232.38 0.0972457 -3.13949 0
M  V30 12094 H 1231.57 -1.64288 -4.76472 0
M  V30 12095 H 1231.17 -2.1026 -3.093 0
M  V30 12096 H 1233.46 -2.72563 -6.20255 0
M  V30 12097 H 1234.41 -4.17193 -5.7215 0
M  V30 12098 H 1234.82 -2.57683 -5.02255 0
M  V30 12099 N 1234.21 1.05064 -1.1747 0
M  V30 12100 C 1235.14 2.14786 -0.915936 0
M  V30 12101 C 1236.12 1.69502 0.142561 0
M  V30 12102 O 1237.31 1.94198 -0.00794522 0
M  V30 12103 C 1234.44 3.44629 -0.429864 0
M  V30 12104 C 1233.39 4.03486 -1.42769 0
M  V30 12105 C 1232.72 5.28689 -0.799528 0
M  V30 12106 C 1234.02 4.40823 -2.80129 0
M  V30 12107 H 1235.71 2.3669 -1.83352 0
M  V30 12108 H 1233.26 1.13751 -0.882992 0
M  V30 12109 H 1235.21 4.20737 -0.236245 0
M  V30 12110 H 1233.94 3.22381 0.523263 0
M  V30 12111 H 1232.6 3.29449 -1.60808 0
M  V30 12112 H 1232.24 5.02744 0.160474 0
M  V30 12113 H 1231.94 5.69028 -1.46565 0
M  V30 12114 H 1233.47 6.07483 -0.616212 0
M  V30 12115 H 1234.88 5.07959 -2.65801 0
M  V30 12116 H 1233.28 4.92183 -3.43331 0
M  V30 12117 H 1234.35 3.51108 -3.34441 0
M  V30 12118 N 1235.69 0.975146 1.23809 0
M  V30 12119 C 1236.94 0.639858 1.91704 0
M  V30 12120 C 1237.26 -0.828557 1.76522 0
M  V30 12121 O 1236.53 -1.59217 1.14135 0
M  V30 12122 H 1235.11 0.233667 0.709513 0
M  V30 12123 H 1237.77 1.23782 1.50545 0
M  V30 12124 H 1236.87 0.886915 2.99233 0
M  V30 12125 N 1237.17 -1.38817 0.746158 0
M  V30 12126 C 1238.58 -1.83045 0.367629 0
M  V30 12127 C 1238.93 -1.62285 -1.10263 0
M  V30 12128 O 1238.06 -1.12001 -1.85162 0
M  V30 12129 C 1238.65 -3.323 0.660482 0
M  V30 12130 C 1237.21 -3.74903 0.335318 0
M  V30 12131 C 1236.36 -2.61683 0.917446 0
M  V30 12132 H 1239.31 -1.27651 0.94291 0
M  V30 12133 H 1239.33 -3.80446 -0.0639061 0
M  V30 12134 H 1238.84 -3.47377 1.73062 0
M  V30 12135 H 1236.94 -3.65408 -0.728538 0
M  V30 12136 H 1237.06 -4.71932 0.825677 0
M  V30 12137 H 1235.42 -2.52376 0.343316 0
M  V30 12138 H 1236.2 -2.79563 1.99247 0
M  V30 12139 N 1238.65 -0.49465 -1.49636 0
M  V30 12140 C 1239.58 0.323781 -2.26902 0
M  V30 12141 C 1240.59 0.936281 -1.33183 0
M  V30 12142 O 1241.78 0.820695 -1.58514 0
M  V30 12143 C 1238.88 1.47025 -3.05347 0
M  V30 12144 C 1238.05 0.966228 -4.26594 0
M  V30 12145 C 1237.11 1.98955 -4.87138 0
M  V30 12146 O 1236.14 1.56065 -5.47387 0
M  V30 12147 N 1237.34 3.3195 -4.76224 0
M  V30 12148 H 1240.11 -0.338716 -2.9778 0
M  V30 12149 H 1237.67 -0.326817 -1.58567 0
M  V30 12150 H 1239.66 2.15225 -3.42725 0
M  V30 12151 H 1238.23 2.03702 -2.37117 0
M  V30 12152 H 1237.45 0.109336 -3.94048 0
M  V30 12153 H 1238.74 0.607781 -5.05157 0
M  V30 12154 H 1238.14 3.69488 -4.28363 0
M  V30 12155 H 1236.69 3.95881 -5.17805 0
M  V30 12156 N 1240.13 1.55939 -0.228214 0
M  V30 12157 C 1241.09 2.1932 0.665681 0
M  V30 12158 C 1242.09 1.15699 1.11671 0
M  V30 12159 O 1243.28 1.40893 1.02444 0
M  V30 12160 C 1240.41 2.82185 1.9127 0
M  V30 12161 H 1241.6 2.99687 0.112986 0
M  V30 12162 H 1239.16 1.56285 0.0213865 0
M  V30 12163 H 1239.89 2.05706 2.5071 0
M  V30 12164 H 1239.68 3.58073 1.5977 0
M  V30 12165 H 1241.17 3.30748 2.54942 0
M  V30 12166 N 1241.6 -0.0451101 1.57535 0
M  V30 12167 C 1242.83 -0.755068 1.93167 0
M  V30 12168 C 1243.25 -1.68949 0.826915 0
M  V30 12169 O 1242.61 -1.79978 -0.218534 0
M  V30 12170 C 1242.66 -1.50201 3.27829 0
M  V30 12171 O 1241.76 -2.61434 3.18945 0
M  V30 12172 H 1241.11 -0.204219 0.631815 0
M  V30 12173 H 1243.64 -0.00537504 2.04599 0
M  V30 12174 H 1243.65 -1.87547 3.6234 0
M  V30 12175 H 1242.32 -0.816591 4.07805 0
M  V30 12176 H 1240.9 -2.26749 2.96039 0
M  V30 12177 N 1243.08 -1.54377 -0.317073 0
M  V30 12178 C 1244.01 -1.80563 -1.41172 0
M  V30 12179 C 1245.03 -0.687865 -1.47554 0
M  V30 12180 O 1246.22 -0.965084 -1.50161 0
M  V30 12181 C 1243.32 -1.9142 -2.79663 0
M  V30 12182 C 1242.49 -3.21655 -2.96407 0
M  V30 12183 C 1241.55 -3.23131 -4.15298 0
M  V30 12184 O 1240.57 -3.96741 -4.08149 0
M  V30 12185 N 1241.78 -2.47376 -5.25153 0
M  V30 12186 H 1244.54 -2.75032 -1.1907 0
M  V30 12187 H 1242.1 -1.53754 -0.507086 0
M  V30 12188 H 1244.09 -1.89828 -3.57418 0
M  V30 12189 H 1242.66 -1.0402 -2.94786 0
M  V30 12190 H 1241.88 -3.36154 -2.05899 0
M  V30 12191 H 1243.17 -4.07629 -3.04494 0
M  V30 12192 H 1242.57 -1.87173 -5.33838 0
M  V30 12193 H 1241.13 -2.51555 -6.01301 0
M  V30 12194 N 1244.56 0.579466 -1.4656 0
M  V30 12195 C 1245.49 1.69846 -1.60233 0
M  V30 12196 C 1246.47 1.6397 -0.452533 0
M  V30 12197 O 1247.66 1.81936 -0.679174 0
M  V30 12198 C 1244.79 3.08488 -1.59538 0
M  V30 12199 C 1243.74 3.29197 -2.7352 0
M  V30 12200 C 1243.07 4.684 -2.57887 0
M  V30 12201 C 1244.37 3.16718 -4.15315 0
M  V30 12202 H 1246.06 1.5866 -2.53904 0
M  V30 12203 H 1243.61 0.761873 -1.22194 0
M  V30 12204 H 1245.56 3.86595 -1.67696 0
M  V30 12205 H 1244.28 3.20581 -0.62413 0
M  V30 12206 H 1242.94 2.53491 -2.64836 0
M  V30 12207 H 1242.59 4.77262 -1.58839 0
M  V30 12208 H 1242.29 4.83208 -3.34341 0
M  V30 12209 H 1243.81 5.48671 -2.67942 0
M  V30 12210 H 1245.23 3.84666 -4.25094 0
M  V30 12211 H 1243.63 3.43047 -4.92381 0
M  V30 12212 H 1244.7 2.13755 -4.35244 0
M  V30 12213 N 1246.04 1.3432 0.824371 0
M  V30 12214 C 1247.45 1.23855 1.39703 0
M  V30 12215 C 1247.8 -0.136566 1.95724 0
M  V30 12216 O 1246.93 -1.03683 1.89944 0
M  V30 12217 C 1247.52 2.24249 2.53965 0
M  V30 12218 C 1246.08 2.17578 3.07143 0
M  V30 12219 C 1245.23 2.10933 1.80008 0
M  V30 12220 H 1248.18 1.45707 0.628891 0
M  V30 12221 H 1248.2 1.85864 3.32016 0
M  V30 12222 H 1247.71 3.24321 2.13161 0
M  V30 12223 H 1245.81 1.20858 3.52455 0
M  V30 12224 H 1245.92 3.08769 3.66331 0
M  V30 12225 H 1244.29 1.56631 2.00845 0
M  V30 12226 H 1245.07 3.12836 1.4138 0
M  V30 12227 N 1247.52 -1.0444 1.18026 0
M  V30 12228 C 1248.76 -1.79143 0.984238 0
M  V30 12229 C 1249.12 -1.85955 -0.478002 0
M  V30 12230 O 1250.32 -2.56826 -0.793345 0
M  V30 12231 C 1248.59 -3.18744 1.61669 0
M  V30 12232 S 1250.15 -4.09832 1.56791 0
M  V30 12233 H 1246.97 -0.61688 0.353525 0
M  V30 12234 H 1249.57 -1.25256 1.50104 0
M  V30 12235 H 1248.28 -3.11394 2.67324 0
M  V30 12236 H 1247.81 -3.77708 1.10001 0
M  V30 12237 H 1249.82 -4.92785 0.581175 0
M  V30 12238 N 1248.99 -0.981699 -1.2329 0
M  V30 12239 C 1250.41 -0.688087 -1.73558 0
M  V30 12240 C 1250.76 0.795633 -1.79344 0
M  V30 12241 O 1249.88 1.62227 -1.43218 0
M  V30 12242 C 1250.48 -1.24235 -3.152 0
M  V30 12243 C 1249.04 -0.998356 -3.62918 0
M  V30 12244 C 1248.18 -1.3693 -2.41134 0
M  V30 12245 H 1251.13 -1.15539 -1.08795 0
M  V30 12246 H 1251.15 -0.61541 -3.7549 0
M  V30 12247 H 1250.67 -2.32223 -3.10957 0
M  V30 12248 H 1248.77 0.0653847 -3.72543 0
M  V30 12249 H 1248.88 -1.65385 -4.49649 0
M  V30 12250 H 1247.24 -0.787773 -2.42211 0
M  V30 12251 H 1248.03 -2.45898 -2.39561 0
M  V30 12252 N 1250.47 1.3842 -0.753509 0
M  V30 12253 C 1251.88 1.82847 -0.377331 0
M  V30 12254 C 1252.23 1.62867 1.09401 0
M  V30 12255 O 1251.36 1.12981 1.84565 0
M  V30 12256 C 1251.95 3.31945 -0.678095 0
M  V30 12257 C 1250.51 3.7472 -0.355196 0
M  V30 12258 C 1249.66 2.61193 -0.931311 0
M  V30 12259 H 1252.61 1.2715 -0.949667 0
M  V30 12260 H 1252.63 3.80475 0.0437292 0
M  V30 12261 H 1252.14 3.46455 -1.74902 0
M  V30 12262 H 1250.25 3.65789 0.70915 0
M  V30 12263 H 1250.36 4.71487 -0.850693 0
M  V30 12264 H 1248.72 2.5219 -0.356695 0
M  V30 12265 H 1249.51 2.78503 -2.00727 0
M  V30 12266 N 1251.95 0.502579 1.49372 0
M  V30 12267 C 1253.2 -0.0414423 2.02758 0
M  V30 12268 C 1253.53 -1.36499 1.38136 0
M  V30 12269 O 1252.8 -1.87487 0.517593 0
M  V30 12270 C 1253.09 -0.192333 3.59586 0
M  V30 12271 C 1252.94 1.15445 4.34733 0
M  V30 12272 C 1254.26 -0.932218 4.30114 0
M  V30 12273 H 1251.38 -0.0135869 0.736875 0
M  V30 12274 H 1254.02 0.654296 1.78379 0
M  V30 12275 H 1252.17 -0.78491 3.80488 0
M  V30 12276 H 1253.84 1.78603 4.25322 0
M  V30 12277 H 1252.09 1.74333 3.97228 0
M  V30 12278 H 1252.76 1.00216 5.42827 0
M  V30 12279 H 1255.23 -0.429632 4.13876 0
M  V30 12280 H 1254.11 -1.00664 5.39591 0
M  V30 12281 H 1254.37 -1.9763 3.95468 0
M  V30 12282 N 1253.43 -1.55816 0.23648 0
M  V30 12283 C 1254.66 -2.03083 -0.395584 0
M  V30 12284 C 1255.07 -1.11599 -1.52286 0
M  V30 12285 O 1254.43 -0.128403 -1.82048 0
M  V30 12286 C 1254.48 -3.49776 -0.913197 0
M  V30 12287 O 1254.2 -4.37773 0.169151 0
M  V30 12288 C 1255.7 -4.12756 -1.617 0
M  V30 12289 H 1252.92 -0.66421 -0.0952146 0
M  V30 12290 H 1255.47 -2.01354 0.357299 0
M  V30 12291 H 1253.62 -3.52072 -1.6163 0
M  V30 12292 H 1254.03 -5.24029 -0.222217 0
M  V30 12293 H 1255.51 -5.17123 -1.93101 0
M  V30 12294 H 1255.99 -3.58631 -2.53537 0
M  V30 12295 H 1256.59 -4.14353 -0.958736 0
M  V30 12296 N 1254.91 0.036755 -1.57557 0
M  V30 12297 C 1255.84 1.06718 -2.0284 0
M  V30 12298 C 1256.85 1.32926 -0.939917 0
M  V30 12299 O 1258.04 1.30549 -1.21734 0
M  V30 12300 C 1255.14 2.41054 -2.38214 0
M  V30 12301 C 1254.31 2.3431 -3.69347 0
M  V30 12302 C 1253.37 3.51034 -3.91997 0
M  V30 12303 O 1252.4 3.30875 -4.63152 0
M  V30 12304 N 1253.6 4.72634 -3.37042 0
M  V30 12305 H 1256.37 0.681275 -2.91854 0
M  V30 12306 H 1253.93 0.224836 -1.60331 0
M  V30 12307 H 1255.92 3.17847 -2.5051 0
M  V30 12308 H 1254.49 2.71517 -1.5491 0
M  V30 12309 H 1253.71 1.42668 -3.67477 0
M  V30 12310 H 1255 2.2694 -4.55385 0
M  V30 12311 H 1254.39 4.91914 -2.79352 0
M  V30 12312 H 1252.95 5.46818 -3.5473 0
M  V30 12313 N 1256.39 1.54543 0.308881 0
M  V30 12314 C 1257.61 1.77753 1.06857 0
M  V30 12315 C 1258.04 0.531616 1.80431 0
M  V30 12316 O 1257.39 -0.517513 1.73757 0
M  V30 12317 C 1257.44 2.97968 2.03094 0
M  V30 12318 O 1256.55 2.70541 3.11257 0
M  V30 12319 H 1255.89 0.588576 0.307368 0
M  V30 12320 H 1258.42 2.01607 0.348703 0
M  V30 12321 H 1258.43 3.25722 2.45702 0
M  V30 12322 H 1257.1 3.88314 1.48948 0
M  V30 12323 H 1255.68 2.53781 2.7322 0
M  V30 12324 N 1257.86 -0.571685 1.46866 0
M  V30 12325 C 1259.27 -1.15383 1.46778 0
M  V30 12326 C 1259.63 -1.95023 0.214576 0
M  V30 12327 O 1258.75 -2.05386 -0.681574 0
M  V30 12328 C 1259.35 -2.09915 2.65935 0
M  V30 12329 C 1257.9 -2.6343 2.68852 0
M  V30 12330 C 1257.05 -1.39517 2.39646 0
M  V30 12331 H 1260 -0.359036 1.54585 0
M  V30 12332 H 1260.02 -2.9356 2.42081 0
M  V30 12333 H 1259.54 -1.51923 3.57129 0
M  V30 12334 H 1257.64 -3.2526 1.8176 0
M  V30 12335 H 1257.75 -3.05412 3.69134 0
M  V30 12336 H 1256.11 -1.69702 1.8993 0
M  V30 12337 H 1256.9 -0.833399 3.33031 0
M  V30 12338 N 1259.34 -1.34755 -0.817236 0
M  V30 12339 C 1260.27 -1.29452 -1.94331 0
M  V30 12340 C 1261.25 -0.170902 -1.69239 0
M  V30 12341 O 1262.44 -0.364173 -1.90755 0
M  V30 12342 C 1259.57 -1.05497 -3.30889 0
M  V30 12343 C 1258.52 -2.14386 -3.70436 0
M  V30 12344 C 1257.85 -1.75612 -5.05039 0
M  V30 12345 C 1259.15 -3.56265 -3.81933 0
M  V30 12346 H 1260.84 -2.23672 -1.99025 0
M  V30 12347 H 1258.39 -1.07674 -0.956159 0
M  V30 12348 H 1260.34 -1.0043 -4.09257 0
M  V30 12349 H 1259.06 -0.0772059 -3.26509 0
M  V30 12350 H 1257.72 -2.18532 -2.94345 0
M  V30 12351 H 1257.37 -0.764809 -4.97152 0
M  V30 12352 H 1257.07 -2.48495 -5.3247 0
M  V30 12353 H 1258.6 -1.72051 -5.85859 0
M  V30 12354 H 1260.01 -3.545 -4.50558 0
M  V30 12355 H 1258.41 -4.27818 -4.20822 0
M  V30 12356 H 1259.48 -3.93192 -2.83775 0
M  V30 12357 N 1260.82 1.03812 -1.18578 0
M  V30 12358 C 1261.77 2.10206 -0.883037 0
M  V30 12359 C 1262.75 1.60215 0.148303 0
M  V30 12360 O 1263.95 1.76911 -0.0560957 0
M  V30 12361 C 1261.07 3.40802 -0.41335 0
M  V30 12362 C 1260.16 3.97553 -1.47691 0
M  V30 12363 N 1260.55 4.28085 -2.69401 0
M  V30 12364 C 1258.85 4.25456 -1.33802 0
M  V30 12365 C 1259.55 4.73535 -3.37845 0
M  V30 12366 N 1258.53 4.74504 -2.6523 0
M  V30 12367 H 1262.33 2.31692 -1.80821 0
M  V30 12368 H 1259.84 1.21589 -1.07656 0
M  V30 12369 H 1261.84 4.1652 -0.177953 0
M  V30 12370 H 1260.5 3.20742 0.505449 0
M  V30 12371 H 1261.51 4.17653 -3.06246 0
M  V30 12372 H 1258.19 4.14709 -0.481961 0
M  V30 12373 H 1259.58 5.06157 -4.41876 0
M  V30 12374 N 1262.3 0.988223 1.22768 0
M  V30 12375 C 1263.71 0.697281 1.7319 0
M  V30 12376 C 1264.06 -0.786111 1.79763 0
M  V30 12377 O 1263.18 -1.61465 1.44077 0
M  V30 12378 C 1263.78 1.25905 3.14537 0
M  V30 12379 C 1262.34 1.01759 3.62384 0
M  V30 12380 C 1261.49 1.38207 2.40404 0
M  V30 12381 H 1264.44 1.16114 1.08181 0
M  V30 12382 H 1264.46 0.635315 3.75159 0
M  V30 12383 H 1263.97 2.33869 3.09721 0
M  V30 12384 H 1262.07 -0.045627 3.72572 0
M  V30 12385 H 1262.18 1.67767 4.48766 0
M  V30 12386 H 1260.55 0.800607 2.4179 0
M  V30 12387 H 1261.33 2.47165 2.38253 0
M  V30 12388 N 1263.78 -1.38018 0.760839 0
M  V30 12389 C 1265 -2.04231 0.331285 0
M  V30 12390 C 1265.42 -1.57385 -1.04285 0
M  V30 12391 O 1264.78 -0.750168 -1.66369 0
M  V30 12392 C 1264.83 -3.59772 0.353021 0
M  V30 12393 O 1264.55 -4.049 1.67294 0
M  V30 12394 C 1266.05 -4.4321 -0.0894942 0
M  V30 12395 H 1263.27 -0.656145 0.140408 0
M  V30 12396 H 1265.81 -1.76567 1.03172 0
M  V30 12397 H 1263.97 -3.86246 -0.298735 0
M  V30 12398 H 1264.38 -4.99369 1.60408 0
M  V30 12399 H 1265.86 -5.51995 -0.0231262 0
M  V30 12400 H 1266.33 -4.2419 -1.13839 0
M  V30 12401 H 1266.94 -4.21939 0.533661 0
M  V30 12402 N 1265.25 -0.510493 -1.49103 0
M  V30 12403 C 1266.66 -0.0650831 -1.86587 0
M  V30 12404 C 1267.02 1.35185 -1.42195 0
M  V30 12405 O 1266.14 2.0091 -0.804004 0
M  V30 12406 C 1266.74 -0.111333 -3.38617 0
M  V30 12407 C 1265.29 0.278782 -3.75366 0
M  V30 12408 C 1264.44 -0.479707 -2.73119 0
M  V30 12409 H 1267.39 -0.722784 -1.41285 0
M  V30 12410 H 1267.41 0.681706 -3.74343 0
M  V30 12411 H 1266.93 -1.14271 -3.70896 0
M  V30 12412 H 1265.03 1.31304 -3.48698 0
M  V30 12413 H 1265.14 -0.047271 -4.79077 0
M  V30 12414 H 1263.5 0.0716459 -2.54599 0
M  V30 12415 H 1264.29 -1.51135 -3.08242 0
M  V30 12416 N 1266.73 1.55688 -0.24474 0
M  V30 12417 C 1268.14 1.84897 0.25882 0
M  V30 12418 C 1268.49 1.16653 1.57755 0
M  V30 12419 O 1267.62 0.444162 2.11793 0
M  V30 12420 C 1268.21 3.35434 0.476385 0
M  V30 12421 C 1266.77 3.64877 0.924213 0
M  V30 12422 C 1265.92 2.773 0.00021322 0
M  V30 12423 H 1268.87 1.51662 -0.467358 0
M  V30 12424 H 1268.89 3.56896 1.31929 0
M  V30 12425 H 1268.4 3.85076 -0.483567 0
M  V30 12426 H 1266.5 3.20711 1.89671 0
M  V30 12427 H 1266.62 4.72665 0.78257 0
M  V30 12428 H 1264.98 2.49517 0.511194 0
M  V30 12429 H 1265.76 3.29747 -0.955072 0
M  V30 12430 N 1268.21 -0.0283989 1.57574 0
M  V30 12431 C 1269.62 -0.574912 1.77628 0
M  V30 12432 C 1269.97 -1.75563 0.875903 0
M  V30 12433 O 1269.1 -2.16284 0.0709141 0
M  V30 12434 C 1269.69 -1.04972 3.22128 0
M  V30 12435 C 1268.25 -1.54175 3.43376 0
M  V30 12436 C 1267.4 -0.480127 2.73112 0
M  V30 12437 H 1270.35 0.197826 1.57462 0
M  V30 12438 H 1270.37 -1.91705 3.28678 0
M  V30 12439 H 1269.88 -0.190173 3.87634 0
M  V30 12440 H 1267.98 -2.42313 2.83046 0
M  V30 12441 H 1268.1 -1.58879 4.51989 0
M  V30 12442 H 1266.46 -0.935314 2.36905 0
M  V30 12443 H 1267.24 0.369973 3.41301 0
M  V30 12444 N 1269.69 -1.54705 -0.300681 0
M  V30 12445 C 1270.65 -1.84934 -1.35395 0
M  V30 12446 C 1271.65 -0.72226 -1.43666 0
M  V30 12447 O 1272.84 -0.990543 -1.43296 0
M  V30 12448 C 1269.97 -2.02991 -2.73875 0
M  V30 12449 H 1271.17 -2.79063 -1.09835 0
M  V30 12450 H 1268.72 -1.46772 -0.537365 0
M  V30 12451 H 1269.45 -1.11151 -3.04657 0
M  V30 12452 H 1269.24 -2.85027 -2.69262 0
M  V30 12453 H 1270.73 -2.27747 -3.5003 0
M  V30 12454 N 1271.17 0.563888 -1.47167 0
M  V30 12455 C 1272.39 1.35176 -1.57297 0
M  V30 12456 C 1272.82 1.86794 -0.221235 0
M  V30 12457 O 1272.17 1.62606 0.801809 0
M  V30 12458 C 1272.22 2.50225 -2.59654 0
M  V30 12459 O 1271.33 3.5225 -2.14461 0
M  V30 12460 H 1270.67 0.401795 -0.528637 0
M  V30 12461 H 1273.2 0.682137 -1.92894 0
M  V30 12462 H 1273.21 2.96886 -2.79862 0
M  V30 12463 H 1271.88 2.1201 -3.57805 0
M  V30 12464 H 1270.46 3.1194 -2.04323 0
M  V30 12465 N 1272.64 1.35187 0.810078 0
M  V30 12466 C 1273.87 1.31371 1.59841 0
M  V30 12467 C 1274.29 -0.109547 1.88482 0
M  V30 12468 O 1273.64 -1.06047 1.48527 0
M  V30 12469 C 1273.7 2.11496 2.93175 0
M  V30 12470 O 1273.42 3.48273 2.65777 0
M  V30 12471 C 1274.92 2.15226 3.87547 0
M  V30 12472 H 1272.14 0.451428 0.496441 0
M  V30 12473 H 1274.68 1.7799 1.00697 0
M  V30 12474 H 1272.84 1.68486 3.48843 0
M  V30 12475 H 1273.25 3.89845 3.50886 0
M  V30 12476 H 1274.72 2.75687 4.78226 0
M  V30 12477 H 1275.2 1.15007 4.23875 0
M  V30 12478 H 1275.81 2.58382 3.37815 0
M  V30 12479 N 1274.12 -1.03182 1.19127 0
M  V30 12480 C 1275.09 -2.09559 0.928307 0
M  V30 12481 C 1276.09 -1.60548 -0.0899992 0
M  V30 12482 O 1277.28 -1.736 0.144422 0
M  V30 12483 C 1274.41 -3.38609 0.394561 0
M  V30 12484 H 1275.6 -2.34321 1.87173 0
M  V30 12485 H 1273.15 -1.19746 1.00452 0
M  V30 12486 H 1273.89 -3.19515 -0.555046 0
M  V30 12487 H 1273.67 -3.75502 1.12873 0
M  V30 12488 H 1275.16 -4.16969 0.229569 0
M  V30 12489 N 1275.6 -0.99472 -1.22242 0
M  V30 12490 C 1276.56 -0.551619 -2.22463 0
M  V30 12491 C 1277.56 0.366498 -1.56568 0
M  V30 12492 O 1278.75 0.158204 -1.7348 0
M  V30 12493 C 1275.89 0.197416 -3.40328 0
M  V30 12494 H 1277.08 -1.43795 -2.63179 0
M  V30 12495 H 1274.63 -0.782121 -1.35324 0
M  V30 12496 H 1275.37 1.09965 -3.05087 0
M  V30 12497 H 1275.15 -0.461829 -3.89371 0
M  V30 12498 H 1276.64 0.495534 -4.1465 0
M  V30 12499 N 1277.08 1.37613 -0.768148 0
M  V30 12500 C 1278.33 1.99384 -0.330187 0
M  V30 12501 C 1278.65 1.61283 1.09604 0
M  V30 12502 O 1277.92 0.876551 1.75195 0
M  V30 12503 H 1276.5 0.737445 -0.119095 0
M  V30 12504 H 1279.16 1.6815 -0.985476 0
M  V30 12505 H 1278.26 3.09462 -0.40494 0
M  V30 12506 N 1278.56 0.518393 1.4883 0
M  V30 12507 C 1279.49 -0.297703 2.2625 0
M  V30 12508 C 1280.47 -0.955096 1.31593 0
M  V30 12509 O 1281.65 -0.981776 1.60914 0
M  V30 12510 C 1278.78 -1.42065 3.07466 0
M  V30 12511 C 1277.82 -0.875854 4.1741 0
M  V30 12512 S 1278.66 0.247153 5.34929 0
M  V30 12513 C 1279.81 -0.878544 6.19703 0
M  V30 12514 H 1280.05 0.359358 2.9512 0
M  V30 12515 H 1277.58 0.303976 1.51378 0
M  V30 12516 H 1279.54 -2.06398 3.54838 0
M  V30 12517 H 1278.2 -2.04939 2.38031 0
M  V30 12518 H 1277.39 -1.71793 4.73818 0
M  V30 12519 H 1276.99 -0.30943 3.72718 0
M  V30 12520 H 1279.29 -1.77986 6.53703 0
M  V30 12521 H 1280.23 -0.3527 7.07221 0
M  V30 12522 H 1280.64 -1.15372 5.52584 0
M  V30 12523 N 1280.03 -1.55556 0.252993 0
M  V30 12524 C 1281.45 -1.85032 -0.249011 0
M  V30 12525 C 1281.8 -1.17488 -1.57134 0
M  V30 12526 O 1280.92 -0.455387 -2.11554 0
M  V30 12527 C 1281.52 -3.35682 -0.458589 0
M  V30 12528 C 1280.08 -3.65362 -0.90485 0
M  V30 12529 C 1279.22 -2.77296 0.0144927 0
M  V30 12530 H 1282.17 -1.51412 0.475394 0
M  V30 12531 H 1282.19 -3.57591 -1.30034 0
M  V30 12532 H 1281.71 -3.84814 0.503981 0
M  V30 12533 H 1279.81 -3.21713 -1.87967 0
M  V30 12534 H 1279.92 -4.73074 -0.757492 0
M  V30 12535 H 1278.28 -2.49785 -0.497954 0
M  V30 12536 H 1279.07 -3.29236 0.972546 0
M  V30 12537 N 1281.51 0.0200419 -1.57587 0
M  V30 12538 C 1282.74 0.724241 -1.94344 0
M  V30 12539 C 1283.16 1.67612 -0.853688 0
M  V30 12540 O 1282.52 1.80303 0.189873 0
M  V30 12541 C 1282.57 1.44967 -3.30177 0
M  V30 12542 O 1281.67 2.56326 -3.23064 0
M  V30 12543 H 1281.01 0.194142 -0.634984 0
M  V30 12544 H 1283.54 -0.0271756 -2.04582 0
M  V30 12545 H 1283.55 1.81758 -3.65278 0
M  V30 12546 H 1282.23 0.75161 -4.09052 0
M  V30 12547 H 1280.81 2.22011 -2.99609 0
M  V30 12548 N 1282.99 1.54862 0.292472 0
M  V30 12549 C 1283.92 1.89406 1.36556 0
M  V30 12550 C 1284.9 0.753838 1.52484 0
M  V30 12551 O 1286.09 1.01031 1.6585 0
M  V30 12552 C 1283.22 2.14888 2.72838 0
M  V30 12553 C 1282.17 3.3073 2.71665 0
M  V30 12554 C 1281.5 3.41648 4.11316 0
M  V30 12555 C 1282.8 4.67622 2.32651 0
M  V30 12556 H 1284.49 2.79284 1.07894 0
M  V30 12557 H 1282.04 1.34377 0.517585 0
M  V30 12558 H 1283.99 2.3764 3.48002 0
M  V30 12559 H 1282.71 1.2179 3.03042 0
M  V30 12560 H 1281.37 3.07915 1.98958 0
M  V30 12561 H 1281.02 2.46051 4.38711 0
M  V30 12562 H 1280.72 4.19522 4.11431 0
M  V30 12563 H 1282.24 3.6667 4.88248 0
M  V30 12564 H 1283.66 4.90048 2.97533 0
M  V30 12565 H 1282.06 5.48272 2.43963 0
M  V30 12566 H 1283.13 4.67762 1.27777 0
M  V30 12567 N 1284.47 -0.556076 1.47464 0
M  V30 12568 C 1285.4 -1.67829 1.56096 0
M  V30 12569 C 1286.41 -1.56541 0.447077 0
M  V30 12570 O 1287.6 -1.63478 0.716739 0
M  V30 12571 C 1284.7 -3.06303 1.45023 0
M  V30 12572 C 1283.88 -3.43334 2.70999 0
M  V30 12573 C 1282.93 -4.60976 2.53746 0
M  V30 12574 O 1281.96 -4.65501 3.27564 0
M  V30 12575 N 1283.16 -5.5754 1.61647 0
M  V30 12576 H 1285.93 -1.6087 2.52865 0
M  V30 12577 H 1283.49 -0.74274 1.43857 0
M  V30 12578 H 1285.48 -3.82838 1.31214 0
M  V30 12579 H 1284.05 -3.07483 0.563311 0
M  V30 12580 H 1283.27 -2.56236 2.99561 0
M  V30 12581 H 1284.56 -3.64851 3.54629 0
M  V30 12582 H 1283.96 -5.56642 1.00827 0
M  V30 12583 H 1282.51 -6.33397 1.53789 0
M  V30 12584 N 1285.95 -1.35615 -0.802897 0
M  V30 12585 C 1286.9 -1.25378 -1.90432 0
M  V30 12586 C 1287.88 -0.148217 -1.60216 0
M  V30 12587 O 1289.07 -0.379783 -1.72878 0
M  V30 12588 C 1286.2 -1.03172 -3.2743 0
M  V30 12589 C 1285.29 -2.18135 -3.637 0
M  V30 12590 N 1285.68 -3.43382 -3.71379 0
M  V30 12591 C 1283.98 -2.09603 -3.93678 0
M  V30 12592 C 1284.68 -4.19004 -4.03498 0
M  V30 12593 N 1283.65 -3.47799 -4.17776 0
M  V30 12594 H 1287.46 -2.20267 -1.94576 0
M  V30 12595 H 1284.97 -1.2814 -0.997687 0
M  V30 12596 H 1286.97 -0.939264 -4.06182 0
M  V30 12597 H 1285.63 -0.0917091 -3.2457 0
M  V30 12598 H 1286.64 -3.77687 -3.54363 0
M  V30 12599 H 1283.32 -1.23479 -3.98822 0
M  V30 12600 H 1284.71 -5.27255 -4.16476 0
M  V30 12601 N 1287.43 1.02549 -1.19673 0
M  V30 12602 C 1288.65 1.79623 -1.0268 0
M  V30 12603 C 1289.07 1.83969 0.424345 0
M  V30 12604 O 1288.43 1.28621 1.29472 0
M  V30 12605 C 1288.48 3.24514 -1.59289 0
M  V30 12606 O 1288.2 3.20462 -2.98723 0
M  V30 12607 C 1289.7 4.18173 -1.47126 0
M  V30 12608 H 1286.92 0.565167 -0.3617 0
M  V30 12609 H 1289.46 1.29143 -1.58564 0
M  V30 12610 H 1287.62 3.72173 -1.07546 0
M  V30 12611 H 1288.03 4.11341 -3.25421 0
M  V30 12612 H 1289.51 5.17714 -1.9151 0
M  V30 12613 H 1289.98 4.37165 -0.422315 0
M  V30 12614 H 1290.59 3.7639 -1.98017 0
M  V30 12615 N 1288.9 1.00119 1.21713 0
M  V30 12616 C 1290.13 0.700431 1.94683 0
M  V30 12617 C 1290.55 -0.736333 1.73849 0
M  V30 12618 O 1289.9 -1.49778 1.04272 0
M  V30 12619 C 1289.95 1.00722 3.47185 0
M  V30 12620 O 1289.68 2.38754 3.67326 0
M  V30 12621 C 1291.18 0.725335 4.37326 0
M  V30 12622 H 1288.4 0.25843 0.619238 0
M  V30 12623 H 1290.94 1.3382 1.54636 0
M  V30 12624 H 1289.1 0.415117 3.85169 0
M  V30 12625 H 1289.51 2.49321 4.61454 0
M  V30 12626 H 1290.98 0.990202 5.43046 0
M  V30 12627 H 1291.46 -0.340649 4.37877 0
M  V30 12628 H 1292.07 1.29888 4.04981 0
M  V30 12629 N 1290.38 -1.37203 0.775435 0
M  V30 12630 C 1291.79 -1.82224 0.406372 0
M  V30 12631 C 1292.14 -1.64587 -1.06796 0
M  V30 12632 O 1291.27 -1.15903 -1.82744 0
M  V30 12633 C 1291.86 -3.30824 0.730819 0
M  V30 12634 C 1290.42 -3.74108 0.414766 0
M  V30 12635 C 1289.57 -2.59679 0.972747 0
M  V30 12636 H 1292.52 -1.25623 0.969775 0
M  V30 12637 H 1292.54 -3.80496 0.0168066 0
M  V30 12638 H 1292.05 -3.43628 1.80392 0
M  V30 12639 H 1290.15 -3.66871 -0.650866 0
M  V30 12640 H 1290.27 -4.70074 0.925595 0
M  V30 12641 H 1288.63 -2.51591 0.396772 0
M  V30 12642 H 1289.41 -2.75274 2.05132 0
M  V30 12643 N 1291.86 -0.526279 -1.48553 0
M  V30 12644 C 1293.27 -0.0848694 -1.86507 0
M  V30 12645 C 1293.62 1.3367 -1.43621 0
M  V30 12646 O 1292.75 2.00046 -0.825268 0
M  V30 12647 C 1293.34 -0.147241 -3.3848 0
M  V30 12648 C 1291.9 0.238954 -3.75641 0
M  V30 12649 C 1291.05 -0.508648 -2.72595 0
M  V30 12650 H 1294 -0.737728 -1.40511 0
M  V30 12651 H 1294.02 0.641964 -3.75045 0
M  V30 12652 H 1293.53 -1.18199 -3.69663 0
M  V30 12653 H 1291.63 1.27598 -3.50071 0
M  V30 12654 H 1291.75 -0.0980808 -4.79 0
M  V30 12655 H 1290.11 0.0446382 -2.54661 0
M  V30 12656 H 1290.89 -1.54395 -3.06622 0
M  V30 12657 N 1293.34 1.5542 -0.261239 0
M  V30 12658 C 1294.59 1.9889 0.358777 0
M  V30 12659 C 1294.91 1.15092 1.57413 0
M  V30 12660 O 1294.18 0.237095 1.9446 0
M  V30 12661 H 1292.76 0.734599 0.13555 0
M  V30 12662 H 1295.42 1.91483 -0.363357 0
M  V30 12663 H 1294.51 3.05082 0.658142 0
M  V30 12664 N 1294.82 -0.0116844 1.57596 0
M  V30 12665 C 1295.75 -1.04043 2.03102 0
M  V30 12666 C 1296.73 -1.34164 0.918622 0
M  V30 12667 O 1297.91 -1.46527 1.18584 0
M  V30 12668 C 1295.04 -2.37094 2.41876 0
M  V30 12669 C 1294.08 -2.22713 3.63732 0
M  V30 12670 S 1294.92 -1.56416 5.12147 0
M  V30 12671 C 1296.07 -2.90921 5.5418 0
M  V30 12672 H 1296.31 -0.652899 2.90042 0
M  V30 12673 H 1293.84 -0.222201 1.52793 0
M  V30 12674 H 1295.8 -3.13602 2.64885 0
M  V30 12675 H 1294.46 -2.7299 1.55356 0
M  V30 12676 H 1293.65 -3.20976 3.88575 0
M  V30 12677 H 1293.25 -1.54349 3.40665 0
M  V30 12678 H 1295.54 -3.87237 5.55926 0
M  V30 12679 H 1296.49 -2.70792 6.54276 0
M  V30 12680 H 1296.9 -2.94293 4.81717 0
M  V30 12681 N 1296.29 -1.55015 -0.284256 0
M  V30 12682 C 1297.52 -1.79102 -1.03586 0
M  V30 12683 C 1297.94 -0.558733 -1.80343 0
M  V30 12684 O 1297.29 0.471925 -1.76293 0
M  V30 12685 C 1297.34 -3.00915 -2.0033 0
M  V30 12686 O 1297.07 -4.19384 -1.26685 0
M  V30 12687 C 1298.57 -3.3752 -2.87394 0
M  V30 12688 H 1295.79 -0.596912 -0.306491 0
M  V30 12689 H 1298.33 -2.02005 -0.31845 0
M  V30 12690 H 1296.49 -2.80171 -2.67549 0
M  V30 12691 H 1296.9 -4.88175 -1.91796 0
M  V30 12692 H 1298.37 -4.25953 -3.51095 0
M  V30 12693 H 1298.85 -2.56418 -3.56576 0
M  V30 12694 H 1299.46 -3.60483 -2.25682 0
M  V30 12695 N 1297.77 0.548248 -1.47757 0
M  V30 12696 C 1299.18 1.13033 -1.48595 0
M  V30 12697 C 1299.53 1.94657 -0.245575 0
M  V30 12698 O 1298.66 2.06445 0.648813 0
M  V30 12699 C 1299.25 2.05657 -2.69241 0
M  V30 12700 C 1297.81 2.59119 -2.73009 0
M  V30 12701 C 1296.96 1.35686 -2.41836 0
M  V30 12702 H 1299.91 0.334397 -1.55137 0
M  V30 12703 H 1299.93 2.89671 -2.4672 0
M  V30 12704 H 1299.44 1.46222 -3.595 0
M  V30 12705 H 1297.54 3.22327 -1.86912 0
M  V30 12706 H 1297.66 2.99501 -3.73946 0
M  V30 12707 H 1296.02 1.66659 -1.92606 0
M  V30 12708 H 1296.8 0.780311 -3.34314 0
M  V30 12709 N 1299.25 1.36039 0.795694 0
M  V30 12710 C 1300.66 1.2679 1.37044 0
M  V30 12711 C 1301.01 -0.0950192 1.9597 0
M  V30 12712 O 1300.14 -0.996311 1.921 0
M  V30 12713 C 1300.73 2.29585 2.49151 0
M  V30 12714 C 1299.29 2.24044 3.02458 0
M  V30 12715 C 1298.44 2.14703 1.75493 0
M  V30 12716 H 1301.39 1.47009 0.597843 0
M  V30 12717 H 1301.41 1.92864 3.27999 0
M  V30 12718 H 1300.92 3.28769 2.06234 0
M  V30 12719 H 1299.02 1.28307 3.49812 0
M  V30 12720 H 1299.14 3.1647 3.597 0
M  V30 12721 H 1297.5 1.60856 1.97478 0
M  V30 12722 H 1298.28 3.15765 1.34713 0
M  V30 12723 N 1300.73 -1.01913 1.20215 0
M  V30 12724 C 1301.66 -2.10513 0.906476 0
M  V30 12725 C 1302.67 -1.62463 -0.104758 0
M  V30 12726 O 1303.86 -1.78055 0.12593 0
M  V30 12727 C 1300.96 -3.3722 0.337012 0
M  V30 12728 C 1300.14 -4.14417 1.39917 0
M  V30 12729 C 1299.19 -5.19428 0.841489 0
M  V30 12730 O 1298.22 -5.48486 1.52157 0
M  V30 12731 N 1299.42 -5.79442 -0.350365 0
M  V30 12732 H 1302.19 -2.36465 1.84132 0
M  V30 12733 H 1299.75 -1.18283 1.10548 0
M  V30 12734 H 1301.74 -4.04669 -0.0501507 0
M  V30 12735 H 1300.31 -3.08538 -0.502325 0
M  V30 12736 H 1299.53 -3.41975 1.96078 0
M  V30 12737 H 1300.82 -4.62777 2.1146 0
M  V30 12738 H 1300.22 -5.58166 -0.920204 0
M  V30 12739 H 1298.77 -6.48252 -0.679194 0
M  V30 12740 N 1302.21 -1.00763 -1.2118 0
M  V30 12741 C 1303.62 -0.724746 -1.72059 0
M  V30 12742 C 1303.97 0.757413 -1.80991 0
M  V30 12743 O 1303.09 1.59152 -1.46627 0
M  V30 12744 C 1303.69 -1.30893 -3.12494 0
M  V30 12745 C 1302.25 -1.07511 -3.60719 0
M  V30 12746 C 1301.39 -1.42014 -2.38175 0
M  V30 12747 H 1304.35 -1.17821 -1.0632 0
M  V30 12748 H 1304.37 -0.694919 -3.741 0
M  V30 12749 H 1303.88 -2.38767 -3.05961 0
M  V30 12750 H 1301.98 -0.0136518 -3.72597 0
M  V30 12751 H 1302.09 -1.74885 -4.4604 0
M  V30 12752 H 1300.46 -0.838972 -2.40486 0
M  V30 12753 H 1301.24 -2.50924 -2.34291 0
M  V30 12754 N 1303.68 1.3679 -0.7827 0
M  V30 12755 C 1304.65 2.28472 -0.182525 0
M  V30 12756 C 1305.65 1.48524 0.616217 0
M  V30 12757 O 1306.84 1.68599 0.438197 0
M  V30 12758 C 1303.97 3.32588 0.748202 0
M  V30 12759 H 1305.16 2.83059 -0.99085 0
M  V30 12760 H 1302.72 1.46241 -0.551658 0
M  V30 12761 H 1303.45 2.83145 1.58112 0
M  V30 12762 H 1303.24 3.91698 0.177481 0
M  V30 12763 H 1304.73 4.01073 1.16321 0
M  V30 12764 N 1305.16 0.53415 1.48272 0
M  V30 12765 C 1306.13 -0.215641 2.28183 0
M  V30 12766 C 1307.13 -0.863966 1.35618 0
M  V30 12767 O 1308.32 -0.723375 1.58471 0
M  V30 12768 C 1305.45 -1.31251 3.1462 0
M  V30 12769 H 1306.64 0.486014 2.95936 0
M  V30 12770 H 1304.19 0.290237 1.53582 0
M  V30 12771 H 1304.93 -2.04729 2.51508 0
M  V30 12772 H 1304.71 -0.852706 3.82716 0
M  V30 12773 H 1306.2 -1.83978 3.74889 0
M  V30 12774 N 1306.64 -1.55279 0.269478 0
M  V30 12775 C 1308.05 -1.85286 -0.229372 0
M  V30 12776 C 1308.4 -1.19148 -1.55879 0
M  V30 12777 O 1307.53 -0.4778 -2.11059 0
M  V30 12778 C 1308.12 -3.3615 -0.42296 0
M  V30 12779 C 1306.68 -3.66301 -0.866047 0
M  V30 12780 C 1305.83 -2.77265 0.0439028 0
M  V30 12781 H 1308.78 -1.509 0.491427 0
M  V30 12782 H 1308.8 -3.5895 -1.26234 0
M  V30 12783 H 1308.31 -3.84258 0.544768 0
M  V30 12784 H 1306.41 -3.23688 -1.84545 0
M  V30 12785 H 1306.53 -4.73851 -0.707274 0
M  V30 12786 H 1304.89 -2.50299 -0.471433 0
M  V30 12787 H 1305.67 -3.28186 1.00741 0
M  V30 12788 N 1308.12 0.00332656 -1.576 0
M  V30 12789 C 1309.35 0.699945 -1.94701 0
M  V30 12790 C 1309.76 1.67492 -0.871312 0
M  V30 12791 O 1309.12 1.81882 0.150054 0
M  V30 12792 C 1309.17 1.43471 -3.31811 0
M  V30 12793 O 1308.89 0.498835 -4.35251 0
M  V30 12794 C 1310.39 2.22614 -3.83351 0
M  V30 12795 H 1307.61 0.195158 -0.641993 0
M  V30 12796 H 1310.16 -0.0468044 -2.04446 0
M  V30 12797 H 1308.31 2.13311 -3.23384 0
M  V30 12798 H 1308.72 1.01688 -5.14548 0
M  V30 12799 H 1310.2 2.69527 -4.81725 0
M  V30 12800 H 1310.68 3.05146 -3.15883 0
M  V30 12801 H 1311.28 1.57796 -3.94944 0
M  V30 12802 N 1309.6 1.55164 0.276031 0
M  V30 12803 C 1310.53 1.84243 1.36335 0
M  V30 12804 C 1311.54 0.726745 1.45679 0
M  V30 12805 O 1312.73 1.00456 1.4755 0
M  V30 12806 C 1309.83 1.98768 2.7449 0
M  V30 12807 C 1309 3.294 2.87775 0
M  V30 12808 C 1308.06 3.34029 4.06585 0
M  V30 12809 O 1307.09 4.07423 3.97486 0
M  V30 12810 N 1308.29 2.61213 5.18409 0
M  V30 12811 H 1311.06 2.78092 1.11736 0
M  V30 12812 H 1308.62 1.55044 0.466143 0
M  V30 12813 H 1310.61 1.99238 3.52259 0
M  V30 12814 H 1309.18 1.11799 2.91924 0
M  V30 12815 H 1308.4 3.41494 1.96914 0
M  V30 12816 H 1309.69 4.15558 2.93579 0
M  V30 12817 H 1309.08 2.01261 5.28687 0
M  V30 12818 H 1307.64 2.67409 5.9442 0
M  V30 12819 N 1311.07 -0.540404 1.48045 0
M  V30 12820 C 1312.49 -1.12243 1.49192 0
M  V30 12821 C 1312.84 -1.94524 0.255895 0
M  V30 12822 O 1311.96 -2.06786 -0.637855 0
M  V30 12823 C 1312.56 -2.04227 2.70327 0
M  V30 12824 C 1311.12 -2.57668 2.7438 0
M  V30 12825 C 1310.26 -1.34402 2.42552 0
M  V30 12826 H 1313.21 -0.326165 1.55312 0
M  V30 12827 H 1313.23 -2.88359 2.48253 0
M  V30 12828 H 1312.75 -1.44314 3.60271 0
M  V30 12829 H 1310.85 -3.21331 1.88618 0
M  V30 12830 H 1310.96 -2.97514 3.7553 0
M  V30 12831 H 1309.32 -1.65635 1.93487 0
M  V30 12832 H 1310.11 -0.762571 3.34723 0
M  V30 12833 N 1312.55 -1.36459 -0.788468 0
M  V30 12834 C 1313.78 -1.34063 -1.58246 0
M  V30 12835 C 1314.2 0.0754933 -1.87948 0
M  V30 12836 O 1313.56 1.04772 -1.47961 0
M  V30 12837 C 1313.61 -2.17038 -2.8797 0
M  V30 12838 O 1312.71 -1.56353 -3.81612 0
M  V30 12839 H 1312.05 -0.458816 -0.479983 0
M  V30 12840 H 1314.58 -1.79755 -0.977207 0
M  V30 12841 H 1314.59 -2.29651 -3.3723 0
M  V30 12842 H 1313.27 -3.19981 -2.65678 0
M  V30 12843 H 1311.85 -1.52685 -3.40208 0
M  V30 12844 N 1314.03 1.01274 -1.20754 0
M  V30 12845 C 1315.26 1.78524 -1.04579 0
M  V30 12846 C 1315.67 1.84409 0.404809 0
M  V30 12847 O 1315.03 1.29987 1.281 0
M  V30 12848 C 1315.08 3.22806 -1.62722 0
M  V30 12849 O 1314.8 3.17276 -3.02106 0
M  V30 12850 C 1316.3 4.16589 -1.51553 0
M  V30 12851 H 1313.52 0.561299 -0.367674 0
M  V30 12852 H 1316.07 1.27454 -1.59924 0
M  V30 12853 H 1314.22 3.71011 -1.11487 0
M  V30 12854 H 1314.64 4.07866 -3.29766 0
M  V30 12855 H 1316.11 5.15654 -1.9699 0
M  V30 12856 H 1316.59 4.36692 -0.468659 0
M  V30 12857 H 1317.19 3.74269 -2.01998 0
M  V30 12858 N 1315.51 1.01404 1.20644 0
M  V30 12859 C 1316.92 0.73386 1.71672 0
M  V30 12860 C 1317.27 -0.747803 1.8139 0
M  V30 12861 O 1316.4 -1.58372 1.47469 0
M  V30 12862 C 1316.99 1.32549 3.11795 0
M  V30 12863 C 1315.55 1.09423 3.60144 0
M  V30 12864 C 1314.7 1.43275 2.37419 0
M  V30 12865 H 1317.65 1.18383 1.05694 0
M  V30 12866 H 1317.67 0.714749 3.73727 0
M  V30 12867 H 1317.18 2.40386 3.0469 0
M  V30 12868 H 1315.28 0.0334113 3.72585 0
M  V30 12869 H 1315.4 1.77248 4.45107 0
M  V30 12870 H 1313.76 0.851714 2.40037 0
M  V30 12871 H 1314.54 2.52163 2.32957 0
M  V30 12872 N 1316.99 -1.36373 0.789944 0
M  V30 12873 C 1318.23 -1.99523 0.363119 0
M  V30 12874 C 1318.57 -1.6255 -1.0626 0
M  V30 12875 O 1317.84 -0.880551 -1.73426 0
M  V30 12876 C 1318.12 -3.56215 0.527526 0
M  V30 12877 C 1317.98 -4.0304 1.99697 0
M  V30 12878 C 1319.3 -4.40063 -0.0571079 0
M  V30 12879 H 1316.42 -0.724824 0.133412 0
M  V30 12880 H 1319.06 -1.61778 0.996381 0
M  V30 12881 H 1317.21 -3.88498 -0.0115636 0
M  V30 12882 H 1318.88 -3.81241 2.59717 0
M  V30 12883 H 1317.12 -3.54561 2.49939 0
M  V30 12884 H 1317.79 -5.12001 2.06297 0
M  V30 12885 H 1320.27 -4.14143 0.403082 0
M  V30 12886 H 1319.15 -5.4883 0.0879494 0
M  V30 12887 H 1319.41 -4.26901 -1.14926 0
M  V30 12888 N 1318.47 -0.542005 -1.47987 0
M  V30 12889 C 1319.69 -0.0146835 -2.07395 0
M  V30 12890 C 1320.12 1.26266 -1.39422 0
M  V30 12891 O 1319.47 1.75259 -0.464118 0
M  V30 12892 C 1319.52 0.179937 -3.60151 0
M  V30 12893 O 1318.63 1.24596 -3.93128 0
M  V30 12894 H 1317.97 -0.0445076 -0.662507 0
M  V30 12895 H 1320.5 -0.753352 -1.90226 0
M  V30 12896 H 1320.51 0.398876 -4.06046 0
M  V30 12897 H 1319.18 -0.753093 -4.09025 0
M  V30 12898 H 1317.76 1.00872 -3.58997 0
M  V30 12899 N 1319.94 1.55134 -0.277709 0
M  V30 12900 C 1321.17 2.04519 0.344472 0
M  V30 12901 C 1321.59 1.15466 1.4849 0
M  V30 12902 O 1320.95 0.153798 1.80646 0
M  V30 12903 C 1321 3.51602 0.800527 0
M  V30 12904 O 1320.1 3.65632 1.90754 0
M  V30 12905 H 1319.44 0.660212 0.0708226 0
M  V30 12906 H 1321.97 2.00393 -0.412764 0
M  V30 12907 H 1321.98 3.93015 1.09559 0
M  V30 12908 H 1320.66 4.15886 -0.033838 0
M  V30 12909 H 1319.24 3.36122 1.61481 0
M  V30 12910 N 1321.42 0.00503138 1.57599 0
M  V30 12911 C 1322.65 -0.693231 1.95471 0
M  V30 12912 C 1323.07 -1.66233 0.880246 0
M  V30 12913 O 1322.43 -1.80582 -0.161164 0
M  V30 12914 C 1322.48 -1.39696 3.32442 0
M  V30 12915 O 1321.58 -2.51154 3.27101 0
M  V30 12916 H 1320.92 -0.184015 0.637992 0
M  V30 12917 H 1323.45 0.0597194 2.04513 0
M  V30 12918 H 1323.46 -1.75924 3.68123 0
M  V30 12919 H 1322.14 -0.686438 4.10196 0
M  V30 12920 H 1320.71 -2.17216 3.03103 0
M  V30 12921 N 1322.9 -1.55308 -0.267798 0
M  V30 12922 C 1324.15 -1.75811 -0.996734 0
M  V30 12923 C 1324.47 -0.565161 -1.8663 0
M  V30 12924 O 1323.74 0.419775 -1.9135 0
M  V30 12925 H 1322.32 -0.648353 -0.371008 0
M  V30 12926 H 1324.98 -1.92719 -0.290775 0
M  V30 12927 H 1324.08 -2.66113 -1.63064 0
M  V30 12928 N 1324.38 0.532545 -1.4833 0
M  V30 12929 C 1325.31 1.65325 -1.58746 0
M  V30 12930 C 1326.32 1.5581 -0.471925 0
M  V30 12931 O 1327.51 1.62317 -0.742656 0
M  V30 12932 C 1324.61 3.03957 -1.49877 0
M  V30 12933 C 1323.78 3.38979 -2.76427 0
M  V30 12934 C 1322.84 4.56881 -2.61048 0
M  V30 12935 O 1321.87 4.6023 -3.34928 0
M  V30 12936 N 1323.07 5.54898 -1.70496 0
M  V30 12937 H 1325.84 1.56827 -2.55393 0
M  V30 12938 H 1323.4 0.71976 -1.45021 0
M  V30 12939 H 1325.39 3.80702 -1.37288 0
M  V30 12940 H 1323.96 3.06548 -0.612158 0
M  V30 12941 H 1323.18 2.51438 -3.03599 0
M  V30 12942 H 1324.47 3.59163 -3.60388 0
M  V30 12943 H 1323.87 5.54968 -1.0967 0
M  V30 12944 H 1322.42 6.3087 -1.63847 0
M  V30 12945 N 1325.86 1.36875 0.78122 0
M  V30 12946 C 1327.08 1.34732 1.57019 0
M  V30 12947 C 1327.5 -0.0695423 1.88672 0
M  V30 12948 O 1326.86 -1.02873 1.50743 0
M  V30 12949 C 1326.91 2.17668 2.88623 0
M  V30 12950 O 1326.63 3.53832 2.5833 0
M  V30 12951 C 1328.13 2.23398 3.82895 0
M  V30 12952 H 1325.35 0.461857 0.486754 0
M  V30 12953 H 1327.89 1.80086 0.968989 0
M  V30 12954 H 1326.05 1.75848 3.4519 0
M  V30 12955 H 1326.46 3.972 3.42538 0
M  V30 12956 H 1327.94 2.85769 4.72271 0
M  V30 12957 H 1328.41 1.23972 4.2134 0
M  V30 12958 H 1329.02 2.65489 3.32258 0
M  V30 12959 N 1327.33 -1.00632 1.21289 0
M  V30 12960 C 1328.74 -1.55838 1.02817 0
M  V30 12961 C 1329.1 -1.91816 -0.412425 0
M  V30 12962 O 1328.22 -1.73342 -1.29543 0
M  V30 12963 C 1328.82 -2.83168 1.86014 0
M  V30 12964 C 1327.37 -3.34865 1.71879 0
M  V30 12965 C 1326.52 -2.0807 1.83309 0
M  V30 12966 H 1329.47 -0.828939 1.3533 0
M  V30 12967 H 1329.49 -3.54996 1.36961 0
M  V30 12968 H 1329.01 -2.56951 2.90857 0
M  V30 12969 H 1327.11 -3.6602 0.697153 0
M  V30 12970 H 1327.22 -4.06374 2.53766 0
M  V30 12971 H 1325.58 -2.21006 1.26603 0
M  V30 12972 H 1326.37 -1.84267 2.89656 0
M  V30 12973 N 1328.81 -1.02043 -1.20104 0
M  V30 12974 C 1330.04 -0.731315 -1.93544 0
M  V30 12975 C 1330.45 0.708582 -1.74999 0
M  V30 12976 O 1329.81 1.481 -1.06642 0
M  V30 12977 C 1329.86 -1.06233 -3.45538 0
M  V30 12978 O 1329.58 -2.44568 -3.63481 0
M  V30 12979 C 1331.08 -0.794818 -4.36116 0
M  V30 12980 H 1328.3 -0.268248 -0.615048 0
M  V30 12981 H 1330.85 -1.36264 -1.52488 0
M  V30 12982 H 1329 -0.476341 -3.8446 0
M  V30 12983 H 1329.42 -2.5663 -4.57429 0
M  V30 12984 H 1330.89 -1.07647 -5.41402 0
M  V30 12985 H 1331.37 0.270944 -4.38363 0
M  V30 12986 H 1331.97 -1.36314 -4.02863 0
M  V30 12987 N 1330.29 1.35952 -0.797165 0
M  V30 12988 C 1331.7 1.81554 -0.435311 0
M  V30 12989 C 1332.05 1.66266 1.04164 0
M  V30 12990 O 1331.18 1.18796 1.80877 0
M  V30 12991 C 1331.77 3.29619 -0.783358 0
M  V30 12992 C 1330.33 3.73401 -0.47423 0
M  V30 12993 C 1329.48 2.58098 -1.01394 0
M  V30 12994 H 1332.43 1.24064 -0.989638 0
M  V30 12995 H 1332.45 3.80421 -0.0773381 0
M  V30 12996 H 1331.96 3.40715 -1.85836 0
M  V30 12997 H 1330.06 3.6786 0.592418 0
M  V30 12998 H 1330.18 4.68542 -1.00026 0
M  V30 12999 H 1328.54 2.50927 -0.436747 0
M  V30 13000 H 1329.32 2.71976 -2.09485 0
M  V30 13001 N 1331.77 0.549846 1.47697 0
M  V30 13002 C 1333 0.0276889 2.06881 0
M  V30 13003 C 1333.41 -1.26273 1.40359 0
M  V30 13004 O 1332.77 -1.75584 0.497644 0
M  V30 13005 C 1332.82 -0.179291 3.61055 0
M  V30 13006 O 1332.54 1.06002 4.25083 0
M  V30 13007 C 1334.04 -0.739571 4.37087 0
M  V30 13008 H 1331.26 0.0425016 0.669653 0
M  V30 13009 H 1333.81 0.761158 1.89807 0
M  V30 13010 H 1331.96 -0.862867 3.77668 0
M  V30 13011 H 1332.37 0.853137 5.17515 0
M  V30 13012 H 1333.85 -0.833722 5.45668 0
M  V30 13013 H 1334.33 -1.74915 4.02867 0
M  V30 13014 H 1334.93 -0.0919294 4.25201 0
M  V30 13015 N 1333.25 -1.54984 0.285932 0
M  V30 13016 C 1334.66 -1.85519 -0.209707 0
M  V30 13017 C 1335.01 -1.20794 -1.54606 0
M  V30 13018 O 1334.13 -0.500159 -2.10541 0
M  V30 13019 C 1334.73 -3.36579 -0.387283 0
M  V30 13020 C 1333.29 -3.67199 -0.827148 0
M  V30 13021 C 1332.43 -2.77203 0.073308 0
M  V30 13022 H 1335.39 -1.5037 0.507404 0
M  V30 13023 H 1335.41 -3.60269 -1.2242 0
M  V30 13024 H 1334.92 -3.83658 0.585493 0
M  V30 13025 H 1333.02 -3.25627 -1.81101 0
M  V30 13026 H 1333.13 -4.74574 -0.656976 0
M  V30 13027 H 1331.5 -2.50785 -0.444859 0
M  V30 13028 H 1332.28 -3.27099 1.04216 0
M  V30 13029 N 1334.72 -0.0133892 -1.57594 0
M  V30 13030 C 1335.97 0.667313 -1.90765 0
M  V30 13031 C 1336.29 1.73564 -0.888847 0
M  V30 13032 O 1335.56 1.95768 0.0718946 0
M  V30 13033 H 1334.14 0.24947 -0.704112 0
M  V30 13034 H 1336.81 -0.0574789 -1.94815 0
M  V30 13035 H 1335.9 1.13007 -2.90922 0
M  V30 13036 N 1336.2 1.55448 0.259558 0
M  V30 13037 C 1337.43 1.81063 1.01148 0
M  V30 13038 C 1337.85 0.58875 1.78649 0
M  V30 13039 O 1337.21 -0.461971 1.75315 0
M  V30 13040 C 1337.26 3.04279 1.93512 0
M  V30 13041 O 1336.36 2.80307 3.02493 0
M  V30 13042 H 1335.7 0.598056 0.288487 0
M  V30 13043 H 1338.23 2.02614 0.284387 0
M  V30 13044 H 1338.24 3.33373 2.35215 0
M  V30 13045 H 1336.92 3.92856 1.36518 0
M  V30 13046 H 1335.5 2.62345 2.65008 0
M  V30 13047 N 1337.68 -0.524672 1.4861 0
M  V30 13048 C 1338.93 -1.28211 1.5713 0
M  V30 13049 C 1339.26 -1.92626 0.246751 0
M  V30 13050 O 1338.53 -1.79553 -0.747725 0
M  V30 13051 C 1338.82 -2.36737 2.71344 0
M  V30 13052 C 1338.67 -1.76978 4.1352 0
M  V30 13053 C 1339.99 -3.3847 2.81294 0
M  V30 13054 H 1337.11 -0.46479 0.571961 0
M  V30 13055 H 1339.75 -0.583937 1.80804 0
M  V30 13056 H 1337.9 -2.96287 2.51289 0
M  V30 13057 H 1339.57 -1.21438 4.45029 0
M  V30 13058 H 1337.82 -1.07488 4.20272 0
M  V30 13059 H 1338.49 -2.55583 4.89266 0
M  V30 13060 H 1340.96 -2.88882 2.99477 0
M  V30 13061 H 1339.84 -4.11795 3.62928 0
M  V30 13062 H 1340.1 -3.99347 1.89669 0
M  V30 13063 N 1339.16 -1.37287 -0.77395 0
M  V30 13064 C 1340.57 -1.28954 -1.3501 0
M  V30 13065 C 1340.92 0.0638301 -1.96096 0
M  V30 13066 O 1340.05 0.965624 -1.93661 0
M  V30 13067 C 1340.64 -2.3352 -2.45467 0
M  V30 13068 C 1339.2 -2.28828 -2.98856 0
M  V30 13069 C 1338.35 -2.17468 -1.72055 0
M  V30 13070 H 1341.3 -1.47941 -0.57438 0
M  V30 13071 H 1341.32 -1.98058 -3.24889 0
M  V30 13072 H 1340.83 -3.32009 -2.00977 0
M  V30 13073 H 1338.93 -1.33855 -3.47726 0
M  V30 13074 H 1339.04 -3.22152 -3.54619 0
M  V30 13075 H 1337.41 -1.63977 -1.94894 0
M  V30 13076 H 1338.19 -3.17868 -1.29672 0
M  V30 13077 N 1340.64 0.999871 -1.21821 0
M  V30 13078 C 1341.86 1.7794 -1.06546 0
M  V30 13079 C 1342.29 1.84219 0.380115 0
M  V30 13080 O 1341.64 1.28955 1.27438 0
M  V30 13081 C 1341.69 3.1943 -1.67322 0
M  V30 13082 O 1340.8 4.01957 -0.922171 0
M  V30 13083 H 1340.14 0.548204 -0.374658 0
M  V30 13084 H 1342.67 1.2565 -1.61472 0
M  V30 13085 H 1342.68 3.70086 -1.71757 0
M  V30 13086 H 1341.35 3.14175 -2.7252 0
M  V30 13087 H 1339.93 3.60509 -0.95331 0
M  V30 13088 N 1342.11 1.02678 1.19562 0
M  V30 13089 C 1343.08 0.610407 2.20922 0
M  V30 13090 C 1344.08 -0.324858 1.57484 0
M  V30 13091 O 1345.27 -0.112153 1.73839 0
M  V30 13092 C 1342.4 -0.107115 3.40732 0
M  V30 13093 H 1343.59 1.50722 2.59274 0
M  V30 13094 H 1341.15 0.817725 1.33203 0
M  V30 13095 H 1341.88 -1.01837 3.07896 0
M  V30 13096 H 1341.67 0.564901 3.88009 0
M  V30 13097 H 1343.16 -0.385423 4.15818 0
M  V30 13098 N 1343.59 -1.35528 0.804364 0
M  V30 13099 C 1344.82 -2.03073 0.396091 0
M  V30 13100 C 1345.24 -1.60623 -0.992252 0
M  V30 13101 O 1344.59 -0.802718 -1.63898 0
M  V30 13102 C 1344.64 -3.58467 0.467301 0
M  V30 13103 O 1344.36 -3.99373 1.80091 0
M  V30 13104 C 1345.87 -4.4327 0.0515549 0
M  V30 13105 H 1343.09 -0.651346 0.161212 0
M  V30 13106 H 1345.63 -1.73195 1.08737 0
M  V30 13107 H 1343.78 -3.87001 -0.175703 0
M  V30 13108 H 1344.2 -4.94013 1.76214 0
M  V30 13109 H 1345.67 -5.51789 0.152499 0
M  V30 13110 H 1346.15 -4.27597 -1.00286 0
M  V30 13111 H 1346.76 -4.20027 0.667628 0
M  V30 13112 N 1345.07 -0.557671 -1.47404 0
M  V30 13113 C 1346 0.227253 -2.28071 0
M  V30 13114 C 1347.02 0.878951 -1.37034 0
M  V30 13115 O 1348.21 0.752725 -1.61853 0
M  V30 13116 C 1345.31 1.33942 -3.11308 0
M  V30 13117 C 1344.48 0.784425 -4.30309 0
M  V30 13118 C 1343.54 1.78114 -4.95138 0
M  V30 13119 O 1342.56 1.32708 -5.53514 0
M  V30 13120 N 1343.77 3.11453 -4.89875 0
M  V30 13121 H 1346.53 -0.464709 -2.96075 0
M  V30 13122 H 1344.09 -0.393777 -1.57038 0
M  V30 13123 H 1346.08 2.00495 -3.51545 0
M  V30 13124 H 1344.65 1.93461 -2.45543 0
M  V30 13125 H 1343.87 -0.0578917 -3.94157 0
M  V30 13126 H 1345.16 0.39298 -5.0728 0
M  V30 13127 H 1344.56 3.50987 -4.43649 0
M  V30 13128 H 1343.12 3.73563 -5.34129 0
M  V30 13129 N 1346.55 1.54831 -0.294147 0
M  V30 13130 C 1347.78 2.04411 0.319938 0
M  V30 13131 C 1348.19 1.17174 1.4804 0
M  V30 13132 O 1347.55 0.195881 1.81446 0
M  V30 13133 C 1347.6 3.52924 0.782751 0
M  V30 13134 O 1347.32 4.36844 -0.331512 0
M  V30 13135 C 1348.82 4.18474 1.4627 0
M  V30 13136 H 1346.04 0.667286 0.0704973 0
M  V30 13137 H 1348.59 1.9989 -0.431785 0
M  V30 13138 H 1346.74 3.57828 1.48451 0
M  V30 13139 H 1347.16 5.24493 0.0275743 0
M  V30 13140 H 1348.63 5.23933 1.73776 0
M  V30 13141 H 1349.11 3.67793 2.40052 0
M  V30 13142 H 1349.71 4.17626 0.804291 0
M  V30 13143 N 1348.03 0.0217466 1.57585 0
M  V30 13144 C 1348.96 -0.99116 2.06661 0
M  V30 13145 C 1349.97 -1.29346 0.988604 0
M  V30 13146 O 1351.16 -1.25941 1.26496 0
M  V30 13147 C 1348.26 -2.32047 2.46997 0
M  V30 13148 C 1347.43 -2.20441 3.77789 0
M  V30 13149 C 1346.49 -3.36243 4.04755 0
M  V30 13150 O 1345.52 -3.13458 4.75114 0
M  V30 13151 N 1346.72 -4.598 3.54351 0
M  V30 13152 H 1349.49 -0.572486 2.94181 0
M  V30 13153 H 1347.05 -0.165175 1.61055 0
M  V30 13154 H 1349.04 -3.0833 2.62135 0
M  V30 13155 H 1347.61 -2.65581 1.64881 0
M  V30 13156 H 1346.83 -1.28931 3.72519 0
M  V30 13157 H 1348.12 -2.09882 4.63494 0
M  V30 13158 H 1347.52 -4.81207 2.97416 0
M  V30 13159 H 1346.07 -5.33276 3.7478 0
M  V30 13160 N 1349.51 -1.55583 -0.251311 0
M  V30 13161 C 1350.73 -1.81597 -1.00186 0
M  V30 13162 C 1351.16 -0.598216 -1.78334 0
M  V30 13163 O 1350.51 0.452667 -1.75558 0
M  V30 13164 C 1350.56 -3.05301 -1.91895 0
M  V30 13165 O 1349.67 -2.81907 -3.01002 0
M  V30 13166 H 1349.01 -0.599578 -0.285311 0
M  V30 13167 H 1351.54 -2.02762 -0.273638 0
M  V30 13168 H 1351.55 -3.34616 -2.33444 0
M  V30 13169 H 1350.22 -3.93574 -1.34433 0
M  V30 13170 H 1348.8 -2.63747 -2.63613 0
M  V30 13171 N 1350.98 0.516783 -1.48886 0
M  V30 13172 C 1352.21 1.29628 -1.61258 0
M  V30 13173 C 1352.63 1.86744 -0.27786 0
M  V30 13174 O 1351.98 1.67061 0.734639 0
M  V30 13175 C 1352.03 2.43779 -2.66935 0
M  V30 13176 O 1351.76 1.89014 -3.95228 0
M  V30 13177 C 1353.26 3.35398 -2.89867 0
M  V30 13178 H 1350.48 0.393736 -0.543335 0
M  V30 13179 H 1353.02 0.622069 -1.94809 0
M  V30 13180 H 1351.18 3.0706 -2.36206 0
M  V30 13181 H 1351.59 2.63833 -4.53312 0
M  V30 13182 H 1353.06 4.11812 -3.6758 0
M  V30 13183 H 1353.54 3.91436 -1.99185 0
M  V30 13184 H 1354.15 2.77898 -3.21952 0
M  V30 13185 N 1352.46 1.37696 0.766659 0
M  V30 13186 C 1353.87 1.29668 1.34324 0
M  V30 13187 C 1354.22 -0.0534297 1.96127 0
M  V30 13188 O 1353.35 -0.95534 1.94171 0
M  V30 13189 C 1353.94 2.34818 2.44225 0
M  V30 13190 C 1352.5 2.3041 2.97638 0
M  V30 13191 C 1351.65 2.18378 1.70899 0
M  V30 13192 H 1354.6 1.48244 0.566526 0
M  V30 13193 H 1354.62 1.99778 3.23835 0
M  V30 13194 H 1354.13 3.3307 1.99214 0
M  V30 13195 H 1352.23 1.35698 3.47011 0
M  V30 13196 H 1352.35 3.24028 3.52906 0
M  V30 13197 H 1350.71 1.65008 1.94021 0
M  V30 13198 H 1351.49 3.18551 1.27985 0
M  V30 13199 N 1353.94 -0.993397 1.22349 0
M  V30 13200 C 1355.17 -1.76838 1.07406 0
M  V30 13201 C 1355.58 -1.8503 -0.37542 0
M  V30 13202 O 1354.94 -1.32008 -1.26016 0
M  V30 13203 C 1354.99 -3.20177 1.67837 0
M  V30 13204 O 1354.71 -3.12429 3.07115 0
M  V30 13205 C 1356.21 -4.14125 1.58161 0
M  V30 13206 H 1353.43 -0.555379 0.376557 0
M  V30 13207 H 1355.98 -1.24893 1.61932 0
M  V30 13208 H 1354.13 -3.69191 1.17375 0
M  V30 13209 H 1354.55 -4.02568 3.36213 0
M  V30 13210 H 1356.02 -5.12455 2.05169 0
M  V30 13211 H 1356.5 -4.35892 0.538073 0
M  V30 13212 H 1357.1 -3.71008 2.07926 0
M  V30 13213 N 1355.42 -1.03311 -1.19015 0
M  V30 13214 C 1356.66 -0.733124 -1.89085 0
M  V30 13215 C 1357 0.73675 -1.79682 0
M  V30 13216 O 1356.27 1.53692 -1.19201 0
M  V30 13217 C 1356.55 -1.19028 -3.39859 0
M  V30 13218 C 1356.41 -2.72169 -3.58112 0
M  V30 13219 C 1357.73 -0.774383 -4.33234 0
M  V30 13220 H 1354.85 -0.2678 -0.686624 0
M  V30 13221 H 1357.49 -1.28378 -1.40068 0
M  V30 13222 H 1355.64 -0.721799 -3.81736 0
M  V30 13223 H 1357.31 -3.26996 -3.25379 0
M  V30 13224 H 1355.55 -3.12358 -3.01023 0
M  V30 13225 H 1356.22 -2.99213 -4.6387 0
M  V30 13226 H 1358.7 -1.17739 -3.99095 0
M  V30 13227 H 1357.58 -1.12209 -5.37308 0
M  V30 13228 H 1357.84 0.322989 -4.40919 0
M  V30 13229 N 1356.9 1.35099 -0.81154 0
M  V30 13230 C 1357.83 2.28468 -0.183012 0
M  V30 13231 C 1358.84 1.50509 0.620553 0
M  V30 13232 O 1360.03 1.7268 0.4521 0
M  V30 13233 C 1357.13 3.30201 0.762933 0
M  V30 13234 C 1356.3 4.374 0.00466561 0
M  V30 13235 C 1355.36 5.18961 0.869832 0
M  V30 13236 O 1354.39 5.68306 0.318964 0
M  V30 13237 N 1355.59 5.37555 2.19123 0
M  V30 13238 H 1358.35 2.83046 -0.985132 0
M  V30 13239 H 1355.92 1.47502 -0.667449 0
M  V30 13240 H 1357.91 3.81659 1.34606 0
M  V30 13241 H 1356.48 2.76101 1.46584 0
M  V30 13242 H 1355.7 3.8681 -0.759702 0
M  V30 13243 H 1356.99 5.06159 -0.517739 0
M  V30 13244 H 1356.38 4.99118 2.66266 0
M  V30 13245 H 1354.94 5.92174 2.72348 0
M  V30 13246 N 1358.37 0.56548 1.47106 0
M  V30 13247 C 1359.34 -0.167191 2.28589 0
M  V30 13248 C 1360.34 -0.835005 1.3742 0
M  V30 13249 O 1361.53 -0.689598 1.59969 0
M  V30 13250 C 1358.66 -1.24548 3.17333 0
M  V30 13251 H 1359.85 0.548677 2.94838 0
M  V30 13252 H 1357.4 0.322749 1.52931 0
M  V30 13253 H 1358.14 -1.99348 2.55794 0
M  V30 13254 H 1357.92 -0.771335 3.84438 0
M  V30 13255 H 1359.41 -1.75985 3.78707 0
M  V30 13256 N 1359.85 -1.54672 0.302354 0
M  V30 13257 C 1360.82 -2.22246 -0.560283 0
M  V30 13258 C 1361.82 -1.20895 -1.06023 0
M  V30 13259 O 1363.01 -1.45621 -0.956047 0
M  V30 13260 C 1360.14 -2.9099 -1.77589 0
M  V30 13261 H 1361.33 -2.99885 0.0301274 0
M  V30 13262 H 1358.88 -1.56209 0.0532036 0
M  V30 13263 H 1359.62 -2.17433 -2.4061 0
M  V30 13264 H 1359.4 -3.65288 -1.42503 0
M  V30 13265 H 1360.89 -3.42535 -2.38871 0
M  V30 13266 N 1361.33 -0.0301034 -1.57571 0
M  V30 13267 C 1362.29 0.936465 -2.09196 0
M  V30 13268 C 1363.29 1.25347 -1.00722 0
M  V30 13269 O 1364.48 1.19364 -1.26877 0
M  V30 13270 C 1361.62 2.2527 -2.55864 0
M  V30 13271 H 1362.81 0.489332 -2.95881 0
M  V30 13272 H 1360.36 0.217948 -1.54773 0
M  V30 13273 H 1361.1 2.7461 -1.72511 0
M  V30 13274 H 1360.88 2.03573 -3.35113 0
M  V30 13275 H 1362.37 2.94549 -2.96025 0
M  V30 13276 N 1362.81 1.55714 0.243056 0
M  V30 13277 C 1363.74 1.87093 1.32396 0
M  V30 13278 C 1364.75 0.757482 1.44104 0
M  V30 13279 O 1365.94 1.03563 1.45386 0
M  V30 13280 C 1363.04 2.04546 2.70212 0
M  V30 13281 C 1362.22 3.3543 2.80723 0
M  V30 13282 C 1361.27 3.42578 3.99408 0
M  V30 13283 O 1360.3 4.15762 3.88755 0
M  V30 13284 N 1361.5 2.7215 5.12752 0
M  V30 13285 H 1364.27 2.80399 1.05813 0
M  V30 13286 H 1361.83 1.55998 0.433151 0
M  V30 13287 H 1363.82 2.06665 3.47954 0
M  V30 13288 H 1362.39 1.17966 2.89487 0
M  V30 13289 H 1361.61 3.45594 1.89626 0
M  V30 13290 H 1362.9 4.21692 2.84698 0
M  V30 13291 H 1362.3 2.1243 5.24299 0
M  V30 13292 H 1360.85 2.79957 5.88615 0
M  V30 13293 N 1364.29 -0.50888 1.49158 0
M  V30 13294 C 1365.25 -1.59354 1.64739 0
M  V30 13295 C 1366.25 -1.52175 0.519557 0
M  V30 13296 O 1367.44 -1.55468 0.785838 0
M  V30 13297 C 1364.57 -2.99002 1.63739 0
M  V30 13298 H 1365.76 -1.46871 2.61474 0
M  V30 13299 H 1363.32 -0.732532 1.38071 0
M  V30 13300 H 1364.05 -3.1697 0.685583 0
M  V30 13301 H 1363.84 -3.05622 2.45637 0
M  V30 13302 H 1365.33 -3.77822 1.77877 0
M  V30 13303 N 1365.76 -1.381 -0.759346 0
M  V30 13304 C 1366.7 -1.3075 -1.88248 0
M  V30 13305 C 1367.71 -0.220835 -1.61295 0
M  V30 13306 O 1368.9 -0.477952 -1.71982 0
M  V30 13307 C 1366 -1.00174 -3.23757 0
M  V30 13308 C 1365.17 -2.19635 -3.78258 0
M  V30 13309 C 1364.23 -1.85892 -4.92271 0
M  V30 13310 O 1363.26 -2.58325 -5.07205 0
M  V30 13311 N 1364.46 -0.810436 -5.74815 0
M  V30 13312 H 1367.22 -2.27529 -1.95065 0
M  V30 13313 H 1364.78 -1.31886 -0.93902 0
M  V30 13314 H 1366.78 -0.756631 -3.97564 0
M  V30 13315 H 1365.35 -0.122094 -3.12361 0
M  V30 13316 H 1364.57 -2.60246 -2.96084 0
M  V30 13317 H 1365.85 -2.99373 -4.11404 0
M  V30 13318 H 1365.25 -0.209644 -5.65311 0
M  V30 13319 H 1363.81 -0.625206 -6.48795 0
M  V30 13320 N 1367.24 0.986894 -1.22875 0
M  V30 13321 C 1368.49 1.72985 -1.05849 0
M  V30 13322 C 1368.82 1.89939 0.404594 0
M  V30 13323 O 1368.1 1.44693 1.29978 0
M  V30 13324 C 1368.38 3.13193 -1.77714 0
M  V30 13325 C 1368.23 3.0385 -3.31655 0
M  V30 13326 C 1369.55 4.12486 -1.53438 0
M  V30 13327 H 1366.67 0.627877 -0.385926 0
M  V30 13328 H 1369.31 1.14936 -1.51294 0
M  V30 13329 H 1367.46 3.62751 -1.39083 0
M  V30 13330 H 1369.13 2.61866 -3.79768 0
M  V30 13331 H 1367.38 2.4051 -3.61023 0
M  V30 13332 H 1368.05 4.03092 -3.77122 0
M  V30 13333 H 1370.52 3.71709 -1.87007 0
M  V30 13334 H 1369.4 5.08694 -2.06207 0
M  V30 13335 H 1369.66 4.39613 -0.468294 0
M  V30 13336 N 1368.72 1.0394 1.18466 0
M  V30 13337 C 1369.95 0.762014 1.92356 0
M  V30 13338 C 1370.36 -0.680652 1.76104 0
M  V30 13339 O 1369.72 -1.46385 1.08985 0
M  V30 13340 C 1369.77 1.11717 3.43805 0
M  V30 13341 O 1369.49 2.50319 3.59544 0
M  V30 13342 C 1370.99 0.864099 4.34797 0
M  V30 13343 H 1368.21 0.277999 0.610702 0
M  V30 13344 H 1370.76 1.38672 1.503 0
M  V30 13345 H 1368.91 0.537445 3.83654 0
M  V30 13346 H 1369.33 2.63875 4.53288 0
M  V30 13347 H 1370.8 1.16247 5.39621 0
M  V30 13348 H 1371.28 -0.20117 4.38739 0
M  V30 13349 H 1371.88 1.42706 4.00643 0
M  V30 13350 N 1370.2 -1.34667 0.818693 0
M  V30 13351 C 1371.61 -1.80839 0.46414 0
M  V30 13352 C 1371.96 -1.67902 -1.01506 0
M  V30 13353 O 1371.09 -1.21658 -1.78964 0
M  V30 13354 C 1371.68 -3.28331 0.835698 0
M  V30 13355 C 1370.24 -3.72599 0.533575 0
M  V30 13356 C 1369.39 -2.56452 1.05487 0
M  V30 13357 H 1372.34 -1.22474 1.00925 0
M  V30 13358 H 1372.36 -3.8025 0.13785 0
M  V30 13359 H 1371.87 -3.37715 1.91233 0
M  V30 13360 H 1369.97 -3.68756 -0.533819 0
M  V30 13361 H 1370.08 -4.66891 1.07468 0
M  V30 13362 H 1368.45 -2.50201 0.476612 0
M  V30 13363 H 1369.23 -2.68608 2.13786 0
M  V30 13364 N 1371.68 -0.573274 -1.46804 0
M  V30 13365 C 1372.61 0.20305 -2.28299 0
M  V30 13366 C 1373.62 0.864367 -1.37958 0
M  V30 13367 O 1374.81 0.735516 -1.62642 0
M  V30 13368 C 1371.91 1.30633 -3.12711 0
M  V30 13369 C 1371.08 0.738741 -4.31116 0
M  V30 13370 C 1370.14 1.72853 -4.96999 0
M  V30 13371 O 1369.17 1.2683 -5.5489 0
M  V30 13372 N 1370.37 3.06239 -4.93151 0
M  V30 13373 H 1373.14 -0.496086 -2.95566 0
M  V30 13374 H 1370.7 -0.410411 -1.56612 0
M  V30 13375 H 1372.69 1.96755 -3.53652 0
M  V30 13376 H 1371.26 1.90846 -2.47581 0
M  V30 13377 H 1370.48 -0.0996941 -3.94074 0
M  V30 13378 H 1371.77 0.339154 -5.07668 0
M  V30 13379 H 1371.16 3.46262 -4.47347 0
M  V30 13380 H 1369.72 3.67876 -5.38062 0
M  V30 13381 N 1373.15 1.5451 -0.310553 0
M  V30 13382 C 1374.57 1.85829 0.180166 0
M  V30 13383 C 1374.92 1.23239 1.52665 0
M  V30 13384 O 1374.04 0.53359 2.09718 0
M  V30 13385 C 1374.64 3.37153 0.333687 0
M  V30 13386 C 1373.2 3.68469 0.768625 0
M  V30 13387 C 1372.34 2.77051 -0.117399 0
M  V30 13388 H 1375.29 1.49544 -0.531262 0
M  V30 13389 H 1375.31 3.62171 1.16673 0
M  V30 13390 H 1374.83 3.82678 -0.646455 0
M  V30 13391 H 1372.93 3.28467 1.75898 0
M  V30 13392 H 1373.04 4.75559 0.581392 0
M  V30 13393 H 1371.4 2.51461 0.404905 0
M  V30 13394 H 1372.19 3.254 -1.09407 0
M  V30 13395 N 1374.63 0.0384594 1.57553 0
M  V30 13396 C 1375.57 -0.969185 2.077 0
M  V30 13397 C 1376.58 -1.2829 1.00227 0
M  V30 13398 O 1377.77 -1.24592 1.27824 0
M  V30 13399 C 1374.87 -2.29414 2.49444 0
M  V30 13400 C 1374.04 -2.16422 3.80106 0
M  V30 13401 C 1373.1 -3.31931 4.08299 0
M  V30 13402 O 1372.13 -3.08401 4.78412 0
M  V30 13403 N 1373.33 -4.56015 3.59208 0
M  V30 13404 H 1376.09 -0.541252 2.94772 0
M  V30 13405 H 1373.65 -0.148084 1.61221 0
M  V30 13406 H 1375.65 -3.05533 2.6539 0
M  V30 13407 H 1374.22 -2.63817 1.67688 0
M  V30 13408 H 1373.44 -1.24973 3.73866 0
M  V30 13409 H 1374.72 -2.04954 4.65694 0
M  V30 13410 H 1374.12 -4.78025 3.02503 0
M  V30 13411 H 1372.68 -5.29271 3.80415 0
M  V30 13412 N 1376.11 -1.55841 -0.234795 0
M  V30 13413 C 1377.34 -1.82307 -0.978355 0
M  V30 13414 C 1377.75 -0.615825 -1.78474 0
M  V30 13415 O 1377.11 0.4156 -1.77705 0
M  V30 13416 C 1377.16 -3.07136 -1.90655 0
M  V30 13417 O 1376.88 -4.23202 -1.13278 0
M  V30 13418 C 1378.38 -3.46492 -2.76511 0
M  V30 13419 H 1375.6 -0.606361 -0.287345 0
M  V30 13420 H 1378.15 -2.02916 -0.254023 0
M  V30 13421 H 1376.3 -2.88542 -2.58501 0
M  V30 13422 H 1376.72 -4.94029 -1.76168 0
M  V30 13423 H 1378.19 -4.36908 -3.37366 0
M  V30 13424 H 1378.67 -2.67633 -3.48238 0
M  V30 13425 H 1379.27 -3.6748 -2.14099 0
M  V30 13426 N 1377.59 0.500963 -1.49426 0
M  V30 13427 C 1379 1.08248 -1.52116 0
M  V30 13428 C 1379.35 1.93777 -0.30738 0
M  V30 13429 O 1378.48 2.08404 0.582805 0
M  V30 13430 C 1379.07 1.96988 -2.75647 0
M  V30 13431 C 1377.63 2.50303 -2.81115 0
M  V30 13432 C 1376.78 1.27924 -2.4603 0
M  V30 13433 H 1379.73 0.284872 -1.56122 0
M  V30 13434 H 1379.75 2.81675 -2.55811 0
M  V30 13435 H 1379.26 1.34711 -3.6397 0
M  V30 13436 H 1377.36 3.16218 -1.97072 0
M  V30 13437 H 1377.48 2.87453 -3.83286 0
M  V30 13438 H 1375.84 1.60447 -1.9781 0
M  V30 13439 H 1376.62 0.673557 -3.36628 0
M  V30 13440 N 1379.07 1.38501 0.752011 0
M  V30 13441 C 1380.31 1.34995 1.51341 0
M  V30 13442 C 1380.65 -0.0594724 1.94109 0
M  V30 13443 O 1379.92 -1.02098 1.65548 0
M  V30 13444 C 1380.2 2.30705 2.76491 0
M  V30 13445 C 1380.06 3.80515 2.39851 0
M  V30 13446 C 1381.38 2.24521 3.78521 0
M  V30 13447 H 1378.5 0.491687 0.549011 0
M  V30 13448 H 1381.14 1.69361 0.861205 0
M  V30 13449 H 1379.29 2.01529 3.32142 0
M  V30 13450 H 1380.96 4.20371 1.89962 0
M  V30 13451 H 1379.2 3.98119 1.7229 0
M  V30 13452 H 1379.87 4.42946 3.29397 0
M  V30 13453 H 1382.35 2.50282 3.32413 0
M  V30 13454 H 1381.23 2.93598 4.63779 0
M  V30 13455 H 1381.49 1.24457 4.2422 0
M  V30 13456 N 1380.55 -0.980364 1.23396 0
M  V30 13457 C 1381.48 -2.07522 0.972991 0
M  V30 13458 C 1382.49 -1.62714 -0.0530191 0
M  V30 13459 O 1383.68 -1.77564 0.182513 0
M  V30 13460 C 1380.78 -3.35977 0.444126 0
M  V30 13461 C 1379.95 -4.09756 1.53031 0
M  V30 13462 C 1379.01 -5.16488 1.00631 0
M  V30 13463 O 1378.04 -5.43368 1.69529 0
M  V30 13464 N 1379.24 -5.80263 -0.165842 0
M  V30 13465 H 1382 -2.30487 1.91561 0
M  V30 13466 H 1379.57 -1.14706 1.14255 0
M  V30 13467 H 1381.56 -4.04624 0.078617 0
M  V30 13468 H 1380.13 -3.0998 -0.403912 0
M  V30 13469 H 1379.35 -3.35564 2.06858 0
M  V30 13470 H 1380.64 -4.55815 2.26076 0
M  V30 13471 H 1380.03 -5.60811 -0.742162 0
M  V30 13472 H 1378.59 -6.50084 -0.472614 0
M  V30 13473 N 1382.02 -1.04567 -1.17913 0
M  V30 13474 C 1383.43 -0.779118 -1.69666 0
M  V30 13475 C 1383.79 0.699448 -1.83309 0
M  V30 13476 O 1382.91 1.54407 -1.51616 0
M  V30 13477 C 1383.51 -1.40769 -3.08171 0
M  V30 13478 C 1382.06 -1.18933 -3.57116 0
M  V30 13479 C 1381.21 -1.49519 -2.33536 0
M  V30 13480 H 1384.16 -1.21144 -1.02518 0
M  V30 13481 H 1384.18 -0.813584 -3.717 0
M  V30 13482 H 1383.7 -2.4838 -2.9821 0
M  V30 13483 H 1381.8 -0.132184 -3.72365 0
M  V30 13484 H 1381.91 -1.88987 -4.40251 0
M  V30 13485 H 1380.27 -0.915056 -2.37695 0
M  V30 13486 H 1381.06 -2.5825 -2.26189 0
M  V30 13487 N 1383.5 1.34231 -0.825823 0
M  V30 13488 C 1384.91 1.8059 -0.473724 0
M  V30 13489 C 1385.26 1.68438 1.00614 0
M  V30 13490 O 1384.39 1.22606 1.78317 0
M  V30 13491 C 1384.98 3.27884 -0.853099 0
M  V30 13492 C 1383.54 3.72311 -0.553327 0
M  V30 13493 C 1382.69 2.55889 -1.06845 0
M  V30 13494 H 1385.64 1.21937 -1.01573 0
M  V30 13495 H 1385.66 3.80172 -0.158014 0
M  V30 13496 H 1385.17 3.36696 -1.93021 0
M  V30 13497 H 1383.27 3.69034 0.514256 0
M  V30 13498 H 1383.39 4.66315 -1.09942 0
M  V30 13499 H 1381.75 2.49945 -0.489874 0
M  V30 13500 H 1382.53 2.67471 -2.15207 0
M  V30 13501 N 1384.98 0.581051 1.46498 0
M  V30 13502 C 1386.2 0.0696654 2.07283 0
M  V30 13503 C 1386.63 -1.22525 1.42721 0
M  V30 13504 O 1385.99 -1.73967 0.510421 0
M  V30 13505 C 1386.04 -0.0843864 3.60501 0
M  V30 13506 O 1385.14 -1.14129 3.96293 0
M  V30 13507 H 1384.48 0.0620572 0.661094 0
M  V30 13508 H 1387.01 0.803522 1.88161 0
M  V30 13509 H 1387.02 -0.29108 4.0696 0
M  V30 13510 H 1385.7 0.861274 4.06884 0
M  V30 13511 H 1384.27 -0.913186 3.61546 0
M  V30 13512 N 1386.46 -1.54343 0.318742 0
M  V30 13513 C 1387.7 -2.00777 -0.285699 0
M  V30 13514 C 1388.04 -1.20664 -1.52164 0
M  V30 13515 O 1387.31 -0.287674 -1.92361 0
M  V30 13516 C 1387.59 -3.54641 -0.624649 0
M  V30 13517 C 1387.45 -4.45483 0.621663 0
M  V30 13518 C 1388.77 -4.15729 -1.4442 0
M  V30 13519 H 1385.89 -0.729856 -0.102367 0
M  V30 13520 H 1388.53 -1.84968 0.434364 0
M  V30 13521 H 1386.68 -3.68243 -1.23811 0
M  V30 13522 H 1388.35 -4.43759 1.25998 0
M  V30 13523 H 1386.59 -4.15356 1.25148 0
M  V30 13524 H 1387.26 -5.50951 0.340106 0
M  V30 13525 H 1389.74 -4.05672 -0.925699 0
M  V30 13526 H 1388.62 -5.23509 -1.65013 0
M  V30 13527 H 1388.88 -3.68743 -2.43887 0
M  V30 13528 N 1387.94 -0.0468143 -1.5753 0
M  V30 13529 C 1388.9 0.914225 -2.10177 0
M  V30 13530 C 1389.9 1.24271 -1.02045 0
M  V30 13531 O 1391.09 1.18012 -1.28136 0
M  V30 13532 C 1388.22 2.22544 -2.58238 0
M  V30 13533 H 1389.41 0.457922 -2.96383 0
M  V30 13534 H 1386.97 0.20152 -1.54995 0
M  V30 13535 H 1387.7 2.72765 -1.75413 0
M  V30 13536 H 1387.49 2.00007 -3.37253 0
M  V30 13537 H 1388.98 2.91392 -2.99133 0
M  V30 13538 N 1389.41 1.55964 0.226527 0
M  V30 13539 C 1390.64 1.82823 0.968673 0
M  V30 13540 C 1391.06 0.625281 1.78145 0
M  V30 13541 O 1390.41 -0.40617 1.77923 0
M  V30 13542 C 1390.47 3.08143 1.89024 0
M  V30 13543 O 1390.19 4.23797 1.11032 0
M  V30 13544 C 1391.69 3.47954 2.74669 0
M  V30 13545 H 1388.91 0.607876 0.284126 0
M  V30 13546 H 1391.45 2.03048 0.243258 0
M  V30 13547 H 1389.61 2.89908 2.56967 0
M  V30 13548 H 1390.02 4.94957 1.73546 0
M  V30 13549 H 1391.49 4.38691 3.35044 0
M  V30 13550 H 1391.97 2.69476 3.46813 0
M  V30 13551 H 1392.58 3.6861 2.12147 0
M  V30 13552 N 1390.89 -0.493031 1.4969 0
M  V30 13553 C 1392.3 -1.0744 1.52688 0
M  V30 13554 C 1392.65 -1.93612 0.317652 0
M  V30 13555 O 1391.78 -2.0871 -0.571745 0
M  V30 13556 C 1392.37 -1.95523 2.76688 0
M  V30 13557 C 1390.93 -2.48808 2.82438 0
M  V30 13558 C 1390.08 -1.26617 2.46705 0
M  V30 13559 H 1393.03 -0.276589 1.56271 0
M  V30 13560 H 1393.05 -2.80315 2.57301 0
M  V30 13561 H 1392.56 -1.32779 3.6468 0
M  V30 13562 H 1390.67 -3.15168 1.98746 0
M  V30 13563 H 1390.78 -2.85416 3.84805 0
M  V30 13564 H 1389.14 -1.59396 1.98658 0
M  V30 13565 H 1389.93 -0.655695 3.3698 0
M  V30 13566 N 1392.37 -1.38898 -0.744656 0
M  V30 13567 C 1393.3 -1.32739 -1.8685 0
M  V30 13568 C 1394.32 -0.23793 -1.61052 0
M  V30 13569 O 1395.5 -0.496166 -1.71466 0
M  V30 13570 C 1392.6 -1.03602 -3.22676 0
M  V30 13571 C 1391.78 -2.23634 -3.75908 0
M  V30 13572 C 1390.84 -1.91103 -4.90271 0
M  V30 13573 O 1389.86 -2.6369 -5.04437 0
M  V30 13574 N 1391.06 -0.871358 -5.73923 0
M  V30 13575 H 1393.83 -2.29585 -1.92641 0
M  V30 13576 H 1391.39 -1.32875 -0.924979 0
M  V30 13577 H 1393.38 -0.798755 -3.96739 0
M  V30 13578 H 1391.95 -0.155218 -3.12214 0
M  V30 13579 H 1391.17 -2.63371 -2.93307 0
M  V30 13580 H 1392.46 -3.0372 -4.08205 0
M  V30 13581 H 1391.86 -0.269591 -5.65057 0
M  V30 13582 H 1390.42 -0.693984 -6.48095 0
M  V30 13583 N 1393.85 0.973806 -1.23914 0
M  V30 13584 C 1395.07 1.7564 -1.10296 0
M  V30 13585 C 1395.5 1.84984 0.340954 0
M  V30 13586 O 1394.86 1.31629 1.24674 0
M  V30 13587 C 1394.9 3.15809 -1.7406 0
M  V30 13588 O 1394.01 3.99911 -1.00722 0
M  V30 13589 H 1393.35 0.540133 -0.386202 0
M  V30 13590 H 1395.88 1.22197 -1.64101 0
M  V30 13591 H 1395.89 3.66359 -1.79568 0
M  V30 13592 H 1394.56 3.08324 -2.79122 0
M  V30 13593 H 1393.14 3.58405 -1.02956 0
M  V30 13594 N 1395.33 1.05191 1.17357 0
M  V30 13595 C 1396.55 0.782343 1.92079 0
M  V30 13596 C 1396.98 -0.655957 1.76292 0
M  V30 13597 O 1396.33 -1.45573 1.08065 0
M  V30 13598 C 1396.38 1.16777 3.41168 0
M  V30 13599 O 1395.49 0.299908 4.11308 0
M  V30 13600 H 1394.83 0.286894 0.598822 0
M  V30 13601 H 1397.36 1.40476 1.48754 0
M  V30 13602 H 1397.37 1.13454 3.91909 0
M  V30 13603 H 1396.04 2.2155 3.51978 0
M  V30 13604 H 1394.62 0.393744 3.70815 0
M  V30 13605 N 1396.8 -1.33791 0.83293 0
M  V30 13606 C 1397.74 -2.28148 0.219336 0
M  V30 13607 C 1398.75 -1.51477 -0.596529 0
M  V30 13608 O 1399.94 -1.73377 -0.424571 0
M  V30 13609 C 1397.04 -3.31373 -0.710305 0
M  V30 13610 C 1396.21 -4.37352 0.0649215 0
M  V30 13611 C 1395.27 -5.20279 -0.78716 0
M  V30 13612 O 1394.3 -5.68741 -0.228511 0
M  V30 13613 N 1395.5 -5.40973 -2.10544 0
M  V30 13614 H 1398.26 -2.81443 1.03004 0
M  V30 13615 H 1395.82 -1.46421 0.690831 0
M  V30 13616 H 1397.82 -3.83752 -1.28517 0
M  V30 13617 H 1396.39 -2.78398 -1.42173 0
M  V30 13618 H 1395.61 -3.85553 0.821144 0
M  V30 13619 H 1396.89 -5.05271 0.598199 0
M  V30 13620 H 1396.29 -5.03291 -2.58292 0
M  V30 13621 H 1394.85 -5.96432 -2.62893 0
M  V30 13622 N 1398.28 -0.588812 -1.46187 0
M  V30 13623 C 1399.21 0.178825 -2.28501 0
M  V30 13624 C 1400.23 0.849686 -1.38867 0
M  V30 13625 O 1401.42 0.718224 -1.63413 0
M  V30 13626 C 1398.52 1.27309 -3.14079 0
M  V30 13627 C 1397.69 0.692974 -4.31876 0
M  V30 13628 C 1396.75 1.67572 -4.98805 0
M  V30 13629 O 1395.77 1.20937 -5.56204 0
M  V30 13630 N 1396.98 3.00992 -4.96371 0
M  V30 13631 H 1399.74 -0.527407 -2.95023 0
M  V30 13632 H 1397.3 -0.426998 -1.56168 0
M  V30 13633 H 1399.29 1.92993 -3.55719 0
M  V30 13634 H 1397.86 1.88209 -2.49592 0
M  V30 13635 H 1397.08 -0.141485 -3.93946 0
M  V30 13636 H 1398.37 0.28529 -5.08 0
M  V30 13637 H 1397.77 3.41498 -4.50994 0
M  V30 13638 H 1396.33 3.62149 -5.41933 0
M  V30 13639 N 1399.76 1.54172 -0.326923 0
M  V30 13640 C 1400.69 2.21958 0.571588 0
M  V30 13641 C 1401.71 1.22067 1.0772 0
M  V30 13642 O 1402.89 1.48517 0.990202 0
M  V30 13643 C 1399.99 2.87307 1.79744 0
M  V30 13644 C 1399.17 4.13366 1.42995 0
M  V30 13645 C 1398.23 4.62276 2.5137 0
M  V30 13646 O 1397.25 5.2688 2.15373 0
M  V30 13647 N 1398.45 4.36789 3.82355 0
M  V30 13648 H 1401.22 2.99699 -0.00885848 0
M  V30 13649 H 1398.78 1.61201 -0.150279 0
M  V30 13650 H 1400.77 3.1695 2.51644 0
M  V30 13651 H 1399.34 2.13252 2.28566 0
M  V30 13652 H 1398.56 3.9045 0.542444 0
M  V30 13653 H 1399.85 4.95396 1.16017 0
M  V30 13654 H 1399.25 3.85086 4.14397 0
M  V30 13655 H 1397.81 4.71079 4.50475 0
M  V30 13656 N 1401.24 0.0551678 1.57503 0
M  V30 13657 C 1402.65 -0.479948 1.80426 0
M  V30 13658 C 1403 -1.70673 0.967733 0
M  V30 13659 O 1402.13 -2.15604 0.185462 0
M  V30 13660 C 1402.72 -0.877496 3.27239 0
M  V30 13661 C 1401.28 -1.35757 3.51066 0
M  V30 13662 C 1400.43 -0.334681 2.75273 0
M  V30 13663 H 1403.38 0.281016 1.56192 0
M  V30 13664 H 1403.4 -1.74013 3.38378 0
M  V30 13665 H 1402.91 0.015571 3.88097 0
M  V30 13666 H 1401.01 -2.26969 2.95492 0
M  V30 13667 H 1401.12 -1.34697 4.59776 0
M  V30 13668 H 1399.49 -0.808421 2.4153 0
M  V30 13669 H 1400.27 0.550369 3.3886 0
M  V30 13670 N 1402.72 -1.56081 -0.218252 0
M  V30 13671 C 1403.94 -1.83334 -0.958964 0
M  V30 13672 C 1404.36 -0.63472 -1.77811 0
M  V30 13673 O 1403.72 0.396729 -1.78136 0
M  V30 13674 C 1403.77 -3.09141 -1.87387 0
M  V30 13675 O 1403.49 -4.24379 -1.08783 0
M  V30 13676 C 1404.99 -3.49405 -2.7282 0
M  V30 13677 H 1402.21 -0.609375 -0.280898 0
M  V30 13678 H 1404.75 -2.03174 -0.232486 0
M  V30 13679 H 1402.91 -2.91267 -2.55426 0
M  V30 13680 H 1403.32 -4.9587 -1.70919 0
M  V30 13681 H 1404.8 -4.40461 -3.32713 0
M  V30 13682 H 1405.27 -2.71311 -3.45379 0
M  V30 13683 H 1405.88 -3.6973 -2.1019 0
M  V30 13684 N 1404.2 0.485086 -1.49949 0
M  V30 13685 C 1405.61 1.06629 -1.53255 0
M  V30 13686 C 1405.96 1.9344 -0.327915 0
M  V30 13687 O 1405.08 2.09011 0.560669 0
M  V30 13688 C 1405.68 1.94053 -2.77721 0
M  V30 13689 C 1404.24 2.47307 -2.83754 0
M  V30 13690 C 1403.38 1.25307 -2.47373 0
M  V30 13691 H 1406.33 0.268297 -1.56416 0
M  V30 13692 H 1406.36 2.78946 -2.58784 0
M  V30 13693 H 1405.87 1.30843 -3.65379 0
M  V30 13694 H 1403.97 3.1411 -2.00414 0
M  V30 13695 H 1404.08 2.83371 -3.86313 0
M  V30 13696 H 1402.45 1.5834 -1.99501 0
M  V30 13697 H 1403.23 0.637815 -3.37323 0
M  V30 13698 N 1405.67 1.39291 0.737279 0
M  V30 13699 C 1406.92 1.36592 1.49901 0
M  V30 13700 C 1407.25 -0.0388812 1.94161 0
M  V30 13701 O 1406.53 -1.00337 1.66622 0
M  V30 13702 C 1406.81 2.33625 2.74028 0
M  V30 13703 C 1406.66 3.83037 2.35802 0
M  V30 13704 C 1407.98 2.28524 3.76118 0
M  V30 13705 H 1405.1 0.497482 0.543765 0
M  V30 13706 H 1407.74 1.70265 0.843193 0
M  V30 13707 H 1405.89 2.0504 3.29986 0
M  V30 13708 H 1407.57 4.22363 1.85493 0
M  V30 13709 H 1405.81 3.99924 1.68058 0
M  V30 13710 H 1406.48 4.46415 3.24681 0
M  V30 13711 H 1408.96 2.53794 3.29739 0
M  V30 13712 H 1407.83 2.98501 4.60639 0
M  V30 13713 H 1408.09 1.28949 4.22876 0
M  V30 13714 N 1407.15 -0.967221 1.24429 0
M  V30 13715 C 1408.1 -2.047 1.00409 0
M  V30 13716 C 1409.09 -1.60807 -0.0546412 0
M  V30 13717 O 1410.28 -1.76283 0.159145 0
M  V30 13718 C 1407.41 -3.37813 0.611345 0
M  V30 13719 C 1406.49 -3.88266 1.70618 0
M  V30 13720 N 1406.88 -4.1165 2.93901 0
M  V30 13721 C 1405.18 -4.16931 1.5838 0
M  V30 13722 C 1405.88 -4.53032 3.64879 0
M  V30 13723 N 1404.86 -4.58233 2.92444 0
M  V30 13724 H 1408.66 -2.20755 1.94021 0
M  V30 13725 H 1406.17 -1.15105 1.14562 0
M  V30 13726 H 1408.17 -4.14774 0.420493 0
M  V30 13727 H 1406.83 -3.23143 -0.317588 0
M  V30 13728 H 1407.84 -3.99087 3.30075 0
M  V30 13729 H 1404.52 -4.11193 0.722929 0
M  V30 13730 H 1405.91 -4.79533 4.70635 0
M  V30 13731 N 1408.63 -1.05812 -1.16797 0
M  V30 13732 C 1409.59 -0.668766 -2.19226 0
M  V30 13733 C 1410.59 0.28299 -1.5829 0
M  V30 13734 O 1411.78 0.0660233 -1.74075 0
M  V30 13735 C 1408.91 0.0167379 -3.40896 0
M  V30 13736 H 1410.11 -1.57543 -2.55187 0
M  V30 13737 H 1407.66 -0.852753 -1.30988 0
M  V30 13738 H 1408.4 0.936382 -3.10487 0
M  V30 13739 H 1408.18 -0.667576 -3.86375 0
M  V30 13740 H 1409.67 0.275041 -4.16693 0
M  V30 13741 N 1410.11 1.33347 -0.840014 0
M  V30 13742 C 1411.04 2.28029 -0.231432 0
M  V30 13743 C 1412.05 1.51792 0.588488 0
M  V30 13744 O 1413.24 1.736 0.415371 0
M  V30 13745 C 1410.34 3.31745 0.692721 0
M  V30 13746 C 1409.51 4.37311 -0.0881144 0
M  V30 13747 C 1408.57 5.20689 0.759557 0
M  V30 13748 O 1407.6 5.68854 0.198347 0
M  V30 13749 N 1408.8 5.42082 2.07672 0
M  V30 13750 H 1411.57 2.80893 -1.04495 0
M  V30 13751 H 1409.13 1.46053 -0.698586 0
M  V30 13752 H 1411.12 3.84428 1.2648 0
M  V30 13753 H 1409.69 2.79148 1.40695 0
M  V30 13754 H 1408.91 3.85112 -0.841579 0
M  V30 13755 H 1410.2 5.04947 -0.624986 0
M  V30 13756 H 1409.6 5.04654 2.55619 0
M  V30 13757 H 1408.15 5.97817 2.59726 0
M  V30 13758 N 1411.59 0.596556 1.45873 0
M  V30 13759 C 1413 0.173758 1.8589 0
M  V30 13760 C 1413.35 -1.26665 1.49835 0
M  V30 13761 O 1412.47 -1.9588 0.919773 0
M  V30 13762 C 1413.07 0.308567 3.37392 0
M  V30 13763 C 1411.63 -0.0594585 3.76353 0
M  V30 13764 C 1410.77 0.638127 2.69858 0
M  V30 13765 H 1413.72 0.803928 1.36831 0
M  V30 13766 H 1413.75 -0.462294 3.77681 0
M  V30 13767 H 1413.26 1.35701 3.63603 0
M  V30 13768 H 1411.36 -1.1075 3.5576 0
M  V30 13769 H 1411.47 0.326506 4.77986 0
M  V30 13770 H 1409.84 0.0769147 2.54584 0
M  V30 13771 H 1410.62 1.68849 2.98906 0
M  V30 13772 N 1413.06 -1.53996 0.335095 0
M  V30 13773 C 1414.47 -1.86092 -0.15058 0
M  V30 13774 C 1414.83 -1.25652 -1.50685 0
M  V30 13775 O 1413.95 -0.566887 -2.08843 0
M  V30 13776 C 1414.55 -3.37641 -0.280007 0
M  V30 13777 C 1413.1 -3.69645 -0.709907 0
M  V30 13778 C 1412.25 -2.7683 0.161461 0
M  V30 13779 H 1415.2 -1.4868 0.554986 0
M  V30 13780 H 1415.22 -3.63981 -1.10896 0
M  V30 13781 H 1414.74 -3.81601 0.707254 0
M  V30 13782 H 1412.84 -3.31224 -1.7065 0
M  V30 13783 H 1412.95 -4.76424 -0.505661 0
M  V30 13784 H 1411.31 -2.52073 -0.364849 0
M  V30 13785 H 1412.1 -3.23618 1.1457 0
M  V30 13786 N 1414.54 -0.0635198 -1.57472 0
M  V30 13787 C 1415.79 0.606285 -1.92792 0
M  V30 13788 C 1416.11 1.70648 -0.943615 0
M  V30 13789 O 1415.38 1.95898 0.00957612 0
M  V30 13790 H 1413.96 0.226943 -0.711692 0
M  V30 13791 H 1416.62 -0.119429 -1.94534 0
M  V30 13792 H 1415.72 1.03694 -2.9437 0
M  V30 13793 N 1416.02 1.56195 0.209972 0
M  V30 13794 C 1417.25 1.8384 0.949228 0
M  V30 13795 C 1417.66 0.644141 1.77472 0
M  V30 13796 O 1417.02 -0.387276 1.78344 0
M  V30 13797 C 1417.07 3.10131 1.85745 0
M  V30 13798 O 1416.79 4.2495 1.06531 0
M  V30 13799 C 1418.29 3.50847 2.70963 0
M  V30 13800 H 1415.51 0.610856 0.277662 0
M  V30 13801 H 1418.06 2.03295 0.221708 0
M  V30 13802 H 1416.21 2.92618 2.53877 0
M  V30 13803 H 1416.63 4.96769 1.68287 0
M  V30 13804 H 1418.1 4.4222 3.30372 0
M  V30 13805 H 1418.58 2.73139 3.43936 0
M  V30 13806 H 1419.18 3.7084 2.08226 0
M  V30 13807 N 1417.5 -0.477127 1.50204 0
M  V30 13808 C 1418.91 -1.05815 1.53819 0
M  V30 13809 C 1419.26 -1.93264 0.338169 0
M  V30 13810 O 1418.38 -2.09305 -0.549576 0
M  V30 13811 C 1418.98 -1.92577 2.78746 0
M  V30 13812 C 1417.54 -2.45799 2.85061 0
M  V30 13813 C 1416.69 -1.23994 2.48034 0
M  V30 13814 H 1419.64 -0.259998 1.56556 0
M  V30 13815 H 1419.66 -2.7757 2.6026 0
M  V30 13816 H 1419.17 -1.28904 3.66068 0
M  V30 13817 H 1417.27 -3.13042 2.02077 0
M  V30 13818 H 1417.38 -2.81318 3.8781 0
M  V30 13819 H 1415.75 -1.5728 2.00338 0
M  V30 13820 H 1416.53 -0.619917 3.37657 0
M  V30 13821 N 1418.98 -1.3968 -0.729882 0
M  V30 13822 C 1419.91 -1.41549 -1.85704 0
M  V30 13823 C 1420.89 -0.278186 -1.6781 0
M  V30 13824 O 1422.07 -0.484749 -1.88053 0
M  V30 13825 C 1419.2 -1.26327 -3.2351 0
M  V30 13826 C 1418.16 -2.37511 -3.56051 0
M  V30 13827 C 1417.48 -2.07375 -4.92849 0
M  V30 13828 C 1418.78 -3.79833 -3.58502 0
M  V30 13829 H 1420.48 -2.35877 -1.84398 0
M  V30 13830 H 1418.02 -1.13536 -0.885747 0
M  V30 13831 H 1419.98 -1.26254 -4.02042 0
M  V30 13832 H 1418.7 -0.284697 -3.25357 0
M  V30 13833 H 1417.36 -2.36809 -2.79852 0
M  V30 13834 H 1417.01 -1.07943 -4.91281 0
M  V30 13835 H 1416.71 -2.81855 -5.15588 0
M  V30 13836 H 1418.23 -2.08961 -5.73731 0
M  V30 13837 H 1419.64 -3.82436 -4.27101 0
M  V30 13838 H 1418.04 -4.53715 -3.92763 0
M  V30 13839 H 1419.11 -4.10443 -2.58195 0
M  V30 13840 N 1420.45 0.960609 -1.2494 0
M  V30 13841 C 1421.68 1.7446 -1.12153 0
M  V30 13842 C 1422.1 1.85335 0.321315 0
M  V30 13843 O 1421.46 1.32944 1.23271 0
M  V30 13844 C 1421.51 3.13945 -1.774 0
M  V30 13845 O 1420.61 3.9882 -1.04958 0
M  V30 13846 H 1419.96 0.536007 -0.391909 0
M  V30 13847 H 1422.49 1.2045 -1.65388 0
M  V30 13848 H 1422.5 3.64434 -1.83444 0
M  V30 13849 H 1421.17 3.05346 -2.82377 0
M  V30 13850 H 1419.75 3.57293 -1.06752 0
M  V30 13851 N 1421.93 1.0643 1.16234 0
M  V30 13852 C 1422.86 0.634274 2.20249 0
M  V30 13853 C 1423.88 -0.308432 1.59852 0
M  V30 13854 O 1425.07 -0.0992067 1.78224 0
M  V30 13855 C 1422.17 -0.0901593 3.3878 0
M  V30 13856 C 1421.34 0.866379 4.28734 0
M  V30 13857 C 1420.4 0.180942 5.25889 0
M  V30 13858 O 1419.42 0.819034 5.63277 0
M  V30 13859 N 1420.63 -1.07698 5.70422 0
M  V30 13860 H 1423.39 1.52901 2.57762 0
M  V30 13861 H 1420.95 0.947789 1.31258 0
M  V30 13862 H 1422.94 -0.559147 4.00819 0
M  V30 13863 H 1421.51 -0.886715 2.9976 0
M  V30 13864 H 1420.73 1.51471 3.63937 0
M  V30 13865 H 1422.02 1.51524 4.85714 0
M  V30 13866 H 1421.42 -1.6155 5.42142 0
M  V30 13867 H 1419.98 -1.48981 6.34545 0
M  V30 13868 N 1423.41 -1.329 0.847073 0
M  V30 13869 C 1424.37 -2.27341 0.291324 0
M  V30 13870 C 1425.37 -1.51295 -0.544653 0
M  V30 13871 O 1426.56 -1.70497 -0.357258 0
M  V30 13872 C 1423.7 -3.35779 -0.588668 0
M  V30 13873 H 1424.89 -2.78009 1.12477 0
M  V30 13874 H 1422.44 -1.43442 0.620803 0
M  V30 13875 H 1423.18 -2.90366 -1.44423 0
M  V30 13876 H 1422.96 -3.92099 0.00960515 0
M  V30 13877 H 1424.45 -4.06166 -0.970526 0
M  V30 13878 N 1424.89 -0.604284 -1.45555 0
M  V30 13879 C 1425.85 0.106526 -2.28952 0
M  V30 13880 C 1426.85 0.798277 -1.39586 0
M  V30 13881 O 1428.04 0.646943 -1.61741 0
M  V30 13882 C 1425.17 1.16091 -3.20524 0
M  V30 13883 H 1426.37 -0.626655 -2.9328 0
M  V30 13884 H 1423.92 -0.363183 -1.52022 0
M  V30 13885 H 1424.65 1.92496 -2.6099 0
M  V30 13886 H 1424.44 0.669137 -3.86348 0
M  V30 13887 H 1425.93 1.65882 -3.8324 0
M  V30 13888 N 1426.37 1.53816 -0.343257 0
M  V30 13889 C 1427.33 2.23654 0.501161 0
M  V30 13890 C 1428.33 1.23664 1.02781 0
M  V30 13891 O 1429.52 1.48104 0.917103 0
M  V30 13892 C 1426.65 2.95596 1.69812 0
M  V30 13893 H 1427.84 2.997 -0.109626 0
M  V30 13894 H 1425.4 1.56013 -0.0946011 0
M  V30 13895 H 1426.13 2.23736 2.34761 0
M  V30 13896 H 1425.92 3.68938 1.32768 0
M  V30 13897 H 1427.41 3.48748 2.29706 0
M  V30 13898 N 1427.84 0.0718701 1.57436 0
M  V30 13899 C 1429.07 -0.609701 1.98236 0
M  V30 13900 C 1429.49 -1.6235 0.949959 0
M  V30 13901 O 1428.85 -1.81103 -0.0844281 0
M  V30 13902 C 1428.9 -1.2547 3.38068 0
M  V30 13903 O 1428 -2.37055 3.37459 0
M  V30 13904 H 1427.35 -0.15679 0.645223 0
M  V30 13905 H 1429.88 0.146407 2.04076 0
M  V30 13906 H 1429.89 -1.60152 3.75254 0
M  V30 13907 H 1428.56 -0.511842 4.12738 0
M  V30 13908 H 1427.14 -2.04165 3.12043 0
M  V30 13909 N 1429.32 -1.56304 -0.201686 0
M  V30 13910 C 1430.57 -1.79433 -0.921241 0
M  V30 13911 C 1430.88 -0.643943 -1.84696 0
M  V30 13912 O 1432.09 -0.759359 -2.60665 0
M  V30 13913 C 1430.55 -3.17835 -1.68846 0
M  V30 13914 C 1430.15 -4.40655 -0.807892 0
M  V30 13915 C 1431.9 -3.50277 -2.39805 0
M  V30 13916 C 1429.81 -5.7008 -1.5736 0
M  V30 13917 H 1428.74 -0.669029 -0.34773 0
M  V30 13918 H 1431.39 -1.82667 -0.174657 0
M  V30 13919 H 1429.77 -3.08832 -2.47869 0
M  V30 13920 H 1430.94 -4.60765 -0.0567923 0
M  V30 13921 H 1429.26 -4.15873 -0.209465 0
M  V30 13922 H 1431.85 -4.44207 -2.97631 0
M  V30 13923 H 1432.2 -2.7371 -3.1367 0
M  V30 13924 H 1432.73 -3.60698 -1.67754 0
M  V30 13925 H 1429.47 -6.49595 -0.877855 0
M  V30 13926 H 1428.99 -5.53999 -2.2988 0
M  V30 13927 H 1430.67 -6.10964 -2.12912 0
M  V30 13928 N 1430.8 0.469154 -1.50455 0
M  V30 13929 C 1432.08 1.23033 -1.5206 0
M  V30 13930 C 1432.46 2.09412 -0.266388 0
M  V30 13931 O 1431.81 2.15837 0.750099 0
M  V30 13932 C 1432.02 2.05969 -2.81741 0
M  V30 13933 C 1433.36 2.64093 -3.32476 0
M  V30 13934 O 1434.39 2.1621 -2.83075 0
M  V30 13935 O 1433.25 3.51341 -4.18595 0
M  V30 13936 H 1430.34 0.55841 -0.610006 0
M  V30 13937 H 1432.89 0.480818 -1.62746 0
M  V30 13938 H 1431.66 1.42327 -3.64498 0
M  V30 13939 H 1431.28 2.8805 -2.74067 0
M  V30 13940 N 1432.28 1.40065 0.722464 0
M  V30 13941 C 1433.23 1.39947 1.85789 0
M  V30 13942 C 1434.22 0.28089 1.67055 0
M  V30 13943 O 1435.43 0.451575 1.74244 0
M  V30 13944 H 1431.8 0.437296 0.611781 0
M  V30 13945 H 1433.77 2.35695 1.83004 0
M  V30 13946 C 1432.52 1.27218 3.2359 0
M  V30 13947 H 1431.84 2.12566 3.38609 0
M  V30 13948 H 1433.28 1.31194 4.03192 0
M  V30 13949 C 1431.74 -0.0182466 3.36895 0
M  V30 13950 O 1432.27 -0.983761 3.89468 0
M  V30 13951 N 1430.48 -0.0854707 2.90474 0
M  V30 13952 H 1430.03 0.700953 2.4788 0
M  V30 13953 H 1429.98 -0.948367 2.99755 0
M  V30 13954 N 1433.76 -0.95397 1.25448 0
M  V30 13955 C 1435.17 -1.22516 1.02284 0
M  V30 13956 C 1435.37 -1.99816 -0.259933 0
M  V30 13957 O 1434.43 -2.33022 -0.972479 0
M  V30 13958 C 1435.74 -1.9989 2.24643 0
M  V30 13959 C 1437.29 -2.1293 2.29412 0
M  V30 13960 C 1437.77 -2.93703 3.51429 0
M  V30 13961 N 1439.26 -3.01281 3.51829 0
M  V30 13962 C 1439.99 -3.64174 4.42905 0
M  V30 13963 N 1439.49 -4.28673 5.44253 0
M  V30 13964 N 1441.28 -3.61321 4.30585 0
M  V30 13965 H 1433.43 -0.436859 2.07859 0
M  V30 13966 H 1435.69 -0.255744 0.912852 0
M  V30 13967 H 1435.4 -1.50489 3.17877 0
M  V30 13968 H 1435.27 -3.00593 2.27868 0
M  V30 13969 H 1437.66 -2.61528 1.367 0
M  V30 13970 H 1437.74 -1.1153 2.30206 0
M  V30 13971 H 1437.39 -2.45795 4.44463 0
M  V30 13972 H 1437.32 -3.95331 3.47881 0
M  V30 13973 H 1439.81 -2.55414 2.78517 0
M  V30 13974 H 1440.12 -4.74522 6.09958 0
M  V30 13975 H 1438.47 -4.27299 5.48125 0
M  V30 13976 H 1441.66 -3.10118 3.50634 0
M  V30 13977 H 1441.83 -4.1005 5.0176 0
M  V30 13978 N 1435.24 -1.07045 -1.15668 0
M  V30 13979 C 1436.48 -0.792908 -1.86657 0
M  V30 13980 C 1436.81 0.679213 -1.81935 0
M  V30 13981 O 1436.09 1.49822 -1.2403 0
M  V30 13982 C 1436.37 -1.2978 -3.35901 0
M  V30 13983 C 1436.23 -2.83424 -3.49272 0
M  V30 13984 C 1437.54 -0.911821 -4.30551 0
M  V30 13985 H 1434.66 -0.289509 -0.677756 0
M  V30 13986 H 1437.31 -1.32769 -1.35913 0
M  V30 13987 H 1435.46 -0.84288 -3.79246 0
M  V30 13988 H 1437.13 -3.37182 -3.14811 0
M  V30 13989 H 1435.37 -3.21777 -2.90933 0
M  V30 13990 H 1436.04 -3.13819 -4.54116 0
M  V30 13991 H 1438.52 -1.30376 -3.95147 0
M  V30 13992 H 1437.39 -1.29247 -5.33467 0
M  V30 13993 H 1437.65 0.18255 -4.41723 0
M  V30 13994 N 1436.71 1.32449 -0.85411 0
M  V30 13995 C 1438.12 1.79545 -0.511923 0
M  V30 13996 C 1438.48 1.70534 0.970188 0
M  V30 13997 O 1437.6 1.2636 1.75676 0
M  V30 13998 C 1438.2 3.26 -0.922456 0
M  V30 13999 C 1436.75 3.71053 -0.632176 0
M  V30 14000 C 1435.9 2.53565 -1.12249 0
M  V30 14001 H 1438.85 1.19755 -1.04137 0
M  V30 14002 H 1438.87 3.79751 -0.238618 0
M  V30 14003 H 1438.39 3.32526 -2.00119 0
M  V30 14004 H 1436.49 3.70042 0.435862 0
M  V30 14005 H 1436.6 4.63878 -1.19809 0
M  V30 14006 H 1434.96 2.48849 -0.542781 0
M  V30 14007 H 1435.75 2.62846 -2.20832 0
M  V30 14008 N 1438.19 0.611994 1.45232 0
M  V30 14009 C 1439.42 0.115409 2.06578 0
M  V30 14010 C 1439.83 -1.20206 1.45588 0
M  V30 14011 O 1439.19 -1.73315 0.571668 0
M  V30 14012 C 1439.24 -0.0259943 3.61491 0
M  V30 14013 O 1438.96 1.23936 4.20204 0
M  V30 14014 C 1440.46 -0.553522 4.39831 0
M  V30 14015 H 1437.68 0.0708656 0.667247 0
M  V30 14016 H 1440.23 0.840977 1.86408 0
M  V30 14017 H 1438.38 -0.701909 3.80988 0
M  V30 14018 H 1438.8 1.07187 5.13431 0
M  V30 14019 H 1440.27 -0.601536 5.48713 0
M  V30 14020 H 1440.75 -1.57671 4.09923 0
M  V30 14021 H 1441.35 0.0884954 4.25208 0
M  V30 14022 N 1439.67 -1.53632 0.351409 0
M  V30 14023 C 1441.08 -1.86241 -0.130834 0
M  V30 14024 C 1441.43 -1.27243 -1.49344 0
M  V30 14025 O 1440.56 -0.589006 -2.0823 0
M  V30 14026 C 1441.15 -3.37919 -0.244179 0
M  V30 14027 C 1439.71 -3.70377 -0.670662 0
M  V30 14028 C 1438.86 -2.76643 0.190813 0
M  V30 14029 H 1441.81 -1.48083 0.570724 0
M  V30 14030 H 1441.83 -3.65137 -1.07029 0
M  V30 14031 H 1441.34 -3.8083 0.747688 0
M  V30 14032 H 1439.44 -3.33015 -1.67127 0
M  V30 14033 H 1439.56 -4.76934 -0.455102 0
M  V30 14034 H 1437.92 -2.52446 -0.338092 0
M  V30 14035 H 1438.7 -3.22385 1.17996 0
M  V30 14036 N 1441.15 -0.0802183 -1.57396 0
M  V30 14037 C 1442.37 0.599179 -1.98556 0
M  V30 14038 C 1442.8 1.61844 -0.958555 0
M  V30 14039 O 1442.16 1.81146 0.0748226 0
M  V30 14040 C 1442.2 1.23675 -3.38728 0
M  V30 14041 O 1441.31 2.35262 -3.38712 0
M  V30 14042 H 1440.65 0.153366 -0.646045 0
M  V30 14043 H 1443.18 -0.157227 -2.03995 0
M  V30 14044 H 1443.19 1.5816 -3.76098 0
M  V30 14045 H 1441.86 0.489946 -4.13004 0
M  V30 14046 H 1440.44 2.02507 -3.13122 0
M  V30 14047 N 1442.63 1.56409 0.193394 0
M  V30 14048 C 1443.85 1.8519 0.933775 0
M  V30 14049 C 1444.28 0.663991 1.75991 0
M  V30 14050 O 1443.63 -0.387198 1.77117 0
M  V30 14051 C 1443.68 3.12212 1.80432 0
M  V30 14052 O 1442.79 2.92884 2.90332 0
M  V30 14053 H 1442.13 0.609754 0.262862 0
M  V30 14054 H 1444.66 2.03638 0.198195 0
M  V30 14055 H 1444.67 3.4305 2.20864 0
M  V30 14056 H 1443.34 3.98292 1.19733 0
M  V30 14057 H 1441.92 2.73349 2.53643 0
M  V30 14058 N 1444.1 -0.461169 1.50702 0
M  V30 14059 C 1445.35 -1.21431 1.62427 0
M  V30 14060 C 1445.68 -1.91406 0.328228 0
M  V30 14061 O 1444.96 -1.82563 -0.670898 0
M  V30 14062 C 1445.24 -2.25016 2.8114 0
M  V30 14063 C 1445.09 -1.5928 4.20654 0
M  V30 14064 C 1446.41 -3.26234 2.95397 0
M  V30 14065 H 1443.53 -0.440113 0.59116 0
M  V30 14066 H 1446.17 -0.506726 1.83118 0
M  V30 14067 H 1444.32 -2.85363 2.63629 0
M  V30 14068 H 1446 -1.02454 4.49779 0
M  V30 14069 H 1444.24 -0.895665 4.24453 0
M  V30 14070 H 1444.91 -2.34602 4.99666 0
M  V30 14071 H 1447.39 -2.7592 3.1146 0
M  V30 14072 H 1446.26 -3.96031 3.80067 0
M  V30 14073 H 1446.52 -3.90943 2.06436 0
M  V30 14074 N 1445.58 -1.40446 -0.715026 0
M  V30 14075 C 1446.54 -1.40506 -1.81082 0
M  V30 14076 C 1447.54 -0.298768 -1.58 0
M  V30 14077 O 1448.73 -0.5577 -1.65031 0
M  V30 14078 C 1445.87 -1.19735 -3.19181 0
M  V30 14079 H 1447.06 -2.38034 -1.82427 0
M  V30 14080 H 1444.61 -1.26303 -0.920718 0
M  V30 14081 H 1445.35 -0.229695 -3.23486 0
M  V30 14082 H 1445.13 -1.99871 -3.37334 0
M  V30 14083 H 1446.62 -1.22566 -3.99208 0
M  V30 14084 N 1447.06 0.947303 -1.25952 0
M  V30 14085 C 1448.28 1.73261 -1.13997 0
M  V30 14086 C 1448.71 1.85666 0.301639 0
M  V30 14087 O 1448.07 1.34244 1.21854 0
M  V30 14088 C 1448.12 3.12046 -1.8072 0
M  V30 14089 O 1447.22 3.97684 -1.09182 0
M  V30 14090 H 1446.56 0.53182 -0.397572 0
M  V30 14091 H 1449.09 1.18689 -1.66656 0
M  V30 14092 H 1449.1 3.62468 -1.87299 0
M  V30 14093 H 1447.78 3.02334 -2.856 0
M  V30 14094 H 1446.35 3.56141 -1.10536 0
M  V30 14095 N 1448.54 1.07657 1.15099 0
M  V30 14096 C 1449.5 0.703558 2.18135 0
M  V30 14097 C 1450.5 -0.257771 1.5872 0
M  V30 14098 O 1451.69 -0.0383211 1.74158 0
M  V30 14099 C 1448.82 0.0374978 3.40879 0
M  V30 14100 H 1450.02 1.61583 2.52648 0
M  V30 14101 H 1447.57 0.873484 1.29615 0
M  V30 14102 H 1448.3 -0.886868 3.11938 0
M  V30 14103 H 1448.09 0.728961 3.85264 0
M  V30 14104 H 1449.58 -0.208714 4.17078 0
M  V30 14105 N 1450.02 -1.31994 0.861122 0
M  V30 14106 C 1450.93 -2.32495 0.313555 0
M  V30 14107 C 1451.94 -1.64331 -0.571966 0
M  V30 14108 O 1453.12 -1.9582 -0.470794 0
M  V30 14109 C 1450.18 -3.43311 -0.483603 0
M  V30 14110 C 1449.24 -4.27153 0.428825 0
M  V30 14111 C 1448.48 -5.32676 -0.330383 0
M  V30 14112 O 1448.7 -5.48665 -1.55957 0
M  V30 14113 O 1447.63 -6.01116 0.307174 0
M  V30 14114 H 1451.46 -2.81234 1.14636 0
M  V30 14115 H 1449.05 -1.35734 0.624239 0
M  V30 14116 H 1450.93 -4.10877 -0.935831 0
M  V30 14117 H 1449.6 -2.9675 -1.2931 0
M  V30 14118 H 1448.51 -3.62372 0.929366 0
M  V30 14119 H 1449.84 -4.77255 1.20368 0
M  V30 14120 N 1451.49 -0.619688 -1.44906 0
M  V30 14121 C 1452.72 -0.126363 -2.06514 0
M  V30 14122 C 1453.14 1.19432 -1.46224 0
M  V30 14123 O 1452.49 1.7301 -0.580851 0
M  V30 14124 C 1452.55 0.00682319 -3.61499 0
M  V30 14125 O 1452.27 -1.26162 -4.19541 0
M  V30 14126 C 1453.77 0.530189 -4.40118 0
M  V30 14127 H 1450.99 -0.0744032 -0.666862 0
M  V30 14128 H 1453.53 -0.850851 -1.85959 0
M  V30 14129 H 1451.69 0.681694 -3.81355 0
M  V30 14130 H 1452.1 -1.09908 -5.12855 0
M  V30 14131 H 1453.57 0.572428 -5.49024 0
M  V30 14132 H 1454.05 1.55494 -4.10753 0
M  V30 14133 H 1454.66 -0.111044 -4.25155 0
M  V30 14134 N 1452.97 1.53444 -0.359552 0
M  V30 14135 C 1453.92 2.27053 0.504949 0
M  V30 14136 C 1454.91 1.29801 1.08849 0
M  V30 14137 O 1456.12 1.47451 1.03239 0
M  V30 14138 H 1452.5 0.729756 0.181549 0
M  V30 14139 H 1454.47 2.98082 -0.137719 0
M  V30 14140 C 1453.22 3.06815 1.63585 0
M  V30 14141 H 1452.54 3.81488 1.19611 0
M  V30 14142 H 1453.98 3.61508 2.21558 0
M  V30 14143 C 1452.44 2.17286 2.57466 0
M  V30 14144 O 1452.97 1.77961 3.60129 0
M  V30 14145 N 1451.17 1.82041 2.26516 0
M  V30 14146 H 1450.72 2.14218 1.43068 0
M  V30 14147 H 1450.68 1.22423 2.89586 0
M  V30 14148 N 1454.45 0.0885642 1.57351 0
M  V30 14149 C 1455.68 -0.588641 1.98871 0
M  V30 14150 C 1456.1 -1.61333 0.967125 0
M  V30 14151 O 1455.46 -1.81183 -0.0652149 0
M  V30 14152 C 1455.51 -1.21877 3.39379 0
M  V30 14153 O 1454.61 -2.33462 3.39955 0
M  V30 14154 H 1453.95 -0.149938 0.64685 0
M  V30 14155 H 1456.48 0.168043 2.03909 0
M  V30 14156 H 1456.49 -1.56163 3.76931 0
M  V30 14157 H 1455.17 -0.468037 4.13258 0
M  V30 14158 H 1453.74 -2.00844 3.14191 0
M  V30 14159 N 1455.93 -1.56509 -0.185096 0
M  V30 14160 C 1456.86 -1.91878 -1.25361 0
M  V30 14161 C 1457.87 -0.810443 -1.41194 0
M  V30 14162 O 1459.06 -1.08887 -1.41442 0
M  V30 14163 C 1456.16 -2.14433 -2.62434 0
M  V30 14164 C 1455.34 -3.45618 -2.6808 0
M  V30 14165 C 1454.39 -3.57165 -3.86419 0
M  V30 14166 O 1453.42 -4.29904 -3.73056 0
M  V30 14167 N 1454.62 -2.90993 -5.02298 0
M  V30 14168 H 1457.39 -2.84133 -0.953328 0
M  V30 14169 H 1454.95 -1.57498 -0.374955 0
M  V30 14170 H 1456.94 -2.19437 -3.40044 0
M  V30 14171 H 1455.51 -1.28629 -2.84909 0
M  V30 14172 H 1454.73 -3.52394 -1.76669 0
M  V30 14173 H 1456.02 -4.31968 -2.68851 0
M  V30 14174 H 1455.42 -2.31743 -5.16054 0
M  V30 14175 H 1453.97 -3.01611 -5.77819 0
M  V30 14176 N 1457.41 0.45317 -1.50944 0
M  V30 14177 C 1458.34 1.56678 -1.67287 0
M  V30 14178 C 1459.35 1.53089 -0.553853 0
M  V30 14179 O 1460.54 1.58152 -0.827653 0
M  V30 14180 C 1457.64 2.95585 -1.65779 0
M  V30 14181 C 1456.81 3.2385 -2.94007 0
M  V30 14182 C 1455.87 4.42401 -2.84899 0
M  V30 14183 O 1454.9 4.4183 -3.58853 0
M  V30 14184 N 1456.1 5.4508 -1.99671 0
M  V30 14185 H 1458.87 1.43069 -2.63347 0
M  V30 14186 H 1456.43 0.641875 -1.48632 0
M  V30 14187 H 1458.42 3.7289 -1.57275 0
M  V30 14188 H 1456.99 3.02872 -0.773791 0
M  V30 14189 H 1456.21 2.34991 -3.16501 0
M  V30 14190 H 1457.5 3.39554 -3.7892 0
M  V30 14191 H 1456.89 5.48374 -1.38933 0
M  V30 14192 H 1455.45 6.21298 -1.97057 0
M  V30 14193 N 1458.88 1.40823 0.707568 0
M  V30 14194 C 1460.3 1.35249 1.28704 0
M  V30 14195 C 1460.65 0.0298026 1.96177 0
M  V30 14196 O 1459.77 -0.872126 1.98048 0
M  V30 14197 C 1460.37 2.44965 2.34046 0
M  V30 14198 C 1458.93 2.42826 2.87598 0
M  V30 14199 C 1458.07 2.25429 1.61483 0
M  V30 14200 H 1461.02 1.50513 0.503141 0
M  V30 14201 H 1461.04 2.13334 3.1507 0
M  V30 14202 H 1460.56 3.41219 1.84908 0
M  V30 14203 H 1458.66 1.50294 3.40944 0
M  V30 14204 H 1458.77 3.38704 3.38845 0
M  V30 14205 H 1457.13 1.73089 1.86848 0
M  V30 14206 H 1457.92 3.23693 1.14359 0
M  V30 14207 N 1460.36 -0.94061 1.26453 0
M  V30 14208 C 1461.61 -1.68354 1.11809 0
M  V30 14209 C 1461.93 -1.9203 -0.339037 0
M  V30 14210 O 1461.2 -1.51739 -1.23903 0
M  V30 14211 H 1459.78 -0.623916 0.410777 0
M  V30 14212 H 1462.44 -1.13014 1.58789 0
M  V30 14213 H 1461.54 -2.65706 1.63728 0
M  V30 14214 N 1461.84 -1.08266 -1.14527 0
M  V30 14215 C 1463.25 -0.832702 -1.67102 0
M  V30 14216 C 1463.6 0.640776 -1.85441 0
M  V30 14217 O 1462.73 1.49505 -1.56452 0
M  V30 14218 C 1463.32 -1.50502 -3.03537 0
M  V30 14219 C 1461.88 -1.30234 -3.53152 0
M  V30 14220 C 1461.03 -1.56873 -2.28661 0
M  V30 14221 H 1463.98 -1.24344 -0.986118 0
M  V30 14222 H 1464 -0.931426 -3.68924 0
M  V30 14223 H 1463.51 -2.57741 -2.90157 0
M  V30 14224 H 1461.61 -0.250582 -3.71756 0
M  V30 14225 H 1461.73 -2.02898 -4.34015 0
M  V30 14226 H 1460.09 -0.990214 -2.34663 0
M  V30 14227 H 1460.87 -2.65316 -2.17859 0
M  V30 14228 N 1463.32 1.31536 -0.86811 0
M  V30 14229 C 1464.6 1.9149 -0.398866 0
M  V30 14230 C 1464.98 1.79008 1.1189 0
M  V30 14231 O 1464.32 1.19659 1.94664 0
M  V30 14232 C 1464.53 3.37771 -0.878173 0
M  V30 14233 C 1465.88 4.14882 -0.903216 0
M  V30 14234 O 1466.91 3.46545 -0.823703 0
M  V30 14235 O 1465.77 5.36936 -1.01794 0
M  V30 14236 H 1462.86 0.818398 -0.118971 0
M  V30 14237 H 1465.41 1.40216 -0.955899 0
M  V30 14238 H 1464.18 3.40861 -1.9217 0
M  V30 14239 H 1463.8 3.96472 -0.299346 0
M  V30 14240 N 1464.8 0.627364 1.44575 0
M  V30 14241 C 1466.04 0.130545 2.02379 0
M  V30 14242 C 1466.38 -1.24301 1.49208 0
M  V30 14243 O 1465.65 -1.82425 0.674626 0
M  V30 14244 C 1465.93 0.11311 3.59922 0
M  V30 14245 C 1465.79 1.51874 4.23385 0
M  V30 14246 C 1467.11 -0.564341 4.36467 0
M  V30 14247 H 1464.23 0.0489125 0.735375 0
M  V30 14248 H 1466.87 0.803118 1.72192 0
M  V30 14249 H 1465.02 -0.459621 3.85772 0
M  V30 14250 H 1466.69 2.14007 4.08655 0
M  V30 14251 H 1464.93 2.07371 3.81024 0
M  V30 14252 H 1465.6 1.4586 5.3238 0
M  V30 14253 H 1468.08 -0.0773244 4.16028 0
M  V30 14254 H 1466.96 -0.545715 5.46181 0
M  V30 14255 H 1467.22 -1.63403 4.10794 0
M  V30 14256 N 1466.28 -1.53251 0.367684 0
M  V30 14257 C 1467.69 -1.86369 -0.111073 0
M  V30 14258 C 1468.04 -1.2882 -1.47986 0
M  V30 14259 O 1467.16 -0.611058 -2.07593 0
M  V30 14260 C 1467.76 -3.38159 -0.208325 0
M  V30 14261 C 1466.32 -3.71067 -0.63134 0
M  V30 14262 C 1465.46 -2.76425 0.220144 0
M  V30 14263 H 1468.41 -1.47469 0.586398 0
M  V30 14264 H 1468.44 -3.66252 -1.03151 0
M  V30 14265 H 1467.95 -3.80015 0.788038 0
M  V30 14266 H 1466.05 -3.34769 -1.63586 0
M  V30 14267 H 1466.16 -4.77389 -0.404491 0
M  V30 14268 H 1464.53 -2.5279 -0.311298 0
M  V30 14269 H 1465.31 -3.21115 1.21409 0
M  V30 14270 N 1467.75 -0.0969077 -1.57302 0
M  V30 14271 C 1469 0.567212 -1.94706 0
M  V30 14272 C 1469.33 1.67721 -0.978937 0
M  V30 14273 O 1468.61 1.94496 -0.0123016 0
M  V30 14274 C 1468.89 1.12069 -3.42217 0
M  V30 14275 C 1468.74 0.015615 -4.49797 0
M  V30 14276 C 1470.06 2.0185 -3.91081 0
M  V30 14277 H 1467.18 0.204716 -0.707997 0
M  V30 14278 H 1469.82 -0.167984 -1.89256 0
M  V30 14279 H 1467.97 1.74723 -3.46993 0
M  V30 14280 H 1469.65 -0.61871 -4.57132 0
M  V30 14281 H 1467.89 -0.650529 -4.28895 0
M  V30 14282 H 1468.56 0.443724 -5.50214 0
M  V30 14283 H 1471.04 1.49098 -3.8847 0
M  V30 14284 H 1469.91 2.37502 -4.94858 0
M  V30 14285 H 1470.17 2.93659 -3.3048 0
M  V30 14286 N 1469.23 1.56605 0.176793 0
M  V30 14287 C 1470.16 1.99014 1.2213 0
M  V30 14288 C 1471.14 0.86487 1.46472 0
M  V30 14289 O 1472.33 1.13055 1.57899 0
M  V30 14290 C 1469.46 2.34534 2.56146 0
M  V30 14291 C 1468.41 3.4997 2.46384 0
M  V30 14292 C 1467.74 3.71217 3.8484 0
M  V30 14293 C 1469.04 4.83592 1.97323 0
M  V30 14294 H 1470.73 2.86517 0.8688 0
M  V30 14295 H 1468.28 1.37846 0.416481 0
M  V30 14296 H 1470.23 2.62799 3.29416 0
M  V30 14297 H 1468.95 1.43933 2.93174 0
M  V30 14298 H 1467.61 3.21824 1.75569 0
M  V30 14299 H 1467.26 2.77916 4.19251 0
M  V30 14300 H 1466.96 4.48885 3.79178 0
M  V30 14301 H 1468.49 4.01877 4.59704 0
M  V30 14302 H 1469.9 5.10768 2.60363 0
M  V30 14303 H 1468.3 5.64858 2.02622 0
M  V30 14304 H 1469.37 4.75951 0.927275 0
M  V30 14305 N 1470.71 -0.445159 1.51182 0
M  V30 14306 C 1471.62 -1.5651 1.74762 0
M  V30 14307 C 1472.64 -1.62134 0.631542 0
M  V30 14308 O 1473.81 -1.79522 0.912898 0
M  V30 14309 C 1470.88 -2.92552 1.86049 0
M  V30 14310 C 1469.94 -2.97108 3.0988 0
M  V30 14311 C 1469.17 -4.2666 3.2062 0
M  V30 14312 O 1469.39 -5.18608 2.37491 0
M  V30 14313 O 1468.33 -4.3734 4.13542 0
M  V30 14314 H 1472.15 -1.3953 2.6975 0
M  V30 14315 H 1469.74 -0.627363 1.3559 0
M  V30 14316 H 1471.62 -3.73304 1.95504 0
M  V30 14317 H 1470.3 -3.09676 0.94248 0
M  V30 14318 H 1469.2 -2.15338 3.05909 0
M  V30 14319 H 1470.54 -2.84927 4.01345 0
M  V30 14320 N 1472.19 -1.41197 -0.700089 0
M  V30 14321 C 1473.12 -1.37101 -1.82424 0
M  V30 14322 C 1474.1 -0.238956 -1.60835 0
M  V30 14323 O 1475.28 -0.425136 -1.83643 0
M  V30 14324 C 1472.41 -1.13748 -3.19028 0
M  V30 14325 C 1471.46 -2.29612 -3.59417 0
M  V30 14326 S 1472.29 -3.92074 -3.64744 0
M  V30 14327 C 1473.44 -3.71015 -5.04082 0
M  V30 14328 H 1473.68 -2.32234 -1.8562 0
M  V30 14329 H 1471.21 -1.27667 -0.868367 0
M  V30 14330 H 1473.17 -1.0096 -3.97891 0
M  V30 14331 H 1471.83 -0.202435 -3.13447 0
M  V30 14332 H 1471.02 -2.08954 -4.58644 0
M  V30 14333 H 1470.62 -2.38783 -2.87851 0
M  V30 14334 H 1472.92 -3.30441 -5.91452 0
M  V30 14335 H 1473.86 -4.69828 -5.29781 0
M  V30 14336 H 1474.27 -3.04382 -4.75407 0
M  V30 14337 N 1473.67 0.933891 -1.2695 0
M  V30 14338 C 1474.61 2.03365 -1.09139 0
M  V30 14339 C 1475.58 1.66099 0.00573029 0
M  V30 14340 O 1476.77 1.90166 -0.155425 0
M  V30 14341 C 1473.91 3.37114 -0.738117 0
M  V30 14342 C 1473.02 3.87372 -1.91224 0
M  V30 14343 C 1472.16 5.0954 -1.50141 0
M  V30 14344 C 1471.19 5.52079 -2.64339 0
M  V30 14345 N 1470.33 6.65446 -2.23887 0
M  V30 14346 H 1475.17 2.17932 -2.03248 0
M  V30 14347 H 1472.71 1.0677 -1.01186 0
M  V30 14348 H 1474.67 4.1402 -0.514141 0
M  V30 14349 H 1473.3 3.22373 0.166007 0
M  V30 14350 H 1472.35 3.06801 -2.24894 0
M  V30 14351 H 1473.66 4.14875 -2.76912 0
M  V30 14352 H 1472.81 5.93928 -1.23831 0
M  V30 14353 H 1471.55 4.838 -0.615539 0
M  V30 14354 H 1470.56 4.66244 -2.9137 0
M  V30 14355 H 1471.78 5.79817 -3.53537 0
M  V30 14356 H 1469.73 6.41376 -1.37744 0
M  V30 14357 H 1469.65 6.92573 -3.03116 0
M  V30 14358 H 1470.91 7.53191 -2.00809 0
M  V30 14359 N 1475.14 1.08871 1.13951 0
M  V30 14360 C 1476.37 0.842913 1.88951 0
M  V30 14361 C 1476.79 -0.605348 1.78832 0
M  V30 14362 O 1476.14 -1.41631 1.15095 0
M  V30 14363 C 1476.19 1.26198 3.38757 0
M  V30 14364 O 1475.92 2.65344 3.48603 0
M  V30 14365 C 1477.42 1.04773 4.30741 0
M  V30 14366 H 1474.64 0.303651 0.598362 0
M  V30 14367 H 1477.18 1.44922 1.44284 0
M  V30 14368 H 1475.34 0.699682 3.81029 0
M  V30 14369 H 1475.75 2.82863 4.41688 0
M  V30 14370 H 1477.22 1.39029 5.34205 0
M  V30 14371 H 1477.7 -0.0149046 4.39197 0
M  V30 14372 H 1478.31 1.5957 3.9423 0
M  V30 14373 N 1476.62 -1.31073 0.875073 0
M  V30 14374 C 1477.53 -2.3215 0.338196 0
M  V30 14375 C 1478.55 -1.64928 -0.554504 0
M  V30 14376 O 1479.72 -1.96308 -0.449998 0
M  V30 14377 C 1476.79 -3.43804 -0.447163 0
M  V30 14378 C 1475.85 -4.26674 0.474106 0
M  V30 14379 C 1475.08 -5.32997 -0.273867 0
M  V30 14380 O 1475.31 -5.50288 -1.50129 0
M  V30 14381 O 1474.24 -6.00756 0.370913 0
M  V30 14382 H 1478.07 -2.80002 1.17612 0
M  V30 14383 H 1475.65 -1.35064 0.6386 0
M  V30 14384 H 1477.53 -4.11847 -0.892199 0
M  V30 14385 H 1476.21 -2.98105 -1.26155 0
M  V30 14386 H 1475.11 -3.61366 0.967748 0
M  V30 14387 H 1476.45 -4.75952 1.25423 0
M  V30 14388 N 1478.1 -0.635022 -1.4424 0
M  V30 14389 C 1479.33 -0.14826 -2.06368 0
M  V30 14390 C 1479.74 1.17875 -1.47482 0
M  V30 14391 O 1479.1 1.72384 -0.599168 0
M  V30 14392 C 1479.15 -0.031519 -3.61486 0
M  V30 14393 O 1478.87 -1.30605 -4.18179 0
M  V30 14394 C 1480.37 0.483479 -4.40656 0
M  V30 14395 H 1477.59 -0.081472 -0.666036 0
M  V30 14396 H 1480.14 -0.870526 -1.85046 0
M  V30 14397 H 1478.29 0.641208 -3.82057 0
M  V30 14398 H 1478.71 -1.15341 -5.11661 0
M  V30 14399 H 1480.18 0.514164 -5.496 0
M  V30 14400 H 1480.66 1.51129 -4.12379 0
M  V30 14401 H 1481.26 -0.156131 -4.25013 0
M  V30 14402 N 1479.58 1.53054 -0.375806 0
M  V30 14403 C 1480.51 2.23664 0.500685 0
M  V30 14404 C 1481.52 1.25432 1.03782 0
M  V30 14405 O 1482.71 1.51592 0.942451 0
M  V30 14406 C 1479.81 2.9288 1.70513 0
M  V30 14407 C 1478.99 4.17706 1.29772 0
M  V30 14408 C 1478.04 4.7004 2.36536 0
M  V30 14409 O 1477.07 5.33466 1.98502 0
M  V30 14410 N 1478.27 4.48732 3.68266 0
M  V30 14411 H 1481.04 2.99519 -0.104201 0
M  V30 14412 H 1478.6 1.60641 -0.201488 0
M  V30 14413 H 1480.59 3.24795 2.41433 0
M  V30 14414 H 1479.16 2.20416 2.21665 0
M  V30 14415 H 1478.38 3.91978 0.41795 0
M  V30 14416 H 1479.67 4.98837 1.00197 0
M  V30 14417 H 1479.07 3.98075 4.01936 0
M  V30 14418 H 1477.62 4.85172 4.3526 0
M  V30 14419 N 1481.06 0.105248 1.57248 0
M  V30 14420 C 1482.02 -0.835589 2.13426 0
M  V30 14421 C 1483.02 -1.20398 1.06587 0
M  V30 14422 O 1484.21 -1.13175 1.32428 0
M  V30 14423 C 1481.34 -2.12806 2.6632 0
M  V30 14424 H 1482.53 -0.347606 2.97879 0
M  V30 14425 H 1480.09 -0.143855 1.55637 0
M  V30 14426 H 1480.82 -2.66066 1.85416 0
M  V30 14427 H 1480.61 -1.87352 3.44444 0
M  V30 14428 H 1482.1 -2.80089 3.09741 0
M  V30 14429 N 1482.53 -1.56697 -0.168486 0
M  V30 14430 C 1483.44 -1.99866 -1.22845 0
M  V30 14431 C 1484.46 -0.910491 -1.48277 0
M  V30 14432 O 1485.64 -1.21834 -1.6037 0
M  V30 14433 C 1482.7 -2.35227 -2.54694 0
M  V30 14434 C 1481.76 -3.57886 -2.37099 0
M  V30 14435 C 1481 -3.91551 -3.62661 0
M  V30 14436 O 1481.22 -3.26148 -4.67957 0
M  V30 14437 O 1480.15 -4.8489 -3.56603 0
M  V30 14438 H 1483.98 -2.90305 -0.892015 0
M  V30 14439 H 1481.56 -1.44602 -0.375571 0
M  V30 14440 H 1483.45 -2.58928 -3.32467 0
M  V30 14441 H 1482.12 -1.4795 -2.87911 0
M  V30 14442 H 1481.03 -3.394 -1.57348 0
M  V30 14443 H 1482.36 -4.45714 -2.08806 0
M  V30 14444 N 1484.01 0.437135 -1.51416 0
M  V30 14445 C 1485.29 1.1978 -1.54636 0
M  V30 14446 C 1485.67 2.088 -0.310747 0
M  V30 14447 O 1485.02 2.1738 0.704148 0
M  V30 14448 C 1485.23 1.99947 -2.86046 0
M  V30 14449 C 1486.58 2.56981 -3.38003 0
M  V30 14450 O 1487.6 2.10157 -2.87598 0
M  V30 14451 O 1486.46 3.42383 -4.25953 0
M  V30 14452 H 1483.55 0.545346 -0.621713 0
M  V30 14453 H 1486.1 0.446189 -1.63729 0
M  V30 14454 H 1484.87 1.34564 -3.67435 0
M  V30 14455 H 1484.49 2.82172 -2.80115 0
M  V30 14456 N 1485.49 1.41566 0.692592 0
M  V30 14457 C 1486.72 1.44445 1.48132 0
M  V30 14458 C 1487.13 0.0505867 1.88732 0
M  V30 14459 O 1486.49 -0.930779 1.5698 0
M  V30 14460 C 1486.54 2.35582 2.74196 0
M  V30 14461 O 1486.26 3.69545 2.35305 0
M  V30 14462 C 1487.76 2.47296 3.67912 0
M  V30 14463 H 1484.98 0.491877 0.456396 0
M  V30 14464 H 1487.53 1.85884 0.852499 0
M  V30 14465 H 1485.68 1.97445 3.33308 0
M  V30 14466 H 1486.1 4.1818 3.16584 0
M  V30 14467 H 1487.57 3.15225 4.53141 0
M  V30 14468 H 1488.05 1.50517 4.12603 0
M  V30 14469 H 1488.65 2.86082 3.14702 0
M  V30 14470 N 1486.97 -0.927146 1.27443 0
M  V30 14471 C 1487.88 -2.06122 1.12031 0
M  V30 14472 C 1488.89 -1.73928 0.0501979 0
M  V30 14473 O 1490.07 -1.99756 0.256796 0
M  V30 14474 C 1487.14 -3.3805 0.769634 0
M  V30 14475 C 1486.2 -3.83938 1.92068 0
M  V30 14476 C 1485.43 -5.0957 1.58664 0
M  V30 14477 O 1485.65 -5.6825 0.494789 0
M  V30 14478 O 1484.59 -5.50844 2.42599 0
M  V30 14479 H 1488.41 -2.22037 2.07203 0
M  V30 14480 H 1486 -1.04638 1.06636 0
M  V30 14481 H 1487.88 -4.17286 0.587423 0
M  V30 14482 H 1486.55 -3.2334 -0.152557 0
M  V30 14483 H 1485.46 -3.05587 2.15795 0
M  V30 14484 H 1486.79 -4.0319 2.8231 0
M  V30 14485 N 1488.45 -1.09474 -1.13372 0
M  V30 14486 C 1489.86 -0.850378 -1.66209 0
M  V30 14487 C 1490.21 0.621071 -1.86111 0
M  V30 14488 O 1489.33 1.47837 -1.58029 0
M  V30 14489 C 1489.93 -1.53713 -3.01924 0
M  V30 14490 C 1488.49 -1.33972 -3.5175 0
M  V30 14491 C 1487.63 -1.5929 -2.26985 0
M  V30 14492 H 1490.59 -1.25383 -0.972874 0
M  V30 14493 H 1490.61 -0.970503 -3.67915 0
M  V30 14494 H 1490.12 -2.60804 -2.87407 0
M  V30 14495 H 1488.22 -0.289998 -3.7147 0
M  V30 14496 H 1488.33 -2.0749 -4.31839 0
M  V30 14497 H 1486.7 -1.01505 -2.336 0
M  V30 14498 H 1487.48 -2.67611 -2.15033 0
M  V30 14499 N 1489.92 1.30607 -0.882012 0
M  V30 14500 C 1491.2 1.91056 -0.419153 0
M  V30 14501 C 1491.58 1.80185 1.09985 0
M  V30 14502 O 1490.93 1.21717 1.93384 0
M  V30 14503 C 1491.14 3.3682 -0.913949 0
M  V30 14504 C 1492.49 4.13901 -0.947169 0
M  V30 14505 O 1493.51 3.45652 -0.860412 0
M  V30 14506 O 1492.37 5.35826 -1.07483 0
M  V30 14507 H 1489.46 0.81709 -0.127645 0
M  V30 14508 H 1492.01 1.39195 -0.970717 0
M  V30 14509 H 1490.78 3.38804 -1.95774 0
M  V30 14510 H 1490.41 3.96132 -0.34138 0
M  V30 14511 N 1491.4 0.642663 1.43901 0
M  V30 14512 C 1492.81 0.232809 1.85243 0
M  V30 14513 C 1493.16 -1.21834 1.53789 0
M  V30 14514 O 1492.29 -1.92855 0.981625 0
M  V30 14515 C 1492.88 0.415749 3.36239 0
M  V30 14516 C 1491.44 0.0603055 3.76352 0
M  V30 14517 C 1490.59 0.723658 2.67691 0
M  V30 14518 H 1493.54 0.847052 1.34204 0
M  V30 14519 H 1493.56 -0.341903 3.78961 0
M  V30 14520 H 1493.07 1.472 3.59101 0
M  V30 14521 H 1491.18 -0.993761 3.59103 0
M  V30 14522 H 1491.29 0.478408 4.76705 0
M  V30 14523 H 1489.65 0.15787 2.5421 0
M  V30 14524 H 1490.44 1.78273 2.93383 0
M  V30 14525 N 1492.88 -1.52852 0.383918 0
M  V30 14526 C 1494.13 -2.01112 -0.199594 0
M  V30 14527 C 1494.45 -1.27237 -1.47769 0
M  V30 14528 O 1493.72 -0.390873 -1.91961 0
M  V30 14529 H 1492.3 -0.743047 -0.0767466 0
M  V30 14530 H 1494.96 -1.8799 0.51437 0
M  V30 14531 H 1494.06 -3.09347 -0.413627 0
M  V30 14532 N 1494.36 -0.113586 -1.5719 0
M  V30 14533 C 1495.27 0.852428 -2.18565 0
M  V30 14534 C 1496.29 1.29668 -1.16026 0
M  V30 14535 O 1497.46 1.36079 -1.48474 0
M  V30 14536 C 1494.53 2.08675 -2.76867 0
M  V30 14537 C 1493.59 1.69493 -3.94424 0
M  V30 14538 C 1492.82 2.87042 -4.49936 0
M  V30 14539 O 1493.04 4.02311 -4.04354 0
M  V30 14540 O 1491.98 2.64439 -5.40699 0
M  V30 14541 H 1495.8 0.360144 -3.01557 0
M  V30 14542 H 1493.39 0.111744 -1.48982 0
M  V30 14543 H 1495.27 2.80976 -3.14054 0
M  V30 14544 H 1493.95 2.5692 -1.9691 0
M  V30 14545 H 1492.85 0.943161 -3.62016 0
M  V30 14546 H 1494.19 1.25995 -4.758 0
M  V30 14547 N 1495.84 1.56784 0.160173 0
M  V30 14548 C 1497.06 1.87129 0.894283 0
M  V30 14549 C 1497.49 0.701172 1.74543 0
M  V30 14550 O 1496.85 -0.349542 1.77899 0
M  V30 14551 C 1496.89 3.15969 1.73769 0
M  V30 14552 O 1496 2.98977 2.84054 0
M  V30 14553 H 1495.34 0.615192 0.249869 0
M  V30 14554 H 1497.87 2.04012 0.154956 0
M  V30 14555 H 1497.88 3.47657 2.13538 0
M  V30 14556 H 1496.55 4.00742 1.11258 0
M  V30 14557 H 1495.13 2.78668 2.47788 0
M  V30 14558 N 1497.32 -0.429099 1.51646 0
M  V30 14559 C 1498.26 -1.52143 1.73554 0
M  V30 14560 C 1499.23 -1.55741 0.577416 0
M  V30 14561 O 1500.42 -1.72623 0.812768 0
M  V30 14562 C 1497.56 -2.89785 1.874 0
M  V30 14563 C 1496.67 -2.95652 3.14982 0
M  V30 14564 C 1495.81 -4.24468 3.19375 0
M  V30 14565 C 1494.84 -4.24234 4.41239 0
M  V30 14566 N 1493.98 -5.44587 4.43135 0
M  V30 14567 H 1498.82 -1.32764 2.66791 0
M  V30 14568 H 1496.36 -0.6448 1.32215 0
M  V30 14569 H 1498.32 -3.6966 1.9341 0
M  V30 14570 H 1496.95 -3.07703 0.975638 0
M  V30 14571 H 1496 -2.0839 3.18242 0
M  V30 14572 H 1497.31 -2.91342 4.04872 0
M  V30 14573 H 1496.46 -5.12722 3.24347 0
M  V30 14574 H 1495.2 -4.31446 2.27389 0
M  V30 14575 H 1494.21 -3.34371 4.36435 0
M  V30 14576 H 1495.43 -4.18913 5.34499 0
M  V30 14577 H 1493.38 -5.52271 3.54023 0
M  V30 14578 H 1493.3 -5.42191 5.26845 0
M  V30 14579 H 1494.56 -6.34851 4.5231 0
M  V30 14580 N 1498.79 -1.41931 -0.685074 0
M  V30 14581 C 1500.04 -1.41571 -1.44229 0
M  V30 14582 C 1500.36 -0.0294445 -1.94978 0
M  V30 14583 O 1499.63 0.930414 -1.72395 0
M  V30 14584 H 1498.21 -0.521138 -0.535186 0
M  V30 14585 H 1500.87 -1.77263 -0.81017 0
M  V30 14586 H 1499.97 -2.10929 -2.30034 0
M  V30 14587 N 1500.27 0.920374 -1.27933 0
M  V30 14588 C 1501.18 2.05525 -1.13123 0
M  V30 14589 C 1502.2 1.73899 -0.059421 0
M  V30 14590 O 1503.37 1.99617 -0.267386 0
M  V30 14591 C 1500.44 3.37637 -0.787551 0
M  V30 14592 C 1499.5 3.82914 -1.94101 0
M  V30 14593 C 1498.73 5.08721 -1.61364 0
M  V30 14594 O 1498.96 5.6798 -0.524918 0
M  V30 14595 O 1497.89 5.4955 -2.45517 0
M  V30 14596 H 1501.72 2.20935 -2.08378 0
M  V30 14597 H 1499.3 1.04071 -1.07189 0
M  V30 14598 H 1501.18 4.16968 -0.609544 0
M  V30 14599 H 1499.86 3.23417 0.135407 0
M  V30 14600 H 1498.76 3.04438 -2.17413 0
M  V30 14601 H 1500.1 4.01687 -2.84444 0
M  V30 14602 N 1501.75 1.10074 1.1279 0
M  V30 14603 C 1503.16 0.859181 1.65756 0
M  V30 14604 C 1503.51 -0.611193 1.86437 0
M  V30 14605 O 1502.64 -1.46997 1.58811 0
M  V30 14606 C 1503.23 1.55312 3.01104 0
M  V30 14607 C 1501.79 1.35836 3.51035 0
M  V30 14608 C 1500.94 1.60491 2.26137 0
M  V30 14609 H 1503.89 1.25897 0.966211 0
M  V30 14610 H 1503.91 0.990001 3.67395 0
M  V30 14611 H 1503.42 2.62325 2.8602 0
M  V30 14612 H 1501.52 0.309694 3.71311 0
M  V30 14613 H 1501.64 2.09777 4.30732 0
M  V30 14614 H 1500 1.02742 2.33058 0
M  V30 14615 H 1500.78 2.68748 2.1361 0
M  V30 14616 N 1503.23 -1.30138 0.888926 0
M  V30 14617 C 1504.64 -1.48552 0.583486 0
M  V30 14618 C 1504.84 -1.81376 -0.877781 0
M  V30 14619 O 1503.9 -1.90374 -1.65873 0
M  V30 14620 C 1505.21 -2.60613 1.50004 0
M  V30 14621 C 1506.76 -2.74493 1.50409 0
M  V30 14622 C 1507.24 -3.89672 2.40666 0
M  V30 14623 N 1508.73 -3.96988 2.38652 0
M  V30 14624 C 1509.46 -4.85429 3.05199 0
M  V30 14625 N 1508.96 -5.78638 3.80985 0
M  V30 14626 N 1510.75 -4.78831 2.9441 0
M  V30 14627 H 1502.9 -1.07105 1.83418 0
M  V30 14628 H 1505.16 -0.530991 0.785336 0
M  V30 14629 H 1504.87 -2.43191 2.54069 0
M  V30 14630 H 1504.74 -3.5718 1.21254 0
M  V30 14631 H 1507.13 -2.91318 0.470933 0
M  V30 14632 H 1507.21 -1.78535 1.83191 0
M  V30 14633 H 1506.86 -3.73603 3.44069 0
M  V30 14634 H 1506.79 -4.84975 2.05198 0
M  V30 14635 H 1509.28 -3.30313 1.83581 0
M  V30 14636 H 1509.59 -6.42894 4.28844 0
M  V30 14637 H 1507.94 -5.78558 3.85092 0
M  V30 14638 H 1511.13 -4.04995 2.34727 0
M  V30 14639 H 1511.3 -5.47547 3.46549 0
M  V30 14640 N 1504.71 -0.650285 -1.43559 0
M  V30 14641 C 1505.93 -0.168483 -2.06715 0
M  V30 14642 C 1506.36 1.15576 -1.48404 0
M  V30 14643 O 1505.71 1.71333 -0.592842 0
M  V30 14644 C 1505.76 -0.0877095 -3.60493 0
M  V30 14645 O 1504.87 0.950915 -4.01287 0
M  V30 14646 H 1504.21 -0.0935281 -0.65738 0
M  V30 14647 H 1506.74 -0.892381 -1.84113 0
M  V30 14648 H 1506.75 0.0965825 -4.07886 0
M  V30 14649 H 1505.42 -1.05442 -4.02312 0
M  V30 14650 H 1504 0.739648 -3.65491 0
M  V30 14651 N 1506.18 1.52647 -0.392018 0
M  V30 14652 C 1507.09 2.30261 0.449093 0
M  V30 14653 C 1508.11 1.37286 1.06905 0
M  V30 14654 O 1509.29 1.70357 1.07427 0
M  V30 14655 C 1506.35 3.09636 1.55969 0
M  V30 14656 C 1505.41 4.18324 0.964566 0
M  V30 14657 C 1504.64 4.93904 2.02224 0
M  V30 14658 O 1504.87 4.69603 3.23773 0
M  V30 14659 O 1503.8 5.79183 1.63802 0
M  V30 14660 H 1507.63 3.03147 -0.183269 0
M  V30 14661 H 1505.21 1.48587 -0.155664 0
M  V30 14662 H 1507.09 3.59118 2.20482 0
M  V30 14663 H 1505.77 2.39561 2.17697 0
M  V30 14664 H 1504.68 3.73031 0.282618 0
M  V30 14665 H 1506.01 4.90641 0.391466 0
M  V30 14666 N 1507.66 0.121921 1.57128 0
M  V30 14667 C 1508.6 -0.864553 2.11189 0
M  V30 14668 C 1509.57 -1.25896 1.02902 0
M  V30 14669 O 1510.76 -1.3595 1.30575 0
M  V30 14670 C 1507.88 -2.15742 2.611 0
M  V30 14671 C 1506.93 -1.91085 3.81299 0
M  V30 14672 S 1507.76 -1.12448 5.23561 0
M  V30 14673 C 1508.92 -2.42908 5.76842 0
M  V30 14674 H 1509.15 -0.404737 2.94532 0
M  V30 14675 H 1506.69 -0.091909 1.54126 0
M  V30 14676 H 1508.64 -2.90024 2.9051 0
M  V30 14677 H 1507.3 -2.58841 1.77933 0
M  V30 14678 H 1506.5 -2.86889 4.1438 0
M  V30 14679 H 1506.1 -1.24922 3.5252 0
M  V30 14680 H 1508.39 -3.38728 5.86745 0
M  V30 14681 H 1509.33 -2.14367 6.74872 0
M  V30 14682 H 1509.74 -2.52409 5.04926 0
M  V30 14683 N 1509.14 -1.56867 -0.151857 0
M  V30 14684 C 1510.07 -1.93039 -1.21701 0
M  V30 14685 C 1511.05 -0.795607 -1.41806 0
M  V30 14686 O 1512.24 -1.05076 -1.56497 0
M  V30 14687 C 1509.36 -2.19822 -2.57674 0
M  V30 14688 C 1508.41 -3.42474 -2.54192 0
M  V30 14689 S 1509.24 -4.96199 -2.01363 0
M  V30 14690 C 1510.4 -5.26098 -3.39075 0
M  V30 14691 H 1510.63 -2.83083 -0.90837 0
M  V30 14692 H 1508.16 -1.5021 -0.357265 0
M  V30 14693 H 1510.12 -2.35932 -3.35926 0
M  V30 14694 H 1508.78 -1.30451 -2.8573 0
M  V30 14695 H 1507.98 -3.58476 -3.54276 0
M  V30 14696 H 1507.58 -3.25581 -1.84047 0
M  V30 14697 H 1509.87 -5.19268 -4.35163 0
M  V30 14698 H 1510.81 -6.27588 -3.27931 0
M  V30 14699 H 1511.22 -4.53623 -3.35986 0
M  V30 14700 N 1510.62 0.421051 -1.51871 0
M  V30 14701 C 1511.53 1.5371 -1.7723 0
M  V30 14702 C 1512.54 1.61109 -0.657256 0
M  V30 14703 O 1513.72 1.78047 -0.941343 0
M  V30 14704 C 1510.79 2.89555 -1.9068 0
M  V30 14705 C 1509.85 2.9214 -3.14567 0
M  V30 14706 C 1509.08 4.21505 -3.27367 0
M  V30 14707 O 1509.3 5.14764 -2.45712 0
M  V30 14708 O 1508.24 4.30706 -4.20448 0
M  V30 14709 H 1512.06 1.35221 -2.71935 0
M  V30 14710 H 1509.65 0.605712 -1.3657 0
M  V30 14711 H 1511.53 3.70147 -2.01418 0
M  V30 14712 H 1510.2 3.08137 -0.991627 0
M  V30 14713 H 1509.11 2.10444 -3.09296 0
M  V30 14714 H 1510.44 2.78505 -4.05827 0
M  V30 14715 N 1512.1 1.42293 0.677538 0
M  V30 14716 C 1513.01 1.47953 1.82063 0
M  V30 14717 C 1514.02 0.36851 1.70053 0
M  V30 14718 O 1515.2 0.618996 1.91652 0
M  V30 14719 C 1512.26 1.3769 3.18186 0
M  V30 14720 C 1511.32 2.59261 3.42173 0
M  V30 14721 C 1510.56 2.49478 4.71801 0
M  V30 14722 O 1510.78 1.52915 5.49521 0
M  V30 14723 O 1509.71 3.39562 4.96972 0
M  V30 14724 H 1513.54 2.4443 1.80244 0
M  V30 14725 H 1511.13 1.24027 0.832932 0
M  V30 14726 H 1513.01 1.34319 3.9942 0
M  V30 14727 H 1511.68 0.443377 3.20649 0
M  V30 14728 H 1510.59 2.68207 2.60798 0
M  V30 14729 H 1511.92 3.51503 3.44538 0
M  V30 14730 N 1513.57 -0.913576 1.28419 0
M  V30 14731 C 1514.85 -1.64203 1.06285 0
M  V30 14732 C 1515.23 -2.07319 -0.397728 0
M  V30 14733 O 1514.58 -1.8183 -1.38383 0
M  V30 14734 C 1514.79 -2.8334 2.03763 0
M  V30 14735 C 1516.14 -3.54355 2.33918 0
M  V30 14736 O 1517.16 -2.93489 2.01848 0
M  V30 14737 O 1516.02 -4.6405 2.88652 0
M  V30 14738 H 1513.11 -0.720359 0.406217 0
M  V30 14739 H 1515.66 -0.962866 1.39739 0
M  V30 14740 H 1514.43 -2.48575 3.02203 0
M  V30 14741 H 1514.06 -3.5897 1.70956 0
M  V30 14742 N 1515.05 -1.1067 -1.12204 0
M  V30 14743 C 1515.98 -0.779829 -2.20093 0
M  V30 14744 C 1516.96 0.248279 -1.68278 0
M  V30 14745 O 1518.15 0.113511 -1.93868 0
M  V30 14746 C 1515.28 -0.213511 -3.46643 0
M  V30 14747 C 1514.23 -1.17258 -4.11624 0
M  V30 14748 C 1513.56 -0.467352 -5.32654 0
M  V30 14749 C 1514.86 -2.52014 -4.57478 0
M  V30 14750 H 1516.55 -1.68192 -2.47693 0
M  V30 14751 H 1514.1 -0.810131 -1.1905 0
M  V30 14752 H 1516.05 0.0273225 -4.21391 0
M  V30 14753 H 1514.78 0.723837 -3.18478 0
M  V30 14754 H 1513.43 -1.39891 -3.3886 0
M  V30 14755 H 1513.08 0.474547 -5.00756 0
M  V30 14756 H 1512.78 -1.10694 -5.77079 0
M  V30 14757 H 1514.31 -0.235122 -6.10147 0
M  V30 14758 H 1515.72 -2.33516 -5.23587 0
M  V30 14759 H 1514.12 -3.1188 -5.1269 0
M  V30 14760 H 1515.19 -3.11831 -3.71335 0
M  V30 14761 N 1516.53 1.29665 -0.895815 0
M  V30 14762 C 1517.46 2.26842 -0.327939 0
M  V30 14763 C 1518.48 1.54151 0.523578 0
M  V30 14764 O 1519.66 1.75205 0.341367 0
M  V30 14765 C 1516.76 3.34384 0.551393 0
M  V30 14766 C 1515.94 4.36544 -0.273514 0
M  V30 14767 C 1515 5.23442 0.538031 0
M  V30 14768 O 1514.02 5.69184 -0.0431025 0
M  V30 14769 N 1515.22 5.50402 1.84493 0
M  V30 14770 H 1517.99 2.76208 -1.16315 0
M  V30 14771 H 1515.55 1.42958 -0.759903 0
M  V30 14772 H 1517.54 3.89446 1.10062 0
M  V30 14773 H 1516.11 2.84864 1.28728 0
M  V30 14774 H 1515.33 3.81196 -1.00416 0
M  V30 14775 H 1516.62 5.01842 -0.838589 0
M  V30 14776 H 1516.02 5.15041 2.33985 0
M  V30 14777 H 1514.58 6.08295 2.34137 0
M  V30 14778 N 1518.01 0.657889 1.43212 0
M  V30 14779 C 1519.26 0.172845 2.0136 0
M  V30 14780 C 1519.58 -1.21911 1.52193 0
M  V30 14781 O 1518.85 -1.81529 0.736492 0
M  V30 14782 H 1517.43 0.0609091 0.744513 0
M  V30 14783 H 1520.09 0.850605 1.75359 0
M  V30 14784 H 1519.19 0.161062 3.11684 0
M  V30 14785 N 1519.49 -1.52437 0.400108 0
M  V30 14786 C 1520.45 -2.2536 -0.417808 0
M  V30 14787 C 1521.45 -1.27393 -0.981204 0
M  V30 14788 O 1522.64 -1.51406 -0.861503 0
M  V30 14789 C 1519.77 -3.01695 -1.58724 0
M  V30 14790 H 1520.96 -2.99086 0.220782 0
M  V30 14791 H 1518.52 -1.55555 0.152439 0
M  V30 14792 H 1519.25 -2.32295 -2.26295 0
M  V30 14793 H 1519.04 -3.73611 -1.18984 0
M  V30 14794 H 1520.53 -3.57033 -2.16604 0
M  V30 14795 N 1520.96 -0.130252 -1.57061 0
M  V30 14796 C 1522.19 0.535707 -2.00362 0
M  V30 14797 C 1522.61 1.58712 -1.00956 0
M  V30 14798 O 1521.97 1.81292 0.0171546 0
M  V30 14799 C 1522.02 1.12836 -3.42491 0
M  V30 14800 O 1521.12 2.24367 -3.46025 0
M  V30 14801 H 1520.47 0.132735 -0.650598 0
M  V30 14802 H 1523 -0.222047 -2.03392 0
M  V30 14803 H 1523.01 1.46115 -3.80939 0
M  V30 14804 H 1521.68 0.358304 -4.14354 0
M  V30 14805 H 1520.26 1.92443 -3.19406 0
M  V30 14806 N 1522.44 1.56945 0.143535 0
M  V30 14807 C 1523.38 1.95134 1.2023 0
M  V30 14808 C 1524.39 0.847593 1.38995 0
M  V30 14809 O 1525.58 1.12599 1.38505 0
M  V30 14810 C 1522.68 2.21316 2.56656 0
M  V30 14811 C 1521.85 3.52604 2.58822 0
M  V30 14812 C 1520.91 3.67285 3.76813 0
M  V30 14813 O 1519.94 4.39644 3.61527 0
M  V30 14814 N 1521.14 3.04208 4.94406 0
M  V30 14815 H 1523.9 2.86561 0.87766 0
M  V30 14816 H 1521.46 1.58437 0.333065 0
M  V30 14817 H 1523.46 2.28375 3.34106 0
M  V30 14818 H 1522.03 1.36137 2.81399 0
M  V30 14819 H 1521.25 3.56954 1.67264 0
M  V30 14820 H 1522.53 4.38944 2.57304 0
M  V30 14821 H 1521.93 2.45344 5.09728 0
M  V30 14822 H 1520.49 3.16824 5.69619 0
M  V30 14823 N 1523.92 -0.412991 1.52093 0
M  V30 14824 C 1525.17 -1.16202 1.66208 0
M  V30 14825 C 1525.5 -1.90265 0.388957 0
M  V30 14826 O 1524.78 -1.84605 -0.612477 0
M  V30 14827 C 1525.06 -2.15958 2.88157 0
M  V30 14828 C 1524.91 -1.45817 4.25509 0
M  V30 14829 C 1526.23 -3.16671 3.05626 0
M  V30 14830 H 1523.35 -0.421083 0.604862 0
M  V30 14831 H 1525.99 -0.448212 1.84638 0
M  V30 14832 H 1524.14 -2.76831 2.72574 0
M  V30 14833 H 1525.81 -0.880925 4.52811 0
M  V30 14834 H 1524.06 -0.760175 4.27088 0
M  V30 14835 H 1524.73 -2.18587 5.06877 0
M  V30 14836 H 1527.2 -2.65871 3.20081 0
M  V30 14837 H 1526.08 -3.83739 3.92474 0
M  V30 14838 H 1526.34 -3.84178 2.18769 0
M  V30 14839 N 1525.4 -1.4265 -0.669982 0
M  V30 14840 C 1526.35 -1.46504 -1.7834 0
M  V30 14841 C 1527.32 -0.316478 -1.63057 0
M  V30 14842 O 1528.5 -0.521245 -1.83542 0
M  V30 14843 C 1525.64 -1.37784 -3.16401 0
M  V30 14844 C 1524.75 -2.62714 -3.42937 0
M  V30 14845 C 1523.89 -2.46101 -4.70752 0
M  V30 14846 C 1522.93 -3.66381 -4.90338 0
M  V30 14847 N 1522.07 -3.48681 -6.09398 0
M  V30 14848 H 1526.91 -2.41651 -1.74381 0
M  V30 14849 H 1524.44 -1.1997 -0.851215 0
M  V30 14850 H 1526.4 -1.30725 -3.9619 0
M  V30 14851 H 1525.03 -0.462291 -3.19473 0
M  V30 14852 H 1524.08 -2.8012 -2.57366 0
M  V30 14853 H 1525.39 -3.52108 -3.53301 0
M  V30 14854 H 1524.55 -2.36655 -5.58641 0
M  V30 14855 H 1523.29 -1.54204 -4.6268 0
M  V30 14856 H 1522.29 -3.76254 -4.00891 0
M  V30 14857 H 1523.52 -4.59265 -5.00253 0
M  V30 14858 H 1521.46 -2.59505 -6.02489 0
M  V30 14859 H 1521.38 -4.31666 -6.20645 0
M  V30 14860 H 1522.65 -3.43056 -6.99952 0
M  V30 14861 N 1526.88 0.906753 -1.28902 0
M  V30 14862 C 1527.79 2.04313 -1.15296 0
M  V30 14863 C 1528.8 1.73826 -0.0778619 0
M  V30 14864 O 1529.98 1.99322 -0.288543 0
M  V30 14865 C 1527.04 3.36782 -0.823317 0
M  V30 14866 C 1526.11 3.80834 -1.98152 0
M  V30 14867 C 1525.34 5.06981 -1.66751 0
M  V30 14868 O 1525.56 5.67391 -0.58513 0
M  V30 14869 O 1524.5 5.46915 -2.51332 0
M  V30 14870 H 1528.32 2.18713 -2.10709 0
M  V30 14871 H 1525.91 1.02928 -1.08287 0
M  V30 14872 H 1527.79 4.16298 -0.653735 0
M  V30 14873 H 1526.46 3.23542 0.101097 0
M  V30 14874 H 1525.37 3.02115 -2.2063 0
M  V30 14875 H 1526.7 3.98648 -2.88688 0
M  V30 14876 N 1528.36 1.11264 1.11616 0
M  V30 14877 C 1529.27 0.781961 2.21184 0
M  V30 14878 C 1530.28 -0.224149 1.7255 0
M  V30 14879 O 1531.46 -0.0607743 2.01308 0
M  V30 14880 C 1528.52 0.228031 3.45949 0
M  V30 14881 C 1527.58 1.29251 4.09381 0
M  V30 14882 C 1526.82 0.764921 5.2819 0
M  V30 14883 O 1527.04 -0.405671 5.68956 0
M  V30 14884 O 1525.97 1.52886 5.82159 0
M  V30 14885 H 1529.8 1.69678 2.51879 0
M  V30 14886 H 1527.38 0.888394 1.20116 0
M  V30 14887 H 1529.27 -0.0766085 4.2133 0
M  V30 14888 H 1527.94 -0.659519 3.1691 0
M  V30 14889 H 1526.85 1.65014 3.3574 0
M  V30 14890 H 1528.18 2.15339 4.42595 0
M  V30 14891 N 1529.83 -1.29188 0.902679 0
M  V30 14892 C 1531.06 -1.99576 0.545635 0
M  V30 14893 C 1531.48 -1.67541 -0.870372 0
M  V30 14894 O 1530.83 -0.922082 -1.57493 0
M  V30 14895 C 1530.88 -3.54013 0.731916 0
M  V30 14896 O 1530.61 -3.84914 2.09219 0
M  V30 14897 C 1532.11 -4.41666 0.38022 0
M  V30 14898 H 1529.33 -0.637593 0.209083 0
M  V30 14899 H 1531.87 -1.64652 1.21284 0
M  V30 14900 H 1530.03 -3.87239 0.111849 0
M  V30 14901 H 1530.44 -4.79581 2.12373 0
M  V30 14902 H 1531.91 -5.49138 0.561382 0
M  V30 14903 H 1532.39 -4.33858 -0.682915 0
M  V30 14904 H 1533 -4.13918 0.977354 0
M  V30 14905 N 1531.31 -0.665475 -1.42861 0
M  V30 14906 C 1532.59 -0.113252 -1.95272 0
M  V30 14907 C 1532.97 1.36972 -1.6063 0
M  V30 14908 O 1532.32 2.10129 -0.897662 0
M  V30 14909 C 1532.53 -0.372482 -3.47007 0
M  V30 14910 C 1533.87 -0.283982 -4.23649 0
M  V30 14911 O 1534.9 -0.305714 -3.54886 0
M  V30 14912 O 1533.76 -0.218171 -5.46064 0
M  V30 14913 H 1530.85 0.00253712 -0.826996 0
M  V30 14914 H 1533.4 -0.739561 -1.52737 0
M  V30 14915 H 1532.17 -1.40015 -3.65392 0
M  V30 14916 H 1531.79 0.286294 -3.96568 0
M  V30 14917 N 1532.79 1.52222 -0.408187 0
M  V30 14918 C 1534.04 2.00989 0.169252 0
M  V30 14919 C 1534.35 1.29824 1.46305 0
M  V30 14920 O 1535.56 1.69402 2.12168 0
M  V30 14921 C 1534.01 3.58173 0.352179 0
M  V30 14922 C 1533.62 4.38252 -0.929468 0
M  V30 14923 C 1535.37 4.15173 0.88496 0
M  V30 14924 C 1533.27 5.87077 -0.713781 0
M  V30 14925 H 1532.2 0.751015 0.0670261 0
M  V30 14926 H 1534.85 1.75574 -0.533487 0
M  V30 14927 H 1533.24 3.79913 1.11723 0
M  V30 14928 H 1534.41 4.28272 -1.70059 0
M  V30 14929 H 1532.72 3.92565 -1.38859 0
M  V30 14930 H 1535.32 5.2404 1.06235 0
M  V30 14931 H 1535.66 3.72468 1.85938 0
M  V30 14932 H 1536.2 3.97397 0.178995 0
M  V30 14933 H 1532.94 6.3414 -1.65974 0
M  V30 14934 H 1532.46 5.99797 0.0180631 0
M  V30 14935 H 1534.14 6.46022 -0.355596 0
M  V30 14936 N 1534.27 0.138579 1.5699 0
M  V30 14937 C 1535.23 -0.79013 2.1515 0
M  V30 14938 C 1536.23 -1.1811 1.09117 0
M  V30 14939 O 1537.42 -1.1034 1.34798 0
M  V30 14940 C 1534.55 -2.07109 2.70774 0
M  V30 14941 H 1535.75 -0.284343 2.98549 0
M  V30 14942 H 1533.3 -0.11081 1.55907 0
M  V30 14943 H 1534.03 -2.62074 1.91018 0
M  V30 14944 H 1533.82 -1.80004 3.4834 0
M  V30 14945 H 1535.31 -2.73456 3.15613 0
M  V30 14946 N 1535.75 -1.57019 -0.13521 0
M  V30 14947 C 1536.66 -2.02427 -1.18578 0
M  V30 14948 C 1537.67 -0.941738 -1.46312 0
M  V30 14949 O 1538.85 -1.25208 -1.57749 0
M  V30 14950 C 1535.91 -2.40577 -2.49647 0
M  V30 14951 C 1534.97 -3.62835 -2.29455 0
M  V30 14952 C 1534.21 -3.99156 -3.54274 0
M  V30 14953 O 1534.43 -3.36001 -4.60933 0
M  V30 14954 O 1533.36 -4.92345 -3.46238 0
M  V30 14955 H 1537.19 -2.92131 -0.830237 0
M  V30 14956 H 1534.77 -1.45366 -0.344814 0
M  V30 14957 H 1536.66 -2.65922 -3.269 0
M  V30 14958 H 1535.33 -1.54023 -2.84708 0
M  V30 14959 H 1534.24 -3.42661 -1.50114 0
M  V30 14960 H 1535.57 -4.50043 -1.99305 0
M  V30 14961 N 1537.22 0.404919 -1.52309 0
M  V30 14962 C 1538.16 1.51276 -1.72186 0
M  V30 14963 C 1539.17 1.5125 -0.602276 0
M  V30 14964 O 1540.36 1.55439 -0.877549 0
M  V30 14965 C 1537.46 2.90162 -1.75099 0
M  V30 14966 C 1536.63 3.14333 -3.04161 0
M  V30 14967 C 1535.69 4.33113 -2.9883 0
M  V30 14968 O 1534.72 4.30189 -3.72728 0
M  V30 14969 N 1535.92 5.38451 -2.16911 0
M  V30 14970 H 1538.68 1.34618 -2.67765 0
M  V30 14971 H 1536.24 0.594264 -1.50599 0
M  V30 14972 H 1538.24 3.67697 -1.69058 0
M  V30 14973 H 1536.81 3.00257 -0.869756 0
M  V30 14974 H 1536.03 2.24803 -3.23817 0
M  V30 14975 H 1537.31 3.27327 -3.89531 0
M  V30 14976 H 1536.71 5.43676 -1.56309 0
M  V30 14977 H 1535.27 6.14715 -2.16724 0
M  V30 14978 N 1538.7 1.43003 0.662408 0
M  V30 14979 C 1539.65 1.47448 1.77561 0
M  V30 14980 C 1540.62 0.325121 1.62887 0
M  V30 14981 O 1541.8 0.530971 1.83263 0
M  V30 14982 C 1538.94 1.3946 3.15666 0
M  V30 14983 C 1538.06 2.64529 3.41539 0
M  V30 14984 C 1537.19 2.48594 4.69441 0
M  V30 14985 C 1536.23 3.68976 4.88388 0
M  V30 14986 N 1535.37 3.51908 6.0754 0
M  V30 14987 H 1540.21 2.42573 1.73097 0
M  V30 14988 H 1537.75 1.2042 0.84484 0
M  V30 14989 H 1539.7 1.32824 3.95492 0
M  V30 14990 H 1538.33 0.479227 3.19223 0
M  V30 14991 H 1537.39 2.81481 2.55877 0
M  V30 14992 H 1538.7 3.53977 3.51429 0
M  V30 14993 H 1537.85 2.39614 5.57378 0
M  V30 14994 H 1536.59 1.56656 4.61855 0
M  V30 14995 H 1535.6 3.78374 3.9889 0
M  V30 14996 H 1536.82 4.61911 4.9781 0
M  V30 14997 H 1534.77 2.62697 6.01104 0
M  V30 14998 H 1534.68 4.34951 6.18347 0
M  V30 14999 H 1535.95 3.46763 6.98123 0
M  V30 15000 N 1540.18 -0.899904 1.29381 0
M  V30 15001 C 1541.41 -1.68911 1.20349 0
M  V30 15002 C 1541.83 -1.86657 -0.232523 0
M  V30 15003 O 1541.19 -1.38674 -1.16787 0
M  V30 15004 C 1541.24 -3.05124 1.92177 0
M  V30 15005 O 1540.34 -3.93358 1.23867 0
M  V30 15006 H 1539.68 -0.516698 0.417036 0
M  V30 15007 H 1542.21 -1.12422 1.70946 0
M  V30 15008 H 1542.22 -3.55267 2.00623 0
M  V30 15009 H 1540.9 -2.91525 2.96624 0
M  V30 15010 H 1539.47 -3.51793 1.23677 0
M  V30 15011 N 1541.66 -1.11854 -1.11024 0
M  V30 15012 C 1542.57 -0.79368 -2.20767 0
M  V30 15013 C 1543.58 0.214996 -1.72667 0
M  V30 15014 O 1544.76 0.0500976 -2.01338 0
M  V30 15015 C 1541.83 -0.246375 -3.45823 0
M  V30 15016 C 1540.89 -1.31421 -4.0869 0
M  V30 15017 C 1540.12 -0.792922 -5.27777 0
M  V30 15018 O 1540.34 0.375492 -5.69163 0
M  V30 15019 O 1539.28 -1.55971 -5.8134 0
M  V30 15020 H 1543.1 -1.71011 -2.50976 0
M  V30 15021 H 1540.69 -0.894752 -1.19643 0
M  V30 15022 H 1542.57 0.0542632 -4.21365 0
M  V30 15023 H 1541.24 0.642703 -3.17255 0
M  V30 15024 H 1540.15 -1.66792 -3.3486 0
M  V30 15025 H 1541.48 -2.17683 -4.41446 0
M  V30 15026 N 1543.14 1.28707 -0.909517 0
M  V30 15027 C 1544.55 1.77212 -0.587613 0
M  V30 15028 C 1544.9 1.74495 0.896986 0
M  V30 15029 O 1544.02 1.33698 1.70158 0
M  V30 15030 C 1544.62 3.21794 -1.05989 0
M  V30 15031 C 1543.18 3.68038 -0.788983 0
M  V30 15032 C 1542.32 2.48576 -1.22903 0
M  V30 15033 H 1545.28 1.1523 -1.09122 0
M  V30 15034 H 1545.3 3.78397 -0.399469 0
M  V30 15035 H 1544.81 3.23739 -2.14043 0
M  V30 15036 H 1542.91 3.71558 0.278523 0
M  V30 15037 H 1543.02 4.58379 -1.39376 0
M  V30 15038 H 1541.39 2.46323 -0.647838 0
M  V30 15039 H 1542.17 2.53243 -2.31782 0
M  V30 15040 N 1544.61 0.673042 1.42506 0
M  V30 15041 C 1545.55 -0.056507 2.2813 0
M  V30 15042 C 1546.53 -0.810416 1.40965 0
M  V30 15043 O 1547.71 -0.805904 1.70404 0
M  V30 15044 C 1544.84 -1.08716 3.20778 0
M  V30 15045 C 1543.88 -0.429034 4.24337 0
M  V30 15046 S 1544.72 0.812075 5.29307 0
M  V30 15047 C 1545.87 -0.217548 6.25522 0
M  V30 15048 H 1546.1 0.669772 2.89657 0
M  V30 15049 H 1543.64 0.462526 1.47309 0
M  V30 15050 H 1545.6 -1.67672 3.74695 0
M  V30 15051 H 1544.26 -1.78587 2.5839 0
M  V30 15052 H 1543.45 -1.20666 4.89342 0
M  V30 15053 H 1543.05 0.0868926 3.73899 0
M  V30 15054 H 1545.34 -1.07781 6.68872 0
M  V30 15055 H 1546.29 0.397993 7.06981 0
M  V30 15056 H 1546.69 -0.562237 5.61693 0
M  V30 15057 N 1546.09 -1.52004 0.416254 0
M  V30 15058 C 1547 -2.30947 -0.412403 0
M  V30 15059 C 1548.02 -1.38969 -1.04707 0
M  V30 15060 O 1549.19 -1.72044 -1.04703 0
M  V30 15061 C 1546.26 -3.12078 -1.51024 0
M  V30 15062 C 1545.32 -4.19805 -0.897892 0
M  V30 15063 C 1544.55 -4.97059 -1.94341 0
M  V30 15064 O 1544.78 -4.74695 -3.16261 0
M  V30 15065 O 1543.71 -5.81715 -1.54567 0
M  V30 15066 H 1547.54 -3.02817 0.231473 0
M  V30 15067 H 1545.12 -1.4832 0.179283 0
M  V30 15068 H 1547 -3.6258 -2.14741 0
M  V30 15069 H 1545.68 -2.42995 -2.13858 0
M  V30 15070 H 1544.59 -3.73433 -0.223236 0
M  V30 15071 H 1545.92 -4.91201 -0.31336 0
M  V30 15072 N 1547.57 -0.146903 -1.56914 0
M  V30 15073 C 1548.82 0.504981 -1.96412 0
M  V30 15074 C 1549.15 1.64522 -1.0318 0
M  V30 15075 O 1548.42 1.94359 -0.0741728 0
M  V30 15076 C 1548.71 1.01125 -3.45609 0
M  V30 15077 C 1548.56 -0.127493 -4.49619 0
M  V30 15078 C 1549.88 1.89306 -3.97305 0
M  V30 15079 H 1547 0.182088 -0.714152 0
M  V30 15080 H 1549.64 -0.22811 -1.88626 0
M  V30 15081 H 1547.79 1.63595 -3.52376 0
M  V30 15082 H 1549.46 -0.763829 -4.54932 0
M  V30 15083 H 1547.71 -0.786649 -4.26608 0
M  V30 15084 H 1548.38 0.268453 -5.51347 0
M  V30 15085 H 1550.85 1.36664 -3.93017 0
M  V30 15086 H 1549.73 2.21638 -5.02163 0
M  V30 15087 H 1549.99 2.82996 -3.39655 0
M  V30 15088 N 1549.05 1.57088 0.126881 0
M  V30 15089 C 1550.33 1.7539 0.8659 0
M  V30 15090 C 1550.71 0.720288 1.98432 0
M  V30 15091 O 1550.05 -0.2572 2.27048 0
M  V30 15092 C 1550.26 3.20131 1.38985 0
M  V30 15093 C 1551.61 3.82404 1.84532 0
M  V30 15094 O 1552.64 3.23685 1.48682 0
M  V30 15095 O 1551.49 4.85599 2.50711 0
M  V30 15096 H 1548.59 0.717853 0.41063 0
M  V30 15097 H 1551.13 1.69335 0.111236 0
M  V30 15098 H 1549.91 3.86871 0.587056 0
M  V30 15099 H 1549.53 3.30692 2.20745 0
M  V30 15100 N 1550.53 -0.396836 1.52522 0
M  V30 15101 C 1551.44 -1.50871 1.79653 0
M  V30 15102 C 1552.45 -1.60043 0.682804 0
M  V30 15103 O 1553.63 -1.76527 0.96955 0
M  V30 15104 C 1550.69 -2.86485 1.95263 0
M  V30 15105 C 1549.75 -2.87099 3.19175 0
M  V30 15106 C 1548.99 -4.16244 3.34031 0
M  V30 15107 O 1549.21 -5.1079 2.5387 0
M  V30 15108 O 1548.14 -4.23962 4.27247 0
M  V30 15109 H 1551.97 -1.30878 2.74052 0
M  V30 15110 H 1549.56 -0.583908 1.37517 0
M  V30 15111 H 1551.44 -3.66895 2.07282 0
M  V30 15112 H 1550.11 -3.0652 1.04052 0
M  V30 15113 H 1549.02 -2.05497 3.12605 0
M  V30 15114 H 1550.35 -2.72014 4.10206 0
M  V30 15115 N 1552.01 -1.43353 -0.654814 0
M  V30 15116 C 1552.95 -1.48387 -1.76776 0
M  V30 15117 C 1553.92 -0.333755 -1.62712 0
M  V30 15118 O 1555.11 -0.540683 -1.82979 0
M  V30 15119 C 1552.25 -1.41132 -3.14922 0
M  V30 15120 C 1551.36 -2.66336 -3.40131 0
M  V30 15121 C 1550.5 -2.5108 -4.68116 0
M  V30 15122 C 1549.53 -3.71561 -4.86425 0
M  V30 15123 N 1548.67 -3.55125 -6.05666 0
M  V30 15124 H 1553.51 -2.43487 -1.71808 0
M  V30 15125 H 1551.05 -1.20866 -0.838442 0
M  V30 15126 H 1553.01 -1.3492 -3.94782 0
M  V30 15127 H 1551.64 -0.496149 -3.18964 0
M  V30 15128 H 1550.69 -2.82834 -2.5438 0
M  V30 15129 H 1552 -3.55835 -3.49546 0
M  V30 15130 H 1551.15 -2.42567 -5.56099 0
M  V30 15131 H 1549.89 -1.59103 -4.61018 0
M  V30 15132 H 1548.9 -3.80484 -3.96877 0
M  V30 15133 H 1550.12 -4.64545 -4.95353 0
M  V30 15134 H 1548.07 -2.65881 -5.99703 0
M  V30 15135 H 1547.99 -4.38224 -6.16032 0
M  V30 15136 H 1549.25 -3.5046 -6.96274 0
M  V30 15137 N 1553.48 0.89303 -1.29857 0
M  V30 15138 C 1554.43 1.9979 -1.15554 0
M  V30 15139 C 1555.4 1.66033 -0.0471157 0
M  V30 15140 O 1556.59 1.89575 -0.215846 0
M  V30 15141 C 1553.73 3.34595 -0.844993 0
M  V30 15142 C 1552.84 3.81093 -2.03451 0
M  V30 15143 C 1551.97 5.04506 -1.66275 0
M  V30 15144 C 1551.01 5.4339 -2.8177 0
M  V30 15145 N 1550.15 6.57987 -2.44945 0
M  V30 15146 H 1554.99 2.11355 -2.10079 0
M  V30 15147 H 1552.53 1.03497 -1.04531 0
M  V30 15148 H 1554.48 4.12175 -0.645598 0
M  V30 15149 H 1553.11 3.22738 0.0633626 0
M  V30 15150 H 1552.17 2.99491 -2.34541 0
M  V30 15151 H 1553.48 4.05855 -2.8997 0
M  V30 15152 H 1552.63 5.89688 -1.42664 0
M  V30 15153 H 1551.37 4.81597 -0.769144 0
M  V30 15154 H 1550.38 4.56738 -3.06056 0
M  V30 15155 H 1551.6 5.68276 -3.71805 0
M  V30 15156 H 1549.55 6.36669 -1.58079 0
M  V30 15157 H 1549.46 6.82579 -3.24996 0
M  V30 15158 H 1550.73 7.46421 -2.24669 0
M  V30 15159 N 1554.96 1.12442 1.10429 0
M  V30 15160 C 1556.37 0.894147 1.63896 0
M  V30 15161 C 1556.72 -0.571509 1.87692 0
M  V30 15162 O 1555.85 -1.43595 1.61893 0
M  V30 15163 C 1556.44 1.61664 2.97742 0
M  V30 15164 C 1555 1.43251 3.48075 0
M  V30 15165 C 1554.15 1.65252 2.22682 0
M  V30 15166 H 1557.1 1.27918 0.939289 0
M  V30 15167 H 1557.12 1.06771 3.65213 0
M  V30 15168 H 1556.63 2.68333 2.80391 0
M  V30 15169 H 1554.73 0.388385 3.7057 0
M  V30 15170 H 1554.85 2.18866 4.26186 0
M  V30 15171 H 1553.21 1.07663 2.30827 0
M  V30 15172 H 1553.99 2.73219 2.07862 0
M  V30 15173 N 1556.44 -1.28223 0.91633 0
M  V30 15174 C 1557.35 -2.30956 0.411882 0
M  V30 15175 C 1558.37 -1.66609 -0.501753 0
M  V30 15176 O 1559.54 -1.97641 -0.387317 0
M  V30 15177 C 1556.61 -3.45053 -0.337558 0
M  V30 15178 C 1555.67 -4.2495 0.609609 0
M  V30 15179 C 1554.9 -5.33598 -0.104159 0
M  V30 15180 O 1555.12 -5.54786 -1.32546 0
M  V30 15181 O 1554.06 -5.99272 0.561851 0
M  V30 15182 H 1557.88 -2.76118 1.26461 0
M  V30 15183 H 1555.47 -1.32964 0.681246 0
M  V30 15184 H 1557.35 -4.14477 -0.760722 0
M  V30 15185 H 1556.03 -3.01968 -1.16607 0
M  V30 15186 H 1554.93 -3.58104 1.08222 0
M  V30 15187 H 1556.27 -4.7172 1.40502 0
M  V30 15188 N 1557.92 -0.68059 -1.42147 0
M  V30 15189 C 1559.16 -0.205567 -2.01755 0
M  V30 15190 C 1559.5 1.18677 -1.53718 0
M  V30 15191 O 1558.77 1.79796 -0.741867 0
M  V30 15192 C 1559.05 -0.246615 -3.59255 0
M  V30 15193 C 1558.91 -1.67483 -4.17456 0
M  V30 15194 C 1560.23 0.40196 -4.38261 0
M  V30 15195 H 1557.35 -0.0761717 -0.733053 0
M  V30 15196 H 1559.99 -0.866473 -1.69092 0
M  V30 15197 H 1558.14 0.316127 -3.87212 0
M  V30 15198 H 1559.81 -2.29026 -4.00431 0
M  V30 15199 H 1558.05 -2.2137 -3.73065 0
M  V30 15200 H 1558.72 -1.65519 -5.266 0
M  V30 15201 H 1561.2 -0.077135 -4.16028 0
M  V30 15202 H 1560.08 0.342627 -5.4783 0
M  V30 15203 H 1560.34 1.48044 -4.16576 0
M  V30 15204 N 1559.4 1.51781 -0.424309 0
M  V30 15205 C 1560.34 2.27418 0.393668 0
M  V30 15206 C 1561.31 1.3046 1.02808 0
M  V30 15207 O 1562.5 1.59345 1.04946 0
M  V30 15208 C 1559.64 3.10983 1.49611 0
M  V30 15209 C 1558.75 4.22919 0.881123 0
M  V30 15210 C 1557.89 4.93816 1.95752 0
M  V30 15211 C 1556.92 5.97691 1.32028 0
M  V30 15212 N 1556.06 6.62047 2.33747 0
M  V30 15213 H 1560.9 2.96883 -0.257731 0
M  V30 15214 H 1558.44 1.46442 -0.138942 0
M  V30 15215 H 1560.4 3.57749 2.14642 0
M  V30 15216 H 1559.03 2.43658 2.11732 0
M  V30 15217 H 1558.08 3.80212 0.119445 0
M  V30 15218 H 1559.39 4.97383 0.375764 0
M  V30 15219 H 1558.54 5.44064 2.68476 0
M  V30 15220 H 1557.28 4.18954 2.49658 0
M  V30 15221 H 1556.29 5.46749 0.578444 0
M  V30 15222 H 1557.51 6.74504 0.788722 0
M  V30 15223 H 1555.46 5.90005 2.86757 0
M  V30 15224 H 1555.38 7.32234 1.88066 0
M  V30 15225 H 1556.64 7.16929 3.05995 0
M  V30 15226 N 1560.87 0.155222 1.56834 0
M  V30 15227 C 1562.12 -0.494557 1.96677 0
M  V30 15228 C 1562.45 -1.63973 1.04051 0
M  V30 15229 O 1561.73 -1.94316 0.0844791 0
M  V30 15230 C 1562.01 -0.992902 3.46141 0
M  V30 15231 C 1561.86 0.151335 4.49545 0
M  V30 15232 C 1563.18 -1.87197 3.98303 0
M  V30 15233 H 1560.3 -0.178298 0.715107 0
M  V30 15234 H 1562.94 0.23811 1.88502 0
M  V30 15235 H 1561.09 -1.61724 3.53239 0
M  V30 15236 H 1562.77 0.787945 4.54521 0
M  V30 15237 H 1561.01 0.809262 4.26185 0
M  V30 15238 H 1561.68 -0.23921 5.51481 0
M  V30 15239 H 1564.16 -1.34578 3.93736 0
M  V30 15240 H 1563.03 -2.18972 5.03331 0
M  V30 15241 H 1563.29 -2.81191 3.41151 0
M  V30 15242 N 1562.35 -1.57153 -0.118549 0
M  V30 15243 C 1563.26 -2.03673 -1.16424 0
M  V30 15244 C 1564.28 -0.957203 -1.45305 0
M  V30 15245 O 1565.45 -1.26874 -1.56413 0
M  V30 15246 C 1562.52 -2.43211 -2.47082 0
M  V30 15247 C 1561.58 -3.65248 -2.25593 0
M  V30 15248 C 1560.81 -4.02891 -3.50021 0
M  V30 15249 O 1561.04 -3.40871 -4.57344 0
M  V30 15250 O 1559.97 -4.95989 -3.40996 0
M  V30 15251 H 1563.8 -2.92996 -0.799206 0
M  V30 15252 H 1561.38 -1.45724 -0.329376 0
M  V30 15253 H 1563.26 -2.69374 -3.24061 0
M  V30 15254 H 1561.94 -1.57034 -2.83058 0
M  V30 15255 H 1560.84 -3.44234 -1.46471 0
M  V30 15256 H 1562.18 -4.52131 -1.94521 0
M  V30 15257 N 1563.83 0.388742 -1.5273 0
M  V30 15258 C 1565.08 1.13543 -1.68035 0
M  V30 15259 C 1565.41 1.89622 -0.419177 0
M  V30 15260 O 1564.68 1.85556 0.583031 0
M  V30 15261 C 1564.97 2.11346 -2.91556 0
M  V30 15262 C 1564.82 1.39029 -4.27775 0
M  V30 15263 C 1566.14 3.11769 -3.10625 0
M  V30 15264 H 1563.26 0.411406 -0.611485 0
M  V30 15265 H 1565.9 0.418781 -1.85327 0
M  V30 15266 H 1564.05 2.7246 -2.76944 0
M  V30 15267 H 1565.72 0.808775 -4.54155 0
M  V30 15268 H 1563.96 0.692133 -4.28243 0
M  V30 15269 H 1564.64 2.10495 -5.1029 0
M  V30 15270 H 1567.11 2.60745 -3.2427 0
M  V30 15271 H 1565.99 3.77447 -3.98529 0
M  V30 15272 H 1566.25 3.80649 -2.24853 0
M  V30 15273 N 1565.31 1.43698 0.647203 0
M  V30 15274 C 1566.25 1.49323 1.75987 0
M  V30 15275 C 1567.22 0.342379 1.62533 0
M  V30 15276 O 1568.41 0.550379 1.8269 0
M  V30 15277 C 1565.55 1.428 3.14169 0
M  V30 15278 C 1564.66 2.68136 3.38714 0
M  V30 15279 C 1563.8 2.53559 4.66778 0
M  V30 15280 C 1562.84 3.74135 4.84447 0
M  V30 15281 N 1561.97 3.58332 6.03774 0
M  V30 15282 H 1566.81 2.44395 1.70514 0
M  V30 15283 H 1564.35 1.21309 0.832021 0
M  V30 15284 H 1566.31 1.37011 3.94061 0
M  V30 15285 H 1564.94 0.513057 3.18697 0
M  V30 15286 H 1563.99 2.84179 2.52877 0
M  V30 15287 H 1565.3 3.57684 3.47654 0
M  V30 15288 H 1564.46 2.45513 5.54805 0
M  V30 15289 H 1563.2 1.61545 4.60168 0
M  V30 15290 H 1562.2 3.82584 3.94854 0
M  V30 15291 H 1563.43 4.67165 4.92883 0
M  V30 15292 H 1561.37 2.69057 5.98284 0
M  V30 15293 H 1561.29 4.41485 6.13699 0
M  V30 15294 H 1562.56 3.54148 6.94406 0
M  V30 15295 N 1566.79 -0.886131 1.30328 0
M  V30 15296 C 1567.7 -2.02453 1.18532 0
M  V30 15297 C 1568.71 -1.7368 0.105506 0
M  V30 15298 O 1569.89 -1.98838 0.320217 0
M  V30 15299 C 1566.95 -3.3543 0.876792 0
M  V30 15300 C 1566.01 -3.77633 2.04185 0
M  V30 15301 C 1565.25 -5.04264 1.74795 0
M  V30 15302 O 1565.47 -5.66388 0.675323 0
M  V30 15303 O 1564.4 -5.42847 2.60001 0
M  V30 15304 H 1568.23 -2.15333 2.14162 0
M  V30 15305 H 1565.82 -1.01193 1.09911 0
M  V30 15306 H 1567.7 -4.15206 0.719882 0
M  V30 15307 H 1566.37 -3.23662 -0.0496117 0
M  V30 15308 H 1565.28 -2.98567 2.25408 0
M  V30 15309 H 1566.61 -3.94004 2.94994 0
M  V30 15310 N 1568.26 -1.13026 -1.09832 0
M  V30 15311 C 1569.17 -0.817051 -2.19912 0
M  V30 15312 C 1570.19 0.19667 -1.72885 0
M  V30 15313 O 1571.37 0.0287402 -2.01379 0
M  V30 15314 C 1568.43 -0.28304 -3.45543 0
M  V30 15315 C 1567.49 -1.35748 -4.07273 0
M  V30 15316 C 1566.73 -0.848855 -5.26906 0
M  V30 15317 O 1566.95 0.315104 -5.69529 0
M  V30 15318 O 1565.88 -1.62128 -5.79653 0
M  V30 15319 H 1569.71 -1.73663 -2.49148 0
M  V30 15320 H 1567.29 -0.907391 -1.18688 0
M  V30 15321 H 1569.18 0.00956876 -4.21399 0
M  V30 15322 H 1567.85 0.609018 -3.17919 0
M  V30 15323 H 1566.76 -1.70334 -3.33072 0
M  V30 15324 H 1568.09 -2.22353 -4.39113 0
M  V30 15325 N 1569.74 1.27735 -0.923117 0
M  V30 15326 C 1570.65 2.30734 -0.424124 0
M  V30 15327 C 1571.67 1.66872 0.49291 0
M  V30 15328 O 1572.84 1.97843 0.37683 0
M  V30 15329 C 1569.91 3.45227 0.319254 0
M  V30 15330 C 1568.97 4.2462 -0.632137 0
M  V30 15331 C 1568.2 5.33646 0.0758596 0
M  V30 15332 O 1568.43 5.55481 1.29602 0
M  V30 15333 O 1567.36 5.98966 -0.593624 0
M  V30 15334 H 1571.19 2.75444 -1.27923 0
M  V30 15335 H 1568.77 1.32601 -0.688288 0
M  V30 15336 H 1570.65 4.14874 0.73873 0
M  V30 15337 H 1569.33 3.02582 1.15004 0
M  V30 15338 H 1568.24 3.57525 -1.1012 0
M  V30 15339 H 1569.57 4.70969 -1.43001 0
M  V30 15340 N 1571.22 0.688118 1.41784 0
M  V30 15341 C 1572.13 0.018397 2.34593 0
M  V30 15342 C 1573.15 -0.774275 1.55824 0
M  V30 15343 O 1574.32 -0.713546 1.88336 0
M  V30 15344 C 1571.39 -0.911914 3.34492 0
M  V30 15345 C 1570.45 -0.112284 4.29153 0
M  V30 15346 C 1569.68 -0.998285 5.2428 0
M  V30 15347 O 1569.9 -2.23782 5.24669 0
M  V30 15348 O 1568.84 -0.451951 6.00201 0
M  V30 15349 H 1572.66 0.783224 2.93427 0
M  V30 15350 H 1570.25 0.448413 1.42512 0
M  V30 15351 H 1572.13 -1.4456 3.95829 0
M  V30 15352 H 1570.81 -1.65636 2.78112 0
M  V30 15353 H 1569.71 0.465822 3.71189 0
M  V30 15354 H 1571.05 0.593338 4.88611 0
M  V30 15355 N 1572.7 -1.51554 0.432352 0
M  V30 15356 C 1573.92 -2.06947 -0.136995 0
M  V30 15357 C 1574.35 -1.29817 -1.36122 0
M  V30 15358 O 1573.71 -0.334733 -1.78183 0
M  V30 15359 C 1573.75 -3.57871 -0.442785 0
M  V30 15360 O 1572.86 -3.82966 -1.53007 0
M  V30 15361 H 1572.2 -0.663988 -0.00405152 0
M  V30 15362 H 1574.73 -1.95225 0.612249 0
M  V30 15363 H 1574.74 -4.02042 -0.694694 0
M  V30 15364 H 1573.41 -4.13436 0.452013 0
M  V30 15365 H 1571.99 -3.50661 -1.26851 0
M  V30 15366 N 1574.18 -0.163538 -1.56749 0
M  V30 15367 C 1575.4 0.493087 -2.01453 0
M  V30 15368 C 1575.83 1.56535 -1.043 0
M  V30 15369 O 1575.18 1.81287 -0.0213039 0
M  V30 15370 C 1575.23 1.05546 -3.44808 0
M  V30 15371 O 1574.34 2.16977 -3.50706 0
M  V30 15372 H 1573.68 0.118905 -0.653267 0
M  V30 15373 H 1576.21 -0.265139 -2.02875 0
M  V30 15374 H 1576.22 1.38002 -3.83953 0
M  V30 15375 H 1574.89 0.270333 -4.1502 0
M  V30 15376 H 1573.47 1.85625 -3.23416 0
M  V30 15377 N 1575.65 1.57214 0.110213 0
M  V30 15378 C 1576.88 1.8988 0.834297 0
M  V30 15379 C 1577.3 0.756347 1.72224 0
M  V30 15380 O 1576.66 -0.292768 1.78921 0
M  V30 15381 C 1576.71 3.21338 1.63629 0
M  V30 15382 O 1575.81 3.07862 2.74399 0
M  V30 15383 H 1575.16 0.62283 0.23017 0
M  V30 15384 H 1577.69 2.04402 0.0899726 0
M  V30 15385 H 1577.7 3.54275 2.02369 0
M  V30 15386 H 1576.37 4.04079 0.984521 0
M  V30 15387 H 1574.95 2.8641 2.38797 0
M  V30 15388 N 1577.13 -0.380637 1.52934 0
M  V30 15389 C 1578.08 -1.48584 1.78957 0
M  V30 15390 C 1579.07 -1.56103 0.657901 0
M  V30 15391 O 1580.28 -1.59169 0.84055 0
M  V30 15392 H 1576.66 -0.494687 0.566382 0
M  V30 15393 H 1578.63 -1.23833 2.71492 0
M  V30 15394 C 1577.38 -2.85615 1.98291 0
M  V30 15395 H 1576.7 -2.80583 2.84804 0
M  V30 15396 H 1578.14 -3.62164 2.20485 0
M  V30 15397 C 1576.6 -3.28267 0.757764 0
M  V30 15398 O 1577.13 -4.01654 -0.0608007 0
M  V30 15399 N 1575.33 -2.84641 0.585486 0
M  V30 15400 H 1574.88 -2.25087 1.25274 0
M  V30 15401 H 1574.84 -3.13536 -0.232871 0
M  V30 15402 N 1578.61 -1.44039 -0.639573 0
M  V30 15403 C 1579.86 -1.46088 -1.39652 0
M  V30 15404 C 1580.18 -0.0914602 -1.94785 0
M  V30 15405 O 1579.45 0.875097 -1.75268 0
M  V30 15406 H 1578.03 -0.537901 -0.518335 0
M  V30 15407 H 1580.69 -1.79751 -0.753365 0
M  V30 15408 H 1579.79 -2.1814 -2.23207 0
M  V30 15409 N 1580.09 0.879207 -1.30796 0
M  V30 15410 C 1581.32 1.66449 -1.22891 0
M  V30 15411 C 1581.73 1.87658 0.207306 0
M  V30 15412 O 1581.09 1.42818 1.13619 0
M  V30 15413 C 1581.14 3.03765 -1.95982 0
M  V30 15414 O 1580.86 2.8351 -3.33997 0
M  V30 15415 C 1582.36 3.98204 -1.94804 0
M  V30 15416 H 1579.58 0.51922 -0.425031 0
M  V30 15417 H 1582.13 1.09807 -1.72519 0
M  V30 15418 H 1580.28 3.57124 -1.50138 0
M  V30 15419 H 1580.69 3.70663 -3.71092 0
M  V30 15420 H 1582.17 4.91901 -2.50474 0
M  V30 15421 H 1582.65 4.29277 -0.928336 0
M  V30 15422 H 1583.25 3.50781 -2.40485 0
M  V30 15423 N 1581.57 1.13606 1.09231 0
M  V30 15424 C 1582.53 0.818197 2.14099 0
M  V30 15425 C 1583.53 -0.173275 1.59864 0
M  V30 15426 O 1584.72 0.05405 1.74116 0
M  V30 15427 C 1581.85 0.218138 3.40201 0
M  V30 15428 H 1583.05 1.74748 2.43727 0
M  V30 15429 H 1580.6 0.940962 1.24802 0
M  V30 15430 H 1581.33 -0.720269 3.162 0
M  V30 15431 H 1581.12 0.932156 3.80859 0
M  V30 15432 H 1582.61 0.0126639 4.17598 0
M  V30 15433 N 1583.05 -1.27244 0.929878 0
M  V30 15434 C 1584.27 -1.98912 0.587277 0
M  V30 15435 C 1584.7 -1.68888 -0.828168 0
M  V30 15436 O 1584.05 -0.930394 -1.55606 0
M  V30 15437 C 1584.1 -3.51097 0.822399 0
M  V30 15438 O 1583.21 -4.12251 -0.110968 0
M  V30 15439 H 1582.55 -0.624404 0.225867 0
M  V30 15440 H 1585.08 -1.61997 1.24973 0
M  V30 15441 H 1585.09 -4.01255 0.738824 0
M  V30 15442 H 1583.76 -3.72282 1.85416 0
M  V30 15443 H 1582.34 -3.72893 0.0227053 0
M  V30 15444 N 1584.52 -0.695628 -1.41417 0
M  V30 15445 C 1585.46 0.00883515 -2.29198 0
M  V30 15446 C 1586.47 0.744337 -1.44788 0
M  V30 15447 O 1587.66 0.59503 -1.6829 0
M  V30 15448 C 1584.76 1.0366 -3.22657 0
M  V30 15449 C 1583.93 0.37071 -4.35826 0
M  V30 15450 C 1582.99 1.3011 -5.09861 0
M  V30 15451 O 1582.02 0.793461 -5.63642 0
M  V30 15452 N 1583.22 2.63343 -5.1733 0
M  V30 15453 H 1585.98 -0.744795 -2.90298 0
M  V30 15454 H 1583.54 -0.541663 -1.5257 0
M  V30 15455 H 1585.54 1.66075 -3.69054 0
M  V30 15456 H 1584.11 1.69177 -2.62865 0
M  V30 15457 H 1583.33 -0.433315 -3.91811 0
M  V30 15458 H 1584.61 -0.0923178 -5.08716 0
M  V30 15459 H 1584.01 3.07103 -4.75083 0
M  V30 15460 H 1582.57 3.20952 -5.67303 0
M  V30 15461 N 1586 1.51322 -0.440383 0
M  V30 15462 C 1587.23 2.07017 0.126018 0
M  V30 15463 C 1587.65 1.30537 1.35431 0
M  V30 15464 O 1587.01 0.344178 1.78003 0
M  V30 15465 C 1587.06 3.58101 0.4238 0
M  V30 15466 O 1586.16 3.83772 1.50973 0
M  V30 15467 H 1585.5 0.664 0.000530178 0
M  V30 15468 H 1588.03 1.94897 -0.622594 0
M  V30 15469 H 1588.04 4.02405 0.673363 0
M  V30 15470 H 1586.72 4.13191 -0.473932 0
M  V30 15471 H 1585.29 3.51329 1.24989 0
M  V30 15472 N 1587.48 0.171848 1.5666 0
M  V30 15473 C 1588.71 -0.479221 2.01274 0
M  V30 15474 C 1589.12 -1.56771 1.05206 0
M  V30 15475 O 1588.48 -1.82423 0.0530164 0
M  V30 15476 C 1588.53 -1.05705 3.457 0
M  V30 15477 O 1588.25 -0.0120133 4.38098 0
M  V30 15478 C 1589.75 -1.78629 4.05717 0
M  V30 15479 H 1586.97 -0.122598 0.659705 0
M  V30 15480 H 1589.52 0.273733 2.0266 0
M  V30 15481 H 1587.67 -1.7605 3.45087 0
M  V30 15482 H 1588.09 -0.438714 5.22662 0
M  V30 15483 H 1589.56 -2.14319 5.08696 0
M  V30 15484 H 1590.04 -2.68149 3.4784 0
M  V30 15485 H 1590.64 -1.12925 4.10034 0
M  V30 15486 N 1588.96 -1.5727 -0.101874 0
M  V30 15487 C 1590.18 -1.90319 -0.824215 0
M  V30 15488 C 1590.61 -0.765469 -1.7182 0
M  V30 15489 O 1589.97 0.283275 -1.79073 0
M  V30 15490 C 1590.01 -3.22201 -1.61922 0
M  V30 15491 O 1589.12 -3.09313 -2.72762 0
M  V30 15492 H 1588.46 -0.624042 -0.226864 0
M  V30 15493 H 1590.99 -2.04447 -0.0791314 0
M  V30 15494 H 1591 -3.55343 -2.00487 0
M  V30 15495 H 1589.67 -4.04596 -0.963078 0
M  V30 15496 H 1588.25 -2.87672 -2.37274 0
M  V30 15497 N 1590.44 0.372521 -1.53134 0
M  V30 15498 C 1591.85 0.949671 -1.60742 0
M  V30 15499 C 1592.2 1.90475 -0.470501 0
M  V30 15500 O 1591.32 2.12594 0.404085 0
M  V30 15501 C 1591.92 1.72918 -2.9135 0
M  V30 15502 C 1590.48 2.25577 -3.01317 0
M  V30 15503 C 1589.62 1.06612 -2.55986 0
M  V30 15504 H 1592.57 0.151533 -1.57975 0
M  V30 15505 H 1592.6 2.58982 -2.78763 0
M  V30 15506 H 1592.11 1.0338 -3.74078 0
M  V30 15507 H 1590.21 2.98378 -2.23162 0
M  V30 15508 H 1590.32 2.53935 -4.06268 0
M  V30 15509 H 1588.69 1.43105 -2.10697 0
M  V30 15510 H 1589.47 0.38584 -3.41125 0
M  V30 15511 N 1591.91 1.44376 0.631925 0
M  V30 15512 C 1593.14 1.5082 1.42366 0
M  V30 15513 C 1593.56 0.133858 1.87623 0
M  V30 15514 O 1592.92 -0.876789 1.58689 0
M  V30 15515 C 1592.97 2.47698 2.62065 0
M  V30 15516 O 1592.07 1.97796 3.61871 0
M  V30 15517 H 1591.41 0.509318 0.426018 0
M  V30 15518 H 1593.94 1.89502 0.771376 0
M  V30 15519 H 1593.95 2.65708 3.09618 0
M  V30 15520 H 1592.63 3.47526 2.2847 0
M  V30 15521 H 1591.21 1.89549 3.21131 0
M  V30 15522 N 1593.39 -0.872258 1.31261 0
M  V30 15523 C 1594.32 -1.9853 1.14537 0
M  V30 15524 C 1595.34 -1.62578 0.0850723 0
M  V30 15525 O 1596.53 -1.75379 0.332343 0
M  V30 15526 C 1593.63 -3.31005 0.72727 0
M  V30 15527 C 1592.8 -3.95313 1.87208 0
M  V30 15528 C 1591.86 -5.06101 1.44042 0
M  V30 15529 O 1590.88 -5.27045 2.1497 0
M  V30 15530 N 1592.09 -5.79581 0.32653 0
M  V30 15531 H 1594.85 -2.13423 2.10406 0
M  V30 15532 H 1592.41 -1.0461 1.23565 0
M  V30 15533 H 1594.4 -4.02502 0.421255 0
M  V30 15534 H 1592.97 -3.12287 -0.13975 0
M  V30 15535 H 1592.19 -3.16825 2.34553 0
M  V30 15536 H 1593.48 -4.35015 2.63893 0
M  V30 15537 H 1592.88 -5.65083 -0.264202 0
M  V30 15538 H 1591.44 -6.51751 0.0800358 0
M  V30 15539 N 1594.87 -1.14184 -1.08627 0
M  V30 15540 C 1596.28 -0.920108 -1.62453 0
M  V30 15541 C 1596.63 0.541577 -1.88577 0
M  V30 15542 O 1595.76 1.41002 -1.64157 0
M  V30 15543 C 1596.35 -1.6638 -2.95132 0
M  V30 15544 C 1594.91 -1.48771 -3.45752 0
M  V30 15545 C 1594.06 -1.68774 -2.20024 0
M  V30 15546 H 1597.01 -1.29396 -0.91882 0
M  V30 15547 H 1597.03 -1.12568 -3.63468 0
M  V30 15548 H 1596.54 -2.72759 -2.76087 0
M  V30 15549 H 1594.64 -0.44729 -3.69905 0
M  V30 15550 H 1594.76 -2.25619 -4.2265 0
M  V30 15551 H 1593.12 -1.11321 -2.29084 0
M  V30 15552 H 1593.9 -2.76491 -2.03489 0
M  V30 15553 N 1596.35 1.26749 -0.936613 0
M  V30 15554 C 1597.76 1.46284 -0.638218 0
M  V30 15555 C 1597.96 1.84509 0.80986 0
M  V30 15556 O 1597.02 1.96399 1.58693 0
M  V30 15557 C 1598.33 2.54867 -1.59573 0
M  V30 15558 C 1599.88 2.68721 -1.60493 0
M  V30 15559 C 1600.36 3.80471 -2.54963 0
M  V30 15560 N 1601.85 3.87857 -2.53221 0
M  V30 15561 C 1602.58 4.73767 -3.23005 0
M  V30 15562 N 1602.08 5.641 -4.02198 0
M  V30 15563 N 1603.87 4.67574 -3.11979 0
M  V30 15564 H 1596.02 1.00224 -1.87267 0
M  V30 15565 H 1598.29 0.501478 -0.804502 0
M  V30 15566 H 1597.99 2.33594 -2.62919 0
M  V30 15567 H 1597.87 3.52433 -1.34427 0
M  V30 15568 H 1600.25 2.8937 -0.578729 0
M  V30 15569 H 1600.33 1.71613 -1.89691 0
M  V30 15570 H 1599.98 3.60575 -3.57698 0
M  V30 15571 H 1599.91 4.77026 -2.23056 0
M  V30 15572 H 1602.4 3.23272 -1.95714 0
M  V30 15573 H 1602.71 6.26535 -4.52409 0
M  V30 15574 H 1601.06 5.63866 -4.063 0
M  V30 15575 H 1604.25 3.96004 -2.49596 0
M  V30 15576 H 1604.42 5.34308 -3.66633 0
M  V30 15577 N 1597.83 0.703118 1.41046 0
M  V30 15578 C 1598.77 0.0425767 2.30761 0
M  V30 15579 C 1599.74 -0.763406 1.47517 0
M  V30 15580 O 1600.93 -0.7299 1.76287 0
M  V30 15581 C 1598.07 -0.882353 3.33629 0
M  V30 15582 C 1597.18 -0.0671799 4.31948 0
M  V30 15583 C 1596.32 -0.990443 5.21885 0
M  V30 15584 C 1595.36 -0.168622 6.11868 0
M  V30 15585 N 1594.49 -1.04609 6.94263 0
M  V30 15586 H 1599.33 0.813363 2.86685 0
M  V30 15587 H 1596.87 0.412804 1.41189 0
M  V30 15588 H 1598.83 -1.43273 3.91827 0
M  V30 15589 H 1597.46 -1.61946 2.79237 0
M  V30 15590 H 1596.51 0.600219 3.75635 0
M  V30 15591 H 1597.82 0.569624 4.95537 0
M  V30 15592 H 1596.98 -1.60979 5.84954 0
M  V30 15593 H 1595.71 -1.66109 4.5854 0
M  V30 15594 H 1594.72 0.463746 5.47841 0
M  V30 15595 H 1595.94 0.49834 6.77269 0
M  V30 15596 H 1593.89 -1.70262 6.33519 0
M  V30 15597 H 1593.81 -0.465036 7.54568 0
M  V30 15598 H 1595.08 -1.65201 7.61793 0
M  V30 15599 N 1599.3 -1.51086 0.448402 0
M  V30 15600 C 1600.25 -2.28015 -0.357438 0
M  V30 15601 C 1601.22 -1.32079 -1.00719 0
M  V30 15602 O 1602.41 -1.60995 -1.02398 0
M  V30 15603 C 1599.55 -3.13324 -1.44644 0
M  V30 15604 C 1598.66 -4.24267 -0.813729 0
M  V30 15605 C 1597.79 -4.96868 -1.87871 0
M  V30 15606 C 1596.83 -5.99716 -1.22502 0
M  V30 15607 N 1595.97 -6.65682 -2.23185 0
M  V30 15608 H 1600.81 -2.96436 0.30493 0
M  V30 15609 H 1598.35 -1.46203 0.162222 0
M  V30 15610 H 1600.31 -3.61119 -2.08924 0
M  V30 15611 H 1598.94 -2.46996 -2.07829 0
M  V30 15612 H 1597.99 -3.80354 -0.0589414 0
M  V30 15613 H 1599.3 -4.97917 -0.296587 0
M  V30 15614 H 1598.45 -5.48266 -2.59786 0
M  V30 15615 H 1597.19 -4.22873 -2.42961 0
M  V30 15616 H 1596.2 -5.476 -0.491388 0
M  V30 15617 H 1597.42 -6.75674 -0.681315 0
M  V30 15618 H 1595.37 -5.94493 -2.77334 0
M  V30 15619 H 1595.29 -7.35134 -1.76393 0
M  V30 15620 H 1596.55 -7.21707 -2.9455 0
M  V30 15621 N 1600.78 -0.180154 -1.56567 0
M  V30 15622 C 1602.03 0.462656 -1.96322 0
M  V30 15623 C 1602.34 1.63788 -1.06925 0
M  V30 15624 O 1603.55 2.34751 -1.36398 0
M  V30 15625 C 1602.01 0.874492 -3.49114 0
M  V30 15626 C 1601.61 -0.27562 -4.47151 0
M  V30 15627 C 1603.36 1.48522 -3.9767 0
M  V30 15628 C 1601.27 0.156341 -5.91193 0
M  V30 15629 H 1600.2 0.176619 -0.733022 0
M  V30 15630 H 1602.85 -0.269793 -1.81506 0
M  V30 15631 H 1601.23 1.66318 -3.59381 0
M  V30 15632 H 1602.4 -1.05304 -4.48606 0
M  V30 15633 H 1600.72 -0.796878 -4.08704 0
M  V30 15634 H 1603.31 1.8206 -5.02751 0
M  V30 15635 H 1603.66 2.38634 -3.41115 0
M  V30 15636 H 1604.19 0.760806 -3.90457 0
M  V30 15637 H 1600.93 -0.710221 -6.51641 0
M  V30 15638 H 1600.45 0.898933 -5.93025 0
M  V30 15639 H 1602.13 0.597228 -6.44238 0
M  V30 15640 N 1602.26 1.57322 0.0935319 0
M  V30 15641 C 1603.51 1.86167 0.796739 0
M  V30 15642 C 1603.84 0.768893 1.78657 0
M  V30 15643 O 1603.09 -0.237358 1.94255 0
M  V30 15644 C 1603.39 3.21605 1.55901 0
M  V30 15645 C 1603.06 4.45256 0.711165 0
M  V30 15646 C 1601.72 4.78826 0.477442 0
M  V30 15647 C 1604.07 5.21058 0.121859 0
M  V30 15648 C 1601.4 5.85622 -0.355425 0
M  V30 15649 C 1603.75 6.28734 -0.69834 0
M  V30 15650 C 1602.41 6.60818 -0.94214 0
M  V30 15651 H 1601.68 0.681235 0.291547 0
M  V30 15652 H 1604.33 1.91412 0.0581736 0
M  V30 15653 H 1602.64 3.12052 2.36919 0
M  V30 15654 H 1604.33 3.41151 2.10753 0
M  V30 15655 H 1600.92 4.1897 0.903444 0
M  V30 15656 H 1605.11 4.95454 0.289588 0
M  V30 15657 H 1600.36 6.08891 -0.553277 0
M  V30 15658 H 1604.54 6.8664 -1.16183 0
M  V30 15659 H 1602.16 7.43401 -1.5893 0
M  V30 15660 N 1603.74 -0.364395 1.53329 0
M  V30 15661 C 1604.69 -1.44645 1.79851 0
M  V30 15662 C 1605.66 -1.53151 0.642951 0
M  V30 15663 O 1606.84 -1.6902 0.885252 0
M  V30 15664 C 1603.98 -2.81575 1.99523 0
M  V30 15665 C 1603.09 -2.82026 3.27239 0
M  V30 15666 C 1602.23 -4.1054 3.37091 0
M  V30 15667 C 1601.27 -4.05138 4.58835 0
M  V30 15668 N 1600.4 -5.25303 4.65834 0
M  V30 15669 H 1605.24 -1.21329 2.72182 0
M  V30 15670 H 1602.78 -0.588143 1.34831 0
M  V30 15671 H 1604.74 -3.61124 2.08915 0
M  V30 15672 H 1603.37 -3.03288 1.10527 0
M  V30 15673 H 1602.42 -1.94704 3.26794 0
M  V30 15674 H 1603.73 -2.73907 4.16865 0
M  V30 15675 H 1602.89 -4.98504 3.45801 0
M  V30 15676 H 1601.63 -4.21413 2.45483 0
M  V30 15677 H 1600.63 -3.1556 4.50224 0
M  V30 15678 H 1601.86 -3.95866 5.51785 0
M  V30 15679 H 1599.8 -5.36759 3.77128 0
M  V30 15680 H 1599.72 -5.19358 5.49367 0
M  V30 15681 H 1600.99 -6.15096 4.78829 0
M  V30 15682 N 1605.22 -1.44709 -0.62426 0
M  V30 15683 C 1606.63 -1.42523 -1.20599 0
M  V30 15684 C 1606.98 -0.144129 -1.9567 0
M  V30 15685 O 1606.1 0.755175 -2.02796 0
M  V30 15686 C 1606.7 -2.58194 -2.19365 0
M  V30 15687 C 1605.26 -2.59181 -2.72951 0
M  V30 15688 C 1604.4 -2.34461 -1.48065 0
M  V30 15689 H 1607.36 -1.5319 -0.414532 0
M  V30 15690 H 1607.38 -2.3134 -3.02096 0
M  V30 15691 H 1606.89 -3.5142 -1.64699 0
M  V30 15692 H 1604.99 -1.69916 -3.31601 0
M  V30 15693 H 1605.1 -3.57884 -3.18521 0
M  V30 15694 H 1603.47 -1.83688 -1.76439 0
M  V30 15695 H 1604.25 -3.2981 -0.952918 0
M  V30 15696 N 1606.69 0.865285 -1.31722 0
M  V30 15697 C 1607.6 2.00542 -1.21738 0
M  V30 15698 C 1608.62 1.7349 -0.133124 0
M  V30 15699 O 1609.8 1.98303 -0.351809 0
M  V30 15700 C 1606.86 3.33993 -0.930045 0
M  V30 15701 C 1605.92 3.74337 -2.10167 0
M  V30 15702 C 1605.16 5.0142 -1.82795 0
M  V30 15703 O 1605.38 5.65242 -0.765345 0
M  V30 15704 O 1604.31 5.38642 -2.68604 0
M  V30 15705 H 1608.14 2.11898 -2.17561 0
M  V30 15706 H 1605.72 0.994313 -1.11507 0
M  V30 15707 H 1607.61 4.14008 -0.785846 0
M  V30 15708 H 1606.28 3.237 -0.00188642 0
M  V30 15709 H 1605.19 2.94943 -2.3013 0
M  V30 15710 H 1606.52 3.89261 -3.01225 0
M  V30 15711 N 1608.17 1.14759 1.0802 0
M  V30 15712 C 1609.08 0.851934 2.18585 0
M  V30 15713 C 1610.1 -0.16914 1.73176 0
M  V30 15714 O 1611.27 0.00330114 2.014 0
M  V30 15715 C 1608.34 0.337977 3.45049 0
M  V30 15716 C 1607.4 1.4221 4.05061 0
M  V30 15717 C 1606.63 0.932574 5.25489 0
M  V30 15718 O 1606.86 -0.224457 5.69958 0
M  V30 15719 O 1605.79 1.7133 5.77001 0
M  V30 15720 H 1609.62 1.77605 2.46354 0
M  V30 15721 H 1607.2 0.926159 1.17229 0
M  V30 15722 H 1609.08 0.0574734 4.21361 0
M  V30 15723 H 1607.76 -0.558363 3.18848 0
M  V30 15724 H 1606.67 1.75612 3.3032 0
M  V30 15725 H 1608 2.29311 4.3552 0
M  V30 15726 N 1609.65 -1.26251 0.943322 0
M  V30 15727 C 1610.58 -2.28673 0.472347 0
M  V30 15728 C 1611.56 -1.63319 -0.475481 0
M  V30 15729 O 1612.75 -1.90508 -0.376875 0
M  V30 15730 C 1609.88 -3.46316 -0.261286 0
M  V30 15731 C 1608.83 -4.23771 0.600192 0
M  V30 15732 C 1608.16 -5.3405 -0.263525 0
M  V30 15733 C 1609.46 -4.87576 1.87262 0
M  V30 15734 H 1611.15 -2.68319 1.32836 0
M  V30 15735 H 1608.7 -1.28987 0.640182 0
M  V30 15736 H 1610.65 -4.1708 -0.601821 0
M  V30 15737 H 1609.37 -3.05629 -1.15146 0
M  V30 15738 H 1608.03 -3.54774 0.923651 0
M  V30 15739 H 1607.68 -4.89604 -1.15312 0
M  V30 15740 H 1607.38 -5.86784 0.309495 0
M  V30 15741 H 1608.9 -6.07652 -0.599281 0
M  V30 15742 H 1610.32 -5.50544 1.59919 0
M  V30 15743 H 1608.72 -5.50437 2.39038 0
M  V30 15744 H 1609.79 -4.10397 2.58268 0
M  V30 15745 N 1611.13 -0.710588 -1.40671 0
M  V30 15746 C 1612.55 -0.383638 -1.54921 0
M  V30 15747 C 1612.75 1.10805 -1.68299 0
M  V30 15748 O 1611.8 1.89406 -1.66978 0
M  V30 15749 C 1613.11 -1.14532 -2.78034 0
M  V30 15750 C 1614.66 -1.13113 -2.91847 0
M  V30 15751 C 1615.14 -1.87487 -4.17867 0
M  V30 15752 N 1616.63 -1.8453 -4.24856 0
M  V30 15753 C 1617.36 -2.38904 -5.2126 0
M  V30 15754 N 1616.86 -3.01813 -6.23603 0
M  V30 15755 N 1618.65 -2.29075 -5.13304 0
M  V30 15756 H 1610.8 -1.67789 -1.30233 0
M  V30 15757 H 1613.07 -0.70892 -0.629393 0
M  V30 15758 H 1612.77 -2.19983 -2.74409 0
M  V30 15759 H 1612.65 -0.733669 -3.69996 0
M  V30 15760 H 1615.03 -0.0848347 -2.94978 0
M  V30 15761 H 1615.11 -1.58196 -2.01017 0
M  V30 15762 H 1614.76 -2.92104 -4.15497 0
M  V30 15763 H 1614.69 -1.39827 -5.07697 0
M  V30 15764 H 1617.18 -1.38679 -3.51535 0
M  V30 15765 H 1617.49 -3.40832 -6.9358 0
M  V30 15766 H 1615.84 -3.05896 -6.24062 0
M  V30 15767 H 1619.03 -1.79589 -4.32279 0
M  V30 15768 H 1619.2 -2.71752 -5.88264 0
M  V30 15769 N 1612.61 1.50847 -0.456408 0
M  V30 15770 C 1613.54 2.26004 0.381421 0
M  V30 15771 C 1614.55 1.30757 0.969872 0
M  V30 15772 O 1615.74 1.56375 0.86077 0
M  V30 15773 C 1612.84 3.01506 1.54748 0
M  V30 15774 C 1612.01 4.23997 1.07448 0
M  V30 15775 C 1611.07 4.81917 2.11288 0
M  V30 15776 O 1610.1 5.43238 1.69945 0
M  V30 15777 N 1611.3 4.67622 3.43962 0
M  V30 15778 H 1614.07 2.98545 -0.262823 0
M  V30 15779 H 1611.63 1.59347 -0.286357 0
M  V30 15780 H 1613.62 3.37137 2.23877 0
M  V30 15781 H 1612.19 2.31856 2.0967 0
M  V30 15782 H 1611.41 3.93642 0.209584 0
M  V30 15783 H 1612.7 5.03446 0.736144 0
M  V30 15784 H 1612.1 4.18821 3.8027 0
M  V30 15785 H 1610.65 5.07562 4.0893 0
M  V30 15786 N 1614.09 0.188454 1.56469 0
M  V30 15787 C 1615.05 -0.721282 2.17555 0
M  V30 15788 C 1616.05 -1.14579 1.1282 0
M  V30 15789 O 1617.24 -1.05996 1.38241 0
M  V30 15790 C 1614.37 -1.9839 2.77226 0
M  V30 15791 H 1615.56 -0.189218 2.99302 0
M  V30 15792 H 1613.12 -0.0611533 1.5618 0
M  V30 15793 H 1613.85 -2.55864 1.99259 0
M  V30 15794 H 1613.64 -1.68831 3.53891 0
M  V30 15795 H 1615.13 -2.63277 3.24153 0
M  V30 15796 N 1615.56 -1.5737 -0.0851874 0
M  V30 15797 C 1616.49 -2.05796 -1.10319 0
M  V30 15798 C 1617.47 -0.948796 -1.4118 0
M  V30 15799 O 1618.66 -1.22069 -1.51039 0
M  V30 15800 C 1615.79 -2.49069 -2.42037 0
M  V30 15801 C 1614.74 -3.6374 -2.25561 0
M  V30 15802 C 1614.07 -3.93023 -3.62543 0
M  V30 15803 C 1615.37 -4.94274 -1.68793 0
M  V30 15804 H 1617.06 -2.91095 -0.700274 0
M  V30 15805 H 1614.61 -1.40039 -0.335405 0
M  V30 15806 H 1616.56 -2.81558 -3.13534 0
M  V30 15807 H 1615.29 -1.60781 -2.84283 0
M  V30 15808 H 1613.95 -3.31513 -1.56507 0
M  V30 15809 H 1613.59 -3.01887 -4.02335 0
M  V30 15810 H 1613.29 -4.70229 -3.52362 0
M  V30 15811 H 1614.82 -4.27995 -4.35491 0
M  V30 15812 H 1616.23 -5.25079 -2.30141 0
M  V30 15813 H 1614.63 -5.75711 -1.69344 0
M  V30 15814 H 1615.7 -4.80548 -0.648204 0
M  V30 15815 N 1617.04 0.356258 -1.53521 0
M  V30 15816 C 1617.97 1.45965 -1.75413 0
M  V30 15817 C 1618.95 1.51015 -0.602774 0
M  V30 15818 O 1620.14 1.68925 -0.836459 0
M  V30 15819 C 1617.26 2.84276 -1.84132 0
M  V30 15820 C 1616.31 2.96909 -3.06182 0
M  V30 15821 S 1617.14 2.64695 -4.65507 0
M  V30 15822 C 1618.3 4.05138 -4.77089 0
M  V30 15823 H 1618.53 1.27176 -2.68726 0
M  V30 15824 H 1616.06 0.551163 -1.44227 0
M  V30 15825 H 1618.02 3.63965 -1.89842 0
M  V30 15826 H 1616.68 3.00369 -0.918542 0
M  V30 15827 H 1615.88 3.98226 -3.08921 0
M  V30 15828 H 1615.48 2.25154 -2.98633 0
M  V30 15829 H 1617.77 4.99502 -4.57717 0
M  V30 15830 H 1618.71 4.074 -5.79164 0
M  V30 15831 H 1619.12 3.92572 -4.05644 0
M  V30 15832 N 1618.52 1.45038 0.616577 0
M  V30 15833 C 1619.93 1.4316 1.19842 0
M  V30 15834 C 1620.28 0.154504 1.95591 0
M  V30 15835 O 1619.41 -0.744409 2.03193 0
M  V30 15836 C 1620 2.59354 2.17993 0
M  V30 15837 C 1618.56 2.60625 2.71573 0
M  V30 15838 C 1617.71 2.35243 1.4682 0
M  V30 15839 H 1620.66 1.53408 0.406402 0
M  V30 15840 H 1620.68 2.32939 3.00865 0
M  V30 15841 H 1620.19 3.52288 1.62833 0
M  V30 15842 H 1618.29 1.71672 3.30695 0
M  V30 15843 H 1618.41 3.59568 3.16619 0
M  V30 15844 H 1616.77 1.84622 1.75462 0
M  V30 15845 H 1617.55 3.3031 0.935414 0
M  V30 15846 N 1620 -0.858287 1.32179 0
M  V30 15847 C 1621.23 -1.64473 1.25523 0
M  V30 15848 C 1621.64 -1.87964 -0.177425 0
M  V30 15849 O 1621 -1.44607 -1.11333 0
M  V30 15850 C 1621.05 -3.00609 2.0079 0
M  V30 15851 O 1620.77 -2.7816 3.38465 0
M  V30 15852 C 1622.27 -3.95054 2.01115 0
M  V30 15853 H 1619.49 -0.512393 0.433237 0
M  V30 15854 H 1622.03 -1.07048 1.74244 0
M  V30 15855 H 1620.19 -3.5469 1.55801 0
M  V30 15856 H 1620.6 -3.64712 3.76942 0
M  V30 15857 H 1622.08 -4.87854 2.58268 0
M  V30 15858 H 1622.55 -4.27746 0.996513 0
M  V30 15859 H 1623.16 -3.4691 2.46035 0
M  V30 15860 N 1621.48 -1.1533 -1.07409 0
M  V30 15861 C 1622.41 -0.872476 -2.16587 0
M  V30 15862 C 1623.39 0.176683 -1.6918 0
M  V30 15863 O 1624.57 0.0311826 -1.94175 0
M  V30 15864 C 1621.7 -0.360342 -3.45426 0
M  V30 15865 C 1620.66 -1.34611 -4.06281 0
M  V30 15866 C 1619.98 -0.692848 -5.30192 0
M  V30 15867 C 1621.28 -2.71191 -4.46378 0
M  V30 15868 H 1622.98 -1.78546 -2.40336 0
M  V30 15869 H 1620.52 -0.859895 -1.15507 0
M  V30 15870 H 1622.47 -0.151429 -4.21128 0
M  V30 15871 H 1621.2 0.588109 -3.21261 0
M  V30 15872 H 1619.86 -1.54137 -3.32622 0
M  V30 15873 H 1619.51 0.261732 -5.02319 0
M  V30 15874 H 1619.21 -1.35071 -5.71865 0
M  V30 15875 H 1620.73 -0.493695 -6.08601 0
M  V30 15876 H 1622.14 -2.55513 -5.13212 0
M  V30 15877 H 1620.54 -3.33345 -4.99 0
M  V30 15878 H 1621.61 -3.273 -3.57775 0
M  V30 15879 N 1622.95 1.25748 -0.950004 0
M  V30 15880 C 1623.86 2.29783 -0.472971 0
M  V30 15881 C 1624.88 1.6788 0.457403 0
M  V30 15882 O 1626.06 1.98598 0.334779 0
M  V30 15883 C 1623.12 3.45826 0.245955 0
M  V30 15884 C 1622.18 4.23184 -0.722063 0
M  V30 15885 C 1621.41 5.33687 -0.0373517 0
M  V30 15886 O 1621.64 5.58105 1.1779 0
M  V30 15887 O 1620.57 5.97572 -0.72054 0
M  V30 15888 H 1624.4 2.72668 -1.33737 0
M  V30 15889 H 1621.98 1.31111 -0.71626 0
M  V30 15890 H 1623.86 4.16348 0.650563 0
M  V30 15891 H 1622.54 3.04953 1.0856 0
M  V30 15892 H 1621.45 3.55109 -1.17679 0
M  V30 15893 H 1622.78 4.67829 -1.52959 0
M  V30 15894 N 1624.43 0.718038 1.40292 0
M  V30 15895 C 1625.39 0.0757483 2.29075 0
M  V30 15896 C 1626.39 -0.684831 1.45488 0
M  V30 15897 O 1627.58 -0.516369 1.66371 0
M  V30 15898 C 1624.72 -0.902534 3.28736 0
M  V30 15899 H 1625.91 0.857729 2.87373 0
M  V30 15900 H 1623.46 0.482839 1.48655 0
M  V30 15901 H 1624.2 -1.71148 2.75461 0
M  V30 15902 H 1623.98 -0.360009 3.90444 0
M  V30 15903 H 1625.47 -1.34903 3.9521 0
M  V30 15904 N 1625.91 -1.50602 0.464402 0
M  V30 15905 C 1626.84 -2.31252 -0.323263 0
M  V30 15906 C 1627.82 -1.37856 -0.996476 0
M  V30 15907 O 1629.01 -1.66777 -0.994933 0
M  V30 15908 C 1626.14 -3.17414 -1.40945 0
M  V30 15909 C 1625.09 -4.19307 -0.858226 0
M  V30 15910 C 1624.42 -4.94164 -2.0422 0
M  V30 15911 C 1625.72 -5.22148 0.125921 0
M  V30 15912 H 1627.41 -2.97349 0.34983 0
M  V30 15913 H 1624.96 -1.42997 0.169685 0
M  V30 15914 H 1626.91 -3.72627 -1.96791 0
M  V30 15915 H 1625.63 -2.49189 -2.11122 0
M  V30 15916 H 1624.29 -3.65185 -0.321785 0
M  V30 15917 H 1623.94 -4.22417 -2.7308 0
M  V30 15918 H 1623.64 -5.63083 -1.67963 0
M  V30 15919 H 1625.16 -5.5221 -2.60569 0
M  V30 15920 H 1626.58 -5.72272 -0.343136 0
M  V30 15921 H 1624.98 -5.98749 0.402433 0
M  V30 15922 H 1626.05 -4.73307 1.05399 0
M  V30 15923 N 1627.39 -0.19675 -1.56367 0
M  V30 15924 C 1628.62 0.446491 -2.01718 0
M  V30 15925 C 1629.03 1.55621 -1.07604 0
M  V30 15926 O 1628.37 1.83553 -0.0733943 0
M  V30 15927 C 1628.43 1.06182 -3.43461 0
M  V30 15928 C 1628.1 0.0906278 -4.5691 0
M  V30 15929 C 1629.09 -0.700599 -5.15158 0
M  V30 15930 C 1626.78 -0.0209341 -5.02296 0
M  V30 15931 C 1628.77 -1.59034 -6.17241 0
M  V30 15932 C 1626.46 -0.91423 -6.04223 0
M  V30 15933 C 1627.46 -1.6975 -6.61569 0
M  V30 15934 O 1627.14 -2.57582 -7.61516 0
M  V30 15935 H 1626.88 0.116254 -0.665929 0
M  V30 15936 H 1629.43 -0.303224 -2.03149 0
M  V30 15937 H 1627.66 1.86015 -3.39021 0
M  V30 15938 H 1629.35 1.60988 -3.72609 0
M  V30 15939 H 1630.12 -0.624723 -4.8096 0
M  V30 15940 H 1625.99 0.578557 -4.57355 0
M  V30 15941 H 1629.54 -2.20215 -6.6193 0
M  V30 15942 H 1625.44 -0.991215 -6.37844 0
M  V30 15943 H 1626.2 -2.5138 -7.78942 0
M  V30 15944 N 1628.87 1.57413 0.0768405 0
M  V30 15945 C 1630.28 1.53656 0.431508 0
M  V30 15946 C 1630.48 0.916194 1.79466 0
M  V30 15947 O 1629.54 0.516529 2.4716 0
M  V30 15948 C 1630.85 2.98325 0.377212 0
M  V30 15949 C 1632.4 3.09635 0.457761 0
M  V30 15950 C 1632.87 4.55945 0.433425 0
M  V30 15951 N 1634.37 4.60562 0.493647 0
M  V30 15952 C 1635.1 5.71242 0.496949 0
M  V30 15953 N 1634.6 6.91302 0.455368 0
M  V30 15954 N 1636.39 5.5947 0.543129 0
M  V30 15955 H 1628.54 1.96108 -0.815811 0
M  V30 15956 H 1630.8 0.897392 -0.3056 0
M  V30 15957 H 1630.51 3.47251 -0.557628 0
M  V30 15958 H 1630.38 3.57959 1.18932 0
M  V30 15959 H 1632.77 2.60685 1.38302 0
M  V30 15960 H 1632.85 2.52919 -0.382829 0
M  V30 15961 H 1632.5 5.0555 -0.487968 0
M  V30 15962 H 1632.43 5.10518 1.29148 0
M  V30 15963 H 1634.92 3.74162 0.530237 0
M  V30 15964 H 1635.23 7.7142 0.461674 0
M  V30 15965 H 1633.57 6.93717 0.422133 0
M  V30 15966 H 1636.77 4.64576 0.573272 0
M  V30 15967 H 1636.94 6.45727 0.542234 0
M  V30 15968 N 1630.34 -0.348112 1.53707 0
M  V30 15969 C 1631.28 -1.44781 1.77682 0
M  V30 15970 C 1632.29 -1.4891 0.657997 0
M  V30 15971 O 1633.48 -1.52075 0.934635 0
M  V30 15972 C 1630.58 -2.83463 1.85747 0
M  V30 15973 C 1629.75 -3.02827 3.15618 0
M  V30 15974 C 1628.81 -4.21724 3.14698 0
M  V30 15975 O 1627.84 -4.16059 3.88437 0
M  V30 15976 N 1629.04 -5.3003 2.36746 0
M  V30 15977 H 1631.8 -1.24587 2.72577 0
M  V30 15978 H 1629.36 -0.537961 1.52701 0
M  V30 15979 H 1631.36 -3.6117 1.82589 0
M  V30 15980 H 1629.93 -2.96822 0.980595 0
M  V30 15981 H 1629.15 -2.1263 3.31937 0
M  V30 15982 H 1630.43 -3.12645 4.01411 0
M  V30 15983 H 1629.83 -5.375 1.7638 0
M  V30 15984 H 1628.39 -6.06247 2.39389 0
M  V30 15985 N 1631.82 -1.45363 -0.608876 0
M  V30 15986 C 1633.1 -1.39787 -1.36817 0
M  V30 15987 C 1633.48 -0.067821 -2.10991 0
M  V30 15988 O 1632.83 0.950196 -2.07806 0
M  V30 15989 C 1633.04 -2.61073 -2.31608 0
M  V30 15990 C 1634.39 -3.06104 -2.94254 0
M  V30 15991 O 1635.41 -2.61436 -2.41929 0
M  V30 15992 O 1634.27 -3.83616 -3.89231 0
M  V30 15993 H 1631.36 -0.554657 -0.61342 0
M  V30 15994 H 1633.91 -1.57489 -0.632073 0
M  V30 15995 H 1632.68 -3.4946 -1.76049 0
M  V30 15996 H 1632.3 -2.45697 -3.126 0
M  V30 15997 N 1633.3 0.851265 -1.32632 0
M  V30 15998 C 1634.71 1.4217 -1.21015 0
M  V30 15999 C 1635.06 1.95409 0.175972 0
M  V30 16000 O 1634.19 1.87816 1.07489 0
M  V30 16001 C 1634.78 2.58431 -2.19086 0
M  V30 16002 C 1633.34 3.11464 -2.11346 0
M  V30 16003 C 1632.49 1.84221 -2.07263 0
M  V30 16004 H 1635.44 0.65812 -1.44411 0
M  V30 16005 H 1635.46 3.35694 -1.79137 0
M  V30 16006 H 1634.97 2.19652 -3.1996 0
M  V30 16007 H 1633.07 3.54818 -1.13732 0
M  V30 16008 H 1633.19 3.72478 -3.01325 0
M  V30 16009 H 1631.55 2.0396 -1.52553 0
M  V30 16010 H 1632.33 1.47654 -3.09924 0
M  V30 16011 N 1634.78 1.15898 1.06796 0
M  V30 16012 C 1635.69 0.87507 2.17669 0
M  V30 16013 C 1636.7 -0.150763 1.73346 0
M  V30 16014 O 1637.88 0.0246621 2.01385 0
M  V30 16015 C 1634.95 0.374555 3.44671 0
M  V30 16016 C 1634.01 1.46498 4.0353 0
M  V30 16017 C 1633.24 0.988256 5.2447 0
M  V30 16018 O 1633.46 -0.163992 5.70164 0
M  V30 16019 O 1632.4 1.7744 5.75151 0
M  V30 16020 H 1636.22 1.80208 2.44456 0
M  V30 16021 H 1633.81 0.93854 1.1624 0
M  V30 16022 H 1635.69 0.102161 4.21276 0
M  V30 16023 H 1634.36 -0.524513 3.19422 0
M  V30 16024 H 1633.27 1.79105 3.28439 0
M  V30 16025 H 1634.6 2.33917 4.33063 0
M  V30 16026 N 1636.26 -1.25243 0.956659 0
M  V30 16027 C 1637.48 -1.97621 0.629337 0
M  V30 16028 C 1637.91 -1.70606 -0.792158 0
M  V30 16029 O 1637.26 -0.963192 -1.53598 0
M  V30 16030 C 1637.31 -3.49273 0.896687 0
M  V30 16031 O 1636.42 -4.12393 -0.0234986 0
M  V30 16032 H 1635.76 -0.619472 0.239061 0
M  V30 16033 H 1638.29 -1.5931 1.28381 0
M  V30 16034 H 1638.3 -3.99597 0.82377 0
M  V30 16035 H 1636.97 -3.68265 1.93271 0
M  V30 16036 H 1635.55 -3.72761 0.101796 0
M  V30 16037 N 1637.73 -0.725468 -1.3991 0
M  V30 16038 C 1638.66 -0.094211 -2.3331 0
M  V30 16039 C 1639.65 0.734728 -1.53414 0
M  V30 16040 O 1640.83 0.681647 -1.81844 0
M  V30 16041 C 1637.96 0.820958 -3.37457 0
M  V30 16042 C 1636.91 0.0968983 -4.2789 0
M  V30 16043 C 1636.24 1.12845 -5.22657 0
M  V30 16044 C 1637.54 -1.05483 -5.11537 0
M  V30 16045 H 1639.23 -0.874365 -2.86348 0
M  V30 16046 H 1636.78 -0.421913 -1.3768 0
M  V30 16047 H 1638.73 1.27203 -4.01743 0
M  V30 16048 H 1637.46 1.63312 -2.82837 0
M  V30 16049 H 1636.12 -0.334454 -3.65071 0
M  V30 16050 H 1635.76 1.93392 -4.64337 0
M  V30 16051 H 1635.46 0.648805 -5.84007 0
M  V30 16052 H 1636.99 1.57942 -5.89819 0
M  V30 16053 H 1638.4 -0.682657 -5.69221 0
M  V30 16054 H 1636.8 -1.46349 -5.81981 0
M  V30 16055 H 1637.87 -1.88095 -4.46932 0
M  V30 16056 N 1639.21 1.50354 -0.472382 0
M  V30 16057 C 1640.62 1.86692 -0.0175768 0
M  V30 16058 C 1640.97 1.38708 1.3876 0
M  V30 16059 O 1640.1 0.752614 2.02891 0
M  V30 16060 C 1640.69 3.38791 -0.0251205 0
M  V30 16061 C 1639.25 3.74535 0.37422 0
M  V30 16062 C 1638.4 2.74252 -0.410045 0
M  V30 16063 H 1641.35 1.43079 -0.686593 0
M  V30 16064 H 1641.37 3.72487 0.776754 0
M  V30 16065 H 1640.88 3.73684 -1.04795 0
M  V30 16066 H 1638.99 3.45243 1.40135 0
M  V30 16067 H 1639.1 4.79042 0.0746666 0
M  V30 16068 H 1637.46 2.54334 0.136417 0
M  V30 16069 H 1638.25 3.11989 -1.43241 0
M  V30 16070 N 1640.69 0.205039 1.56261 0
M  V30 16071 C 1641.94 -0.431097 1.97858 0
M  V30 16072 C 1642.27 -1.60937 1.09223 0
M  V30 16073 O 1641.52 -1.95244 0.133495 0
M  V30 16074 C 1641.82 -0.924086 3.45247 0
M  V30 16075 C 1641.49 0.141879 4.50677 0
M  V30 16076 C 1640.15 0.434753 4.79232 0
M  V30 16077 C 1642.5 0.863645 5.13995 0
M  V30 16078 C 1639.83 1.4542 5.68392 0
M  V30 16079 C 1642.18 1.87231 6.04258 0
M  V30 16080 C 1640.84 2.17227 6.31164 0
M  V30 16081 H 1640.11 -0.157749 0.724014 0
M  V30 16082 H 1642.76 0.304094 1.8907 0
M  V30 16083 H 1641.07 -1.73774 3.51155 0
M  V30 16084 H 1642.76 -1.42586 3.74794 0
M  V30 16085 H 1639.35 -0.0965514 4.28491 0
M  V30 16086 H 1643.54 0.650612 4.92017 0
M  V30 16087 H 1638.79 1.69241 5.8751 0
M  V30 16088 H 1642.97 2.43675 6.52377 0
M  V30 16089 H 1640.59 2.96366 7.00051 0
M  V30 16090 N 1642.17 -1.57451 -0.0684915 0
M  V30 16091 C 1643.59 -1.53883 -0.423354 0
M  V30 16092 C 1643.79 -0.925698 -1.78978 0
M  V30 16093 O 1642.84 -0.529629 -2.46883 0
M  V30 16094 C 1644.15 -2.98521 -0.361386 0
M  V30 16095 C 1645.7 -3.09873 -0.441334 0
M  V30 16096 C 1646.18 -4.56168 -0.409239 0
M  V30 16097 N 1647.67 -4.60817 -0.469216 0
M  V30 16098 C 1648.4 -5.71498 -0.466648 0
M  V30 16099 N 1647.9 -6.91534 -0.4187 0
M  V30 16100 N 1649.69 -5.5975 -0.513452 0
M  V30 16101 H 1641.84 -1.95672 0.8262 0
M  V30 16102 H 1644.11 -0.895759 0.310354 0
M  V30 16103 H 1643.81 -3.46951 0.576035 0
M  V30 16104 H 1643.69 -3.58585 -1.17032 0
M  V30 16105 H 1646.07 -2.61414 -1.36918 0
M  V30 16106 H 1646.15 -2.52712 0.396237 0
M  V30 16107 H 1645.8 -5.05285 0.514772 0
M  V30 16108 H 1645.73 -5.11195 -1.26439 0
M  V30 16109 H 1648.22 -3.74438 -0.510387 0
M  V30 16110 H 1648.53 -7.71654 -0.420757 0
M  V30 16111 H 1646.88 -6.93931 -0.385338 0
M  V30 16112 H 1650.07 -4.64874 -0.548626 0
M  V30 16113 H 1650.24 -6.46006 -0.507982 0
M  V30 16114 N 1643.65 0.339955 -1.5389 0
M  V30 16115 C 1644.58 1.43837 -1.78448 0
M  V30 16116 C 1645.59 1.48559 -0.665885 0
M  V30 16117 O 1646.78 1.51577 -0.942686 0
M  V30 16118 C 1643.88 2.82474 -1.87248 0
M  V30 16119 C 1643.05 3.01149 -3.17219 0
M  V30 16120 C 1642.11 4.20049 -3.16931 0
M  V30 16121 O 1641.14 4.13994 -3.90638 0
M  V30 16122 N 1642.34 5.28767 -2.39553 0
M  V30 16123 H 1645.11 1.2314 -2.73234 0
M  V30 16124 H 1642.67 0.529855 -1.52984 0
M  V30 16125 H 1644.66 3.60196 -1.84502 0
M  V30 16126 H 1643.23 2.96297 -0.996322 0
M  V30 16127 H 1642.45 2.10867 -3.3306 0
M  V30 16128 H 1643.74 3.10511 -4.03063 0
M  V30 16129 H 1643.14 5.36557 -1.79228 0
M  V30 16130 H 1641.69 6.04969 -2.42601 0
M  V30 16131 N 1645.13 1.45684 0.601159 0
M  V30 16132 C 1646.54 1.44423 1.18317 0
M  V30 16133 C 1646.89 0.17524 1.95416 0
M  V30 16134 O 1646.01 -0.722816 2.03971 0
M  V30 16135 C 1646.61 2.61651 2.1523 0
M  V30 16136 C 1645.17 2.6349 2.68793 0
M  V30 16137 C 1644.31 2.36787 1.44317 0
M  V30 16138 H 1647.26 1.53831 0.390108 0
M  V30 16139 H 1647.29 2.36117 2.98377 0
M  V30 16140 H 1646.8 3.53995 1.59088 0
M  V30 16141 H 1644.9 1.7517 3.28856 0
M  V30 16142 H 1645.01 3.62906 3.12787 0
M  V30 16143 H 1643.38 1.86472 1.73494 0
M  V30 16144 H 1644.16 3.31284 0.900327 0
M  V30 16145 N 1646.6 -0.84422 1.33082 0
M  V30 16146 C 1647.85 -1.60149 1.24419 0
M  V30 16147 C 1648.18 -1.93259 -0.190992 0
M  V30 16148 O 1647.46 -1.58242 -1.13092 0
M  V30 16149 C 1647.74 -2.91502 2.11421 0
M  V30 16150 C 1647.59 -2.65108 3.6337 0
M  V30 16151 C 1648.91 -3.92878 1.98331 0
M  V30 16152 H 1646.03 -0.581096 0.453317 0
M  V30 16153 H 1648.67 -0.974093 1.6313 0
M  V30 16154 H 1646.82 -3.45046 1.78537 0
M  V30 16155 H 1648.5 -2.18037 4.06519 0
M  V30 16156 H 1646.74 -1.98896 3.85516 0
M  V30 16157 H 1647.41 -3.58682 4.19584 0
M  V30 16158 H 1649.89 -3.48623 2.27159 0
M  V30 16159 H 1648.76 -4.82625 2.61466 0
M  V30 16160 H 1649.02 -4.31685 0.953972 0
M  V30 16161 N 1648.08 -1.16463 -1.0618 0
M  V30 16162 C 1649.36 -0.857038 -1.75824 0
M  V30 16163 C 1649.74 0.644886 -2.01009 0
M  V30 16164 O 1649.09 1.59305 -1.63812 0
M  V30 16165 C 1649.3 -1.681 -3.05849 0
M  V30 16166 C 1650.64 -1.8947 -3.79982 0
M  V30 16167 O 1651.67 -1.64975 -3.15692 0
M  V30 16168 O 1650.53 -2.30573 -4.95478 0
M  V30 16169 H 1647.62 -0.316364 -0.764096 0
M  V30 16170 H 1650.17 -1.27105 -1.12438 0
M  V30 16171 H 1648.94 -2.70014 -2.8321 0
M  V30 16172 H 1648.56 -1.2641 -3.7697 0
M  V30 16173 N 1649.56 1.24734 -0.963288 0
M  V30 16174 C 1650.97 1.7456 -0.662246 0
M  V30 16175 C 1651.32 1.78143 0.822169 0
M  V30 16176 O 1650.45 1.40794 1.64335 0
M  V30 16177 C 1651.04 3.1701 -1.19542 0
M  V30 16178 C 1649.6 3.64361 -0.944371 0
M  V30 16179 C 1648.75 2.4314 -1.33335 0
M  V30 16180 H 1651.7 1.10498 -1.13911 0
M  V30 16181 H 1651.72 3.76362 -0.559601 0
M  V30 16182 H 1651.23 3.1437 -2.27581 0
M  V30 16183 H 1649.33 3.72405 0.120682 0
M  V30 16184 H 1649.45 4.52055 -1.58692 0
M  V30 16185 H 1647.81 2.43354 -0.751729 0
M  V30 16186 H 1648.59 2.43185 -2.42314 0
M  V30 16187 N 1651.04 0.732878 1.39523 0
M  V30 16188 C 1651.97 0.0519358 2.29141 0
M  V30 16189 C 1652.98 -0.705687 1.4671 0
M  V30 16190 O 1654.17 -0.550202 1.69809 0
M  V30 16191 C 1651.27 -0.950691 3.25292 0
M  V30 16192 C 1650.44 -0.255028 4.36656 0
M  V30 16193 C 1649.5 -1.16546 5.13131 0
M  V30 16194 O 1648.53 -0.643742 5.65548 0
M  V30 16195 N 1649.73 -2.49534 5.24131 0
M  V30 16196 H 1652.5 0.8215 2.88221 0
M  V30 16197 H 1650.06 0.581924 1.5108 0
M  V30 16198 H 1652.05 -1.56232 3.73328 0
M  V30 16199 H 1650.62 -1.62148 2.67258 0
M  V30 16200 H 1649.84 0.537045 3.90525 0
M  V30 16201 H 1651.13 0.227162 5.08293 0
M  V30 16202 H 1650.53 -2.944 4.83058 0
M  V30 16203 H 1649.08 -3.05798 5.75613 0
M  V30 16204 N 1652.52 -1.50101 0.480349 0
M  V30 16205 C 1653.45 -2.31581 -0.298718 0
M  V30 16206 C 1654.43 -1.38905 -0.981798 0
M  V30 16207 O 1655.61 -1.67823 -0.977188 0
M  V30 16208 C 1652.74 -3.18891 -1.37571 0
M  V30 16209 C 1651.7 -4.20194 -0.813704 0
M  V30 16210 C 1651.02 -4.96302 -1.98968 0
M  V30 16211 C 1652.32 -5.21985 0.181295 0
M  V30 16212 H 1654.02 -2.96961 0.381349 0
M  V30 16213 H 1651.56 -1.42809 0.184842 0
M  V30 16214 H 1653.51 -3.74694 -1.92828 0
M  V30 16215 H 1652.24 -2.51414 -2.08467 0
M  V30 16216 H 1650.9 -3.65506 -0.283034 0
M  V30 16217 H 1650.55 -4.2529 -2.68584 0
M  V30 16218 H 1650.25 -5.64833 -1.61981 0
M  V30 16219 H 1651.77 -5.54943 -2.54698 0
M  V30 16220 H 1653.18 -5.72604 -0.28242 0
M  V30 16221 H 1651.58 -5.98289 0.465916 0
M  V30 16222 H 1652.65 -4.72162 1.10413 0
M  V30 16223 N 1653.99 -0.213323 -1.5615 0
M  V30 16224 C 1654.92 0.695003 -2.22917 0
M  V30 16225 C 1655.9 1.20738 -1.19818 0
M  V30 16226 O 1657.09 1.25289 -1.48379 0
M  V30 16227 C 1654.22 1.90685 -2.9027 0
M  V30 16228 C 1653.17 1.52865 -3.9977 0
M  V30 16229 C 1652.5 2.81859 -4.54378 0
M  V30 16230 C 1653.8 0.724829 -5.17246 0
M  V30 16231 H 1655.49 0.138351 -2.9908 0
M  V30 16232 H 1653.04 0.0651029 -1.43853 0
M  V30 16233 H 1654.99 2.54766 -3.35667 0
M  V30 16234 H 1653.72 2.48833 -2.11541 0
M  V30 16235 H 1652.38 0.911336 -3.55092 0
M  V30 16236 H 1652.02 3.38135 -3.72389 0
M  V30 16237 H 1651.72 2.57291 -5.28275 0
M  V30 16238 H 1653.25 3.46897 -5.02489 0
M  V30 16239 H 1654.66 1.26915 -5.59076 0
M  V30 16240 H 1653.06 0.57656 -5.97324 0
M  V30 16241 H 1654.13 -0.270309 -4.84146 0
M  V30 16242 N 1655.47 1.57485 0.0601405 0
M  V30 16243 C 1656.72 1.87445 0.755575 0
M  V30 16244 C 1657.04 0.806915 1.77522 0
M  V30 16245 O 1656.31 -0.163139 1.9522 0
M  V30 16246 H 1654.89 0.691708 0.282044 0
M  V30 16247 H 1657.55 1.94871 0.0334616 0
M  V30 16248 H 1656.65 2.85334 1.26455 0
M  V30 16249 N 1656.95 -0.331789 1.54068 0
M  V30 16250 C 1658.2 -1.06818 1.71093 0
M  V30 16251 C 1658.51 -1.89438 0.487111 0
M  V30 16252 O 1659.72 -2.66105 0.538544 0
M  V30 16253 C 1658.17 -1.94853 3.02589 0
M  V30 16254 C 1657.78 -1.17384 4.32348 0
M  V30 16255 C 1659.53 -2.68278 3.28979 0
M  V30 16256 C 1657.43 -2.04518 5.54911 0
M  V30 16257 H 1656.36 -0.402501 0.63758 0
M  V30 16258 H 1659.01 -0.326918 1.80564 0
M  V30 16259 H 1657.4 -2.72845 2.87004 0
M  V30 16260 H 1658.57 -0.442208 4.58673 0
M  V30 16261 H 1656.89 -0.556775 4.12661 0
M  V30 16262 H 1659.48 -3.33762 4.1774 0
M  V30 16263 H 1659.83 -3.35476 2.46498 0
M  V30 16264 H 1660.36 -1.97353 3.45394 0
M  V30 16265 H 1657.1 -1.41842 6.3997 0
M  V30 16266 H 1656.62 -2.75438 5.32817 0
M  V30 16267 H 1658.3 -2.63297 5.91002 0
M  V30 16268 N 1658.43 -1.46001 -0.593424 0
M  V30 16269 C 1659.84 -1.45049 -1.17549 0
M  V30 16270 C 1660.19 -0.185601 -1.9532 0
M  V30 16271 O 1659.32 0.711989 -2.04352 0
M  V30 16272 C 1659.91 -2.62789 -2.13839 0
M  V30 16273 C 1658.47 -2.64912 -2.67392 0
M  V30 16274 C 1657.62 -2.37549 -1.43059 0
M  V30 16275 H 1660.57 -1.54035 -0.381944 0
M  V30 16276 H 1660.59 -2.37696 -2.97121 0
M  V30 16277 H 1660.1 -3.54834 -1.57208 0
M  V30 16278 H 1658.2 -1.76911 -3.27922 0
M  V30 16279 H 1658.31 -3.6456 -3.10858 0
M  V30 16280 H 1656.68 -1.8739 -1.72503 0
M  V30 16281 H 1657.46 -3.31757 -0.882746 0
M  V30 16282 N 1659.91 0.83715 -1.33527 0
M  V30 16283 C 1661.18 1.57727 -1.15678 0
M  V30 16284 C 1661.56 2.09286 0.276178 0
M  V30 16285 O 1660.91 1.89589 1.27547 0
M  V30 16286 C 1661.12 2.70978 -2.19936 0
M  V30 16287 C 1662.47 3.40114 -2.5418 0
M  V30 16288 O 1663.49 2.81221 -2.18616 0
M  V30 16289 O 1662.35 4.46431 -3.15217 0
M  V30 16290 H 1659.45 0.69545 -0.447525 0
M  V30 16291 H 1661.99 0.879756 -1.45115 0
M  V30 16292 H 1660.76 2.30532 -3.16181 0
M  V30 16293 H 1660.39 3.48393 -1.91594 0
M  V30 16294 N 1661.38 1.17024 1.05561 0
M  V30 16295 C 1662.61 0.979328 1.81914 0
M  V30 16296 C 1663.02 -0.475688 1.83122 0
M  V30 16297 O 1662.37 -1.34205 1.25438 0
M  V30 16298 C 1662.43 1.4391 3.29439 0
M  V30 16299 C 1662.09 2.9155 3.5192 0
M  V30 16300 C 1663.09 3.89509 3.44353 0
M  V30 16301 C 1660.77 3.2964 3.79003 0
M  V30 16302 C 1662.77 5.23557 3.63548 0
M  V30 16303 C 1660.45 4.63855 3.97846 0
M  V30 16304 C 1661.45 5.60623 3.90117 0
M  V30 16305 O 1661.14 6.92411 4.08439 0
M  V30 16306 H 1660.87 0.34689 0.58021 0
M  V30 16307 H 1663.43 1.55641 1.34034 0
M  V30 16308 H 1661.66 0.805555 3.78216 0
M  V30 16309 H 1663.35 1.21445 3.87306 0
M  V30 16310 H 1664.11 3.61428 3.23412 0
M  V30 16311 H 1659.99 2.54891 3.84124 0
M  V30 16312 H 1663.53 5.99074 3.5743 0
M  V30 16313 H 1659.43 4.91644 4.18278 0
M  V30 16314 H 1660.2 6.99095 4.25685 0
M  V30 16315 N 1662.86 -1.24221 0.969889 0
M  V30 16316 C 1664.11 -1.92353 0.632976 0
M  V30 16317 C 1664.44 -1.75801 -0.832131 0
M  V30 16318 O 1663.69 -1.10614 -1.6144 0
M  V30 16319 C 1663.99 -3.44365 0.956427 0
M  V30 16320 C 1663.66 -3.81088 2.41003 0
M  V30 16321 C 1662.32 -3.90823 2.80732 0
M  V30 16322 C 1664.67 -3.99002 3.35331 0
M  V30 16323 C 1662 -4.15891 4.13825 0
M  V30 16324 C 1664.35 -4.25567 4.68055 0
M  V30 16325 C 1663.02 -4.33522 5.07558 0
M  V30 16326 H 1662.29 -0.703869 0.231622 0
M  V30 16327 H 1664.93 -1.47461 1.22179 0
M  V30 16328 H 1663.24 -3.90759 0.285402 0
M  V30 16329 H 1664.93 -3.95293 0.674107 0
M  V30 16330 H 1661.52 -3.74077 2.09199 0
M  V30 16331 H 1665.71 -3.90881 3.0582 0
M  V30 16332 H 1660.96 -4.2027 4.44053 0
M  V30 16333 H 1665.14 -4.38372 5.41113 0
M  V30 16334 H 1662.77 -4.52699 6.10711 0
M  V30 16335 N 1664.34 -0.740267 -1.39132 0
M  V30 16336 C 1665.62 -0.216602 -1.94397 0
M  V30 16337 C 1666 1.28264 -1.67665 0
M  V30 16338 O 1665.35 2.05075 -1.00778 0
M  V30 16339 C 1665.56 -0.555899 -3.44544 0
M  V30 16340 C 1666.9 -0.50815 -4.21548 0
M  V30 16341 O 1667.93 -0.493401 -3.52766 0
M  V30 16342 O 1666.79 -0.507321 -5.4414 0
M  V30 16343 H 1663.88 -0.0413037 -0.825968 0
M  V30 16344 H 1666.43 -0.819483 -1.48602 0
M  V30 16345 H 1665.2 -1.59187 -3.57457 0
M  V30 16346 H 1664.82 0.0756793 -3.97528 0
M  V30 16347 N 1665.82 1.49844 -0.488302 0
M  V30 16348 C 1667.07 2.01603 0.0624744 0
M  V30 16349 C 1667.38 1.37397 1.39217 0
M  V30 16350 O 1668.59 1.8041 2.0289 0
M  V30 16351 C 1667.04 3.59536 0.161824 0
M  V30 16352 C 1666.65 4.32709 -1.16047 0
M  V30 16353 C 1668.39 4.1928 0.663642 0
M  V30 16354 C 1666.3 5.82468 -1.02397 0
M  V30 16355 H 1665.23 0.753512 0.0271222 0
M  V30 16356 H 1667.88 1.72499 -0.625805 0
M  V30 16357 H 1666.26 3.85301 0.914273 0
M  V30 16358 H 1667.44 4.18655 -1.92522 0
M  V30 16359 H 1665.75 3.84652 -1.59473 0
M  V30 16360 H 1668.35 5.28935 0.783069 0
M  V30 16361 H 1668.69 3.81801 1.65933 0
M  V30 16362 H 1669.23 3.97787 -0.0319078 0
M  V30 16363 H 1665.97 6.2445 -1.99355 0
M  V30 16364 H 1665.49 5.9905 -0.299902 0
M  V30 16365 H 1667.16 6.43229 -0.697538 0
M  V30 16366 N 1667.3 0.221601 1.56034 0
M  V30 16367 C 1668.54 -0.410695 1.98598 0
M  V30 16368 C 1668.88 -1.59412 1.10912 0
M  V30 16369 O 1668.15 -1.93783 0.166819 0
M  V30 16370 C 1668.43 -0.845199 3.50041 0
M  V30 16371 C 1668.29 0.341866 4.48499 0
M  V30 16372 C 1669.61 -1.70135 4.05884 0
M  V30 16373 H 1666.72 -0.147808 0.722026 0
M  V30 16374 H 1669.37 0.317846 1.87323 0
M  V30 16375 H 1667.52 -1.46597 3.5978 0
M  V30 16376 H 1669.19 0.980014 4.5077 0
M  V30 16377 H 1667.43 0.989294 4.22369 0
M  V30 16378 H 1668.1 -0.00509234 5.52 0
M  V30 16379 H 1670.58 -1.17757 3.9909 0
M  V30 16380 H 1669.45 -1.97427 5.12166 0
M  V30 16381 H 1669.72 -2.66469 3.5277 0
M  V30 16382 N 1668.77 -1.57515 -0.0517878 0
M  V30 16383 C 1669.72 -2.05051 -1.05937 0
M  V30 16384 C 1670.69 -0.935032 -1.37282 0
M  V30 16385 O 1671.88 -1.20408 -1.48009 0
M  V30 16386 C 1669.02 -2.51594 -2.36208 0
M  V30 16387 C 1668.13 -3.76843 -2.11219 0
M  V30 16388 C 1667.26 -4.12088 -3.35197 0
M  V30 16389 C 1666.3 -5.30318 -3.05662 0
M  V30 16390 N 1665.44 -5.61104 -4.22026 0
M  V30 16391 H 1670.28 -2.90891 -0.647027 0
M  V30 16392 H 1667.82 -1.43842 -0.307891 0
M  V30 16393 H 1669.78 -2.76638 -3.12293 0
M  V30 16394 H 1668.41 -1.68704 -2.75207 0
M  V30 16395 H 1667.46 -3.5902 -1.25734 0
M  V30 16396 H 1668.77 -4.63057 -1.85416 0
M  V30 16397 H 1667.92 -4.38139 -4.19666 0
M  V30 16398 H 1666.66 -3.24479 -3.64094 0
M  V30 16399 H 1665.67 -5.04043 -2.19592 0
M  V30 16400 H 1666.89 -6.19561 -2.78067 0
M  V30 16401 H 1664.84 -4.76456 -4.50917 0
M  V30 16402 H 1664.76 -6.4178 -3.99568 0
M  V30 16403 H 1666.02 -5.91719 -5.07434 0
M  V30 16404 N 1670.25 0.323614 -1.54242 0
M  V30 16405 C 1671.2 1.4184 -1.84348 0
M  V30 16406 C 1672.2 1.53553 -0.715384 0
M  V30 16407 O 1673.4 1.5594 -0.899045 0
M  V30 16408 H 1669.78 0.473326 -0.584352 0
M  V30 16409 H 1671.75 1.13672 -2.75901 0
M  V30 16410 C 1670.5 2.78059 -2.08755 0
M  V30 16411 H 1669.82 2.69819 -2.95021 0
M  V30 16412 H 1671.26 3.53731 -2.33774 0
M  V30 16413 C 1669.72 3.25229 -0.879076 0
M  V30 16414 O 1670.25 4.01603 -0.0883125 0
M  V30 16415 N 1668.45 2.82272 -0.690726 0
M  V30 16416 H 1668 2.20283 -1.33542 0
M  V30 16417 H 1667.96 3.14185 0.116344 0
M  V30 16418 N 1671.73 1.46313 0.585673 0
M  V30 16419 C 1673.14 1.4567 1.16778 0
M  V30 16420 C 1673.49 0.195957 1.95219 0
M  V30 16421 O 1672.62 -0.701142 2.04727 0
M  V30 16422 C 1673.21 2.6392 2.12443 0
M  V30 16423 C 1671.77 2.66327 2.65983 0
M  V30 16424 C 1670.92 2.38304 1.41797 0
M  V30 16425 H 1673.87 1.54236 0.37377 0
M  V30 16426 H 1673.89 2.39268 2.95856 0
M  V30 16427 H 1673.4 3.55663 1.55324 0
M  V30 16428 H 1671.5 1.78648 3.2698 0
M  V30 16429 H 1671.62 3.66203 3.08921 0
M  V30 16430 H 1669.98 1.88302 1.71507 0
M  V30 16431 H 1670.76 3.3222 0.86514 0
M  V30 16432 N 1673.21 -0.830057 1.33969 0
M  V30 16433 C 1674.14 -1.94534 1.19297 0
M  V30 16434 C 1675.12 -1.62371 0.0862986 0
M  V30 16435 O 1676.3 -1.86833 0.250152 0
M  V30 16436 C 1673.43 -3.28329 0.831718 0
M  V30 16437 C 1672.48 -3.79459 1.94713 0
M  V30 16438 S 1673.31 -4.00075 3.5595 0
M  V30 16439 C 1674.47 -5.36808 3.21851 0
M  V30 16440 H 1674.7 -2.06683 2.13704 0
M  V30 16441 H 1672.23 -0.984833 1.18913 0
M  V30 16442 H 1674.19 -4.05636 0.630076 0
M  V30 16443 H 1672.85 -3.1396 -0.0939047 0
M  V30 16444 H 1672.04 -4.76297 1.64795 0
M  V30 16445 H 1671.65 -3.09076 2.10589 0
M  V30 16446 H 1673.94 -6.19964 2.73223 0
M  V30 16447 H 1674.88 -5.71705 4.17802 0
M  V30 16448 H 1675.29 -5.0198 2.58217 0
M  V30 16449 N 1674.69 -1.17582 -1.04939 0
M  V30 16450 C 1675.96 -0.875638 -1.74906 0
M  V30 16451 C 1676.34 0.62353 -2.01681 0
M  V30 16452 O 1675.69 1.57558 -1.65492 0
M  V30 16453 C 1675.9 -1.71334 -3.04049 0
M  V30 16454 C 1677.25 -1.93489 -3.77951 0
M  V30 16455 O 1678.27 -1.68314 -3.13925 0
M  V30 16456 O 1677.13 -2.35815 -4.93005 0
M  V30 16457 H 1674.23 -0.324451 -0.760697 0
M  V30 16458 H 1676.77 -1.2829 -1.11084 0
M  V30 16459 H 1675.55 -2.73003 -2.80331 0
M  V30 16460 H 1675.17 -1.30401 -3.75608 0
M  V30 16461 N 1676.17 1.23705 -0.976463 0
M  V30 16462 C 1677.1 2.2734 -0.532809 0
M  V30 16463 C 1678.08 1.64523 0.432012 0
M  V30 16464 O 1679.26 1.9144 0.326233 0
M  V30 16465 C 1676.39 3.46887 0.169374 0
M  V30 16466 C 1675.35 4.22031 -0.712336 0
M  V30 16467 C 1674.67 5.34561 0.121838 0
M  V30 16468 C 1675.97 4.8244 -2.00123 0
M  V30 16469 H 1677.67 2.64702 -1.39904 0
M  V30 16470 H 1675.21 1.27244 -0.674156 0
M  V30 16471 H 1677.16 4.18529 0.491028 0
M  V30 16472 H 1675.89 3.08574 1.07002 0
M  V30 16473 H 1674.55 3.522 -1.01739 0
M  V30 16474 H 1674.2 4.92489 1.0229 0
M  V30 16475 H 1673.9 5.85758 -0.464962 0
M  V30 16476 H 1675.42 6.09027 0.437963 0
M  V30 16477 H 1676.83 5.46111 -1.7446 0
M  V30 16478 H 1675.23 5.43906 -2.53548 0
M  V30 16479 H 1676.3 4.03405 -2.69059 0
M  V30 16480 N 1677.64 0.747635 1.38738 0
M  V30 16481 C 1678.87 0.310484 2.05063 0
M  V30 16482 C 1679.29 -1.05078 1.56013 0
M  V30 16483 O 1678.65 -1.66842 0.709461 0
M  V30 16484 C 1678.7 0.335837 3.59033 0
M  V30 16485 O 1677.8 -0.672218 4.06884 0
M  V30 16486 H 1677.14 0.138591 0.649375 0
M  V30 16487 H 1679.67 1.01709 1.77529 0
M  V30 16488 H 1679.68 0.184631 4.07582 0
M  V30 16489 H 1678.36 1.32906 3.94092 0
M  V30 16490 H 1676.94 -0.486112 3.69718 0
M  V30 16491 N 1679.12 -1.49583 0.496242 0
M  V30 16492 C 1680.35 -2.06847 -0.0469118 0
M  V30 16493 C 1680.76 -1.35715 -1.31251 0
M  V30 16494 O 1680.12 -0.434021 -1.77264 0
M  V30 16495 C 1680.17 -3.60174 -0.309338 0
M  V30 16496 O 1679.89 -4.28628 0.906082 0
M  V30 16497 C 1681.39 -4.34137 -0.896664 0
M  V30 16498 H 1678.61 -0.67075 0.0183324 0
M  V30 16499 H 1681.16 -1.92427 0.692237 0
M  V30 16500 H 1679.31 -3.74312 -0.998459 0
M  V30 16501 H 1679.73 -5.20254 0.666014 0
M  V30 16502 H 1681.2 -5.42307 -1.0299 0
M  V30 16503 H 1681.68 -3.96299 -1.89325 0
M  V30 16504 H 1682.28 -4.24593 -0.245158 0
M  V30 16505 N 1680.6 -0.229873 -1.55915 0
M  V30 16506 C 1681.85 0.399963 -1.97695 0
M  V30 16507 C 1682.16 1.60303 -1.12081 0
M  V30 16508 O 1683.37 2.30292 -1.43797 0
M  V30 16509 C 1681.82 0.762982 -3.51719 0
M  V30 16510 C 1681.43 -0.417738 -4.46048 0
M  V30 16511 C 1683.18 1.35796 -4.02194 0
M  V30 16512 C 1681.08 -0.0318216 -5.91391 0
M  V30 16513 H 1680.01 0.153209 -0.73827 0
M  V30 16514 H 1682.66 -0.327401 -1.80556 0
M  V30 16515 H 1681.05 1.548 -3.6449 0
M  V30 16516 H 1682.22 -1.19523 -4.45029 0
M  V30 16517 H 1680.53 -0.926501 -4.05962 0
M  V30 16518 H 1683.13 1.65974 -5.08288 0
M  V30 16519 H 1683.47 2.27661 -3.48534 0
M  V30 16520 H 1684.01 0.6362 -3.9268 0
M  V30 16521 H 1680.75 -0.917176 -6.49052 0
M  V30 16522 H 1680.27 0.709811 -5.95585 0
M  V30 16523 H 1681.95 0.391966 -6.45812 0
M  V30 16524 N 1682.08 1.5754 0.0434337 0
M  V30 16525 C 1683.02 2.0561 1.04848 0
M  V30 16526 C 1683.99 0.942299 1.36784 0
M  V30 16527 O 1685.18 1.21191 1.47368 0
M  V30 16528 C 1682.32 2.52844 2.3487 0
M  V30 16529 C 1681.43 3.77958 2.09218 0
M  V30 16530 C 1680.57 4.13859 3.33007 0
M  V30 16531 C 1679.61 5.31932 3.02845 0
M  V30 16532 N 1678.74 5.63335 4.19045 0
M  V30 16533 H 1683.58 2.9123 0.631591 0
M  V30 16534 H 1681.12 1.44003 0.300258 0
M  V30 16535 H 1683.08 2.78291 3.10822 0
M  V30 16536 H 1681.71 1.70161 2.74308 0
M  V30 16537 H 1680.76 3.59681 1.23828 0
M  V30 16538 H 1682.07 4.64034 1.82958 0
M  V30 16539 H 1681.23 4.40358 4.17336 0
M  V30 16540 H 1679.97 3.26406 3.62368 0
M  V30 16541 H 1678.97 5.052 2.16916 0
M  V30 16542 H 1680.2 6.21027 2.74777 0
M  V30 16543 H 1678.14 4.7884 4.48384 0
M  V30 16544 H 1678.06 6.4389 3.96158 0
M  V30 16545 H 1679.33 5.94402 5.04289 0
M  V30 16546 N 1683.56 -0.31543 1.54411 0
M  V30 16547 C 1684.97 -0.660254 1.45302 0
M  V30 16548 C 1685.17 -1.91316 0.632493 0
M  V30 16549 O 1684.23 -2.52142 0.134493 0
M  V30 16550 C 1685.54 -0.826685 2.89113 0
M  V30 16551 C 1687.09 -0.923503 2.99066 0
M  V30 16552 C 1687.56 -1.12204 4.44043 0
M  V30 16553 N 1689.05 -1.18859 4.47691 0
M  V30 16554 C 1689.79 -1.36024 5.57032 0
M  V30 16555 N 1689.29 -1.5018 6.76327 0
M  V30 16556 N 1691.08 -1.38797 5.44694 0
M  V30 16557 H 1683.23 0.507961 2.06237 0
M  V30 16558 H 1685.49 0.165515 0.933439 0
M  V30 16559 H 1685.2 0.0228371 3.51693 0
M  V30 16560 H 1685.07 -1.72007 3.35698 0
M  V30 16561 H 1687.46 -1.76352 2.36609 0
M  V30 16562 H 1687.54 -0.00641189 2.55799 0
M  V30 16563 H 1687.18 -0.286844 5.07089 0
M  V30 16564 H 1687.11 -2.05313 4.84927 0
M  V30 16565 H 1689.61 -1.0933 3.61739 0
M  V30 16566 H 1689.92 -1.62992 7.55416 0
M  V30 16567 H 1688.26 -1.47262 6.79219 0
M  V30 16568 H 1691.45 -1.27339 4.50447 0
M  V30 16569 H 1691.63 -1.51832 6.29961 0
M  V30 16570 N 1685.03 -1.46622 -0.577906 0
M  V30 16571 C 1685.98 -1.57549 -1.68662 0
M  V30 16572 C 1686.95 -0.419536 -1.60714 0
M  V30 16573 O 1688.14 -0.636916 -1.79856 0
M  V30 16574 C 1685.28 -1.57627 -3.06998 0
M  V30 16575 C 1684.39 -2.83991 -3.25535 0
M  V30 16576 C 1683.52 -2.75541 -4.54148 0
M  V30 16577 C 1682.56 -3.96823 -4.66045 0
M  V30 16578 N 1681.7 -3.86731 -5.8599 0
M  V30 16579 H 1686.54 -2.52252 -1.58659 0
M  V30 16580 H 1684.08 -1.2514 -0.773195 0
M  V30 16581 H 1686.04 -1.55657 -3.87075 0
M  V30 16582 H 1684.67 -0.664527 -3.15886 0
M  V30 16583 H 1683.72 -2.9592 -2.3903 0
M  V30 16584 H 1685.03 -3.73864 -3.30193 0
M  V30 16585 H 1684.18 -2.71703 -5.42459 0
M  V30 16586 H 1682.92 -1.83317 -4.51936 0
M  V30 16587 H 1681.93 -4.00987 -3.76151 0
M  V30 16588 H 1683.15 -4.90149 -4.70033 0
M  V30 16589 H 1681.1 -2.97296 -5.84766 0
M  V30 16590 H 1681.02 -4.70263 -5.91937 0
M  V30 16591 H 1682.28 -3.86876 -6.76718 0
M  V30 16592 N 1686.51 0.822941 -1.34408 0
M  V30 16593 C 1687.44 1.94878 -1.28627 0
M  V30 16594 C 1688.42 1.6931 -0.163727 0
M  V30 16595 O 1689.61 1.90908 -0.356083 0
M  V30 16596 C 1686.74 3.31333 -1.04094 0
M  V30 16597 C 1685.69 3.71341 -2.12814 0
M  V30 16598 C 1685.02 5.05779 -1.73469 0
M  V30 16599 C 1686.32 3.83439 -3.54643 0
M  V30 16600 H 1688.01 1.99972 -2.22827 0
M  V30 16601 H 1685.56 0.960715 -1.07267 0
M  V30 16602 H 1687.51 4.0968 -0.986947 0
M  V30 16603 H 1686.24 3.26539 -0.0633642 0
M  V30 16604 H 1684.89 2.95269 -2.17282 0
M  V30 16605 H 1684.54 4.97471 -0.743727 0
M  V30 16606 H 1684.24 5.33518 -2.46236 0
M  V30 16607 H 1685.77 5.86583 -1.69566 0
M  V30 16608 H 1687.18 4.52057 -3.52587 0
M  V30 16609 H 1685.58 4.22632 -4.2603 0
M  V30 16610 H 1686.65 2.85439 -3.91986 0
M  V30 16611 N 1687.99 1.18137 1.04314 0
M  V30 16612 C 1689.27 0.884901 1.74439 0
M  V30 16613 C 1689.65 -0.612825 2.02009 0
M  V30 16614 O 1689 -1.56679 1.66325 0
M  V30 16615 C 1689.21 1.72944 3.03136 0
M  V30 16616 C 1690.55 1.95491 3.7692 0
M  V30 16617 O 1691.58 1.69976 3.13028 0
M  V30 16618 O 1690.44 2.38426 4.91747 0
M  V30 16619 H 1687.53 0.328481 0.758966 0
M  V30 16620 H 1690.08 1.28878 1.10402 0
M  V30 16621 H 1688.85 2.74485 2.78879 0
M  V30 16622 H 1688.47 1.32392 3.74911 0
M  V30 16623 N 1689.47 -1.23186 0.98301 0
M  V30 16624 C 1690.7 -1.95702 0.671453 0
M  V30 16625 C 1691.11 -1.72737 -0.76206 0
M  V30 16626 O 1690.47 -1.02037 -1.5131 0
M  V30 16627 C 1690.52 -3.48642 0.955573 0
M  V30 16628 O 1690.24 -3.70829 2.33275 0
M  V30 16629 C 1691.74 -4.38354 0.660333 0
M  V30 16630 H 1688.96 -0.623006 0.249209 0
M  V30 16631 H 1691.51 -1.56606 1.3151 0
M  V30 16632 H 1689.66 -3.85743 0.357892 0
M  V30 16633 H 1690.07 -4.65104 2.42443 0
M  V30 16634 H 1691.55 -5.44456 0.909477 0
M  V30 16635 H 1692.03 -4.37323 -0.405615 0
M  V30 16636 H 1692.63 -4.06864 1.23861 0
M  V30 16637 N 1690.95 -0.754982 -1.38339 0
M  V30 16638 C 1692.19 -0.311146 -1.9969 0
M  V30 16639 C 1692.52 1.11138 -1.60229 0
M  V30 16640 O 1691.79 1.76024 -0.859794 0
M  V30 16641 H 1690.37 -0.112052 -0.738548 0
M  V30 16642 H 1693.03 -0.969386 -1.69083 0
M  V30 16643 H 1692.12 -0.375392 -3.09834 0
M  V30 16644 N 1692.42 1.49318 -0.504168 0
M  V30 16645 C 1693.36 2.27103 0.309327 0
M  V30 16646 C 1694.37 1.33776 0.927781 0
M  V30 16647 O 1695.56 1.59034 0.810585 0
M  V30 16648 C 1692.66 3.06277 1.45078 0
M  V30 16649 C 1691.83 4.27201 0.939045 0
M  V30 16650 C 1690.89 4.88395 1.95849 0
M  V30 16651 O 1689.92 5.4837 1.52576 0
M  V30 16652 N 1691.12 4.78328 3.28911 0
M  V30 16653 H 1693.88 2.97558 -0.35767 0
M  V30 16654 H 1691.44 1.58356 -0.336907 0
M  V30 16655 H 1693.44 3.44088 2.13038 0
M  V30 16656 H 1692.01 2.38409 2.02188 0
M  V30 16657 H 1691.23 3.9411 0.0842433 0
M  V30 16658 H 1692.51 5.05534 0.575603 0
M  V30 16659 H 1691.91 4.30707 3.66753 0
M  V30 16660 H 1690.47 5.20315 3.92576 0
M  V30 16661 N 1693.9 0.238138 1.5579 0
M  V30 16662 C 1695.13 -0.392852 2.02831 0
M  V30 16663 C 1695.54 -1.52714 1.11692 0
M  V30 16664 O 1694.88 -1.83294 0.122034 0
M  V30 16665 C 1694.95 -0.970383 3.46156 0
M  V30 16666 C 1694.61 0.0305457 4.5699 0
M  V30 16667 C 1695.61 0.836938 5.13119 0
M  V30 16668 C 1693.29 0.154102 5.02064 0
M  V30 16669 C 1695.29 1.75343 6.12808 0
M  V30 16670 C 1692.97 1.07411 6.01586 0
M  V30 16671 C 1693.97 1.8723 6.56836 0
M  V30 16672 O 1693.66 2.77681 7.54419 0
M  V30 16673 H 1693.39 -0.0985571 0.668777 0
M  V30 16674 H 1695.94 0.356979 2.02274 0
M  V30 16675 H 1694.17 -1.76961 3.43834 0
M  V30 16676 H 1695.86 -1.51053 3.76747 0
M  V30 16677 H 1696.63 0.752021 4.79134 0
M  V30 16678 H 1692.51 -0.457094 4.58728 0
M  V30 16679 H 1696.05 2.37687 6.55859 0
M  V30 16680 H 1691.95 1.15998 6.34992 0
M  V30 16681 H 1692.72 2.71943 7.72003 0
M  V30 16682 N 1695.38 -1.57561 -0.0350783 0
M  V30 16683 C 1696.31 -2.02953 -1.06502 0
M  V30 16684 C 1697.33 -0.941331 -1.32826 0
M  V30 16685 O 1698.51 -1.21873 -1.30419 0
M  V30 16686 C 1695.61 -2.38471 -2.40801 0
M  V30 16687 C 1694.79 -3.69596 -2.33917 0
M  V30 16688 C 1693.85 -3.9237 -3.50616 0
M  V30 16689 O 1692.87 -4.63504 -3.30382 0
M  V30 16690 N 1694.07 -3.37544 -4.72275 0
M  V30 16691 H 1696.84 -2.91926 -0.678169 0
M  V30 16692 H 1694.4 -1.60355 -0.22313 0
M  V30 16693 H 1696.39 -2.50849 -3.1758 0
M  V30 16694 H 1694.96 -1.55199 -2.71352 0
M  V30 16695 H 1694.18 -3.67629 -1.42277 0
M  V30 16696 H 1695.47 -4.55627 -2.26455 0
M  V30 16697 H 1694.87 -2.79875 -4.91616 0
M  V30 16698 H 1693.43 -3.55312 -5.4644 0
M  V30 16699 N 1696.86 0.307236 -1.54576 0
M  V30 16700 C 1697.77 1.4014 -1.88143 0
M  V30 16701 C 1698.78 1.5579 -0.774952 0
M  V30 16702 O 1699.96 1.70574 -1.07082 0
M  V30 16703 C 1697.03 2.74613 -2.11633 0
M  V30 16704 C 1696.09 2.68001 -3.35371 0
M  V30 16705 C 1695.32 3.96061 -3.57731 0
M  V30 16706 O 1695.54 4.95119 -2.83219 0
M  V30 16707 O 1694.48 3.98331 -4.51238 0
M  V30 16708 H 1698.3 1.14677 -2.81217 0
M  V30 16709 H 1695.89 0.502739 -1.40687 0
M  V30 16710 H 1697.77 3.54186 -2.2832 0
M  V30 16711 H 1696.44 2.99933 -1.21746 0
M  V30 16712 H 1695.35 1.86922 -3.24054 0
M  V30 16713 H 1696.68 2.47635 -4.25368 0
M  V30 16714 N 1698.34 1.46926 0.570122 0
M  V30 16715 C 1699.75 1.469 1.15227 0
M  V30 16716 C 1700.1 0.216651 1.95 0
M  V30 16717 O 1699.22 -0.679388 2.05459 0
M  V30 16718 C 1699.82 2.66158 2.09632 0
M  V30 16719 C 1698.38 2.69133 2.63144 0
M  V30 16720 C 1697.52 2.39795 1.39262 0
M  V30 16721 H 1700.48 1.54623 0.35739 0
M  V30 16722 H 1700.5 2.42393 2.93302 0
M  V30 16723 H 1700.01 3.5729 1.51543 0
M  V30 16724 H 1698.11 1.82106 3.25066 0
M  V30 16725 H 1698.22 3.69459 3.05019 0
M  V30 16726 H 1696.59 1.9011 1.695 0
M  V30 16727 H 1697.37 3.33119 0.829855 0
M  V30 16728 N 1699.82 -0.815801 1.34842 0
M  V30 16729 C 1701.06 -1.57426 1.28797 0
M  V30 16730 C 1701.42 -1.91897 -0.138973 0
M  V30 16731 O 1700.71 -1.57777 -1.08706 0
M  V30 16732 C 1700.9 -2.87795 2.11917 0
M  V30 16733 C 1700.73 -2.6606 3.62549 0
M  V30 16734 C 1699.5 -2.62428 4.3181 0
M  V30 16735 C 1701.7 -2.37078 4.56397 0
M  V30 16736 N 1699.68 -2.32313 5.68246 0
M  V30 16737 C 1701.05 -2.16721 5.80889 0
M  V30 16738 C 1703.11 -2.22865 4.45237 0
M  V30 16739 C 1701.81 -1.8359 6.95476 0
M  V30 16740 C 1703.84 -1.9113 5.59663 0
M  V30 16741 C 1703.2 -1.71602 6.83178 0
M  V30 16742 H 1699.3 -0.578164 0.526545 0
M  V30 16743 H 1701.88 -0.955728 1.69629 0
M  V30 16744 H 1700.05 -3.47559 1.7337 0
M  V30 16745 H 1701.79 -3.53258 1.97461 0
M  V30 16746 H 1698.54 -2.76753 3.84324 0
M  V30 16747 H 1698.96 -2.20076 6.40231 0
M  V30 16748 H 1703.61 -2.36665 3.50357 0
M  V30 16749 H 1701.32 -1.68528 7.90332 0
M  V30 16750 H 1704.91 -1.80854 5.52976 0
M  V30 16751 H 1703.79 -1.47403 7.70222 0
M  V30 16752 N 1701.29 -1.18689 -1.03686 0
M  V30 16753 C 1702.23 -0.875126 -2.11835 0
M  V30 16754 C 1703.24 0.128865 -1.62289 0
M  V30 16755 O 1704.43 -0.0994835 -1.78223 0
M  V30 16756 C 1701.53 -0.286914 -3.37683 0
M  V30 16757 C 1700.7 -1.3375 -4.16449 0
M  V30 16758 C 1699.76 -0.764286 -5.2062 0
M  V30 16759 O 1698.79 -1.43998 -5.50684 0
M  V30 16760 N 1699.99 0.436345 -5.78858 0
M  V30 16761 H 1702.75 -1.80601 -2.39172 0
M  V30 16762 H 1700.31 -1.0878 -1.19911 0
M  V30 16763 H 1702.31 0.110219 -4.0455 0
M  V30 16764 H 1700.88 0.548073 -3.07758 0
M  V30 16765 H 1700.1 -1.9098 -3.44848 0
M  V30 16766 H 1701.38 -2.04566 -4.65865 0
M  V30 16767 H 1700.78 1.00296 -5.56738 0
M  V30 16768 H 1699.34 0.775353 -6.47172 0
M  V30 16769 N 1702.77 1.22662 -0.989529 0
M  V30 16770 C 1704 1.9506 -0.680833 0
M  V30 16771 C 1704.41 1.73354 0.757953 0
M  V30 16772 O 1703.75 1.02755 1.52273 0
M  V30 16773 C 1703.81 3.47982 -0.902711 0
M  V30 16774 C 1703.48 3.93418 -2.32533 0
M  V30 16775 C 1704.48 4.01362 -3.30462 0
M  V30 16776 C 1702.16 4.26157 -2.65886 0
M  V30 16777 C 1704.15 4.41413 -4.59819 0
M  V30 16778 C 1701.84 4.65888 -3.95463 0
M  V30 16779 C 1702.84 4.73484 -4.92241 0
M  V30 16780 O 1702.53 5.12318 -6.19504 0
M  V30 16781 H 1702.26 0.627572 -0.251256 0
M  V30 16782 H 1704.81 1.56858 -1.32608 0
M  V30 16783 H 1703.04 3.86181 -0.200292 0
M  V30 16784 H 1704.73 4.01592 -0.589781 0
M  V30 16785 H 1705.5 3.76262 -3.06026 0
M  V30 16786 H 1701.38 4.19451 -1.91263 0
M  V30 16787 H 1704.92 4.47257 -5.35357 0
M  V30 16788 H 1700.82 4.90439 -4.1969 0
M  V30 16789 H 1701.59 5.30402 -6.23391 0
M  V30 16790 N 1704.25 0.762308 1.37937 0
M  V30 16791 C 1705.5 0.322846 2.00214 0
M  V30 16792 C 1705.83 -1.09513 1.60376 0
M  V30 16793 O 1705.1 -1.75165 0.845432 0
M  V30 16794 C 1705.39 0.455651 3.57206 0
M  V30 16795 C 1705.24 1.91537 4.06981 0
M  V30 16796 C 1706.56 -0.145758 4.39859 0
M  V30 16797 H 1703.68 0.118781 0.727365 0
M  V30 16798 H 1706.32 0.963585 1.63753 0
M  V30 16799 H 1704.47 -0.0898341 3.88396 0
M  V30 16800 H 1706.14 2.51983 3.86397 0
M  V30 16801 H 1704.38 2.42744 3.59524 0
M  V30 16802 H 1705.06 1.9594 5.16054 0
M  V30 16803 H 1707.53 0.31956 4.14871 0
M  V30 16804 H 1706.41 -0.0226441 5.48895 0
M  V30 16805 H 1706.67 -1.23504 4.24499 0
M  V30 16806 N 1705.73 -1.49049 0.51208 0
M  V30 16807 C 1707 -1.95383 -0.0920331 0
M  V30 16808 C 1707.38 -1.4539 -1.53053 0
M  V30 16809 O 1706.73 -0.672485 -2.1838 0
M  V30 16810 C 1706.94 -3.48999 0.00673901 0
M  V30 16811 C 1708.29 -4.24292 -0.161602 0
M  V30 16812 O 1709.31 -3.56135 -0.0679198 0
M  V30 16813 O 1708.17 -5.45343 -0.355351 0
M  V30 16814 H 1705.27 -0.822175 -0.0891992 0
M  V30 16815 H 1707.81 -1.59647 0.575406 0
M  V30 16816 H 1706.59 -3.78055 1.00948 0
M  V30 16817 H 1706.21 -3.91383 -0.700353 0
M  V30 16818 N 1707.21 -0.246397 -1.55662 0
M  V30 16819 C 1708.48 0.42879 -1.90842 0
M  V30 16820 C 1708.86 1.75905 -1.16707 0
M  V30 16821 O 1708.21 2.26723 -0.284391 0
M  V30 16822 C 1708.42 0.597368 -3.4385 0
M  V30 16823 C 1709.77 0.893477 -4.15093 0
M  V30 16824 O 1710.79 0.683251 -3.49586 0
M  V30 16825 O 1709.65 1.2938 -5.30964 0
M  V30 16826 H 1706.75 0.230145 -0.794331 0
M  V30 16827 H 1709.29 -0.290426 -1.67196 0
M  V30 16828 H 1708.06 -0.339952 -3.8982 0
M  V30 16829 H 1707.69 1.36714 -3.73356 0
M  V30 16830 N 1708.68 1.57577 0.026722 0
M  V30 16831 C 1709.93 1.8966 0.718124 0
M  V30 16832 C 1710.26 0.844423 1.7488 0
M  V30 16833 O 1709.54 -0.14023 1.93994 0
M  V30 16834 C 1709.82 3.32377 1.38555 0
M  V30 16835 C 1709.67 4.4829 0.368227 0
M  V30 16836 C 1710.99 3.74051 2.31891 0
M  V30 16837 H 1708.11 0.689767 0.259596 0
M  V30 16838 H 1710.75 1.8999 -0.0190825 0
M  V30 16839 H 1708.9 3.32226 2.01391 0
M  V30 16840 H 1710.58 4.60576 -0.258394 0
M  V30 16841 H 1708.82 4.32675 -0.312255 0
M  V30 16842 H 1709.49 5.45041 0.873749 0
M  V30 16843 H 1711.97 3.75584 1.79097 0
M  V30 16844 H 1710.84 4.74713 2.7557 0
M  V30 16845 H 1711.1 3.06438 3.18666 0
M  V30 16846 N 1710.16 -0.299034 1.54737 0
M  V30 16847 C 1711.41 -1.03159 1.75299 0
M  V30 16848 C 1711.76 -1.84859 0.533365 0
M  V30 16849 O 1711.06 -1.85639 -0.474219 0
M  V30 16850 C 1711.25 -1.9673 2.98382 0
M  V30 16851 C 1711.08 -1.24234 4.32199 0
M  V30 16852 C 1709.85 -0.96869 4.95928 0
M  V30 16853 C 1712.05 -0.645795 5.10229 0
M  V30 16854 N 1710.03 -0.214208 6.13526 0
M  V30 16855 C 1711.4 -0.0241804 6.19995 0
M  V30 16856 C 1713.45 -0.55104 4.94841 0
M  V30 16857 C 1712.16 0.683023 7.1605 0
M  V30 16858 C 1714.18 0.142513 5.91228 0
M  V30 16859 C 1713.55 0.752971 7.00364 0
M  V30 16860 H 1709.64 -0.360348 0.694027 0
M  V30 16861 H 1712.23 -0.31 1.92216 0
M  V30 16862 H 1710.4 -2.66138 2.82887 0
M  V30 16863 H 1712.13 -2.63152 3.07462 0
M  V30 16864 H 1708.89 -1.26735 4.56328 0
M  V30 16865 H 1709.31 0.149604 6.76835 0
M  V30 16866 H 1713.95 -1.0087 4.10591 0
M  V30 16867 H 1711.67 1.15245 7.9984 0
M  V30 16868 H 1715.26 0.215798 5.814 0
M  V30 16869 H 1714.14 1.2811 7.73665 0
M  V30 16870 N 1711.64 -1.47227 -0.562322 0
M  V30 16871 C 1712.57 -1.62204 -1.67965 0
M  V30 16872 C 1713.55 -0.471638 -1.63431 0
M  V30 16873 O 1714.74 -0.70036 -1.81131 0
M  V30 16874 C 1711.87 -1.63127 -3.06605 0
M  V30 16875 C 1710.82 -2.77343 -3.25983 0
M  V30 16876 C 1710.15 -2.63336 -4.65358 0
M  V30 16877 C 1711.45 -4.18983 -3.1185 0
M  V30 16878 H 1713.14 -2.55739 -1.55686 0
M  V30 16879 H 1710.69 -1.23075 -0.747561 0
M  V30 16880 H 1712.64 -1.72197 -3.84612 0
M  V30 16881 H 1711.36 -0.661501 -3.19831 0
M  V30 16882 H 1710.02 -2.67776 -2.50383 0
M  V30 16883 H 1709.67 -1.64398 -4.75376 0
M  V30 16884 H 1709.37 -3.39957 -4.79273 0
M  V30 16885 H 1710.89 -2.74327 -5.45506 0
M  V30 16886 H 1712.31 -4.29554 -3.79679 0
M  V30 16887 H 1710.7 -4.96351 -3.37277 0
M  V30 16888 H 1711.77 -4.37709 -2.08661 0
M  V30 16889 N 1713.12 0.808639 -1.35273 0
M  V30 16890 C 1714.05 1.92612 -1.22376 0
M  V30 16891 C 1715.03 1.62213 -0.112119 0
M  V30 16892 O 1716.21 1.86411 -0.279844 0
M  V30 16893 C 1713.34 3.26965 -0.883847 0
M  V30 16894 C 1712.39 3.76313 -2.00725 0
M  V30 16895 S 1713.22 3.94362 -3.62269 0
M  V30 16896 C 1714.37 5.3162 -3.3035 0
M  V30 16897 H 1714.61 2.03257 -2.16965 0
M  V30 16898 H 1712.14 0.96579 -1.20465 0
M  V30 16899 H 1714.1 4.04582 -0.69453 0
M  V30 16900 H 1712.76 3.14069 0.0439446 0
M  V30 16901 H 1711.95 4.73615 -1.72351 0
M  V30 16902 H 1711.55 3.05687 -2.1548 0
M  V30 16903 H 1713.85 6.15539 -2.83051 0
M  V30 16904 H 1714.79 5.64986 -4.26844 0
M  V30 16905 H 1715.2 4.97809 -2.66171 0
M  V30 16906 N 1714.6 1.19237 1.03055 0
M  V30 16907 C 1715.84 0.993971 1.76427 0
M  V30 16908 C 1716.17 -0.475422 1.886 0
M  V30 16909 O 1715.43 -1.36925 1.39821 0
M  V30 16910 C 1715.73 1.60607 3.19281 0
M  V30 16911 C 1715.39 3.10329 3.27119 0
M  V30 16912 C 1714.05 3.51192 3.28965 0
M  V30 16913 C 1716.41 4.0634 3.264 0
M  V30 16914 C 1713.73 4.8662 3.27747 0
M  V30 16915 C 1716.09 5.41696 3.26723 0
M  V30 16916 C 1714.75 5.81992 3.26866 0
M  V30 16917 H 1714.02 0.36372 0.645592 0
M  V30 16918 H 1716.67 1.48455 1.20969 0
M  V30 16919 H 1714.97 1.03775 3.77807 0
M  V30 16920 H 1716.67 1.42786 3.74717 0
M  V30 16921 H 1713.26 2.77769 3.26409 0
M  V30 16922 H 1717.44 3.75814 3.24156 0
M  V30 16923 H 1712.7 5.17123 3.26181 0
M  V30 16924 H 1716.87 6.1585 3.25118 0
M  V30 16925 H 1714.5 6.86905 3.25676 0
M  V30 16926 N 1716.07 -1.22136 0.99602 0
M  V30 16927 C 1717.02 -2.262 0.541868 0
M  V30 16928 C 1718.02 -1.64387 -0.409047 0
M  V30 16929 O 1719.22 -1.7779 -0.281224 0
M  V30 16930 H 1715.6 -0.73546 0.156851 0
M  V30 16931 H 1717.57 -2.61853 1.43092 0
M  V30 16932 C 1716.32 -3.47476 -0.124723 0
M  V30 16933 H 1715.64 -3.95303 0.597934 0
M  V30 16934 H 1717.08 -4.22053 -0.405902 0
M  V30 16935 C 1715.54 -3.08183 -1.36105 0
M  V30 16936 O 1716.07 -3.17862 -2.45615 0
M  V30 16937 N 1714.28 -2.62936 -1.23746 0
M  V30 16938 H 1713.82 -2.5526 -0.346394 0
M  V30 16939 H 1713.78 -2.37014 -2.06572 0
M  V30 16940 N 1717.55 -0.769612 -1.37531 0
M  V30 16941 C 1718.5 -0.142211 -2.32165 0
M  V30 16942 C 1719.49 0.687376 -1.54827 0
M  V30 16943 O 1720.7 0.584677 -1.7024 0
M  V30 16944 H 1717.08 -0.0271998 -0.751508 0
M  V30 16945 H 1719.05 -0.956148 -2.82667 0
M  V30 16946 C 1717.8 0.72421 -3.40074 0
M  V30 16947 H 1717.12 0.0952318 -3.99687 0
M  V30 16948 H 1718.56 1.13021 -4.08659 0
M  V30 16949 C 1717.02 1.87388 -2.79977 0
M  V30 16950 O 1717.55 2.96921 -2.70557 0
M  V30 16951 N 1715.75 1.67384 -2.37552 0
M  V30 16952 H 1715.3 0.782941 -2.45414 0
M  V30 16953 H 1715.26 2.44474 -1.97686 0
M  V30 16954 N 1719.03 1.48775 -0.519977 0
M  V30 16955 C 1719.99 2.27967 0.237405 0
M  V30 16956 C 1720.99 1.34787 0.876868 0
M  V30 16957 O 1722.18 1.57773 0.738463 0
M  V30 16958 C 1719.32 3.13353 1.34248 0
M  V30 16959 H 1720.51 2.96386 -0.457753 0
M  V30 16960 H 1718.06 1.53852 -0.275569 0
M  V30 16961 H 1718.8 2.49543 2.0712 0
M  V30 16962 H 1718.58 3.81885 0.889187 0
M  V30 16963 H 1720.07 3.73116 1.87547 0
M  V30 16964 N 1720.51 0.254649 1.55529 0
M  V30 16965 C 1721.75 -0.361563 2.00161 0
M  V30 16966 C 1722.11 -1.55 1.13986 0
M  V30 16967 O 1721.4 -1.90583 0.197165 0
M  V30 16968 C 1721.6 -0.813781 3.48012 0
M  V30 16969 C 1721.43 0.329293 4.48493 0
M  V30 16970 C 1720.2 0.806484 4.98823 0
M  V30 16971 C 1722.39 1.15892 5.01072 0
M  V30 16972 N 1720.38 1.92116 5.83065 0
M  V30 16973 C 1721.75 2.12183 5.82562 0
M  V30 16974 C 1723.8 1.1946 4.83357 0
M  V30 16975 C 1722.5 3.11763 6.48225 0
M  V30 16976 C 1724.53 2.17873 5.49805 0
M  V30 16977 C 1723.89 3.129 6.31088 0
M  V30 16978 H 1719.99 -0.0980461 0.775829 0
M  V30 16979 H 1722.58 0.373998 1.91074 0
M  V30 16980 H 1720.75 -1.51861 3.57481 0
M  V30 16981 H 1722.48 -1.4056 3.79506 0
M  V30 16982 H 1719.23 0.389288 4.71997 0
M  V30 16983 H 1719.66 2.4815 6.29882 0
M  V30 16984 H 1724.3 0.473767 4.20137 0
M  V30 16985 H 1722.02 3.8479 7.10607 0
M  V30 16986 H 1725.6 2.2135 5.38048 0
M  V30 16987 H 1724.48 3.87808 6.81597 0
M  V30 16988 N 1721.99 -1.57589 -0.0183649 0
M  V30 16989 C 1722.92 -2.1029 -1.01492 0
M  V30 16990 C 1723.9 -1.00782 -1.37029 0
M  V30 16991 O 1725.08 -1.28365 -1.45726 0
M  V30 16992 C 1722.21 -2.59111 -2.31255 0
M  V30 16993 C 1721.17 -3.72979 -2.0993 0
M  V30 16994 C 1720.49 -4.08046 -3.45547 0
M  V30 16995 C 1721.79 -5.00988 -1.47677 0
M  V30 16996 H 1723.49 -2.93804 -0.57618 0
M  V30 16997 H 1721.03 -1.41336 -0.275708 0
M  V30 16998 H 1722.99 -2.94602 -3.0131 0
M  V30 16999 H 1721.71 -1.72694 -2.77208 0
M  V30 17000 H 1720.37 -3.37853 -1.42306 0
M  V30 17001 H 1720.02 -3.1868 -3.89169 0
M  V30 17002 H 1719.72 -4.8475 -3.32101 0
M  V30 17003 H 1721.24 -4.46081 -4.16947 0
M  V30 17004 H 1722.65 -5.34368 -2.07663 0
M  V30 17005 H 1721.05 -5.82375 -1.44774 0
M  V30 17006 H 1722.12 -4.82865 -0.443804 0
M  V30 17007 N 1723.46 0.290824 -1.54893 0
M  V30 17008 C 1724.69 1.04193 -1.78402 0
M  V30 17009 C 1725.1 1.81071 -0.548631 0
M  V30 17010 O 1724.45 1.77005 0.491403 0
M  V30 17011 C 1724.51 2.06122 -2.94541 0
M  V30 17012 C 1724.17 1.48346 -4.32253 0
M  V30 17013 C 1725.17 0.908243 -5.11905 0
M  V30 17014 C 1722.85 1.51602 -4.78876 0
M  V30 17015 C 1724.85 0.373282 -6.36306 0
M  V30 17016 C 1722.53 0.977194 -6.03236 0
M  V30 17017 C 1723.53 0.406805 -6.81787 0
M  V30 17018 O 1723.22 -0.123821 -8.03805 0
M  V30 17019 H 1722.95 0.314317 -0.598482 0
M  V30 17020 H 1725.51 0.332504 -2.02691 0
M  V30 17021 H 1723.74 2.80773 -2.65901 0
M  V30 17022 H 1725.43 2.67216 -3.05533 0
M  V30 17023 H 1726.19 0.875912 -4.77025 0
M  V30 17024 H 1722.07 1.94938 -4.17756 0
M  V30 17025 H 1725.61 -0.0725714 -6.97562 0
M  V30 17026 H 1721.51 1.00671 -6.37602 0
M  V30 17027 H 1722.28 -0.0114852 -8.18499 0
M  V30 17028 N 1724.94 1.47523 0.554506 0
M  V30 17029 C 1725.89 1.60623 1.68235 0
M  V30 17030 C 1726.88 0.473445 1.6265 0
M  V30 17031 O 1728.09 0.651337 1.67802 0
M  V30 17032 H 1724.47 0.505539 0.556718 0
M  V30 17033 H 1726.44 2.55395 1.54323 0
M  V30 17034 C 1725.19 1.64022 3.06581 0
M  V30 17035 H 1724.51 2.50537 3.11562 0
M  V30 17036 H 1725.95 1.77237 3.85179 0
M  V30 17037 C 1724.41 0.374048 3.34817 0
M  V30 17038 O 1724.94 -0.523704 3.98272 0
M  V30 17039 N 1723.14 0.253244 2.89494 0
M  V30 17040 H 1722.69 0.984738 2.38035 0
M  V30 17041 H 1722.65 -0.592982 3.08757 0
M  V30 17042 N 1726.42 -0.801453 1.357 0
M  V30 17043 C 1727.84 -1.09776 1.1585 0
M  V30 17044 C 1728.04 -2.01484 -0.0255653 0
M  V30 17045 O 1727.09 -2.42758 -0.694613 0
M  V30 17046 C 1728.41 -1.72381 2.46385 0
M  V30 17047 C 1729.95 -1.84777 2.52639 0
M  V30 17048 C 1730.43 -2.50797 3.83229 0
M  V30 17049 N 1731.92 -2.58277 3.84509 0
M  V30 17050 C 1732.65 -3.10141 4.82286 0
M  V30 17051 N 1732.15 -3.62404 5.90454 0
M  V30 17052 N 1733.94 -3.08742 4.69718 0
M  V30 17053 H 1726.09 -0.191926 2.11531 0
M  V30 17054 H 1728.36 -0.147742 0.936417 0
M  V30 17055 H 1728.06 -1.12462 3.33234 0
M  V30 17056 H 1727.94 -2.72024 2.6131 0
M  V30 17057 H 1730.32 -2.43837 1.66215 0
M  V30 17058 H 1730.41 -0.839745 2.41624 0
M  V30 17059 H 1730.05 -1.92385 4.70053 0
M  V30 17060 H 1729.98 -3.52147 3.91535 0
M  V30 17061 H 1732.47 -2.21257 3.06356 0
M  V30 17062 H 1732.78 -4.00293 6.61049 0
M  V30 17063 H 1731.13 -3.60588 5.94139 0
M  V30 17064 H 1734.32 -2.67193 3.84351 0
M  V30 17065 H 1734.49 -3.48854 5.46081 0
M  V30 17066 N 1727.9 -1.19782 -1.02421 0
M  V30 17067 C 1728.85 -0.93978 -2.108 0
M  V30 17068 C 1729.82 0.12716 -1.65613 0
M  V30 17069 O 1731 -0.0159669 -1.90793 0
M  V30 17070 C 1728.14 -0.489656 -3.41609 0
M  V30 17071 C 1727.25 -1.62389 -4.00317 0
M  V30 17072 C 1726.39 -1.12483 -5.19154 0
M  V30 17073 C 1725.43 -2.23266 -5.69929 0
M  V30 17074 N 1724.56 -1.74633 -6.80035 0
M  V30 17075 H 1729.4 -1.8677 -2.32209 0
M  V30 17076 H 1726.94 -0.931082 -1.13883 0
M  V30 17077 H 1728.9 -0.210049 -4.16671 0
M  V30 17078 H 1727.53 0.40127 -3.20296 0
M  V30 17079 H 1726.58 -2.0186 -3.22423 0
M  V30 17080 H 1727.89 -2.45836 -4.34011 0
M  V30 17081 H 1727.05 -0.800737 -6.01393 0
M  V30 17082 H 1725.79 -0.260155 -4.87006 0
M  V30 17083 H 1724.79 -2.56501 -4.863 0
M  V30 17084 H 1726.02 -3.10197 -6.04115 0
M  V30 17085 H 1723.96 -0.904804 -6.4973 0
M  V30 17086 H 1723.88 -2.51666 -7.12882 0
M  V30 17087 H 1725.15 -1.45201 -7.65857 0
M  V30 17088 N 1729.38 1.21606 -1.00248 0
M  V30 17089 C 1730.61 1.94609 -0.702502 0
M  V30 17090 C 1731.02 1.73928 0.734483 0
M  V30 17091 O 1730.38 1.04432 1.49667 0
M  V30 17092 C 1730.43 3.47077 -1.01092 0
M  V30 17093 O 1730.15 3.67071 -2.39145 0
M  V30 17094 C 1731.65 4.37248 -0.729988 0
M  V30 17095 H 1728.87 0.618962 -0.259088 0
M  V30 17096 H 1731.41 1.54494 -1.33985 0
M  V30 17097 H 1729.57 3.85125 -0.419215 0
M  V30 17098 H 1729.98 4.61188 -2.49811 0
M  V30 17099 H 1731.46 5.4294 -0.99598 0
M  V30 17100 H 1731.93 4.37913 0.33599 0
M  V30 17101 H 1732.54 4.04842 -1.30318 0
M  V30 17102 N 1730.86 0.776895 1.37121 0
M  V30 17103 C 1732.08 0.353911 2.04358 0
M  V30 17104 C 1732.51 -1.01745 1.58207 0
M  V30 17105 O 1731.86 -1.653 0.744691 0
M  V30 17106 C 1731.91 0.411918 3.5824 0
M  V30 17107 O 1731.02 -0.58576 4.08219 0
M  V30 17108 H 1730.36 0.152335 0.64629 0
M  V30 17109 H 1732.89 1.05452 1.75331 0
M  V30 17110 H 1732.9 0.271043 4.07099 0
M  V30 17111 H 1731.57 1.41236 3.91185 0
M  V30 17112 H 1730.15 -0.40758 3.70666 0
M  V30 17113 N 1732.33 -1.48497 0.527859 0
M  V30 17114 C 1733.75 -1.58517 0.185573 0
M  V30 17115 C 1733.95 -1.53012 -1.31109 0
M  V30 17116 O 1733.01 -1.41807 -2.08919 0
M  V30 17117 C 1734.32 -2.9024 0.786219 0
M  V30 17118 C 1735.87 -3.03764 0.75476 0
M  V30 17119 C 1736.34 -4.38144 1.33394 0
M  V30 17120 N 1737.83 -4.44705 1.29582 0
M  V30 17121 C 1738.57 -5.47187 1.71388 0
M  V30 17122 N 1738.06 -6.56635 2.20913 0
M  V30 17123 N 1739.86 -5.38057 1.62638 0
M  V30 17124 H 1732.01 -1.50319 1.5006 0
M  V30 17125 H 1734.27 -0.713625 0.624054 0
M  V30 17126 H 1733.98 -2.99918 1.8369 0
M  V30 17127 H 1733.85 -3.76288 0.262084 0
M  V30 17128 H 1736.24 -2.937 -0.287157 0
M  V30 17129 H 1736.32 -2.19331 1.31634 0
M  V30 17130 H 1735.96 -4.48962 2.37478 0
M  V30 17131 H 1735.89 -5.2126 0.748063 0
M  V30 17132 H 1738.38 -3.66195 0.933246 0
M  V30 17133 H 1738.7 -7.30967 2.50813 0
M  V30 17134 H 1737.04 -6.57604 2.24906 0
M  V30 17135 H 1740.23 -4.51447 1.23746 0
M  V30 17136 H 1740.41 -6.17793 1.9554 0
M  V30 17137 N 1733.81 -0.262893 -1.55392 0
M  V30 17138 C 1735.06 0.357895 -1.99617 0
M  V30 17139 C 1735.39 1.56415 -1.151 0
M  V30 17140 O 1734.67 1.93273 -0.218139 0
M  V30 17141 C 1734.95 0.752095 -3.52158 0
M  V30 17142 C 1734.8 -0.460658 -4.47435 0
M  V30 17143 C 1736.12 1.59314 -4.10253 0
M  V30 17144 H 1733.24 0.128612 -0.725691 0
M  V30 17145 H 1735.88 -0.367399 -1.86414 0
M  V30 17146 H 1734.03 1.37006 -3.6354 0
M  V30 17147 H 1735.7 -1.09918 -4.48013 0
M  V30 17148 H 1733.95 -1.10093 -4.19597 0
M  V30 17149 H 1734.62 -0.141262 -5.51819 0
M  V30 17150 H 1737.09 1.07135 -4.02071 0
M  V30 17151 H 1735.97 1.83779 -5.1722 0
M  V30 17152 H 1736.23 2.57022 -3.59711 0
M  V30 17153 N 1735.29 1.57597 0.0100073 0
M  V30 17154 C 1736.52 1.9412 0.707165 0
M  V30 17155 C 1736.93 0.862669 1.68388 0
M  V30 17156 O 1736.27 -0.167949 1.82931 0
M  V30 17157 C 1736.33 3.26571 1.50306 0
M  V30 17158 C 1736 4.51776 0.689031 0
M  V30 17159 C 1736.99 5.19897 -0.018977 0
M  V30 17160 C 1734.68 4.98232 0.637951 0
M  V30 17161 C 1736.67 6.32766 -0.76716 0
M  V30 17162 C 1734.36 6.10994 -0.113964 0
M  V30 17163 C 1735.36 6.78117 -0.815262 0
M  V30 17164 O 1735.05 7.88719 -1.55493 0
M  V30 17165 H 1734.78 0.644932 0.202579 0
M  V30 17166 H 1737.33 2.05372 -0.0341978 0
M  V30 17167 H 1735.56 3.11699 2.28868 0
M  V30 17168 H 1737.25 3.4828 2.08461 0
M  V30 17169 H 1738.02 4.84999 0.0113968 0
M  V30 17170 H 1733.9 4.45818 1.17333 0
M  V30 17171 H 1737.44 6.85092 -1.31508 0
M  V30 17172 H 1733.34 6.45334 -0.146194 0
M  V30 17173 H 1734.1 8.05181 -1.47059 0
M  V30 17174 N 1736.77 -0.282606 1.55045 0
M  V30 17175 C 1737.71 -1.34908 1.87266 0
M  V30 17176 C 1738.68 -1.49528 0.72323 0
M  V30 17177 O 1739.87 -1.6409 0.973602 0
M  V30 17178 C 1737.01 -2.70603 2.14168 0
M  V30 17179 C 1736.12 -2.64284 3.41728 0
M  V30 17180 C 1735.26 -3.92094 3.58379 0
M  V30 17181 C 1734.3 -3.80246 4.79666 0
M  V30 17182 N 1733.43 -4.99871 4.93025 0
M  V30 17183 H 1738.27 -1.06731 2.78231 0
M  V30 17184 H 1735.81 -0.515845 1.37759 0
M  V30 17185 H 1737.77 -3.49542 2.27763 0
M  V30 17186 H 1736.4 -2.97003 1.26448 0
M  V30 17187 H 1735.45 -1.77108 3.36656 0
M  V30 17188 H 1736.76 -2.51425 4.30798 0
M  V30 17189 H 1735.92 -4.79473 3.7174 0
M  V30 17190 H 1734.66 -4.07808 2.67476 0
M  V30 17191 H 1733.66 -2.91251 4.66319 0
M  V30 17192 H 1734.89 -3.6606 5.71994 0
M  V30 17193 H 1732.83 -5.16014 4.0505 0
M  V30 17194 H 1732.75 -4.89507 5.76124 0
M  V30 17195 H 1734.02 -5.88849 5.10761 0
M  V30 17196 N 1738.25 -1.47815 -0.546675 0
M  V30 17197 C 1739.49 -1.5498 -1.30336 0
M  V30 17198 C 1739.82 -0.216533 -1.93291 0
M  V30 17199 O 1739.08 0.791622 -1.78974 0
M  V30 17200 C 1739.37 -2.6242 -2.42632 0
M  V30 17201 C 1739.04 -4.05375 -1.97439 0
M  V30 17202 C 1737.7 -4.44287 -1.84831 0
M  V30 17203 C 1740.05 -4.9503 -1.6308 0
M  V30 17204 C 1737.38 -5.70678 -1.36174 0
M  V30 17205 C 1739.73 -6.21894 -1.1589 0
M  V30 17206 C 1738.4 -6.59678 -1.01886 0
M  V30 17207 H 1737.67 -0.567112 -0.476933 0
M  V30 17208 H 1740.32 -1.81461 -0.611907 0
M  V30 17209 H 1738.62 -2.29736 -3.17378 0
M  V30 17210 H 1740.32 -2.65184 -3.00796 0
M  V30 17211 H 1736.91 -3.74635 -2.08199 0
M  V30 17212 H 1741.09 -4.65657 -1.71689 0
M  V30 17213 H 1736.35 -5.98693 -1.24004 0
M  V30 17214 H 1740.52 -6.9077 -0.883691 0
M  V30 17215 H 1738.15 -7.57504 -0.639614 0
M  V30 17216 N 1739.72 0.794246 -1.36123 0
M  V30 17217 C 1740.96 1.56516 -1.31462 0
M  V30 17218 C 1741.33 1.91706 0.106284 0
M  V30 17219 O 1742.53 2.67365 0.277403 0
M  V30 17220 C 1740.8 2.81108 -2.2071 0
M  V30 17221 S 1742.36 3.71399 -2.33685 0
M  V30 17222 H 1739.18 0.536118 -0.467011 0
M  V30 17223 H 1741.78 0.935871 -1.71644 0
M  V30 17224 H 1740.48 2.53299 -3.22905 0
M  V30 17225 H 1740.01 3.49014 -1.8153 0
M  V30 17226 H 1742.03 4.71998 -1.53078 0
M  V30 17227 N 1741.2 1.20323 1.01785 0
M  V30 17228 C 1742.43 1.03893 1.79502 0
M  V30 17229 C 1742.85 -0.407421 1.83635 0
M  V30 17230 O 1742.21 -1.29338 1.27049 0
M  V30 17231 C 1742.26 1.62562 3.21879 0
M  V30 17232 O 1741.36 0.862398 4.03282 0
M  V30 17233 H 1740.7 0.366479 0.553705 0
M  V30 17234 H 1743.23 1.59589 1.28034 0
M  V30 17235 H 1743.24 1.66244 3.72595 0
M  V30 17236 H 1741.92 2.67826 3.18186 0
M  V30 17237 H 1740.49 0.899687 3.61884 0
M  V30 17238 N 1742.68 -1.21073 1.00892 0
M  V30 17239 C 1743.63 -2.23583 0.572636 0
M  V30 17240 C 1744.6 -1.61129 -0.403324 0
M  V30 17241 O 1745.78 -1.88355 -0.304491 0
M  V30 17242 C 1742.92 -3.44981 -0.0906539 0
M  V30 17243 C 1742.03 -4.21894 0.928953 0
M  V30 17244 C 1741.17 -5.30669 0.237516 0
M  V30 17245 C 1740.21 -5.99317 1.24441 0
M  V30 17246 N 1739.35 -6.99699 0.580172 0
M  V30 17247 H 1744.19 -2.60263 1.45146 0
M  V30 17248 H 1741.72 -1.27895 0.72673 0
M  V30 17249 H 1743.68 -4.14285 -0.492281 0
M  V30 17250 H 1742.31 -3.09017 -0.933169 0
M  V30 17251 H 1741.36 -3.5173 1.4488 0
M  V30 17252 H 1742.67 -4.69116 1.69503 0
M  V30 17253 H 1741.83 -6.06301 -0.220013 0
M  V30 17254 H 1740.57 -4.84463 -0.560937 0
M  V30 17255 H 1739.57 -5.22453 1.7124 0
M  V30 17256 H 1740.8 -6.47609 2.04401 0
M  V30 17257 H 1738.74 -6.55699 -0.198553 0
M  V30 17258 H 1738.66 -7.45009 1.28444 0
M  V30 17259 H 1739.93 -7.79363 0.145977 0
M  V30 17260 N 1744.16 -0.784156 -1.36707 0
M  V30 17261 C 1745.09 -0.193081 -2.327 0
M  V30 17262 C 1746.07 0.668999 -1.56392 0
M  V30 17263 O 1747.25 0.603908 -1.84571 0
M  V30 17264 C 1744.38 0.677092 -3.40636 0
M  V30 17265 C 1743.34 -0.0846718 -4.27916 0
M  V30 17266 C 1742.66 0.905754 -5.26973 0
M  V30 17267 C 1743.96 -1.27085 -5.06603 0
M  V30 17268 H 1745.66 -0.995029 -2.82382 0
M  V30 17269 H 1743.2 -0.479929 -1.35767 0
M  V30 17270 H 1745.16 1.1005 -4.06776 0
M  V30 17271 H 1743.88 1.51169 -2.89509 0
M  V30 17272 H 1742.54 -0.488992 -3.63324 0
M  V30 17273 H 1742.19 1.73524 -4.72121 0
M  V30 17274 H 1741.89 0.400524 -5.86233 0
M  V30 17275 H 1743.41 1.32784 -5.95987 0
M  V30 17276 H 1744.83 -0.923469 -5.65814 0
M  V30 17277 H 1743.22 -1.70901 -5.7525 0
M  V30 17278 H 1744.29 -2.06882 -4.38552 0
M  V30 17279 N 1745.64 1.48215 -0.535727 0
M  V30 17280 C 1746.6 2.28206 0.213212 0
M  V30 17281 C 1747.6 1.3571 0.862522 0
M  V30 17282 O 1748.79 1.58547 0.721688 0
M  V30 17283 C 1745.92 3.1476 1.30917 0
M  V30 17284 H 1747.11 2.95884 -0.489163 0
M  V30 17285 H 1744.67 1.53551 -0.291872 0
M  V30 17286 H 1745.4 2.51726 2.04462 0
M  V30 17287 H 1745.19 3.82806 0.848633 0
M  V30 17288 H 1746.68 3.75085 1.83579 0
M  V30 17289 N 1747.11 0.27113 1.5525 0
M  V30 17290 C 1748.02 -0.628245 2.26031 0
M  V30 17291 C 1749.04 -1.17339 1.28481 0
M  V30 17292 O 1750.22 -1.20453 1.61409 0
M  V30 17293 C 1747.28 -1.79766 2.96454 0
M  V30 17294 C 1746.34 -1.28958 4.09473 0
M  V30 17295 C 1745.58 -2.40326 4.76528 0
M  V30 17296 O 1745.8 -3.59595 4.42772 0
M  V30 17297 O 1744.73 -2.08708 5.64557 0
M  V30 17298 H 1748.56 -0.0549756 3.0365 0
M  V30 17299 H 1746.14 0.0386859 1.4935 0
M  V30 17300 H 1748.03 -2.4796 3.40725 0
M  V30 17301 H 1746.7 -2.35809 2.21756 0
M  V30 17302 H 1745.61 -0.57422 3.69667 0
M  V30 17303 H 1746.94 -0.774945 4.86061 0
M  V30 17304 N 1748.59 -1.576 -0.00164943 0
M  V30 17305 C 1749.84 -1.90778 -0.68786 0
M  V30 17306 C 1750.17 -0.872138 -1.73515 0
M  V30 17307 O 1749.45 0.109349 -1.94192 0
M  V30 17308 C 1749.73 -3.34539 -1.3325 0
M  V30 17309 C 1749.58 -4.48819 -0.296862 0
M  V30 17310 C 1750.9 -3.77693 -2.25911 0
M  V30 17311 H 1748.02 -0.69381 -0.24859 0
M  V30 17312 H 1750.66 -1.89936 0.0493059 0
M  V30 17313 H 1748.81 -3.35388 -1.9608 0
M  V30 17314 H 1750.48 -4.60106 0.331635 0
M  V30 17315 H 1748.73 -4.32123 0.38105 0
M  V30 17316 H 1749.4 -5.46362 -0.786927 0
M  V30 17317 H 1751.87 -3.78386 -1.73099 0
M  V30 17318 H 1750.75 -4.79037 -2.67983 0
M  V30 17319 H 1751.01 -3.11469 -3.1375 0
M  V30 17320 N 1750.07 0.274379 -1.55193 0
M  V30 17321 C 1751.32 1.00617 -1.75734 0
M  V30 17322 C 1751.65 1.86334 -0.557679 0
M  V30 17323 O 1750.9 1.90221 0.459848 0
M  V30 17324 C 1751.2 1.91958 -3.01475 0
M  V30 17325 C 1750.87 1.22002 -4.34081 0
M  V30 17326 C 1749.53 1.02658 -4.70122 0
M  V30 17327 C 1751.88 0.722087 -5.16174 0
M  V30 17328 C 1749.21 0.322465 -5.85813 0
M  V30 17329 C 1751.56 0.0315683 -6.32592 0
M  V30 17330 C 1750.22 -0.173595 -6.67274 0
M  V30 17331 H 1749.49 0.368182 -0.643058 0
M  V30 17332 H 1752.14 0.278579 -1.89463 0
M  V30 17333 H 1750.45 2.71333 -2.8264 0
M  V30 17334 H 1752.14 2.48698 -3.14564 0
M  V30 17335 H 1748.73 1.3807 -4.05752 0
M  V30 17336 H 1752.92 0.859163 -4.88807 0
M  V30 17337 H 1748.17 0.152775 -6.11209 0
M  V30 17338 H 1752.35 -0.362033 -6.95458 0
M  V30 17339 H 1749.97 -0.721178 -7.56771 0
M  V30 17340 N 1751.55 1.48103 0.538828 0
M  V30 17341 C 1752.46 1.64632 1.67133 0
M  V30 17342 C 1753.47 0.528917 1.65766 0
M  V30 17343 O 1754.65 0.798849 1.84879 0
M  V30 17344 C 1751.72 1.67391 3.03614 0
M  V30 17345 C 1750.78 2.90694 3.15904 0
M  V30 17346 C 1750.01 2.93311 4.45875 0
M  V30 17347 O 1750.23 2.04596 5.32444 0
M  V30 17348 O 1749.17 3.85384 4.62345 0
M  V30 17349 H 1752.99 2.60496 1.56126 0
M  V30 17350 H 1750.58 1.31401 0.710925 0
M  V30 17351 H 1752.46 1.71777 3.84799 0
M  V30 17352 H 1751.13 0.746982 3.14963 0
M  V30 17353 H 1750.04 2.91844 2.34047 0
M  V30 17354 H 1751.37 3.82742 3.09467 0
M  V30 17355 N 1753.03 -0.787016 1.36542 0
M  V30 17356 C 1753.96 -1.90844 1.26931 0
M  V30 17357 C 1754.97 -1.61707 0.188293 0
M  V30 17358 O 1756.16 -1.7291 0.443205 0
M  V30 17359 C 1753.26 -3.25709 0.936305 0
M  V30 17360 C 1752.43 -3.82607 2.11969 0
M  V30 17361 C 1751.49 -4.95916 1.75937 0
M  V30 17362 O 1750.52 -5.12307 2.48053 0
M  V30 17363 N 1751.72 -5.76331 0.694461 0
M  V30 17364 H 1754.49 -1.9961 2.23553 0
M  V30 17365 H 1752.05 -0.965401 1.29968 0
M  V30 17366 H 1754.04 -3.99008 0.676378 0
M  V30 17367 H 1752.61 -3.12544 0.0591364 0
M  V30 17368 H 1751.83 -3.01267 2.54227 0
M  V30 17369 H 1753.12 -4.17352 2.91024 0
M  V30 17370 H 1752.51 -5.65619 0.0957046 0
M  V30 17371 H 1751.07 -6.49923 0.494363 0
M  V30 17372 N 1754.5 -1.20861 -1.01145 0
M  V30 17373 C 1755.41 -0.977926 -2.13246 0
M  V30 17374 C 1756.43 0.0678862 -1.73868 0
M  V30 17375 O 1757.61 -0.120717 -2.01038 0
M  V30 17376 C 1754.67 -0.538575 -3.42491 0
M  V30 17377 C 1753.73 -1.65584 -3.96081 0
M  V30 17378 C 1752.97 -1.23736 -5.19158 0
M  V30 17379 O 1753.19 -0.108227 -5.70297 0
M  V30 17380 O 1752.12 -2.04679 -5.6603 0
M  V30 17381 H 1755.95 -1.91666 -2.3558 0
M  V30 17382 H 1753.53 -0.992931 -1.1163 0
M  V30 17383 H 1755.42 -0.303041 -4.20309 0
M  V30 17384 H 1754.09 0.371515 -3.21561 0
M  V30 17385 H 1753 -1.94572 -3.19519 0
M  V30 17386 H 1754.33 -2.54313 -4.21409 0
M  V30 17387 N 1755.98 1.20536 -1.01532 0
M  V30 17388 C 1757.23 1.89191 -0.699258 0
M  V30 17389 C 1757.54 1.79624 0.774238 0
M  V30 17390 O 1758.75 2.43402 1.20281 0
M  V30 17391 C 1757.21 3.39294 -1.20033 0
M  V30 17392 C 1756.81 3.57449 -2.70064 0
M  V30 17393 C 1758.56 4.13511 -0.959626 0
M  V30 17394 C 1756.47 5.01371 -3.13658 0
M  V30 17395 H 1755.4 0.708537 -0.257859 0
M  V30 17396 H 1758.05 1.36368 -1.22785 0
M  V30 17397 H 1756.43 3.91432 -0.599728 0
M  V30 17398 H 1757.6 3.15702 -3.35662 0
M  V30 17399 H 1755.92 2.966 -2.92262 0
M  V30 17400 H 1758.51 5.19624 -1.26077 0
M  V30 17401 H 1758.86 4.1617 0.103934 0
M  V30 17402 H 1759.39 3.67469 -1.52354 0
M  V30 17403 H 1756.13 5.03866 -4.19285 0
M  V30 17404 H 1755.65 5.43933 -2.52779 0
M  V30 17405 H 1757.33 5.69944 -3.06224 0
M  V30 17406 N 1757.46 0.791395 1.36289 0
M  V30 17407 C 1758.74 0.288602 1.93459 0
M  V30 17408 C 1759.12 -1.21953 1.7231 0
M  V30 17409 O 1758.47 -2.01194 1.0832 0
M  V30 17410 C 1758.68 0.683392 3.42244 0
M  V30 17411 C 1760.02 0.664255 4.19372 0
M  V30 17412 O 1761.05 0.623988 3.50692 0
M  V30 17413 O 1759.91 0.708926 5.41882 0
M  V30 17414 H 1757 0.0719305 0.823866 0
M  V30 17415 H 1759.55 0.874071 1.45458 0
M  V30 17416 H 1758.32 1.72344 3.51302 0
M  V30 17417 H 1757.94 0.0719128 3.97535 0
M  V30 17418 N 1758.94 -1.47929 0.54358 0
M  V30 17419 C 1760.35 -1.86395 0.10663 0
M  V30 17420 C 1760.7 -1.45171 -1.31984 0
M  V30 17421 O 1759.83 -0.848558 -1.99069 0
M  V30 17422 C 1760.42 -3.38285 0.186733 0
M  V30 17423 C 1758.98 -3.75894 -0.195098 0
M  V30 17424 C 1758.13 -2.71983 0.540427 0
M  V30 17425 H 1761.08 -1.3964 0.754076 0
M  V30 17426 H 1761.1 -3.75769 -0.598151 0
M  V30 17427 H 1760.61 -3.68258 1.22505 0
M  V30 17428 H 1758.71 -3.51536 -1.23504 0
M  V30 17429 H 1758.83 -4.78853 0.153975 0
M  V30 17430 H 1757.19 -2.54696 -0.0149151 0
M  V30 17431 H 1757.97 -3.04799 1.57963 0
M  V30 17432 N 1760.42 -0.27936 -1.55104 0
M  V30 17433 C 1761.66 0.336703 -1.99985 0
M  V30 17434 C 1762 1.55186 -1.16752 0
M  V30 17435 O 1761.27 1.93031 -0.238626 0
M  V30 17436 C 1761.55 0.714701 -3.52936 0
M  V30 17437 C 1761.41 -0.508088 -4.46921 0
M  V30 17438 C 1762.73 1.54953 -4.11919 0
M  V30 17439 H 1759.85 0.120908 -0.727015 0
M  V30 17440 H 1762.49 -0.38715 -1.86014 0
M  V30 17441 H 1760.64 1.33143 -3.64973 0
M  V30 17442 H 1762.31 -1.14664 -4.46822 0
M  V30 17443 H 1760.55 -1.14537 -4.18406 0
M  V30 17444 H 1761.22 -0.199782 -5.51638 0
M  V30 17445 H 1763.7 1.02864 -4.03185 0
M  V30 17446 H 1762.58 1.78282 -5.1914 0
M  V30 17447 H 1762.84 2.53192 -3.62417 0
M  V30 17448 N 1761.9 1.57599 -0.0067085 0
M  V30 17449 C 1762.83 2.04302 1.01665 0
M  V30 17450 C 1763.81 0.934217 1.33083 0
M  V30 17451 O 1764.99 1.20285 1.45133 0
M  V30 17452 C 1762.12 2.44627 2.34255 0
M  V30 17453 C 1761.16 3.66307 2.18453 0
M  V30 17454 S 1762 5.13937 1.50428 0
M  V30 17455 C 1763.15 5.57538 2.84434 0
M  V30 17456 H 1763.39 2.90784 0.619005 0
M  V30 17457 H 1760.92 1.53042 0.204354 0
M  V30 17458 H 1762.88 2.68527 3.10489 0
M  V30 17459 H 1761.54 1.58531 2.71158 0
M  V30 17460 H 1760.73 3.92295 3.16419 0
M  V30 17461 H 1760.33 3.42443 1.50363 0
M  V30 17462 H 1762.62 5.60408 3.80722 0
M  V30 17463 H 1763.57 6.57392 2.63138 0
M  V30 17464 H 1763.98 4.85119 2.88651 0
M  V30 17465 N 1763.37 -0.266145 1.55336 0
M  V30 17466 C 1764.31 -1.35159 1.85107 0
M  V30 17467 C 1765.32 -1.45213 0.736006 0
M  V30 17468 O 1766.51 -1.46907 1.01393 0
M  V30 17469 C 1763.61 -2.73218 2.00512 0
M  V30 17470 C 1762.78 -2.85671 3.31226 0
M  V30 17471 C 1761.84 -4.0445 3.36611 0
M  V30 17472 O 1760.87 -3.94884 4.09945 0
M  V30 17473 N 1762.07 -5.16735 2.64508 0
M  V30 17474 H 1764.83 -1.09963 2.78798 0
M  V30 17475 H 1762.39 -0.456261 1.55338 0
M  V30 17476 H 1764.39 -3.50983 2.01477 0
M  V30 17477 H 1762.96 -2.91206 1.13655 0
M  V30 17478 H 1762.18 -1.94736 3.42741 0
M  V30 17479 H 1763.46 -2.90927 4.17419 0
M  V30 17480 H 1762.86 -5.27395 2.04624 0
M  V30 17481 H 1761.42 -5.92706 2.71189 0
M  V30 17482 N 1764.85 -1.48386 -0.530967 0
M  V30 17483 C 1766.08 -1.60269 -1.31638 0
M  V30 17484 C 1766.5 -0.262789 -1.86255 0
M  V30 17485 O 1765.86 0.765389 -1.64352 0
M  V30 17486 C 1765.91 -2.65163 -2.44379 0
M  V30 17487 O 1765.01 -2.22254 -3.47386 0
M  V30 17488 H 1764.35 -0.537456 -0.38992 0
M  V30 17489 H 1766.88 -1.94366 -0.639 0
M  V30 17490 H 1766.89 -2.86405 -2.90579 0
M  V30 17491 H 1765.57 -3.62439 -2.03987 0
M  V30 17492 H 1764.14 -2.11221 -3.07311 0
M  V30 17493 N 1766.33 0.779763 -1.36958 0
M  V30 17494 C 1767.26 1.90687 -1.34762 0
M  V30 17495 C 1768.24 1.68704 -0.217508 0
M  V30 17496 O 1769.43 1.89678 -0.416639 0
M  V30 17497 C 1766.56 3.27854 -1.14582 0
M  V30 17498 C 1765.51 3.64383 -2.2452 0
M  V30 17499 C 1764.84 5.00004 -1.89473 0
M  V30 17500 C 1766.14 3.71963 -3.66662 0
M  V30 17501 H 1767.83 1.92781 -2.29076 0
M  V30 17502 H 1765.38 0.926102 -1.10269 0
M  V30 17503 H 1767.33 4.06332 -1.11678 0
M  V30 17504 H 1766.05 3.26172 -0.167218 0
M  V30 17505 H 1764.71 2.88207 -2.26566 0
M  V30 17506 H 1764.36 4.94853 -0.901617 0
M  V30 17507 H 1764.06 5.25414 -2.63085 0
M  V30 17508 H 1765.58 5.80892 -1.88141 0
M  V30 17509 H 1767 4.40611 -3.6679 0
M  V30 17510 H 1765.39 4.08864 -4.39261 0
M  V30 17511 H 1766.46 2.72824 -4.00868 0
M  V30 17512 N 1767.81 1.21396 1.00503 0
M  V30 17513 C 1769.06 1.02913 1.73935 0
M  V30 17514 C 1769.38 -0.438329 1.9001 0
M  V30 17515 O 1768.65 -1.31618 1.45098 0
M  V30 17516 H 1767.23 0.377813 0.644412 0
M  V30 17517 H 1769.89 1.52704 1.21109 0
M  V30 17518 H 1768.98 1.49705 2.73852 0
M  V30 17519 N 1769.29 -1.19996 1.0217 0
M  V30 17520 C 1770.52 -1.93186 0.732311 0
M  V30 17521 C 1770.92 -1.75303 -0.711724 0
M  V30 17522 O 1770.27 -1.06756 -1.49495 0
M  V30 17523 C 1770.33 -3.45466 0.994655 0
M  V30 17524 C 1769.99 -3.87114 2.42882 0
M  V30 17525 C 1770.99 -3.92459 3.40987 0
M  V30 17526 C 1768.67 -4.18958 2.77091 0
M  V30 17527 C 1770.67 -4.29067 4.7136 0
M  V30 17528 C 1768.36 -4.5524 4.07676 0
M  V30 17529 C 1769.35 -4.60267 5.04622 0
M  V30 17530 O 1769.04 -4.95713 6.32869 0
M  V30 17531 H 1768.77 -0.62069 0.267806 0
M  V30 17532 H 1771.33 -1.53287 1.3672 0
M  V30 17533 H 1769.56 -3.85514 0.30261 0
M  V30 17534 H 1771.25 -3.99887 0.696049 0
M  V30 17535 H 1772.01 -3.68016 3.15895 0
M  V30 17536 H 1767.89 -4.14233 2.02317 0
M  V30 17537 H 1771.44 -4.32905 5.47027 0
M  V30 17538 H 1767.33 -4.7914 4.32545 0
M  V30 17539 H 1768.1 -5.13687 6.37234 0
M  V30 17540 N 1770.76 -0.798611 -1.35867 0
M  V30 17541 C 1772 -0.380789 -2.00822 0
M  V30 17542 C 1772.37 1.03061 -1.61995 0
M  V30 17543 O 1773.57 1.55001 -2.19609 0
M  V30 17544 C 1771.84 -0.549604 -3.53149 0
M  V30 17545 S 1773.4 -0.221022 -4.38243 0
M  V30 17546 H 1770.22 -0.145008 -0.696056 0
M  V30 17547 H 1772.82 -1.03912 -1.65598 0
M  V30 17548 H 1771.52 -1.57695 -3.78894 0
M  V30 17549 H 1771.05 0.124329 -3.93203 0
M  V30 17550 H 1773.07 0.974167 -4.86543 0
M  V30 17551 N 1772.24 1.47639 -0.551417 0
M  V30 17552 C 1773.48 2.04382 -0.0274854 0
M  V30 17553 C 1773.85 1.41714 1.29542 0
M  V30 17554 O 1775.05 1.8947 1.90669 0
M  V30 17555 C 1773.32 3.57332 0.0698769 0
M  V30 17556 S 1774.88 4.35455 0.540771 0
M  V30 17557 H 1771.69 0.710648 -0.0223553 0
M  V30 17558 H 1774.3 1.81083 -0.73684 0
M  V30 17559 H 1773 4.00468 -0.897406 0
M  V30 17560 H 1772.53 3.85118 0.802962 0
M  V30 17561 H 1774.55 4.62342 1.80152 0
M  V30 17562 N 1773.72 0.287581 1.54954 0
M  V30 17563 C 1774.97 -0.324967 1.9947 0
M  V30 17564 C 1775.29 -1.55437 1.17747 0
M  V30 17565 O 1774.56 -1.9403 0.270067 0
M  V30 17566 H 1773.14 -0.123062 0.736794 0
M  V30 17567 H 1775.8 0.395805 1.90839 0
M  V30 17568 H 1774.9 -0.606265 3.06155 0
M  V30 17569 N 1775.2 -1.57593 0.0150662 0
M  V30 17570 C 1776.61 -1.5591 -0.341189 0
M  V30 17571 C 1776.81 -1.01927 -1.73819 0
M  V30 17572 O 1775.87 -0.659752 -2.43728 0
M  V30 17573 C 1777.18 -3.00016 -0.202639 0
M  V30 17574 C 1778.73 -3.11777 -0.276457 0
M  V30 17575 C 1779.21 -4.57696 -0.166859 0
M  V30 17576 N 1780.7 -4.62657 -0.224287 0
M  V30 17577 C 1781.43 -5.73168 -0.163053 0
M  V30 17578 N 1780.93 -6.92781 -0.0515442 0
M  V30 17579 N 1782.72 -5.61685 -0.216018 0
M  V30 17580 H 1774.87 -1.91018 0.92876 0
M  V30 17581 H 1777.14 -0.878048 0.3574 0
M  V30 17582 H 1776.84 -3.43409 0.759136 0
M  V30 17583 H 1776.72 -3.64285 -0.978599 0
M  V30 17584 H 1779.1 -2.68305 -1.22868 0
M  V30 17585 H 1779.18 -2.50257 0.529637 0
M  V30 17586 H 1778.83 -5.01846 0.781888 0
M  V30 17587 H 1778.76 -5.17179 -0.991635 0
M  V30 17588 H 1781.25 -3.76617 -0.311188 0
M  V30 17589 H 1781.56 -7.72799 -0.0111287 0
M  V30 17590 H 1779.91 -6.94998 -0.0169584 0
M  V30 17591 H 1783.1 -4.67128 -0.301435 0
M  V30 17592 H 1783.27 -6.4779 -0.164834 0
M  V30 17593 N 1776.68 0.257904 -1.55475 0
M  V30 17594 C 1777.62 1.31912 -1.89388 0
M  V30 17595 C 1778.59 1.48358 -0.746927 0
M  V30 17596 O 1779.78 1.62521 -0.999584 0
M  V30 17597 C 1776.92 2.67162 -2.18446 0
M  V30 17598 C 1776.03 2.58814 -3.45889 0
M  V30 17599 C 1775.17 3.86343 -3.64571 0
M  V30 17600 C 1774.21 3.72567 -4.85654 0
M  V30 17601 N 1773.34 4.91964 -5.00915 0
M  V30 17602 H 1778.18 1.02291 -2.79894 0
M  V30 17603 H 1775.72 0.493864 -1.38562 0
M  V30 17604 H 1777.68 3.45874 -2.33296 0
M  V30 17605 H 1776.31 2.94954 -1.31157 0
M  V30 17606 H 1775.36 1.7173 -3.39431 0
M  V30 17607 H 1776.67 2.4454 -4.34743 0
M  V30 17608 H 1775.83 4.73498 -3.79321 0
M  V30 17609 H 1774.56 4.03501 -2.7393 0
M  V30 17610 H 1773.57 2.83795 -4.70893 0
M  V30 17611 H 1774.79 3.56914 -5.77745 0
M  V30 17612 H 1772.74 5.09505 -4.13208 0
M  V30 17613 H 1772.66 4.80279 -5.83839 0
M  V30 17614 H 1773.93 5.80649 -5.20064 0
M  V30 17615 N 1778.15 1.48666 0.52309 0
M  V30 17616 C 1779.38 1.60474 1.30122 0
M  V30 17617 C 1779.79 0.266767 1.8731 0
M  V30 17618 O 1779.14 -0.754974 1.67469 0
M  V30 17619 C 1779.2 2.59753 2.48533 0
M  V30 17620 C 1778.86 4.04652 2.12381 0
M  V30 17621 C 1779.86 4.92129 1.67647 0
M  V30 17622 C 1777.54 4.50237 2.22692 0
M  V30 17623 C 1779.54 6.2322 1.337 0
M  V30 17624 C 1777.22 5.81348 1.88357 0
M  V30 17625 C 1778.22 6.67662 1.43932 0
M  V30 17626 O 1777.91 7.96332 1.10051 0
M  V30 17627 H 1777.64 0.543696 0.40171 0
M  V30 17628 H 1780.2 1.95273 0.637002 0
M  V30 17629 H 1778.43 2.20089 3.17958 0
M  V30 17630 H 1780.12 2.61323 3.10588 0
M  V30 17631 H 1780.88 4.58146 1.59145 0
M  V30 17632 H 1776.76 3.83236 2.56225 0
M  V30 17633 H 1780.3 6.90546 0.989527 0
M  V30 17634 H 1776.2 6.14864 1.96502 0
M  V30 17635 H 1776.97 8.09146 1.23389 0
M  V30 17636 N 1779.63 -0.772489 1.37369 0
M  V30 17637 C 1780.54 -1.91679 1.35263 0
M  V30 17638 C 1781.56 -1.72161 0.252321 0
M  V30 17639 O 1782.73 -1.95409 0.487581 0
M  V30 17640 C 1779.8 -3.26792 1.15792 0
M  V30 17641 C 1778.86 -3.5897 2.35455 0
M  V30 17642 C 1778.09 -4.87636 2.16903 0
M  V30 17643 O 1778.32 -5.58627 1.15291 0
M  V30 17644 O 1777.25 -5.18859 3.05072 0
M  V30 17645 H 1781.08 -1.96408 2.31641 0
M  V30 17646 H 1778.66 -0.915136 1.18092 0
M  V30 17647 H 1780.54 -4.07611 1.06918 0
M  V30 17648 H 1779.22 -3.22918 0.224872 0
M  V30 17649 H 1778.13 -2.78389 2.49901 0
M  V30 17650 H 1779.46 -3.67586 3.27325 0
M  V30 17651 N 1781.11 -1.21927 -0.998575 0
M  V30 17652 C 1782.36 -1.0404 -1.7373 0
M  V30 17653 C 1782.69 0.425251 -1.89794 0
M  V30 17654 O 1781.94 1.3317 -1.43402 0
M  V30 17655 C 1782.24 -1.69015 -3.1491 0
M  V30 17656 C 1781.91 -3.18893 -3.18776 0
M  V30 17657 C 1780.57 -3.5979 -3.19538 0
M  V30 17658 C 1782.92 -4.14851 -3.15512 0
M  V30 17659 C 1780.25 -4.95138 -3.1473 0
M  V30 17660 C 1782.6 -5.50168 -3.12246 0
M  V30 17661 C 1781.26 -5.90454 -3.11321 0
M  V30 17662 H 1780.53 -0.380709 -0.635721 0
M  V30 17663 H 1783.18 -1.5161 -1.1699 0
M  V30 17664 H 1781.49 -1.13755 -3.74923 0
M  V30 17665 H 1783.18 -1.52671 -3.708 0
M  V30 17666 H 1779.77 -2.86325 -3.18929 0
M  V30 17667 H 1783.96 -3.84277 -3.14078 0
M  V30 17668 H 1779.21 -5.25589 -3.12356 0
M  V30 17669 H 1783.39 -6.24254 -3.08675 0
M  V30 17670 H 1781.01 -6.95299 -3.0735 0
M  V30 17671 N 1782.59 1.19452 -1.02805 0
M  V30 17672 C 1783.81 1.93616 -0.743485 0
M  V30 17673 C 1784.24 1.74934 0.691342 0
M  V30 17674 O 1783.6 1.05111 1.47721 0
M  V30 17675 C 1783.64 3.43451 -1.0988 0
M  V30 17676 O 1782.75 4.11829 -0.216978 0
M  V30 17677 H 1782.09 0.60448 -0.274771 0
M  V30 17678 H 1784.62 1.51554 -1.37451 0
M  V30 17679 H 1784.63 3.94115 -1.05535 0
M  V30 17680 H 1783.3 3.5637 -2.14413 0
M  V30 17681 H 1781.88 3.71533 -0.318954 0
M  V30 17682 N 1784.07 0.805805 1.35442 0
M  V30 17683 C 1785.48 0.446863 1.81273 0
M  V30 17684 C 1785.83 -1.03104 1.66925 0
M  V30 17685 O 1784.95 -1.80117 1.19945 0
M  V30 17686 C 1785.55 0.80433 3.29114 0
M  V30 17687 C 1784.11 0.497997 3.73091 0
M  V30 17688 C 1783.25 1.03035 2.57447 0
M  V30 17689 H 1786.21 0.997517 1.23431 0
M  V30 17690 H 1786.23 0.101559 3.80364 0
M  V30 17691 H 1785.74 1.88001 3.39525 0
M  V30 17692 H 1783.84 -0.568982 3.6823 0
M  V30 17693 H 1783.95 1.03008 4.67896 0
M  V30 17694 H 1782.32 0.452716 2.50644 0
M  V30 17695 H 1783.1 2.11213 2.70636 0
M  V30 17696 N 1785.54 -1.47344 0.559239 0
M  V30 17697 C 1786.48 -2.28095 -0.224826 0
M  V30 17698 C 1787.49 -1.37127 -0.877492 0
M  V30 17699 O 1788.68 -1.61933 -0.751002 0
M  V30 17700 C 1785.78 -3.1145 -1.33611 0
M  V30 17701 C 1784.95 -4.30392 -0.779845 0
M  V30 17702 C 1784.01 -4.95327 -1.77587 0
M  V30 17703 O 1783.04 -5.53654 -1.32119 0
M  V30 17704 N 1784.24 -4.90206 -3.10931 0
M  V30 17705 H 1787 -2.96026 0.46786 0
M  V30 17706 H 1784.56 -1.56996 0.395448 0
M  V30 17707 H 1786.56 -3.51758 -2.00121 0
M  V30 17708 H 1785.13 -2.45749 -1.932 0
M  V30 17709 H 1784.35 -3.94151 0.0620861 0
M  V30 17710 H 1785.63 -5.07322 -0.387581 0
M  V30 17711 H 1785.03 -4.44022 -3.50515 0
M  V30 17712 H 1783.59 -5.34527 -3.72994 0
M  V30 17713 N 1787.02 -0.295795 -1.54799 0
M  V30 17714 C 1788.25 0.317763 -2.04445 0
M  V30 17715 C 1788.67 1.47915 -1.17331 0
M  V30 17716 O 1788.02 1.81425 -0.197811 0
M  V30 17717 C 1788.07 0.778995 -3.53007 0
M  V30 17718 O 1787.79 -0.33616 -4.36808 0
M  V30 17719 C 1789.3 1.45824 -4.18629 0
M  V30 17720 H 1786.52 0.0697871 -0.667361 0
M  V30 17721 H 1789.06 -0.433911 -1.99844 0
M  V30 17722 H 1787.21 1.4807 -3.57986 0
M  V30 17723 H 1787.63 0.0219928 -5.24495 0
M  V30 17724 H 1789.1 1.73218 -5.24118 0
M  V30 17725 H 1789.58 2.3966 -3.68049 0
M  V30 17726 H 1790.19 0.799847 -4.17711 0
M  V30 17727 N 1788.5 1.57583 -0.0234236 0
M  V30 17728 C 1789.43 2.12907 0.958804 0
M  V30 17729 C 1790.41 1.0438 1.34309 0
M  V30 17730 O 1791.6 1.32184 1.42271 0
M  V30 17731 C 1788.73 2.65151 2.24304 0
M  V30 17732 C 1787.68 3.78414 1.99967 0
M  V30 17733 C 1787.01 4.17064 3.34607 0
M  V30 17734 C 1788.31 5.04727 1.34342 0
M  V30 17735 H 1790 2.95228 0.498081 0
M  V30 17736 H 1787.55 1.42017 0.238138 0
M  V30 17737 H 1789.5 3.02487 2.93393 0
M  V30 17738 H 1788.22 1.79983 2.72532 0
M  V30 17739 H 1786.88 3.41507 1.33298 0
M  V30 17740 H 1786.53 3.28886 3.80583 0
M  V30 17741 H 1786.23 4.93385 3.19132 0
M  V30 17742 H 1787.76 4.56978 4.04973 0
M  V30 17743 H 1789.17 5.39686 1.93422 0
M  V30 17744 H 1787.57 5.86009 1.29282 0
M  V30 17745 H 1788.64 4.83872 0.315625 0
M  V30 17746 N 1789.98 -0.249655 1.5561 0
M  V30 17747 C 1791.22 -0.985467 1.79075 0
M  V30 17748 C 1791.58 -1.82629 0.592503 0
M  V30 17749 O 1792.78 -2.59366 0.705869 0
M  V30 17750 C 1791.06 -1.82549 3.07263 0
M  V30 17751 S 1792.61 -2.62078 3.51939 0
M  V30 17752 H 1789.43 -0.331525 0.628977 0
M  V30 17753 H 1792.03 -0.253591 1.93848 0
M  V30 17754 H 1790.74 -1.19744 3.92542 0
M  V30 17755 H 1790.27 -2.60017 2.9522 0
M  V30 17756 H 1792.28 -3.84983 3.13054 0
M  V30 17757 N 1791.46 -1.48941 -0.515198 0
M  V30 17758 C 1792.7 -1.59318 -1.28052 0
M  V30 17759 C 1793.06 -0.26749 -1.90128 0
M  V30 17760 O 1794.26 -0.246338 -2.67669 0
M  V30 17761 C 1792.53 -2.71033 -2.32972 0
M  V30 17762 S 1794.09 -3.01271 -3.19032 0
M  V30 17763 H 1790.91 -0.56211 -0.435378 0
M  V30 17764 H 1793.51 -1.86534 -0.585253 0
M  V30 17765 H 1792.22 -3.65895 -1.85873 0
M  V30 17766 H 1791.75 -2.45765 -3.07186 0
M  V30 17767 H 1793.76 -2.41702 -4.33353 0
M  V30 17768 N 1792.94 0.765193 -1.37777 0
M  V30 17769 C 1794.17 1.5521 -1.36358 0
M  V30 17770 C 1794.57 1.8913 0.0514021 0
M  V30 17771 O 1793.92 1.52422 1.02535 0
M  V30 17772 C 1793.98 2.88605 -2.14354 0
M  V30 17773 C 1793.64 2.77286 -3.63265 0
M  V30 17774 C 1794.64 2.47869 -4.57009 0
M  V30 17775 C 1792.32 2.95102 -4.06473 0
M  V30 17776 C 1794.32 2.36406 -5.91938 0
M  V30 17777 C 1792.01 2.83259 -5.41486 0
M  V30 17778 C 1793 2.53952 -6.34032 0
M  V30 17779 O 1792.69 2.42148 -7.66564 0
M  V30 17780 H 1792.42 0.487266 -0.468559 0
M  V30 17781 H 1794.98 0.955716 -1.81811 0
M  V30 17782 H 1793.21 3.50388 -1.636 0
M  V30 17783 H 1794.9 3.50043 -2.05486 0
M  V30 17784 H 1795.66 2.33784 -4.24936 0
M  V30 17785 H 1791.54 3.16913 -3.34794 0
M  V30 17786 H 1795.09 2.13452 -6.64142 0
M  V30 17787 H 1790.98 2.96914 -5.7316 0
M  V30 17788 H 1791.75 2.57448 -7.76957 0
M  V30 17789 N 1794.41 1.22455 0.992094 0
M  V30 17790 C 1795.66 1.04752 1.72833 0
M  V30 17791 C 1795.98 -0.418152 1.90464 0
M  V30 17792 O 1795.25 -1.30072 1.46486 0
M  V30 17793 H 1793.83 0.384626 0.640368 0
M  V30 17794 H 1796.49 1.5398 1.19483 0
M  V30 17795 H 1795.59 1.52601 2.72249 0
M  V30 17796 N 1795.89 -1.18905 1.03437 0
M  V30 17797 C 1796.84 -2.22318 0.619933 0
M  V30 17798 C 1797.81 -1.61948 -0.369056 0
M  V30 17799 O 1798.99 -1.88958 -0.26447 0
M  V30 17800 C 1796.13 -3.45096 -0.0174579 0
M  V30 17801 C 1795.25 -4.19829 1.01823 0
M  V30 17802 C 1794.38 -5.30046 0.350026 0
M  V30 17803 C 1793.42 -5.96543 1.37125 0
M  V30 17804 N 1792.56 -6.98311 0.728458 0
M  V30 17805 H 1797.4 -2.57125 1.50634 0
M  V30 17806 H 1794.93 -1.26324 0.753695 0
M  V30 17807 H 1796.89 -4.15236 -0.404294 0
M  V30 17808 H 1795.52 -3.10927 -0.867412 0
M  V30 17809 H 1794.57 -3.48578 1.52308 0
M  V30 17810 H 1795.89 -4.65415 1.79416 0
M  V30 17811 H 1795.04 -6.06631 -0.0913585 0
M  V30 17812 H 1793.78 -4.85544 -0.458049 0
M  V30 17813 H 1792.78 -5.18703 1.82284 0
M  V30 17814 H 1794.01 -6.43127 2.18091 0
M  V30 17815 H 1791.96 -6.55973 -0.0594251 0
M  V30 17816 H 1791.87 -7.42117 1.44218 0
M  V30 17817 H 1793.14 -7.78878 0.311259 0
M  V30 17818 N 1797.37 -0.812977 -1.35013 0
M  V30 17819 C 1798.3 -0.185443 -2.28449 0
M  V30 17820 C 1799.31 0.618951 -1.50575 0
M  V30 17821 O 1800.5 0.450262 -1.72728 0
M  V30 17822 C 1797.6 0.759419 -3.30282 0
M  V30 17823 C 1796.78 1.09356e-05 -4.374 0
M  V30 17824 C 1795.84 0.864309 -5.19053 0
M  V30 17825 O 1794.86 0.312916 -5.68339 0
M  V30 17826 N 1796.06 2.18551 -5.37788 0
M  V30 17827 H 1798.83 -0.988144 -2.82941 0
M  V30 17828 H 1796.39 -0.669018 -1.47431 0
M  V30 17829 H 1798.38 1.342 -3.81802 0
M  V30 17830 H 1796.95 1.4629 -2.76257 0
M  V30 17831 H 1796.17 -0.763818 -3.86729 0
M  V30 17832 H 1797.46 -0.523125 -5.06104 0
M  V30 17833 H 1796.86 2.65735 -4.99401 0
M  V30 17834 H 1795.41 2.71718 -5.92463 0
M  V30 17835 N 1798.85 1.47045 -0.567045 0
M  V30 17836 C 1799.78 2.32929 0.163191 0
M  V30 17837 C 1800.76 1.44393 0.899142 0
M  V30 17838 O 1801.94 1.73235 0.87768 0
M  V30 17839 C 1799.07 3.26369 1.18745 0
M  V30 17840 C 1798.03 4.24223 0.567335 0
M  V30 17841 C 1797.35 5.07058 1.69693 0
M  V30 17842 C 1798.65 5.2004 -0.485319 0
M  V30 17843 H 1800.35 2.94233 -0.553837 0
M  V30 17844 H 1797.89 1.41488 -0.267789 0
M  V30 17845 H 1799.85 3.85299 1.70654 0
M  V30 17846 H 1798.57 2.6314 1.93455 0
M  V30 17847 H 1797.23 3.66534 0.0694525 0
M  V30 17848 H 1796.88 4.40226 2.43331 0
M  V30 17849 H 1796.58 5.73316 1.28774 0
M  V30 17850 H 1798.1 5.68848 2.2191 0
M  V30 17851 H 1799.52 5.73277 -0.0519049 0
M  V30 17852 H 1797.91 5.94554 -0.813942 0
M  V30 17853 H 1798.98 4.64921 -1.37754 0
M  V30 17854 N 1800.33 0.304 1.5464 0
M  V30 17855 C 1801.57 -0.305229 2.02108 0
M  V30 17856 C 1801.93 -1.50862 1.18763 0
M  V30 17857 O 1803.13 -2.18941 1.55943 0
M  V30 17858 C 1801.4 -0.65001 3.51439 0
M  V30 17859 S 1802.96 -1.24167 4.20866 0
M  V30 17860 H 1799.78 -0.0935021 0.704825 0
M  V30 17861 H 1802.38 0.432571 1.90654 0
M  V30 17862 H 1801.08 0.234253 4.09731 0
M  V30 17863 H 1800.62 -1.41852 3.66935 0
M  V30 17864 H 1802.63 -2.52936 4.26893 0
M  V30 17865 N 1801.8 -1.57568 0.0317802 0
M  V30 17866 C 1803.03 -1.96212 -0.656401 0
M  V30 17867 C 1803.45 -0.908406 -1.6551 0
M  V30 17868 O 1802.8 0.109502 -1.82171 0
M  V30 17869 C 1802.85 -3.34924 -1.36044 0
M  V30 17870 O 1802.58 -4.36254 -0.401757 0
M  V30 17871 C 1804.08 -3.88215 -2.14019 0
M  V30 17872 H 1801.3 -0.646181 -0.180808 0
M  V30 17873 H 1803.84 -2.04291 0.0923341 0
M  V30 17874 H 1802 -3.28055 -2.06055 0
M  V30 17875 H 1802.41 -5.16686 -0.902005 0
M  V30 17876 H 1803.88 -4.87609 -2.5873 0
M  V30 17877 H 1804.36 -3.22602 -2.98034 0
M  V30 17878 H 1804.97 -3.98361 -1.4896 0
M  V30 17879 N 1803.28 0.241399 -1.5574 0
M  V30 17880 C 1804.53 0.966607 -1.7703 0
M  V30 17881 C 1804.84 1.86275 -0.59673 0
M  V30 17882 O 1806.05 2.62513 -0.692775 0
M  V30 17883 C 1804.51 1.7688 -3.13435 0
M  V30 17884 C 1804.11 0.919775 -4.38457 0
M  V30 17885 C 1805.86 2.48641 -3.44061 0
M  V30 17886 C 1803.77 1.71817 -5.65891 0
M  V30 17887 H 1802.7 0.364644 -0.659963 0
M  V30 17888 H 1805.35 0.221088 -1.82163 0
M  V30 17889 H 1803.73 2.55648 -3.02424 0
M  V30 17890 H 1804.9 0.174036 -4.60471 0
M  V30 17891 H 1803.22 0.315234 -4.15205 0
M  V30 17892 H 1805.81 3.08839 -4.36489 0
M  V30 17893 H 1806.16 3.20534 -2.65638 0
M  V30 17894 H 1806.69 1.7688 -3.56312 0
M  V30 17895 H 1803.43 1.04289 -6.47151 0
M  V30 17896 H 1802.95 2.43905 -5.47969 0
M  V30 17897 H 1804.63 2.28392 -6.05348 0
M  V30 17898 N 1804.76 1.49212 0.507292 0
M  V30 17899 C 1806.17 1.51655 1.08892 0
M  V30 17900 C 1806.52 0.299163 1.93906 0
M  V30 17901 O 1805.65 -0.591635 2.08155 0
M  V30 17902 C 1806.24 2.7481 1.98154 0
M  V30 17903 C 1804.8 2.80051 2.51492 0
M  V30 17904 C 1803.95 2.45486 1.28966 0
M  V30 17905 H 1806.9 1.56 0.291488 0
M  V30 17906 H 1806.92 2.54615 2.82757 0
M  V30 17907 H 1806.43 3.63396 1.36253 0
M  V30 17908 H 1804.53 1.95729 3.1705 0
M  V30 17909 H 1804.65 3.82064 2.89075 0
M  V30 17910 H 1803.01 1.97128 1.61284 0
M  V30 17911 H 1803.79 3.36339 0.687821 0
M  V30 17912 N 1806.24 -0.757876 1.38181 0
M  V30 17913 C 1807.65 -1.06035 1.19284 0
M  V30 17914 C 1807.85 -2.01463 0.0385482 0
M  V30 17915 O 1806.91 -2.44845 -0.61703 0
M  V30 17916 C 1808.22 -1.64455 2.51744 0
M  V30 17917 C 1809.77 -1.76646 2.58389 0
M  V30 17918 C 1810.25 -2.38478 3.91014 0
M  V30 17919 N 1811.74 -2.45914 3.92531 0
M  V30 17920 C 1812.47 -2.94641 4.91909 0
M  V30 17921 N 1811.97 -3.43435 6.01684 0
M  V30 17922 N 1813.76 -2.93642 4.79303 0
M  V30 17923 H 1805.91 -0.124532 2.12035 0
M  V30 17924 H 1808.18 -0.117876 0.940643 0
M  V30 17925 H 1807.88 -1.01804 3.36644 0
M  V30 17926 H 1807.76 -2.63573 2.69832 0
M  V30 17927 H 1810.14 -2.38426 1.73888 0
M  V30 17928 H 1810.22 -0.762449 2.44173 0
M  V30 17929 H 1809.87 -1.77334 4.75936 0
M  V30 17930 H 1809.8 -3.39513 4.0254 0
M  V30 17931 H 1812.29 -2.11398 3.1324 0
M  V30 17932 H 1812.6 -3.79059 6.73449 0
M  V30 17933 H 1810.95 -3.41504 6.0531 0
M  V30 17934 H 1814.14 -2.5483 3.92657 0
M  V30 17935 H 1814.31 -3.31304 5.56903 0
M  V30 17936 N 1807.72 -1.22979 -0.985586 0
M  V30 17937 C 1808.99 -0.967121 -1.70018 0
M  V30 17938 C 1809.37 0.515746 -2.04703 0
M  V30 17939 O 1808.72 1.48564 -1.73611 0
M  V30 17940 C 1808.93 -1.8721 -2.94539 0
M  V30 17941 C 1810.28 -2.13251 -3.67163 0
M  V30 17942 O 1811.3 -1.84718 -3.04562 0
M  V30 17943 O 1810.16 -2.61617 -4.79811 0
M  V30 17944 H 1807.26 -0.364318 -0.74243 0
M  V30 17945 H 1809.8 -1.33998 -1.04127 0
M  V30 17946 H 1808.57 -2.87478 -2.65465 0
M  V30 17947 H 1808.2 -1.50128 -3.68167 0
M  V30 17948 N 1809.19 1.18355 -1.04066 0
M  V30 17949 C 1810.16 2.20195 -0.636148 0
M  V30 17950 C 1811.16 1.57853 0.306457 0
M  V30 17951 O 1812.35 1.73958 0.0918576 0
M  V30 17952 C 1809.48 3.40833 0.0673423 0
M  V30 17953 H 1810.67 2.57497 -1.53738 0
M  V30 17954 H 1808.23 1.32239 -0.833214 0
M  V30 17955 H 1808.96 3.09063 0.982371 0
M  V30 17956 H 1808.75 3.87324 -0.610145 0
M  V30 17957 H 1810.24 4.16239 0.336869 0
M  V30 17958 N 1810.67 0.820125 1.3458 0
M  V30 17959 C 1811.64 0.245462 2.27882 0
M  V30 17960 C 1812.64 -0.575025 1.50167 0
M  V30 17961 O 1813.83 -0.391536 1.69743 0
M  V30 17962 C 1810.96 -0.656199 3.34525 0
M  V30 17963 H 1812.15 1.06853 2.80218 0
M  V30 17964 H 1809.7 0.591777 1.44664 0
M  V30 17965 H 1810.44 -1.50244 2.87398 0
M  V30 17966 H 1810.22 -0.0693951 3.92039 0
M  V30 17967 H 1811.71 -1.05216 4.04128 0
M  V30 17968 N 1812.15 -1.46743 0.574835 0
M  V30 17969 C 1813.38 -2.06505 0.0627081 0
M  V30 17970 C 1813.79 -1.42535 -1.2442 0
M  V30 17971 O 1813.13 -0.522043 -1.76126 0
M  V30 17972 C 1813.19 -3.59021 -0.185574 0
M  V30 17973 C 1812.86 -4.45136 1.03455 0
M  V30 17974 C 1813.85 -4.82163 1.94461 0
M  V30 17975 C 1811.54 -4.8639 1.25418 0
M  V30 17976 C 1813.53 -5.59262 3.05786 0
M  V30 17977 C 1811.22 -5.63251 2.37049 0
M  V30 17978 C 1812.22 -5.99599 3.27062 0
M  V30 17979 O 1811.91 -6.74908 4.36755 0
M  V30 17980 H 1811.64 -0.674082 0.0508932 0
M  V30 17981 H 1814.19 -1.89476 0.792968 0
M  V30 17982 H 1812.42 -3.74327 -0.970354 0
M  V30 17983 H 1814.11 -4.00739 -0.645242 0
M  V30 17984 H 1814.88 -4.50876 1.78705 0
M  V30 17985 H 1810.76 -4.57553 0.56266 0
M  V30 17986 H 1814.3 -5.87552 3.7607 0
M  V30 17987 H 1810.2 -5.93951 2.5277 0
M  V30 17988 H 1810.97 -6.93323 4.35024 0
M  V30 17989 N 1813.63 -0.312197 -1.54477 0
M  V30 17990 C 1814.86 0.295632 -2.04474 0
M  V30 17991 C 1815.27 1.47211 -1.18851 0
M  V30 17992 O 1814.61 1.82503 -0.209347 0
M  V30 17993 C 1814.67 0.804123 -3.50391 0
M  V30 17994 C 1814.34 -0.248547 -4.56324 0
M  V30 17995 C 1815.33 -1.0808 -5.08542 0
M  V30 17996 C 1813.02 -0.393467 -5.00757 0
M  V30 17997 C 1815.01 -2.04381 -6.03744 0
M  V30 17998 C 1812.7 -1.35991 -5.95777 0
M  V30 17999 C 1813.7 -2.18355 -6.47155 0
M  V30 18000 O 1813.38 -3.13359 -7.40311 0
M  V30 18001 H 1813.12 0.0665366 -0.672718 0
M  V30 18002 H 1815.67 -0.45308 -2.00341 0
M  V30 18003 H 1813.9 1.60355 -3.51885 0
M  V30 18004 H 1815.59 1.32905 -3.83524 0
M  V30 18005 H 1816.36 -0.979766 -4.75001 0
M  V30 18006 H 1812.23 0.237709 -4.60387 0
M  V30 18007 H 1815.78 -2.68708 -6.43771 0
M  V30 18008 H 1811.68 -1.46162 -6.28734 0
M  V30 18009 H 1812.44 -3.08467 -7.58149 0
M  V30 18010 N 1815.11 1.57549 -0.040136 0
M  V30 18011 C 1816.33 1.96967 0.649517 0
M  V30 18012 C 1816.76 0.917056 1.64231 0
M  V30 18013 O 1816.11 -0.120899 1.80896 0
M  V30 18014 C 1816.16 3.35471 1.32256 0
M  V30 18015 O 1815.27 3.32615 2.43806 0
M  V30 18016 H 1814.61 0.641933 0.169758 0
M  V30 18017 H 1817.14 2.04329 -0.105261 0
M  V30 18018 H 1817.15 3.71951 1.6768 0
M  V30 18019 H 1815.82 4.11623 0.594895 0
M  V30 18020 H 1814.4 3.07867 2.10411 0
M  V30 18021 N 1816.58 -0.233136 1.55866 0
M  V30 18022 C 1817.81 -0.974999 1.82146 0
M  V30 18023 C 1818.22 -1.7891 0.615456 0
M  V30 18024 O 1817.57 -1.78707 -0.42537 0
M  V30 18025 C 1817.63 -1.95048 3.01988 0
M  V30 18026 C 1817.29 -1.32201 4.37461 0
M  V30 18027 C 1818.29 -0.717627 5.14923 0
M  V30 18028 C 1815.97 -1.33725 4.84173 0
M  V30 18029 C 1817.97 -0.136864 6.37253 0
M  V30 18030 C 1815.65 -0.752633 6.06448 0
M  V30 18031 C 1816.65 -0.153484 6.82828 0
M  V30 18032 O 1816.34 0.422063 8.02791 0
M  V30 18033 H 1816.07 -0.291889 0.609735 0
M  V30 18034 H 1818.63 -0.257048 2.03785 0
M  V30 18035 H 1816.86 -2.70711 2.76138 0
M  V30 18036 H 1818.55 -2.55692 3.1524 0
M  V30 18037 H 1819.31 -0.698263 4.79947 0
M  V30 18038 H 1815.19 -1.79298 4.24704 0
M  V30 18039 H 1818.73 0.331417 6.96812 0
M  V30 18040 H 1814.63 -0.769371 6.40899 0
M  V30 18041 H 1815.4 0.315258 8.17893 0
M  V30 18042 N 1818.06 -1.49479 -0.499372 0
M  V30 18043 C 1819 -1.6239 -1.61748 0
M  V30 18044 C 1820.01 -0.506515 -1.5472 0
M  V30 18045 O 1821.2 -0.778629 -1.60623 0
M  V30 18046 C 1818.3 -1.56611 -3.00543 0
M  V30 18047 C 1817.47 -2.83909 -3.32738 0
M  V30 18048 C 1816.53 -2.7116 -4.50953 0
M  V30 18049 O 1815.56 -3.45097 -4.52656 0
M  V30 18050 N 1816.76 -1.82815 -5.50962 0
M  V30 18051 H 1819.52 -2.58823 -1.51099 0
M  V30 18052 H 1817.08 -1.46588 -0.687277 0
M  V30 18053 H 1819.08 -1.45734 -3.7755 0
M  V30 18054 H 1817.65 -0.68029 -3.05108 0
M  V30 18055 H 1816.87 -3.09125 -2.44613 0
M  V30 18056 H 1818.15 -3.68299 -3.51046 0
M  V30 18057 H 1817.55 -1.22005 -5.52387 0
M  V30 18058 H 1816.11 -1.77859 -6.27064 0
M  V30 18059 N 1819.54 0.750537 -1.38581 0
M  V30 18060 C 1820.49 1.88571 -1.36176 0
M  V30 18061 C 1821.48 1.67587 -0.247175 0
M  V30 18062 O 1822.69 1.75118 -0.416377 0
M  V30 18063 H 1819.06 0.620468 -0.424881 0
M  V30 18064 H 1821.04 1.87716 -2.3196 0
M  V30 18065 C 1819.78 3.26088 -1.20673 0
M  V30 18066 H 1819.11 3.42822 -2.05701 0
M  V30 18067 H 1820.55 4.05754 -1.23044 0
M  V30 18068 C 1819.01 3.3679 0.0861189 0
M  V30 18069 O 1819.54 3.87407 1.06203 0
M  V30 18070 N 1817.74 2.90243 0.143977 0
M  V30 18071 H 1817.29 2.49242 -0.650869 0
M  V30 18072 H 1817.25 2.97784 1.00857 0
M  V30 18073 N 1821.02 1.235 0.979051 0
M  V30 18074 C 1822.44 0.997948 1.24552 0
M  V30 18075 C 1822.64 -0.300139 1.99252 0
M  V30 18076 O 1821.69 -1.01923 2.31015 0
M  V30 18077 C 1823 2.2057 2.04375 0
M  V30 18078 C 1824.55 2.25075 2.17509 0
M  V30 18079 C 1825.03 3.45441 3.00724 0
M  V30 18080 N 1826.52 3.45688 3.08308 0
M  V30 18081 C 1827.25 4.35478 3.73024 0
M  V30 18082 N 1826.75 5.35506 4.39551 0
M  V30 18083 N 1828.54 4.23218 3.69923 0
M  V30 18084 H 1820.69 2.06936 0.478649 0
M  V30 18085 H 1822.96 0.907514 0.274083 0
M  V30 18086 H 1822.66 3.14781 1.56863 0
M  V30 18087 H 1822.54 2.21765 3.05123 0
M  V30 18088 H 1824.92 1.31403 2.64229 0
M  V30 18089 H 1825 2.27912 1.16146 0
M  V30 18090 H 1824.65 4.3942 2.547 0
M  V30 18091 H 1824.58 3.39845 4.0226 0
M  V30 18092 H 1827.07 2.73315 2.60974 0
M  V30 18093 H 1827.38 6.00274 4.86715 0
M  V30 18094 H 1825.73 5.39404 4.38256 0
M  V30 18095 H 1828.92 3.44315 3.17119 0
M  V30 18096 H 1829.09 4.93396 4.20076 0
M  V30 18097 N 1822.5 -1.17802 1.04693 0
M  V30 18098 C 1823.73 -1.91589 0.773124 0
M  V30 18099 C 1824.14 -1.76773 -0.67438 0
M  V30 18100 O 1823.48 -1.09903 -1.47197 0
M  V30 18101 C 1823.54 -3.43279 1.06771 0
M  V30 18102 C 1823.2 -3.81875 2.51038 0
M  V30 18103 C 1824.2 -3.85138 3.49235 0
M  V30 18104 C 1821.89 -4.12986 2.85915 0
M  V30 18105 C 1823.88 -4.18972 4.80356 0
M  V30 18106 C 1821.57 -4.4649 4.17241 0
M  V30 18107 C 1822.57 -4.4946 5.14271 0
M  V30 18108 O 1822.25 -4.82178 6.43242 0
M  V30 18109 H 1821.99 -0.614869 0.280912 0
M  V30 18110 H 1824.54 -1.50352 1.39941 0
M  V30 18111 H 1822.77 -3.84786 0.384316 0
M  V30 18112 H 1824.46 -3.98321 0.780714 0
M  V30 18113 H 1825.22 -3.61232 3.2363 0
M  V30 18114 H 1821.1 -4.09848 2.11058 0
M  V30 18115 H 1824.65 -4.21205 5.56087 0
M  V30 18116 H 1820.54 -4.69857 4.42611 0
M  V30 18117 H 1821.31 -5.00055 6.47987 0
M  V30 18118 N 1823.98 -0.827251 -1.34143 0
M  V30 18119 C 1824.93 -0.224453 -2.26893 0
M  V30 18120 C 1825.91 0.6138 -1.48732 0
M  V30 18121 O 1827.1 0.467671 -1.7071 0
M  V30 18122 C 1824.23 0.60919 -3.37852 0
M  V30 18123 C 1823.32 -0.23993 -4.23421 0
M  V30 18124 N 1823.71 -1.31304 -4.8846 0
M  V30 18125 C 1822.01 -0.0249939 -4.45993 0
M  V30 18126 C 1822.71 -1.83317 -5.5206 0
M  V30 18127 N 1821.68 -1.1364 -5.31589 0
M  V30 18128 H 1825.48 -1.04524 -2.74685 0
M  V30 18129 H 1823 -0.670503 -1.47912 0
M  V30 18130 H 1825 1.05724 -4.03272 0
M  V30 18131 H 1823.66 1.42809 -2.91609 0
M  V30 18132 H 1824.67 -1.69587 -4.89347 0
M  V30 18133 H 1821.34 0.761393 -4.10499 0
M  V30 18134 H 1822.73 -2.73118 -6.13886 0
M  V30 18135 N 1825.45 1.46436 -0.582609 0
M  V30 18136 C 1826.7 2.02385 -0.0681494 0
M  V30 18137 C 1827.03 1.4541 1.29175 0
M  V30 18138 O 1826.28 0.609021 1.85982 0
M  V30 18139 C 1826.58 3.57368 0.0476745 0
M  V30 18140 C 1826.25 4.33382 -1.24462 0
M  V30 18141 C 1824.91 4.53868 -1.59866 0
M  V30 18142 C 1827.26 4.7703 -2.09981 0
M  V30 18143 C 1824.59 5.15254 -2.80589 0
M  V30 18144 C 1826.94 5.39749 -3.29929 0
M  V30 18145 C 1825.61 5.58463 -3.65616 0
M  V30 18146 H 1824.88 0.74058 -0.0249376 0
M  V30 18147 H 1827.52 1.75807 -0.759226 0
M  V30 18148 H 1825.83 3.83083 0.821879 0
M  V30 18149 H 1827.53 3.98336 0.461487 0
M  V30 18150 H 1824.12 4.17734 -0.958993 0
M  V30 18151 H 1828.3 4.60959 -1.83931 0
M  V30 18152 H 1823.56 5.27934 -3.08376 0
M  V30 18153 H 1827.73 5.72529 -3.96464 0
M  V30 18154 H 1825.36 6.05799 -4.59252 0
M  V30 18155 N 1826.93 0.320385 1.54309 0
M  V30 18156 C 1828.17 -0.283775 2.02421 0
M  V30 18157 C 1828.54 -1.49594 1.20357 0
M  V30 18158 O 1829.74 -2.17275 1.58256 0
M  V30 18159 C 1828.01 -0.612699 3.52109 0
M  V30 18160 S 1829.57 -1.19697 4.22159 0
M  V30 18161 H 1826.38 -0.0860212 0.705777 0
M  V30 18162 H 1828.99 0.452768 1.90185 0
M  V30 18163 H 1827.69 0.277697 4.09459 0
M  V30 18164 H 1827.22 -1.37952 3.68419 0
M  V30 18165 H 1829.24 -2.48394 4.29552 0
M  V30 18166 N 1828.41 -1.57525 0.0484906 0
M  V30 18167 C 1829.32 -2.14854 -0.942076 0
M  V30 18168 C 1830.34 -1.10565 -1.34355 0
M  V30 18169 O 1831.51 -1.4272 -1.42102 0
M  V30 18170 C 1828.58 -2.68002 -2.19945 0
M  V30 18171 C 1827.64 -3.87078 -1.85658 0
M  V30 18172 C 1826.87 -4.37682 -3.05401 0
M  V30 18173 O 1827.09 -3.87373 -4.18687 0
M  V30 18174 O 1826.03 -5.29302 -2.86571 0
M  V30 18175 H 1829.85 -2.9981 -0.48453 0
M  V30 18176 H 1827.44 -1.48392 -0.173252 0
M  V30 18177 H 1829.32 -3.02167 -2.93722 0
M  V30 18178 H 1828 -1.86118 -2.64843 0
M  V30 18179 H 1826.9 -3.57806 -1.09205 0
M  V30 18180 H 1828.24 -4.70184 -1.45562 0
M  V30 18181 N 1829.89 0.224867 -1.55988 0
M  V30 18182 C 1830.83 1.27865 -1.92144 0
M  V30 18183 C 1831.8 1.46741 -0.778228 0
M  V30 18184 O 1832.99 1.60364 -1.03383 0
M  V30 18185 C 1830.13 2.62468 -2.24063 0
M  V30 18186 C 1829.24 2.51419 -3.51301 0
M  V30 18187 C 1828.38 3.78523 -3.72684 0
M  V30 18188 C 1827.42 3.62182 -4.93448 0
M  V30 18189 N 1826.55 4.81228 -5.11237 0
M  V30 18190 H 1831.39 0.96331 -2.82001 0
M  V30 18191 H 1828.93 0.464362 -1.39578 0
M  V30 18192 H 1830.89 3.40848 -2.4058 0
M  V30 18193 H 1829.52 2.92105 -1.37384 0
M  V30 18194 H 1828.57 1.64491 -3.42997 0
M  V30 18195 H 1829.88 2.35263 -4.39833 0
M  V30 18196 H 1829.04 4.65346 -3.89279 0
M  V30 18197 H 1827.78 3.976 -2.82428 0
M  V30 18198 H 1826.78 2.73743 -4.76807 0
M  V30 18199 H 1828.01 3.44579 -5.85186 0
M  V30 18200 H 1825.95 5.00625 -4.23923 0
M  V30 18201 H 1825.87 4.67787 -5.93895 0
M  V30 18202 H 1827.14 5.69487 -5.32264 0
M  V30 18203 N 1831.37 1.49742 0.491438 0
M  V30 18204 C 1832.61 1.61335 1.25501 0
M  V30 18205 C 1832.97 0.297703 1.89678 0
M  V30 18206 O 1834.17 0.28889 2.67243 0
M  V30 18207 C 1832.44 2.74705 2.28631 0
M  V30 18208 S 1834 3.06308 3.14199 0
M  V30 18209 H 1830.82 0.568965 0.42638 0
M  V30 18210 H 1833.42 1.87442 0.555503 0
M  V30 18211 H 1832.12 3.68806 1.80029 0
M  V30 18212 H 1831.66 2.50621 3.03237 0
M  V30 18213 H 1833.67 2.48565 4.29453 0
M  V30 18214 N 1832.84 -0.743177 1.38977 0
M  V30 18215 C 1834.09 -1.50256 1.35755 0
M  V30 18216 C 1834.42 -1.94438 -0.0491287 0
M  V30 18217 O 1833.67 -1.66505 -1.02834 0
M  V30 18218 C 1833.97 -2.76157 2.26874 0
M  V30 18219 C 1833.64 -2.50885 3.74657 0
M  V30 18220 C 1832.3 -2.43702 4.14925 0
M  V30 18221 C 1834.65 -2.29075 4.6816 0
M  V30 18222 C 1831.98 -2.12738 5.46772 0
M  V30 18223 C 1834.33 -1.9963 6.00275 0
M  V30 18224 C 1833 -1.9091 6.39617 0
M  V30 18225 H 1832.27 -0.549827 0.496761 0
M  V30 18226 H 1834.91 -0.85369 1.71419 0
M  V30 18227 H 1833.22 -3.45746 1.84301 0
M  V30 18228 H 1834.92 -3.34155 2.21679 0
M  V30 18229 H 1831.51 -2.57351 3.42737 0
M  V30 18230 H 1835.69 -2.33597 4.37888 0
M  V30 18231 H 1830.95 -2.04504 5.76184 0
M  V30 18232 H 1835.12 -1.8176 6.72262 0
M  V30 18233 H 1832.75 -1.66683 7.41701 0
M  V30 18234 N 1834.32 -1.24018 -0.972487 0
M  V30 18235 C 1835.55 -1.10392 -1.74989 0
M  V30 18236 C 1835.97 0.34396 -1.8564 0
M  V30 18237 O 1835.32 1.23757 -1.34128 0
M  V30 18238 C 1835.37 -1.73247 -3.17282 0
M  V30 18239 O 1835.09 -3.12374 -3.07171 0
M  V30 18240 C 1836.6 -1.65168 -4.11381 0
M  V30 18241 H 1833.82 -0.38593 -0.548907 0
M  V30 18242 H 1836.36 -1.64028 -1.22127 0
M  V30 18243 H 1834.51 -1.23625 -3.67145 0
M  V30 18244 H 1834.93 -3.42997 -3.96804 0
M  V30 18245 H 1836.4 -2.13837 -5.08898 0
M  V30 18246 H 1836.88 -0.61198 -4.34915 0
M  V30 18247 H 1837.49 -2.14194 -3.67425 0
M  V30 18248 N 1835.8 1.17245 -1.05316 0
M  V30 18249 C 1836.71 2.24948 -0.666011 0
M  V30 18250 C 1837.73 1.71153 0.313478 0
M  V30 18251 O 1838.9 2.00721 0.165262 0
M  V30 18252 C 1835.97 3.46667 -0.0480198 0
M  V30 18253 C 1835.03 4.15542 -1.07812 0
M  V30 18254 C 1834.26 5.3145 -0.48952 0
M  V30 18255 O 1834.48 5.6608 0.700668 0
M  V30 18256 O 1833.42 5.89315 -1.22439 0
M  V30 18257 H 1837.24 2.60353 -1.56365 0
M  V30 18258 H 1834.83 1.24569 -0.8248 0
M  V30 18259 H 1836.71 4.20364 0.295366 0
M  V30 18260 H 1835.39 3.13056 0.823248 0
M  V30 18261 H 1834.29 3.43858 -1.47351 0
M  V30 18262 H 1835.63 4.53183 -1.92057 0
M  V30 18263 N 1837.28 0.834353 1.33702 0
M  V30 18264 C 1838.53 0.424225 1.97188 0
M  V30 18265 C 1838.84 -1.02086 1.66846 0
M  V30 18266 O 1840.05 -1.53545 2.23911 0
M  V30 18267 C 1838.5 0.707628 3.52875 0
M  V30 18268 C 1838.11 2.16709 3.92098 0
M  V30 18269 C 1839.85 0.364228 4.22935 0
M  V30 18270 C 1837.76 2.39478 5.40744 0
M  V30 18271 H 1836.69 0.154897 0.737918 0
M  V30 18272 H 1839.34 1.02231 1.52385 0
M  V30 18273 H 1837.72 0.0392323 3.95981 0
M  V30 18274 H 1838.9 2.87559 3.60064 0
M  V30 18275 H 1837.21 2.47303 3.35008 0
M  V30 18276 H 1839.81 0.512031 5.32243 0
M  V30 18277 H 1840.15 -0.692375 4.10502 0
M  V30 18278 H 1840.69 0.98767 3.85344 0
M  V30 18279 H 1837.43 3.43687 5.58175 0
M  V30 18280 H 1836.95 1.73184 5.74254 0
M  V30 18281 H 1838.62 2.22406 6.07573 0
M  V30 18282 N 1838.76 -1.46125 0.590367 0
M  V30 18283 C 1839.69 -2.2852 -0.176393 0
M  V30 18284 C 1840.7 -1.38958 -0.848208 0
M  V30 18285 O 1841.89 -1.63489 -0.716485 0
M  V30 18286 C 1838.99 -3.14214 -1.26974 0
M  V30 18287 C 1838.16 -4.31949 -0.688377 0
M  V30 18288 C 1837.22 -4.98983 -1.67041 0
M  V30 18289 O 1836.25 -5.56332 -1.20345 0
M  V30 18290 N 1837.45 -4.96691 -3.00463 0
M  V30 18291 H 1840.22 -2.94967 0.530546 0
M  V30 18292 H 1837.78 -1.56122 0.42866 0
M  V30 18293 H 1839.77 -3.55924 -1.92614 0
M  V30 18294 H 1838.34 -2.49792 -1.87944 0
M  V30 18295 H 1837.56 -3.93931 0.145677 0
M  V30 18296 H 1838.85 -5.0803 -0.279884 0
M  V30 18297 H 1838.24 -4.51357 -3.41018 0
M  V30 18298 H 1836.8 -5.42318 -3.61572 0
M  V30 18299 N 1840.23 -0.328564 -1.54137 0
M  V30 18300 C 1841.48 0.271967 -2.00262 0
M  V30 18301 C 1841.8 1.5226 -1.21827 0
M  V30 18302 O 1841.07 1.93245 -0.321415 0
M  V30 18303 H 1839.65 0.103484 -0.739797 0
M  V30 18304 H 1842.32 -0.446264 -1.89722 0
M  V30 18305 H 1841.41 0.52488 -3.07655 0
M  V30 18306 N 1841.71 1.57497 -0.0568439 0
M  V30 18307 C 1842.62 2.1535 0.930668 0
M  V30 18308 C 1843.64 1.11276 1.33767 0
M  V30 18309 O 1844.81 1.43472 1.41343 0
M  V30 18310 C 1841.88 2.69165 2.18521 0
M  V30 18311 C 1840.94 3.88057 1.83603 0
M  V30 18312 C 1840.17 4.39296 3.03076 0
M  V30 18313 O 1840.4 3.89588 4.16627 0
M  V30 18314 O 1839.33 5.30814 2.8376 0
M  V30 18315 H 1843.16 3.00063 0.468623 0
M  V30 18316 H 1840.74 1.48482 0.16538 0
M  V30 18317 H 1842.62 3.03721 2.92116 0
M  V30 18318 H 1841.3 1.8752 2.63852 0
M  V30 18319 H 1840.21 3.5838 1.07306 0
M  V30 18320 H 1841.54 4.70949 1.43066 0
M  V30 18321 N 1843.19 -0.216591 1.56105 0
M  V30 18322 C 1844.14 -1.28803 1.93681 0
M  V30 18323 C 1845.13 -1.4826 0.819464 0
M  V30 18324 O 1846.34 -1.49376 1.00433 0
M  V30 18325 H 1842.71 -0.431947 0.61557 0
M  V30 18326 H 1844.68 -0.943954 2.83076 0
M  V30 18327 C 1843.43 -2.63017 2.27414 0
M  V30 18328 H 1842.76 -2.48855 3.12908 0
M  V30 18329 H 1844.2 -3.36787 2.57587 0
M  V30 18330 C 1842.66 -3.18401 1.10103 0
M  V30 18331 O 1843.19 -4.00041 0.364758 0
M  V30 18332 N 1841.39 -2.76843 0.883536 0
M  V30 18333 H 1840.94 -2.1056 1.48399 0
M  V30 18334 H 1840.9 -3.1424 0.100368 0
M  V30 18335 N 1844.67 -1.5 -0.48349 0
M  V30 18336 C 1845.91 -1.60606 -1.23829 0
M  V30 18337 C 1846.25 -0.299778 -1.91872 0
M  V30 18338 O 1845.52 0.697925 -1.81547 0
M  V30 18339 C 1845.81 -2.77769 -2.29165 0
M  V30 18340 C 1845.66 -4.18243 -1.65507 0
M  V30 18341 C 1846.98 -2.90521 -3.30584 0
M  V30 18342 H 1844.1 -0.584561 -0.44884 0
M  V30 18343 H 1846.74 -1.82346 -0.533855 0
M  V30 18344 H 1844.89 -2.59364 -2.89245 0
M  V30 18345 H 1846.56 -4.48208 -1.09119 0
M  V30 18346 H 1844.8 -4.23077 -0.958577 0
M  V30 18347 H 1845.47 -4.96128 -2.41994 0
M  V30 18348 H 1847.95 -3.0733 -2.80513 0
M  V30 18349 H 1846.83 -3.74146 -4.0163 0
M  V30 18350 H 1847.09 -2.00609 -3.93965 0
M  V30 18351 N 1846.15 0.735796 -1.39369 0
M  V30 18352 C 1847.37 1.52504 -1.39822 0
M  V30 18353 C 1847.79 1.88799 0.00747346 0
M  V30 18354 O 1847.15 1.54044 0.978611 0
M  V30 18355 C 1847.2 2.8131 -2.27039 0
M  V30 18356 O 1846.92 2.46557 -3.62134 0
M  V30 18357 C 1848.42 3.75343 -2.35866 0
M  V30 18358 H 1845.64 0.471306 -0.47761 0
M  V30 18359 H 1848.18 0.909257 -1.83174 0
M  V30 18360 H 1846.34 3.39222 -1.87102 0
M  V30 18361 H 1846.75 3.29294 -4.08247 0
M  V30 18362 H 1848.23 4.6262 -3.01142 0
M  V30 18363 H 1848.7 4.17036 -1.37758 0
M  V30 18364 H 1849.31 3.2335 -2.7627 0
M  V30 18365 N 1847.63 1.24532 0.965897 0
M  V30 18366 C 1848.56 1.06393 2.07853 0
M  V30 18367 C 1849.54 -0.0236467 1.70084 0
M  V30 18368 O 1850.72 0.143767 1.93667 0
M  V30 18369 C 1847.85 0.669877 3.40778 0
M  V30 18370 C 1846.81 1.70643 3.92511 0
M  V30 18371 C 1846.13 1.16738 5.21801 0
M  V30 18372 C 1847.43 3.10278 4.20149 0
M  V30 18373 H 1849.13 1.99459 2.23285 0
M  V30 18374 H 1846.67 0.960397 1.07296 0
M  V30 18375 H 1848.62 0.52997 4.18054 0
M  V30 18376 H 1847.35 -0.296477 3.25252 0
M  V30 18377 H 1846.01 1.83458 3.17393 0
M  V30 18378 H 1845.66 0.191586 5.02635 0
M  V30 18379 H 1845.36 1.86009 5.57382 0
M  V30 18380 H 1846.88 1.03963 6.01684 0
M  V30 18381 H 1848.29 3.00681 4.88123 0
M  V30 18382 H 1846.69 3.76918 4.66962 0
M  V30 18383 H 1847.76 3.58182 3.26854 0
M  V30 18384 N 1849.1 -1.16685 1.05936 0
M  V30 18385 C 1850.35 -1.86758 0.772386 0
M  V30 18386 C 1850.67 -1.81885 -0.703051 0
M  V30 18387 O 1849.94 -1.24992 -1.50844 0
M  V30 18388 H 1848.52 -0.69143 0.282725 0
M  V30 18389 H 1851.18 -1.41518 1.3401 0
M  V30 18390 H 1850.28 -2.92296 1.09405 0
M  V30 18391 N 1850.58 -0.841432 -1.33258 0
M  V30 18392 C 1851.86 -0.360204 -1.92255 0
M  V30 18393 C 1852.24 1.15474 -1.76717 0
M  V30 18394 O 1851.59 1.97035 -1.15713 0
M  V30 18395 C 1851.8 -0.809942 -3.39472 0
M  V30 18396 C 1853.14 -0.819444 -4.16618 0
M  V30 18397 O 1854.17 -0.753715 -3.48134 0
M  V30 18398 O 1853.03 -0.909553 -5.38878 0
M  V30 18399 H 1850.12 -0.102458 -0.820629 0
M  V30 18400 H 1852.67 -0.927455 -1.42114 0
M  V30 18401 H 1851.44 -1.85263 -3.44664 0
M  V30 18402 H 1851.06 -0.219406 -3.96994 0
M  V30 18403 N 1852.06 1.4581 -0.598108 0
M  V30 18404 C 1853.34 1.95588 -0.0220376 0
M  V30 18405 C 1853.72 1.54066 1.44316 0
M  V30 18406 O 1853.06 0.798663 2.14088 0
M  V30 18407 C 1853.27 3.48366 -0.210204 0
M  V30 18408 C 1854.62 4.24513 -0.0860474 0
M  V30 18409 O 1855.65 3.55925 -0.139833 0
M  V30 18410 O 1854.51 5.46488 0.0367961 0
M  V30 18411 H 1851.6 0.825977 0.0411123 0
M  V30 18412 H 1854.15 1.56021 -0.667506 0
M  V30 18413 H 1852.92 3.71526 -1.22818 0
M  V30 18414 H 1852.54 3.94801 0.470974 0
M  V30 18415 N 1853.54 0.336733 1.53961 0
M  V30 18416 C 1854.95 -0.148599 1.86108 0
M  V30 18417 C 1855.3 -1.50551 1.25812 0
M  V30 18418 O 1854.42 -2.08782 0.569109 0
M  V30 18419 C 1855.02 -0.276413 3.37671 0
M  V30 18420 C 1853.58 -0.705973 3.6972 0
M  V30 18421 C 1852.73 0.164407 2.76812 0
M  V30 18422 H 1855.68 0.556568 1.4862 0
M  V30 18423 H 1855.7 -1.10509 3.64099 0
M  V30 18424 H 1855.21 0.711315 3.81526 0
M  V30 18425 H 1853.31 -1.70297 3.31406 0
M  V30 18426 H 1853.42 -0.500591 4.76478 0
M  V30 18427 H 1851.79 -0.362166 2.52112 0
M  V30 18428 H 1852.57 1.14914 3.23496 0
M  V30 18429 N 1855.02 -1.57465 0.0651956 0
M  V30 18430 C 1856.24 -1.97975 -0.618099 0
M  V30 18431 C 1856.67 -0.943068 -1.62751 0
M  V30 18432 O 1856.02 0.0921045 -1.81066 0
M  V30 18433 C 1856.07 -3.37533 -1.26902 0
M  V30 18434 O 1855.18 -3.36451 -2.38483 0
M  V30 18435 H 1854.52 -0.644553 -0.159524 0
M  V30 18436 H 1857.05 -2.04136 0.137754 0
M  V30 18437 H 1857.06 -3.74571 -1.61742 0
M  V30 18438 H 1855.73 -4.12518 -0.529334 0
M  V30 18439 H 1854.31 -3.11175 -2.05486 0
M  V30 18440 N 1856.49 0.20831 -1.56217 0
M  V30 18441 C 1857.43 1.28196 -1.89996 0
M  V30 18442 C 1858.44 1.42381 -0.789394 0
M  V30 18443 O 1859.63 1.43043 -1.06776 0
M  V30 18444 C 1856.73 2.65588 -2.10514 0
M  V30 18445 C 1855.9 2.73181 -3.416 0
M  V30 18446 C 1854.96 3.91678 -3.5139 0
M  V30 18447 O 1853.99 3.79397 -4.24319 0
M  V30 18448 N 1855.19 5.06562 -2.83505 0
M  V30 18449 H 1857.95 0.995403 -2.82687 0
M  V30 18450 H 1855.51 0.398294 -1.56924 0
M  V30 18451 H 1857.51 3.43264 -2.14365 0
M  V30 18452 H 1856.08 2.86788 -1.24385 0
M  V30 18453 H 1855.3 1.81881 -3.49733 0
M  V30 18454 H 1856.58 2.75234 -4.27929 0
M  V30 18455 H 1855.98 5.19437 -2.24056 0
M  V30 18456 H 1854.54 5.82232 -2.93 0
M  V30 18457 N 1857.97 1.50255 0.475528 0
M  V30 18458 C 1859.38 1.53931 1.05651 0
M  V30 18459 C 1859.73 0.340226 1.93228 0
M  V30 18460 O 1858.86 -0.547349 2.09363 0
M  V30 18461 C 1859.45 2.78951 1.92281 0
M  V30 18462 C 1858.01 2.85323 2.45495 0
M  V30 18463 C 1857.16 2.48166 1.2373 0
M  V30 18464 H 1860.11 1.56583 0.258332 0
M  V30 18465 H 1860.13 2.60555 2.77293 0
M  V30 18466 H 1859.64 3.66205 1.28514 0
M  V30 18467 H 1857.74 2.0241 3.12827 0
M  V30 18468 H 1857.86 3.88109 2.80906 0
M  V30 18469 H 1856.22 2.00505 1.57066 0
M  V30 18470 H 1857 3.37722 0.616324 0
M  V30 18471 N 1859.45 -0.728395 1.39758 0
M  V30 18472 C 1860.38 -1.85288 1.34911 0
M  V30 18473 C 1861.39 -1.60763 0.25671 0
M  V30 18474 O 1862.58 -1.70875 0.516143 0
M  V30 18475 C 1859.68 -3.21445 1.07361 0
M  V30 18476 C 1858.86 -3.73272 2.28006 0
M  V30 18477 C 1857.92 -4.88008 1.96812 0
M  V30 18478 O 1856.94 -5.01325 2.69559 0
M  V30 18479 N 1858.14 -5.72867 0.938278 0
M  V30 18480 H 1860.91 -1.89949 2.31818 0
M  V30 18481 H 1858.47 -0.909409 1.33945 0
M  V30 18482 H 1860.46 -3.9578 0.845002 0
M  V30 18483 H 1859.03 -3.12012 0.191644 0
M  V30 18484 H 1858.25 -2.90214 2.66777 0
M  V30 18485 H 1859.54 -4.04633 3.08463 0
M  V30 18486 H 1858.94 -5.64704 0.335517 0
M  V30 18487 H 1857.49 -6.47241 0.769572 0
M  V30 18488 N 1860.93 -1.25042 -0.959279 0
M  V30 18489 C 1862.16 -1.12242 -1.73809 0
M  V30 18490 C 1862.57 0.324251 -1.85995 0
M  V30 18491 O 1861.93 1.22328 -1.35433 0
M  V30 18492 C 1861.98 -1.76603 -3.15426 0
M  V30 18493 O 1861.7 -3.15614 -3.03841 0
M  V30 18494 C 1863.2 -1.69522 -4.09606 0
M  V30 18495 H 1860.42 -0.39173 -0.544783 0
M  V30 18496 H 1862.96 -1.65314 -1.2038 0
M  V30 18497 H 1861.12 -1.27512 -3.65813 0
M  V30 18498 H 1861.53 -3.47186 -3.93144 0
M  V30 18499 H 1863.01 -2.19223 -5.06602 0
M  V30 18500 H 1863.48 -0.658074 -4.34242 0
M  V30 18501 H 1864.09 -2.18079 -3.65133 0
M  V30 18502 N 1862.41 1.16121 -1.06553 0
M  V30 18503 C 1863.63 1.90611 -0.804673 0
M  V30 18504 C 1864.05 1.77576 0.641255 0
M  V30 18505 O 1863.41 1.12218 1.43921 0
M  V30 18506 C 1863.46 3.41231 -1.19348 0
M  V30 18507 O 1863.18 3.53879 -2.58266 0
M  V30 18508 C 1864.68 4.32764 -0.960738 0
M  V30 18509 H 1861.9 0.604358 -0.291534 0
M  V30 18510 H 1864.44 1.47174 -1.41986 0
M  V30 18511 H 1862.6 3.82361 -0.622772 0
M  V30 18512 H 1863.01 4.47298 -2.73907 0
M  V30 18513 H 1864.49 5.36898 -1.28238 0
M  V30 18514 H 1864.96 4.39078 0.103389 0
M  V30 18515 H 1865.57 3.97365 -1.51595 0
M  V30 18516 N 1863.88 0.848487 1.3281 0
M  V30 18517 C 1865.13 0.445116 1.96727 0
M  V30 18518 C 1865.45 -1.00311 1.6792 0
M  V30 18519 O 1866.65 -1.51162 2.25527 0
M  V30 18520 C 1865.11 0.745015 3.52104 0
M  V30 18521 C 1864.72 2.20856 3.89778 0
M  V30 18522 C 1866.46 0.409065 4.22524 0
M  V30 18523 C 1864.37 2.452 5.38174 0
M  V30 18524 H 1863.3 0.162715 0.736233 0
M  V30 18525 H 1865.95 1.03841 1.51292 0
M  V30 18526 H 1864.33 0.0812291 3.95917 0
M  V30 18527 H 1865.5 2.91362 3.56994 0
M  V30 18528 H 1863.82 2.50842 3.32366 0
M  V30 18529 H 1866.42 0.568453 5.3167 0
M  V30 18530 H 1866.76 -0.648796 4.11213 0
M  V30 18531 H 1867.29 1.02848 3.84275 0
M  V30 18532 H 1864.03 3.49588 5.54499 0
M  V30 18533 H 1863.55 1.79265 5.72384 0
M  V30 18534 H 1865.23 2.28838 6.0518 0
M  V30 18535 N 1865.36 -1.4549 0.605832 0
M  V30 18536 C 1866.59 -2.07135 0.104838 0
M  V30 18537 C 1867.01 -1.4478 -1.20085 0
M  V30 18538 O 1866.37 -0.539875 -1.73075 0
M  V30 18539 C 1866.42 -3.60593 -0.0231858 0
M  V30 18540 O 1865.52 -3.98173 -1.07386 0
M  V30 18541 H 1864.86 -0.659945 0.0732691 0
M  V30 18542 H 1867.39 -1.8677 0.835343 0
M  V30 18543 H 1867.4 -4.07396 -0.221964 0
M  V30 18544 H 1866.08 -4.05364 0.930211 0
M  V30 18545 H 1864.66 -3.63044 -0.851689 0
M  V30 18546 N 1866.84 -0.344893 -1.5378 0
M  V30 18547 C 1867.79 0.511269 -2.25066 0
M  V30 18548 C 1868.76 1.09446 -1.24944 0
M  V30 18549 O 1869.94 1.13082 -1.53679 0
M  V30 18550 C 1867.08 1.65563 -3.02792 0
M  V30 18551 C 1866.2 1.09962 -4.17771 0
M  V30 18552 C 1865.33 2.21139 -4.82981 0
M  V30 18553 C 1864.37 1.62897 -5.90026 0
M  V30 18554 N 1863.51 2.67822 -6.49011 0
M  V30 18555 H 1868.35 -0.103166 -2.97821 0
M  V30 18556 H 1865.88 -0.0626846 -1.46966 0
M  V30 18557 H 1867.84 2.32936 -3.46117 0
M  V30 18558 H 1866.47 2.24103 -2.32331 0
M  V30 18559 H 1865.52 0.316786 -3.79079 0
M  V30 18560 H 1866.84 0.633622 -4.94759 0
M  V30 18561 H 1865.99 2.96375 -5.29383 0
M  V30 18562 H 1864.73 2.71083 -4.0542 0
M  V30 18563 H 1863.73 0.861672 -5.43006 0
M  V30 18564 H 1864.96 1.13803 -6.69497 0
M  V30 18565 H 1862.9 3.17018 -5.74313 0
M  V30 18566 H 1862.82 2.25848 -7.21477 0
M  V30 18567 H 1864.09 3.42822 -7.00066 0
M  V30 18568 N 1868.32 1.57428 -0.0735454 0
M  V30 18569 C 1869.6 1.84962 0.636265 0
M  V30 18570 C 1869.98 0.966341 1.87683 0
M  V30 18571 O 1869.32 0.0330837 2.28476 0
M  V30 18572 C 1869.53 3.35184 0.972251 0
M  V30 18573 C 1870.88 4.02735 1.34499 0
M  V30 18574 O 1871.91 3.3994 1.06393 0
M  V30 18575 O 1870.76 5.13495 1.87043 0
M  V30 18576 H 1867.86 0.764169 0.316187 0
M  V30 18577 H 1870.4 1.69377 -0.104609 0
M  V30 18578 H 1869.18 3.91194 0.0912319 0
M  V30 18579 H 1868.8 3.56038 1.76983 0
M  V30 18580 N 1869.8 -0.200022 1.56326 0
M  V30 18581 C 1870.73 -1.27187 1.90673 0
M  V30 18582 C 1871.74 -1.41961 0.796933 0
M  V30 18583 O 1872.93 -1.42474 1.07533 0
M  V30 18584 C 1870.03 -2.64468 2.11919 0
M  V30 18585 C 1869.2 -2.71366 3.43044 0
M  V30 18586 C 1868.26 -3.89809 3.53462 0
M  V30 18587 O 1867.29 -3.77142 4.26325 0
M  V30 18588 N 1868.49 -5.05052 2.86187 0
M  V30 18589 H 1871.26 -0.980397 2.83211 0
M  V30 18590 H 1868.82 -0.389967 1.57133 0
M  V30 18591 H 1870.81 -3.42122 2.16182 0
M  V30 18592 H 1869.38 -2.86124 1.25904 0
M  V30 18593 H 1868.6 -1.80024 3.50692 0
M  V30 18594 H 1869.89 -2.72961 4.29383 0
M  V30 18595 H 1869.28 -5.18242 2.26808 0
M  V30 18596 H 1867.84 -5.8067 2.96083 0
M  V30 18597 N 1871.27 -1.50505 -0.467553 0
M  V30 18598 C 1872.52 -1.61671 -1.21938 0
M  V30 18599 C 1872.85 -0.318688 -1.91871 0
M  V30 18600 O 1872.1 0.695639 -1.82919 0
M  V30 18601 C 1872.4 -2.74913 -2.28381 0
M  V30 18602 C 1872.07 -4.1527 -1.75674 0
M  V30 18603 C 1870.73 -4.5346 -1.6102 0
M  V30 18604 C 1873.08 -5.02978 -1.3661 0
M  V30 18605 C 1870.41 -5.77094 -1.05732 0
M  V30 18606 C 1872.76 -6.27163 -0.827621 0
M  V30 18607 C 1871.43 -6.64152 -0.667746 0
M  V30 18608 H 1870.7 -0.591596 -0.446201 0
M  V30 18609 H 1873.34 -1.84449 -0.514858 0
M  V30 18610 H 1871.65 -2.46237 -3.04754 0
M  V30 18611 H 1873.35 -2.80756 -2.86317 0
M  V30 18612 H 1869.94 -3.85144 -1.88047 0
M  V30 18613 H 1874.12 -4.74103 -1.46764 0
M  V30 18614 H 1869.38 -6.04424 -0.920946 0
M  V30 18615 H 1873.55 -6.94484 -0.516286 0
M  V30 18616 H 1871.18 -7.5983 -0.237178 0
M  V30 18617 N 1872.75 0.720973 -1.40142 0
M  V30 18618 C 1873.66 1.86527 -1.42284 0
M  V30 18619 C 1874.68 1.71106 -0.316044 0
M  V30 18620 O 1875.85 1.93465 -0.55977 0
M  V30 18621 C 1872.92 3.2227 -1.27841 0
M  V30 18622 C 1871.98 3.49984 -2.48616 0
M  V30 18623 C 1871.21 4.7925 -2.34852 0
M  V30 18624 O 1871.44 5.53963 -1.35945 0
M  V30 18625 O 1870.37 5.07179 -3.24119 0
M  V30 18626 H 1874.2 1.87675 -2.38771 0
M  V30 18627 H 1871.78 0.870677 -1.21407 0
M  V30 18628 H 1873.66 4.03362 -1.21973 0
M  V30 18629 H 1872.34 3.21861 -0.344566 0
M  V30 18630 H 1871.25 2.68922 -2.60061 0
M  V30 18631 H 1872.58 3.55184 -3.40742 0
M  V30 18632 N 1874.23 1.25549 0.952634 0
M  V30 18633 C 1875.18 1.06108 2.04963 0
M  V30 18634 C 1876.15 -0.0303872 1.66072 0
M  V30 18635 O 1877.33 0.127178 1.90376 0
M  V30 18636 C 1874.47 0.68799 3.38173 0
M  V30 18637 C 1873.59 1.85452 3.90168 0
M  V30 18638 C 1872.72 1.4256 5.11713 0
M  V30 18639 C 1871.76 2.56115 5.55942 0
M  V30 18640 N 1870.9 2.13984 6.68697 0
M  V30 18641 H 1875.74 1.99991 2.20925 0
M  V30 18642 H 1873.27 0.995895 1.08261 0
M  V30 18643 H 1875.23 0.452622 4.14737 0
M  V30 18644 H 1873.86 -0.213845 3.22091 0
M  V30 18645 H 1872.91 2.20314 3.10106 0
M  V30 18646 H 1874.23 2.70722 4.1894 0
M  V30 18647 H 1873.38 1.15 5.95701 0
M  V30 18648 H 1872.12 0.54365 4.8466 0
M  V30 18649 H 1871.12 2.84417 4.70518 0
M  V30 18650 H 1872.35 3.44891 5.85002 0
M  V30 18651 H 1870.29 1.28208 6.4335 0
M  V30 18652 H 1870.21 2.92801 6.96996 0
M  V30 18653 H 1871.48 1.89605 7.56089 0
M  V30 18654 N 1875.71 -1.15554 1.07168 0
M  V30 18655 C 1876.66 -2.20234 0.690348 0
M  V30 18656 C 1877.63 -1.6304 -0.317346 0
M  V30 18657 O 1878.81 -1.89704 -0.20422 0
M  V30 18658 C 1875.95 -3.44976 0.0923404 0
M  V30 18659 C 1875.06 -4.16377 1.15128 0
M  V30 18660 C 1874.2 -5.28664 0.518478 0
M  V30 18661 C 1873.24 -5.91878 1.56034 0
M  V30 18662 N 1872.37 -6.9564 0.950251 0
M  V30 18663 H 1877.21 -2.52203 1.58738 0
M  V30 18664 H 1874.75 -1.23863 0.793502 0
M  V30 18665 H 1876.71 -4.16312 -0.271985 0
M  V30 18666 H 1875.34 -3.1353 -0.768054 0
M  V30 18667 H 1874.39 -3.43556 1.63321 0
M  V30 18668 H 1875.7 -4.59472 1.94132 0
M  V30 18669 H 1874.86 -6.06615 0.101683 0
M  V30 18670 H 1873.6 -4.86756 -0.303345 0
M  V30 18671 H 1872.6 -5.12641 1.98694 0
M  V30 18672 H 1873.83 -6.35864 2.38442 0
M  V30 18673 H 1871.77 -6.5583 0.149298 0
M  V30 18674 H 1871.69 -7.37153 1.67755 0
M  V30 18675 H 1872.96 -7.77494 0.558895 0
M  V30 18676 N 1877.19 -0.855519 -1.32358 0
M  V30 18677 C 1878.13 -0.298777 -2.28858 0
M  V30 18678 C 1879.1 0.594728 -1.55088 0
M  V30 18679 O 1880.29 0.529455 -1.83307 0
M  V30 18680 C 1877.43 0.506096 -3.41369 0
M  V30 18681 C 1876.54 -0.413297 -4.30018 0
M  V30 18682 C 1875.68 0.404292 -5.29659 0
M  V30 18683 C 1874.72 -0.512444 -6.09951 0
M  V30 18684 N 1873.85 0.268017 -7.01588 0
M  V30 18685 H 1878.69 -1.12694 -2.7587 0
M  V30 18686 H 1876.23 -0.567162 -1.35726 0
M  V30 18687 H 1878.19 0.988384 -4.05323 0
M  V30 18688 H 1876.82 1.29908 -2.95506 0
M  V30 18689 H 1875.87 -1.01398 -3.66637 0
M  V30 18690 H 1877.18 -1.11683 -4.86136 0
M  V30 18691 H 1876.34 0.949707 -5.99221 0
M  V30 18692 H 1875.08 1.14118 -4.74161 0
M  V30 18693 H 1874.08 -1.06974 -5.39293 0
M  V30 18694 H 1875.31 -1.24796 -6.67535 0
M  V30 18695 H 1873.25 0.987986 -6.48517 0
M  V30 18696 H 1873.17 -0.376462 -7.55062 0
M  V30 18697 H 1874.44 0.79513 -7.75434 0
M  V30 18698 N 1878.67 1.45167 -0.61354 0
M  V30 18699 C 1879.61 2.32319 0.114222 0
M  V30 18700 C 1880.61 1.4632 0.853634 0
M  V30 18701 O 1881.81 1.62769 0.768525 0
M  V30 18702 H 1878.19 0.749935 0.0556921 0
M  V30 18703 H 1880.16 2.91474 -0.639175 0
M  V30 18704 C 1878.91 3.30035 1.09417 0
M  V30 18705 H 1878.23 3.96209 0.534632 0
M  V30 18706 H 1879.67 3.93734 1.5732 0
M  V30 18707 C 1878.13 2.57648 2.1707 0
M  V30 18708 O 1878.66 2.36227 3.24899 0
M  V30 18709 N 1876.87 2.17682 1.92517 0
M  V30 18710 H 1876.41 2.35303 1.04834 0
M  V30 18711 H 1876.37 1.69573 2.6475 0
M  V30 18712 N 1880.14 0.353044 1.53595 0
M  V30 18713 C 1881.42 -0.296304 1.93343 0
M  V30 18714 C 1881.8 -1.67448 1.28548 0
M  V30 18715 O 1881.15 -2.24226 0.4399 0
M  V30 18716 C 1881.36 -0.359079 3.47148 0
M  V30 18717 C 1882.71 -0.605406 4.20262 0
M  V30 18718 O 1883.73 -0.440805 3.53462 0
M  V30 18719 O 1882.59 -0.92496 5.38616 0
M  V30 18720 H 1879.68 -0.174879 0.808298 0
M  V30 18721 H 1882.23 0.404914 1.64798 0
M  V30 18722 H 1881 0.607684 3.86553 0
M  V30 18723 H 1880.62 -1.1067 3.81887 0
M  V30 18724 N 1881.62 -1.57387 0.0818932 0
M  V30 18725 C 1882.85 -1.98201 -0.593645 0
M  V30 18726 C 1883.26 -0.960602 -1.62536 0
M  V30 18727 O 1882.62 0.0514903 -1.82427 0
M  V30 18728 C 1882.67 -3.39083 -1.2532 0
M  V30 18729 O 1882.39 -4.37311 -0.262763 0
M  V30 18730 C 1883.89 -3.94827 -2.0156 0
M  V30 18731 H 1881.11 -0.651606 -0.160159 0
M  V30 18732 H 1883.66 -2.03894 0.157281 0
M  V30 18733 H 1881.81 -3.34444 -1.95514 0
M  V30 18734 H 1882.23 -5.19294 -0.737169 0
M  V30 18735 H 1883.7 -4.95594 -2.43086 0
M  V30 18736 H 1884.18 -3.31921 -2.8762 0
M  V30 18737 H 1884.78 -4.02898 -1.36211 0
M  V30 18738 N 1883.1 0.191729 -1.56429 0
M  V30 18739 C 1884.03 1.24024 -1.97839 0
M  V30 18740 C 1885.01 1.47291 -0.850853 0
M  V30 18741 O 1886.2 1.58971 -1.11543 0
M  V30 18742 C 1883.33 2.58373 -2.32079 0
M  V30 18743 C 1882.28 2.49712 -3.47603 0
M  V30 18744 C 1881.61 3.88365 -3.67528 0
M  V30 18745 C 1882.91 2.01929 -4.81687 0
M  V30 18746 H 1884.6 0.8961 -2.85675 0
M  V30 18747 H 1882.15 0.429616 -1.37442 0
M  V30 18748 H 1884.1 3.31908 -2.59643 0
M  V30 18749 H 1882.82 2.94534 -1.41129 0
M  V30 18750 H 1881.48 1.78632 -3.20135 0
M  V30 18751 H 1881.13 4.21884 -2.73903 0
M  V30 18752 H 1880.83 3.83444 -4.45246 0
M  V30 18753 H 1882.35 4.63518 -3.97472 0
M  V30 18754 H 1883.77 2.65225 -5.0826 0
M  V30 18755 H 1882.16 2.08002 -5.62899 0
M  V30 18756 H 1883.23 0.972649 -4.75045 0
M  V30 18757 N 1884.58 1.50751 0.459565 0
M  V30 18758 C 1885.85 1.5284 1.22062 0
M  V30 18759 C 1886.23 0.279716 2.09239 0
M  V30 18760 O 1885.58 -0.73634 2.16311 0
M  V30 18761 C 1885.79 2.83046 2.04171 0
M  V30 18762 C 1887.14 3.34151 2.6197 0
M  V30 18763 O 1888.16 2.84446 2.14403 0
M  V30 18764 O 1887.02 4.20824 3.48668 0
M  V30 18765 H 1884.12 0.613549 0.554515 0
M  V30 18766 H 1886.66 1.63049 0.470445 0
M  V30 18767 H 1885.44 3.65397 1.40004 0
M  V30 18768 H 1885.06 2.75896 2.86299 0
M  V30 18769 N 1886.06 -0.713531 1.40522 0
M  V30 18770 C 1887.47 -1.29276 1.34702 0
M  V30 18771 C 1887.82 -1.96188 0.0214862 0
M  V30 18772 O 1886.94 -1.97676 -0.880513 0
M  V30 18773 C 1887.54 -2.35082 2.43971 0
M  V30 18774 C 1886.1 -2.88624 2.41605 0
M  V30 18775 C 1885.24 -1.62437 2.24743 0
M  V30 18776 H 1888.19 -0.509517 1.50298 0
M  V30 18777 H 1888.22 -3.15971 2.11996 0
M  V30 18778 H 1887.73 -1.86353 3.40432 0
M  V30 18779 H 1885.83 -3.41578 1.48847 0
M  V30 18780 H 1885.94 -3.40278 3.37265 0
M  V30 18781 H 1884.31 -1.8758 1.72296 0
M  V30 18782 H 1885.09 -1.1573 3.23205 0
M  V30 18783 N 1887.53 -1.26053 -0.945962 0
M  V30 18784 C 1888.44 -1.08959 -2.07762 0
M  V30 18785 C 1889.46 -0.0243726 -1.73983 0
M  V30 18786 O 1890.64 -0.227113 -2.00115 0
M  V30 18787 C 1887.7 -0.719365 -3.39155 0
M  V30 18788 C 1886.76 -1.86347 -3.86747 0
M  V30 18789 C 1885.99 -1.51082 -5.11869 0
M  V30 18790 O 1886.22 -0.410377 -5.68922 0
M  V30 18791 O 1885.15 -2.34395 -5.54385 0
M  V30 18792 H 1888.98 -2.03884 -2.25089 0
M  V30 18793 H 1886.56 -1.05071 -1.0621 0
M  V30 18794 H 1888.44 -0.525412 -4.18112 0
M  V30 18795 H 1887.12 0.20054 -3.23078 0
M  V30 18796 H 1886.03 -2.11235 -3.08756 0
M  V30 18797 H 1887.36 -2.76293 -4.07336 0
M  V30 18798 N 1889.01 1.14984 -1.07779 0
M  V30 18799 C 1890.42 1.67453 -0.825611 0
M  V30 18800 C 1890.77 1.85168 0.648631 0
M  V30 18801 O 1889.9 1.55817 1.50167 0
M  V30 18802 C 1890.49 3.04172 -1.49214 0
M  V30 18803 C 1889.05 3.53701 -1.28736 0
M  V30 18804 C 1888.2 2.29324 -1.55903 0
M  V30 18805 H 1891.15 0.99138 -1.23925 0
M  V30 18806 H 1891.17 3.69315 -0.915779 0
M  V30 18807 H 1890.68 2.91247 -2.56509 0
M  V30 18808 H 1888.78 3.71859 -0.234821 0
M  V30 18809 H 1888.9 4.34871 -2.01056 0
M  V30 18810 H 1887.26 2.35081 -0.980257 0
M  V30 18811 H 1888.04 2.18982 -2.6439 0
M  V30 18812 N 1890.49 0.862526 1.31902 0
M  V30 18813 C 1891.74 0.469775 1.96976 0
M  V30 18814 C 1892.06 -0.976339 1.6822 0
M  V30 18815 O 1891.32 -1.70131 0.967153 0
M  V30 18816 C 1891.62 0.664872 3.51161 0
M  V30 18817 C 1891.28 2.08264 3.99921 0
M  V30 18818 C 1889.95 2.47039 4.12947 0
M  V30 18819 C 1892.3 3.00762 4.25666 0
M  V30 18820 C 1889.63 3.77568 4.49065 0
M  V30 18821 C 1891.98 4.30797 4.63245 0
M  V30 18822 C 1890.64 4.69496 4.74478 0
M  V30 18823 H 1889.91 0.171903 0.720785 0
M  V30 18824 H 1892.56 1.09409 1.57169 0
M  V30 18825 H 1890.86 -0.0426255 3.91777 0
M  V30 18826 H 1892.56 0.340921 3.99548 0
M  V30 18827 H 1889.15 1.77158 3.90273 0
M  V30 18828 H 1893.34 2.72034 4.15104 0
M  V30 18829 H 1888.59 4.07323 4.55958 0
M  V30 18830 H 1892.77 5.02527 4.8212 0
M  V30 18831 H 1890.39 5.70682 5.02221 0
M  V30 18832 N 1891.97 -1.4484 0.62123 0
M  V30 18833 C 1893.21 -2.02433 0.121965 0
M  V30 18834 C 1893.55 -1.48679 -1.24932 0
M  V30 18835 O 1892.82 -0.666887 -1.8271 0
M  V30 18836 C 1893.11 -3.59967 0.0978513 0
M  V30 18837 C 1892.96 -4.24025 1.50077 0
M  V30 18838 C 1894.28 -4.36224 -0.582838 0
M  V30 18839 H 1891.4 -0.735576 0.0457947 0
M  V30 18840 H 1894.04 -1.72531 0.795812 0
M  V30 18841 H 1892.19 -3.85573 -0.47597 0
M  V30 18842 H 1893.86 -4.09558 2.12272 0
M  V30 18843 H 1892.1 -3.819 2.05754 0
M  V30 18844 H 1892.77 -5.32994 1.43602 0
M  V30 18845 H 1895.25 -4.15992 -0.0949595 0
M  V30 18846 H 1894.13 -5.45944 -0.568863 0
M  V30 18847 H 1894.39 -4.10098 -1.65142 0
M  V30 18848 N 1893.45 -0.361184 -1.53405 0
M  V30 18849 C 1894.72 0.286047 -1.93497 0
M  V30 18850 C 1895.1 1.66764 -1.29434 0
M  V30 18851 O 1894.45 2.23989 -0.451785 0
M  V30 18852 C 1894.66 0.340663 -3.47333 0
M  V30 18853 C 1896.01 0.58311 -4.20577 0
M  V30 18854 O 1897.03 0.422054 -3.53691 0
M  V30 18855 O 1895.89 0.896383 -5.39099 0
M  V30 18856 H 1892.99 0.17059 -0.809215 0
M  V30 18857 H 1895.53 -0.413648 -1.64581 0
M  V30 18858 H 1894.3 -0.628175 -3.86225 0
M  V30 18859 H 1893.93 1.08643 -3.82469 0
M  V30 18860 N 1894.92 1.57341 -0.0902386 0
M  V30 18861 C 1896.16 1.96056 0.57804 0
M  V30 18862 C 1896.53 0.970766 1.65651 0
M  V30 18863 O 1897.73 1.24623 2.38165 0
M  V30 18864 C 1896 3.39289 1.12328 0
M  V30 18865 S 1897.56 3.99997 1.80411 0
M  V30 18866 H 1894.38 0.685485 0.188762 0
M  V30 18867 H 1896.98 1.94773 -0.168486 0
M  V30 18868 H 1895.68 4.09097 0.326786 0
M  V30 18869 H 1895.21 3.44158 1.90574 0
M  V30 18870 H 1897.23 3.88405 3.08798 0
M  V30 18871 N 1896.4 -0.183431 1.56529 0
M  V30 18872 C 1897.35 -1.22726 1.95466 0
M  V30 18873 C 1898.32 -1.44626 0.81686 0
M  V30 18874 O 1899.5 -1.57566 1.07599 0
M  V30 18875 C 1896.64 -2.56435 2.30944 0
M  V30 18876 C 1895.76 -2.42016 3.57844 0
M  V30 18877 C 1894.89 -3.68509 3.82589 0
M  V30 18878 C 1893.93 -3.48972 5.02877 0
M  V30 18879 N 1893.07 -4.67505 5.23817 0
M  V30 18880 H 1897.91 -0.888204 2.84456 0
M  V30 18881 H 1895.45 -0.427192 1.4076 0
M  V30 18882 H 1897.4 -3.3435 2.49532 0
M  V30 18883 H 1896.03 -2.8836 1.4508 0
M  V30 18884 H 1895.09 -1.55339 3.47237 0
M  V30 18885 H 1896.4 -2.23519 4.45915 0
M  V30 18886 H 1895.55 -4.54861 4.0148 0
M  V30 18887 H 1894.29 -3.89972 2.9287 0
M  V30 18888 H 1893.3 -2.61005 4.83897 0
M  V30 18889 H 1894.52 -3.28942 5.94116 0
M  V30 18890 H 1892.47 -4.8921 4.37047 0
M  V30 18891 H 1892.38 -4.51876 6.06089 0
M  V30 18892 H 1893.65 -5.55175 5.47176 0
M  V30 18893 N 1897.88 -1.50992 -0.451564 0
M  V30 18894 C 1898.79 -1.74097 -1.5725 0
M  V30 18895 C 1899.81 -0.624663 -1.62401 0
M  V30 18896 O 1900.98 -0.90528 -1.79907 0
M  V30 18897 C 1898.05 -1.84808 -2.93338 0
M  V30 18898 C 1897.11 -3.08618 -2.98418 0
M  V30 18899 C 1896.34 -3.18808 -4.28015 0
M  V30 18900 O 1896.56 -2.35291 -5.1961 0
M  V30 18901 O 1895.5 -4.11685 -4.39089 0
M  V30 18902 H 1899.32 -2.69156 -1.40673 0
M  V30 18903 H 1896.91 -1.35322 -0.633105 0
M  V30 18904 H 1898.79 -1.9392 -3.7413 0
M  V30 18905 H 1897.47 -0.929344 -3.10072 0
M  V30 18906 H 1896.37 -3.04993 -2.16633 0
M  V30 18907 H 1897.71 -4.00133 -2.86625 0
M  V30 18908 N 1899.36 0.706069 -1.40899 0
M  V30 18909 C 1900.6 1.47839 -1.41149 0
M  V30 18910 C 1900.96 1.91993 -0.0158488 0
M  V30 18911 O 1902.16 2.68588 0.106807 0
M  V30 18912 C 1900.43 2.66503 -2.38141 0
M  V30 18913 S 1901.99 3.55785 -2.56831 0
M  V30 18914 H 1898.81 0.505332 -0.50016 0
M  V30 18915 H 1901.41 0.824818 -1.77248 0
M  V30 18916 H 1900.12 2.32251 -3.3836 0
M  V30 18917 H 1899.65 3.36763 -2.03358 0
M  V30 18918 H 1901.66 4.61307 -1.82785 0
M  V30 18919 N 1900.84 1.26553 0.939264 0
M  V30 18920 C 1902.08 1.11989 1.68235 0
M  V30 18921 C 1902.41 -0.336993 1.92066 0
M  V30 18922 O 1901.68 -1.23742 1.51871 0
M  V30 18923 H 1900.26 0.41144 0.623479 0
M  V30 18924 H 1902.92 1.58909 1.12845 0
M  V30 18925 H 1902.01 1.64011 2.65531 0
M  V30 18926 N 1902.31 -1.14411 1.08387 0
M  V30 18927 C 1903.73 -1.37432 0.811464 0
M  V30 18928 C 1903.93 -1.92992 -0.579345 0
M  V30 18929 O 1902.99 -2.14249 -1.33618 0
M  V30 18930 C 1904.3 -2.33557 1.89398 0
M  V30 18931 C 1905.85 -2.47197 1.91996 0
M  V30 18932 C 1906.32 -3.46622 2.99361 0
M  V30 18933 N 1907.81 -3.54165 2.98532 0
M  V30 18934 C 1908.55 -4.30946 3.78249 0
M  V30 18935 N 1908.04 -5.10972 4.67846 0
M  V30 18936 N 1909.84 -4.26141 3.66552 0
M  V30 18937 H 1901.99 -0.76694 1.9807 0
M  V30 18938 H 1904.25 -0.399866 0.859541 0
M  V30 18939 H 1903.96 -1.99868 2.89388 0
M  V30 18940 H 1903.83 -3.33459 1.7631 0
M  V30 18941 H 1906.22 -2.80178 0.926513 0
M  V30 18942 H 1906.3 -1.47258 2.09162 0
M  V30 18943 H 1905.94 -3.14374 3.98913 0
M  V30 18944 H 1905.87 -4.46341 2.7944 0
M  V30 18945 H 1908.36 -2.97057 2.33593 0
M  V30 18946 H 1908.68 -5.66834 5.2528 0
M  V30 18947 H 1907.02 -5.10241 4.71889 0
M  V30 18948 H 1910.21 -3.62693 2.95925 0
M  V30 18949 H 1910.39 -4.85729 4.28919 0
M  V30 18950 N 1903.79 -0.869509 -1.31443 0
M  V30 18951 C 1904.74 -0.323034 -2.28528 0
M  V30 18952 C 1905.71 0.578245 -1.5571 0
M  V30 18953 O 1906.89 0.509983 -1.83858 0
M  V30 18954 C 1904.03 0.469861 -3.41886 0
M  V30 18955 C 1903.15 -0.458883 -4.29556 0
M  V30 18956 C 1902.28 0.348092 -5.30058 0
M  V30 18957 C 1901.32 -0.577109 -6.09373 0
M  V30 18958 N 1900.46 0.193589 -7.01833 0
M  V30 18959 H 1905.3 -1.15614 -2.74659 0
M  V30 18960 H 1902.84 -0.581526 -1.35117 0
M  V30 18961 H 1904.79 0.945338 -4.06349 0
M  V30 18962 H 1903.42 1.26767 -2.96867 0
M  V30 18963 H 1902.48 -1.05281 -3.65541 0
M  V30 18964 H 1903.79 -1.16833 -4.84924 0
M  V30 18965 H 1902.94 0.886098 -6.00194 0
M  V30 18966 H 1901.68 1.09083 -4.75344 0
M  V30 18967 H 1900.69 -1.12687 -5.38128 0
M  V30 18968 H 1901.91 -1.31869 -6.66174 0
M  V30 18969 H 1899.86 0.919147 -6.49529 0
M  V30 18970 H 1899.77 -0.456525 -7.5462 0
M  V30 18971 H 1901.04 0.71284 -7.76234 0
M  V30 18972 N 1905.27 1.44508 -0.628902 0
M  V30 18973 C 1906.2 2.27848 0.126632 0
M  V30 18974 C 1907.18 1.38406 0.85338 0
M  V30 18975 O 1908.37 1.67845 0.857923 0
M  V30 18976 C 1905.49 3.17283 1.18529 0
M  V30 18977 C 1904.54 4.22817 0.559317 0
M  V30 18978 S 1905.37 5.31554 -0.648926 0
M  V30 18979 C 1906.53 6.24557 0.409797 0
M  V30 18980 H 1906.76 2.9158 -0.580384 0
M  V30 18981 H 1904.29 1.48662 -0.417009 0
M  V30 18982 H 1906.25 3.69362 1.79115 0
M  V30 18983 H 1904.91 2.52776 1.86449 0
M  V30 18984 H 1904.11 4.854 1.35656 0
M  V30 18985 H 1903.71 3.73989 0.0281246 0
M  V30 18986 H 1906 6.65241 1.28298 0
M  V30 18987 H 1906.94 7.0787 -0.180404 0
M  V30 18988 H 1907.35 5.59699 0.734695 0
M  V30 18989 N 1906.75 0.369315 1.53212 0
M  V30 18990 C 1907.7 -0.491919 2.2263 0
M  V30 18991 C 1908.68 -1.0457 1.22286 0
M  V30 18992 O 1909.88 -0.975125 1.47717 0
M  V30 18993 C 1907 -1.62916 3.02181 0
M  V30 18994 C 1906.09 -1.08808 4.09904 0
M  V30 18995 N 1906.48 -0.270291 5.05077 0
M  V30 18996 C 1904.78 -1.36253 4.24678 0
M  V30 18997 C 1905.48 0.0263875 5.81694 0
M  V30 18998 N 1904.46 -0.572239 5.4058 0
M  V30 18999 H 1908.26 0.139657 2.93568 0
M  V30 19000 H 1905.77 0.177531 1.61427 0
M  V30 19001 H 1907.77 -2.25837 3.50433 0
M  V30 19002 H 1906.43 -2.26376 2.32774 0
M  V30 19003 H 1907.44 0.0908158 5.1782 0
M  V30 19004 H 1904.12 -1.99964 3.66498 0
M  V30 19005 H 1905.51 0.687735 6.68371 0
M  V30 19006 N 1908.23 -1.57291 0.0985816 0
M  V30 19007 C 1909.16 -2.11249 -0.889184 0
M  V30 19008 C 1910.17 -1.05051 -1.24371 0
M  V30 19009 O 1911.36 -1.32488 -1.19621 0
M  V30 19010 C 1908.46 -2.58021 -2.19724 0
M  V30 19011 C 1907.63 -3.88091 -2.01752 0
M  V30 19012 C 1906.69 -4.20674 -3.16101 0
M  V30 19013 O 1905.72 -4.89837 -2.89911 0
M  V30 19014 N 1906.92 -3.76356 -4.41969 0
M  V30 19015 H 1909.69 -2.96624 -0.42832 0
M  V30 19016 H 1907.25 -1.61669 -0.0864254 0
M  V30 19017 H 1909.24 -2.76861 -2.95178 0
M  V30 19018 H 1907.81 -1.77638 -2.57223 0
M  V30 19019 H 1907.03 -3.78364 -1.10608 0
M  V30 19020 H 1908.32 -4.7318 -1.87026 0
M  V30 19021 H 1907.72 -3.20533 -4.66128 0
M  V30 19022 H 1906.27 -4.00344 -5.14361 0
M  V30 19023 N 1909.71 0.175127 -1.56624 0
M  V30 19024 C 1910.95 0.890653 -1.8097 0
M  V30 19025 C 1911.27 1.83577 -0.675199 0
M  V30 19026 O 1912.47 2.59338 -0.803492 0
M  V30 19027 C 1910.93 1.63427 -3.20655 0
M  V30 19028 C 1910.54 0.732982 -4.41963 0
M  V30 19029 C 1912.28 2.33825 -3.54297 0
M  V30 19030 C 1910.19 1.47661 -5.72669 0
M  V30 19031 H 1909.12 0.336324 -0.674835 0
M  V30 19032 H 1911.77 0.143627 -1.82937 0
M  V30 19033 H 1910.15 2.42591 -3.12994 0
M  V30 19034 H 1911.33 -0.0214223 -4.60795 0
M  V30 19035 H 1909.64 0.138848 -4.16168 0
M  V30 19036 H 1912.24 2.90048 -4.49195 0
M  V30 19037 H 1912.58 3.08979 -2.78994 0
M  V30 19038 H 1913.11 1.61608 -3.63494 0
M  V30 19039 H 1909.85 0.767472 -6.50992 0
M  V30 19040 H 1909.37 2.20444 -5.57821 0
M  V30 19041 H 1911.05 2.02512 -6.1449 0
M  V30 19042 N 1911.18 1.5123 0.44355 0
M  V30 19043 C 1912.42 1.65246 1.20305 0
M  V30 19044 C 1912.79 0.357897 1.88635 0
M  V30 19045 O 1913.99 0.373765 2.66189 0
M  V30 19046 C 1912.26 2.8184 2.19775 0
M  V30 19047 S 1913.82 3.16149 3.04295 0
M  V30 19048 H 1910.64 0.582242 0.408063 0
M  V30 19049 H 1913.24 1.89114 0.495589 0
M  V30 19050 H 1911.94 3.74347 1.68204 0
M  V30 19051 H 1911.47 2.60141 2.95111 0
M  V30 19052 H 1913.49 2.62102 4.21327 0
M  V30 19053 N 1912.66 -0.698586 1.41271 0
M  V30 19054 C 1913.91 -1.46077 1.40674 0
M  V30 19055 C 1914.24 -1.94194 0.0146774 0
M  V30 19056 O 1913.52 -1.69325 -0.957036 0
M  V30 19057 C 1913.8 -2.67481 2.41093 0
M  V30 19058 C 1913.65 -2.25149 3.89394 0
M  V30 19059 C 1914.97 -3.69673 2.38809 0
M  V30 19060 H 1912.09 -0.529839 0.512288 0
M  V30 19061 H 1914.73 -0.795918 1.72526 0
M  V30 19062 H 1912.88 -3.24206 2.14062 0
M  V30 19063 H 1914.55 -1.73775 4.27317 0
M  V30 19064 H 1912.8 -1.56965 4.04406 0
M  V30 19065 H 1913.47 -3.12247 4.55199 0
M  V30 19066 H 1915.94 -3.22615 2.6279 0
M  V30 19067 H 1914.82 -4.52232 3.1109 0
M  V30 19068 H 1915.08 -4.1916 1.40562 0
M  V30 19069 N 1914.14 -1.27049 -0.93254 0
M  V30 19070 C 1915.07 -1.11867 -2.04959 0
M  V30 19071 C 1916.05 -0.0214563 -1.70086 0
M  V30 19072 O 1917.24 -0.195063 -1.93218 0
M  V30 19073 C 1914.37 -0.759993 -3.38883 0
M  V30 19074 C 1913.32 -1.8099 -3.87849 0
M  V30 19075 C 1912.65 -1.30532 -5.18522 0
M  V30 19076 C 1913.95 -3.21309 -4.11774 0
M  V30 19077 H 1915.64 -2.05309 -2.17918 0
M  V30 19078 H 1913.19 -0.988507 -1.04712 0
M  V30 19079 H 1915.14 -0.640623 -4.16502 0
M  V30 19080 H 1913.86 0.210139 -3.25923 0
M  V30 19081 H 1912.52 -1.91809 -3.12418 0
M  V30 19082 H 1912.17 -0.324784 -5.0195 0
M  V30 19083 H 1911.87 -2.00722 -5.52254 0
M  V30 19084 H 1913.39 -1.19879 -5.98716 0
M  V30 19085 H 1914.81 -3.13517 -4.79979 0
M  V30 19086 H 1913.2 -3.89166 -4.56804 0
M  V30 19087 H 1914.27 -3.66722 -3.17243 0
M  V30 19088 N 1915.62 1.13835 -1.08993 0
M  V30 19089 C 1916.57 2.17155 -0.694818 0
M  V30 19090 C 1917.55 1.58291 0.28858 0
M  V30 19091 O 1918.74 1.76719 0.0996503 0
M  V30 19092 C 1915.87 3.43117 -0.112138 0
M  V30 19093 C 1914.96 4.08998 -1.12168 0
M  V30 19094 N 1915.35 4.50111 -2.30724 0
M  V30 19095 C 1913.65 4.35572 -0.958807 0
M  V30 19096 C 1914.35 5.01403 -2.94907 0
M  V30 19097 N 1913.32 4.95984 -2.22487 0
M  V30 19098 H 1917.13 2.46691 -1.59752 0
M  V30 19099 H 1914.64 1.30583 -0.965503 0
M  V30 19100 H 1916.64 4.16472 0.188914 0
M  V30 19101 H 1915.3 3.15056 0.785468 0
M  V30 19102 H 1916.31 4.42959 -2.68343 0
M  V30 19103 H 1912.99 4.1734 -0.11551 0
M  V30 19104 H 1914.38 5.43044 -3.95667 0
M  V30 19105 N 1917.1 0.876467 1.3098 0
M  V30 19106 C 1918.33 0.504582 2.00344 0
M  V30 19107 C 1918.73 -0.909186 1.65923 0
M  V30 19108 O 1918.08 -1.60812 0.887988 0
M  V30 19109 C 1918.14 0.589519 3.54634 0
M  V30 19110 C 1917.8 1.96607 4.12547 0
M  V30 19111 C 1918.8 2.9344 4.29172 0
M  V30 19112 C 1916.48 2.26914 4.48124 0
M  V30 19113 C 1918.48 4.18721 4.80574 0
M  V30 19114 C 1916.17 3.52443 4.99227 0
M  V30 19115 C 1917.16 4.48161 5.15403 0
M  V30 19116 O 1916.85 5.71464 5.65406 0
M  V30 19117 H 1916.58 0.194422 0.647438 0
M  V30 19118 H 1919.14 1.18126 1.68034 0
M  V30 19119 H 1917.37 -0.144102 3.86431 0
M  V30 19120 H 1919.06 0.230131 4.05247 0
M  V30 19121 H 1919.82 2.71335 4.01998 0
M  V30 19122 H 1915.7 1.53184 4.34805 0
M  V30 19123 H 1919.25 4.9344 4.93115 0
M  V30 19124 H 1915.14 3.74389 5.25836 0
M  V30 19125 H 1915.91 5.73727 5.83764 0
M  V30 19126 N 1918.57 -1.44173 0.636557 0
M  V30 19127 C 1919.85 -1.9546 0.0738864 0
M  V30 19128 C 1920.23 -1.57838 -1.4018 0
M  V30 19129 O 1919.58 -0.855144 -2.11895 0
M  V30 19130 C 1919.79 -3.47687 0.302493 0
M  V30 19131 C 1921.14 -4.24135 0.198569 0
M  V30 19132 O 1922.16 -3.5543 0.234151 0
M  V30 19133 O 1921.02 -5.46393 0.108108 0
M  V30 19134 H 1918.11 -0.826777 -0.0191985 0
M  V30 19135 H 1920.66 -1.54196 0.708638 0
M  V30 19136 H 1919.43 -3.68139 1.32625 0
M  V30 19137 H 1919.05 -3.95911 -0.366134 0
M  V30 19138 N 1920.05 -0.377435 -1.53014 0
M  V30 19139 C 1921.3 0.209712 -2.00607 0
M  V30 19140 C 1921.61 1.48891 -1.2685 0
M  V30 19141 O 1922.82 2.15538 -1.65093 0
M  V30 19142 C 1921.28 0.424271 -3.5739 0
M  V30 19143 C 1920.88 -0.840982 -4.40036 0
M  V30 19144 C 1922.63 0.968428 -4.13306 0
M  V30 19145 C 1920.53 -0.595355 -5.88396 0
M  V30 19146 H 1919.46 0.0821436 -0.749512 0
M  V30 19147 H 1922.12 -0.498005 -1.76613 0
M  V30 19148 H 1920.5 1.19354 -3.77585 0
M  V30 19149 H 1921.67 -1.61396 -4.31611 0
M  V30 19150 H 1919.99 -1.30922 -3.95283 0
M  V30 19151 H 1922.58 1.16771 -5.21794 0
M  V30 19152 H 1922.93 1.93405 -3.68647 0
M  V30 19153 H 1923.46 0.259025 -3.96956 0
M  V30 19154 H 1920.2 -1.53164 -6.37355 0
M  V30 19155 H 1919.72 0.138904 -5.99639 0
M  V30 19156 H 1921.4 -0.225366 -6.46607 0
M  V30 19157 N 1921.53 1.57237 -0.106922 0
M  V30 19158 C 1922.78 1.9395 0.553733 0
M  V30 19159 C 1923.09 0.991678 1.68597 0
M  V30 19160 O 1924.3 1.25299 2.40858 0
M  V30 19161 C 1922.75 3.44655 1.0364 0
M  V30 19162 C 1922.36 4.4795 -0.0667311 0
M  V30 19163 C 1924.11 3.90309 1.66911 0
M  V30 19164 C 1922.01 5.8982 0.431953 0
M  V30 19165 H 1920.94 0.723986 0.21062 0
M  V30 19166 H 1923.59 1.82567 -0.18483 0
M  V30 19167 H 1921.98 3.51231 1.82901 0
M  V30 19168 H 1923.15 4.5303 -0.842624 0
M  V30 19169 H 1921.47 4.11976 -0.605358 0
M  V30 19170 H 1924.06 4.9371 2.05315 0
M  V30 19171 H 1924.41 3.29612 2.54287 0
M  V30 19172 H 1924.94 3.86483 0.942119 0
M  V30 19173 H 1921.68 6.54245 -0.405469 0
M  V30 19174 H 1921.2 5.88187 1.17459 0
M  V30 19175 H 1922.88 6.4075 0.897104 0
M  V30 19176 N 1923.01 -0.166818 1.56715 0
M  V30 19177 C 1924.25 -0.879309 1.83411 0
M  V30 19178 C 1924.61 -1.79674 0.688116 0
M  V30 19179 O 1923.9 -1.8899 -0.315183 0
M  V30 19180 C 1924.1 -1.70734 3.13982 0
M  V30 19181 C 1923.93 -0.871579 4.41173 0
M  V30 19182 C 1922.7 -0.544904 5.02353 0
M  V30 19183 C 1924.89 -0.211049 5.13867 0
M  V30 19184 N 1922.88 0.306529 6.13134 0
M  V30 19185 C 1924.25 0.501356 6.1797 0
M  V30 19186 C 1926.3 -0.129677 4.97731 0
M  V30 19187 C 1925 1.28742 7.07685 0
M  V30 19188 C 1927.03 0.643069 5.87893 0
M  V30 19189 C 1926.39 1.34382 6.91463 0
M  V30 19190 H 1922.49 -0.300233 0.72207 0
M  V30 19191 H 1925.08 -0.145981 1.94152 0
M  V30 19192 H 1923.25 -2.41206 3.04425 0
M  V30 19193 H 1924.98 -2.36148 3.28658 0
M  V30 19194 H 1921.73 -0.876048 4.65427 0
M  V30 19195 H 1922.16 0.722687 6.73132 0
M  V30 19196 H 1926.8 -0.657096 4.17663 0
M  V30 19197 H 1924.52 1.82617 7.87195 0
M  V30 19198 H 1928.1 0.707761 5.77479 0
M  V30 19199 H 1926.98 1.93218 7.60024 0
M  V30 19200 N 1924.49 -1.51463 -0.435524 0
M  V30 19201 C 1925.9 -1.56678 -1.01533 0
M  V30 19202 C 1926.25 -0.391337 -1.92258 0
M  V30 19203 O 1925.37 0.491647 -2.10741 0
M  V30 19204 C 1925.97 -2.83951 -1.84817 0
M  V30 19205 C 1924.53 -2.91731 -2.37844 0
M  V30 19206 C 1923.67 -2.51359 -1.17106 0
M  V30 19207 H 1926.63 -1.57213 -0.216726 0
M  V30 19208 H 1926.65 -2.67815 -2.70287 0
M  V30 19209 H 1926.16 -3.69483 -1.1876 0
M  V30 19210 H 1924.26 -2.10633 -3.07351 0
M  V30 19211 H 1924.37 -3.95421 -2.70517 0
M  V30 19212 H 1922.74 -2.04599 -1.51695 0
M  V30 19213 H 1923.52 -3.39238 -0.526566 0
M  V30 19214 N 1925.96 0.691085 -1.4164 0
M  V30 19215 C 1927.19 1.48481 -1.44804 0
M  V30 19216 C 1927.61 1.88016 -0.0561606 0
M  V30 19217 O 1926.97 1.54927 0.941657 0
M  V30 19218 C 1927.02 2.72083 -2.3665 0
M  V30 19219 O 1926.12 3.6974 -1.82663 0
M  V30 19220 H 1925.47 0.446714 -0.491267 0
M  V30 19221 H 1928 0.849076 -1.8615 0
M  V30 19222 H 1928.01 3.2034 -2.52678 0
M  V30 19223 H 1926.68 2.42645 -3.37781 0
M  V30 19224 H 1925.26 3.28695 -1.76108 0
M  V30 19225 N 1927.44 1.27542 0.925789 0
M  V30 19226 C 1928.69 1.13767 1.67038 0
M  V30 19227 C 1929.01 -0.316603 1.92413 0
M  V30 19228 O 1928.28 -1.22124 1.53175 0
M  V30 19229 H 1926.86 0.41803 0.61908 0
M  V30 19230 H 1929.52 1.60097 1.11153 0
M  V30 19231 H 1928.62 1.66818 2.63777 0
M  V30 19232 N 1928.92 -1.13255 1.09595 0
M  V30 19233 C 1930.17 -1.84571 0.833056 0
M  V30 19234 C 1930.5 -1.83622 -0.641341 0
M  V30 19235 O 1929.75 -1.27084 -1.48823 0
M  V30 19236 C 1930.05 -3.32304 1.31562 0
M  V30 19237 C 1929.72 -3.53433 2.79993 0
M  V30 19238 C 1928.38 -3.58907 3.2053 0
M  V30 19239 C 1930.73 -3.61259 3.75687 0
M  V30 19240 C 1928.06 -3.69744 4.55529 0
M  V30 19241 C 1930.41 -3.73624 5.10478 0
M  V30 19242 C 1929.07 -3.77352 5.50601 0
M  V30 19243 H 1928.34 -0.675393 0.304837 0
M  V30 19244 H 1930.99 -1.33697 1.37103 0
M  V30 19245 H 1929.3 -3.85542 0.697482 0
M  V30 19246 H 1930.99 -3.85935 1.0888 0
M  V30 19247 H 1927.58 -3.49828 2.47625 0
M  V30 19248 H 1931.77 -3.56308 3.45483 0
M  V30 19249 H 1927.02 -3.70897 4.8605 0
M  V30 19250 H 1931.2 -3.78623 5.84481 0
M  V30 19251 H 1928.82 -3.85501 6.55204 0
M  V30 19252 N 1930.4 -0.883401 -1.30514 0
M  V30 19253 C 1931.64 -0.501795 -1.96494 0
M  V30 19254 C 1931.98 0.946294 -1.69585 0
M  V30 19255 O 1931.25 1.66842 -0.999705 0
M  V30 19256 C 1931.54 -0.775405 -3.51653 0
M  V30 19257 C 1931.39 -2.27401 -3.88084 0
M  V30 19258 C 1932.71 -0.250854 -4.39384 0
M  V30 19259 H 1929.83 -0.183786 -0.713717 0
M  V30 19260 H 1932.47 -1.1071 -1.54412 0
M  V30 19261 H 1930.62 -0.260217 -3.87628 0
M  V30 19262 H 1932.29 -2.85748 -3.62141 0
M  V30 19263 H 1930.53 -2.74128 -3.36209 0
M  V30 19264 H 1931.2 -2.41606 -4.96317 0
M  V30 19265 H 1933.68 -0.691785 -4.10309 0
M  V30 19266 H 1932.56 -0.471637 -5.4687 0
M  V30 19267 H 1932.82 0.847835 -4.33894 0
M  V30 19268 N 1931.88 1.43833 -0.644194 0
M  V30 19269 C 1933.12 2.03793 -0.157409 0
M  V30 19270 C 1933.48 1.49666 1.20267 0
M  V30 19271 O 1934.68 2.01212 1.78233 0
M  V30 19272 C 1932.95 3.57053 -0.157514 0
M  V30 19273 S 1934.51 4.38013 0.262743 0
M  V30 19274 H 1931.33 0.707788 -0.0675047 0
M  V30 19275 H 1933.93 1.7603 -0.85051 0
M  V30 19276 H 1932.64 3.9395 -1.15027 0
M  V30 19277 H 1932.17 3.89445 0.556416 0
M  V30 19278 H 1934.18 4.72863 1.50384 0
M  V30 19279 N 1933.35 0.385544 1.52811 0
M  V30 19280 C 1934.63 -0.255227 1.93928 0
M  V30 19281 C 1935.01 -1.64683 1.32071 0
M  V30 19282 O 1934.36 -2.23242 0.487363 0
M  V30 19283 C 1934.57 -0.285363 3.47831 0
M  V30 19284 C 1935.92 -0.516126 4.21451 0
M  V30 19285 O 1936.94 -0.365732 3.54317 0
M  V30 19286 O 1935.8 -0.810503 5.40456 0
M  V30 19287 H 1932.89 -0.157694 0.811826 0
M  V30 19288 H 1935.44 0.439779 1.63903 0
M  V30 19289 H 1934.21 0.68954 3.85177 0
M  V30 19290 H 1933.84 -1.02545 3.84149 0
M  V30 19291 N 1934.83 -1.57178 0.115259 0
M  V30 19292 C 1935.78 -2.16368 -0.853683 0
M  V30 19293 C 1936.77 -1.11189 -1.27802 0
M  V30 19294 O 1937.98 -1.29499 -1.2502 0
M  V30 19295 H 1934.36 -0.692403 -0.293397 0
M  V30 19296 H 1936.33 -2.9657 -0.329954 0
M  V30 19297 C 1935.08 -2.7747 -2.09537 0
M  V30 19298 H 1934.4 -3.581 -1.77777 0
M  V30 19299 H 1935.84 -3.22428 -2.75347 0
M  V30 19300 C 1934.3 -1.74366 -2.88268 0
M  V30 19301 O 1934.83 -1.19476 -3.83521 0
M  V30 19302 N 1933.03 -1.44392 -2.52189 0
M  V30 19303 H 1932.58 -1.89219 -1.74797 0
M  V30 19304 H 1932.54 -0.756482 -3.05163 0
M  V30 19305 N 1936.31 0.158505 -1.56801 0
M  V30 19306 C 1937.55 0.879385 -1.84516 0
M  V30 19307 C 1937.92 1.78864 -0.697973 0
M  V30 19308 O 1939.12 2.5481 -0.855886 0
M  V30 19309 C 1937.39 1.64324 -3.17383 0
M  V30 19310 S 1938.95 2.41113 -3.6662 0
M  V30 19311 H 1935.76 0.29429 -0.647236 0
M  V30 19312 H 1938.37 0.14014 -1.94997 0
M  V30 19313 H 1937.07 0.966538 -3.98856 0
M  V30 19314 H 1936.6 2.42362 -3.09878 0
M  V30 19315 H 1938.62 3.66076 -3.34967 0
M  V30 19316 N 1937.79 1.51692 0.427485 0
M  V30 19317 C 1938.72 1.76668 1.52679 0
M  V30 19318 C 1939.7 0.616865 1.58521 0
M  V30 19319 O 1940.89 0.860595 1.7409 0
M  V30 19320 C 1938.02 1.9007 2.90673 0
M  V30 19321 C 1936.97 3.05566 2.99689 0
M  V30 19322 C 1936.3 3.04165 4.39759 0
M  V30 19323 C 1937.6 4.45359 2.72861 0
M  V30 19324 H 1939.29 2.68717 1.32029 0
M  V30 19325 H 1936.84 1.29306 0.633716 0
M  V30 19326 H 1938.79 2.06125 3.67546 0
M  V30 19327 H 1937.51 0.946769 3.12576 0
M  V30 19328 H 1936.17 2.89231 2.25257 0
M  V30 19329 H 1935.82 2.0653 4.58644 0
M  V30 19330 H 1935.52 3.81727 4.46719 0
M  V30 19331 H 1937.04 3.22326 5.18592 0
M  V30 19332 H 1938.46 4.61993 3.39463 0
M  V30 19333 H 1936.85 5.24701 2.91219 0
M  V30 19334 H 1937.92 4.54717 1.68405 0
M  V30 19335 N 1939.27 -0.683564 1.42004 0
M  V30 19336 C 1940.21 -1.7973 1.44796 0
M  V30 19337 C 1941.18 -1.63352 0.300905 0
M  V30 19338 O 1942.37 -1.84031 0.503707 0
M  V30 19339 C 1939.51 -3.17701 1.34758 0
M  V30 19340 C 1938.62 -3.45428 2.59429 0
M  V30 19341 C 1937.76 -4.73079 2.41598 0
M  V30 19342 C 1936.8 -4.93812 3.61685 0
M  V30 19343 N 1935.93 -6.12698 3.4285 0
M  V30 19344 H 1940.77 -1.76679 2.39976 0
M  V30 19345 H 1938.31 -0.862624 1.19152 0
M  V30 19346 H 1940.27 -3.9742 1.26938 0
M  V30 19347 H 1938.9 -3.19899 0.431785 0
M  V30 19348 H 1937.95 -2.60027 2.77651 0
M  V30 19349 H 1939.26 -3.56645 3.48721 0
M  V30 19350 H 1938.42 -5.60873 2.31314 0
M  V30 19351 H 1937.16 -4.6413 1.49782 0
M  V30 19352 H 1936.16 -4.04463 3.72411 0
M  V30 19353 H 1937.39 -5.04612 4.5447 0
M  V30 19354 H 1935.33 -6.04938 2.53744 0
M  V30 19355 H 1935.25 -6.24736 4.25724 0
M  V30 19356 H 1936.52 -7.03194 3.36361 0
M  V30 19357 N 1940.75 -1.28031 -0.919012 0
M  V30 19358 C 1941.69 -1.11505 -2.02077 0
M  V30 19359 C 1942.66 -0.0136546 -1.66094 0
M  V30 19360 O 1943.85 -0.177608 -1.89972 0
M  V30 19361 C 1940.99 -0.777409 -3.3623 0
M  V30 19362 C 1940.1 -1.95732 -3.85114 0
M  V30 19363 C 1939.24 -1.56077 -5.07753 0
M  V30 19364 C 1938.27 -2.70764 -5.48956 0
M  V30 19365 N 1937.41 -2.31638 -6.62788 0
M  V30 19366 H 1942.25 -2.05778 -2.15545 0
M  V30 19367 H 1939.79 -1.02425 -1.05582 0
M  V30 19368 H 1941.75 -0.562424 -4.13392 0
M  V30 19369 H 1940.38 0.128373 -3.22545 0
M  V30 19370 H 1939.43 -2.28459 -3.04156 0
M  V30 19371 H 1940.74 -2.81735 -4.11615 0
M  V30 19372 H 1939.89 -1.30754 -5.92443 0
M  V30 19373 H 1938.63 -0.671958 -4.83049 0
M  V30 19374 H 1937.64 -2.96792 -4.62812 0
M  V30 19375 H 1938.86 -3.6028 -5.75652 0
M  V30 19376 H 1936.81 -1.4522 -6.39724 0
M  V30 19377 H 1936.73 -3.11178 -6.88988 0
M  V30 19378 H 1937.99 -2.09585 -7.50796 0
M  V30 19379 N 1942.22 1.12672 -1.10194 0
M  V30 19380 C 1943.45 1.87955 -0.864907 0
M  V30 19381 C 1943.87 1.79527 0.584436 0
M  V30 19382 O 1943.22 1.1674 1.40278 0
M  V30 19383 C 1943.27 3.37261 -1.30143 0
M  V30 19384 O 1943 3.45483 -2.69394 0
M  V30 19385 C 1944.5 4.29488 -1.09793 0
M  V30 19386 H 1941.72 0.594777 -0.310614 0
M  V30 19387 H 1944.26 1.42583 -1.46596 0
M  V30 19388 H 1942.42 3.80187 -0.744103 0
M  V30 19389 H 1942.83 4.38357 -2.87999 0
M  V30 19390 H 1944.3 5.32546 -1.45254 0
M  V30 19391 H 1944.78 4.39185 -0.0363527 0
M  V30 19392 H 1945.39 3.92341 -1.6416 0
M  V30 19393 N 1943.7 0.89031 1.30043 0
M  V30 19394 C 1944.95 0.51044 1.95548 0
M  V30 19395 C 1945.27 -0.944562 1.70596 0
M  V30 19396 O 1944.54 -1.66482 1.0325 0
M  V30 19397 H 1943.12 0.185776 0.723531 0
M  V30 19398 H 1945.78 1.13455 1.58474 0
M  V30 19399 H 1944.88 0.685155 3.04487 0
M  V30 19400 N 1945.18 -1.43489 0.651812 0
M  V30 19401 C 1946.6 -1.56374 0.31925 0
M  V30 19402 C 1946.8 -1.63573 -1.1767 0
M  V30 19403 O 1945.85 -1.59003 -1.96149 0
M  V30 19404 C 1947.16 -2.82532 1.02937 0
M  V30 19405 C 1948.71 -2.96274 1.00949 0
M  V30 19406 C 1949.19 -4.25262 1.70047 0
M  V30 19407 N 1950.68 -4.32123 1.66805 0
M  V30 19408 C 1951.41 -5.30693 2.17146 0
M  V30 19409 N 1950.91 -6.3555 2.75769 0
M  V30 19410 N 1952.7 -5.22337 2.07654 0
M  V30 19411 H 1944.85 -1.3706 1.6226 0
M  V30 19412 H 1947.12 -0.658169 0.682289 0
M  V30 19413 H 1946.82 -2.83271 2.08448 0
M  V30 19414 H 1946.7 -3.72713 0.580047 0
M  V30 19415 H 1949.08 -2.95077 -0.0372118 0
M  V30 19416 H 1949.16 -2.07386 1.49749 0
M  V30 19417 H 1948.81 -4.2722 2.74673 0
M  V30 19418 H 1948.74 -5.13044 1.18714 0
M  V30 19419 H 1951.23 -3.56968 1.24024 0
M  V30 19420 H 1951.54 -7.0708 3.11861 0
M  V30 19421 H 1949.89 -6.36177 2.79829 0
M  V30 19422 H 1953.08 -4.39336 1.61561 0
M  V30 19423 H 1953.25 -5.98998 2.47195 0
M  V30 19424 N 1946.66 -0.393643 -1.52605 0
M  V30 19425 C 1948.07 0.0794242 -1.86531 0
M  V30 19426 C 1948.42 1.45778 -1.31313 0
M  V30 19427 O 1947.54 2.06526 -0.646206 0
M  V30 19428 C 1948.14 0.150899 -3.38464 0
M  V30 19429 C 1946.7 0.568268 -3.72086 0
M  V30 19430 C 1945.85 -0.267031 -2.76011 0
M  V30 19431 H 1948.8 -0.611344 -1.46452 0
M  V30 19432 H 1948.82 0.969194 -3.6795 0
M  V30 19433 H 1948.33 -0.852425 -3.78623 0
M  V30 19434 H 1946.43 1.5788 -3.37498 0
M  V30 19435 H 1946.54 0.323405 -4.78007 0
M  V30 19436 H 1944.91 0.268347 -2.53282 0
M  V30 19437 H 1945.69 -1.26841 -3.19008 0
M  V30 19438 N 1948.14 1.57115 -0.123593 0
M  V30 19439 C 1949.55 1.5789 0.232975 0
M  V30 19440 C 1949.75 1.13659 1.66385 0
M  V30 19441 O 1948.81 0.826084 2.38604 0
M  V30 19442 C 1950.12 3.007 -0.0045178 0
M  V30 19443 C 1951.67 3.12941 0.0610235 0
M  V30 19444 C 1952.14 4.57758 -0.148835 0
M  V30 19445 N 1953.63 4.63103 -0.0949606 0
M  V30 19446 C 1954.37 5.7293 -0.232177 0
M  V30 19447 N 1953.87 6.9149 -0.42582 0
M  V30 19448 N 1955.66 5.61839 -0.171428 0
M  V30 19449 H 1947.81 1.84166 -1.05814 0
M  V30 19450 H 1950.07 0.851342 -0.417038 0
M  V30 19451 H 1949.78 3.37364 -0.993901 0
M  V30 19452 H 1949.65 3.70161 0.725327 0
M  V30 19453 H 1952.04 2.76131 1.04094 0
M  V30 19454 H 1952.12 2.46014 -0.700776 0
M  V30 19455 H 1951.76 4.95267 -1.12574 0
M  V30 19456 H 1951.69 5.22782 0.633006 0
M  V30 19457 H 1954.19 3.77866 0.0510058 0
M  V30 19458 H 1954.5 7.7104 -0.521263 0
M  V30 19459 H 1952.84 6.93464 -0.461851 0
M  V30 19460 H 1956.03 4.68095 -0.0210758 0
M  V30 19461 H 1956.21 6.47387 -0.281807 0
M  V30 19462 N 1949.61 -0.150187 1.56883 0
M  V30 19463 C 1950.56 -1.18552 1.98025 0
M  V30 19464 C 1951.53 -1.42861 0.847353 0
M  V30 19465 O 1952.72 -1.55249 1.10917 0
M  V30 19466 C 1949.86 -2.51479 2.36331 0
M  V30 19467 C 1948.97 -2.34371 3.62897 0
M  V30 19468 C 1948.1 -3.60311 3.9032 0
M  V30 19469 C 1947.14 -3.38226 5.10166 0
M  V30 19470 N 1946.28 -4.56289 5.33615 0
M  V30 19471 H 1951.12 -0.827667 2.86276 0
M  V30 19472 H 1948.66 -0.397238 1.41635 0
M  V30 19473 H 1950.61 -3.28981 2.56568 0
M  V30 19474 H 1949.24 -2.85218 1.51164 0
M  V30 19475 H 1948.3 -1.47939 3.50454 0
M  V30 19476 H 1949.61 -2.1401 4.50556 0
M  V30 19477 H 1948.76 -4.46243 4.11038 0
M  V30 19478 H 1947.5 -3.83672 3.01076 0
M  V30 19479 H 1946.51 -2.50682 4.89324 0
M  V30 19480 H 1947.73 -3.16266 6.0096 0
M  V30 19481 H 1945.68 -4.79829 4.47325 0
M  V30 19482 H 1945.59 -4.38919 6.15537 0
M  V30 19483 H 1946.86 -5.43443 5.58829 0
M  V30 19484 N 1951.09 -1.51916 -0.419434 0
M  V30 19485 C 1952 -1.77393 -1.53522 0
M  V30 19486 C 1953.02 -0.65897 -1.61039 0
M  V30 19487 O 1954.19 -0.943237 -1.77947 0
M  V30 19488 C 1951.26 -1.90988 -2.89352 0
M  V30 19489 C 1950.32 -3.14878 -2.91805 0
M  V30 19490 C 1949.55 -3.27815 -4.21157 0
M  V30 19491 O 1949.78 -2.4626 -5.14502 0
M  V30 19492 O 1948.71 -4.20906 -4.30258 0
M  V30 19493 H 1952.54 -2.72079 -1.34932 0
M  V30 19494 H 1950.12 -1.36635 -0.604259 0
M  V30 19495 H 1952 -2.01812 -3.69932 0
M  V30 19496 H 1950.68 -0.994906 -3.08031 0
M  V30 19497 H 1949.59 -3.0952 -2.10115 0
M  V30 19498 H 1950.92 -4.06123 -2.78073 0
M  V30 19499 N 1952.57 0.676023 -1.42365 0
M  V30 19500 C 1953.52 1.81087 -1.4598 0
M  V30 19501 C 1954.51 1.66041 -0.335662 0
M  V30 19502 O 1955.72 1.72665 -0.508618 0
M  V30 19503 H 1952.09 0.597073 -0.457173 0
M  V30 19504 H 1954.06 1.75156 -2.41584 0
M  V30 19505 C 1952.81 3.19233 -1.37789 0
M  V30 19506 H 1952.14 3.31437 -2.23584 0
M  V30 19507 H 1953.58 3.98661 -1.4438 0
M  V30 19508 C 1952.04 3.36773 -0.0925272 0
M  V30 19509 O 1952.57 3.92491 0.855181 0
M  V30 19510 N 1950.77 2.90598 -0.0100772 0
M  V30 19511 H 1950.32 2.45441 -0.782071 0
M  V30 19512 H 1950.28 3.02711 0.849301 0
M  V30 19513 N 1954.05 1.28517 0.912209 0
M  V30 19514 C 1955 1.12575 2.01483 0
M  V30 19515 C 1955.97 0.0224628 1.66085 0
M  V30 19516 O 1957.15 0.18768 1.89875 0
M  V30 19517 C 1954.29 0.795229 3.35813 0
M  V30 19518 C 1953.4 1.97772 3.84071 0
M  V30 19519 C 1952.54 1.58768 5.06918 0
M  V30 19520 C 1951.58 2.73672 5.47513 0
M  V30 19521 N 1950.71 2.3515 6.6155 0
M  V30 19522 H 1955.55 2.06918 2.1445 0
M  V30 19523 H 1953.09 1.02983 1.05037 0
M  V30 19524 H 1955.05 0.584339 4.13088 0
M  V30 19525 H 1953.68 -0.111266 3.22608 0
M  V30 19526 H 1952.73 2.30069 3.0294 0
M  V30 19527 H 1954.04 2.83913 4.10115 0
M  V30 19528 H 1953.2 1.33894 5.91741 0
M  V30 19529 H 1951.94 0.697566 4.82686 0
M  V30 19530 H 1950.94 2.99242 4.61231 0
M  V30 19531 H 1952.17 3.63328 5.73733 0
M  V30 19532 H 1950.11 1.4861 6.38945 0
M  V30 19533 H 1950.03 3.14827 6.87328 0
M  V30 19534 H 1951.3 2.13564 7.49674 0
M  V30 19535 N 1955.53 -1.12086 1.1079 0
M  V30 19536 C 1956.77 -1.83677 0.852585 0
M  V30 19537 C 1957.1 -1.84292 -0.621829 0
M  V30 19538 O 1956.36 -1.28655 -1.47466 0
M  V30 19539 C 1956.66 -3.3089 1.35079 0
M  V30 19540 C 1956.32 -3.50443 2.83726 0
M  V30 19541 C 1954.98 -3.55487 3.24318 0
M  V30 19542 C 1957.34 -3.57254 3.79498 0
M  V30 19543 C 1954.66 -3.64891 4.59425 0
M  V30 19544 C 1957.02 -3.68189 5.14412 0
M  V30 19545 C 1955.68 -3.71491 5.54573 0
M  V30 19546 H 1954.95 -0.672122 0.311983 0
M  V30 19547 H 1957.6 -1.32236 1.38513 0
M  V30 19548 H 1955.9 -3.8478 0.738335 0
M  V30 19549 H 1957.6 -3.84759 1.12967 0
M  V30 19550 H 1954.19 -3.47182 2.51322 0
M  V30 19551 H 1958.37 -3.52624 3.49242 0
M  V30 19552 H 1953.63 -3.65721 4.89957 0
M  V30 19553 H 1957.8 -3.72402 5.88464 0
M  V30 19554 H 1955.43 -3.7853 6.59256 0
M  V30 19555 N 1957 -0.897194 -1.29569 0
M  V30 19556 C 1958.23 -0.536465 -2.00342 0
M  V30 19557 C 1958.65 0.87088 -1.66725 0
M  V30 19558 O 1958.01 1.57924 -0.890492 0
M  V30 19559 C 1958.06 -0.732781 -3.53076 0
M  V30 19560 O 1957.16 0.215848 -4.11835 0
M  V30 19561 H 1956.51 -0.209904 -0.62995 0
M  V30 19562 H 1959.04 -1.20809 -1.65125 0
M  V30 19563 H 1959.05 -0.636468 -4.03005 0
M  V30 19564 H 1957.72 -1.75882 -3.7688 0
M  V30 19565 H 1956.3 0.0722012 -3.7283 0
M  V30 19566 N 1958.48 1.43142 -0.659413 0
M  V30 19567 C 1959.45 2.29192 0.0190393 0
M  V30 19568 C 1960.45 1.42532 0.744404 0
M  V30 19569 O 1961.64 1.64093 0.584722 0
M  V30 19570 C 1958.77 3.24723 1.03769 0
M  V30 19571 H 1959.96 2.90674 -0.738166 0
M  V30 19572 H 1957.51 1.50525 -0.420956 0
M  V30 19573 H 1958.25 2.68149 1.82392 0
M  V30 19574 H 1958.03 3.88621 0.52115 0
M  V30 19575 H 1959.52 3.89294 1.5113 0
M  V30 19576 N 1959.96 0.40173 1.52394 0
M  V30 19577 C 1960.91 -0.427385 2.26808 0
M  V30 19578 C 1961.88 -1.04733 1.28919 0
M  V30 19579 O 1963.06 -1.073 1.5777 0
M  V30 19580 C 1960.2 -1.54211 3.08728 0
M  V30 19581 C 1959.32 -0.943809 4.21564 0
M  V30 19582 C 1958.45 -2.03061 4.90856 0
M  V30 19583 C 1957.49 -1.40886 5.95666 0
M  V30 19584 N 1956.63 -2.4355 6.58504 0
M  V30 19585 H 1961.47 0.21363 2.97233 0
M  V30 19586 H 1959 0.117187 1.46632 0
M  V30 19587 H 1960.96 -2.1993 3.54523 0
M  V30 19588 H 1959.59 -2.15326 2.40488 0
M  V30 19589 H 1958.64 -0.175875 3.79993 0
M  V30 19590 H 1959.96 -0.449559 4.9677 0
M  V30 19591 H 1959.11 -2.76523 5.40018 0
M  V30 19592 H 1957.85 -2.5585 4.15201 0
M  V30 19593 H 1956.85 -0.659546 5.4583 0
M  V30 19594 H 1958.08 -0.888766 6.73259 0
M  V30 19595 H 1956.02 -2.95484 5.85683 0
M  V30 19596 H 1955.94 -1.98916 7.29362 0
M  V30 19597 H 1957.21 -3.16604 7.12308 0
M  V30 19598 N 1961.44 -1.57047 0.131923 0
M  V30 19599 C 1962.85 -1.58012 -0.224598 0
M  V30 19600 C 1963.05 -1.1454 -1.6578 0
M  V30 19601 O 1962.11 -0.838726 -2.38163 0
M  V30 19602 C 1963.42 -3.00693 0.0204646 0
M  V30 19603 C 1964.97 -3.12968 -0.0444267 0
M  V30 19604 C 1965.45 -4.57673 0.173109 0
M  V30 19605 N 1966.94 -4.63046 0.119519 0
M  V30 19606 C 1967.67 -5.72799 0.262558 0
M  V30 19607 N 1967.17 -6.91255 0.462486 0
M  V30 19608 N 1968.96 -5.6174 0.201221 0
M  V30 19609 H 1961.11 -1.83602 1.06789 0
M  V30 19610 H 1963.38 -0.849118 0.421547 0
M  V30 19611 H 1963.08 -3.36832 1.01178 0
M  V30 19612 H 1962.96 -3.7054 -0.705686 0
M  V30 19613 H 1965.34 -2.7668 -1.02628 0
M  V30 19614 H 1965.42 -2.45639 0.713812 0
M  V30 19615 H 1965.07 -4.94663 1.15199 0
M  V30 19616 H 1965 -5.2311 -0.605272 0
M  V30 19617 H 1967.49 -3.77887 -0.0309659 0
M  V30 19618 H 1967.8 -7.70753 0.562145 0
M  V30 19619 H 1966.15 -6.93209 0.498621 0
M  V30 19620 H 1969.34 -4.68077 0.0458997 0
M  V30 19621 H 1969.51 -6.47228 0.316135 0
M  V30 19622 N 1962.92 0.141865 -1.5696 0
M  V30 19623 C 1963.85 1.17667 -2.01685 0
M  V30 19624 C 1964.83 1.44509 -0.897282 0
M  V30 19625 O 1966.01 1.55342 -1.16544 0
M  V30 19626 C 1963.14 2.50859 -2.40182 0
M  V30 19627 C 1962.1 2.38527 -3.55371 0
M  V30 19628 C 1961.42 3.76476 -3.79697 0
M  V30 19629 C 1962.72 1.86502 -4.87867 0
M  V30 19630 H 1964.42 0.804761 -2.88382 0
M  V30 19631 H 1961.96 0.385672 -1.38739 0
M  V30 19632 H 1963.92 3.2348 -2.70071 0
M  V30 19633 H 1962.64 2.89895 -1.50428 0
M  V30 19634 H 1961.3 1.68357 -3.25656 0
M  V30 19635 H 1960.95 4.12957 -2.87186 0
M  V30 19636 H 1960.65 3.69085 -4.5722 0
M  V30 19637 H 1962.17 4.50638 -4.12017 0
M  V30 19638 H 1963.58 2.48921 -5.16441 0
M  V30 19639 H 1961.98 1.89989 -5.69231 0
M  V30 19640 H 1963.05 0.821025 -4.77899 0
M  V30 19641 N 1964.39 1.52136 0.411372 0
M  V30 19642 C 1965.33 1.71544 1.52005 0
M  V30 19643 C 1966.34 0.595859 1.51504 0
M  V30 19644 O 1967.53 0.870952 1.5581 0
M  V30 19645 C 1964.63 1.73867 2.90901 0
M  V30 19646 C 1963.8 3.02826 3.15619 0
M  V30 19647 C 1962.86 2.96991 4.34376 0
M  V30 19648 O 1961.89 3.70901 4.31765 0
M  V30 19649 N 1963.09 2.14626 5.39366 0
M  V30 19650 H 1965.85 2.67192 1.35752 0
M  V30 19651 H 1963.41 1.50346 0.600643 0
M  V30 19652 H 1965.41 1.67498 3.68411 0
M  V30 19653 H 1963.98 0.85702 3.00623 0
M  V30 19654 H 1963.2 3.22861 2.26174 0
M  V30 19655 H 1964.48 3.8814 3.28976 0
M  V30 19656 H 1963.88 1.54003 5.44334 0
M  V30 19657 H 1962.44 2.14116 6.15628 0
M  V30 19658 N 1965.87 -0.668464 1.42721 0
M  V30 19659 C 1967.1 -1.45659 1.46939 0
M  V30 19660 C 1967.52 -1.88619 0.0826133 0
M  V30 19661 O 1966.87 -1.58537 -0.904 0
M  V30 19662 C 1966.92 -2.70158 2.40202 0
M  V30 19663 O 1966.65 -2.28999 3.73485 0
M  V30 19664 C 1968.15 -3.63662 2.53505 0
M  V30 19665 H 1965.37 -0.447982 0.499553 0
M  V30 19666 H 1967.91 -0.820826 1.87304 0
M  V30 19667 H 1966.07 -3.29909 2.03074 0
M  V30 19668 H 1966.48 -3.09441 4.23493 0
M  V30 19669 H 1967.95 -4.47726 3.22871 0
M  V30 19670 H 1968.43 -4.09989 1.57498 0
M  V30 19671 H 1969.04 -3.09801 2.91382 0
M  V30 19672 N 1967.35 -1.28999 -0.905381 0
M  V30 19673 C 1968.58 -1.19512 -1.68892 0
M  V30 19674 C 1968.99 0.245073 -1.87203 0
M  V30 19675 O 1968.35 1.16474 -1.405 0
M  V30 19676 C 1968.4 -1.89822 -3.07652 0
M  V30 19677 O 1968.12 -3.28217 -2.90181 0
M  V30 19678 C 1969.62 -1.86742 -4.02048 0
M  V30 19679 H 1966.84 -0.414483 -0.527678 0
M  V30 19680 H 1969.39 -1.70271 -1.1326 0
M  V30 19681 H 1967.54 -1.42913 -3.60076 0
M  V30 19682 H 1967.96 -3.63549 -3.78064 0
M  V30 19683 H 1969.43 -2.40512 -4.96848 0
M  V30 19684 H 1969.91 -0.841659 -4.3106 0
M  V30 19685 H 1970.51 -2.33369 -3.55555 0
M  V30 19686 N 1968.83 1.11497 -1.11383 0
M  V30 19687 C 1970.25 1.35232 -0.847616 0
M  V30 19688 C 1970.45 1.9446 0.527973 0
M  V30 19689 O 1969.5 2.17716 1.2789 0
M  V30 19690 C 1970.81 2.28454 -1.95523 0
M  V30 19691 C 1972.36 2.4202 -1.98483 0
M  V30 19692 C 1972.84 3.38563 -3.08446 0
M  V30 19693 N 1974.33 3.46126 -3.07817 0
M  V30 19694 C 1975.06 4.20766 -3.89542 0
M  V30 19695 N 1974.56 4.98388 -4.81229 0
M  V30 19696 N 1976.35 4.16272 -3.77722 0
M  V30 19697 H 1968.5 0.714156 -2.00034 0
M  V30 19698 H 1970.77 0.376936 -0.869841 0
M  V30 19699 H 1970.47 1.92126 -2.94586 0
M  V30 19700 H 1970.35 3.28667 -1.85089 0
M  V30 19701 H 1972.73 2.77623 -1.00047 0
M  V30 19702 H 1972.81 1.4166 -2.12993 0
M  V30 19703 H 1972.46 3.03687 -4.07107 0
M  V30 19704 H 1972.39 4.38776 -2.91176 0
M  V30 19705 H 1974.88 2.90759 -2.41387 0
M  V30 19706 H 1975.19 5.52708 -5.40124 0
M  V30 19707 H 1973.54 4.97551 -4.85251 0
M  V30 19708 H 1976.73 3.54719 -3.05437 0
M  V30 19709 H 1976.9 4.74186 -4.41647 0
M  V30 19710 N 1970.31 0.904053 1.29092 0
M  V30 19711 C 1971.24 0.401805 2.30017 0
M  V30 19712 C 1972.22 -0.525477 1.6178 0
M  V30 19713 O 1973.4 -0.435279 1.89259 0
M  V30 19714 C 1970.53 -0.367656 3.45348 0
M  V30 19715 C 1969.49 0.469596 4.25416 0
M  V30 19716 C 1968.81 -0.427624 5.32987 0
M  V30 19717 C 1970.11 1.7218 4.93104 0
M  V30 19718 H 1971.81 1.24523 2.72276 0
M  V30 19719 H 1969.35 0.600215 1.30895 0
M  V30 19720 H 1971.31 -0.729791 4.15033 0
M  V30 19721 H 1970.03 -1.2449 3.01944 0
M  V30 19722 H 1968.69 0.814119 3.57446 0
M  V30 19723 H 1968.34 -1.30313 4.85827 0
M  V30 19724 H 1968.04 0.128909 5.87459 0
M  V30 19725 H 1969.56 -0.785855 6.05522 0
M  V30 19726 H 1970.98 1.42914 5.55201 0
M  V30 19727 H 1969.37 2.21999 5.57527 0
M  V30 19728 H 1970.44 2.45526 4.18145 0
M  V30 19729 N 1971.79 -1.4279 0.666995 0
M  V30 19730 C 1973.03 -2.01245 0.185662 0
M  V30 19731 C 1973.35 -1.52966 -1.2094 0
M  V30 19732 O 1972.62 -0.748036 -1.81056 0
M  V30 19733 H 1971.2 -0.74411 0.0656484 0
M  V30 19734 H 1973.87 -1.74814 0.861754 0
M  V30 19735 H 1972.96 -3.11575 0.180905 0
M  V30 19736 N 1973.26 -0.409806 -1.52179 0
M  V30 19737 C 1974.21 0.430025 -2.2859 0
M  V30 19738 C 1975.21 1.04523 -1.33309 0
M  V30 19739 O 1976.41 0.98335 -1.50765 0
M  V30 19740 H 1972.79 0.157459 -0.73533 0
M  V30 19741 H 1974.76 -0.235647 -2.97468 0
M  V30 19742 C 1973.51 1.53409 -3.12027 0
M  V30 19743 H 1972.83 1.07004 -3.85214 0
M  V30 19744 H 1974.27 2.09553 -3.68597 0
M  V30 19745 C 1972.73 2.50183 -2.25633 0
M  V30 19746 O 1973.26 3.54083 -1.89705 0
M  V30 19747 N 1971.46 2.20409 -1.8939 0
M  V30 19748 H 1971.01 1.35948 -2.18806 0
M  V30 19749 H 1970.97 2.85404 -1.31878 0
M  V30 19750 N 1974.74 1.56975 -0.14025 0
M  V30 19751 C 1975.69 2.12989 0.813612 0
M  V30 19752 C 1976.68 1.05599 1.21399 0
M  V30 19753 O 1977.87 1.31791 1.18153 0
M  V30 19754 C 1975 2.74971 2.05538 0
M  V30 19755 C 1974.08 3.89475 1.6784 0
M  V30 19756 N 1974.47 4.95628 1.00929 0
M  V30 19757 C 1972.77 4.00056 1.97158 0
M  V30 19758 C 1973.47 5.75772 0.828372 0
M  V30 19759 N 1972.45 5.2631 1.36011 0
M  V30 19760 H 1976.25 2.92435 0.293092 0
M  V30 19761 H 1973.76 1.62283 0.0615203 0
M  V30 19762 H 1975.76 3.13458 2.74863 0
M  V30 19763 H 1974.42 1.96996 2.58114 0
M  V30 19764 H 1975.43 5.13537 0.670816 0
M  V30 19765 H 1972.11 3.33149 2.51631 0
M  V30 19766 H 1973.5 6.71223 0.301522 0
M  V30 19767 N 1976.22 -0.133539 1.57033 0
M  V30 19768 C 1977.15 -1.16595 2.02306 0
M  V30 19769 C 1978.13 -1.44031 0.904933 0
M  V30 19770 O 1979.32 -1.54721 1.17367 0
M  V30 19771 C 1976.45 -2.49581 2.41509 0
M  V30 19772 C 1975.4 -2.36639 3.56631 0
M  V30 19773 C 1974.73 -3.74457 3.81688 0
M  V30 19774 C 1976.03 -1.83912 4.88849 0
M  V30 19775 H 1977.72 -0.789456 2.88804 0
M  V30 19776 H 1975.27 -0.378309 1.38942 0
M  V30 19777 H 1977.22 -3.22043 2.71783 0
M  V30 19778 H 1975.94 -2.89093 1.51964 0
M  V30 19779 H 1974.6 -1.66628 3.26544 0
M  V30 19780 H 1974.25 -4.11428 2.89372 0
M  V30 19781 H 1973.95 -3.66655 4.59171 0
M  V30 19782 H 1975.47 -4.48446 4.14401 0
M  V30 19783 H 1976.89 -2.46178 5.17754 0
M  V30 19784 H 1975.28 -1.86967 5.70231 0
M  V30 19785 H 1976.35 -0.795669 4.78327 0
M  V30 19786 N 1977.7 -1.52352 -0.403298 0
M  V30 19787 C 1978.61 -1.79011 -1.51631 0
M  V30 19788 C 1979.62 -0.676014 -1.60331 0
M  V30 19789 O 1980.8 -0.962058 -1.76936 0
M  V30 19790 C 1977.86 -1.94046 -2.8731 0
M  V30 19791 C 1976.93 -3.17955 -2.88449 0
M  V30 19792 C 1976.16 -3.32264 -4.17656 0
M  V30 19793 O 1976.38 -2.51703 -5.11861 0
M  V30 19794 O 1975.32 -4.25446 -4.25769 0
M  V30 19795 H 1979.14 -2.73495 -1.32038 0
M  V30 19796 H 1976.73 -1.37268 -0.589733 0
M  V30 19797 H 1978.61 -2.05724 -3.67771 0
M  V30 19798 H 1977.28 -1.02752 -3.06959 0
M  V30 19799 H 1976.19 -3.11731 -2.0682 0
M  V30 19800 H 1977.52 -4.0905 -2.7375 0
M  V30 19801 N 1979.18 0.660885 -1.43074 0
M  V30 19802 C 1980.45 1.41768 -1.34764 0
M  V30 19803 C 1980.83 2.11098 0.00828719 0
M  V30 19804 O 1980.18 2.04246 1.02449 0
M  V30 19805 C 1980.39 2.40869 -2.52553 0
M  V30 19806 C 1981.74 3.05098 -2.95297 0
M  V30 19807 O 1982.76 2.51196 -2.52545 0
M  V30 19808 O 1981.62 4.02808 -3.69335 0
M  V30 19809 H 1978.72 0.633017 -0.532182 0
M  V30 19810 H 1981.26 0.688438 -1.55108 0
M  V30 19811 H 1980.03 1.88533 -3.42886 0
M  V30 19812 H 1979.66 3.21254 -2.34268 0
M  V30 19813 N 1980.65 1.29477 0.898527 0
M  V30 19814 C 1982.07 1.07514 1.17953 0
M  V30 19815 C 1982.27 -0.172814 2.00758 0
M  V30 19816 O 1981.33 -0.87025 2.37029 0
M  V30 19817 C 1982.64 2.33121 1.89934 0
M  V30 19818 C 1984.19 2.38452 2.02755 0
M  V30 19819 C 1984.66 3.63866 2.78146 0
M  V30 19820 N 1986.15 3.64595 2.857 0
M  V30 19821 C 1986.89 4.58319 3.44574 0
M  V30 19822 N 1986.38 5.62376 4.04605 0
M  V30 19823 N 1988.18 4.45887 3.42259 0
M  V30 19824 H 1980.33 2.09562 0.346076 0
M  V30 19825 H 1982.59 0.923108 0.215814 0
M  V30 19826 H 1982.3 3.2412 1.36526 0
M  V30 19827 H 1982.17 2.40721 2.90402 0
M  V30 19828 H 1984.56 1.47941 2.55338 0
M  V30 19829 H 1984.64 2.34837 1.01416 0
M  V30 19830 H 1984.28 4.54729 2.26239 0
M  V30 19831 H 1984.21 3.6474 3.79832 0
M  V30 19832 H 1986.7 2.89358 2.43064 0
M  V30 19833 H 1987.02 6.30012 4.47555 0
M  V30 19834 H 1985.36 5.66184 4.03064 0
M  V30 19835 H 1988.55 3.63786 2.9458 0
M  V30 19836 H 1988.73 5.19113 3.87848 0
M  V30 19837 N 1982.13 -1.10905 1.11972 0
M  V30 19838 C 1983.38 -1.83033 0.873311 0
M  V30 19839 C 1983.71 -1.84716 -0.599472 0
M  V30 19840 O 1982.99 -1.30427 -1.44288 0
M  V30 19841 C 1983.27 -3.29941 1.44261 0
M  V30 19842 C 1983.12 -3.36619 2.98341 0
M  V30 19843 C 1984.44 -4.26179 1.09815 0
M  V30 19844 H 1981.56 -0.664529 0.318701 0
M  V30 19845 H 1984.2 -1.30012 1.38553 0
M  V30 19846 H 1982.35 -3.75223 1.00697 0
M  V30 19847 H 1984.02 -2.99854 3.5055 0
M  V30 19848 H 1982.27 -2.76668 3.34122 0
M  V30 19849 H 1982.94 -4.40043 3.33266 0
M  V30 19850 H 1985.41 -3.89105 1.47433 0
M  V30 19851 H 1984.29 -5.27343 1.52318 0
M  V30 19852 H 1984.55 -4.42099 0.00966838 0
M  V30 19853 N 1983.61 -0.910886 -1.2861 0
M  V30 19854 C 1984.56 -0.387197 -2.29355 0
M  V30 19855 C 1985.55 0.519603 -1.61234 0
M  V30 19856 O 1986.76 0.401165 -1.75473 0
M  V30 19857 H 1983.13 -0.106607 -0.744405 0
M  V30 19858 H 1985.1 -1.25002 -2.70956 0
M  V30 19859 C 1983.85 0.360115 -3.4583 0
M  V30 19860 H 1983.18 -0.328438 -3.98449 0
M  V30 19861 H 1984.62 0.69123 -4.18328 0
M  V30 19862 C 1983.08 1.56695 -2.98242 0
M  V30 19863 O 1983.61 2.66609 -3.00471 0
M  V30 19864 N 1981.81 1.41295 -2.53937 0
M  V30 19865 H 1981.36 0.51873 -2.52323 0
M  V30 19866 H 1981.32 2.22172 -2.22457 0
M  V30 19867 N 1985.09 1.42434 -0.674558 0
M  V30 19868 C 1986.04 2.308 0.00392457 0
M  V30 19869 C 1987.01 1.45949 0.792972 0
M  V30 19870 O 1988.19 1.74781 0.765269 0
M  V30 19871 C 1985.33 3.31784 0.949392 0
M  V30 19872 C 1984.44 4.31725 0.154193 0
M  V30 19873 C 1983.58 5.19783 1.09539 0
M  V30 19874 C 1982.62 6.11404 0.291864 0
M  V30 19875 N 1981.75 6.92015 1.18576 0
M  V30 19876 H 1986.59 2.88266 -0.755438 0
M  V30 19877 H 1984.13 1.41992 -0.384274 0
M  V30 19878 H 1986.09 3.88861 1.51138 0
M  V30 19879 H 1984.72 2.75918 1.67539 0
M  V30 19880 H 1983.77 3.76768 -0.524416 0
M  V30 19881 H 1985.08 4.96584 -0.469669 0
M  V30 19882 H 1984.24 5.81592 1.72732 0
M  V30 19883 H 1982.98 4.551 1.75314 0
M  V30 19884 H 1981.98 5.48664 -0.353276 0
M  V30 19885 H 1983.21 6.78136 -0.361786 0
M  V30 19886 H 1981.15 6.29961 1.82991 0
M  V30 19887 H 1981.07 7.53478 0.616968 0
M  V30 19888 H 1982.34 7.5831 1.80516 0
M  V30 19889 N 1986.57 0.417871 1.51959 0
M  V30 19890 C 1987.81 -0.155052 2.01906 0
M  V30 19891 C 1988.14 -1.44397 1.30307 0
M  V30 19892 O 1987.4 -1.91556 0.400588 0
M  V30 19893 C 1987.7 -0.440779 3.54672 0
M  V30 19894 C 1987.36 0.759981 4.44449 0
M  V30 19895 C 1986.02 1.08932 4.68708 0
M  V30 19896 C 1988.38 1.56193 4.97246 0
M  V30 19897 C 1985.7 2.22164 5.4301 0
M  V30 19898 C 1988.06 2.68508 5.72788 0
M  V30 19899 C 1986.72 3.01918 5.95316 0
M  V30 19900 H 1985.99 -0.0567377 0.738825 0
M  V30 19901 H 1988.64 0.561082 1.83096 0
M  V30 19902 H 1986.94 -1.23858 3.71707 0
M  V30 19903 H 1988.64 -0.897174 3.90835 0
M  V30 19904 H 1985.23 0.49332 4.25751 0
M  V30 19905 H 1989.41 1.32071 4.78405 0
M  V30 19906 H 1984.67 2.48387 5.58672 0
M  V30 19907 H 1988.84 3.3103 6.12692 0
M  V30 19908 H 1986.47 3.89774 6.52672 0
M  V30 19909 N 1988.04 -1.56898 0.148573 0
M  V30 19910 C 1988.97 -2.19852 -0.786585 0
M  V30 19911 C 1989.96 -1.14723 -1.2559 0
M  V30 19912 O 1991.14 -1.43071 -1.31317 0
M  V30 19913 C 1988.27 -2.82137 -2.02524 0
M  V30 19914 C 1987.22 -3.93108 -1.69264 0
M  V30 19915 C 1986.55 -4.42335 -3.00407 0
M  V30 19916 C 1987.85 -5.13807 -0.938092 0
M  V30 19917 H 1989.54 -2.98252 -0.261903 0
M  V30 19918 H 1987.09 -1.43461 -0.124531 0
M  V30 19919 H 1989.04 -3.24845 -2.68428 0
M  V30 19920 H 1987.77 -2.01071 -2.57368 0
M  V30 19921 H 1986.43 -3.5102 -1.05739 0
M  V30 19922 H 1986.07 -3.58089 -3.53244 0
M  V30 19923 H 1985.77 -5.17185 -2.78915 0
M  V30 19924 H 1987.3 -4.87714 -3.67378 0
M  V30 19925 H 1988.71 -5.53349 -1.49924 0
M  V30 19926 H 1987.11 -5.94429 -0.823062 0
M  V30 19927 H 1988.18 -4.8485 0.0698825 0
M  V30 19928 N 1989.52 0.125209 -1.57102 0
M  V30 19929 C 1990.94 0.478555 -1.52256 0
M  V30 19930 C 1991.14 1.82199 -0.860573 0
M  V30 19931 O 1990.19 2.48632 -0.440282 0
M  V30 19932 C 1991.51 0.46877 -2.97024 0
M  V30 19933 C 1993.06 0.552759 -3.0808 0
M  V30 19934 C 1993.53 0.573425 -4.54396 0
M  V30 19935 N 1995.02 0.635039 -4.58826 0
M  V30 19936 C 1995.76 0.672375 -5.69444 0
M  V30 19937 N 1995.25 0.667732 -6.89575 0
M  V30 19938 N 1997.05 0.714913 -5.57535 0
M  V30 19939 H 1989.2 -0.755121 -1.98524 0
M  V30 19940 H 1991.46 -0.27786 -0.906365 0
M  V30 19941 H 1991.17 -0.450582 -3.48802 0
M  V30 19942 H 1991.04 1.29884 -3.54133 0
M  V30 19943 H 1993.43 1.46253 -2.56308 0
M  V30 19944 H 1993.51 -0.304874 -2.53977 0
M  V30 19945 H 1993.15 -0.332277 -5.06812 0
M  V30 19946 H 1993.08 1.44786 -5.06305 0
M  V30 19947 H 1995.57 0.645043 -3.72354 0
M  V30 19948 H 1995.89 0.698672 -7.69635 0
M  V30 19949 H 1994.23 0.635256 -6.92091 0
M  V30 19950 H 1997.42 0.715861 -4.62594 0
M  V30 19951 H 1997.59 0.740542 -6.43755 0
M  V30 19952 N 1991 1.52564 0.395213 0
M  V30 19953 C 1992.42 1.41677 0.73484 0
M  V30 19954 C 1992.62 0.53226 1.94343 0
M  V30 19955 O 1991.67 0.00333606 2.525 0
M  V30 19956 C 1992.99 2.84429 0.975749 0
M  V30 19957 C 1994.53 2.93865 1.07761 0
M  V30 19958 C 1995.01 4.37615 1.35119 0
M  V30 19959 N 1996.5 4.40912 1.41954 0
M  V30 19960 C 1997.23 5.49215 1.64775 0
M  V30 19961 N 1996.73 6.67613 1.85109 0
M  V30 19962 N 1998.52 5.36749 1.66904 0
M  V30 19963 H 1990.67 2.08597 -0.400145 0
M  V30 19964 H 1992.94 0.940777 -0.116804 0
M  V30 19965 H 1992.64 3.51336 0.159881 0
M  V30 19966 H 1992.52 3.2631 1.89213 0
M  V30 19967 H 1994.9 2.27129 1.88405 0
M  V30 19968 H 1994.99 2.55421 0.139278 0
M  V30 19969 H 1994.63 5.04915 0.549865 0
M  V30 19970 H 1994.56 4.73607 2.30226 0
M  V30 19971 H 1997.05 3.55572 1.27973 0
M  V30 19972 H 1997.36 7.4593 2.02012 0
M  V30 19973 H 1995.71 6.70653 1.82346 0
M  V30 19974 H 1998.9 4.43224 1.50566 0
M  V30 19975 H 1999.07 6.21224 1.8435 0
M  V30 19976 N 1992.48 -0.653289 1.43422 0
M  V30 19977 C 1993.41 -1.77877 1.44543 0
M  V30 19978 C 1994.42 -1.59177 0.341566 0
M  V30 19979 O 1995.61 -1.67899 0.605995 0
M  V30 19980 C 1992.71 -3.15302 1.24249 0
M  V30 19981 C 1991.89 -3.60661 2.47472 0
M  V30 19982 C 1990.94 -4.76889 2.22403 0
M  V30 19983 O 1989.97 -4.86332 2.95754 0
M  V30 19984 N 1991.17 -5.67088 1.24062 0
M  V30 19985 H 1993.94 -1.77394 2.41561 0
M  V30 19986 H 1991.5 -0.837129 1.38578 0
M  V30 19987 H 1993.49 -3.90744 1.05361 0
M  V30 19988 H 1992.06 -3.10557 0.356765 0
M  V30 19989 H 1991.28 -2.75664 2.81785 0
M  V30 19990 H 1992.57 -3.87713 3.29478 0
M  V30 19991 H 1991.97 -5.62132 0.634383 0
M  V30 19992 H 1990.52 -6.42252 1.11158 0
M  V30 19993 N 1993.96 -1.29952 -0.891648 0
M  V30 19994 C 1994.9 -1.15662 -2.01805 0
M  V30 19995 C 1995.9 -0.0701689 -1.69255 0
M  V30 19996 O 1997.1 -0.230546 -1.78517 0
M  V30 19997 H 1993.48 -0.357511 -0.661581 0
M  V30 19998 H 1995.45 -2.11008 -2.10993 0
M  V30 19999 C 1994.2 -0.858316 -3.36939 0
M  V30 20000 H 1993.52 -1.68637 -3.62494 0
M  V30 20001 H 1994.96 -0.798404 -4.16415 0
M  V30 20002 C 1993.42 0.438629 -3.34032 0
M  V30 20003 O 1993.95 1.46221 -3.74142 0
M  V30 20004 N 1992.16 0.447383 -2.87136 0
M  V30 20005 H 1991.7 -0.386058 -2.54691 0
M  V30 20006 H 1991.66 1.31512 -2.85573 0
M  V30 20007 N 1995.44 1.1031 -1.12559 0
M  V30 20008 C 1996.39 2.14835 -0.763553 0
M  V30 20009 C 1997.37 1.59129 0.238075 0
M  V30 20010 O 1998.56 1.76947 0.043378 0
M  V30 20011 C 1995.69 3.42586 -0.221241 0
M  V30 20012 C 1994.78 4.05222 -1.25124 0
M  V30 20013 N 1995.17 4.42543 -2.44927 0
M  V30 20014 C 1993.47 4.32301 -1.0969 0
M  V30 20015 C 1994.17 4.91767 -3.10709 0
M  V30 20016 N 1993.14 4.88655 -2.38154 0
M  V30 20017 H 1996.94 2.41484 -1.67519 0
M  V30 20018 H 1994.46 1.27445 -1.00656 0
M  V30 20019 H 1996.46 4.16862 0.0563207 0
M  V30 20020 H 1995.12 3.17396 0.684837 0
M  V30 20021 H 1996.13 4.34197 -2.82299 0
M  V30 20022 H 1992.8 4.16761 -0.248225 0
M  V30 20023 H 1994.19 5.30181 -4.12744 0
M  V30 20024 N 1996.91 0.917694 1.28125 0
M  V30 20025 C 1998.32 0.598885 1.76834 0
M  V30 20026 C 1998.68 -0.885857 1.75063 0
M  V30 20027 O 1997.8 -1.69304 1.34778 0
M  V30 20028 C 1998.4 1.08036 3.21113 0
M  V30 20029 C 1996.95 0.812402 3.67528 0
M  V30 20030 C 1996.1 1.24483 2.47789 0
M  V30 20031 H 1999.05 1.09854 1.14533 0
M  V30 20032 H 1999.07 0.423555 3.78135 0
M  V30 20033 H 1998.59 2.161 3.2237 0
M  V30 20034 H 1996.69 -0.254859 3.71727 0
M  V30 20035 H 1996.8 1.42291 4.57482 0
M  V30 20036 H 1995.16 0.663509 2.45906 0
M  V30 20037 H 1995.95 2.3339 2.51762 0
M  V30 20038 N 1998.39 -1.42074 0.682102 0
M  V30 20039 C 1999.3 -2.34598 0.00845226 0
M  V30 20040 C 2000.32 -1.55494 -0.780873 0
M  V30 20041 O 2001.49 -1.88032 -0.721524 0
M  V30 20042 C 1998.56 -3.34103 -0.926085 0
M  V30 20043 C 1997.62 -4.29102 -0.130475 0
M  V30 20044 C 1996.85 -5.23853 -1.0205 0
M  V30 20045 O 1997.08 -5.23716 -2.26004 0
M  V30 20046 O 1996.01 -6.00004 -0.47739 0
M  V30 20047 H 1999.84 -2.93756 0.770779 0
M  V30 20048 H 1997.42 -1.42701 0.442368 0
M  V30 20049 H 1999.3 -3.95212 -1.46236 0
M  V30 20050 H 1997.98 -2.77408 -1.66814 0
M  V30 20051 H 1996.88 -3.71383 0.450082 0
M  V30 20052 H 1998.22 -4.88858 0.57262 0
M  V30 20053 N 1999.87 -0.425924 -1.51735 0
M  V30 20054 C 2000.83 0.379497 -2.26036 0
M  V30 20055 C 2001.83 0.95944 -1.2904 0
M  V30 20056 O 2003.02 0.83568 -1.52846 0
M  V30 20057 C 2000.15 1.5358 -3.04345 0
M  V30 20058 H 2001.35 -0.271515 -2.98668 0
M  V30 20059 H 1998.9 -0.17882 -1.55274 0
M  V30 20060 H 1999.64 2.2232 -2.36103 0
M  V30 20061 H 1999.42 1.12626 -3.75577 0
M  V30 20062 H 2000.91 2.10513 -3.60658 0
M  V30 20063 N 2001.35 1.56817 -0.156891 0
M  V30 20064 C 2002.6 1.96051 0.490764 0
M  V30 20065 C 2002.92 1.04326 1.64746 0
M  V30 20066 O 2002.19 0.106736 1.95609 0
M  V30 20067 H 2000.77 0.72391 0.184293 0
M  V30 20068 H 2003.43 1.93482 -0.234704 0
M  V30 20069 H 2002.52 3.00007 0.86036 0
M  V30 20070 N 2002.83 -0.116876 1.57166 0
M  V30 20071 C 2003.74 -1.16207 2.03797 0
M  V30 20072 C 2004.75 -1.45203 0.958749 0
M  V30 20073 O 2005.93 -1.56277 1.27041 0
M  V30 20074 C 2002.99 -2.46823 2.43474 0
M  V30 20075 C 2002.05 -2.25205 3.65488 0
M  V30 20076 C 2001.29 -3.49592 4.03263 0
M  V30 20077 O 2001.51 -4.56981 3.41357 0
M  V30 20078 O 2000.44 -3.40468 4.96352 0
M  V30 20079 H 2004.27 -0.796087 2.9308 0
M  V30 20080 H 2001.85 -0.327825 1.45759 0
M  V30 20081 H 2003.74 -3.23774 2.69719 0
M  V30 20082 H 2002.41 -2.82891 1.57335 0
M  V30 20083 H 2001.32 -1.46104 3.4439 0
M  V30 20084 H 2002.65 -1.94039 4.52338 0
M  V30 20085 N 2004.3 -1.52772 -0.387116 0
M  V30 20086 C 2005.55 -1.68156 -1.13364 0
M  V30 20087 C 2005.88 -0.421195 -1.89577 0
M  V30 20088 O 2005.16 0.581056 -1.85618 0
M  V30 20089 C 2005.44 -2.91781 -2.11036 0
M  V30 20090 C 2005.29 -4.27922 -1.38573 0
M  V30 20091 C 2006.61 -3.10957 -3.11438 0
M  V30 20092 H 2003.73 -0.611922 -0.410755 0
M  V30 20093 H 2006.37 -1.85372 -0.416809 0
M  V30 20094 H 2004.52 -2.77234 -2.72165 0
M  V30 20095 H 2006.2 -4.54241 -0.803941 0
M  V30 20096 H 2004.44 -4.28316 -0.687576 0
M  V30 20097 H 2005.11 -5.10514 -2.09952 0
M  V30 20098 H 2007.59 -3.24547 -2.604 0
M  V30 20099 H 2006.46 -3.9893 -3.77022 0
M  V30 20100 H 2006.72 -2.25258 -3.80409 0
M  V30 20101 N 2005.78 0.645673 -1.43767 0
M  V30 20102 C 2007.03 1.40547 -1.45783 0
M  V30 20103 C 2007.36 1.94314 -0.0849322 0
M  V30 20104 O 2006.61 1.73193 0.911191 0
M  V30 20105 C 2006.91 2.59872 -2.45359 0
M  V30 20106 C 2006.58 2.2448 -3.91049 0
M  V30 20107 C 2005.24 2.1454 -4.30728 0
M  V30 20108 C 2007.59 1.9628 -4.82829 0
M  V30 20109 C 2004.92 1.74567 -5.60128 0
M  V30 20110 C 2007.27 1.57804 -6.12602 0
M  V30 20111 C 2005.93 1.46395 -6.51249 0
M  V30 20112 H 2005.2 0.5143 -0.533458 0
M  V30 20113 H 2007.85 0.733575 -1.76892 0
M  V30 20114 H 2006.16 3.32229 -2.07681 0
M  V30 20115 H 2007.85 3.1809 -2.44171 0
M  V30 20116 H 2004.44 2.33129 -3.59651 0
M  V30 20117 H 2008.63 2.02877 -4.5294 0
M  V30 20118 H 2003.88 1.64326 -5.88903 0
M  V30 20119 H 2008.06 1.35018 -6.83186 0
M  V30 20120 H 2005.68 1.15193 -7.51422 0
M  V30 20121 N 2007.26 1.30423 0.884744 0
M  V30 20122 C 2008.51 1.19435 1.63899 0
M  V30 20123 C 2008.84 -0.25033 1.9258 0
M  V30 20124 O 2008.11 -1.17904 1.5469 0
M  V30 20125 C 2008.4 2.02357 2.97865 0
M  V30 20126 C 2008.25 3.55046 2.76156 0
M  V30 20127 C 2009.57 1.86156 3.98791 0
M  V30 20128 H 2006.69 0.435234 0.594761 0
M  V30 20129 H 2009.33 1.60058 1.0238 0
M  V30 20130 H 2007.48 1.67842 3.50373 0
M  V30 20131 H 2009.15 3.99622 2.30434 0
M  V30 20132 H 2007.39 3.79218 2.10657 0
M  V30 20133 H 2008.07 4.08356 3.71415 0
M  V30 20134 H 2010.54 2.16332 3.55443 0
M  V30 20135 H 2009.42 2.46501 4.90437 0
M  V30 20136 H 2009.68 0.820775 4.34414 0
M  V30 20137 N 2008.74 -1.09711 1.13142 0
M  V30 20138 C 2010.15 -1.33866 0.869023 0
M  V30 20139 C 2010.35 -1.95275 -0.49697 0
M  V30 20140 O 2009.41 -2.19723 -1.2441 0
M  V30 20141 C 2010.72 -2.25314 1.99133 0
M  V30 20142 C 2012.27 -2.38831 2.02308 0
M  V30 20143 C 2012.75 -3.33613 3.13793 0
M  V30 20144 N 2014.24 -3.41185 3.13284 0
M  V30 20145 C 2014.97 -4.14516 3.96187 0
M  V30 20146 N 2014.47 -4.90669 4.89097 0
M  V30 20147 N 2016.26 -4.1021 3.84297 0
M  V30 20148 H 2008.41 -0.682242 2.01145 0
M  V30 20149 H 2010.67 -0.36305 0.875728 0
M  V30 20150 H 2010.38 -1.87415 2.97605 0
M  V30 20151 H 2010.25 -3.25681 1.90294 0
M  V30 20152 H 2012.64 -2.75996 1.04451 0
M  V30 20153 H 2012.72 -1.38254 2.1522 0
M  V30 20154 H 2012.37 -2.97172 4.11887 0
M  V30 20155 H 2012.3 -4.34088 2.9812 0
M  V30 20156 H 2014.79 -2.86882 2.45982 0
M  V30 20157 H 2015.1 -5.44045 5.48849 0
M  V30 20158 H 2013.45 -4.89768 4.93105 0
M  V30 20159 H 2016.64 -3.49815 3.11042 0
M  V30 20160 H 2016.81 -4.671 4.49135 0
M  V30 20161 N 2010.22 -0.924476 -1.27637 0
M  V30 20162 C 2011.46 -0.564054 -1.94798 0
M  V30 20163 C 2011.8 0.891863 -1.72509 0
M  V30 20164 O 2011.07 1.63577 -1.05228 0
M  V30 20165 C 2011.35 -0.886888 -3.49008 0
M  V30 20166 C 2011.21 -2.39632 -3.80653 0
M  V30 20167 C 2012.53 -0.390514 -4.38364 0
M  V30 20168 H 2009.64 -0.206399 -0.707509 0
M  V30 20169 H 2012.29 -1.15567 -1.50812 0
M  V30 20170 H 2010.44 -0.383406 -3.86603 0
M  V30 20171 H 2012.11 -2.97125 -3.52866 0
M  V30 20172 H 2010.35 -2.84685 -3.27318 0
M  V30 20173 H 2011.02 -2.57274 -4.88379 0
M  V30 20174 H 2013.5 -0.821972 -4.07901 0
M  V30 20175 H 2012.37 -0.645381 -5.45093 0
M  V30 20176 H 2012.64 0.709365 -4.36372 0
M  V30 20177 N 2011.69 1.41711 -0.689627 0
M  V30 20178 C 2012.94 2.0162 -0.218409 0
M  V30 20179 C 2013.27 1.54471 1.17696 0
M  V30 20180 O 2012.55 0.753301 1.7932 0
M  V30 20181 C 2012.83 3.5909 -0.269485 0
M  V30 20182 C 2012.68 4.16381 -1.70137 0
M  V30 20183 C 2014 4.38508 0.374046 0
M  V30 20184 H 2011.12 0.732553 -0.0808378 0
M  V30 20185 H 2013.76 1.68537 -0.877222 0
M  V30 20186 H 2011.91 3.87405 0.291466 0
M  V30 20187 H 2013.59 3.98964 -2.31571 0
M  V30 20188 H 2011.83 3.71648 -2.23741 0
M  V30 20189 H 2012.5 5.25535 -1.68869 0
M  V30 20190 H 2014.98 4.15971 -0.103624 0
M  V30 20191 H 2013.85 5.48037 0.307738 0
M  V30 20192 H 2014.11 4.1751 1.45388 0
M  V30 20193 N 2013.17 0.433965 1.51507 0
M  V30 20194 C 2014.14 -0.367505 2.26234 0
M  V30 20195 C 2015.14 -0.952583 1.29547 0
M  V30 20196 O 2016.33 -0.827563 1.53287 0
M  V30 20197 C 2013.46 -1.51964 3.05155 0
M  V30 20198 H 2014.65 0.28735 2.9852 0
M  V30 20199 H 2012.2 0.187052 1.55177 0
M  V30 20200 H 2012.94 -2.21064 2.37278 0
M  V30 20201 H 2012.72 -1.10632 3.76169 0
M  V30 20202 H 2014.21 -2.08597 3.61769 0
M  V30 20203 N 2014.65 -1.56732 0.165206 0
M  V30 20204 C 2015.88 -2.01506 -0.490943 0
M  V30 20205 C 2016.3 -1.04466 -1.56424 0
M  V30 20206 O 2015.66 -0.0232331 -1.81285 0
M  V30 20207 C 2015.71 -3.4492 -1.05179 0
M  V30 20208 O 2014.81 -3.50937 -2.16603 0
M  V30 20209 H 2014.15 -0.653393 -0.11821 0
M  V30 20210 H 2016.68 -2.02846 0.267298 0
M  V30 20211 H 2016.69 -3.84099 -1.37593 0
M  V30 20212 H 2015.37 -4.15049 -0.265916 0
M  V30 20213 H 2013.94 -3.23613 -1.85281 0
M  V30 20214 N 2016.13 0.10854 -1.57226 0
M  V30 20215 C 2017.35 0.832276 -1.89968 0
M  V30 20216 C 2017.78 1.72143 -0.758179 0
M  V30 20217 O 2017.14 1.78952 0.290864 0
M  V30 20218 C 2017.18 1.63287 -3.21512 0
M  V30 20219 O 2016.29 2.74071 -3.08154 0
M  V30 20220 H 2015.63 0.229508 -0.623075 0
M  V30 20221 H 2018.16 0.0877974 -2.04412 0
M  V30 20222 H 2018.17 2.01992 -3.5449 0
M  V30 20223 H 2016.84 0.98022 -4.04184 0
M  V30 20224 H 2015.42 2.38492 -2.86664 0
M  V30 20225 N 2017.61 1.52975 0.379009 0
M  V30 20226 C 2018.88 1.59096 1.13789 0
M  V30 20227 C 2019.26 0.390236 2.07462 0
M  V30 20228 O 2018.61 -0.620644 2.1991 0
M  V30 20229 C 2018.82 2.93471 1.8888 0
M  V30 20230 C 2020.17 3.47567 2.43889 0
M  V30 20231 O 2021.19 2.95411 1.99024 0
M  V30 20232 O 2020.05 4.38714 3.25871 0
M  V30 20233 H 2017.15 0.64208 0.521213 0
M  V30 20234 H 2019.69 1.65313 0.383355 0
M  V30 20235 H 2018.46 3.72304 1.20438 0
M  V30 20236 H 2018.09 2.90684 2.71272 0
M  V30 20237 N 2019.08 -0.63804 1.44107 0
M  V30 20238 C 2020.03 -1.75032 1.5044 0
M  V30 20239 C 2021 -1.62312 0.352721 0
M  V30 20240 O 2022.19 -1.82335 0.562 0
M  V30 20241 C 2019.33 -3.13253 1.44798 0
M  V30 20242 C 2018.44 -3.37 2.70287 0
M  V30 20243 C 2017.57 -4.65154 2.56526 0
M  V30 20244 C 2016.61 -4.82055 3.77212 0
M  V30 20245 N 2015.75 -6.0148 3.62169 0
M  V30 20246 H 2020.59 -1.68954 2.45476 0
M  V30 20247 H 2018.13 -0.82428 1.21836 0
M  V30 20248 H 2020.09 -3.9318 1.39518 0
M  V30 20249 H 2018.72 -3.18364 0.53334 0
M  V30 20250 H 2017.77 -2.51062 2.85783 0
M  V30 20251 H 2019.08 -3.4537 3.5989 0
M  V30 20252 H 2018.23 -5.5323 2.4904 0
M  V30 20253 H 2016.97 -4.5913 1.64472 0
M  V30 20254 H 2015.98 -3.9241 3.8509 0
M  V30 20255 H 2017.2 -4.89898 4.70294 0
M  V30 20256 H 2015.15 -5.96559 2.72861 0
M  V30 20257 H 2015.07 -6.10876 4.45384 0
M  V30 20258 H 2016.33 -6.92137 3.58562 0
M  V30 20259 N 2020.56 -1.3089 -0.877815 0
M  V30 20260 C 2021.79 -1.23068 -1.66319 0
M  V30 20261 C 2022.21 0.205309 -1.8768 0
M  V30 20262 O 2021.56 1.13467 -1.42939 0
M  V30 20263 C 2021.61 -1.96305 -3.03557 0
M  V30 20264 O 2021.33 -3.34298 -2.83154 0
M  V30 20265 C 2022.84 -1.95228 -3.97996 0
M  V30 20266 H 2020.06 -0.425583 -0.518768 0
M  V30 20267 H 2022.6 -1.72636 -1.09623 0
M  V30 20268 H 2020.75 -1.50518 -3.56964 0
M  V30 20269 H 2021.17 -3.71486 -3.70268 0
M  V30 20270 H 2022.64 -2.50997 -4.91635 0
M  V30 20271 H 2023.12 -0.932904 -4.29178 0
M  V30 20272 H 2023.73 -2.40858 -3.50525 0
M  V30 20273 N 2022.04 1.0911 -1.13723 0
M  V30 20274 C 2023.29 1.81621 -0.902319 0
M  V30 20275 C 2023.62 1.85646 0.570009 0
M  V30 20276 O 2022.89 1.32706 1.42195 0
M  V30 20277 C 2023.18 3.27604 -1.49492 0
M  V30 20278 C 2023.03 3.3183 -3.03659 0
M  V30 20279 C 2024.35 4.24378 -1.16581 0
M  V30 20280 H 2021.47 0.659374 -0.329233 0
M  V30 20281 H 2024.11 1.27792 -1.40603 0
M  V30 20282 H 2022.26 3.73574 -1.06653 0
M  V30 20283 H 2023.93 2.94239 -3.55276 0
M  V30 20284 H 2022.18 2.71317 -3.38481 0
M  V30 20285 H 2022.85 4.34686 -3.40224 0
M  V30 20286 H 2025.32 3.8671 -1.53604 0
M  V30 20287 H 2024.2 5.24853 -1.60688 0
M  V30 20288 H 2024.46 4.42028 -0.0800013 0
M  V30 20289 N 2023.52 0.931232 1.27145 0
M  V30 20290 C 2024.43 0.438807 2.3046 0
M  V30 20291 C 2025.44 -0.482275 1.67183 0
M  V30 20292 O 2026.62 -0.364225 1.98079 0
M  V30 20293 C 2023.69 -0.297266 3.45423 0
M  V30 20294 C 2022.75 0.659161 4.24209 0
M  V30 20295 C 2021.98 -0.0418787 5.33684 0
M  V30 20296 O 2022.2 -1.26062 5.56295 0
M  V30 20297 O 2021.14 0.631751 5.98575 0
M  V30 20298 H 2024.96 1.29675 2.74624 0
M  V30 20299 H 2022.55 0.696718 1.3216 0
M  V30 20300 H 2024.43 -0.712299 4.15336 0
M  V30 20301 H 2023.1 -1.13075 3.03308 0
M  V30 20302 H 2022.01 1.12394 3.56817 0
M  V30 20303 H 2023.34 1.45997 4.70049 0
M  V30 20304 N 2025 -1.41343 0.697132 0
M  V30 20305 C 2026.24 -2.01502 0.229099 0
M  V30 20306 C 2026.58 -1.55093 -1.16875 0
M  V30 20307 O 2025.85 -0.7628 -1.78918 0
M  V30 20308 C 2026.13 -3.58942 0.288524 0
M  V30 20309 C 2025.99 -4.15473 1.72343 0
M  V30 20310 C 2027.31 -4.387 -0.350786 0
M  V30 20311 H 2024.43 -0.732114 0.0847216 0
M  V30 20312 H 2027.07 -1.6807 0.886148 0
M  V30 20313 H 2025.22 -3.87554 -0.270916 0
M  V30 20314 H 2026.89 -3.97731 2.33684 0
M  V30 20315 H 2025.13 -3.70456 2.25709 0
M  V30 20316 H 2025.8 -5.24632 1.71653 0
M  V30 20317 H 2028.28 -4.1591 0.125682 0
M  V30 20318 H 2027.16 -5.48192 -0.27867 0
M  V30 20319 H 2027.42 -4.18275 -1.43172 0
M  V30 20320 N 2026.48 -0.441993 -1.51275 0
M  V30 20321 C 2027.42 0.367101 -2.27862 0
M  V30 20322 C 2028.39 1.01278 -1.31651 0
M  V30 20323 O 2029.58 1.0308 -1.60559 0
M  V30 20324 C 2026.72 1.45971 -3.12708 0
M  V30 20325 C 2025.83 0.831707 -4.23918 0
M  V30 20326 C 2024.97 1.89976 -4.96067 0
M  V30 20327 C 2024 1.25043 -5.99192 0
M  V30 20328 N 2023.14 2.26005 -6.6473 0
M  V30 20329 H 2027.98 -0.292361 -2.96562 0
M  V30 20330 H 2025.52 -0.156023 -1.4627 0
M  V30 20331 H 2027.48 2.10453 -3.6023 0
M  V30 20332 H 2026.11 2.08874 -2.46113 0
M  V30 20333 H 2025.16 0.0750644 -3.80326 0
M  V30 20334 H 2026.47 0.317691 -4.97787 0
M  V30 20335 H 2025.62 2.62108 -5.4716 0
M  V30 20336 H 2024.36 2.44751 -4.21839 0
M  V30 20337 H 2023.37 0.514597 -5.47386 0
M  V30 20338 H 2024.59 0.709951 -6.75379 0
M  V30 20339 H 2022.54 2.79852 -5.93312 0
M  V30 20340 H 2022.46 1.79508 -7.34379 0
M  V30 20341 H 2023.72 2.97607 -7.20452 0
M  V30 20342 N 2027.95 1.56642 -0.173515 0
M  V30 20343 C 2029.36 1.83525 0.342837 0
M  V30 20344 C 2029.72 1.0934 1.62908 0
M  V30 20345 O 2028.84 0.347154 2.13597 0
M  V30 20346 C 2029.44 3.32914 0.628798 0
M  V30 20347 C 2027.99 3.60285 1.08958 0
M  V30 20348 C 2027.14 2.77011 0.126621 0
M  V30 20349 H 2030.09 1.53635 -0.397736 0
M  V30 20350 H 2030.11 3.50511 1.48061 0
M  V30 20351 H 2029.63 3.8688 -0.307526 0
M  V30 20352 H 2027.73 3.11732 2.04093 0
M  V30 20353 H 2027.84 4.68607 0.997222 0
M  V30 20354 H 2026.2 2.46928 0.624406 0
M  V30 20355 H 2026.99 3.33758 -0.803763 0
M  V30 20356 N 2029.43 -0.1002 1.57281 0
M  V30 20357 C 2030.68 -0.803034 1.85461 0
M  V30 20358 C 2031 -1.79518 0.761475 0
M  V30 20359 O 2030.27 -1.94741 -0.212768 0
M  V30 20360 H 2028.85 -0.299556 0.684306 0
M  V30 20361 H 2031.51 -0.0830444 1.94723 0
M  V30 20362 H 2030.61 -1.33676 2.82024 0
M  V30 20363 N 2030.91 -1.53174 -0.370891 0
M  V30 20364 C 2031.84 -1.74012 -1.47632 0
M  V30 20365 C 2032.82 -0.588337 -1.51583 0
M  V30 20366 O 2034 -0.820302 -1.69715 0
M  V30 20367 C 2031.13 -1.81411 -2.8602 0
M  V30 20368 C 2030.18 -3.03335 -2.99817 0
M  V30 20369 S 2031.01 -4.6296 -2.69125 0
M  V30 20370 C 2032.17 -4.73201 -4.09672 0
M  V30 20371 H 2032.4 -2.675 -1.29734 0
M  V30 20372 H 2029.93 -1.43695 -0.5649 0
M  V30 20373 H 2031.89 -1.8636 -3.6576 0
M  V30 20374 H 2030.55 -0.889838 -3.01232 0
M  V30 20375 H 2029.74 -3.05107 -4.01156 0
M  V30 20376 H 2029.35 -2.96471 -2.27993 0
M  V30 20377 H 2031.64 -4.52929 -5.03846 0
M  V30 20378 H 2032.58 -5.7525 -4.12908 0
M  V30 20379 H 2032.99 -4.0188 -3.96425 0
M  V30 20380 N 2032.39 0.630389 -1.44443 0
M  V30 20381 C 2033.33 1.74232 -1.51367 0
M  V30 20382 C 2034.3 1.62122 -0.361324 0
M  V30 20383 O 2035.49 1.82035 -0.571662 0
M  V30 20384 C 2032.63 3.12481 -1.46457 0
M  V30 20385 C 2031.74 3.35561 -2.72071 0
M  V30 20386 C 2030.88 4.63787 -2.58989 0
M  V30 20387 C 2029.92 4.80048 -3.79764 0
M  V30 20388 N 2029.05 5.99551 -3.65354 0
M  V30 20389 H 2033.89 1.6765 -2.46368 0
M  V30 20390 H 2031.43 0.817807 -1.22272 0
M  V30 20391 H 2033.39 3.92435 -1.41601 0
M  V30 20392 H 2032.02 3.18076 -0.550216 0
M  V30 20393 H 2031.07 2.49543 -2.8711 0
M  V30 20394 H 2032.38 3.43456 -3.61717 0
M  V30 20395 H 2031.54 5.51902 -2.51971 0
M  V30 20396 H 2030.28 4.58251 -1.66905 0
M  V30 20397 H 2029.28 3.90362 -3.87166 0
M  V30 20398 H 2030.51 4.87397 -4.72886 0
M  V30 20399 H 2028.45 5.95104 -2.76021 0
M  V30 20400 H 2028.37 6.08505 -4.48617 0
M  V30 20401 H 2029.64 6.90226 -3.62228 0
M  V30 20402 N 2033.87 1.31354 0.870861 0
M  V30 20403 C 2035.09 1.24082 1.66188 0
M  V30 20404 C 2035.52 -0.190886 1.87129 0
M  V30 20405 O 2034.87 -1.13669 1.41241 0
M  V30 20406 C 2034.92 1.98926 3.00767 0
M  V30 20407 O 2034.03 1.32599 3.90501 0
M  V30 20408 H 2033.37 0.428443 0.50728 0
M  V30 20409 H 2035.9 1.73408 1.08586 0
M  V30 20410 H 2035.91 2.08487 3.5071 0
M  V30 20411 H 2034.58 3.03044 2.84846 0
M  V30 20412 H 2033.16 1.31483 3.48951 0
M  V30 20413 N 2035.34 -1.08505 1.143 0
M  V30 20414 C 2036.76 -1.32937 0.883172 0
M  V30 20415 C 2036.96 -1.95791 -0.47623 0
M  V30 20416 O 2036.02 -2.2103 -1.22073 0
M  V30 20417 C 2037.33 -2.23189 2.01512 0
M  V30 20418 C 2038.88 -2.36672 2.0483 0
M  V30 20419 C 2039.35 -3.30266 3.17314 0
M  V30 20420 N 2040.84 -3.37843 3.16886 0
M  V30 20421 C 2041.58 -4.1029 4.00561 0
M  V30 20422 N 2041.07 -4.85454 4.94274 0
M  V30 20423 N 2042.87 -4.06111 3.88626 0
M  V30 20424 H 2035.02 -0.660869 2.01857 0
M  V30 20425 H 2037.28 -0.353741 0.879529 0
M  V30 20426 H 2036.99 -1.84248 2.99576 0
M  V30 20427 H 2036.86 -3.23644 1.93738 0
M  V30 20428 H 2039.25 -2.74873 1.07373 0
M  V30 20429 H 2039.33 -1.35963 2.16674 0
M  V30 20430 H 2038.97 -2.92787 4.15016 0
M  V30 20431 H 2038.9 -4.30901 3.02707 0
M  V30 20432 H 2041.39 -2.84257 2.49011 0
M  V30 20433 H 2041.71 -5.38193 5.54588 0
M  V30 20434 H 2040.05 -4.8451 4.98272 0
M  V30 20435 H 2043.24 -3.46497 3.14734 0
M  V30 20436 H 2043.42 -4.6231 4.54064 0
M  V30 20437 N 2036.82 -0.937962 -1.26649 0
M  V30 20438 C 2038.07 -0.583818 -1.93902 0
M  V30 20439 C 2038.4 0.876602 -1.73626 0
M  V30 20440 O 2037.65 1.64203 -1.0647 0
M  V30 20441 C 2037.95 -0.868478 -3.46687 0
M  V30 20442 C 2037.62 -2.31227 -3.87098 0
M  V30 20443 C 2036.28 -2.70695 -3.97841 0
M  V30 20444 C 2038.63 -3.25068 -4.07407 0
M  V30 20445 C 2035.96 -4.03107 -4.26288 0
M  V30 20446 C 2038.31 -4.57073 -4.37341 0
M  V30 20447 C 2036.97 -4.96361 -4.46298 0
M  V30 20448 H 2036.24 -0.213634 -0.709536 0
M  V30 20449 H 2038.89 -1.18386 -1.50522 0
M  V30 20450 H 2037.2 -0.185864 -3.91359 0
M  V30 20451 H 2038.89 -0.573289 -3.96881 0
M  V30 20452 H 2035.48 -1.99611 -3.7928 0
M  V30 20453 H 2039.67 -2.95773 -3.98537 0
M  V30 20454 H 2034.92 -4.33214 -4.31434 0
M  V30 20455 H 2039.1 -5.29781 -4.52001 0
M  V30 20456 H 2036.72 -5.98992 -4.68095 0
M  V30 20457 N 2038.3 1.40971 -0.704618 0
M  V30 20458 C 2039.55 2.01377 -0.239781 0
M  V30 20459 C 2039.88 1.5571 1.16051 0
M  V30 20460 O 2039.15 0.772278 1.78511 0
M  V30 20461 C 2039.44 3.58784 -0.307556 0
M  V30 20462 C 2039.29 4.14553 -1.74544 0
M  V30 20463 C 2040.61 4.3888 0.327516 0
M  V30 20464 H 2037.73 0.731655 -0.088603 0
M  V30 20465 H 2040.37 1.67597 -0.895048 0
M  V30 20466 H 2038.52 3.87692 0.25036 0
M  V30 20467 H 2040.19 3.96486 -2.3579 0
M  V30 20468 H 2038.43 3.69254 -2.2767 0
M  V30 20469 H 2039.11 5.23715 -1.74433 0
M  V30 20470 H 2041.58 4.15838 -0.147737 0
M  V30 20471 H 2040.46 5.48332 0.249594 0
M  V30 20472 H 2040.72 4.19029 1.40952 0
M  V30 20473 N 2039.78 0.45001 1.51039 0
M  V30 20474 C 2041.06 -0.172746 1.94836 0
M  V30 20475 C 2041.44 -1.58934 1.38936 0
M  V30 20476 O 2040.78 -2.20974 0.581609 0
M  V30 20477 C 2040.99 -0.137579 3.48729 0
M  V30 20478 C 2042.34 -0.33691 4.23261 0
M  V30 20479 O 2043.37 -0.215124 3.5555 0
M  V30 20480 O 2042.22 -0.580548 5.43408 0
M  V30 20481 H 2039.32 -0.12312 0.817784 0
M  V30 20482 H 2041.86 0.5089 1.6189 0
M  V30 20483 H 2040.64 0.852286 3.81905 0
M  V30 20484 H 2040.26 -0.861592 3.88152 0
M  V30 20485 N 2041.26 -1.56548 0.18182 0
M  V30 20486 C 2042.48 -2.02015 -0.469543 0
M  V30 20487 C 2042.91 -1.06119 -1.55307 0
M  V30 20488 O 2042.26 -0.0424595 -1.8125 0
M  V30 20489 C 2042.31 -3.46016 -1.01515 0
M  V30 20490 O 2041.42 -3.53215 -2.12869 0
M  V30 20491 H 2040.76 -0.65461 -0.111273 0
M  V30 20492 H 2043.29 -2.02552 0.288798 0
M  V30 20493 H 2043.3 -3.85537 -1.33511 0
M  V30 20494 H 2041.97 -4.15308 -0.22188 0
M  V30 20495 H 2040.55 -3.2556 -1.81838 0
M  V30 20496 N 2042.73 0.0918577 -1.57332 0
M  V30 20497 C 2043.98 0.793187 -1.85884 0
M  V30 20498 C 2044.3 1.79111 -0.770985 0
M  V30 20499 O 2043.57 1.94851 0.202438 0
M  V30 20500 H 2042.15 0.295923 -0.685885 0
M  V30 20501 H 2044.82 0.0727166 -1.94764 0
M  V30 20502 H 2043.91 1.32178 -2.82728 0
M  V30 20503 N 2044.21 1.53368 0.362763 0
M  V30 20504 C 2045.12 1.82969 1.46832 0
M  V30 20505 C 2046.14 0.718285 1.58482 0
M  V30 20506 O 2047.31 1.00863 1.74323 0
M  V30 20507 C 2044.38 2.01596 2.82064 0
M  V30 20508 C 2043.44 3.25491 2.79918 0
M  V30 20509 C 2042.67 3.4322 4.087 0
M  V30 20510 O 2042.9 2.65185 5.05008 0
M  V30 20511 O 2041.83 4.36585 4.1434 0
M  V30 20512 H 2045.66 2.769 1.24741 0
M  V30 20513 H 2043.24 1.38783 0.553131 0
M  V30 20514 H 2045.12 2.15403 3.62187 0
M  V30 20515 H 2043.8 1.10854 3.04127 0
M  V30 20516 H 2042.71 3.17105 1.98483 0
M  V30 20517 H 2044.04 4.16164 2.62809 0
M  V30 20518 N 2045.69 -0.62272 1.44776 0
M  V30 20519 C 2046.62 -1.74744 1.46764 0
M  V30 20520 C 2047.6 -1.59307 0.325571 0
M  V30 20521 O 2048.79 -1.81076 0.523811 0
M  V30 20522 C 2045.91 -3.12411 1.30832 0
M  V30 20523 C 2044.96 -3.46476 2.4871 0
M  V30 20524 S 2045.79 -3.43011 4.11222 0
M  V30 20525 C 2046.95 -4.83284 3.97728 0
M  V30 20526 H 2047.18 -1.72792 2.41931 0
M  V30 20527 H 2044.71 -0.798067 1.32175 0
M  V30 20528 H 2046.67 -3.9185 1.22327 0
M  V30 20529 H 2045.33 -3.11894 0.371621 0
M  V30 20530 H 2044.53 -4.46675 2.33447 0
M  V30 20531 H 2044.13 -2.74519 2.53998 0
M  V30 20532 H 2046.42 -5.72719 3.61937 0
M  V30 20533 H 2047.36 -5.03602 4.97786 0
M  V30 20534 H 2047.77 -4.58254 3.29642 0
M  V30 20535 N 2047.17 -1.31814 -0.863883 0
M  V30 20536 C 2048.39 -1.24961 -1.65528 0
M  V30 20537 C 2048.82 0.18096 -1.87228 0
M  V30 20538 O 2048.18 1.12919 -1.41842 0
M  V30 20539 C 2048.22 -2.00518 -2.99708 0
M  V30 20540 O 2047.33 -1.34668 -3.89793 0
M  V30 20541 H 2046.67 -0.431127 -0.505001 0
M  V30 20542 H 2049.2 -1.73981 -1.07665 0
M  V30 20543 H 2049.21 -2.10344 -3.49599 0
M  V30 20544 H 2047.88 -3.0455 -2.83235 0
M  V30 20545 H 2046.46 -1.33332 -3.48249 0
M  V30 20546 N 2048.65 1.07897 -1.14873 0
M  V30 20547 C 2049.56 2.18494 -0.854259 0
M  V30 20548 C 2050.57 1.73194 0.167297 0
M  V30 20549 O 2051.75 2.01399 -0.00544437 0
M  V30 20550 C 2048.81 3.45013 -0.341649 0
M  V30 20551 C 2047.87 4.0491 -1.42641 0
M  V30 20552 C 2047.11 5.2539 -0.938165 0
M  V30 20553 O 2047.33 5.69982 0.218391 0
M  V30 20554 O 2046.26 5.76818 -1.71943 0
M  V30 20555 H 2050.09 2.46164 -1.77867 0
M  V30 20556 H 2047.68 1.1713 -0.927406 0
M  V30 20557 H 2049.56 4.21354 -0.0619573 0
M  V30 20558 H 2048.23 3.18907 0.554969 0
M  V30 20559 H 2047.14 3.30133 -1.75963 0
M  V30 20560 H 2048.47 4.35276 -2.29774 0
M  V30 20561 N 2050.12 0.944665 1.2615 0
M  V30 20562 C 2051.35 0.610451 1.98213 0
M  V30 20563 C 2051.77 -0.808401 1.69843 0
M  V30 20564 O 2051.13 -1.5451 0.948491 0
M  V30 20565 C 2051.18 0.863318 3.50113 0
M  V30 20566 O 2050.28 -0.062849 4.12352 0
M  V30 20567 H 2049.63 0.233139 0.621725 0
M  V30 20568 H 2052.16 1.26855 1.60527 0
M  V30 20569 H 2052.17 0.785602 4.00365 0
M  V30 20570 H 2050.84 1.89748 3.70092 0
M  V30 20571 H 2049.42 0.066222 3.72841 0
M  V30 20572 N 2051.6 -1.40596 0.712085 0
M  V30 20573 C 2052.85 -2.0095 0.250087 0
M  V30 20574 C 2053.18 -1.5645 -1.15558 0
M  V30 20575 O 2052.43 -0.773994 -1.79744 0
M  V30 20576 C 2052.73 -3.56346 0.27427 0
M  V30 20577 C 2052.4 -4.20416 1.62975 0
M  V30 20578 C 2051.06 -4.37632 2.0008 0
M  V30 20579 C 2053.41 -4.56187 2.52076 0
M  V30 20580 C 2050.74 -4.87899 3.2584 0
M  V30 20581 C 2053.09 -5.07853 3.77185 0
M  V30 20582 C 2051.76 -5.23277 4.14412 0
M  V30 20583 H 2051.03 -0.735327 0.0915134 0
M  V30 20584 H 2053.67 -1.68257 0.914427 0
M  V30 20585 H 2051.98 -3.88927 -0.473638 0
M  V30 20586 H 2053.67 -4.00873 -0.100977 0
M  V30 20587 H 2050.26 -4.07403 1.3312 0
M  V30 20588 H 2054.45 -4.42527 2.24686 0
M  V30 20589 H 2049.7 -4.98026 3.54655 0
M  V30 20590 H 2053.88 -5.34509 4.46401 0
M  V30 20591 H 2051.51 -5.6199 5.11929 0
M  V30 20592 N 2053.08 -0.458013 -1.50798 0
M  V30 20593 C 2054.49 0.00023852 -1.867 0
M  V30 20594 C 2054.84 1.40078 -1.37378 0
M  V30 20595 O 2053.97 2.036 -0.733219 0
M  V30 20596 C 2054.56 0.00720883 -3.38799 0
M  V30 20597 C 2053.12 0.409942 -3.74161 0
M  V30 20598 C 2052.27 -0.383856 -2.7463 0
M  V30 20599 H 2055.22 -0.672909 -1.43728 0
M  V30 20600 H 2055.24 0.812262 -3.71729 0
M  V30 20601 H 2054.75 -1.01225 -3.74667 0
M  V30 20602 H 2052.85 1.43423 -3.4389 0
M  V30 20603 H 2052.97 0.120374 -4.78949 0
M  V30 20604 H 2051.33 0.16068 -2.54193 0
M  V30 20605 H 2052.11 -1.40258 -3.13341 0
M  V30 20606 N 2054.56 1.56449 -0.190119 0
M  V30 20607 C 2055.79 2.01527 0.455038 0
M  V30 20608 C 2056.2 1.06944 1.56076 0
M  V30 20609 O 2055.54 0.0656127 1.83583 0
M  V30 20610 C 2055.6 3.43008 1.07637 0
M  V30 20611 C 2055.27 4.56868 0.109996 0
M  V30 20612 C 2056.26 5.1545 -0.678755 0
M  V30 20613 C 2053.95 5.023 0.000358787 0
M  V30 20614 C 2055.94 6.1791 -1.56416 0
M  V30 20615 C 2053.63 6.04605 -0.888608 0
M  V30 20616 C 2054.63 6.62283 -1.66944 0
M  V30 20617 O 2054.32 7.62601 -2.54351 0
M  V30 20618 H 2054.05 0.66543 0.119076 0
M  V30 20619 H 2056.6 2.03276 -0.29461 0
M  V30 20620 H 2054.83 3.38229 1.87451 0
M  V30 20621 H 2056.52 3.71923 1.62566 0
M  V30 20622 H 2057.29 4.8122 -0.604329 0
M  V30 20623 H 2053.17 4.57106 0.59794 0
M  V30 20624 H 2056.71 6.62858 -2.17407 0
M  V30 20625 H 2052.61 6.38259 -0.964167 0
M  V30 20626 H 2053.37 7.80001 -2.48075 0
M  V30 20627 N 2056.04 -0.0835127 1.57379 0
M  V30 20628 C 2057.45 -0.438018 1.53472 0
M  V30 20629 C 2057.65 -1.79853 0.908578 0
M  V30 20630 O 2056.71 -2.47377 0.506047 0
M  V30 20631 C 2058.02 -0.389855 2.98162 0
M  V30 20632 C 2059.57 -0.470883 3.09438 0
M  V30 20633 C 2060.05 -0.452749 4.55757 0
M  V30 20634 N 2061.54 -0.513166 4.60349 0
M  V30 20635 C 2062.27 -0.52116 5.71027 0
M  V30 20636 N 2061.77 -0.484668 6.91103 0
M  V30 20637 N 2063.56 -0.566841 5.59235 0
M  V30 20638 H 2055.71 0.807491 1.96452 0
M  V30 20639 H 2057.97 0.301793 0.89868 0
M  V30 20640 H 2057.68 0.542902 3.47484 0
M  V30 20641 H 2057.55 -1.20449 3.57452 0
M  V30 20642 H 2059.94 -1.39406 2.60096 0
M  V30 20643 H 2060.02 0.372104 2.53079 0
M  V30 20644 H 2059.67 0.466533 5.05753 0
M  V30 20645 H 2059.6 -1.31311 5.09966 0
M  V30 20646 H 2062.09 -0.546093 3.73933 0
M  V30 20647 H 2062.4 -0.494371 7.71217 0
M  V30 20648 H 2060.75 -0.451537 6.93532 0
M  V30 20649 H 2063.94 -0.59296 4.64329 0
M  V30 20650 H 2064.11 -0.569602 6.45492 0
M  V30 20651 N 2057.52 -1.53558 -0.354624 0
M  V30 20652 C 2058.74 -1.74194 -1.11643 0
M  V30 20653 C 2059.16 -0.475943 -1.82703 0
M  V30 20654 O 2058.52 0.551798 -1.73958 0
M  V30 20655 C 2058.57 -2.91471 -2.13839 0
M  V30 20656 O 2058.29 -4.13173 -1.45671 0
M  V30 20657 C 2059.79 -3.24068 -3.02481 0
M  V30 20658 H 2057.01 -0.58232 -0.333383 0
M  V30 20659 H 2059.55 -2.00344 -0.410204 0
M  V30 20660 H 2057.71 -2.67684 -2.80043 0
M  V30 20661 H 2058.12 -4.78924 -2.13851 0
M  V30 20662 H 2059.6 -4.09506 -3.70147 0
M  V30 20663 H 2060.07 -2.39897 -3.67894 0
M  V30 20664 H 2060.68 -3.4982 -2.4188 0
M  V30 20665 N 2058.99 0.615033 -1.45104 0
M  V30 20666 C 2059.94 1.72617 -1.53206 0
M  V30 20667 C 2060.91 1.6173 -0.378499 0
M  V30 20668 O 2062.1 1.81418 -0.590937 0
M  V30 20669 C 2059.24 3.1091 -1.49763 0
M  V30 20670 C 2058.35 3.32657 -2.75615 0
M  V30 20671 C 2057.48 4.61014 -2.63894 0
M  V30 20672 C 2056.52 4.75993 -3.84834 0
M  V30 20673 N 2055.66 5.95642 -3.71692 0
M  V30 20674 H 2060.5 1.65028 -2.48133 0
M  V30 20675 H 2058.04 0.804792 -1.23132 0
M  V30 20676 H 2059.99 3.90911 -1.45755 0
M  V30 20677 H 2058.62 3.17475 -0.583921 0
M  V30 20678 H 2057.68 2.46484 -2.89741 0
M  V30 20679 H 2058.99 3.39601 -3.65339 0
M  V30 20680 H 2058.14 5.49198 -2.5781 0
M  V30 20681 H 2056.88 4.56455 -1.71756 0
M  V30 20682 H 2055.89 3.86234 -3.91284 0
M  V30 20683 H 2057.11 4.82354 -4.78028 0
M  V30 20684 H 2055.06 5.92143 -2.82318 0
M  V30 20685 H 2054.97 6.03713 -4.55046 0
M  V30 20686 H 2056.24 6.86345 -3.69528 0
M  V30 20687 N 2060.47 1.3227 0.85688 0
M  V30 20688 C 2061.43 1.2096 1.94682 0
M  V30 20689 C 2062.43 0.133231 1.60247 0
M  V30 20690 O 2063.62 0.383471 1.69927 0
M  V30 20691 C 2060.76 0.85974 3.29881 0
M  V30 20692 H 2061.95 2.17823 2.06139 0
M  V30 20693 H 2059.5 1.16069 1.04679 0
M  V30 20694 H 2060.24 -0.107161 3.24123 0
M  V30 20695 H 2060.02 1.63794 3.5625 0
M  V30 20696 H 2061.51 0.804868 4.0977 0
M  V30 20697 N 2061.95 -1.07287 1.15444 0
M  V30 20698 C 2062.88 -2.16494 0.87478 0
M  V30 20699 C 2063.86 -1.69199 -0.174882 0
M  V30 20700 O 2065.05 -1.94178 -0.0291162 0
M  V30 20701 C 2062.18 -3.45387 0.364018 0
M  V30 20702 C 2061.13 -4.06137 1.35043 0
M  V30 20703 C 2060.46 -5.30118 0.69849 0
M  V30 20704 C 2061.76 -4.46089 2.71665 0
M  V30 20705 H 2063.45 -2.40146 1.78802 0
M  V30 20706 H 2061 -1.15415 0.861124 0
M  V30 20707 H 2062.95 -4.21111 0.15591 0
M  V30 20708 H 2061.67 -3.21324 -0.58469 0
M  V30 20709 H 2060.33 -3.32458 1.54491 0
M  V30 20710 H 2059.98 -5.02346 -0.256386 0
M  V30 20711 H 2059.68 -5.71721 1.35679 0
M  V30 20712 H 2061.2 -6.08548 0.500171 0
M  V30 20713 H 2062.62 -5.12939 2.56059 0
M  V30 20714 H 2061.01 -4.98645 3.33876 0
M  V30 20715 H 2062.08 -3.57427 3.2768 0
M  V30 20716 N 2063.43 -0.951342 -1.25647 0
M  V30 20717 C 2064.67 -0.604351 -1.93271 0
M  V30 20718 C 2065 0.858137 -1.74546 0
M  V30 20719 O 2064.26 1.63065 -1.08206 0
M  V30 20720 C 2064.56 -0.9052 -3.45747 0
M  V30 20721 C 2064.22 -2.35319 -3.84624 0
M  V30 20722 C 2062.88 -2.74899 -3.94948 0
M  V30 20723 C 2065.24 -3.29371 -4.03936 0
M  V30 20724 C 2062.56 -4.07606 -4.21989 0
M  V30 20725 C 2064.92 -4.61686 -4.32468 0
M  V30 20726 C 2063.58 -5.01067 -4.41009 0
M  V30 20727 H 2062.85 -0.221148 -0.70723 0
M  V30 20728 H 2065.5 -1.19976 -1.49258 0
M  V30 20729 H 2063.8 -0.227362 -3.9114 0
M  V30 20730 H 2065.5 -0.615351 -3.9625 0
M  V30 20731 H 2062.09 -2.03622 -3.77142 0
M  V30 20732 H 2066.27 -2.99984 -3.95378 0
M  V30 20733 H 2061.53 -4.37766 -4.26815 0
M  V30 20734 H 2065.7 -5.34545 -4.46357 0
M  V30 20735 H 2063.33 -6.03923 -4.61715 0
M  V30 20736 N 2064.91 1.40216 -0.719531 0
M  V30 20737 C 2065.87 2.29067 -0.078186 0
M  V30 20738 C 2066.87 1.45561 0.683282 0
M  V30 20739 O 2068.06 1.66426 0.514598 0
M  V30 20740 C 2065.19 3.28832 0.899035 0
M  V30 20741 H 2066.38 2.87281 -0.860786 0
M  V30 20742 H 2063.94 1.48604 -0.48442 0
M  V30 20743 H 2064.67 2.75643 1.70855 0
M  V30 20744 H 2064.46 3.90482 0.355853 0
M  V30 20745 H 2065.95 3.95353 1.34483 0
M  V30 20746 N 2066.38 0.466004 1.50553 0
M  V30 20747 C 2067.63 -0.0907392 2.02297 0
M  V30 20748 C 2067.96 -1.40178 1.34835 0
M  V30 20749 O 2067.21 -1.90185 0.461328 0
M  V30 20750 C 2067.51 -0.32772 3.55894 0
M  V30 20751 C 2067.18 0.900994 4.41806 0
M  V30 20752 C 2065.84 1.23789 4.65005 0
M  V30 20753 C 2068.19 1.71933 4.92025 0
M  V30 20754 C 2065.52 2.39327 5.35667 0
M  V30 20755 C 2067.87 2.86595 5.63956 0
M  V30 20756 C 2066.54 3.20705 5.8541 0
M  V30 20757 H 2065.81 -0.0332038 0.740256 0
M  V30 20758 H 2068.45 0.619048 1.81218 0
M  V30 20759 H 2066.76 -1.1197 3.7546 0
M  V30 20760 H 2068.46 -0.772379 3.93491 0
M  V30 20761 H 2065.05 0.628519 4.23966 0
M  V30 20762 H 2069.23 1.47224 4.73961 0
M  V30 20763 H 2064.49 2.66035 5.50487 0
M  V30 20764 H 2068.66 3.50355 6.01851 0
M  V30 20765 H 2066.29 4.10341 6.39941 0
M  V30 20766 N 2067.86 -1.56346 0.198413 0
M  V30 20767 C 2068.77 -2.22855 -0.733001 0
M  V30 20768 C 2069.79 -1.22868 -1.23205 0
M  V30 20769 O 2070.96 -1.55615 -1.27852 0
M  V30 20770 C 2068.03 -2.87746 -1.93399 0
M  V30 20771 C 2067.09 -4.03012 -1.47919 0
M  V30 20772 C 2066.32 -4.64799 -2.62293 0
M  V30 20773 O 2066.55 -4.25516 -3.79859 0
M  V30 20774 O 2065.48 -5.54206 -2.34817 0
M  V30 20775 H 2069.31 -3.03063 -0.196563 0
M  V30 20776 H 2066.89 -1.49368 -0.0310254 0
M  V30 20777 H 2068.77 -3.28788 -2.63584 0
M  V30 20778 H 2067.45 -2.10514 -2.45897 0
M  V30 20779 H 2066.35 -3.66586 -0.746038 0
M  V30 20780 H 2067.69 -4.81917 -1.00084 0
M  V30 20781 N 2069.34 0.0751653 -1.57421 0
M  V30 20782 C 2070.25 1.10763 -2.06806 0
M  V30 20783 C 2071.27 1.4261 -0.99691 0
M  V30 20784 O 2072.44 1.52854 -1.31139 0
M  V30 20785 C 2069.51 2.40281 -2.49932 0
M  V30 20786 C 2068.57 2.15435 -3.7133 0
M  V30 20787 C 2067.8 3.38777 -4.1239 0
M  V30 20788 O 2068.02 4.4777 -3.53353 0
M  V30 20789 O 2066.96 3.27189 -5.05204 0
M  V30 20790 H 2070.78 0.718102 -2.95088 0
M  V30 20791 H 2068.37 0.289065 -1.46577 0
M  V30 20792 H 2070.25 3.16509 -2.78208 0
M  V30 20793 H 2068.93 2.7862 -1.64781 0
M  V30 20794 H 2067.83 1.36922 -3.48142 0
M  V30 20795 H 2069.17 1.81978 -4.57324 0
M  V30 20796 N 2070.82 1.53744 0.346476 0
M  V30 20797 C 2072.07 1.70066 1.08445 0
M  V30 20798 C 2072.38 0.469013 1.89894 0
M  V30 20799 O 2073.59 0.513127 2.66607 0
M  V30 20800 C 2072.04 3.00716 1.97732 0
M  V30 20801 C 2071.65 4.31208 1.21504 0
M  V30 20802 C 2073.39 3.26404 2.71405 0
M  V30 20803 C 2071.3 5.52934 2.09804 0
M  V30 20804 H 2070.23 0.633711 0.408567 0
M  V30 20805 H 2072.88 1.80244 0.344133 0
M  V30 20806 H 2071.26 2.84388 2.75572 0
M  V30 20807 H 2072.44 4.5823 0.485955 0
M  V30 20808 H 2070.75 4.12111 0.596126 0
M  V30 20809 H 2073.35 4.14536 3.37733 0
M  V30 20810 H 2073.69 2.43286 3.37813 0
M  V30 20811 H 2074.23 3.43495 2.0064 0
M  V30 20812 H 2070.97 6.38587 1.47943 0
M  V30 20813 H 2070.49 5.30164 2.8051 0
M  V30 20814 H 2072.16 5.88463 2.68924 0
M  V30 20815 N 2072.3 -0.607329 1.45428 0
M  V30 20816 C 2073.57 -1.36669 1.39932 0
M  V30 20817 C 2073.95 -2.10984 0.0700663 0
M  V30 20818 O 2073.3 -2.07907 -0.947984 0
M  V30 20819 C 2073.51 -2.3133 2.61319 0
M  V30 20820 C 2074.86 -2.93928 3.06417 0
M  V30 20821 O 2075.88 -2.4165 2.61694 0
M  V30 20822 O 2074.74 -3.88823 3.8403 0
M  V30 20823 H 2071.84 -0.61283 0.55531 0
M  V30 20824 H 2074.38 -0.630396 1.57557 0
M  V30 20825 H 2073.15 -1.75677 3.49647 0
M  V30 20826 H 2072.78 -3.12338 2.4603 0
M  V30 20827 N 2073.77 -1.32722 -0.849853 0
M  V30 20828 C 2075.02 -1.23312 -1.60121 0
M  V30 20829 C 2075.34 0.203882 -1.93931 0
M  V30 20830 O 2074.61 1.12986 -1.60035 0
M  V30 20831 H 2073.19 -0.453413 -0.593654 0
M  V30 20832 H 2075.86 -1.66305 -1.0163 0
M  V30 20833 H 2074.95 -1.81913 -2.53602 0
M  V30 20834 N 2075.25 1.06673 -1.16011 0
M  V30 20835 C 2076.5 1.79666 -0.940641 0
M  V30 20836 C 2076.83 1.86814 0.530502 0
M  V30 20837 O 2076.11 1.35692 1.39348 0
M  V30 20838 C 2076.39 3.24359 -1.56407 0
M  V30 20839 C 2076.24 3.25315 -3.10629 0
M  V30 20840 C 2077.56 4.2181 -1.25556 0
M  V30 20841 H 2074.68 0.652242 -0.343145 0
M  V30 20842 H 2077.32 1.2478 -1.43282 0
M  V30 20843 H 2075.47 3.71227 -1.14553 0
M  V30 20844 H 2077.14 2.86637 -3.61438 0
M  V30 20845 H 2075.39 2.64077 -3.4416 0
M  V30 20846 H 2076.06 4.27371 -3.49368 0
M  V30 20847 H 2078.53 3.83365 -1.61772 0
M  V30 20848 H 2077.41 5.21326 -1.71785 0
M  V30 20849 H 2077.67 4.41758 -0.173744 0
M  V30 20850 N 2076.73 0.957992 1.25141 0
M  V30 20851 C 2078.01 0.531835 1.88231 0
M  V30 20852 C 2078.39 -0.990946 1.86396 0
M  V30 20853 O 2077.74 -1.85817 1.32983 0
M  V30 20854 C 2077.95 1.11229 3.30801 0
M  V30 20855 C 2079.29 1.19121 4.07548 0
M  V30 20856 O 2080.32 1.06409 3.39935 0
M  V30 20857 O 2079.18 1.39103 5.285 0
M  V30 20858 H 2076.27 0.175926 0.808071 0
M  V30 20859 H 2078.82 1.05164 1.33187 0
M  V30 20860 H 2077.59 2.15542 3.26584 0
M  V30 20861 H 2077.21 0.575942 3.93406 0
M  V30 20862 N 2078.21 -1.39832 0.726957 0
M  V30 20863 C 2079.45 -2.00971 0.271788 0
M  V30 20864 C 2079.79 -1.57537 -1.13559 0
M  V30 20865 O 2079.06 -0.800579 -1.7726 0
M  V30 20866 C 2079.35 -3.5825 0.364596 0
M  V30 20867 C 2079.2 -4.11724 1.81117 0
M  V30 20868 C 2080.52 -4.39345 -0.257652 0
M  V30 20869 H 2077.64 -0.730152 0.100232 0
M  V30 20870 H 2080.28 -1.66152 0.921599 0
M  V30 20871 H 2078.43 -3.88042 -0.18865 0
M  V30 20872 H 2080.1 -3.92684 2.42068 0
M  V30 20873 H 2078.34 -3.65585 2.33516 0
M  V30 20874 H 2079.01 -5.20873 1.82743 0
M  V30 20875 H 2081.49 -4.1555 0.213875 0
M  V30 20876 H 2080.37 -5.4866 -0.162327 0
M  V30 20877 H 2080.63 -4.21218 -1.34267 0
M  V30 20878 N 2079.69 -0.473982 -1.50304 0
M  V30 20879 C 2080.93 0.0787179 -2.04248 0
M  V30 20880 C 2081.29 1.36728 -1.34794 0
M  V30 20881 O 2082.49 2.00254 -1.7931 0
M  V30 20882 C 2080.76 0.255399 -3.56486 0
M  V30 20883 S 2082.32 0.766239 -4.32058 0
M  V30 20884 H 2079.14 0.0145896 -0.71085 0
M  V30 20885 H 2081.74 -0.641781 -1.84666 0
M  V30 20886 H 2080.45 -0.68817 -4.04589 0
M  V30 20887 H 2079.98 1.00193 -3.80427 0
M  V30 20888 H 2081.99 2.03925 -4.52359 0
M  V30 20889 N 2081.16 1.56239 -0.206702 0
M  V30 20890 C 2082.41 1.97904 0.428991 0
M  V30 20891 C 2082.74 1.09394 1.6082 0
M  V30 20892 O 2081.99 0.135573 1.9523 0
M  V30 20893 C 2082.29 3.45345 0.920411 0
M  V30 20894 C 2081.96 4.50661 -0.146675 0
M  V30 20895 C 2080.62 4.79185 -0.439852 0
M  V30 20896 C 2082.97 5.13903 -0.869114 0
M  V30 20897 C 2080.3 5.68237 -1.46024 0
M  V30 20898 C 2082.65 6.04058 -1.87874 0
M  V30 20899 C 2081.32 6.30933 -2.17899 0
M  V30 20900 H 2080.59 0.724181 0.156979 0
M  V30 20901 H 2083.23 1.89038 -0.306106 0
M  V30 20902 H 2081.54 3.5134 1.734 0
M  V30 20903 H 2083.24 3.74945 1.42187 0
M  V30 20904 H 2079.83 4.28501 0.0919915 0
M  V30 20905 H 2084.01 4.91947 -0.655848 0
M  V30 20906 H 2079.27 5.87329 -1.69866 0
M  V30 20907 H 2083.44 6.52117 -2.44369 0
M  V30 20908 H 2081.07 6.99735 -2.9711 0
M  V30 20909 N 2082.64 -0.0668159 1.57458 0
M  V30 20910 C 2083.89 -0.765025 1.87493 0
M  V30 20911 C 2084.22 -1.77326 0.799106 0
M  V30 20912 O 2083.47 -1.9463 -0.204353 0
M  V30 20913 C 2083.77 -1.5042 3.24204 0
M  V30 20914 C 2083.44 -0.635488 4.46399 0
M  V30 20915 C 2082.1 -0.396101 4.79567 0
M  V30 20916 C 2084.45 -0.0334012 5.21189 0
M  V30 20917 C 2081.78 0.454772 5.84935 0
M  V30 20918 C 2084.13 0.804955 6.27458 0
M  V30 20919 C 2082.8 1.05417 6.59123 0
M  V30 20920 H 2082.07 -0.279943 0.686085 0
M  V30 20921 H 2084.71 -0.0256766 1.91483 0
M  V30 20922 H 2083.02 -2.31589 3.16028 0
M  V30 20923 H 2084.71 -2.04932 3.44679 0
M  V30 20924 H 2081.3 -0.832201 4.20443 0
M  V30 20925 H 2085.49 -0.205452 4.95875 0
M  V30 20926 H 2080.74 0.656546 6.07865 0
M  V30 20927 H 2084.92 1.27821 6.84569 0
M  V30 20928 H 2082.55 1.71525 7.40596 0
M  V30 20929 N 2084.12 -1.53926 -0.338317 0
M  V30 20930 C 2085.37 -1.71085 -1.07584 0
M  V30 20931 C 2085.69 -0.479497 -1.89013 0
M  V30 20932 O 2084.96 0.506566 -1.89237 0
M  V30 20933 H 2083.54 -0.630767 -0.400178 0
M  V30 20934 H 2086.2 -1.91193 -0.378324 0
M  V30 20935 H 2085.3 -2.58404 -1.75026 0
M  V30 20936 N 2085.6 0.599608 -1.45748 0
M  V30 20937 C 2086.53 1.72387 -1.49526 0
M  V30 20938 C 2087.51 1.58769 -0.350874 0
M  V30 20939 O 2088.69 1.8022 -0.552553 0
M  V30 20940 C 2085.82 3.1029 -1.35785 0
M  V30 20941 C 2084.87 3.42475 -2.54191 0
M  V30 20942 S 2085.7 3.36425 -4.16627 0
M  V30 20943 C 2086.86 4.76895 -4.05366 0
M  V30 20944 H 2087.09 1.68921 -2.44649 0
M  V30 20945 H 2084.62 0.776938 -1.33428 0
M  V30 20946 H 2086.58 3.89854 -1.28545 0
M  V30 20947 H 2085.24 3.11263 -0.421193 0
M  V30 20948 H 2084.43 4.42904 -2.40524 0
M  V30 20949 H 2084.04 2.70444 -2.58334 0
M  V30 20950 H 2086.33 5.66889 -3.71003 0
M  V30 20951 H 2087.27 4.95619 -5.05735 0
M  V30 20952 H 2087.68 4.52951 -3.36891 0
M  V30 20953 N 2087.08 1.33171 0.842803 0
M  V30 20954 C 2088.03 1.19669 1.9407 0
M  V30 20955 C 2089.01 0.100588 1.60585 0
M  V30 20956 O 2090.2 0.328293 1.73929 0
M  V30 20957 C 2087.33 0.93406 3.30349 0
M  V30 20958 C 2086.42 2.07242 3.70016 0
M  V30 20959 N 2086.81 3.32205 3.81409 0
M  V30 20960 C 2085.11 1.97824 3.99727 0
M  V30 20961 C 2085.81 4.06841 4.15759 0
M  V30 20962 N 2084.78 3.35244 4.27917 0
M  V30 20963 H 2088.59 2.14393 2.01029 0
M  V30 20964 H 2086.1 1.25122 1.03529 0
M  V30 20965 H 2088.1 0.818267 4.08791 0
M  V30 20966 H 2086.76 -0.00468626 3.247 0
M  V30 20967 H 2087.77 3.67 3.65419 0
M  V30 20968 H 2084.45 1.11584 4.02312 0
M  V30 20969 H 2085.84 5.14659 4.31945 0
M  V30 20970 N 2088.56 -1.06056 1.16576 0
M  V30 20971 C 2089.8 -1.79164 0.950155 0
M  V30 20972 C 2090.13 -1.87092 -0.520588 0
M  V30 20973 O 2089.41 -1.36429 -1.38627 0
M  V30 20974 C 2089.69 -3.23525 1.58125 0
M  V30 20975 C 2089.55 -3.23663 3.1235 0
M  V30 20976 C 2090.86 -4.21138 1.27792 0
M  V30 20977 H 2087.98 -0.650413 0.3466 0
M  V30 20978 H 2090.63 -1.24019 1.43942 0
M  V30 20979 H 2088.78 -3.70615 1.16521 0
M  V30 20980 H 2090.45 -2.84716 3.62953 0
M  V30 20981 H 2088.69 -2.62248 3.45555 0
M  V30 20982 H 2089.36 -4.25512 3.51629 0
M  V30 20983 H 2091.84 -3.82502 1.63803 0
M  V30 20984 H 2090.71 -5.20408 1.74547 0
M  V30 20985 H 2090.97 -4.4166 0.197169 0
M  V30 20986 N 2090.03 -0.964615 -1.24631 0
M  V30 20987 C 2090.97 -0.450114 -2.24737 0
M  V30 20988 C 2091.98 0.439462 -1.56756 0
M  V30 20989 O 2093.17 0.246133 -1.76795 0
M  V30 20990 C 2090.27 0.369784 -3.36877 0
M  V30 20991 C 2089.44 -0.509155 -4.34426 0
M  V30 20992 C 2088.5 0.254217 -5.25586 0
M  V30 20993 O 2087.53 -0.3508 -5.68118 0
M  V30 20994 N 2088.73 1.54463 -5.59573 0
M  V30 20995 H 2091.49 -1.31079 -2.69515 0
M  V30 20996 H 2089.05 -0.83609 -1.3864 0
M  V30 20997 H 2091.05 0.88843 -3.94828 0
M  V30 20998 H 2089.62 1.13137 -2.91408 0
M  V30 20999 H 2088.84 -1.20881 -3.75209 0
M  V30 21000 H 2090.12 -1.10871 -4.96573 0
M  V30 21001 H 2089.52 2.05794 -5.26939 0
M  V30 21002 H 2088.08 2.00904 -6.20065 0
M  V30 21003 N 2091.51 1.39445 -0.734362 0
M  V30 21004 C 2092.42 2.34405 -0.0955161 0
M  V30 21005 C 2093.44 1.58285 0.722625 0
M  V30 21006 O 2094.61 1.9058 0.65124 0
M  V30 21007 C 2091.68 3.3731 0.801447 0
M  V30 21008 C 2090.74 4.2929 -0.0288733 0
M  V30 21009 C 2089.97 5.27279 0.825373 0
M  V30 21010 O 2090.2 5.31743 2.06411 0
M  V30 21011 O 2089.13 6.01362 0.254373 0
M  V30 21012 H 2092.96 2.90693 -0.879273 0
M  V30 21013 H 2090.54 1.4096 -0.495025 0
M  V30 21014 H 2092.42 4.00368 1.31468 0
M  V30 21015 H 2091.1 2.83408 1.56403 0
M  V30 21016 H 2090 3.69456 -0.587608 0
M  V30 21017 H 2091.34 4.86396 -0.753661 0
M  V30 21018 N 2092.99 0.481946 1.5005 0
M  V30 21019 C 2094.22 -0.0665508 2.06493 0
M  V30 21020 C 2094.63 -1.3309 1.34476 0
M  V30 21021 O 2093.97 -1.79046 0.410882 0
M  V30 21022 C 2094.03 -0.409721 3.57158 0
M  V30 21023 C 2093.7 0.754158 4.50734 0
M  V30 21024 C 2094.69 1.63929 4.93379 0
M  V30 21025 C 2092.38 0.947563 4.93281 0
M  V30 21026 C 2094.37 2.70214 5.77289 0
M  V30 21027 C 2092.06 2.01362 5.76972 0
M  V30 21028 C 2093.06 2.88927 6.18878 0
M  V30 21029 O 2092.75 3.93695 7.00899 0
M  V30 21030 H 2092.48 0.00864043 0.675945 0
M  V30 21031 H 2095.03 0.672929 1.94064 0
M  V30 21032 H 2093.26 -1.20254 3.67527 0
M  V30 21033 H 2094.95 -0.894578 3.95919 0
M  V30 21034 H 2095.72 1.5016 4.61169 0
M  V30 21035 H 2091.6 0.275431 4.60176 0
M  V30 21036 H 2095.14 3.38592 6.09919 0
M  V30 21037 H 2091.04 2.15133 6.08595 0
M  V30 21038 H 2091.8 3.90816 7.1917 0
M  V30 21039 N 2094.47 -1.56127 0.214985 0
M  V30 21040 C 2095.72 -1.97737 -0.417663 0
M  V30 21041 C 2096.04 -1.10368 -1.6076 0
M  V30 21042 O 2095.31 -0.179261 -1.95078 0
M  V30 21043 H 2093.89 -0.730251 -0.157298 0
M  V30 21044 H 2096.55 -1.92477 0.306351 0
M  V30 21045 H 2095.64 -3.02994 -0.748421 0
M  V30 21046 N 2095.95 0.0584645 -1.57492 0
M  V30 21047 C 2097.17 0.771417 -1.9252 0
M  V30 21048 C 2097.6 1.69644 -0.812561 0
M  V30 21049 O 2096.95 1.79786 0.233784 0
M  V30 21050 C 2097 1.52975 -3.26544 0
M  V30 21051 O 2096.11 2.64128 -3.16718 0
M  V30 21052 H 2095.45 0.209569 -0.630061 0
M  V30 21053 H 2097.98 0.022721 -2.04587 0
M  V30 21054 H 2097.99 1.90612 -3.60737 0
M  V30 21055 H 2096.66 0.851136 -4.07098 0
M  V30 21056 H 2095.24 2.29251 -2.94106 0
M  V30 21057 N 2097.42 1.54103 0.330149 0
M  V30 21058 C 2098.7 1.62635 1.0867 0
M  V30 21059 C 2099.08 0.456041 2.06115 0
M  V30 21060 O 2098.43 -0.550367 2.21773 0
M  V30 21061 C 2098.64 2.99332 1.79448 0
M  V30 21062 C 2099.99 3.55151 2.32708 0
M  V30 21063 O 2101.01 3.01594 1.89525 0
M  V30 21064 O 2099.87 4.4886 3.11749 0
M  V30 21065 H 2096.96 0.658337 0.500521 0
M  V30 21066 H 2099.51 1.66449 0.330568 0
M  V30 21067 H 2098.28 3.75947 1.08532 0
M  V30 21068 H 2097.9 2.99167 2.61887 0
M  V30 21069 N 2098.9 -0.59187 1.46064 0
M  V30 21070 C 2100.14 -1.36155 1.52451 0
M  V30 21071 C 2100.51 -1.9126 0.168367 0
M  V30 21072 O 2101.71 -2.68587 0.106964 0
M  V30 21073 C 2099.98 -2.46736 2.58565 0
M  V30 21074 S 2101.54 -3.34251 2.84292 0
M  V30 21075 H 2098.36 -0.463989 0.538735 0
M  V30 21076 H 2100.96 -0.681358 1.83242 0
M  V30 21077 H 2099.66 -2.04629 3.55746 0
M  V30 21078 H 2099.19 -3.19538 2.29476 0
M  V30 21079 H 2101.21 -4.45323 2.18865 0
M  V30 21080 N 2100.38 -1.33616 -0.835729 0
M  V30 21081 C 2101.79 -1.22666 -1.40748 0
M  V30 21082 C 2102.14 0.153155 -1.95601 0
M  V30 21083 O 2101.27 1.0529 -1.89058 0
M  V30 21084 C 2101.86 -2.22087 -2.55857 0
M  V30 21085 C 2100.42 -2.14967 -3.08976 0
M  V30 21086 C 2099.57 -2.09399 -1.81789 0
M  V30 21087 H 2102.52 -1.45169 -0.641222 0
M  V30 21088 H 2102.54 -1.83042 -3.3358 0
M  V30 21089 H 2102.05 -3.22502 -2.15903 0
M  V30 21090 H 2100.15 -1.17865 -3.53466 0
M  V30 21091 H 2100.27 -3.05652 -3.68936 0
M  V30 21092 H 2098.63 -1.54922 -2.02166 0
M  V30 21093 H 2099.41 -3.11626 -1.44027 0
M  V30 21094 N 2101.86 1.05436 -1.17136 0
M  V30 21095 C 2103.27 1.59854 -0.964558 0
M  V30 21096 C 2103.62 1.89999 0.489367 0
M  V30 21097 O 2102.75 1.67983 1.36421 0
M  V30 21098 C 2103.34 2.90432 -1.74455 0
M  V30 21099 C 2101.9 3.41518 -1.58249 0
M  V30 21100 C 2101.05 2.15286 -1.74777 0
M  V30 21101 H 2104 0.882787 -1.31881 0
M  V30 21102 H 2104.02 3.60225 -1.22548 0
M  V30 21103 H 2103.53 2.6846 -2.80269 0
M  V30 21104 H 2101.63 3.68531 -0.549129 0
M  V30 21105 H 2101.74 4.16267 -2.37188 0
M  V30 21106 H 2100.11 2.25927 -1.17596 0
M  V30 21107 H 2100.89 1.95787 -2.81997 0
M  V30 21108 N 2103.34 0.971211 1.24118 0
M  V30 21109 C 2104.75 0.673347 1.74135 0
M  V30 21110 C 2105.1 -0.810809 1.78663 0
M  V30 21111 O 2104.22 -1.63435 1.41838 0
M  V30 21112 C 2104.82 1.21558 3.16242 0
M  V30 21113 C 2103.38 0.967552 3.63752 0
M  V30 21114 C 2102.52 1.34881 2.42286 0
M  V30 21115 H 2105.48 1.14613 1.09771 0
M  V30 21116 H 2105.5 0.583554 3.75999 0
M  V30 21117 H 2105.01 2.29578 3.12914 0
M  V30 21118 H 2103.11 -0.0969669 3.72474 0
M  V30 21119 H 2103.22 1.61567 4.51035 0
M  V30 21120 H 2101.59 0.767209 2.4287 0
M  V30 21121 H 2102.37 2.43858 2.41637 0
M  V30 21122 N 2104.81 -1.39054 0.741747 0
M  V30 21123 C 2105.76 -2.32404 0.0954067 0
M  V30 21124 C 2106.76 -1.53411 -0.71843 0
M  V30 21125 O 2107.96 -1.69027 -0.618858 0
M  V30 21126 H 2104.34 -0.751903 0.0120533 0
M  V30 21127 H 2106.31 -2.84536 0.899003 0
M  V30 21128 C 2105.06 -3.38546 -0.79258 0
M  V30 21129 H 2104.38 -3.99414 -0.175739 0
M  V30 21130 H 2105.82 -4.06299 -1.21232 0
M  V30 21131 C 2104.28 -2.76145 -1.92991 0
M  V30 21132 O 2104.81 -2.6452 -3.02311 0
M  V30 21133 N 2103.02 -2.34131 -1.72137 0
M  V30 21134 H 2102.56 -2.43786 -0.832227 0
M  V30 21135 H 2102.52 -1.92721 -2.48407 0
M  V30 21136 N 2106.29 -0.489897 -1.49792 0
M  V30 21137 C 2107.52 0.0556798 -2.06825 0
M  V30 21138 C 2107.94 1.31825 -1.35158 0
M  V30 21139 O 2107.29 1.77446 -0.426503 0
M  V30 21140 C 2107.34 0.324604 -3.6004 0
M  V30 21141 O 2107.06 -0.887904 -4.29008 0
M  V30 21142 C 2108.57 0.91506 -4.33753 0
M  V30 21143 H 2105.79 -0.0154889 -0.670821 0
M  V30 21144 H 2108.33 -0.684073 -1.92719 0
M  V30 21145 H 2106.48 1.01432 -3.73885 0
M  V30 21146 H 2106.9 -0.643954 -5.20532 0
M  V30 21147 H 2108.37 1.05288 -5.41866 0
M  V30 21148 H 2108.85 1.91003 -3.95493 0
M  V30 21149 H 2109.46 0.263155 -4.24485 0
M  V30 21150 N 2107.77 1.56011 -0.223262 0
M  V30 21151 C 2109.19 1.59052 0.132091 0
M  V30 21152 C 2109.39 1.2401 1.5882 0
M  V30 21153 O 2108.44 0.976155 2.32868 0
M  V30 21154 C 2109.76 3.00062 -0.195742 0
M  V30 21155 C 2111.3 3.12695 -0.138118 0
M  V30 21156 C 2111.78 4.55885 -0.439651 0
M  V30 21157 N 2113.27 4.61561 -0.389284 0
M  V30 21158 C 2114 5.70293 -0.596069 0
M  V30 21159 N 2113.5 6.87382 -0.86472 0
M  V30 21160 N 2115.29 5.59611 -0.528389 0
M  V30 21161 H 2107.44 1.77064 -1.17312 0
M  V30 21162 H 2109.71 0.823097 -0.470336 0
M  V30 21163 H 2109.41 3.3036 -1.20644 0
M  V30 21164 H 2109.29 3.74024 0.48845 0
M  V30 21165 H 2111.67 2.82192 0.863219 0
M  V30 21166 H 2111.76 2.41059 -0.855813 0
M  V30 21167 H 2111.4 4.87105 -1.43843 0
M  V30 21168 H 2111.33 5.25749 0.299255 0
M  V30 21169 H 2113.82 3.77425 -0.189406 0
M  V30 21170 H 2114.13 7.66164 -1.01056 0
M  V30 21171 H 2112.48 6.89123 -0.901933 0
M  V30 21172 H 2115.67 4.67014 -0.318724 0
M  V30 21173 H 2115.84 6.44284 -0.69295 0
M  V30 21174 N 2109.25 -0.0501116 1.5752 0
M  V30 21175 C 2110.66 -0.405366 1.54366 0
M  V30 21176 C 2110.86 -1.77885 0.946523 0
M  V30 21177 O 2109.92 -2.46248 0.558406 0
M  V30 21178 C 2111.23 -0.326523 2.98922 0
M  V30 21179 C 2112.78 -0.40514 3.10367 0
M  V30 21180 C 2113.26 -0.355974 4.56615 0
M  V30 21181 N 2114.75 -0.415404 4.61334 0
M  V30 21182 C 2115.48 -0.39992 5.72004 0
M  V30 21183 N 2114.98 -0.337966 6.91975 0
M  V30 21184 N 2116.77 -0.448091 5.60311 0
M  V30 21185 H 2108.92 0.848979 1.94695 0
M  V30 21186 H 2111.19 0.320787 0.892076 0
M  V30 21187 H 2110.89 0.616487 3.46255 0
M  V30 21188 H 2110.77 -1.12839 3.59927 0
M  V30 21189 H 2113.15 -1.33858 2.62995 0
M  V30 21190 H 2113.23 0.425702 2.52233 0
M  V30 21191 H 2112.88 0.573705 5.04649 0
M  V30 21192 H 2112.81 -1.20464 5.12636 0
M  V30 21193 H 2115.3 -0.466654 3.75008 0
M  V30 21194 H 2115.61 -0.330673 7.72092 0
M  V30 21195 H 2113.96 -0.304327 6.94333 0
M  V30 21196 H 2117.15 -0.494336 4.65482 0
M  V30 21197 H 2117.32 -0.432555 6.46555 0
M  V30 21198 N 2110.73 -1.54276 -0.321972 0
M  V30 21199 C 2111.97 -1.72813 -1.0613 0
M  V30 21200 C 2112.31 -0.501222 -1.8762 0
M  V30 21201 O 2111.58 0.501806 -1.87915 0
M  V30 21202 C 2111.86 -3.00469 -1.9847 0
M  V30 21203 C 2111.72 -4.33415 -1.20299 0
M  V30 21204 C 2113.04 -3.23886 -2.97969 0
M  V30 21205 H 2110.15 -0.628793 -0.384432 0
M  V30 21206 H 2112.8 -1.86973 -0.337811 0
M  V30 21207 H 2110.95 -2.88528 -2.60161 0
M  V30 21208 H 2112.62 -4.57242 -0.610559 0
M  V30 21209 H 2110.86 -4.30847 -0.505293 0
M  V30 21210 H 2111.53 -5.18959 -1.8811 0
M  V30 21211 H 2114.01 -3.353 -2.46401 0
M  V30 21212 H 2112.88 -4.14562 -3.59763 0
M  V30 21213 H 2113.15 -2.4119 -3.70513 0
M  V30 21214 N 2112.2 0.584116 -1.46376 0
M  V30 21215 C 2113.43 1.36646 -1.54956 0
M  V30 21216 C 2113.84 1.88253 -0.189086 0
M  V30 21217 O 2113.19 1.64204 0.823577 0
M  V30 21218 C 2113.25 2.59061 -2.49254 0
M  V30 21219 C 2112.91 2.28931 -3.95524 0
M  V30 21220 C 2113.91 1.87853 -4.84775 0
M  V30 21221 C 2111.59 2.41119 -4.40644 0
M  V30 21222 C 2113.59 1.59356 -6.17158 0
M  V30 21223 C 2111.27 2.12234 -5.73062 0
M  V30 21224 C 2112.27 1.71417 -6.61139 0
M  V30 21225 O 2111.96 1.42885 -7.911 0
M  V30 21226 H 2111.69 0.423848 -0.52662 0
M  V30 21227 H 2114.25 0.717203 -1.92472 0
M  V30 21228 H 2112.48 3.26787 -2.06754 0
M  V30 21229 H 2114.17 3.21128 -2.48257 0
M  V30 21230 H 2114.93 1.77953 -4.51174 0
M  V30 21231 H 2110.81 2.71852 -3.72313 0
M  V30 21232 H 2114.35 1.27422 -6.85864 0
M  V30 21233 H 2110.25 2.21758 -6.06212 0
M  V30 21234 H 2111.02 1.56742 -8.03352 0
M  V30 21235 N 2113.68 1.34058 0.828631 0
M  V30 21236 C 2114.93 1.25437 1.57951 0
M  V30 21237 C 2115.25 -0.175484 1.94811 0
M  V30 21238 O 2116.45 -0.383797 2.68774 0
M  V30 21239 C 2114.91 2.19853 2.84943 0
M  V30 21240 C 2114.52 3.68064 2.55407 0
M  V30 21241 C 2116.26 2.20128 3.62966 0
M  V30 21242 C 2114.17 4.54366 3.78557 0
M  V30 21243 H 2113.1 0.465952 0.592794 0
M  V30 21244 H 2115.75 1.59187 0.912783 0
M  V30 21245 H 2114.13 1.79047 3.53211 0
M  V30 21246 H 2115.3 4.17373 1.95286 0
M  V30 21247 H 2113.62 3.70181 1.9067 0
M  V30 21248 H 2116.22 2.81831 4.54396 0
M  V30 21249 H 2116.56 1.19905 3.98658 0
M  V30 21250 H 2117.09 2.59349 3.01634 0
M  V30 21251 H 2113.83 5.55503 3.47989 0
M  V30 21252 H 2113.35 4.09795 4.37982 0
M  V30 21253 H 2115.03 4.68687 4.46029 0
M  V30 21254 N 2115.16 -1.04814 1.17694 0
M  V30 21255 C 2116.39 -1.82088 0.992908 0
M  V30 21256 C 2116.81 -1.82538 -0.454023 0
M  V30 21257 O 2116.17 -1.23716 -1.3253 0
M  V30 21258 C 2116.22 -3.25912 1.54318 0
M  V30 21259 O 2115.32 -4.05346 0.759486 0
M  V30 21260 H 2114.66 -0.562852 0.352268 0
M  V30 21261 H 2117.19 -1.32054 1.56279 0
M  V30 21262 H 2117.2 -3.76705 1.56708 0
M  V30 21263 H 2115.88 -3.24899 2.59641 0
M  V30 21264 H 2114.45 -3.64056 0.807298 0
M  V30 21265 N 2116.64 -0.977779 -1.23601 0
M  V30 21266 C 2117.87 -0.662189 -1.957 0
M  V30 21267 C 2118.28 0.77446 -1.72623 0
M  V30 21268 O 2117.62 1.53247 -1.01297 0
M  V30 21269 C 2117.68 -0.869464 -3.48827 0
M  V30 21270 C 2117.35 -2.28768 -3.95619 0
M  V30 21271 C 2118.34 -3.26617 -4.04497 0
M  V30 21272 C 2116.03 -2.61807 -4.28675 0
M  V30 21273 C 2118.02 -4.55586 -4.45781 0
M  V30 21274 C 2115.71 -3.91 -4.69641 0
M  V30 21275 C 2116.71 -4.87701 -4.7816 0
M  V30 21276 O 2116.4 -6.14587 -5.18206 0
M  V30 21277 H 2116.13 -0.245256 -0.629941 0
M  V30 21278 H 2118.68 -1.31105 -1.58116 0
M  V30 21279 H 2116.91 -0.163432 -3.86354 0
M  V30 21280 H 2118.6 -0.551434 -4.02137 0
M  V30 21281 H 2119.37 -3.02422 -3.79165 0
M  V30 21282 H 2115.25 -1.87252 -4.21257 0
M  V30 21283 H 2118.79 -5.31065 -4.52345 0
M  V30 21284 H 2114.69 -4.14991 -4.94422 0
M  V30 21285 H 2115.45 -6.18301 -5.36326 0
M  V30 21286 N 2118.12 1.38658 -0.749111 0
M  V30 21287 C 2119.05 2.33116 -0.133797 0
M  V30 21288 C 2120.03 1.54639 0.708583 0
M  V30 21289 O 2121.21 1.82975 0.650684 0
M  V30 21290 C 2118.34 3.38802 0.763563 0
M  V30 21291 C 2117.3 4.27993 0.0242578 0
M  V30 21292 C 2116.62 5.24497 1.03957 0
M  V30 21293 C 2117.92 5.09673 -1.14151 0
M  V30 21294 H 2119.62 2.84823 -0.922842 0
M  V30 21295 H 2117.16 1.36944 -0.445221 0
M  V30 21296 H 2119.12 4.03844 1.20366 0
M  V30 21297 H 2117.84 2.85568 1.58488 0
M  V30 21298 H 2116.5 3.64451 -0.39637 0
M  V30 21299 H 2116.15 4.67552 1.85483 0
M  V30 21300 H 2115.85 5.85024 0.549587 0
M  V30 21301 H 2117.37 5.92415 1.47908 0
M  V30 21302 H 2118.79 5.6798 -0.779174 0
M  V30 21303 H 2117.18 5.79413 -1.56206 0
M  V30 21304 H 2118.25 4.43675 -1.95654 0
M  V30 21305 N 2119.6 0.497834 1.49531 0
M  V30 21306 C 2120.87 -0.110673 1.95287 0
M  V30 21307 C 2121.25 -1.54433 1.43923 0
M  V30 21308 O 2120.6 -2.19012 0.651616 0
M  V30 21309 C 2120.81 -0.0265636 3.4899 0
M  V30 21310 C 2122.16 -0.202082 4.24119 0
M  V30 21311 O 2123.18 -0.1019 3.56054 0
M  V30 21312 O 2122.04 -0.407373 5.4498 0
M  V30 21313 H 2119.14 -0.0970406 0.821287 0
M  V30 21314 H 2121.68 0.560146 1.60189 0
M  V30 21315 H 2120.45 0.973355 3.79001 0
M  V30 21316 H 2120.08 -0.737668 3.90697 0
M  V30 21317 N 2121.07 -1.5589 0.231532 0
M  V30 21318 C 2122.3 -2.03407 -0.405035 0
M  V30 21319 C 2122.72 -1.11007 -1.51852 0
M  V30 21320 O 2122.08 -0.100101 -1.81023 0
M  V30 21321 C 2122.13 -3.4907 -0.904554 0
M  V30 21322 O 2121.23 -3.59808 -2.01524 0
M  V30 21323 H 2120.57 -0.657819 -0.090391 0
M  V30 21324 H 2123.1 -2.0153 0.353092 0
M  V30 21325 H 2123.11 -3.89589 -1.21178 0
M  V30 21326 H 2121.79 -4.15803 -0.0896407 0
M  V30 21327 H 2120.37 -3.3118 -1.71388 0
M  V30 21328 N 2122.55 0.0417572 -1.57545 0
M  V30 21329 C 2123.8 0.734075 -1.87868 0
M  V30 21330 C 2124.11 1.77194 -0.828352 0
M  V30 21331 O 2125.32 2.51595 -1.02039 0
M  V30 21332 C 2123.78 1.35664 -3.33352 0
M  V30 21333 C 2123.38 0.355779 -4.46585 0
M  V30 21334 C 2125.13 2.02957 -3.72839 0
M  V30 21335 C 2123.03 0.985962 -5.83123 0
M  V30 21336 H 2121.96 0.277922 -0.70091 0
M  V30 21337 H 2124.62 -0.0119297 -1.83496 0
M  V30 21338 H 2123 2.15192 -3.32428 0
M  V30 21339 H 2124.17 -0.411871 -4.58956 0
M  V30 21340 H 2122.49 -0.214356 -4.15848 0
M  V30 21341 H 2125.08 2.50935 -4.72161 0
M  V30 21342 H 2125.43 2.84222 -3.04176 0
M  V30 21343 H 2125.96 1.3022 -3.75882 0
M  V30 21344 H 2122.7 0.212992 -6.55154 0
M  V30 21345 H 2122.22 1.72375 -5.74497 0
M  V30 21346 H 2123.9 1.49705 -6.29442 0
M  V30 21347 N 2124.03 1.54445 0.313786 0
M  V30 21348 C 2124.98 1.80892 1.38787 0
M  V30 21349 C 2125.96 0.665408 1.46496 0
M  V30 21350 O 2127.16 0.92569 1.50864 0
M  V30 21351 C 2124.28 2.04839 2.75492 0
M  V30 21352 C 2123.37 3.25339 2.72057 0
M  V30 21353 N 2123.76 4.46179 2.3824 0
M  V30 21354 C 2122.06 3.2711 3.03175 0
M  V30 21355 C 2122.76 5.28152 2.43784 0
M  V30 21356 N 2121.74 4.65566 2.80622 0
M  V30 21357 H 2125.54 2.71893 1.11586 0
M  V30 21358 H 2123.05 1.53771 0.522315 0
M  V30 21359 H 2125.05 2.2193 3.52921 0
M  V30 21360 H 2123.71 1.15098 3.03616 0
M  V30 21361 H 2124.72 4.73006 2.10915 0
M  V30 21362 H 2121.4 2.47434 3.36277 0
M  V30 21363 H 2122.79 6.34672 2.20546 0
M  V30 21364 N 2125.51 -0.576345 1.46683 0
M  V30 21365 C 2126.75 -1.33432 1.52323 0
M  V30 21366 C 2127.08 -1.93688 0.177545 0
M  V30 21367 O 2126.34 -1.77343 -0.827521 0
M  V30 21368 C 2126.64 -2.4787 2.57479 0
M  V30 21369 C 2126.3 -2.05566 4.01314 0
M  V30 21370 C 2124.96 -1.93745 4.40473 0
M  V30 21371 C 2127.32 -1.7302 4.91644 0
M  V30 21372 C 2124.64 -1.47644 5.67819 0
M  V30 21373 C 2127 -1.28396 6.19433 0
M  V30 21374 C 2125.66 -1.15156 6.57492 0
M  V30 21375 H 2124.93 -0.488262 0.557388 0
M  V30 21376 H 2127.58 -0.648342 1.80191 0
M  V30 21377 H 2125.88 -3.21942 2.23295 0
M  V30 21378 H 2127.58 -3.06078 2.5907 0
M  V30 21379 H 2124.17 -2.15704 3.70364 0
M  V30 21380 H 2128.35 -1.81036 4.62104 0
M  V30 21381 H 2123.61 -1.36041 5.96073 0
M  V30 21382 H 2127.78 -1.02268 6.8885 0
M  V30 21383 H 2125.41 -0.792103 7.56062 0
M  V30 21384 N 2126.99 -1.34495 -0.82151 0
M  V30 21385 C 2128.23 -1.26931 -1.57781 0
M  V30 21386 C 2128.56 0.160345 -1.93838 0
M  V30 21387 O 2127.82 1.12196 -1.60345 0
M  V30 21388 C 2128.11 -2.10695 -2.88691 0
M  V30 21389 C 2127.78 -3.59682 -2.71919 0
M  V30 21390 C 2126.44 -4.00295 -2.67053 0
M  V30 21391 C 2128.79 -4.5428 -2.55497 0
M  V30 21392 C 2126.12 -5.33698 -2.43687 0
M  V30 21393 C 2128.47 -5.87864 -2.33663 0
M  V30 21394 C 2127.14 -6.2764 -2.27209 0
M  V30 21395 H 2126.41 -0.464474 -0.57736 0
M  V30 21396 H 2129.06 -1.66251 -0.950411 0
M  V30 21397 H 2127.36 -1.64208 -3.55729 0
M  V30 21398 H 2129.06 -2.02188 -3.46296 0
M  V30 21399 H 2125.65 -3.27444 -2.76547 0
M  V30 21400 H 2129.83 -4.23799 -2.58279 0
M  V30 21401 H 2125.09 -5.63534 -2.37149 0
M  V30 21402 H 2129.26 -6.60756 -2.19943 0
M  V30 21403 H 2126.89 -7.30944 -2.08865 0
M  V30 21404 N 2128.46 1.04188 -1.18248 0
M  V30 21405 C 2129.88 1.29568 -0.931902 0
M  V30 21406 C 2130.08 1.97424 0.403235 0
M  V30 21407 O 2129.14 2.25409 1.13785 0
M  V30 21408 C 2130.45 2.15557 -2.09656 0
M  V30 21409 C 2132 2.28907 -2.13473 0
M  V30 21410 C 2132.47 3.18262 -3.29353 0
M  V30 21411 N 2133.96 3.25849 -3.29206 0
M  V30 21412 C 2134.7 3.95141 -4.15513 0
M  V30 21413 N 2134.19 4.66775 -5.1195 0
M  V30 21414 N 2135.99 3.91408 -4.03431 0
M  V30 21415 H 2128.14 0.585496 -2.04171 0
M  V30 21416 H 2130.4 0.320854 -0.892052 0
M  V30 21417 H 2130.11 1.73002 -3.06208 0
M  V30 21418 H 2129.98 3.16231 -2.05616 0
M  V30 21419 H 2132.37 2.70698 -1.175 0
M  V30 21420 H 2132.45 1.27828 -2.21571 0
M  V30 21421 H 2132.09 2.77182 -4.25597 0
M  V30 21422 H 2132.02 4.1937 -3.18491 0
M  V30 21423 H 2134.51 2.74819 -2.59389 0
M  V30 21424 H 2134.83 5.17239 -5.74181 0
M  V30 21425 H 2133.17 4.65683 -5.15911 0
M  V30 21426 H 2136.36 3.34577 -3.27377 0
M  V30 21427 H 2136.54 4.45139 -4.70909 0
M  V30 21428 N 2129.94 0.98432 1.23081 0
M  V30 21429 C 2131.35 0.691779 1.73411 0
M  V30 21430 C 2131.7 -0.791814 1.79513 0
M  V30 21431 O 2130.83 -1.61921 1.43563 0
M  V30 21432 C 2131.42 1.24906 3.14935 0
M  V30 21433 C 2129.98 1.00608 3.62705 0
M  V30 21434 C 2129.13 1.37443 2.40842 0
M  V30 21435 H 2132.08 1.1577 1.08549 0
M  V30 21436 H 2132.1 0.623401 3.75358 0
M  V30 21437 H 2131.61 2.32884 3.10462 0
M  V30 21438 H 2129.72 -0.0574556 3.72556 0
M  V30 21439 H 2129.83 1.66341 4.49296 0
M  V30 21440 H 2128.19 0.792926 2.42043 0
M  V30 21441 H 2128.98 2.46407 2.39037 0
M  V30 21442 N 2131.42 -1.38259 0.756453 0
M  V30 21443 C 2132.84 -1.53575 0.434365 0
M  V30 21444 C 2133.04 -1.71851 -1.05212 0
M  V30 21445 O 2132.09 -1.73115 -1.83814 0
M  V30 21446 C 2133.41 -2.74118 1.23611 0
M  V30 21447 C 2134.95 -2.8797 1.22647 0
M  V30 21448 C 2135.43 -4.11477 2.01124 0
M  V30 21449 N 2136.92 -4.1856 1.98399 0
M  V30 21450 C 2137.65 -5.13124 2.55913 0
M  V30 21451 N 2137.15 -6.13343 3.22153 0
M  V30 21452 N 2138.94 -5.05495 2.45827 0
M  V30 21453 H 2131.09 -1.24647 1.7198 0
M  V30 21454 H 2133.36 -0.605745 0.72923 0
M  V30 21455 H 2133.06 -2.67028 2.28886 0
M  V30 21456 H 2132.94 -3.67384 0.854919 0
M  V30 21457 H 2135.32 -2.9454 0.181771 0
M  V30 21458 H 2135.41 -1.95707 1.6472 0
M  V30 21459 H 2135.05 -4.05669 3.05607 0
M  V30 21460 H 2134.98 -5.02825 1.56444 0
M  V30 21461 H 2137.47 -3.46785 1.50161 0
M  V30 21462 H 2137.78 -6.81999 3.63451 0
M  V30 21463 H 2136.13 -6.13667 3.26248 0
M  V30 21464 H 2139.32 -4.26141 1.93705 0
M  V30 21465 H 2139.49 -5.79012 2.90946 0
M  V30 21466 N 2132.9 -0.505757 -1.49264 0
M  V30 21467 C 2134.14 0.0353761 -2.04369 0
M  V30 21468 C 2134.5 1.33838 -1.37664 0
M  V30 21469 O 2135.7 1.96405 -1.83517 0
M  V30 21470 C 2133.97 0.179725 -3.56948 0
M  V30 21471 S 2135.53 0.67442 -4.33586 0
M  V30 21472 H 2132.35 -0.000491907 -0.711 0
M  V30 21473 H 2134.95 -0.680807 -1.83263 0
M  V30 21474 H 2133.66 -0.773835 -4.03038 0
M  V30 21475 H 2133.19 0.921008 -3.82467 0
M  V30 21476 H 2135.2 1.94284 -4.56583 0
M  V30 21477 N 2134.38 1.55765 -0.239796 0
M  V30 21478 C 2135.31 2.24064 0.657067 0
M  V30 21479 C 2136.29 1.2185 1.18687 0
M  V30 21480 O 2137.47 1.50484 1.22753 0
M  V30 21481 C 2134.6 2.93465 1.8573 0
M  V30 21482 C 2133.56 4.02307 1.46057 0
M  V30 21483 C 2132.88 4.59097 2.74106 0
M  V30 21484 C 2134.18 5.18402 0.636932 0
M  V30 21485 H 2135.88 2.99272 0.0875675 0
M  V30 21486 H 2133.42 1.43943 0.0406772 0
M  V30 21487 H 2135.38 3.39943 2.49032 0
M  V30 21488 H 2134.1 2.15734 2.45207 0
M  V30 21489 H 2132.76 3.56588 0.850935 0
M  V30 21490 H 2132.41 3.78075 3.31766 0
M  V30 21491 H 2132.11 5.32566 2.48288 0
M  V30 21492 H 2133.63 5.08304 3.38318 0
M  V30 21493 H 2135.04 5.61149 1.17408 0
M  V30 21494 H 2133.44 5.98216 0.475092 0
M  V30 21495 H 2134.51 4.83617 -0.352445 0
M  V30 21496 N 2135.85 -0.0334016 1.57565 0
M  V30 21497 C 2137.27 -0.388971 1.54788 0
M  V30 21498 C 2137.47 -1.76871 0.965337 0
M  V30 21499 O 2136.53 -2.45642 0.584492 0
M  V30 21500 C 2137.84 -0.2948 2.99251 0
M  V30 21501 C 2139.39 -0.372199 3.10779 0
M  V30 21502 C 2139.86 -0.307524 4.56966 0
M  V30 21503 N 2141.35 -0.36645 4.61748 0
M  V30 21504 C 2142.09 -0.339229 5.72396 0
M  V30 21505 N 2141.58 -0.264554 6.92295 0
M  V30 21506 N 2143.38 -0.388638 5.60755 0
M  V30 21507 H 2135.53 0.869581 1.93783 0
M  V30 21508 H 2137.79 0.330231 0.888623 0
M  V30 21509 H 2137.5 0.653177 3.45581 0
M  V30 21510 H 2137.37 -1.09016 3.61103 0
M  V30 21511 H 2139.76 -1.31061 2.64399 0
M  V30 21512 H 2139.84 0.452431 2.51767 0
M  V30 21513 H 2139.48 0.627198 5.04013 0
M  V30 21514 H 2139.41 -1.1502 5.13885 0
M  V30 21515 H 2141.9 -0.426853 3.75482 0
M  V30 21516 H 2142.22 -0.248764 7.724 0
M  V30 21517 H 2140.56 -0.230666 6.94617 0
M  V30 21518 H 2143.75 -0.444937 4.65981 0
M  V30 21519 H 2143.93 -0.363955 6.46977 0
M  V30 21520 N 2137.33 -1.54609 -0.305591 0
M  V30 21521 C 2138.56 -1.77658 -1.06044 0
M  V30 21522 C 2138.98 -0.533827 -1.81096 0
M  V30 21523 O 2138.33 0.496175 -1.75626 0
M  V30 21524 C 2138.38 -2.98126 -2.04458 0
M  V30 21525 O 2138.1 -4.17598 -1.32452 0
M  V30 21526 C 2139.61 -3.33527 -2.92018 0
M  V30 21527 H 2136.83 -0.592632 -0.314688 0
M  V30 21528 H 2139.37 -2.01547 -0.346258 0
M  V30 21529 H 2137.52 -2.76458 -2.71385 0
M  V30 21530 H 2137.94 -4.85485 -1.98506 0
M  V30 21531 H 2139.41 -4.21074 -3.56932 0
M  V30 21532 H 2139.89 -2.5148 -3.60076 0
M  V30 21533 H 2140.5 -3.57338 -2.30628 0
M  V30 21534 N 2138.81 0.568558 -1.46987 0
M  V30 21535 C 2139.77 1.65862 -1.58185 0
M  V30 21536 C 2140.77 1.54145 -0.457828 0
M  V30 21537 O 2141.96 1.58507 -0.722567 0
M  V30 21538 C 2139.1 3.05356 -1.5156 0
M  V30 21539 H 2140.29 1.57286 -2.55345 0
M  V30 21540 H 2137.84 0.787562 -1.35008 0
M  V30 21541 H 2138.58 3.19475 -0.557329 0
M  V30 21542 H 2138.36 3.1527 -2.33125 0
M  V30 21543 H 2139.85 3.84682 -1.62511 0
M  V30 21544 N 2140.29 1.34929 0.814366 0
M  V30 21545 C 2141.53 1.27956 1.57338 0
M  V30 21546 C 2141.87 -0.147896 1.93636 0
M  V30 21547 O 2141.14 -1.09539 1.60722 0
M  V30 21548 C 2141.43 2.17862 2.8672 0
M  V30 21549 C 2141.28 3.69185 2.56948 0
M  V30 21550 C 2142.6 2.07033 3.88362 0
M  V30 21551 H 2139.72 0.466149 0.570854 0
M  V30 21552 H 2142.36 1.65259 0.937513 0
M  V30 21553 H 2140.51 1.86178 3.40984 0
M  V30 21554 H 2142.18 4.11275 2.08927 0
M  V30 21555 H 2140.42 3.89851 1.90259 0
M  V30 21556 H 2141.09 4.2747 3.49247 0
M  V30 21557 H 2143.57 2.34869 3.43476 0
M  V30 21558 H 2142.45 2.72151 4.76681 0
M  V30 21559 H 2142.71 1.04989 4.29453 0
M  V30 21560 N 2141.77 -1.0356 1.18799 0
M  V30 21561 C 2143 -1.80226 1.01006 0
M  V30 21562 C 2143.4 -1.83904 -0.444538 0
M  V30 21563 O 2142.75 -1.27698 -1.32056 0
M  V30 21564 C 2142.81 -3.26949 1.49481 0
M  V30 21565 C 2142.47 -3.46921 2.97481 0
M  V30 21566 C 2143.47 -3.37692 3.95297 0
M  V30 21567 C 2141.16 -3.73353 3.36025 0
M  V30 21568 C 2143.15 -3.54609 5.29652 0
M  V30 21569 C 2140.84 -3.89916 4.70541 0
M  V30 21570 C 2141.83 -3.80545 5.67164 0
M  V30 21571 O 2141.52 -3.96627 6.99244 0
M  V30 21572 H 2141.25 -0.574238 0.356688 0
M  V30 21573 H 2143.81 -1.31373 1.57894 0
M  V30 21574 H 2142.04 -3.76795 0.869635 0
M  V30 21575 H 2143.73 -3.85189 1.28001 0
M  V30 21576 H 2144.49 -3.1723 3.66865 0
M  V30 21577 H 2140.37 -3.79743 2.61374 0
M  V30 21578 H 2143.92 -3.47211 6.05054 0
M  V30 21579 H 2139.81 -4.09873 4.98672 0
M  V30 21580 H 2140.58 -4.13758 7.0622 0
M  V30 21581 N 2143.25 -0.990834 -1.22557 0
M  V30 21582 C 2144.2 -0.510644 -2.22208 0
M  V30 21583 C 2145.18 0.420042 -1.55321 0
M  V30 21584 O 2146.37 0.247197 -1.75265 0
M  V30 21585 C 2143.5 0.17541 -3.42852 0
M  V30 21586 C 2142.59 -0.775458 -4.1695 0
M  V30 21587 N 2142.98 -1.92244 -4.67842 0
M  V30 21588 C 2141.28 -0.590913 -4.42068 0
M  V30 21589 C 2141.98 -2.5191 -5.24325 0
M  V30 21590 N 2140.95 -1.80198 -5.12864 0
M  V30 21591 H 2144.75 -1.38546 -2.59195 0
M  V30 21592 H 2142.27 -0.852831 -1.38205 0
M  V30 21593 H 2144.27 0.536797 -4.1343 0
M  V30 21594 H 2142.93 1.04638 -3.07377 0
M  V30 21595 H 2143.94 -2.3033 -4.63863 0
M  V30 21596 H 2140.61 0.234168 -4.16843 0
M  V30 21597 H 2142 -3.48832 -5.74252 0
M  V30 21598 N 2144.72 1.37856 -0.763775 0
M  V30 21599 C 2145.63 2.3415 -0.145216 0
M  V30 21600 C 2146.65 1.59782 0.688888 0
M  V30 21601 O 2147.83 1.91919 0.610668 0
M  V30 21602 C 2144.89 3.38934 0.729718 0
M  V30 21603 C 2143.95 4.29132 -0.119926 0
M  V30 21604 C 2143.18 5.28911 0.713343 0
M  V30 21605 O 2143.41 5.36002 1.95086 0
M  V30 21606 O 2142.34 6.01767 0.126758 0
M  V30 21607 H 2146.17 2.88763 -0.940736 0
M  V30 21608 H 2143.75 1.39879 -0.524814 0
M  V30 21609 H 2145.63 4.03066 1.22946 0
M  V30 21610 H 2144.31 2.86661 1.50356 0
M  V30 21611 H 2143.22 3.68127 -0.665843 0
M  V30 21612 H 2144.55 4.84688 -0.856664 0
M  V30 21613 N 2146.2 0.513665 1.48994 0
M  V30 21614 C 2147.45 -0.0282469 2.0168 0
M  V30 21615 C 2147.76 -1.36865 1.3974 0
M  V30 21616 O 2148.97 -1.99799 1.83828 0
M  V30 21617 C 2147.43 -0.100776 3.59759 0
M  V30 21618 C 2147.03 1.23375 4.30677 0
M  V30 21619 C 2148.78 -0.592381 4.20346 0
M  V30 21620 C 2146.68 1.12269 5.80646 0
M  V30 21621 H 2145.61 -0.0143288 0.753864 0
M  V30 21622 H 2148.27 0.654994 1.71412 0
M  V30 21623 H 2146.65 -0.848743 3.86798 0
M  V30 21624 H 2147.82 1.996 4.15327 0
M  V30 21625 H 2146.14 1.65979 3.8189 0
M  V30 21626 H 2148.73 -0.69318 5.30188 0
M  V30 21627 H 2149.08 -1.59429 3.84562 0
M  V30 21628 H 2149.61 0.0994202 3.97676 0
M  V30 21629 H 2146.35 2.09925 6.20976 0
M  V30 21630 H 2145.87 0.401536 5.98454 0
M  V30 21631 H 2147.55 0.806614 6.41952 0
M  V30 21632 N 2147.68 -1.55636 0.248053 0
M  V30 21633 C 2148.61 -2.2441 -0.645175 0
M  V30 21634 C 2149.59 -1.22477 -1.18039 0
M  V30 21635 O 2150.78 -1.51133 -1.21953 0
M  V30 21636 C 2147.91 -2.94446 -1.84171 0
M  V30 21637 C 2146.86 -4.03076 -1.43922 0
M  V30 21638 C 2146.19 -4.60544 -2.71668 0
M  V30 21639 C 2147.49 -5.18732 -0.609431 0
M  V30 21640 H 2149.18 -2.99314 -0.0716951 0
M  V30 21641 H 2146.73 -1.43962 -0.033043 0
M  V30 21642 H 2148.68 -3.41259 -2.47225 0
M  V30 21643 H 2147.4 -2.17031 -2.44059 0
M  V30 21644 H 2146.06 -3.57034 -0.832012 0
M  V30 21645 H 2145.71 -3.79829 -3.29756 0
M  V30 21646 H 2145.41 -5.33876 -2.4546 0
M  V30 21647 H 2146.93 -5.10091 -3.35618 0
M  V30 21648 H 2148.35 -5.61764 -1.1443 0
M  V30 21649 H 2146.74 -5.9846 -0.443361 0
M  V30 21650 H 2147.81 -4.83424 0.378087 0
M  V30 21651 N 2149.16 0.0250451 -1.5758 0
M  V30 21652 C 2150.41 0.714108 -1.88636 0
M  V30 21653 C 2150.72 1.76305 -0.847099 0
M  V30 21654 O 2151.93 2.50499 -1.04702 0
M  V30 21655 C 2150.38 1.3212 -3.34772 0
M  V30 21656 C 2149.99 0.308393 -4.46937 0
M  V30 21657 C 2151.73 1.98991 -3.74971 0
M  V30 21658 C 2149.64 0.924059 -5.84136 0
M  V30 21659 H 2148.57 0.270472 -0.703819 0
M  V30 21660 H 2151.22 -0.0313912 -1.83473 0
M  V30 21661 H 2149.6 2.11654 -3.34692 0
M  V30 21662 H 2150.78 -0.460527 -4.58493 0
M  V30 21663 H 2149.09 -0.258451 -4.15597 0
M  V30 21664 H 2151.69 2.45913 -4.74796 0
M  V30 21665 H 2152.03 2.8098 -3.07174 0
M  V30 21666 H 2152.57 1.26226 -3.77242 0
M  V30 21667 H 2149.3 0.143492 -6.55343 0
M  V30 21668 H 2148.82 1.66272 -5.76293 0
M  V30 21669 H 2150.5 1.4302 -6.30995 0
M  V30 21670 N 2150.64 1.54769 0.297388 0
M  V30 21671 C 2151.88 1.73877 1.0301 0
M  V30 21672 C 2152.2 0.529442 1.87675 0
M  V30 21673 O 2151.47 -0.456215 1.90514 0
M  V30 21674 H 2150.05 0.641155 0.383313 0
M  V30 21675 H 2152.72 1.92129 0.3275 0
M  V30 21676 H 2151.81 2.62953 1.68113 0
M  V30 21677 N 2152.11 -0.560755 1.47286 0
M  V30 21678 C 2153.34 -1.34164 1.5711 0
M  V30 21679 C 2153.75 -1.87928 0.219012 0
M  V30 21680 O 2153.09 -1.65493 -0.797349 0
M  V30 21681 C 2153.16 -2.55063 2.53344 0
M  V30 21682 C 2152.82 -2.2261 3.99116 0
M  V30 21683 C 2153.82 -1.80117 4.87703 0
M  V30 21684 C 2151.5 -2.34079 4.44424 0
M  V30 21685 C 2153.5 -1.49517 6.19616 0
M  V30 21686 C 2151.18 -2.03091 5.76366 0
M  V30 21687 C 2152.18 -1.60877 6.63783 0
M  V30 21688 O 2151.87 -1.30281 7.93273 0
M  V30 21689 H 2151.6 -0.415417 0.533296 0
M  V30 21690 H 2154.16 -0.686492 1.93588 0
M  V30 21691 H 2152.39 -3.23457 2.11926 0
M  V30 21692 H 2154.07 -3.17138 2.53334 0
M  V30 21693 H 2154.84 -1.70753 4.53948 0
M  V30 21694 H 2150.72 -2.65895 3.76591 0
M  V30 21695 H 2154.26 -1.16495 6.87804 0
M  V30 21696 H 2150.16 -2.12086 6.09664 0
M  V30 21697 H 2150.93 -1.43942 8.05744 0
M  V30 21698 N 2153.59 -1.35359 -0.807199 0
M  V30 21699 C 2154.52 -1.30893 -1.93363 0
M  V30 21700 C 2155.5 -0.183475 -1.69108 0
M  V30 21701 O 2156.69 -0.378339 -1.90479 0
M  V30 21702 C 2153.82 -1.07954 -3.30096 0
M  V30 21703 C 2152.77 -2.17133 -3.68832 0
M  V30 21704 C 2152.1 -1.7936 -5.0372 0
M  V30 21705 C 2153.4 -3.59094 -3.79274 0
M  V30 21706 H 2155.09 -2.25145 -1.97357 0
M  V30 21707 H 2152.64 -1.08381 -0.948131 0
M  V30 21708 H 2154.59 -1.03469 -4.085 0
M  V30 21709 H 2153.31 -0.101468 -3.26442 0
M  V30 21710 H 2151.97 -2.20714 -2.92713 0
M  V30 21711 H 2151.62 -0.801733 -4.96569 0
M  V30 21712 H 2151.32 -2.52445 -5.30608 0
M  V30 21713 H 2152.85 -1.764 -5.84564 0
M  V30 21714 H 2154.26 -3.57839 -4.47911 0
M  V30 21715 H 2152.66 -4.30934 -4.17632 0
M  V30 21716 H 2153.73 -3.9529 -2.80845 0
M  V30 21717 N 2155.07 1.02928 -1.19346 0
M  V30 21718 C 2155.98 2.14674 -0.946161 0
M  V30 21719 C 2157 1.73748 0.0936895 0
M  V30 21720 O 2158.17 2.01195 -0.0908598 0
M  V30 21721 C 2155.24 3.43253 -0.487673 0
M  V30 21722 C 2154.3 3.98496 -1.59686 0
M  V30 21723 C 2153.53 5.20938 -1.16016 0
M  V30 21724 O 2153.75 5.70395 -0.0235541 0
M  V30 21725 O 2152.69 5.69006 -1.96254 0
M  V30 21726 H 2156.51 2.38399 -1.88148 0
M  V30 21727 H 2154.1 1.13092 -0.97625 0
M  V30 21728 H 2155.98 4.20713 -0.240612 0
M  V30 21729 H 2154.66 3.20974 0.41921 0
M  V30 21730 H 2153.56 3.22373 -1.89807 0
M  V30 21731 H 2154.9 4.25138 -2.48029 0
M  V30 21732 N 2156.55 0.997319 1.2203 0
M  V30 21733 C 2157.78 0.69324 1.94622 0
M  V30 21734 C 2158.19 -0.746899 1.73833 0
M  V30 21735 O 2157.53 -1.51616 1.03722 0
M  V30 21736 C 2157.59 0.92485 3.474 0
M  V30 21737 C 2157.25 2.35033 3.91929 0
M  V30 21738 C 2158.25 3.33011 3.99249 0
M  V30 21739 C 2155.94 2.68594 4.24456 0
M  V30 21740 C 2157.93 4.6262 4.38476 0
M  V30 21741 C 2155.62 3.98422 4.63361 0
M  V30 21742 C 2156.62 4.95246 4.70341 0
M  V30 21743 O 2156.3 6.22753 5.08363 0
M  V30 21744 H 2156.04 0.255247 0.625959 0
M  V30 21745 H 2158.59 1.33604 1.5601 0
M  V30 21746 H 2156.82 0.224877 3.86046 0
M  V30 21747 H 2158.51 0.61534 4.01209 0
M  V30 21748 H 2159.27 3.08416 3.74306 0
M  V30 21749 H 2155.15 1.9393 4.18225 0
M  V30 21750 H 2158.7 5.38194 4.43839 0
M  V30 21751 H 2154.59 4.22804 4.87757 0
M  V30 21752 H 2155.36 6.26755 5.26422 0
M  V30 21753 N 2158.03 -1.37449 0.771075 0
M  V30 21754 C 2159.27 -2.00004 0.335588 0
M  V30 21755 C 2159.61 -1.6107 -1.0849 0
M  V30 21756 O 2158.88 -0.856568 -1.74623 0
M  V30 21757 C 2159.16 -3.56908 0.478386 0
M  V30 21758 C 2159.02 -4.05753 1.94124 0
M  V30 21759 C 2160.34 -4.39942 -0.117748 0
M  V30 21760 H 2157.45 -0.726594 0.12341 0
M  V30 21761 H 2160.1 -1.63136 0.973992 0
M  V30 21762 H 2158.25 -3.88445 -0.0651015 0
M  V30 21763 H 2159.92 -3.84784 2.54438 0
M  V30 21764 H 2158.16 -3.57971 2.45029 0
M  V30 21765 H 2158.83 -5.14796 1.99222 0
M  V30 21766 H 2161.31 -4.14659 0.34597 0
M  V30 21767 H 2160.18 -5.48899 0.0123067 0
M  V30 21768 H 2160.45 -4.25276 -1.20799 0
M  V30 21769 N 2159.5 -0.52156 -1.4872 0
M  V30 21770 C 2160.45 0.2458 -2.29487 0
M  V30 21771 C 2161.42 0.941571 -1.36834 0
M  V30 21772 O 2162.61 0.944239 -1.65797 0
M  V30 21773 C 2159.75 1.2919 -3.20006 0
M  V30 21774 C 2158.86 0.605827 -4.27731 0
M  V30 21775 C 2157.99 1.63413 -5.0544 0
M  V30 21776 C 2157.03 0.931058 -6.04977 0
M  V30 21777 N 2156.17 1.90451 -6.75776 0
M  V30 21778 H 2161.01 -0.449151 -2.94596 0
M  V30 21779 H 2158.55 -0.233338 -1.45238 0
M  V30 21780 H 2160.51 1.91062 -3.70879 0
M  V30 21781 H 2159.14 1.95534 -2.56839 0
M  V30 21782 H 2158.19 -0.126644 -3.80189 0
M  V30 21783 H 2159.5 0.0533786 -4.98771 0
M  V30 21784 H 2158.65 2.32736 -5.60285 0
M  V30 21785 H 2157.39 2.22047 -4.3422 0
M  V30 21786 H 2156.4 0.223716 -5.49345 0
M  V30 21787 H 2157.62 0.350949 -6.78193 0
M  V30 21788 H 2155.57 2.48008 -6.07312 0
M  V30 21789 H 2155.49 1.40328 -7.42862 0
M  V30 21790 H 2156.75 2.58999 -7.35214 0
M  V30 21791 N 2160.98 1.55502 -0.256304 0
M  V30 21792 C 2161.93 2.2177 0.63926 0
M  V30 21793 C 2162.9 1.18474 1.16418 0
M  V30 21794 O 2164.08 1.46954 1.21693 0
M  V30 21795 C 2161.22 2.92819 1.82623 0
M  V30 21796 C 2160.34 4.10791 1.33695 0
M  V30 21797 C 2159.47 4.69531 2.48423 0
M  V30 21798 C 2158.51 5.79735 1.96403 0
M  V30 21799 N 2157.65 6.32617 3.04533 0
M  V30 21800 H 2162.49 2.97924 0.0674772 0
M  V30 21801 H 2160.03 1.47084 0.0215424 0
M  V30 21802 H 2161.98 3.32216 2.52366 0
M  V30 21803 H 2160.61 2.19122 2.37034 0
M  V30 21804 H 2159.67 3.76644 0.533253 0
M  V30 21805 H 2160.98 4.90321 0.915786 0
M  V30 21806 H 2160.13 5.11551 3.26191 0
M  V30 21807 H 2158.87 3.89238 2.93845 0
M  V30 21808 H 2157.88 5.37183 1.17108 0
M  V30 21809 H 2159.1 6.61885 1.51939 0
M  V30 21810 H 2157.05 5.55225 3.49372 0
M  V30 21811 H 2156.96 7.07366 2.66776 0
M  V30 21812 H 2158.23 6.79295 3.82332 0
M  V30 21813 N 2162.46 -0.0166879 1.57591 0
M  V30 21814 C 2163.39 -1.01268 2.10398 0
M  V30 21815 C 2164.37 -1.36922 1.00928 0
M  V30 21816 O 2165.56 -1.45589 1.2852 0
M  V30 21817 C 2162.69 -2.30979 2.59357 0
M  V30 21818 C 2161.64 -2.09533 3.73202 0
M  V30 21819 C 2160.97 -3.45113 4.08413 0
M  V30 21820 C 2162.27 -1.47144 5.01145 0
M  V30 21821 H 2163.96 -0.573053 2.93865 0
M  V30 21822 H 2161.51 -0.274203 1.41365 0
M  V30 21823 H 2163.46 -3.00996 2.94923 0
M  V30 21824 H 2162.18 -2.77024 1.72989 0
M  V30 21825 H 2160.84 -1.41946 3.38004 0
M  V30 21826 H 2160.49 -3.88829 3.19094 0
M  V30 21827 H 2160.19 -3.31585 4.85104 0
M  V30 21828 H 2161.71 -4.16472 4.46524 0
M  V30 21829 H 2163.13 -2.07094 5.34588 0
M  V30 21830 H 2161.53 -1.44154 5.82529 0
M  V30 21831 H 2162.6 -0.438665 4.82912 0
M  V30 21832 N 2163.94 -1.54924 -0.289176 0
M  V30 21833 C 2165.19 -1.74421 -1.02087 0
M  V30 21834 C 2165.51 -0.539388 -1.87392 0
M  V30 21835 O 2164.78 0.446105 -1.90753 0
M  V30 21836 H 2163.36 -0.643179 -0.379908 0
M  V30 21837 H 2166.02 -1.923 -0.317306 0
M  V30 21838 H 2165.12 -2.63841 -1.66716 0
M  V30 21839 N 2165.42 0.552936 -1.47582 0
M  V30 21840 C 2166.65 1.33329 -1.5782 0
M  V30 21841 C 2167.05 1.87809 -0.228975 0
M  V30 21842 O 2166.4 1.65914 0.788562 0
M  V30 21843 C 2166.46 2.53716 -2.54693 0
M  V30 21844 C 2166.12 2.2049 -4.00291 0
M  V30 21845 C 2167.12 1.77528 -4.88651 0
M  V30 21846 C 2164.81 2.31718 -4.45659 0
M  V30 21847 C 2166.8 1.46229 -6.204 0
M  V30 21848 C 2164.49 2.00031 -5.77435 0
M  V30 21849 C 2165.48 1.57355 -6.64627 0
M  V30 21850 O 2165.17 1.26073 -7.93953 0
M  V30 21851 H 2164.9 0.412583 -0.535492 0
M  V30 21852 H 2167.46 0.676216 -1.9395 0
M  V30 21853 H 2165.69 3.22328 -2.13639 0
M  V30 21854 H 2167.38 3.1579 -2.55012 0
M  V30 21855 H 2168.14 1.68343 -4.54847 0
M  V30 21856 H 2164.02 2.63894 -3.77996 0
M  V30 21857 H 2167.57 1.12845 -6.88412 0
M  V30 21858 H 2163.46 2.0885 -6.1078 0
M  V30 21859 H 2164.23 1.39667 -8.06496 0
M  V30 21860 N 2166.89 1.35785 0.800009 0
M  V30 21861 C 2168.14 1.29617 1.55972 0
M  V30 21862 C 2168.47 -0.12735 1.93782 0
M  V30 21863 O 2167.75 -1.07828 1.61875 0
M  V30 21864 C 2168.03 2.2089 2.84393 0
M  V30 21865 C 2167.88 3.7189 2.53018 0
M  V30 21866 C 2169.2 2.11141 3.86145 0
M  V30 21867 H 2166.32 0.472177 0.565878 0
M  V30 21868 H 2168.96 1.66245 0.919932 0
M  V30 21869 H 2167.11 1.89784 3.3899 0
M  V30 21870 H 2168.79 4.13468 2.04553 0
M  V30 21871 H 2167.03 3.91847 1.86114 0
M  V30 21872 H 2167.7 4.3115 3.44693 0
M  V30 21873 H 2170.18 2.38498 3.40966 0
M  V30 21874 H 2169.05 2.77192 4.73768 0
M  V30 21875 H 2169.31 1.09538 4.28315 0
M  V30 21876 N 2168.37 -1.02294 1.19891 0
M  V30 21877 C 2169.6 -1.79404 1.03062 0
M  V30 21878 C 2170.02 -1.84059 -0.420428 0
M  V30 21879 O 2169.37 -1.28896 -1.29198 0
M  V30 21880 C 2169.42 -3.24174 1.59979 0
M  V30 21881 O 2169.14 -3.19825 2.99405 0
M  V30 21882 C 2170.65 -4.17859 1.48016 0
M  V30 21883 H 2167.87 -0.564396 0.362902 0
M  V30 21884 H 2170.41 -1.28805 1.58838 0
M  V30 21885 H 2168.56 -3.71943 1.08338 0
M  V30 21886 H 2168.98 -4.10647 3.26296 0
M  V30 21887 H 2170.45 -5.17305 1.92611 0
M  V30 21888 H 2170.93 -4.37074 0.431619 0
M  V30 21889 H 2171.54 -3.75968 1.98817 0
M  V30 21890 N 2169.85 -1.00378 -1.21499 0
M  V30 21891 C 2171.1 -0.684425 -1.90158 0
M  V30 21892 C 2171.42 0.787132 -1.78407 0
M  V30 21893 O 2170.69 1.5651 -1.17819 0
M  V30 21894 H 2169.27 -0.250163 -0.703866 0
M  V30 21895 H 2171.93 -1.27262 -1.47615 0
M  V30 21896 H 2171.03 -0.956513 -2.97081 0
M  V30 21897 N 2171.33 1.37038 -0.778354 0
M  V30 21898 C 2172.28 2.27554 -0.14251 0
M  V30 21899 C 2173.26 1.46423 0.66702 0
M  V30 21900 O 2174.45 1.68913 0.528909 0
M  V30 21901 C 2171.58 3.35436 0.730593 0
M  V30 21902 C 2170.67 4.2401 -0.0871266 0
M  V30 21903 N 2171.06 4.92876 -1.13609 0
M  V30 21904 C 2169.36 4.45793 0.135807 0
M  V30 21905 C 2170.06 5.58309 -1.63295 0
M  V30 21906 N 2169.04 5.3534 -0.944018 0
M  V30 21907 H 2172.84 2.78275 -0.945535 0
M  V30 21908 H 2170.35 1.50233 -0.616743 0
M  V30 21909 H 2172.35 3.99198 1.20194 0
M  V30 21910 H 2171.01 2.86271 1.53229 0
M  V30 21911 H 2172.02 4.95143 -1.51835 0
M  V30 21912 H 2168.7 4.07487 0.908887 0
M  V30 21913 H 2170.09 6.23333 -2.50809 0
M  V30 21914 N 2172.81 0.529439 1.48441 0
M  V30 21915 C 2174.06 -0.00685445 2.01699 0
M  V30 21916 C 2174.37 -1.35375 1.41184 0
M  V30 21917 O 2175.58 -1.97838 1.85937 0
M  V30 21918 C 2174.03 -0.0626135 3.59846 0
M  V30 21919 C 2173.64 1.27936 4.29344 0
M  V30 21920 C 2175.38 -0.547764 4.20951 0
M  V30 21921 C 2173.29 1.18421 5.79422 0
M  V30 21922 H 2172.22 -0.00633228 0.753973 0
M  V30 21923 H 2174.87 0.673137 1.70708 0
M  V30 21924 H 2173.25 -0.80767 3.87676 0
M  V30 21925 H 2174.43 2.03994 4.13187 0
M  V30 21926 H 2172.74 1.7002 3.80108 0
M  V30 21927 H 2175.34 -0.636907 5.30893 0
M  V30 21928 H 2175.68 -1.55341 3.86232 0
M  V30 21929 H 2176.22 0.141593 3.97548 0
M  V30 21930 H 2172.95 2.16499 6.18715 0
M  V30 21931 H 2172.47 0.464988 5.97995 0
M  V30 21932 H 2174.15 0.874656 6.41061 0
M  V30 21933 N 2174.29 -1.55364 0.264547 0
M  V30 21934 C 2175.53 -2.00387 -0.348811 0
M  V30 21935 C 2175.89 -1.14971 -1.54271 0
M  V30 21936 O 2175.18 -0.209296 -1.90453 0
M  V30 21937 C 2175.37 -3.48523 -0.791605 0
M  V30 21938 C 2175.2 -4.48274 0.357843 0
M  V30 21939 C 2173.97 -4.98299 0.83823 0
M  V30 21940 C 2176.17 -5.00324 1.1908 0
M  V30 21941 N 2174.15 -5.8183 1.95825 0
M  V30 21942 C 2175.52 -5.81199 2.15888 0
M  V30 21943 C 2177.58 -4.82586 1.22535 0
M  V30 21944 C 2176.28 -6.46227 3.15884 0
M  V30 21945 C 2178.31 -5.48406 2.2137 0
M  V30 21946 C 2177.67 -6.29083 3.16912 0
M  V30 21947 H 2173.77 -0.776438 -0.0931041 0
M  V30 21948 H 2176.35 -1.90832 0.386157 0
M  V30 21949 H 2174.52 -3.58441 -1.49582 0
M  V30 21950 H 2176.26 -3.80394 -1.3814 0
M  V30 21951 H 2173.01 -4.7174 0.419334 0
M  V30 21952 H 2173.43 -6.28289 2.52155 0
M  V30 21953 H 2178.08 -4.19827 0.50051 0
M  V30 21954 H 2175.79 -7.08142 3.89307 0
M  V30 21955 H 2179.38 -5.36627 2.24771 0
M  V30 21956 H 2178.26 -6.79114 3.9214 0
M  V30 21957 N 2175.76 0.00833021 -1.57598 0
M  V30 21958 C 2176.73 0.9872 -2.0685 0
M  V30 21959 C 2177.73 1.27766 -0.976351 0
M  V30 21960 O 2178.92 1.22423 -1.23929 0
M  V30 21961 C 2176.05 2.31443 -2.50294 0
M  V30 21962 H 2177.24 0.561338 -2.946 0
M  V30 21963 H 2174.79 0.255625 -1.54195 0
M  V30 21964 H 2175.53 2.78735 -1.65763 0
M  V30 21965 H 2175.31 2.11684 -3.30049 0
M  V30 21966 H 2176.8 3.0168 -2.88754 0
M  V30 21967 N 2177.24 1.55075 0.280956 0
M  V30 21968 C 2178.48 1.77053 1.02135 0
M  V30 21969 C 2178.85 0.555587 1.83786 0
M  V30 21970 O 2180.05 0.65347 2.60736 0
M  V30 21971 C 2178.32 3.03523 1.88703 0
M  V30 21972 S 2179.88 3.46587 2.69115 0
M  V30 21973 H 2176.69 0.62217 0.34413 0
M  V30 21974 H 2179.3 1.93298 0.292595 0
M  V30 21975 H 2178 3.9005 1.27628 0
M  V30 21976 H 2177.53 2.89921 2.65912 0
M  V30 21977 H 2179.55 3.05234 3.91212 0
M  V30 21978 N 2178.72 -0.545102 1.47873 0
M  V30 21979 C 2180.13 -1.12717 1.48835 0
M  V30 21980 C 2180.48 -1.94604 0.249718 0
M  V30 21981 O 2179.61 -2.06582 -0.644417 0
M  V30 21982 C 2180.2 -2.05084 2.69678 0
M  V30 21983 C 2178.76 -2.58538 2.7356 0
M  V30 21984 C 2177.91 -1.35171 2.42124 0
M  V30 21985 H 2180.86 -0.331094 1.55208 0
M  V30 21986 H 2180.88 -2.89145 2.47336 0
M  V30 21987 H 2180.39 -1.45457 3.59811 0
M  V30 21988 H 2178.49 -3.21929 1.87597 0
M  V30 21989 H 2178.61 -2.98704 3.74583 0
M  V30 21990 H 2176.97 -1.66249 1.9296 0
M  V30 21991 H 2177.75 -0.773194 3.3448 0
M  V30 21992 N 2180.2 -1.36208 -0.792797 0
M  V30 21993 C 2181.61 -1.27081 -1.36774 0
M  V30 21994 C 2181.96 0.0908481 -1.9599 0
M  V30 21995 O 2181.08 0.992221 -1.92312 0
M  V30 21996 C 2181.68 -2.30115 -2.48662 0
M  V30 21997 C 2180.24 -2.24688 -3.01981 0
M  V30 21998 C 2179.39 -2.15076 -1.75035 0
M  V30 21999 H 2182.34 -1.47135 -0.594713 0
M  V30 22000 H 2182.36 -1.93562 -3.27588 0
M  V30 22001 H 2181.87 -3.29207 -2.05534 0
M  V30 22002 H 2179.97 -1.29051 -3.49538 0
M  V30 22003 H 2180.08 -3.17234 -3.59025 0
M  V30 22004 H 2178.45 -1.61276 -1.97135 0
M  V30 22005 H 2179.23 -3.16051 -1.3404 0
M  V30 22006 N 2181.68 1.01656 -1.20431 0
M  V30 22007 C 2182.9 1.79392 -1.04084 0
M  V30 22008 C 2183.33 1.83678 0.405466 0
M  V30 22009 O 2182.68 1.27186 1.29203 0
M  V30 22010 C 2182.73 3.21706 -1.62904 0
M  V30 22011 O 2181.84 4.0319 -0.866689 0
M  V30 22012 H 2181.18 0.553315 -0.367068 0
M  V30 22013 H 2183.71 1.27864 -1.59725 0
M  V30 22014 H 2183.72 3.72418 -1.6664 0
M  V30 22015 H 2182.39 3.17901 -2.68164 0
M  V30 22016 H 2180.97 3.61788 -0.903537 0
M  V30 22017 N 2183.15 1.01021 1.20965 0
M  V30 22018 C 2184.06 0.584483 2.27202 0
M  V30 22019 C 2185.08 -0.374977 1.69912 0
M  V30 22020 O 2186.26 -0.237516 1.99995 0
M  V30 22021 C 2183.32 -0.0769879 3.46615 0
M  V30 22022 C 2182.38 0.927608 4.19159 0
M  V30 22023 C 2181.61 0.297609 5.3287 0
M  V30 22024 O 2181.84 -0.904289 5.63186 0
M  V30 22025 O 2180.77 1.01114 5.93346 0
M  V30 22026 H 2184.6 1.46877 2.65821 0
M  V30 22027 H 2182.18 0.779356 1.27461 0
M  V30 22028 H 2184.06 -0.446718 4.19026 0
M  V30 22029 H 2182.74 -0.935572 3.09885 0
M  V30 22030 H 2181.65 1.34859 3.48947 0
M  V30 22031 H 2182.98 1.75595 4.59812 0
M  V30 22032 N 2184.63 -1.36623 0.78561 0
M  V30 22033 C 2185.88 -1.98948 0.355551 0
M  V30 22034 C 2186.2 -1.62665 -1.07541 0
M  V30 22035 O 2185.47 -0.89879 -1.74065 0
M  V30 22036 H 2184.05 -0.735869 0.128476 0
M  V30 22037 H 2186.71 -1.66881 1.00681 0
M  V30 22038 H 2185.81 -3.08921 0.444316 0
M  V30 22039 N 2186.11 -0.537304 -1.48158 0
M  V30 22040 C 2187.39 0.0588571 -1.95511 0
M  V30 22041 C 2187.77 1.50563 -1.47966 0
M  V30 22042 O 2187.11 2.17207 -0.709454 0
M  V30 22043 C 2187.32 -0.0659743 -3.48938 0
M  V30 22044 C 2188.67 0.089563 -4.24506 0
M  V30 22045 O 2189.7 0.00746266 -3.56199 0
M  V30 22046 O 2188.56 0.262738 -5.45868 0
M  V30 22047 H 2185.65 0.0752315 -0.823571 0
M  V30 22048 H 2188.2 -0.60242 -1.58647 0
M  V30 22049 H 2186.97 -1.0735 -3.76287 0
M  V30 22050 H 2186.59 0.633822 -3.92516 0
M  V30 22051 N 2187.59 1.55221 -0.272782 0
M  V30 22052 C 2188.87 1.91543 0.396336 0
M  V30 22053 C 2189.25 1.19676 1.73899 0
M  V30 22054 O 2188.59 0.322832 2.26208 0
M  V30 22055 C 2188.8 3.44814 0.53892 0
M  V30 22056 C 2190.15 4.1655 0.822894 0
M  V30 22057 O 2191.18 3.50695 0.623816 0
M  V30 22058 O 2190.03 5.33084 1.2035 0
M  V30 22059 H 2187.13 0.798123 0.21663 0
M  V30 22060 H 2189.67 1.66679 -0.318762 0
M  V30 22061 H 2188.45 3.89187 -0.406068 0
M  V30 22062 H 2188.07 3.75623 1.30358 0
M  V30 22063 N 2189.07 2.77022e-05 1.576 0
M  V30 22064 C 2190.3 -0.69479 1.94567 0
M  V30 22065 C 2190.7 -1.67836 0.873374 0
M  V30 22066 O 2190.05 -1.83034 -0.156298 0
M  V30 22067 C 2190.11 -1.48224 3.27521 0
M  V30 22068 C 2189.77 -0.660251 4.52205 0
M  V30 22069 C 2190.77 0.0520805 5.19874 0
M  V30 22070 C 2188.46 -0.606213 4.98628 0
M  V30 22071 C 2190.45 0.807435 6.32265 0
M  V30 22072 C 2188.14 0.152866 6.10909 0
M  V30 22073 C 2189.13 0.858424 6.77584 0
M  V30 22074 O 2188.82 1.60512 7.87713 0
M  V30 22075 H 2188.55 -0.198468 0.646209 0
M  V30 22076 H 2191.11 0.0472739 2.05346 0
M  V30 22077 H 2189.34 -2.26878 3.1315 0
M  V30 22078 H 2191.03 -2.0624 3.496 0
M  V30 22079 H 2191.79 0.0194852 4.84996 0
M  V30 22080 H 2187.67 -1.14492 4.46556 0
M  V30 22081 H 2191.22 1.35868 6.84241 0
M  V30 22082 H 2187.11 0.187282 6.45228 0
M  V30 22083 H 2187.88 1.52183 8.04228 0
M  V30 22084 N 2190.54 -1.55222 -0.272728 0
M  V30 22085 C 2191.79 -1.75047 -1.00208 0
M  V30 22086 C 2192.11 -0.559079 -1.8744 0
M  V30 22087 O 2193.31 -0.639745 -2.63855 0
M  V30 22088 C 2191.77 -3.09808 -1.83159 0
M  V30 22089 C 2191.38 -4.36514 -1.00793 0
M  V30 22090 C 2193.12 -3.38981 -2.55523 0
M  V30 22091 C 2191.03 -5.62315 -1.83184 0
M  V30 22092 H 2189.96 -0.652482 -0.377866 0
M  V30 22093 H 2192.61 -1.81681 -0.257744 0
M  V30 22094 H 2190.99 -2.97212 -2.61689 0
M  V30 22095 H 2192.16 -4.60027 -0.266774 0
M  V30 22096 H 2190.48 -4.14486 -0.398824 0
M  V30 22097 H 2193.08 -4.30178 -3.17571 0
M  V30 22098 H 2193.42 -2.59126 -3.25821 0
M  V30 22099 H 2193.95 -3.52676 -1.84022 0
M  V30 22100 H 2190.69 -6.44918 -1.17306 0
M  V30 22101 H 2190.21 -5.42944 -2.54896 0
M  V30 22102 H 2191.89 -6.00624 -2.40542 0
M  V30 22103 N 2192.02 0.537252 -1.4816 0
M  V30 22104 C 2193.27 1.29346 -1.55807 0
M  V30 22105 C 2193.6 1.93149 -0.228836 0
M  V30 22106 O 2192.85 1.79475 0.78021 0
M  V30 22107 C 2193.15 2.40956 -2.6396 0
M  V30 22108 C 2192.82 1.94854 -4.06624 0
M  V30 22109 C 2191.48 1.81998 -4.45455 0
M  V30 22110 C 2193.83 1.59924 -4.96058 0
M  V30 22111 C 2191.16 1.32537 -5.71534 0
M  V30 22112 C 2193.51 1.11928 -6.22619 0
M  V30 22113 C 2192.18 0.976835 -6.60314 0
M  V30 22114 H 2191.45 0.473312 -0.570137 0
M  V30 22115 H 2194.09 0.60034 -1.81847 0
M  V30 22116 H 2192.4 3.15908 -2.31752 0
M  V30 22117 H 2194.09 2.99102 -2.67094 0
M  V30 22118 H 2190.68 2.05809 -3.75953 0
M  V30 22119 H 2194.87 1.6872 -4.66741 0
M  V30 22120 H 2190.12 1.2019 -5.9947 0
M  V30 22121 H 2194.3 0.839689 -6.91319 0
M  V30 22122 H 2191.93 0.591368 -7.57896 0
M  V30 22123 N 2193.5 1.36626 0.785562 0
M  V30 22124 C 2194.45 1.27793 1.8882 0
M  V30 22125 C 2195.43 0.168607 1.60014 0
M  V30 22126 O 2196.63 0.401767 1.7238 0
M  V30 22127 C 2193.76 1.07333 3.2609 0
M  V30 22128 C 2192.84 2.22749 3.60893 0
M  V30 22129 N 2193.23 3.48083 3.66976 0
M  V30 22130 C 2191.53 2.14599 3.90977 0
M  V30 22131 C 2192.23 4.24108 3.98129 0
M  V30 22132 N 2191.21 3.53091 4.13313 0
M  V30 22133 H 2195.01 2.22727 1.91755 0
M  V30 22134 H 2192.52 1.29401 0.981288 0
M  V30 22135 H 2194.52 0.990913 4.04952 0
M  V30 22136 H 2193.18 0.133034 3.24427 0
M  V30 22137 H 2194.19 3.82169 3.49525 0
M  V30 22138 H 2190.87 1.28547 3.97218 0
M  V30 22139 H 2192.26 5.32516 4.09727 0
M  V30 22140 N 2194.98 -1.01016 1.20969 0
M  V30 22141 C 2196.22 -1.7625 1.03514 0
M  V30 22142 C 2196.58 -1.87247 -0.424547 0
M  V30 22143 O 2197.78 -2.58993 -0.719463 0
M  V30 22144 C 2196.05 -3.13983 1.70731 0
M  V30 22145 S 2197.61 -4.05173 1.68465 0
M  V30 22146 H 2194.43 -0.606502 0.371048 0
M  V30 22147 H 2197.03 -1.20905 1.5363 0
M  V30 22148 H 2195.74 -3.0361 2.76133 0
M  V30 22149 H 2195.27 -3.74403 1.20774 0
M  V30 22150 H 2197.28 -4.90918 0.722074 0
M  V30 22151 N 2196.46 -1.01661 -1.20428 0
M  V30 22152 C 2197.41 -0.557662 -2.21075 0
M  V30 22153 C 2198.39 0.387001 -1.56177 0
M  V30 22154 O 2199.58 0.209965 -1.7575 0
M  V30 22155 C 2196.71 0.102647 -3.43147 0
M  V30 22156 C 2195.8 -0.863725 -4.15212 0
M  V30 22157 N 2196.19 -2.02125 -4.63659 0
M  V30 22158 C 2194.49 -0.684549 -4.40715 0
M  V30 22159 C 2195.19 -2.62975 -5.18863 0
M  V30 22160 N 2194.16 -1.91036 -5.08927 0
M  V30 22161 H 2197.97 -1.44012 -2.56198 0
M  V30 22162 H 2195.48 -0.881955 -1.36365 0
M  V30 22163 H 2197.48 0.448981 -4.14475 0
M  V30 22164 H 2196.14 0.980949 -3.09528 0
M  V30 22165 H 2197.15 -2.40118 -4.58873 0
M  V30 22166 H 2193.82 0.145697 -4.17246 0
M  V30 22167 H 2195.21 -3.60934 -5.66724 0
M  V30 22168 N 2197.93 1.36205 -0.792844 0
M  V30 22169 C 2199.35 1.81692 -0.429545 0
M  V30 22170 C 2199.7 1.65934 1.04692 0
M  V30 22171 O 2198.82 1.18221 1.81253 0
M  V30 22172 C 2199.42 3.29866 -0.772889 0
M  V30 22173 C 2197.98 3.73549 -0.462373 0
M  V30 22174 C 2197.12 2.58419 -1.00574 0
M  V30 22175 H 2200.07 1.24378 -0.985694 0
M  V30 22176 H 2200.09 3.80444 -0.0652596 0
M  V30 22177 H 2199.61 3.41303 -1.84753 0
M  V30 22178 H 2197.71 3.6767 0.604094 0
M  V30 22179 H 2197.82 4.68857 -0.985382 0
M  V30 22180 H 2196.18 2.51065 -0.428778 0
M  V30 22181 H 2196.97 2.72639 -2.08621 0
M  V30 22182 N 2199.41 0.545154 1.47871 0
M  V30 22183 C 2200.82 0.108613 1.86384 0
M  V30 22184 C 2201.17 -1.3183 1.45311 0
M  V30 22185 O 2200.3 -1.98979 0.850676 0
M  V30 22186 C 2200.89 0.190333 3.38265 0
M  V30 22187 C 2199.45 -0.191098 3.75915 0
M  V30 22188 C 2198.6 0.543321 2.71925 0
M  V30 22189 H 2201.55 0.755562 1.3956 0
M  V30 22190 H 2201.57 -0.594151 3.75833 0
M  V30 22191 H 2201.08 1.22896 3.68128 0
M  V30 22192 H 2199.19 -1.2313 3.51667 0
M  V30 22193 H 2199.3 0.159071 4.78836 0
M  V30 22194 H 2197.66 -0.0122047 2.54697 0
M  V30 22195 H 2198.45 1.58288 3.04631 0
M  V30 22196 N 2200.89 -1.55074 0.28101 0
M  V30 22197 C 2202.17 -1.9175 -0.386173 0
M  V30 22198 C 2202.55 -1.20597 -1.73262 0
M  V30 22199 O 2201.9 -0.334824 -2.26034 0
M  V30 22200 C 2202.11 -3.45095 -0.520626 0
M  V30 22201 C 2203.45 -4.1698 -0.800792 0
M  V30 22202 O 2204.48 -3.51021 -0.605209 0
M  V30 22203 O 2203.34 -5.33714 -1.17521 0
M  V30 22204 H 2200.43 -0.799261 -0.212394 0
M  V30 22205 H 2202.98 -1.66508 0.327597 0
M  V30 22206 H 2201.75 -3.88967 0.426702 0
M  V30 22207 H 2201.37 -3.76309 -1.28364 0
M  V30 22208 N 2202.37 -0.00838561 -1.57598 0
M  V30 22209 C 2203.3 1.00865 -2.05813 0
M  V30 22210 C 2204.31 1.3018 -0.977602 0
M  V30 22211 O 2205.5 1.27009 -1.25423 0
M  V30 22212 C 2202.6 2.34133 -2.45021 0
M  V30 22213 C 2201.78 2.23636 -3.75907 0
M  V30 22214 C 2200.84 3.39663 -4.0189 0
M  V30 22215 O 2199.86 3.17474 -4.72439 0
M  V30 22216 N 2201.06 4.62787 -3.5044 0
M  V30 22217 H 2203.83 0.597407 -2.93685 0
M  V30 22218 H 2201.39 0.178824 -1.60909 0
M  V30 22219 H 2203.38 3.10542 -2.59511 0
M  V30 22220 H 2201.95 2.66969 -1.62623 0
M  V30 22221 H 2201.17 1.32084 -3.71413 0
M  V30 22222 H 2202.46 2.13804 -4.61698 0
M  V30 22223 H 2201.86 4.83711 -2.93326 0
M  V30 22224 H 2200.41 5.36434 -3.70246 0
M  V30 22225 N 2203.85 1.55365 0.264492 0
M  V30 22226 C 2204.79 1.88827 1.32714 0
M  V30 22227 C 2205.76 0.740631 1.48674 0
M  V30 22228 O 2206.95 0.992686 1.62943 0
M  V30 22229 C 2204.09 2.17311 2.68086 0
M  V30 22230 C 2203.2 3.44789 2.60278 0
M  V30 22231 C 2202.34 3.6293 3.87885 0
M  V30 22232 C 2201.38 4.84071 3.74623 0
M  V30 22233 N 2200.51 4.98825 4.94083 0
M  V30 22234 H 2205.35 2.79458 1.03477 0
M  V30 22235 H 2202.89 1.38351 0.499733 0
M  V30 22236 H 2204.85 2.31827 3.4686 0
M  V30 22237 H 2203.48 1.29906 2.95507 0
M  V30 22238 H 2202.53 3.387 1.73167 0
M  V30 22239 H 2203.84 4.33703 2.46381 0
M  V30 22240 H 2203 3.7731 4.75102 0
M  V30 22241 H 2201.74 2.72217 4.04659 0
M  V30 22242 H 2200.74 4.69686 2.85789 0
M  V30 22243 H 2201.97 5.76227 3.5936 0
M  V30 22244 H 2199.91 4.11045 5.11252 0
M  V30 22245 H 2199.83 5.81798 4.8275 0
M  V30 22246 H 2201.1 5.17598 5.82848 0
M  V30 22247 N 2205.33 -0.529387 1.48443 0
M  V30 22248 C 2206.57 -1.28166 1.55744 0
M  V30 22249 C 2206.89 -1.94164 0.236545 0
M  V30 22250 O 2208.09 -2.7085 0.187809 0
M  V30 22251 C 2206.55 -2.3256 2.74671 0
M  V30 22252 C 2206.16 -1.72628 4.13405 0
M  V30 22253 C 2207.9 -3.08793 2.91285 0
M  V30 22254 C 2205.81 -2.74965 5.23591 0
M  V30 22255 H 2204.74 -0.48202 0.579804 0
M  V30 22256 H 2207.39 -0.559025 1.74777 0
M  V30 22257 H 2205.77 -3.07862 2.49073 0
M  V30 22258 H 2206.95 -1.03511 4.49024 0
M  V30 22259 H 2205.26 -1.08885 4.01912 0
M  V30 22260 H 2207.86 -3.85267 3.70774 0
M  V30 22261 H 2208.2 -3.64691 2.00764 0
M  V30 22262 H 2208.73 -2.40606 3.16786 0
M  V30 22263 H 2205.47 -2.23887 6.1608 0
M  V30 22264 H 2204.99 -3.42409 4.9246 0
M  V30 22265 H 2206.67 -3.37939 5.5173 0
M  V30 22266 N 2206.8 -1.37041 -0.778305 0
M  V30 22267 C 2208.21 -1.28525 -1.35419 0
M  V30 22268 C 2208.57 0.0700557 -1.96075 0
M  V30 22269 O 2207.69 0.971767 -1.93354 0
M  V30 22270 C 2208.29 -2.32739 -2.46207 0
M  V30 22271 C 2206.84 -2.27878 -2.99581 0
M  V30 22272 C 2205.99 -2.16921 -1.72744 0
M  V30 22273 H 2208.94 -1.47758 -0.579074 0
M  V30 22274 H 2208.96 -1.97026 -3.25517 0
M  V30 22275 H 2208.48 -3.31369 -2.0203 0
M  V30 22276 H 2206.58 -1.32751 -3.48149 0
M  V30 22277 H 2206.69 -3.21025 -3.5564 0
M  V30 22278 H 2205.05 -1.63358 -1.95413 0
M  V30 22279 H 2205.84 -3.17455 -1.30681 0
M  V30 22280 N 2208.28 1.00373 -1.21503 0
M  V30 22281 C 2209.23 2.09175 -0.975424 0
M  V30 22282 C 2210.2 1.65805 0.0990324 0
M  V30 22283 O 2211.38 1.90739 -0.0483483 0
M  V30 22284 C 2208.52 3.40728 -0.547567 0
M  V30 22285 C 2207.64 3.97503 -1.6916 0
M  V30 22286 C 2206.77 5.1717 -1.21279 0
M  V30 22287 C 2205.81 5.66057 -2.32907 0
M  V30 22288 N 2204.95 6.76973 -1.8615 0
M  V30 22289 H 2209.79 2.29005 -1.90684 0
M  V30 22290 H 2207.32 1.12286 -0.950277 0
M  V30 22291 H 2209.28 4.16254 -0.280741 0
M  V30 22292 H 2207.91 3.20931 0.346848 0
M  V30 22293 H 2206.96 3.18951 -2.07303 0
M  V30 22294 H 2208.28 4.29776 -2.53167 0
M  V30 22295 H 2207.43 5.99947 -0.902697 0
M  V30 22296 H 2206.17 4.86494 -0.342777 0
M  V30 22297 H 2205.17 4.81876 -2.64718 0
M  V30 22298 H 2206.4 5.98763 -3.20406 0
M  V30 22299 H 2204.35 6.48101 -1.01495 0
M  V30 22300 H 2204.26 7.08507 -2.6373 0
M  V30 22301 H 2205.53 7.63282 -1.58179 0
M  V30 22302 N 2209.76 1.02298 1.19887 0
M  V30 22303 C 2211.17 0.746598 1.71122 0
M  V30 22304 C 2211.52 -0.734303 1.81941 0
M  V30 22305 O 2210.65 -1.57272 1.48642 0
M  V30 22306 C 2211.24 1.34862 3.10802 0
M  V30 22307 C 2209.8 1.12096 3.59321 0
M  V30 22308 C 2208.95 1.45035 2.36347 0
M  V30 22309 H 2211.9 1.19165 1.04811 0
M  V30 22310 H 2211.92 0.742503 3.73185 0
M  V30 22311 H 2211.43 2.42643 3.02896 0
M  V30 22312 H 2209.53 0.0610992 3.7255 0
M  V30 22313 H 2209.65 1.80551 4.43777 0
M  V30 22314 H 2208.01 0.869529 2.39398 0
M  V30 22315 H 2208.79 2.53887 2.31076 0
M  V30 22316 N 2211.24 -1.35782 0.800057 0
M  V30 22317 C 2212.18 -2.29898 0.203888 0
M  V30 22318 C 2213.15 -1.52496 -0.658348 0
M  V30 22319 O 2214.34 -1.80961 -0.6048 0
M  V30 22320 C 2211.48 -3.38984 -0.64682 0
M  V30 22321 C 2210.59 -4.3136 0.23513 0
M  V30 22322 C 2209.73 -5.27534 -0.622961 0
M  V30 22323 C 2208.77 -6.11548 0.25979 0
M  V30 22324 N 2207.9 -6.9988 -0.557896 0
M  V30 22325 H 2212.74 -2.80294 1.01191 0
M  V30 22326 H 2210.28 -1.37956 0.510554 0
M  V30 22327 H 2212.24 -4.00889 -1.15514 0
M  V30 22328 H 2210.87 -2.89881 -1.42016 0
M  V30 22329 H 2209.92 -3.70516 0.861504 0
M  V30 22330 H 2211.23 -4.90339 0.914854 0
M  V30 22331 H 2210.39 -5.94781 -1.19667 0
M  V30 22332 H 2209.13 -4.69036 -1.33628 0
M  V30 22333 H 2208.13 -5.43255 0.845822 0
M  V30 22334 H 2209.36 -6.72124 0.970866 0
M  V30 22335 H 2207.3 -6.43877 -1.2553 0
M  V30 22336 H 2207.22 -7.55973 0.06392 0
M  V30 22337 H 2208.49 -7.71483 -1.11509 0
M  V30 22338 N 2212.72 -0.552988 -1.4758 0
M  V30 22339 C 2214.13 -0.212452 -1.5818 0
M  V30 22340 C 2214.33 1.28493 -1.55215 0
M  V30 22341 O 2213.39 2.06482 -1.45333 0
M  V30 22342 C 2214.7 -0.835368 -2.88863 0
M  V30 22343 C 2216.25 -0.806209 -3.02439 0
M  V30 22344 C 2216.72 -1.40812 -4.35817 0
M  V30 22345 N 2218.21 -1.37111 -4.42442 0
M  V30 22346 C 2218.95 -1.80651 -5.44199 0
M  V30 22347 N 2218.45 -2.32027 -6.5279 0
M  V30 22348 N 2220.24 -1.71747 -5.35219 0
M  V30 22349 H 2212.39 -1.5259 -1.4775 0
M  V30 22350 H 2214.65 -0.636076 -0.70293 0
M  V30 22351 H 2214.36 -1.88754 -2.96757 0
M  V30 22352 H 2214.23 -0.325914 -3.75789 0
M  V30 22353 H 2216.62 0.237265 -2.94145 0
M  V30 22354 H 2216.7 -1.35338 -2.17065 0
M  V30 22355 H 2216.34 -2.45064 -4.44866 0
M  V30 22356 H 2216.27 -0.83643 -5.19915 0
M  V30 22357 H 2218.77 -0.995266 -3.64558 0
M  V30 22358 H 2219.08 -2.63184 -7.26604 0
M  V30 22359 H 2217.42 -2.36035 -6.53691 0
M  V30 22360 H 2220.61 -1.3139 -4.49282 0
M  V30 22361 H 2220.79 -2.05998 -6.14385 0
M  V30 22362 N 2214.19 1.54923 -0.28923 0
M  V30 22363 C 2215.12 2.26041 0.58545 0
M  V30 22364 C 2216.1 1.25564 1.14751 0
M  V30 22365 O 2217.29 1.54313 1.17903 0
M  V30 22366 C 2214.42 2.99225 1.763 0
M  V30 22367 C 2213.37 4.06751 1.33184 0
M  V30 22368 C 2212.7 4.67585 2.59362 0
M  V30 22369 C 2214 5.20166 0.471684 0
M  V30 22370 H 2215.69 2.99399 -0.00768794 0
M  V30 22371 H 2213.24 1.43999 -0.0051376 0
M  V30 22372 H 2215.19 3.47694 2.38091 0
M  V30 22373 H 2213.92 2.23426 2.38219 0
M  V30 22374 H 2212.58 3.59114 0.737058 0
M  V30 22375 H 2212.22 3.88438 3.1957 0
M  V30 22376 H 2211.92 5.40196 2.31219 0
M  V30 22377 H 2213.45 5.1881 3.21976 0
M  V30 22378 H 2214.86 5.646 0.994956 0
M  V30 22379 H 2213.26 5.99425 0.284534 0
M  V30 22380 H 2214.33 4.82251 -0.506126 0
M  V30 22381 N 2215.67 0.0167433 1.57591 0
M  V30 22382 C 2216.6 -0.997717 2.06345 0
M  V30 22383 C 2217.62 -1.2966 0.984492 0
M  V30 22384 O 2218.81 -1.26342 1.26095 0
M  V30 22385 C 2215.91 -2.3283 2.46259 0
M  V30 22386 C 2215.08 -2.21639 3.77087 0
M  V30 22387 C 2214.14 -3.37527 4.03686 0
M  V30 22388 O 2213.16 -3.14965 4.74116 0
M  V30 22389 N 2214.37 -4.60922 3.52889 0
M  V30 22390 H 2217.13 -0.581823 2.93998 0
M  V30 22391 H 2214.69 -0.170288 1.61002 0
M  V30 22392 H 2216.68 -3.09161 2.61154 0
M  V30 22393 H 2215.25 -2.66103 1.64037 0
M  V30 22394 H 2214.47 -1.30113 3.72108 0
M  V30 22395 H 2215.76 -2.11352 4.62826 0
M  V30 22396 H 2215.16 -4.82149 2.95887 0
M  V30 22397 H 2213.72 -5.34463 3.73085 0
M  V30 22398 N 2217.15 -1.55503 -0.256249 0
M  V30 22399 C 2218.06 -1.92649 -1.33879 0
M  V30 22400 C 2219.08 -0.825754 -1.53158 0
M  V30 22401 O 2220.25 -1.12632 -1.66961 0
M  V30 22402 C 2217.32 -2.20548 -2.67506 0
M  V30 22403 C 2216.38 -3.44001 -2.5683 0
M  V30 22404 C 2215.61 -3.70559 -3.84085 0
M  V30 22405 O 2215.83 -2.99344 -4.8554 0
M  V30 22406 O 2214.77 -4.64091 -3.8328 0
M  V30 22407 H 2218.59 -2.84835 -1.05369 0
M  V30 22408 H 2216.18 -1.42264 -0.456212 0
M  V30 22409 H 2218.06 -2.39842 -3.46488 0
M  V30 22410 H 2216.74 -1.31542 -2.95768 0
M  V30 22411 H 2215.64 -3.30024 -1.76167 0
M  V30 22412 H 2216.98 -4.3328 -2.33516 0
M  V30 22413 N 2218.63 0.521507 -1.48721 0
M  V30 22414 C 2219.87 1.27622 -1.5838 0
M  V30 22415 C 2220.23 1.90661 -0.258062 0
M  V30 22416 O 2219.52 1.76738 0.739886 0
M  V30 22417 C 2219.72 2.38143 -2.66501 0
M  V30 22418 C 2219.55 1.85938 -4.0946 0
M  V30 22419 C 2218.32 1.6816 -4.76498 0
M  V30 22420 C 2220.51 1.38301 -4.95356 0
M  V30 22421 N 2218.5 1.10669 -6.03842 0
M  V30 22422 C 2219.87 0.92813 -6.13014 0
M  V30 22423 C 2221.92 1.26683 -4.81514 0
M  V30 22424 C 2220.62 0.368575 -7.18355 0
M  V30 22425 C 2222.65 0.721265 -5.86985 0
M  V30 22426 C 2222.01 0.276499 -7.03857 0
M  V30 22427 H 2218.11 0.457713 -0.634053 0
M  V30 22428 H 2220.7 0.587016 -1.8564 0
M  V30 22429 H 2218.87 3.04549 -2.41049 0
M  V30 22430 H 2220.6 3.05179 -2.65797 0
M  V30 22431 H 2217.35 1.91931 -4.32966 0
M  V30 22432 H 2217.78 0.839099 -6.7178 0
M  V30 22433 H 2222.42 1.59673 -3.9149 0
M  V30 22434 H 2220.14 0.0263701 -8.08096 0
M  V30 22435 H 2223.72 0.634429 -5.78331 0
M  V30 22436 H 2222.6 -0.139084 -7.84077 0
M  V30 22437 N 2220.11 1.37452 0.771027 0
M  V30 22438 C 2221.34 1.35698 1.55787 0
M  V30 22439 C 2221.74 -0.059419 1.89107 0
M  V30 22440 O 2221.09 -1.0318 1.51985 0
M  V30 22441 C 2221.15 2.13128 2.89511 0
M  V30 22442 C 2220.81 3.62087 2.78823 0
M  V30 22443 C 2221.81 4.55954 2.49804 0
M  V30 22444 C 2219.5 4.05218 2.96822 0
M  V30 22445 C 2221.49 5.90931 2.38913 0
M  V30 22446 C 2219.18 5.40281 2.85552 0
M  V30 22447 C 2220.17 6.3295 2.56638 0
M  V30 22448 O 2219.86 7.6553 2.45395 0
M  V30 22449 H 2219.59 0.466489 0.489248 0
M  V30 22450 H 2222.15 1.81404 0.963414 0
M  V30 22451 H 2220.38 1.62114 3.51078 0
M  V30 22452 H 2222.07 2.04 3.50911 0
M  V30 22453 H 2222.83 4.23941 2.35583 0
M  V30 22454 H 2218.71 3.33448 3.18329 0
M  V30 22455 H 2222.26 6.63231 2.16265 0
M  V30 22456 H 2218.15 5.71896 2.99341 0
M  V30 22457 H 2218.92 7.75859 2.60739 0
M  V30 22458 N 2221.58 -0.997276 1.22033 0
M  V30 22459 C 2222.53 -2.08655 0.986504 0
M  V30 22460 C 2223.5 -1.65855 -0.090238 0
M  V30 22461 O 2224.69 -1.9071 0.0584629 0
M  V30 22462 C 2221.83 -3.40433 0.565629 0
M  V30 22463 C 2220.94 -3.966 1.71266 0
M  V30 22464 C 2220.07 -5.1652 1.2402 0
M  V30 22465 C 2219.11 -5.64814 2.35906 0
M  V30 22466 N 2218.25 -6.75976 1.89738 0
M  V30 22467 H 2223.09 -2.27991 1.91896 0
M  V30 22468 H 2220.63 -1.1178 0.956219 0
M  V30 22469 H 2222.59 -4.161 0.302812 0
M  V30 22470 H 2221.22 -3.21111 -0.329823 0
M  V30 22471 H 2220.27 -3.17847 2.08992 0
M  V30 22472 H 2221.58 -4.28428 2.55443 0
M  V30 22473 H 2220.73 -5.9946 0.934501 0
M  V30 22474 H 2219.47 -4.86305 0.368573 0
M  V30 22475 H 2218.48 -4.80465 2.67269 0
M  V30 22476 H 2219.7 -5.97055 3.23577 0
M  V30 22477 H 2217.65 -6.47553 1.04931 0
M  V30 22478 H 2217.57 -7.07099 2.67483 0
M  V30 22479 H 2218.83 -7.62433 1.62224 0
M  V30 22480 N 2223.06 -1.02932 -1.19343 0
M  V30 22481 C 2224.01 -0.610503 -2.22579 0
M  V30 22482 C 2224.98 0.375917 -1.6179 0
M  V30 22483 O 2226.16 0.272478 -1.88844 0
M  V30 22484 C 2223.3 0.0320867 -3.45085 0
M  V30 22485 C 2222.42 -1.00043 -4.20256 0
M  V30 22486 C 2221.55 -0.327553 -5.30189 0
M  V30 22487 C 2220.59 -1.34595 -5.97119 0
M  V30 22488 N 2219.73 -0.698849 -6.98613 0
M  V30 22489 H 2224.57 -1.49542 -2.57762 0
M  V30 22490 H 2222.11 -0.748333 -1.26643 0
M  V30 22491 H 2224.06 0.421893 -4.15061 0
M  V30 22492 H 2222.69 0.880585 -3.10557 0
M  V30 22493 H 2221.75 -1.50829 -3.4922 0
M  V30 22494 H 2223.06 -1.77441 -4.66172 0
M  V30 22495 H 2222.21 0.117073 -6.06587 0
M  V30 22496 H 2220.95 0.478627 -4.85346 0
M  V30 22497 H 2219.96 -1.80083 -5.19471 0
M  V30 22498 H 2221.18 -2.15363 -6.44046 0
M  V30 22499 H 2219.13 0.0872318 -6.55942 0
M  V30 22500 H 2219.04 -1.41071 -7.42721 0
M  V30 22501 H 2220.31 -0.278239 -7.79003 0
M  V30 22502 N 2224.54 1.35356 -0.807246 0
M  V30 22503 C 2225.47 2.27613 -0.163612 0
M  V30 22504 C 2226.45 1.48119 0.670791 0
M  V30 22505 O 2227.64 1.77377 0.637929 0
M  V30 22506 C 2224.76 3.29762 0.772957 0
M  V30 22507 C 2223.81 4.26496 0.0180904 0
M  V30 22508 S 2224.64 5.19017 -1.31841 0
M  V30 22509 C 2225.8 6.24707 -0.3863 0
M  V30 22510 H 2226.03 2.81854 -0.945806 0
M  V30 22511 H 2223.56 1.42166 -0.60234 0
M  V30 22512 H 2225.52 3.8911 1.30781 0
M  V30 22513 H 2224.18 2.74398 1.52854 0
M  V30 22514 H 2223.38 4.98693 0.729447 0
M  V30 22515 H 2222.98 3.71321 -0.446827 0
M  V30 22516 H 2225.27 6.76146 0.428176 0
M  V30 22517 H 2226.21 6.99854 -1.07748 0
M  V30 22518 H 2226.62 5.64497 0.0182988 0
M  V30 22519 N 2226.02 0.560807 1.47284 0
M  V30 22520 C 2226.95 -0.173064 2.32858 0
M  V30 22521 C 2227.93 -0.905255 1.44011 0
M  V30 22522 O 2229.11 -0.885016 1.72862 0
M  V30 22523 C 2226.24 -1.20127 3.25863 0
M  V30 22524 C 2225.2 -0.585313 4.23979 0
M  V30 22525 C 2224.52 -1.71841 5.06335 0
M  V30 22526 C 2225.82 0.46327 5.20241 0
M  V30 22527 H 2227.52 0.541359 2.94465 0
M  V30 22528 H 2225.06 0.261789 1.416 0
M  V30 22529 H 2227.02 -1.72286 3.84572 0
M  V30 22530 H 2225.74 -1.94568 2.62318 0
M  V30 22531 H 2224.4 -0.0849896 3.66501 0
M  V30 22532 H 2224.05 -2.45195 4.3919 0
M  V30 22533 H 2223.75 -1.31203 5.72765 0
M  V30 22534 H 2225.27 -2.24319 5.67902 0
M  V30 22535 H 2226.69 0.0276027 5.73293 0
M  V30 22536 H 2225.08 0.788731 5.94894 0
M  V30 22537 H 2226.15 1.35782 4.65501 0
M  V30 22538 N 2227.5 -1.54768 0.297442 0
M  V30 22539 C 2228.77 -1.92149 -0.365813 0
M  V30 22540 C 2229.15 -1.22427 -1.71973 0
M  V30 22541 O 2228.5 -0.358779 -2.25666 0
M  V30 22542 C 2228.71 -3.45628 -0.483995 0
M  V30 22543 C 2230.06 -4.17806 -0.756521 0
M  V30 22544 O 2231.08 -3.51643 -0.567945 0
M  V30 22545 O 2229.94 -5.34931 -1.11853 0
M  V30 22546 H 2227.04 -0.801468 -0.203905 0
M  V30 22547 H 2229.58 -1.66151 0.345239 0
M  V30 22548 H 2228.35 -3.88492 0.467933 0
M  V30 22549 H 2227.98 -3.77649 -1.24365 0
M  V30 22550 N 2228.97 -0.0251005 -1.5758 0
M  V30 22551 C 2229.92 0.958093 -2.09974 0
M  V30 22552 C 2230.89 1.32558 -1.00088 0
M  V30 22553 O 2232.08 1.4196 -1.27484 0
M  V30 22554 C 2229.22 2.23656 -2.62816 0
M  V30 22555 C 2228.33 1.92587 -3.86696 0
M  V30 22556 C 2227.46 3.14699 -4.27946 0
M  V30 22557 C 2226.5 2.79432 -5.44595 0
M  V30 22558 N 2225.64 3.94157 -5.81021 0
M  V30 22559 H 2230.48 0.504377 -2.93701 0
M  V30 22560 H 2228.02 0.237366 -1.45172 0
M  V30 22561 H 2229.98 2.98429 -2.91541 0
M  V30 22562 H 2228.61 2.66651 -1.81926 0
M  V30 22563 H 2227.66 1.08073 -3.64725 0
M  V30 22564 H 2228.97 1.6261 -4.7155 0
M  V30 22565 H 2228.12 3.97796 -4.58086 0
M  V30 22566 H 2226.86 3.47834 -3.41852 0
M  V30 22567 H 2225.87 1.94746 -5.14154 0
M  V30 22568 H 2227.09 2.47517 -6.32386 0
M  V30 22569 H 2225.04 4.27141 -4.97882 0
M  V30 22570 H 2224.96 3.6779 -6.60505 0
M  V30 22571 H 2226.22 4.77969 -6.15764 0
M  V30 22572 N 2230.45 1.55637 0.247999 0
M  V30 22573 C 2231.42 1.89423 1.29041 0
M  V30 22574 C 2232.42 0.770606 1.41132 0
M  V30 22575 O 2233.61 1.03861 1.39852 0
M  V30 22576 C 2230.74 2.12169 2.66828 0
M  V30 22577 H 2231.93 2.8263 1.003 0
M  V30 22578 H 2229.48 1.48512 0.487239 0
M  V30 22579 H 2230.22 1.21427 3.00709 0
M  V30 22580 H 2230 2.94002 2.59433 0
M  V30 22581 H 2231.49 2.39496 3.42098 0
M  V30 22582 N 2231.93 -0.513613 1.48996 0
M  V30 22583 C 2233.18 -1.26851 1.57845 0
M  V30 22584 C 2233.51 -1.92761 0.259535 0
M  V30 22585 O 2232.76 -1.80693 -0.751559 0
M  V30 22586 C 2233.06 -2.36726 2.6776 0
M  V30 22587 C 2232.73 -1.8836 4.09672 0
M  V30 22588 C 2231.39 -1.74888 4.48294 0
M  V30 22589 C 2233.74 -1.52012 4.9854 0
M  V30 22590 C 2231.07 -1.23428 5.7357 0
M  V30 22591 C 2233.42 -1.02009 6.24321 0
M  V30 22592 C 2232.08 -0.871661 6.61784 0
M  V30 22593 H 2231.35 -0.464182 0.577595 0
M  V30 22594 H 2234 -0.571334 1.82779 0
M  V30 22595 H 2232.31 -3.12181 2.36749 0
M  V30 22596 H 2234 -2.94815 2.71818 0
M  V30 22597 H 2230.59 -1.99802 3.7918 0
M  V30 22598 H 2234.78 -1.61273 4.69366 0
M  V30 22599 H 2230.03 -1.10637 6.01306 0
M  V30 22600 H 2234.21 -0.7296 6.92568 0
M  V30 22601 H 2231.83 -0.470718 7.58741 0
M  V30 22602 N 2233.41 -1.37859 -0.763727 0
M  V30 22603 C 2234.37 -1.34084 -1.85887 0
M  V30 22604 C 2235.37 -0.243305 -1.58949 0
M  V30 22605 O 2236.56 -0.499619 -1.66882 0
M  V30 22606 C 2233.69 -1.08495 -3.23174 0
M  V30 22607 H 2234.89 -2.31506 -1.90644 0
M  V30 22608 H 2232.44 -1.23004 -0.964345 0
M  V30 22609 H 2233.18 -0.116375 -3.24091 0
M  V30 22610 H 2232.96 -1.87946 -3.4412 0
M  V30 22611 H 2234.45 -1.08524 -4.03252 0
M  V30 22612 N 2234.89 0.990791 -1.22561 0
M  V30 22613 C 2235.8 2.11555 -1.01398 0
M  V30 22614 C 2236.81 1.73958 0.0383656 0
M  V30 22615 O 2237.99 2.00804 -0.154822 0
M  V30 22616 C 2235.05 3.41528 -0.596629 0
M  V30 22617 C 2234.12 3.93214 -1.72283 0
M  V30 22618 C 2233.35 5.16983 -1.3253 0
M  V30 22619 O 2233.57 5.70031 -0.205009 0
M  V30 22620 O 2232.51 5.62475 -2.14257 0
M  V30 22621 H 2236.33 2.32293 -1.95637 0
M  V30 22622 H 2233.92 1.09929 -1.01174 0
M  V30 22623 H 2235.8 4.19734 -0.374337 0
M  V30 22624 H 2234.47 3.22145 0.316883 0
M  V30 22625 H 2233.38 3.16171 -1.99967 0
M  V30 22626 H 2234.71 4.17032 -2.61429 0
M  V30 22627 N 2236.37 1.03564 1.18795 0
M  V30 22628 C 2237.78 0.753941 1.40669 0
M  V30 22629 C 2237.98 -0.658652 1.90431 0
M  V30 22630 O 2237.04 -1.42363 2.0854 0
M  V30 22631 C 2238.35 1.79578 2.41189 0
M  V30 22632 C 2239.9 1.81611 2.54925 0
M  V30 22633 C 2240.37 2.84772 3.58704 0
M  V30 22634 N 2241.86 2.83632 3.66207 0
M  V30 22635 C 2242.6 3.60106 4.46219 0
M  V30 22636 N 2242.1 4.46317 5.2988 0
M  V30 22637 N 2243.89 3.48618 4.40933 0
M  V30 22638 H 2236.04 1.94729 0.848187 0
M  V30 22639 H 2238.3 0.842272 0.435066 0
M  V30 22640 H 2238.01 2.80876 2.11664 0
M  V30 22641 H 2237.88 1.62371 3.40464 0
M  V30 22642 H 2240.27 0.809867 2.8377 0
M  V30 22643 H 2240.35 2.02894 1.55781 0
M  V30 22644 H 2239.99 3.85572 3.306 0
M  V30 22645 H 2239.92 2.60745 4.57515 0
M  V30 22646 H 2242.42 2.2111 3.06462 0
M  V30 22647 H 2242.73 5.01392 5.8807 0
M  V30 22648 H 2241.07 4.50386 5.29318 0
M  V30 22649 H 2244.26 2.80674 3.74619 0
M  V30 22650 H 2244.44 4.08467 5.03049 0
M  V30 22651 N 2237.84 -1.34926 0.814413 0
M  V30 22652 C 2239.09 -1.97796 0.394906 0
M  V30 22653 C 2239.41 -1.65313 -1.04552 0
M  V30 22654 O 2240.61 -2.21607 -1.56852 0
M  V30 22655 C 2239.07 -3.53886 0.655165 0
M  V30 22656 C 2238.68 -3.95272 2.10865 0
M  V30 22657 C 2240.42 -4.23429 0.301403 0
M  V30 22658 C 2238.33 -5.4424 2.31425 0
M  V30 22659 H 2237.26 -0.740136 0.143926 0
M  V30 22660 H 2239.91 -1.53886 0.999571 0
M  V30 22661 H 2238.29 -3.95995 -0.0195557 0
M  V30 22662 H 2239.46 -3.64293 2.82183 0
M  V30 22663 H 2237.78 -3.38642 2.42303 0
M  V30 22664 H 2240.38 -5.32944 0.432962 0
M  V30 22665 H 2240.72 -4.09429 -0.753238 0
M  V30 22666 H 2241.25 -3.86768 0.930356 0
M  V30 22667 H 2237.99 -5.63216 3.35363 0
M  V30 22668 H 2237.51 -5.76761 1.6464 0
M  V30 22669 H 2239.19 -6.10807 2.13362 0
M  V30 22670 N 2239.32 -0.56861 -1.46985 0
M  V30 22671 C 2240.57 -0.0466248 -2.01646 0
M  V30 22672 C 2240.88 1.31584 -1.44723 0
M  V30 22673 O 2242.09 1.92838 -1.91117 0
M  V30 22674 C 2240.55 -0.0328152 -3.59885 0
M  V30 22675 C 2240.15 -1.39274 -4.25801 0
M  V30 22676 C 2241.9 0.435964 -4.22255 0
M  V30 22677 C 2239.8 -1.33742 -5.76079 0
M  V30 22678 H 2238.73 -0.0136602 -0.753876 0
M  V30 22679 H 2241.39 -0.718161 -1.68863 0
M  V30 22680 H 2239.77 0.704601 -3.89681 0
M  V30 22681 H 2240.94 -2.14877 -4.07633 0
M  V30 22682 H 2239.26 -1.80038 -3.75467 0
M  V30 22683 H 2241.85 0.495926 -5.32395 0
M  V30 22684 H 2242.2 1.45046 -3.90214 0
M  V30 22685 H 2242.73 -0.246947 -3.97033 0
M  V30 22686 H 2239.47 -2.32827 -6.12757 0
M  V30 22687 H 2238.99 -0.623372 -5.96552 0
M  V30 22688 H 2240.67 -1.04431 -6.38516 0
M  V30 22689 N 2240.8 1.54608 -0.305646 0
M  V30 22690 C 2241.75 2.20406 0.583556 0
M  V30 22691 C 2242.73 1.17857 1.09537 0
M  V30 22692 O 2243.93 1.43559 1.03537 0
M  V30 22693 C 2241.05 2.95186 1.75272 0
M  V30 22694 C 2240.14 4.05055 1.25665 0
M  V30 22695 N 2240.53 5.03528 0.47891 0
M  V30 22696 C 2238.83 4.1868 1.53697 0
M  V30 22697 C 2239.53 5.81306 0.214167 0
M  V30 22698 N 2238.51 5.37751 0.79528 0
M  V30 22699 H 2242.31 2.93894 -0.0181462 0
M  V30 22700 H 2239.82 1.62023 -0.110629 0
M  V30 22701 H 2241.82 3.40795 2.40134 0
M  V30 22702 H 2240.48 2.23215 2.35808 0
M  V30 22703 H 2241.49 5.17753 0.123382 0
M  V30 22704 H 2238.17 3.57916 2.14947 0
M  V30 22705 H 2239.56 6.70643 -0.410774 0
M  V30 22706 N 2242.28 0.033457 1.57564 0
M  V30 22707 C 2243.55 -0.683131 1.83283 0
M  V30 22708 C 2243.93 -1.90082 0.918264 0
M  V30 22709 O 2243.28 -2.28486 -0.0250729 0
M  V30 22710 C 2243.49 -1.05724 3.32601 0
M  V30 22711 C 2244.84 -1.44704 3.99181 0
M  V30 22712 O 2245.86 -1.15009 3.37122 0
M  V30 22713 O 2244.72 -2.00051 5.08569 0
M  V30 22714 H 2241.82 -0.335533 0.755875 0
M  V30 22715 H 2244.36 0.06147 1.69589 0
M  V30 22716 H 2243.14 -0.190759 3.90835 0
M  V30 22717 H 2242.76 -1.85987 3.51418 0
M  V30 22718 N 2243.76 -1.55766 -0.239741 0
M  V30 22719 C 2244.99 -1.81732 -0.982711 0
M  V30 22720 C 2245.39 -0.607866 -1.79169 0
M  V30 22721 O 2244.74 0.432941 -1.78525 0
M  V30 22722 C 2244.8 -3.01158 -1.96326 0
M  V30 22723 C 2244.46 -4.36896 -1.34054 0
M  V30 22724 C 2245.46 -5.14615 -0.739449 0
M  V30 22725 C 2243.14 -4.83601 -1.35776 0
M  V30 22726 C 2245.14 -6.37189 -0.163877 0
M  V30 22727 C 2242.83 -6.06123 -0.778334 0
M  V30 22728 C 2243.82 -6.82756 -0.182428 0
M  V30 22729 O 2243.51 -8.02963 0.388028 0
M  V30 22730 H 2243.24 -0.608492 -0.294471 0
M  V30 22731 H 2245.8 -2.03674 -0.265684 0
M  V30 22732 H 2244.03 -2.74988 -2.71879 0
M  V30 22733 H 2245.72 -3.14154 -2.57026 0
M  V30 22734 H 2246.48 -4.79647 -0.718603 0
M  V30 22735 H 2242.36 -4.2394 -1.81097 0
M  V30 22736 H 2245.91 -6.96947 0.301876 0
M  V30 22737 H 2241.8 -6.40567 -0.796532 0
M  V30 22738 H 2242.57 -8.18019 0.280584 0
M  V30 22739 N 2245.23 0.505704 -1.49266 0
M  V30 22740 C 2246.18 1.60777 -1.65588 0
M  V30 22741 C 2247.15 1.58477 -0.497424 0
M  V30 22742 O 2248.34 1.76535 -0.723881 0
M  V30 22743 C 2245.48 2.98945 -1.72413 0
M  V30 22744 C 2244.59 3.11296 -2.99531 0
M  V30 22745 C 2243.72 4.40168 -2.97364 0
M  V30 22746 C 2242.76 4.46136 -4.19082 0
M  V30 22747 N 2241.9 5.6643 -4.14851 0
M  V30 22748 H 2246.74 1.46167 -2.5969 0
M  V30 22749 H 2244.28 0.711239 -1.28763 0
M  V30 22750 H 2246.23 3.79022 -1.74351 0
M  V30 22751 H 2244.86 3.12269 -0.817807 0
M  V30 22752 H 2243.92 2.24312 -3.07226 0
M  V30 22753 H 2245.23 3.11565 -3.89524 0
M  V30 22754 H 2244.38 5.28562 -2.97838 0
M  V30 22755 H 2243.12 4.42457 -2.05141 0
M  V30 22756 H 2242.13 3.56145 -4.18856 0
M  V30 22757 H 2243.35 4.45566 -5.12491 0
M  V30 22758 H 2241.3 5.6957 -3.25463 0
M  V30 22759 H 2241.21 5.68296 -4.98574 0
M  V30 22760 H 2242.48 6.57043 -4.19422 0
M  V30 22761 N 2246.71 1.38262 0.756405 0
M  V30 22762 C 2247.99 1.24838 1.50582 0
M  V30 22763 C 2248.37 -0.151448 2.10556 0
M  V30 22764 O 2247.72 -1.16067 1.96827 0
M  V30 22765 C 2247.93 2.35635 2.57444 0
M  V30 22766 C 2249.28 2.73923 3.24425 0
M  V30 22767 O 2250.3 2.34925 2.67747 0
M  V30 22768 O 2249.16 3.41163 4.26931 0
M  V30 22769 H 2246.25 0.488022 0.667656 0
M  V30 22770 H 2248.8 1.50082 0.792057 0
M  V30 22771 H 2247.57 3.29309 2.11356 0
M  V30 22772 H 2247.19 2.11939 3.36404 0
M  V30 22773 N 2248.19 -0.984277 1.23084 0
M  V30 22774 C 2249.44 -1.71928 1.05469 0
M  V30 22775 C 2249.75 -1.91272 -0.409178 0
M  V30 22776 O 2250.96 -2.62182 -0.70518 0
M  V30 22777 C 2249.41 -3.09381 1.83879 0
M  V30 22778 C 2249.02 -2.97937 3.34571 0
M  V30 22779 C 2250.77 -3.86867 1.74741 0
M  V30 22780 C 2248.67 -4.30598 4.05388 0
M  V30 22781 H 2247.6 -0.644667 0.39105 0
M  V30 22782 H 2250.25 -1.09812 1.47015 0
M  V30 22783 H 2248.64 -3.72228 1.35137 0
M  V30 22784 H 2249.81 -2.44202 3.90771 0
M  V30 22785 H 2248.13 -2.33928 3.4448 0
M  V30 22786 H 2250.72 -4.85072 2.24966 0
M  V30 22787 H 2251.07 -4.1021 0.709444 0
M  V30 22788 H 2251.6 -3.30714 2.21073 0
M  V30 22789 H 2248.34 -4.12451 5.09475 0
M  V30 22790 H 2247.86 -4.84212 3.53976 0
M  V30 22791 H 2249.54 -4.99304 4.11466 0
M  V30 22792 N 2249.67 -1.04192 -1.18244 0
M  V30 22793 C 2250.92 -0.74605 -1.88256 0
M  V30 22794 C 2251.24 0.726299 -1.8043 0
M  V30 22795 O 2250.5 1.54589 -1.20003 0
M  V30 22796 C 2250.8 -1.15917 -3.3808 0
M  V30 22797 C 2250.46 -2.63202 -3.66109 0
M  V30 22798 C 2249.13 -3.03438 -3.73468 0
M  V30 22799 C 2251.48 -3.58426 -3.78391 0
M  V30 22800 C 2248.81 -4.37785 -3.90591 0
M  V30 22801 C 2251.16 -4.92493 -3.9703 0
M  V30 22802 C 2249.82 -5.32399 -4.02626 0
M  V30 22803 H 2249.09 -0.272999 -0.688878 0
M  V30 22804 H 2251.74 -1.30717 -1.39947 0
M  V30 22805 H 2250.04 -0.516874 -3.88376 0
M  V30 22806 H 2251.74 -0.907585 -3.90594 0
M  V30 22807 H 2248.33 -2.31037 -3.60999 0
M  V30 22808 H 2252.51 -3.28485 -3.72036 0
M  V30 22809 H 2247.77 -4.6822 -3.93167 0
M  V30 22810 H 2251.94 -5.66182 -4.05476 0
M  V30 22811 H 2249.57 -6.36508 -4.15646 0
M  V30 22812 N 2251.15 1.34492 -0.821557 0
M  V30 22813 C 2252.09 2.29544 -0.240437 0
M  V30 22814 C 2253.06 1.53524 0.634004 0
M  V30 22815 O 2254.25 1.819 0.575934 0
M  V30 22816 C 2251.39 3.3997 0.592809 0
M  V30 22817 C 2250.5 4.30931 -0.303726 0
M  V30 22818 C 2249.64 5.28459 0.538956 0
M  V30 22819 C 2248.68 6.11058 -0.357049 0
M  V30 22820 N 2247.81 7.00679 0.44648 0
M  V30 22821 H 2252.65 2.78648 -1.05637 0
M  V30 22822 H 2250.19 1.37126 -0.532437 0
M  V30 22823 H 2252.15 4.02676 1.09122 0
M  V30 22824 H 2250.78 2.92104 1.37387 0
M  V30 22825 H 2249.83 3.69099 -0.92034 0
M  V30 22826 H 2251.14 4.88821 -0.992747 0
M  V30 22827 H 2250.3 5.9661 1.1019 0
M  V30 22828 H 2249.03 4.71103 1.26149 0
M  V30 22829 H 2248.04 5.41841 -0.932142 0
M  V30 22830 H 2249.26 6.70495 -1.07767 0
M  V30 22831 H 2247.21 6.45793 1.15271 0
M  V30 22832 H 2247.13 7.55776 -0.184181 0
M  V30 22833 H 2248.4 7.73159 0.992216 0
M  V30 22834 N 2252.62 0.576397 1.46681 0
M  V30 22835 C 2253.56 -0.198191 2.28342 0
M  V30 22836 C 2254.57 -0.861429 1.38142 0
M  V30 22837 O 2255.76 -0.732053 1.62798 0
M  V30 22838 C 2252.86 -1.29967 3.12989 0
M  V30 22839 C 2252.03 -0.729563 4.31273 0
M  V30 22840 C 2251.09 -1.71795 4.97366 0
M  V30 22841 O 2250.12 -1.25648 5.55159 0
M  V30 22842 N 2251.32 -3.05189 4.93801 0
M  V30 22843 H 2254.08 0.502376 2.95459 0
M  V30 22844 H 2251.64 0.413743 1.56524 0
M  V30 22845 H 2253.64 -1.96002 3.5407 0
M  V30 22846 H 2252.21 -1.90319 2.47987 0
M  V30 22847 H 2251.43 0.108081 3.94052 0
M  V30 22848 H 2252.71 -0.328348 5.07739 0
M  V30 22849 H 2252.11 -3.45309 4.48083 0
M  V30 22850 H 2250.67 -3.6673 5.38843 0
M  V30 22851 N 2254.1 -1.54444 0.313841 0
M  V30 22852 C 2255.07 -2.22657 -0.543751 0
M  V30 22853 C 2256.07 -1.2168 -1.05122 0
M  V30 22854 O 2257.26 -1.46327 -0.945199 0
M  V30 22855 C 2254.39 -2.92301 -1.75422 0
M  V30 22856 H 2255.58 -2.99854 0.0524126 0
M  V30 22857 H 2253.13 -1.56166 0.0648109 0
M  V30 22858 H 2253.87 -2.19216 -2.38987 0
M  V30 22859 H 2253.65 -3.66337 -1.39785 0
M  V30 22860 H 2255.14 -3.44301 -2.36319 0
M  V30 22861 N 2255.58 -0.0418125 -1.57545 0
M  V30 22862 C 2256.81 0.643894 -1.96626 0
M  V30 22863 C 2257.22 1.64928 -0.918926 0
M  V30 22864 O 2256.58 1.82237 0.0979003 0
M  V30 22865 C 2256.63 1.33908 -3.35784 0
M  V30 22866 O 2256.35 0.373971 -4.36501 0
M  V30 22867 C 2257.85 2.11543 -3.8957 0
M  V30 22868 H 2255.07 0.17669 -0.647319 0
M  V30 22869 H 2257.62 -0.10534 -2.04229 0
M  V30 22870 H 2255.77 2.03962 -3.2936 0
M  V30 22871 H 2256.19 0.869088 -5.1725 0
M  V30 22872 H 2257.66 2.5562 -4.89247 0
M  V30 22873 H 2258.14 2.95974 -3.24493 0
M  V30 22874 H 2258.74 1.4642 -3.99301 0
M  V30 22875 N 2257.06 1.55891 0.231477 0
M  V30 22876 C 2257.97 1.94754 1.30797 0
M  V30 22877 C 2258.98 0.850015 1.51825 0
M  V30 22878 O 2260.16 1.15274 1.65148 0
M  V30 22879 C 2257.23 2.24775 2.63964 0
M  V30 22880 C 2256.29 3.48044 2.51325 0
M  V30 22881 C 2255.52 3.76623 3.78141 0
M  V30 22882 O 2255.74 3.07031 4.80716 0
M  V30 22883 O 2254.68 4.70129 3.75848 0
M  V30 22884 H 2258.5 2.86475 1.00825 0
M  V30 22885 H 2256.09 1.42972 0.433522 0
M  V30 22886 H 2257.97 2.45324 3.42629 0
M  V30 22887 H 2256.64 1.3623 2.93637 0
M  V30 22888 H 2255.55 3.32785 1.70894 0
M  V30 22889 H 2256.88 4.3694 2.26593 0
M  V30 22890 N 2258.54 -0.497781 1.49532 0
M  V30 22891 C 2259.81 -1.25912 1.49685 0
M  V30 22892 C 2260.19 -2.09883 0.226376 0
M  V30 22893 O 2259.54 -2.14367 -0.791152 0
M  V30 22894 C 2259.75 -2.11308 2.77759 0
M  V30 22895 C 2261.1 -2.70389 3.27376 0
M  V30 22896 O 2262.12 -2.21573 2.78898 0
M  V30 22897 O 2260.98 -3.59265 4.11814 0
M  V30 22898 H 2258.08 -0.56995 0.599238 0
M  V30 22899 H 2260.62 -0.511788 1.61799 0
M  V30 22900 H 2259.39 -1.49257 3.61715 0
M  V30 22901 H 2259.02 -2.93228 2.6852 0
M  V30 22902 N 2260.01 -1.38661 -0.749062 0
M  V30 22903 C 2261.43 -1.19957 -1.05273 0
M  V30 22904 C 2261.63 -0.0513754 -2.01434 0
M  V30 22905 O 2260.69 0.601427 -2.45233 0
M  V30 22906 C 2262 -2.52786 -1.62848 0
M  V30 22907 C 2263.55 -2.59509 -1.74998 0
M  V30 22908 C 2264.02 -3.92525 -2.35984 0
M  V30 22909 N 2265.51 -3.94089 -2.43409 0
M  V30 22910 C 2266.25 -4.93775 -2.91502 0
M  V30 22911 N 2265.74 -6.03859 -3.39597 0
M  V30 22912 N 2267.54 -4.81163 -2.90584 0
M  V30 22913 H 2259.69 -2.1211 -0.111028 0
M  V30 22914 H 2261.95 -0.941374 -0.111884 0
M  V30 22915 H 2261.66 -3.37285 -0.996581 0
M  V30 22916 H 2261.53 -2.71505 -2.61849 0
M  V30 22917 H 2263.92 -1.75403 -2.37314 0
M  V30 22918 H 2264 -2.44653 -0.746887 0
M  V30 22919 H 2263.64 -4.77056 -1.743 0
M  V30 22920 H 2263.57 -4.04694 -3.36943 0
M  V30 22921 H 2266.06 -3.1458 -2.09399 0
M  V30 22922 H 2266.38 -6.75849 -3.74763 0
M  V30 22923 H 2264.72 -6.07472 -3.37642 0
M  V30 22924 H 2267.91 -3.94271 -2.52325 0
M  V30 22925 H 2268.09 -5.59002 -3.27752 0
M  V30 22926 N 2261.49 0.977736 -1.23605 0
M  V30 22927 C 2262.42 2.08858 -1.04405 0
M  V30 22928 C 2263.4 1.70053 0.0398754 0
M  V30 22929 O 2264.59 1.93795 -0.12528 0
M  V30 22930 C 2261.72 3.41402 -0.637329 0
M  V30 22931 C 2260.67 3.94121 -1.6689 0
M  V30 22932 C 2260 5.22891 -1.11754 0
M  V30 22933 C 2261.3 4.2309 -3.06255 0
M  V30 22934 H 2262.99 2.25178 -1.9732 0
M  V30 22935 H 2260.54 1.08207 -0.950115 0
M  V30 22936 H 2262.49 4.18541 -0.490054 0
M  V30 22937 H 2261.22 3.24954 0.3275 0
M  V30 22938 H 2259.88 3.1913 -1.80421 0
M  V30 22939 H 2259.52 5.02795 -0.143615 0
M  V30 22940 H 2259.22 5.59131 -1.80682 0
M  V30 22941 H 2260.75 6.02649 -0.982173 0
M  V30 22942 H 2262.16 4.9097 -2.9601 0
M  V30 22943 H 2260.56 4.70537 -3.72445 0
M  V30 22944 H 2261.63 3.30257 -3.55047 0
M  V30 22945 N 2262.97 1.04818 1.1769 0
M  V30 22946 C 2264.2 0.776288 1.91785 0
M  V30 22947 C 2264.61 -0.667546 1.76605 0
M  V30 22948 O 2263.97 -1.45571 1.1007 0
M  V30 22949 C 2264.02 1.14269 3.42965 0
M  V30 22950 O 2263.74 2.52984 3.57674 0
M  V30 22951 C 2265.24 0.896388 4.34143 0
M  V30 22952 H 2262.46 0.28253 0.60862 0
M  V30 22953 H 2265.01 1.39785 1.49266 0
M  V30 22954 H 2263.16 0.565942 3.83244 0
M  V30 22955 H 2263.58 2.67236 4.51315 0
M  V30 22956 H 2265.05 1.20254 5.38742 0
M  V30 22957 H 2265.53 -0.168559 4.38876 0
M  V30 22958 H 2266.13 1.45679 3.99572 0
M  V30 22959 N 2264.45 -1.34055 0.828678 0
M  V30 22960 C 2265.67 -2.02858 0.431673 0
M  V30 22961 C 2266.1 -1.61976 -0.95631 0
M  V30 22962 O 2265.46 -0.807256 -1.62336 0
M  V30 22963 C 2265.51 -3.56406 0.548385 0
M  V30 22964 O 2264.61 -4.10158 -0.429484 0
M  V30 22965 H 2263.95 -0.640003 0.176897 0
M  V30 22966 H 2266.48 -1.71177 1.12069 0
M  V30 22967 H 2266.49 -4.05767 0.426267 0
M  V30 22968 H 2265.17 -3.85507 1.56067 0
M  V30 22969 H 2263.74 -3.71952 -0.265771 0
M  V30 22970 N 2265.93 -0.584167 -1.46374 0
M  V30 22971 C 2266.89 0.138068 -2.28784 0
M  V30 22972 C 2267.89 0.817438 -1.38472 0
M  V30 22973 O 2269.08 0.669171 -1.60835 0
M  V30 22974 C 2266.21 1.20497 -3.18894 0
M  V30 22975 H 2267.41 -0.586179 -2.94116 0
M  V30 22976 H 2264.96 -0.342198 -1.52508 0
M  V30 22977 H 2265.69 1.96075 -2.58312 0
M  V30 22978 H 2265.48 0.722316 -3.85389 0
M  V30 22979 H 2266.97 1.71148 -3.80917 0
M  V30 22980 N 2267.41 1.54275 -0.322027 0
M  V30 22981 C 2268.35 2.24282 0.544624 0
M  V30 22982 C 2269.32 1.23305 1.11288 0
M  V30 22983 O 2270.51 1.51983 1.15351 0
M  V30 22984 C 2267.65 3.00301 1.7004 0
M  V30 22985 C 2266.76 4.16092 1.16152 0
M  V30 22986 C 2265.9 4.79645 2.28285 0
M  V30 22987 C 2264.93 5.87543 1.71638 0
M  V30 22988 N 2264.07 6.44964 2.77427 0
M  V30 22989 H 2268.91 2.97942 -0.0589431 0
M  V30 22990 H 2266.45 1.47043 -0.0408604 0
M  V30 22991 H 2268.41 3.4262 2.38048 0
M  V30 22992 H 2267.04 2.28979 2.27527 0
M  V30 22993 H 2266.09 3.78567 0.373025 0
M  V30 22994 H 2267.4 4.93764 0.707 0
M  V30 22995 H 2266.55 5.24925 3.04201 0
M  V30 22996 H 2265.29 4.01351 2.77072 0
M  V30 22997 H 2264.3 5.41667 0.942187 0
M  V30 22998 H 2265.52 6.67733 1.23729 0
M  V30 22999 H 2263.47 5.69544 3.25509 0
M  V30 23000 H 2263.39 7.18044 2.36534 0
M  V30 23001 H 2264.65 6.949 3.53177 0
M  V30 23002 N 2268.88 0.0501669 1.5752 0
M  V30 23003 C 2269.79 -0.939789 2.14954 0
M  V30 23004 C 2270.81 -1.34237 1.10708 0
M  V30 23005 O 2271.99 -1.4195 1.42871 0
M  V30 23006 C 2269.05 -2.1966 2.68236 0
M  V30 23007 C 2268.11 -1.85246 3.87276 0
M  V30 23008 C 2267.34 -3.04935 4.38007 0
M  V30 23009 O 2267.57 -4.18274 3.87818 0
M  V30 23010 O 2266.5 -2.86008 5.29607 0
M  V30 23011 H 2270.33 -0.481339 2.99861 0
M  V30 23012 H 2267.91 -0.171673 1.4841 0
M  V30 23013 H 2269.79 -2.93401 3.0248 0
M  V30 23014 H 2268.47 -2.64645 1.864 0
M  V30 23015 H 2267.38 -1.08824 3.57922 0
M  V30 23016 H 2268.71 -1.45061 4.70338 0
M  V30 23017 N 2270.36 -1.56011 -0.223207 0
M  V30 23018 C 2271.29 -1.953 -1.27984 0
M  V30 23019 C 2272.27 -0.821005 -1.48975 0
M  V30 23020 O 2273.46 -1.08318 -1.61186 0
M  V30 23021 C 2270.59 -2.26827 -2.62996 0
M  V30 23022 C 2269.54 -3.42501 -2.56665 0
M  V30 23023 C 2268.87 -3.59629 -3.95691 0
M  V30 23024 C 2270.17 -4.77521 -2.11592 0
M  V30 23025 H 2271.86 -2.83812 -0.953475 0
M  V30 23026 H 2269.41 -1.36549 -0.45722 0
M  V30 23027 H 2271.36 -2.52904 -3.37072 0
M  V30 23028 H 2270.08 -1.35167 -2.97317 0
M  V30 23029 H 2268.74 -3.16471 -1.85046 0
M  V30 23030 H 2268.39 -2.65347 -4.27317 0
M  V30 23031 H 2268.09 -4.37431 -3.92337 0
M  V30 23032 H 2269.62 -3.88052 -4.71432 0
M  V30 23033 H 2271.03 -5.02814 -2.75411 0
M  V30 23034 H 2269.43 -5.58594 -2.19301 0
M  V30 23035 H 2270.5 -4.72989 -1.06816 0
M  V30 23036 N 2271.84 0.489844 -1.49794 0
M  V30 23037 C 2273.25 1.07115 -1.52916 0
M  V30 23038 C 2273.6 1.93543 -0.321772 0
M  V30 23039 O 2272.73 2.08832 0.567302 0
M  V30 23040 C 2273.32 1.94934 -2.77103 0
M  V30 23041 C 2271.88 2.48207 -2.82967 0
M  V30 23042 C 2271.03 1.26092 -2.46974 0
M  V30 23043 H 2273.98 0.273262 -1.5633 0
M  V30 23044 H 2274 2.79766 -2.57897 0
M  V30 23045 H 2273.51 1.32003 -3.64962 0
M  V30 23046 H 2271.61 3.14744 -1.99416 0
M  V30 23047 H 2271.73 2.84596 -3.85411 0
M  V30 23048 H 2270.09 1.58972 -1.98997 0
M  V30 23049 H 2270.87 0.648522 -3.37119 0
M  V30 23050 N 2273.32 1.39056 0.741698 0
M  V30 23051 C 2274.55 1.38972 1.52873 0
M  V30 23052 C 2274.96 -0.0192933 1.8919 0
M  V30 23053 O 2274.3 -0.999329 1.5414 0
M  V30 23054 C 2274.36 2.19221 2.84925 0
M  V30 23055 C 2274.02 3.67919 2.7108 0
M  V30 23056 C 2275.02 4.6115 2.40076 0
M  V30 23057 C 2272.71 4.11423 2.8816 0
M  V30 23058 C 2274.7 5.95866 2.26325 0
M  V30 23059 C 2272.39 5.46216 2.74028 0
M  V30 23060 C 2273.39 6.38252 2.43154 0
M  V30 23061 O 2273.07 7.70563 2.29102 0
M  V30 23062 H 2272.81 0.476762 0.479243 0
M  V30 23063 H 2275.36 1.83407 0.924719 0
M  V30 23064 H 2273.59 1.69524 3.47561 0
M  V30 23065 H 2275.28 2.11398 3.46505 0
M  V30 23066 H 2276.04 4.28842 2.26537 0
M  V30 23067 H 2271.92 3.40125 3.11185 0
M  V30 23068 H 2275.47 6.67669 2.02148 0
M  V30 23069 H 2271.36 5.78117 2.87143 0
M  V30 23070 H 2272.13 7.81215 2.44223 0
M  V30 23071 N 2274.8 -0.971167 1.24121 0
M  V30 23072 C 2276.04 -1.71369 1.07884 0
M  V30 23073 C 2276.37 -1.90694 -0.382868 0
M  V30 23074 O 2275.63 -1.46333 -1.29943 0
M  V30 23075 C 2275.92 -3.11067 1.75988 0
M  V30 23076 C 2275.59 -3.11593 3.25915 0
M  V30 23077 C 2274.25 -3.11444 3.66819 0
M  V30 23078 C 2276.6 -3.06193 4.21776 0
M  V30 23079 C 2273.93 -3.03623 5.02026 0
M  V30 23080 C 2276.28 -2.99913 5.56987 0
M  V30 23081 C 2274.95 -2.98091 5.97242 0
M  V30 23082 H 2274.22 -0.627083 0.394775 0
M  V30 23083 H 2276.87 -1.13584 1.54178 0
M  V30 23084 H 2275.17 -3.72296 1.22078 0
M  V30 23085 H 2276.87 -3.67307 1.60893 0
M  V30 23086 H 2273.46 -3.12472 2.93358 0
M  V30 23087 H 2277.64 -3.0544 3.91178 0
M  V30 23088 H 2272.9 -3.0057 5.32417 0
M  V30 23089 H 2277.07 -2.94693 6.30975 0
M  V30 23090 H 2274.7 -2.91786 7.01972 0
M  V30 23091 N 2276.27 -1.05441 -1.17133 0
M  V30 23092 C 2277.18 -0.668405 -2.24877 0
M  V30 23093 C 2278.2 0.311657 -1.71186 0
M  V30 23094 O 2279.38 0.163126 -2.00738 0
M  V30 23095 C 2276.44 -0.0517089 -3.46661 0
M  V30 23096 C 2275.5 -1.08254 -4.15427 0
M  V30 23097 C 2274.74 -0.495175 -5.31398 0
M  V30 23098 O 2274.96 0.694643 -5.66154 0
M  V30 23099 O 2273.89 -1.23066 -5.89184 0
M  V30 23100 H 2277.72 -1.56642 -2.60187 0
M  V30 23101 H 2275.3 -0.826125 -1.24481 0
M  V30 23102 H 2277.19 0.290892 -4.20395 0
M  V30 23103 H 2275.86 0.819916 -3.13144 0
M  V30 23104 H 2274.77 -1.47717 -3.43701 0
M  V30 23105 H 2276.1 -1.9254 -4.52978 0
M  V30 23106 N 2277.75 1.33613 -0.835776 0
M  V30 23107 C 2279 1.97491 -0.429144 0
M  V30 23108 C 2279.32 1.66544 1.0143 0
M  V30 23109 O 2278.59 0.962774 1.70609 0
M  V30 23110 H 2277.17 0.730594 -0.155699 0
M  V30 23111 H 2279.83 1.6303 -1.06805 0
M  V30 23112 H 2278.93 3.07059 -0.558664 0
M  V30 23113 N 2279.23 0.591922 1.46062 0
M  V30 23114 C 2280.51 0.0137463 1.95595 0
M  V30 23115 C 2280.89 -1.44967 1.53453 0
M  V30 23116 O 2280.24 -2.14425 0.78958 0
M  V30 23117 C 2280.45 0.195435 3.48452 0
M  V30 23118 C 2281.79 0.0680511 4.24545 0
M  V30 23119 O 2282.82 0.124744 3.55982 0
M  V30 23120 O 2281.68 -0.0599619 5.46467 0
M  V30 23121 H 2278.77 -0.0446133 0.825796 0
M  V30 23122 H 2281.32 0.660886 1.56302 0
M  V30 23123 H 2280.09 1.21242 3.72043 0
M  V30 23124 H 2279.71 -0.487706 3.94598 0
M  V30 23125 N 2280.71 -1.54102 0.330204 0
M  V30 23126 C 2281.96 -2.00687 -0.27037 0
M  V30 23127 C 2282.28 -1.21828 -1.51619 0
M  V30 23128 O 2281.54 -0.290284 -1.93535 0
M  V30 23129 C 2281.84 -3.51567 -0.643072 0
M  V30 23130 C 2281.5 -4.48071 0.50433 0
M  V30 23131 C 2280.17 -4.74175 0.819247 0
M  V30 23132 C 2282.52 -5.05371 1.27474 0
M  V30 23133 C 2279.85 -5.54837 1.90718 0
M  V30 23134 C 2282.2 -5.87219 2.35281 0
M  V30 23135 C 2280.86 -6.11622 2.67347 0
M  V30 23136 H 2280.13 -0.734366 -0.0989353 0
M  V30 23137 H 2282.78 -1.86007 0.455357 0
M  V30 23138 H 2281.08 -3.64008 -1.44932 0
M  V30 23139 H 2282.78 -3.85058 -1.11942 0
M  V30 23140 H 2279.37 -4.27877 0.248809 0
M  V30 23141 H 2283.55 -4.8518 1.0447 0
M  V30 23142 H 2278.81 -5.71973 2.16001 0
M  V30 23143 H 2282.98 -6.30636 2.95417 0
M  V30 23144 H 2280.61 -6.73913 3.51775 0
M  V30 23145 N 2282.19 -0.0585199 -1.57491 0
M  V30 23146 C 2283.43 0.608583 -1.94082 0
M  V30 23147 C 2283.79 1.68016 -0.937467 0
M  V30 23148 O 2283.08 1.91553 0.0422697 0
M  V30 23149 C 2283.27 1.24182 -3.35132 0
M  V30 23150 C 2283.1 0.233108 -4.49095 0
M  V30 23151 C 2281.87 -0.177528 -5.04988 0
M  V30 23152 C 2284.07 -0.524395 -5.1162 0
M  V30 23153 N 2282.05 -1.17833 -6.02485 0
M  V30 23154 C 2283.42 -1.37806 -6.04491 0
M  V30 23155 C 2285.48 -0.581909 -4.94488 0
M  V30 23156 C 2284.18 -2.28411 -6.82071 0
M  V30 23157 C 2286.21 -1.47541 -5.727 0
M  V30 23158 C 2285.57 -2.31678 -6.6521 0
M  V30 23159 H 2281.67 0.194121 -0.757523 0
M  V30 23160 H 2284.25 -0.132567 -1.94248 0
M  V30 23161 H 2282.42 1.95296 -3.35729 0
M  V30 23162 H 2284.16 1.86832 -3.58993 0
M  V30 23163 H 2280.91 0.202921 -4.73165 0
M  V30 23164 H 2281.34 -1.67585 -6.5593 0
M  V30 23165 H 2285.98 0.0543687 -4.22765 0
M  V30 23166 H 2283.7 -2.9308 -7.5308 0
M  V30 23167 H 2287.28 -1.52458 -5.61469 0
M  V30 23168 H 2286.16 -2.99696 -7.24674 0
M  V30 23169 N 2283.66 1.56128 0.21493 0
M  V30 23170 C 2285.08 1.69563 0.781357 0
M  V30 23171 C 2285.43 0.661682 1.84706 0
M  V30 23172 O 2284.55 -0.18589 2.156 0
M  V30 23173 C 2285.15 3.07418 1.42406 0
M  V30 23174 C 2283.71 3.22686 1.9378 0
M  V30 23175 C 2282.85 2.65498 0.800391 0
M  V30 23176 H 2285.8 1.58697 -0.00983423 0
M  V30 23177 H 2285.82 3.03644 2.29304 0
M  V30 23178 H 2285.34 3.82649 0.648192 0
M  V30 23179 H 2283.44 2.52336 2.74148 0
M  V30 23180 H 2283.55 4.29976 2.11322 0
M  V30 23181 H 2281.91 2.24152 1.20946 0
M  V30 23182 H 2282.7 3.4328 0.0370867 0
M  V30 23183 N 2285.14 -0.481893 1.50052 0
M  V30 23184 C 2286.09 -1.602 1.68637 0
M  V30 23185 C 2287.08 -1.60147 0.552212 0
M  V30 23186 O 2288.29 -1.64426 0.732406 0
M  V30 23187 H 2284.67 -0.531398 0.53209 0
M  V30 23188 H 2286.64 -1.41683 2.62619 0
M  V30 23189 C 2285.39 -2.98216 1.7878 0
M  V30 23190 H 2284.71 -2.98972 2.65435 0
M  V30 23191 H 2286.15 -3.76076 1.95813 0
M  V30 23192 C 2284.61 -3.32594 0.536907 0
M  V30 23193 O 2285.14 -4.00352 -0.328827 0
M  V30 23194 N 2283.34 -2.87915 0.394141 0
M  V30 23195 H 2282.89 -2.32949 1.09967 0
M  V30 23196 H 2282.85 -3.11282 -0.441683 0
M  V30 23197 N 2286.62 -1.39448 -0.734313 0
M  V30 23198 C 2287.87 -1.36911 -1.4961 0
M  V30 23199 C 2288.2 0.0347488 -1.94169 0
M  V30 23200 O 2287.47 0.999818 -1.66835 0
M  V30 23201 C 2287.76 -2.34208 -2.7353 0
M  V30 23202 C 2287.61 -3.83538 -2.34986 0
M  V30 23203 C 2288.93 -2.29324 -3.75631 0
M  V30 23204 H 2286.05 -0.498638 -0.542705 0
M  V30 23205 H 2288.69 -1.70444 -0.839567 0
M  V30 23206 H 2286.84 -2.05742 -3.29549 0
M  V30 23207 H 2288.51 -4.22756 -1.84593 0
M  V30 23208 H 2286.76 -4.00281 -1.67206 0
M  V30 23209 H 2287.43 -4.47105 -3.2373 0
M  V30 23210 H 2289.9 -2.54495 -3.29198 0
M  V30 23211 H 2288.78 -2.9948 -4.60003 0
M  V30 23212 H 2289.04 -1.29849 -4.22601 0
M  V30 23213 N 2288.1 0.964571 -1.24635 0
M  V30 23214 C 2289.03 2.07739 -1.06614 0
M  V30 23215 C 2290.01 1.70086 0.0218367 0
M  V30 23216 O 2291.19 1.93652 -0.145827 0
M  V30 23217 C 2288.32 3.40707 -0.673503 0
M  V30 23218 C 2287.28 3.92329 -1.71061 0
M  V30 23219 C 2286.6 5.21676 -1.17294 0
M  V30 23220 C 2287.9 4.19818 -3.10725 0
M  V30 23221 H 2289.6 2.23073 -1.99697 0
M  V30 23222 H 2287.14 1.07193 -0.961539 0
M  V30 23223 H 2289.1 4.17998 -0.534418 0
M  V30 23224 H 2287.82 3.25283 0.293016 0
M  V30 23225 H 2286.48 3.17198 -1.83796 0
M  V30 23226 H 2286.13 5.02614 -0.196935 0
M  V30 23227 H 2285.83 5.57183 -1.86602 0
M  V30 23228 H 2287.35 6.01573 -1.04604 0
M  V30 23229 H 2288.77 4.87802 -3.01201 0
M  V30 23230 H 2287.16 4.6656 -3.77414 0
M  V30 23231 H 2288.23 3.26473 -3.5853 0
M  V30 23232 N 2289.58 1.0606 1.16572 0
M  V30 23233 C 2290.49 0.680321 2.24519 0
M  V30 23234 C 2291.5 -0.302574 1.71349 0
M  V30 23235 O 2292.68 -0.152478 2.00822 0
M  V30 23236 C 2289.74 0.0700925 3.46629 0
M  V30 23237 C 2288.8 1.10455 4.14847 0
M  V30 23238 C 2288.04 0.523349 5.31128 0
M  V30 23239 O 2288.26 -0.664609 5.66515 0
M  V30 23240 O 2287.19 1.26189 5.88523 0
M  V30 23241 H 2291.02 1.58019 2.59352 0
M  V30 23242 H 2288.61 0.832715 1.24041 0
M  V30 23243 H 2290.49 -0.268593 4.20543 0
M  V30 23244 H 2289.16 -0.803298 3.13574 0
M  V30 23245 H 2288.07 1.49538 3.42913 0
M  V30 23246 H 2289.4 1.94939 4.51951 0
M  V30 23247 N 2291.06 -1.33168 0.84285 0
M  V30 23248 C 2291.97 -2.32905 0.281485 0
M  V30 23249 C 2292.98 -1.63527 -0.594558 0
M  V30 23250 O 2294.16 -1.95153 -0.497735 0
M  V30 23251 C 2291.22 -3.42612 -0.530869 0
M  V30 23252 C 2290.28 -4.27703 0.369918 0
M  V30 23253 C 2289.52 -5.32171 -0.40376 0
M  V30 23254 O 2289.74 -5.46464 -1.63504 0
M  V30 23255 O 2288.67 -6.01482 0.224305 0
M  V30 23256 H 2292.5 -2.82787 1.10749 0
M  V30 23257 H 2290.08 -1.36581 0.605474 0
M  V30 23258 H 2291.97 -4.09549 -0.992365 0
M  V30 23259 H 2290.64 -2.9494 -1.33387 0
M  V30 23260 H 2289.55 -3.63619 0.879339 0
M  V30 23261 H 2290.88 -4.78869 1.13779 0
M  V30 23262 N 2292.53 -0.599659 -1.45746 0
M  V30 23263 C 2293.76 -0.0960563 -2.07177 0
M  V30 23264 C 2294.18 1.20697 -1.4427 0
M  V30 23265 O 2293.54 1.73303 -0.532534 0
M  V30 23266 C 2293.59 0.0384714 -3.60579 0
M  V30 23267 O 2292.69 1.09073 -3.97714 0
M  V30 23268 H 2292.03 -0.0704709 -0.66025 0
M  V30 23269 H 2294.56 -0.827418 -1.87123 0
M  V30 23270 H 2294.57 0.239232 -4.07298 0
M  V30 23271 H 2293.25 -0.913019 -4.05755 0
M  V30 23272 H 2291.83 0.867071 -3.62679 0
M  V30 23273 N 2294.01 1.53925 -0.338371 0
M  V30 23274 C 2295.26 2.00008 0.260697 0
M  V30 23275 C 2295.57 1.2302 1.52071 0
M  V30 23276 O 2296.78 1.59554 2.1967 0
M  V30 23277 C 2295.24 3.56195 0.515087 0
M  V30 23278 C 2294.84 4.42034 -0.728723 0
M  V30 23279 C 2296.59 4.10707 1.0733 0
M  V30 23280 C 2294.49 5.8972 -0.445419 0
M  V30 23281 H 2293.42 0.747179 0.101192 0
M  V30 23282 H 2296.08 1.77823 -0.452897 0
M  V30 23283 H 2294.46 3.74425 1.28925 0
M  V30 23284 H 2295.63 4.35579 -1.50359 0
M  V30 23285 H 2293.95 3.98487 -1.2082 0
M  V30 23286 H 2296.54 5.18653 1.30013 0
M  V30 23287 H 2296.89 3.63605 2.02724 0
M  V30 23288 H 2297.42 3.96168 0.359964 0
M  V30 23289 H 2294.16 6.41046 -1.36894 0
M  V30 23290 H 2293.68 5.99091 0.291464 0
M  V30 23291 H 2295.36 6.46971 -0.0607355 0
M  V30 23292 N 2295.49 0.0668712 1.57458 0
M  V30 23293 C 2296.44 -0.902085 2.12441 0
M  V30 23294 C 2297.41 -1.29858 1.03567 0
M  V30 23295 O 2298.59 -1.3853 1.31203 0
M  V30 23296 C 2295.73 -2.16609 2.68653 0
M  V30 23297 C 2294.84 -1.82267 3.91667 0
M  V30 23298 C 2293.98 -3.03242 4.36139 0
M  V30 23299 C 2293.02 -2.64895 5.51813 0
M  V30 23300 N 2292.16 -3.78613 5.91267 0
M  V30 23301 H 2297 -0.42633 2.94935 0
M  V30 23302 H 2294.53 -0.198793 1.45751 0
M  V30 23303 H 2296.49 -2.90594 2.99351 0
M  V30 23304 H 2295.12 -2.61734 1.88932 0
M  V30 23305 H 2294.17 -0.983654 3.67462 0
M  V30 23306 H 2295.48 -1.50051 4.75695 0
M  V30 23307 H 2294.64 -3.85511 4.68472 0
M  V30 23308 H 2293.38 -3.38649 3.50954 0
M  V30 23309 H 2292.38 -1.81046 5.19136 0
M  V30 23310 H 2293.61 -2.30664 6.38726 0
M  V30 23311 H 2291.55 -4.13791 5.09032 0
M  V30 23312 H 2291.47 -3.50148 6.70024 0
M  V30 23313 H 2292.74 -4.61475 6.2822 0
M  V30 23314 N 2296.97 -1.56239 -0.206647 0
M  V30 23315 C 2297.88 -1.96811 -1.27682 0
M  V30 23316 C 2298.89 -0.874062 -1.50453 0
M  V30 23317 O 2300.07 -1.17887 -1.63293 0
M  V30 23318 C 2297.13 -2.28946 -2.60354 0
M  V30 23319 C 2296.2 -3.51998 -2.45756 0
M  V30 23320 C 2295.43 -3.82591 -3.72102 0
M  V30 23321 O 2295.65 -3.1464 -4.75771 0
M  V30 23322 O 2294.59 -4.76049 -3.68321 0
M  V30 23323 H 2298.41 -2.88043 -0.962543 0
M  V30 23324 H 2296 -1.43643 -0.410721 0
M  V30 23325 H 2297.88 -2.50743 -3.38682 0
M  V30 23326 H 2296.55 -1.40885 -2.91433 0
M  V30 23327 H 2295.46 -3.35462 -1.65578 0
M  V30 23328 H 2296.79 -4.40489 -2.19613 0
M  V30 23329 N 2298.45 0.473929 -1.50305 0
M  V30 23330 C 2299.38 1.58039 -1.71889 0
M  V30 23331 C 2300.36 1.60343 -0.567827 0
M  V30 23332 O 2301.54 1.76654 -0.806654 0
M  V30 23333 C 2298.67 2.9638 -1.81041 0
M  V30 23334 C 2297.63 3.08943 -2.96206 0
M  V30 23335 C 2296.95 4.48904 -2.90498 0
M  V30 23336 C 2298.25 2.86427 -4.36757 0
M  V30 23337 H 2299.95 1.4023 -2.6453 0
M  V30 23338 H 2297.49 0.673178 -1.27296 0
M  V30 23339 H 2299.44 3.73711 -1.94726 0
M  V30 23340 H 2298.17 3.1534 -0.850202 0
M  V30 23341 H 2296.83 2.34045 -2.82168 0
M  V30 23342 H 2296.48 4.64778 -1.92329 0
M  V30 23343 H 2296.18 4.58246 -3.6781 0
M  V30 23344 H 2297.7 5.28259 -3.06227 0
M  V30 23345 H 2299.11 3.53509 -4.51336 0
M  V30 23346 H 2297.51 3.07216 -5.15498 0
M  V30 23347 H 2298.58 1.82308 -4.49324 0
M  V30 23348 N 2299.92 1.39835 0.726907 0
M  V30 23349 C 2300.83 1.41492 1.87128 0
M  V30 23350 C 2301.85 0.308787 1.71238 0
M  V30 23351 O 2303.03 0.551563 1.937 0
M  V30 23352 C 2300.09 1.26473 3.22809 0
M  V30 23353 C 2299.15 2.4713 3.51034 0
M  V30 23354 C 2298.38 2.32818 4.80241 0
M  V30 23355 O 2298.61 1.33595 5.54534 0
M  V30 23356 O 2297.54 3.21966 5.08548 0
M  V30 23357 H 2301.37 2.37974 1.88686 0
M  V30 23358 H 2298.95 1.21037 0.875815 0
M  V30 23359 H 2300.83 1.20262 4.03875 0
M  V30 23360 H 2299.51 0.330919 3.22004 0
M  V30 23361 H 2298.42 2.58919 2.70022 0
M  V30 23362 H 2299.75 3.39233 3.56626 0
M  V30 23363 N 2301.4 -0.957948 1.25144 0
M  V30 23364 C 2302.33 -2.05734 1.01026 0
M  V30 23365 C 2303.35 -1.62783 -0.0236616 0
M  V30 23366 O 2304.54 -1.77206 0.214511 0
M  V30 23367 C 2301.64 -3.35122 0.504654 0
M  V30 23368 C 2300.81 -4.06929 1.60397 0
M  V30 23369 C 2299.87 -5.14589 1.09931 0
M  V30 23370 O 2298.89 -5.40221 1.79303 0
M  V30 23371 N 2300.1 -5.80468 -0.0611525 0
M  V30 23372 H 2302.86 -2.26995 1.95687 0
M  V30 23373 H 2300.42 -1.12627 1.16305 0
M  V30 23374 H 2302.41 -4.04416 0.151587 0
M  V30 23375 H 2300.98 -3.10658 -0.347935 0
M  V30 23376 H 2300.2 -3.31778 2.12877 0
M  V30 23377 H 2301.49 -4.51663 2.3426 0
M  V30 23378 H 2300.89 -5.62058 -0.640887 0
M  V30 23379 H 2299.45 -6.50831 -0.355281 0
M  V30 23380 N 2302.88 -1.06677 -1.16008 0
M  V30 23381 C 2303.79 -0.692218 -2.24155 0
M  V30 23382 C 2304.81 0.293483 -1.71507 0
M  V30 23383 O 2305.98 0.141826 -2.009 0
M  V30 23384 C 2303.05 -0.0884741 -3.46587 0
M  V30 23385 C 2302.11 -1.12654 -4.14255 0
M  V30 23386 C 2301.34 -0.551509 -5.30843 0
M  V30 23387 O 2301.56 0.634556 -5.66859 0
M  V30 23388 O 2300.5 -1.29308 -5.87846 0
M  V30 23389 H 2304.32 -1.59392 -2.58511 0
M  V30 23390 H 2301.91 -0.839282 -1.23598 0
M  V30 23391 H 2303.79 0.246287 -4.2068 0
M  V30 23392 H 2302.47 0.786657 -3.13996 0
M  V30 23393 H 2301.37 -1.51354 -3.42115 0
M  V30 23394 H 2302.71 -1.97333 -4.50911 0
M  V30 23395 N 2304.36 1.32719 -0.8499 0
M  V30 23396 C 2305.27 2.32753 -0.293832 0
M  V30 23397 C 2306.28 1.6384 0.585878 0
M  V30 23398 O 2307.46 1.95414 0.487379 0
M  V30 23399 C 2304.52 3.42888 0.512692 0
M  V30 23400 C 2303.59 4.27501 -0.392595 0
M  V30 23401 C 2302.82 5.32377 0.375532 0
M  V30 23402 O 2303.04 5.47323 1.60603 0
M  V30 23403 O 2301.98 6.01354 -0.2562 0
M  V30 23404 H 2305.8 2.82195 -1.12247 0
M  V30 23405 H 2303.39 1.36258 -0.612709 0
M  V30 23406 H 2305.27 4.10069 0.970632 0
M  V30 23407 H 2303.94 2.95643 1.31821 0
M  V30 23408 H 2302.85 3.63147 -0.89861 0
M  V30 23409 H 2304.18 4.78258 -1.16317 0
M  V30 23410 N 2305.84 0.60738 1.45426 0
M  V30 23411 C 2306.75 -0.113422 2.34326 0
M  V30 23412 C 2307.76 -0.860591 1.51228 0
M  V30 23413 O 2308.94 -0.818223 1.8403 0
M  V30 23414 C 2306 -1.09838 3.28841 0
M  V30 23415 C 2305.06 -0.353196 4.27845 0
M  V30 23416 C 2304.3 -1.29124 5.17844 0
M  V30 23417 O 2304.52 -2.52904 5.11269 0
M  V30 23418 O 2303.45 -0.788418 5.96714 0
M  V30 23419 H 2307.28 0.617146 2.97363 0
M  V30 23420 H 2304.87 0.367644 1.44806 0
M  V30 23421 H 2306.75 -1.66568 3.87083 0
M  V30 23422 H 2305.42 -1.80998 2.68368 0
M  V30 23423 H 2304.33 0.25656 3.73219 0
M  V30 23424 H 2305.66 0.317909 4.91172 0
M  V30 23425 N 2307.31 -1.53743 0.34653 0
M  V30 23426 C 2308.22 -2.28827 -0.517252 0
M  V30 23427 C 2309.24 -1.34052 -1.10933 0
M  V30 23428 O 2310.42 -1.67092 -1.12437 0
M  V30 23429 C 2307.48 -3.04869 -1.65093 0
M  V30 23430 C 2306.54 -4.15276 -1.08833 0
M  V30 23431 C 2305.78 -4.87683 -2.16798 0
M  V30 23432 O 2306 -4.59784 -3.37572 0
M  V30 23433 O 2304.93 -5.74065 -1.80924 0
M  V30 23434 H 2308.76 -3.03557 0.0931929 0
M  V30 23435 H 2306.34 -1.48983 0.111484 0
M  V30 23436 H 2308.23 -3.52414 -2.31046 0
M  V30 23437 H 2306.9 -2.32993 -2.24713 0
M  V30 23438 H 2305.81 -3.72028 -0.393234 0
M  V30 23439 H 2307.14 -4.89262 -0.53695 0
M  V30 23440 N 2308.79 -0.0752207 -1.5742 0
M  V30 23441 C 2310.21 0.281417 -1.57099 0
M  V30 23442 C 2310.41 1.69801 -1.08489 0
M  V30 23443 O 2309.46 2.41032 -0.752321 0
M  V30 23444 C 2310.78 0.0879513 -3.00571 0
M  V30 23445 C 2312.33 0.157226 -3.12605 0
M  V30 23446 C 2312.8 -0.00800121 -4.57999 0
M  V30 23447 N 2314.29 0.0474911 -4.63176 0
M  V30 23448 C 2315.03 -0.0558884 -5.73373 0
M  V30 23449 N 2314.52 -0.212982 -6.92473 0
M  V30 23450 N 2316.32 0.00142217 -5.621 0
M  V30 23451 H 2308.47 -1.00101 -1.87333 0
M  V30 23452 H 2310.73 -0.390662 -0.863764 0
M  V30 23453 H 2310.44 -0.889689 -3.40261 0
M  V30 23454 H 2310.31 0.83881 -3.67755 0
M  V30 23455 H 2312.7 1.12536 -2.728 0
M  V30 23456 H 2312.78 -0.624793 -2.48052 0
M  V30 23457 H 2312.42 -0.972912 -4.98495 0
M  V30 23458 H 2312.35 0.793465 -5.20588 0
M  V30 23459 H 2314.84 0.167178 -3.7753 0
M  V30 23460 H 2315.16 -0.283917 -7.72278 0
M  V30 23461 H 2313.5 -0.248389 -6.94556 0
M  V30 23462 H 2316.69 0.122876 -4.67939 0
M  V30 23463 H 2316.86 -0.0825983 -6.47947 0
M  V30 23464 N 2310.27 1.56347 0.198358 0
M  V30 23465 C 2311.22 1.94286 1.24585 0
M  V30 23466 C 2312.19 0.803022 1.45399 0
M  V30 23467 O 2313.37 1.0609 1.58586 0
M  V30 23468 C 2310.51 2.28486 2.58627 0
M  V30 23469 C 2309.63 3.55518 2.4542 0
M  V30 23470 C 2308.76 3.79055 3.72143 0
M  V30 23471 C 2307.8 4.99524 3.53754 0
M  V30 23472 N 2306.94 5.19332 4.72482 0
M  V30 23473 H 2311.78 2.83595 0.915307 0
M  V30 23474 H 2309.31 1.40346 0.440604 0
M  V30 23475 H 2311.27 2.4633 3.36715 0
M  V30 23476 H 2309.9 1.42322 2.89731 0
M  V30 23477 H 2308.95 3.45739 1.58646 0
M  V30 23478 H 2310.27 4.43762 2.27764 0
M  V30 23479 H 2309.42 3.97121 4.58672 0
M  V30 23480 H 2308.16 2.89135 3.92749 0
M  V30 23481 H 2307.16 4.81384 2.65611 0
M  V30 23482 H 2308.39 5.9095 3.34597 0
M  V30 23483 H 2306.33 4.32359 4.93358 0
M  V30 23484 H 2306.25 6.01749 4.57639 0
M  V30 23485 H 2307.52 5.41853 5.60371 0
M  V30 23486 N 2311.75 -0.465951 1.50554 0
M  V30 23487 C 2312.7 -1.5633 1.69793 0
M  V30 23488 C 2313.67 -1.57102 0.539266 0
M  V30 23489 O 2314.85 -1.74554 0.770432 0
M  V30 23490 C 2311.99 -2.94268 1.80278 0
M  V30 23491 C 2311.1 -3.03245 3.07679 0
M  V30 23492 C 2310.24 -4.3213 3.08929 0
M  V30 23493 C 2309.28 -4.34868 4.30763 0
M  V30 23494 N 2308.41 -5.55232 4.29723 0
M  V30 23495 H 2313.25 -1.39231 2.63475 0
M  V30 23496 H 2310.79 -0.67685 1.30603 0
M  V30 23497 H 2312.75 -3.74266 1.84338 0
M  V30 23498 H 2311.38 -3.09991 0.900312 0
M  V30 23499 H 2310.43 -2.16088 3.13066 0
M  V30 23500 H 2311.74 -3.01128 3.97647 0
M  V30 23501 H 2310.9 -5.20479 3.11747 0
M  V30 23502 H 2309.64 -4.36863 2.168 0
M  V30 23503 H 2308.64 -3.44915 4.28152 0
M  V30 23504 H 2309.87 -4.31822 5.24125 0
M  V30 23505 H 2307.81 -5.6074 3.4045 0
M  V30 23506 H 2307.73 -5.54877 5.13466 0
M  V30 23507 H 2309 -6.45692 4.36694 0
M  V30 23508 N 2313.23 -1.40218 -0.719481 0
M  V30 23509 C 2314.14 -1.42483 -1.86375 0
M  V30 23510 C 2315.15 -0.317864 -1.71072 0
M  V30 23511 O 2316.33 -0.561828 -1.93405 0
M  V30 23512 C 2313.39 -1.28183 -3.22133 0
M  V30 23513 C 2312.45 -2.48988 -3.49719 0
M  V30 23514 C 2311.69 -2.35362 -4.79 0
M  V30 23515 O 2311.91 -1.36534 -5.53818 0
M  V30 23516 O 2310.84 -3.24659 -5.06834 0
M  V30 23517 H 2314.67 -2.38971 -1.87421 0
M  V30 23518 H 2312.26 -1.21499 -0.869384 0
M  V30 23519 H 2314.14 -1.22402 -4.03232 0
M  V30 23520 H 2312.81 -0.347991 -3.21824 0
M  V30 23521 H 2311.72 -2.60347 -2.68645 0
M  V30 23522 H 2313.05 -3.4112 -3.54822 0
M  V30 23523 N 2314.7 0.951297 -1.25651 0
M  V30 23524 C 2315.61 2.08222 -1.08077 0
M  V30 23525 C 2316.63 1.73992 -0.0169971 0
M  V30 23526 O 2317.81 2.0021 -0.218628 0
M  V30 23527 C 2314.87 3.39457 -0.704982 0
M  V30 23528 C 2313.93 3.87534 -1.84706 0
M  V30 23529 C 2313.17 5.12505 -1.48911 0
M  V30 23530 O 2313.39 5.69091 -0.386256 0
M  V30 23531 O 2312.32 5.55373 -2.32043 0
M  V30 23532 H 2316.15 2.25951 -2.02928 0
M  V30 23533 H 2313.73 1.06654 -1.0462 0
M  V30 23534 H 2315.62 4.18331 -0.507683 0
M  V30 23535 H 2314.29 3.2299 0.214234 0
M  V30 23536 H 2313.2 3.09649 -2.09924 0
M  V30 23537 H 2314.53 4.08504 -2.74564 0
M  V30 23538 N 2316.18 1.07291 1.1544 0
M  V30 23539 C 2317.41 0.816861 1.90636 0
M  V30 23540 C 2317.83 -0.624052 1.77446 0
M  V30 23541 O 2317.19 -1.436 1.10674 0
M  V30 23542 C 2317.24 1.22912 3.39006 0
M  V30 23543 O 2316.34 0.374047 4.107 0
M  V30 23544 H 2315.68 0.297649 0.59355 0
M  V30 23545 H 2318.21 1.43136 1.46196 0
M  V30 23546 H 2318.22 1.20504 3.89798 0
M  V30 23547 H 2316.9 2.27862 3.47925 0
M  V30 23548 H 2315.48 0.460564 3.70045 0
M  V30 23549 N 2317.66 -1.32267 0.856927 0
M  V30 23550 C 2318.89 -2.01362 0.475475 0
M  V30 23551 C 2319.3 -1.64393 -0.928457 0
M  V30 23552 O 2318.66 -0.866415 -1.60622 0
M  V30 23553 C 2318.71 -3.56357 0.607608 0
M  V30 23554 O 2318.43 -3.91999 1.95624 0
M  V30 23555 C 2319.93 -4.42726 0.225459 0
M  V30 23556 H 2317.15 -0.644518 0.186647 0
M  V30 23557 H 2319.7 -1.68795 1.15449 0
M  V30 23558 H 2317.85 -3.87393 -0.0237038 0
M  V30 23559 H 2318.27 -4.86718 1.95464 0
M  V30 23560 H 2319.74 -5.50766 0.368909 0
M  V30 23561 H 2320.22 -4.31203 -0.834293 0
M  V30 23562 H 2320.82 -4.17084 0.831937 0
M  V30 23563 N 2319.14 -0.615084 -1.45102 0
M  V30 23564 C 2320.1 0.0895082 -2.29025 0
M  V30 23565 C 2321.1 0.787882 -1.40175 0
M  V30 23566 O 2322.29 0.634905 -1.62218 0
M  V30 23567 C 2319.42 1.13706 -3.21378 0
M  V30 23568 H 2320.62 -0.648433 -2.92806 0
M  V30 23569 H 2318.17 -0.37447 -1.51748 0
M  V30 23570 H 2318.9 1.90552 -2.62413 0
M  V30 23571 H 2318.69 0.640407 -3.86835 0
M  V30 23572 H 2320.18 1.6303 -3.84462 0
M  V30 23573 N 2320.62 1.53557 -0.354678 0
M  V30 23574 C 2321.58 2.2402 0.484526 0
M  V30 23575 C 2322.58 1.24424 1.01859 0
M  V30 23576 O 2323.77 1.48782 0.906071 0
M  V30 23577 C 2320.9 2.9685 1.6761 0
M  V30 23578 H 2322.1 2.9961 -0.131895 0
M  V30 23579 H 2319.65 1.55939 -0.106193 0
M  V30 23580 H 2320.38 2.25475 2.33091 0
M  V30 23581 H 2320.17 3.69914 1.30023 0
M  V30 23582 H 2321.66 3.50445 2.27108 0
M  V30 23583 N 2322.1 0.083568 1.57378 0
M  V30 23584 C 2323.32 -0.594952 1.98683 0
M  V30 23585 C 2323.75 -1.61639 0.961997 0
M  V30 23586 O 2323.1 -1.81161 -0.070967 0
M  V30 23587 C 2323.15 -1.22954 3.38991 0
M  V30 23588 O 2322.26 -2.3454 3.39212 0
M  V30 23589 H 2321.6 -0.151991 0.64637 0
M  V30 23590 H 2324.13 0.161568 2.03961 0
M  V30 23591 H 2324.14 -1.57359 3.76433 0
M  V30 23592 H 2322.81 -0.481155 4.13107 0
M  V30 23593 H 2321.39 -2.01841 3.13552 0
M  V30 23594 N 2323.57 -1.5645 -0.190064 0
M  V30 23595 C 2324.48 -1.98154 -1.25587 0
M  V30 23596 C 2325.5 -0.88997 -1.49518 0
M  V30 23597 O 2326.68 -1.19612 -1.62034 0
M  V30 23598 C 2323.74 -2.31695 -2.57912 0
M  V30 23599 C 2322.8 -3.54585 -2.42009 0
M  V30 23600 C 2322.03 -3.86516 -3.68023 0
M  V30 23601 O 2322.26 -3.19668 -4.72407 0
M  V30 23602 O 2321.19 -4.79929 -3.63251 0
M  V30 23603 H 2325.02 -2.89048 -0.931938 0
M  V30 23604 H 2322.6 -1.44071 -0.395463 0
M  V30 23605 H 2324.48 -2.54321 -3.36004 0
M  V30 23606 H 2323.16 -1.43968 -2.89922 0
M  V30 23607 H 2322.07 -3.37199 -1.62011 0
M  V30 23608 H 2323.4 -4.42794 -2.14929 0
M  V30 23609 N 2325.05 0.45796 -1.50799 0
M  V30 23610 C 2326.28 1.23201 -1.6622 0
M  V30 23611 C 2326.69 1.8551 -0.350926 0
M  V30 23612 O 2326.05 1.69815 0.668517 0
M  V30 23613 C 2326.1 2.33116 -2.76295 0
M  V30 23614 O 2325.82 1.73359 -4.02341 0
M  V30 23615 C 2327.32 3.23765 -3.02805 0
M  V30 23616 H 2324.54 0.372111 -0.558367 0
M  V30 23617 H 2327.09 0.545145 -1.971 0
M  V30 23618 H 2325.24 2.97554 -2.48073 0
M  V30 23619 H 2325.66 2.45842 -4.63316 0
M  V30 23620 H 2327.13 3.9707 -3.83457 0
M  V30 23621 H 2327.61 3.83318 -2.14392 0
M  V30 23622 H 2328.21 2.6505 -3.32609 0
M  V30 23623 N 2326.53 1.40598 0.712035 0
M  V30 23624 C 2327.76 1.4239 1.50109 0
M  V30 23625 C 2328.17 0.0245727 1.88784 0
M  V30 23626 O 2327.53 -0.952324 1.55683 0
M  V30 23627 C 2327.58 2.31781 2.77416 0
M  V30 23628 O 2327.3 3.66267 2.40375 0
M  V30 23629 C 2328.8 2.42203 3.71285 0
M  V30 23630 H 2326.02 0.485541 0.463132 0
M  V30 23631 H 2328.57 1.84691 0.878035 0
M  V30 23632 H 2326.72 1.92833 3.35997 0
M  V30 23633 H 2327.14 4.13778 3.22317 0
M  V30 23634 H 2328.61 3.08951 4.57442 0
M  V30 23635 H 2329.09 1.44817 4.14638 0
M  V30 23636 H 2329.69 2.81718 3.18614 0
M  V30 23637 N 2328.01 -0.94462 1.26153 0
M  V30 23638 C 2328.92 -2.07646 1.0918 0
M  V30 23639 C 2329.93 -1.7398 0.0262241 0
M  V30 23640 O 2331.11 -2.00091 0.229243 0
M  V30 23641 C 2328.17 -3.39078 0.722974 0
M  V30 23642 C 2327.24 -3.86549 1.86758 0
M  V30 23643 C 2326.47 -5.11708 1.51626 0
M  V30 23644 O 2326.69 -5.68878 0.416431 0
M  V30 23645 O 2325.63 -5.54135 2.34985 0
M  V30 23646 H 2329.45 -2.24872 2.04124 0
M  V30 23647 H 2327.04 -1.06098 1.05184 0
M  V30 23648 H 2328.92 -4.18056 0.529861 0
M  V30 23649 H 2327.59 -3.23099 -0.197102 0
M  V30 23650 H 2326.5 -3.08531 2.11564 0
M  V30 23651 H 2327.83 -4.07042 2.76726 0
M  V30 23652 N 2329.49 -1.07901 -1.1487 0
M  V30 23653 C 2330.73 -0.803973 -1.8542 0
M  V30 23654 C 2331.05 0.672078 -1.83052 0
M  V30 23655 O 2330.32 1.487 -1.27534 0
M  V30 23656 H 2328.9 -0.29442 -0.686532 0
M  V30 23657 H 2331.57 -1.36393 -1.39223 0
M  V30 23658 H 2330.66 -1.14351 -2.90397 0
M  V30 23659 N 2330.96 1.31811 -0.863929 0
M  V30 23660 C 2332.19 2.01642 -0.485305 0
M  V30 23661 C 2332.61 1.64455 0.913029 0
M  V30 23662 O 2331.97 0.850013 1.60139 0
M  V30 23663 C 2332.02 3.54827 -0.642687 0
M  V30 23664 O 2331.12 4.11152 0.320587 0
M  V30 23665 H 2330.46 0.635087 -0.193804 0
M  V30 23666 H 2332.99 1.68146 -1.16568 0
M  V30 23667 H 2333 4.04494 -0.533699 0
M  V30 23668 H 2331.68 3.81234 -1.66233 0
M  V30 23669 H 2330.26 3.72526 0.167061 0
M  V30 23670 N 2332.44 0.62277 1.44773 0
M  V30 23671 C 2333.37 -0.125445 2.28856 0
M  V30 23672 C 2334.39 -0.817044 1.40813 0
M  V30 23673 O 2335.58 -0.679889 1.65045 0
M  V30 23674 C 2332.68 -1.19944 3.16965 0
M  V30 23675 C 2331.85 -0.591988 4.33375 0
M  V30 23676 C 2330.91 -1.55884 5.0258 0
M  V30 23677 O 2329.93 -1.07923 5.58875 0
M  V30 23678 N 2331.14 -2.89325 5.03261 0
M  V30 23679 H 2333.9 0.596119 2.93712 0
M  V30 23680 H 2331.46 0.46333 1.55129 0
M  V30 23681 H 2333.45 -1.84638 3.60126 0
M  V30 23682 H 2332.02 -1.82333 2.53916 0
M  V30 23683 H 2331.24 0.233391 3.93508 0
M  V30 23684 H 2332.53 -0.166649 5.08527 0
M  V30 23685 H 2331.93 -3.30879 4.58842 0
M  V30 23686 H 2330.49 -3.49402 5.50238 0
M  V30 23687 N 2333.92 -1.53367 0.362817 0
M  V30 23688 C 2335.17 -2.00818 -0.22729 0
M  V30 23689 C 2335.49 -1.25188 -1.49509 0
M  V30 23690 O 2334.76 -0.364382 -1.92481 0
M  V30 23691 H 2333.34 -0.741919 -0.0869792 0
M  V30 23692 H 2336 -1.88681 0.488414 0
M  V30 23693 H 2335.1 -3.08748 -0.456219 0
M  V30 23694 N 2335.4 -0.091913 -1.57332 0
M  V30 23695 C 2336.68 0.614636 -1.85692 0
M  V30 23696 C 2337.06 1.86543 -0.988179 0
M  V30 23697 O 2336.4 2.28422 -0.0597456 0
M  V30 23698 C 2336.61 0.933067 -3.36296 0
M  V30 23699 C 2337.96 1.29789 -4.04277 0
M  V30 23700 O 2338.99 1.02418 -3.41158 0
M  V30 23701 O 2337.84 1.81038 -5.15643 0
M  V30 23702 H 2334.94 0.307248 -0.767807 0
M  V30 23703 H 2337.48 -0.124369 -1.69244 0
M  V30 23704 H 2336.26 0.0455716 -3.91273 0
M  V30 23705 H 2335.88 1.72816 -3.58079 0
M  V30 23706 N 2336.88 1.56548 0.181765 0
M  V30 23707 C 2338.1 1.85879 0.919987 0
M  V30 23708 C 2338.53 0.677052 1.75493 0
M  V30 23709 O 2337.88 -0.374025 1.774 0
M  V30 23710 C 2337.93 3.13545 1.78107 0
M  V30 23711 O 2337.04 2.95034 2.88147 0
M  V30 23712 H 2336.38 0.61169 0.258323 0
M  V30 23713 H 2338.91 2.03779 0.183056 0
M  V30 23714 H 2338.92 3.44682 2.18308 0
M  V30 23715 H 2337.59 3.99171 1.1677 0
M  V30 23716 H 2336.17 2.75226 2.51604 0
M  V30 23717 N 2338.35 -0.449957 1.5104 0
M  V30 23718 C 2339.3 -1.5452 1.71441 0
M  V30 23719 C 2340.27 -1.56521 0.555899 0
M  V30 23720 O 2341.46 -1.73727 0.788902 0
M  V30 23721 C 2338.6 -2.9234 1.83389 0
M  V30 23722 C 2337.71 -2.99965 3.10878 0
M  V30 23723 C 2336.84 -4.28829 3.13495 0
M  V30 23724 C 2335.88 -4.30274 4.35351 0
M  V30 23725 N 2335.02 -5.50643 4.35588 0
M  V30 23726 H 2339.86 -1.36428 2.64936 0
M  V30 23727 H 2337.4 -0.662959 1.31314 0
M  V30 23728 H 2339.36 -3.7229 1.88298 0
M  V30 23729 H 2337.99 -3.09018 0.93314 0
M  V30 23730 H 2337.04 -2.12755 3.1534 0
M  V30 23731 H 2338.35 -2.96893 4.00819 0
M  V30 23732 H 2337.5 -5.17143 3.1725 0
M  V30 23733 H 2336.24 -4.34539 2.21421 0
M  V30 23734 H 2335.25 -3.40354 4.31786 0
M  V30 23735 H 2336.47 -4.26239 5.28675 0
M  V30 23736 H 2334.42 -5.57098 3.46378 0
M  V30 23737 H 2334.34 -5.494 5.19323 0
M  V30 23738 H 2335.6 -6.41024 4.43518 0
M  V30 23739 N 2339.83 -1.40974 -0.704569 0
M  V30 23740 C 2340.78 -1.42302 -1.83992 0
M  V30 23741 C 2341.77 -0.302141 -1.66684 0
M  V30 23742 O 2342.98 -0.473727 -1.73654 0
M  V30 23743 H 2339.36 -0.445051 -0.606163 0
M  V30 23744 H 2341.33 -2.38006 -1.79988 0
M  V30 23745 C 2340.08 -1.31329 -3.21944 0
M  V30 23746 H 2339.4 -2.16861 -3.35874 0
M  V30 23747 H 2340.84 -1.36318 -4.01489 0
M  V30 23748 C 2339.3 -0.0246569 -3.36891 0
M  V30 23749 O 2339.83 0.934085 -3.90689 0
M  V30 23750 N 2338.03 0.0484732 -2.9056 0
M  V30 23751 H 2337.58 -0.732462 -2.46967 0
M  V30 23752 H 2337.54 0.910118 -3.00939 0
M  V30 23753 N 2341.31 0.937917 -1.26653 0
M  V30 23754 C 2342.27 2.01865 -1.08549 0
M  V30 23755 C 2343.27 1.60767 -0.032761 0
M  V30 23756 O 2344.46 1.71992 -0.276458 0
M  V30 23757 C 2341.6 3.34611 -0.651769 0
M  V30 23758 H 2342.79 2.19357 -2.04506 0
M  V30 23759 H 2340.34 1.11732 -1.09296 0
M  V30 23760 H 2341.08 3.22818 0.309639 0
M  V30 23761 H 2340.86 3.65795 -1.41195 0
M  V30 23762 H 2342.35 4.14001 -0.547046 0
M  V30 23763 N 2342.79 1.08509 1.14296 0
M  V30 23764 C 2343.74 0.716003 2.19413 0
M  V30 23765 C 2344.71 -0.298297 1.634 0
M  V30 23766 O 2345.89 -0.182067 1.89929 0
M  V30 23767 C 2343.03 0.132594 3.44845 0
M  V30 23768 C 2342.14 1.1998 4.15005 0
M  V30 23769 C 2341.28 0.580141 5.28023 0
M  V30 23770 C 2340.32 1.62931 5.90017 0
M  V30 23771 N 2339.45 1.03137 6.94483 0
M  V30 23772 H 2344.29 1.6167 2.50333 0
M  V30 23773 H 2341.83 0.807904 1.22928 0
M  V30 23774 H 2343.79 -0.223381 4.16602 0
M  V30 23775 H 2342.42 -0.731412 3.14405 0
M  V30 23776 H 2341.47 1.67319 3.41626 0
M  V30 23777 H 2342.78 1.99481 4.57175 0
M  V30 23778 H 2341.94 0.172471 6.06455 0
M  V30 23779 H 2340.68 -0.246518 4.87077 0
M  V30 23780 H 2339.68 2.04663 5.10287 0
M  V30 23781 H 2340.91 2.45846 6.33037 0
M  V30 23782 H 2338.85 0.225826 6.55611 0
M  V30 23783 H 2338.77 1.76347 7.35145 0
M  V30 23784 H 2340.04 0.649594 7.76789 0
M  V30 23785 N 2344.27 -1.31351 0.870907 0
M  V30 23786 C 2345.21 -2.28494 0.325465 0
M  V30 23787 C 2346.18 -1.55771 -0.576588 0
M  V30 23788 O 2347.37 -1.83912 -0.508026 0
M  V30 23789 C 2344.51 -3.41936 -0.466223 0
M  V30 23790 C 2343.62 -4.29507 0.463454 0
M  V30 23791 C 2342.76 -5.30095 -0.342451 0
M  V30 23792 C 2341.8 -6.09312 0.583593 0
M  V30 23793 N 2340.93 -7.01853 -0.18612 0
M  V30 23794 H 2345.77 -2.74536 1.15906 0
M  V30 23795 H 2343.31 -1.35055 0.582963 0
M  V30 23796 H 2345.27 -4.06449 -0.941013 0
M  V30 23797 H 2343.9 -2.97002 -1.26451 0
M  V30 23798 H 2342.95 -3.65429 1.05669 0
M  V30 23799 H 2344.26 -4.848 1.17349 0
M  V30 23800 H 2343.42 -6.00288 -0.87971 0
M  V30 23801 H 2342.15 -4.7546 -1.08577 0
M  V30 23802 H 2341.16 -5.38008 1.1326 0
M  V30 23803 H 2342.38 -6.66033 1.32578 0
M  V30 23804 H 2340.33 -6.49626 -0.912234 0
M  V30 23805 H 2340.25 -7.54571 0.464555 0
M  V30 23806 H 2341.52 -7.76309 -0.70458 0
M  V30 23807 N 2345.74 -0.630439 -1.44441 0
M  V30 23808 C 2346.69 0.074895 -2.30678 0
M  V30 23809 C 2347.66 0.837477 -1.43442 0
M  V30 23810 O 2348.85 0.818653 -1.72345 0
M  V30 23811 C 2345.99 1.05097 -3.28708 0
M  V30 23812 C 2345.1 0.286878 -4.31046 0
M  V30 23813 C 2344.23 1.25471 -5.16169 0
M  V30 23814 C 2343.27 0.479736 -6.10217 0
M  V30 23815 N 2342.41 1.39799 -6.88041 0
M  V30 23816 H 2347.25 -0.666438 -2.90452 0
M  V30 23817 H 2344.79 -0.340429 -1.43107 0
M  V30 23818 H 2346.75 1.63025 -3.8403 0
M  V30 23819 H 2345.38 1.75944 -2.70635 0
M  V30 23820 H 2344.43 -0.40831 -3.78202 0
M  V30 23821 H 2345.74 -0.316745 -4.97793 0
M  V30 23822 H 2344.89 1.90534 -5.76005 0
M  V30 23823 H 2343.63 1.89225 -4.49494 0
M  V30 23824 H 2342.64 -0.184391 -5.49491 0
M  V30 23825 H 2343.86 -0.153084 -6.78927 0
M  V30 23826 H 2341.81 2.02276 -6.24036 0
M  V30 23827 H 2341.73 0.848376 -7.51225 0
M  V30 23828 H 2342.99 2.03749 -7.52401 0
M  V30 23829 N 2347.22 1.53172 -0.370945 0
M  V30 23830 C 2348.17 2.27422 0.488061 0
M  V30 23831 C 2349.16 1.30606 1.07882 0
M  V30 23832 O 2350.37 1.48214 1.0214 0
M  V30 23833 H 2346.75 0.731085 0.176121 0
M  V30 23834 H 2348.72 2.97971 -0.159867 0
M  V30 23835 C 2347.47 3.08022 1.613 0
M  V30 23836 H 2346.79 3.82366 1.16773 0
M  V30 23837 H 2348.23 3.63144 2.18866 0
M  V30 23838 C 2346.69 2.19193 2.55844 0
M  V30 23839 O 2347.22 1.80633 3.58796 0
M  V30 23840 N 2345.42 1.83719 2.25157 0
M  V30 23841 H 2344.97 2.15275 1.41472 0
M  V30 23842 H 2344.93 1.24572 2.88668 0
M  V30 23843 N 2348.7 0.100255 1.57281 0
M  V30 23844 C 2349.65 -0.87429 2.15543 0
M  V30 23845 C 2350.64 -1.28857 1.09964 0
M  V30 23846 O 2351.85 -1.2625 1.283 0
M  V30 23847 H 2348.22 -0.299991 0.689572 0
M  V30 23848 H 2350.19 -0.358238 2.96242 0
M  V30 23849 C 2348.94 -2.12175 2.75458 0
M  V30 23850 H 2348.27 -1.81186 3.56387 0
M  V30 23851 H 2349.71 -2.78412 3.19786 0
M  V30 23852 C 2348.17 -2.89918 1.71607 0
M  V30 23853 O 2348.7 -3.84644 1.15811 0
M  V30 23854 N 2346.9 -2.53555 1.41979 0
M  V30 23855 H 2346.45 -1.76595 1.87542 0
M  V30 23856 H 2346.41 -3.05871 0.727328 0
M  V30 23857 N 2350.18 -1.56643 -0.17346 0
M  V30 23858 C 2351.13 -1.96244 -1.21479 0
M  V30 23859 C 2352.1 -0.826052 -1.44103 0
M  V30 23860 O 2353.28 -1.086 -1.56878 0
M  V30 23861 C 2350.42 -2.32572 -2.5496 0
M  V30 23862 C 2349.53 -3.59378 -2.39733 0
M  V30 23863 C 2348.67 -3.84928 -3.66066 0
M  V30 23864 C 2347.71 -5.05089 -3.45763 0
M  V30 23865 N 2346.85 -5.26783 -4.6416 0
M  V30 23866 H 2351.69 -2.85015 -0.870073 0
M  V30 23867 H 2349.22 -1.4103 -0.41822 0
M  V30 23868 H 2351.18 -2.51656 -3.32754 0
M  V30 23869 H 2349.81 -1.46913 -2.8743 0
M  V30 23870 H 2348.86 -3.4822 -1.53125 0
M  V30 23871 H 2350.17 -4.4733 -2.20675 0
M  V30 23872 H 2349.33 -4.04368 -4.52296 0
M  V30 23873 H 2348.07 -2.95347 -3.881 0
M  V30 23874 H 2347.07 -4.85549 -2.57919 0
M  V30 23875 H 2348.3 -5.96198 -3.25153 0
M  V30 23876 H 2346.24 -4.40153 -4.86417 0
M  V30 23877 H 2346.16 -6.08954 -4.48008 0
M  V30 23878 H 2347.43 -5.507 -5.51679 0
M  V30 23879 N 2351.66 0.44194 -1.51277 0
M  V30 23880 C 2352.6 1.53609 -1.72258 0
M  V30 23881 C 2353.57 1.56224 -0.564191 0
M  V30 23882 O 2354.76 1.73306 -0.798104 0
M  V30 23883 C 2351.9 2.91363 -1.84937 0
M  V30 23884 C 2351.01 2.98312 -3.12465 0
M  V30 23885 C 2350.15 4.2716 -3.15765 0
M  V30 23886 C 2349.19 4.2796 -4.37627 0
M  V30 23887 N 2348.32 5.48325 -4.38502 0
M  V30 23888 H 2353.16 1.35021 -2.65656 0
M  V30 23889 H 2350.7 0.655986 -1.31663 0
M  V30 23890 H 2352.66 3.71286 -1.90269 0
M  V30 23891 H 2351.29 3.08519 -0.949515 0
M  V30 23892 H 2350.34 2.1108 -3.16464 0
M  V30 23893 H 2351.65 2.94764 -4.02388 0
M  V30 23894 H 2350.81 5.15454 -3.19988 0
M  V30 23895 H 2349.55 4.33358 -2.23723 0
M  V30 23896 H 2348.55 3.3806 -4.33585 0
M  V30 23897 H 2349.78 4.23429 -5.30928 0
M  V30 23898 H 2347.72 5.55253 -3.49328 0
M  V30 23899 H 2347.64 5.46638 -5.22229 0
M  V30 23900 H 2348.91 6.38663 -4.46912 0
M  V30 23901 N 2353.14 1.41345 0.697083 0
M  V30 23902 C 2354.36 1.43974 1.4859 0
M  V30 23903 C 2354.78 0.0445944 1.88747 0
M  V30 23904 O 2354.14 -0.935758 1.56684 0
M  V30 23905 C 2354.19 2.34711 2.74942 0
M  V30 23906 O 2353.91 3.68796 2.36477 0
M  V30 23907 C 2355.41 2.46127 3.68695 0
M  V30 23908 H 2352.63 0.490426 0.457956 0
M  V30 23909 H 2355.17 1.85612 0.858397 0
M  V30 23910 H 2353.33 1.96386 3.33933 0
M  V30 23911 H 2353.74 4.17173 3.1791 0
M  V30 23912 H 2355.22 3.13785 4.5414 0
M  V30 23913 H 2355.69 1.49206 4.13079 0
M  V30 23914 H 2356.3 2.85081 3.15608 0
M  V30 23915 N 2354.61 -0.931187 1.27148 0
M  V30 23916 C 2355.56 -2.05266 1.09402 0
M  V30 23917 C 2356.56 -1.6939 0.0180889 0
M  V30 23918 O 2357.76 -1.79142 0.175542 0
M  V30 23919 H 2354.14 -0.672262 0.336998 0
M  V30 23920 H 2356.11 -2.17382 2.0442 0
M  V30 23921 C 2354.86 -3.3942 0.754299 0
M  V30 23922 H 2354.18 -3.67508 1.57411 0
M  V30 23923 H 2355.62 -4.18673 0.669977 0
M  V30 23924 C 2354.08 -3.32526 -0.541138 0
M  V30 23925 O 2354.61 -3.69469 -1.57657 0
M  V30 23926 N 2352.81 -2.85624 -0.535467 0
M  V30 23927 H 2352.36 -2.55757 0.307556 0
M  V30 23928 H 2352.32 -2.81394 -1.40231 0
M  V30 23929 N 2356.09 -1.09114 -1.13719 0
M  V30 23930 C 2357.04 -0.727629 -2.1903 0
M  V30 23931 C 2358.01 0.289627 -1.63555 0
M  V30 23932 O 2359.19 0.171992 -1.90023 0
M  V30 23933 C 2356.33 -0.150881 -3.4477 0
M  V30 23934 C 2355.45 -1.22179 -4.14363 0
M  V30 23935 C 2354.58 -0.608135 -5.27707 0
M  V30 23936 C 2353.62 -1.66058 -5.89145 0
M  V30 23937 N 2352.76 -1.06819 -6.93927 0
M  V30 23938 H 2357.6 -1.62996 -2.49472 0
M  V30 23939 H 2355.13 -0.814412 -1.22498 0
M  V30 23940 H 2357.09 0.201284 -4.16714 0
M  V30 23941 H 2355.72 0.714728 -3.14788 0
M  V30 23942 H 2354.77 -1.69128 -3.40734 0
M  V30 23943 H 2356.09 -2.01903 -4.5611 0
M  V30 23944 H 2355.24 -0.20463 -6.06355 0
M  V30 23945 H 2353.98 0.220683 -4.872 0
M  V30 23946 H 2352.98 -2.07366 -5.09195 0
M  V30 23947 H 2354.21 -2.492 -6.31725 0
M  V30 23948 H 2352.16 -0.260591 -6.55482 0
M  V30 23949 H 2352.07 -1.80243 -7.34199 0
M  V30 23950 H 2353.34 -0.69078 -7.76433 0
M  V30 23951 N 2357.57 1.30887 -0.877861 0
M  V30 23952 C 2358.52 2.30266 -0.328702 0
M  V30 23953 C 2359.51 1.5986 0.560468 0
M  V30 23954 O 2360.72 1.74395 0.445691 0
M  V30 23955 H 2357.09 0.746877 -0.0876274 0
M  V30 23956 H 2359.06 2.74049 -1.18066 0
M  V30 23957 C 2357.81 3.44802 0.44801 0
M  V30 23958 H 2357.14 3.99155 -0.226929 0
M  V30 23959 H 2358.58 4.16433 0.797468 0
M  V30 23960 C 2357.03 2.94158 1.64234 0
M  V30 23961 O 2357.56 2.93588 2.74169 0
M  V30 23962 N 2355.77 2.50259 1.47712 0
M  V30 23963 H 2355.32 2.50921 0.582777 0
M  V30 23964 H 2355.28 2.16731 2.27761 0
M  V30 23965 N 2359.05 0.638091 1.44105 0
M  V30 23966 C 2359.99 -0.0626605 2.30715 0
M  V30 23967 C 2360.96 -0.829858 1.43884 0
M  V30 23968 O 2362.15 -0.809502 1.72776 0
M  V30 23969 C 2359.29 -1.03352 3.2926 0
M  V30 23970 C 2358.4 -0.264015 4.31192 0
M  V30 23971 C 2357.54 -1.22732 5.16827 0
M  V30 23972 C 2356.58 -0.447368 6.10463 0
M  V30 23973 N 2355.71 -1.36149 6.88773 0
M  V30 23974 H 2360.55 0.681832 2.90095 0
M  V30 23975 H 2358.09 0.348013 1.42924 0
M  V30 23976 H 2360.05 -1.60986 3.84889 0
M  V30 23977 H 2358.68 -1.74506 2.71565 0
M  V30 23978 H 2357.73 0.428361 3.7798 0
M  V30 23979 H 2359.04 0.34314 4.97618 0
M  V30 23980 H 2358.2 -1.87477 5.77007 0
M  V30 23981 H 2356.94 -1.86839 4.50491 0
M  V30 23982 H 2355.94 0.213529 5.49385 0
M  V30 23983 H 2357.17 0.189087 6.78837 0
M  V30 23984 H 2355.11 -1.98964 6.25099 0
M  V30 23985 H 2355.03 -0.808524 7.51664 0
M  V30 23986 H 2356.3 -1.99756 7.53471 0
M  V30 23987 N 2360.53 -1.52973 0.379063 0
M  V30 23988 C 2361.75 -2.06341 -0.209317 0
M  V30 23989 C 2362.18 -1.24975 -1.4058 0
M  V30 23990 O 2361.53 -0.272186 -1.79245 0
M  V30 23991 C 2361.58 -3.56103 -0.567723 0
M  V30 23992 O 2360.69 -3.77378 -1.66312 0
M  V30 23993 H 2360.03 -0.663439 -0.0272802 0
M  V30 23994 H 2362.56 -1.97247 0.54357 0
M  V30 23995 H 2362.57 -3.99366 -0.834933 0
M  V30 23996 H 2361.24 -4.14765 0.307086 0
M  V30 23997 H 2359.82 -3.46008 -1.39042 0
M  V30 23998 N 2362 -0.108595 -1.57225 0
M  V30 23999 C 2363.23 0.563268 -1.99605 0
M  V30 24000 C 2363.65 1.60088 -0.987591 0
M  V30 24001 O 2363.01 1.81251 0.0421369 0
M  V30 24002 C 2363.06 1.17546 -3.40904 0
M  V30 24003 O 2362.16 2.29114 -3.429 0
M  V30 24004 H 2361.5 0.141689 -0.648707 0
M  V30 24005 H 2364.03 -0.193996 -2.03678 0
M  V30 24006 H 2364.04 1.51351 -3.78889 0
M  V30 24007 H 2362.72 0.415372 -4.13821 0
M  V30 24008 H 2361.3 1.96827 -3.16723 0
M  V30 24009 N 2363.48 1.56732 0.16515 0
M  V30 24010 C 2364.73 1.81534 0.879111 0
M  V30 24011 C 2365.04 0.686874 1.83143 0
M  V30 24012 O 2366.25 0.819989 2.58821 0
M  V30 24013 C 2364.71 3.21689 1.61382 0
M  V30 24014 C 2364.31 4.42421 0.704826 0
M  V30 24015 C 2366.06 3.55778 2.31564 0
M  V30 24016 C 2363.96 5.73598 1.44012 0
M  V30 24017 H 2362.89 0.676963 0.332021 0
M  V30 24018 H 2365.55 1.83025 0.131976 0
M  V30 24019 H 2363.93 3.14533 2.40593 0
M  V30 24020 H 2365.1 4.60772 -0.0507625 0
M  V30 24021 H 2363.42 4.16248 0.112346 0
M  V30 24022 H 2366.01 4.51033 2.87182 0
M  V30 24023 H 2366.36 2.80956 3.07196 0
M  V30 24024 H 2366.89 3.64515 1.5929 0
M  V30 24025 H 2363.63 6.51467 0.726005 0
M  V30 24026 H 2363.15 5.59213 2.16888 0
M  V30 24027 H 2364.83 6.15767 1.98595 0
M  V30 24028 N 2364.96 -0.433911 1.51509 0
M  V30 24029 C 2366.18 -1.21 1.68445 0
M  V30 24030 C 2366.61 -1.84166 0.382669 0
M  V30 24031 O 2365.97 -1.68957 -0.65752 0
M  V30 24032 C 2366.02 -2.26722 2.80409 0
M  V30 24033 O 2365.12 -3.32288 2.44251 0
M  V30 24034 H 2364.46 -0.354353 0.561543 0
M  V30 24035 H 2366.99 -0.511989 1.9809 0
M  V30 24036 H 2367 -2.71452 3.04594 0
M  V30 24037 H 2365.68 -1.80126 3.7487 0
M  V30 24038 H 2364.25 -2.93011 2.30649 0
M  V30 24039 N 2366.44 -1.41713 -0.689577 0
M  V30 24040 C 2367.85 -1.24314 -1.00091 0
M  V30 24041 C 2368.05 -0.136764 -2.01035 0
M  V30 24042 O 2367.11 0.496874 -2.47563 0
M  V30 24043 C 2368.42 -2.59466 -1.5198 0
M  V30 24044 C 2369.97 -2.66698 -1.63833 0
M  V30 24045 C 2370.45 -4.0218 -2.19123 0
M  V30 24046 N 2371.94 -4.04058 -2.26476 0
M  V30 24047 C 2372.67 -5.05694 -2.70297 0
M  V30 24048 N 2372.17 -6.17719 -3.1368 0
M  V30 24049 N 2373.96 -4.93054 -2.69915 0
M  V30 24050 H 2366.11 -2.1239 -0.0209656 0
M  V30 24051 H 2368.38 -0.945273 -0.0718567 0
M  V30 24052 H 2368.08 -3.41208 -0.85263 0
M  V30 24053 H 2367.96 -2.82366 -2.50098 0
M  V30 24054 H 2370.34 -1.8531 -2.29661 0
M  V30 24055 H 2370.42 -2.47601 -0.642449 0
M  V30 24056 H 2370.07 -4.84019 -1.53909 0
M  V30 24057 H 2370 -4.18621 -3.19475 0
M  V30 24058 H 2372.49 -3.23178 -1.95868 0
M  V30 24059 H 2372.8 -6.91136 -3.45761 0
M  V30 24060 H 2371.15 -6.21246 -3.11574 0
M  V30 24061 H 2374.34 -4.04618 -2.35375 0
M  V30 24062 H 2374.51 -5.724 -3.03748 0
M  V30 24063 N 2367.92 0.924431 -1.2764 0
M  V30 24064 C 2368.88 2.00703 -1.10684 0
M  V30 24065 C 2369.88 1.60723 -0.0498106 0
M  V30 24066 O 2371.07 1.71689 -0.294684 0
M  V30 24067 C 2368.2 3.33901 -0.687223 0
M  V30 24068 H 2369.39 2.17175 -2.06821 0
M  V30 24069 H 2366.95 1.10567 -1.10475 0
M  V30 24070 H 2367.68 3.23129 0.275382 0
M  V30 24071 H 2367.47 3.64277 -1.45067 0
M  V30 24072 H 2368.96 4.13398 -0.590925 0
M  V30 24073 N 2369.39 1.09715 1.13139 0
M  V30 24074 C 2370.34 0.733973 2.20716 0
M  V30 24075 C 2371.34 -0.266476 1.67291 0
M  V30 24076 O 2372.54 -0.127624 1.79547 0
M  V30 24077 H 2368.92 0.219383 0.719288 0
M  V30 24078 H 2370.89 1.65034 2.48609 0
M  V30 24079 C 2369.64 0.17391 3.47265 0
M  V30 24080 H 2368.96 0.934942 3.88714 0
M  V30 24081 H 2370.4 -0.0422381 4.23979 0
M  V30 24082 C 2368.86 -1.09158 3.18726 0
M  V30 24083 O 2369.39 -2.17433 3.37766 0
M  V30 24084 N 2367.6 -1.00727 2.72585 0
M  V30 24085 H 2367.14 -0.126076 2.57291 0
M  V30 24086 H 2367.1 -1.85471 2.53866 0
M  V30 24087 N 2370.87 -1.30419 0.88479 0
M  V30 24088 C 2371.82 -2.28136 0.349682 0
M  V30 24089 C 2372.79 -1.56374 -0.560034 0
M  V30 24090 O 2373.97 -1.84441 -0.488492 0
M  V30 24091 C 2371.11 -3.42411 -0.429929 0
M  V30 24092 C 2370.23 -4.28991 0.508983 0
M  V30 24093 C 2369.36 -5.30428 -0.286208 0
M  V30 24094 C 2368.4 -6.08658 0.648186 0
M  V30 24095 N 2367.54 -7.02011 -0.111669 0
M  V30 24096 H 2372.38 -2.73291 1.18811 0
M  V30 24097 H 2369.92 -1.34429 0.597255 0
M  V30 24098 H 2371.87 -4.07424 -0.897851 0
M  V30 24099 H 2370.5 -2.98326 -1.23294 0
M  V30 24100 H 2369.56 -3.64287 1.09539 0
M  V30 24101 H 2370.87 -4.83528 1.22484 0
M  V30 24102 H 2370.02 -6.01188 -0.815992 0
M  V30 24103 H 2368.76 -4.76585 -1.03528 0
M  V30 24104 H 2367.77 -5.36776 1.1896 0
M  V30 24105 H 2368.99 -6.64589 1.39635 0
M  V30 24106 H 2366.94 -6.50557 -0.843281 0
M  V30 24107 H 2366.85 -7.54036 0.544561 0
M  V30 24108 H 2368.12 -7.77013 -0.622202 0
M  V30 24109 N 2372.35 -0.645724 -1.43764 0
M  V30 24110 C 2373.3 0.0504242 -2.30745 0
M  V30 24111 C 2374.27 0.822216 -1.44322 0
M  V30 24112 O 2375.45 0.800328 -1.73203 0
M  V30 24113 C 2372.59 1.01605 -3.29804 0
M  V30 24114 C 2371.71 0.241144 -4.31326 0
M  V30 24115 C 2370.84 1.19989 -5.17471 0
M  V30 24116 C 2369.88 0.414987 -6.10692 0
M  V30 24117 N 2369.02 1.32494 -6.89485 0
M  V30 24118 H 2373.86 -0.697206 -2.89729 0
M  V30 24119 H 2371.39 -0.355588 -1.42737 0
M  V30 24120 H 2373.35 1.58942 -3.85737 0
M  V30 24121 H 2371.98 1.73064 -2.72486 0
M  V30 24122 H 2371.03 -0.4484 -3.77748 0
M  V30 24123 H 2372.35 -0.369525 -4.97429 0
M  V30 24124 H 2371.5 1.84414 -5.77993 0
M  V30 24125 H 2370.24 1.84447 -4.51476 0
M  V30 24126 H 2369.24 -0.242662 -5.49264 0
M  V30 24127 H 2370.47 -0.225085 -6.78727 0
M  V30 24128 H 2368.41 1.95646 -6.26146 0
M  V30 24129 H 2368.33 0.76865 -7.52082 0
M  V30 24130 H 2369.6 1.95757 -7.54519 0
M  V30 24131 N 2373.83 1.5277 -0.38717 0
M  V30 24132 C 2374.78 2.2639 0.449009 0
M  V30 24133 C 2375.75 1.27914 1.05958 0
M  V30 24134 O 2376.93 1.56739 1.08801 0
M  V30 24135 C 2374.07 3.07242 1.5715 0
M  V30 24136 C 2373.18 4.20644 0.983992 0
M  V30 24137 C 2372.32 4.88896 2.07736 0
M  V30 24138 C 2371.36 5.94294 1.46564 0
M  V30 24139 N 2370.49 6.5615 2.49822 0
M  V30 24140 H 2375.33 2.97424 -0.185257 0
M  V30 24141 H 2372.87 1.46738 -0.10319 0
M  V30 24142 H 2374.83 3.52409 2.23303 0
M  V30 24143 H 2373.46 2.38423 2.17611 0
M  V30 24144 H 2372.51 3.79808 0.212126 0
M  V30 24145 H 2373.82 4.96318 0.496942 0
M  V30 24146 H 2372.98 5.37355 2.81663 0
M  V30 24147 H 2371.72 4.12741 2.598 0
M  V30 24148 H 2370.72 5.45175 0.7116 0
M  V30 24149 H 2371.95 6.7238 0.95297 0
M  V30 24150 H 2369.89 5.82837 3.0106 0
M  V30 24151 H 2369.81 7.2743 2.05866 0
M  V30 24152 H 2371.08 7.09254 3.23386 0
M  V30 24153 N 2375.31 0.116931 1.57166 0
M  V30 24154 C 2376.72 -0.408777 1.8217 0
M  V30 24155 C 2377.07 -1.66744 1.03396 0
M  V30 24156 O 2376.19 -2.1471 0.269924 0
M  V30 24157 C 2376.79 -0.748408 3.3043 0
M  V30 24158 C 2375.35 -1.21876 3.56122 0
M  V30 24159 C 2374.49 -0.226403 2.76374 0
M  V30 24160 H 2377.45 0.342091 1.54969 0
M  V30 24161 H 2377.47 -1.60601 3.44946 0
M  V30 24162 H 2376.98 0.167853 3.87737 0
M  V30 24163 H 2375.08 -2.15199 3.04171 0
M  V30 24164 H 2375.19 -1.16551 4.64707 0
M  V30 24165 H 2373.56 -0.71302 2.44516 0
M  V30 24166 H 2374.34 0.682918 3.36439 0
M  V30 24167 N 2376.78 -1.56818 -0.156836 0
M  V30 24168 C 2378.01 -1.87319 -0.890298 0
M  V30 24169 C 2378.43 -0.704885 -1.74393 0
M  V30 24170 O 2377.79 0.345755 -1.77973 0
M  V30 24171 C 2377.84 -3.16339 -1.73096 0
M  V30 24172 O 2376.94 -2.99581 -2.83417 0
M  V30 24173 H 2376.29 -0.615723 -0.248559 0
M  V30 24174 H 2378.82 -2.04045 -0.150614 0
M  V30 24175 H 2378.83 -3.48111 -2.12797 0
M  V30 24176 H 2377.5 -4.00978 -1.10405 0
M  V30 24177 H 2376.08 -2.79194 -2.47194 0
M  V30 24178 N 2378.26 0.425871 -1.51737 0
M  V30 24179 C 2379.2 1.53809 -1.68576 0
M  V30 24180 C 2380.17 1.53605 -0.533307 0
M  V30 24181 O 2381.36 1.72562 -0.758585 0
M  V30 24182 C 2378.48 2.92374 -1.70982 0
M  V30 24183 C 2377.53 3.10557 -2.92329 0
M  V30 24184 S 2378.36 2.8564 -4.52957 0
M  V30 24185 C 2379.52 4.26465 -4.58124 0
M  V30 24186 H 2379.75 1.39293 -2.62649 0
M  V30 24187 H 2377.29 0.616336 -1.41565 0
M  V30 24188 H 2379.24 3.7224 -1.73053 0
M  V30 24189 H 2377.9 3.04244 -0.780663 0
M  V30 24190 H 2377.1 4.11894 -2.90446 0
M  V30 24191 H 2376.7 2.38533 -2.88059 0
M  V30 24192 H 2378.99 5.19847 -4.34471 0
M  V30 24193 H 2379.93 4.33378 -5.5999 0
M  V30 24194 H 2380.34 4.10656 -3.87327 0
M  V30 24195 N 2379.74 1.42077 0.682052 0
M  V30 24196 C 2381.15 1.37548 1.26243 0
M  V30 24197 C 2381.5 0.0651826 1.96092 0
M  V30 24198 O 2380.63 -0.836262 1.99589 0
M  V30 24199 C 2381.22 2.49147 2.29589 0
M  V30 24200 C 2379.78 2.47974 2.83171 0
M  V30 24201 C 2378.93 2.28305 1.57391 0
M  V30 24202 H 2381.88 1.51396 0.475911 0
M  V30 24203 H 2381.9 2.18982 3.11171 0
M  V30 24204 H 2381.41 3.44499 1.78723 0
M  V30 24205 H 2379.51 1.56419 3.38177 0
M  V30 24206 H 2379.63 3.44761 3.32681 0
M  V30 24207 H 2377.99 1.76431 1.83696 0
M  V30 24208 H 2378.77 3.25703 1.08501 0
M  V30 24209 N 2381.22 -0.917649 1.28129 0
M  V30 24210 C 2382.17 -2.04094 1.11573 0
M  V30 24211 C 2383.16 -1.69362 0.036054 0
M  V30 24212 O 2384.37 -1.78946 0.194532 0
M  V30 24213 H 2380.74 -0.66865 0.344109 0
M  V30 24214 H 2382.71 -2.15202 2.06714 0
M  V30 24215 C 2381.46 -3.386 0.790257 0
M  V30 24216 H 2380.79 -3.65818 1.613 0
M  V30 24217 H 2382.23 -4.17939 0.714345 0
M  V30 24218 C 2380.68 -3.33081 -0.505839 0
M  V30 24219 O 2381.21 -3.7112 -1.5373 0
M  V30 24220 N 2379.42 -2.86176 -0.505143 0
M  V30 24221 H 2378.97 -2.55417 0.334665 0
M  V30 24222 H 2378.93 -2.82866 -1.37238 0
M  V30 24223 N 2382.7 -1.10314 -1.12555 0
M  V30 24224 C 2383.94 -0.846043 -1.84309 0
M  V30 24225 C 2384.28 0.626827 -1.83806 0
M  V30 24226 O 2383.55 1.46209 -1.2827 0
M  V30 24227 C 2383.83 -1.39347 -3.32046 0
M  V30 24228 C 2383.69 -2.93311 -3.41011 0
M  V30 24229 C 2385.01 -1.03476 -4.27762 0
M  V30 24230 H 2382.13 -0.308801 -0.669187 0
M  V30 24231 H 2384.77 -1.36607 -1.32055 0
M  V30 24232 H 2382.92 -0.951153 -3.76677 0
M  V30 24233 H 2384.59 -3.4606 -3.05025 0
M  V30 24234 H 2382.83 -3.29978 -2.81598 0
M  V30 24235 H 2383.5 -3.26696 -4.44942 0
M  V30 24236 H 2385.98 -1.4164 -3.91251 0
M  V30 24237 H 2384.86 -1.44472 -5.29546 0
M  V30 24238 H 2385.12 0.0559627 -4.42065 0
M  V30 24239 N 2384.18 1.29948 -0.891694 0
M  V30 24240 C 2385.4 2.00567 -0.527967 0
M  V30 24241 C 2385.83 1.66355 0.87794 0
M  V30 24242 O 2385.18 0.88379 1.583 0
M  V30 24243 C 2385.23 3.53383 -0.717807 0
M  V30 24244 O 2384.34 4.1174 0.233304 0
M  V30 24245 H 2383.68 0.630834 -0.207231 0
M  V30 24246 H 2386.21 1.65636 -1.20108 0
M  V30 24247 H 2386.22 4.03271 -0.619378 0
M  V30 24248 H 2384.89 3.77622 -1.74282 0
M  V30 24249 H 2383.47 3.72796 0.0880051 0
M  V30 24250 N 2385.65 0.653339 1.4342 0
M  V30 24251 C 2386.6 -0.0501123 2.32546 0
M  V30 24252 C 2387.6 -0.812959 1.48618 0
M  V30 24253 O 2388.8 -0.723346 1.64826 0
M  V30 24254 H 2385.18 -0.03499 0.751186 0
M  V30 24255 H 2387.15 0.719312 2.89601 0
M  V30 24256 C 2385.9 -1.00274 3.32927 0
M  V30 24257 H 2385.22 -0.425166 3.97533 0
M  V30 24258 H 2386.66 -1.46402 3.97923 0
M  V30 24259 C 2385.12 -2.09882 2.63536 0
M  V30 24260 O 2385.65 -3.18261 2.45097 0
M  V30 24261 N 2383.85 -1.86441 2.22908 0
M  V30 24262 H 2383.4 -0.983048 2.38105 0
M  V30 24263 H 2383.36 -2.59973 1.76809 0
M  V30 24264 N 2387.13 -1.52563 0.395266 0
M  V30 24265 C 2388.41 -1.94086 -0.242873 0
M  V30 24266 C 2388.79 -1.33116 -1.63839 0
M  V30 24267 O 2388.14 -0.501568 -2.22927 0
M  V30 24268 C 2388.35 -3.48006 -0.263209 0
M  V30 24269 C 2389.69 -4.21772 -0.48928 0
M  V30 24270 O 2390.72 -3.54543 -0.343163 0
M  V30 24271 O 2389.58 -5.40961 -0.776074 0
M  V30 24272 H 2386.67 -0.812814 -0.152522 0
M  V30 24273 H 2389.22 -1.63619 0.450206 0
M  V30 24274 H 2387.99 -3.8473 0.714052 0
M  V30 24275 H 2387.61 -3.84794 -1.00096 0
M  V30 24276 N 2388.61 -0.125265 -1.57101 0
M  V30 24277 C 2389.54 0.819136 -2.18661 0
M  V30 24278 C 2390.52 1.27279 -1.12846 0
M  V30 24279 O 2391.71 1.33427 -1.41106 0
M  V30 24280 C 2388.84 2.0669 -2.79099 0
M  V30 24281 C 2387.79 1.75081 -3.90552 0
M  V30 24282 C 2387.12 3.0694 -4.37826 0
M  V30 24283 C 2388.42 1.01426 -5.12357 0
M  V30 24284 H 2390.11 0.30615 -2.97831 0
M  V30 24285 H 2387.66 0.145814 -1.4326 0
M  V30 24286 H 2389.61 2.73221 -3.20825 0
M  V30 24287 H 2388.33 2.60324 -1.97228 0
M  V30 24288 H 2386.99 1.10938 -3.49411 0
M  V30 24289 H 2386.64 3.58521 -3.52805 0
M  V30 24290 H 2386.34 2.86562 -5.12987 0
M  V30 24291 H 2387.86 3.74578 -4.82207 0
M  V30 24292 H 2389.28 1.58122 -5.51063 0
M  V30 24293 H 2387.67 0.911214 -5.93142 0
M  V30 24294 H 2388.74 0.00210157 -4.849 0
M  V30 24295 N 2390.09 1.56899 0.148518 0
M  V30 24296 C 2391.31 1.87789 0.880352 0
M  V30 24297 C 2391.74 0.714124 1.74017 0
M  V30 24298 O 2391.1 -0.336312 1.78153 0
M  V30 24299 C 2391.14 3.17252 1.71416 0
M  V30 24300 O 2390.25 3.01079 2.81824 0
M  V30 24301 H 2389.59 0.617032 0.24529 0
M  V30 24302 H 2392.12 2.04122 0.139791 0
M  V30 24303 H 2392.13 3.49235 2.10948 0
M  V30 24304 H 2390.8 4.01558 1.08277 0
M  V30 24305 H 2389.38 2.80501 2.4571 0
M  V30 24306 N 2391.57 -0.417818 1.51961 0
M  V30 24307 C 2392.5 -1.5273 1.70898 0
M  V30 24308 C 2393.51 -1.51755 0.589432 0
M  V30 24309 O 2394.7 -1.56178 0.864339 0
M  V30 24310 C 2391.8 -2.91636 1.72632 0
M  V30 24311 C 2390.97 -3.169 3.01485 0
M  V30 24312 C 2390.03 -4.35631 2.95147 0
M  V30 24313 O 2389.06 -4.33334 3.69067 0
M  V30 24314 N 2390.26 -5.40271 2.12338 0
M  V30 24315 H 2393.02 -1.36883 2.66614 0
M  V30 24316 H 2390.59 -0.607011 1.5009 0
M  V30 24317 H 2392.58 -3.69117 1.65935 0
M  V30 24318 H 2391.15 -3.00983 0.844268 0
M  V30 24319 H 2390.37 -2.2754 3.21899 0
M  V30 24320 H 2391.66 -3.30618 3.86742 0
M  V30 24321 H 2391.05 -5.44982 1.51694 0
M  V30 24322 H 2389.61 -6.1653 2.11504 0
M  V30 24323 N 2393.04 -1.42436 -0.674508 0
M  V30 24324 C 2393.99 -1.45937 -1.78804 0
M  V30 24325 C 2394.96 -0.3113 -1.63157 0
M  V30 24326 O 2396.15 -0.515415 -1.83707 0
M  V30 24327 C 2393.29 -1.36779 -3.16837 0
M  V30 24328 C 2392.4 -2.61623 -3.43769 0
M  V30 24329 C 2391.53 -2.44605 -4.71531 0
M  V30 24330 C 2390.57 -3.64822 -4.91499 0
M  V30 24331 N 2389.71 -3.46744 -6.10502 0
M  V30 24332 H 2394.55 -2.41097 -1.75147 0
M  V30 24333 H 2392.09 -1.19699 -0.855019 0
M  V30 24334 H 2394.04 -1.29466 -3.96603 0
M  V30 24335 H 2392.67 -0.452145 -3.19618 0
M  V30 24336 H 2391.73 -2.79301 -2.58254 0
M  V30 24337 H 2393.04 -3.50984 -3.54417 0
M  V30 24338 H 2392.19 -2.3488 -5.59389 0
M  V30 24339 H 2390.93 -1.52734 -4.63167 0
M  V30 24340 H 2389.94 -3.74979 -4.02083 0
M  V30 24341 H 2391.16 -4.57674 -5.01708 0
M  V30 24342 H 2389.11 -2.57591 -6.0331 0
M  V30 24343 H 2389.02 -4.29693 -6.22013 0
M  V30 24344 H 2390.29 -3.40832 -7.01038 0
M  V30 24345 N 2394.52 0.910841 -1.28614 0
M  V30 24346 C 2395.45 2.0303 -1.15329 0
M  V30 24347 C 2396.43 1.70026 -0.0503222 0
M  V30 24348 O 2397.62 1.92859 -0.22783 0
M  V30 24349 C 2394.75 3.37544 -0.817403 0
M  V30 24350 C 2393.7 3.84721 -1.87547 0
M  V30 24351 C 2393.03 5.16232 -1.39314 0
M  V30 24352 C 2394.33 4.06261 -3.28251 0
M  V30 24353 H 2396.02 2.14402 -2.08979 0
M  V30 24354 H 2393.57 1.03019 -1.00614 0
M  V30 24355 H 2395.52 4.15355 -0.711224 0
M  V30 24356 H 2394.24 3.26233 0.154789 0
M  V30 24357 H 2392.9 3.09117 -1.97084 0
M  V30 24358 H 2392.55 5.01327 -0.409934 0
M  V30 24359 H 2392.25 5.48768 -2.10066 0
M  V30 24360 H 2393.78 5.96595 -1.30024 0
M  V30 24361 H 2395.19 4.74588 -3.21619 0
M  V30 24362 H 2393.59 4.50133 -3.96863 0
M  V30 24363 H 2394.66 3.10973 -3.72054 0
M  V30 24364 N 2396 1.10909 1.11969 0
M  V30 24365 C 2397.23 0.875586 1.87128 0
M  V30 24366 C 2397.64 -0.577811 1.80161 0
M  V30 24367 O 2396.98 -1.4104 1.17701 0
M  V30 24368 C 2397.04 1.25176 3.37003 0
M  V30 24369 C 2396.71 2.71319 3.67743 0
M  V30 24370 C 2397.7 3.69548 3.65691 0
M  V30 24371 C 2395.39 3.07828 3.96923 0
M  V30 24372 C 2397.38 5.02307 3.92386 0
M  V30 24373 C 2395.07 4.40773 4.23276 0
M  V30 24374 C 2396.07 5.37821 4.20995 0
M  V30 24375 O 2395.76 6.68372 4.46692 0
M  V30 24376 H 2395.49 0.313747 0.598781 0
M  V30 24377 H 2398.04 1.47866 1.42566 0
M  V30 24378 H 2396.27 0.591809 3.82145 0
M  V30 24379 H 2397.96 0.994946 3.93517 0
M  V30 24380 H 2398.73 3.42688 3.43205 0
M  V30 24381 H 2394.61 2.32909 3.97837 0
M  V30 24382 H 2398.15 5.78048 3.90521 0
M  V30 24383 H 2394.05 4.67369 4.45237 0
M  V30 24384 H 2394.82 6.74077 4.64287 0
M  V30 24385 N 2397.48 -1.29474 0.898573 0
M  V30 24386 C 2398.44 -2.26023 0.380311 0
M  V30 24387 C 2399.44 -1.53316 -0.484864 0
M  V30 24388 O 2400.63 -1.71768 -0.290077 0
M  V30 24389 C 2397.76 -3.3783 -0.456451 0
M  V30 24390 H 2398.96 -2.73381 1.233 0
M  V30 24391 H 2396.51 -1.40896 0.676614 0
M  V30 24392 H 2397.24 -2.9581 -1.32917 0
M  V30 24393 H 2397.03 -3.91759 0.163462 0
M  V30 24394 H 2398.52 -4.09661 -0.810394 0
M  V30 24395 N 2398.96 -0.660936 -1.43071 0
M  V30 24396 C 2400.18 -0.185458 -2.06067 0
M  V30 24397 C 2400.6 1.15195 -1.49584 0
M  V30 24398 O 2399.96 1.71275 -0.630164 0
M  V30 24399 C 2400.01 -0.0967158 -3.61371 0
M  V30 24400 O 2399.73 -1.38126 -4.15756 0
M  V30 24401 C 2401.23 0.403918 -4.41456 0
M  V30 24402 H 2398.45 -0.0934721 -0.664458 0
M  V30 24403 H 2400.99 -0.903762 -1.83446 0
M  V30 24404 H 2399.15 0.572191 -3.83151 0
M  V30 24405 H 2399.56 -1.24551 -5.09497 0
M  V30 24406 H 2401.04 0.414948 -5.50438 0
M  V30 24407 H 2401.51 1.43666 -4.15038 0
M  V30 24408 H 2402.12 -0.232766 -4.24663 0
M  V30 24409 N 2400.43 1.52351 -0.403352 0
M  V30 24410 C 2401.37 2.2332 0.469424 0
M  V30 24411 C 2402.35 1.23924 1.0527 0
M  V30 24412 O 2403.53 1.52956 1.10166 0
M  V30 24413 C 2400.66 2.95733 1.65105 0
M  V30 24414 C 2399.7 4.09512 1.19171 0
M  V30 24415 S 2400.54 5.35256 0.161624 0
M  V30 24416 C 2401.69 6.11196 1.34871 0
M  V30 24417 H 2401.92 2.97002 -0.133186 0
M  V30 24418 H 2399.46 1.53256 -0.187615 0
M  V30 24419 H 2401.42 3.3806 2.32864 0
M  V30 24420 H 2400.08 2.21705 2.22499 0
M  V30 24421 H 2399.27 4.59332 2.07436 0
M  V30 24422 H 2398.87 3.69271 0.592846 0
M  V30 24423 H 2401.16 6.38221 2.27333 0
M  V30 24424 H 2402.11 7.0247 0.891157 0
M  V30 24425 H 2402.51 5.42173 1.57189 0
M  V30 24426 N 2401.91 0.133594 1.57033 0
M  V30 24427 C 2402.82 -0.824525 2.19633 0
M  V30 24428 C 2403.84 -1.2818 1.17668 0
M  V30 24429 O 2405.01 -1.34177 1.50195 0
M  V30 24430 C 2402.08 -2.05132 2.79502 0
M  V30 24431 C 2401.14 -1.64457 3.96551 0
M  V30 24432 C 2400.37 -2.81289 4.53555 0
M  V30 24433 O 2400.6 -3.97129 4.09445 0
M  V30 24434 O 2399.53 -2.57532 5.44023 0
M  V30 24435 H 2403.36 -0.321712 3.01991 0
M  V30 24436 H 2400.94 -0.0927627 1.49112 0
M  V30 24437 H 2402.82 -2.76954 3.17607 0
M  V30 24438 H 2401.5 -2.54392 2.00166 0
M  V30 24439 H 2400.41 -0.896984 3.63187 0
M  V30 24440 H 2401.74 -1.19926 4.77366 0
M  V30 24441 N 2403.39 -1.56975 -0.140195 0
M  V30 24442 C 2404.34 -1.98776 -1.17289 0
M  V30 24443 C 2405.31 -0.856433 -1.42318 0
M  V30 24444 O 2406.49 -1.11903 -1.54539 0
M  V30 24445 C 2403.63 -2.37927 -2.49969 0
M  V30 24446 C 2402.75 -3.64382 -2.32056 0
M  V30 24447 C 2401.88 -3.92606 -3.57818 0
M  V30 24448 C 2400.92 -5.12309 -3.34971 0
M  V30 24449 N 2400.06 -5.3651 -4.52882 0
M  V30 24450 H 2404.9 -2.86797 -0.809422 0
M  V30 24451 H 2402.43 -1.41885 -0.388212 0
M  V30 24452 H 2404.39 -2.58657 -3.27341 0
M  V30 24453 H 2403.02 -1.52977 -2.8425 0
M  V30 24454 H 2402.07 -3.51389 -1.45704 0
M  V30 24455 H 2403.39 -4.5191 -2.11137 0
M  V30 24456 H 2402.54 -4.13871 -4.43617 0
M  V30 24457 H 2401.28 -3.03513 -3.81748 0
M  V30 24458 H 2400.28 -4.90911 -2.47561 0
M  V30 24459 H 2401.51 -6.02961 -3.12433 0
M  V30 24460 H 2399.45 -4.50372 -4.76971 0
M  V30 24461 H 2399.37 -6.1832 -4.3499 0
M  V30 24462 H 2400.64 -5.62278 -5.39874 0
M  V30 24463 N 2404.87 0.409753 -1.5218 0
M  V30 24464 C 2405.82 1.49828 -1.71859 0
M  V30 24465 C 2406.8 1.50371 -0.572496 0
M  V30 24466 O 2407.99 1.56358 -0.829537 0
M  V30 24467 C 2405.12 2.87762 -1.87211 0
M  V30 24468 C 2404.21 2.91869 -3.0769 0
M  V30 24469 N 2404.6 2.65675 -4.30407 0
M  V30 24470 C 2402.9 3.23037 -3.07511 0
M  V30 24471 C 2403.6 2.76335 -5.11873 0
M  V30 24472 N 2402.58 3.09187 -4.47107 0
M  V30 24473 H 2406.38 1.2837 -2.64383 0
M  V30 24474 H 2403.89 0.617452 -1.50204 0
M  V30 24475 H 2405.89 3.66108 -1.99426 0
M  V30 24476 H 2404.55 3.10219 -0.958868 0
M  V30 24477 H 2405.56 2.40082 -4.58891 0
M  V30 24478 H 2402.24 3.51092 -2.25921 0
M  V30 24479 H 2403.63 2.59803 -6.19639 0
M  V30 24480 N 2406.35 1.42792 0.666944 0
M  V30 24481 C 2407.29 1.46883 1.78028 0
M  V30 24482 C 2408.26 0.319948 1.62989 0
M  V30 24483 O 2409.45 0.52515 1.83431 0
M  V30 24484 C 2406.59 1.38457 3.16107 0
M  V30 24485 C 2405.7 2.63443 3.42377 0
M  V30 24486 C 2404.84 2.47102 4.70227 0
M  V30 24487 C 2403.88 3.67424 4.89557 0
M  V30 24488 N 2403.01 3.49977 6.08655 0
M  V30 24489 H 2407.85 2.42022 1.73866 0
M  V30 24490 H 2405.39 1.20151 0.848659 0
M  V30 24491 H 2407.35 1.31568 3.95911 0
M  V30 24492 H 2405.98 0.469089 3.19373 0
M  V30 24493 H 2405.03 2.80667 2.56769 0
M  V30 24494 H 2406.34 3.52859 3.52551 0
M  V30 24495 H 2405.5 2.37843 5.58136 0
M  V30 24496 H 2404.23 1.55188 4.6235 0
M  V30 24497 H 2403.24 3.77106 4.00089 0
M  V30 24498 H 2404.46 4.60328 4.99274 0
M  V30 24499 H 2402.41 2.60787 6.01935 0
M  V30 24500 H 2402.33 4.32986 6.19725 0
M  V30 24501 H 2403.6 3.44545 6.9922 0
M  V30 24502 N 2407.82 -0.904008 1.29095 0
M  V30 24503 C 2408.73 -2.04068 1.15731 0
M  V30 24504 C 2409.75 -1.73809 0.0815613 0
M  V30 24505 O 2410.93 -1.9926 0.292784 0
M  V30 24506 C 2407.99 -3.36606 0.830483 0
M  V30 24507 C 2407.05 -3.80411 1.98962 0
M  V30 24508 C 2406.29 -5.06625 1.67829 0
M  V30 24509 O 2406.51 -5.67265 0.597205 0
M  V30 24510 O 2405.44 -5.46379 2.52495 0
M  V30 24511 H 2409.27 -2.18264 2.11174 0
M  V30 24512 H 2406.85 -1.02698 1.08506 0
M  V30 24513 H 2408.74 -4.16158 0.662594 0
M  V30 24514 H 2407.41 -3.23563 -0.0942109 0
M  V30 24515 H 2406.32 -3.01645 2.21272 0
M  V30 24516 H 2407.65 -3.98032 2.89536 0
M  V30 24517 N 2409.3 -1.11501 -1.11379 0
M  V30 24518 C 2410.55 -0.865544 -1.83402 0
M  V30 24519 C 2410.88 0.607296 -1.8446 0
M  V30 24520 O 2410.16 1.4484 -1.29814 0
M  V30 24521 C 2410.44 -1.42861 -3.30549 0
M  V30 24522 C 2410.29 -2.96912 -3.37881 0
M  V30 24523 C 2411.61 -1.08007 -4.26641 0
M  V30 24524 H 2408.73 -0.315882 -0.665874 0
M  V30 24525 H 2411.37 -1.38 -1.30598 0
M  V30 24526 H 2409.52 -0.991051 -3.75647 0
M  V30 24527 H 2411.19 -3.49276 -3.01337 0
M  V30 24528 H 2409.44 -3.32946 -2.78082 0
M  V30 24529 H 2410.11 -3.31397 -4.41452 0
M  V30 24530 H 2412.58 -1.45782 -3.89727 0
M  V30 24531 H 2411.46 -1.50081 -5.27984 0
M  V30 24532 H 2411.72 0.00907266 -4.42099 0
M  V30 24533 N 2410.78 1.28995 -0.905426 0
M  V30 24534 C 2412.03 1.95325 -0.534282 0
M  V30 24535 C 2412.36 1.71339 0.920505 0
M  V30 24536 O 2411.61 1.02257 1.66859 0
M  V30 24537 C 2411.91 3.48785 -0.779967 0
M  V30 24538 C 2411.58 3.92857 -2.213 0
M  V30 24539 C 2410.24 4.04602 -2.60482 0
M  V30 24540 C 2412.59 4.15548 -3.14594 0
M  V30 24541 C 2409.92 4.36409 -3.92128 0
M  V30 24542 C 2412.27 4.48831 -4.45795 0
M  V30 24543 C 2410.93 4.58786 -4.84842 0
M  V30 24544 H 2410.2 0.714743 -0.195508 0
M  V30 24545 H 2412.85 1.53486 -1.14517 0
M  V30 24546 H 2411.16 3.91705 -0.0862053 0
M  V30 24547 H 2412.85 3.98211 -0.472099 0
M  V30 24548 H 2409.44 3.84237 -1.89894 0
M  V30 24549 H 2413.63 4.05935 -2.85535 0
M  V30 24550 H 2408.88 4.4232 -4.22094 0
M  V30 24551 H 2413.06 4.65337 -5.18106 0
M  V30 24552 H 2410.68 4.83187 -5.86885 0
M  V30 24553 N 2412.26 0.668514 1.42719 0
M  V30 24554 C 2413.51 0.188176 2.01624 0
M  V30 24555 C 2413.83 -1.20315 1.52822 0
M  V30 24556 O 2413.09 -1.82039 0.718355 0
M  V30 24557 C 2413.39 0.164562 3.57021 0
M  V30 24558 C 2413.05 1.4997 4.25229 0
M  V30 24559 C 2411.72 1.86528 4.43577 0
M  V30 24560 C 2414.07 2.37929 4.63723 0
M  V30 24561 C 2411.4 3.10682 4.97688 0
M  V30 24562 C 2413.75 3.6139 5.19211 0
M  V30 24563 C 2412.41 3.98125 5.35773 0
M  V30 24564 H 2411.68 0.0688583 0.737794 0
M  V30 24565 H 2414.33 0.862255 1.7099 0
M  V30 24566 H 2412.63 -0.593011 3.87286 0
M  V30 24567 H 2414.33 -0.224201 4.00373 0
M  V30 24568 H 2410.92 1.20529 4.11304 0
M  V30 24569 H 2415.11 2.10972 4.49227 0
M  V30 24570 H 2410.36 3.39173 5.08696 0
M  V30 24571 H 2414.54 4.29753 5.47983 0
M  V30 24572 H 2412.16 4.94405 5.77467 0
M  V30 24573 N 2413.74 -1.52135 0.411426 0
M  V30 24574 C 2414.98 -2.02137 -0.163852 0
M  V30 24575 C 2415.32 -1.29638 -1.44595 0
M  V30 24576 O 2414.59 -0.403387 -1.90271 0
M  V30 24577 C 2414.87 -3.57767 -0.409208 0
M  V30 24578 C 2414.73 -4.40913 0.889721 0
M  V30 24579 C 2416.05 -4.23697 -1.19035 0
M  V30 24580 H 2413.17 -0.734708 -0.0580766 0
M  V30 24581 H 2415.81 -1.82006 0.545342 0
M  V30 24582 H 2413.96 -3.75052 -1.01333 0
M  V30 24583 H 2415.63 -4.35334 1.52583 0
M  V30 24584 H 2413.87 -4.07034 1.50018 0
M  V30 24585 H 2414.54 -5.47889 0.672411 0
M  V30 24586 H 2417.02 -4.10525 -0.67887 0
M  V30 24587 H 2415.9 -5.32524 -1.33077 0
M  V30 24588 H 2416.16 -3.82807 -2.21159 0
M  V30 24589 N 2415.22 -0.14192 -1.5696 0
M  V30 24590 C 2416.46 0.510393 -1.95136 0
M  V30 24591 C 2416.78 1.66347 -1.02899 0
M  V30 24592 O 2417.98 2.38007 -1.30633 0
M  V30 24593 C 2416.44 0.959366 -3.46878 0
M  V30 24594 C 2416.05 -0.166497 -4.47691 0
M  V30 24595 C 2417.79 1.58176 -3.9393 0
M  V30 24596 C 2415.7 0.300461 -5.90636 0
M  V30 24597 H 2414.63 0.194441 -0.728498 0
M  V30 24598 H 2417.28 -0.225452 -1.8211 0
M  V30 24599 H 2415.66 1.75032 -3.55218 0
M  V30 24600 H 2416.84 -0.943329 -4.51041 0
M  V30 24601 H 2415.15 -0.696977 -4.10526 0
M  V30 24602 H 2417.75 1.94266 -4.98161 0
M  V30 24603 H 2418.09 2.46882 -3.35194 0
M  V30 24604 H 2418.62 0.855795 -3.88486 0
M  V30 24605 H 2415.36 -0.551104 -6.53179 0
M  V30 24606 H 2414.88 1.04328 -5.90657 0
M  V30 24607 H 2416.56 0.754152 -6.4259 0
M  V30 24608 N 2416.69 1.57047 0.131868 0
M  V30 24609 C 2417.64 1.95818 1.16787 0
M  V30 24610 C 2418.63 0.831417 1.37754 0
M  V30 24611 O 2419.82 1.09501 1.39063 0
M  V30 24612 C 2416.95 2.35516 2.49774 0
M  V30 24613 C 2416.03 3.54797 2.32336 0
M  V30 24614 N 2416.43 4.70878 1.84682 0
M  V30 24615 C 2414.72 3.60178 2.63036 0
M  V30 24616 C 2415.42 5.52939 1.80646 0
M  V30 24617 N 2414.4 4.95068 2.24519 0
M  V30 24618 H 2418.2 2.83034 0.791768 0
M  V30 24619 H 2415.72 1.58806 0.339763 0
M  V30 24620 H 2417.71 2.61503 3.24687 0
M  V30 24621 H 2416.37 1.49659 2.88153 0
M  V30 24622 H 2417.38 4.94343 1.5442 0
M  V30 24623 H 2414.06 2.84897 3.05188 0
M  V30 24624 H 2415.45 6.56031 1.45166 0
M  V30 24625 N 2418.17 -0.401677 1.52395 0
M  V30 24626 C 2419.1 -1.49658 1.79234 0
M  V30 24627 C 2420.08 -1.57451 0.643682 0
M  V30 24628 O 2421.27 -1.72604 0.89002 0
M  V30 24629 C 2418.4 -2.87405 1.94976 0
M  V30 24630 C 2417.35 -2.94459 3.10609 0
M  V30 24631 C 2416.68 -4.34533 3.11585 0
M  V30 24632 C 2417.98 -2.65262 4.49926 0
M  V30 24633 H 2419.67 -1.27449 2.70919 0
M  V30 24634 H 2417.22 -0.611677 1.30363 0
M  V30 24635 H 2419.17 -3.63995 2.12334 0
M  V30 24636 H 2417.89 -3.10924 0.999687 0
M  V30 24637 H 2416.55 -2.20316 2.93013 0
M  V30 24638 H 2416.2 -4.55072 2.14285 0
M  V30 24639 H 2415.9 -4.40176 3.89255 0
M  V30 24640 H 2417.43 -5.13047 3.31082 0
M  V30 24641 H 2418.84 -3.31573 4.67689 0
M  V30 24642 H 2417.24 -2.82271 5.29569 0
M  V30 24643 H 2418.31 -1.60663 4.5751 0
M  V30 24644 N 2419.65 -1.43144 -0.659362 0
M  V30 24645 C 2420.6 -1.44274 -1.76548 0
M  V30 24646 C 2421.58 -0.311989 -1.57846 0
M  V30 24647 O 2422.78 -0.555335 -1.68063 0
M  V30 24648 C 2419.9 -1.36256 -3.15102 0
M  V30 24649 C 2418.99 -2.54337 -3.39372 0
M  V30 24650 N 2419.38 -3.7971 -3.34147 0
M  V30 24651 C 2417.68 -2.48929 -3.70068 0
M  V30 24652 C 2418.38 -4.58231 -3.58329 0
M  V30 24653 N 2417.36 -3.88869 -3.79844 0
M  V30 24654 H 2421.16 -2.39086 -1.70924 0
M  V30 24655 H 2418.67 -1.3771 -0.860799 0
M  V30 24656 H 2420.67 -1.35148 -3.94386 0
M  V30 24657 H 2419.33 -0.424587 -3.21912 0
M  V30 24658 H 2420.34 -4.12086 -3.13697 0
M  V30 24659 H 2417.02 -1.63788 -3.84031 0
M  V30 24660 H 2418.41 -5.67242 -3.60119 0
M  V30 24661 N 2421.13 0.897149 -1.29572 0
M  V30 24662 C 2422.09 1.9831 -1.14917 0
M  V30 24663 C 2423.09 1.60581 -0.0838911 0
M  V30 24664 O 2424.28 1.71026 -0.331036 0
M  V30 24665 C 2421.41 3.32368 -0.757893 0
M  V30 24666 H 2422.61 2.1274 -2.11381 0
M  V30 24667 H 2420.16 1.08199 -1.12795 0
M  V30 24668 H 2420.89 3.2364 0.20678 0
M  V30 24669 H 2420.68 3.61118 -1.52761 0
M  V30 24670 H 2422.17 4.12051 -0.67848 0
M  V30 24671 N 2422.61 1.1209 1.10786 0
M  V30 24672 C 2423.85 0.872237 1.82309 0
M  V30 24673 C 2424.17 -0.603677 1.8542 0
M  V30 24674 O 2423.44 -1.43865 1.32965 0
M  V30 24675 H 2422.02 0.319697 0.675132 0
M  V30 24676 H 2424.69 1.41466 1.34065 0
M  V30 24677 H 2423.78 1.2505 2.85953 0
M  V30 24678 N 2424.08 -1.28513 0.912254 0
M  V30 24679 C 2425.49 -1.77086 0.591383 0
M  V30 24680 C 2425.85 -1.74686 -0.89327 0
M  V30 24681 O 2424.97 -1.34059 -1.69874 0
M  V30 24682 C 2425.57 -3.21568 1.06674 0
M  V30 24683 C 2424.12 -3.67869 0.796814 0
M  V30 24684 C 2423.27 -2.48314 1.23432 0
M  V30 24685 H 2426.22 -1.14998 1.09367 0
M  V30 24686 H 2426.24 -3.78311 0.407522 0
M  V30 24687 H 2425.76 -3.23283 2.14731 0
M  V30 24688 H 2423.86 -3.71616 -0.270614 0
M  V30 24689 H 2423.97 -4.58081 1.40351 0
M  V30 24690 H 2422.33 -2.46185 0.653079 0
M  V30 24691 H 2423.12 -2.52749 2.3232 0
M  V30 24692 N 2425.56 -0.676073 -1.42362 0
M  V30 24693 C 2426.81 -0.19916 -2.0182 0
M  V30 24694 C 2427.14 1.19165 -1.53341 0
M  V30 24695 O 2426.42 1.80031 -0.736155 0
M  V30 24696 C 2426.7 -0.235207 -3.59331 0
M  V30 24697 C 2426.55 -1.66156 -4.17986 0
M  V30 24698 C 2427.87 0.415873 -4.38131 0
M  V30 24699 H 2424.99 -0.073844 -0.733291 0
M  V30 24700 H 2427.63 -0.8611 -1.69367 0
M  V30 24701 H 2425.78 0.328419 -3.87109 0
M  V30 24702 H 2427.45 -2.27754 -4.01156 0
M  V30 24703 H 2425.7 -2.20184 -3.73766 0
M  V30 24704 H 2426.37 -1.63846 -5.27123 0
M  V30 24705 H 2428.84 -0.063926 -4.16051 0
M  V30 24706 H 2427.72 0.360019 -5.47718 0
M  V30 24707 H 2427.98 1.49365 -4.16104 0
M  V30 24708 N 2427.04 1.51915 -0.419488 0
M  V30 24709 C 2428.29 2.01109 0.154311 0
M  V30 24710 C 2428.6 1.30908 1.45336 0
M  V30 24711 O 2429.81 1.70974 2.10903 0
M  V30 24712 C 2428.26 3.58425 0.325552 0
M  V30 24713 C 2427.87 4.37549 -0.962011 0
M  V30 24714 C 2429.62 4.15819 0.854082 0
M  V30 24715 C 2427.52 5.8653 -0.757391 0
M  V30 24716 H 2426.45 0.751492 0.0614431 0
M  V30 24717 H 2429.1 1.75172 -0.54652 0
M  V30 24718 H 2427.49 3.80733 1.08896 0
M  V30 24719 H 2428.66 4.26996 -1.73237 0
M  V30 24720 H 2426.98 3.91522 -1.41773 0
M  V30 24721 H 2429.57 5.24815 1.02337 0
M  V30 24722 H 2429.92 3.7384 1.83165 0
M  V30 24723 H 2430.45 3.97519 0.149458 0
M  V30 24724 H 2427.19 6.32889 -1.70682 0
M  V30 24725 H 2426.71 5.99794 -0.0265115 0
M  V30 24726 H 2428.39 6.4574 -0.403596 0
M  V30 24727 N 2428.52 0.150242 1.56882 0
M  V30 24728 C 2429.47 -0.805274 2.18216 0
M  V30 24729 C 2430.46 -1.25294 1.14008 0
M  V30 24730 O 2431.67 -1.22104 1.32252 0
M  V30 24731 H 2428.04 -0.277901 0.698767 0
M  V30 24732 H 2430.01 -0.26381 2.97232 0
M  V30 24733 C 2428.76 -2.03304 2.82069 0
M  V30 24734 H 2428.08 -1.69756 3.61971 0
M  V30 24735 H 2429.52 -2.68097 3.28481 0
M  V30 24736 C 2427.98 -2.84312 1.80744 0
M  V30 24737 O 2428.51 -3.80764 1.27989 0
M  V30 24738 N 2426.72 -2.4891 1.49974 0
M  V30 24739 H 2426.27 -1.70539 1.93065 0
M  V30 24740 H 2426.22 -3.03403 0.82427 0
M  V30 24741 N 2430 -1.57115 -0.123538 0
M  V30 24742 C 2431.22 -1.88794 -0.846427 0
M  V30 24743 C 2431.64 -0.741007 -1.73651 0
M  V30 24744 O 2431 0.288361 -1.80207 0
M  V30 24745 C 2431.05 -3.199 -1.68364 0
M  V30 24746 O 2430.77 -4.30177 -0.829401 0
M  V30 24747 C 2432.27 -3.65253 -2.51208 0
M  V30 24748 H 2429.49 -0.625235 -0.243562 0
M  V30 24749 H 2432.03 -2.04208 -0.109288 0
M  V30 24750 H 2430.19 -3.06169 -2.37358 0
M  V30 24751 H 2430.6 -5.05292 -1.40642 0
M  V30 24752 H 2432.08 -4.59761 -3.05489 0
M  V30 24753 H 2432.55 -2.91686 -3.28354 0
M  V30 24754 H 2433.16 -3.81756 -1.87464 0
M  V30 24755 N 2431.47 0.393589 -1.52606 0
M  V30 24756 C 2432.4 1.48705 -1.80025 0
M  V30 24757 C 2433.39 1.57107 -0.652023 0
M  V30 24758 O 2434.57 1.7213 -0.899161 0
M  V30 24759 C 2431.7 2.86367 -1.96497 0
M  V30 24760 C 2430.65 2.92808 -3.12166 0
M  V30 24761 C 2429.98 4.32874 -3.13885 0
M  V30 24762 C 2431.28 2.62872 -4.51326 0
M  V30 24763 H 2432.97 1.2601 -2.71591 0
M  V30 24764 H 2430.52 0.604755 -1.30686 0
M  V30 24765 H 2432.47 3.62864 -2.14261 0
M  V30 24766 H 2431.2 3.1039 -1.01616 0
M  V30 24767 H 2429.86 2.18759 -2.94177 0
M  V30 24768 H 2429.5 4.5393 -2.16695 0
M  V30 24769 H 2429.2 4.38105 -3.91583 0
M  V30 24770 H 2430.73 5.11284 -3.33798 0
M  V30 24771 H 2432.14 3.29088 -4.6944 0
M  V30 24772 H 2430.54 2.79459 -5.31058 0
M  V30 24773 H 2431.61 1.58234 -4.58356 0
M  V30 24774 N 2432.95 1.43492 0.651762 0
M  V30 24775 C 2434.36 1.40195 1.23297 0
M  V30 24776 C 2434.71 0.106762 1.95909 0
M  V30 24777 O 2433.84 -0.793738 2.01318 0
M  V30 24778 C 2434.43 2.53961 2.24253 0
M  V30 24779 C 2432.99 2.53925 2.77847 0
M  V30 24780 C 2432.14 2.31593 1.52513 0
M  V30 24781 H 2435.09 1.52372 0.44369 0
M  V30 24782 H 2435.11 2.25533 3.06456 0
M  V30 24783 H 2434.62 3.48213 1.71376 0
M  V30 24784 H 2432.73 1.63557 3.34783 0
M  V30 24785 H 2432.84 3.5174 3.25293 0
M  V30 24786 H 2431.2 1.80288 1.79912 0
M  V30 24787 H 2431.99 3.27931 1.01568 0
M  V30 24788 N 2434.43 -0.890264 1.30046 0
M  V30 24789 C 2435.84 -1.457 1.16741 0
M  V30 24790 C 2436.19 -1.94801 -0.233905 0
M  V30 24791 O 2435.32 -1.84543 -1.13018 0
M  V30 24792 C 2435.91 -2.64821 2.11318 0
M  V30 24793 C 2434.47 -3.17601 2.02007 0
M  V30 24794 C 2433.62 -1.90293 2.01703 0
M  V30 24795 H 2436.57 -0.700701 1.42393 0
M  V30 24796 H 2436.59 -3.40864 1.69092 0
M  V30 24797 H 2436.1 -2.29054 3.13298 0
M  V30 24798 H 2434.2 -3.58038 1.03148 0
M  V30 24799 H 2434.32 -3.81259 2.90135 0
M  V30 24800 H 2432.68 -2.08399 1.4643 0
M  V30 24801 H 2433.46 -1.5679 3.05404 0
M  V30 24802 N 2435.91 -1.12676 -1.1019 0
M  V30 24803 C 2437.16 -0.878332 -1.81572 0
M  V30 24804 C 2437.47 0.597525 -1.8625 0
M  V30 24805 O 2438.68 0.962636 -2.53861 0
M  V30 24806 C 2437.13 -1.52173 -3.26146 0
M  V30 24807 C 2436.74 -3.03255 -3.29758 0
M  V30 24808 C 2438.48 -1.35367 -4.02338 0
M  V30 24809 C 2436.39 -3.60517 -4.68809 0
M  V30 24810 H 2435.32 -0.324942 -0.680388 0
M  V30 24811 H 2437.97 -1.35355 -1.239 0
M  V30 24812 H 2436.35 -0.974172 -3.83831 0
M  V30 24813 H 2437.53 -3.64525 -2.81884 0
M  V30 24814 H 2435.84 -3.19486 -2.67053 0
M  V30 24815 H 2438.44 -1.75568 -5.05054 0
M  V30 24816 H 2438.78 -0.297627 -4.15235 0
M  V30 24817 H 2439.32 -1.87059 -3.51075 0
M  V30 24818 H 2436.06 -4.65892 -4.61112 0
M  V30 24819 H 2435.58 -3.04023 -5.1704 0
M  V30 24820 H 2437.25 -3.59726 -5.37779 0
M  V30 24821 N 2437.39 1.28028 -0.919057 0
M  V30 24822 C 2438.63 1.95035 -0.555791 0
M  V30 24823 C 2438.97 1.7213 0.899167 0
M  V30 24824 O 2438.24 1.04533 1.64021 0
M  V30 24825 C 2438.52 3.4938 -0.872085 0
M  V30 24826 C 2438.38 3.81665 -2.38016 0
M  V30 24827 C 2439.7 4.38526 -0.371927 0
M  V30 24828 H 2436.81 0.708377 -0.203398 0
M  V30 24829 H 2439.46 1.51301 -1.14927 0
M  V30 24830 H 2437.61 3.86763 -0.367014 0
M  V30 24831 H 2439.28 3.54123 -2.95626 0
M  V30 24832 H 2437.52 3.28522 -2.83295 0
M  V30 24833 H 2438.19 4.89465 -2.55201 0
M  V30 24834 H 2440.67 4.08245 -0.804673 0
M  V30 24835 H 2439.54 5.45361 -0.622268 0
M  V30 24836 H 2439.81 4.36067 0.727857 0
M  V30 24837 N 2438.86 0.683613 1.42002 0
M  V30 24838 C 2440.14 0.13811 1.95112 0
M  V30 24839 C 2440.52 -1.34915 1.62361 0
M  V30 24840 O 2439.87 -2.08969 0.924348 0
M  V30 24841 C 2440.08 0.416642 3.46504 0
M  V30 24842 C 2441.43 0.337908 4.23253 0
M  V30 24843 O 2442.45 0.350882 3.54468 0
M  V30 24844 O 2441.31 0.287692 5.45742 0
M  V30 24845 H 2438.4 0.0079945 0.826961 0
M  V30 24846 H 2440.95 0.758951 1.51783 0
M  V30 24847 H 2439.72 1.44657 3.6358 0
M  V30 24848 H 2439.35 -0.23577 3.969 0
M  V30 24849 N 2440.34 -1.5169 0.427538 0
M  V30 24850 C 2441.75 -1.86662 -0.0378539 0
M  V30 24851 C 2442.11 -1.34528 -1.42817 0
M  V30 24852 O 2441.23 -0.69205 -2.05036 0
M  V30 24853 C 2441.83 -3.38716 -0.0754671 0
M  V30 24854 C 2440.38 -3.73259 -0.485243 0
M  V30 24855 C 2439.53 -2.75348 0.328447 0
M  V30 24856 H 2442.48 -1.45054 0.643815 0
M  V30 24857 H 2442.5 -3.70017 -0.886991 0
M  V30 24858 H 2442.02 -3.7663 0.936554 0
M  V30 24859 H 2440.12 -3.40931 -1.50323 0
M  V30 24860 H 2440.23 -4.78609 -0.216846 0
M  V30 24861 H 2438.59 -2.53817 -0.211861 0
M  V30 24862 H 2439.38 -3.16103 1.33916 0
M  V30 24863 N 2441.82 -0.15856 -1.568 0
M  V30 24864 C 2443.1 0.535324 -1.88132 0
M  V30 24865 C 2443.48 1.82184 -1.06641 0
M  V30 24866 O 2442.83 2.27963 -0.156573 0
M  V30 24867 C 2443.04 0.789593 -3.39951 0
M  V30 24868 C 2444.38 1.12526 -4.09418 0
M  V30 24869 O 2445.41 0.878562 -3.45195 0
M  V30 24870 O 2444.27 1.59005 -5.22857 0
M  V30 24871 H 2441.36 0.274406 -0.780148 0
M  V30 24872 H 2443.91 -0.196039 -1.68564 0
M  V30 24873 H 2442.68 -0.120422 -3.91115 0
M  V30 24874 H 2442.3 1.57473 -3.65086 0
M  V30 24875 N 2443.3 1.57178 0.115204 0
M  V30 24876 C 2444.71 1.74189 0.671939 0
M  V30 24877 C 2445.06 0.777809 1.80124 0
M  V30 24878 O 2444.19 -0.0483996 2.16346 0
M  V30 24879 C 2444.78 3.15852 1.22567 0
M  V30 24880 C 2443.34 3.34356 1.72866 0
M  V30 24881 C 2442.49 2.7005 0.629924 0
M  V30 24882 H 2445.44 1.58313 -0.11074 0
M  V30 24883 H 2445.46 3.17613 2.09529 0
M  V30 24884 H 2444.97 3.85996 0.40353 0
M  V30 24885 H 2443.07 2.6926 2.57545 0
M  V30 24886 H 2443.19 4.42545 1.83549 0
M  V30 24887 H 2441.55 2.3139 1.06446 0
M  V30 24888 H 2442.33 3.42821 -0.181302 0
M  V30 24889 N 2444.78 -0.38549 1.52813 0
M  V30 24890 C 2445.71 -1.47749 1.80811 0
M  V30 24891 C 2446.69 -1.56759 0.660346 0
M  V30 24892 O 2447.87 -1.71651 0.908277 0
M  V30 24893 C 2445 -2.85321 1.98013 0
M  V30 24894 C 2443.96 -2.91148 3.13714 0
M  V30 24895 C 2443.28 -4.31204 3.16176 0
M  V30 24896 C 2444.58 -2.60475 4.52714 0
M  V30 24897 H 2446.28 -1.24568 2.72256 0
M  V30 24898 H 2443.82 -0.597816 1.31004 0
M  V30 24899 H 2445.78 -3.61722 2.16183 0
M  V30 24900 H 2444.5 -3.09846 1.03261 0
M  V30 24901 H 2443.16 -2.17195 2.95333 0
M  V30 24902 H 2442.81 -4.52774 2.191 0
M  V30 24903 H 2442.51 -4.36022 3.93901 0
M  V30 24904 H 2444.03 -5.09506 3.36505 0
M  V30 24905 H 2445.45 -3.26593 4.71179 0
M  V30 24906 H 2443.84 -2.76639 5.32533 0
M  V30 24907 H 2444.91 -1.55801 4.59188 0
M  V30 24908 N 2446.26 -1.43835 -0.644143 0
M  V30 24909 C 2447.19 -1.52512 -1.76812 0
M  V30 24910 C 2448.17 -0.379081 -1.65822 0
M  V30 24911 O 2449.35 -0.597498 -1.8478 0
M  V30 24912 C 2446.48 -1.45645 -3.15285 0
M  V30 24913 C 2445.44 -2.58592 -3.41049 0
M  V30 24914 C 2444.76 -2.36778 -4.79417 0
M  V30 24915 C 2446.06 -4.00803 -3.34895 0
M  V30 24916 H 2447.76 -2.46588 -1.69807 0
M  V30 24917 H 2445.3 -1.18681 -0.815521 0
M  V30 24918 H 2447.25 -1.50318 -3.93678 0
M  V30 24919 H 2445.98 -0.480781 -3.23042 0
M  V30 24920 H 2444.64 -2.53287 -2.65031 0
M  V30 24921 H 2444.29 -1.37433 -4.83861 0
M  V30 24922 H 2443.99 -3.12496 -4.97614 0
M  V30 24923 H 2445.51 -2.43248 -5.60056 0
M  V30 24924 H 2446.92 -4.07546 -4.03211 0
M  V30 24925 H 2445.32 -4.76619 -3.64628 0
M  V30 24926 H 2446.39 -4.25295 -2.32921 0
M  V30 24927 N 2447.73 0.883355 -1.30517 0
M  V30 24928 C 2448.96 1.67365 -1.2249 0
M  V30 24929 C 2449.38 1.86938 0.208734 0
M  V30 24930 O 2448.74 1.4015 1.15012 0
M  V30 24931 C 2448.79 3.02652 -1.96047 0
M  V30 24932 O 2447.89 3.91749 -1.28866 0
M  V30 24933 H 2447.23 0.511345 -0.423582 0
M  V30 24934 H 2449.76 1.10236 -1.72364 0
M  V30 24935 H 2449.77 3.52683 -2.05131 0
M  V30 24936 H 2448.45 2.87724 -3.00312 0
M  V30 24937 H 2447.03 3.5019 -1.28147 0
M  V30 24938 N 2449.21 1.13259 1.09591 0
M  V30 24939 C 2450.45 0.903504 1.83347 0
M  V30 24940 C 2450.82 -0.560319 1.83642 0
M  V30 24941 O 2452.02 -0.906903 2.53039 0
M  V30 24942 C 2450.29 1.47317 3.25626 0
M  V30 24943 S 2451.85 1.38389 4.16406 0
M  V30 24944 H 2448.66 0.32571 0.632008 0
M  V30 24945 H 2451.27 1.44379 1.31814 0
M  V30 24946 H 2449.97 2.53195 3.22987 0
M  V30 24947 H 2449.5 0.930756 3.82231 0
M  V30 24948 H 2451.52 0.3612 4.94884 0
M  V30 24949 N 2450.69 -1.27539 0.925834 0
M  V30 24950 C 2451.97 -1.89523 0.483759 0
M  V30 24951 C 2452.35 -1.83814 -1.03806 0
M  V30 24952 O 2451.69 -1.28211 -1.89141 0
M  V30 24953 C 2451.9 -3.33524 1.02774 0
M  V30 24954 C 2453.25 -4.10447 1.08711 0
M  V30 24955 O 2454.28 -3.42533 0.977236 0
M  V30 24956 O 2453.14 -5.31869 1.25608 0
M  V30 24957 H 2450.23 -0.812287 0.155304 0
M  V30 24958 H 2452.78 -1.3582 1.0174 0
M  V30 24959 H 2451.55 -3.31964 2.07161 0
M  V30 24960 H 2451.17 -3.94745 0.475636 0
M  V30 24961 N 2452.17 -0.691135 -1.41637 0
M  V30 24962 C 2453.1 -0.037289 -2.3347 0
M  V30 24963 C 2454.08 0.771921 -1.51576 0
M  V30 24964 O 2455.26 0.725788 -1.80128 0
M  V30 24965 C 2452.39 0.903005 -3.35355 0
M  V30 24966 C 2451.35 0.201213 -4.27527 0
M  V30 24967 C 2450.67 1.25556 -5.1975 0
M  V30 24968 C 2451.97 -0.92978 -5.13958 0
M  V30 24969 H 2453.67 -0.804278 -2.88395 0
M  V30 24970 H 2451.21 -0.388214 -1.38668 0
M  V30 24971 H 2453.17 1.36962 -3.98521 0
M  V30 24972 H 2451.89 1.70161 -2.7877 0
M  V30 24973 H 2450.55 -0.24533 -3.65778 0
M  V30 24974 H 2450.2 2.04658 -4.59483 0
M  V30 24975 H 2449.9 0.791026 -5.82251 0
M  V30 24976 H 2451.42 1.72278 -5.85792 0
M  V30 24977 H 2452.84 -0.543647 -5.70717 0
M  V30 24978 H 2451.23 -1.32113 -5.85377 0
M  V30 24979 H 2452.3 -1.77141 -4.51386 0
M  V30 24980 N 2453.65 1.51461 -0.435577 0
M  V30 24981 C 2454.58 2.24265 0.421949 0
M  V30 24982 C 2455.56 1.26129 1.02617 0
M  V30 24983 O 2456.74 1.55259 1.06897 0
M  V30 24984 C 2453.87 2.99169 1.58795 0
M  V30 24985 C 2452.91 4.11948 1.10458 0
M  V30 24986 S 2453.75 5.35478 0.0480519 0
M  V30 24987 C 2454.9 6.13919 1.21876 0
M  V30 24988 H 2455.14 2.96652 -0.196155 0
M  V30 24989 H 2452.67 1.52823 -0.220081 0
M  V30 24990 H 2454.63 3.42923 2.25641 0
M  V30 24991 H 2453.29 2.26374 2.17746 0
M  V30 24992 H 2452.48 4.63629 1.97646 0
M  V30 24993 H 2452.08 3.70446 0.514385 0
M  V30 24994 H 2454.37 6.42899 2.13745 0
M  V30 24995 H 2455.32 7.04202 0.741952 0
M  V30 24996 H 2455.73 5.45386 1.45653 0
M  V30 24997 N 2455.12 0.166873 1.56714 0
M  V30 24998 C 2456.4 -0.52534 1.88413 0
M  V30 24999 C 2456.78 -1.81616 1.07606 0
M  V30 25000 O 2456.13 -2.27877 0.168661 0
M  V30 25001 C 2456.34 -0.771553 3.40365 0
M  V30 25002 C 2457.69 -1.10353 4.10009 0
M  V30 25003 O 2458.71 -0.860243 3.45656 0
M  V30 25004 O 2457.57 -1.56229 5.23693 0
M  V30 25005 H 2454.66 -0.270265 0.781592 0
M  V30 25006 H 2457.21 0.204976 1.68458 0
M  V30 25007 H 2455.98 0.141162 3.91045 0
M  V30 25008 H 2455.61 -1.55535 3.65916 0
M  V30 25009 N 2456.6 -1.57237 -0.106866 0
M  V30 25010 C 2457.85 -1.85119 -0.810889 0
M  V30 25011 C 2458.17 -0.753858 -1.79839 0
M  V30 25012 O 2457.44 0.221022 -1.94649 0
M  V30 25013 H 2456.02 -0.68303 -0.302454 0
M  V30 25014 H 2458.68 -1.94686 -0.0912982 0
M  V30 25015 H 2457.78 -2.81454 -1.3487 0
M  V30 25016 N 2458.08 0.377381 -1.53015 0
M  V30 25017 C 2459.5 0.718256 -1.42525 0
M  V30 25018 C 2459.7 1.93709 -0.554904 0
M  V30 25019 O 2458.75 2.52479 -0.0328037 0
M  V30 25020 C 2460.07 0.942488 -2.85548 0
M  V30 25021 C 2461.61 1.04324 -2.95103 0
M  V30 25022 C 2462.09 1.30002 -4.39162 0
M  V30 25023 N 2463.58 1.36798 -4.42539 0
M  V30 25024 C 2464.31 1.58355 -5.511 0
M  V30 25025 N 2463.81 1.77305 -6.69727 0
M  V30 25026 N 2465.6 1.60628 -5.3866 0
M  V30 25027 H 2457.75 -0.424462 -2.08116 0
M  V30 25028 H 2460.02 -0.127775 -0.939349 0
M  V30 25029 H 2459.72 0.118867 -3.51499 0
M  V30 25030 H 2459.6 1.85392 -3.28496 0
M  V30 25031 H 2461.98 1.85741 -2.29312 0
M  V30 25032 H 2462.07 0.10946 -2.55566 0
M  V30 25033 H 2461.71 0.490902 -5.05522 0
M  V30 25034 H 2461.64 2.24683 -4.76262 0
M  V30 25035 H 2464.13 1.23815 -3.57041 0
M  V30 25036 H 2464.44 1.93293 -7.48236 0
M  V30 25037 H 2462.79 1.74506 -6.72735 0
M  V30 25038 H 2465.98 1.45383 -4.44951 0
M  V30 25039 H 2466.15 1.77087 -6.23333 0
M  V30 25040 N 2459.56 1.44175 0.636506 0
M  V30 25041 C 2460.84 1.3715 1.3946 0
M  V30 25042 C 2461.22 0.0275441 2.11082 0
M  V30 25043 O 2460.56 -0.98968 2.05955 0
M  V30 25044 C 2460.77 2.56605 2.36548 0
M  V30 25045 C 2462.12 3.00433 3.00042 0
M  V30 25046 O 2463.15 2.56772 2.46874 0
M  V30 25047 O 2462 3.76118 3.96481 0
M  V30 25048 H 2459.1 0.54285 0.623893 0
M  V30 25049 H 2461.64 1.56255 0.662012 0
M  V30 25050 H 2460.42 3.46037 1.82686 0
M  V30 25051 H 2460.04 2.39687 3.17232 0
M  V30 25052 N 2461.04 -0.876421 1.30983 0
M  V30 25053 C 2462 -1.96457 1.18057 0
M  V30 25054 C 2463 -1.60427 0.109428 0
M  V30 25055 O 2464.19 -1.70477 0.358203 0
M  V30 25056 C 2461.32 -3.31121 0.810675 0
M  V30 25057 H 2462.51 -2.0935 2.14739 0
M  V30 25058 H 2460.07 -1.0639 1.14502 0
M  V30 25059 H 2460.8 -3.23928 -0.155265 0
M  V30 25060 H 2460.59 -3.58642 1.58487 0
M  V30 25061 H 2462.08 -4.1092 0.743948 0
M  V30 25062 N 2462.51 -1.13839 -1.08989 0
M  V30 25063 C 2463.76 -0.902914 -1.81256 0
M  V30 25064 C 2464.09 0.57077 -1.85937 0
M  V30 25065 O 2463.34 1.43862 -1.32673 0
M  V30 25066 C 2463.64 -1.44153 -3.27039 0
M  V30 25067 C 2463.31 -2.93282 -3.42485 0
M  V30 25068 C 2461.97 -3.33998 -3.46408 0
M  V30 25069 C 2464.32 -3.89206 -3.46653 0
M  V30 25070 C 2461.65 -4.69313 -3.52083 0
M  V30 25071 C 2464 -5.2437 -3.53863 0
M  V30 25072 C 2462.67 -5.64606 -3.56056 0
M  V30 25073 H 2461.94 -0.3304 -0.663262 0
M  V30 25074 H 2464.58 -1.42107 -1.28366 0
M  V30 25075 H 2462.89 -0.844165 -3.82598 0
M  V30 25076 H 2464.59 -1.23535 -3.81497 0
M  V30 25077 H 2461.18 -2.608 -3.40119 0
M  V30 25078 H 2465.36 -3.58834 -3.42859 0
M  V30 25079 H 2460.62 -4.99856 -3.52071 0
M  V30 25080 H 2464.79 -5.9851 -3.56033 0
M  V30 25081 H 2462.42 -6.69444 -3.60206 0
M  V30 25082 N 2463.99 1.27046 -0.932584 0
M  V30 25083 C 2464.92 2.29065 -0.452942 0
M  V30 25084 C 2465.9 1.6291 0.48931 0
M  V30 25085 O 2467.09 1.90182 0.393013 0
M  V30 25086 C 2464.22 3.46082 0.290637 0
M  V30 25087 C 2463.17 4.24264 -0.564242 0
M  V30 25088 C 2462.5 5.33808 0.308793 0
M  V30 25089 C 2463.8 4.89146 -1.83121 0
M  V30 25090 H 2465.49 2.69435 -1.30557 0
M  V30 25091 H 2463.04 1.29525 -0.629224 0
M  V30 25092 H 2464.99 4.16555 0.63716 0
M  V30 25093 H 2463.72 3.04642 1.17733 0
M  V30 25094 H 2462.37 3.55544 -0.89354 0
M  V30 25095 H 2462.02 4.88609 1.19458 0
M  V30 25096 H 2461.72 5.87026 -0.259736 0
M  V30 25097 H 2463.25 6.07122 0.650777 0
M  V30 25098 H 2464.66 5.5188 -1.55246 0
M  V30 25099 H 2463.06 5.52444 -2.34363 0
M  V30 25100 H 2464.13 4.12572 -2.5478 0
M  V30 25101 N 2465.47 0.698636 1.41269 0
M  V30 25102 C 2466.7 0.240028 2.05503 0
M  V30 25103 C 2467.11 -1.11189 1.52586 0
M  V30 25104 O 2466.47 -1.69544 0.675353 0
M  V30 25105 C 2466.52 0.192493 3.60987 0
M  V30 25106 O 2466.24 1.49101 4.11947 0
M  V30 25107 C 2467.74 -0.286732 4.42372 0
M  V30 25108 H 2464.96 0.111056 0.661746 0
M  V30 25109 H 2467.51 0.952082 1.80985 0
M  V30 25110 H 2465.66 -0.470405 3.84533 0
M  V30 25111 H 2466.08 1.38016 5.06016 0
M  V30 25112 H 2467.55 -0.268864 5.51345 0
M  V30 25113 H 2468.03 -1.32612 4.18701 0
M  V30 25114 H 2468.63 0.345276 4.23896 0
M  V30 25115 N 2466.95 -1.51228 0.443603 0
M  V30 25116 C 2467.88 -2.30784 -0.355102 0
M  V30 25117 C 2468.86 -1.3647 -1.01538 0
M  V30 25118 O 2470.04 -1.65391 -1.01782 0
M  V30 25119 C 2467.17 -3.15442 -1.45306 0
M  V30 25120 C 2466.13 -4.18085 -0.915929 0
M  V30 25121 C 2465.45 -4.91303 -2.11011 0
M  V30 25122 C 2466.75 -5.22272 0.053952 0
M  V30 25123 H 2468.45 -2.97803 0.308819 0
M  V30 25124 H 2465.99 -1.43217 0.149963 0
M  V30 25125 H 2467.95 -3.6988 -2.01908 0
M  V30 25126 H 2466.67 -2.46255 -2.14536 0
M  V30 25127 H 2465.33 -3.64707 -0.372081 0
M  V30 25128 H 2464.98 -4.18614 -2.78875 0
M  V30 25129 H 2464.68 -5.60715 -1.75707 0
M  V30 25130 H 2466.2 -5.48567 -2.68155 0
M  V30 25131 H 2467.62 -5.71745 -0.421969 0
M  V30 25132 H 2466.01 -5.99247 0.319881 0
M  V30 25133 H 2467.08 -4.74714 0.988663 0
M  V30 25134 N 2468.43 -0.175182 -1.56623 0
M  V30 25135 C 2469.39 0.7397 -2.16936 0
M  V30 25136 C 2470.39 1.15532 -1.11844 0
M  V30 25137 O 2471.58 1.07164 -1.37337 0
M  V30 25138 C 2468.71 2.00733 -2.75534 0
M  V30 25139 H 2469.9 0.214586 -2.99131 0
M  V30 25140 H 2467.46 0.0743922 -1.56123 0
M  V30 25141 H 2468.19 2.57544 -1.97083 0
M  V30 25142 H 2467.98 1.71825 -3.52447 0
M  V30 25143 H 2469.47 2.66016 -3.21909 0
M  V30 25144 N 2469.91 1.57292 0.0985263 0
M  V30 25145 C 2471.32 1.53047 0.452643 0
M  V30 25146 C 2471.52 0.891374 1.80712 0
M  V30 25147 O 2470.58 0.482419 2.47849 0
M  V30 25148 C 2471.89 2.97776 0.418288 0
M  V30 25149 C 2473.44 3.08974 0.500388 0
M  V30 25150 C 2473.91 4.55304 0.496217 0
M  V30 25151 N 2475.4 4.59838 0.55707 0
M  V30 25152 C 2476.14 5.70503 0.575625 0
M  V30 25153 N 2475.64 6.90609 0.550593 0
M  V30 25154 N 2477.43 5.58668 0.620178 0
M  V30 25155 H 2469.58 1.97213 -0.788708 0
M  V30 25156 H 2471.84 0.901519 -0.293203 0
M  V30 25157 H 2471.55 3.47987 -0.50972 0
M  V30 25158 H 2471.42 3.56286 1.23854 0
M  V30 25159 H 2473.81 2.58754 1.41882 0
M  V30 25160 H 2473.89 2.53423 -0.347938 0
M  V30 25161 H 2473.53 5.06175 -0.418251 0
M  V30 25162 H 2473.46 5.08689 1.36171 0
M  V30 25163 H 2475.96 3.73395 0.58175 0
M  V30 25164 H 2476.27 7.7071 0.56794 0
M  V30 25165 H 2474.61 6.93069 0.517694 0
M  V30 25166 H 2477.8 4.63742 0.637241 0
M  V30 25167 H 2477.98 6.44919 0.63117 0
M  V30 25168 N 2471.38 -0.369261 1.53213 0
M  V30 25169 C 2472.66 -1.12773 1.59817 0
M  V30 25170 C 2473.04 -2.07209 0.403438 0
M  V30 25171 O 2472.39 -2.203 -0.606629 0
M  V30 25172 C 2472.6 -1.87008 2.94668 0
M  V30 25173 C 2473.95 -2.41671 3.49113 0
M  V30 25174 O 2474.97 -1.97139 2.96673 0
M  V30 25175 O 2473.83 -3.23071 4.4078 0
M  V30 25176 H 2470.92 -0.517114 0.645386 0
M  V30 25177 H 2473.47 -0.372821 1.65554 0
M  V30 25178 H 2472.24 -1.18065 3.73064 0
M  V30 25179 H 2471.86 -2.69416 2.92405 0
M  V30 25180 N 2472.86 -1.4451 -0.628851 0
M  V30 25181 C 2473.81 -1.51552 -1.74071 0
M  V30 25182 C 2474.78 -0.363049 -1.62084 0
M  V30 25183 O 2475.96 -0.573599 -1.81974 0
M  V30 25184 C 2473.1 -1.46789 -3.12325 0
M  V30 25185 C 2472.22 -2.72428 -3.35272 0
M  V30 25186 C 2471.35 -2.59483 -4.63511 0
M  V30 25187 C 2470.39 -3.80274 -4.79644 0
M  V30 25188 N 2469.53 -3.65991 -5.99162 0
M  V30 25189 H 2474.37 -2.46547 -1.67388 0
M  V30 25190 H 2471.9 -1.22359 -0.816505 0
M  V30 25191 H 2473.86 -1.42019 -3.92284 0
M  V30 25192 H 2472.49 -0.5536 -3.18017 0
M  V30 25193 H 2471.54 -2.87376 -2.49237 0
M  V30 25194 H 2472.86 -3.62082 -3.43071 0
M  V30 25195 H 2472.01 -2.52558 -5.51633 0
M  V30 25196 H 2470.75 -1.67392 -4.58073 0
M  V30 25197 H 2469.75 -3.87581 -3.8995 0
M  V30 25198 H 2470.98 -4.73404 -4.86894 0
M  V30 25199 H 2468.93 -2.76654 -5.9481 0
M  V30 25200 H 2468.84 -4.49264 -6.08028 0
M  V30 25201 H 2470.11 -3.62962 -6.8984 0
M  V30 25202 N 2474.34 0.869463 -1.31446 0
M  V30 25203 C 2475.29 1.96442 -1.15735 0
M  V30 25204 C 2476.27 1.60755 -0.0682138 0
M  V30 25205 O 2477.47 1.74555 -0.293184 0
M  V30 25206 C 2474.59 3.32163 -0.867313 0
M  V30 25207 C 2473.68 3.74116 -1.99745 0
M  V30 25208 N 2474.07 3.88025 -3.24454 0
M  V30 25209 C 2472.37 4.03632 -1.8973 0
M  V30 25210 C 2473.07 4.23872 -3.98381 0
M  V30 25211 N 2472.05 4.34584 -3.26554 0
M  V30 25212 H 2475.85 2.05308 -2.10299 0
M  V30 25213 H 2473.36 1.06029 -1.23011 0
M  V30 25214 H 2475.36 4.10357 -0.73574 0
M  V30 25215 H 2474.02 3.24624 0.0701043 0
M  V30 25216 H 2475.03 3.72739 -3.59563 0
M  V30 25217 H 2471.71 4.04479 -1.03456 0
M  V30 25218 H 2473.1 4.42226 -5.05852 0
M  V30 25219 N 2475.82 1.14415 1.08383 0
M  V30 25220 C 2477.06 0.923825 1.8121 0
M  V30 25221 C 2477.42 -0.543782 1.84556 0
M  V30 25222 O 2476.71 -1.39765 1.31058 0
M  V30 25223 C 2476.91 1.45885 3.2627 0
M  V30 25224 C 2476.73 2.97695 3.37058 0
M  V30 25225 C 2475.5 3.66144 3.48234 0
M  V30 25226 C 2477.7 3.95559 3.28691 0
M  V30 25227 N 2475.68 5.05864 3.47815 0
M  V30 25228 C 2477.06 5.21532 3.35267 0
M  V30 25229 C 2479.11 3.87675 3.1243 0
M  V30 25230 C 2477.81 6.40544 3.27256 0
M  V30 25231 C 2479.84 5.06233 3.05749 0
M  V30 25232 C 2479.2 6.31075 3.12927 0
M  V30 25233 H 2475.3 0.391586 0.676893 0
M  V30 25234 H 2477.88 1.45431 1.29452 0
M  V30 25235 H 2476.06 0.955136 3.76473 0
M  V30 25236 H 2477.79 1.17842 3.87163 0
M  V30 25237 H 2474.54 3.16698 3.52135 0
M  V30 25238 H 2474.97 5.78805 3.51161 0
M  V30 25239 H 2479.61 2.9203 3.05742 0
M  V30 25240 H 2477.33 7.36433 3.32705 0
M  V30 25241 H 2480.91 5.01883 2.94286 0
M  V30 25242 H 2479.79 7.21274 3.07787 0
M  V30 25243 N 2477.3 -1.26549 0.939309 0
M  V30 25244 C 2478.21 -2.30176 0.453473 0
M  V30 25245 C 2479.22 -1.67487 -0.47162 0
M  V30 25246 O 2480.4 -1.98307 -0.351605 0
M  V30 25247 C 2477.46 -3.45606 -0.275265 0
M  V30 25248 C 2476.52 -4.23781 0.686159 0
M  V30 25249 C 2475.76 -5.33699 -0.00789613 0
M  V30 25250 O 2475.98 -5.57087 -1.22518 0
M  V30 25251 O 2474.91 -5.98161 0.669851 0
M  V30 25252 H 2478.74 -2.73792 1.31421 0
M  V30 25253 H 2476.32 -1.31713 0.705119 0
M  V30 25254 H 2478.21 -4.15781 -0.685838 0
M  V30 25255 H 2476.88 -3.04022 -1.11142 0
M  V30 25256 H 2475.79 -3.56094 1.14664 0
M  V30 25257 H 2477.12 -4.69109 1.48987 0
M  V30 25258 N 2478.77 -0.706118 -1.40896 0
M  V30 25259 C 2480.02 -0.241566 -2.01054 0
M  V30 25260 C 2480.35 1.16221 -1.55958 0
M  V30 25261 O 2479.6 1.8007 -0.766367 0
M  V30 25262 C 2479.9 -0.259162 -3.56459 0
M  V30 25263 C 2479.57 -1.61191 -4.21103 0
M  V30 25264 C 2478.23 -1.98223 -4.38476 0
M  V30 25265 C 2480.58 -2.5014 -4.57252 0
M  V30 25266 C 2477.91 -3.23768 -4.89276 0
M  V30 25267 C 2480.26 -3.75029 -5.09447 0
M  V30 25268 C 2478.93 -4.1219 -5.25029 0
M  V30 25269 H 2478.2 -0.0883954 -0.735709 0
M  V30 25270 H 2480.84 -0.907286 -1.68643 0
M  V30 25271 H 2479.15 0.490121 -3.88722 0
M  V30 25272 H 2480.85 0.11797 -4.00826 0
M  V30 25273 H 2477.44 -1.31392 -4.07963 0
M  V30 25274 H 2481.62 -2.22808 -4.43475 0
M  V30 25275 H 2476.88 -3.52541 -4.99525 0
M  V30 25276 H 2481.05 -4.44131 -5.36396 0
M  V30 25277 H 2478.68 -5.09542 -5.64155 0
M  V30 25278 N 2480.25 1.50991 -0.451617 0
M  V30 25279 C 2481.48 2.07105 0.11063 0
M  V30 25280 C 2481.9 1.3154 1.34458 0
M  V30 25281 O 2481.26 0.357396 1.77742 0
M  V30 25282 C 2481.31 3.58406 0.397175 0
M  V30 25283 O 2480.41 3.84883 1.48117 0
M  V30 25284 H 2479.75 0.663985 -0.00440438 0
M  V30 25285 H 2482.28 1.94429 -0.637061 0
M  V30 25286 H 2482.29 4.02894 0.643439 0
M  V30 25287 H 2480.97 4.12827 -0.504626 0
M  V30 25288 H 2479.54 3.52248 1.22375 0
M  V30 25289 N 2481.73 0.183486 1.56528 0
M  V30 25290 C 2482.95 -0.467393 2.02065 0
M  V30 25291 C 2483.38 -1.55194 1.06285 0
M  V30 25292 O 2482.74 -1.81246 0.0443883 0
M  V30 25293 C 2482.79 -1.01147 3.46124 0
M  V30 25294 O 2481.89 -2.12493 3.53441 0
M  V30 25295 H 2481.23 -0.110577 0.654728 0
M  V30 25296 H 2483.76 0.290953 2.02521 0
M  V30 25297 H 2483.77 -1.33101 3.85679 0
M  V30 25298 H 2482.45 -0.21746 4.15331 0
M  V30 25299 H 2481.02 -1.81491 3.25754 0
M  V30 25300 N 2483.21 -1.57342 -0.0901833 0
M  V30 25301 C 2484.14 -2.05444 -1.10972 0
M  V30 25302 C 2485.12 -0.944308 -1.41481 0
M  V30 25303 O 2486.3 -1.21589 -1.51426 0
M  V30 25304 C 2483.43 -2.483 -2.42826 0
M  V30 25305 C 2482.39 -3.63022 -2.26714 0
M  V30 25306 C 2481.71 -3.9187 -3.63789 0
M  V30 25307 C 2483.01 -4.93735 -1.70361 0
M  V30 25308 H 2484.71 -2.90872 -0.709513 0
M  V30 25309 H 2482.25 -1.39932 -0.339849 0
M  V30 25310 H 2484.21 -2.80561 -3.14426 0
M  V30 25311 H 2482.93 -1.59878 -2.84792 0
M  V30 25312 H 2481.59 -3.31015 -1.57559 0
M  V30 25313 H 2481.24 -3.00608 -4.03291 0
M  V30 25314 H 2480.94 -4.69108 -3.53853 0
M  V30 25315 H 2482.46 -4.2661 -4.36848 0
M  V30 25316 H 2483.88 -5.24346 -2.31807 0
M  V30 25317 H 2482.27 -5.7517 -1.71171 0
M  V30 25318 H 2483.34 -4.8034 -0.663458 0
M  V30 25319 N 2484.69 0.36113 -1.53407 0
M  V30 25320 C 2486.1 0.703099 -1.43278 0
M  V30 25321 C 2486.3 1.93109 -0.575418 0
M  V30 25322 O 2485.36 2.5243 -0.0595806 0
M  V30 25323 C 2486.67 0.912149 -2.86532 0
M  V30 25324 C 2488.22 1.01188 -2.96193 0
M  V30 25325 C 2488.69 1.25337 -4.40516 0
M  V30 25326 N 2490.19 1.32097 -4.43965 0
M  V30 25327 C 2490.92 1.525 -5.52749 0
M  V30 25328 N 2490.42 1.70191 -6.7157 0
M  V30 25329 N 2492.21 1.54906 -5.40334 0
M  V30 25330 H 2484.36 -0.446512 -2.07654 0
M  V30 25331 H 2486.62 -0.137731 -0.937941 0
M  V30 25332 H 2486.33 0.0815796 -3.51605 0
M  V30 25333 H 2486.2 1.81897 -3.30444 0
M  V30 25334 H 2488.59 1.83299 -2.3127 0
M  V30 25335 H 2488.67 0.0823479 -2.55667 0
M  V30 25336 H 2488.32 0.437257 -5.06014 0
M  V30 25337 H 2488.25 2.19619 -4.78618 0
M  V30 25338 H 2490.74 1.20021 -3.58334 0
M  V30 25339 H 2491.05 1.85346 -7.50244 0
M  V30 25340 H 2489.39 1.67361 -6.74548 0
M  V30 25341 H 2492.59 1.40656 -4.46468 0
M  V30 25342 H 2492.76 1.70466 -6.25176 0
M  V30 25343 N 2486.16 1.44842 0.621179 0
M  V30 25344 C 2487.58 1.28948 0.940458 0
M  V30 25345 C 2487.78 0.232525 2.00154 0
M  V30 25346 O 2486.84 -0.378193 2.49652 0
M  V30 25347 C 2488.15 2.66421 1.39428 0
M  V30 25348 C 2489.7 2.74211 1.50922 0
M  V30 25349 C 2490.17 4.12177 1.99685 0
M  V30 25350 N 2491.66 4.14403 2.0694 0
M  V30 25351 C 2492.4 5.18015 2.45862 0
M  V30 25352 N 2491.89 6.31982 2.83851 0
M  V30 25353 N 2493.69 5.05371 2.46083 0
M  V30 25354 H 2485.84 2.12248 -0.0803921 0
M  V30 25355 H 2488.1 0.947625 0.0266747 0
M  V30 25356 H 2487.81 3.44888 0.688864 0
M  V30 25357 H 2487.68 2.93977 2.36341 0
M  V30 25358 H 2490.07 1.96057 2.20558 0
M  V30 25359 H 2490.15 2.50384 0.523583 0
M  V30 25360 H 2489.79 4.90811 1.30641 0
M  V30 25361 H 2489.72 4.33387 2.99138 0
M  V30 25362 H 2492.21 3.32155 1.80226 0
M  V30 25363 H 2492.53 7.06846 3.12392 0
M  V30 25364 H 2490.87 6.35404 2.81578 0
M  V30 25365 H 2494.06 4.15388 2.15802 0
M  V30 25366 H 2494.24 5.8624 2.76092 0
M  V30 25367 N 2487.64 -0.862479 1.31905 0
M  V30 25368 C 2488.87 -1.65395 1.25137 0
M  V30 25369 C 2489.29 -1.87247 -0.178967 0
M  V30 25370 O 2488.65 -1.41962 -1.12768 0
M  V30 25371 C 2488.7 -2.99494 2.00837 0
M  V30 25372 O 2487.8 -3.89649 1.35082 0
M  V30 25373 H 2487.14 -0.504542 0.431664 0
M  V30 25374 H 2489.67 -1.07479 1.74096 0
M  V30 25375 H 2489.68 -3.49375 2.10715 0
M  V30 25376 H 2488.36 -2.8291 3.04852 0
M  V30 25377 H 2486.94 -3.48106 1.33702 0
M  V30 25378 N 2489.12 -1.14988 -1.07775 0
M  V30 25379 C 2490.07 -0.842709 -2.14865 0
M  V30 25380 C 2491.04 0.202523 -1.64861 0
M  V30 25381 O 2492.22 0.0710233 -1.90668 0
M  V30 25382 C 2489.36 -0.333423 -3.43486 0
M  V30 25383 C 2488.48 -1.43972 -4.07304 0
M  V30 25384 C 2487.61 -0.887006 -5.23742 0
M  V30 25385 C 2486.65 -1.97053 -5.79514 0
M  V30 25386 N 2485.79 -1.43452 -6.87289 0
M  V30 25387 H 2490.63 -1.7599 -2.40482 0
M  V30 25388 H 2488.16 -0.8782 -1.18009 0
M  V30 25389 H 2490.12 -0.0198897 -4.17195 0
M  V30 25390 H 2488.75 0.546861 -3.18134 0
M  V30 25391 H 2487.8 -1.86952 -3.3129 0
M  V30 25392 H 2489.12 -2.25796 -4.44767 0
M  V30 25393 H 2488.27 -0.525758 -6.04418 0
M  V30 25394 H 2487.01 -0.0378814 -4.87685 0
M  V30 25395 H 2486.01 -2.34066 -4.97487 0
M  V30 25396 H 2487.24 -2.82336 -6.17627 0
M  V30 25397 H 2485.18 -0.607682 -6.53179 0
M  V30 25398 H 2485.1 -2.18908 -7.23613 0
M  V30 25399 H 2486.37 -1.10138 -7.7168 0
M  V30 25400 N 2490.6 1.26049 -0.946007 0
M  V30 25401 C 2491.84 1.94145 -0.606573 0
M  V30 25402 C 2492.2 1.72811 0.84583 0
M  V30 25403 O 2491.49 1.05741 1.59779 0
M  V30 25404 C 2491.69 3.46127 -0.890536 0
M  V30 25405 C 2491.52 3.82242 -2.36899 0
M  V30 25406 C 2490.29 4.04748 -3.02502 0
M  V30 25407 C 2492.48 3.9042 -3.34779 0
M  V30 25408 N 2490.47 4.27786 -4.4031 0
M  V30 25409 C 2491.84 4.18046 -4.57862 0
M  V30 25410 C 2493.89 3.73066 -3.29737 0
M  V30 25411 C 2492.59 4.30124 -5.76529 0
M  V30 25412 C 2494.62 3.86378 -4.47734 0
M  V30 25413 C 2493.98 4.14409 -5.69601 0
M  V30 25414 H 2490.08 0.733015 -0.27242 0
M  V30 25415 H 2492.67 1.52025 -1.21641 0
M  V30 25416 H 2490.84 3.87163 -0.309706 0
M  V30 25417 H 2492.57 4.0145 -0.511881 0
M  V30 25418 H 2489.32 4.00295 -2.53102 0
M  V30 25419 H 2489.75 4.43328 -5.11654 0
M  V30 25420 H 2494.39 3.5042 -2.36571 0
M  V30 25421 H 2492.11 4.51589 -6.70144 0
M  V30 25422 H 2495.69 3.74348 -4.4537 0
M  V30 25423 H 2494.57 4.24481 -6.59383 0
M  V30 25424 N 2492.08 0.71358 1.4052 0
M  V30 25425 C 2493.3 0.260386 2.05759 0
M  V30 25426 C 2493.73 -1.08851 1.53405 0
M  V30 25427 O 2493.08 -1.68523 0.668565 0
M  V30 25428 C 2493.13 0.248185 3.59745 0
M  V30 25429 O 2492.24 -0.771239 4.05124 0
M  V30 25430 H 2491.58 0.122715 0.652562 0
M  V30 25431 H 2494.11 0.973499 1.79956 0
M  V30 25432 H 2494.12 0.0851846 4.07911 0
M  V30 25433 H 2492.79 1.23256 3.97216 0
M  V30 25434 H 2491.37 -0.576125 3.68423 0
M  V30 25435 N 2493.55 -1.50749 0.459618 0
M  V30 25436 C 2494.78 -2.06671 -0.0973386 0
M  V30 25437 C 2495.2 -1.32475 -1.34521 0
M  V30 25438 O 2494.55 -0.390665 -1.7827 0
M  V30 25439 C 2494.61 -3.59313 -0.397077 0
M  V30 25440 O 2494.33 -4.3071 0.801289 0
M  V30 25441 C 2495.83 -4.31821 -1.00226 0
M  V30 25442 H 2493.05 -0.670997 0.00197033 0
M  V30 25443 H 2495.59 -1.94058 0.645106 0
M  V30 25444 H 2493.75 -3.71766 -1.08944 0
M  V30 25445 H 2494.16 -5.21724 0.538949 0
M  V30 25446 H 2495.63 -5.39634 -1.16184 0
M  V30 25447 H 2496.11 -3.91564 -1.98933 0
M  V30 25448 H 2496.72 -4.23869 -0.348625 0
M  V30 25449 N 2495.03 -0.191784 -1.56429 0
M  V30 25450 C 2495.96 0.725657 -2.21938 0
M  V30 25451 C 2496.94 1.22378 -1.18142 0
M  V30 25452 O 2498.13 1.27322 -1.46638 0
M  V30 25453 C 2495.26 1.94667 -2.87615 0
M  V30 25454 C 2494.21 1.58359 -3.97626 0
M  V30 25455 C 2493.54 2.88094 -4.50451 0
M  V30 25456 C 2494.84 0.796042 -5.16198 0
M  V30 25457 H 2496.53 0.179554 -2.98861 0
M  V30 25458 H 2494.08 0.0849212 -1.43749 0
M  V30 25459 H 2496.03 2.59367 -3.32124 0
M  V30 25460 H 2494.76 2.51725 -2.08092 0
M  V30 25461 H 2493.41 0.960185 -3.53802 0
M  V30 25462 H 2493.06 3.43235 -3.67694 0
M  V30 25463 H 2492.76 2.64547 -5.2468 0
M  V30 25464 H 2494.29 3.53789 -4.9766 0
M  V30 25465 H 2495.7 1.34608 -5.57273 0
M  V30 25466 H 2494.1 0.658823 -5.96473 0
M  V30 25467 H 2495.17 -0.203563 -4.84473 0
M  V30 25468 N 2496.51 1.57387 0.0818378 0
M  V30 25469 C 2497.75 1.88586 0.788342 0
M  V30 25470 C 2498.11 0.784382 1.75247 0
M  V30 25471 O 2499.32 0.979149 2.50332 0
M  V30 25472 C 2497.59 3.2502 1.48649 0
M  V30 25473 S 2499.15 3.77943 2.22944 0
M  V30 25474 H 2495.96 0.66082 0.262371 0
M  V30 25475 H 2498.57 1.95449 0.0448651 0
M  V30 25476 H 2497.27 4.03096 0.770849 0
M  V30 25477 H 2496.8 3.2133 2.2696 0
M  V30 25478 H 2498.82 3.52423 3.49303 0
M  V30 25479 N 2497.99 -0.35299 1.53596 0
M  V30 25480 C 2498.92 -1.45591 1.75723 0
M  V30 25481 C 2499.9 -1.50886 0.605987 0
M  V30 25482 O 2501.08 -1.68746 0.840053 0
M  V30 25483 C 2498.21 -2.83884 1.84737 0
M  V30 25484 C 2497.26 -2.96256 3.06813 0
M  V30 25485 S 2498.09 -2.63703 4.6607 0
M  V30 25486 C 2499.25 -4.04122 4.7795 0
M  V30 25487 H 2499.48 -1.26603 2.68996 0
M  V30 25488 H 2497.01 -0.548092 1.44344 0
M  V30 25489 H 2498.97 -3.6356 1.90616 0
M  V30 25490 H 2497.63 -3.00173 0.924933 0
M  V30 25491 H 2496.82 -3.97568 3.09768 0
M  V30 25492 H 2496.43 -2.24518 2.99112 0
M  V30 25493 H 2498.72 -4.98526 4.58779 0
M  V30 25494 H 2499.66 -4.06167 5.8003 0
M  V30 25495 H 2500.07 -3.91708 4.06479 0
M  V30 25496 N 2499.47 -1.45169 -0.613489 0
M  V30 25497 C 2500.4 -1.56228 -1.73537 0
M  V30 25498 C 2501.38 -0.414169 -1.64981 0
M  V30 25499 O 2502.56 -0.636558 -1.83471 0
M  V30 25500 C 2499.69 -1.523 -3.12125 0
M  V30 25501 C 2498.65 -2.65768 -3.35487 0
M  V30 25502 C 2497.97 -2.46893 -4.74287 0
M  V30 25503 C 2499.27 -4.07816 -3.26318 0
M  V30 25504 H 2500.97 -2.50135 -1.64538 0
M  V30 25505 H 2498.51 -1.20384 -0.790164 0
M  V30 25506 H 2500.47 -1.58635 -3.90401 0
M  V30 25507 H 2499.19 -0.549195 -3.21949 0
M  V30 25508 H 2497.85 -2.58852 -2.59598 0
M  V30 25509 H 2497.5 -1.47665 -4.80837 0
M  V30 25510 H 2497.2 -3.22981 -4.90874 0
M  V30 25511 H 2498.72 -2.55073 -5.5477 0
M  V30 25512 H 2500.14 -4.16007 -3.94476 0
M  V30 25513 H 2498.53 -4.84247 -3.54437 0
M  V30 25514 H 2499.6 -4.3014 -2.23847 0
M  V30 25515 N 2500.95 0.855472 -1.32361 0
M  V30 25516 C 2502.19 1.61198 -1.23057 0
M  V30 25517 C 2502.52 1.9309 0.20737 0
M  V30 25518 O 2501.8 1.57278 1.14429 0
M  V30 25519 C 2502.08 2.93284 -2.08942 0
M  V30 25520 C 2501.94 2.68179 -3.6111 0
M  V30 25521 C 2503.25 3.94545 -1.94993 0
M  V30 25522 H 2500.37 0.584919 -0.448374 0
M  V30 25523 H 2503.02 0.987888 -1.62298 0
M  V30 25524 H 2501.17 3.46548 -1.75605 0
M  V30 25525 H 2502.84 2.21475 -4.04656 0
M  V30 25526 H 2501.08 2.02158 -3.83816 0
M  V30 25527 H 2501.75 3.62227 -4.16528 0
M  V30 25528 H 2504.23 3.50536 -2.24196 0
M  V30 25529 H 2503.1 4.84824 -2.57364 0
M  V30 25530 H 2503.36 4.32478 -0.917339 0
M  V30 25531 N 2502.42 1.15558 1.07164 0
M  V30 25532 C 2503.33 0.868154 2.17945 0
M  V30 25533 C 2504.35 -0.156266 1.73297 0
M  V30 25534 O 2505.53 0.0182681 2.01392 0
M  V30 25535 C 2502.59 0.36361 3.44788 0
M  V30 25536 C 2501.65 1.45216 4.03993 0
M  V30 25537 C 2500.88 0.9716 5.24782 0
M  V30 25538 O 2501.11 -0.182094 5.70109 0
M  V30 25539 O 2500.04 1.75613 5.75712 0
M  V30 25540 H 2503.87 1.79431 2.45027 0
M  V30 25541 H 2501.45 0.934845 1.16538 0
M  V30 25542 H 2503.33 0.0887854 4.21306 0
M  V30 25543 H 2502.01 -0.534652 3.19254 0
M  V30 25544 H 2500.92 1.78062 3.29006 0
M  V30 25545 H 2502.25 2.32541 4.33804 0
M  V30 25546 N 2503.9 -1.25546 0.952678 0
M  V30 25547 C 2504.83 -2.28315 0.489327 0
M  V30 25548 C 2505.81 -1.63668 -0.46333 0
M  V30 25549 O 2507 -1.90783 -0.362707 0
M  V30 25550 C 2504.13 -3.465 -0.235542 0
M  V30 25551 C 2503.08 -4.23313 0.631668 0
M  V30 25552 C 2502.41 -5.34231 -0.223829 0
M  V30 25553 C 2503.71 -4.86171 1.9088 0
M  V30 25554 H 2505.4 -2.67324 1.34827 0
M  V30 25555 H 2502.95 -1.28508 0.64975 0
M  V30 25556 H 2504.9 -4.17516 -0.570809 0
M  V30 25557 H 2503.62 -3.06476 -1.12871 0
M  V30 25558 H 2502.28 -3.54077 0.949991 0
M  V30 25559 H 2501.93 -4.90448 -1.1167 0
M  V30 25560 H 2501.63 -5.86538 0.353094 0
M  V30 25561 H 2503.16 -6.08081 -0.554107 0
M  V30 25562 H 2504.57 -5.4934 1.64006 0
M  V30 25563 H 2502.97 -5.48645 2.43122 0
M  V30 25564 H 2504.04 -4.08466 2.61311 0
M  V30 25565 N 2505.38 -0.721022 -1.40139 0
M  V30 25566 C 2506.33 -0.0482944 -2.27949 0
M  V30 25567 C 2507.31 0.726996 -1.43539 0
M  V30 25568 O 2508.51 0.598303 -1.66581 0
M  V30 25569 C 2505.63 0.868671 -3.32128 0
M  V30 25570 C 2504.72 0.088277 -4.24008 0
M  V30 25571 N 2505.11 -0.931313 -4.97152 0
M  V30 25572 C 2503.41 0.320027 -4.4485 0
M  V30 25573 C 2504.11 -1.4007 -5.64584 0
M  V30 25574 N 2503.09 -0.721846 -5.38786 0
M  V30 25575 H 2506.89 -0.829659 -2.81947 0
M  V30 25576 H 2504.4 -0.554094 -1.52655 0
M  V30 25577 H 2506.4 1.36598 -3.93887 0
M  V30 25578 H 2505.06 1.64935 -2.7969 0
M  V30 25579 H 2506.07 -1.31231 -5.00998 0
M  V30 25580 H 2502.75 1.07661 -4.0338 0
M  V30 25581 H 2504.14 -2.24819 -6.33171 0
M  V30 25582 N 2506.86 1.50503 -0.467606 0
M  V30 25583 C 2508.09 2.0672 0.086377 0
M  V30 25584 C 2508.5 1.33186 1.33817 0
M  V30 25585 O 2507.86 0.400114 1.7806 0
M  V30 25586 C 2507.91 3.59518 0.378016 0
M  V30 25587 O 2507.63 4.30279 -0.82412 0
M  V30 25588 C 2509.13 4.32347 0.97935 0
M  V30 25589 H 2506.35 0.670977 -0.00552876 0
M  V30 25590 H 2508.89 1.93713 -0.655388 0
M  V30 25591 H 2507.05 3.72339 1.06971 0
M  V30 25592 H 2507.46 5.21431 -0.566609 0
M  V30 25593 H 2508.94 5.40243 1.1332 0
M  V30 25594 H 2509.41 3.92614 1.96853 0
M  V30 25595 H 2510.02 4.24048 0.326141 0
M  V30 25596 N 2508.34 0.200077 1.56325 0
M  V30 25597 C 2509.27 -0.750733 2.16556 0
M  V30 25598 C 2510.28 -1.17318 1.12873 0
M  V30 25599 O 2511.47 -1.10805 1.39945 0
M  V30 25600 C 2508.57 -2.02581 2.71688 0
M  V30 25601 C 2507.74 -1.76237 4.00324 0
M  V30 25602 C 2506.8 -2.8824 4.40232 0
M  V30 25603 O 2505.83 -2.57633 5.07557 0
M  V30 25604 N 2507.03 -4.1671 4.04145 0
M  V30 25605 H 2509.79 -0.235632 2.98772 0
M  V30 25606 H 2507.36 0.0182878 1.6189 0
M  V30 25607 H 2509.35 -2.76659 2.95367 0
M  V30 25608 H 2507.92 -2.45199 1.93898 0
M  V30 25609 H 2507.14 -0.859122 3.84724 0
M  V30 25610 H 2508.43 -1.56039 4.84282 0
M  V30 25611 H 2507.82 -4.44427 3.50001 0
M  V30 25612 H 2506.38 -4.87399 4.32764 0
M  V30 25613 N 2509.81 -1.57429 -0.0734901 0
M  V30 25614 C 2511.06 -1.86797 -0.77144 0
M  V30 25615 C 2511.38 -0.791835 -1.78199 0
M  V30 25616 O 2510.65 0.179684 -1.95074 0
M  V30 25617 H 2509.23 -0.689292 -0.287898 0
M  V30 25618 H 2511.89 -1.94836 -0.0499818 0
M  V30 25619 H 2510.99 -2.84252 -1.28869 0
M  V30 25620 N 2511.29 0.344839 -1.53781 0
M  V30 25621 C 2512.22 1.44403 -1.7799 0
M  V30 25622 C 2513.24 1.4877 -0.661165 0
M  V30 25623 O 2514.43 1.51876 -0.937869 0
M  V30 25624 C 2511.53 2.83067 -1.8635 0
M  V30 25625 C 2510.7 3.02155 -3.16261 0
M  V30 25626 C 2509.76 4.21053 -3.15595 0
M  V30 25627 O 2508.78 4.15232 -3.89322 0
M  V30 25628 N 2509.99 5.29525 -2.37873 0
M  V30 25629 H 2512.75 1.24007 -2.72841 0
M  V30 25630 H 2510.31 0.53471 -1.52815 0
M  V30 25631 H 2512.3 3.6078 -1.83357 0
M  V30 25632 H 2510.87 2.96612 -0.98691 0
M  V30 25633 H 2510.09 2.11923 -3.32389 0
M  V30 25634 H 2511.38 3.1179 -4.02075 0
M  V30 25635 H 2510.78 5.37124 -1.77523 0
M  V30 25636 H 2509.34 6.05737 -2.40679 0
M  V30 25637 N 2512.77 1.45492 0.605781 0
M  V30 25638 C 2514.05 1.40078 1.3652 0
M  V30 25639 C 2514.43 0.0723115 2.10976 0
M  V30 25640 O 2513.77 -0.945771 2.08008 0
M  V30 25641 C 2513.98 2.61565 2.31051 0
M  V30 25642 C 2515.33 3.06729 2.93602 0
M  V30 25643 O 2516.36 2.61951 2.41372 0
M  V30 25644 O 2515.22 3.84444 3.88414 0
M  V30 25645 H 2512.31 0.555961 0.612238 0
M  V30 25646 H 2514.86 1.57624 0.628719 0
M  V30 25647 H 2513.63 3.49834 1.75305 0
M  V30 25648 H 2513.25 2.46362 3.12076 0
M  V30 25649 N 2514.25 -0.848441 1.32813 0
M  V30 25650 C 2515.66 -1.13762 1.11939 0
M  V30 25651 C 2515.86 -2.01271 -0.0960435 0
M  V30 25652 O 2514.92 -2.40179 -0.779123 0
M  V30 25653 C 2516.23 -1.80895 2.40203 0
M  V30 25654 C 2517.78 -1.93504 2.46019 0
M  V30 25655 C 2518.26 -2.64052 3.7422 0
M  V30 25656 N 2519.75 -2.71572 3.75237 0
M  V30 25657 C 2520.48 -3.26825 4.7114 0
M  V30 25658 N 2519.98 -3.8284 5.77413 0
M  V30 25659 N 2521.77 -3.24987 4.58628 0
M  V30 25660 H 2513.92 -0.265818 2.1073 0
M  V30 25661 H 2516.19 -0.180415 0.930674 0
M  V30 25662 H 2515.89 -1.24052 3.29096 0
M  V30 25663 H 2515.77 -2.81 2.51632 0
M  V30 25664 H 2518.15 -2.49504 1.57582 0
M  V30 25665 H 2518.23 -0.923769 2.38538 0
M  V30 25666 H 2517.88 -2.08714 4.63035 0
M  V30 25667 H 2517.81 -3.6563 3.78975 0
M  V30 25668 H 2520.3 -2.3184 2.98427 0
M  V30 25669 H 2520.61 -4.23176 6.46639 0
M  V30 25670 H 2518.96 -3.81155 5.81159 0
M  V30 25671 H 2522.15 -2.80477 3.74767 0
M  V30 25672 H 2522.32 -3.67747 5.33541 0
M  V30 25673 N 2515.73 -1.16125 -1.06549 0
M  V30 25674 C 2516.97 -0.941158 -1.793 0
M  V30 25675 C 2517.3 0.531202 -1.87106 0
M  V30 25676 O 2516.56 1.41016 -1.35695 0
M  V30 25677 C 2516.86 -1.51057 -3.23908 0
M  V30 25678 C 2516.52 -3.00481 -3.36187 0
M  V30 25679 C 2515.18 -3.41271 -3.39246 0
M  V30 25680 C 2517.54 -3.96471 -3.38319 0
M  V30 25681 C 2514.86 -4.76675 -3.42049 0
M  V30 25682 C 2517.22 -5.31758 -3.4266 0
M  V30 25683 C 2515.88 -5.72032 -3.44 0
M  V30 25684 H 2515.15 -0.344394 -0.656105 0
M  V30 25685 H 2517.8 -1.44798 -1.25322 0
M  V30 25686 H 2516.1 -0.925129 -3.80721 0
M  V30 25687 H 2517.8 -1.31599 -3.78791 0
M  V30 25688 H 2514.39 -2.67956 -3.34511 0
M  V30 25689 H 2518.57 -3.66026 -3.3517 0
M  V30 25690 H 2513.83 -5.07212 -3.41389 0
M  V30 25691 H 2518 -6.05927 -3.43257 0
M  V30 25692 H 2515.63 -6.76934 -3.45925 0
M  V30 25693 N 2517.2 1.25039 -0.959323 0
M  V30 25694 C 2518.45 1.93168 -0.617559 0
M  V30 25695 C 2518.78 1.74903 0.843951 0
M  V30 25696 O 2518.06 1.09699 1.60613 0
M  V30 25697 C 2518.34 3.46429 -0.982796 0
M  V30 25698 C 2518.19 3.739 -2.50038 0
M  V30 25699 C 2519.51 4.3712 -0.511253 0
M  V30 25700 H 2516.63 0.701548 -0.225832 0
M  V30 25701 H 2519.27 1.47568 -1.19682 0
M  V30 25702 H 2517.42 3.85399 -0.489874 0
M  V30 25703 H 2519.1 3.44538 -3.06743 0
M  V30 25704 H 2517.34 3.19342 -2.93603 0
M  V30 25705 H 2518.01 4.81099 -2.70644 0
M  V30 25706 H 2520.49 4.05479 -0.934146 0
M  V30 25707 H 2519.36 5.43106 -0.795456 0
M  V30 25708 H 2519.62 4.38162 0.588757 0
M  V30 25709 N 2518.68 0.728444 1.39755 0
M  V30 25710 C 2519.91 0.283153 2.0465 0
M  V30 25711 C 2520.32 -1.08466 1.55022 0
M  V30 25712 O 2519.66 -1.69534 0.707372 0
M  V30 25713 C 2519.73 0.199372 3.58947 0
M  V30 25714 C 2519.39 1.50458 4.31522 0
M  V30 25715 C 2520.39 2.44902 4.58606 0
M  V30 25716 C 2518.07 1.76706 4.70192 0
M  V30 25717 C 2520.07 3.63831 5.2336 0
M  V30 25718 C 2517.75 2.95915 5.34675 0
M  V30 25719 C 2518.75 3.89299 5.61191 0
M  V30 25720 O 2518.44 5.06415 6.24339 0
M  V30 25721 H 2518.17 0.122677 0.664775 0
M  V30 25722 H 2520.72 0.991019 1.79911 0
M  V30 25723 H 2518.95 -0.564542 3.82557 0
M  V30 25724 H 2520.64 -0.213054 4.0534 0
M  V30 25725 H 2521.41 2.25891 4.29183 0
M  V30 25726 H 2517.29 1.04867 4.48914 0
M  V30 25727 H 2520.83 4.36738 5.43973 0
M  V30 25728 H 2516.73 3.14829 5.63518 0
M  V30 25729 H 2517.5 5.06663 6.42833 0
M  V30 25730 N 2520.16 -1.50253 0.475581 0
M  V30 25731 C 2521.39 -2.06763 -0.0754129 0
M  V30 25732 C 2521.8 -1.33894 -1.33109 0
M  V30 25733 O 2521.16 -0.409551 -1.77845 0
M  V30 25734 C 2521.21 -3.59714 -0.358945 0
M  V30 25735 O 2520.93 -4.29836 0.846927 0
M  V30 25736 C 2522.43 -4.3286 -0.956408 0
M  V30 25737 H 2519.65 -0.670938 0.00908704 0
M  V30 25738 H 2522.2 -1.93363 0.665652 0
M  V30 25739 H 2520.35 -3.72901 -1.04995 0
M  V30 25740 H 2520.77 -5.21123 0.594254 0
M  V30 25741 H 2522.24 -5.40836 -1.10454 0
M  V30 25742 H 2522.72 -3.93652 -1.94768 0
M  V30 25743 H 2523.32 -4.24215 -0.303648 0
M  V30 25744 N 2521.64 -0.208365 -1.56217 0
M  V30 25745 C 2522.88 0.428892 -1.9985 0
M  V30 25746 C 2523.24 1.57877 -1.09265 0
M  V30 25747 O 2524.44 2.28113 -1.42189 0
M  V30 25748 C 2522.71 0.864818 -3.46779 0
M  V30 25749 S 2524.27 1.49804 -4.12437 0
M  V30 25750 H 2521.09 0.136652 -0.697744 0
M  V30 25751 H 2523.69 -0.314553 -1.92953 0
M  V30 25752 H 2522.4 0.0180605 -4.10396 0
M  V30 25753 H 2521.93 1.6414 -3.57521 0
M  V30 25754 H 2523.94 2.787 -4.10537 0
M  V30 25755 N 2523.12 1.57465 0.0651402 0
M  V30 25756 C 2524.06 2.05193 1.09538 0
M  V30 25757 C 2525.06 0.958533 1.39673 0
M  V30 25758 O 2526.26 1.14362 1.39001 0
M  V30 25759 H 2522.64 0.654333 0.370612 0
M  V30 25760 H 2524.61 2.90856 0.666751 0
M  V30 25761 C 2523.36 2.51703 2.39877 0
M  V30 25762 H 2522.68 3.35434 2.17541 0
M  V30 25763 H 2524.12 2.88845 3.10394 0
M  V30 25764 C 2522.58 1.40276 3.06307 0
M  V30 25765 O 2523.11 0.748592 3.94663 0
M  V30 25766 N 2521.32 1.14623 2.67039 0
M  V30 25767 H 2520.86 1.68001 1.95278 0
M  V30 25768 H 2520.82 0.402743 3.1181 0
M  V30 25769 N 2524.59 -0.336679 1.53962 0
M  V30 25770 C 2525.5 -1.43705 1.85435 0
M  V30 25771 C 2526.52 -1.5724 0.745081 0
M  V30 25772 O 2527.7 -1.72586 1.03807 0
M  V30 25773 C 2524.76 -2.78602 2.06354 0
M  V30 25774 C 2523.82 -2.74353 3.30196 0
M  V30 25775 C 2523.06 -4.02815 3.50108 0
M  V30 25776 O 2523.28 -5.00434 2.73719 0
M  V30 25777 O 2522.21 -4.0687 4.43554 0
M  V30 25778 H 2526.04 -1.20023 2.78977 0
M  V30 25779 H 2523.62 -0.529496 1.39702 0
M  V30 25780 H 2525.51 -3.58479 2.21519 0
M  V30 25781 H 2524.18 -3.02201 1.16 0
M  V30 25782 H 2523.09 -1.93072 3.20428 0
M  V30 25783 H 2524.42 -2.55707 4.20565 0
M  V30 25784 N 2526.07 -1.45812 -0.598057 0
M  V30 25785 C 2527.31 -1.51872 -1.368 0
M  V30 25786 C 2527.68 -0.160257 -1.9133 0
M  V30 25787 O 2528.88 -0.0955774 -2.6863 0
M  V30 25788 C 2527.15 -2.57517 -2.4783 0
M  V30 25789 S 2528.71 -2.82872 -3.35453 0
M  V30 25790 H 2525.53 -0.536763 -0.466268 0
M  V30 25791 H 2528.13 -1.82952 -0.68912 0
M  V30 25792 H 2526.83 -3.54875 -2.06135 0
M  V30 25793 H 2526.36 -2.28119 -3.20508 0
M  V30 25794 H 2528.38 -2.16975 -4.46247 0
M  V30 25795 N 2527.55 0.841385 -1.33261 0
M  V30 25796 C 2528.5 1.95101 -1.23305 0
M  V30 25797 C 2529.47 1.6572 -0.112233 0
M  V30 25798 O 2530.65 1.88582 -0.290072 0
M  V30 25799 C 2527.79 3.31022 -0.975641 0
M  V30 25800 C 2526.91 3.72815 -2.18249 0
M  V30 25801 C 2526.04 4.97592 -1.85945 0
M  V30 25802 C 2525.08 5.31914 -3.02876 0
M  V30 25803 N 2524.22 6.47868 -2.70576 0
M  V30 25804 H 2529.06 2.02948 -2.18211 0
M  V30 25805 H 2526.59 0.993154 -1.08512 0
M  V30 25806 H 2528.55 4.09324 -0.806842 0
M  V30 25807 H 2527.18 3.22738 -0.0633322 0
M  V30 25808 H 2526.23 2.90057 -2.46112 0
M  V30 25809 H 2527.55 3.94164 -3.05673 0
M  V30 25810 H 2526.7 5.83636 -1.65694 0
M  V30 25811 H 2525.44 4.78208 -0.957536 0
M  V30 25812 H 2524.44 4.44376 -3.23743 0
M  V30 25813 H 2525.67 5.53248 -3.93818 0
M  V30 25814 H 2523.61 6.29975 -1.82941 0
M  V30 25815 H 2523.53 6.693 -3.51531 0
M  V30 25816 H 2524.8 7.3703 -2.53787 0
M  V30 25817 N 2529.03 1.16688 1.05932 0
M  V30 25818 C 2529.98 0.845015 2.11763 0
M  V30 25819 C 2530.96 -0.177149 1.59922 0
M  V30 25820 O 2532.16 0.024208 1.76983 0
M  V30 25821 C 2529.28 0.351872 3.41492 0
M  V30 25822 C 2528.37 1.40503 4.0015 0
M  V30 25823 N 2528.76 2.61644 4.3287 0
M  V30 25824 C 2527.06 1.26114 4.27798 0
M  V30 25825 C 2527.76 3.29257 4.79546 0
M  V30 25826 N 2526.74 2.56636 4.79206 0
M  V30 25827 H 2530.54 1.76616 2.34912 0
M  V30 25828 H 2528.05 1.05448 1.23509 0
M  V30 25829 H 2530.05 0.102869 4.16773 0
M  V30 25830 H 2528.71 -0.563164 3.19779 0
M  V30 25831 H 2529.72 2.9867 4.23103 0
M  V30 25832 H 2526.4 0.407154 4.1551 0
M  V30 25833 H 2527.79 4.32684 5.14037 0
M  V30 25834 N 2530.51 -1.24529 0.96594 0
M  V30 25835 C 2531.46 -2.23192 0.465771 0
M  V30 25836 C 2532.44 -1.54443 -0.45125 0
M  V30 25837 O 2533.63 -1.74732 -0.282459 0
M  V30 25838 C 2530.76 -3.42429 -0.244451 0
M  V30 25839 C 2529.85 -4.18428 0.691296 0
M  V30 25840 N 2530.24 -4.7162 1.82779 0
M  V30 25841 C 2528.54 -4.43169 0.501727 0
M  V30 25842 C 2529.24 -5.29294 2.41295 0
M  V30 25843 N 2528.21 -5.16391 1.69828 0
M  V30 25844 H 2532.02 -2.61934 1.33295 0
M  V30 25845 H 2529.53 -1.39895 0.824813 0
M  V30 25846 H 2531.53 -4.12264 -0.619984 0
M  V30 25847 H 2530.19 -3.05207 -1.1081 0
M  V30 25848 H 2531.2 -4.68409 2.20938 0
M  V30 25849 H 2527.88 -4.16286 -0.318104 0
M  V30 25850 H 2529.27 -5.81164 3.37191 0
M  V30 25851 N 2531.99 -0.735845 -1.39367 0
M  V30 25852 C 2533.23 -0.28458 -2.00793 0
M  V30 25853 C 2533.56 1.12554 -1.58257 0
M  V30 25854 O 2532.84 1.76746 -0.81185 0
M  V30 25855 C 2533.12 -0.3874 -3.5801 0
M  V30 25856 C 2532.98 -1.83735 -4.10562 0
M  V30 25857 C 2534.29 0.229672 -4.395 0
M  V30 25858 H 2531.41 -0.104879 -0.729499 0
M  V30 25859 H 2534.06 -0.932159 -1.65562 0
M  V30 25860 H 2532.21 0.163938 -3.88154 0
M  V30 25861 H 2533.88 -2.44563 -3.91135 0
M  V30 25862 H 2532.12 -2.35839 -3.64091 0
M  V30 25863 H 2532.79 -1.86056 -5.19699 0
M  V30 25864 H 2535.27 -0.24033 -4.15405 0
M  V30 25865 H 2534.14 0.127389 -5.48752 0
M  V30 25866 H 2534.4 1.31583 -4.22064 0
M  V30 25867 N 2533.46 1.49999 -0.483543 0
M  V30 25868 C 2534.37 2.32554 0.309131 0
M  V30 25869 C 2535.39 1.43495 0.984134 0
M  V30 25870 O 2536.57 1.76537 0.969367 0
M  V30 25871 C 2533.63 3.18495 1.36974 0
M  V30 25872 C 2532.69 4.23388 0.710021 0
M  V30 25873 C 2531.92 5.05221 1.72009 0
M  V30 25874 O 2532.15 4.8831 2.94805 0
M  V30 25875 O 2531.08 5.88022 1.28504 0
M  V30 25876 H 2534.91 3.01485 -0.366117 0
M  V30 25877 H 2532.49 1.47375 -0.245166 0
M  V30 25878 H 2534.37 3.71785 1.98379 0
M  V30 25879 H 2533.05 2.52279 2.02823 0
M  V30 25880 H 2531.96 3.74057 0.0566881 0
M  V30 25881 H 2533.29 4.9211 0.0942692 0
M  V30 25882 N 2534.94 0.216646 1.56104 0
M  V30 25883 C 2536.17 -0.421378 2.02564 0
M  V30 25884 C 2536.58 -1.53693 1.09653 0
M  V30 25885 O 2535.94 -1.82196 0.105242 0
M  V30 25886 C 2535.99 -0.957604 3.48586 0
M  V30 25887 O 2535.71 0.113466 4.37953 0
M  V30 25888 C 2537.21 -1.66936 4.10667 0
M  V30 25889 H 2534.43 -0.103654 0.662946 0
M  V30 25890 H 2536.98 0.331664 2.01793 0
M  V30 25891 H 2535.13 -1.66094 3.49988 0
M  V30 25892 H 2535.55 -0.28884 5.23704 0
M  V30 25893 H 2537.02 -1.99662 5.14625 0
M  V30 25894 H 2537.5 -2.58077 3.55377 0
M  V30 25895 H 2538.1 -1.01135 4.131 0
M  V30 25896 N 2536.42 -1.57498 -0.0567885 0
M  V30 25897 C 2537.84 -1.54193 -0.411906 0
M  V30 25898 C 2538.04 -0.938973 -1.78285 0
M  V30 25899 O 2537.09 -0.547962 -2.46483 0
M  V30 25900 C 2538.4 -2.98781 -0.339191 0
M  V30 25901 C 2539.95 -3.10192 -0.418294 0
M  V30 25902 C 2540.43 -4.5646 -0.375327 0
M  V30 25903 N 2541.92 -4.61153 -0.434957 0
M  V30 25904 C 2542.65 -5.71829 -0.424164 0
M  V30 25905 N 2542.15 -6.91826 -0.367297 0
M  V30 25906 N 2543.94 -5.60116 -0.471839 0
M  V30 25907 H 2536.09 -1.95053 0.840718 0
M  V30 25908 H 2538.36 -0.893428 0.317003 0
M  V30 25909 H 2538.06 -3.46513 0.601803 0
M  V30 25910 H 2537.94 -3.59445 -1.14364 0
M  V30 25911 H 2540.32 -2.62425 -1.34971 0
M  V30 25912 H 2540.4 -2.52411 0.415006 0
M  V30 25913 H 2540.05 -5.04888 0.552308 0
M  V30 25914 H 2539.98 -5.12121 -1.22636 0
M  V30 25915 H 2542.47 -3.74806 -0.482546 0
M  V30 25916 H 2542.78 -7.71945 -0.3634 0
M  V30 25917 H 2541.13 -6.94198 -0.333757 0
M  V30 25918 H 2544.32 -4.65269 -0.514064 0
M  V30 25919 H 2544.49 -6.46366 -0.459959 0
M  V30 25920 N 2537.9 0.328509 -1.54138 0
M  V30 25921 C 2539.14 1.06485 -1.73299 0
M  V30 25922 C 2539.5 1.85844 -0.49799 0
M  V30 25923 O 2538.79 1.847 0.509559 0
M  V30 25924 C 2538.99 2.02388 -2.94574 0
M  V30 25925 C 2538.81 1.32459 -4.2975 0
M  V30 25926 C 2537.58 1.06315 -4.93989 0
M  V30 25927 C 2539.78 0.743047 -5.08904 0
M  V30 25928 N 2537.76 0.331252 -6.13006 0
M  V30 25929 C 2539.14 0.142493 -6.19836 0
M  V30 25930 C 2541.19 0.645373 -4.937 0
M  V30 25931 C 2539.89 -0.546251 -7.17223 0
M  V30 25932 C 2541.92 -0.0296598 -5.91393 0
M  V30 25933 C 2541.28 -0.619179 -7.01673 0
M  V30 25934 H 2537.38 0.373527 -0.687024 0
M  V30 25935 H 2539.96 0.346626 -1.9159 0
M  V30 25936 H 2538.14 2.71488 -2.77757 0
M  V30 25937 H 2539.87 2.68972 -3.02384 0
M  V30 25938 H 2536.62 1.3542 -4.53826 0
M  V30 25939 H 2537.05 -0.0204129 -6.76997 0
M  V30 25940 H 2541.69 1.08687 -4.08591 0
M  V30 25941 H 2539.41 -0.9996 -8.01894 0
M  V30 25942 H 2542.99 -0.104807 -5.81706 0
M  V30 25943 H 2541.87 -1.13323 -7.75969 0
M  V30 25944 N 2539.38 1.46127 0.590316 0
M  V30 25945 C 2540.33 1.52533 1.69463 0
M  V30 25946 C 2541.31 0.386944 1.56178 0
M  V30 25947 O 2542.5 0.634887 1.65222 0
M  V30 25948 C 2539.63 1.51135 3.08242 0
M  V30 25949 C 2538.72 2.70239 3.26851 0
M  V30 25950 N 2539.11 3.9522 3.1565 0
M  V30 25951 C 2537.41 2.66302 3.5777 0
M  V30 25952 C 2538.11 4.74805 3.36058 0
M  V30 25953 N 2537.08 4.06549 3.60858 0
M  V30 25954 H 2540.88 2.46969 1.59322 0
M  V30 25955 H 2538.4 1.4166 0.794115 0
M  V30 25956 H 2540.4 1.53811 3.87489 0
M  V30 25957 H 2539.06 0.577692 3.1952 0
M  V30 25958 H 2540.07 4.26583 2.93679 0
M  V30 25959 H 2536.74 1.81924 3.75779 0
M  V30 25960 H 2538.13 5.83778 3.32645 0
M  V30 25961 N 2540.85 -0.834306 1.33705 0
M  V30 25962 C 2542.09 -1.6035 1.26757 0
M  V30 25963 C 2542.46 -1.91306 -0.163149 0
M  V30 25964 O 2543.66 -2.66423 -0.356653 0
M  V30 25965 C 2541.93 -2.87537 2.12267 0
M  V30 25966 S 2543.49 -3.78172 2.22556 0
M  V30 25967 H 2540.31 -0.549745 0.450889 0
M  V30 25968 H 2542.91 -0.986415 1.6879 0
M  V30 25969 H 2541.61 -2.62774 3.15243 0
M  V30 25970 H 2541.14 -3.54249 1.71089 0
M  V30 25971 H 2543.16 -4.76334 1.38998 0
M  V30 25972 N 2542.33 -1.17248 -1.05312 0
M  V30 25973 C 2543.56 -0.984625 -1.81969 0
M  V30 25974 C 2543.97 0.467134 -1.8293 0
M  V30 25975 O 2543.33 1.32436 -1.25566 0
M  V30 25976 C 2543.38 -1.51677 -3.28141 0
M  V30 25977 O 2543.1 -2.91169 -3.27342 0
M  V30 25978 C 2544.6 -1.37333 -4.21491 0
M  V30 25979 H 2541.82 -0.348421 -0.573449 0
M  V30 25980 H 2544.37 -1.55509 -1.32806 0
M  V30 25981 H 2542.52 -0.988367 -3.7458 0
M  V30 25982 H 2542.94 -3.15739 -4.18818 0
M  V30 25983 H 2544.41 -1.79384 -5.2204 0
M  V30 25984 H 2544.89 -0.320246 -4.38031 0
M  V30 25985 H 2545.49 -1.89185 -3.80906 0
M  V30 25986 N 2543.81 1.24015 -0.972531 0
M  V30 25987 C 2545.06 1.92503 -0.638012 0
M  V30 25988 C 2545.39 1.75788 0.825352 0
M  V30 25989 O 2544.66 1.11396 1.5944 0
M  V30 25990 C 2544.95 3.45367 -1.01948 0
M  V30 25991 C 2544.8 3.71227 -2.5399 0
M  V30 25992 C 2546.12 4.36554 -0.557587 0
M  V30 25993 H 2543.24 0.699113 -0.23326 0
M  V30 25994 H 2545.88 1.4629 -1.2124 0
M  V30 25995 H 2544.03 3.84858 -0.530723 0
M  V30 25996 H 2545.7 3.41266 -3.1038 0
M  V30 25997 H 2543.95 3.1621 -2.96974 0
M  V30 25998 H 2544.62 4.78201 -2.75731 0
M  V30 25999 H 2547.09 4.04465 -0.9771 0
M  V30 26000 H 2545.97 5.42231 -0.853015 0
M  V30 26001 H 2546.23 4.38762 0.542251 0
M  V30 26002 N 2545.29 0.743226 1.38974 0
M  V30 26003 C 2546.53 0.299575 2.02193 0
M  V30 26004 C 2546.89 -1.09503 1.57712 0
M  V30 26005 O 2548.09 -1.63722 2.13187 0
M  V30 26006 C 2546.36 0.406885 3.55076 0
M  V30 26007 S 2547.92 0.044288 4.38778 0
M  V30 26008 H 2544.74 0.116849 0.701333 0
M  V30 26009 H 2547.34 0.971559 1.6965 0
M  V30 26010 H 2546.05 1.42302 3.84939 0
M  V30 26011 H 2545.58 -0.282638 3.92383 0
M  V30 26012 H 2547.59 -1.16939 4.82224 0
M  V30 26013 N 2546.77 -1.4974 0.491491 0
M  V30 26014 C 2547.68 -2.32715 -0.296794 0
M  V30 26015 C 2548.69 -1.44015 -0.97651 0
M  V30 26016 O 2549.87 -1.77048 -0.959992 0
M  V30 26017 C 2546.93 -3.19217 -1.35283 0
M  V30 26018 C 2545.99 -4.23758 -0.687557 0
M  V30 26019 C 2545.23 -5.06126 -1.69328 0
M  V30 26020 O 2545.45 -4.89866 -2.92211 0
M  V30 26021 O 2544.38 -5.88696 -1.25384 0
M  V30 26022 H 2548.21 -3.01287 0.382101 0
M  V30 26023 H 2545.8 -1.47243 0.252979 0
M  V30 26024 H 2547.68 -3.72831 -1.96404 0
M  V30 26025 H 2546.35 -2.53351 -2.01482 0
M  V30 26026 H 2545.26 -3.74082 -0.0368502 0
M  V30 26027 H 2546.59 -4.92153 -0.0681701 0
M  V30 26028 N 2548.24 -0.224922 -1.55987 0
M  V30 26029 C 2549.52 0.455049 -1.90233 0
M  V30 26030 C 2549.9 1.77497 -1.14272 0
M  V30 26031 O 2549.25 2.27094 -0.253119 0
M  V30 26032 C 2549.46 0.644698 -3.42994 0
M  V30 26033 C 2550.81 0.950596 -4.13822 0
M  V30 26034 O 2551.83 0.731362 -3.48611 0
M  V30 26035 O 2550.69 1.36685 -5.29131 0
M  V30 26036 H 2547.78 0.24107 -0.791084 0
M  V30 26037 H 2550.33 -0.267357 -1.67581 0
M  V30 26038 H 2549.1 -0.286199 -3.90252 0
M  V30 26039 H 2548.73 1.41847 -3.71437 0
M  V30 26040 N 2549.72 1.57526 0.0484352 0
M  V30 26041 C 2550.95 1.92338 0.754292 0
M  V30 26042 C 2551.36 0.82135 1.70442 0
M  V30 26043 O 2550.7 -0.212508 1.82467 0
M  V30 26044 C 2550.77 3.22808 1.58225 0
M  V30 26045 C 2550.43 4.49961 0.798994 0
M  V30 26046 C 2551.43 5.19788 0.107808 0
M  V30 26047 C 2549.11 4.96529 0.759258 0
M  V30 26048 C 2551.11 6.34449 -0.612628 0
M  V30 26049 C 2548.79 6.1109 0.0350639 0
M  V30 26050 C 2549.79 6.79903 -0.649657 0
M  V30 26051 O 2549.48 7.92276 -1.36213 0
M  V30 26052 H 2549.21 0.639801 0.218246 0
M  V30 26053 H 2551.76 2.05394 0.0158934 0
M  V30 26054 H 2549.99 3.06026 2.36401 0
M  V30 26055 H 2551.68 3.43093 2.16892 0
M  V30 26056 H 2552.45 4.84827 0.129663 0
M  V30 26057 H 2548.33 4.42824 1.2817 0
M  V30 26058 H 2551.87 6.88095 -1.14763 0
M  V30 26059 H 2547.77 6.45499 0.0112179 0
M  V30 26060 H 2548.54 8.08527 -1.27381 0
M  V30 26061 N 2551.2 -0.32033 1.5431 0
M  V30 26062 C 2552.48 -1.07632 1.63324 0
M  V30 26063 C 2552.86 -2.05821 0.469156 0
M  V30 26064 O 2552.21 -2.22119 -0.536235 0
M  V30 26065 C 2552.42 -1.77539 3.00468 0
M  V30 26066 C 2553.76 -2.30442 3.56625 0
M  V30 26067 O 2554.79 -1.87601 3.02794 0
M  V30 26068 O 2553.65 -3.08884 4.50836 0
M  V30 26069 H 2550.74 -0.496319 0.66151 0
M  V30 26070 H 2553.29 -0.319963 1.66656 0
M  V30 26071 H 2552.06 -1.06136 3.76631 0
M  V30 26072 H 2551.68 -2.59977 3.00829 0
M  V30 26073 N 2552.68 -1.46438 -0.582558 0
M  V30 26074 C 2553.61 -1.59874 -1.70184 0
M  V30 26075 C 2554.59 -0.449071 -1.64065 0
M  V30 26076 O 2555.77 -0.675332 -1.82079 0
M  V30 26077 C 2552.9 -1.58886 -3.08824 0
M  V30 26078 C 2551.86 -2.72824 -3.29774 0
M  V30 26079 C 2551.18 -2.56898 -4.68943 0
M  V30 26080 C 2552.48 -4.14646 -3.17594 0
M  V30 26081 H 2554.18 -2.53569 -1.59196 0
M  V30 26082 H 2551.72 -1.22033 -0.764451 0
M  V30 26083 H 2553.68 -1.6688 -3.86948 0
M  V30 26084 H 2552.4 -0.617362 -3.20712 0
M  V30 26085 H 2551.06 -2.643 -2.54049 0
M  V30 26086 H 2550.71 -1.57831 -4.77596 0
M  V30 26087 H 2550.41 -3.3332 -4.83913 0
M  V30 26088 H 2551.93 -2.66783 -5.49235 0
M  V30 26089 H 2553.35 -4.24281 -3.85563 0
M  V30 26090 H 2551.74 -4.91656 -3.44085 0
M  V30 26091 H 2552.81 -4.34791 -2.14673 0
M  V30 26092 N 2554.16 0.827204 -1.34146 0
M  V30 26093 C 2555.4 1.59675 -1.27606 0
M  V30 26094 C 2555.76 1.91389 0.153001 0
M  V30 26095 O 2556.96 2.66609 0.342519 0
M  V30 26096 C 2555.23 2.86407 -2.13789 0
M  V30 26097 S 2556.79 3.76987 -2.24559 0
M  V30 26098 H 2553.61 0.547346 -0.453798 0
M  V30 26099 H 2556.21 0.977449 -1.69311 0
M  V30 26100 H 2554.92 2.61098 -3.16632 0
M  V30 26101 H 2554.45 3.53337 -1.72965 0
M  V30 26102 H 2556.46 4.7559 -1.41522 0
M  V30 26103 N 2555.63 1.17805 1.04688 0
M  V30 26104 C 2556.88 0.963962 1.77174 0
M  V30 26105 C 2557.2 -0.507982 1.88889 0
M  V30 26106 O 2558.4 -0.840419 2.58165 0
M  V30 26107 C 2556.86 1.6756 3.18515 0
M  V30 26108 C 2556.47 3.18643 3.14914 0
M  V30 26109 C 2558.21 1.54409 3.95421 0
M  V30 26110 C 2556.12 3.82474 4.51074 0
M  V30 26111 H 2555.05 0.357035 0.66411 0
M  V30 26112 H 2557.7 1.41112 1.17301 0
M  V30 26113 H 2556.08 1.15619 3.78746 0
M  V30 26114 H 2557.25 3.77558 2.64171 0
M  V30 26115 H 2555.57 3.31864 2.51506 0
M  V30 26116 H 2558.17 1.99465 4.96103 0
M  V30 26117 H 2558.51 0.495402 4.13342 0
M  V30 26118 H 2559.04 2.03596 3.41751 0
M  V30 26119 H 2555.78 4.87362 4.38359 0
M  V30 26120 H 2555.3 3.28345 5.01946 0
M  V30 26121 H 2556.98 3.84974 5.20004 0
M  V30 26122 N 2557.11 -1.23497 0.979094 0
M  V30 26123 C 2558.06 -2.26926 0.510644 0
M  V30 26124 C 2559.05 -1.63808 -0.431662 0
M  V30 26125 O 2560.26 -1.77385 -0.305699 0
M  V30 26126 H 2556.64 -0.737552 0.146701 0
M  V30 26127 H 2558.61 -2.638 1.3947 0
M  V30 26128 C 2557.36 -3.47271 -0.172597 0
M  V30 26129 H 2556.68 -3.9609 0.543401 0
M  V30 26130 H 2558.12 -4.21453 -0.464027 0
M  V30 26131 C 2556.58 -3.06278 -1.4034 0
M  V30 26132 O 2557.11 -3.14447 -2.49972 0
M  V30 26133 N 2555.31 -2.61206 -1.27358 0
M  V30 26134 H 2554.86 -2.54759 -0.381539 0
M  V30 26135 H 2554.82 -2.34144 -2.09818 0
M  V30 26136 N 2558.59 -0.750586 -1.38578 0
M  V30 26137 C 2559.83 -0.310294 -2.02031 0
M  V30 26138 C 2560.2 1.08665 -1.5829 0
M  V30 26139 O 2561.4 1.62589 -2.14052 0
M  V30 26140 C 2559.67 -0.42571 -3.54856 0
M  V30 26141 S 2561.23 -0.0675569 -4.38748 0
M  V30 26142 H 2558.04 -0.120566 -0.700703 0
M  V30 26143 H 2560.65 -0.980542 -1.69132 0
M  V30 26144 H 2559.35 -1.44341 -3.84179 0
M  V30 26145 H 2558.88 0.261825 -3.92528 0
M  V30 26146 H 2560.9 1.1438 -4.82837 0
M  V30 26147 N 2560.07 1.49477 -0.499425 0
M  V30 26148 C 2561.3 2.06556 0.0424476 0
M  V30 26149 C 2561.71 1.3602 1.31511 0
M  V30 26150 O 2561.05 0.431749 1.78554 0
M  V30 26151 C 2561.11 3.57611 0.368012 0
M  V30 26152 C 2560.78 4.49824 -0.80671 0
M  V30 26153 C 2561.77 4.91433 -1.69676 0
M  V30 26154 C 2559.46 4.92142 -1.00507 0
M  V30 26155 C 2561.45 5.74097 -2.76933 0
M  V30 26156 C 2559.14 5.74583 -2.08082 0
M  V30 26157 C 2560.14 6.15464 -2.9613 0
M  V30 26158 O 2559.83 6.96257 -4.01848 0
M  V30 26159 H 2559.56 0.675798 -0.0165284 0
M  V30 26160 H 2562.11 1.93265 -0.695531 0
M  V30 26161 H 2560.34 3.68905 1.15956 0
M  V30 26162 H 2562.03 3.96936 0.848311 0
M  V30 26163 H 2562.8 4.59385 -1.55532 0
M  V30 26164 H 2558.68 4.59824 -0.329117 0
M  V30 26165 H 2562.22 6.05926 -3.45686 0
M  V30 26166 H 2558.12 6.06043 -2.22221 0
M  V30 26167 H 2558.88 7.1456 -3.99182 0
M  V30 26168 N 2561.55 0.233191 1.55865 0
M  V30 26169 C 2562.5 -0.688471 2.22177 0
M  V30 26170 C 2563.49 -1.19074 1.20489 0
M  V30 26171 O 2564.7 -1.14922 1.38538 0
M  V30 26172 H 2561.07 -0.24047 0.712515 0
M  V30 26173 H 2563.04 -0.105883 2.98212 0
M  V30 26174 C 2561.79 -1.88066 2.92449 0
M  V30 26175 H 2561.11 -1.5033 3.7046 0
M  V30 26176 H 2562.55 -2.50308 3.42231 0
M  V30 26177 C 2561.01 -2.74332 1.9556 0
M  V30 26178 O 2561.54 -3.73445 1.47993 0
M  V30 26179 N 2559.75 -2.4061 1.62957 0
M  V30 26180 H 2559.3 -1.60065 2.01834 0
M  V30 26181 H 2559.25 -2.98607 0.983939 0
M  V30 26182 N 2563.03 -1.57549 -0.0400806 0
M  V30 26183 C 2564.25 -1.93015 -0.745162 0
M  V30 26184 C 2564.67 -0.832013 -1.69479 0
M  V30 26185 O 2564.03 0.192431 -1.81483 0
M  V30 26186 C 2564.08 -3.28375 -1.5117 0
M  V30 26187 O 2563.8 -4.33969 -0.600207 0
M  V30 26188 C 2565.3 -3.78055 -2.31494 0
M  V30 26189 H 2562.52 -0.637267 -0.210077 0
M  V30 26190 H 2565.06 -2.045 -0.000888743 0
M  V30 26191 H 2563.22 -3.18321 -2.20795 0
M  V30 26192 H 2563.63 -5.12037 -1.1366 0
M  V30 26193 H 2565.11 -4.75308 -2.80689 0
M  V30 26194 H 2565.58 -3.08681 -3.1243 0
M  V30 26195 H 2566.19 -3.91156 -1.66964 0
M  V30 26196 N 2564.5 0.312142 -1.54478 0
M  V30 26197 C 2565.45 1.38457 -1.84657 0
M  V30 26198 C 2566.42 1.50881 -0.694563 0
M  V30 26199 O 2567.61 1.65918 -0.94211 0
M  V30 26200 C 2564.75 2.74641 -2.08965 0
M  V30 26201 C 2563.86 2.70757 -3.36622 0
M  V30 26202 C 2562.99 3.98862 -3.50831 0
M  V30 26203 C 2562.03 3.89331 -4.72322 0
M  V30 26204 N 2561.17 5.09189 -4.83396 0
M  V30 26205 H 2566.01 1.12021 -2.76144 0
M  V30 26206 H 2563.55 0.542041 -1.36749 0
M  V30 26207 H 2565.5 3.53825 -2.21051 0
M  V30 26208 H 2564.13 2.99362 -1.20757 0
M  V30 26209 H 2563.19 1.835 -3.33214 0
M  V30 26210 H 2564.5 2.59601 -4.25921 0
M  V30 26211 H 2563.65 4.8648 -3.62522 0
M  V30 26212 H 2562.39 4.12839 -2.59645 0
M  V30 26213 H 2561.4 3.00097 -4.60676 0
M  V30 26214 H 2562.62 3.76909 -5.64904 0
M  V30 26215 H 2560.57 5.2365 -3.95129 0
M  V30 26216 H 2560.48 5.00412 -5.66678 0
M  V30 26217 H 2561.75 5.98489 -4.99431 0
M  V30 26218 N 2565.98 1.46745 0.574784 0
M  V30 26219 C 2567.21 1.5629 1.36338 0
M  V30 26220 C 2567.63 0.20738 1.86953 0
M  V30 26221 O 2566.99 -0.813842 1.62007 0
M  V30 26222 C 2567.04 2.57791 2.52143 0
M  V30 26223 O 2566.14 2.11844 3.5383 0
M  V30 26224 H 2565.48 0.525643 0.405703 0
M  V30 26225 H 2568.01 1.92383 0.696419 0
M  V30 26226 H 2568.02 2.77653 2.98953 0
M  V30 26227 H 2566.7 3.56224 2.14657 0
M  V30 26228 H 2565.27 2.02005 3.13446 0
M  V30 26229 N 2567.46 -0.820078 1.34583 0
M  V30 26230 C 2568.41 -1.92011 1.22946 0
M  V30 26231 C 2569.39 -1.60391 0.12783 0
M  V30 26232 O 2570.59 -1.73347 0.357767 0
M  V30 26233 C 2567.71 -3.28716 0.989996 0
M  V30 26234 C 2566.8 -3.66445 2.13492 0
M  V30 26235 N 2567.19 -3.75716 3.38631 0
M  V30 26236 C 2565.49 -3.96312 2.0458 0
M  V30 26237 C 2566.19 -4.08794 4.13839 0
M  V30 26238 N 2565.17 -4.22165 3.42459 0
M  V30 26239 H 2568.97 -1.97361 2.17774 0
M  V30 26240 H 2566.48 -1.0139 1.26861 0
M  V30 26241 H 2568.48 -4.07343 0.887534 0
M  V30 26242 H 2567.14 -3.24661 0.0504262 0
M  V30 26243 H 2568.15 -3.59137 3.7315 0
M  V30 26244 H 2564.83 -4.0036 1.18397 0
M  V30 26245 H 2566.22 -4.23147 5.21916 0
M  V30 26246 N 2568.94 -1.18359 -1.04062 0
M  V30 26247 C 2569.9 -0.912744 -2.10242 0
M  V30 26248 C 2570.9 0.1019 -1.60477 0
M  V30 26249 O 2572.09 -0.131547 -1.73703 0
M  V30 26250 C 2569.22 -0.369446 -3.38892 0
M  V30 26251 H 2570.42 -1.8543 -2.35702 0
M  V30 26252 H 2567.97 -0.995615 -1.20487 0
M  V30 26253 H 2568.7 0.57872 -3.19095 0
M  V30 26254 H 2568.49 -1.10086 -3.76329 0
M  V30 26255 H 2569.98 -0.198648 -4.17127 0
M  V30 26256 N 2570.42 1.22976 -0.98563 0
M  V30 26257 C 2571.37 2.22423 -0.501219 0
M  V30 26258 C 2572.35 1.55141 0.426622 0
M  V30 26259 O 2573.54 1.75159 0.254625 0
M  V30 26260 C 2570.67 3.42774 0.189942 0
M  V30 26261 C 2569.76 4.17275 -0.757776 0
M  V30 26262 N 2570.15 4.68652 -1.90259 0
M  V30 26263 C 2568.45 4.42315 -0.572168 0
M  V30 26264 C 2569.15 5.25388 -2.49685 0
M  V30 26265 N 2568.12 5.13623 -1.78022 0
M  V30 26266 H 2571.92 2.5978 -1.37446 0
M  V30 26267 H 2569.44 1.38565 -0.846965 0
M  V30 26268 H 2571.44 4.13198 0.554317 0
M  V30 26269 H 2570.1 3.06931 1.0594 0
M  V30 26270 H 2571.11 4.64835 -2.28362 0
M  V30 26271 H 2567.78 4.1674 0.251836 0
M  V30 26272 H 2569.17 5.75726 -3.46395 0
M  V30 26273 N 2571.89 0.757924 1.38178 0
M  V30 26274 C 2572.84 0.133097 2.30416 0
M  V30 26275 C 2573.81 -0.70493 1.50399 0
M  V30 26276 O 2575 -0.660161 1.79015 0
M  V30 26277 C 2572.14 -0.750754 3.36835 0
M  V30 26278 C 2571.25 0.102373 4.31879 0
M  V30 26279 C 2570.38 -0.784887 5.25369 0
M  V30 26280 C 2569.42 0.0716122 6.12058 0
M  V30 26281 N 2568.56 -0.772849 6.97833 0
M  V30 26282 H 2573.4 0.925235 2.83273 0
M  V30 26283 H 2570.94 0.46789 1.3946 0
M  V30 26284 H 2572.89 -1.27787 3.97148 0
M  V30 26285 H 2571.52 -1.50863 2.85377 0
M  V30 26286 H 2570.58 0.74716 3.7299 0
M  V30 26287 H 2571.89 0.763639 4.9292 0
M  V30 26288 H 2571.04 -1.37901 5.9082 0
M  V30 26289 H 2569.78 -1.47987 4.64705 0
M  V30 26290 H 2568.79 0.678368 5.45599 0
M  V30 26291 H 2570.01 0.763725 6.74792 0
M  V30 26292 H 2567.96 -1.45271 6.39713 0
M  V30 26293 H 2567.87 -0.168576 7.55812 0
M  V30 26294 H 2569.14 -1.3518 7.67689 0
M  V30 26295 N 2573.37 -1.4921 0.507345 0
M  V30 26296 C 2574.31 -2.26023 -0.314469 0
M  V30 26297 C 2575.28 -1.30881 -0.964826 0
M  V30 26298 O 2576.47 -1.60182 -0.993679 0
M  V30 26299 C 2573.59 -3.06404 -1.4434 0
M  V30 26300 C 2572.64 -4.16749 -0.906776 0
M  V30 26301 S 2573.47 -5.35098 0.207487 0
M  V30 26302 C 2574.63 -6.19035 -0.924464 0
M  V30 26303 H 2574.86 -2.95378 0.337468 0
M  V30 26304 H 2572.4 -1.51599 0.292744 0
M  V30 26305 H 2574.35 -3.53298 -2.09023 0
M  V30 26306 H 2573.01 -2.36506 -2.06698 0
M  V30 26307 H 2572.21 -4.72531 -1.75301 0
M  V30 26308 H 2571.81 -3.72478 -0.337055 0
M  V30 26309 H 2574.1 -6.52365 -1.82828 0
M  V30 26310 H 2575.04 -7.0694 -0.405123 0
M  V30 26311 H 2575.45 -5.51714 -1.19466 0
M  V30 26312 N 2574.85 -0.241454 -1.55739 0
M  V30 26313 C 2576.1 0.385371 -1.99105 0
M  V30 26314 C 2576.43 1.57986 -1.12933 0
M  V30 26315 O 2575.7 1.93555 -0.191483 0
M  V30 26316 C 2575.99 0.800554 -3.51089 0
M  V30 26317 C 2575.84 -0.398953 -4.48027 0
M  V30 26318 C 2577.16 1.64952 -4.08018 0
M  V30 26319 H 2574.28 0.138601 -0.72385 0
M  V30 26320 H 2576.92 -0.341675 -1.86903 0
M  V30 26321 H 2575.07 1.42003 -3.61618 0
M  V30 26322 H 2576.74 -1.03734 -4.49485 0
M  V30 26323 H 2574.99 -1.043 -4.21075 0
M  V30 26324 H 2575.66 -0.0652026 -5.51961 0
M  V30 26325 H 2578.13 1.12665 -4.00557 0
M  V30 26326 H 2577.01 1.90889 -5.14638 0
M  V30 26327 H 2577.27 2.61955 -3.56135 0
M  V30 26328 N 2576.33 1.57568 0.0317248 0
M  V30 26329 C 2577.28 2.06384 1.03317 0
M  V30 26330 C 2578.25 0.952438 1.3608 0
M  V30 26331 O 2579.43 1.22283 1.46463 0
M  V30 26332 C 2576.57 2.54582 2.32985 0
M  V30 26333 C 2575.68 3.79502 2.06403 0
M  V30 26334 C 2574.82 4.16323 3.29922 0
M  V30 26335 C 2573.86 5.34168 2.98883 0
M  V30 26336 N 2572.99 5.66433 4.14847 0
M  V30 26337 H 2577.83 2.91691 0.609931 0
M  V30 26338 H 2575.37 1.44222 0.289548 0
M  V30 26339 H 2577.33 2.80593 3.08745 0
M  V30 26340 H 2575.96 1.72195 2.73036 0
M  V30 26341 H 2575.01 3.60592 1.21152 0
M  V30 26342 H 2576.32 4.65381 1.79504 0
M  V30 26343 H 2575.48 4.43447 4.14052 0
M  V30 26344 H 2574.22 3.2909 3.59932 0
M  V30 26345 H 2573.22 5.06799 2.13156 0
M  V30 26346 H 2574.45 6.23052 2.70154 0
M  V30 26347 H 2572.39 4.82159 4.44813 0
M  V30 26348 H 2572.31 6.46816 3.91362 0
M  V30 26349 H 2573.58 5.98133 4.99857 0
M  V30 26350 N 2577.81 -0.303946 1.54641 0
M  V30 26351 C 2579.05 -1.03715 1.74971 0
M  V30 26352 C 2579.41 -1.85028 0.527493 0
M  V30 26353 O 2578.7 -1.85487 -0.48011 0
M  V30 26354 C 2578.89 -1.97676 2.97756 0
M  V30 26355 C 2578.72 -1.25606 4.31802 0
M  V30 26356 C 2577.49 -0.984431 4.95618 0
M  V30 26357 C 2579.69 -0.661991 5.10022 0
M  V30 26358 N 2577.67 -0.233686 6.13455 0
M  V30 26359 C 2579.04 -0.0438646 6.19984 0
M  V30 26360 C 2581.1 -0.566748 4.94664 0
M  V30 26361 C 2579.8 0.660286 7.16263 0
M  V30 26362 C 2581.83 0.123741 5.91271 0
M  V30 26363 C 2581.19 0.730731 7.006 0
M  V30 26364 H 2577.29 -0.36255 0.692879 0
M  V30 26365 H 2579.87 -0.316102 1.92117 0
M  V30 26366 H 2578.04 -2.67035 2.82041 0
M  V30 26367 H 2579.78 -2.64127 3.06625 0
M  V30 26368 H 2576.53 -1.28183 4.55923 0
M  V30 26369 H 2576.96 0.128115 6.76879 0
M  V30 26370 H 2581.6 -1.02173 4.10269 0
M  V30 26371 H 2579.32 1.12705 8.00202 0
M  V30 26372 H 2582.9 0.197338 5.81465 0
M  V30 26373 H 2581.78 1.25653 7.74068 0
M  V30 26374 N 2579.28 -1.47047 -0.566994 0
M  V30 26375 C 2580.53 -1.52867 -1.32198 0
M  V30 26376 C 2580.85 -0.188422 -1.94088 0
M  V30 26377 O 2580.12 0.786661 -1.79411 0
M  V30 26378 H 2578.7 -0.563065 -0.490884 0
M  V30 26379 H 2581.37 -1.83282 -0.662847 0
M  V30 26380 H 2580.46 -2.28993 -2.12058 0
M  V30 26381 N 2580.76 0.812929 -1.35016 0
M  V30 26382 C 2581.69 1.93916 -1.30072 0
M  V30 26383 C 2582.67 1.69184 -0.176304 0
M  V30 26384 O 2583.86 1.90638 -0.370261 0
M  V30 26385 C 2580.99 3.30551 -1.06553 0
M  V30 26386 C 2579.94 3.69749 -2.15568 0
M  V30 26387 C 2579.27 5.04476 -1.77223 0
M  V30 26388 C 2580.57 3.80793 -3.57483 0
M  V30 26389 H 2582.26 1.9831 -2.24307 0
M  V30 26390 H 2579.81 0.952717 -1.07978 0
M  V30 26391 H 2581.76 4.08935 -1.01736 0
M  V30 26392 H 2580.49 3.26482 -0.0876293 0
M  V30 26393 H 2579.14 2.93646 -2.19471 0
M  V30 26394 H 2578.79 4.96905 -0.780676 0
M  V30 26395 H 2578.49 5.31674 -2.50194 0
M  V30 26396 H 2580.02 5.85307 -1.7392 0
M  V30 26397 H 2581.43 4.49424 -3.55937 0
M  V30 26398 H 2579.83 4.19455 -4.2916 0
M  V30 26399 H 2580.9 2.82518 -3.94096 0
M  V30 26400 N 2582.24 1.18909 1.03433 0
M  V30 26401 C 2583.49 0.986413 1.76392 0
M  V30 26402 C 2583.81 -0.484534 1.88884 0
M  V30 26403 O 2583.08 -1.35117 1.41846 0
M  V30 26404 H 2581.66 0.361986 0.653433 0
M  V30 26405 H 2584.32 1.49705 1.24797 0
M  V30 26406 H 2583.42 1.42982 2.77421 0
M  V30 26407 N 2583.72 -1.22452 0.992137 0
M  V30 26408 C 2584.65 -2.26643 0.561716 0
M  V30 26409 C 2585.63 -1.65059 -0.411026 0
M  V30 26410 O 2586.81 -1.9184 -0.301827 0
M  V30 26411 C 2583.94 -3.47074 -0.125186 0
M  V30 26412 C 2582.9 -4.21089 0.766022 0
M  V30 26413 C 2582.22 -5.34673 -0.0537544 0
M  V30 26414 C 2583.52 -4.79852 2.0625 0
M  V30 26415 H 2585.22 -2.62899 1.43263 0
M  V30 26416 H 2582.76 -1.26376 0.690305 0
M  V30 26417 H 2584.72 -4.19121 -0.43769 0
M  V30 26418 H 2583.44 -3.09912 -1.03064 0
M  V30 26419 H 2582.1 -3.50876 1.06216 0
M  V30 26420 H 2581.75 -4.93752 -0.960101 0
M  V30 26421 H 2581.45 -5.85118 0.539517 0
M  V30 26422 H 2582.97 -6.09536 -0.36037 0
M  V30 26423 H 2584.39 -5.43845 1.814 0
M  V30 26424 H 2582.78 -5.40633 2.60453 0
M  V30 26425 H 2583.85 -3.99946 2.74174 0
M  V30 26426 N 2585.2 -0.765242 -1.37774 0
M  V30 26427 C 2586.47 -0.251631 -1.93975 0
M  V30 26428 C 2586.85 1.25219 -1.69951 0
M  V30 26429 O 2586.2 2.03224 -1.04461 0
M  V30 26430 C 2586.41 -0.617955 -3.43486 0
M  V30 26431 C 2587.76 -0.584102 -4.20563 0
M  V30 26432 O 2588.78 -0.55695 -3.51819 0
M  V30 26433 O 2587.64 -0.605386 -5.43137 0
M  V30 26434 H 2584.74 -0.0561951 -0.825089 0
M  V30 26435 H 2587.28 -0.846154 -1.471 0
M  V30 26436 H 2586.05 -1.65608 -3.54527 0
M  V30 26437 H 2585.68 0.00396422 -3.976 0
M  V30 26438 N 2586.67 1.48939 -0.515251 0
M  V30 26439 C 2587.95 1.95403 0.0878744 0
M  V30 26440 C 2588.33 1.45715 1.52743 0
M  V30 26441 O 2587.68 0.677131 2.18237 0
M  V30 26442 C 2587.89 3.48997 -0.0141669 0
M  V30 26443 C 2589.24 4.24326 0.152571 0
M  V30 26444 O 2590.26 3.56149 0.0603399 0
M  V30 26445 O 2589.12 5.45418 0.343744 0
M  V30 26446 H 2586.21 0.822363 0.0874492 0
M  V30 26447 H 2588.76 1.59524 -0.578803 0
M  V30 26448 H 2587.53 3.77839 -1.01752 0
M  V30 26449 H 2587.16 3.91531 0.692022 0
M  V30 26450 N 2588.15 0.249709 1.55609 0
M  V30 26451 C 2589.06 -0.659335 2.25144 0
M  V30 26452 C 2590.08 -1.19099 1.26852 0
M  V30 26453 O 2591.26 -1.22666 1.59734 0
M  V30 26454 C 2588.32 -1.83834 2.93949 0
M  V30 26455 C 2587.38 -1.34589 4.07657 0
M  V30 26456 C 2586.61 -2.4687 4.73171 0
M  V30 26457 O 2586.84 -3.65663 4.37775 0
M  V30 26458 O 2585.77 -2.16469 5.61627 0
M  V30 26459 H 2589.6 -0.0968165 3.03546 0
M  V30 26460 H 2587.18 0.0181003 1.49389 0
M  V30 26461 H 2589.06 -2.52632 3.37276 0
M  V30 26462 H 2587.74 -2.38843 2.18485 0
M  V30 26463 H 2586.65 -0.625109 3.6884 0
M  V30 26464 H 2587.98 -0.841855 4.84947 0
M  V30 26465 N 2589.63 -1.57583 -0.0233682 0
M  V30 26466 C 2590.88 -1.89157 -0.711621 0
M  V30 26467 C 2591.2 -0.848127 -1.7559 0
M  V30 26468 O 2590.47 0.117532 -1.95547 0
M  V30 26469 H 2589.05 -0.698102 -0.265823 0
M  V30 26470 H 2591.71 -1.94896 0.012029 0
M  V30 26471 H 2590.81 -2.88208 -1.19761 0
M  V30 26472 N 2591.11 0.29574 -1.548 0
M  V30 26473 C 2592.33 1.05343 -1.78655 0
M  V30 26474 C 2592.76 1.79973 -0.546926 0
M  V30 26475 O 2592.12 1.7419 0.502732 0
M  V30 26476 C 2592.17 2.00555 -2.99683 0
M  V30 26477 O 2591.27 3.08948 -2.73176 0
M  V30 26478 H 2590.61 0.302356 -0.591166 0
M  V30 26479 H 2593.14 0.331562 -2.01896 0
M  V30 26480 H 2593.15 2.42926 -3.27797 0
M  V30 26481 H 2591.83 1.45643 -3.89565 0
M  V30 26482 H 2590.4 2.71055 -2.56093 0
M  V30 26483 N 2592.59 1.47346 0.559187 0
M  V30 26484 C 2593.81 1.57727 1.34673 0
M  V30 26485 C 2594.24 0.227197 1.86723 0
M  V30 26486 O 2593.6 -0.796613 1.62861 0
M  V30 26487 C 2593.64 2.60451 2.49394 0
M  V30 26488 O 2592.75 2.15585 3.51564 0
M  V30 26489 H 2592.09 0.529917 0.400105 0
M  V30 26490 H 2594.62 1.93111 0.675975 0
M  V30 26491 H 2594.63 2.80808 2.95991 0
M  V30 26492 H 2593.3 3.5848 2.10867 0
M  V30 26493 H 2591.88 2.05318 3.11286 0
M  V30 26494 N 2594.07 -0.805758 1.35445 0
M  V30 26495 C 2595 -1.92575 1.24288 0
M  V30 26496 C 2596.01 -1.61952 0.16599 0
M  V30 26497 O 2597.2 -1.73505 0.419334 0
M  V30 26498 C 2594.3 -3.26969 0.89133 0
M  V30 26499 C 2593.47 -3.85492 2.06676 0
M  V30 26500 C 2592.53 -4.98294 1.69086 0
M  V30 26501 O 2591.56 -5.15677 2.40969 0
M  V30 26502 N 2592.76 -5.77233 0.614971 0
M  V30 26503 H 2595.52 -2.02672 2.20781 0
M  V30 26504 H 2593.09 -0.98322 1.28625 0
M  V30 26505 H 2595.08 -3.99902 0.621326 0
M  V30 26506 H 2593.65 -3.12596 0.016059 0
M  V30 26507 H 2592.87 -3.04742 2.50052 0
M  V30 26508 H 2594.16 -4.21323 2.85245 0
M  V30 26509 H 2593.55 -5.65697 0.0177474 0
M  V30 26510 H 2592.11 -6.50542 0.40475 0
M  V30 26511 N 2595.54 -1.19456 -1.02801 0
M  V30 26512 C 2596.79 -0.995753 -1.75867 0
M  V30 26513 C 2597.11 0.47451 -1.89139 0
M  V30 26514 O 2596.38 1.34363 -1.4256 0
M  V30 26515 H 2594.96 -0.365446 -0.651504 0
M  V30 26516 H 2597.62 -1.50365 -1.24001 0
M  V30 26517 H 2596.72 -1.44452 -2.76659 0
M  V30 26518 N 2597.02 1.21924 -0.998617 0
M  V30 26519 C 2597.93 2.2775 -0.562776 0
M  V30 26520 C 2598.95 1.69546 0.391173 0
M  V30 26521 O 2600.12 1.99759 0.256589 0
M  V30 26522 C 2597.19 3.46525 0.110059 0
M  V30 26523 C 2596.25 4.20025 -0.887569 0
M  V30 26524 C 2595.48 5.33129 -0.246748 0
M  V30 26525 O 2595.71 5.62298 0.957989 0
M  V30 26526 O 2594.64 5.94284 -0.954479 0
M  V30 26527 H 2598.47 2.6721 -1.44334 0
M  V30 26528 H 2596.05 1.28199 -0.767158 0
M  V30 26529 H 2597.93 4.1858 0.486682 0
M  V30 26530 H 2596.61 3.08978 0.9651 0
M  V30 26531 H 2595.51 3.50218 -1.31523 0
M  V30 26532 H 2596.85 4.61467 -1.71199 0
M  V30 26533 N 2598.5 0.772537 1.37367 0
M  V30 26534 C 2599.91 0.402525 1.82309 0
M  V30 26535 C 2600.26 -1.07144 1.64362 0
M  V30 26536 O 2599.39 -1.82988 1.15517 0
M  V30 26537 C 2599.98 0.723835 3.30977 0
M  V30 26538 C 2598.54 0.406868 3.74195 0
M  V30 26539 C 2597.69 0.967264 2.59883 0
M  V30 26540 H 2600.64 0.967121 1.25827 0
M  V30 26541 H 2600.66 0.0087752 3.80499 0
M  V30 26542 H 2600.17 1.79666 3.44008 0
M  V30 26543 H 2598.27 -0.658608 3.66733 0
M  V30 26544 H 2598.39 0.915671 4.70268 0
M  V30 26545 H 2596.75 0.39146 2.51674 0
M  V30 26546 H 2597.53 2.04551 2.75706 0
M  V30 26547 N 2599.98 -1.48664 0.523142 0
M  V30 26548 C 2600.91 -2.27479 -0.280381 0
M  V30 26549 C 2601.92 -1.34947 -0.91067 0
M  V30 26550 O 2603.11 -1.60053 -0.790267 0
M  V30 26551 C 2600.21 -3.081 -1.41166 0
M  V30 26552 C 2599.38 -4.28362 -0.884567 0
M  V30 26553 C 2598.44 -4.90849 -1.89613 0
M  V30 26554 O 2597.47 -5.50268 -1.45581 0
M  V30 26555 N 2598.67 -4.82478 -3.22793 0
M  V30 26556 H 2601.44 -2.97078 0.395533 0
M  V30 26557 H 2599 -1.57914 0.357046 0
M  V30 26558 H 2600.99 -3.46774 -2.08639 0
M  V30 26559 H 2599.56 -2.40965 -1.99135 0
M  V30 26560 H 2598.78 -3.94185 -0.0340484 0
M  V30 26561 H 2600.07 -5.06226 -0.511179 0
M  V30 26562 H 2599.47 -4.35343 -3.61239 0
M  V30 26563 H 2598.02 -5.25272 -3.85918 0
M  V30 26564 N 2601.46 -0.257958 -1.55475 0
M  V30 26565 C 2602.68 0.370453 -2.04065 0
M  V30 26566 C 2603.11 1.49946 -1.13568 0
M  V30 26567 O 2602.46 1.80827 -0.130812 0
M  V30 26568 C 2602.51 0.845176 -3.50555 0
M  V30 26569 O 2601.62 1.95388 -3.63177 0
M  V30 26570 H 2600.96 0.0792128 -0.659258 0
M  V30 26571 H 2603.49 -0.387247 -2.00902 0
M  V30 26572 H 2603.5 1.14548 -3.9159 0
M  V30 26573 H 2602.17 0.0190528 -4.15896 0
M  V30 26574 H 2600.75 1.65742 -3.34042 0
M  V30 26575 N 2602.93 1.57593 0.0150108 0
M  V30 26576 C 2603.88 2.07468 1.01122 0
M  V30 26577 C 2604.85 0.966818 1.35062 0
M  V30 26578 O 2606.04 1.2383 1.45158 0
M  V30 26579 C 2603.18 2.57039 2.30272 0
M  V30 26580 C 2602.29 3.8167 2.02366 0
M  V30 26581 C 2601.42 4.19799 3.25488 0
M  V30 26582 C 2600.46 5.37308 2.93201 0
M  V30 26583 N 2599.6 5.70801 4.08816 0
M  V30 26584 H 2604.44 2.92322 0.578958 0
M  V30 26585 H 2601.98 1.44521 0.274235 0
M  V30 26586 H 2603.94 2.83852 3.05752 0
M  V30 26587 H 2602.57 1.75081 2.71194 0
M  V30 26588 H 2601.62 3.61856 1.1732 0
M  V30 26589 H 2602.93 4.67259 1.74558 0
M  V30 26590 H 2602.08 4.47814 4.09326 0
M  V30 26591 H 2600.82 3.32889 3.56422 0
M  V30 26592 H 2599.83 5.09031 2.07768 0
M  V30 26593 H 2601.05 6.25882 2.63531 0
M  V30 26594 H 2599 4.8685 4.39674 0
M  V30 26595 H 2598.92 6.50931 3.8448 0
M  V30 26596 H 2600.18 6.03401 4.93485 0
M  V30 26597 N 2604.41 -0.287527 1.54955 0
M  V30 26598 C 2605.64 -1.04394 1.79211 0
M  V30 26599 C 2606.06 -1.79681 0.556463 0
M  V30 26600 O 2605.42 -1.74455 -0.493487 0
M  V30 26601 C 2605.47 -1.98963 3.00742 0
M  V30 26602 O 2604.57 -3.07495 2.7481 0
M  V30 26603 H 2603.91 -0.299217 0.592761 0
M  V30 26604 H 2606.44 -0.320851 2.02069 0
M  V30 26605 H 2606.45 -2.41184 3.29081 0
M  V30 26606 H 2605.13 -1.43575 3.90332 0
M  V30 26607 H 2603.71 -2.69693 2.57527 0
M  V30 26608 N 2605.89 -1.47641 -0.551365 0
M  V30 26609 C 2607.3 -1.48356 -1.13346 0
M  V30 26610 C 2607.65 -0.241466 -1.94708 0
M  V30 26611 O 2606.78 0.653169 -2.06307 0
M  V30 26612 C 2607.37 -2.68806 -2.06225 0
M  V30 26613 C 2605.93 -2.72462 -2.59695 0
M  V30 26614 C 2605.08 -2.41549 -1.36197 0
M  V30 26615 H 2608.03 -1.55066 -0.337671 0
M  V30 26616 H 2608.05 -2.46108 -2.90191 0
M  V30 26617 H 2607.56 -3.59191 -1.46981 0
M  V30 26618 H 2605.66 -1.86231 -3.22721 0
M  V30 26619 H 2605.78 -3.73313 -3.0029 0
M  V30 26620 H 2604.14 -1.92253 -1.67065 0
M  V30 26621 H 2604.92 -3.34149 -0.787366 0
M  V30 26622 N 2607.37 0.798563 -1.3587 0
M  V30 26623 C 2608.3 1.91913 -1.25308 0
M  V30 26624 C 2609.31 1.61861 -0.174577 0
M  V30 26625 O 2610.5 1.7328 -0.428529 0
M  V30 26626 C 2607.6 3.26491 -0.908657 0
M  V30 26627 C 2606.78 3.8439 -2.08718 0
M  V30 26628 C 2605.83 4.9739 -1.71726 0
M  V30 26629 O 2604.86 5.14391 -2.43701 0
M  V30 26630 N 2606.06 5.76899 -0.645574 0
M  V30 26631 H 2608.83 2.01498 -2.21853 0
M  V30 26632 H 2606.39 0.976385 -1.29145 0
M  V30 26633 H 2608.38 3.99567 -0.642525 0
M  V30 26634 H 2606.95 3.12583 -0.0326365 0
M  V30 26635 H 2606.17 3.03412 -2.51664 0
M  V30 26636 H 2607.46 4.19804 -2.87475 0
M  V30 26637 H 2606.86 5.6568 -0.0477474 0
M  V30 26638 H 2605.41 6.50318 -0.439244 0
M  V30 26639 N 2608.85 1.19999 1.02166 0
M  V30 26640 C 2609.76 0.959811 2.14067 0
M  V30 26641 C 2610.77 -0.0826244 1.73804 0
M  V30 26642 O 2611.95 0.103669 2.01133 0
M  V30 26643 C 2609.01 0.509519 3.42936 0
M  V30 26644 C 2608.07 1.6222 3.97471 0
M  V30 26645 C 2607.31 1.1933 5.20188 0
M  V30 26646 O 2607.53 0.0598729 5.70369 0
M  V30 26647 O 2606.46 1.99873 5.67745 0
M  V30 26648 H 2610.29 1.89662 2.37196 0
M  V30 26649 H 2607.88 0.983431 1.12468 0
M  V30 26650 H 2609.76 0.267396 4.20551 0
M  V30 26651 H 2608.43 -0.398764 3.21234 0
M  V30 26652 H 2607.34 1.91856 3.21158 0
M  V30 26653 H 2608.67 2.50731 4.2355 0
M  V30 26654 N 2610.32 -1.21392 1.00507 0
M  V30 26655 C 2611.55 -1.94999 0.706401 0
M  V30 26656 C 2611.97 -1.73583 -0.7246 0
M  V30 26657 O 2611.33 -1.02272 -1.497 0
M  V30 26658 C 2611.38 -3.45486 1.03306 0
M  V30 26659 O 2610.48 -4.12168 0.138347 0
M  V30 26660 H 2609.83 -0.609614 0.263186 0
M  V30 26661 H 2612.36 -1.54149 1.34533 0
M  V30 26662 H 2612.37 -3.96057 0.979942 0
M  V30 26663 H 2611.04 -3.60397 2.07573 0
M  V30 26664 H 2609.62 -3.72074 0.247994 0
M  V30 26665 N 2611.8 -0.779811 -1.36955 0
M  V30 26666 C 2613.22 -0.460369 -1.52816 0
M  V30 26667 C 2613.42 1.0228 -1.73612 0
M  V30 26668 O 2612.47 1.80849 -1.7621 0
M  V30 26669 C 2613.79 -1.28246 -2.71981 0
M  V30 26670 C 2615.34 -1.27517 -2.85847 0
M  V30 26671 C 2615.81 -2.08079 -4.08004 0
M  V30 26672 N 2617.3 -2.05475 -4.15132 0
M  V30 26673 C 2618.04 -2.64586 -5.08706 0
M  V30 26674 N 2617.53 -3.32517 -6.07787 0
M  V30 26675 N 2619.33 -2.54372 -5.0125 0
M  V30 26676 H 2611.48 -1.74071 -1.2171 0
M  V30 26677 H 2613.74 -0.739407 -0.593281 0
M  V30 26678 H 2613.45 -2.33385 -2.63105 0
M  V30 26679 H 2613.32 -0.917153 -3.6588 0
M  V30 26680 H 2615.71 -0.231738 -2.94189 0
M  V30 26681 H 2615.79 -1.68018 -1.92883 0
M  V30 26682 H 2615.43 -3.12448 -4.00423 0
M  V30 26683 H 2615.36 -1.64956 -5.00097 0
M  V30 26684 H 2617.85 -1.56026 -3.44187 0
M  V30 26685 H 2618.17 -3.74974 -6.75732 0
M  V30 26686 H 2616.51 -3.36617 -6.08041 0
M  V30 26687 H 2619.7 -2.0091 -4.22792 0
M  V30 26688 H 2619.87 -3.00732 -5.7399 0
M  V30 26689 N 2613.28 1.48384 -0.531019 0
M  V30 26690 C 2614.7 1.58478 -0.188946 0
M  V30 26691 C 2614.9 1.5329 1.30783 0
M  V30 26692 O 2613.95 1.42252 2.08616 0
M  V30 26693 C 2615.27 2.90072 -0.792394 0
M  V30 26694 C 2616.81 3.03602 -0.761223 0
M  V30 26695 C 2617.29 4.37859 -1.34327 0
M  V30 26696 N 2618.78 4.44428 -1.30528 0
M  V30 26697 C 2619.51 5.46821 -1.72552 0
M  V30 26698 N 2619.01 6.56163 -2.2231 0
M  V30 26699 N 2620.8 5.3771 -1.63783 0
M  V30 26700 H 2612.95 1.49999 -1.5038 0
M  V30 26701 H 2615.22 0.712295 -0.625571 0
M  V30 26702 H 2614.92 2.99526 -1.84328 0
M  V30 26703 H 2614.8 3.76232 -0.270092 0
M  V30 26704 H 2617.18 2.9376 0.280905 0
M  V30 26705 H 2617.27 2.19051 -1.321 0
M  V30 26706 H 2616.91 4.48455 -2.38433 0
M  V30 26707 H 2616.84 5.21099 -0.759156 0
M  V30 26708 H 2619.33 3.65996 -0.941038 0
M  V30 26709 H 2619.64 7.30431 -2.52369 0
M  V30 26710 H 2617.99 6.57123 -2.26305 0
M  V30 26711 H 2621.18 4.51183 -1.24706 0
M  V30 26712 H 2621.35 6.17375 -1.96854 0
M  V30 26713 N 2614.76 0.2662 1.55336 0
M  V30 26714 C 2615.69 -0.618941 2.25147 0
M  V30 26715 C 2616.67 -1.16602 1.23847 0
M  V30 26716 O 2617.85 -1.20181 1.52546 0
M  V30 26717 C 2614.98 -1.80723 2.96575 0
M  V30 26718 C 2613.94 -1.39208 4.04729 0
M  V30 26719 C 2613.26 -2.66275 4.63683 0
M  V30 26720 C 2614.56 -0.548851 5.19408 0
M  V30 26721 H 2616.26 -0.036759 2.99377 0
M  V30 26722 H 2613.8 -0.0162398 1.43991 0
M  V30 26723 H 2615.76 -2.43226 3.44121 0
M  V30 26724 H 2614.48 -2.4151 2.19865 0
M  V30 26725 H 2613.14 -0.790288 3.5798 0
M  V30 26726 H 2612.79 -3.25301 3.83651 0
M  V30 26727 H 2612.49 -2.39213 5.36704 0
M  V30 26728 H 2614.01 -3.29642 5.13973 0
M  V30 26729 H 2615.43 -1.07866 5.63061 0
M  V30 26730 H 2613.82 -0.373488 5.98937 0
M  V30 26731 H 2614.89 0.434479 4.8295 0
M  V30 26732 N 2616.24 -1.57599 -0.0066531 0
M  V30 26733 C 2617.46 -1.94952 -0.707704 0
M  V30 26734 C 2617.89 -0.867897 -1.66881 0
M  V30 26735 O 2617.24 0.174548 -1.80458 0
M  V30 26736 C 2617.29 -3.31397 -1.42157 0
M  V30 26737 O 2616.4 -3.2523 -2.53573 0
M  V30 26738 H 2615.74 -0.636611 -0.18874 0
M  V30 26739 H 2618.27 -2.04551 0.0445552 0
M  V30 26740 H 2618.28 -3.66809 -1.78649 0
M  V30 26741 H 2616.95 -4.09676 -0.716831 0
M  V30 26742 H 2615.53 -3.01484 -2.19457 0
M  V30 26743 N 2617.72 0.279305 -1.55105 0
M  V30 26744 C 2618.96 1.00949 -1.7462 0
M  V30 26745 C 2619.28 1.87675 -0.551129 0
M  V30 26746 O 2620.48 2.64124 -0.628554 0
M  V30 26747 C 2618.94 1.84471 -3.09028 0
M  V30 26748 C 2618.55 1.02642 -4.36083 0
M  V30 26749 C 2620.29 2.56957 -3.37895 0
M  V30 26750 C 2618.2 1.85566 -5.61533 0
M  V30 26751 H 2617.13 0.380629 -0.650875 0
M  V30 26752 H 2619.78 0.265444 -1.8157 0
M  V30 26753 H 2618.16 2.62947 -2.961 0
M  V30 26754 H 2619.34 0.286273 -4.5991 0
M  V30 26755 H 2617.65 0.416391 -4.14313 0
M  V30 26756 H 2620.25 3.19391 -4.28828 0
M  V30 26757 H 2620.59 3.26916 -2.57743 0
M  V30 26758 H 2621.12 1.85516 -3.51893 0
M  V30 26759 H 2617.86 1.20039 -6.44415 0
M  V30 26760 H 2617.38 2.57195 -5.41859 0
M  V30 26761 H 2619.06 2.43086 -5.99598 0
M  V30 26762 N 2619.19 1.47931 0.543528 0
M  V30 26763 C 2620.13 1.57516 1.66497 0
M  V30 26764 C 2621.14 0.46036 1.56155 0
M  V30 26765 O 2622.33 0.730602 1.62863 0
M  V30 26766 C 2619.43 1.4762 3.0506 0
M  V30 26767 C 2618.6 2.73906 3.4102 0
M  V30 26768 C 2617.66 2.57653 4.58804 0
M  V30 26769 O 2616.69 3.31506 4.62701 0
M  V30 26770 N 2617.89 1.66378 5.56146 0
M  V30 26771 H 2620.65 2.54223 1.58716 0
M  V30 26772 H 2618.21 1.44483 0.730492 0
M  V30 26773 H 2620.21 1.34461 3.8171 0
M  V30 26774 H 2618.78 0.589413 3.06993 0
M  V30 26775 H 2618 3.01727 2.53682 0
M  V30 26776 H 2619.28 3.57716 3.61825 0
M  V30 26777 H 2618.68 1.05553 5.55765 0
M  V30 26778 H 2617.24 1.59165 6.32068 0
M  V30 26779 N 2620.67 -0.791347 1.36292 0
M  V30 26780 C 2622.09 -1.08912 1.16663 0
M  V30 26781 C 2622.29 -2.01497 -0.0105912 0
M  V30 26782 O 2621.34 -2.43267 -0.676553 0
M  V30 26783 C 2622.66 -1.70545 2.47659 0
M  V30 26784 C 2624.2 -1.82895 2.54005 0
M  V30 26785 C 2624.68 -2.47942 3.85083 0
M  V30 26786 N 2626.17 -2.55413 3.86418 0
M  V30 26787 C 2626.91 -3.06548 4.84578 0
M  V30 26788 N 2626.4 -3.58006 5.93131 0
M  V30 26789 N 2628.19 -3.05242 4.71999 0
M  V30 26790 H 2620.35 -0.176201 2.11668 0
M  V30 26791 H 2622.61 -0.140779 0.937489 0
M  V30 26792 H 2622.31 -1.09983 3.34061 0
M  V30 26793 H 2622.19 -2.70074 2.63324 0
M  V30 26794 H 2624.58 -2.42595 1.68022 0
M  V30 26795 H 2624.66 -0.821766 2.42241 0
M  V30 26796 H 2624.3 -1.88887 4.7147 0
M  V30 26797 H 2624.23 -3.49228 3.94141 0
M  V30 26798 H 2626.72 -2.18974 3.07992 0
M  V30 26799 H 2627.03 -3.95369 6.64005 0
M  V30 26800 H 2625.38 -3.56163 5.96802 0
M  V30 26801 H 2628.57 -2.64329 3.86326 0
M  V30 26802 H 2628.74 -3.44786 5.48659 0
M  V30 26803 N 2622.15 -1.2054 -1.01528 0
M  V30 26804 C 2623.39 -1.02766 -1.76688 0
M  V30 26805 C 2623.75 0.43248 -1.87066 0
M  V30 26806 O 2624.95 0.730435 -2.58685 0
M  V30 26807 C 2623.23 -1.69399 -3.14704 0
M  V30 26808 S 2624.78 -1.66746 -4.05883 0
M  V30 26809 H 2621.6 -0.368474 -0.608069 0
M  V30 26810 H 2624.2 -1.53116 -1.21555 0
M  V30 26811 H 2622.91 -2.74843 -3.04777 0
M  V30 26812 H 2622.44 -1.19186 -3.74911 0
M  V30 26813 H 2624.45 -0.701257 -4.9122 0
M  V30 26814 N 2623.63 1.20858 -1.01149 0
M  V30 26815 C 2624.88 1.89412 -0.693247 0
M  V30 26816 C 2625.19 1.79378 0.779937 0
M  V30 26817 O 2626.4 2.43019 1.21053 0
M  V30 26818 C 2624.85 3.39673 -1.18955 0
M  V30 26819 C 2624.46 3.58304 -2.68927 0
M  V30 26820 C 2626.2 4.13814 -0.946492 0
M  V30 26821 C 2624.11 5.02364 -3.12065 0
M  V30 26822 H 2623.04 0.709352 -0.255608 0
M  V30 26823 H 2625.69 1.36757 -1.22351 0
M  V30 26824 H 2624.07 3.91621 -0.587297 0
M  V30 26825 H 2625.25 3.16766 -3.34658 0
M  V30 26826 H 2623.56 2.97527 -2.91319 0
M  V30 26827 H 2626.16 5.20021 -1.24426 0
M  V30 26828 H 2626.5 4.16135 0.117146 0
M  V30 26829 H 2627.04 3.67951 -1.51186 0
M  V30 26830 H 2623.77 5.05194 -4.17683 0
M  V30 26831 H 2623.29 5.44733 -2.51051 0
M  V30 26832 H 2624.97 5.70913 -3.04413 0
M  V30 26833 N 2625.11 0.787064 1.3654 0
M  V30 26834 C 2626.04 0.141813 2.28761 0
M  V30 26835 C 2627.05 -0.647573 1.49366 0
M  V30 26836 O 2628.24 -0.483143 1.71837 0
M  V30 26837 C 2625.34 -0.82231 3.28772 0
M  V30 26838 C 2624.51 -0.0834825 4.3732 0
M  V30 26839 C 2623.57 -0.963205 5.17309 0
M  V30 26840 O 2622.6 -0.421319 5.67639 0
M  V30 26841 N 2623.8 -2.28774 5.33519 0
M  V30 26842 H 2626.56 0.933969 2.84776 0
M  V30 26843 H 2624.13 0.640761 1.4868 0
M  V30 26844 H 2626.12 -1.41462 3.79171 0
M  V30 26845 H 2624.69 -1.51536 2.73415 0
M  V30 26846 H 2623.91 0.689877 3.88116 0
M  V30 26847 H 2625.2 0.426447 5.0701 0
M  V30 26848 H 2624.59 -2.75217 4.94239 0
M  V30 26849 H 2623.15 -2.82975 5.8717 0
M  V30 26850 N 2626.58 -1.48101 0.53888 0
M  V30 26851 C 2627.81 -2.07397 0.0103059 0
M  V30 26852 C 2628.23 -1.39155 -1.2656 0
M  V30 26853 O 2627.59 -0.460417 -1.75356 0
M  V30 26854 C 2627.64 -3.60112 -0.187539 0
M  V30 26855 O 2626.74 -3.92864 -1.25426 0
M  V30 26856 H 2626.08 -0.662599 0.0431091 0
M  V30 26857 H 2628.61 -1.90384 0.749335 0
M  V30 26858 H 2628.62 -4.0596 -0.407446 0
M  V30 26859 H 2627.3 -4.09183 0.744458 0
M  V30 26860 H 2625.88 -3.58784 -1.0163 0
M  V30 26861 N 2628.06 -0.274434 -1.55192 0
M  V30 26862 C 2628.99 0.606993 -2.25473 0
M  V30 26863 C 2629.97 1.15944 -1.24463 0
M  V30 26864 O 2631.16 1.1937 -1.53181 0
M  V30 26865 C 2628.29 1.79147 -2.97529 0
M  V30 26866 C 2627.24 1.37059 -4.05461 0
M  V30 26867 C 2626.57 2.63812 -4.65089 0
M  V30 26868 C 2627.87 0.521298 -5.19692 0
M  V30 26869 H 2629.56 0.0208817 -2.99393 0
M  V30 26870 H 2627.11 0.00860334 -1.43997 0
M  V30 26871 H 2629.06 2.41398 -3.45406 0
M  V30 26872 H 2627.78 2.4034 -2.21143 0
M  V30 26873 H 2626.44 0.771292 -3.58395 0
M  V30 26874 H 2626.09 3.23262 -3.85371 0
M  V30 26875 H 2625.79 2.36363 -5.37965 0
M  V30 26876 H 2627.32 3.26912 -5.15714 0
M  V30 26877 H 2628.73 1.04879 -5.63625 0
M  V30 26878 H 2627.13 0.34172 -5.99126 0
M  V30 26879 H 2628.2 -0.460085 -4.82712 0
M  V30 26880 N 2629.54 1.576 -0.00170483 0
M  V30 26881 C 2630.79 1.90924 0.683798 0
M  V30 26882 C 2631.12 0.875829 1.73329 0
M  V30 26883 O 2630.39 -0.105216 1.94215 0
M  V30 26884 C 2630.68 3.34822 1.32537 0
M  V30 26885 C 2630.53 4.48881 0.287309 0
M  V30 26886 C 2631.85 3.78173 2.25107 0
M  V30 26887 H 2628.97 0.694337 0.247112 0
M  V30 26888 H 2631.61 1.89925 -0.0533483 0
M  V30 26889 H 2629.76 3.35804 1.95366 0
M  V30 26890 H 2631.43 4.60035 -0.341427 0
M  V30 26891 H 2629.67 4.32041 -0.390246 0
M  V30 26892 H 2630.35 5.46528 0.775297 0
M  V30 26893 H 2632.82 3.78753 1.72294 0
M  V30 26894 H 2631.7 4.79606 2.66963 0
M  V30 26895 H 2631.96 3.12136 3.13087 0
M  V30 26896 N 2631.02 -0.271076 1.55251 0
M  V30 26897 C 2631.97 -1.33746 1.84651 0
M  V30 26898 C 2632.95 -1.44605 0.705554 0
M  V30 26899 O 2634.14 -1.48254 0.966942 0
M  V30 26900 C 2631.27 -2.69738 2.12359 0
M  V30 26901 C 2630.36 -2.62982 3.32718 0
M  V30 26902 N 2630.75 -2.25845 4.52579 0
M  V30 26903 C 2629.05 -2.94039 3.35346 0
M  V30 26904 C 2629.75 -2.29127 5.34674 0
M  V30 26905 N 2628.72 -2.67677 4.73128 0
M  V30 26906 H 2632.53 -1.04045 2.74867 0
M  V30 26907 H 2630.04 -0.479711 1.55153 0
M  V30 26908 H 2632.04 -3.46666 2.31578 0
M  V30 26909 H 2630.7 -3.00326 1.23427 0
M  V30 26910 H 2631.71 -1.97791 4.78643 0
M  V30 26911 H 2628.39 -3.29326 2.56614 0
M  V30 26912 H 2629.78 -2.0296 6.40513 0
M  V30 26913 N 2632.5 -1.48217 -0.535675 0
M  V30 26914 C 2633.46 -1.61841 -1.62297 0
M  V30 26915 C 2634.46 -0.492051 -1.53087 0
M  V30 26916 O 2635.65 -0.757695 -1.56859 0
M  V30 26917 C 2632.78 -1.58324 -3.01904 0
M  V30 26918 H 2633.97 -2.58785 -1.51559 0
M  V30 26919 H 2631.53 -1.36729 -0.757293 0
M  V30 26920 H 2632.26 -0.628355 -3.18154 0
M  V30 26921 H 2632.05 -2.4009 -3.09998 0
M  V30 26922 H 2633.54 -1.7104 -3.80966 0
M  V30 26923 N 2633.97 0.784108 -1.3671 0
M  V30 26924 C 2635.21 1.55535 -1.32621 0
M  V30 26925 C 2635.58 1.91779 0.0920344 0
M  V30 26926 O 2636.78 2.67564 0.257526 0
M  V30 26927 C 2635.05 2.7946 -2.22793 0
M  V30 26928 S 2636.61 3.69652 -2.36438 0
M  V30 26929 H 2633.43 0.532632 -0.470982 0
M  V30 26930 H 2636.03 0.92309 -1.72335 0
M  V30 26931 H 2634.73 2.50893 -3.24778 0
M  V30 26932 H 2634.26 3.47655 -1.84118 0
M  V30 26933 H 2636.28 4.70847 -1.56581 0
M  V30 26934 N 2635.45 1.21076 1.00888 0
M  V30 26935 C 2636.38 0.924328 2.09735 0
M  V30 26936 C 2637.4 -0.0909523 1.62546 0
M  V30 26937 O 2638.59 0.141052 1.77942 0
M  V30 26938 C 2635.69 0.365649 3.36922 0
M  V30 26939 C 2634.86 1.43433 4.13214 0
M  V30 26940 C 2633.92 0.885587 5.18694 0
M  V30 26941 O 2632.94 1.56811 5.47174 0
M  V30 26942 N 2634.15 -0.301125 5.79718 0
M  V30 26943 H 2636.91 1.86134 2.34892 0
M  V30 26944 H 2634.47 1.11549 1.17339 0
M  V30 26945 H 2636.46 -0.0157696 4.04697 0
M  V30 26946 H 2635.03 -0.476095 3.08953 0
M  V30 26947 H 2634.25 1.98976 3.40297 0
M  V30 26948 H 2635.54 2.15384 4.60963 0
M  V30 26949 H 2634.94 -0.87275 5.58927 0
M  V30 26950 H 2633.5 -0.624097 6.48805 0
M  V30 26951 N 2636.93 -1.2032 1.01789 0
M  V30 26952 C 2638.17 -1.91429 0.716527 0
M  V30 26953 C 2638.53 -1.77153 -0.740321 0
M  V30 26954 O 2639.74 -2.42756 -1.15426 0
M  V30 26955 C 2638.01 -3.38672 1.14175 0
M  V30 26956 S 2639.57 -4.28112 0.962557 0
M  V30 26957 H 2636.38 -0.661288 0.261187 0
M  V30 26958 H 2638.99 -1.4553 1.30542 0
M  V30 26959 H 2637.69 -3.46584 2.1979 0
M  V30 26960 H 2637.22 -3.89597 0.545689 0
M  V30 26961 H 2639.24 -4.96021 -0.133166 0
M  V30 26962 N 2638.41 -0.794293 -1.3612 0
M  V30 26963 C 2639.82 -0.476551 -1.52319 0
M  V30 26964 C 2640.02 1.00433 -1.74687 0
M  V30 26965 O 2639.08 1.7897 -1.78118 0
M  V30 26966 C 2640.39 -1.31123 -2.70605 0
M  V30 26967 C 2641.94 -1.30542 -2.84478 0
M  V30 26968 C 2642.42 -2.12395 -4.05774 0
M  V30 26969 N 2643.91 -2.09866 -4.12929 0
M  V30 26970 C 2644.64 -2.69966 -5.05871 0
M  V30 26971 N 2644.14 -3.38944 -6.04226 0
M  V30 26972 N 2645.93 -2.59674 -4.98524 0
M  V30 26973 H 2638.08 -1.75352 -1.19856 0
M  V30 26974 H 2640.35 -0.745658 -0.585405 0
M  V30 26975 H 2640.05 -2.36163 -2.60615 0
M  V30 26976 H 2639.93 -0.955908 -3.64887 0
M  V30 26977 H 2642.31 -0.262927 -2.93926 0
M  V30 26978 H 2642.39 -1.70054 -1.9109 0
M  V30 26979 H 2642.04 -3.16677 -3.97087 0
M  V30 26980 H 2641.97 -1.7025 -4.9832 0
M  V30 26981 H 2644.46 -1.59668 -3.42512 0
M  V30 26982 H 2644.77 -3.8212 -6.71717 0
M  V30 26983 H 2643.12 -3.43047 -6.04437 0
M  V30 26984 H 2646.31 -2.05383 -4.20637 0
M  V30 26985 H 2646.48 -3.06803 -5.70768 0
M  V30 26986 N 2639.89 1.47813 -0.546727 0
M  V30 26987 C 2640.83 2.31557 0.220007 0
M  V30 26988 C 2641.83 1.42276 0.919447 0
M  V30 26989 O 2643.03 1.59096 0.841925 0
M  V30 26990 H 2639.41 0.746617 0.0898202 0
M  V30 26991 H 2641.38 2.94085 -0.505641 0
M  V30 26992 C 2640.13 3.24704 1.24348 0
M  V30 26993 H 2639.45 3.9336 0.714689 0
M  V30 26994 H 2640.89 3.86153 1.75105 0
M  V30 26995 C 2639.35 2.47485 2.28589 0
M  V30 26996 O 2639.88 2.21171 3.3533 0
M  V30 26997 N 2638.09 2.0868 2.0224 0
M  V30 26998 H 2637.63 2.3028 1.15451 0
M  V30 26999 H 2637.59 1.57328 2.72204 0
M  V30 27000 N 2641.36 0.28266 1.55044 0
M  V30 27001 C 2642.33 -0.588501 2.21516 0
M  V30 27002 C 2643.33 -1.07552 1.19537 0
M  V30 27003 O 2644.52 -0.974489 1.44393 0
M  V30 27004 C 2641.65 -1.81275 2.88708 0
M  V30 27005 H 2642.84 -0.00801126 2.99899 0
M  V30 27006 H 2640.4 0.0333342 1.56264 0
M  V30 27007 H 2641.13 -2.43356 2.14356 0
M  V30 27008 H 2640.92 -1.47137 3.63446 0
M  V30 27009 H 2642.41 -2.43208 3.3947 0
M  V30 27010 N 2642.84 -1.57597 0.0100627 0
M  V30 27011 C 2643.79 -2.10185 -0.996235 0
M  V30 27012 C 2644.78 -1.02408 -1.3494 0
M  V30 27013 O 2645.99 -1.20863 -1.33387 0
M  V30 27014 H 2642.37 -0.67127 -0.33897 0
M  V30 27015 H 2644.34 -2.93706 -0.527221 0
M  V30 27016 C 2643.09 -2.62861 -2.27594 0
M  V30 27017 H 2642.41 -3.45431 -2.01289 0
M  V30 27018 H 2643.85 -3.03325 -2.9626 0
M  V30 27019 C 2642.31 -1.5473 -2.99266 0
M  V30 27020 O 2642.84 -0.936039 -3.90642 0
M  V30 27021 N 2641.04 -1.27233 -2.61266 0
M  V30 27022 H 2640.59 -1.77126 -1.8704 0
M  V30 27023 H 2640.55 -0.551053 -3.09533 0
M  V30 27024 N 2644.32 0.262839 -1.55393 0
M  V30 27025 C 2645.56 1.00061 -1.78233 0
M  V30 27026 C 2645.92 1.83125 -0.576998 0
M  V30 27027 O 2647.13 2.59956 -0.683854 0
M  V30 27028 C 2645.4 1.85148 -3.05704 0
M  V30 27029 S 2646.96 2.65052 -3.49704 0
M  V30 27030 H 2643.77 0.336845 -0.626144 0
M  V30 27031 H 2646.38 0.270016 -1.93626 0
M  V30 27032 H 2645.08 1.23068 -3.91513 0
M  V30 27033 H 2644.61 2.6251 -2.93005 0
M  V30 27034 H 2646.63 3.87623 -3.09779 0
M  V30 27035 N 2645.8 1.48499 0.527807 0
M  V30 27036 C 2647.02 1.60549 1.31297 0
M  V30 27037 C 2647.45 0.266753 1.86199 0
M  V30 27038 O 2646.81 -0.761889 1.64514 0
M  V30 27039 C 2646.85 2.65682 2.43814 0
M  V30 27040 O 2645.96 2.22993 3.46912 0
M  V30 27041 H 2645.3 0.538284 0.388775 0
M  V30 27042 H 2647.83 1.94501 0.634862 0
M  V30 27043 H 2647.84 2.87023 2.89968 0
M  V30 27044 H 2646.51 3.62872 2.03215 0
M  V30 27045 H 2645.09 2.11875 3.06861 0
M  V30 27046 N 2647.28 -0.776847 1.37123 0
M  V30 27047 C 2648.21 -1.90399 1.35168 0
M  V30 27048 C 2649.19 -1.68657 0.221099 0
M  V30 27049 O 2650.37 -1.89589 0.420675 0
M  V30 27050 C 2647.5 -3.27609 1.1528 0
M  V30 27051 C 2646.46 -3.63904 2.25295 0
M  V30 27052 C 2645.78 -4.996 1.90536 0
M  V30 27053 C 2647.08 -3.71181 3.67453 0
M  V30 27054 H 2648.78 -1.92293 2.29486 0
M  V30 27055 H 2646.32 -0.923753 1.10466 0
M  V30 27056 H 2648.28 -4.06094 1.12543 0
M  V30 27057 H 2647 -3.26135 0.17416 0
M  V30 27058 H 2645.66 -2.87724 2.27179 0
M  V30 27059 H 2645.31 -4.9466 0.912147 0
M  V30 27060 H 2645.01 -5.24853 2.64202 0
M  V30 27061 H 2646.53 -5.8049 1.89377 0
M  V30 27062 H 2647.95 -4.39829 3.67727 0
M  V30 27063 H 2646.34 -4.07929 4.4013 0
M  V30 27064 H 2647.41 -2.7197 4.01448 0
M  V30 27065 N 2648.76 -1.2161 -1.00244 0
M  V30 27066 C 2650.17 -1.03314 -1.55509 0
M  V30 27067 C 2650.52 0.406299 -1.91947 0
M  V30 27068 O 2649.64 1.28989 -1.73755 0
M  V30 27069 C 2650.24 -1.86918 -2.82573 0
M  V30 27070 C 2648.8 -1.72947 -3.34315 0
M  V30 27071 C 2647.94 -1.83972 -2.07484 0
M  V30 27072 H 2650.89 -1.35594 -0.824615 0
M  V30 27073 H 2650.92 -1.38094 -3.54557 0
M  V30 27074 H 2650.43 -2.91676 -2.56021 0
M  V30 27075 H 2648.53 -0.708834 -3.65795 0
M  V30 27076 H 2648.64 -2.55062 -4.05562 0
M  V30 27077 H 2647.01 -1.27308 -2.20601 0
M  V30 27078 H 2647.79 -2.90243 -1.83341 0
M  V30 27079 N 2650.23 1.19778 -1.02425 0
M  V30 27080 C 2651.46 1.93851 -0.737334 0
M  V30 27081 C 2651.88 1.74714 0.696893 0
M  V30 27082 O 2651.24 1.04641 1.48054 0
M  V30 27083 C 2651.29 3.43798 -1.08789 0
M  V30 27084 O 2650.39 4.11896 -0.203902 0
M  V30 27085 H 2649.73 0.60535 -0.272851 0
M  V30 27086 H 2652.26 1.51989 -1.36969 0
M  V30 27087 H 2652.27 3.94448 -1.04283 0
M  V30 27088 H 2650.95 3.57049 -2.13281 0
M  V30 27089 H 2649.53 3.71633 -0.307156 0
M  V30 27090 N 2651.71 0.801501 1.35697 0
M  V30 27091 C 2652.95 0.385063 2.0074 0
M  V30 27092 C 2653.32 -1.02716 1.62214 0
M  V30 27093 O 2654.52 -1.54533 2.19939 0
M  V30 27094 C 2652.79 0.557119 3.53031 0
M  V30 27095 S 2654.35 0.230349 4.38195 0
M  V30 27096 H 2651.16 0.14649 0.695746 0
M  V30 27097 H 2653.77 1.04264 1.65376 0
M  V30 27098 H 2652.47 1.58501 3.78557 0
M  V30 27099 H 2652 -0.11596 3.93229 0
M  V30 27100 H 2654.02 -0.963809 4.8675 0
M  V30 27101 N 2653.19 -1.47521 0.554558 0
M  V30 27102 C 2654.12 -2.28022 -0.232066 0
M  V30 27103 C 2655.13 -1.36848 -0.881841 0
M  V30 27104 O 2656.32 -1.61693 -0.75614 0
M  V30 27105 C 2653.42 -3.11025 -1.34599 0
M  V30 27106 C 2652.6 -4.30142 -0.793506 0
M  V30 27107 C 2651.66 -4.94761 -1.79159 0
M  V30 27108 O 2650.68 -5.53232 -1.33876 0
M  V30 27109 N 2651.88 -4.89216 -3.12486 0
M  V30 27110 H 2654.65 -2.96173 0.458459 0
M  V30 27111 H 2652.21 -1.57121 0.390461 0
M  V30 27112 H 2654.2 -3.51121 -2.01236 0
M  V30 27113 H 2652.77 -2.45134 -1.93979 0
M  V30 27114 H 2651.99 -3.94169 0.0495718 0
M  V30 27115 H 2653.28 -5.07196 -0.403686 0
M  V30 27116 H 2652.68 -4.42907 -3.51923 0
M  V30 27117 H 2651.23 -5.3334 -3.74689 0
M  V30 27118 N 2654.67 -0.290879 -1.54892 0
M  V30 27119 C 2655.61 0.589701 -2.23139 0
M  V30 27120 C 2656.58 1.1375 -1.21038 0
M  V30 27121 O 2657.77 1.1839 -1.49628 0
M  V30 27122 C 2654.91 1.76055 -2.96814 0
M  V30 27123 C 2654.02 1.24511 -4.13668 0
M  V30 27124 C 2653.16 2.37902 -4.74948 0
M  V30 27125 C 2652.2 1.8344 -5.83966 0
M  V30 27126 N 2651.33 2.90365 -6.39244 0
M  V30 27127 H 2656.17 0.00109677 -2.98 0
M  V30 27128 H 2653.71 -0.0112265 -1.47096 0
M  V30 27129 H 2655.67 2.44903 -3.37755 0
M  V30 27130 H 2654.3 2.32094 -2.24348 0
M  V30 27131 H 2653.35 0.449221 -3.77738 0
M  V30 27132 H 2654.66 0.806338 -4.92239 0
M  V30 27133 H 2653.82 3.14715 -5.1869 0
M  V30 27134 H 2652.56 2.85102 -3.95687 0
M  V30 27135 H 2651.56 1.05113 -5.39659 0
M  V30 27136 H 2652.79 1.37157 -6.65105 0
M  V30 27137 H 2650.73 3.36918 -5.6287 0
M  V30 27138 H 2650.65 2.50953 -7.13133 0
M  V30 27139 H 2651.92 3.67106 -6.87643 0
M  V30 27140 N 2656.15 1.57589 -0.0184203 0
M  V30 27141 C 2657.08 2.05052 1.00144 0
M  V30 27142 C 2658.06 0.944081 1.32385 0
M  V30 27143 O 2659.24 1.21361 1.44235 0
M  V30 27144 C 2656.37 2.46361 2.32431 0
M  V30 27145 C 2655.41 3.6792 2.15725 0
M  V30 27146 S 2656.25 5.15041 1.46604 0
M  V30 27147 C 2657.4 5.59636 2.80283 0
M  V30 27148 H 2657.64 2.91236 0.597378 0
M  V30 27149 H 2655.17 1.53189 0.192975 0
M  V30 27150 H 2657.13 2.70827 3.08485 0
M  V30 27151 H 2655.79 1.60542 2.69972 0
M  V30 27152 H 2654.98 3.94635 3.13495 0
M  V30 27153 H 2654.58 3.43551 1.47814 0
M  V30 27154 H 2656.87 5.63222 3.76547 0
M  V30 27155 H 2657.82 6.59329 2.58245 0
M  V30 27156 H 2658.23 4.87251 2.85038 0
M  V30 27157 N 2657.62 -0.254594 1.5553 0
M  V30 27158 C 2658.57 -1.31508 1.89669 0
M  V30 27159 C 2659.54 -1.48199 0.750083 0
M  V30 27160 O 2660.73 -1.62308 1.00304 0
M  V30 27161 C 2657.87 -2.66696 2.19014 0
M  V30 27162 C 2656.98 -2.58077 3.46439 0
M  V30 27163 C 2656.11 -3.85566 3.65393 0
M  V30 27164 C 2655.15 -3.71533 4.86446 0
M  V30 27165 N 2654.29 -4.90897 5.01961 0
M  V30 27166 H 2659.13 -1.01695 2.80111 0
M  V30 27167 H 2656.67 -0.490914 1.38667 0
M  V30 27168 H 2658.62 -3.45377 2.34031 0
M  V30 27169 H 2657.25 -2.94674 1.31784 0
M  V30 27170 H 2656.31 -1.71007 3.39795 0
M  V30 27171 H 2657.62 -2.43614 4.35263 0
M  V30 27172 H 2656.77 -4.7269 3.80328 0
M  V30 27173 H 2655.51 -4.02918 2.74789 0
M  V30 27174 H 2654.52 -2.82792 4.71496 0
M  V30 27175 H 2655.74 -3.55683 5.78503 0
M  V30 27176 H 2653.69 -5.08624 4.14292 0
M  V30 27177 H 2653.6 -4.79035 5.8486 0
M  V30 27178 H 2654.87 -5.79541 5.21299 0
M  V30 27179 N 2659.1 -1.48777 -0.519925 0
M  V30 27180 C 2660.52 -1.3512 -0.849394 0
M  V30 27181 C 2660.72 -0.369855 -1.98077 0
M  V30 27182 O 2659.77 0.205315 -2.51664 0
M  V30 27183 C 2661.09 -2.75393 -1.20743 0
M  V30 27184 C 2662.63 -2.83956 -1.31674 0
M  V30 27185 C 2663.11 -4.24954 -1.70816 0
M  V30 27186 N 2664.6 -4.27675 -1.77901 0
M  V30 27187 C 2665.34 -5.33721 -2.09593 0
M  V30 27188 N 2664.83 -6.50034 -2.3964 0
M  V30 27189 N 2666.62 -5.21122 -2.10684 0
M  V30 27190 H 2658.78 -2.1119 0.226414 0
M  V30 27191 H 2661.04 -0.947211 0.0386686 0
M  V30 27192 H 2660.74 -3.48814 -0.449642 0
M  V30 27193 H 2660.62 -3.0956 -2.15528 0
M  V30 27194 H 2663.01 -2.10785 -2.06528 0
M  V30 27195 H 2663.09 -2.53396 -0.349855 0
M  V30 27196 H 2662.73 -4.98645 -0.965194 0
M  V30 27197 H 2662.66 -4.52964 -2.68572 0
M  V30 27198 H 2665.15 -3.43781 -1.56917 0
M  V30 27199 H 2665.46 -7.26687 -2.62957 0
M  V30 27200 H 2663.81 -6.53292 -2.37138 0
M  V30 27201 H 2667 -4.29267 -1.86674 0
M  V30 27202 H 2667.17 -6.03867 -2.35051 0
M  V30 27203 N 2660.58 0.769564 -1.37534 0
M  V30 27204 C 2661.83 1.53046 -1.33059 0
M  V30 27205 C 2662.16 1.94018 0.0841524 0
M  V30 27206 O 2661.43 1.64236 1.04195 0
M  V30 27207 C 2661.72 2.79402 -2.27171 0
M  V30 27208 C 2661.57 2.44671 -3.77434 0
M  V30 27209 C 2662.89 3.81346 -2.1969 0
M  V30 27210 H 2660.01 0.55522 -0.484665 0
M  V30 27211 H 2662.65 0.882673 -1.68252 0
M  V30 27212 H 2660.8 3.34678 -1.97288 0
M  V30 27213 H 2662.47 1.95293 -4.17922 0
M  V30 27214 H 2660.71 1.77339 -3.95896 0
M  V30 27215 H 2661.39 3.35004 -4.38721 0
M  V30 27216 H 2663.86 3.35569 -2.46034 0
M  V30 27217 H 2662.74 4.67476 -2.87676 0
M  V30 27218 H 2663 4.25769 -1.19052 0
M  V30 27219 N 2662.06 1.22139 0.995977 0
M  V30 27220 C 2663.3 1.04564 1.73765 0
M  V30 27221 C 2663.64 -0.418665 1.89633 0
M  V30 27222 O 2662.91 -1.31047 1.43725 0
M  V30 27223 C 2663.2 1.75387 3.14502 0
M  V30 27224 C 2663.05 3.29394 3.063 0
M  V30 27225 C 2664.37 1.50376 4.13612 0
M  V30 27226 H 2661.49 0.381261 0.630721 0
M  V30 27227 H 2664.13 1.50437 1.16054 0
M  V30 27228 H 2662.28 1.36389 3.63772 0
M  V30 27229 H 2663.95 3.77816 2.64674 0
M  V30 27230 H 2662.19 3.5923 2.4318 0
M  V30 27231 H 2662.86 3.74123 4.05877 0
M  V30 27232 H 2665.34 1.84246 3.73085 0
M  V30 27233 H 2664.22 2.0243 5.10209 0
M  V30 27234 H 2664.48 0.435688 4.39948 0
M  V30 27235 N 2663.54 -1.19233 1.03059 0
M  V30 27236 C 2664.47 -2.21974 0.570971 0
M  V30 27237 C 2665.48 -1.58903 -0.35406 0
M  V30 27238 O 2666.67 -1.77867 -0.15018 0
M  V30 27239 C 2663.77 -3.38383 -0.187092 0
M  V30 27240 C 2662.94 -4.31038 0.743307 0
M  V30 27241 C 2662 -5.26191 0.0303418 0
M  V30 27242 O 2661.03 -5.6539 0.657471 0
M  V30 27243 N 2662.23 -5.67106 -1.23981 0
M  V30 27244 H 2665 -2.62033 1.4546 0
M  V30 27245 H 2662.56 -1.33917 0.90983 0
M  V30 27246 H 2664.55 -3.99054 -0.673645 0
M  V30 27247 H 2663.12 -2.97099 -0.972153 0
M  V30 27248 H 2662.34 -3.68124 1.40992 0
M  V30 27249 H 2663.63 -4.89852 1.37559 0
M  V30 27250 H 2663.02 -5.37296 -1.77002 0
M  V30 27251 H 2661.58 -6.30021 -1.67082 0
M  V30 27252 N 2665.01 -0.808686 -1.3527 0
M  V30 27253 C 2665.96 -0.193164 -2.2718 0
M  V30 27254 C 2666.95 0.634239 -1.47872 0
M  V30 27255 O 2668.14 0.491152 -1.70049 0
M  V30 27256 C 2665.27 0.655692 -3.3698 0
M  V30 27257 C 2664.36 -0.181555 -4.23711 0
M  V30 27258 N 2664.75 -1.2456 -4.90223 0
M  V30 27259 C 2663.04 0.0364709 -4.45985 0
M  V30 27260 C 2663.75 -1.75692 -5.54533 0
M  V30 27261 N 2662.72 -1.06303 -5.33105 0
M  V30 27262 H 2666.52 -1.00729 -2.761 0
M  V30 27263 H 2664.04 -0.650055 -1.48822 0
M  V30 27264 H 2666.03 1.11272 -4.01776 0
M  V30 27265 H 2664.69 1.46814 -2.89613 0
M  V30 27266 H 2665.71 -1.62827 -4.91638 0
M  V30 27267 H 2662.38 0.817892 -4.0941 0
M  V30 27268 H 2663.77 -2.64632 -6.17592 0
M  V30 27269 N 2666.49 1.47225 -0.562374 0
M  V30 27270 C 2667.72 2.0685 -0.0452638 0
M  V30 27271 C 2668.14 1.41427 1.25076 0
M  V30 27272 O 2667.49 0.512544 1.75155 0
M  V30 27273 C 2667.54 3.61194 0.148611 0
M  V30 27274 O 2667.26 4.24167 -1.09609 0
M  V30 27275 C 2668.77 4.377 0.702411 0
M  V30 27276 H 2665.99 0.669267 -0.0481892 0
M  V30 27277 H 2668.53 1.89153 -0.777256 0
M  V30 27278 H 2666.68 3.78388 0.830751 0
M  V30 27279 H 2667.1 5.16772 -0.897073 0
M  V30 27280 H 2668.57 5.46356 0.787334 0
M  V30 27281 H 2669.05 4.04338 1.71486 0
M  V30 27282 H 2669.66 4.25263 0.0558025 0
M  V30 27283 N 2667.97 0.299089 1.54736 0
M  V30 27284 C 2668.92 -0.577859 2.23449 0
M  V30 27285 C 2669.89 -1.13106 1.21639 0
M  V30 27286 O 2671.07 -1.17594 1.50254 0
M  V30 27287 C 2668.21 -1.74479 2.97743 0
M  V30 27288 C 2667.33 -1.22316 4.14322 0
M  V30 27289 C 2666.46 -2.3538 4.76203 0
M  V30 27290 C 2665.5 -1.80341 5.8493 0
M  V30 27291 N 2664.64 -2.86971 6.40775 0
M  V30 27292 H 2669.48 0.0147069 2.97996 0
M  V30 27293 H 2667.01 0.0190272 1.47088 0
M  V30 27294 H 2668.97 -2.43108 3.39049 0
M  V30 27295 H 2667.6 -2.30901 2.25576 0
M  V30 27296 H 2666.65 -0.429183 3.77971 0
M  V30 27297 H 2667.97 -0.780222 4.9266 0
M  V30 27298 H 2667.12 -3.1196 5.20352 0
M  V30 27299 H 2665.86 -2.83 3.97193 0
M  V30 27300 H 2664.86 -1.02249 5.40208 0
M  V30 27301 H 2666.09 -1.33628 6.65823 0
M  V30 27302 H 2664.03 -3.33928 5.64649 0
M  V30 27303 H 2663.95 -2.47167 7.14454 0
M  V30 27304 H 2665.22 -3.63454 6.89581 0
M  V30 27305 N 2669.45 -1.57577 0.0267774 0
M  V30 27306 C 2670.7 -1.91325 -0.651082 0
M  V30 27307 C 2671.02 -0.90356 -1.72803 0
M  V30 27308 O 2670.29 0.0552602 -1.95822 0
M  V30 27309 H 2668.87 -0.706206 -0.243479 0
M  V30 27310 H 2671.53 -1.94759 0.0740277 0
M  V30 27311 H 2670.63 -2.91872 -1.10531 0
M  V30 27312 N 2670.93 0.246342 -1.55663 0
M  V30 27313 C 2672.17 0.981653 -1.79284 0
M  V30 27314 C 2672.53 1.82503 -0.596389 0
M  V30 27315 O 2673.73 2.59216 -0.711388 0
M  V30 27316 C 2672 1.81895 -3.07651 0
M  V30 27317 S 2673.56 2.61328 -3.52496 0
M  V30 27318 H 2670.38 0.330185 -0.629681 0
M  V30 27319 H 2672.98 0.249464 -1.93902 0
M  V30 27320 H 2671.69 1.18908 -3.92796 0
M  V30 27321 H 2671.22 2.59388 -2.95773 0
M  V30 27322 H 2673.23 3.84316 -3.13872 0
M  V30 27323 N 2672.4 1.4905 0.512027 0
M  V30 27324 C 2673.35 1.64905 1.61477 0
M  V30 27325 C 2674.32 0.490701 1.58686 0
M  V30 27326 O 2675.51 0.716391 1.7684 0
M  V30 27327 C 2672.65 1.71144 2.99673 0
M  V30 27328 C 2671.76 2.98209 3.12563 0
M  V30 27329 C 2670.89 2.95495 4.41425 0
M  V30 27330 C 2669.93 4.17187 4.47908 0
M  V30 27331 N 2669.07 4.12447 5.68183 0
M  V30 27332 H 2673.91 2.59069 1.47267 0
M  V30 27333 H 2671.45 1.2846 0.716691 0
M  V30 27334 H 2673.41 1.72742 3.79758 0
M  V30 27335 H 2672.04 0.804563 3.12613 0
M  V30 27336 H 2671.09 3.06273 2.25613 0
M  V30 27337 H 2672.4 3.88199 3.13214 0
M  V30 27338 H 2671.55 2.95595 5.29819 0
M  V30 27339 H 2670.29 2.03264 4.43323 0
M  V30 27340 H 2669.3 4.17343 3.57918 0
M  V30 27341 H 2670.52 5.10598 4.47735 0
M  V30 27342 H 2668.47 3.23046 5.70944 0
M  V30 27343 H 2668.39 4.96161 5.70404 0
M  V30 27344 H 2669.65 4.16633 6.58815 0
M  V30 27345 N 2673.88 -0.762259 1.3794 0
M  V30 27346 C 2675.3 -1.06413 1.18947 0
M  V30 27347 C 2675.5 -2.01474 0.0321517 0
M  V30 27348 O 2674.55 -2.44648 -0.624801 0
M  V30 27349 C 2675.87 -1.65253 2.51221 0
M  V30 27350 C 2677.42 -1.77466 2.57827 0
M  V30 27351 C 2677.89 -2.39718 3.90255 0
M  V30 27352 N 2679.38 -2.47159 3.91748 0
M  V30 27353 C 2680.12 -2.96201 4.90971 0
M  V30 27354 N 2679.61 -3.45344 6.00591 0
M  V30 27355 N 2681.41 -2.95162 4.78368 0
M  V30 27356 H 2673.56 -0.131263 2.11994 0
M  V30 27357 H 2675.82 -0.120862 0.940264 0
M  V30 27358 H 2675.53 -1.02872 3.36319 0
M  V30 27359 H 2675.4 -2.64428 2.68994 0
M  V30 27360 H 2677.79 -2.38977 1.7313 0
M  V30 27361 H 2677.87 -0.770198 2.43929 0
M  V30 27362 H 2677.51 -1.78844 4.75371 0
M  V30 27363 H 2677.44 -3.40789 4.0146 0
M  V30 27364 H 2679.93 -2.12392 3.12567 0
M  V30 27365 H 2680.25 -3.81195 6.72242 0
M  V30 27366 H 2678.59 -3.43424 6.04223 0
M  V30 27367 H 2681.78 -2.56075 3.91846 0
M  V30 27368 H 2681.95 -3.33071 5.55849 0
M  V30 27369 N 2675.36 -1.22666 -0.989486 0
M  V30 27370 C 2676.31 -0.999769 -2.08022 0
M  V30 27371 C 2677.28 0.0796755 -1.65909 0
M  V30 27372 O 2678.46 -0.070605 -1.90669 0
M  V30 27373 C 2675.6 -0.587294 -3.40066 0
M  V30 27374 C 2674.72 -1.73788 -3.95502 0
M  V30 27375 C 2673.85 -1.27306 -5.15719 0
M  V30 27376 C 2672.89 -2.39497 -5.633 0
M  V30 27377 N 2672.03 -1.94038 -6.74754 0
M  V30 27378 H 2676.87 -1.93344 -2.26764 0
M  V30 27379 H 2674.4 -0.963317 -1.11169 0
M  V30 27380 H 2676.36 -0.3293 -4.15898 0
M  V30 27381 H 2674.99 0.30937 -3.21314 0
M  V30 27382 H 2674.04 -2.11011 -3.1651 0
M  V30 27383 H 2675.36 -2.58166 -4.26792 0
M  V30 27384 H 2674.51 -0.972652 -5.98853 0
M  V30 27385 H 2673.25 -0.39953 -4.86061 0
M  V30 27386 H 2672.25 -2.70323 -4.78754 0
M  V30 27387 H 2673.48 -3.27372 -5.94983 0
M  V30 27388 H 2671.42 -1.09052 -6.46872 0
M  V30 27389 H 2671.34 -2.7198 -7.05381 0
M  V30 27390 H 2672.61 -1.67076 -7.61384 0
M  V30 27391 N 2676.84 1.18685 -1.0369 0
M  V30 27392 C 2678.07 1.92517 -0.757952 0
M  V30 27393 C 2678.48 1.7596 0.684368 0
M  V30 27394 O 2677.84 1.08676 1.46615 0
M  V30 27395 C 2677.89 3.4404 -1.10991 0
M  V30 27396 O 2677.61 3.60071 -2.4956 0
M  V30 27397 C 2679.11 4.34978 -0.85492 0
M  V30 27398 H 2676.33 0.611288 -0.27671 0
M  V30 27399 H 2678.88 1.50593 -1.38355 0
M  V30 27400 H 2677.03 3.83766 -0.529346 0
M  V30 27401 H 2677.45 4.53844 -2.62918 0
M  V30 27402 H 2678.92 5.39865 -1.15107 0
M  V30 27403 H 2679.4 4.38696 0.21043 0
M  V30 27404 H 2680 4.00944 -1.4186 0
M  V30 27405 N 2678.32 0.815849 1.34839 0
M  V30 27406 C 2679.27 0.220929 2.31548 0
M  V30 27407 C 2680.26 -0.634429 1.57071 0
M  V30 27408 O 2681.47 -0.526559 1.72126 0
M  V30 27409 H 2677.84 0.0526914 0.750152 0
M  V30 27410 H 2679.81 1.05154 2.79258 0
M  V30 27411 C 2678.56 -0.608367 3.42336 0
M  V30 27412 H 2677.88 0.0404824 3.9978 0
M  V30 27413 H 2679.32 -0.990858 4.1226 0
M  V30 27414 C 2677.78 -1.77777 2.86176 0
M  V30 27415 O 2678.31 -2.87566 2.80479 0
M  V30 27416 N 2676.52 -1.59225 2.43096 0
M  V30 27417 H 2676.07 -0.699193 2.4793 0
M  V30 27418 H 2676.02 -2.37623 2.0587 0
M  V30 27419 N 2679.8 -1.46924 0.570174 0
M  V30 27420 C 2681.04 -2.02036 0.0508878 0
M  V30 27421 C 2681.36 -1.4455 -1.30883 0
M  V30 27422 O 2680.63 -0.625486 -1.85646 0
M  V30 27423 H 2679.21 -0.746832 0.0158219 0
M  V30 27424 H 2681.88 -1.80177 0.743118 0
M  V30 27425 H 2680.97 -3.12088 -0.0275201 0
M  V30 27426 N 2681.27 -0.307291 -1.54575 0
M  V30 27427 C 2682.52 0.299539 -1.99868 0
M  V30 27428 C 2682.84 1.53925 -1.19717 0
M  V30 27429 O 2682.11 1.9367 -0.294754 0
M  V30 27430 H 2680.69 0.11367 -0.738301 0
M  V30 27431 H 2683.35 -0.420075 -1.90319 0
M  V30 27432 H 2682.45 0.567229 -3.06902 0
M  V30 27433 N 2682.75 1.57561 -0.0351337 0
M  V30 27434 C 2683.99 1.93914 0.646282 0
M  V30 27435 C 2684.36 0.912215 1.68946 0
M  V30 27436 O 2685.56 1.16214 2.42379 0
M  V30 27437 C 2683.83 3.35151 1.2413 0
M  V30 27438 S 2685.39 3.9344 1.94295 0
M  V30 27439 H 2682.2 0.678461 0.21263 0
M  V30 27440 H 2684.81 1.95243 -0.100237 0
M  V30 27441 H 2683.51 4.07703 0.469718 0
M  V30 27442 H 2683.04 3.3728 2.02499 0
M  V30 27443 H 2685.06 3.77363 3.22198 0
M  V30 27444 N 2684.23 -0.238084 1.55791 0
M  V30 27445 C 2685.64 -0.806442 1.68385 0
M  V30 27446 C 2685.99 -1.85668 0.63419 0
M  V30 27447 O 2685.12 -2.153 -0.217875 0
M  V30 27448 C 2685.71 -1.46954 3.0527 0
M  V30 27449 C 2684.27 -1.98549 3.19774 0
M  V30 27450 C 2683.42 -0.839716 2.6428 0
M  V30 27451 H 2686.37 -0.0137256 1.58694 0
M  V30 27452 H 2686.39 -2.33786 3.00207 0
M  V30 27453 H 2685.9 -0.704925 3.81644 0
M  V30 27454 H 2684 -2.77864 2.48239 0
M  V30 27455 H 2684.12 -2.17682 4.26792 0
M  V30 27456 H 2682.48 -1.24261 2.22332 0
M  V30 27457 H 2683.26 -0.0880429 3.43187 0
M  V30 27458 N 2685.71 -1.4932 -0.504115 0
M  V30 27459 C 2686.95 -1.58884 -1.2603 0
M  V30 27460 C 2687.29 -0.273307 -1.92267 0
M  V30 27461 O 2686.56 0.722878 -1.80568 0
M  V30 27462 C 2686.84 -2.74584 -2.32971 0
M  V30 27463 C 2686.7 -4.15923 -1.71255 0
M  V30 27464 C 2688.02 -2.85938 -3.34556 0
M  V30 27465 H 2685.14 -0.57832 -0.456853 0
M  V30 27466 H 2687.78 -1.81593 -0.558933 0
M  V30 27467 H 2685.93 -2.55353 -2.92792 0
M  V30 27468 H 2687.6 -4.46662 -1.15286 0
M  V30 27469 H 2685.84 -4.21715 -1.01679 0
M  V30 27470 H 2686.51 -4.92746 -2.48808 0
M  V30 27471 H 2688.99 -3.03435 -2.84722 0
M  V30 27472 H 2687.87 -3.68575 -4.06748 0
M  V30 27473 H 2688.13 -1.95161 -3.96692 0
M  V30 27474 N 2687.19 0.754933 -1.38342 0
M  V30 27475 C 2688.43 1.52687 -1.3589 0
M  V30 27476 C 2688.79 1.91931 0.0513344 0
M  V30 27477 O 2689.99 2.6805 0.200714 0
M  V30 27478 C 2688.26 2.74672 -2.28671 0
M  V30 27479 S 2689.82 3.64553 -2.44226 0
M  V30 27480 H 2686.64 0.522522 -0.482174 0
M  V30 27481 H 2689.24 0.886327 -1.74254 0
M  V30 27482 H 2687.94 2.43947 -3.30027 0
M  V30 27483 H 2687.48 3.43671 -1.91451 0
M  V30 27484 H 2689.49 4.6742 -1.66533 0
M  V30 27485 N 2688.66 1.23189 0.982967 0
M  V30 27486 C 2689.61 1.01079 2.07489 0
M  V30 27487 C 2690.58 -0.0708758 1.65949 0
M  V30 27488 O 2691.77 0.0807157 1.90629 0
M  V30 27489 C 2688.91 0.60532 3.3975 0
M  V30 27490 C 2688.02 1.75883 3.94575 0
M  V30 27491 C 2687.15 1.30039 5.15037 0
M  V30 27492 C 2686.19 2.42481 5.62022 0
M  V30 27493 N 2685.33 1.97614 6.73716 0
M  V30 27494 H 2690.17 1.94544 2.25736 0
M  V30 27495 H 2687.71 0.969199 1.10657 0
M  V30 27496 H 2689.66 0.351352 4.15718 0
M  V30 27497 H 2688.29 -0.292325 3.21474 0
M  V30 27498 H 2687.35 2.12687 3.15386 0
M  V30 27499 H 2688.66 2.60426 4.25417 0
M  V30 27500 H 2687.81 1.0044 5.98328 0
M  V30 27501 H 2686.55 0.425301 4.85842 0
M  V30 27502 H 2685.56 2.72858 4.77314 0
M  V30 27503 H 2686.78 3.30523 5.93238 0
M  V30 27504 H 2684.73 1.12481 6.46285 0
M  V30 27505 H 2684.64 2.75717 7.03929 0
M  V30 27506 H 2685.91 1.71111 7.60487 0
M  V30 27507 N 2690.14 -1.18133 1.04318 0
M  V30 27508 C 2691.07 -2.21356 0.594483 0
M  V30 27509 C 2692.09 -1.5927 -0.337187 0
M  V30 27510 O 2693.28 -1.78016 -0.131306 0
M  V30 27511 C 2690.38 -3.38563 -0.151191 0
M  V30 27512 C 2689.55 -4.30225 0.788982 0
M  V30 27513 C 2688.61 -5.26129 0.0861497 0
M  V30 27514 O 2687.63 -5.64661 0.717401 0
M  V30 27515 N 2688.84 -5.68389 -1.17959 0
M  V30 27516 H 2691.6 -2.60476 1.48231 0
M  V30 27517 H 2689.16 -1.32944 0.923983 0
M  V30 27518 H 2691.15 -3.99746 -0.631282 0
M  V30 27519 H 2689.72 -2.98114 -0.940586 0
M  V30 27520 H 2688.94 -3.66608 1.44888 0
M  V30 27521 H 2690.23 -4.88365 1.42747 0
M  V30 27522 H 2689.63 -5.39143 -1.71293 0
M  V30 27523 H 2688.19 -6.31758 -1.60391 0
M  V30 27524 N 2691.62 -0.822988 -1.34405 0
M  V30 27525 C 2692.55 -0.259649 -2.32052 0
M  V30 27526 C 2693.53 0.623933 -1.58244 0
M  V30 27527 O 2694.72 0.550797 -1.86225 0
M  V30 27528 C 2691.85 0.579254 -3.42435 0
M  V30 27529 C 2690.8 -0.207196 -4.27498 0
M  V30 27530 C 2690.13 0.754453 -5.29351 0
M  V30 27531 C 2691.43 -1.41542 -5.02756 0
M  V30 27532 H 2693.12 -1.0755 -2.79416 0
M  V30 27533 H 2690.67 -0.518617 -1.34337 0
M  V30 27534 H 2692.62 0.98354 -4.09761 0
M  V30 27535 H 2691.34 1.42815 -2.9372 0
M  V30 27536 H 2690 -0.59285 -3.61775 0
M  V30 27537 H 2689.65 1.59931 -4.76897 0
M  V30 27538 H 2689.35 0.232458 -5.8714 0
M  V30 27539 H 2690.87 1.1566 -5.99546 0
M  V30 27540 H 2692.29 -1.08514 -5.62937 0
M  V30 27541 H 2690.69 -1.87306 -5.7012 0
M  V30 27542 H 2691.76 -2.19358 -4.32447 0
M  V30 27543 N 2693.1 1.4662 -0.577957 0
M  V30 27544 C 2694.35 2.01612 -0.0594635 0
M  V30 27545 C 2694.66 1.45558 1.3066 0
M  V30 27546 O 2695.87 1.92341 1.91618 0
M  V30 27547 C 2694.32 3.59857 -0.0557298 0
M  V30 27548 C 2693.93 4.24906 -1.41982 0
M  V30 27549 C 2695.67 4.22524 0.409069 0
M  V30 27550 C 2693.58 5.75216 -1.37407 0
M  V30 27551 H 2692.51 0.753774 -0.0184602 0
M  V30 27552 H 2695.16 1.68402 -0.728898 0
M  V30 27553 H 2693.54 3.90122 0.679774 0
M  V30 27554 H 2694.72 4.06256 -2.17468 0
M  V30 27555 H 2693.03 3.74313 -1.82425 0
M  V30 27556 H 2695.63 5.327 0.462017 0
M  V30 27557 H 2695.97 3.9113 1.42559 0
M  V30 27558 H 2696.51 3.96867 -0.272222 0
M  V30 27559 H 2693.25 6.11262 -2.36724 0
M  V30 27560 H 2692.77 5.96143 -0.661344 0
M  V30 27561 H 2694.44 6.37838 -1.08495 0
M  V30 27562 N 2694.58 0.315484 1.5441 0
M  V30 27563 C 2695.54 -0.541381 2.22714 0
M  V30 27564 C 2696.54 -1.04993 1.21792 0
M  V30 27565 O 2697.73 -0.943641 1.46428 0
M  V30 27566 C 2694.86 -1.75111 2.92488 0
M  V30 27567 H 2696.05 0.0556036 2.99848 0
M  V30 27568 H 2693.61 0.0664727 1.56159 0
M  V30 27569 H 2694.34 -2.38754 2.1947 0
M  V30 27570 H 2694.13 -1.39395 3.66485 0
M  V30 27571 H 2695.62 -2.35953 3.44552 0
M  V30 27572 N 2696.05 -1.5754 0.0434891 0
M  V30 27573 C 2696.98 -2.1411 -0.931613 0
M  V30 27574 C 2697.97 -1.06082 -1.32969 0
M  V30 27575 O 2699.15 -1.33985 -1.40576 0
M  V30 27576 C 2696.28 -2.67986 -2.20909 0
M  V30 27577 C 2695.23 -3.8093 -1.95132 0
M  V30 27578 C 2694.56 -4.21291 -3.29269 0
M  V30 27579 C 2695.86 -5.06397 -1.27904 0
M  V30 27580 H 2697.55 -2.95838 -0.460445 0
M  V30 27581 H 2695.1 -1.42309 -0.220033 0
M  V30 27582 H 2697.05 -3.06199 -2.89517 0
M  V30 27583 H 2695.78 -1.83439 -2.70218 0
M  V30 27584 H 2694.44 -3.43177 -1.28939 0
M  V30 27585 H 2694.08 -3.33706 -3.76364 0
M  V30 27586 H 2693.78 -4.97409 -3.12823 0
M  V30 27587 H 2695.31 -4.62098 -3.99121 0
M  V30 27588 H 2696.72 -5.42105 -1.86534 0
M  V30 27589 H 2695.12 -5.87607 -1.21809 0
M  V30 27590 H 2696.19 -4.84234 -0.253981 0
M  V30 27591 N 2697.53 0.229818 -1.55915 0
M  V30 27592 C 2698.77 0.962583 -1.80316 0
M  V30 27593 C 2699.14 1.8186 -0.615712 0
M  V30 27594 O 2700.34 2.58446 -0.738841 0
M  V30 27595 C 2698.61 1.78622 -3.09563 0
M  V30 27596 S 2700.17 2.57575 -3.55247 0
M  V30 27597 H 2696.99 0.323488 -0.633148 0
M  V30 27598 H 2699.59 0.228884 -1.94156 0
M  V30 27599 H 2698.29 1.14735 -3.94036 0
M  V30 27600 H 2697.82 2.56236 -2.98507 0
M  V30 27601 H 2699.84 3.80965 -3.17931 0
M  V30 27602 N 2699.01 1.49585 0.49619 0
M  V30 27603 C 2700.25 1.60935 1.26013 0
M  V30 27604 C 2700.61 0.29168 1.89772 0
M  V30 27605 O 2701.82 0.280404 2.67333 0
M  V30 27606 C 2700.09 2.73978 2.29502 0
M  V30 27607 S 2701.65 3.05309 3.1517 0
M  V30 27608 H 2698.46 0.567608 0.428184 0
M  V30 27609 H 2701.07 1.87264 0.561451 0
M  V30 27610 H 2699.77 3.68232 1.81199 0
M  V30 27611 H 2699.3 2.49657 3.04032 0
M  V30 27612 H 2701.32 2.47201 4.3024 0
M  V30 27613 N 2700.49 -0.747586 1.3874 0
M  V30 27614 C 2701.72 -1.53461 1.38323 0
M  V30 27615 C 2702.13 -1.8918 -0.0273131 0
M  V30 27616 O 2701.47 -1.53715 -1.00585 0
M  V30 27617 C 2701.53 -2.85852 2.18012 0
M  V30 27618 C 2701.2 -2.72637 3.66767 0
M  V30 27619 C 2702.19 -2.42029 4.60128 0
M  V30 27620 C 2699.88 -2.89902 4.10198 0
M  V30 27621 C 2701.87 -2.28848 5.94901 0
M  V30 27622 C 2699.56 -2.76341 5.4505 0
M  V30 27623 C 2700.56 -2.45858 6.37215 0
M  V30 27624 O 2700.24 -2.32366 7.69585 0
M  V30 27625 H 2699.98 -0.48126 0.474726 0
M  V30 27626 H 2702.53 -0.932486 1.83013 0
M  V30 27627 H 2700.76 -3.48276 1.68049 0
M  V30 27628 H 2702.45 -3.47398 2.09927 0
M  V30 27629 H 2703.22 -2.28353 4.27878 0
M  V30 27630 H 2699.09 -3.12624 3.38803 0
M  V30 27631 H 2702.64 -2.04977 6.66806 0
M  V30 27632 H 2698.54 -2.89591 5.76894 0
M  V30 27633 H 2699.3 -2.47533 7.80173 0
M  V30 27634 N 2701.97 -1.23709 -0.97642 0
M  V30 27635 C 2702.92 -0.988887 -2.05439 0
M  V30 27636 C 2703.9 0.0665619 -1.60762 0
M  V30 27637 O 2705.09 -0.146071 -1.76396 0
M  V30 27638 C 2702.22 -0.586283 -3.38257 0
M  V30 27639 C 2701.31 -1.67734 -3.8952 0
M  V30 27640 N 2701.7 -2.90841 -4.13817 0
M  V30 27641 C 2700 -1.55284 -4.18094 0
M  V30 27642 C 2700.7 -3.6151 -4.55725 0
M  V30 27643 N 2699.67 -2.89038 -4.60389 0
M  V30 27644 H 2703.48 -1.92379 -2.22188 0
M  V30 27645 H 2700.99 -1.13706 -1.15952 0
M  V30 27646 H 2702.99 -0.389731 -4.15074 0
M  V30 27647 H 2701.65 0.341537 -3.22899 0
M  V30 27648 H 2702.66 -3.27107 -4.01524 0
M  V30 27649 H 2699.33 -0.692423 -4.11718 0
M  V30 27650 H 2700.72 -4.67067 -4.83009 0
M  V30 27651 N 2703.44 1.17579 -1.04943 0
M  V30 27652 C 2704.41 2.19716 -0.652494 0
M  V30 27653 C 2705.41 1.58076 0.294717 0
M  V30 27654 O 2706.6 1.74021 0.0789273 0
M  V30 27655 C 2703.73 3.40874 0.0420113 0
M  V30 27656 H 2704.92 2.56348 -1.55647 0
M  V30 27657 H 2702.48 1.31616 -0.843019 0
M  V30 27658 H 2703.21 3.09785 0.959376 0
M  V30 27659 H 2703 3.8686 -0.638912 0
M  V30 27660 H 2704.49 4.16478 0.305927 0
M  V30 27661 N 2704.92 0.830104 1.33967 0
M  V30 27662 C 2705.87 0.255048 2.29386 0
M  V30 27663 C 2706.84 -0.624216 1.53925 0
M  V30 27664 O 2708.02 -0.56434 1.82263 0
M  V30 27665 C 2705.16 -0.57115 3.40341 0
M  V30 27666 C 2704.28 0.331159 4.30729 0
M  V30 27667 C 2703.41 -0.505296 5.28791 0
M  V30 27668 C 2702.45 0.39595 6.10818 0
M  V30 27669 N 2701.59 -0.401856 7.00949 0
M  V30 27670 H 2706.43 1.07409 2.7797 0
M  V30 27671 H 2703.97 0.541157 1.36784 0
M  V30 27672 H 2705.92 -1.06555 4.03363 0
M  V30 27673 H 2704.55 -1.35524 2.92973 0
M  V30 27674 H 2703.61 0.943824 3.68505 0
M  V30 27675 H 2704.92 1.02385 4.88179 0
M  V30 27676 H 2704.07 -1.06389 5.97299 0
M  V30 27677 H 2702.81 -1.23146 4.71896 0
M  V30 27678 H 2701.82 0.966624 5.41236 0
M  V30 27679 H 2703.04 1.12034 6.69795 0
M  V30 27680 H 2700.99 -1.11157 6.46514 0
M  V30 27681 H 2700.9 0.2323 7.55643 0
M  V30 27682 H 2702.17 -0.942966 7.73775 0
M  V30 27683 N 2706.4 -1.46311 0.585725 0
M  V30 27684 C 2707.35 -2.27389 -0.166773 0
M  V30 27685 C 2708.34 -1.36048 -0.859052 0
M  V30 27686 O 2709.53 -1.602 -0.75265 0
M  V30 27687 C 2706.66 -3.22462 -1.17785 0
M  V30 27688 C 2705.74 -4.21288 -0.487531 0
M  V30 27689 N 2706.13 -5.03717 0.458579 0
M  V30 27690 C 2704.43 -4.39854 -0.737894 0
M  V30 27691 C 2705.13 -5.75273 0.862314 0
M  V30 27692 N 2704.11 -5.43191 0.210803 0
M  V30 27693 H 2707.91 -2.88511 0.560218 0
M  V30 27694 H 2705.42 -1.57198 0.407743 0
M  V30 27695 H 2707.42 -3.79258 -1.73115 0
M  V30 27696 H 2706.08 -2.62899 -1.90563 0
M  V30 27697 H 2707.09 -5.11137 0.834253 0
M  V30 27698 H 2703.77 -3.91437 -1.45202 0
M  V30 27699 H 2705.16 -6.51543 1.64139 0
M  V30 27700 N 2707.88 -0.323668 -1.54241 0
M  V30 27701 C 2709.12 0.279467 -2.0248 0
M  V30 27702 C 2709.48 1.49337 -1.20675 0
M  V30 27703 O 2710.68 2.16938 -1.58718 0
M  V30 27704 C 2708.96 0.605204 -3.52239 0
M  V30 27705 S 2710.51 1.18798 -4.22413 0
M  V30 27706 H 2707.33 0.0845189 -0.705959 0
M  V30 27707 H 2709.93 -0.456814 -1.90088 0
M  V30 27708 H 2708.64 -0.286411 -4.09399 0
M  V30 27709 H 2708.17 1.37168 -3.68712 0
M  V30 27710 H 2710.18 2.47479 -4.3008 0
M  V30 27711 N 2709.36 1.57515 -0.0518432 0
M  V30 27712 C 2710.29 2.08516 0.951505 0
M  V30 27713 C 2711.3 1.01313 1.27434 0
M  V30 27714 O 2712.49 1.28878 1.23502 0
M  V30 27715 C 2709.59 2.51384 2.27287 0
M  V30 27716 C 2708.76 3.81931 2.13185 0
M  V30 27717 C 2707.82 4.11104 3.28451 0
M  V30 27718 O 2706.85 4.81014 3.04325 0
M  V30 27719 N 2708.05 3.63069 4.52947 0
M  V30 27720 H 2710.82 2.95221 0.51619 0
M  V30 27721 H 2708.38 1.61341 0.134382 0
M  V30 27722 H 2710.37 2.67976 3.03267 0
M  V30 27723 H 2708.94 1.69923 2.62383 0
M  V30 27724 H 2708.16 3.74914 1.21792 0
M  V30 27725 H 2709.45 4.67419 2.0099 0
M  V30 27726 H 2708.85 3.06554 4.75438 0
M  V30 27727 H 2707.4 3.84898 5.2602 0
M  V30 27728 N 2710.84 -0.221546 1.56035 0
M  V30 27729 C 2711.75 -1.29554 1.95583 0
M  V30 27730 C 2712.76 -1.5128 0.859665 0
M  V30 27731 O 2713.94 -1.64411 1.16323 0
M  V30 27732 C 2711 -2.62527 2.26452 0
M  V30 27733 C 2710.06 -2.49104 3.49637 0
M  V30 27734 C 2709.3 -3.75735 3.79023 0
M  V30 27735 O 2709.52 -4.78752 3.10086 0
M  V30 27736 O 2708.45 -3.72847 4.72513 0
M  V30 27737 H 2712.28 -0.989984 2.87111 0
M  V30 27738 H 2709.86 -0.424409 1.43245 0
M  V30 27739 H 2711.75 -3.4106 2.475 0
M  V30 27740 H 2710.42 -2.92764 1.38097 0
M  V30 27741 H 2709.33 -1.68771 3.33867 0
M  V30 27742 H 2710.66 -2.23806 4.38374 0
M  V30 27743 N 2712.31 -1.49846 -0.48825 0
M  V30 27744 C 2713.26 -1.67957 -1.60914 0
M  V30 27745 C 2714.26 -0.545418 -1.60379 0
M  V30 27746 O 2715.46 -0.725429 -1.64735 0
M  V30 27747 H 2711.84 -0.529833 -0.533649 0
M  V30 27748 H 2713.81 -2.62016 -1.42795 0
M  V30 27749 C 2712.56 -1.77514 -2.98972 0
M  V30 27750 H 2711.88 -2.64166 -3.00094 0
M  V30 27751 H 2713.32 -1.94217 -3.76903 0
M  V30 27752 C 2711.78 -0.522804 -3.32819 0
M  V30 27753 O 2712.31 0.345795 -4.00209 0
M  V30 27754 N 2710.51 -0.381933 -2.88079 0
M  V30 27755 H 2710.06 -1.08978 -2.33413 0
M  V30 27756 H 2710.02 0.454874 -3.11092 0
M  V30 27757 N 2713.79 0.740218 -1.39135 0
M  V30 27758 C 2714.74 1.85417 -1.37437 0
M  V30 27759 C 2715.71 1.64431 -0.234851 0
M  V30 27760 O 2716.89 1.85911 -0.429158 0
M  V30 27761 C 2714.03 3.22873 -1.2185 0
M  V30 27762 C 2713.15 3.55599 -2.45302 0
M  V30 27763 C 2712.28 4.82428 -2.22343 0
M  V30 27764 C 2711.32 5.07982 -3.41497 0
M  V30 27765 N 2710.46 6.26012 -3.17888 0
M  V30 27766 H 2715.3 1.86203 -2.32664 0
M  V30 27767 H 2712.83 0.909926 -1.1558 0
M  V30 27768 H 2714.79 4.02211 -1.10825 0
M  V30 27769 H 2713.42 3.21379 -0.302557 0
M  V30 27770 H 2712.47 2.71002 -2.6695 0
M  V30 27771 H 2713.79 3.70404 -3.34069 0
M  V30 27772 H 2712.94 5.69737 -2.0853 0
M  V30 27773 H 2711.68 4.69787 -1.30962 0
M  V30 27774 H 2710.68 4.19138 -3.55814 0
M  V30 27775 H 2711.91 5.22512 -4.33772 0
M  V30 27776 H 2709.86 6.14669 -2.29167 0
M  V30 27777 H 2709.77 6.4138 -4.00209 0
M  V30 27778 H 2711.04 7.16174 -3.07758 0
M  V30 27779 N 2715.27 1.24225 0.969846 0
M  V30 27780 C 2716.51 1.09253 1.72752 0
M  V30 27781 C 2716.87 -0.362754 1.88542 0
M  V30 27782 O 2718.07 -0.633923 2.61218 0
M  V30 27783 C 2716.35 1.80962 3.082 0
M  V30 27784 S 2717.9 1.81695 3.99415 0
M  V30 27785 H 2714.72 0.390788 0.593975 0
M  V30 27786 H 2717.32 1.57522 1.15789 0
M  V30 27787 H 2716.03 2.85966 2.94367 0
M  V30 27788 H 2715.56 1.33018 3.70229 0
M  V30 27789 H 2717.57 0.883086 4.88279 0
M  V30 27790 N 2716.75 -1.1702 1.05565 0
M  V30 27791 C 2718.16 -1.68998 0.793504 0
M  V30 27792 C 2718.51 -1.83897 -0.68385 0
M  V30 27793 O 2717.63 -1.52923 -1.53113 0
M  V30 27794 C 2718.23 -3.06964 1.43382 0
M  V30 27795 C 2716.79 -3.56093 1.21962 0
M  V30 27796 C 2715.94 -2.32258 1.51498 0
M  V30 27797 H 2718.89 -1.01485 1.2201 0
M  V30 27798 H 2718.91 -3.70996 0.845133 0
M  V30 27799 H 2718.42 -2.96089 2.50904 0
M  V30 27800 H 2716.52 -3.7224 0.163814 0
M  V30 27801 H 2716.63 -4.38629 1.92721 0
M  V30 27802 H 2715 -2.36909 0.935217 0
M  V30 27803 H 2715.78 -2.23987 2.60163 0
M  V30 27804 N 2718.23 -0.837197 -1.33524 0
M  V30 27805 C 2719.47 -0.432739 -1.98129 0
M  V30 27806 C 2719.8 1.00505 -1.6617 0
M  V30 27807 O 2719.08 1.70237 -0.940719 0
M  V30 27808 C 2719.36 -0.651896 -3.5415 0
M  V30 27809 C 2719.22 -2.13683 -3.95802 0
M  V30 27810 C 2720.53 -0.096971 -4.39993 0
M  V30 27811 H 2717.65 -0.158702 -0.71971 0
M  V30 27812 H 2720.3 -1.0524 -1.58191 0
M  V30 27813 H 2718.45 -0.124437 -3.88301 0
M  V30 27814 H 2720.12 -2.72903 -3.71916 0
M  V30 27815 H 2718.36 -2.62197 -3.45594 0
M  V30 27816 H 2719.03 -2.24093 -5.04466 0
M  V30 27817 H 2721.51 -0.547805 -4.12478 0
M  V30 27818 H 2720.38 -0.280013 -5.48185 0
M  V30 27819 H 2720.64 0.999124 -4.30662 0
M  V30 27820 N 2719.7 1.45999 -0.593476 0
M  V30 27821 C 2721.11 1.85926 -0.169834 0
M  V30 27822 C 2721.47 1.49567 1.26981 0
M  V30 27823 O 2720.59 0.915636 1.96074 0
M  V30 27824 C 2721.19 3.37456 -0.301444 0
M  V30 27825 C 2719.74 3.7634 0.0674022 0
M  V30 27826 C 2718.89 2.69992 -0.63243 0
M  V30 27827 H 2721.84 1.37 -0.801038 0
M  V30 27828 H 2721.86 3.77583 0.470265 0
M  V30 27829 H 2721.38 3.63888 -1.34933 0
M  V30 27830 H 2719.48 3.55525 1.11501 0
M  V30 27831 H 2719.59 4.78054 -0.316416 0
M  V30 27832 H 2717.95 2.546 -0.0715408 0
M  V30 27833 H 2718.74 2.99262 -1.68218 0
M  V30 27834 N 2721.18 0.331843 1.54067 0
M  V30 27835 C 2722.43 -0.268234 2.00716 0
M  V30 27836 C 2722.76 -1.51489 1.21989 0
M  V30 27837 O 2722.01 -1.93504 0.292343 0
M  V30 27838 C 2722.31 -0.63933 3.51635 0
M  V30 27839 C 2721.98 0.509098 4.48017 0
M  V30 27840 C 2720.64 0.824292 4.74087 0
M  V30 27841 C 2722.99 1.28012 5.05235 0
M  V30 27842 C 2720.32 1.91308 5.54633 0
M  V30 27843 C 2722.67 2.35906 5.86968 0
M  V30 27844 C 2721.34 2.67998 6.11337 0
M  V30 27845 H 2720.61 -0.0981538 0.73447 0
M  V30 27846 H 2723.25 0.457336 1.85959 0
M  V30 27847 H 2721.56 -1.44545 3.64162 0
M  V30 27848 H 2723.25 -1.11532 3.85177 0
M  V30 27849 H 2719.84 0.253362 4.2785 0
M  V30 27850 H 2724.03 1.04986 4.85069 0
M  V30 27851 H 2719.28 2.16609 5.71743 0
M  V30 27852 H 2723.46 2.96088 6.30321 0
M  V30 27853 H 2721.09 3.52492 6.73538 0
M  V30 27854 N 2722.66 -1.57485 0.0601958 0
M  V30 27855 C 2723.9 -1.94917 -0.61535 0
M  V30 27856 C 2724.26 -0.938977 -1.67473 0
M  V30 27857 O 2725.47 -1.20056 -2.405 0
M  V30 27858 C 2723.74 -3.37084 -1.18782 0
M  V30 27859 S 2725.3 -3.96481 -1.88011 0
M  V30 27860 H 2722.11 -0.681758 -0.20181 0
M  V30 27861 H 2724.72 -1.95059 0.131286 0
M  V30 27862 H 2723.42 -4.08399 -0.404797 0
M  V30 27863 H 2722.95 -3.40459 -1.97108 0
M  V30 27864 H 2724.97 -3.82441 -3.16154 0
M  V30 27865 N 2724.14 0.213268 -1.5615 0
M  V30 27866 C 2725.07 1.26738 -1.96111 0
M  V30 27867 C 2726.05 1.48449 -0.830475 0
M  V30 27868 O 2727.23 1.60493 -1.09342 0
M  V30 27869 C 2724.36 2.61547 -2.28497 0
M  V30 27870 C 2723.32 2.54479 -3.44129 0
M  V30 27871 C 2722.64 3.93393 -3.62141 0
M  V30 27872 C 2723.94 2.08548 -4.78858 0
M  V30 27873 H 2725.64 0.935384 -2.84413 0
M  V30 27874 H 2723.18 0.448516 -1.36837 0
M  V30 27875 H 2725.14 3.35455 -2.55045 0
M  V30 27876 H 2723.86 2.96451 -1.37057 0
M  V30 27877 H 2722.52 1.83027 -3.17642 0
M  V30 27878 H 2722.17 4.25619 -2.68063 0
M  V30 27879 H 2721.87 3.89544 -4.3992 0
M  V30 27880 H 2723.39 4.68951 -3.91046 0
M  V30 27881 H 2724.81 2.72204 -5.04557 0
M  V30 27882 H 2723.2 2.1574 -5.59979 0
M  V30 27883 H 2724.27 1.03802 -4.73659 0
M  V30 27884 N 2725.62 1.50103 0.480296 0
M  V30 27885 C 2726.56 1.68808 1.60021 0
M  V30 27886 C 2727.56 0.553916 1.60088 0
M  V30 27887 O 2728.76 0.734156 1.64348 0
M  V30 27888 H 2725.14 0.532656 0.530831 0
M  V30 27889 H 2727.11 2.62769 1.41403 0
M  V30 27890 C 2725.86 1.79097 2.98026 0
M  V30 27891 H 2725.18 2.65753 2.98689 0
M  V30 27892 H 2726.62 1.96213 3.75868 0
M  V30 27893 C 2725.08 0.540447 3.32537 0
M  V30 27894 O 2725.61 -0.324566 4.00387 0
M  V30 27895 N 2723.82 0.397205 2.87873 0
M  V30 27896 H 2723.36 1.10214 2.32832 0
M  V30 27897 H 2723.32 -0.43837 3.11329 0
M  V30 27898 N 2727.09 -0.732829 1.39526 0
M  V30 27899 C 2728.34 -1.4879 1.36178 0
M  V30 27900 C 2728.66 -1.95562 -0.0387851 0
M  V30 27901 O 2729.86 -2.708 -0.194851 0
M  V30 27902 C 2728.32 -2.68866 2.39246 0
M  V30 27903 C 2727.93 -2.29035 3.85028 0
M  V30 27904 C 2729.67 -3.46679 2.44978 0
M  V30 27905 C 2727.58 -3.45847 4.79733 0
M  V30 27906 H 2726.51 -0.558748 0.506277 0
M  V30 27907 H 2729.16 -0.799197 1.65182 0
M  V30 27908 H 2727.54 -3.39822 2.03316 0
M  V30 27909 H 2728.71 -1.65612 4.30011 0
M  V30 27910 H 2727.03 -1.64309 3.82611 0
M  V30 27911 H 2729.63 -4.33569 3.12925 0
M  V30 27912 H 2729.97 -3.89295 1.47497 0
M  V30 27913 H 2730.5 -2.82754 2.79813 0
M  V30 27914 H 2727.24 -3.08279 5.78484 0
M  V30 27915 H 2726.76 -4.08244 4.39428 0
M  V30 27916 H 2728.44 -4.12152 4.98738 0
M  V30 27917 N 2728.57 -1.24737 -0.963244 0
M  V30 27918 C 2729.52 -1.04367 -2.05855 0
M  V30 27919 C 2730.49 0.0444659 -1.6604 0
M  V30 27920 O 2731.67 -0.111033 -1.90477 0
M  V30 27921 C 2728.81 -0.659295 -3.38744 0
M  V30 27922 C 2727.93 -1.82138 -3.91727 0
M  V30 27923 C 2727.06 -1.38217 -5.12903 0
M  V30 27924 C 2726.1 -2.51392 -5.58094 0
M  V30 27925 N 2725.24 -2.08307 -6.70487 0
M  V30 27926 H 2730.08 -1.9811 -2.22612 0
M  V30 27927 H 2727.62 -0.986681 -1.09101 0
M  V30 27928 H 2729.57 -0.417444 -4.15106 0
M  V30 27929 H 2728.2 0.241145 -3.21898 0
M  V30 27930 H 2727.26 -2.17677 -3.11963 0
M  V30 27931 H 2728.57 -2.67161 -4.2122 0
M  V30 27932 H 2727.72 -1.09946 -5.96655 0
M  V30 27933 H 2726.46 -0.502541 -4.85104 0
M  V30 27934 H 2725.47 -2.80418 -4.72912 0
M  V30 27935 H 2726.69 -3.39919 -5.87905 0
M  V30 27936 H 2724.64 -1.22749 -6.44414 0
M  V30 27937 H 2724.55 -2.86881 -6.99453 0
M  V30 27938 H 2725.82 -1.83188 -7.57669 0
M  V30 27939 N 2730.05 1.16459 -1.06184 0
M  V30 27940 C 2731 2.18785 -0.641657 0
M  V30 27941 C 2731.98 1.5754 0.327094 0
M  V30 27942 O 2733.18 1.76424 0.142715 0
M  V30 27943 C 2730.31 3.43288 -0.0284338 0
M  V30 27944 C 2729.39 4.11611 -1.02161 0
M  V30 27945 N 2729.78 4.55604 -2.19679 0
M  V30 27946 C 2728.08 4.3778 -0.852306 0
M  V30 27947 C 2728.78 5.08445 -2.82592 0
M  V30 27948 N 2727.76 5.01262 -2.10326 0
M  V30 27949 H 2731.56 2.50514 -1.53689 0
M  V30 27950 H 2729.07 1.32898 -0.933373 0
M  V30 27951 H 2731.07 4.15887 0.290417 0
M  V30 27952 H 2729.73 3.13047 0.862063 0
M  V30 27953 H 2730.74 4.49371 -2.57461 0
M  V30 27954 H 2727.42 4.17498 -0.0137048 0
M  V30 27955 H 2728.81 5.52531 -3.82307 0
M  V30 27956 N 2731.53 0.844266 1.33079 0
M  V30 27957 C 2732.48 0.279364 2.29103 0
M  V30 27958 C 2733.45 -0.607855 1.54578 0
M  V30 27959 O 2734.63 -0.544977 1.82851 0
M  V30 27960 C 2731.77 -0.53502 3.40927 0
M  V30 27961 C 2730.88 0.376825 4.30353 0
M  V30 27962 C 2730.02 -0.449183 5.29297 0
M  V30 27963 C 2729.06 0.460713 6.10364 0
M  V30 27964 N 2728.19 -0.327489 7.01336 0
M  V30 27965 H 2733.03 1.10351 2.76815 0
M  V30 27966 H 2730.57 0.555635 1.36202 0
M  V30 27967 H 2732.53 -1.02271 4.04471 0
M  V30 27968 H 2731.16 -1.32409 2.94394 0
M  V30 27969 H 2730.21 0.982856 3.67483 0
M  V30 27970 H 2731.52 1.07557 4.87066 0
M  V30 27971 H 2730.68 -1.00048 5.98394 0
M  V30 27972 H 2729.42 -1.18134 4.73176 0
M  V30 27973 H 2728.42 1.02398 5.4018 0
M  V30 27974 H 2729.65 1.19132 6.68569 0
M  V30 27975 H 2727.59 -1.04293 6.47656 0
M  V30 27976 H 2727.51 0.312433 7.55354 0
M  V30 27977 H 2728.78 -0.860844 7.74732 0
M  V30 27978 N 2733.01 -1.45682 0.60121 0
M  V30 27979 C 2733.94 -2.33246 -0.108783 0
M  V30 27980 C 2734.92 -1.46453 -0.865197 0
M  V30 27981 O 2736.1 -1.75236 -0.837009 0
M  V30 27982 C 2733.23 -3.29052 -1.11095 0
M  V30 27983 C 2732.19 -4.25432 -0.46817 0
M  V30 27984 C 2731.51 -5.10881 -1.57813 0
M  V30 27985 C 2732.81 -5.18766 0.606561 0
M  V30 27986 H 2734.51 -2.9286 0.622358 0
M  V30 27987 H 2732.05 -1.40825 0.300739 0
M  V30 27988 H 2734.01 -3.89177 -1.61615 0
M  V30 27989 H 2732.73 -2.67584 -1.8726 0
M  V30 27990 H 2731.39 -3.66596 0.0161129 0
M  V30 27991 H 2731.04 -4.45785 -2.32991 0
M  V30 27992 H 2730.74 -5.76165 -1.15358 0
M  V30 27993 H 2732.26 -5.73873 -2.08573 0
M  V30 27994 H 2733.67 -5.72999 0.185689 0
M  V30 27995 H 2732.07 -5.92493 0.952486 0
M  V30 27996 H 2733.14 -4.6158 1.48567 0
M  V30 27997 N 2734.48 -0.340009 -1.53889 0
M  V30 27998 C 2735.9 0.0120472 -1.59595 0
M  V30 27999 C 2736.1 1.49039 -1.35608 0
M  V30 28000 O 2735.16 2.24863 -1.1486 0
M  V30 28001 C 2736.47 -0.420951 -2.97739 0
M  V30 28002 C 2738.02 -0.372995 -3.1077 0
M  V30 28003 C 2738.49 -0.781407 -4.51285 0
M  V30 28004 N 2739.98 -0.735454 -4.57324 0
M  V30 28005 C 2740.72 -1.02346 -5.64192 0
M  V30 28006 N 2740.21 -1.37945 -6.78928 0
M  V30 28007 N 2742.01 -0.947936 -5.54049 0
M  V30 28008 H 2734.16 -1.30302 -1.67736 0
M  V30 28009 H 2736.42 -0.530932 -0.785376 0
M  V30 28010 H 2736.13 -1.45158 -3.20347 0
M  V30 28011 H 2736 0.205655 -3.76639 0
M  V30 28012 H 2738.39 0.648454 -2.87887 0
M  V30 28013 H 2738.47 -1.03476 -2.33937 0
M  V30 28014 H 2738.11 -1.80085 -4.74902 0
M  V30 28015 H 2738.04 -0.0971604 -5.2651 0
M  V30 28016 H 2740.53 -0.472839 -3.7493 0
M  V30 28017 H 2740.85 -1.58415 -7.56389 0
M  V30 28018 H 2739.19 -1.41786 -6.80383 0
M  V30 28019 H 2742.38 -0.669196 -4.63292 0
M  V30 28020 H 2742.56 -1.17574 -6.37244 0
M  V30 28021 N 2735.96 1.57451 -0.0685468 0
M  V30 28022 C 2736.9 2.09514 0.929336 0
M  V30 28023 C 2737.91 1.02659 1.26353 0
M  V30 28024 O 2739.1 1.30181 1.22128 0
M  V30 28025 C 2736.2 2.53781 2.24608 0
M  V30 28026 C 2735.37 3.8417 2.09122 0
M  V30 28027 C 2734.43 4.14565 3.24072 0
M  V30 28028 O 2733.46 4.84215 2.99206 0
M  V30 28029 N 2734.66 3.67853 4.49071 0
M  V30 28030 H 2737.42 2.95752 0.484849 0
M  V30 28031 H 2734.98 1.61475 0.117262 0
M  V30 28032 H 2736.98 2.71178 3.00408 0
M  V30 28033 H 2735.55 1.72697 2.60566 0
M  V30 28034 H 2734.77 3.76185 1.17808 0
M  V30 28035 H 2736.05 4.69524 1.96021 0
M  V30 28036 H 2735.45 3.11579 4.7216 0
M  V30 28037 H 2734.01 3.90456 5.21908 0
M  V30 28038 N 2737.44 -0.204984 1.56261 0
M  V30 28039 C 2738.37 -1.27791 1.90268 0
M  V30 28040 C 2739.39 -1.42213 0.792422 0
M  V30 28041 O 2740.58 -1.42815 1.0708 0
M  V30 28042 C 2737.68 -2.6514 2.11079 0
M  V30 28043 C 2736.85 -2.72454 3.42181 0
M  V30 28044 C 2735.91 -3.90929 3.52223 0
M  V30 28045 O 2734.93 -3.78493 4.25125 0
M  V30 28046 N 2736.14 -5.05958 2.84582 0
M  V30 28047 H 2738.9 -0.989384 2.82898 0
M  V30 28048 H 2736.46 -0.394953 1.57009 0
M  V30 28049 H 2738.45 -3.42807 2.15095 0
M  V30 28050 H 2737.02 -2.86522 1.24995 0
M  V30 28051 H 2736.24 -1.81136 3.50119 0
M  V30 28052 H 2737.53 -2.74323 4.28514 0
M  V30 28053 H 2736.93 -5.18959 2.25161 0
M  V30 28054 H 2735.49 -5.81607 2.94238 0
M  V30 28055 N 2738.92 -1.50356 -0.472329 0
M  V30 28056 C 2739.85 -1.65281 -1.58792 0
M  V30 28057 C 2740.86 -0.53434 -1.53781 0
M  V30 28058 O 2742.05 -0.807474 -1.59192 0
M  V30 28059 C 2739.15 -1.62006 -2.9767 0
M  V30 28060 C 2738.33 -2.89864 -3.27563 0
M  V30 28061 C 2737.39 -2.7925 -4.45989 0
M  V30 28062 O 2736.41 -3.53205 -4.46357 0
M  V30 28063 N 2737.61 -1.92723 -5.47575 0
M  V30 28064 H 2740.38 -2.61506 -1.46406 0
M  V30 28065 H 2737.94 -1.47804 -0.660725 0
M  V30 28066 H 2739.93 -1.5252 -3.7486 0
M  V30 28067 H 2738.5 -0.735213 -3.03831 0
M  V30 28068 H 2737.72 -3.13487 -2.38997 0
M  V30 28069 H 2739.01 -3.74571 -3.44346 0
M  V30 28070 H 2738.41 -1.31949 -5.50096 0
M  V30 28071 H 2736.96 -1.89141 -6.23754 0
M  V30 28072 N 2740.4 0.725419 -1.39912 0
M  V30 28073 C 2741.65 1.48066 -1.36965 0
M  V30 28074 C 2741.96 1.95579 0.0284134 0
M  V30 28075 O 2743.17 2.70899 0.180487 0
M  V30 28076 C 2741.62 2.67594 -2.40669 0
M  V30 28077 C 2741.23 2.2699 -3.86238 0
M  V30 28078 C 2742.97 3.45375 -2.46813 0
M  V30 28079 C 2740.88 3.43298 -4.8156 0
M  V30 28080 H 2739.81 0.556056 -0.509233 0
M  V30 28081 H 2742.46 0.790425 -1.65604 0
M  V30 28082 H 2740.84 3.38739 -2.05115 0
M  V30 28083 H 2742.02 1.63329 -4.30883 0
M  V30 28084 H 2740.33 1.62278 -3.83477 0
M  V30 28085 H 2742.93 4.31903 -3.1522 0
M  V30 28086 H 2743.27 3.88507 -1.49559 0
M  V30 28087 H 2743.81 2.81266 -2.81308 0
M  V30 28088 H 2740.54 3.05207 -5.80111 0
M  V30 28089 H 2740.06 4.05908 -4.41587 0
M  V30 28090 H 2741.74 4.09501 -5.00917 0
M  V30 28091 N 2741.88 1.25246 0.956615 0
M  V30 28092 C 2742.81 1.01245 2.05626 0
M  V30 28093 C 2743.82 -0.0219293 1.62785 0
M  V30 28094 O 2745.01 0.216397 1.77183 0
M  V30 28095 C 2742.11 0.50822 3.35068 0
M  V30 28096 C 2741.28 1.6083 4.06759 0
M  V30 28097 C 2740.34 1.10479 5.14471 0
M  V30 28098 O 2739.37 1.79877 5.4003 0
M  V30 28099 N 2740.57 -0.0549753 5.80474 0
M  V30 28100 H 2743.33 1.95929 2.26786 0
M  V30 28101 H 2740.9 1.16425 1.12503 0
M  V30 28102 H 2742.89 0.15589 4.044 0
M  V30 28103 H 2741.46 -0.344629 3.10694 0
M  V30 28104 H 2740.68 2.1323 3.31552 0
M  V30 28105 H 2741.97 2.34741 4.51414 0
M  V30 28106 H 2741.36 -0.634905 5.62126 0
M  V30 28107 H 2739.92 -0.348355 6.50868 0
M  V30 28108 N 2743.35 -1.15894 1.068 0
M  V30 28109 C 2744.3 -2.18441 0.653251 0
M  V30 28110 C 2745.29 -1.57711 -0.318735 0
M  V30 28111 O 2746.48 -1.76497 -0.133357 0
M  V30 28112 C 2743.61 -3.43268 0.0466388 0
M  V30 28113 C 2742.69 -4.11064 1.04343 0
M  V30 28114 N 2743.09 -4.54432 2.22092 0
M  V30 28115 C 2741.38 -4.37322 0.87551 0
M  V30 28116 C 2742.08 -5.06939 2.85285 0
M  V30 28117 N 2741.06 -5.0014 2.12982 0
M  V30 28118 H 2744.86 -2.49695 1.55015 0
M  V30 28119 H 2742.38 -1.32401 0.940407 0
M  V30 28120 H 2744.37 -4.16035 -0.268357 0
M  V30 28121 H 2743.03 -3.135 -0.845449 0
M  V30 28122 H 2744.04 -4.47999 2.59841 0
M  V30 28123 H 2740.72 -4.17485 0.0358455 0
M  V30 28124 H 2742.11 -5.50496 3.85232 0
M  V30 28125 N 2744.83 -0.851312 -1.32629 0
M  V30 28126 C 2746.25 -0.540726 -1.50161 0
M  V30 28127 C 2746.45 0.929337 -1.78789 0
M  V30 28128 O 2745.5 1.71254 -1.85548 0
M  V30 28129 C 2746.82 -1.42483 -2.648 0
M  V30 28130 C 2748.36 -1.4249 -2.78685 0
M  V30 28131 C 2748.84 -2.29414 -3.964 0
M  V30 28132 N 2750.33 -2.27191 -4.03656 0
M  V30 28133 C 2751.07 -2.91179 -4.93966 0
M  V30 28134 N 2750.56 -3.64266 -5.89306 0
M  V30 28135 N 2752.35 -2.80584 -4.87062 0
M  V30 28136 H 2744.51 -1.80277 -1.12311 0
M  V30 28137 H 2746.77 -0.769816 -0.553252 0
M  V30 28138 H 2746.47 -2.47004 -2.50364 0
M  V30 28139 H 2746.35 -1.10981 -3.60504 0
M  V30 28140 H 2748.74 -0.387355 -2.92547 0
M  V30 28141 H 2748.82 -1.78006 -1.83705 0
M  V30 28142 H 2748.46 -3.33234 -3.83298 0
M  V30 28143 H 2748.39 -1.91233 -4.9065 0
M  V30 28144 H 2750.88 -1.74051 -3.35432 0
M  V30 28145 H 2751.19 -4.10266 -6.54906 0
M  V30 28146 H 2749.54 -3.68375 -5.89343 0
M  V30 28147 H 2752.73 -2.23038 -4.11548 0
M  V30 28148 H 2752.9 -3.30735 -5.57242 0
M  V30 28149 N 2746.31 1.45361 -0.608928 0
M  V30 28150 C 2747.24 2.33301 0.0964116 0
M  V30 28151 C 2748.22 1.46909 0.857418 0
M  V30 28152 O 2749.41 1.75678 0.827704 0
M  V30 28153 C 2746.54 3.29637 1.09348 0
M  V30 28154 C 2745.49 4.25674 0.445601 0
M  V30 28155 C 2744.82 5.11711 1.55101 0
M  V30 28156 C 2746.12 5.18437 -0.634063 0
M  V30 28157 H 2747.81 2.92526 -0.63788 0
M  V30 28158 H 2745.36 1.40663 -0.308203 0
M  V30 28159 H 2747.31 3.90028 1.59549 0
M  V30 28160 H 2746.03 2.68573 1.85839 0
M  V30 28161 H 2744.69 3.66583 -0.0355542 0
M  V30 28162 H 2744.34 4.47014 2.30623 0
M  V30 28163 H 2744.04 5.76769 1.12301 0
M  V30 28164 H 2745.56 5.74971 2.05527 0
M  V30 28165 H 2746.98 5.72893 -0.216074 0
M  V30 28166 H 2745.37 5.91979 -0.983893 0
M  V30 28167 H 2746.44 4.60785 -1.51013 0
M  V30 28168 N 2747.79 0.348166 1.53706 0
M  V30 28169 C 2748.72 -0.540907 2.22726 0
M  V30 28170 C 2749.73 -1.06025 1.23541 0
M  V30 28171 O 2750.92 -0.969614 1.49869 0
M  V30 28172 C 2748.02 -1.75763 2.8976 0
M  V30 28173 C 2747.19 -1.37278 4.15299 0
M  V30 28174 C 2746.25 -2.44967 4.65701 0
M  V30 28175 O 2745.28 -2.08082 5.29802 0
M  V30 28176 N 2746.48 -3.76292 4.42023 0
M  V30 28177 H 2749.25 0.0502119 2.99658 0
M  V30 28178 H 2746.81 0.172508 1.60978 0
M  V30 28179 H 2748.8 -2.47247 3.20392 0
M  V30 28180 H 2747.37 -2.25601 2.16386 0
M  V30 28181 H 2746.59 -0.488515 3.91161 0
M  V30 28182 H 2747.88 -1.0917 4.9695 0
M  V30 28183 H 2747.28 -4.09044 3.90768 0
M  V30 28184 H 2745.83 -4.43932 4.7725 0
M  V30 28185 N 2749.27 -1.57412 0.0768958 0
M  V30 28186 C 2750.2 -2.10004 -0.918211 0
M  V30 28187 C 2751.21 -1.03328 -1.25806 0
M  V30 28188 O 2752.4 -1.30827 -1.21436 0
M  V30 28189 C 2749.5 -2.54968 -2.23259 0
M  V30 28190 C 2748.67 -3.85274 -2.07081 0
M  V30 28191 C 2747.73 -4.16278 -3.21869 0
M  V30 28192 O 2746.76 -4.85795 -2.96634 0
M  V30 28193 N 2747.96 -3.70229 -4.47114 0
M  V30 28194 H 2750.72 -2.96005 -0.469157 0
M  V30 28195 H 2748.29 -1.61535 -0.108697 0
M  V30 28196 H 2750.28 -2.72767 -2.98965 0
M  V30 28197 H 2748.85 -1.74076 -2.59646 0
M  V30 28198 H 2748.07 -3.76804 -1.15812 0
M  V30 28199 H 2749.36 -4.70557 -1.93529 0
M  V30 28200 H 2748.75 -3.14079 -4.70501 0
M  V30 28201 H 2747.31 -3.93218 -5.1983 0
M  V30 28202 N 2750.74 0.196695 -1.56368 0
M  V30 28203 C 2751.71 1.22743 -1.93563 0
M  V30 28204 C 2752.71 1.38522 -0.81659 0
M  V30 28205 O 2753.9 1.36362 -1.08403 0
M  V30 28206 C 2751.03 2.59708 -2.20827 0
M  V30 28207 H 2752.22 0.909536 -2.85775 0
M  V30 28208 H 2749.78 0.438148 -1.50033 0
M  V30 28209 H 2750.51 2.96554 -1.31248 0
M  V30 28210 H 2750.3 2.49626 -3.02372 0
M  V30 28211 H 2751.79 3.34039 -2.50614 0
M  V30 28212 N 2752.22 1.50604 0.464349 0
M  V30 28213 C 2753.15 1.6612 1.57913 0
M  V30 28214 C 2754.17 0.542487 1.53496 0
M  V30 28215 O 2755.36 0.815905 1.58762 0
M  V30 28216 C 2752.46 1.63583 2.96806 0
M  V30 28217 C 2751.63 2.91598 3.26021 0
M  V30 28218 C 2750.69 2.81611 4.44501 0
M  V30 28219 O 2749.71 3.55567 4.44478 0
M  V30 28220 N 2750.92 1.95624 5.46545 0
M  V30 28221 H 2753.68 2.62279 1.45017 0
M  V30 28222 H 2751.24 1.48152 0.652877 0
M  V30 28223 H 2753.23 1.54506 3.74045 0
M  V30 28224 H 2751.8 0.751315 3.03437 0
M  V30 28225 H 2751.02 3.1475 2.37331 0
M  V30 28226 H 2752.31 3.76392 3.42354 0
M  V30 28227 H 2751.71 1.34864 5.49389 0
M  V30 28228 H 2750.27 1.92446 6.22742 0
M  V30 28229 N 2753.7 -0.717989 1.40295 0
M  V30 28230 C 2754.63 -1.84495 1.43122 0
M  V30 28231 C 2755.61 -1.67567 0.292433 0
M  V30 28232 O 2756.8 -1.87634 0.500707 0
M  V30 28233 C 2753.93 -3.22425 1.29071 0
M  V30 28234 C 2752.88 -3.54021 2.40527 0
M  V30 28235 C 2752.21 -4.91069 2.11555 0
M  V30 28236 C 2753.51 -3.55262 3.82865 0
M  V30 28237 H 2755.2 -1.82387 2.37435 0
M  V30 28238 H 2752.75 -0.87607 1.14285 0
M  V30 28239 H 2754.7 -4.00955 1.29665 0
M  V30 28240 H 2753.42 -3.25103 0.312328 0
M  V30 28241 H 2752.08 -2.7783 2.39178 0
M  V30 28242 H 2751.73 -4.90347 1.12113 0
M  V30 28243 H 2751.43 -5.13175 2.86225 0
M  V30 28244 H 2752.95 -5.71935 2.13827 0
M  V30 28245 H 2754.37 -4.23837 3.86051 0
M  V30 28246 H 2752.77 -3.88894 4.57035 0
M  V30 28247 H 2753.84 -2.54698 4.12622 0
M  V30 28248 N 2755.18 -1.25752 -0.94996 0
M  V30 28249 C 2756.11 -1.00866 -2.04698 0
M  V30 28250 C 2757.09 0.0636696 -1.62475 0
M  V30 28251 O 2758.27 -0.0769484 -1.88343 0
M  V30 28252 C 2755.4 -0.525672 -3.34596 0
M  V30 28253 C 2754.45 -1.58923 -3.95785 0
M  V30 28254 S 2755.28 -3.17574 -4.31169 0
M  V30 28255 C 2756.44 -2.71023 -5.64179 0
M  V30 28256 H 2756.67 -1.93752 -2.25493 0
M  V30 28257 H 2754.2 -1.09334 -1.09021 0
M  V30 28258 H 2756.16 -0.253662 -4.09716 0
M  V30 28259 H 2754.82 0.382773 -3.11759 0
M  V30 28260 H 2754.01 -1.2021 -4.89454 0
M  V30 28261 H 2753.62 -1.81217 -3.27164 0
M  V30 28262 H 2755.91 -2.1494 -6.42501 0
M  V30 28263 H 2756.85 -3.63351 -6.07768 0
M  V30 28264 H 2757.26 -2.10869 -5.23636 0
M  V30 28265 N 2756.66 1.15326 -1.07413 0
M  V30 28266 C 2758.07 1.38115 -0.799783 0
M  V30 28267 C 2758.27 1.92494 0.595687 0
M  V30 28268 O 2757.33 2.13108 1.35429 0
M  V30 28269 C 2758.64 2.35155 -1.87411 0
M  V30 28270 C 2760.19 2.48816 -1.89894 0
M  V30 28271 C 2760.66 3.49148 -2.96412 0
M  V30 28272 N 2762.16 3.56684 -2.95518 0
M  V30 28273 C 2762.89 4.34138 -3.74582 0
M  V30 28274 N 2762.39 5.1492 -4.63497 0
M  V30 28275 N 2764.18 4.29233 -3.62926 0
M  V30 28276 H 2756.33 0.783705 -1.97413 0
M  V30 28277 H 2758.59 0.407139 -0.85612 0
M  V30 28278 H 2758.3 2.02315 -2.87683 0
M  V30 28279 H 2758.17 3.34941 -1.73476 0
M  V30 28280 H 2760.56 2.80953 -0.902726 0
M  V30 28281 H 2760.64 1.49026 -2.07906 0
M  V30 28282 H 2760.29 3.17745 -3.96233 0
M  V30 28283 H 2760.22 4.48695 -2.75646 0
M  V30 28284 H 2762.71 2.99026 -2.31066 0
M  V30 28285 H 2763.02 5.71267 -5.20455 0
M  V30 28286 H 2761.36 5.14224 -4.67546 0
M  V30 28287 H 2764.56 3.65189 -2.92839 0
M  V30 28288 H 2764.73 4.89348 -4.24786 0
M  V30 28289 N 2758.13 0.858334 1.32176 0
M  V30 28290 C 2759.55 0.548682 1.49872 0
M  V30 28291 C 2759.75 -0.919842 1.7928 0
M  V30 28292 O 2758.81 -1.70268 1.86454 0
M  V30 28293 C 2760.12 1.43885 2.64041 0
M  V30 28294 C 2761.67 1.43966 2.77926 0
M  V30 28295 C 2762.14 2.31513 3.95178 0
M  V30 28296 N 2763.63 2.29329 4.02446 0
M  V30 28297 C 2764.37 2.93795 4.92415 0
M  V30 28298 N 2763.86 3.67387 5.87366 0
M  V30 28299 N 2765.66 2.83163 4.85567 0
M  V30 28300 H 2757.81 1.8087 1.11354 0
M  V30 28301 H 2760.07 0.772739 0.549162 0
M  V30 28302 H 2759.78 2.48328 2.4905 0
M  V30 28303 H 2759.65 1.12891 3.5991 0
M  V30 28304 H 2762.04 0.402864 2.92337 0
M  V30 28305 H 2762.12 1.78977 1.82759 0
M  V30 28306 H 2761.76 3.35262 3.81525 0
M  V30 28307 H 2761.69 1.93832 4.89629 0
M  V30 28308 H 2764.18 1.75827 3.34504 0
M  V30 28309 H 2764.5 4.13734 6.52721 0
M  V30 28310 H 2762.84 3.71495 5.87381 0
M  V30 28311 H 2766.03 2.25218 4.10359 0
M  V30 28312 H 2766.21 3.33685 5.5548 0
M  V30 28313 N 2759.61 -1.45036 0.616628 0
M  V30 28314 C 2761.03 -1.57106 0.281022 0
M  V30 28315 C 2761.23 -1.60655 -1.21624 0
M  V30 28316 O 2760.28 -1.54173 -1.99968 0
M  V30 28317 C 2761.6 -2.84958 0.960167 0
M  V30 28318 C 2763.15 -2.98648 0.936937 0
M  V30 28319 C 2763.62 -4.29282 1.59627 0
M  V30 28320 N 2765.11 -4.36062 1.56217 0
M  V30 28321 C 2765.85 -5.35831 2.0414 0
M  V30 28322 N 2765.34 -6.42085 2.60189 0
M  V30 28323 N 2767.14 -5.27246 1.94854 0
M  V30 28324 H 2759.29 -1.40976 1.58869 0
M  V30 28325 H 2761.55 -0.674611 0.666036 0
M  V30 28326 H 2761.26 -2.8827 2.01478 0
M  V30 28327 H 2761.13 -3.74017 0.488987 0
M  V30 28328 H 2763.52 -2.94898 -0.109157 0
M  V30 28329 H 2763.6 -2.10976 1.44647 0
M  V30 28330 H 2763.24 -4.33791 2.64173 0
M  V30 28331 H 2763.17 -5.15787 1.06168 0
M  V30 28332 H 2765.66 -3.59887 1.15282 0
M  V30 28333 H 2765.98 -7.14475 2.94525 0
M  V30 28334 H 2764.32 -6.42811 2.64232 0
M  V30 28335 H 2767.51 -4.43145 1.50799 0
M  V30 28336 H 2767.68 -6.04848 2.32514 0
M  V30 28337 N 2761.09 -0.356312 -1.53519 0
M  V30 28338 C 2762.02 0.537874 -2.2177 0
M  V30 28339 C 2763 1.0903 -1.20628 0
M  V30 28340 O 2764.19 1.14818 -1.49496 0
M  V30 28341 C 2761.31 1.74121 -2.90516 0
M  V30 28342 C 2760.36 1.31708 -4.05654 0
M  V30 28343 S 2761.19 0.326142 -5.34506 0
M  V30 28344 C 2762.35 1.53602 -6.0676 0
M  V30 28345 H 2762.58 -0.0417934 -2.97271 0
M  V30 28346 H 2760.11 -0.140399 -1.5376 0
M  V30 28347 H 2762.07 2.4315 -3.30739 0
M  V30 28348 H 2760.73 2.29211 -2.14758 0
M  V30 28349 H 2759.93 2.21463 -4.52736 0
M  V30 28350 H 2759.53 0.706119 -3.67274 0
M  V30 28351 H 2761.82 2.46852 -6.30928 0
M  V30 28352 H 2762.76 1.10675 -6.99397 0
M  V30 28353 H 2763.17 1.73786 -5.37083 0
M  V30 28354 N 2762.57 1.57369 -0.0852427 0
M  V30 28355 C 2763.53 2.12346 0.862662 0
M  V30 28356 C 2764.53 1.05048 1.21744 0
M  V30 28357 O 2765.72 1.30978 1.1485 0
M  V30 28358 C 2762.85 2.63592 2.16176 0
M  V30 28359 H 2764.05 2.97413 0.385459 0
M  V30 28360 H 2761.6 1.55441 0.163636 0
M  V30 28361 H 2762.33 1.82018 2.68403 0
M  V30 28362 H 2762.12 3.42033 1.91717 0
M  V30 28363 H 2763.61 3.06154 2.84006 0
M  V30 28364 N 2764.05 -0.188399 1.5647 0
M  V30 28365 C 2765.27 -0.92377 1.85133 0
M  V30 28366 C 2765.69 -1.76566 0.668568 0
M  V30 28367 O 2765.05 -1.78861 -0.36263 0
M  V30 28368 C 2765.1 -1.81448 3.12664 0
M  V30 28369 O 2764.82 -1.00657 4.2638 0
M  V30 28370 C 2766.32 -2.66096 3.54553 0
M  V30 28371 H 2763.54 -0.269207 0.614629 0
M  V30 28372 H 2766.08 -0.193635 2.03581 0
M  V30 28373 H 2764.24 -2.49816 2.96093 0
M  V30 28374 H 2764.65 -1.61416 4.99044 0
M  V30 28375 H 2766.13 -3.24239 4.46736 0
M  V30 28376 H 2766.6 -3.40134 2.77859 0
M  V30 28377 H 2767.21 -2.03089 3.73678 0
M  V30 28378 N 2765.53 -1.50848 -0.456355 0
M  V30 28379 C 2766.46 -1.65443 -1.57174 0
M  V30 28380 C 2767.44 -0.502252 -1.54649 0
M  V30 28381 O 2768.62 -0.723664 -1.74056 0
M  V30 28382 C 2765.75 -1.65057 -2.9576 0
M  V30 28383 C 2764.79 -2.86013 -3.16384 0
M  V30 28384 S 2765.63 -4.4711 -2.94708 0
M  V30 28385 C 2766.78 -4.49439 -4.35609 0
M  V30 28386 H 2767.02 -2.5979 -1.44557 0
M  V30 28387 H 2764.55 -1.40295 -0.644733 0
M  V30 28388 H 2766.51 -1.65518 -3.75651 0
M  V30 28389 H 2765.17 -0.719207 -3.05755 0
M  V30 28390 H 2764.36 -2.82089 -4.17663 0
M  V30 28391 H 2763.96 -2.83195 -2.44288 0
M  V30 28392 H 2766.25 -4.23909 -5.28495 0
M  V30 28393 H 2767.2 -5.51145 -4.44572 0
M  V30 28394 H 2767.61 -3.78975 -4.18376 0
M  V30 28395 N 2767 0.710538 -1.40674 0
M  V30 28396 C 2767.95 1.84593 -1.41521 0
M  V30 28397 C 2768.95 1.6681 -0.295072 0
M  V30 28398 O 2770.15 1.73854 -0.466362 0
M  V30 28399 H 2766.53 0.608044 -0.442477 0
M  V30 28400 H 2768.5 1.80995 -2.37241 0
M  V30 28401 C 2767.25 3.22498 -1.29963 0
M  V30 28402 H 2766.57 3.3679 -2.15435 0
M  V30 28403 H 2768.01 4.02063 -1.34615 0
M  V30 28404 C 2766.47 3.36898 -0.0103756 0
M  V30 28405 O 2767 3.90289 0.950638 0
M  V30 28406 N 2765.2 2.90536 0.0607899 0
M  V30 28407 H 2764.75 2.47275 -0.721986 0
M  V30 28408 H 2764.71 3.0055 0.922867 0
M  V30 28409 N 2768.48 1.26254 0.943277 0
M  V30 28410 C 2769.71 1.14446 1.72365 0
M  V30 28411 C 2770.12 -0.300539 1.86393 0
M  V30 28412 O 2769.48 -1.20593 1.3698 0
M  V30 28413 C 2769.53 1.80605 3.13152 0
M  V30 28414 O 2769.25 3.19458 2.99797 0
M  V30 28415 C 2770.75 1.74724 4.07414 0
M  V30 28416 H 2767.97 0.398636 0.539751 0
M  V30 28417 H 2770.52 1.66834 1.18265 0
M  V30 28418 H 2768.67 1.3216 3.6416 0
M  V30 28419 H 2769.09 3.52165 3.8869 0
M  V30 28420 H 2770.56 2.25656 5.03769 0
M  V30 28421 H 2771.04 0.71332 4.33369 0
M  V30 28422 H 2771.64 2.22711 3.62326 0
M  V30 28423 N 2769.96 -1.14755 1.08024 0
M  V30 28424 C 2771.38 -1.37688 0.807096 0
M  V30 28425 C 2771.58 -1.92807 -0.58547 0
M  V30 28426 O 2770.63 -2.13824 -1.34297 0
M  V30 28427 C 2771.94 -2.34158 1.88655 0
M  V30 28428 C 2773.49 -2.47805 1.91211 0
M  V30 28429 C 2773.97 -3.47571 2.98259 0
M  V30 28430 N 2775.46 -3.55111 2.97406 0
M  V30 28431 C 2776.19 -4.32145 3.76879 0
M  V30 28432 N 2775.69 -5.12455 4.66221 0
M  V30 28433 N 2777.48 -4.27302 3.65198 0
M  V30 28434 H 2769.63 -0.773225 1.97826 0
M  V30 28435 H 2771.9 -0.402593 0.858267 0
M  V30 28436 H 2771.6 -2.00786 2.88752 0
M  V30 28437 H 2771.48 -3.34017 1.7525 0
M  V30 28438 H 2773.86 -2.80471 0.917613 0
M  V30 28439 H 2773.94 -1.47921 2.08694 0
M  V30 28440 H 2773.59 -3.15639 3.97912 0
M  V30 28441 H 2773.52 -4.47226 2.78022 0
M  V30 28442 H 2776.01 -2.97797 2.32649 0
M  V30 28443 H 2776.32 -5.68499 5.23478 0
M  V30 28444 H 2774.67 -5.11737 4.70266 0
M  V30 28445 H 2777.86 -3.63631 2.94772 0
M  V30 28446 H 2778.03 -4.87088 4.27375 0
M  V30 28447 N 2771.44 -0.865331 -1.31719 0
M  V30 28448 C 2772.39 -0.306715 -2.30569 0
M  V30 28449 C 2773.38 0.575696 -1.59318 0
M  V30 28450 O 2774.59 0.462312 -1.73962 0
M  V30 28451 H 2770.96 -0.0804965 -0.747679 0
M  V30 28452 H 2772.93 -1.15446 -2.75163 0
M  V30 28453 C 2771.68 0.480892 -3.44358 0
M  V30 28454 H 2771 -0.18883 -3.99354 0
M  V30 28455 H 2772.44 0.837168 -4.15653 0
M  V30 28456 C 2770.9 1.67034 -2.92577 0
M  V30 28457 O 2771.43 2.76958 -2.90959 0
M  V30 28458 N 2769.64 1.50093 -2.48838 0
M  V30 28459 H 2769.19 0.606694 -2.50354 0
M  V30 28460 H 2769.14 2.29819 -2.14548 0
M  V30 28461 N 2772.92 1.44707 -0.624311 0
M  V30 28462 C 2774.16 2.02407 -0.126273 0
M  V30 28463 C 2774.49 1.48945 1.24615 0
M  V30 28464 O 2773.77 0.670774 1.82567 0
M  V30 28465 C 2774.05 3.59945 -0.105512 0
M  V30 28466 C 2773.91 4.23704 -1.5098 0
M  V30 28467 C 2775.22 4.36347 0.573552 0
M  V30 28468 H 2772.34 0.735477 -0.0473602 0
M  V30 28469 H 2774.99 1.72361 -0.799482 0
M  V30 28470 H 2773.14 3.85674 0.467762 0
M  V30 28471 H 2774.81 4.09106 -2.13144 0
M  V30 28472 H 2773.05 3.81461 -2.06567 0
M  V30 28473 H 2773.72 5.32687 -1.44736 0
M  V30 28474 H 2776.2 4.16011 0.0861056 0
M  V30 28475 H 2775.07 5.46064 0.557242 0
M  V30 28476 H 2775.33 4.10449 1.64269 0
M  V30 28477 N 2774.39 0.364449 1.53328 0
M  V30 28478 C 2775.8 -0.115006 1.86345 0
M  V30 28479 C 2776.16 -1.48258 1.28507 0
M  V30 28480 O 2775.28 -2.07722 0.606675 0
M  V30 28481 C 2775.88 -0.215462 3.38114 0
M  V30 28482 C 2774.43 -0.639171 3.70933 0
M  V30 28483 C 2773.58 0.214309 2.76471 0
M  V30 28484 H 2776.53 0.583284 1.47592 0
M  V30 28485 H 2776.55 -1.03924 3.66033 0
M  V30 28486 H 2776.07 0.780015 3.80181 0
M  V30 28487 H 2774.17 -1.64292 3.34423 0
M  V30 28488 H 2774.28 -0.414567 4.77303 0
M  V30 28489 H 2772.64 -0.316633 2.52724 0
M  V30 28490 H 2773.43 1.20731 3.21371 0
M  V30 28491 N 2775.87 -1.57322 0.0935872 0
M  V30 28492 C 2776.8 -2.10966 -0.895886 0
M  V30 28493 C 2777.82 -1.04656 -1.24703 0
M  V30 28494 O 2779.01 -1.32107 -1.20041 0
M  V30 28495 C 2776.11 -2.57322 -2.20542 0
M  V30 28496 C 2775.28 -3.87449 -2.02983 0
M  V30 28497 C 2774.34 -4.19668 -3.17435 0
M  V30 28498 O 2773.36 -4.88914 -2.91465 0
M  V30 28499 N 2774.57 -3.7495 -4.43162 0
M  V30 28500 H 2777.33 -2.96486 -0.437736 0
M  V30 28501 H 2774.89 -1.61641 -0.0915579 0
M  V30 28502 H 2776.88 -2.75923 -2.96055 0
M  V30 28503 H 2775.45 -1.7682 -2.57785 0
M  V30 28504 H 2774.67 -3.78011 -1.11809 0
M  V30 28505 H 2775.96 -4.72583 -1.88527 0
M  V30 28506 H 2775.36 -3.19051 -4.67143 0
M  V30 28507 H 2773.92 -3.98709 -5.1563 0
M  V30 28508 N 2777.35 0.180099 -1.56568 0
M  V30 28509 C 2778.28 1.24748 -1.92277 0
M  V30 28510 C 2779.29 1.40934 -0.814947 0
M  V30 28511 O 2780.48 1.41093 -1.09338 0
M  V30 28512 C 2777.58 2.61748 -2.1527 0
M  V30 28513 C 2776.76 2.66975 -3.46472 0
M  V30 28514 C 2775.82 3.85276 -3.58397 0
M  V30 28515 O 2774.84 3.71682 -4.31093 0
M  V30 28516 N 2776.04 5.01366 -2.92595 0
M  V30 28517 H 2778.81 0.944252 -2.84436 0
M  V30 28518 H 2776.37 0.369925 -1.57617 0
M  V30 28519 H 2778.36 3.39341 -2.20521 0
M  V30 28520 H 2776.93 2.84497 -1.29538 0
M  V30 28521 H 2776.15 1.75543 -3.52956 0
M  V30 28522 H 2777.44 2.67471 -4.32824 0
M  V30 28523 H 2776.84 5.15312 -2.33389 0
M  V30 28524 H 2775.39 5.76853 -3.03454 0
M  V30 28525 N 2778.83 1.51088 0.448349 0
M  V30 28526 C 2780.05 1.67283 1.22602 0
M  V30 28527 C 2780.48 0.365078 1.84523 0
M  V30 28528 O 2779.84 -0.673612 1.68322 0
M  V30 28529 C 2779.88 2.78233 2.29388 0
M  V30 28530 O 2778.99 2.41069 3.34604 0
M  V30 28531 H 2778.33 0.558136 0.359695 0
M  V30 28532 H 2780.86 1.97593 0.530868 0
M  V30 28533 H 2780.87 3.0199 2.74346 0
M  V30 28534 H 2779.54 3.73134 1.83694 0
M  V30 28535 H 2778.12 2.27843 2.95198 0
M  V30 28536 N 2780.31 -0.703068 1.41049 0
M  V30 28537 C 2781.24 -1.82967 1.4507 0
M  V30 28538 C 2782.22 -1.67248 0.310189 0
M  V30 28539 O 2783.4 -1.87092 0.52058 0
M  V30 28540 C 2780.53 -3.21038 1.32484 0
M  V30 28541 C 2779.49 -3.5145 2.44268 0
M  V30 28542 C 2778.81 -4.88798 2.16751 0
M  V30 28543 C 2780.11 -3.51182 3.86612 0
M  V30 28544 H 2781.81 -1.79858 2.39356 0
M  V30 28545 H 2779.35 -0.863899 1.15208 0
M  V30 28546 H 2781.31 -3.99557 1.33911 0
M  V30 28547 H 2780.03 -3.24754 0.346792 0
M  V30 28548 H 2778.69 -2.75277 2.42111 0
M  V30 28549 H 2778.34 -4.8913 1.17307 0
M  V30 28550 H 2778.04 -5.10111 2.91652 0
M  V30 28551 H 2779.56 -5.69635 2.19882 0
M  V30 28552 H 2780.97 -4.19718 3.90525 0
M  V30 28553 H 2779.37 -3.84025 4.61134 0
M  V30 28554 H 2780.44 -2.50308 4.153 0
M  V30 28555 N 2781.78 -1.26752 -0.936569 0
M  V30 28556 C 2783.2 -1.11412 -1.49814 0
M  V30 28557 C 2783.55 0.303981 -1.93831 0
M  V30 28558 O 2782.67 1.19597 -1.80348 0
M  V30 28559 C 2783.27 -2.01633 -2.72267 0
M  V30 28560 C 2781.83 -1.90425 -3.24677 0
M  V30 28561 C 2780.97 -1.94711 -1.9744 0
M  V30 28562 H 2783.92 -1.39775 -0.75158 0
M  V30 28563 H 2783.94 -1.56694 -3.46738 0
M  V30 28564 H 2783.46 -3.04837 -2.402 0
M  V30 28565 H 2781.56 -0.901738 -3.61524 0
M  V30 28566 H 2781.67 -2.76201 -3.91471 0
M  V30 28567 H 2780.03 -1.38822 -2.13543 0
M  V30 28568 H 2780.82 -2.99553 -1.67698 0
M  V30 28569 N 2783.26 1.1418 -1.08631 0
M  V30 28570 C 2784.49 1.8967 -0.839054 0
M  V30 28571 C 2784.91 1.78163 0.603301 0
M  V30 28572 O 2784.27 1.12342 1.42299 0
M  V30 28573 C 2784.32 3.37548 -1.2686 0
M  V30 28574 O 2783.42 4.10236 -0.421952 0
M  V30 28575 H 2782.76 0.590036 -0.304556 0
M  V30 28576 H 2785.29 1.44515 -1.44833 0
M  V30 28577 H 2785.3 3.88366 -1.25045 0
M  V30 28578 H 2783.98 3.45242 -2.31907 0
M  V30 28579 H 2782.56 3.69482 -0.503719 0
M  V30 28580 N 2784.74 0.872304 1.31258 0
M  V30 28581 C 2786.15 0.536649 1.78821 0
M  V30 28582 C 2786.5 -0.946564 1.71856 0
M  V30 28583 O 2785.63 -1.73916 1.28772 0
M  V30 28584 C 2786.22 0.967352 3.24696 0
M  V30 28585 C 2784.78 0.683316 3.70146 0
M  V30 28586 C 2783.93 1.15737 2.51992 0
M  V30 28587 H 2786.88 1.05779 1.18307 0
M  V30 28588 H 2786.9 0.290996 3.79386 0
M  V30 28589 H 2786.41 2.04689 3.29733 0
M  V30 28590 H 2784.51 -0.38476 3.70608 0
M  V30 28591 H 2784.63 1.26198 4.62181 0
M  V30 28592 H 2782.99 0.577067 2.48077 0
M  V30 28593 H 2783.77 2.24438 2.59774 0
M  V30 28594 N 2786.22 -1.44374 0.631976 0
M  V30 28595 C 2787.45 -2.06399 0.143903 0
M  V30 28596 C 2787.86 -1.47233 -1.18186 0
M  V30 28597 O 2787.22 -0.595528 -1.7251 0
M  V30 28598 C 2787.27 -3.61492 0.0238889 0
M  V30 28599 O 2786.99 -4.18454 1.29722 0
M  V30 28600 C 2788.49 -4.40553 -0.492779 0
M  V30 28601 H 2785.71 -0.666206 0.0800659 0
M  V30 28602 H 2788.26 -1.8523 0.866619 0
M  V30 28603 H 2786.41 -3.8192 -0.649271 0
M  V30 28604 H 2786.82 -5.11903 1.14261 0
M  V30 28605 H 2788.3 -5.4949 -0.525764 0
M  V30 28606 H 2788.78 -4.12059 -1.51999 0
M  V30 28607 H 2789.38 -4.25045 0.14716 0
M  V30 28608 N 2787.7 -0.372575 -1.53133 0
M  V30 28609 C 2788.92 0.218062 -2.0625 0
M  V30 28610 C 2789.35 1.41109 -1.24378 0
M  V30 28611 O 2788.7 1.79359 -0.264585 0
M  V30 28612 C 2788.75 0.582814 -3.55859 0
M  V30 28613 O 2787.86 1.6791 -3.7667 0
M  V30 28614 H 2787.2 0.0300924 -0.663318 0
M  V30 28615 H 2789.73 -0.535204 -1.97476 0
M  V30 28616 H 2789.74 0.851855 -3.99008 0
M  V30 28617 H 2788.41 -0.289501 -4.14891 0
M  V30 28618 H 2786.99 1.40507 -3.45416 0
M  V30 28619 N 2789.17 1.5727 -0.101929 0
M  V30 28620 C 2790.14 2.13249 0.840092 0
M  V30 28621 C 2791.14 1.06333 1.20623 0
M  V30 28622 O 2792.33 1.32188 1.13454 0
M  V30 28623 C 2789.46 2.6587 2.13368 0
M  V30 28624 H 2790.65 2.97805 0.353892 0
M  V30 28625 H 2788.21 1.55606 0.14714 0
M  V30 28626 H 2788.94 1.84854 2.66457 0
M  V30 28627 H 2788.73 3.44048 1.88079 0
M  V30 28628 H 2790.22 3.0915 2.80742 0
M  V30 28629 N 2790.65 -0.171793 1.56661 0
M  V30 28630 C 2792.06 -0.734299 1.71654 0
M  V30 28631 C 2792.41 -1.82811 0.712367 0
M  V30 28632 O 2791.54 -2.16031 -0.126363 0
M  V30 28633 C 2792.13 -1.33874 3.11228 0
M  V30 28634 C 2790.69 -1.84808 3.27907 0
M  V30 28635 C 2789.84 -0.72687 2.67604 0
M  V30 28636 H 2792.79 0.0535944 1.58609 0
M  V30 28637 H 2792.81 -2.20843 3.09853 0
M  V30 28638 H 2792.32 -0.542423 3.84291 0
M  V30 28639 H 2790.43 -2.67085 2.59801 0
M  V30 28640 H 2790.54 -1.99384 4.35641 0
M  V30 28641 H 2788.9 -1.14719 2.27402 0
M  V30 28642 H 2789.69 0.0575937 3.43252 0
M  V30 28643 N 2792.13 -1.51324 -0.44033 0
M  V30 28644 C 2793.54 -1.56355 -1.0203 0
M  V30 28645 C 2793.89 -0.385231 -1.92381 0
M  V30 28646 O 2793.02 0.498336 -2.10584 0
M  V30 28647 C 2793.61 -2.83363 -1.85718 0
M  V30 28648 C 2792.17 -2.90975 -2.38769 0
M  V30 28649 C 2791.32 -2.50986 -1.17904 0
M  V30 28650 H 2794.27 -1.57144 -0.221716 0
M  V30 28651 H 2794.29 -2.66956 -2.71136 0
M  V30 28652 H 2793.8 -3.69104 -1.19932 0
M  V30 28653 H 2791.9 -2.09656 -3.08018 0
M  V30 28654 H 2792.02 -3.9456 -2.71771 0
M  V30 28655 H 2790.38 -2.04116 -1.52344 0
M  V30 28656 H 2791.16 -3.39069 -0.537334 0
M  V30 28657 N 2793.61 0.695578 -1.41419 0
M  V30 28658 C 2794.86 1.45274 -1.40498 0
M  V30 28659 C 2795.18 1.94994 -0.0149881 0
M  V30 28660 O 2794.45 1.71701 0.94317 0
M  V30 28661 H 2793.03 0.539035 -0.517156 0
M  V30 28662 H 2795.69 0.82329 -1.76658 0
M  V30 28663 H 2794.79 2.31591 -2.09218 0
M  V30 28664 N 2795.09 1.27247 0.929833 0
M  V30 28665 C 2796.32 1.16268 1.71142 0
M  V30 28666 C 2796.73 -0.280753 1.86701 0
M  V30 28667 O 2796.09 -1.19134 1.38251 0
M  V30 28668 C 2796.14 1.83916 3.11219 0
M  V30 28669 O 2795.86 3.22619 2.96392 0
M  V30 28670 C 2797.36 1.79035 4.05538 0
M  V30 28671 H 2794.58 0.404338 0.535492 0
M  V30 28672 H 2797.12 1.68079 1.16489 0
M  V30 28673 H 2795.28 1.36015 3.62738 0
M  V30 28674 H 2795.69 3.56268 3.84933 0
M  V30 28675 H 2797.17 2.30987 5.01347 0
M  V30 28676 H 2797.64 0.759244 4.32588 0
M  V30 28677 H 2798.25 2.26541 3.59943 0
M  V30 28678 N 2796.57 -1.13603 1.09235 0
M  V30 28679 C 2797.98 -1.66388 0.846868 0
M  V30 28680 C 2798.33 -1.85979 -0.624998 0
M  V30 28681 O 2797.45 -1.57716 -1.48171 0
M  V30 28682 C 2798.05 -3.02247 1.53075 0
M  V30 28683 C 2796.61 -3.52032 1.3323 0
M  V30 28684 C 2795.75 -2.2732 1.5881 0
M  V30 28685 H 2798.7 -0.975519 1.25177 0
M  V30 28686 H 2798.73 -3.68119 0.962735 0
M  V30 28687 H 2798.24 -2.87957 2.60197 0
M  V30 28688 H 2796.34 -3.7153 0.282156 0
M  V30 28689 H 2796.45 -4.32276 2.06578 0
M  V30 28690 H 2794.82 -2.33814 1.01011 0
M  V30 28691 H 2795.6 -2.15597 2.67157 0
M  V30 28692 N 2798.04 -0.879253 -1.30793 0
M  V30 28693 C 2799.27 -0.509584 -2.00526 0
M  V30 28694 C 2799.69 0.900421 -1.65945 0
M  V30 28695 O 2799.04 1.59129 -0.893553 0
M  V30 28696 C 2799.09 -0.668005 -3.55274 0
M  V30 28697 O 2798.82 -2.02249 -3.88622 0
M  V30 28698 C 2800.32 -0.300572 -4.4228 0
M  V30 28699 H 2797.54 -0.19756 -0.641257 0
M  V30 28700 H 2800.08 -1.18298 -1.66811 0
M  V30 28701 H 2798.24 -0.0420524 -3.87377 0
M  V30 28702 H 2798.65 -2.03697 -4.8333 0
M  V30 28703 H 2800.12 -0.462339 -5.5006 0
M  V30 28704 H 2800.6 0.760984 -4.32557 0
M  V30 28705 H 2801.21 -0.902609 -4.15612 0
M  V30 28706 N 2799.52 1.44037 -0.639624 0
M  V30 28707 C 2800.45 2.28987 0.0987281 0
M  V30 28708 C 2801.47 1.41757 0.800555 0
M  V30 28709 O 2802.66 1.65827 0.660582 0
M  V30 28710 C 2799.76 3.18343 1.16236 0
M  V30 28711 C 2798.93 4.34037 0.541371 0
M  V30 28712 C 2797.99 5.04365 1.50008 0
M  V30 28713 O 2797.01 5.60096 1.01393 0
M  V30 28714 N 2798.22 5.06603 2.83432 0
M  V30 28715 H 2800.98 2.92996 -0.630356 0
M  V30 28716 H 2798.54 1.54577 -0.481403 0
M  V30 28717 H 2800.53 3.62256 1.80423 0
M  V30 28718 H 2799.1 2.56027 1.79357 0
M  V30 28719 H 2798.32 3.93209 -0.279299 0
M  V30 28720 H 2799.61 5.08687 0.10729 0
M  V30 28721 H 2799.01 4.62672 3.25502 0
M  V30 28722 H 2797.57 5.54278 3.42957 0
M  V30 28723 N 2801 0.380691 1.52933 0
M  V30 28724 C 2801.93 -0.493542 2.23823 0
M  V30 28725 C 2802.94 -1.03381 1.25763 0
M  V30 28726 O 2804.13 -0.937607 1.51892 0
M  V30 28727 C 2801.23 -1.69577 2.93423 0
M  V30 28728 C 2800.41 -1.28438 4.18118 0
M  V30 28729 C 2799.47 -2.35034 4.70792 0
M  V30 28730 O 2798.49 -1.96798 5.34097 0
M  V30 28731 N 2799.69 -3.66831 4.49906 0
M  V30 28732 H 2802.46 0.113762 2.99484 0
M  V30 28733 H 2800.02 0.206615 1.60576 0
M  V30 28734 H 2802.01 -2.40395 3.25565 0
M  V30 28735 H 2800.58 -2.20961 2.21122 0
M  V30 28736 H 2799.8 -0.405434 3.9211 0
M  V30 28737 H 2801.09 -0.986044 4.99154 0
M  V30 28738 H 2800.49 -4.00663 3.99356 0
M  V30 28739 H 2799.04 -4.33709 4.86559 0
M  V30 28740 N 2802.48 -1.57214 0.110268 0
M  V30 28741 C 2803.89 -1.81995 -0.416495 0
M  V30 28742 C 2804.24 -1.02688 -1.67181 0
M  V30 28743 O 2803.36 -0.26082 -2.14822 0
M  V30 28744 C 2803.96 -3.3011 -0.762408 0
M  V30 28745 C 2802.52 -3.55603 -1.23385 0
M  V30 28746 C 2801.67 -2.76276 -0.238117 0
M  V30 28747 H 2804.62 -1.55113 0.335518 0
M  V30 28748 H 2804.64 -3.44262 -1.62062 0
M  V30 28749 H 2804.15 -3.87805 0.151415 0
M  V30 28750 H 2802.25 -3.03256 -2.16486 0
M  V30 28751 H 2802.36 -4.64209 -1.1852 0
M  V30 28752 H 2800.73 -2.44212 -0.723378 0
M  V30 28753 H 2801.51 -3.36725 0.66865 0
M  V30 28754 N 2803.96 0.163482 -1.5675 0
M  V30 28755 C 2805.18 0.898231 -1.8694 0
M  V30 28756 C 2805.61 1.7469 -0.697486 0
M  V30 28757 O 2804.96 1.77824 0.353296 0
M  V30 28758 C 2805.01 1.74436 -3.15602 0
M  V30 28759 O 2804.12 2.84684 -2.98376 0
M  V30 28760 H 2803.46 0.251167 -0.614664 0
M  V30 28761 H 2805.99 0.159262 -2.03979 0
M  V30 28762 H 2806 2.14271 -3.47206 0
M  V30 28763 H 2804.67 1.12103 -4.00507 0
M  V30 28764 H 2803.25 2.48375 -2.78144 0
M  V30 28765 N 2805.43 1.51555 0.432299 0
M  V30 28766 C 2806.66 1.68288 1.20361 0
M  V30 28767 C 2807.08 0.382363 1.84888 0
M  V30 28768 O 2806.43 -0.639597 1.70925 0
M  V30 28769 C 2806.48 2.80212 2.28393 0
M  V30 28770 O 2806.21 4.05225 1.66505 0
M  V30 28771 C 2807.71 3.08257 3.18579 0
M  V30 28772 H 2804.93 0.564603 0.362581 0
M  V30 28773 H 2807.47 1.97997 0.511612 0
M  V30 28774 H 2805.63 2.53088 2.93301 0
M  V30 28775 H 2806.04 4.67422 2.37942 0
M  V30 28776 H 2807.51 3.90141 3.90504 0
M  V30 28777 H 2807.99 2.20867 3.79624 0
M  V30 28778 H 2808.6 3.3706 2.59366 0
M  V30 28779 N 2806.91 -0.688069 1.41786 0
M  V30 28780 C 2808.32 -1.26825 1.37012 0
M  V30 28781 C 2808.67 -1.96118 0.0568695 0
M  V30 28782 O 2807.8 -1.99232 -0.844715 0
M  V30 28783 C 2808.39 -2.30643 2.48172 0
M  V30 28784 C 2806.95 -2.8422 2.46771 0
M  V30 28785 C 2806.1 -1.58357 2.27636 0
M  V30 28786 H 2809.05 -0.482324 1.51193 0
M  V30 28787 H 2809.07 -3.12096 2.17661 0
M  V30 28788 H 2808.58 -1.80182 3.43738 0
M  V30 28789 H 2806.68 -3.38837 1.54984 0
M  V30 28790 H 2806.8 -3.34139 3.43348 0
M  V30 28791 H 2805.16 -1.84442 1.75651 0
M  V30 28792 H 2805.94 -1.09881 3.2524 0
M  V30 28793 N 2808.39 -1.27739 -0.923072 0
M  V30 28794 C 2809.32 -1.06661 -2.02869 0
M  V30 28795 C 2810.33 -0.0212381 -1.62786 0
M  V30 28796 O 2811.52 -0.263298 -1.76547 0
M  V30 28797 C 2808.62 -0.596879 -3.33602 0
M  V30 28798 C 2807.8 -1.71558 -4.02351 0
M  V30 28799 C 2806.86 -1.2408 -5.11361 0
M  V30 28800 O 2805.88 -1.94132 -5.35071 0
M  V30 28801 N 2807.08 -0.0989464 -5.80416 0
M  V30 28802 H 2809.85 -2.01873 -2.21512 0
M  V30 28803 H 2807.41 -1.19367 -1.09376 0
M  V30 28804 H 2809.4 -0.263055 -4.03844 0
M  V30 28805 H 2807.97 0.262132 -3.11499 0
M  V30 28806 H 2807.19 -2.21946 -3.25782 0
M  V30 28807 H 2808.48 -2.46627 -4.45031 0
M  V30 28808 H 2807.88 0.485644 -5.63612 0
M  V30 28809 H 2806.43 0.175666 -6.51563 0
M  V30 28810 N 2809.87 1.13022 -1.09836 0
M  V30 28811 C 2811.1 1.88228 -0.858935 0
M  V30 28812 C 2811.51 1.7934 0.590133 0
M  V30 28813 O 2810.87 1.16294 1.40648 0
M  V30 28814 C 2810.92 3.37673 -1.29072 0
M  V30 28815 O 2810.64 3.46337 -2.68296 0
M  V30 28816 C 2812.14 4.29835 -1.08429 0
M  V30 28817 H 2809.36 0.595761 -0.308724 0
M  V30 28818 H 2811.91 1.43047 -1.46143 0
M  V30 28819 H 2810.06 3.80421 -0.732028 0
M  V30 28820 H 2810.47 4.39269 -2.86605 0
M  V30 28821 H 2811.95 5.33004 -1.43563 0
M  V30 28822 H 2812.43 4.39194 -0.0224087 0
M  V30 28823 H 2813.03 3.9286 -1.62914 0
M  V30 28824 N 2811.35 0.886177 1.30325 0
M  V30 28825 C 2812.76 0.555585 1.78242 0
M  V30 28826 C 2813.11 -0.928283 1.72851 0
M  V30 28827 O 2812.23 -1.7254 1.3061 0
M  V30 28828 C 2812.83 1.00174 3.23652 0
M  V30 28829 C 2811.39 0.722536 3.694 0
M  V30 28830 C 2810.53 1.18404 2.50751 0
M  V30 28831 H 2813.49 1.07028 1.17178 0
M  V30 28832 H 2813.51 0.331218 3.79056 0
M  V30 28833 H 2813.02 2.08174 3.27544 0
M  V30 28834 H 2811.12 -0.345431 3.70995 0
M  V30 28835 H 2811.23 1.31093 4.60816 0
M  V30 28836 H 2809.6 0.603347 2.47451 0
M  V30 28837 H 2810.38 2.27181 2.57379 0
M  V30 28838 N 2812.82 -1.43695 0.647253 0
M  V30 28839 C 2813.76 -2.29036 -0.086583 0
M  V30 28840 C 2814.77 -1.42179 -0.793026 0
M  V30 28841 O 2815.96 -1.66175 -0.651778 0
M  V30 28842 C 2813.06 -3.18955 -1.14546 0
M  V30 28843 C 2812.23 -4.34318 -0.518345 0
M  V30 28844 C 2811.29 -5.05153 -1.47331 0
M  V30 28845 O 2810.32 -5.60626 -0.984214 0
M  V30 28846 N 2811.52 -5.08099 -2.80741 0
M  V30 28847 H 2814.28 -2.92657 0.645886 0
M  V30 28848 H 2811.84 -1.5432 0.489594 0
M  V30 28849 H 2813.84 -3.63208 -1.78499 0
M  V30 28850 H 2812.41 -2.56974 -1.77997 0
M  V30 28851 H 2811.63 -3.93056 0.300148 0
M  V30 28852 H 2812.91 -5.08737 -0.0803115 0
M  V30 28853 H 2812.31 -4.64392 -3.23043 0
M  V30 28854 H 2810.87 -5.56089 -3.40012 0
M  V30 28855 N 2814.3 -0.388796 -1.52729 0
M  V30 28856 C 2815.71 0.085346 -1.86505 0
M  V30 28857 C 2816.06 1.46194 -1.3085 0
M  V30 28858 O 2815.19 2.0673 -0.639645 0
M  V30 28859 C 2815.78 0.161644 -3.38414 0
M  V30 28860 C 2814.34 0.580078 -3.71903 0
M  V30 28861 C 2813.49 -0.258266 -2.76095 0
M  V30 28862 H 2816.44 -0.606691 -1.46646 0
M  V30 28863 H 2816.46 0.980871 -3.6764 0
M  V30 28864 H 2815.97 -0.8404 -3.78892 0
M  V30 28865 H 2814.08 1.58951 -3.36995 0
M  V30 28866 H 2814.19 0.338579 -4.77902 0
M  V30 28867 H 2812.55 0.276387 -2.53196 0
M  V30 28868 H 2813.34 -1.25828 -3.19409 0
M  V30 28869 N 2815.78 1.57153 -0.118604 0
M  V30 28870 C 2817.19 1.82213 0.406838 0
M  V30 28871 C 2817.54 1.03574 1.66634 0
M  V30 28872 O 2816.67 0.272209 2.14681 0
M  V30 28873 C 2817.26 3.3051 0.744891 0
M  V30 28874 C 2815.82 3.56252 1.21497 0
M  V30 28875 C 2814.97 2.76398 0.223462 0
M  V30 28876 H 2817.92 1.54933 -0.34374 0
M  V30 28877 H 2817.94 3.45117 1.60234 0
M  V30 28878 H 2817.45 3.87719 -0.171979 0
M  V30 28879 H 2815.55 3.044 2.14875 0
M  V30 28880 H 2815.67 4.64831 1.16057 0
M  V30 28881 H 2814.03 2.44592 0.710417 0
M  V30 28882 H 2814.81 3.36366 -0.686498 0
M  V30 28883 N 2817.26 -0.155167 1.56834 0
M  V30 28884 C 2818.22 -1.17568 1.9675 0
M  V30 28885 C 2819.22 -1.36309 0.85303 0
M  V30 28886 O 2820.41 -1.3344 1.1198 0
M  V30 28887 C 2817.54 -2.53761 2.27635 0
M  V30 28888 H 2818.74 -0.833448 2.88086 0
M  V30 28889 H 2816.29 -0.398215 1.51142 0
M  V30 28890 H 2817.02 -2.9297 1.39065 0
M  V30 28891 H 2816.81 -2.41522 3.08885 0
M  V30 28892 H 2818.3 -3.27277 2.59383 0
M  V30 28893 N 2818.74 -1.51782 -0.424256 0
M  V30 28894 C 2819.67 -1.70249 -1.53454 0
M  V30 28895 C 2820.68 -0.582993 -1.52003 0
M  V30 28896 O 2821.87 -0.857711 -1.56543 0
M  V30 28897 C 2818.97 -1.71394 -2.92365 0
M  V30 28898 C 2818.14 -3.00139 -3.18175 0
M  V30 28899 C 2817.2 -2.93298 -4.36879 0
M  V30 28900 O 2816.23 -3.67227 -4.34894 0
M  V30 28901 N 2817.43 -2.10046 -5.41166 0
M  V30 28902 H 2820.2 -2.66031 -1.38012 0
M  V30 28903 H 2817.76 -1.49831 -0.613368 0
M  V30 28904 H 2819.75 -1.64369 -3.69818 0
M  V30 28905 H 2818.32 -0.831502 -3.01338 0
M  V30 28906 H 2817.54 -3.20932 -2.28903 0
M  V30 28907 H 2818.83 -3.85337 -3.32254 0
M  V30 28908 H 2818.22 -1.49383 -5.4562 0
M  V30 28909 H 2816.78 -2.08889 -6.17421 0
M  V30 28910 N 2820.21 0.68054 -1.42149 0
M  V30 28911 C 2821.63 1.26097 -1.37683 0
M  V30 28912 C 2821.98 1.96085 -0.0672693 0
M  V30 28913 O 2821.1 1.99678 0.834137 0
M  V30 28914 C 2821.7 2.29324 -2.49391 0
M  V30 28915 C 2820.26 2.82907 -2.48275 0
M  V30 28916 C 2819.4 1.57148 -2.28473 0
M  V30 28917 H 2822.35 0.474299 -1.51447 0
M  V30 28918 H 2822.37 3.10937 -2.19313 0
M  V30 28919 H 2821.89 1.78357 -3.44689 0
M  V30 28920 H 2819.99 3.38011 -1.56779 0
M  V30 28921 H 2820.1 3.32314 -3.45115 0
M  V30 28922 H 2818.46 1.83508 -1.76627 0
M  V30 28923 H 2819.25 1.08155 -3.25818 0
M  V30 28924 N 2821.69 1.28226 0.916285 0
M  V30 28925 C 2822.62 1.07736 2.02301 0
M  V30 28926 C 2823.64 0.0298707 1.62773 0
M  V30 28927 O 2824.83 0.272657 1.76405 0
M  V30 28928 C 2821.93 0.614562 3.33281 0
M  V30 28929 C 2821.1 1.73689 4.01436 0
M  V30 28930 C 2820.16 1.2679 5.10696 0
M  V30 28931 O 2819.18 1.96967 5.34034 0
M  V30 28932 N 2820.39 0.129726 5.80355 0
M  V30 28933 H 2823.15 2.03045 2.20438 0
M  V30 28934 H 2820.71 1.19945 1.08742 0
M  V30 28935 H 2822.7 0.284468 4.03699 0
M  V30 28936 H 2821.27 -0.245609 3.11634 0
M  V30 28937 H 2820.49 2.2367 3.246 0
M  V30 28938 H 2821.78 2.48983 4.43717 0
M  V30 28939 H 2821.18 -0.455748 5.63861 0
M  V30 28940 H 2819.74 -0.141109 6.51647 0
M  V30 28941 N 2823.17 -1.12438 1.10433 0
M  V30 28942 C 2824.58 -1.65481 0.864468 0
M  V30 28943 C 2824.93 -1.86631 -0.605237 0
M  V30 28944 O 2824.06 -1.59279 -1.46489 0
M  V30 28945 C 2824.65 -3.00607 1.56272 0
M  V30 28946 C 2823.21 -3.506 1.36956 0
M  V30 28947 C 2822.36 -2.25623 1.61213 0
M  V30 28948 H 2825.31 -0.962187 1.26205 0
M  V30 28949 H 2825.33 -3.67077 1.00172 0
M  V30 28950 H 2824.84 -2.85181 2.63237 0
M  V30 28951 H 2822.94 -3.7121 0.321546 0
M  V30 28952 H 2823.06 -4.30061 2.11151 0
M  V30 28953 H 2821.42 -2.32729 1.03486 0
M  V30 28954 H 2822.2 -2.12751 2.69429 0
M  V30 28955 N 2824.65 -0.893076 -1.29853 0
M  V30 28956 C 2825.87 -0.530101 -2.00511 0
M  V30 28957 C 2826.3 0.876169 -1.66448 0
M  V30 28958 O 2825.66 1.58206 -0.885474 0
M  V30 28959 C 2825.71 -0.721567 -3.53307 0
M  V30 28960 O 2824.81 0.228922 -4.11764 0
M  V30 28961 H 2824.15 -0.207902 -0.630613 0
M  V30 28962 H 2826.68 -1.20285 -1.65508 0
M  V30 28963 H 2826.69 -0.623669 -4.03205 0
M  V30 28964 H 2825.37 -1.74684 -3.77436 0
M  V30 28965 H 2823.94 0.0840379 -3.72805 0
M  V30 28966 N 2826.13 1.4335 -0.654865 0
M  V30 28967 C 2827.54 1.85038 -0.248538 0
M  V30 28968 C 2827.89 1.54818 1.20523 0
M  V30 28969 O 2827.01 0.997974 1.92014 0
M  V30 28970 C 2827.61 3.35874 -0.4443 0
M  V30 28971 C 2826.17 3.76287 -0.0922769 0
M  V30 28972 C 2825.32 2.67067 -0.746374 0
M  V30 28973 H 2828.27 1.3348 -0.858423 0
M  V30 28974 H 2828.29 3.79238 0.309696 0
M  V30 28975 H 2827.8 3.57838 -1.50246 0
M  V30 28976 H 2825.9 3.59935 0.963217 0
M  V30 28977 H 2826.01 4.76282 -0.51889 0
M  V30 28978 H 2824.38 2.54067 -0.179461 0
M  V30 28979 H 2825.16 2.91858 -1.80759 0
M  V30 28980 N 2827.61 0.39689 1.52521 0
M  V30 28981 C 2828.85 -0.183133 2.01971 0
M  V30 28982 C 2829.18 -1.45825 1.28253 0
M  V30 28983 O 2828.46 -1.90647 0.385212 0
M  V30 28984 C 2828.74 -0.443328 3.57361 0
M  V30 28985 C 2828.6 0.847608 4.41742 0
M  V30 28986 C 2829.91 -1.23072 4.22541 0
M  V30 28987 H 2827.03 -0.0650847 0.734121 0
M  V30 28988 H 2829.68 0.52795 1.82518 0
M  V30 28989 H 2827.83 -1.04907 3.74068 0
M  V30 28990 H 2829.5 1.48422 4.36771 0
M  V30 28991 H 2827.74 1.46128 4.08447 0
M  V30 28992 H 2828.41 0.620099 5.48506 0
M  V30 28993 H 2830.89 -0.718012 4.09858 0
M  V30 28994 H 2829.76 -1.38152 5.3123 0
M  V30 28995 H 2830.02 -2.24802 3.80679 0
M  V30 28996 N 2829.08 -1.57088 0.126936 0
M  V30 28997 C 2830.31 -2.00249 -0.539935 0
M  V30 28998 C 2830.73 -1.00621 -1.58925 0
M  V30 28999 O 2830.09 0.0209812 -1.81288 0
M  V30 29000 C 2830.14 -3.42252 -1.13559 0
M  V30 29001 O 2829.24 -3.45551 -2.25097 0
M  V30 29002 H 2828.58 -0.650316 -0.134108 0
M  V30 29003 H 2831.11 -2.03438 0.217753 0
M  V30 29004 H 2831.12 -3.8063 -1.46919 0
M  V30 29005 H 2829.8 -4.14277 -0.367049 0
M  V30 29006 H 2828.38 -3.18999 -1.93117 0
M  V30 29007 N 2830.56 0.146848 -1.56914 0
M  V30 29008 C 2831.49 1.21084 -1.93427 0
M  V30 29009 C 2832.47 1.41551 -0.800131 0
M  V30 29010 O 2833.66 1.56161 -1.05575 0
M  V30 29011 C 2830.78 2.56971 -2.20643 0
M  V30 29012 C 2829.83 2.53098 -3.43284 0
M  V30 29013 S 2830.66 1.99778 -4.96839 0
M  V30 29014 C 2831.82 3.37394 -5.27178 0
M  V30 29015 H 2832.05 0.899328 -2.83371 0
M  V30 29016 H 2829.58 0.352468 -1.50323 0
M  V30 29017 H 2831.54 3.35171 -2.37004 0
M  V30 29018 H 2830.2 2.85312 -1.31363 0
M  V30 29019 H 2829.4 3.53129 -3.59605 0
M  V30 29020 H 2829 1.83007 -3.26166 0
M  V30 29021 H 2831.29 4.33503 -5.20654 0
M  V30 29022 H 2832.23 3.25926 -6.28632 0
M  V30 29023 H 2832.64 3.34536 -4.54693 0
M  V30 29024 N 2832.04 1.52005 0.4162 0
M  V30 29025 C 2833.26 1.69846 1.19026 0
M  V30 29026 C 2833.69 0.404136 1.83707 0
M  V30 29027 O 2833.05 -0.637757 1.69713 0
M  V30 29028 C 2833.1 2.83036 2.23434 0
M  V30 29029 O 2832.2 2.48112 3.29415 0
M  V30 29030 H 2831.54 0.56564 0.347775 0
M  V30 29031 H 2834.07 1.98674 0.488836 0
M  V30 29032 H 2834.08 3.07742 2.67879 0
M  V30 29033 H 2832.76 3.76947 1.75738 0
M  V30 29034 H 2831.33 2.34053 2.90299 0
M  V30 29035 N 2833.52 -0.672992 1.42508 0
M  V30 29036 C 2834.93 -1.25365 1.38349 0
M  V30 29037 C 2835.28 -1.96046 0.0776672 0
M  V30 29038 O 2834.4 -2.00117 -0.823536 0
M  V30 29039 C 2835 -2.27998 2.50604 0
M  V30 29040 C 2833.56 -2.81586 2.49772 0
M  V30 29041 C 2832.71 -1.55934 2.29303 0
M  V30 29042 H 2835.66 -0.466261 1.51696 0
M  V30 29043 H 2835.68 -3.0977 2.20959 0
M  V30 29044 H 2835.19 -1.76526 3.4563 0
M  V30 29045 H 2833.29 -3.37175 1.58569 0
M  V30 29046 H 2833.4 -3.30479 3.46873 0
M  V30 29047 H 2831.77 -1.82569 1.77597 0
M  V30 29048 H 2832.55 -1.06425 3.26387 0
M  V30 29049 N 2835 -1.2871 -0.909472 0
M  V30 29050 C 2835.96 -1.13019 -1.99397 0
M  V30 29051 C 2836.96 -0.0685643 -1.60654 0
M  V30 29052 O 2838.15 -0.314701 -1.71334 0
M  V30 29053 C 2835.28 -0.726144 -3.33077 0
M  V30 29054 H 2836.47 -2.09341 -2.14747 0
M  V30 29055 H 2834.03 -1.11758 -1.0927 0
M  V30 29056 H 2834.76 0.237653 -3.23428 0
M  V30 29057 H 2834.55 -1.49308 -3.6256 0
M  V30 29058 H 2836.04 -0.639131 -4.1268 0
M  V30 29059 N 2836.47 1.1185 -1.11028 0
M  V30 29060 C 2837.72 1.83133 -0.854801 0
M  V30 29061 C 2838.04 1.84836 0.621342 0
M  V30 29062 O 2837.31 1.31587 1.45127 0
M  V30 29063 H 2835.89 0.678151 -0.313241 0
M  V30 29064 H 2838.55 1.35409 -1.4018 0
M  V30 29065 H 2837.65 2.87133 -1.22316 0
M  V30 29066 N 2837.95 0.89995 1.29378 0
M  V30 29067 C 2839.2 0.525997 1.95549 0
M  V30 29068 C 2839.53 -0.927759 1.70947 0
M  V30 29069 O 2838.78 -1.67291 1.01548 0
M  V30 29070 C 2839.08 0.765175 3.49113 0
M  V30 29071 C 2838.75 2.19633 3.93792 0
M  V30 29072 C 2837.41 2.58765 4.05702 0
M  V30 29073 C 2839.76 3.1283 4.16877 0
M  V30 29074 C 2837.09 3.90274 4.38067 0
M  V30 29075 C 2839.44 4.43888 4.50717 0
M  V30 29076 C 2838.1 4.82893 4.60837 0
M  V30 29077 H 2837.37 0.192476 0.715566 0
M  V30 29078 H 2840.02 1.13865 1.5397 0
M  V30 29079 H 2838.33 0.0695998 3.91738 0
M  V30 29080 H 2840.02 0.455214 3.98408 0
M  V30 29081 H 2836.61 1.88263 3.85039 0
M  V30 29082 H 2840.8 2.83812 4.07142 0
M  V30 29083 H 2836.05 4.20215 4.44105 0
M  V30 29084 H 2840.23 5.16129 4.67529 0
M  V30 29085 H 2837.85 5.84832 4.85671 0
M  V30 29086 N 2839.43 -1.43001 0.662458 0
M  V30 29087 C 2840.84 -1.84904 0.258348 0
M  V30 29088 C 2841.19 -1.55455 -1.197 0
M  V30 29089 O 2840.32 -1.00814 -1.91482 0
M  V30 29090 C 2840.91 -3.35634 0.462106 0
M  V30 29091 C 2839.47 -3.76233 0.112231 0
M  V30 29092 C 2838.62 -2.66667 0.760526 0
M  V30 29093 H 2841.57 -1.33022 0.86549 0
M  V30 29094 H 2841.59 -3.79396 -0.289579 0
M  V30 29095 H 2841.1 -3.57036 1.52141 0
M  V30 29096 H 2839.2 -3.6044 -0.944115 0
M  V30 29097 H 2839.32 -4.76 0.544142 0
M  V30 29098 H 2837.68 -2.53968 0.192932 0
M  V30 29099 H 2838.46 -2.90895 1.82304 0
M  V30 29100 N 2840.91 -0.404973 -1.52308 0
M  V30 29101 C 2842.13 0.174264 -2.06667 0
M  V30 29102 C 2842.56 1.38439 -1.27343 0
M  V30 29103 O 2841.92 1.78757 -0.302571 0
M  V30 29104 C 2841.96 0.5072 -3.57015 0
M  V30 29105 O 2841.07 1.59883 -3.80146 0
M  V30 29106 H 2840.41 0.0160156 -0.663807 0
M  V30 29107 H 2842.94 -0.576971 -1.96296 0
M  V30 29108 H 2842.95 0.767027 -4.00725 0
M  V30 29109 H 2841.62 -0.37744 -4.14184 0
M  V30 29110 H 2840.2 1.33149 -3.48318 0
M  V30 29111 N 2842.39 1.57018 -0.135265 0
M  V30 29112 C 2843.63 1.96032 0.519529 0
M  V30 29113 C 2843.97 1.01958 1.65282 0
M  V30 29114 O 2843.24 0.0597611 1.94408 0
M  V30 29115 C 2843.52 3.4485 1.03684 0
M  V30 29116 C 2843.38 4.49701 -0.0941544 0
M  V30 29117 C 2844.7 3.9589 1.92247 0
M  V30 29118 H 2841.81 0.712782 0.187378 0
M  V30 29119 H 2844.46 1.8879 -0.214119 0
M  V30 29120 H 2842.61 3.51153 1.66203 0
M  V30 29121 H 2844.28 4.55486 -0.73008 0
M  V30 29122 H 2842.52 4.27179 -0.754999 0
M  V30 29123 H 2843.19 5.51133 0.309322 0
M  V30 29124 H 2845.67 3.91993 1.39574 0
M  V30 29125 H 2844.54 5.00506 2.25355 0
M  V30 29126 H 2844.81 3.37548 2.85507 0
M  V30 29127 N 2843.86 -0.138524 1.5699 0
M  V30 29128 C 2844.83 -1.15474 1.97986 0
M  V30 29129 C 2845.83 -1.35396 0.86744 0
M  V30 29130 O 2847.02 -1.32244 1.13389 0
M  V30 29131 C 2844.15 -2.51333 2.30314 0
M  V30 29132 H 2845.34 -0.802845 2.88954 0
M  V30 29133 H 2842.9 -0.382162 1.51556 0
M  V30 29134 H 2843.63 -2.91479 1.42164 0
M  V30 29135 H 2843.42 -2.38232 3.11429 0
M  V30 29136 H 2844.91 -3.24508 2.62839 0
M  V30 29137 N 2845.34 -1.52224 -0.408133 0
M  V30 29138 C 2846.76 -1.41049 -0.746825 0
M  V30 29139 C 2846.96 -0.515764 -1.94787 0
M  V30 29140 O 2846.01 0.0180712 -2.52494 0
M  V30 29141 C 2847.33 -2.83591 -0.999828 0
M  V30 29142 C 2848.88 -2.92941 -1.10248 0
M  V30 29143 C 2849.35 -4.36454 -1.38824 0
M  V30 29144 N 2850.84 -4.39693 -1.45687 0
M  V30 29145 C 2851.58 -5.47798 -1.69426 0
M  V30 29146 N 2851.07 -6.66019 -1.90762 0
M  V30 29147 N 2852.87 -5.35315 -1.71448 0
M  V30 29148 H 2845.02 -2.08928 0.382446 0
M  V30 29149 H 2847.28 -0.941733 0.108824 0
M  V30 29150 H 2846.99 -3.51188 -0.189662 0
M  V30 29151 H 2846.86 -3.24694 -1.91972 0
M  V30 29152 H 2849.25 -2.25524 -1.90324 0
M  V30 29153 H 2849.33 -2.55293 -0.160928 0
M  V30 29154 H 2848.97 -5.0443 -0.592653 0
M  V30 29155 H 2848.9 -4.71638 -2.34233 0
M  V30 29156 H 2851.39 -3.54474 -1.30983 0
M  V30 29157 H 2851.71 -7.4419 -2.08329 0
M  V30 29158 H 2850.05 -6.69083 -1.88025 0
M  V30 29159 H 2853.24 -4.41932 -1.54318 0
M  V30 29160 H 2853.41 -6.19639 -1.8961 0
M  V30 29161 N 2846.82 0.665425 -1.42863 0
M  V30 29162 C 2848.05 1.45346 -1.47248 0
M  V30 29163 C 2848.46 1.88601 -0.0866275 0
M  V30 29164 O 2847.82 1.58729 0.900624 0
M  V30 29165 C 2847.87 2.69646 -2.40777 0
M  V30 29166 O 2847.59 2.28203 -3.73972 0
M  V30 29167 C 2849.09 3.63121 -2.54279 0
M  V30 29168 H 2846.31 0.446918 -0.500505 0
M  V30 29169 H 2848.86 0.816838 -1.87478 0
M  V30 29170 H 2847.01 3.29476 -2.03775 0
M  V30 29171 H 2847.43 3.08539 -4.24151 0
M  V30 29172 H 2848.9 4.47037 -3.23823 0
M  V30 29173 H 2849.38 4.09653 -1.58371 0
M  V30 29174 H 2849.98 3.0918 -2.92041 0
M  V30 29175 N 2848.3 1.29191 0.902633 0
M  V30 29176 C 2849.23 1.09875 2.01147 0
M  V30 29177 C 2850.24 0.0471332 1.62732 0
M  V30 29178 O 2851.43 0.291351 1.76106 0
M  V30 29179 C 2848.53 0.649876 3.32611 0
M  V30 29180 C 2847.71 1.77937 3.99571 0
M  V30 29181 C 2846.76 1.322 5.09323 0
M  V30 29182 O 2845.79 2.0262 5.31915 0
M  V30 29183 N 2846.99 0.191273 5.80185 0
M  V30 29184 H 2849.76 2.05371 2.18272 0
M  V30 29185 H 2847.32 1.21092 1.07463 0
M  V30 29186 H 2849.31 0.32727 4.03375 0
M  V30 29187 H 2847.88 -0.212542 3.11877 0
M  V30 29188 H 2847.1 2.27101 3.22209 0
M  V30 29189 H 2848.39 2.53676 4.41051 0
M  V30 29190 H 2847.79 -0.395917 5.64313 0
M  V30 29191 H 2846.34 -0.0719855 6.5176 0
M  V30 29192 N 2849.78 -1.1126 1.1162 0
M  V30 29193 C 2851.19 -1.64554 0.881971 0
M  V30 29194 C 2851.54 -1.87263 -0.585409 0
M  V30 29195 O 2850.66 -1.60824 -1.44792 0
M  V30 29196 C 2851.26 -2.98932 1.59452 0
M  V30 29197 C 2849.82 -3.49127 1.40667 0
M  V30 29198 C 2848.96 -2.23901 1.63597 0
M  V30 29199 H 2851.92 -0.948747 1.27218 0
M  V30 29200 H 2851.94 -3.65994 1.0406 0
M  V30 29201 H 2851.45 -2.82373 2.66246 0
M  V30 29202 H 2849.55 -3.70848 0.3609 0
M  V30 29203 H 2849.66 -4.27797 2.15701 0
M  V30 29204 H 2848.03 -2.31618 1.05948 0
M  V30 29205 H 2848.81 -2.09882 2.7167 0
M  V30 29206 N 2851.25 -0.906798 -1.28899 0
M  V30 29207 C 2852.67 -0.583871 -1.77335 0
M  V30 29208 C 2853.02 0.900667 -1.74306 0
M  V30 29209 O 2852.14 1.7044 -1.33338 0
M  V30 29210 C 2852.74 -1.0531 -3.22017 0
M  V30 29211 C 2851.3 -0.781213 -3.68204 0
M  V30 29212 C 2850.44 -1.22378 -2.48835 0
M  V30 29213 H 2853.39 -1.08879 -1.1546 0
M  V30 29214 H 2853.41 -0.391481 -3.78481 0
M  V30 29215 H 2852.93 -2.13359 -3.24191 0
M  V30 29216 H 2851.03 0.286365 -3.71498 0
M  V30 29217 H 2851.14 -1.38408 -4.58672 0
M  V30 29218 H 2849.5 -0.642637 -2.46459 0
M  V30 29219 H 2850.29 -2.31247 -2.53732 0
M  V30 29220 N 2852.73 1.42648 -0.670032 0
M  V30 29221 C 2853.96 2.05945 -0.198576 0
M  V30 29222 C 2854.38 1.50315 1.1424 0
M  V30 29223 O 2853.73 0.641057 1.7087 0
M  V30 29224 C 2853.78 3.61302 -0.119724 0
M  V30 29225 O 2853.5 4.14868 -1.40771 0
M  V30 29226 C 2855.01 4.41704 0.375801 0
M  V30 29227 H 2852.23 0.663849 -0.0977011 0
M  V30 29228 H 2854.77 1.82867 -0.915424 0
M  V30 29229 H 2852.92 3.83508 0.547783 0
M  V30 29230 H 2853.34 5.08694 -1.27793 0
M  V30 29231 H 2854.81 5.50691 0.379891 0
M  V30 29232 H 2855.29 4.15944 1.41021 0
M  V30 29233 H 2855.9 4.24506 -0.259801 0
M  V30 29234 N 2854.21 0.413044 1.52091 0
M  V30 29235 C 2855.44 -0.160845 2.06274 0
M  V30 29236 C 2855.85 -1.38531 1.28275 0
M  V30 29237 O 2855.21 -1.79387 0.335662 0
M  V30 29238 C 2855.26 -0.50738 3.57922 0
M  V30 29239 O 2854.98 0.668464 4.3297 0
M  V30 29240 C 2856.48 -1.13458 4.28535 0
M  V30 29241 H 2853.7 -0.0186642 0.67074 0
M  V30 29242 H 2856.25 0.585127 1.9595 0
M  V30 29243 H 2854.4 -1.20325 3.6824 0
M  V30 29244 H 2854.82 0.378261 5.23134 0
M  V30 29245 H 2856.29 -1.32723 5.35807 0
M  V30 29246 H 2856.77 -2.10879 3.85262 0
M  V30 29247 H 2857.37 -0.478802 4.22596 0
M  V30 29248 N 2855.69 -1.56945 0.143591 0
M  V30 29249 C 2856.94 -1.96305 -0.509125 0
M  V30 29250 C 2857.27 -1.02833 -1.64739 0
M  V30 29251 O 2856.54 -0.0700702 -1.94374 0
M  V30 29252 C 2856.83 -3.45395 -1.01854 0
M  V30 29253 C 2856.68 -4.49645 0.118002 0
M  V30 29254 C 2858 -3.96904 -1.90144 0
M  V30 29255 H 2855.12 -0.713766 -0.183595 0
M  V30 29256 H 2857.76 -1.88673 0.224128 0
M  V30 29257 H 2855.91 -3.5203 -1.64339 0
M  V30 29258 H 2857.58 -4.55092 0.754225 0
M  V30 29259 H 2855.82 -4.26773 0.777643 0
M  V30 29260 H 2856.5 -5.51289 -0.28009 0
M  V30 29261 H 2858.97 -3.92727 -1.37493 0
M  V30 29262 H 2857.85 -5.01694 -2.22698 0
M  V30 29263 H 2858.11 -3.39057 -2.83712 0
M  V30 29264 N 2857.17 0.130197 -1.57061 0
M  V30 29265 C 2858.39 0.858376 -1.88803 0
M  V30 29266 C 2858.82 1.73172 -0.734384 0
M  V30 29267 O 2858.18 1.78534 0.315497 0
M  V30 29268 C 2858.22 1.67702 -3.19231 0
M  V30 29269 O 2857.33 2.78291 -3.04348 0
M  V30 29270 H 2856.67 0.238072 -0.619853 0
M  V30 29271 H 2859.2 0.115959 -2.04271 0
M  V30 29272 H 2859.21 2.06858 -3.51673 0
M  V30 29273 H 2857.88 1.03583 -4.02795 0
M  V30 29274 H 2856.46 2.4242 -2.8335 0
M  V30 29275 N 2858.65 1.52438 0.400055 0
M  V30 29276 C 2859.87 1.70803 1.16765 0
M  V30 29277 C 2860.29 0.421494 1.84035 0
M  V30 29278 O 2859.65 -0.603198 1.72243 0
M  V30 29279 C 2859.7 2.84994 2.22398 0
M  V30 29280 O 2859.42 4.08666 1.57872 0
M  V30 29281 C 2860.92 3.14945 3.11969 0
M  V30 29282 H 2858.14 0.572167 0.350523 0
M  V30 29283 H 2860.68 1.99038 0.469499 0
M  V30 29284 H 2858.84 2.59252 2.87866 0
M  V30 29285 H 2859.25 4.72364 2.27974 0
M  V30 29286 H 2860.73 3.98337 3.82141 0
M  V30 29287 H 2861.2 2.2887 3.74854 0
M  V30 29288 H 2861.81 3.42485 2.52159 0
M  V30 29289 N 2860.12 -0.657839 1.43214 0
M  V30 29290 C 2861.37 -1.41498 1.44301 0
M  V30 29291 C 2861.69 -1.94886 0.0666821 0
M  V30 29292 O 2860.96 -1.74141 -0.897315 0
M  V30 29293 H 2859.54 -0.525134 0.531266 0
M  V30 29294 H 2862.2 -0.776163 1.78778 0
M  V30 29295 H 2861.3 -2.25963 2.15284 0
M  V30 29296 N 2861.6 -1.29668 -0.895769 0
M  V30 29297 C 2862.55 -1.15132 -2.00033 0
M  V30 29298 C 2863.52 -0.0436111 -1.66043 0
M  V30 29299 O 2864.7 -0.211844 -1.8962 0
M  V30 29300 C 2861.84 -0.837929 -3.34773 0
M  V30 29301 C 2860.96 -2.02646 -3.81521 0
M  V30 29302 C 2860.09 -1.6521 -5.04855 0
M  V30 29303 C 2859.13 -2.80622 -5.43983 0
M  V30 29304 N 2858.27 -2.43555 -6.58502 0
M  V30 29305 H 2863.11 -2.09632 -2.11798 0
M  V30 29306 H 2860.64 -1.04313 -1.03717 0
M  V30 29307 H 2862.6 -0.636896 -4.1231 0
M  V30 29308 H 2861.23 0.0701746 -3.22724 0
M  V30 29309 H 2860.28 -2.33908 -2.99985 0
M  V30 29310 H 2861.6 -2.89113 -4.06467 0
M  V30 29311 H 2860.75 -1.41419 -5.89988 0
M  V30 29312 H 2859.49 -0.758977 -4.81758 0
M  V30 29313 H 2858.49 -3.05091 -4.57383 0
M  V30 29314 H 2859.72 -3.70605 -5.6906 0
M  V30 29315 H 2857.67 -1.56735 -6.37001 0
M  V30 29316 H 2857.58 -3.23555 -6.83263 0
M  V30 29317 H 2858.85 -2.23093 -7.46893 0
M  V30 29318 N 2863.08 1.10667 -1.12208 0
M  V30 29319 C 2864.49 1.64084 -0.890685 0
M  V30 29320 C 2864.84 1.87571 0.575469 0
M  V30 29321 O 2863.97 1.61589 1.43937 0
M  V30 29322 C 2864.56 2.98083 -1.61035 0
M  V30 29323 C 2863.12 3.48376 -1.42516 0
M  V30 29324 C 2862.27 2.2303 -1.64782 0
M  V30 29325 H 2865.22 0.941987 -1.2772 0
M  V30 29326 H 2865.24 3.65437 -1.06 0
M  V30 29327 H 2864.75 2.80957 -2.6774 0
M  V30 29328 H 2862.85 3.70651 -0.380562 0
M  V30 29329 H 2862.97 4.26647 -2.17966 0
M  V30 29330 H 2861.33 2.31053 -1.07175 0
M  V30 29331 H 2862.11 2.08438 -2.72779 0
M  V30 29332 N 2864.56 0.913621 1.28416 0
M  V30 29333 C 2865.79 0.562571 1.99105 0
M  V30 29334 C 2866.2 -0.856107 1.68274 0
M  V30 29335 O 2865.56 -1.56703 0.935429 0
M  V30 29336 C 2865.61 0.761965 3.53378 0
M  V30 29337 O 2865.33 2.12482 3.83123 0
M  V30 29338 C 2866.83 0.417729 4.41327 0
M  V30 29339 H 2864.05 0.214492 0.635794 0
M  V30 29340 H 2866.59 1.22679 1.63616 0
M  V30 29341 H 2864.75 0.144744 3.8713 0
M  V30 29342 H 2865.16 2.1644 4.77759 0
M  V30 29343 H 2866.64 0.608015 5.48641 0
M  V30 29344 H 2867.11 -0.646031 4.34423 0
M  V30 29345 H 2867.72 1.01248 4.13072 0
M  V30 29346 N 2866.04 -1.4229 0.677588 0
M  V30 29347 C 2867.26 -2.06355 0.207938 0
M  V30 29348 C 2867.69 -1.50585 -1.1272 0
M  V30 29349 O 2867.04 -0.62546 -1.7017 0
M  V30 29350 C 2867.09 -3.6026 0.156552 0
M  V30 29351 O 2866.2 -4.0303 -0.874091 0
M  V30 29352 H 2865.54 -0.655474 0.106068 0
M  V30 29353 H 2868.07 -1.82375 0.927386 0
M  V30 29354 H 2868.08 -4.07996 -0.018654 0
M  V30 29355 H 2866.75 -4.00224 1.13108 0
M  V30 29356 H 2865.33 -3.66837 -0.6697 0
M  V30 29357 N 2867.51 -0.421104 -1.5187 0
M  V30 29358 C 2868.45 0.434025 -2.25053 0
M  V30 29359 C 2869.46 1.0001 -1.28459 0
M  V30 29360 O 2870.65 0.897005 -1.54325 0
M  V30 29361 C 2867.75 1.61738 -2.97815 0
M  V30 29362 C 2866.92 1.17307 -4.21376 0
M  V30 29363 C 2865.98 2.22469 -4.76858 0
M  V30 29364 O 2865.01 1.82568 -5.39127 0
M  V30 29365 N 2866.21 3.54774 -4.59473 0
M  V30 29366 H 2868.97 -0.193125 -2.99077 0
M  V30 29367 H 2866.53 -0.249116 -1.59972 0
M  V30 29368 H 2868.53 2.31679 -3.31824 0
M  V30 29369 H 2867.1 2.1502 -2.26903 0
M  V30 29370 H 2866.32 0.301331 -3.93047 0
M  V30 29371 H 2867.6 0.853356 -5.01593 0
M  V30 29372 H 2867 3.89934 -4.09839 0
M  V30 29373 H 2865.56 4.20656 -4.97887 0
M  V30 29374 N 2868.99 1.56866 -0.151912 0
M  V30 29375 C 2870.24 1.96573 0.498707 0
M  V30 29376 C 2870.57 1.03705 1.64192 0
M  V30 29377 O 2869.85 0.0803774 1.94334 0
M  V30 29378 C 2870.13 3.4593 1.00021 0
M  V30 29379 C 2869.98 4.49576 -0.141846 0
M  V30 29380 C 2871.3 3.97907 1.88037 0
M  V30 29381 H 2868.42 0.71473 0.179807 0
M  V30 29382 H 2871.06 1.88552 -0.23413 0
M  V30 29383 H 2869.21 3.52896 1.6247 0
M  V30 29384 H 2870.88 4.54686 -0.778349 0
M  V30 29385 H 2869.13 4.26355 -0.800265 0
M  V30 29386 H 2869.8 5.5143 0.25085 0
M  V30 29387 H 2872.27 3.93451 1.35409 0
M  V30 29388 H 2871.15 5.02868 2.20034 0
M  V30 29389 H 2871.41 3.40557 2.8191 0
M  V30 29390 N 2870.47 -0.121866 1.57128 0
M  V30 29391 C 2871.88 -0.679317 1.73903 0
M  V30 29392 C 2872.23 -1.80452 0.770166 0
M  V30 29393 O 2871.36 -2.16323 -0.0575703 0
M  V30 29394 C 2871.95 -1.23905 3.1533 0
M  V30 29395 C 2870.51 -1.74282 3.33621 0
M  V30 29396 C 2869.66 -0.641366 2.69781 0
M  V30 29397 H 2872.61 0.104028 1.58359 0
M  V30 29398 H 2872.63 -2.10874 3.16722 0
M  V30 29399 H 2872.14 -0.419889 3.85822 0
M  V30 29400 H 2870.24 -2.58684 2.68166 0
M  V30 29401 H 2870.36 -1.85424 4.41763 0
M  V30 29402 H 2868.72 -1.07426 2.30937 0
M  V30 29403 H 2869.5 0.166767 3.42895 0
M  V30 29404 N 2871.95 -1.52648 -0.391965 0
M  V30 29405 C 2872.91 -1.76573 -1.46132 0
M  V30 29406 C 2873.91 -0.635724 -1.477 0
M  V30 29407 O 2875.1 -0.903754 -1.48923 0
M  V30 29408 C 2872.23 -1.86379 -2.85439 0
M  V30 29409 H 2873.43 -2.72053 -1.26203 0
M  V30 29410 H 2870.98 -1.43324 -0.623523 0
M  V30 29411 H 2871.71 -0.92874 -3.10717 0
M  V30 29412 H 2871.5 -2.68544 -2.85703 0
M  V30 29413 H 2872.99 -2.06572 -3.62929 0
M  V30 29414 N 2873.43 0.650235 -1.43561 0
M  V30 29415 C 2874.84 1.23148 -1.40326 0
M  V30 29416 C 2875.19 1.95898 -0.108847 0
M  V30 29417 O 2874.31 2.01402 0.791595 0
M  V30 29418 C 2874.91 2.23982 -2.54199 0
M  V30 29419 C 2873.47 2.77577 -2.5422 0
M  V30 29420 C 2872.61 1.52266 -2.31755 0
M  V30 29421 H 2875.57 0.442069 -1.52419 0
M  V30 29422 H 2875.59 3.06216 -2.25859 0
M  V30 29423 H 2875.1 1.71005 -3.48395 0
M  V30 29424 H 2873.2 3.34609 -1.63913 0
M  V30 29425 H 2873.31 3.24919 -3.52086 0
M  V30 29426 H 2871.68 1.7972 -1.80479 0
M  V30 29427 H 2872.46 1.01219 -3.28039 0
M  V30 29428 N 2874.9 1.30141 0.88888 0
M  V30 29429 C 2876.32 1.16896 1.45576 0
M  V30 29430 C 2876.67 -0.231832 1.94826 0
M  V30 29431 O 2875.79 -1.12821 1.84663 0
M  V30 29432 C 2876.39 2.11599 2.64596 0
M  V30 29433 C 2874.95 2.02344 3.17386 0
M  V30 29434 C 2874.09 2.01905 1.90078 0
M  V30 29435 H 2877.04 1.42468 0.699185 0
M  V30 29436 H 2877.06 1.69455 3.40684 0
M  V30 29437 H 2876.58 3.13542 2.2872 0
M  V30 29438 H 2874.68 1.03529 3.57928 0
M  V30 29439 H 2874.79 2.9054 3.8095 0
M  V30 29440 H 2873.15 1.46652 2.08243 0
M  V30 29441 H 2873.94 3.05571 1.56465 0
M  V30 29442 N 2876.38 -1.1007 1.12794 0
M  V30 29443 C 2877.79 -1.6361 0.899375 0
M  V30 29444 C 2878.14 -1.87873 -0.565514 0
M  V30 29445 O 2877.27 -1.6235 -1.43078 0
M  V30 29446 C 2877.86 -2.97224 1.62613 0
M  V30 29447 C 2876.42 -3.47616 1.44362 0
M  V30 29448 C 2875.57 -2.22153 1.65962 0
M  V30 29449 H 2878.52 -0.935201 1.28217 0
M  V30 29450 H 2878.54 -3.6487 1.07936 0
M  V30 29451 H 2878.05 -2.79533 2.69226 0
M  V30 29452 H 2876.16 -3.70444 0.400213 0
M  V30 29453 H 2876.27 -4.25485 2.20226 0
M  V30 29454 H 2874.63 -2.30482 1.08399 0
M  V30 29455 H 2875.42 -2.06988 2.73881 0
M  V30 29456 N 2877.86 -0.920419 -1.2793 0
M  V30 29457 C 2879.27 -0.602647 -1.76706 0
M  V30 29458 C 2879.62 0.882129 -1.75251 0
M  V30 29459 O 2878.75 1.69016 -1.35138 0
M  V30 29460 C 2879.34 -1.08719 -3.20882 0
M  V30 29461 C 2877.9 -0.820222 -3.67354 0
M  V30 29462 C 2877.05 -1.2501 -2.47523 0
M  V30 29463 H 2880 -1.10097 -1.14299 0
M  V30 29464 H 2880.02 -0.431602 -3.78044 0
M  V30 29465 H 2879.53 -2.16786 -3.21909 0
M  V30 29466 H 2877.63 0.246946 -3.71781 0
M  V30 29467 H 2877.75 -1.43265 -4.57178 0
M  V30 29468 H 2876.11 -0.668742 -2.45764 0
M  V30 29469 H 2876.89 -2.33925 -2.51265 0
M  V30 29470 N 2879.34 1.41929 -0.685124 0
M  V30 29471 C 2880.3 2.29189 -0.0223035 0
M  V30 29472 C 2881.3 1.43851 0.718575 0
M  V30 29473 O 2882.49 1.65121 0.555029 0
M  V30 29474 C 2879.62 3.26541 0.978955 0
M  V30 29475 H 2880.82 2.89295 -0.790475 0
M  V30 29476 H 2878.37 1.49741 -0.448038 0
M  V30 29477 H 2879.1 2.71395 1.77526 0
M  V30 29478 H 2878.89 3.89498 0.450969 0
M  V30 29479 H 2880.38 3.91956 1.44084 0
M  V30 29480 N 2880.82 0.429152 1.51644 0
M  V30 29481 C 2881.75 -0.422084 2.2528 0
M  V30 29482 C 2882.76 -0.993276 1.28988 0
M  V30 29483 O 2883.95 -0.888809 1.54798 0
M  V30 29484 C 2881.05 -1.60156 2.98669 0
M  V30 29485 C 2880.22 -1.15071 4.21992 0
M  V30 29486 C 2879.28 -2.19937 4.78031 0
M  V30 29487 O 2878.31 -1.79706 5.40087 0
M  V30 29488 N 2879.51 -3.52332 4.61348 0
M  V30 29489 H 2882.28 0.208983 2.9897 0
M  V30 29490 H 2879.84 0.257597 1.59838 0
M  V30 29491 H 2881.83 -2.29916 3.33048 0
M  V30 29492 H 2880.4 -2.13814 2.2804 0
M  V30 29493 H 2879.62 -0.280482 3.93201 0
M  V30 29494 H 2880.91 -0.826743 5.02038 0
M  V30 29495 H 2880.3 -3.87755 4.11901 0
M  V30 29496 H 2878.86 -4.1801 5.00111 0
M  V30 29497 N 2882.29 -1.56783 0.160229 0
M  V30 29498 C 2883.71 -1.83228 -0.358384 0
M  V30 29499 C 2884.06 -1.07955 -1.6383 0
M  V30 29500 O 2883.18 -0.329032 -2.13884 0
M  V30 29501 C 2883.78 -3.32369 -0.657 0
M  V30 29502 C 2882.34 -3.59348 -1.12009 0
M  V30 29503 C 2881.48 -2.76893 -0.150102 0
M  V30 29504 H 2884.43 -1.53967 0.384696 0
M  V30 29505 H 2884.45 -3.49244 -1.51027 0
M  V30 29506 H 2883.97 -3.87126 0.274715 0
M  V30 29507 H 2882.07 -3.0999 -2.06729 0
M  V30 29508 H 2882.18 -4.67744 -1.03692 0
M  V30 29509 H 2880.54 -2.46389 -0.645318 0
M  V30 29510 H 2881.33 -3.34428 0.775438 0
M  V30 29511 N 2883.77 0.113531 -1.57191 0
M  V30 29512 C 2885.18 0.670085 -1.74261 0
M  V30 29513 C 2885.54 1.80041 -0.779725 0
M  V30 29514 O 2884.66 2.16351 0.0460973 0
M  V30 29515 C 2885.26 1.22231 -3.15983 0
M  V30 29516 C 2883.81 1.7251 -3.3454 0
M  V30 29517 C 2882.96 0.62705 -2.70117 0
M  V30 29518 H 2885.91 -0.112424 -1.58301 0
M  V30 29519 H 2885.93 2.09191 -3.17835 0
M  V30 29520 H 2885.45 0.399422 -3.86039 0
M  V30 29521 H 2883.55 2.57259 -2.69534 0
M  V30 29522 H 2883.66 1.83078 -4.4274 0
M  V30 29523 H 2882.02 1.062 -2.31503 0
M  V30 29524 H 2882.81 -0.18495 -3.42801 0
M  V30 29525 N 2885.25 1.52854 0.383864 0
M  V30 29526 C 2886.66 1.60034 0.961562 0
M  V30 29527 C 2887.01 0.456366 1.90819 0
M  V30 29528 O 2886.14 -0.419836 2.12288 0
M  V30 29529 C 2886.73 2.9006 1.75073 0
M  V30 29530 C 2885.29 2.99636 2.27805 0
M  V30 29531 C 2884.44 2.55189 1.08507 0
M  V30 29532 H 2887.39 1.57858 0.163241 0
M  V30 29533 H 2887.41 2.76835 2.61041 0
M  V30 29534 H 2886.92 3.73301 1.0615 0
M  V30 29535 H 2885.02 2.20944 3.00024 0
M  V30 29536 H 2885.14 4.04374 2.5694 0
M  V30 29537 H 2883.5 2.0963 1.44663 0
M  V30 29538 H 2884.28 3.40829 0.41112 0
M  V30 29539 N 2886.73 -0.642612 1.43904 0
M  V30 29540 C 2887.69 -1.73696 1.49541 0
M  V30 29541 C 2888.69 -1.56275 0.378803 0
M  V30 29542 O 2889.88 -1.61979 0.640978 0
M  V30 29543 C 2887.01 -3.12672 1.35826 0
M  V30 29544 H 2888.21 -1.70075 2.47011 0
M  V30 29545 H 2885.76 -0.855237 1.30826 0
M  V30 29546 H 2886.5 -3.21897 0.394051 0
M  V30 29547 H 2886.28 -3.26723 2.16782 0
M  V30 29548 H 2887.77 -3.92452 1.42727 0
M  V30 29549 N 2888.21 -1.30611 -0.881966 0
M  V30 29550 C 2889.17 -1.17223 -1.96955 0
M  V30 29551 C 2890.17 -0.102626 -1.60472 0
M  V30 29552 O 2891.36 -0.350973 -1.70628 0
M  V30 29553 C 2888.49 -0.796631 -3.31461 0
M  V30 29554 H 2889.69 -2.13849 -2.10258 0
M  V30 29555 H 2887.24 -1.1405 -1.06875 0
M  V30 29556 H 2887.97 0.168996 -3.23859 0
M  V30 29557 H 2887.76 -1.56965 -3.59311 0
M  V30 29558 H 2889.25 -0.726522 -4.11232 0
M  V30 29559 N 2889.69 1.0947 -1.13376 0
M  V30 29560 C 2890.93 1.81906 -0.896548 0
M  V30 29561 C 2891.26 1.85464 0.5759 0
M  V30 29562 O 2890.54 1.32254 1.42616 0
M  V30 29563 C 2890.82 3.28077 -1.48451 0
M  V30 29564 C 2890.68 3.32793 -3.02604 0
M  V30 29565 C 2891.99 4.24746 -1.15233 0
M  V30 29566 H 2889.11 0.660416 -0.327138 0
M  V30 29567 H 2891.76 1.28237 -1.40197 0
M  V30 29568 H 2889.91 3.7391 -1.05467 0
M  V30 29569 H 2891.58 2.95365 -3.5434 0
M  V30 29570 H 2889.82 2.72391 -3.37618 0
M  V30 29571 H 2890.49 4.35764 -3.38842 0
M  V30 29572 H 2892.97 3.87196 -1.52376 0
M  V30 29573 H 2891.84 5.2536 -1.59021 0
M  V30 29574 H 2892.1 4.42051 -0.0659668 0
M  V30 29575 N 2891.16 0.92719 1.2744 0
M  V30 29576 C 2892.07 0.431488 2.30598 0
M  V30 29577 C 2893.09 -0.48758 1.67029 0
M  V30 29578 O 2894.27 -0.370512 1.97963 0
M  V30 29579 C 2891.33 -0.308231 3.45327 0
M  V30 29580 C 2890.39 0.64569 4.24416 0
M  V30 29581 C 2889.62 -0.0588226 5.33668 0
M  V30 29582 O 2889.85 -1.27828 5.55892 0
M  V30 29583 O 2888.78 0.612743 5.98773 0
M  V30 29584 H 2892.61 1.28802 2.75034 0
M  V30 29585 H 2890.19 0.692518 1.3238 0
M  V30 29586 H 2892.07 -0.725482 4.15108 0
M  V30 29587 H 2890.75 -1.14038 3.02947 0
M  V30 29588 H 2889.66 1.11261 3.57172 0
M  V30 29589 H 2890.99 1.44504 4.7051 0
M  V30 29590 N 2892.64 -1.41564 0.692641 0
M  V30 29591 C 2893.6 -2.29174 0.0344577 0
M  V30 29592 C 2894.6 -1.4423 -0.710936 0
M  V30 29593 O 2895.79 -1.65413 -0.546264 0
M  V30 29594 C 2892.93 -3.27056 -0.961624 0
M  V30 29595 H 2894.12 -2.88872 0.805806 0
M  V30 29596 H 2891.67 -1.49501 0.455973 0
M  V30 29597 H 2892.41 -2.72332 -1.76084 0
M  V30 29598 H 2892.19 -3.89732 -0.430306 0
M  V30 29599 H 2893.68 -3.92715 -1.42003 0
M  V30 29600 N 2894.12 -0.437188 -1.51415 0
M  V30 29601 C 2895.08 0.362689 -2.26312 0
M  V30 29602 C 2896.08 0.949824 -1.2975 0
M  V30 29603 O 2897.27 0.824298 -1.53463 0
M  V30 29604 C 2894.4 1.51314 -3.05478 0
M  V30 29605 H 2895.6 -0.293703 -2.98458 0
M  V30 29606 H 2893.15 -0.190354 -1.55137 0
M  V30 29607 H 2893.89 2.20559 -2.37748 0
M  V30 29608 H 2893.67 1.09831 -3.76403 0
M  V30 29609 H 2895.16 2.07827 -3.62212 0
M  V30 29610 N 2895.6 1.56696 -0.168541 0
M  V30 29611 C 2897.01 1.58493 0.187658 0
M  V30 29612 C 2897.21 1.18378 1.63061 0
M  V30 29613 O 2896.27 0.894083 2.36141 0
M  V30 29614 C 2897.58 3.00563 -0.0906386 0
M  V30 29615 C 2899.13 3.12987 -0.02863 0
M  V30 29616 C 2899.61 4.57144 -0.279879 0
M  V30 29617 N 2901.1 4.62641 -0.227558 0
M  V30 29618 C 2901.83 5.7203 -0.396174 0
M  V30 29619 N 2901.33 6.89987 -0.623694 0
M  V30 29620 N 2903.12 5.61117 -0.332272 0
M  V30 29621 H 2895.27 1.8106 -1.11045 0
M  V30 29622 H 2897.53 0.839048 -0.44125 0
M  V30 29623 H 2897.24 3.34379 -1.09012 0
M  V30 29624 H 2897.11 3.72086 0.619012 0
M  V30 29625 H 2899.5 2.78999 0.961422 0
M  V30 29626 H 2899.58 2.43906 -0.770948 0
M  V30 29627 H 2899.23 4.9184 -1.26713 0
M  V30 29628 H 2899.16 5.2438 0.483017 0
M  V30 29629 H 2901.65 3.77857 -0.0572387 0
M  V30 29630 H 2901.96 7.69231 -0.741881 0
M  V30 29631 H 2900.31 6.91856 -0.660275 0
M  V30 29632 H 2903.5 4.67843 -0.155133 0
M  V30 29633 H 2903.67 6.46314 -0.467108 0
M  V30 29634 N 2897.08 -0.105193 1.57249 0
M  V30 29635 C 2898.01 -1.15432 1.9801 0
M  V30 29636 C 2899.02 -1.36886 0.88126 0
M  V30 29637 O 2900.21 -1.35716 1.15946 0
M  V30 29638 C 2897.31 -2.51179 2.27513 0
M  V30 29639 C 2896.48 -2.50141 3.58815 0
M  V30 29640 C 2895.54 -3.67738 3.76371 0
M  V30 29641 O 2894.57 -3.50691 4.48335 0
M  V30 29642 N 2895.77 -4.86835 3.16183 0
M  V30 29643 H 2898.53 -0.807469 2.88617 0
M  V30 29644 H 2896.1 -0.294302 1.59203 0
M  V30 29645 H 2898.09 -3.28433 2.3646 0
M  V30 29646 H 2896.66 -2.77993 1.42964 0
M  V30 29647 H 2895.88 -1.58503 3.6093 0
M  V30 29648 H 2897.17 -2.46516 4.45093 0
M  V30 29649 H 2896.56 -5.03589 2.5771 0
M  V30 29650 H 2895.12 -5.61718 3.30631 0
M  V30 29651 N 2898.55 -1.53055 -0.375752 0
M  V30 29652 C 2899.8 -1.67966 -1.11671 0
M  V30 29653 C 2900.12 -0.432689 -1.90754 0
M  V30 29654 O 2901.32 -0.462156 -2.67538 0
M  V30 29655 C 2899.78 -2.96888 -2.03435 0
M  V30 29656 C 2899.39 -4.28811 -1.29711 0
M  V30 29657 C 2901.13 -3.21165 -2.77585 0
M  V30 29658 C 2899.04 -5.4883 -2.20318 0
M  V30 29659 H 2897.97 -0.625798 -0.420586 0
M  V30 29660 H 2900.62 -1.79555 -0.378467 0
M  V30 29661 H 2899 -2.79077 -2.80949 0
M  V30 29662 H 2900.17 -4.5722 -0.573314 0
M  V30 29663 H 2898.49 -4.10898 -0.674663 0
M  V30 29664 H 2901.09 -4.08016 -3.45583 0
M  V30 29665 H 2901.43 -2.36795 -3.42394 0
M  V30 29666 H 2901.96 -3.39603 -2.07158 0
M  V30 29667 H 2898.7 -6.35647 -1.60102 0
M  V30 29668 H 2898.22 -5.24715 -2.90576 0
M  V30 29669 H 2899.9 -5.83224 -2.80105 0
M  V30 29670 N 2900.03 0.634971 -1.44242 0
M  V30 29671 C 2900.94 1.77588 -1.53296 0
M  V30 29672 C 2901.96 1.68883 -0.418861 0
M  V30 29673 O 2903.13 1.89728 -0.675652 0
M  V30 29674 C 2900.2 3.13956 -1.47081 0
M  V30 29675 C 2899.26 3.34321 -2.6931 0
M  V30 29676 C 2898.49 4.64183 -2.63382 0
M  V30 29677 O 2898.72 5.44736 -1.69171 0
M  V30 29678 O 2897.65 4.86666 -3.54174 0
M  V30 29679 H 2901.48 1.72904 -2.49676 0
M  V30 29680 H 2899.06 0.795723 -1.26446 0
M  V30 29681 H 2900.94 3.95254 -1.46124 0
M  V30 29682 H 2899.62 3.19191 -0.538429 0
M  V30 29683 H 2898.53 2.52716 -2.75836 0
M  V30 29684 H 2899.86 3.33945 -3.61582 0
M  V30 29685 N 2901.51 1.31076 0.875027 0
M  V30 29686 C 2902.93 1.09624 1.15995 0
M  V30 29687 C 2903.13 -0.136575 2.01037 0
M  V30 29688 O 2902.18 -0.827355 2.3856 0
M  V30 29689 C 2903.5 2.36509 1.85698 0
M  V30 29690 C 2905.04 2.42071 1.98421 0
M  V30 29691 C 2905.52 3.68824 2.71538 0
M  V30 29692 N 2907.01 3.69689 2.79077 0
M  V30 29693 C 2907.74 4.6446 3.36251 0
M  V30 29694 N 2907.24 5.69582 3.94396 0
M  V30 29695 N 2909.03 4.51988 3.34161 0
M  V30 29696 H 2901.18 2.10152 0.308221 0
M  V30 29697 H 2903.45 0.92685 0.199129 0
M  V30 29698 H 2903.15 3.26529 1.30658 0
M  V30 29699 H 2903.03 2.4592 2.86013 0
M  V30 29700 H 2905.41 1.52523 2.52628 0
M  V30 29701 H 2905.5 2.36628 0.971641 0
M  V30 29702 H 2905.14 4.58736 2.18 0
M  V30 29703 H 2905.07 3.71531 3.73192 0
M  V30 29704 H 2907.56 2.93696 2.37805 0
M  V30 29705 H 2907.87 6.37982 4.36118 0
M  V30 29706 H 2906.22 5.73362 3.92786 0
M  V30 29707 H 2909.41 3.6904 2.87971 0
M  V30 29708 H 2909.58 5.26024 3.78421 0
M  V30 29709 N 2902.99 -1.08867 1.13955 0
M  V30 29710 C 2903.9 -2.1921 0.835705 0
M  V30 29711 C 2904.91 -1.73046 -0.181975 0
M  V30 29712 O 2906.09 -2.01397 -0.0116307 0
M  V30 29713 C 2903.16 -3.4529 0.312386 0
M  V30 29714 C 2902.22 -4.06105 1.39203 0
M  V30 29715 C 2901.45 -5.26166 0.893589 0
M  V30 29716 O 2901.67 -5.69776 -0.266707 0
M  V30 29717 O 2900.61 -5.78255 1.67047 0
M  V30 29718 H 2904.43 -2.47664 1.75774 0
M  V30 29719 H 2902.02 -1.17913 0.917442 0
M  V30 29720 H 2903.9 -4.21392 0.0262323 0
M  V30 29721 H 2902.57 -3.18425 -0.581986 0
M  V30 29722 H 2901.48 -3.31613 1.73158 0
M  V30 29723 H 2902.81 -4.37208 2.26075 0
M  V30 29724 N 2904.47 -0.933936 -1.26946 0
M  V30 29725 C 2905.43 -0.442497 -2.24888 0
M  V30 29726 C 2906.43 0.442399 -1.54595 0
M  V30 29727 O 2907.62 0.242599 -1.72502 0
M  V30 29728 C 2904.75 0.363114 -3.38961 0
M  V30 29729 H 2905.94 -1.30792 -2.69877 0
M  V30 29730 H 2903.5 -0.715211 -1.38976 0
M  V30 29731 H 2904.23 1.24709 -2.99363 0
M  V30 29732 H 2904.02 -0.271435 -3.91159 0
M  V30 29733 H 2905.51 0.697114 -4.1174 0
M  V30 29734 N 2905.94 1.41194 -0.700139 0
M  V30 29735 C 2906.88 2.292 0.00151795 0
M  V30 29736 C 2907.89 1.45025 0.739711 0
M  V30 29737 O 2909.08 1.68479 0.589654 0
M  V30 29738 C 2906.18 3.22987 1.0263 0
M  V30 29739 C 2905.35 4.35942 0.356794 0
M  V30 29740 C 2904.41 5.10273 1.28482 0
M  V30 29741 O 2903.44 5.63893 0.775463 0
M  V30 29742 N 2904.64 5.18169 2.6169 0
M  V30 29743 H 2907.4 2.90059 -0.754059 0
M  V30 29744 H 2904.96 1.52396 -0.546531 0
M  V30 29745 H 2906.96 3.69583 1.64896 0
M  V30 29746 H 2905.53 2.63404 1.68337 0
M  V30 29747 H 2904.75 3.91671 -0.445821 0
M  V30 29748 H 2906.03 5.08684 -0.108558 0
M  V30 29749 H 2905.43 4.76061 3.05585 0
M  V30 29750 H 2903.99 5.68325 3.19139 0
M  V30 29751 N 2907.42 0.445212 1.51181 0
M  V30 29752 C 2908.35 -0.398166 2.25715 0
M  V30 29753 C 2909.37 -0.979539 1.30034 0
M  V30 29754 O 2910.56 -0.87234 1.55732 0
M  V30 29755 C 2907.66 -1.5698 3.00351 0
M  V30 29756 C 2906.83 -1.10589 4.23189 0
M  V30 29757 C 2905.89 -2.14855 4.80337 0
M  V30 29758 O 2904.91 -1.73968 5.41963 0
M  V30 29759 N 2906.12 -3.47419 4.65059 0
M  V30 29760 H 2908.88 0.240682 2.98732 0
M  V30 29761 H 2906.44 0.274535 1.59555 0
M  V30 29762 H 2908.43 -2.2637 3.35468 0
M  V30 29763 H 2907 -2.11383 2.30295 0
M  V30 29764 H 2906.22 -0.238762 3.93476 0
M  V30 29765 H 2907.51 -0.773449 5.02887 0
M  V30 29766 H 2906.91 -3.83365 4.1599 0
M  V30 29767 H 2905.47 -4.12682 5.04516 0
M  V30 29768 N 2908.9 -1.56605 0.176849 0
M  V30 29769 C 2909.83 -2.15418 -0.782798 0
M  V30 29770 C 2910.85 -1.11119 -1.18981 0
M  V30 29771 O 2912.03 -1.38285 -1.1287 0
M  V30 29772 C 2909.13 -2.6865 -2.06592 0
M  V30 29773 C 2908.31 -3.97664 -1.8216 0
M  V30 29774 C 2907.37 -4.35905 -2.94743 0
M  V30 29775 O 2906.39 -5.03676 -2.65139 0
M  V30 29776 N 2907.59 -3.97914 -4.22663 0
M  V30 29777 H 2910.36 -2.9839 -0.279959 0
M  V30 29778 H 2907.92 -1.61899 -0.00574683 0
M  V30 29779 H 2909.91 -2.91228 -2.81013 0
M  V30 29780 H 2908.48 -1.90236 -2.4805 0
M  V30 29781 H 2907.7 -3.83406 -0.91614 0
M  V30 29782 H 2908.99 -4.81912 -1.63211 0
M  V30 29783 H 2908.39 -3.43365 -4.49574 0
M  V30 29784 H 2906.95 -4.25481 -4.9377 0
M  V30 29785 N 2910.38 0.0968524 -1.57302 0
M  V30 29786 C 2911.31 1.14381 -1.9862 0
M  V30 29787 C 2912.32 1.36416 -0.888507 0
M  V30 29788 O 2913.51 1.35099 -1.16664 0
M  V30 29789 C 2910.61 2.49969 -2.28842 0
M  V30 29790 C 2909.79 2.48234 -3.60137 0
M  V30 29791 C 2908.84 3.65737 -3.78316 0
M  V30 29792 O 2907.87 3.48308 -4.50189 0
M  V30 29793 N 2909.07 4.85152 -3.1876 0
M  V30 29794 H 2911.84 0.792151 -2.89042 0
M  V30 29795 H 2909.4 0.285855 -1.59356 0
M  V30 29796 H 2911.39 3.27175 -2.38199 0
M  V30 29797 H 2909.96 2.77231 -1.44436 0
M  V30 29798 H 2909.18 1.56587 -3.61765 0
M  V30 29799 H 2910.47 2.44152 -4.46394 0
M  V30 29800 H 2909.87 5.02216 -2.60377 0
M  V30 29801 H 2908.42 5.59956 -3.33605 0
M  V30 29802 N 2911.86 1.53252 0.36763 0
M  V30 29803 C 2912.81 1.75926 1.45031 0
M  V30 29804 C 2913.79 0.613746 1.48735 0
M  V30 29805 O 2914.98 0.87234 1.5401 0
M  V30 29806 C 2912.11 1.95075 2.8249 0
M  V30 29807 C 2911.2 3.15622 2.83273 0
M  V30 29808 N 2911.59 4.3757 2.53705 0
M  V30 29809 C 2909.89 3.16302 3.14434 0
M  V30 29810 C 2910.59 5.19299 2.62114 0
M  V30 29811 N 2909.56 4.55463 2.96739 0
M  V30 29812 H 2913.37 2.67822 1.2103 0
M  V30 29813 H 2910.88 1.5185 0.575796 0
M  V30 29814 H 2912.88 2.09446 3.60469 0
M  V30 29815 H 2911.54 1.04405 3.07457 0
M  V30 29816 H 2912.55 4.65337 2.27336 0
M  V30 29817 H 2909.22 2.35517 3.44729 0
M  V30 29818 H 2910.61 6.26567 2.42617 0
M  V30 29819 N 2913.34 -0.627313 1.44577 0
M  V30 29820 C 2914.27 -1.7502 1.54565 0
M  V30 29821 C 2915.25 -1.65368 0.398407 0
M  V30 29822 O 2916.43 -1.8407 0.619022 0
M  V30 29823 C 2913.56 -3.13564 1.49315 0
M  V30 29824 C 2912.52 -3.38008 2.62555 0
M  V30 29825 C 2911.84 -4.76621 2.42356 0
M  V30 29826 C 2913.14 -3.30195 4.04684 0
M  V30 29827 H 2914.84 -1.66918 2.48553 0
M  V30 29828 H 2912.38 -0.801615 1.19625 0
M  V30 29829 H 2914.33 -3.91897 1.54902 0
M  V30 29830 H 2913.06 -3.22459 0.518449 0
M  V30 29831 H 2911.72 -2.62057 2.56363 0
M  V30 29832 H 2911.37 -4.82224 1.4307 0
M  V30 29833 H 2911.07 -4.93934 3.18282 0
M  V30 29834 H 2912.59 -5.57179 2.49768 0
M  V30 29835 H 2914 -3.98427 4.12224 0
M  V30 29836 H 2912.4 -3.59041 4.80842 0
M  V30 29837 H 2913.47 -2.27941 4.27984 0
M  V30 29838 N 2914.81 -1.31539 -0.868063 0
M  V30 29839 C 2916.04 -1.2412 -1.6516 0
M  V30 29840 C 2916.45 0.195525 -1.88187 0
M  V30 29841 O 2915.79 1.13863 -1.44156 0
M  V30 29842 C 2915.86 -1.91714 -3.04115 0
M  V30 29843 C 2915.52 -3.41055 -3.04188 0
M  V30 29844 C 2916.52 -4.36769 -2.82008 0
M  V30 29845 C 2914.2 -3.82777 -3.25249 0
M  V30 29846 C 2916.2 -5.7218 -2.80871 0
M  V30 29847 C 2913.88 -5.18301 -3.2374 0
M  V30 29848 C 2914.88 -6.12813 -3.01578 0
M  V30 29849 O 2914.57 -7.45858 -2.99917 0
M  V30 29850 H 2914.3 -0.430024 -0.521589 0
M  V30 29851 H 2916.86 -1.73991 -1.09162 0
M  V30 29852 H 2915.09 -1.36395 -3.61847 0
M  V30 29853 H 2916.77 -1.78185 -3.64698 0
M  V30 29854 H 2917.54 -4.05864 -2.65517 0
M  V30 29855 H 2913.42 -3.09644 -3.41529 0
M  V30 29856 H 2916.96 -6.45924 -2.63492 0
M  V30 29857 H 2912.86 -5.4884 -3.39771 0
M  V30 29858 H 2913.63 -7.55055 -3.15966 0
M  V30 29859 N 2916.29 1.08262 -1.1453 0
M  V30 29860 C 2917.71 1.32749 -0.886 0
M  V30 29861 C 2917.91 1.95892 0.472062 0
M  V30 29862 O 2916.96 2.2129 1.21602 0
M  V30 29863 C 2918.28 2.2276 -2.01986 0
M  V30 29864 C 2919.82 2.36236 -2.05333 0
M  V30 29865 C 2920.3 3.2959 -3.18016 0
M  V30 29866 N 2921.79 3.37168 -3.17604 0
M  V30 29867 C 2922.53 4.09437 -4.01434 0
M  V30 29868 N 2922.02 4.84401 -4.95306 0
M  V30 29869 N 2923.81 4.05283 -3.89489 0
M  V30 29870 H 2915.97 0.656572 -2.01997 0
M  V30 29871 H 2918.23 0.351869 -0.88028 0
M  V30 29872 H 2917.93 1.8361 -2.99967 0
M  V30 29873 H 2917.81 3.23231 -1.94426 0
M  V30 29874 H 2920.2 2.74644 -1.07957 0
M  V30 29875 H 2920.28 1.35502 -2.16963 0
M  V30 29876 H 2919.92 2.91903 -4.15638 0
M  V30 29877 H 2919.85 4.30256 -3.03623 0
M  V30 29878 H 2922.34 2.83726 -2.49615 0
M  V30 29879 H 2922.65 5.37012 -5.55732 0
M  V30 29880 H 2921 4.83449 -4.99302 0
M  V30 29881 H 2924.19 3.45826 -3.15471 0
M  V30 29882 H 2924.36 4.61342 -4.55047 0
M  V30 29883 N 2917.77 0.940655 1.26449 0
M  V30 29884 C 2919.02 0.588814 1.94064 0
M  V30 29885 C 2919.35 -0.869822 1.73631 0
M  V30 29886 O 2918.62 -1.62223 1.07302 0
M  V30 29887 C 2918.91 0.93126 3.4785 0
M  V30 29888 C 2918.76 2.4446 3.7757 0
M  V30 29889 C 2920.08 0.446306 4.37831 0
M  V30 29890 H 2917.2 0.215392 0.704823 0
M  V30 29891 H 2919.84 1.17478 1.49328 0
M  V30 29892 H 2917.99 0.432607 3.86084 0
M  V30 29893 H 2919.66 3.01594 3.49054 0
M  V30 29894 H 2917.9 2.8883 3.23666 0
M  V30 29895 H 2918.58 2.63472 4.85063 0
M  V30 29896 H 2921.05 0.873849 4.06821 0
M  V30 29897 H 2919.93 0.714744 5.44227 0
M  V30 29898 H 2920.19 -0.653738 4.3724 0
M  V30 29899 N 2919.25 -1.40821 0.707617 0
M  V30 29900 C 2920.2 -2.32568 0.0387052 0
M  V30 29901 C 2921.19 -1.51613 -0.755627 0
M  V30 29902 O 2922.4 -1.67468 -0.659892 0
M  V30 29903 H 2918.77 -0.751974 -0.0062859 0
M  V30 29904 H 2920.74 -2.86643 0.82935 0
M  V30 29905 C 2919.49 -3.36513 -0.8749 0
M  V30 29906 H 2918.81 -3.98866 -0.273087 0
M  V30 29907 H 2920.25 -4.03222 -1.31104 0
M  V30 29908 C 2918.71 -2.71357 -1.99668 0
M  V30 29909 O 2919.24 -2.57069 -3.08672 0
M  V30 29910 N 2917.45 -2.29864 -1.77795 0
M  V30 29911 H 2917 -2.41684 -0.891428 0
M  V30 29912 H 2916.95 -1.86606 -2.53033 0
M  V30 29913 N 2920.73 -0.453223 -1.50943 0
M  V30 29914 C 2921.97 0.109475 -2.01403 0
M  V30 29915 C 2922.29 1.42384 -1.34113 0
M  V30 29916 O 2923.49 2.07042 -1.7563 0
M  V30 29917 C 2921.95 0.24563 -3.59061 0
M  V30 29918 C 2921.56 -1.05924 -4.35298 0
M  V30 29919 C 2923.3 0.761245 -4.17619 0
M  V30 29920 C 2921.21 -0.887855 -5.84697 0
M  V30 29921 H 2920.14 0.044688 -0.752675 0
M  V30 29922 H 2922.79 -0.585405 -1.73912 0
M  V30 29923 H 2921.17 1.00388 -3.83064 0
M  V30 29924 H 2922.35 -1.82706 -4.23031 0
M  V30 29925 H 2920.66 -1.50459 -3.88267 0
M  V30 29926 H 2923.26 0.906213 -5.26965 0
M  V30 29927 H 2923.6 1.74792 -3.77827 0
M  V30 29928 H 2924.13 0.0608717 -3.97753 0
M  V30 29929 H 2920.87 -1.84737 -6.2893 0
M  V30 29930 H 2920.39 -0.160111 -5.99586 0
M  V30 29931 H 2922.07 -0.547337 -6.44681 0
M  V30 29932 N 2922.2 1.56509 -0.185151 0
M  V30 29933 C 2923.15 2.19955 0.756466 0
M  V30 29934 C 2924.15 1.16771 1.22723 0
M  V30 29935 O 2925.35 1.34939 1.19128 0
M  V30 29936 H 2921.73 0.704784 0.262267 0
M  V30 29937 H 2923.7 2.97745 0.197535 0
M  V30 29938 C 2922.45 2.86527 1.9697 0
M  V30 29939 H 2921.77 3.65662 1.61651 0
M  V30 29940 H 2923.21 3.34372 2.60713 0
M  V30 29941 C 2921.67 1.87032 2.80215 0
M  V30 29942 O 2922.2 1.36439 3.77819 0
M  V30 29943 N 2920.4 1.55481 2.45507 0
M  V30 29944 H 2919.95 1.96816 1.66196 0
M  V30 29945 H 2919.91 0.89165 3.01491 0
M  V30 29946 N 2923.68 -0.0885089 1.57351 0
M  V30 29947 C 2924.63 -1.12572 2.03544 0
M  V30 29948 C 2925.62 -1.4108 0.937693 0
M  V30 29949 O 2926.83 -1.40684 1.12286 0
M  V30 29950 H 2923.2 -0.380284 0.648759 0
M  V30 29951 H 2925.18 -0.709855 2.89834 0
M  V30 29952 C 2923.92 -2.43587 2.48114 0
M  V30 29953 H 2923.25 -2.22496 3.32168 0
M  V30 29954 H 2924.69 -3.14648 2.84205 0
M  V30 29955 C 2923.15 -3.08356 1.35713 0
M  V30 29956 O 2923.68 -3.95731 0.689922 0
M  V30 29957 N 2921.88 -2.68712 1.10646 0
M  V30 29958 H 2921.43 -1.97751 1.65083 0
M  V30 29959 H 2921.39 -3.12373 0.35641 0
M  V30 29960 N 2925.16 -1.53445 -0.359498 0
M  V30 29961 C 2926.38 -1.74146 -1.12641 0
M  V30 29962 C 2926.81 -0.472039 -1.82081 0
M  V30 29963 O 2926.17 0.57433 -1.71963 0
M  V30 29964 C 2926.22 -2.91134 -2.12776 0
M  V30 29965 O 2925.32 -2.60167 -3.19979 0
M  V30 29966 H 2924.66 -0.578157 -0.326542 0
M  V30 29967 H 2927.19 -2.00352 -0.414763 0
M  V30 29968 H 2927.2 -3.17472 -2.56273 0
M  V30 29969 H 2925.88 -3.83209 -1.61627 0
M  V30 29970 H 2924.45 -2.44666 -2.81412 0
M  V30 29971 N 2926.64 0.619637 -1.44908 0
M  V30 29972 C 2927.57 1.74431 -1.47136 0
M  V30 29973 C 2928.55 1.59238 -0.328961 0
M  V30 29974 O 2929.73 1.80964 -0.527664 0
M  V30 29975 C 2926.86 3.12132 -1.31496 0
M  V30 29976 C 2925.91 3.45946 -2.49447 0
M  V30 29977 S 2926.74 3.42135 -4.11951 0
M  V30 29978 C 2927.89 4.82436 -3.98756 0
M  V30 29979 H 2928.13 1.72276 -2.42298 0
M  V30 29980 H 2925.66 0.795252 -1.32345 0
M  V30 29981 H 2927.62 3.91589 -1.2316 0
M  V30 29982 H 2926.28 3.11814 -0.378258 0
M  V30 29983 H 2925.47 4.46177 -2.34398 0
M  V30 29984 H 2925.07 2.73978 -2.54582 0
M  V30 29985 H 2927.37 5.71948 -3.63156 0
M  V30 29986 H 2928.31 5.02541 -4.98857 0
M  V30 29987 H 2928.72 4.57551 -3.30616 0
M  V30 29988 N 2928.12 1.31997 0.861075 0
M  V30 29989 C 2929.53 1.19957 1.43063 0
M  V30 29990 C 2929.88 -0.190455 1.95273 0
M  V30 29991 O 2929 -1.08879 1.87014 0
M  V30 29992 C 2929.6 2.17164 2.60048 0
M  V30 29993 C 2928.16 2.09031 3.13022 0
M  V30 29994 C 2927.3 2.05892 1.85752 0
M  V30 29995 H 2930.26 1.43919 0.668809 0
M  V30 29996 H 2930.28 1.76643 3.37013 0
M  V30 29997 H 2929.79 3.18323 2.22018 0
M  V30 29998 H 2927.89 1.11098 3.55651 0
M  V30 29999 H 2928 2.98555 3.74702 0
M  V30 30000 H 2926.37 1.51036 2.05086 0
M  V30 30001 H 2927.15 3.08821 1.49948 0
M  V30 30002 N 2929.59 -1.07653 1.15103 0
M  V30 30003 C 2931.01 -1.61665 0.933876 0
M  V30 30004 C 2931.36 -1.89031 -0.525536 0
M  V30 30005 O 2930.48 -1.65349 -1.39602 0
M  V30 30006 C 2931.08 -2.93708 1.68881 0
M  V30 30007 C 2929.64 -3.44475 1.51703 0
M  V30 30008 C 2928.78 -2.18583 1.70637 0
M  V30 30009 H 2931.73 -0.907794 1.30172 0
M  V30 30010 H 2931.75 -3.62498 1.15651 0
M  V30 30011 H 2931.27 -2.7376 2.75095 0
M  V30 30012 H 2929.37 -3.69512 0.4787 0
M  V30 30013 H 2929.48 -4.20718 2.29201 0
M  V30 30014 H 2927.84 -2.2813 1.13263 0
M  V30 30015 H 2928.63 -2.01132 2.7821 0
M  V30 30016 N 2931.07 -0.947348 -1.25949 0
M  V30 30017 C 2932.32 -0.59703 -1.9308 0
M  V30 30018 C 2932.64 0.867641 -1.74634 0
M  V30 30019 O 2931.91 1.61718 -1.10562 0
M  V30 30020 H 2930.49 -0.217817 -0.714538 0
M  V30 30021 H 2933.15 -1.20401 -1.53263 0
M  V30 30022 H 2932.25 -0.820093 -3.01133 0
M  V30 30023 N 2932.55 1.40444 -0.715075 0
M  V30 30024 C 2933.97 1.54797 -0.388582 0
M  V30 30025 C 2934.17 1.68651 1.10268 0
M  V30 30026 O 2933.22 1.67582 1.88872 0
M  V30 30027 C 2934.54 2.77667 -1.15419 0
M  V30 30028 C 2936.08 2.91484 -1.14044 0
M  V30 30029 C 2936.56 4.17266 -1.8882 0
M  V30 30030 N 2938.05 4.24265 -1.85886 0
M  V30 30031 C 2938.78 5.20495 -2.40567 0
M  V30 30032 N 2938.28 6.22636 -3.03802 0
M  V30 30033 N 2940.07 5.1257 -2.30712 0
M  V30 30034 H 2932.22 1.29697 -1.68203 0
M  V30 30035 H 2934.49 0.627127 -0.710926 0
M  V30 30036 H 2934.19 2.73706 -2.20858 0
M  V30 30037 H 2934.07 3.6976 -0.745477 0
M  V30 30038 H 2936.45 2.94949 -0.0942515 0
M  V30 30039 H 2936.54 2.0051 -1.58837 0
M  V30 30040 H 2936.18 4.14562 -2.93429 0
M  V30 30041 H 2936.11 5.07248 -1.41447 0
M  V30 30042 H 2938.6 3.5109 -1.398 0
M  V30 30043 H 2938.91 6.92488 -3.43044 0
M  V30 30044 H 2937.26 6.23082 -3.07886 0
M  V30 30045 H 2940.45 4.31704 -1.80968 0
M  V30 30046 H 2940.62 5.87394 -2.73629 0
M  V30 30047 N 2934.03 0.461222 1.507 0
M  V30 30048 C 2935.26 -0.0951392 2.06681 0
M  V30 30049 C 2935.67 -1.3438 1.32618 0
M  V30 30050 O 2935.03 -1.78228 0.392562 0
M  V30 30051 C 2935.08 -0.393253 3.59355 0
M  V30 30052 O 2934.8 0.805872 4.30624 0
M  V30 30053 C 2936.3 -0.997669 4.31928 0
M  V30 30054 H 2933.52 0.00268438 0.670995 0
M  V30 30055 H 2936.07 0.647171 1.9399 0
M  V30 30056 H 2934.22 -1.08548 3.71882 0
M  V30 30057 H 2934.63 0.5445 5.21666 0
M  V30 30058 H 2936.11 -1.15609 5.39758 0
M  V30 30059 H 2936.59 -1.98516 3.91776 0
M  V30 30060 H 2937.19 -0.344114 4.23906 0
M  V30 30061 N 2935.51 -1.56408 0.193449 0
M  V30 30062 C 2936.75 -1.97143 -0.444874 0
M  V30 30063 C 2937.08 -1.08142 -1.62266 0
M  V30 30064 O 2936.35 -0.15236 -1.95307 0
M  V30 30065 H 2934.93 -0.728014 -0.167347 0
M  V30 30066 H 2937.59 -1.92881 0.279797 0
M  V30 30067 H 2936.68 -3.01933 -0.790106 0
M  V30 30068 N 2936.98 0.0801629 -1.57396 0
M  V30 30069 C 2937.92 1.12771 -1.98388 0
M  V30 30070 C 2938.9 1.3803 -0.859447 0
M  V30 30071 O 2940.08 1.51542 -1.12104 0
M  V30 30072 C 2937.21 2.47382 -2.31344 0
M  V30 30073 C 2936.25 2.3831 -3.5371 0
M  V30 30074 S 2937.09 1.78525 -5.04865 0
M  V30 30075 C 2938.24 3.14731 -5.41013 0
M  V30 30076 H 2938.47 0.778331 -2.86931 0
M  V30 30077 H 2936.01 0.288393 -1.51683 0
M  V30 30078 H 2937.97 3.24817 -2.51006 0
M  V30 30079 H 2936.63 2.79483 -1.43345 0
M  V30 30080 H 2935.82 3.37559 -3.74259 0
M  V30 30081 H 2935.42 1.69008 -3.33635 0
M  V30 30082 H 2937.71 4.11031 -5.38572 0
M  V30 30083 H 2938.66 2.9897 -6.4189 0
M  V30 30084 H 2939.06 3.1495 -4.68473 0
M  V30 30085 N 2938.46 1.53634 0.351355 0
M  V30 30086 C 2939.71 1.70167 1.09031 0
M  V30 30087 C 2940.03 0.463456 1.89412 0
M  V30 30088 O 2939.3 -0.522591 1.88801 0
M  V30 30089 H 2937.88 0.627351 0.405511 0
M  V30 30090 H 2940.54 1.90865 0.39452 0
M  V30 30091 H 2939.64 2.5691 1.7721 0
M  V30 30092 N 2939.94 -0.611943 1.45234 0
M  V30 30093 C 2941.17 -1.39781 1.52541 0
M  V30 30094 C 2941.58 -1.8815 0.156566 0
M  V30 30095 O 2940.94 -1.61963 -0.841092 0
M  V30 30096 C 2940.99 -2.60524 2.50619 0
M  V30 30097 O 2940.71 -2.14166 3.82184 0
M  V30 30098 C 2942.21 -3.53434 2.67581 0
M  V30 30099 H 2939.43 -0.428034 0.516748 0
M  V30 30100 H 2941.98 -0.746694 1.9038 0
M  V30 30101 H 2940.13 -3.21686 2.15863 0
M  V30 30102 H 2940.55 -2.92584 4.3531 0
M  V30 30103 H 2942.02 -4.34711 3.40192 0
M  V30 30104 H 2942.5 -4.03493 1.73466 0
M  V30 30105 H 2943.1 -2.98128 3.03315 0
M  V30 30106 N 2941.42 -1.32452 -0.854063 0
M  V30 30107 C 2942.83 -1.20714 -1.42425 0
M  V30 30108 C 2943.18 0.180096 -1.95372 0
M  V30 30109 O 2942.31 1.07886 -1.87589 0
M  V30 30110 C 2942.9 -2.1854 -2.58893 0
M  V30 30111 C 2941.46 -2.10688 -3.11909 0
M  V30 30112 C 2940.61 -2.06874 -1.84658 0
M  V30 30113 H 2943.56 -1.44272 -0.661167 0
M  V30 30114 H 2943.58 -1.78428 -3.36071 0
M  V30 30115 H 2943.09 -3.19496 -2.20327 0
M  V30 30116 H 2941.19 -1.12983 -3.55057 0
M  V30 30117 H 2941.3 -3.00538 -3.73113 0
M  V30 30118 H 2939.67 -1.52122 -2.04282 0
M  V30 30119 H 2940.45 -3.09612 -1.48308 0
M  V30 30120 N 2942.9 1.07041 -1.15672 0
M  V30 30121 C 2944.15 1.79342 -0.931705 0
M  V30 30122 C 2944.47 1.87305 0.542388 0
M  V30 30123 O 2943.74 1.37624 1.39415 0
M  V30 30124 H 2942.32 0.664256 -0.341721 0
M  V30 30125 H 2944.98 1.29342 -1.45797 0
M  V30 30126 H 2944.07 2.81687 -1.34384 0
M  V30 30127 N 2944.38 0.954014 1.25445 0
M  V30 30128 C 2945.6 0.625164 1.97754 0
M  V30 30129 C 2946.03 -0.795757 1.70439 0
M  V30 30130 O 2945.38 -1.53801 0.959947 0
M  V30 30131 C 2945.43 0.889313 3.49462 0
M  V30 30132 O 2944.54 -0.0322032 4.12387 0
M  V30 30133 H 2943.88 0.237753 0.619975 0
M  V30 30134 H 2946.41 1.28044 1.5958 0
M  V30 30135 H 2946.42 0.815333 3.9977 0
M  V30 30136 H 2945.09 1.92493 3.68672 0
M  V30 30137 H 2943.67 0.093928 3.72782 0
M  V30 30138 N 2945.85 -1.40063 0.722513 0
M  V30 30139 C 2946.79 -2.29173 0.034946 0
M  V30 30140 C 2947.8 -1.46183 -0.716545 0
M  V30 30141 O 2948.99 -1.69396 -0.562776 0
M  V30 30142 C 2946.09 -3.24579 -0.974782 0
M  V30 30143 C 2945.26 -4.36455 -0.287394 0
M  V30 30144 C 2944.32 -5.12253 -1.20347 0
M  V30 30145 O 2943.35 -5.65055 -0.685654 0
M  V30 30146 N 2944.55 -5.22266 -2.53413 0
M  V30 30147 H 2947.31 -2.88822 0.800109 0
M  V30 30148 H 2944.87 -1.51508 0.570707 0
M  V30 30149 H 2946.87 -3.72159 -1.58995 0
M  V30 30150 H 2945.44 -2.66048 -1.64125 0
M  V30 30151 H 2944.66 -3.90912 0.508076 0
M  V30 30152 H 2945.94 -5.08447 0.189472 0
M  V30 30153 H 2945.34 -4.80862 -2.97973 0
M  V30 30154 H 2943.9 -5.7333 -3.10057 0
M  V30 30155 N 2947.33 -0.469207 -1.50453 0
M  V30 30156 C 2948.26 0.371889 -2.25149 0
M  V30 30157 C 2949.24 0.997822 -1.28383 0
M  V30 30158 O 2950.43 1.03412 -1.57601 0
M  V30 30159 C 2947.55 1.52092 -3.02632 0
M  V30 30160 C 2946.6 1.01254 -4.14306 0
M  V30 30161 S 2947.43 -0.07124 -5.35453 0
M  V30 30162 C 2948.59 1.08171 -6.16482 0
M  V30 30163 H 2948.82 -0.262186 -2.96142 0
M  V30 30164 H 2946.35 -0.254068 -1.52295 0
M  V30 30165 H 2948.31 2.17946 -3.47864 0
M  V30 30166 H 2946.97 2.1265 -2.31169 0
M  V30 30167 H 2946.17 1.8727 -4.67917 0
M  V30 30168 H 2945.77 0.431739 -3.715 0
M  V30 30169 H 2948.06 1.99371 -6.47501 0
M  V30 30170 H 2949 0.584904 -7.0568 0
M  V30 30171 H 2949.41 1.33468 -5.48495 0
M  V30 30172 N 2948.81 1.56303 -0.201741 0
M  V30 30173 C 2949.77 2.1816 0.702773 0
M  V30 30174 C 2950.77 1.13789 1.13617 0
M  V30 30175 O 2951.96 1.39136 1.04818 0
M  V30 30176 C 2949.09 2.78902 1.96027 0
M  V30 30177 H 2950.29 2.99452 0.163783 0
M  V30 30178 H 2947.84 1.56227 0.0478825 0
M  V30 30179 H 2948.58 2.01426 2.54162 0
M  V30 30180 H 2948.36 3.55312 1.65818 0
M  V30 30181 H 2949.85 3.26378 2.60513 0
M  V30 30182 N 2950.29 -0.0718147 1.57436 0
M  V30 30183 C 2951.7 -0.623647 1.75976 0
M  V30 30184 C 2952.05 -1.7791 0.827186 0
M  V30 30185 O 2951.17 -2.16397 0.0112805 0
M  V30 30186 C 2951.77 -1.1381 3.19112 0
M  V30 30187 C 2950.33 -1.6358 3.38996 0
M  V30 30188 C 2949.48 -0.555213 2.71685 0
M  V30 30189 H 2952.43 0.154356 1.57948 0
M  V30 30190 H 2952.45 -2.00691 3.2327 0
M  V30 30191 H 2951.96 -0.29693 3.86962 0
M  V30 30192 H 2950.06 -2.50022 2.7626 0
M  V30 30193 H 2950.17 -1.71276 4.47439 0
M  V30 30194 H 2948.54 -1.00025 2.34237 0
M  V30 30195 H 2949.32 0.275772 3.42191 0
M  V30 30196 N 2951.77 -1.53818 -0.343203 0
M  V30 30197 C 2953.01 -1.71334 -1.08501 0
M  V30 30198 C 2953.34 -0.475318 -1.88293 0
M  V30 30199 O 2952.62 0.527655 -1.87206 0
M  V30 30200 C 2952.9 -2.97705 -2.02592 0
M  V30 30201 C 2952.76 -4.31716 -1.26261 0
M  V30 30202 C 2954.07 -3.19749 -3.02405 0
M  V30 30203 H 2951.19 -0.623436 -0.393061 0
M  V30 30204 H 2953.84 -1.8649 -0.363546 0
M  V30 30205 H 2951.99 -2.84915 -2.64113 0
M  V30 30206 H 2953.66 -4.56357 -0.673514 0
M  V30 30207 H 2951.9 -4.3011 -0.56462 0
M  V30 30208 H 2952.57 -5.16317 -1.95244 0
M  V30 30209 H 2955.05 -3.31872 -2.50998 0
M  V30 30210 H 2953.92 -4.09565 -3.65442 0
M  V30 30211 H 2954.18 -2.36061 -3.73802 0
M  V30 30212 N 2953.24 0.604233 -1.45557 0
M  V30 30213 C 2954.47 1.3946 -1.53512 0
M  V30 30214 C 2954.89 1.87333 -0.169671 0
M  V30 30215 O 2954.25 1.60335 0.846317 0
M  V30 30216 C 2954.3 2.57286 -2.52659 0
M  V30 30217 O 2953.4 3.58027 -2.04672 0
M  V30 30218 H 2952.74 0.416211 -0.517363 0
M  V30 30219 H 2955.27 0.735038 -1.90941 0
M  V30 30220 H 2955.28 3.04486 -2.71573 0
M  V30 30221 H 2953.96 2.2179 -3.51826 0
M  V30 30222 H 2952.54 3.17452 -1.95649 0
M  V30 30223 N 2954.72 1.32903 0.847027 0
M  V30 30224 C 2955.65 1.25095 1.97164 0
M  V30 30225 C 2956.63 0.133191 1.69578 0
M  V30 30226 O 2957.82 0.321625 1.91518 0
M  V30 30227 C 2954.95 0.981064 3.33155 0
M  V30 30228 C 2953.9 2.06088 3.75116 0
M  V30 30229 C 2953.23 1.64327 5.08823 0
M  V30 30230 C 2954.53 3.47676 3.89768 0
M  V30 30231 H 2956.22 2.19187 2.03954 0
M  V30 30232 H 2953.77 1.05519 0.979888 0
M  V30 30233 H 2955.72 0.912964 4.11391 0
M  V30 30234 H 2954.44 0.00451299 3.266 0
M  V30 30235 H 2953.1 2.11927 2.99137 0
M  V30 30236 H 2952.75 0.653964 4.98731 0
M  V30 30237 H 2952.45 2.36582 5.37869 0
M  V30 30238 H 2953.98 1.58968 5.89543 0
M  V30 30239 H 2955.39 3.44384 4.58337 0
M  V30 30240 H 2953.79 4.18346 4.30241 0
M  V30 30241 H 2954.86 3.86778 2.92456 0
M  V30 30242 N 2956.2 -1.06426 1.16238 0
M  V30 30243 C 2957.15 -2.1597 0.863707 0
M  V30 30244 C 2958.14 -1.68578 -0.166694 0
M  V30 30245 O 2959.35 -1.79988 -0.0208109 0
M  V30 30246 H 2955.72 -0.704996 0.261697 0
M  V30 30247 H 2957.69 -2.38373 1.79502 0
M  V30 30248 C 2956.44 -3.4562 0.379757 0
M  V30 30249 H 2955.77 -3.82479 1.16405 0
M  V30 30250 H 2957.21 -4.23482 0.209532 0
M  V30 30251 C 2955.66 -3.24644 -0.900442 0
M  V30 30252 O 2956.19 -3.50078 -1.96998 0
M  V30 30253 N 2954.4 -2.78084 -0.843672 0
M  V30 30254 H 2953.95 -2.57586 0.0268882 0
M  V30 30255 H 2953.91 -2.64428 -1.70074 0
M  V30 30256 N 2957.68 -0.960653 -1.24937 0
M  V30 30257 C 2958.92 -0.619614 -1.93103 0
M  V30 30258 C 2959.26 0.842089 -1.74993 0
M  V30 30259 O 2958.53 1.60496 -1.0987 0
M  V30 30260 C 2958.82 -0.986483 -3.46324 0
M  V30 30261 C 2958.67 -2.50436 -3.73633 0
M  V30 30262 C 2959.99 -0.515904 -4.37066 0
M  V30 30263 H 2957.11 -0.226578 -0.701307 0
M  V30 30264 H 2959.75 -1.19839 -1.4744 0
M  V30 30265 H 2957.9 -0.493975 -3.85347 0
M  V30 30266 H 2959.57 -3.07109 -3.44212 0
M  V30 30267 H 2957.81 -2.93943 -3.1903 0
M  V30 30268 H 2958.48 -2.71156 -4.8081 0
M  V30 30269 H 2960.96 -0.938461 -4.05379 0
M  V30 30270 H 2959.84 -0.801235 -5.43021 0
M  V30 30271 H 2960.1 0.584094 -4.38225 0
M  V30 30272 N 2959.16 1.39677 -0.729931 0
M  V30 30273 C 2960.57 1.83461 -0.346274 0
M  V30 30274 C 2960.92 1.60989 1.12147 0
M  V30 30275 O 2960.04 1.09835 1.86454 0
M  V30 30276 C 2960.64 3.33047 -0.621715 0
M  V30 30277 C 2959.2 3.75269 -0.291609 0
M  V30 30278 C 2958.34 2.62735 -0.886891 0
M  V30 30279 H 2961.3 1.28742 -0.927971 0
M  V30 30280 H 2961.32 3.80346 0.108235 0
M  V30 30281 H 2960.83 3.4937 -1.69003 0
M  V30 30282 H 2958.93 3.64534 0.771069 0
M  V30 30283 H 2959.04 4.72862 -0.770628 0
M  V30 30284 H 2957.41 2.52758 -0.313884 0
M  V30 30285 H 2958.19 2.81866 -1.95976 0
M  V30 30286 N 2960.63 0.47718 1.50202 0
M  V30 30287 C 2962.05 0.131691 1.59056 0
M  V30 30288 C 2962.25 -1.36225 1.48476 0
M  V30 30289 O 2961.31 -2.13609 1.34638 0
M  V30 30290 C 2962.62 0.687306 2.9274 0
M  V30 30291 C 2964.17 0.651277 3.06149 0
M  V30 30292 C 2964.64 1.18454 4.42417 0
M  V30 30293 N 2966.13 1.14421 4.48845 0
M  V30 30294 C 2966.87 1.52727 5.52686 0
M  V30 30295 N 2966.36 1.98511 6.63751 0
M  V30 30296 N 2968.16 1.44292 5.43265 0
M  V30 30297 H 2960.31 1.44874 1.55323 0
M  V30 30298 H 2962.57 0.599486 0.734385 0
M  V30 30299 H 2962.28 1.7341 3.05977 0
M  V30 30300 H 2962.15 0.134282 3.76961 0
M  V30 30301 H 2964.54 -0.386626 2.92556 0
M  V30 30302 H 2964.62 1.24118 2.2367 0
M  V30 30303 H 2964.26 2.22111 4.5676 0
M  V30 30304 H 2964.19 0.570801 5.23497 0
M  V30 30305 H 2966.68 0.808481 3.6915 0
M  V30 30306 H 2967 2.25872 7.39055 0
M  V30 30307 H 2965.34 2.02468 6.64855 0
M  V30 30308 H 2968.53 1.0836 4.55385 0
M  V30 30309 H 2968.71 1.7447 6.24071 0
M  V30 30310 N 2962.11 -1.56194 0.210027 0
M  V30 30311 C 2963.52 -1.84275 -0.29991 0
M  V30 30312 C 2963.87 -1.13113 -1.60312 0
M  V30 30313 O 2963 -0.396911 -2.12729 0
M  V30 30314 C 2963.59 -3.34291 -0.550927 0
M  V30 30315 C 2962.15 -3.6273 -1.0052 0
M  V30 30316 C 2961.3 -2.77231 -0.0619341 0
M  V30 30317 H 2964.25 -1.52665 0.433485 0
M  V30 30318 H 2964.27 -3.53872 -1.3984 0
M  V30 30319 H 2963.78 -3.86057 0.397737 0
M  V30 30320 H 2961.89 -3.1641 -1.96762 0
M  V30 30321 H 2962 -4.70807 -0.887581 0
M  V30 30322 H 2960.36 -2.48318 -0.566605 0
M  V30 30323 H 2961.15 -3.31791 0.881441 0
M  V30 30324 N 2963.59 0.0634645 -1.57472 0
M  V30 30325 C 2964.54 1.0932 -2.05309 0
M  V30 30326 C 2965.53 1.39571 -0.960019 0
M  V30 30327 O 2966.74 1.3888 -1.1451 0
M  V30 30328 H 2963.11 0.369915 -0.654727 0
M  V30 30329 H 2965.08 0.663656 -2.90926 0
M  V30 30330 C 2963.83 2.39609 -2.51958 0
M  V30 30331 H 2963.16 2.17184 -3.35665 0
M  V30 30332 H 2964.6 3.10087 -2.89175 0
M  V30 30333 C 2963.06 3.06158 -1.40602 0
M  V30 30334 O 2963.59 3.94583 -0.752792 0
M  V30 30335 N 2961.79 2.66917 -1.14907 0
M  V30 30336 H 2961.34 1.95099 -1.68208 0
M  V30 30337 H 2961.3 3.11767 -0.406061 0
M  V30 30338 N 2965.07 1.53998 0.33504 0
M  V30 30339 C 2966 1.78906 1.43267 0
M  V30 30340 C 2967.01 0.670624 1.48346 0
M  V30 30341 O 2968.2 0.947521 1.51276 0
M  V30 30342 C 2965.3 1.88149 2.81875 0
M  V30 30343 C 2964.48 3.18179 3.00135 0
M  V30 30344 C 2963.53 3.1827 4.19035 0
M  V30 30345 O 2962.56 3.91958 4.12744 0
M  V30 30346 N 2963.76 2.4124 5.28 0
M  V30 30347 H 2966.53 2.73625 1.22267 0
M  V30 30348 H 2964.09 1.53153 0.524969 0
M  V30 30349 H 2966.08 1.85651 3.59605 0
M  V30 30350 H 2964.65 1.00578 2.95978 0
M  V30 30351 H 2963.87 3.33731 2.09802 0
M  V30 30352 H 2965.16 4.04053 3.09223 0
M  V30 30353 H 2964.56 1.8094 5.35983 0
M  V30 30354 H 2963.11 2.44531 6.04192 0
M  V30 30355 N 2966.55 -0.596505 1.45875 0
M  V30 30356 C 2967.79 -1.35719 1.50692 0
M  V30 30357 C 2968.13 -1.936 0.15254 0
M  V30 30358 O 2967.4 -1.75694 -0.83438 0
M  V30 30359 C 2967.68 -2.49686 2.59478 0
M  V30 30360 C 2967.54 -1.96929 4.04399 0
M  V30 30361 C 2968.86 -3.51782 2.64457 0
M  V30 30362 H 2965.97 -0.492124 0.548619 0
M  V30 30363 H 2968.62 -0.671397 1.77742 0
M  V30 30364 H 2966.77 -3.08187 2.36544 0
M  V30 30365 H 2968.44 -1.42992 4.38578 0
M  V30 30366 H 2966.68 -1.27852 4.14532 0
M  V30 30367 H 2967.35 -2.79134 4.76223 0
M  V30 30368 H 2969.83 -3.0314 2.85036 0
M  V30 30369 H 2968.7 -4.29 3.42418 0
M  V30 30370 H 2968.97 -4.0812 1.69972 0
M  V30 30371 N 2968.02 -1.3335 -0.839967 0
M  V30 30372 C 2969.25 -1.27927 -1.63247 0
M  V30 30373 C 2969.67 0.14716 -1.87523 0
M  V30 30374 O 2969.03 1.10342 -1.43855 0
M  V30 30375 C 2969.08 -2.05891 -2.96042 0
M  V30 30376 O 2968.18 -1.41676 -3.873 0
M  V30 30377 H 2967.53 -0.440165 -0.497142 0
M  V30 30378 H 2970.06 -1.75895 -1.04509 0
M  V30 30379 H 2970.07 -2.16615 -3.45748 0
M  V30 30380 H 2968.74 -3.0961 -2.77695 0
M  V30 30381 H 2967.32 -1.39591 -3.45787 0
M  V30 30382 N 2969.5 1.05808 -1.16801 0
M  V30 30383 C 2970.75 1.78344 -0.950674 0
M  V30 30384 C 2971.07 1.8787 0.522491 0
M  V30 30385 O 2970.34 1.39094 1.37948 0
M  V30 30386 H 2968.92 0.660594 -0.348748 0
M  V30 30387 H 2971.58 1.27788 -1.47161 0
M  V30 30388 H 2970.68 2.80246 -1.37364 0
M  V30 30389 N 2970.98 0.967265 1.24426 0
M  V30 30390 C 2972.39 0.667815 1.74348 0
M  V30 30391 C 2972.74 -0.816478 1.78404 0
M  V30 30392 O 2971.87 -1.63884 1.41318 0
M  V30 30393 C 2972.46 1.20554 3.16626 0
M  V30 30394 C 2971.02 0.955998 3.64057 0
M  V30 30395 C 2970.17 1.34111 2.42713 0
M  V30 30396 H 2973.12 1.14263 1.10134 0
M  V30 30397 H 2973.14 0.571613 3.76182 0
M  V30 30398 H 2972.65 2.28584 3.13642 0
M  V30 30399 H 2970.75 -0.108792 3.72441 0
M  V30 30400 H 2970.87 1.60134 4.51546 0
M  V30 30401 H 2969.23 0.759495 2.43113 0
M  V30 30402 H 2970.01 2.43089 2.4241 0
M  V30 30403 N 2972.46 -1.39288 0.737328 0
M  V30 30404 C 2973.71 -2.00763 0.286716 0
M  V30 30405 C 2974.04 -1.58377 -1.12385 0
M  V30 30406 O 2973.31 -0.81373 -1.7666 0
M  V30 30407 C 2973.6 -3.57969 0.39121 0
M  V30 30408 C 2973.45 -4.10367 1.84172 0
M  V30 30409 C 2974.77 -4.39524 -0.224995 0
M  V30 30410 H 2971.89 -0.729387 0.105655 0
M  V30 30411 H 2974.53 -1.65463 0.933921 0
M  V30 30412 H 2972.68 -3.88171 -0.159807 0
M  V30 30413 H 2974.35 -3.90875 2.44979 0
M  V30 30414 H 2972.59 -3.6384 2.36226 0
M  V30 30415 H 2973.27 -5.19501 1.86609 0
M  V30 30416 H 2975.74 -4.1538 0.24475 0
M  V30 30417 H 2974.62 -5.48765 -0.121549 0
M  V30 30418 H 2974.88 -4.22204 -1.31133 0
M  V30 30419 N 2973.94 -0.485139 -1.49947 0
M  V30 30420 C 2974.87 0.347988 -2.25531 0
M  V30 30421 C 2975.85 0.984149 -1.29434 0
M  V30 30422 O 2977.03 1.01735 -1.58689 0
M  V30 30423 C 2974.16 1.48873 -3.04228 0
M  V30 30424 C 2973.21 0.968543 -4.15357 0
M  V30 30425 S 2974.04 -0.128028 -5.35347 0
M  V30 30426 C 2975.19 1.01626 -6.17595 0
M  V30 30427 H 2975.43 -0.293581 -2.95847 0
M  V30 30428 H 2972.96 -0.270207 -1.52017 0
M  V30 30429 H 2974.92 2.14244 -3.50157 0
M  V30 30430 H 2973.58 2.10186 -2.33411 0
M  V30 30431 H 2972.77 1.82296 -4.69877 0
M  V30 30432 H 2972.37 0.392312 -3.71937 0
M  V30 30433 H 2974.67 1.92492 -6.49579 0
M  V30 30434 H 2975.61 0.510025 -7.06261 0
M  V30 30435 H 2976.02 1.27643 -5.4988 0
M  V30 30436 N 2975.42 1.56081 -0.218307 0
M  V30 30437 C 2976.83 1.84432 0.290134 0
M  V30 30438 C 2977.18 1.13961 1.5971 0
M  V30 30439 O 2976.3 0.408187 2.12515 0
M  V30 30440 C 2976.9 3.34578 0.533191 0
M  V30 30441 C 2975.46 3.63258 0.985947 0
M  V30 30442 C 2974.6 2.7726 0.047231 0
M  V30 30443 H 2977.55 1.52433 -0.441575 0
M  V30 30444 H 2977.58 3.54608 1.37961 0
M  V30 30445 H 2977.09 3.8584 -0.418205 0
M  V30 30446 H 2975.19 3.17449 1.95081 0
M  V30 30447 H 2975.3 4.71271 0.862601 0
M  V30 30448 H 2973.67 2.48615 0.553428 0
M  V30 30449 H 2974.45 3.31319 -0.899024 0
M  V30 30450 N 2976.89 -0.0551124 1.57504 0
M  V30 30451 C 2978.12 -0.767318 1.92684 0
M  V30 30452 C 2978.54 -1.69471 0.81617 0
M  V30 30453 O 2977.9 -1.79836 -0.229957 0
M  V30 30454 C 2977.95 -1.5228 3.26869 0
M  V30 30455 O 2977.05 -2.63454 3.17279 0
M  V30 30456 H 2976.39 -0.208227 0.630506 0
M  V30 30457 H 2978.92 -0.0183666 2.04592 0
M  V30 30458 H 2978.93 -1.89844 3.61142 0
M  V30 30459 H 2977.61 -0.84247 4.07278 0
M  V30 30460 H 2976.19 -2.28624 2.94593 0
M  V30 30461 N 2978.37 -1.54173 -0.326869 0
M  V30 30462 C 2979.3 -1.78169 -1.42587 0
M  V30 30463 C 2980.28 -0.63151 -1.49836 0
M  V30 30464 O 2981.47 -0.868573 -1.67296 0
M  V30 30465 C 2978.59 -1.89529 -2.80707 0
M  V30 30466 C 2977.64 -3.11798 -2.91006 0
M  V30 30467 S 2978.47 -4.70478 -2.55755 0
M  V30 30468 C 2979.63 -4.8474 -3.95952 0
M  V30 30469 H 2979.86 -2.71106 -1.2202 0
M  V30 30470 H 2977.39 -1.45254 -0.523513 0
M  V30 30471 H 2979.35 -1.96759 -3.60272 0
M  V30 30472 H 2978.01 -0.975748 -2.9856 0
M  V30 30473 H 2977.21 -3.16471 -3.92253 0
M  V30 30474 H 2976.81 -3.02879 -2.19409 0
M  V30 30475 H 2979.1 -4.67174 -4.90667 0
M  V30 30476 H 2980.04 -5.8684 -3.96263 0
M  V30 30477 H 2980.45 -4.13069 -3.84752 0
M  V30 30478 N 2979.85 0.58876 -1.4619 0
M  V30 30479 C 2981.26 1.17085 -1.45423 0
M  V30 30480 C 2981.61 1.9526 -0.191836 0
M  V30 30481 O 2980.74 2.04578 0.705461 0
M  V30 30482 C 2981.33 2.12999 -2.63471 0
M  V30 30483 C 2979.89 2.66545 -2.65764 0
M  V30 30484 C 2979.04 1.423 -2.38004 0
M  V30 30485 H 2981.99 0.377025 -1.54156 0
M  V30 30486 H 2982.01 2.96361 -2.38643 0
M  V30 30487 H 2981.52 1.56075 -3.55334 0
M  V30 30488 H 2979.62 3.27356 -1.77957 0
M  V30 30489 H 2979.74 3.09693 -3.6555 0
M  V30 30490 H 2978.1 1.71904 -1.87939 0
M  V30 30491 H 2978.88 0.87215 -3.32037 0
M  V30 30492 N 2981.33 1.33794 0.832883 0
M  V30 30493 C 2982.74 1.22965 1.40487 0
M  V30 30494 C 2983.09 -0.148991 1.95633 0
M  V30 30495 O 2982.21 -1.04887 1.89282 0
M  V30 30496 C 2982.81 2.22631 2.55383 0
M  V30 30497 C 2981.37 2.15624 3.08518 0
M  V30 30498 C 2980.52 2.09785 1.81343 0
M  V30 30499 H 2983.47 1.45305 0.638131 0
M  V30 30500 H 2983.49 1.83752 3.3319 0
M  V30 30501 H 2983 3.22961 2.15216 0
M  V30 30502 H 2981.1 1.18617 3.53215 0
M  V30 30503 H 2981.21 3.06436 3.68285 0
M  V30 30504 H 2979.58 1.55352 2.01836 0
M  V30 30505 H 2980.36 3.11932 1.43364 0
M  V30 30506 N 2982.81 -1.05187 1.1736 0
M  V30 30507 C 2984.05 -1.77837 0.960118 0
M  V30 30508 C 2984.37 -1.88144 -0.512521 0
M  V30 30509 O 2983.64 -1.39824 -1.37208 0
M  V30 30510 H 2982.22 -0.658735 0.352246 0
M  V30 30511 H 2984.89 -1.27006 1.47836 0
M  V30 30512 H 2983.98 -2.79513 1.38848 0
M  V30 30513 N 2984.28 -0.97385 -1.23911 0
M  V30 30514 C 2985.22 -0.466803 -2.24396 0
M  V30 30515 C 2986.23 0.427801 -1.57079 0
M  V30 30516 O 2987.42 0.232988 -1.76973 0
M  V30 30517 C 2984.52 0.344738 -3.37142 0
M  V30 30518 C 2983.69 -0.541426 -4.34036 0
M  V30 30519 C 2982.75 0.215151 -5.2576 0
M  V30 30520 O 2981.78 -0.39301 -5.67842 0
M  V30 30521 N 2982.98 1.503 -5.60705 0
M  V30 30522 H 2985.74 -1.33078 -2.68533 0
M  V30 30523 H 2983.3 -0.84637 -1.38015 0
M  V30 30524 H 2985.3 0.859063 -3.95477 0
M  V30 30525 H 2983.87 1.10969 -2.92241 0
M  V30 30526 H 2983.09 -1.23666 -3.743 0
M  V30 30527 H 2984.37 -1.14558 -4.95736 0
M  V30 30528 H 2983.77 2.01873 -5.28454 0
M  V30 30529 H 2982.33 1.9629 -6.21541 0
M  V30 30530 N 2985.76 1.38895 -0.744705 0
M  V30 30531 C 2987.01 2.01081 -0.306285 0
M  V30 30532 C 2987.36 1.58047 1.09721 0
M  V30 30533 O 2986.66 0.803865 1.73921 0
M  V30 30534 C 2986.85 3.55609 -0.357364 0
M  V30 30535 C 2986.68 4.13646 -1.76428 0
M  V30 30536 C 2985.45 4.45805 -2.37877 0
M  V30 30537 C 2987.65 4.36518 -2.71949 0
M  V30 30538 N 2985.63 4.894 -3.70623 0
M  V30 30539 C 2987 4.82423 -3.89445 0
M  V30 30540 C 2989.05 4.18602 -2.69586 0
M  V30 30541 C 2987.76 5.12291 -5.04926 0
M  V30 30542 C 2989.78 4.49589 -3.84218 0
M  V30 30543 C 2989.15 4.9571 -5.00451 0
M  V30 30544 H 2985.24 0.76576 -0.158544 0
M  V30 30545 H 2987.83 1.68658 -0.972756 0
M  V30 30546 H 2986 3.87398 0.278797 0
M  V30 30547 H 2987.73 4.04575 0.100528 0
M  V30 30548 H 2984.49 4.3394 -1.89718 0
M  V30 30549 H 2984.91 5.15542 -4.388 0
M  V30 30550 H 2989.55 3.8214 -1.80912 0
M  V30 30551 H 2987.27 5.47655 -5.94222 0
M  V30 30552 H 2990.86 4.3734 -3.83699 0
M  V30 30553 H 2989.74 5.19231 -5.8768 0
M  V30 30554 N 2987.24 0.493084 1.49688 0
M  V30 30555 C 2988.17 -0.326155 2.26868 0
M  V30 30556 C 2989.19 -0.937674 1.33085 0
M  V30 30557 O 2990.37 -0.822354 1.58429 0
M  V30 30558 C 2987.47 -1.47345 3.05193 0
M  V30 30559 C 2986.65 -0.970692 4.26493 0
M  V30 30560 C 2985.71 -1.99464 4.8693 0
M  V30 30561 O 2984.73 -1.56638 5.47223 0
M  V30 30562 N 2985.93 -3.32448 4.75877 0
M  V30 30563 H 2988.7 0.335599 2.97815 0
M  V30 30564 H 2986.26 0.325157 1.58601 0
M  V30 30565 H 2988.25 -2.15583 3.425 0
M  V30 30566 H 2986.82 -2.0395 2.36904 0
M  V30 30567 H 2986.04 -0.11346 3.94037 0
M  V30 30568 H 2987.33 -0.613068 5.05093 0
M  V30 30569 H 2986.73 -3.69936 4.27976 0
M  V30 30570 H 2985.29 -3.96422 5.1739 0
M  V30 30571 N 2988.72 -1.55963 0.226582 0
M  V30 30572 C 2989.65 -2.17799 -0.713868 0
M  V30 30573 C 2990.66 -1.14848 -1.15385 0
M  V30 30574 O 2991.85 -1.41806 -1.08413 0
M  V30 30575 C 2988.95 -2.75087 -1.9794 0
M  V30 30576 C 2988.13 -4.03258 -1.69417 0
M  V30 30577 C 2987.18 -4.45061 -2.80726 0
M  V30 30578 O 2986.21 -5.11857 -2.48981 0
M  V30 30579 N 2987.41 -4.1116 -4.0979 0
M  V30 30580 H 2990.18 -2.99129 -0.184887 0
M  V30 30581 H 2987.74 -1.61835 0.045763 0
M  V30 30582 H 2989.73 -3.00021 -2.71606 0
M  V30 30583 H 2988.3 -1.98032 -2.41872 0
M  V30 30584 H 2987.52 -3.86127 -0.793699 0
M  V30 30585 H 2988.81 -4.86861 -1.47797 0
M  V30 30586 H 2988.21 -3.57494 -4.38423 0
M  V30 30587 H 2986.76 -4.40975 -4.79984 0
M  V30 30588 N 2990.2 0.0467589 -1.57531 0
M  V30 30589 C 2991.16 1.03735 -2.04381 0
M  V30 30590 C 2992.16 1.30108 -0.944904 0
M  V30 30591 O 2993.35 1.25408 -1.20906 0
M  V30 30592 C 2990.48 2.37477 -2.44576 0
M  V30 30593 H 2991.67 0.633011 -2.93143 0
M  V30 30594 H 2989.23 0.29315 -1.53526 0
M  V30 30595 H 2989.96 2.82694 -1.58916 0
M  V30 30596 H 2989.75 2.1967 -3.24789 0
M  V30 30597 H 2991.24 3.08631 -2.81312 0
M  V30 30598 N 2991.67 1.54344 0.318688 0
M  V30 30599 C 2993.09 1.63968 0.892821 0
M  V30 30600 C 2993.44 0.536888 1.88711 0
M  V30 30601 O 2992.56 -0.329419 2.13878 0
M  V30 30602 C 2993.16 2.97225 1.62613 0
M  V30 30603 C 2991.72 3.09028 2.14892 0
M  V30 30604 C 2990.86 2.59562 0.975863 0
M  V30 30605 H 2993.81 1.58409 0.0961409 0
M  V30 30606 H 2993.83 2.87658 2.49065 0
M  V30 30607 H 2993.35 3.77467 0.902219 0
M  V30 30608 H 2991.45 2.3347 2.90383 0
M  V30 30609 H 2991.56 4.14908 2.39558 0
M  V30 30610 H 2989.92 2.15577 1.35642 0
M  V30 30611 H 2990.71 3.42266 0.266193 0
M  V30 30612 N 2993.15 -0.580999 1.465 0
M  V30 30613 C 2994.08 -1.70014 1.60055 0
M  V30 30614 C 2995.06 -1.64017 0.450816 0
M  V30 30615 O 2996.25 -1.82007 0.677269 0
M  V30 30616 C 2993.38 -3.08655 1.59215 0
M  V30 30617 C 2992.33 -3.29483 2.73175 0
M  V30 30618 C 2991.66 -4.68669 2.57397 0
M  V30 30619 C 2992.96 -3.17153 4.14984 0
M  V30 30620 H 2994.65 -1.58926 2.53738 0
M  V30 30621 H 2992.2 -0.763152 1.22115 0
M  V30 30622 H 2994.15 -3.86771 1.67292 0
M  V30 30623 H 2992.88 -3.20646 0.620775 0
M  V30 30624 H 2991.53 -2.53768 2.6457 0
M  V30 30625 H 2991.18 -4.77428 1.58339 0
M  V30 30626 H 2990.88 -4.83558 3.33835 0
M  V30 30627 H 2992.41 -5.48951 2.67367 0
M  V30 30628 H 2993.82 -3.85111 4.24691 0
M  V30 30629 H 2992.22 -3.43562 4.92022 0
M  V30 30630 H 2993.29 -2.1421 4.3502 0
M  V30 30631 N 2994.63 -1.34234 -0.825776 0
M  V30 30632 C 2996.04 -1.23708 -1.39833 0
M  V30 30633 C 2996.39 0.138614 -1.9571 0
M  V30 30634 O 2995.52 1.03882 -1.89835 0
M  V30 30635 C 2996.11 -2.23983 -2.54199 0
M  V30 30636 C 2994.67 -2.17257 -3.0737 0
M  V30 30637 C 2993.82 -2.10744 -1.80228 0
M  V30 30638 H 2996.77 -1.45642 -0.630416 0
M  V30 30639 H 2996.79 -1.85516 -3.32211 0
M  V30 30640 H 2996.3 -3.24097 -2.13501 0
M  V30 30641 H 2994.4 -1.20489 -3.52581 0
M  V30 30642 H 2994.52 -3.08385 -3.66654 0
M  V30 30643 H 2992.88 -1.56421 -2.01009 0
M  V30 30644 H 2993.66 -3.12688 -1.41708 0
M  V30 30645 N 2996.11 1.04563 -1.17917 0
M  V30 30646 C 2997.04 2.12478 -0.859396 0
M  V30 30647 C 2998.05 1.62189 0.140893 0
M  V30 30648 O 2999.24 1.78291 -0.0862675 0
M  V30 30649 C 2996.34 3.37887 -0.261871 0
M  V30 30650 C 2995.52 4.17429 -1.30659 0
M  V30 30651 C 2994.57 5.21172 -0.725667 0
M  V30 30652 O 2993.6 5.51737 -1.39911 0
M  V30 30653 N 2994.8 5.78518 0.479249 0
M  V30 30654 H 2997.57 2.40505 -1.78823 0
M  V30 30655 H 2995.13 1.20714 -1.07888 0
M  V30 30656 H 2997.12 4.04457 0.140209 0
M  V30 30657 H 2995.69 3.07343 0.570875 0
M  V30 30658 H 2994.91 3.46255 -1.88418 0
M  V30 30659 H 2996.2 4.67369 -2.01107 0
M  V30 30660 H 2995.6 5.55979 1.04421 0
M  V30 30661 H 2994.15 6.46579 0.823313 0
M  V30 30662 N 2997.59 0.980408 1.23393 0
M  V30 30663 C 2998.52 0.478696 2.24145 0
M  V30 30664 C 2999.53 -0.419464 1.57303 0
M  V30 30665 O 3000.72 -0.223599 1.77094 0
M  V30 30666 C 2997.82 -0.326854 3.3732 0
M  V30 30667 C 2996.99 0.564436 4.33743 0
M  V30 30668 C 2996.05 -0.187265 5.25867 0
M  V30 30669 O 2995.08 0.423118 5.67625 0
M  V30 30670 N 2996.28 -1.47325 5.61494 0
M  V30 30671 H 2999.05 1.34501 2.67824 0
M  V30 30672 H 2996.61 0.853677 1.37564 0
M  V30 30673 H 2998.6 -0.838078 3.95927 0
M  V30 30674 H 2997.17 -1.09417 2.92825 0
M  V30 30675 H 2996.39 1.25649 3.73639 0
M  V30 30676 H 2997.68 1.17186 4.95121 0
M  V30 30677 H 2997.07 -1.99067 5.29517 0
M  V30 30678 H 2995.63 -1.92991 6.22573 0
M  V30 30679 N 2999.06 -1.38498 0.75206 0
M  V30 30680 C 3000 -2.29048 0.0835492 0
M  V30 30681 C 3001.01 -1.4767 -0.685376 0
M  V30 30682 O 3002.2 -1.70552 -0.526718 0
M  V30 30683 C 2999.3 -3.26573 -0.905715 0
M  V30 30684 C 2998.47 -4.36966 -0.194751 0
M  V30 30685 C 2997.53 -5.1469 -1.09455 0
M  V30 30686 O 2996.56 -5.66382 -0.565643 0
M  V30 30687 N 2997.76 -5.27524 -2.42278 0
M  V30 30688 H 3000.52 -2.8706 0.861193 0
M  V30 30689 H 2998.08 -1.50263 0.602716 0
M  V30 30690 H 3000.08 -3.75448 -1.51065 0
M  V30 30691 H 2998.65 -2.6947 -1.58445 0
M  V30 30692 H 2997.87 -3.89746 0.59088 0
M  V30 30693 H 2999.15 -5.07931 0.297278 0
M  V30 30694 H 2998.55 -4.87075 -2.87706 0
M  V30 30695 H 2997.11 -5.79778 -2.97826 0
M  V30 30696 N 3000.54 -0.501015 -1.49424 0
M  V30 30697 C 3001.95 -0.0532339 -1.86624 0
M  V30 30698 C 3002.3 1.36086 -1.41334 0
M  V30 30699 O 3001.43 2.01416 -0.791231 0
M  V30 30700 C 3002.02 -0.0898288 -3.38681 0
M  V30 30701 C 3000.58 0.302611 -3.75182 0
M  V30 30702 C 2999.73 -0.462355 -2.73418 0
M  V30 30703 H 3002.68 -0.713798 -1.41741 0
M  V30 30704 H 3002.7 0.705463 -3.73903 0
M  V30 30705 H 3002.21 -1.11914 -3.71614 0
M  V30 30706 H 3000.32 1.33515 -3.47857 0
M  V30 30707 H 3000.43 -0.0168495 -4.79097 0
M  V30 30708 H 2998.79 0.087811 -2.54549 0
M  V30 30709 H 2999.58 -1.49174 -3.09196 0
M  V30 30710 N 3002.02 1.5584 -0.234849 0
M  V30 30711 C 3002.95 2.16871 0.710096 0
M  V30 30712 C 3003.93 1.11708 1.18153 0
M  V30 30713 O 3005.12 1.40034 1.26186 0
M  V30 30714 C 3002.24 2.7597 1.96363 0
M  V30 30715 C 3001.29 3.94079 1.63107 0
M  V30 30716 S 3002.12 5.30303 0.744214 0
M  V30 30717 C 3003.28 5.92849 2.00701 0
M  V30 30718 H 3003.51 2.96683 0.191408 0
M  V30 30719 H 3001.04 1.54388 -0.0194126 0
M  V30 30720 H 3003 3.10657 2.68332 0
M  V30 30721 H 3001.66 1.96126 2.45344 0
M  V30 30722 H 3000.86 4.33979 2.56277 0
M  V30 30723 H 3000.46 3.60607 0.991904 0
M  V30 30724 H 3002.75 6.09632 2.95559 0
M  V30 30725 H 3003.69 6.88567 1.6517 0
M  V30 30726 H 3004.1 5.21804 2.15361 0
M  V30 30727 N 3003.5 -0.038404 1.57553 0
M  V30 30728 C 3004.91 -0.58618 1.77259 0
M  V30 30729 C 3005.26 -1.76116 0.864737 0
M  V30 30730 O 3004.39 -2.16324 0.057179 0
M  V30 30731 C 3004.98 -1.07016 3.21455 0
M  V30 30732 C 3003.54 -1.56352 3.4239 0
M  V30 30733 C 3002.69 -0.49746 2.72801 0
M  V30 30734 H 3005.64 0.187824 1.57585 0
M  V30 30735 H 3005.66 -1.93788 3.27454 0
M  V30 30736 H 3005.17 -0.214783 3.87505 0
M  V30 30737 H 3003.27 -2.44106 2.81501 0
M  V30 30738 H 3003.39 -1.61746 4.50971 0
M  V30 30739 H 3001.75 -0.950339 2.36306 0
M  V30 30740 H 3002.53 0.348294 3.41529 0
M  V30 30741 N 3004.98 -1.54511 -0.310498 0
M  V30 30742 C 3006.23 -1.72998 -1.04481 0
M  V30 30743 C 3006.55 -0.513512 -1.88117 0
M  V30 30744 O 3005.82 0.47235 -1.9012 0
M  V30 30745 H 3004.4 -0.637882 -0.388735 0
M  V30 30746 H 3007.06 -1.91844 -0.343777 0
M  V30 30747 H 3006.15 -2.61518 -1.70336 0
M  V30 30748 N 3006.46 0.573222 -1.46806 0
M  V30 30749 C 3007.39 1.69163 -1.60954 0
M  V30 30750 C 3008.37 1.63776 -0.459508 0
M  V30 30751 O 3009.55 1.81646 -0.686912 0
M  V30 30752 C 3006.68 3.07806 -1.6085 0
M  V30 30753 C 3005.64 3.2803 -2.74919 0
M  V30 30754 C 3004.96 4.67298 -2.59879 0
M  V30 30755 C 3006.26 3.14947 -4.1666 0
M  V30 30756 H 3007.96 1.57578 -2.54577 0
M  V30 30757 H 3005.5 0.756665 -1.22518 0
M  V30 30758 H 3007.45 3.85878 -1.6934 0
M  V30 30759 H 3006.18 3.20312 -0.63777 0
M  V30 30760 H 3004.84 2.52361 -2.65912 0
M  V30 30761 H 3004.49 4.76582 -1.60869 0
M  V30 30762 H 3004.19 4.8178 -3.36395 0
M  V30 30763 H 3005.71 5.47525 -2.70275 0
M  V30 30764 H 3007.12 3.82853 -4.26727 0
M  V30 30765 H 3005.52 3.40948 -4.93837 0
M  V30 30766 H 3006.59 2.119 -4.36149 0
M  V30 30767 N 3007.93 1.3467 0.818645 0
M  V30 30768 C 3009.34 1.24448 1.39174 0
M  V30 30769 C 3009.7 -0.128233 1.9578 0
M  V30 30770 O 3008.82 -1.02874 1.90384 0
M  V30 30771 C 3009.42 2.25328 2.53008 0
M  V30 30772 C 3007.97 2.18884 3.06214 0
M  V30 30773 C 3007.12 2.11697 1.79108 0
M  V30 30774 H 3010.07 1.45974 0.622683 0
M  V30 30775 H 3010.09 1.87275 3.31222 0
M  V30 30776 H 3009.61 3.25225 2.11779 0
M  V30 30777 H 3007.71 1.22357 3.51937 0
M  V30 30778 H 3007.82 3.10325 3.65014 0
M  V30 30779 H 3006.18 1.57484 2.00177 0
M  V30 30780 H 3006.97 3.13435 1.40047 0
M  V30 30781 N 3009.41 -1.03936 1.1847 0
M  V30 30782 C 3010.83 -1.29369 0.934658 0
M  V30 30783 C 3011.03 -1.97509 -0.399033 0
M  V30 30784 O 3010.08 -2.2565 -1.13305 0
M  V30 30785 C 3011.4 -2.1511 2.10115 0
M  V30 30786 C 3012.94 -2.28452 2.13959 0
M  V30 30787 C 3013.42 -3.1756 3.3003 0
M  V30 30788 N 3014.91 -3.25148 3.29899 0
M  V30 30789 C 3015.65 -3.94256 4.16353 0
M  V30 30790 N 3015.14 -4.65684 5.12943 0
M  V30 30791 N 3016.93 -3.90548 4.04263 0
M  V30 30792 H 3009.09 -0.581149 2.04295 0
M  V30 30793 H 3011.35 -0.318955 0.892733 0
M  V30 30794 H 3011.05 -1.7235 3.06575 0
M  V30 30795 H 3010.93 -3.15792 2.06289 0
M  V30 30796 H 3013.32 -2.70448 1.18076 0
M  V30 30797 H 3013.4 -1.27356 2.21842 0
M  V30 30798 H 3013.04 -2.76276 4.26186 0
M  V30 30799 H 3012.97 -4.18691 3.19383 0
M  V30 30800 H 3015.46 -2.74266 2.59974 0
M  V30 30801 H 3015.77 -5.16016 5.7528 0
M  V30 30802 H 3014.12 -4.64584 5.16901 0
M  V30 30803 H 3017.31 -3.33879 3.28089 0
M  V30 30804 H 3017.48 -4.44136 4.71856 0
M  V30 30805 N 3010.89 -0.986938 -1.22871 0
M  V30 30806 C 3012.3 -0.695468 -1.73263 0
M  V30 30807 C 3012.65 0.787992 -1.79681 0
M  V30 30808 O 3011.78 1.61615 -1.43908 0
M  V30 30809 C 3012.37 -1.25576 -3.14668 0
M  V30 30810 C 3010.93 -1.0138 -3.6249 0
M  V30 30811 C 3010.08 -1.37955 -2.40549 0
M  V30 30812 H 3013.03 -1.16001 -1.08302 0
M  V30 30813 H 3013.05 -0.631388 -3.75225 0
M  V30 30814 H 3012.56 -2.33544 -3.09965 0
M  V30 30815 H 3010.66 0.0495263 -3.72567 0
M  V30 30816 H 3010.78 -1.67297 -4.48941 0
M  V30 30817 H 3009.14 -0.798076 -2.41874 0
M  V30 30818 H 3009.92 -2.46915 -2.38512 0
M  V30 30819 N 3012.37 1.38098 -0.759394 0
M  V30 30820 C 3013.61 2.00281 -0.31862 0
M  V30 30821 C 3013.95 1.60145 1.09852 0
M  V30 30822 O 3013.22 0.841732 1.75343 0
M  V30 30823 C 3013.5 3.57301 -0.44811 0
M  V30 30824 C 3013.36 4.07385 -1.90677 0
M  V30 30825 C 3014.68 4.39827 0.155042 0
M  V30 30826 H 3011.8 0.727614 -0.117246 0
M  V30 30827 H 3014.44 1.63956 -0.960126 0
M  V30 30828 H 3012.59 3.88376 0.098032 0
M  V30 30829 H 3014.26 3.86928 -2.51167 0
M  V30 30830 H 3012.5 3.60036 -2.41985 0
M  V30 30831 H 3013.17 5.16466 -1.9485 0
M  V30 30832 H 3015.65 4.14938 -0.310803 0
M  V30 30833 H 3014.53 5.48889 0.0342299 0
M  V30 30834 H 3014.79 4.24237 1.244 0
M  V30 30835 N 3013.85 0.508932 1.49156 0
M  V30 30836 C 3015.09 -0.03465 2.0167 0
M  V30 30837 C 3015.41 -1.37308 1.39305 0
M  V30 30838 O 3016.61 -2.00381 1.83193 0
M  V30 30839 C 3015.07 -0.112198 3.59725 0
M  V30 30840 C 3014.68 1.22007 4.31067 0
M  V30 30841 C 3016.42 -0.605724 4.20156 0
M  V30 30842 C 3014.33 1.10425 5.80999 0
M  V30 30843 H 3013.26 -0.0167222 0.753815 0
M  V30 30844 H 3015.91 0.649548 1.71619 0
M  V30 30845 H 3014.29 -0.861019 3.86526 0
M  V30 30846 H 3015.47 1.9828 4.15959 0
M  V30 30847 H 3013.78 1.64766 3.82415 0
M  V30 30848 H 3016.38 -0.710009 5.29965 0
M  V30 30849 H 3016.72 -1.60649 3.84054 0
M  V30 30850 H 3017.25 0.0867938 3.97705 0
M  V30 30851 H 3013.99 2.07952 6.2164 0
M  V30 30852 H 3013.51 0.382534 5.98579 0
M  V30 30853 H 3015.19 0.786229 6.42205 0
M  V30 30854 N 3015.32 -1.55714 0.243111 0
M  V30 30855 C 3016.55 -2.03702 -0.389908 0
M  V30 30856 C 3016.97 -1.12132 -1.51023 0
M  V30 30857 O 3016.33 -0.113551 -1.80944 0
M  V30 30858 C 3016.38 -3.49733 -0.878588 0
M  V30 30859 O 3015.48 -3.61296 -1.98845 0
M  V30 30860 H 3014.82 -0.658472 -0.0854999 0
M  V30 30861 H 3017.35 -2.01262 0.368059 0
M  V30 30862 H 3017.36 -3.90479 -1.1828 0
M  V30 30863 H 3016.04 -4.15859 -0.0587376 0
M  V30 30864 H 3014.62 -3.32445 -1.68922 0
M  V30 30865 N 3016.8 0.030048 -1.57571 0
M  V30 30866 C 3017.74 1.06402 -2.01876 0
M  V30 30867 C 3018.71 1.35226 -0.902925 0
M  V30 30868 O 3019.9 1.47899 -1.16868 0
M  V30 30869 C 3017.02 2.39896 -2.39097 0
M  V30 30870 C 3016.07 2.26936 -3.61112 0
M  V30 30871 S 3016.9 1.62373 -5.10289 0
M  V30 30872 C 3018.06 2.97359 -5.50752 0
M  V30 30873 H 3018.29 0.686653 -2.89262 0
M  V30 30874 H 3015.83 0.239991 -1.52523 0
M  V30 30875 H 3017.78 3.16667 -2.61213 0
M  V30 30876 H 3016.44 2.74781 -1.52164 0
M  V30 30877 H 3015.64 3.25482 -3.84808 0
M  V30 30878 H 3015.24 1.58308 -3.38843 0
M  V30 30879 H 3017.53 3.93688 -5.51376 0
M  V30 30880 H 3018.47 2.78397 -6.51076 0
M  V30 30881 H 3018.88 2.99887 -4.78255 0
M  V30 30882 N 3018.28 1.54674 0.3023 0
M  V30 30883 C 3019.21 1.81905 1.39439 0
M  V30 30884 C 3020.23 0.701939 1.4689 0
M  V30 30885 O 3021.41 0.979395 1.49232 0
M  V30 30886 C 3018.51 1.94085 2.7782 0
M  V30 30887 C 3017.69 3.24474 2.93318 0
M  V30 30888 C 3016.75 3.27087 4.1219 0
M  V30 30889 O 3015.77 4.00624 4.04337 0
M  V30 30890 N 3016.97 2.52385 5.22764 0
M  V30 30891 H 3019.74 2.76157 1.16436 0
M  V30 30892 H 3017.3 1.54232 0.492365 0
M  V30 30893 H 3019.29 1.93237 3.55586 0
M  V30 30894 H 3017.86 1.06833 2.93778 0
M  V30 30895 H 3017.08 3.38107 2.02676 0
M  V30 30896 H 3018.37 4.10521 3.00583 0
M  V30 30897 H 3017.77 1.92268 5.32024 0
M  V30 30898 H 3016.33 2.57292 5.98869 0
M  V30 30899 N 3019.76 -0.565428 1.47108 0
M  V30 30900 C 3020.72 -1.65525 1.58538 0
M  V30 30901 C 3021.72 -1.54047 0.461108 0
M  V30 30902 O 3022.91 -1.58353 0.725938 0
M  V30 30903 C 3020.04 -3.05033 1.52209 0
M  V30 30904 H 3021.24 -1.56742 2.55679 0
M  V30 30905 H 3018.79 -0.784687 1.35175 0
M  V30 30906 H 3019.52 -3.19356 0.564128 0
M  V30 30907 H 3019.31 -3.14773 2.33796 0
M  V30 30908 H 3020.8 -3.84335 1.63329 0
M  V30 30909 N 3021.24 -1.35102 -0.811492 0
M  V30 30910 C 3022.17 -1.23471 -1.931 0
M  V30 30911 C 3023.18 -0.159124 -1.6202 0
M  V30 30912 O 3024.37 -0.411975 -1.73681 0
M  V30 30913 C 3021.47 -0.877461 -3.27344 0
M  V30 30914 C 3020.64 -2.0504 -3.86364 0
M  V30 30915 C 3019.7 -1.66972 -4.99006 0
M  V30 30916 O 3018.73 -2.38781 -5.16693 0
M  V30 30917 N 3019.93 -0.590496 -5.77489 0
M  V30 30918 H 3022.7 -2.1992 -2.03606 0
M  V30 30919 H 3020.26 -1.28207 -0.988664 0
M  V30 30920 H 3022.25 -0.604369 -4.00162 0
M  V30 30921 H 3020.82 -0.00280762 -3.126 0
M  V30 30922 H 3020.04 -2.48758 -3.058 0
M  V30 30923 H 3021.33 -2.83456 -4.22528 0
M  V30 30924 H 3020.72 0.00623316 -5.657 0
M  V30 30925 H 3019.28 -0.377169 -6.50708 0
M  V30 30926 N 3022.71 1.03306 -1.19019 0
M  V30 30927 C 3023.68 2.09656 -0.926113 0
M  V30 30928 C 3024.68 1.60538 0.0916795 0
M  V30 30929 O 3025.87 1.73615 -0.142605 0
M  V30 30930 C 3023 3.3865 -0.391017 0
M  V30 30931 H 3024.19 2.34517 -1.86927 0
M  V30 30932 H 3021.75 1.19851 -1.00327 0
M  V30 30933 H 3022.48 3.19457 0.55839 0
M  V30 30934 H 3022.27 3.7562 -1.1248 0
M  V30 30935 H 3023.76 4.16992 -0.225205 0
M  V30 30936 N 3024.19 0.99344 1.22346 0
M  V30 30937 C 3025.16 0.54929 2.22521 0
M  V30 30938 C 3026.16 -0.368136 1.56529 0
M  V30 30939 O 3027.35 -0.160019 1.73463 0
M  V30 30940 C 3024.48 -0.200978 3.40307 0
M  V30 30941 H 3025.67 1.43519 2.63329 0
M  V30 30942 H 3023.22 0.780704 1.35406 0
M  V30 30943 H 3023.96 -1.10284 3.04972 0
M  V30 30944 H 3023.74 0.457753 3.89419 0
M  V30 30945 H 3025.23 -0.499873 4.14597 0
M  V30 30946 N 3025.67 -1.37693 0.766707 0
M  V30 30947 C 3026.92 -2.0011 0.329236 0
M  V30 30948 C 3027.25 -1.60725 -1.09001 0
M  V30 30949 O 3026.52 -0.851019 -1.74894 0
M  V30 30950 C 3026.81 -3.57058 0.467052 0
M  V30 30951 C 3026.66 -4.06368 1.92835 0
M  V30 30952 C 3027.98 -4.39903 -0.131715 0
M  V30 30953 H 3025.1 -0.726982 0.121103 0
M  V30 30954 H 3027.74 -1.63445 0.968808 0
M  V30 30955 H 3025.89 -3.88423 -0.0774341 0
M  V30 30956 H 3027.56 -3.8559 2.53215 0
M  V30 30957 H 3025.81 -3.58747 2.43891 0
M  V30 30958 H 3026.48 -5.15426 1.97586 0
M  V30 30959 H 3028.95 -4.14767 0.332803 0
M  V30 30960 H 3027.83 -5.489 -0.00512051 0
M  V30 30961 H 3028.09 -4.24891 -1.22148 0
M  V30 30962 N 3027.15 -0.516835 -1.48884 0
M  V30 30963 C 3028.11 0.242216 -2.27917 0
M  V30 30964 C 3029.11 0.879711 -1.34602 0
M  V30 30965 O 3030.3 0.741792 -1.57617 0
M  V30 30966 C 3027.43 1.34909 -3.13069 0
M  V30 30967 H 3028.63 -0.451496 -2.96482 0
M  V30 30968 H 3026.18 -0.272321 -1.53909 0
M  V30 30969 H 3026.91 2.07646 -2.49105 0
M  V30 30970 H 3026.7 0.897246 -3.81696 0
M  V30 30971 H 3028.19 1.88334 -3.7272 0
M  V30 30972 N 3028.63 1.55583 -0.251365 0
M  V30 30973 C 3029.87 1.98658 0.371399 0
M  V30 30974 C 3030.2 1.1409 1.58141 0
M  V30 30975 O 3029.47 0.224742 1.94607 0
M  V30 30976 H 3028.05 0.733723 0.140212 0
M  V30 30977 H 3030.71 1.9171 -0.351191 0
M  V30 30978 H 3029.8 3.04658 0.677501 0
M  V30 30979 N 3030.1 -0.0216912 1.57585 0
M  V30 30980 C 3031.52 -0.567346 1.77871 0
M  V30 30981 C 3031.87 -1.75189 0.883368 0
M  V30 30982 O 3030.99 -2.16252 0.0801199 0
M  V30 30983 C 3031.59 -1.036 3.22572 0
M  V30 30984 C 3030.15 -1.52712 3.44029 0
M  V30 30985 C 3029.29 -0.468497 2.73314 0
M  V30 30986 H 3032.24 0.204527 1.57377 0
M  V30 30987 H 3032.26 -1.90304 3.29491 0
M  V30 30988 H 3031.78 -0.173671 3.87711 0
M  V30 30989 H 3029.88 -2.41106 2.84075 0
M  V30 30990 H 3029.99 -1.56954 4.52661 0
M  V30 30991 H 3028.35 -0.925222 2.37301 0
M  V30 30992 H 3029.14 0.384498 3.4114 0
M  V30 30993 N 3031.58 -1.54832 -0.294093 0
M  V30 30994 C 3033 -1.462 -0.640141 0
M  V30 30995 C 3033.2 -0.658832 -1.90425 0
M  V30 30996 O 3032.26 -0.169272 -2.51932 0
M  V30 30997 C 3033.57 -2.90226 -0.786712 0
M  V30 30998 C 3035.12 -3.00312 -0.882148 0
M  V30 30999 C 3035.59 -4.45549 -1.06066 0
M  V30 31000 N 3037.08 -4.49288 -1.1267 0
M  V30 31001 C 3037.82 -5.58856 -1.28325 0
M  V30 31002 N 3037.31 -6.78335 -1.40833 0
M  V30 31003 N 3039.11 -5.46558 -1.31268 0
M  V30 31004 H 3031.26 -2.05516 0.53637 0
M  V30 31005 H 3033.52 -0.931066 0.178379 0
M  V30 31006 H 3033.23 -3.51628 0.0713636 0
M  V30 31007 H 3033.1 -3.3804 -1.67358 0
M  V30 31008 H 3035.49 -2.3902 -1.73071 0
M  V30 31009 H 3035.57 -2.55784 0.0288854 0
M  V30 31010 H 3035.21 -5.07437 -0.216846 0
M  V30 31011 H 3035.14 -4.87714 -1.98603 0
M  V30 31012 H 3037.63 -3.63213 -1.04329 0
M  V30 31013 H 3037.95 -7.57593 -1.52553 0
M  V30 31014 H 3036.29 -6.81187 -1.37876 0
M  V30 31015 H 3039.48 -4.52161 -1.21112 0
M  V30 31016 H 3039.66 -6.31996 -1.43124 0
M  V30 31017 N 3033.06 0.557619 -1.47405 0
M  V30 31018 C 3033.99 1.68034 -1.54402 0
M  V30 31019 C 3034.97 1.57699 -0.396203 0
M  V30 31020 O 3036.16 1.78563 -0.603942 0
M  V30 31021 C 3033.28 3.06274 -1.44617 0
M  V30 31022 C 3032.33 3.35055 -2.63895 0
M  V30 31023 S 3033.16 3.24355 -4.26092 0
M  V30 31024 C 3034.32 4.6509 -4.18859 0
M  V30 31025 H 3034.55 1.61845 -2.49387 0
M  V30 31026 H 3032.08 0.738405 -1.35598 0
M  V30 31027 H 3034.04 3.86013 -1.39658 0
M  V30 31028 H 3032.7 3.09929 -0.510169 0
M  V30 31029 H 3031.9 4.35834 -2.53111 0
M  V30 31030 H 3031.5 2.62934 -2.65973 0
M  V30 31031 H 3033.79 5.5603 -3.87087 0
M  V30 31032 H 3034.73 4.80931 -5.19722 0
M  V30 31033 H 3035.14 4.43117 -3.49725 0
M  V30 31034 N 3034.54 1.35531 0.804316 0
M  V30 31035 C 3035.95 1.25917 1.37847 0
M  V30 31036 C 3036.3 -0.107461 1.95905 0
M  V30 31037 O 3035.43 -1.00849 1.91464 0
M  V30 31038 C 3036.02 2.27998 2.50604 0
M  V30 31039 C 3034.58 2.22119 3.03875 0
M  V30 31040 C 3033.73 2.13585 1.76853 0
M  V30 31041 H 3036.68 1.46626 0.607166 0
M  V30 31042 H 3036.7 1.90778 3.29217 0
M  V30 31043 H 3036.21 3.27453 2.08317 0
M  V30 31044 H 3034.31 1.26083 3.50619 0
M  V30 31045 H 3034.43 3.14179 3.61702 0
M  V30 31046 H 3032.79 1.59599 1.98495 0
M  V30 31047 H 3033.57 3.14903 1.36715 0
M  V30 31048 N 3036.02 -1.02674 1.19565 0
M  V30 31049 C 3037.24 -1.80268 1.02559 0
M  V30 31050 C 3037.67 -1.83328 -0.421024 0
M  V30 31051 O 3037.03 -1.26086 -1.30277 0
M  V30 31052 C 3037.07 -3.23075 1.60171 0
M  V30 31053 O 3036.18 -4.0391 0.832475 0
M  V30 31054 H 3035.52 -0.556407 0.362363 0
M  V30 31055 H 3038.05 -1.29213 1.58635 0
M  V30 31056 H 3038.06 -3.73817 1.63477 0
M  V30 31057 H 3036.73 -3.20163 2.65459 0
M  V30 31058 H 3035.31 -3.62541 0.872832 0
M  V30 31059 N 3037.5 -0.999914 -1.21817 0
M  V30 31060 C 3038.74 -0.680734 -1.91034 0
M  V30 31061 C 3039.07 0.78599 -1.77583 0
M  V30 31062 O 3038.35 1.56919 -1.1492 0
M  V30 31063 C 3038.63 -1.09616 -3.43011 0
M  V30 31064 C 3038.49 -2.62196 -3.65477 0
M  V30 31065 C 3039.8 -0.654692 -4.35203 0
M  V30 31066 H 3036.92 -0.248775 -0.693743 0
M  V30 31067 H 3039.57 -1.24469 -1.43553 0
M  V30 31068 H 3037.72 -0.61632 -3.8358 0
M  V30 31069 H 3039.39 -3.17904 -3.34267 0
M  V30 31070 H 3037.63 -3.03944 -3.09517 0
M  V30 31071 H 3038.3 -2.86315 -4.7194 0
M  V30 31072 H 3040.78 -1.06695 -4.02188 0
M  V30 31073 H 3039.65 -0.973587 -5.40197 0
M  V30 31074 H 3039.91 0.444381 -4.39861 0
M  V30 31075 N 3038.97 1.37284 -0.773999 0
M  V30 31076 C 3039.91 2.28886 -0.119978 0
M  V30 31077 C 3040.92 1.48742 0.661796 0
M  V30 31078 O 3042.11 1.71368 0.499518 0
M  V30 31079 C 3039.21 3.27973 0.853645 0
M  V30 31080 C 3038.38 4.37221 0.125209 0
M  V30 31081 C 3037.44 5.16367 1.01252 0
M  V30 31082 O 3036.47 5.67211 0.475465 0
M  V30 31083 N 3037.67 5.31312 2.33855 0
M  V30 31084 H 3040.43 2.85654 -0.906752 0
M  V30 31085 H 3037.99 1.49285 -0.626545 0
M  V30 31086 H 3039.99 3.77804 1.45073 0
M  V30 31087 H 3038.56 2.71957 1.54138 0
M  V30 31088 H 3037.78 3.88757 -0.652811 0
M  V30 31089 H 3039.06 5.07394 -0.378048 0
M  V30 31090 H 3038.46 4.9159 2.79921 0
M  V30 31091 H 3037.02 5.84443 2.88565 0
M  V30 31092 N 3040.45 0.524724 1.48608 0
M  V30 31093 C 3041.86 0.0829174 1.86516 0
M  V30 31094 C 3042.21 -1.3382 1.43481 0
M  V30 31095 O 3041.34 -2.00132 0.823174 0
M  V30 31096 C 3041.93 0.143699 3.38495 0
M  V30 31097 C 3040.49 -0.242885 3.75616 0
M  V30 31098 C 3039.64 0.505795 2.72648 0
M  V30 31099 H 3042.59 0.736257 1.40588 0
M  V30 31100 H 3042.61 -0.645889 3.74978 0
M  V30 31101 H 3042.12 1.17812 3.69786 0
M  V30 31102 H 3040.22 -1.27964 3.49937 0
M  V30 31103 H 3040.34 0.0930676 4.7901 0
M  V30 31104 H 3038.7 -0.0473034 2.54656 0
M  V30 31105 H 3039.48 1.54074 3.06783 0
M  V30 31106 N 3041.93 -1.55447 0.259613 0
M  V30 31107 C 3043.34 -1.85136 -0.241133 0
M  V30 31108 C 3043.69 -1.18156 -1.56632 0
M  V30 31109 O 3042.82 -0.464388 -2.11358 0
M  V30 31110 C 3043.41 -3.35874 -0.444296 0
M  V30 31111 C 3041.97 -3.65744 -0.889289 0
M  V30 31112 C 3041.12 -2.77288 0.0262961 0
M  V30 31113 H 3044.07 -1.51209 0.481835 0
M  V30 31114 H 3044.09 -3.58141 -1.28511 0
M  V30 31115 H 3043.6 -3.84596 0.520357 0
M  V30 31116 H 3041.7 -3.2251 -1.86596 0
M  V30 31117 H 3041.82 -4.73392 -0.737348 0
M  V30 31118 H 3040.18 -2.49995 -0.487317 0
M  V30 31119 H 3040.96 -3.28819 0.986552 0
M  V30 31120 N 3043.41 0.0133338 -1.57594 0
M  V30 31121 C 3044.82 0.369228 -1.5527 0
M  V30 31122 C 3045.02 1.75628 -0.987782 0
M  V30 31123 O 3044.08 2.44878 -0.615726 0
M  V30 31124 C 3045.39 0.256667 -2.99603 0
M  V30 31125 C 3046.94 0.332593 -3.11228 0
M  V30 31126 C 3047.42 0.249306 -4.57321 0
M  V30 31127 N 3048.91 0.307619 -4.62177 0
M  V30 31128 C 3049.64 0.266309 -5.72781 0
M  V30 31129 N 3049.14 0.176372 -6.92575 0
M  V30 31130 N 3050.93 0.317197 -5.61204 0
M  V30 31131 H 3043.08 -0.894188 -1.9266 0
M  V30 31132 H 3045.34 -0.34152 -0.884346 0
M  V30 31133 H 3045.05 -0.697132 -3.44722 0
M  V30 31134 H 3044.92 1.04408 -3.62462 0
M  V30 31135 H 3047.31 1.27683 -2.66047 0
M  V30 31136 H 3047.39 -0.484456 -2.51171 0
M  V30 31137 H 3047.04 -0.691331 -5.03173 0
M  V30 31138 H 3046.97 1.08467 -5.15308 0
M  V30 31139 H 3049.46 0.379002 -3.75995 0
M  V30 31140 H 3049.77 0.150382 -7.72654 0
M  V30 31141 H 3048.12 0.142191 -6.94855 0
M  V30 31142 H 3051.31 0.385561 -4.66509 0
M  V30 31143 H 3051.48 0.281536 -6.47388 0
M  V30 31144 N 3044.89 1.54985 0.285878 0
M  V30 31145 C 3046.11 1.79322 1.04204 0
M  V30 31146 C 3046.54 0.558374 1.79621 0
M  V30 31147 O 3045.89 -0.491631 1.74507 0
M  V30 31148 C 3045.94 3.00954 1.98643 0
M  V30 31149 O 3045.05 2.75137 3.07202 0
M  V30 31150 H 3044.39 0.593079 0.298586 0
M  V30 31151 H 3046.92 2.02103 0.3187 0
M  V30 31152 H 3046.93 3.29337 2.40834 0
M  V30 31153 H 3045.6 3.90484 1.4316 0
M  V30 31154 H 3044.18 2.57814 2.69418 0
M  V30 31155 N 3046.36 -0.549794 1.47699 0
M  V30 31156 C 3047.61 -1.30301 1.53963 0
M  V30 31157 C 3047.93 -1.94472 0.209765 0
M  V30 31158 O 3049.13 -2.71083 0.150465 0
M  V30 31159 C 3047.59 -2.36323 2.7144 0
M  V30 31160 C 3047.2 -1.78309 4.10986 0
M  V30 31161 C 3048.94 -3.12778 2.87002 0
M  V30 31162 C 3046.85 -2.82155 5.19752 0
M  V30 31163 H 3045.78 -0.489964 0.573106 0
M  V30 31164 H 3048.43 -0.583058 1.7399 0
M  V30 31165 H 3046.81 -3.11265 2.44806 0
M  V30 31166 H 3047.98 -1.09689 4.47554 0
M  V30 31167 H 3046.3 -1.14413 4.00373 0
M  V30 31168 H 3048.9 -3.90341 3.65429 0
M  V30 31169 H 3049.24 -3.67423 1.95719 0
M  V30 31170 H 3049.77 -2.44949 3.13441 0
M  V30 31171 H 3046.51 -2.32356 6.12936 0
M  V30 31172 H 3046.03 -3.49163 4.87694 0
M  V30 31173 H 3047.71 -3.45511 5.4702 0
M  V30 31174 N 3047.84 -1.35955 -0.797117 0
M  V30 31175 C 3049.07 -1.33055 -1.59094 0
M  V30 31176 C 3049.49 0.0874262 -1.87897 0
M  V30 31177 O 3048.85 1.0571 -1.47293 0
M  V30 31178 C 3048.9 -2.15205 -2.89342 0
M  V30 31179 O 3048 -1.53926 -3.82597 0
M  V30 31180 H 3047.34 -0.455759 -0.482887 0
M  V30 31181 H 3049.87 -1.79131 -0.988601 0
M  V30 31182 H 3049.88 -2.27505 -3.38682 0
M  V30 31183 H 3048.56 -3.18288 -2.67705 0
M  V30 31184 H 3047.14 -1.50522 -3.41171 0
M  V30 31185 N 3049.32 1.02038 -1.20108 0
M  V30 31186 C 3050.73 1.57025 -1.00995 0
M  V30 31187 C 3051.08 1.91323 0.434749 0
M  V30 31188 O 3050.21 1.71821 1.31554 0
M  V30 31189 C 3050.8 2.85316 -1.82702 0
M  V30 31190 C 3049.36 3.36845 -1.67965 0
M  V30 31191 C 3048.51 2.10192 -1.80871 0
M  V30 31192 H 3051.46 0.844653 -1.34355 0
M  V30 31193 H 3051.48 3.56568 -1.32815 0
M  V30 31194 H 3050.99 2.60323 -2.87843 0
M  V30 31195 H 3049.09 3.66807 -0.654454 0
M  V30 31196 H 3049.21 4.09303 -2.49013 0
M  V30 31197 H 3047.57 2.22467 -1.24019 0
M  V30 31198 H 3048.35 1.8763 -2.87489 0
M  V30 31199 N 3050.8 1.00636 1.21285 0
M  V30 31200 C 3052.02 0.708476 1.94924 0
M  V30 31201 C 3052.45 -0.722752 1.7366 0
M  V30 31202 O 3051.81 -1.49591 1.02432 0
M  V30 31203 C 3051.85 1.03673 3.45376 0
M  V30 31204 O 3050.96 0.142733 4.12153 0
M  V30 31205 H 3050.3 0.263834 0.609334 0
M  V30 31206 H 3052.83 1.34697 1.54006 0
M  V30 31207 H 3052.84 0.984156 3.95952 0
M  V30 31208 H 3051.51 2.07957 3.60176 0
M  V30 31209 H 3050.09 0.251953 3.72048 0
M  V30 31210 N 3052.28 -1.36872 0.781268 0
M  V30 31211 C 3053.24 -2.28491 0.180134 0
M  V30 31212 C 3054.24 -1.48459 -0.617772 0
M  V30 31213 O 3055.43 -1.68553 -0.439962 0
M  V30 31214 C 3052.56 -3.32509 -0.751682 0
M  V30 31215 H 3053.75 -2.83162 0.987887 0
M  V30 31216 H 3051.31 -1.46299 0.550127 0
M  V30 31217 H 3052.04 -2.82979 -1.58408 0
M  V30 31218 H 3051.83 -3.91679 -0.181581 0
M  V30 31219 H 3053.32 -4.00951 -1.1674 0
M  V30 31220 N 3053.75 -0.532597 -1.48328 0
M  V30 31221 C 3054.68 0.21747 -2.32485 0
M  V30 31222 C 3055.67 0.932573 -1.42257 0
M  V30 31223 O 3056.85 0.917843 -1.71141 0
M  V30 31224 C 3053.98 1.26324 -3.23511 0
M  V30 31225 C 3052.93 0.666117 -4.22785 0
M  V30 31226 C 3052.26 1.81473 -5.02963 0
M  V30 31227 C 3053.56 -0.363905 -5.21031 0
M  V30 31228 H 3055.25 -0.485066 -2.95445 0
M  V30 31229 H 3052.8 -0.234719 -1.42074 0
M  V30 31230 H 3054.75 1.79594 -3.81214 0
M  V30 31231 H 3053.48 1.99539 -2.58557 0
M  V30 31232 H 3052.14 0.154916 -3.66273 0
M  V30 31233 H 3051.78 2.53532 -4.34431 0
M  V30 31234 H 3051.48 1.4211 -5.70157 0
M  V30 31235 H 3053.01 2.35116 -5.63518 0
M  V30 31236 H 3054.42 0.0818072 -5.73242 0
M  V30 31237 H 3052.82 -0.675061 -5.96291 0
M  V30 31238 H 3053.89 -1.26873 -4.68008 0
M  V30 31239 N 3055.23 1.55307 -0.267853 0
M  V30 31240 C 3056.16 2.19615 0.655872 0
M  V30 31241 C 3057.18 1.17867 1.123 0
M  V30 31242 O 3058.37 1.4463 1.04615 0
M  V30 31243 C 3055.47 2.80238 1.90577 0
M  V30 31244 C 3054.64 4.07608 1.58665 0
M  V30 31245 C 3053.7 4.52347 2.68828 0
M  V30 31246 O 3052.72 5.18278 2.35322 0
M  V30 31247 N 3053.93 4.2188 3.98745 0
M  V30 31248 H 3056.69 2.99514 0.105514 0
M  V30 31249 H 3054.25 1.61657 -0.0886547 0
M  V30 31250 H 3056.24 3.07116 2.63556 0
M  V30 31251 H 3054.81 2.04375 2.36537 0
M  V30 31252 H 3054.03 3.88096 0.691045 0
M  V30 31253 H 3055.32 4.90608 1.34837 0
M  V30 31254 H 3054.72 3.68992 4.2879 0
M  V30 31255 H 3053.28 4.53546 4.68124 0
M  V30 31256 N 3056.71 -0.00497598 1.57599 0
M  V30 31257 C 3057.99 -0.727622 1.81563 0
M  V30 31258 C 3058.37 -1.92265 0.871638 0
M  V30 31259 O 3057.72 -2.28357 -0.0807831 0
M  V30 31260 C 3057.93 -1.13803 3.29924 0
M  V30 31261 C 3059.27 -1.54396 3.95534 0
M  V30 31262 O 3060.3 -1.23196 3.34217 0
M  V30 31263 O 3059.16 -2.12393 5.03539 0
M  V30 31264 H 3056.25 -0.353865 0.747468 0
M  V30 31265 H 3058.8 0.0200965 1.69688 0
M  V30 31266 H 3057.57 -0.286009 3.90253 0
M  V30 31267 H 3057.19 -1.94501 3.46778 0
M  V30 31268 N 3058.19 -1.55135 -0.277654 0
M  V30 31269 C 3059.12 -1.90703 -1.34739 0
M  V30 31270 C 3060.1 -0.76838 -1.51756 0
M  V30 31271 O 3061.28 -1.02612 -1.64877 0
M  V30 31272 C 3058.41 -2.17486 -2.70771 0
M  V30 31273 C 3057.37 -3.33312 -2.68491 0
M  V30 31274 C 3056.69 -3.45564 -4.08031 0
M  V30 31275 C 3057.99 -4.69825 -2.2817 0
M  V30 31276 H 3059.69 -2.80302 -1.05219 0
M  V30 31277 H 3057.23 -1.34865 -0.504715 0
M  V30 31278 H 3059.19 -2.40955 -3.45714 0
M  V30 31279 H 3057.91 -1.24681 -3.01864 0
M  V30 31280 H 3056.57 -3.09803 -1.96005 0
M  V30 31281 H 3056.22 -2.50234 -4.36339 0
M  V30 31282 H 3055.92 -4.23436 -4.07401 0
M  V30 31283 H 3057.44 -3.71321 -4.8472 0
M  V30 31284 H 3058.86 -4.9287 -2.92835 0
M  V30 31285 H 3057.25 -5.50579 -2.38711 0
M  V30 31286 H 3058.32 -4.68962 -1.23299 0
M  V30 31287 N 3059.67 0.541953 -1.47989 0
M  V30 31288 C 3060.6 1.6571 -1.64506 0
M  V30 31289 C 3061.58 1.62764 -0.494144 0
M  V30 31290 O 3062.76 1.80148 -0.725287 0
M  V30 31291 C 3059.89 3.04325 -1.67343 0
M  V30 31292 C 3058.85 3.22125 -2.81815 0
M  V30 31293 C 3058.17 4.6168 -2.69733 0
M  V30 31294 C 3059.47 3.06039 -4.23247 0
M  V30 31295 H 3061.17 1.52142 -2.57862 0
M  V30 31296 H 3058.71 0.730507 -1.24095 0
M  V30 31297 H 3060.67 3.82199 -1.77487 0
M  V30 31298 H 3059.39 3.18888 -0.70557 0
M  V30 31299 H 3058.05 2.46664 -2.71205 0
M  V30 31300 H 3057.7 4.73062 -1.70942 0
M  V30 31301 H 3057.4 4.74537 -3.46538 0
M  V30 31302 H 3058.92 5.41669 -2.81828 0
M  V30 31303 H 3060.33 3.73716 -4.34752 0
M  V30 31304 H 3058.73 3.30396 -5.00958 0
M  V30 31305 H 3059.8 2.02601 -4.40546 0
M  V30 31306 N 3061.15 1.36376 0.789896 0
M  V30 31307 C 3062.56 1.16779 1.08788 0
M  V30 31308 C 3062.76 -0.00844695 2.01498 0
M  V30 31309 O 3061.82 -0.673964 2.43339 0
M  V30 31310 C 3063.13 2.4784 1.70281 0
M  V30 31311 C 3064.68 2.54199 1.82624 0
M  V30 31312 C 3065.15 3.85346 2.47532 0
M  V30 31313 N 3066.64 3.86689 2.55001 0
M  V30 31314 C 3067.38 4.84904 3.06033 0
M  V30 31315 N 3066.88 5.93511 3.57374 0
M  V30 31316 N 3068.67 4.72324 3.0474 0
M  V30 31317 H 3060.82 2.11687 0.173948 0
M  V30 31318 H 3063.08 0.937638 0.139781 0
M  V30 31319 H 3062.79 3.34178 1.09627 0
M  V30 31320 H 3062.66 2.63611 2.69794 0
M  V30 31321 H 3065.05 1.6828 2.42417 0
M  V30 31322 H 3065.13 2.42328 0.819187 0
M  V30 31323 H 3064.77 4.71671 1.88385 0
M  V30 31324 H 3064.7 3.94513 3.48808 0
M  V30 31325 H 3067.2 3.08225 2.18646 0
M  V30 31326 H 3067.51 6.64426 3.94662 0
M  V30 31327 H 3065.85 5.97181 3.55528 0
M  V30 31328 H 3069.04 3.86607 2.63918 0
M  V30 31329 H 3069.22 5.49025 3.44202 0
M  V30 31330 N 3062.62 -1.014 1.20647 0
M  V30 31331 C 3063.85 -1.78633 1.04392 0
M  V30 31332 C 3064.27 -1.84367 -0.406738 0
M  V30 31333 O 3063.62 -1.29853 -1.28236 0
M  V30 31334 C 3063.67 -3.22976 1.62384 0
M  V30 31335 O 3063.4 -3.17592 3.01773 0
M  V30 31336 C 3064.9 -4.16748 1.51117 0
M  V30 31337 H 3062.12 -0.561684 0.367086 0
M  V30 31338 H 3064.66 -1.27621 1.59791 0
M  V30 31339 H 3062.82 -3.71128 1.11099 0
M  V30 31340 H 3063.23 -4.08211 3.29339 0
M  V30 31341 H 3064.7 -5.1586 1.9645 0
M  V30 31342 H 3065.18 -4.36741 0.464088 0
M  V30 31343 H 3065.79 -3.7448 2.01606 0
M  V30 31344 N 3064.1 -1.01278 -1.2075 0
M  V30 31345 C 3065.03 -0.600104 -2.25657 0
M  V30 31346 C 3066.01 0.382951 -1.65733 0
M  V30 31347 O 3067.2 0.269222 -1.92325 0
M  V30 31348 C 3064.33 0.0662587 -3.47237 0
M  V30 31349 C 3063.28 -0.837384 -4.19728 0
M  V30 31350 C 3062.61 -0.0370042 -5.34687 0
M  V30 31351 C 3063.91 -2.14365 -4.76282 0
M  V30 31352 H 3065.6 -1.47705 -2.6043 0
M  V30 31353 H 3063.15 -0.711656 -1.25186 0
M  V30 31354 H 3065.1 0.366489 -4.19803 0
M  V30 31355 H 3063.82 0.977889 -3.11617 0
M  V30 31356 H 3062.48 -1.12156 -3.49022 0
M  V30 31357 H 3062.13 0.876157 -4.9531 0
M  V30 31358 H 3061.83 -0.638753 -5.84118 0
M  V30 31359 H 3063.36 0.256861 -6.10059 0
M  V30 31360 H 3064.77 -1.90605 -5.40687 0
M  V30 31361 H 3063.17 -2.69592 -5.36134 0
M  V30 31362 H 3064.24 -2.80923 -3.95235 0
M  V30 31363 N 3065.58 1.36456 -0.788516 0
M  V30 31364 C 3066.53 2.30062 -0.18439 0
M  V30 31365 C 3067.5 1.51932 0.671253 0
M  V30 31366 O 3068.68 1.80442 0.62012 0
M  V30 31367 C 3065.82 3.38424 0.675536 0
M  V30 31368 C 3064.93 4.31543 -0.19855 0
M  V30 31369 C 3064.07 5.26987 0.667664 0
M  V30 31370 C 3063.11 6.11747 -0.207933 0
M  V30 31371 N 3062.25 6.99382 0.617212 0
M  V30 31372 H 3067.09 2.81141 -0.988106 0
M  V30 31373 H 3064.62 1.38384 -0.498839 0
M  V30 31374 H 3066.58 3.99896 1.18909 0
M  V30 31375 H 3065.21 2.88667 1.44469 0
M  V30 31376 H 3064.26 3.71233 -0.83006 0
M  V30 31377 H 3065.57 4.91097 -0.87325 0
M  V30 31378 H 3064.73 5.93745 1.24706 0
M  V30 31379 H 3063.47 4.67886 1.37599 0
M  V30 31380 H 3062.47 5.43952 -0.799734 0
M  V30 31381 H 3063.7 6.72923 -0.913848 0
M  V30 31382 H 3061.64 6.4279 1.30985 0
M  V30 31383 H 3061.56 7.56 0.000174369 0
M  V30 31384 H 3062.83 7.7051 1.18046 0
M  V30 31385 N 3067.06 0.540456 1.48043 0
M  V30 31386 C 3068.28 0.0125129 2.07396 0
M  V30 31387 C 3068.71 -1.26412 1.3929 0
M  V30 31388 O 3068.07 -1.75307 0.462283 0
M  V30 31389 C 3068.11 -0.183706 3.60132 0
M  V30 31390 O 3067.22 -1.25007 3.92997 0
M  V30 31391 H 3066.56 0.0438142 0.662553 0
M  V30 31392 H 3069.09 0.75136 1.90304 0
M  V30 31393 H 3069.1 -0.403125 4.06004 0
M  V30 31394 H 3067.77 0.748812 4.09103 0
M  V30 31395 H 3066.35 -1.01248 3.58892 0
M  V30 31396 N 3068.54 -1.55163 0.276085 0
M  V30 31397 C 3069.95 -1.85382 -0.221483 0
M  V30 31398 C 3070.3 -1.1981 -1.5537 0
M  V30 31399 O 3069.42 -0.48678 -2.10854 0
M  V30 31400 C 3070.02 -3.36327 -0.408647 0
M  V30 31401 C 3068.58 -3.66667 -0.850447 0
M  V30 31402 C 3067.72 -2.77244 0.0557047 0
M  V30 31403 H 3070.67 -1.50689 0.497845 0
M  V30 31404 H 3070.7 -3.59484 -1.24705 0
M  V30 31405 H 3070.21 -3.84022 0.561119 0
M  V30 31406 H 3068.31 -3.24471 -1.83165 0
M  V30 31407 H 3068.42 -4.74147 -0.687097 0
M  V30 31408 H 3066.79 -2.50497 -0.460775 0
M  V30 31409 H 3067.57 -3.27754 1.02137 0
M  V30 31410 N 3070.01 -0.00338196 -1.576 0
M  V30 31411 C 3071.24 0.695276 -1.95399 0
M  V30 31412 C 3071.66 1.66325 -0.878505 0
M  V30 31413 O 3071.02 1.80565 0.163054 0
M  V30 31414 C 3071.07 1.40044 -3.32295 0
M  V30 31415 O 3070.17 2.51497 -3.26838 0
M  V30 31416 H 3069.51 0.184683 -0.637799 0
M  V30 31417 H 3072.04 -0.0575789 -2.04519 0
M  V30 31418 H 3072.05 1.76309 -3.67939 0
M  V30 31419 H 3070.73 0.690731 -4.10124 0
M  V30 31420 H 3069.31 2.17533 -3.02876 0
M  V30 31421 N 3071.49 1.5528 0.269423 0
M  V30 31422 C 3072.72 1.80417 1.02296 0
M  V30 31423 C 3073.14 0.577394 1.79019 0
M  V30 31424 O 3072.5 -0.473094 1.75019 0
M  V30 31425 C 3072.55 3.03044 1.9544 0
M  V30 31426 O 3071.65 2.7838 3.04267 0
M  V30 31427 H 3070.99 0.596212 0.292279 0
M  V30 31428 H 3073.52 2.02429 0.297247 0
M  V30 31429 H 3073.53 3.31873 2.37327 0
M  V30 31430 H 3072.21 3.91981 1.3901 0
M  V30 31431 H 3070.78 2.60657 2.66669 0
M  V30 31432 N 3072.97 -0.534097 1.48274 0
M  V30 31433 C 3074.38 -1.11607 1.49669 0
M  V30 31434 C 3074.73 -1.94413 0.264173 0
M  V30 31435 O 3073.86 -2.07055 -0.629047 0
M  V30 31436 C 3074.45 -2.03074 2.71194 0
M  V30 31437 C 3073.01 -2.56498 2.75474 0
M  V30 31438 C 3072.16 -1.33368 2.43122 0
M  V30 31439 H 3075.11 -0.319551 1.5545 0
M  V30 31440 H 3075.13 -2.87299 2.49478 0
M  V30 31441 H 3074.64 -1.42779 3.60882 0
M  V30 31442 H 3072.74 -3.20526 1.89984 0
M  V30 31443 H 3072.86 -2.95912 3.76793 0
M  V30 31444 H 3071.22 -1.6481 1.9419 0
M  V30 31445 H 3072 -0.748316 3.35045 0
M  V30 31446 N 3074.45 -1.36793 -0.782652 0
M  V30 31447 C 3075.38 -1.27539 -1.90437 0
M  V30 31448 C 3076.39 -0.193455 -1.61647 0
M  V30 31449 O 3077.58 -0.448723 -1.72768 0
M  V30 31450 C 3074.68 -0.946698 -3.25409 0
M  V30 31451 C 3073.85 -2.13189 -3.81928 0
M  V30 31452 C 3072.91 -1.77519 -4.95352 0
M  V30 31453 O 3071.94 -2.49687 -5.11512 0
M  V30 31454 N 3073.14 -0.712857 -5.76106 0
M  V30 31455 H 3075.91 -2.24189 -1.98895 0
M  V30 31456 H 3073.47 -1.30275 -0.961247 0
M  V30 31457 H 3075.46 -0.689113 -3.9879 0
M  V30 31458 H 3074.03 -0.0691141 -3.12524 0
M  V30 31459 H 3073.25 -2.55188 -3.00454 0
M  V30 31460 H 3074.54 -2.92355 -4.16421 0
M  V30 31461 H 3073.94 -0.113762 -5.65586 0
M  V30 31462 H 3072.49 -0.515109 -6.49761 0
M  V30 31463 N 3075.93 1.00759 -1.21184 0
M  V30 31464 C 3076.86 2.09637 -0.92656 0
M  V30 31465 C 3077.87 1.62555 0.0892225 0
M  V30 31466 O 3079.06 1.77927 -0.142946 0
M  V30 31467 C 3076.16 3.36883 -0.369234 0
M  V30 31468 C 3075.33 4.13061 -1.43873 0
M  V30 31469 C 3074.39 5.186 -0.891106 0
M  V30 31470 O 3073.42 5.47006 -1.57393 0
M  V30 31471 N 3074.62 5.7975 0.294955 0
M  V30 31472 H 3077.39 2.34694 -1.86384 0
M  V30 31473 H 3074.95 1.17221 -1.11673 0
M  V30 31474 H 3076.94 4.04698 0.0114629 0
M  V30 31475 H 3075.51 3.09004 0.472807 0
M  V30 31476 H 3074.73 3.40085 -1.99338 0
M  V30 31477 H 3076.02 4.60734 -2.15874 0
M  V30 31478 H 3075.41 5.5902 0.866802 0
M  V30 31479 H 3073.97 6.48871 0.617192 0
M  V30 31480 N 3077.4 1.01917 1.20211 0
M  V30 31481 C 3078.34 0.549764 2.22509 0
M  V30 31482 C 3079.35 -0.369207 1.58558 0
M  V30 31483 O 3080.54 -0.167145 1.77716 0
M  V30 31484 C 3077.64 -0.219373 3.38189 0
M  V30 31485 C 3076.81 0.702142 4.31728 0
M  V30 31486 C 3075.87 -0.0198699 5.26196 0
M  V30 31487 O 3074.9 0.60349 5.65992 0
M  V30 31488 N 3076.1 -1.29387 5.65897 0
M  V30 31489 H 3078.86 1.42953 2.63409 0
M  V30 31490 H 3076.42 0.89701 1.34779 0
M  V30 31491 H 3078.42 -0.711693 3.98393 0
M  V30 31492 H 3076.99 -1.00046 2.96158 0
M  V30 31493 H 3076.21 1.37472 3.69452 0
M  V30 31494 H 3077.49 1.32878 4.91142 0
M  V30 31495 H 3076.89 -1.82121 5.35582 0
M  V30 31496 H 3075.45 -1.73087 6.28398 0
M  V30 31497 N 3078.88 -1.36036 0.795742 0
M  V30 31498 C 3079.81 -2.28666 0.156377 0
M  V30 31499 C 3080.83 -1.49776 -0.638049 0
M  V30 31500 O 3082.02 -1.72141 -0.472192 0
M  V30 31501 C 3079.12 -3.29289 -0.801359 0
M  V30 31502 C 3078.29 -4.37365 -0.0556349 0
M  V30 31503 C 3077.35 -5.17912 -0.930247 0
M  V30 31504 O 3076.37 -5.67895 -0.385167 0
M  V30 31505 N 3077.58 -5.34965 -2.25373 0
M  V30 31506 H 3080.34 -2.84175 0.952083 0
M  V30 31507 H 3077.9 -1.48269 0.650216 0
M  V30 31508 H 3079.89 -3.80064 -1.39044 0
M  V30 31509 H 3078.46 -2.74374 -1.49792 0
M  V30 31510 H 3077.68 -3.87669 0.714576 0
M  V30 31511 H 3078.97 -5.06728 0.458722 0
M  V30 31512 H 3078.37 -4.95981 -2.72064 0
M  V30 31513 H 3076.93 -5.8896 -2.7923 0
M  V30 31514 N 3080.36 -0.5483 -1.47755 0
M  V30 31515 C 3081.29 0.24173 -2.27922 0
M  V30 31516 C 3082.31 0.887634 -1.36473 0
M  V30 31517 O 3083.49 0.762987 -1.61371 0
M  V30 31518 C 3080.59 1.35916 -3.10451 0
M  V30 31519 C 3079.77 0.811733 -4.29802 0
M  V30 31520 C 3078.83 1.81255 -4.93997 0
M  V30 31521 O 3077.85 1.3622 -5.5266 0
M  V30 31522 N 3079.05 3.14557 -4.87887 0
M  V30 31523 H 3081.82 -0.4459 -2.96364 0
M  V30 31524 H 3079.38 -0.383797 -1.57285 0
M  V30 31525 H 3081.37 2.02723 -3.50265 0
M  V30 31526 H 3079.94 1.95017 -2.4431 0
M  V30 31527 H 3079.16 -0.0328622 -3.94186 0
M  V30 31528 H 3080.45 0.425183 -5.0702 0
M  V30 31529 H 3079.85 3.53797 -4.41411 0
M  V30 31530 H 3078.41 3.76947 -5.31747 0
M  V30 31531 N 3081.84 1.55014 -0.28431 0
M  V30 31532 C 3083.08 2.00092 0.330317 0
M  V30 31533 C 3083.42 1.17247 1.54812 0
M  V30 31534 O 3082.69 0.244787 1.92953 0
M  V30 31535 C 3082.98 3.53163 0.70343 0
M  V30 31536 C 3082.83 4.46757 -0.522354 0
M  V30 31537 C 3084.15 4.12412 1.53638 0
M  V30 31538 H 3081.27 0.727397 0.118587 0
M  V30 31539 H 3083.91 1.85889 -0.393087 0
M  V30 31540 H 3082.06 3.65396 1.31977 0
M  V30 31541 H 3083.73 4.46454 -1.1609 0
M  V30 31542 H 3081.97 4.18038 -1.15872 0
M  V30 31543 H 3082.64 5.51572 -0.217392 0
M  V30 31544 H 3085.12 4.03511 1.01576 0
M  V30 31545 H 3084 5.19707 1.76624 0
M  V30 31546 H 3084.26 3.63224 2.52034 0
M  V30 31547 N 3083.32 0.0117398 1.57596 0
M  V30 31548 C 3084.25 -0.974562 2.1219 0
M  V30 31549 C 3085.23 -1.35079 1.03381 0
M  V30 31550 O 3086.41 -1.43247 1.31125 0
M  V30 31551 C 3083.54 -2.26264 2.63481 0
M  V30 31552 C 3082.5 -2.02768 3.76921 0
M  V30 31553 C 3081.82 -3.3769 4.14572 0
M  V30 31554 C 3083.12 -1.38081 5.03717 0
M  V30 31555 H 3084.82 -0.519955 2.94851 0
M  V30 31556 H 3082.36 -0.248661 1.41837 0
M  V30 31557 H 3084.32 -2.95627 3.00304 0
M  V30 31558 H 3083.04 -2.73859 1.77958 0
M  V30 31559 H 3081.7 -1.35827 3.4051 0
M  V30 31560 H 3081.35 -3.83011 3.26055 0
M  V30 31561 H 3081.05 -3.22781 4.91005 0
M  V30 31562 H 3082.57 -4.0835 4.53963 0
M  V30 31563 H 3083.98 -1.97418 5.38237 0
M  V30 31564 H 3082.38 -1.33623 5.85034 0
M  V30 31565 H 3083.45 -0.35149 4.83624 0
M  V30 31566 N 3084.79 -1.55421 -0.261185 0
M  V30 31567 C 3085.74 -1.89915 -1.34294 0
M  V30 31568 C 3086.74 -0.776692 -1.50545 0
M  V30 31569 O 3087.94 -0.961165 -1.52189 0
M  V30 31570 H 3084.32 -0.602954 -0.449389 0
M  V30 31571 H 3086.29 -2.80258 -1.02459 0
M  V30 31572 C 3085.04 -2.19792 -2.69419 0
M  V30 31573 H 3084.36 -3.05657 -2.57709 0
M  V30 31574 H 3085.8 -2.47841 -3.44021 0
M  V30 31575 C 3084.26 -1.00944 -3.21422 0
M  V30 31576 O 3084.79 -0.250105 -4.00921 0
M  V30 31577 N 3083 -0.803932 -2.79258 0
M  V30 31578 H 3082.54 -1.42311 -2.14721 0
M  V30 31579 H 3082.5 -0.010381 -3.14398 0
M  V30 31580 N 3086.27 0.526227 -1.48555 0
M  V30 31581 C 3087.52 1.27835 -1.56017 0
M  V30 31582 C 3087.83 1.94114 -0.240677 0
M  V30 31583 O 3089.04 2.70809 -0.193573 0
M  V30 31584 C 3087.5 2.31975 -2.75165 0
M  V30 31585 C 3087.1 1.71748 -4.13771 0
M  V30 31586 C 3088.85 3.08173 -2.91942 0
M  V30 31587 C 3086.76 2.7385 -5.24175 0
M  V30 31588 H 3085.69 0.480785 -0.580829 0
M  V30 31589 H 3088.34 0.555304 -1.74896 0
M  V30 31590 H 3086.72 3.07331 -2.49727 0
M  V30 31591 H 3087.89 1.02555 -4.49243 0
M  V30 31592 H 3086.21 1.08029 -4.02143 0
M  V30 31593 H 3088.8 3.84477 -3.71593 0
M  V30 31594 H 3089.15 3.64263 -2.0154 0
M  V30 31595 H 3089.68 2.39931 -3.17298 0
M  V30 31596 H 3086.42 2.22575 -6.16555 0
M  V30 31597 H 3085.94 3.4136 -4.93187 0
M  V30 31598 H 3087.62 3.36764 -5.52448 0
M  V30 31599 N 3087.75 1.37206 0.775387 0
M  V30 31600 C 3088.68 1.3537 1.90255 0
M  V30 31601 C 3089.66 0.222893 1.68633 0
M  V30 31602 O 3090.85 0.422692 1.89544 0
M  V30 31603 C 3087.98 1.15628 3.27486 0
M  V30 31604 C 3086.93 2.25682 3.63664 0
M  V30 31605 C 3086.26 1.91068 4.99397 0
M  V30 31606 C 3087.56 3.67848 3.7079 0
M  V30 31607 H 3089.25 2.2969 1.92049 0
M  V30 31608 H 3086.8 1.10565 0.922577 0
M  V30 31609 H 3088.75 1.12975 4.05974 0
M  V30 31610 H 3087.47 0.17763 3.26117 0
M  V30 31611 H 3086.13 2.27485 2.87482 0
M  V30 31612 H 3085.78 0.917411 4.94563 0
M  V30 31613 H 3085.48 2.64761 5.24572 0
M  V30 31614 H 3087 1.89995 5.80288 0
M  V30 31615 H 3088.42 3.68195 4.39437 0
M  V30 31616 H 3086.82 4.40564 4.0746 0
M  V30 31617 H 3087.89 4.01737 2.71542 0
M  V30 31618 N 3089.23 -1.00115 1.21716 0
M  V30 31619 C 3090.18 -2.08967 0.979874 0
M  V30 31620 C 3091.15 -1.65825 -0.0955033 0
M  V30 31621 O 3092.33 -1.90728 0.0524077 0
M  V30 31622 C 3089.47 -3.40611 0.554817 0
M  V30 31623 C 3088.58 -3.97142 1.70006 0
M  V30 31624 C 3087.72 -5.16911 1.22379 0
M  V30 31625 C 3086.76 -5.6556 2.34111 0
M  V30 31626 N 3085.89 -6.76575 1.87591 0
M  V30 31627 H 3090.73 -2.28599 1.91171 0
M  V30 31628 H 3088.27 -1.12083 0.952665 0
M  V30 31629 H 3090.23 -4.16194 0.289599 0
M  V30 31630 H 3088.86 -3.21004 -0.340016 0
M  V30 31631 H 3087.91 -3.18509 2.07981 0
M  V30 31632 H 3089.22 -4.29237 2.54082 0
M  V30 31633 H 3088.38 -5.99753 0.915463 0
M  V30 31634 H 3087.12 -4.8642 0.353131 0
M  V30 31635 H 3086.12 -4.81312 2.65743 0
M  V30 31636 H 3087.35 -5.98079 3.2168 0
M  V30 31637 H 3085.29 -6.47883 1.02874 0
M  V30 31638 H 3085.21 -7.07944 2.65237 0
M  V30 31639 H 3086.48 -7.62944 1.59803 0
M  V30 31640 N 3090.71 -1.02553 -1.19669 0
M  V30 31641 C 3091.93 -0.739397 -1.93772 0
M  V30 31642 C 3092.36 0.695033 -1.74788 0
M  V30 31643 O 3091.72 1.47942 -1.04798 0
M  V30 31644 C 3091.76 -1.09155 -3.43682 0
M  V30 31645 O 3090.87 -0.208285 -4.11874 0
M  V30 31646 H 3090.21 -0.273495 -0.605059 0
M  V30 31647 H 3092.74 -1.3713 -1.51843 0
M  V30 31648 H 3092.75 -1.04702 -3.94337 0
M  V30 31649 H 3091.42 -2.1366 -3.56822 0
M  V30 31650 H 3090 -0.311111 -3.716 0
M  V30 31651 N 3092.19 1.35612 -0.802945 0
M  V30 31652 C 3093.13 2.31749 -0.198824 0
M  V30 31653 C 3094.13 1.56459 0.649388 0
M  V30 31654 O 3095.33 1.71616 0.542959 0
M  V30 31655 H 3091.71 0.75062 -0.0455309 0
M  V30 31656 H 3093.68 2.80249 -1.02484 0
M  V30 31657 C 3092.43 3.4174 0.641006 0
M  V30 31658 H 3091.75 3.998 -0.00233272 0
M  V30 31659 H 3093.19 4.11295 1.03015 0
M  V30 31660 C 3091.65 2.84467 1.805 0
M  V30 31661 O 3092.18 2.77722 2.9023 0
M  V30 31662 N 3090.39 2.41566 1.61538 0
M  V30 31663 H 3089.93 2.47251 0.722819 0
M  V30 31664 H 3089.89 2.03593 2.39577 0
M  V30 31665 N 3093.66 0.556128 1.47462 0
M  V30 31666 C 3095.07 0.122462 1.86298 0
M  V30 31667 C 3095.43 -1.30746 1.46287 0
M  V30 31668 O 3094.55 -1.98341 0.86544 0
M  V30 31669 C 3095.15 0.215466 3.38114 0
M  V30 31670 C 3093.7 -0.163157 3.76046 0
M  V30 31671 C 3092.85 0.563514 2.71514 0
M  V30 31672 H 3095.8 0.765913 1.38994 0
M  V30 31673 H 3095.82 -0.566205 3.76264 0
M  V30 31674 H 3095.34 1.25629 3.67204 0
M  V30 31675 H 3093.44 -1.20513 3.52573 0
M  V30 31676 H 3093.55 0.194652 4.78704 0
M  V30 31677 H 3091.91 0.00672356 2.54699 0
M  V30 31678 H 3092.7 1.60547 3.03446 0
M  V30 31679 N 3095.14 -1.54861 0.292527 0
M  V30 31680 C 3096.07 -2.20631 -0.62085 0
M  V30 31681 C 3097.09 -1.19639 -1.1041 0
M  V30 31682 O 3098.28 -1.46276 -1.02301 0
M  V30 31683 C 3095.38 -2.83235 -1.86095 0
M  V30 31684 C 3094.55 -4.1008 -1.52161 0
M  V30 31685 C 3093.61 -4.56567 -2.61597 0
M  V30 31686 O 3092.63 -5.21956 -2.27047 0
M  V30 31687 N 3093.84 -4.2817 -3.91983 0
M  V30 31688 H 3096.6 -2.99644 -0.0578501 0
M  V30 31689 H 3094.16 -1.61496 0.114362 0
M  V30 31690 H 3096.15 -3.1127 -2.58636 0
M  V30 31691 H 3094.72 -2.08112 -2.33256 0
M  V30 31692 H 3093.94 -3.89146 -0.629215 0
M  V30 31693 H 3095.23 -4.92691 -1.27015 0
M  V30 31694 H 3094.63 -3.75767 -4.22866 0
M  V30 31695 H 3093.19 -4.60936 -4.60849 0
M  V30 31696 N 3096.62 -0.0200973 -1.57587 0
M  V30 31697 C 3097.55 0.963296 -2.12704 0
M  V30 31698 C 3098.53 1.34529 -1.04096 0
M  V30 31699 O 3099.72 1.4255 -1.31883 0
M  V30 31700 C 3096.85 2.24863 -2.64677 0
M  V30 31701 C 3095.8 2.00766 -3.77991 0
M  V30 31702 C 3095.13 3.35487 -4.16357 0
M  V30 31703 C 3096.43 1.35407 -5.04442 0
M  V30 31704 H 3098.12 0.504311 -2.95122 0
M  V30 31705 H 3095.67 0.241135 -1.41967 0
M  V30 31706 H 3097.62 2.94031 -3.01867 0
M  V30 31707 H 3096.34 2.72911 -1.79408 0
M  V30 31708 H 3095 1.34019 -3.41225 0
M  V30 31709 H 3094.65 3.81276 -3.28082 0
M  V30 31710 H 3094.35 3.20172 -4.9271 0
M  V30 31711 H 3095.87 4.05937 -4.56123 0
M  V30 31712 H 3097.29 1.94561 -5.39276 0
M  V30 31713 H 3095.68 1.30519 -5.85734 0
M  V30 31714 H 3096.75 0.325838 -4.83804 0
M  V30 31715 N 3098.1 1.55557 0.252939 0
M  V30 31716 C 3099.03 1.84769 1.33924 0
M  V30 31717 C 3100.01 0.702279 1.46652 0
M  V30 31718 O 3101.19 0.947403 1.62962 0
M  V30 31719 C 3098.32 2.02706 2.71345 0
M  V30 31720 C 3097.37 3.25327 2.75798 0
M  V30 31721 S 3098.2 4.82145 2.33016 0
M  V30 31722 C 3099.35 5.0308 3.72373 0
M  V30 31723 H 3099.59 2.76619 1.08946 0
M  V30 31724 H 3097.12 1.47586 0.453614 0
M  V30 31725 H 3099.08 2.13724 3.50474 0
M  V30 31726 H 3097.74 1.11708 2.93564 0
M  V30 31727 H 3096.93 3.34825 3.76707 0
M  V30 31728 H 3096.53 3.13003 2.04708 0
M  V30 31729 H 3098.83 4.90052 4.67819 0
M  V30 31730 H 3099.77 6.05078 3.67813 0
M  V30 31731 H 3100.18 4.30956 3.64606 0
M  V30 31732 N 3099.58 -0.518341 1.48832 0
M  V30 31733 C 3100.54 -1.60397 1.63724 0
M  V30 31734 C 3101.54 -1.52502 0.509884 0
M  V30 31735 O 3102.73 -1.55964 0.77595 0
M  V30 31736 C 3099.86 -3.00036 1.61837 0
M  V30 31737 H 3101.05 -1.48529 2.60536 0
M  V30 31738 H 3098.61 -0.741284 1.37603 0
M  V30 31739 H 3099.34 -3.17399 0.665443 0
M  V30 31740 H 3099.13 -3.07175 2.43692 0
M  V30 31741 H 3100.62 -3.78944 1.75474 0
M  V30 31742 N 3101.05 -1.37615 -0.7681 0
M  V30 31743 C 3102.02 -1.33493 -1.86312 0
M  V30 31744 C 3103.02 -0.238258 -1.59025 0
M  V30 31745 O 3104.21 -0.494318 -1.67039 0
M  V30 31746 C 3101.34 -1.07468 -3.23517 0
M  V30 31747 H 3102.53 -2.30899 -1.91378 0
M  V30 31748 H 3100.08 -1.22698 -0.968245 0
M  V30 31749 H 3100.82 -0.106085 -3.24126 0
M  V30 31750 H 3100.6 -1.86852 -3.44715 0
M  V30 31751 H 3102.09 -1.07243 -4.03595 0
M  V30 31752 N 3102.53 0.994677 -1.22245 0
M  V30 31753 C 3103.78 1.73397 -1.04594 0
M  V30 31754 C 3104.11 1.89929 0.419189 0
M  V30 31755 O 3103.36 1.43827 1.32712 0
M  V30 31756 C 3103.66 3.14369 -1.7002 0
M  V30 31757 C 3103.33 3.17756 -3.19909 0
M  V30 31758 C 3101.99 3.18388 -3.60808 0
M  V30 31759 C 3104.34 3.14186 -4.15856 0
M  V30 31760 C 3101.67 3.13148 -4.9614 0
M  V30 31761 C 3104.02 3.10488 -5.51162 0
M  V30 31762 C 3102.68 3.09434 -5.91445 0
M  V30 31763 H 3101.95 0.634503 -0.382736 0
M  V30 31764 H 3104.6 1.16505 -1.51983 0
M  V30 31765 H 3102.91 3.74558 -1.14951 0
M  V30 31766 H 3104.6 3.70311 -1.53854 0
M  V30 31767 H 3101.19 3.18014 -2.87342 0
M  V30 31768 H 3105.38 3.1285 -3.85277 0
M  V30 31769 H 3100.63 3.10676 -5.26584 0
M  V30 31770 H 3104.81 3.06681 -6.25236 0
M  V30 31771 H 3102.43 3.05129 -6.96276 0
M  V30 31772 N 3104.01 1.03186 1.19123 0
M  V30 31773 C 3105.26 0.725297 1.88208 0
M  V30 31774 C 3105.57 -0.749379 1.80676 0
M  V30 31775 O 3106.78 -1.16911 2.45039 0
M  V30 31776 C 3105.23 1.24703 3.37605 0
M  V30 31777 C 3104.84 2.7497 3.53688 0
M  V30 31778 C 3106.59 1.01659 4.12148 0
M  V30 31779 C 3104.49 3.20546 4.96995 0
M  V30 31780 H 3103.42 0.267611 0.704912 0
M  V30 31781 H 3106.07 1.24655 1.34661 0
M  V30 31782 H 3104.46 0.653683 3.90568 0
M  V30 31783 H 3105.63 3.39986 3.1104 0
M  V30 31784 H 3103.94 2.96327 2.92539 0
M  V30 31785 H 3106.54 1.33235 5.17834 0
M  V30 31786 H 3106.88 -0.046498 4.16274 0
M  V30 31787 H 3107.42 1.5741 3.65331 0
M  V30 31788 H 3104.16 4.26198 4.98032 0
M  V30 31789 H 3103.68 2.6026 5.40393 0
M  V30 31790 H 3105.36 3.14059 5.65664 0
M  V30 31791 N 3105.49 -1.35184 0.810125 0
M  V30 31792 C 3106.44 -2.2974 0.220968 0
M  V30 31793 C 3107.41 -1.52981 -0.646997 0
M  V30 31794 O 3108.59 -1.81405 -0.591335 0
M  V30 31795 C 3105.73 -3.39455 -0.62161 0
M  V30 31796 C 3104.84 -4.31173 0.26718 0
M  V30 31797 C 3103.98 -5.27983 -0.58374 0
M  V30 31798 C 3103.02 -6.11338 0.30523 0
M  V30 31799 N 3102.15 -7.00275 -0.505868 0
M  V30 31800 H 3106.99 -2.79534 1.03271 0
M  V30 31801 H 3104.53 -1.37572 0.520792 0
M  V30 31802 H 3106.49 -4.01737 -1.12532 0
M  V30 31803 H 3105.12 -2.90929 -1.39858 0
M  V30 31804 H 3104.17 -3.69866 0.889015 0
M  V30 31805 H 3105.48 -4.89645 0.951268 0
M  V30 31806 H 3104.64 -5.95654 -1.15244 0
M  V30 31807 H 3103.38 -4.70016 -1.30138 0
M  V30 31808 H 3102.38 -5.42611 0.886171 0
M  V30 31809 H 3103.61 -6.71384 1.02079 0
M  V30 31810 H 3101.55 -6.44793 -1.20742 0
M  V30 31811 H 3101.47 -7.55905 0.120099 0
M  V30 31812 H 3102.74 -7.7229 -1.05773 0
M  V30 31813 N 3106.97 -0.56394 -1.47165 0
M  V30 31814 C 3107.9 0.217543 -2.28165 0
M  V30 31815 C 3108.91 0.87311 -1.37407 0
M  V30 31816 O 3110.1 0.745829 -1.62172 0
M  V30 31817 C 3107.2 1.32616 -3.11875 0
M  V30 31818 C 3106.37 0.766101 -4.30639 0
M  V30 31819 C 3105.43 1.76005 -4.95892 0
M  V30 31820 O 3104.46 1.3035 -5.54073 0
M  V30 31821 N 3105.66 3.09365 -4.91196 0
M  V30 31822 H 3108.43 -0.477308 -2.95875 0
M  V30 31823 H 3105.99 -0.400458 -1.56869 0
M  V30 31824 H 3107.98 1.98997 -3.52395 0
M  V30 31825 H 3106.55 1.92414 -2.46365 0
M  V30 31826 H 3105.77 -0.0746691 -3.94129 0
M  V30 31827 H 3107.06 0.371383 -5.07443 0
M  V30 31828 H 3106.45 3.49096 -4.45139 0
M  V30 31829 H 3105.01 3.71286 -5.35715 0
M  V30 31830 N 3108.44 1.54704 -0.300735 0
M  V30 31831 C 3109.86 1.59513 0.0526594 0
M  V30 31832 C 3110.06 1.31771 1.52442 0
M  V30 31833 O 3109.12 1.091 2.27714 0
M  V30 31834 C 3110.43 2.98714 -0.345041 0
M  V30 31835 C 3111.98 3.11618 -0.293785 0
M  V30 31836 C 3112.45 4.53127 -0.666304 0
M  V30 31837 N 3113.94 4.59048 -0.618829 0
M  V30 31838 C 3114.68 5.66614 -0.879546 0
M  V30 31839 N 3114.17 6.82219 -1.20622 0
M  V30 31840 N 3115.97 5.56282 -0.806626 0
M  V30 31841 H 3108.12 1.70997 -1.25991 0
M  V30 31842 H 3110.38 0.798634 -0.510772 0
M  V30 31843 H 3110.09 3.23937 -1.36958 0
M  V30 31844 H 3109.96 3.75994 0.301441 0
M  V30 31845 H 3112.35 2.86144 0.72151 0
M  V30 31846 H 3112.43 2.36494 -0.974886 0
M  V30 31847 H 3112.07 4.79331 -1.67941 0
M  V30 31848 H 3112 5.26587 0.0368649 0
M  V30 31849 H 3114.49 3.76012 -0.377268 0
M  V30 31850 H 3114.81 7.60176 -1.39114 0
M  V30 31851 H 3113.15 6.83771 -1.24425 0
M  V30 31852 H 3116.34 4.64845 -0.551074 0
M  V30 31853 H 3116.52 6.4003 -1.01318 0
M  V30 31854 N 3109.92 0.0284543 1.57574 0
M  V30 31855 C 3111.15 -0.660541 1.96073 0
M  V30 31856 C 3111.57 -1.65701 0.90491 0
M  V30 31857 O 3110.92 -1.82148 -0.113347 0
M  V30 31858 C 3110.97 -1.3675 3.34636 0
M  V30 31859 O 3110.69 -0.410965 4.36168 0
M  V30 31860 C 3112.2 -2.14838 3.87762 0
M  V30 31861 H 3109.42 -0.182172 0.645797 0
M  V30 31862 H 3111.96 0.0880217 2.0431 0
M  V30 31863 H 3110.11 -2.06747 3.27619 0
M  V30 31864 H 3110.53 -0.912909 5.16494 0
M  V30 31865 H 3112 -2.59758 4.87062 0
M  V30 31866 H 3112.48 -2.98714 3.21973 0
M  V30 31867 H 3113.09 -1.498 3.98045 0
M  V30 31868 N 3111.4 -1.55689 -0.244686 0
M  V30 31869 C 3112.36 -1.89697 -1.28637 0
M  V30 31870 C 3113.36 -0.773608 -1.40968 0
M  V30 31871 O 3114.55 -1.04158 -1.39631 0
M  V30 31872 C 3111.69 -2.12737 -2.66375 0
M  V30 31873 H 3112.88 -2.82843 -0.996983 0
M  V30 31874 H 3110.43 -1.48615 -0.484077 0
M  V30 31875 H 3111.17 -1.22067 -3.0045 0
M  V30 31876 H 3110.95 -2.94553 -2.58806 0
M  V30 31877 H 3112.44 -2.40224 -3.41588 0
M  V30 31878 N 3112.88 0.510441 -1.49105 0
M  V30 31879 C 3113.83 1.61302 -1.65077 0
M  V30 31880 C 3114.8 1.58634 -0.49239 0
M  V30 31881 O 3115.98 1.76764 -0.718272 0
M  V30 31882 C 3113.12 2.9949 -1.71463 0
M  V30 31883 C 3112.23 3.12245 -2.98541 0
M  V30 31884 C 3111.37 4.4111 -2.95965 0
M  V30 31885 C 3110.41 4.47464 -4.17663 0
M  V30 31886 N 3109.54 5.67744 -4.13051 0
M  V30 31887 H 3114.38 1.46991 -2.59225 0
M  V30 31888 H 3111.92 0.715323 -1.28536 0
M  V30 31889 H 3113.88 3.79574 -1.73146 0
M  V30 31890 H 3112.51 3.12527 -0.807889 0
M  V30 31891 H 3111.56 2.25287 -3.06513 0
M  V30 31892 H 3112.87 3.128 -3.88532 0
M  V30 31893 H 3112.03 5.29505 -2.96158 0
M  V30 31894 H 3110.77 4.43106 -2.03735 0
M  V30 31895 H 3109.77 3.57473 -4.17723 0
M  V30 31896 H 3111 4.47191 -5.11074 0
M  V30 31897 H 3108.94 5.706 -3.23653 0
M  V30 31898 H 3108.86 5.69876 -4.96767 0
M  V30 31899 H 3110.13 6.58372 -4.17333 0
M  V30 31900 N 3114.36 1.38021 0.760791 0
M  V30 31901 C 3115.59 1.36852 1.54774 0
M  V30 31902 C 3115.99 -0.0453639 1.89146 0
M  V30 31903 O 3115.34 -1.02048 1.52748 0
M  V30 31904 C 3115.4 2.15274 2.87919 0
M  V30 31905 C 3115.06 3.64149 2.76124 0
M  V30 31906 C 3116.06 4.57798 2.46408 0
M  V30 31907 C 3113.75 4.07413 2.93803 0
M  V30 31908 C 3115.74 5.9269 2.34515 0
M  V30 31909 C 3113.43 5.42388 2.81529 0
M  V30 31910 C 3114.42 6.3484 2.51927 0
M  V30 31911 O 3114.11 7.67333 2.39699 0
M  V30 31912 H 3113.84 0.470112 0.485768 0
M  V30 31913 H 3116.4 1.82115 0.949907 0
M  V30 31914 H 3114.63 1.64718 3.49864 0
M  V30 31915 H 3116.32 2.06603 3.49385 0
M  V30 31916 H 3117.08 4.2568 2.32426 0
M  V30 31917 H 3112.96 3.35804 3.15843 0
M  V30 31918 H 3116.51 6.6482 2.1133 0
M  V30 31919 H 3112.4 5.74105 2.95083 0
M  V30 31920 H 3113.17 7.77775 2.54966 0
M  V30 31921 N 3115.83 -0.98818 1.22771 0
M  V30 31922 C 3117.08 -1.73095 1.05668 0
M  V30 31923 C 3117.41 -1.89896 -0.406581 0
M  V30 31924 O 3116.69 -1.44557 -1.30129 0
M  V30 31925 C 3116.97 -3.13379 1.77386 0
M  V30 31926 C 3116.82 -3.04197 3.31337 0
M  V30 31927 C 3118.14 -4.12646 1.53006 0
M  V30 31928 H 3115.26 -0.628281 0.385269 0
M  V30 31929 H 3117.9 -1.15094 1.51173 0
M  V30 31930 H 3116.05 -3.62896 1.38703 0
M  V30 31931 H 3117.73 -2.62263 3.79494 0
M  V30 31932 H 3115.97 -2.40887 3.60771 0
M  V30 31933 H 3116.64 -4.03487 3.767 0
M  V30 31934 H 3119.12 -3.71905 1.86617 0
M  V30 31935 H 3117.99 -5.0891 2.05675 0
M  V30 31936 H 3118.25 -4.39662 0.463693 0
M  V30 31937 N 3117.31 -1.03816 -1.18575 0
M  V30 31938 C 3118.28 -0.631499 -2.20329 0
M  V30 31939 C 3119.28 0.309788 -1.57788 0
M  V30 31940 O 3120.47 0.0955292 -1.73938 0
M  V30 31941 C 3117.6 0.0745363 -3.40819 0
M  V30 31942 H 3118.79 -1.53194 -2.57821 0
M  V30 31943 H 3116.34 -0.830421 -1.32415 0
M  V30 31944 H 3117.08 0.988892 -3.08855 0
M  V30 31945 H 3116.86 -0.601968 -3.87452 0
M  V30 31946 H 3118.35 0.345654 -4.16167 0
M  V30 31947 N 3118.79 1.34753 -0.817283 0
M  V30 31948 C 3119.74 2.31525 -0.223393 0
M  V30 31949 C 3120.73 1.57139 0.632757 0
M  V30 31950 O 3121.94 1.72182 0.524727 0
M  V30 31951 H 3118.31 0.750095 -0.0534897 0
M  V30 31952 H 3120.28 2.79146 -1.05451 0
M  V30 31953 C 3119.03 3.42401 0.604723 0
M  V30 31954 H 3118.36 3.99775 -0.0447367 0
M  V30 31955 H 3119.8 4.12365 0.986471 0
M  V30 31956 C 3118.26 2.86365 1.77473 0
M  V30 31957 O 3118.79 2.80785 2.87268 0
M  V30 31958 N 3116.99 2.43265 1.58966 0
M  V30 31959 H 3116.54 2.48004 0.696554 0
M  V30 31960 H 3116.5 2.06123 2.37404 0
M  V30 31961 N 3120.27 0.571737 1.46864 0
M  V30 31962 C 3121.2 -0.205439 2.28277 0
M  V30 31963 C 3122.21 -0.86581 1.37868 0
M  V30 31964 O 3123.4 -0.737218 1.62565 0
M  V30 31965 C 3120.5 -1.3096 3.12574 0
M  V30 31966 C 3119.68 -0.743252 4.31039 0
M  V30 31967 C 3118.74 -1.73373 4.96818 0
M  V30 31968 O 3117.76 -1.2741 5.54757 0
M  V30 31969 N 3118.96 -3.06755 4.9283 0
M  V30 31970 H 3121.73 0.492992 2.95617 0
M  V30 31971 H 3119.29 0.408771 1.56655 0
M  V30 31972 H 3121.28 -1.97125 3.53446 0
M  V30 31973 H 3119.85 -1.91105 2.47381 0
M  V30 31974 H 3119.07 0.0955697 3.94084 0
M  V30 31975 H 3120.36 -0.344467 5.07633 0
M  V30 31976 H 3119.76 -3.4673 4.46984 0
M  V30 31977 H 3118.31 -3.68439 5.37676 0
M  V30 31978 N 3121.75 -1.54542 0.308935 0
M  V30 31979 C 3123.16 -1.8581 -0.182111 0
M  V30 31980 C 3123.51 -1.23079 -1.52794 0
M  V30 31981 O 3122.63 -0.531395 -2.09774 0
M  V30 31982 C 3123.23 -3.37118 -0.337215 0
M  V30 31983 C 3121.79 -3.68388 -0.772481 0
M  V30 31984 C 3120.94 -2.77064 0.1145 0
M  V30 31985 H 3123.89 -1.49599 0.529697 0
M  V30 31986 H 3123.91 -3.62049 -1.17052 0
M  V30 31987 H 3123.42 -3.82746 0.64245 0
M  V30 31988 H 3121.52 -3.28283 -1.76241 0
M  V30 31989 H 3121.63 -4.75498 -0.586369 0
M  V30 31990 H 3120 -2.51418 -0.407537 0
M  V30 31991 H 3120.78 -3.25514 1.09066 0
M  V30 31992 N 3123.23 -0.0368104 -1.57557 0
M  V30 31993 C 3124.47 0.638886 -1.91736 0
M  V30 31994 C 3124.79 1.72224 -0.914545 0
M  V30 31995 O 3124.06 1.95853 0.0427903 0
M  V30 31996 H 3122.64 0.238977 -0.707742 0
M  V30 31997 H 3125.31 -0.0864273 -1.94708 0
M  V30 31998 H 3124.4 1.08671 -2.9257 0
M  V30 31999 N 3124.7 1.55817 0.236426 0
M  V30 32000 C 3125.64 1.86179 1.31957 0
M  V30 32001 C 3126.61 0.717794 1.45899 0
M  V30 32002 O 3127.8 0.964634 1.61948 0
M  V30 32003 C 3124.93 2.05572 2.6918 0
M  V30 32004 C 3123.97 3.28234 2.72332 0
M  V30 32005 S 3124.8 4.84589 2.27889 0
M  V30 32006 C 3125.96 5.07001 3.67016 0
M  V30 32007 H 3126.19 2.77759 1.06006 0
M  V30 32008 H 3123.73 1.48059 0.437935 0
M  V30 32009 H 3125.68 2.1743 3.48188 0
M  V30 32010 H 3124.35 1.14816 2.92363 0
M  V30 32011 H 3123.54 3.38802 3.73134 0
M  V30 32012 H 3123.14 3.15156 2.01377 0
M  V30 32013 H 3125.43 4.94987 4.62595 0
M  V30 32014 H 3126.38 6.08945 3.61375 0
M  V30 32015 H 3126.78 4.34798 3.60015 0
M  V30 32016 N 3126.18 -0.502526 1.49373 0
M  V30 32017 C 3127.11 -1.6209 1.62048 0
M  V30 32018 C 3128.13 -1.54827 0.503248 0
M  V30 32019 O 3129.32 -1.60787 0.775237 0
M  V30 32020 C 3126.42 -3.00873 1.55976 0
M  V30 32021 C 3125.59 -3.33336 2.83206 0
M  V30 32022 C 3124.65 -4.51524 2.70208 0
M  V30 32023 O 3123.67 -4.53383 3.4414 0
M  V30 32024 N 3124.88 -5.51347 1.81651 0
M  V30 32025 H 3127.64 -1.51645 2.58503 0
M  V30 32026 H 3125.2 -0.69037 1.46443 0
M  V30 32027 H 3127.19 -3.77856 1.44937 0
M  V30 32028 H 3125.76 -3.05251 0.673849 0
M  V30 32029 H 3124.98 -2.45265 3.08608 0
M  V30 32030 H 3126.27 -3.51822 3.67557 0
M  V30 32031 H 3125.67 -5.52643 1.20839 0
M  V30 32032 H 3124.23 -6.27438 1.76535 0
M  V30 32033 N 3127.66 -1.38422 -0.75346 0
M  V30 32034 C 3129.07 -1.30947 -1.33078 0
M  V30 32035 C 3129.42 0.0346779 -1.96169 0
M  V30 32036 O 3128.55 0.936734 -1.95075 0
M  V30 32037 C 3129.14 -2.37142 -2.41969 0
M  V30 32038 C 3127.7 -2.33244 -2.95422 0
M  V30 32039 C 3126.85 -2.20001 -1.68804 0
M  V30 32040 H 3129.8 -1.48778 -0.552328 0
M  V30 32041 H 3129.82 -2.02865 -3.2191 0
M  V30 32042 H 3129.33 -3.34959 -1.96021 0
M  V30 32043 H 3127.43 -1.39009 -3.45698 0
M  V30 32044 H 3127.55 -3.27387 -3.49792 0
M  V30 32045 H 3125.91 -1.66856 -1.92435 0
M  V30 32046 H 3126.69 -3.1976 -1.24933 0
M  V30 32047 N 3129.14 0.981655 -1.23294 0
M  V30 32048 C 3130.07 2.07624 -0.970818 0
M  V30 32049 C 3131.08 1.62708 0.054722 0
M  V30 32050 O 3132.27 1.77583 -0.180655 0
M  V30 32051 C 3129.37 3.36024 -0.440609 0
M  V30 32052 C 3128.54 4.09916 -1.52602 0
M  V30 32053 C 3127.6 5.16593 -1.00091 0
M  V30 32054 O 3126.63 5.43545 -1.68961 0
M  V30 32055 N 3127.83 5.80245 0.171915 0
M  V30 32056 H 3130.6 2.30688 -1.9132 0
M  V30 32057 H 3128.16 1.14826 -1.14135 0
M  V30 32058 H 3130.15 4.04632 -0.0743822 0
M  V30 32059 H 3128.72 3.09937 0.407156 0
M  V30 32060 H 3127.94 3.3578 -2.06507 0
M  V30 32061 H 3129.23 4.56051 -2.25598 0
M  V30 32062 H 3128.63 5.60733 0.748031 0
M  V30 32063 H 3127.18 6.50034 0.479418 0
M  V30 32064 N 3130.62 1.04444 1.18022 0
M  V30 32065 C 3132.03 0.777342 1.69748 0
M  V30 32066 C 3132.38 -0.701366 1.83236 0
M  V30 32067 O 3131.5 -1.54565 1.51455 0
M  V30 32068 C 3132.1 1.40446 3.08319 0
M  V30 32069 C 3130.66 1.18559 3.5724 0
M  V30 32070 C 3129.8 1.49275 2.33693 0
M  V30 32071 H 3132.75 1.21036 1.02645 0
M  V30 32072 H 3132.78 0.809694 3.71785 0
M  V30 32073 H 3132.29 2.48067 2.9847 0
M  V30 32074 H 3130.39 0.128287 3.72379 0
M  V30 32075 H 3130.5 1.88526 4.40448 0
M  V30 32076 H 3128.87 0.912568 2.3779 0
M  V30 32077 H 3129.65 2.58014 2.26459 0
M  V30 32078 N 3132.09 -1.34317 0.824418 0
M  V30 32079 C 3133.34 -1.97848 0.412385 0
M  V30 32080 C 3133.66 -1.65678 -1.02838 0
M  V30 32081 O 3132.93 -0.948275 -1.71419 0
M  V30 32082 H 3131.51 -0.731887 0.149499 0
M  V30 32083 H 3134.17 -1.63929 1.05419 0
M  V30 32084 H 3133.27 -3.07522 0.532611 0
M  V30 32085 N 3133.57 -0.579517 -1.46558 0
M  V30 32086 C 3134.5 0.143396 -2.33059 0
M  V30 32087 C 3135.48 0.886843 -1.45152 0
M  V30 32088 O 3136.67 0.862931 -1.73975 0
M  V30 32089 C 3133.8 1.15968 -3.27366 0
M  V30 32090 C 3132.75 0.531274 -4.2469 0
M  V30 32091 C 3132.08 1.65379 -5.08482 0
M  V30 32092 C 3133.38 -0.529482 -5.19609 0
M  V30 32093 H 3135.07 -0.578814 -2.93752 0
M  V30 32094 H 3132.62 -0.2798 -1.41256 0
M  V30 32095 H 3134.57 1.67375 -3.86735 0
M  V30 32096 H 3133.29 1.91212 -2.64774 0
M  V30 32097 H 3131.95 0.0383105 -3.6658 0
M  V30 32098 H 3131.6 2.39583 -4.42277 0
M  V30 32099 H 3131.3 1.23899 -5.74389 0
M  V30 32100 H 3132.83 2.17069 -5.70713 0
M  V30 32101 H 3134.24 -0.100607 -5.73212 0
M  V30 32102 H 3132.64 -0.864425 -5.93841 0
M  V30 32103 H 3133.71 -1.41699 -4.63734 0
M  V30 32104 N 3135.05 1.54376 -0.317127 0
M  V30 32105 C 3135.98 2.21591 0.585671 0
M  V30 32106 C 3137 1.2138 1.08493 0
M  V30 32107 O 3138.18 1.47885 0.999612 0
M  V30 32108 C 3135.28 2.8616 1.81565 0
M  V30 32109 C 3134.46 4.12449 1.45617 0
M  V30 32110 C 3133.52 4.60671 2.543 0
M  V30 32111 O 3132.54 5.25502 2.18714 0
M  V30 32112 N 3133.74 4.34352 3.85121 0
M  V30 32113 H 3136.51 2.99698 0.010172 0
M  V30 32114 H 3134.07 1.61293 -0.14004 0
M  V30 32115 H 3136.06 3.15346 2.53652 0
M  V30 32116 H 3134.63 2.11797 2.29915 0
M  V30 32117 H 3133.85 3.90098 0.567226 0
M  V30 32118 H 3135.14 4.9465 1.1916 0
M  V30 32119 H 3134.54 3.82447 4.16834 0
M  V30 32120 H 3133.1 4.68209 4.53457 0
M  V30 32121 N 3136.53 0.0451655 1.57535 0
M  V30 32122 C 3137.75 -0.643225 1.97173 0
M  V30 32123 C 3138.18 -1.63937 0.922295 0
M  V30 32124 O 3137.54 -1.80934 -0.115123 0
M  V30 32125 C 3137.58 -1.31184 3.35891 0
M  V30 32126 O 3136.69 -2.42743 3.33391 0
M  V30 32127 H 3136.03 -0.167708 0.642472 0
M  V30 32128 H 3138.56 0.111783 2.04294 0
M  V30 32129 H 3138.57 -1.66492 3.72484 0
M  V30 32130 H 3137.24 -0.581751 4.11811 0
M  V30 32131 H 3135.82 -2.09427 3.08537 0
M  V30 32132 N 3138.01 -1.5594 -0.228159 0
M  V30 32133 C 3138.94 -1.8835 -1.30602 0
M  V30 32134 C 3139.95 -0.771223 -1.43374 0
M  V30 32135 O 3141.14 -1.04948 -1.44389 0
M  V30 32136 C 3138.24 -2.07119 -2.68244 0
M  V30 32137 C 3137.41 -3.38099 -2.77503 0
M  V30 32138 C 3136.47 -3.4638 -3.96115 0
M  V30 32139 O 3135.5 -4.1946 -3.84763 0
M  V30 32140 N 3136.7 -2.7704 -5.10127 0
M  V30 32141 H 3139.47 -2.81398 -1.03127 0
M  V30 32142 H 3137.03 -1.56405 -0.418218 0
M  V30 32143 H 3139.02 -2.09982 -3.45962 0
M  V30 32144 H 3137.59 -1.20728 -2.88346 0
M  V30 32145 H 3136.81 -3.47391 -1.86314 0
M  V30 32146 H 3138.1 -4.24394 -2.80654 0
M  V30 32147 H 3137.49 -2.17433 -5.22245 0
M  V30 32148 H 3136.05 -2.85572 -5.85911 0
M  V30 32149 N 3139.48 0.494597 -1.49638 0
M  V30 32150 C 3140.9 1.076 -1.52575 0
M  V30 32151 C 3141.25 1.93645 -0.315625 0
M  V30 32152 O 3140.37 2.0865 0.573929 0
M  V30 32153 C 3140.97 1.95812 -2.76483 0
M  V30 32154 C 3139.53 2.49104 -2.82178 0
M  V30 32155 C 3138.67 1.26875 -2.46572 0
M  V30 32156 H 3141.62 0.278224 -1.56242 0
M  V30 32157 H 3141.64 2.80584 -2.57008 0
M  V30 32158 H 3141.16 1.33161 -3.64541 0
M  V30 32159 H 3139.26 3.15376 -1.98416 0
M  V30 32160 H 3139.37 2.85818 -3.84506 0
M  V30 32161 H 3137.73 1.59603 -1.98491 0
M  V30 32162 H 3138.52 0.659222 -3.36911 0
M  V30 32163 N 3140.96 1.3882 0.746109 0
M  V30 32164 C 3142.21 1.3517 1.50245 0
M  V30 32165 C 3142.53 -0.0553188 1.94922 0
M  V30 32166 O 3141.8 -1.00446 1.68189 0
M  V30 32167 H 3140.38 0.497387 0.557328 0
M  V30 32168 H 3143.04 1.73575 0.886442 0
M  V30 32169 H 3142.14 2.00733 2.38983 0
M  V30 32170 N 3142.44 -0.975103 1.23812 0
M  V30 32171 C 3143.37 -2.06689 0.967209 0
M  V30 32172 C 3144.35 -1.62314 -0.0963914 0
M  V30 32173 O 3145.54 -1.8846 0.0389864 0
M  V30 32174 C 3142.66 -3.35587 0.458153 0
M  V30 32175 C 3141.71 -3.98906 1.50917 0
M  V30 32176 S 3142.54 -4.3748 3.08823 0
M  V30 32177 C 3143.7 -5.69524 2.59601 0
M  V30 32178 H 3143.93 -2.29351 1.8917 0
M  V30 32179 H 3141.46 -1.11201 1.07115 0
M  V30 32180 H 3143.42 -4.10143 0.171063 0
M  V30 32181 H 3142.08 -3.10924 -0.445507 0
M  V30 32182 H 3141.28 -4.91777 1.10324 0
M  V30 32183 H 3140.88 -3.30749 1.74588 0
M  V30 32184 H 3143.17 -6.46701 2.01951 0
M  V30 32185 H 3144.11 -6.14965 3.51032 0
M  V30 32186 H 3144.52 -5.27778 2.00276 0
M  V30 32187 N 3143.92 -1.05068 -1.17467 0
M  V30 32188 C 3144.85 -0.608565 -2.20973 0
M  V30 32189 C 3145.86 0.327038 -1.59481 0
M  V30 32190 O 3147.05 0.119968 -1.78096 0
M  V30 32191 C 3144.15 0.129631 -3.38652 0
M  V30 32192 C 3143.33 -0.81636 -4.29714 0
M  V30 32193 C 3142.38 -0.119649 -5.26064 0
M  V30 32194 O 3141.41 -0.75334 -5.64193 0
M  V30 32195 N 3142.61 1.14337 -5.69128 0
M  V30 32196 H 3145.38 -1.49887 -2.59527 0
M  V30 32197 H 3142.94 -0.932429 -1.32353 0
M  V30 32198 H 3144.93 0.605816 -4.0014 0
M  V30 32199 H 3143.5 0.921585 -2.98706 0
M  V30 32200 H 3142.72 -1.47219 -3.65678 0
M  V30 32201 H 3144.01 -1.45853 -4.87447 0
M  V30 32202 H 3143.41 1.67856 -5.40223 0
M  V30 32203 H 3141.96 1.56365 -6.32766 0
M  V30 32204 N 3145.4 1.33878 -0.831529 0
M  V30 32205 C 3146.81 1.80387 -0.481406 0
M  V30 32206 C 3147.16 1.68864 0.998963 0
M  V30 32207 O 3146.28 1.23363 1.77793 0
M  V30 32208 C 3146.88 3.27518 -0.867048 0
M  V30 32209 C 3145.44 3.72072 -0.56917 0
M  V30 32210 C 3144.58 2.55432 -1.07934 0
M  V30 32211 H 3147.54 1.21503 -1.02091 0
M  V30 32212 H 3147.56 3.80101 -0.174195 0
M  V30 32213 H 3147.07 3.35872 -1.94452 0
M  V30 32214 H 3145.17 3.6925 0.498542 0
M  V30 32215 H 3145.28 4.65843 -1.11926 0
M  V30 32216 H 3143.65 2.49734 -0.500509 0
M  V30 32217 H 3144.43 2.66552 -2.16344 0
M  V30 32218 N 3146.87 0.587281 1.46249 0
M  V30 32219 C 3147.81 -0.181216 2.28482 0
M  V30 32220 C 3148.82 -0.851139 1.38778 0
M  V30 32221 O 3150.01 -0.719934 1.63338 0
M  V30 32222 C 3147.11 -1.27637 3.13946 0
M  V30 32223 C 3146.28 -0.697493 4.31803 0
M  V30 32224 C 3145.34 -1.68094 4.98629 0
M  V30 32225 O 3144.37 -1.21519 5.56077 0
M  V30 32226 N 3145.57 -3.01511 4.96056 0
M  V30 32227 H 3148.33 0.524319 2.95078 0
M  V30 32228 H 3145.89 0.425364 1.56212 0
M  V30 32229 H 3147.89 -1.93365 3.55517 0
M  V30 32230 H 3146.46 -1.88471 2.49394 0
M  V30 32231 H 3145.68 0.137362 3.93961 0
M  V30 32232 H 3146.96 -0.290606 5.07969 0
M  V30 32233 H 3146.36 -3.4197 4.50636 0
M  V30 32234 H 3144.92 -3.62716 5.41554 0
M  V30 32235 N 3148.35 -1.54206 0.325309 0
M  V30 32236 C 3149.76 -1.85992 -0.162393 0
M  V30 32237 C 3150.11 -1.24693 -1.5148 0
M  V30 32238 O 3149.24 -0.553615 -2.09199 0
M  V30 32239 C 3149.83 -3.37456 -0.301441 0
M  V30 32240 C 3148.39 -3.69187 -0.733365 0
M  V30 32241 C 3147.54 -2.76926 0.14388 0
M  V30 32242 H 3150.49 -1.49029 0.545534 0
M  V30 32243 H 3150.51 -3.6327 -1.13205 0
M  V30 32244 H 3150.02 -3.82043 0.683009 0
M  V30 32245 H 3148.13 -3.30134 -1.7275 0
M  V30 32246 H 3148.24 -4.76093 -0.535903 0
M  V30 32247 H 3146.6 -2.51837 -0.380848 0
M  V30 32248 H 3147.39 -3.24339 1.12513 0
M  V30 32249 N 3149.83 -0.0535194 -1.57509 0
M  V30 32250 C 3151.08 0.618514 -1.92403 0
M  V30 32251 C 3151.4 1.71244 -0.93276 0
M  V30 32252 O 3150.67 1.95888 0.0220151 0
M  V30 32253 H 3149.25 0.231457 -0.710237 0
M  V30 32254 H 3151.91 -0.107074 -1.94606 0
M  V30 32255 H 3151.01 1.05561 -2.93706 0
M  V30 32256 N 3151.31 1.56059 0.219886 0
M  V30 32257 C 3152.24 1.87568 1.29975 0
M  V30 32258 C 3153.22 0.733228 1.45129 0
M  V30 32259 O 3154.4 0.981757 1.60915 0
M  V30 32260 C 3151.53 2.08416 2.66984 0
M  V30 32261 C 3150.58 3.31104 2.68836 0
M  V30 32262 S 3151.41 4.86979 2.22737 0
M  V30 32263 C 3152.57 5.10865 3.61618 0
M  V30 32264 H 3152.8 2.78868 1.03054 0
M  V30 32265 H 3150.33 1.48515 0.422207 0
M  V30 32266 H 3152.29 2.2111 3.45862 0
M  V30 32267 H 3150.95 1.1791 2.91129 0
M  V30 32268 H 3150.14 3.42741 3.6952 0
M  V30 32269 H 3149.75 3.17274 1.98023 0
M  V30 32270 H 3152.04 4.99865 4.57319 0
M  V30 32271 H 3152.98 6.12744 3.54896 0
M  V30 32272 H 3153.39 4.38592 3.55383 0
M  V30 32273 N 3152.79 -0.486655 1.49898 0
M  V30 32274 C 3153.74 -1.58378 1.64013 0
M  V30 32275 C 3154.72 -1.53089 0.495242 0
M  V30 32276 O 3155.91 -1.60376 0.748904 0
M  V30 32277 C 3153.04 -2.96915 1.72326 0
M  V30 32278 C 3152.13 -3.07147 2.9244 0
M  V30 32279 N 3152.52 -2.87231 4.16331 0
M  V30 32280 C 3150.82 -3.38266 2.90675 0
M  V30 32281 C 3151.52 -3.02022 4.97149 0
M  V30 32282 N 3150.49 -3.31536 4.30795 0
M  V30 32283 H 3154.3 -1.41656 2.57509 0
M  V30 32284 H 3151.81 -0.69308 1.46868 0
M  V30 32285 H 3153.81 -3.75781 1.80539 0
M  V30 32286 H 3152.47 -3.14696 0.799779 0
M  V30 32287 H 3153.48 -2.6312 4.46081 0
M  V30 32288 H 3150.16 -3.62133 2.07764 0
M  V30 32289 H 3151.55 -2.90995 6.05616 0
M  V30 32290 N 3154.27 -1.39214 -0.738737 0
M  V30 32291 C 3155.2 -1.33533 -1.86283 0
M  V30 32292 C 3156.21 -0.244784 -1.60949 0
M  V30 32293 O 3157.4 -0.50346 -1.71253 0
M  V30 32294 C 3154.5 -1.04975 -3.22232 0
M  V30 32295 C 3153.67 -2.25232 -3.74952 0
M  V30 32296 C 3152.73 -1.93188 -4.89453 0
M  V30 32297 O 3151.76 -2.65834 -5.0331 0
M  V30 32298 N 3152.96 -0.89578 -5.73547 0
M  V30 32299 H 3155.72 -2.30403 -1.91662 0
M  V30 32300 H 3153.29 -1.33267 -0.919314 0
M  V30 32301 H 3155.28 -0.815636 -3.96396 0
M  V30 32302 H 3153.85 -0.168506 -3.12146 0
M  V30 32303 H 3153.07 -2.64618 -2.92183 0
M  V30 32304 H 3154.36 -3.05455 -4.06909 0
M  V30 32305 H 3153.75 -0.293641 -5.64937 0
M  V30 32306 H 3152.31 -0.721565 -6.47794 0
M  V30 32307 N 3155.74 0.968523 -1.24328 0
M  V30 32308 C 3156.68 2.06583 -0.992785 0
M  V30 32309 C 3157.69 1.62757 0.0374616 0
M  V30 32310 O 3158.88 1.77382 -0.19948 0
M  V30 32311 C 3155.98 3.35537 -0.476224 0
M  V30 32312 C 3155.15 4.08275 -1.56941 0
M  V30 32313 C 3154.21 5.15502 -1.05564 0
M  V30 32314 O 3153.24 5.41722 -1.74716 0
M  V30 32315 N 3154.44 5.80395 0.110363 0
M  V30 32316 H 3157.2 2.28645 -1.93756 0
M  V30 32317 H 3154.76 1.13609 -1.15346 0
M  V30 32318 H 3156.76 4.0453 -0.117295 0
M  V30 32319 H 3155.33 3.10351 0.37426 0
M  V30 32320 H 3154.55 3.33571 -2.10057 0
M  V30 32321 H 3155.83 4.53633 -2.30423 0
M  V30 32322 H 3155.23 5.61494 0.688515 0
M  V30 32323 H 3153.79 6.50506 0.410446 0
M  V30 32324 N 3157.22 1.0569 1.16908 0
M  V30 32325 C 3158.63 0.795302 1.68914 0
M  V30 32326 C 3158.98 -0.681892 1.83969 0
M  V30 32327 O 3158.11 -1.5295 1.53085 0
M  V30 32328 C 3158.7 1.43708 3.06812 0
M  V30 32329 C 3157.26 1.22341 3.55963 0
M  V30 32330 C 3156.41 1.51745 2.32096 0
M  V30 32331 H 3159.36 1.22118 1.01355 0
M  V30 32332 H 3159.38 0.849081 3.70905 0
M  V30 32333 H 3158.89 2.51219 2.95822 0
M  V30 32334 H 3156.99 0.167775 3.72222 0
M  V30 32335 H 3157.11 1.93187 4.38424 0
M  V30 32336 H 3155.47 0.937737 2.36809 0
M  V30 32337 H 3156.25 2.60401 2.2371 0
M  V30 32338 N 3158.7 -1.33435 0.838617 0
M  V30 32339 C 3159.92 -2.02532 0.446736 0
M  V30 32340 C 3160.35 -1.62682 -0.944246 0
M  V30 32341 O 3159.71 -0.819298 -1.61732 0
M  V30 32342 C 3159.76 -3.55988 0.574857 0
M  V30 32343 O 3158.86 -4.10465 -0.398991 0
M  V30 32344 H 3158.2 -0.63867 0.181649 0
M  V30 32345 H 3160.73 -1.7034 1.13338 0
M  V30 32346 H 3160.74 -4.05439 0.45641 0
M  V30 32347 H 3159.42 -3.84337 1.58928 0
M  V30 32348 H 3157.99 -3.72139 -0.238122 0
M  V30 32349 N 3160.18 -0.595029 -1.45935 0
M  V30 32350 C 3161.11 0.118669 -2.33198 0
M  V30 32351 C 3162.09 0.871398 -1.46084 0
M  V30 32352 O 3163.27 0.84443 -1.7488 0
M  V30 32353 C 3160.4 1.12489 -3.28578 0
M  V30 32354 C 3159.36 0.4862 -4.25229 0
M  V30 32355 C 3158.68 1.59977 -5.10207 0
M  V30 32356 C 3159.98 -0.584564 -5.19018 0
M  V30 32357 H 3161.68 -0.609938 -2.93121 0
M  V30 32358 H 3159.22 -0.294766 -1.40951 0
M  V30 32359 H 3161.18 1.63264 -3.88488 0
M  V30 32360 H 3159.9 1.88393 -2.66788 0
M  V30 32361 H 3158.56 -0.000572401 -3.666 0
M  V30 32362 H 3158.21 2.34878 -4.44793 0
M  V30 32363 H 3157.91 1.178 -5.75671 0
M  V30 32364 H 3159.43 2.11004 -5.72983 0
M  V30 32365 H 3160.85 -0.161398 -5.73073 0
M  V30 32366 H 3159.24 -0.927361 -5.92891 0
M  V30 32367 H 3160.31 -1.46609 -4.62205 0
M  V30 32368 N 3161.66 1.54031 -0.333483 0
M  V30 32369 C 3162.59 2.222 0.562135 0
M  V30 32370 C 3163.6 1.22524 1.07199 0
M  V30 32371 O 3164.79 1.48937 0.983871 0
M  V30 32372 C 3161.89 2.88069 1.7852 0
M  V30 32373 C 3161.06 4.1397 1.41235 0
M  V30 32374 C 3160.12 4.63342 2.494 0
M  V30 32375 O 3159.15 5.27792 2.13128 0
M  V30 32376 N 3160.35 4.38412 3.80493 0
M  V30 32377 H 3163.11 2.99692 -0.0216156 0
M  V30 32378 H 3160.68 1.61136 -0.157139 0
M  V30 32379 H 3162.67 3.18018 2.50293 0
M  V30 32380 H 3161.24 2.14223 2.27656 0
M  V30 32381 H 3160.46 3.90677 0.525819 0
M  V30 32382 H 3161.75 4.95886 1.13907 0
M  V30 32383 H 3161.14 3.86847 4.12754 0
M  V30 32384 H 3159.7 4.72992 4.48466 0
M  V30 32385 N 3163.13 0.0618717 1.57479 0
M  V30 32386 C 3164.08 -0.926592 2.13347 0
M  V30 32387 C 3165.08 -1.31501 1.06789 0
M  V30 32388 O 3166.28 -1.29341 1.25183 0
M  V30 32389 H 3162.66 -0.316717 0.682051 0
M  V30 32390 H 3164.63 -0.430372 2.9528 0
M  V30 32391 C 3163.38 -2.18829 2.70202 0
M  V30 32392 H 3162.7 -1.89823 3.51863 0
M  V30 32393 H 3164.14 -2.86127 3.12902 0
M  V30 32394 C 3162.6 -2.94017 1.64486 0
M  V30 32395 O 3163.13 -3.87353 1.06397 0
M  V30 32396 N 3161.33 -2.56942 1.35754 0
M  V30 32397 H 3160.88 -1.81116 1.8318 0
M  V30 32398 H 3160.84 -3.07554 0.652523 0
M  V30 32399 N 3164.61 -1.56173 -0.211607 0
M  V30 32400 C 3165.54 -1.96246 -1.26529 0
M  V30 32401 C 3166.52 -0.832054 -1.48361 0
M  V30 32402 O 3167.71 -1.09513 -1.60376 0
M  V30 32403 C 3164.84 -2.28775 -2.61303 0
M  V30 32404 C 3163.79 -3.44399 -2.54112 0
M  V30 32405 C 3163.12 -3.62559 -3.93007 0
M  V30 32406 C 3164.42 -4.7908 -2.08038 0
M  V30 32407 H 3166.11 -2.84513 -0.932357 0
M  V30 32408 H 3163.66 -1.36885 -0.44706 0
M  V30 32409 H 3165.61 -2.55402 -3.35184 0
M  V30 32410 H 3164.34 -1.37372 -2.96305 0
M  V30 32411 H 3162.99 -3.17837 -1.82689 0
M  V30 32412 H 3162.64 -2.68516 -4.25333 0
M  V30 32413 H 3162.34 -4.40334 -3.89075 0
M  V30 32414 H 3163.87 -3.91545 -4.68535 0
M  V30 32415 H 3165.28 -5.04846 -2.71667 0
M  V30 32416 H 3163.68 -5.60208 -2.15144 0
M  V30 32417 H 3164.75 -4.73769 -1.03298 0
M  V30 32418 N 3166.09 0.478699 -1.50154 0
M  V30 32419 C 3167.04 1.59841 -1.68978 0
M  V30 32420 C 3168.03 1.60029 -0.555619 0
M  V30 32421 O 3169.24 1.64269 -0.735904 0
M  V30 32422 H 3165.61 0.530264 -0.53322 0
M  V30 32423 H 3167.58 1.41124 -2.62919 0
M  V30 32424 C 3166.33 2.97835 -1.79414 0
M  V30 32425 H 3165.66 2.98406 -2.66071 0
M  V30 32426 H 3167.1 3.75659 -1.96613 0
M  V30 32427 C 3165.56 3.32479 -0.543985 0
M  V30 32428 O 3166.09 4.00421 0.320305 0
M  V30 32429 N 3164.29 2.8783 -0.400268 0
M  V30 32430 H 3163.84 2.32714 -1.10462 0
M  V30 32431 H 3163.8 3.11375 0.435057 0
M  V30 32432 N 3167.57 1.39603 0.731343 0
M  V30 32433 C 3168.53 1.38386 1.82707 0
M  V30 32434 C 3169.53 0.280337 1.58337 0
M  V30 32435 O 3170.72 0.538432 1.6567 0
M  V30 32436 C 3167.85 1.16008 3.20554 0
M  V30 32437 H 3169.05 2.35892 1.85189 0
M  V30 32438 H 3166.6 1.25222 0.935374 0
M  V30 32439 H 3167.33 0.191984 3.23731 0
M  V30 32440 H 3167.12 1.95926 3.3964 0
M  V30 32441 H 3168.61 1.17906 4.0061 0
M  V30 32442 N 3169.05 -0.961916 1.2484 0
M  V30 32443 C 3169.98 -2.05651 0.989077 0
M  V30 32444 C 3170.96 -1.62407 -0.0791705 0
M  V30 32445 O 3172.14 -1.88408 0.0589728 0
M  V30 32446 C 3169.27 -3.35082 0.49372 0
M  V30 32447 C 3168.31 -3.97283 1.55139 0
M  V30 32448 S 3169.15 -4.3418 3.13446 0
M  V30 32449 C 3170.3 -5.66739 2.65627 0
M  V30 32450 H 3170.54 -2.27332 1.91592 0
M  V30 32451 H 3168.07 -1.10059 1.08289 0
M  V30 32452 H 3170.03 -4.09939 0.214554 0
M  V30 32453 H 3168.69 -3.1138 -0.412505 0
M  V30 32454 H 3167.88 -4.90579 1.15534 0
M  V30 32455 H 3167.48 -3.28879 1.78086 0
M  V30 32456 H 3169.78 -6.44522 2.08799 0
M  V30 32457 H 3170.72 -6.11208 3.57535 0
M  V30 32458 H 3171.13 -5.25624 2.05863 0
M  V30 32459 N 3170.52 -1.06308 -1.16346 0
M  V30 32460 C 3171.46 -0.631968 -2.20315 0
M  V30 32461 C 3172.47 0.310105 -1.59819 0
M  V30 32462 O 3173.66 0.101072 -1.78214 0
M  V30 32463 C 3170.76 0.0937049 -3.3877 0
M  V30 32464 C 3169.93 -0.861891 -4.28824 0
M  V30 32465 C 3168.99 -0.175438 -5.25907 0
M  V30 32466 O 3168.02 -0.813138 -5.63362 0
M  V30 32467 N 3169.22 1.08295 -5.70309 0
M  V30 32468 H 3171.98 -1.52631 -2.57922 0
M  V30 32469 H 3169.54 -0.946415 -1.31357 0
M  V30 32470 H 3171.54 0.563341 -4.0076 0
M  V30 32471 H 3170.11 0.889852 -2.99667 0
M  V30 32472 H 3169.33 -1.5109 -3.64096 0
M  V30 32473 H 3170.61 -1.51015 -4.85872 0
M  V30 32474 H 3170.01 1.62117 -5.41973 0
M  V30 32475 H 3168.57 1.49645 -6.34389 0
M  V30 32476 N 3172 1.32989 -0.845682 0
M  V30 32477 C 3172.97 2.27371 -0.288945 0
M  V30 32478 C 3173.97 1.51238 0.546236 0
M  V30 32479 O 3175.16 1.7046 0.359042 0
M  V30 32480 C 3172.29 3.35717 0.592181 0
M  V30 32481 H 3173.48 2.78126 -1.12186 0
M  V30 32482 H 3171.03 1.43507 -0.619302 0
M  V30 32483 H 3171.77 2.90215 1.44727 0
M  V30 32484 H 3171.55 3.921 -0.00550147 0
M  V30 32485 H 3173.04 4.06064 0.974776 0
M  V30 32486 N 3173.48 0.60276 1.45618 0
M  V30 32487 C 3174.73 0.0958795 2.01872 0
M  V30 32488 C 3175.05 -1.2763 1.4743 0
M  V30 32489 O 3174.32 -1.84207 0.666684 0
M  V30 32490 H 3172.9 0.032454 0.746295 0
M  V30 32491 H 3175.56 0.783068 1.78477 0
M  V30 32492 H 3174.66 0.0420055 3.12072 0
M  V30 32493 N 3174.96 -1.53852 0.341647 0
M  V30 32494 C 3176.2 -2.0118 -0.255827 0
M  V30 32495 C 3176.54 -1.22912 -1.50354 0
M  V30 32496 O 3175.81 -0.316232 -1.91912 0
M  V30 32497 C 3176.1 -3.5553 -0.571871 0
M  V30 32498 C 3175.95 -4.4451 0.687805 0
M  V30 32499 C 3177.27 -4.1783 -1.38225 0
M  V30 32500 H 3174.39 -0.731297 -0.0915081 0
M  V30 32501 H 3177.03 -1.84302 0.461808 0
M  V30 32502 H 3175.18 -3.70043 -1.18324 0
M  V30 32503 H 3176.85 -4.41837 1.3258 0
M  V30 32504 H 3175.09 -4.1345 1.31308 0
M  V30 32505 H 3175.76 -5.50385 0.421955 0
M  V30 32506 H 3178.24 -4.07003 -0.865303 0
M  V30 32507 H 3177.12 -5.25904 -1.57214 0
M  V30 32508 H 3177.38 -3.72327 -2.38379 0
M  V30 32509 N 3176.44 -0.0702223 -1.57443 0
M  V30 32510 C 3177.85 0.462677 -1.80876 0
M  V30 32511 C 3178.2 1.6974 -0.984005 0
M  V30 32512 O 3177.32 2.15417 -0.206064 0
M  V30 32513 C 3177.92 0.846172 -3.28063 0
M  V30 32514 C 3176.48 1.32394 -3.52347 0
M  V30 32515 C 3175.62 0.308351 -2.7558 0
M  V30 32516 H 3178.58 -0.295934 -1.55916 0
M  V30 32517 H 3178.6 1.7077 -3.40026 0
M  V30 32518 H 3178.11 -0.0526715 -3.88064 0
M  V30 32519 H 3176.21 2.24134 -2.97649 0
M  V30 32520 H 3176.32 1.30295 -4.61042 0
M  V30 32521 H 3174.69 0.785295 -2.42292 0
M  V30 32522 H 3175.47 -0.582738 -3.38318 0
M  V30 32523 N 3177.91 1.56283 0.203321 0
M  V30 32524 C 3179.33 1.49683 0.553814 0
M  V30 32525 C 3179.53 0.768734 1.8626 0
M  V30 32526 O 3178.59 0.315868 2.50517 0
M  V30 32527 C 3179.9 2.94319 0.616164 0
M  V30 32528 C 3181.45 3.04944 0.705557 0
M  V30 32529 C 3181.92 4.50975 0.799091 0
M  V30 32530 N 3183.41 4.55093 0.862836 0
M  V30 32531 C 3184.15 5.65387 0.955234 0
M  V30 32532 N 3183.64 6.85392 1.01045 0
M  V30 32533 N 3185.44 5.53281 0.991786 0
M  V30 32534 H 3177.59 2.02039 -0.65528 0
M  V30 32535 H 3179.85 0.919083 -0.23236 0
M  V30 32536 H 3179.56 3.50613 -0.276251 0
M  V30 32537 H 3179.43 3.47222 1.47365 0
M  V30 32538 H 3181.82 2.48704 1.58841 0
M  V30 32539 H 3181.9 2.5518 -0.177966 0
M  V30 32540 H 3181.54 5.07838 -0.0793733 0
M  V30 32541 H 3181.47 4.98463 1.6983 0
M  V30 32542 H 3183.96 3.68678 0.829747 0
M  V30 32543 H 3184.28 7.65199 1.08123 0
M  V30 32544 H 3182.62 6.88066 0.979263 0
M  V30 32545 H 3185.81 4.58453 0.945434 0
M  V30 32546 H 3185.99 6.39266 1.06034 0
M  V30 32547 N 3179.39 -0.470729 1.50406 0
M  V30 32548 C 3180.8 -1.05159 1.54268 0
M  V30 32549 C 3181.16 -1.93118 0.346393 0
M  V30 32550 O 3180.28 -2.09537 -0.540662 0
M  V30 32551 C 3180.88 -1.91389 2.79563 0
M  V30 32552 C 3179.43 -2.44583 2.86105 0
M  V30 32553 C 3178.58 -1.22937 2.4856 0
M  V30 32554 H 3181.53 -0.253332 1.56665 0
M  V30 32555 H 3181.55 -2.7646 2.61439 0
M  V30 32556 H 3181.07 -1.27344 3.66613 0
M  V30 32557 H 3179.17 -3.12179 2.03408 0
M  V30 32558 H 3179.28 -2.79665 3.89004 0
M  V30 32559 H 3177.64 -1.56425 2.01005 0
M  V30 32560 H 3178.43 -0.605539 3.37917 0
M  V30 32561 N 3180.87 -1.39989 -0.72393 0
M  V30 32562 C 3182.12 -1.37543 -1.48076 0
M  V30 32563 C 3182.44 0.0243015 -1.94985 0
M  V30 32564 O 3181.71 0.977572 -1.69766 0
M  V30 32565 H 3180.29 -0.506191 -0.549345 0
M  V30 32566 H 3182.95 -1.74963 -0.858715 0
M  V30 32567 H 3182.05 -2.04509 -2.35759 0
M  V30 32568 N 3182.35 0.955282 -1.25348 0
M  V30 32569 C 3183.6 1.70233 -1.10221 0
M  V30 32570 C 3183.93 1.90907 0.356091 0
M  V30 32571 O 3183.2 1.47956 1.26251 0
M  V30 32572 C 3183.49 3.08565 -1.85632 0
M  V30 32573 C 3183.34 2.95305 -3.39286 0
M  V30 32574 C 3184.66 4.08445 -1.63893 0
M  V30 32575 H 3181.78 0.617845 -0.401791 0
M  V30 32576 H 3184.42 1.11046 -1.54172 0
M  V30 32577 H 3182.57 3.59091 -1.48276 0
M  V30 32578 H 3184.24 2.5211 -3.86314 0
M  V30 32579 H 3182.48 2.31238 -3.67031 0
M  V30 32580 H 3183.16 3.93357 -3.87265 0
M  V30 32581 H 3185.63 3.66826 -1.96412 0
M  V30 32582 H 3184.51 5.03278 -2.19095 0
M  V30 32583 H 3184.77 4.38278 -0.580098 0
M  V30 32584 N 3183.83 1.06924 1.1578 0
M  V30 32585 C 3185.24 0.813173 1.68061 0
M  V30 32586 C 3185.59 -0.662342 1.84682 0
M  V30 32587 O 3184.71 -1.51318 1.54699 0
M  V30 32588 C 3185.31 1.46954 3.0527 0
M  V30 32589 C 3183.87 1.2611 3.54645 0
M  V30 32590 C 3183.02 1.54198 2.30474 0
M  V30 32591 H 3185.97 1.23186 1.00054 0
M  V30 32592 H 3185.99 0.888373 3.69984 0
M  V30 32593 H 3185.5 2.54343 2.93141 0
M  V30 32594 H 3183.6 0.207245 3.72023 0
M  V30 32595 H 3183.71 1.97827 4.3635 0
M  V30 32596 H 3182.08 0.962801 2.35801 0
M  V30 32597 H 3182.86 2.62759 2.20936 0
M  V30 32598 N 3185.31 -1.32538 0.852723 0
M  V30 32599 C 3186.72 -1.79598 0.510043 0
M  V30 32600 C 3187.07 -1.70432 -0.971972 0
M  V30 32601 O 3186.19 -1.26176 -1.75808 0
M  V30 32602 C 3186.79 -3.26097 0.919043 0
M  V30 32603 C 3185.35 -3.71119 0.628292 0
M  V30 32604 C 3184.49 -2.53683 1.11984 0
M  V30 32605 H 3187.44 -1.19864 1.04011 0
M  V30 32606 H 3187.47 -3.79776 0.234644 0
M  V30 32607 H 3186.98 -3.32736 1.99771 0
M  V30 32608 H 3185.08 -3.69996 -0.439735 0
M  V30 32609 H 3185.19 -4.64003 1.19323 0
M  V30 32610 H 3183.56 -2.48906 0.540176 0
M  V30 32611 H 3184.34 -2.63077 2.20557 0
M  V30 32612 N 3186.78 -0.610474 -1.45296 0
M  V30 32613 C 3187.72 0.144843 -2.28742 0
M  V30 32614 C 3188.73 0.828953 -1.40115 0
M  V30 32615 O 3189.92 0.693858 -1.64462 0
M  V30 32616 C 3187.02 1.22626 -3.15937 0
M  V30 32617 C 3186.19 0.628709 -4.32858 0
M  V30 32618 C 3185.25 1.6014 -5.0124 0
M  V30 32619 O 3184.28 1.12657 -5.5794 0
M  V30 32620 N 3185.48 2.93581 -5.0079 0
M  V30 32621 H 3188.24 -0.571197 -2.94206 0
M  V30 32622 H 3185.8 -0.450162 -1.55516 0
M  V30 32623 H 3187.8 1.87685 -3.58548 0
M  V30 32624 H 3186.37 1.84479 -2.52361 0
M  V30 32625 H 3185.59 -0.200021 -3.93692 0
M  V30 32626 H 3186.87 0.209756 -5.08367 0
M  V30 32627 H 3186.27 3.34757 -4.5602 0
M  V30 32628 H 3184.83 3.54054 -5.47256 0
M  V30 32629 N 3188.26 1.53669 -0.349801 0
M  V30 32630 C 3189.19 2.22783 0.538536 0
M  V30 32631 C 3190.21 1.23654 1.05894 0
M  V30 32632 O 3191.4 1.49972 0.968019 0
M  V30 32633 C 3188.5 2.89946 1.75454 0
M  V30 32634 C 3187.67 4.15445 1.36836 0
M  V30 32635 C 3186.73 4.65961 2.44472 0
M  V30 32636 O 3185.75 5.30023 2.07519 0
M  V30 32637 N 3186.96 4.42423 3.75821 0
M  V30 32638 H 3189.72 2.99652 -0.0534007 0
M  V30 32639 H 3187.28 1.6096 -0.174221 0
M  V30 32640 H 3189.27 3.20655 2.46906 0
M  V30 32641 H 3187.84 2.16626 2.25371 0
M  V30 32642 H 3187.06 3.91213 0.484352 0
M  V30 32643 H 3188.35 4.97066 1.08641 0
M  V30 32644 H 3187.75 3.91203 4.08628 0
M  V30 32645 H 3186.31 4.77722 4.43424 0
M  V30 32646 N 3189.74 0.0785709 1.57404 0
M  V30 32647 C 3190.67 -0.915976 2.10101 0
M  V30 32648 C 3191.68 -1.25696 1.03461 0
M  V30 32649 O 3192.87 -1.21296 1.30956 0
M  V30 32650 C 3189.97 -2.22987 2.55206 0
M  V30 32651 C 3189.15 -2.06671 3.85494 0
M  V30 32652 C 3188.21 -3.21425 4.1662 0
M  V30 32653 O 3187.23 -2.96117 4.8611 0
M  V30 32654 N 3188.43 -4.4672 3.70705 0
M  V30 32655 H 3191.2 -0.466007 2.96055 0
M  V30 32656 H 3188.76 -0.106978 1.61546 0
M  V30 32657 H 3190.75 -2.98675 2.73085 0
M  V30 32658 H 3189.32 -2.59461 1.74352 0
M  V30 32659 H 3188.54 -1.15411 3.76927 0
M  V30 32660 H 3189.83 -1.93028 4.70763 0
M  V30 32661 H 3189.23 -4.70166 3.14579 0
M  V30 32662 H 3187.78 -5.19411 3.93771 0
M  V30 32663 N 3191.22 -1.56389 -0.19503 0
M  V30 32664 C 3192.18 -1.93694 -1.22537 0
M  V30 32665 C 3193.18 -0.818064 -1.38435 0
M  V30 32666 O 3194.37 -1.08548 -1.36246 0
M  V30 32667 C 3191.5 -2.21104 -2.59472 0
M  V30 32668 H 3192.7 -2.85872 -0.906494 0
M  V30 32669 H 3190.25 -1.5008 -0.436551 0
M  V30 32670 H 3190.98 -1.31564 -2.96414 0
M  V30 32671 H 3190.77 -3.02638 -2.49304 0
M  V30 32672 H 3192.26 -2.5097 -3.33772 0
M  V30 32673 N 3192.7 0.462746 -1.50653 0
M  V30 32674 C 3193.63 1.57874 -1.64776 0
M  V30 32675 C 3194.61 1.5486 -0.495691 0
M  V30 32676 O 3195.79 1.74361 -0.716279 0
M  V30 32677 C 3192.92 2.96457 -1.63802 0
M  V30 32678 C 3191.96 3.17594 -2.84669 0
M  V30 32679 S 3192.8 2.966 -4.45857 0
M  V30 32680 C 3193.95 4.3751 -4.47589 0
M  V30 32681 H 3194.19 1.45657 -2.59174 0
M  V30 32682 H 3191.72 0.650674 -1.4002 0
M  V30 32683 H 3193.68 3.7635 -1.63924 0
M  V30 32684 H 3192.34 3.06057 -0.706239 0
M  V30 32685 H 3191.53 4.18855 -2.80316 0
M  V30 32686 H 3191.13 2.45487 -2.82157 0
M  V30 32687 H 3193.42 5.30288 -4.21665 0
M  V30 32688 H 3194.37 4.46905 -5.49256 0
M  V30 32689 H 3194.78 4.19979 -3.77198 0
M  V30 32690 N 3194.17 1.40371 0.716495 0
M  V30 32691 C 3195.42 1.38326 1.47344 0
M  V30 32692 C 3195.74 -0.0139606 1.94995 0
M  V30 32693 O 3195.01 -0.968555 1.70282 0
M  V30 32694 H 3193.59 0.509097 0.546653 0
M  V30 32695 H 3196.26 1.75416 0.849425 0
M  V30 32696 H 3195.35 2.05757 2.34671 0
M  V30 32697 N 3195.65 -0.948621 1.25853 0
M  V30 32698 C 3196.9 -1.69061 1.10738 0
M  V30 32699 C 3197.22 -1.91811 -0.351224 0
M  V30 32700 O 3196.49 -1.50949 -1.24864 0
M  V30 32701 H 3195.07 -0.626512 0.406807 0
M  V30 32702 H 3197.73 -1.1402 1.58068 0
M  V30 32703 H 3196.83 -2.6674 1.62038 0
M  V30 32704 N 3197.13 -1.07536 -1.15212 0
M  V30 32705 C 3198.06 -0.718876 -2.22159 0
M  V30 32706 C 3199.04 0.294561 -1.6753 0
M  V30 32707 O 3200.23 0.166897 -1.93482 0
M  V30 32708 C 3197.36 -0.117897 -3.471 0
M  V30 32709 C 3196.31 -1.0587 -4.14699 0
M  V30 32710 C 3195.64 -0.320378 -5.33739 0
M  V30 32711 C 3196.94 -2.39311 -4.6425 0
M  V30 32712 H 3198.63 -1.61302 -2.52234 0
M  V30 32713 H 3196.18 -0.777014 -1.21237 0
M  V30 32714 H 3198.13 0.143445 -4.21156 0
M  V30 32715 H 3196.85 0.811333 -3.16362 0
M  V30 32716 H 3195.51 -1.30499 -3.42587 0
M  V30 32717 H 3195.16 0.612372 -4.99258 0
M  V30 32718 H 3194.86 -0.947483 -5.79911 0
M  V30 32719 H 3196.38 -0.0668794 -6.10563 0
M  V30 32720 H 3197.8 -2.18997 -5.29824 0
M  V30 32721 H 3196.2 -2.97633 -5.2109 0
M  V30 32722 H 3197.27 -3.01478 -3.79788 0
M  V30 32723 N 3198.61 1.32084 -0.85974 0
M  V30 32724 C 3199.56 2.30697 -0.296938 0
M  V30 32725 C 3200.55 1.59072 0.582445 0
M  V30 32726 O 3201.76 1.73764 0.469683 0
M  V30 32727 H 3198.13 0.748014 -0.0773263 0
M  V30 32728 H 3200.1 2.7565 -1.14278 0
M  V30 32729 C 3198.85 3.44151 0.495485 0
M  V30 32730 H 3198.17 3.9943 -0.171899 0
M  V30 32731 H 3199.61 4.15294 0.854781 0
M  V30 32732 C 3198.07 2.91866 1.68272 0
M  V30 32733 O 3198.6 2.89782 2.78189 0
M  V30 32734 N 3196.81 2.482 1.51147 0
M  V30 32735 H 3196.36 2.50094 0.617301 0
M  V30 32736 H 3196.31 2.13571 2.30726 0
M  V30 32737 N 3200.09 0.618171 1.4497 0
M  V30 32738 C 3201.5 0.201367 1.85611 0
M  V30 32739 C 3201.85 -1.24424 1.51701 0
M  V30 32740 O 3200.97 -1.94492 0.948784 0
M  V30 32741 C 3201.57 0.358678 3.36896 0
M  V30 32742 C 3200.13 -0.0035158 3.764 0
M  V30 32743 C 3199.27 0.678165 2.6888 0
M  V30 32744 H 3202.23 0.824176 1.35621 0
M  V30 32745 H 3202.25 -0.406109 3.78327 0
M  V30 32746 H 3201.76 1.4109 3.61546 0
M  V30 32747 H 3199.86 -1.05451 3.57367 0
M  V30 32748 H 3199.97 0.397511 4.77448 0
M  V30 32749 H 3198.34 0.114744 2.54441 0
M  V30 32750 H 3199.12 1.73273 2.96364 0
M  V30 32751 N 3201.56 -1.53481 0.357946 0
M  V30 32752 C 3202.5 -2.23066 -0.526714 0
M  V30 32753 C 3203.51 -1.24214 -1.05237 0
M  V30 32754 O 3204.7 -1.50483 -0.960052 0
M  V30 32755 C 3201.8 -2.90873 -1.73914 0
M  V30 32756 C 3200.97 -4.16165 -1.34631 0
M  V30 32757 C 3200.03 -4.67251 -2.41997 0
M  V30 32758 O 3199.06 -5.31116 -2.04705 0
M  V30 32759 N 3200.26 -4.4441 -3.7347 0
M  V30 32760 H 3203.02 -2.9962 0.0692913 0
M  V30 32761 H 3200.58 -1.60865 0.182755 0
M  V30 32762 H 3202.58 -3.2196 -2.45202 0
M  V30 32763 H 3201.15 -2.17818 -2.24219 0
M  V30 32764 H 3200.37 -3.91464 -0.463599 0
M  V30 32765 H 3201.65 -4.97635 -1.06004 0
M  V30 32766 H 3201.05 -3.93364 -4.06548 0
M  V30 32767 H 3199.61 -4.80067 -4.40884 0
M  V30 32768 N 3203.04 -0.0869173 -1.5736 0
M  V30 32769 C 3204.29 0.577564 -1.93671 0
M  V30 32770 C 3204.61 1.69227 -0.968874 0
M  V30 32771 O 3203.88 1.9589 -0.0195405 0
M  V30 32772 H 3202.46 0.21634 -0.714987 0
M  V30 32773 H 3205.12 -0.148329 -1.94335 0
M  V30 32774 H 3204.22 0.993076 -2.95879 0
M  V30 32775 N 3204.52 1.5649 0.186734 0
M  V30 32776 C 3205.45 1.91747 1.25562 0
M  V30 32777 C 3206.47 0.808965 1.41278 0
M  V30 32778 O 3207.65 1.08739 1.41556 0
M  V30 32779 C 3204.75 2.14159 2.62658 0
M  V30 32780 C 3203.93 3.45337 2.68442 0
M  V30 32781 C 3202.99 3.56761 3.86792 0
M  V30 32782 O 3202.01 4.29513 3.73506 0
M  V30 32783 N 3203.21 2.90467 5.02602 0
M  V30 32784 H 3205.98 2.84033 0.956301 0
M  V30 32785 H 3203.54 1.57459 0.376603 0
M  V30 32786 H 3205.53 2.19081 3.40273 0
M  V30 32787 H 3204.1 1.28331 2.85044 0
M  V30 32788 H 3203.32 3.52209 1.77038 0
M  V30 32789 H 3204.61 4.31686 2.69303 0
M  V30 32790 H 3204.01 2.31203 5.16296 0
M  V30 32791 H 3202.57 3.01006 5.78134 0
M  V30 32792 N 3206 -0.45475 1.50897 0
M  V30 32793 C 3206.96 -1.53309 1.70379 0
M  V30 32794 C 3207.96 -1.50202 0.574106 0
M  V30 32795 O 3209.15 -1.52532 0.841401 0
M  V30 32796 C 3206.28 -2.92902 1.74417 0
M  V30 32797 H 3207.48 -1.37345 2.66602 0
M  V30 32798 H 3205.03 -0.682255 1.40624 0
M  V30 32799 H 3205.76 -3.14291 0.799464 0
M  V30 32800 H 3205.55 -2.96563 2.56501 0
M  V30 32801 H 3207.04 -3.71161 1.91388 0
M  V30 32802 N 3207.48 -1.40749 -0.709041 0
M  V30 32803 C 3208.41 -1.44293 -1.8358 0
M  V30 32804 C 3209.39 -0.303096 -1.67378 0
M  V30 32805 O 3210.57 -0.512645 -1.87311 0
M  V30 32806 C 3207.7 -1.31121 -3.21597 0
M  V30 32807 C 3206.66 -2.42776 -3.52482 0
M  V30 32808 C 3205.98 -2.14677 -4.89712 0
M  V30 32809 C 3207.28 -3.8512 -3.52817 0
M  V30 32810 H 3208.98 -2.38591 -1.80871 0
M  V30 32811 H 3206.52 -1.1484 -0.868775 0
M  V30 32812 H 3208.48 -1.32216 -4.00121 0
M  V30 32813 H 3207.2 -0.333022 -3.24898 0
M  V30 32814 H 3205.86 -2.40942 -2.76301 0
M  V30 32815 H 3205.51 -1.15233 -4.89623 0
M  V30 32816 H 3205.21 -2.89487 -5.11342 0
M  V30 32817 H 3206.73 -2.17465 -5.70562 0
M  V30 32818 H 3208.14 -3.88742 -4.2137 0
M  V30 32819 H 3206.54 -4.59502 -3.85976 0
M  V30 32820 H 3207.61 -4.14235 -2.52066 0
M  V30 32821 N 3208.96 0.941933 -1.26354 0
M  V30 32822 C 3209.9 2.06186 -1.07657 0
M  V30 32823 C 3210.9 1.694 -0.00372719 0
M  V30 32824 O 3212.1 1.79284 -0.160348 0
M  V30 32825 H 3208.48 0.675095 -0.331286 0
M  V30 32826 H 3210.45 2.19107 -2.0257 0
M  V30 32827 C 3209.2 3.40047 -0.725496 0
M  V30 32828 H 3208.52 3.68829 -1.54289 0
M  V30 32829 H 3209.96 4.19226 -0.634457 0
M  V30 32830 C 3208.42 3.32055 0.56931 0
M  V30 32831 O 3208.95 3.68119 1.60784 0
M  V30 32832 N 3207.16 2.8516 0.559663 0
M  V30 32833 H 3206.7 2.56009 -0.285862 0
M  V30 32834 H 3206.66 2.80195 1.42612 0
M  V30 32835 N 3210.43 1.08146 1.1464 0
M  V30 32836 C 3211.68 0.80447 1.84963 0
M  V30 32837 C 3212 -0.672074 1.83691 0
M  V30 32838 O 3213.2 -1.06413 2.49777 0
M  V30 32839 C 3211.66 1.3891 3.32012 0
M  V30 32840 C 3211.27 2.89724 3.41708 0
M  V30 32841 C 3213.01 1.19048 4.07465 0
M  V30 32842 C 3210.92 3.41337 4.82952 0
M  V30 32843 H 3209.85 0.297268 0.692927 0
M  V30 32844 H 3212.5 1.30254 1.29252 0
M  V30 32845 H 3210.88 0.818748 3.87444 0
M  V30 32846 H 3212.05 3.52872 2.96341 0
M  V30 32847 H 3210.37 3.08468 2.79708 0
M  V30 32848 H 3212.97 1.55078 5.11718 0
M  V30 32849 H 3213.31 0.1301 4.16097 0
M  V30 32850 H 3213.84 1.72763 3.58326 0
M  V30 32851 H 3210.58 4.46937 4.79507 0
M  V30 32852 H 3210.1 2.82946 5.28868 0
M  V30 32853 H 3211.78 3.37768 5.51835 0
M  V30 32854 N 3211.91 -1.31626 0.866732 0
M  V30 32855 C 3212.84 -2.26658 0.264828 0
M  V30 32856 C 3213.82 -1.50959 -0.604154 0
M  V30 32857 O 3215.01 -1.80043 -0.558293 0
M  V30 32858 C 3212.13 -3.32878 -0.625314 0
M  V30 32859 C 3211.18 -4.26153 0.171888 0
M  V30 32860 S 3212.01 -5.12629 1.54827 0
M  V30 32861 C 3213.17 -6.22366 0.66416 0
M  V30 32862 H 3213.4 -2.77362 1.0704 0
M  V30 32863 H 3210.93 -1.39342 0.665063 0
M  V30 32864 H 3212.89 -3.94549 -1.13321 0
M  V30 32865 H 3211.55 -2.80934 -1.40481 0
M  V30 32866 H 3210.75 -5.01447 -0.506606 0
M  V30 32867 H 3210.35 -3.68963 0.611769 0
M  V30 32868 H 3212.64 -6.77382 -0.126598 0
M  V30 32869 H 3213.58 -6.94361 1.38812 0
M  V30 32870 H 3213.99 -5.64018 0.233145 0
M  V30 32871 N 3213.39 -0.62585 -1.4464 0
M  V30 32872 C 3214.34 0.0944812 -2.32408 0
M  V30 32873 C 3215.33 0.841172 -1.4704 0
M  V30 32874 O 3216.54 0.754669 -1.63416 0
M  V30 32875 H 3212.91 0.0493189 -0.750381 0
M  V30 32876 H 3214.88 -0.663914 -2.9092 0
M  V30 32877 C 3213.63 1.06609 -3.30953 0
M  V30 32878 H 3212.96 0.500952 -3.96649 0
M  V30 32879 H 3214.4 1.53969 -3.95056 0
M  V30 32880 C 3212.85 2.14873 -2.59483 0
M  V30 32881 O 3213.38 3.22881 -2.38979 0
M  V30 32882 N 3211.59 1.90661 -2.1931 0
M  V30 32883 H 3211.14 1.02831 -2.36186 0
M  V30 32884 H 3211.1 2.63299 -1.71816 0
M  V30 32885 N 3214.87 1.53289 -0.36608 0
M  V30 32886 C 3216.28 1.86358 0.113023 0
M  V30 32887 C 3216.63 1.28665 1.48121 0
M  V30 32888 O 3215.75 0.608885 2.07657 0
M  V30 32889 C 3216.35 3.38137 0.211864 0
M  V30 32890 C 3214.91 3.71001 0.635224 0
M  V30 32891 C 3214.06 2.76448 -0.217251 0
M  V30 32892 H 3217.01 1.4753 -0.584855 0
M  V30 32893 H 3217.03 3.66143 1.03534 0
M  V30 32894 H 3216.54 3.80097 -0.784061 0
M  V30 32895 H 3214.64 3.34598 1.63936 0
M  V30 32896 H 3214.75 4.77347 0.409487 0
M  V30 32897 H 3213.12 2.52758 0.313944 0
M  V30 32898 H 3213.9 3.21242 -1.21072 0
M  V30 32899 N 3216.35 0.0952613 1.57312 0
M  V30 32900 C 3217.59 -0.567285 1.93975 0
M  V30 32901 C 3217.91 -1.68711 0.977835 0
M  V30 32902 O 3217.18 -1.95877 0.0299288 0
M  V30 32903 H 3215.76 -0.212545 0.716124 0
M  V30 32904 H 3218.43 0.158632 1.94253 0
M  V30 32905 H 3217.52 -0.977371 2.96402 0
M  V30 32906 N 3217.82 -1.56587 -0.178432 0
M  V30 32907 C 3218.77 -1.92265 -1.22548 0
M  V30 32908 C 3219.76 -0.790155 -1.40162 0
M  V30 32909 O 3220.95 -1.05325 -1.42252 0
M  V30 32910 C 3218.08 -2.27997 -2.56656 0
M  V30 32911 C 3217.16 -3.47743 -2.42766 0
M  V30 32912 N 3217.56 -4.65188 -1.98579 0
M  V30 32913 C 3215.85 -3.5221 -2.73613 0
M  V30 32914 C 3216.55 -5.47333 -1.96982 0
M  V30 32915 N 3215.53 -4.88184 -2.39117 0
M  V30 32916 H 3219.33 -2.80559 -0.875443 0
M  V30 32917 H 3216.85 -1.57727 -0.386758 0
M  V30 32918 H 3218.84 -2.51749 -3.32307 0
M  V30 32919 H 3217.5 -1.41039 -2.92469 0
M  V30 32920 H 3218.51 -4.89541 -1.69028 0
M  V30 32921 H 3215.19 -2.75712 -3.13511 0
M  V30 32922 H 3216.58 -6.51432 -1.64578 0
M  V30 32923 N 3219.3 0.446741 -1.51136 0
M  V30 32924 C 3220.25 1.56221 -1.7233 0
M  V30 32925 C 3221.24 1.58814 -0.589439 0
M  V30 32926 O 3222.45 1.62672 -0.770582 0
M  V30 32927 H 3218.82 0.518835 -0.544348 0
M  V30 32928 H 3220.8 1.35515 -2.65854 0
M  V30 32929 C 3219.54 2.93963 -1.85691 0
M  V30 32930 H 3218.87 2.92695 -2.72341 0
M  V30 32931 H 3220.31 3.71404 -2.04537 0
M  V30 32932 C 3218.77 3.31251 -0.614386 0
M  V30 32933 O 3219.3 4.0101 0.235298 0
M  V30 32934 N 3217.5 2.86916 -0.461231 0
M  V30 32935 H 3217.05 2.30319 -1.15373 0
M  V30 32936 H 3217.01 3.12228 0.368911 0
M  V30 32937 N 3220.78 1.41123 0.701567 0
M  V30 32938 C 3222.19 1.35796 1.28127 0
M  V30 32939 C 3222.54 0.0381529 1.96163 0
M  V30 32940 O 3221.67 -0.863688 1.98417 0
M  V30 32941 C 3222.26 2.45959 2.33001 0
M  V30 32942 C 3220.82 2.44048 2.86561 0
M  V30 32943 C 3219.97 2.26115 1.60522 0
M  V30 32944 H 3222.92 1.50726 0.49673 0
M  V30 32945 H 3222.94 2.14673 3.14159 0
M  V30 32946 H 3222.45 3.42003 1.83454 0
M  V30 32947 H 3220.55 1.51743 3.40301 0
M  V30 32948 H 3220.67 3.40144 3.374 0
M  V30 32949 H 3219.03 1.73883 1.8611 0
M  V30 32950 H 3219.81 3.24177 1.1298 0
M  V30 32951 N 3222.26 -0.935219 1.26852 0
M  V30 32952 C 3223.21 -2.05612 1.08749 0
M  V30 32953 C 3224.2 -1.69395 0.0127108 0
M  V30 32954 O 3225.41 -1.79197 0.169853 0
M  V30 32955 H 3221.78 -0.673329 0.334862 0
M  V30 32956 H 3223.75 -2.1803 2.03729 0
M  V30 32957 C 3222.5 -3.39657 0.743519 0
M  V30 32958 H 3221.82 -3.68006 1.56243 0
M  V30 32959 H 3223.26 -4.18884 0.656681 0
M  V30 32960 C 3221.72 -3.32352 -0.551693 0
M  V30 32961 O 3222.25 -3.68966 -1.5883 0
M  V30 32962 N 3220.46 -2.85453 -0.544533 0
M  V30 32963 H 3220.01 -2.55854 0.299435 0
M  V30 32964 H 3219.96 -2.80947 -1.41124 0
M  V30 32965 N 3223.74 -1.08752 -1.14065 0
M  V30 32966 C 3224.67 -0.664691 -2.18305 0
M  V30 32967 C 3225.65 0.325331 -1.59312 0
M  V30 32968 O 3226.83 0.228352 -1.87112 0
M  V30 32969 C 3223.96 0.0218127 -3.38693 0
M  V30 32970 C 3223 -0.928917 -4.16261 0
M  V30 32971 S 3223.84 -2.43742 -4.76812 0
M  V30 32972 C 3224.99 -1.76313 -6.00554 0
M  V30 32973 H 3225.23 -1.54776 -2.53834 0
M  V30 32974 H 3222.76 -0.902839 -1.25252 0
M  V30 32975 H 3224.72 0.411614 -4.08431 0
M  V30 32976 H 3223.38 0.881428 -3.01479 0
M  V30 32977 H 3222.57 -0.395534 -5.02446 0
M  V30 32978 H 3222.17 -1.25979 -3.52144 0
M  V30 32979 H 3224.47 -1.08313 -6.68786 0
M  V30 32980 H 3225.41 -2.60385 -6.58487 0
M  V30 32981 H 3225.82 -1.23499 -5.50825 0
M  V30 32982 N 3225.21 1.31165 -0.873701 0
M  V30 32983 C 3226.18 2.26707 -0.337109 0
M  V30 32984 C 3227.18 1.52363 0.514033 0
M  V30 32985 O 3228.37 1.71183 0.322804 0
M  V30 32986 C 3225.5 3.36898 0.520838 0
M  V30 32987 H 3226.69 2.75684 -1.1806 0
M  V30 32988 H 3224.25 1.42161 -0.649602 0
M  V30 32989 H 3224.98 2.9322 1.38538 0
M  V30 32990 H 3224.77 3.92 -0.0886704 0
M  V30 32991 H 3226.26 4.0804 0.888425 0
M  V30 32992 N 3226.69 0.633512 1.44307 0
M  V30 32993 C 3227.92 0.144384 2.06897 0
M  V30 32994 C 3228.34 -1.17297 1.47047 0
M  V30 32995 O 3227.7 -1.72012 0.572836 0
M  V30 32996 C 3227.75 0.0456957 3.60571 0
M  V30 32997 O 3226.85 -0.997612 4.00152 0
M  V30 32998 H 3226.19 0.0858614 0.658425 0
M  V30 32999 H 3228.72 0.870866 1.85141 0
M  V30 33000 H 3228.73 -0.144106 4.07745 0
M  V30 33001 H 3227.41 1.00747 4.03513 0
M  V30 33002 H 3225.99 -0.782188 3.64604 0
M  V30 33003 N 3228.17 -1.53093 0.374204 0
M  V30 33004 C 3229.1 -2.22383 -0.511956 0
M  V30 33005 C 3230.08 -1.21892 -1.07615 0
M  V30 33006 O 3231.27 -1.50826 -1.13065 0
M  V30 33007 C 3228.39 -2.92528 -1.70719 0
M  V30 33008 C 3227.44 -4.07164 -1.26964 0
M  V30 33009 S 3228.27 -5.3485 -0.263741 0
M  V30 33010 C 3229.43 -6.08511 -1.4651 0
M  V30 33011 H 3229.66 -2.97202 0.0764833 0
M  V30 33012 H 3227.19 -1.53586 0.158334 0
M  V30 33013 H 3229.15 -3.33555 -2.39273 0
M  V30 33014 H 3227.81 -2.17418 -2.26689 0
M  V30 33015 H 3227.01 -4.5529 -2.16164 0
M  V30 33016 H 3226.61 -3.68073 -0.663208 0
M  V30 33017 H 3228.9 -6.33766 -2.39472 0
M  V30 33018 H 3229.84 -7.00641 -1.02505 0
M  V30 33019 H 3230.25 -5.39075 -1.67507 0
M  V30 33020 N 3229.65 -0.103603 -1.57259 0
M  V30 33021 C 3230.6 0.869701 -2.15729 0
M  V30 33022 C 3231.59 1.28623 -1.10238 0
M  V30 33023 O 3232.8 1.25977 -1.28569 0
M  V30 33024 H 3229.17 0.298523 -0.690209 0
M  V30 33025 H 3231.14 0.351932 -2.96317 0
M  V30 33026 C 3229.89 2.11588 -2.75909 0
M  V30 33027 H 3229.21 1.80427 -3.56772 0
M  V30 33028 H 3230.65 2.7773 -3.20378 0
M  V30 33029 C 3229.11 2.89552 -1.72224 0
M  V30 33030 O 3229.64 3.84396 -1.16629 0
M  V30 33031 N 3227.85 2.53252 -1.42519 0
M  V30 33032 H 3227.4 1.76195 -1.87918 0
M  V30 33033 H 3227.35 3.05716 -0.733836 0
M  V30 33034 N 3231.13 1.56679 0.170126 0
M  V30 33035 C 3232.54 1.71732 0.732472 0
M  V30 33036 C 3232.89 0.714312 1.82735 0
M  V30 33037 O 3232.01 -0.124064 2.16044 0
M  V30 33038 C 3232.61 3.11371 1.33543 0
M  V30 33039 C 3231.17 3.28104 1.84459 0
M  V30 33040 C 3230.31 2.67681 0.724022 0
M  V30 33041 H 3233.27 1.58604 -0.0552822 0
M  V30 33042 H 3233.29 3.10087 2.20513 0
M  V30 33043 H 3232.8 3.84348 0.538333 0
M  V30 33044 H 3230.9 2.60085 2.66808 0
M  V30 33045 H 3231.01 4.35853 1.98921 0
M  V30 33046 H 3229.38 2.27524 1.14477 0
M  V30 33047 H 3230.16 3.43245 -0.0612465 0
M  V30 33048 N 3232.6 -0.43872 1.5137 0
M  V30 33049 C 3233.54 -1.55071 1.68777 0
M  V30 33050 C 3234.55 -1.52553 0.568462 0
M  V30 33051 O 3235.74 -1.57354 0.842734 0
M  V30 33052 C 3232.84 -2.93987 1.68597 0
M  V30 33053 C 3232.01 -3.21025 2.97089 0
M  V30 33054 C 3231.07 -4.39657 2.89115 0
M  V30 33055 O 3230.1 -4.38379 3.6306 0
M  V30 33056 N 3231.3 -5.43146 2.04872 0
M  V30 33057 H 3234.06 -1.40544 2.64702 0
M  V30 33058 H 3231.62 -0.627637 1.49239 0
M  V30 33059 H 3233.62 -3.71369 1.60832 0
M  V30 33060 H 3232.19 -3.02118 0.80271 0
M  V30 33061 H 3231.41 -2.31955 3.18733 0
M  V30 33062 H 3232.69 -3.35916 3.82149 0
M  V30 33063 H 3232.09 -5.47021 1.44169 0
M  V30 33064 H 3230.65 -6.19386 2.02988 0
M  V30 33065 N 3234.08 -1.41493 -0.694073 0
M  V30 33066 C 3235.31 -1.44081 -1.48068 0
M  V30 33067 C 3235.72 -0.0449316 -1.89147 0
M  V30 33068 O 3235.06 0.946436 -1.57443 0
M  V30 33069 C 3235.13 -2.28766 -2.7732 0
M  V30 33070 C 3234.79 -3.76908 -2.58436 0
M  V30 33071 C 3235.79 -4.69033 -2.24286 0
M  V30 33072 C 3233.47 -4.20967 -2.7403 0
M  V30 33073 C 3235.47 -6.03204 -2.0597 0
M  V30 33074 C 3233.15 -5.55202 -2.55331 0
M  V30 33075 C 3234.15 -6.46137 -2.21351 0
M  V30 33076 O 3233.84 -7.77895 -2.02816 0
M  V30 33077 H 3233.57 -0.492753 -0.462785 0
M  V30 33078 H 3236.12 -1.8644 -0.861935 0
M  V30 33079 H 3234.35 -1.81223 -3.41607 0
M  V30 33080 H 3236.04 -2.23037 -3.3913 0
M  V30 33081 H 3236.81 -4.36284 -2.11851 0
M  V30 33082 H 3232.69 -3.50491 -2.99461 0
M  V30 33083 H 3236.23 -6.74145 -1.7937 0
M  V30 33084 H 3232.13 -5.8753 -2.67356 0
M  V30 33085 H 3232.9 -7.89054 -2.17567 0
M  V30 33086 N 3235.56 0.928479 -1.27346 0
M  V30 33087 C 3236.98 1.20428 -1.04734 0
M  V30 33088 C 3237.18 2.003 0.219587 0
M  V30 33089 O 3236.23 2.34935 0.925292 0
M  V30 33090 C 3237.55 1.95319 -2.28628 0
M  V30 33091 C 3239.09 2.08261 -2.33659 0
M  V30 33092 C 3239.57 2.86557 -3.5728 0
M  V30 33093 N 3241.06 2.94125 -3.57833 0
M  V30 33094 C 3241.79 3.55169 -4.50158 0
M  V30 33095 N 3241.29 4.17611 -5.52787 0
M  V30 33096 N 3243.08 3.52565 -4.37783 0
M  V30 33097 H 3235.23 0.394855 -2.08698 0
M  V30 33098 H 3237.5 0.237284 -0.917824 0
M  V30 33099 H 3237.2 1.44048 -3.20847 0
M  V30 33100 H 3237.08 2.95937 -2.33883 0
M  V30 33101 H 3239.46 2.58719 -1.41946 0
M  V30 33102 H 3239.55 1.06866 -2.32408 0
M  V30 33103 H 3239.19 2.36783 -4.49329 0
M  V30 33104 H 3239.12 3.88235 -3.55782 0
M  V30 33105 H 3241.61 2.49746 -2.83611 0
M  V30 33106 H 3241.92 4.62126 -6.19403 0
M  V30 33107 H 3240.27 4.16159 -5.5663 0
M  V30 33108 H 3243.46 3.02984 -3.56817 0
M  V30 33109 H 3243.63 3.99849 -5.09926 0
M  V30 33110 N 3237.04 1.09355 1.13486 0
M  V30 33111 C 3237.95 0.744346 2.22478 0
M  V30 33112 C 3238.96 -0.253374 1.72145 0
M  V30 33113 O 3240.14 -0.0948986 2.01176 0
M  V30 33114 C 3237.21 0.169341 3.46286 0
M  V30 33115 C 3236.27 1.22292 4.11513 0
M  V30 33116 C 3235.5 0.675254 5.29411 0
M  V30 33117 O 3235.72 -0.502082 5.68186 0
M  V30 33118 O 3234.66 1.42993 5.84668 0
M  V30 33119 H 3238.48 1.65383 2.5472 0
M  V30 33120 H 3236.07 0.8679 1.21605 0
M  V30 33121 H 3237.95 -0.148036 4.2114 0
M  V30 33122 H 3236.62 -0.713158 3.15746 0
M  V30 33123 H 3235.53 1.59298 3.38489 0
M  V30 33124 H 3236.86 2.07803 4.46182 0
M  V30 33125 N 3238.52 -1.307 0.880644 0
M  V30 33126 C 3239.45 -2.26364 0.288853 0
M  V30 33127 C 3240.43 -1.51592 -0.588109 0
M  V30 33128 O 3241.61 -1.80625 -0.539165 0
M  V30 33129 C 3238.74 -3.33522 -0.589973 0
M  V30 33130 C 3237.79 -4.25947 0.217077 0
M  V30 33131 S 3238.62 -5.10959 1.60255 0
M  V30 33132 C 3239.77 -6.21627 0.730132 0
M  V30 33133 H 3240.01 -2.76211 1.09976 0
M  V30 33134 H 3237.54 -1.38629 0.679805 0
M  V30 33135 H 3239.5 -3.95728 -1.09129 0
M  V30 33136 H 3238.16 -2.82408 -1.37493 0
M  V30 33137 H 3237.35 -5.01957 -0.453392 0
M  V30 33138 H 3236.95 -3.68293 0.650868 0
M  V30 33139 H 3239.25 -6.77478 -0.0547453 0
M  V30 33140 H 3240.19 -6.92849 1.46169 0
M  V30 33141 H 3240.6 -5.63739 0.292953 0
M  V30 33142 N 3240 -0.641156 -1.43969 0
M  V30 33143 C 3240.93 0.044419 -2.33458 0
M  V30 33144 C 3241.91 0.824481 -1.48783 0
M  V30 33145 O 3243.09 0.788366 -1.77478 0
M  V30 33146 C 3240.22 1.01978 -3.3199 0
M  V30 33147 C 3239.18 0.35067 -4.26561 0
M  V30 33148 C 3238.5 1.43664 -5.15039 0
M  V30 33149 C 3239.8 -0.74939 -5.16896 0
M  V30 33150 H 3241.5 -0.702883 -2.91032 0
M  V30 33151 H 3239.04 -0.33946 -1.39942 0
M  V30 33152 H 3240.99 1.50822 -3.93485 0
M  V30 33153 H 3239.72 1.7981 -2.72646 0
M  V30 33154 H 3238.38 -0.117203 -3.66413 0
M  V30 33155 H 3238.03 2.20609 -4.52041 0
M  V30 33156 H 3237.73 0.994256 -5.79127 0
M  V30 33157 H 3239.25 1.92668 -5.79406 0
M  V30 33158 H 3240.66 -0.343635 -5.72269 0
M  V30 33159 H 3239.06 -1.11552 -5.89641 0
M  V30 33160 H 3240.13 -1.6124 -4.57307 0
M  V30 33161 N 3241.47 1.52892 -0.382318 0
M  V30 33162 C 3242.89 1.59568 -0.031969 0
M  V30 33163 C 3243.09 1.39667 1.45243 0
M  V30 33164 O 3242.15 1.21017 2.2161 0
M  V30 33165 C 3243.46 2.96465 -0.502898 0
M  V30 33166 C 3245.01 3.09623 -0.458554 0
M  V30 33167 C 3245.48 4.48958 -0.90556 0
M  V30 33168 N 3246.97 4.55122 -0.861291 0
M  V30 33169 C 3247.71 5.61155 -1.17866 0
M  V30 33170 N 3247.2 6.74866 -1.56615 0
M  V30 33171 N 3249 5.51224 -1.10037 0
M  V30 33172 H 3241.15 1.64078 -1.34878 0
M  V30 33173 H 3243.41 0.770436 -0.552388 0
M  V30 33174 H 3243.12 3.16222 -1.53937 0
M  V30 33175 H 3242.99 3.77063 0.101711 0
M  V30 33176 H 3245.38 2.89566 0.568817 0
M  V30 33177 H 3245.46 2.30994 -1.09888 0
M  V30 33178 H 3245.1 4.69755 -1.93113 0
M  V30 33179 H 3245.03 5.26042 -0.242319 0
M  V30 33180 H 3247.52 3.73484 -0.576054 0
M  V30 33181 H 3247.84 7.51733 -1.79214 0
M  V30 33182 H 3246.18 6.76215 -1.60495 0
M  V30 33183 H 3249.37 4.6127 -0.796704 0
M  V30 33184 H 3249.55 6.3376 -1.35102 0
M  V30 33185 N 3242.95 0.111941 1.57202 0
M  V30 33186 C 3244.37 -0.244674 1.57713 0
M  V30 33187 C 3244.57 -1.67223 1.12422 0
M  V30 33188 O 3243.62 -2.3921 0.808371 0
M  V30 33189 C 3244.94 -0.0177761 3.00695 0
M  V30 33190 C 3246.48 -0.0842231 3.12887 0
M  V30 33191 C 3246.96 0.114893 4.57856 0
M  V30 33192 N 3248.45 0.0606237 4.6316 0
M  V30 33193 C 3249.19 0.189694 5.73086 0
M  V30 33194 N 3248.68 0.374542 6.91787 0
M  V30 33195 N 3250.47 0.129768 5.6195 0
M  V30 33196 H 3242.63 1.04446 1.84945 0
M  V30 33197 H 3244.89 0.410715 0.854411 0
M  V30 33198 H 3244.59 0.968861 3.38092 0
M  V30 33199 H 3244.47 -0.75275 3.69613 0
M  V30 33200 H 3246.86 -1.06138 2.75352 0
M  V30 33201 H 3246.94 0.682517 2.46527 0
M  V30 33202 H 3246.58 1.08899 4.96088 0
M  V30 33203 H 3246.51 -0.671747 5.22298 0
M  V30 33204 H 3249 -0.0790192 3.77817 0
M  V30 33205 H 3249.31 0.464084 7.71405 0
M  V30 33206 H 3247.66 0.410425 6.93787 0
M  V30 33207 H 3250.85 -0.0136292 4.68098 0
M  V30 33208 H 3251.02 0.233802 6.47578 0
M  V30 33209 N 3244.43 -1.56767 -0.161814 0
M  V30 33210 C 3245.36 -1.9372 -1.22496 0
M  V30 33211 C 3246.37 -0.831339 -1.39974 0
M  V30 33212 O 3247.56 -1.10978 -1.39808 0
M  V30 33213 C 3244.66 -2.1831 -2.59218 0
M  V30 33214 C 3243.84 -3.49564 -2.62914 0
M  V30 33215 C 3242.9 -3.62869 -3.81067 0
M  V30 33216 O 3241.92 -4.35401 -3.66626 0
M  V30 33217 N 3243.12 -2.98427 -4.97917 0
M  V30 33218 H 3245.89 -2.85519 -0.910993 0
M  V30 33219 H 3243.45 -1.58038 -0.351505 0
M  V30 33220 H 3245.44 -2.24466 -3.36745 0
M  V30 33221 H 3244.01 -1.32849 -2.82966 0
M  V30 33222 H 3243.23 -3.54981 -1.71412 0
M  V30 33223 H 3244.52 -4.35916 -2.62402 0
M  V30 33224 H 3243.92 -2.39387 -5.12553 0
M  V30 33225 H 3242.47 -3.10165 -5.73272 0
M  V30 33226 N 3245.91 0.430686 -1.51601 0
M  V30 33227 C 3246.84 1.53051 -1.76345 0
M  V30 33228 C 3247.82 1.5865 -0.613517 0
M  V30 33229 O 3249 1.74271 -0.856918 0
M  V30 33230 C 3246.13 2.91074 -1.89456 0
M  V30 33231 C 3245.09 3.00333 -3.04933 0
M  V30 33232 C 3244.41 4.404 -3.03236 0
M  V30 33233 C 3245.71 2.738 -4.44782 0
M  V30 33234 H 3247.41 1.32596 -2.68438 0
M  V30 33235 H 3244.95 0.636444 -1.29172 0
M  V30 33236 H 3246.91 3.67981 -2.05349 0
M  V30 33237 H 3245.63 3.12775 -0.940169 0
M  V30 33238 H 3244.29 2.25867 -2.88755 0
M  V30 33239 H 3243.94 4.59079 -2.05561 0
M  V30 33240 H 3243.64 4.47524 -3.80784 0
M  V30 33241 H 3245.16 5.19272 -3.21231 0
M  V30 33242 H 3246.58 3.40437 -4.61276 0
M  V30 33243 H 3244.97 2.92326 -5.24085 0
M  V30 33244 H 3246.04 1.69364 -4.54361 0
M  V30 33245 N 3247.39 1.4186 0.686559 0
M  V30 33246 C 3248.32 1.47196 1.81261 0
M  V30 33247 C 3249.3 0.329686 1.66874 0
M  V30 33248 O 3250.48 0.54238 1.86472 0
M  V30 33249 C 3247.61 1.36221 3.1947 0
M  V30 33250 C 3246.57 2.48353 3.48575 0
M  V30 33251 C 3245.89 2.22441 4.86235 0
M  V30 33252 C 3247.19 3.90684 3.46646 0
M  V30 33253 H 3248.89 2.41439 1.77053 0
M  V30 33254 H 3246.43 1.16208 0.850395 0
M  V30 33255 H 3248.38 1.38565 3.97967 0
M  V30 33256 H 3247.11 0.384668 3.24327 0
M  V30 33257 H 3245.77 2.45307 2.72433 0
M  V30 33258 H 3245.42 1.23008 4.87727 0
M  V30 33259 H 3245.12 2.97585 5.06672 0
M  V30 33260 H 3246.64 2.26514 5.6703 0
M  V30 33261 H 3248.05 3.95396 4.15132 0
M  V30 33262 H 3246.45 4.65585 3.78617 0
M  V30 33263 H 3247.52 4.18193 2.45444 0
M  V30 33264 N 3248.86 -0.921712 1.27837 0
M  V30 33265 C 3249.8 -2.02756 1.06877 0
M  V30 33266 C 3250.81 -1.62784 0.0229704 0
M  V30 33267 O 3252 -1.76519 0.265176 0
M  V30 33268 C 3249.1 -3.33539 0.600429 0
M  V30 33269 C 3248.27 -4.02169 1.71986 0
M  V30 33270 C 3247.33 -5.11229 1.24624 0
M  V30 33271 O 3246.36 -5.34864 1.94701 0
M  V30 33272 N 3247.56 -5.80405 0.105123 0
M  V30 33273 H 3250.32 -2.21297 2.02108 0
M  V30 33274 H 3247.88 -1.09249 1.19483 0
M  V30 33275 H 3249.88 -4.03816 0.267352 0
M  V30 33276 H 3248.45 -3.11527 -0.258817 0
M  V30 33277 H 3247.67 -3.25545 2.22292 0
M  V30 33278 H 3248.95 -4.44768 2.471 0
M  V30 33279 H 3248.35 -5.63663 -0.479646 0
M  V30 33280 H 3246.91 -6.51582 -0.168732 0
M  V30 33281 N 3250.34 -1.09956 -1.12905 0
M  V30 33282 C 3251.27 -0.70174 -2.18193 0
M  V30 33283 C 3252.29 0.259103 -1.60725 0
M  V30 33284 O 3253.48 0.0443235 -1.78445 0
M  V30 33285 C 3250.58 -0.0141198 -3.38897 0
M  V30 33286 C 3249.75 -0.997882 -4.25865 0
M  V30 33287 C 3248.81 -0.342663 -5.25083 0
M  V30 33288 O 3247.83 -0.991956 -5.6049 0
M  V30 33289 N 3249.04 0.900957 -5.73466 0
M  V30 33290 H 3251.8 -1.60759 -2.52936 0
M  V30 33291 H 3249.36 -0.987726 -1.28279 0
M  V30 33292 H 3251.35 0.435557 -4.02349 0
M  V30 33293 H 3249.92 0.794064 -3.02346 0
M  V30 33294 H 3249.14 -1.62597 -3.59104 0
M  V30 33295 H 3250.43 -1.66396 -4.80822 0
M  V30 33296 H 3249.83 1.44793 -5.46856 0
M  V30 33297 H 3248.39 1.29386 -6.38829 0
M  V30 33298 N 3251.82 1.30231 -0.887563 0
M  V30 33299 C 3252.75 2.27045 -0.313528 0
M  V30 33300 C 3253.76 1.53815 0.533356 0
M  V30 33301 O 3254.95 1.74985 0.352485 0
M  V30 33302 C 3252.05 3.34027 0.572615 0
M  V30 33303 C 3251.23 4.36709 -0.245788 0
M  V30 33304 C 3250.29 5.2309 0.571258 0
M  V30 33305 O 3249.31 5.692 -0.00695953 0
M  V30 33306 N 3250.51 5.49219 1.87985 0
M  V30 33307 H 3253.28 2.76941 -1.14558 0
M  V30 33308 H 3250.84 1.43438 -0.750811 0
M  V30 33309 H 3252.83 3.8874 1.12532 0
M  V30 33310 H 3251.4 2.84041 1.30535 0
M  V30 33311 H 3250.62 3.81826 -0.979936 0
M  V30 33312 H 3251.91 5.02364 -0.806706 0
M  V30 33313 H 3251.31 5.13545 2.37251 0
M  V30 33314 H 3249.86 6.06796 2.37995 0
M  V30 33315 N 3253.3 0.648782 1.43627 0
M  V30 33316 C 3254.23 -0.0841456 2.29045 0
M  V30 33317 C 3255.24 -0.791512 1.42264 0
M  V30 33318 O 3256.43 -0.650009 1.66244 0
M  V30 33319 C 3253.53 -1.14207 3.19077 0
M  V30 33320 C 3252.71 -0.513723 4.34373 0
M  V30 33321 C 3251.76 -1.46794 5.0531 0
M  V30 33322 O 3250.79 -0.978247 5.60731 0
M  V30 33323 N 3251.99 -2.802 5.08398 0
M  V30 33324 H 3254.76 0.649 2.92589 0
M  V30 33325 H 3252.32 0.491236 1.54268 0
M  V30 33326 H 3254.31 -1.78112 3.63398 0
M  V30 33327 H 3252.88 -1.77723 2.57164 0
M  V30 33328 H 3252.1 0.304331 3.93023 0
M  V30 33329 H 3253.39 -0.0748977 5.08745 0
M  V30 33330 H 3252.79 -3.22549 4.64735 0
M  V30 33331 H 3251.34 -3.3942 5.5645 0
M  V30 33332 N 3254.78 -1.52688 0.390421 0
M  V30 33333 C 3255.71 -2.24133 -0.47928 0
M  V30 33334 C 3256.72 -1.26418 -1.02578 0
M  V30 33335 O 3257.91 -1.52486 -0.927916 0
M  V30 33336 C 3255.01 -2.94496 -1.67705 0
M  V30 33337 C 3254.18 -4.18927 -1.25773 0
M  V30 33338 C 3253.24 -4.72279 -2.32032 0
M  V30 33339 O 3252.27 -5.35339 -1.93393 0
M  V30 33340 N 3253.47 -4.52232 -3.63959 0
M  V30 33341 H 3256.24 -2.99405 0.132829 0
M  V30 33342 H 3253.8 -1.60441 0.216835 0
M  V30 33343 H 3255.79 -3.27089 -2.38317 0
M  V30 33344 H 3254.36 -2.22525 -2.19548 0
M  V30 33345 H 3253.58 -3.9236 -0.380459 0
M  V30 33346 H 3254.87 -4.99772 -0.954241 0
M  V30 33347 H 3254.26 -4.01899 -3.98112 0
M  V30 33348 H 3252.82 -4.89311 -4.30602 0
M  V30 33349 N 3256.25 -0.120276 -1.5714 0
M  V30 33350 C 3257.19 0.859949 -2.12456 0
M  V30 33351 C 3258.2 1.22909 -1.06758 0
M  V30 33352 O 3259.39 1.17782 -1.34126 0
M  V30 33353 C 3256.49 2.16143 -2.61028 0
M  V30 33354 C 3255.66 1.96378 -3.90838 0
M  V30 33355 C 3254.72 3.10267 -4.24995 0
M  V30 33356 O 3253.75 2.83125 -4.93791 0
M  V30 33357 N 3254.95 4.36734 -3.82418 0
M  V30 33358 H 3257.71 0.38735 -2.97186 0
M  V30 33359 H 3255.27 0.0641091 -1.61773 0
M  V30 33360 H 3257.27 2.9133 -2.80908 0
M  V30 33361 H 3255.84 2.54747 -1.8117 0
M  V30 33362 H 3255.06 1.05377 -3.79854 0
M  V30 33363 H 3256.34 1.80479 -4.75715 0
M  V30 33364 H 3255.74 4.61661 -3.26934 0
M  V30 33365 H 3254.3 5.08788 -4.07404 0
M  V30 33366 N 3257.73 1.56851 0.153498 0
M  V30 33367 C 3258.66 1.94367 1.21467 0
M  V30 33368 C 3259.68 0.83875 1.39531 0
M  V30 33369 O 3260.87 1.11717 1.39217 0
M  V30 33370 C 3257.97 2.19682 2.58056 0
M  V30 33371 C 3257.14 3.50954 2.61056 0
M  V30 33372 C 3256.2 3.64885 3.79138 0
M  V30 33373 O 3255.22 4.37339 3.64312 0
M  V30 33374 N 3256.43 3.01063 4.96328 0
M  V30 33375 H 3259.19 2.85998 0.895838 0
M  V30 33376 H 3256.75 1.58222 0.343119 0
M  V30 33377 H 3258.74 2.26249 3.35549 0
M  V30 33378 H 3257.31 1.34348 2.82258 0
M  V30 33379 H 3256.53 3.55885 1.69527 0
M  V30 33380 H 3257.82 4.37302 2.60086 0
M  V30 33381 H 3257.22 2.42102 5.11276 0
M  V30 33382 H 3255.78 3.13201 5.71619 0
M  V30 33383 N 3259.21 -0.42264 1.51827 0
M  V30 33384 C 3260.14 -1.53272 1.70412 0
M  V30 33385 C 3261.16 -1.51941 0.584611 0
M  V30 33386 O 3262.34 -1.56451 0.859376 0
M  V30 33387 C 3259.44 -2.92182 1.71705 0
M  V30 33388 C 3258.62 -3.17856 3.00477 0
M  V30 33389 C 3257.68 -4.36566 2.93762 0
M  V30 33390 O 3256.7 -4.34503 3.67689 0
M  V30 33391 N 3257.9 -5.40943 2.10622 0
M  V30 33392 H 3260.67 -1.37729 2.66178 0
M  V30 33393 H 3258.23 -0.611773 1.49896 0
M  V30 33394 H 3260.22 -3.69642 1.64762 0
M  V30 33395 H 3258.79 -3.0125 0.834708 0
M  V30 33396 H 3258.01 -2.28561 3.21175 0
M  V30 33397 H 3259.3 -3.31844 3.8569 0
M  V30 33398 H 3258.7 -5.45461 1.49963 0
M  V30 33399 H 3257.26 -6.17198 2.09546 0
M  V30 33400 N 3260.69 -1.42222 -0.679027 0
M  V30 33401 C 3261.62 -1.41314 -1.80452 0
M  V30 33402 C 3262.63 -0.312827 -1.59766 0
M  V30 33403 O 3263.82 -0.575641 -1.68963 0
M  V30 33404 C 3260.92 -1.18547 -3.1749 0
M  V30 33405 C 3260.1 -2.40933 -3.65062 0
M  V30 33406 C 3259.15 -2.13774 -4.80819 0
M  V30 33407 O 3258.18 -2.86942 -4.91582 0
M  V30 33408 N 3259.38 -1.13823 -5.69231 0
M  V30 33409 H 3262.15 -2.38325 -1.81718 0
M  V30 33410 H 3259.71 -1.37047 -0.861964 0
M  V30 33411 H 3261.7 -0.983027 -3.9258 0
M  V30 33412 H 3260.27 -0.300746 -3.1115 0
M  V30 33413 H 3259.49 -2.76772 -2.80697 0
M  V30 33414 H 3260.78 -3.22438 -3.93587 0
M  V30 33415 H 3260.18 -0.532986 -5.63184 0
M  V30 33416 H 3258.73 -0.995667 -6.4415 0
M  V30 33417 N 3262.17 0.91492 -1.28324 0
M  V30 33418 C 3263.1 2.02186 -1.07951 0
M  V30 33419 C 3264.11 1.62769 -0.0316029 0
M  V30 33420 O 3265.3 1.76376 -0.274534 0
M  V30 33421 C 3262.4 3.33216 -0.618108 0
M  V30 33422 C 3261.57 4.01251 -1.74116 0
M  V30 33423 C 3260.63 5.10561 -1.27334 0
M  V30 33424 O 3259.66 5.33824 -1.97535 0
M  V30 33425 N 3260.86 5.80341 -0.135902 0
M  V30 33426 H 3263.63 2.20222 -2.03279 0
M  V30 33427 H 3261.19 1.08614 -1.20061 0
M  V30 33428 H 3263.18 4.03668 -0.288764 0
M  V30 33429 H 3261.75 3.1166 0.242293 0
M  V30 33430 H 3260.97 3.24362 -2.24016 0
M  V30 33431 H 3262.26 4.43452 -2.49455 0
M  V30 33432 H 3261.65 5.63909 0.449747 0
M  V30 33433 H 3260.21 6.51662 0.134175 0
M  V30 33434 N 3263.64 1.10553 1.1232 0
M  V30 33435 C 3264.58 0.713301 2.17818 0
M  V30 33436 C 3265.59 -0.250575 1.6086 0
M  V30 33437 O 3266.78 -0.0348595 1.78466 0
M  V30 33438 C 3263.88 0.0320921 3.38885 0
M  V30 33439 C 3263.05 1.02045 4.2533 0
M  V30 33440 C 3262.11 0.370504 5.24894 0
M  V30 33441 O 3261.14 1.02167 5.59956 0
M  V30 33442 N 3262.34 -0.870532 5.73936 0
M  V30 33443 H 3265.1 1.62098 2.5208 0
M  V30 33444 H 3262.66 0.994515 1.27754 0
M  V30 33445 H 3264.66 -0.414214 4.02575 0
M  V30 33446 H 3263.23 -0.778019 3.02763 0
M  V30 33447 H 3262.45 1.64499 3.58237 0
M  V30 33448 H 3263.73 1.68944 4.79933 0
M  V30 33449 H 3263.13 -1.41891 5.47616 0
M  V30 33450 H 3261.69 -1.25997 6.39506 0
M  V30 33451 N 3265.12 -1.29758 0.894457 0
M  V30 33452 C 3266.05 -2.26876 0.325565 0
M  V30 33453 C 3267.07 -1.54096 -0.525191 0
M  V30 33454 O 3268.26 -1.7517 -0.343201 0
M  V30 33455 C 3265.36 -3.34326 -0.554893 0
M  V30 33456 C 3264.53 -4.36572 0.268945 0
M  V30 33457 C 3263.59 -5.23386 -0.543509 0
M  V30 33458 O 3262.61 -5.69188 0.0371455 0
M  V30 33459 N 3263.82 -5.50209 -1.85069 0
M  V30 33460 H 3266.58 -2.7633 1.16025 0
M  V30 33461 H 3264.14 -1.43038 0.758407 0
M  V30 33462 H 3266.13 -3.89331 -1.10469 0
M  V30 33463 H 3264.7 -2.8473 -1.29026 0
M  V30 33464 H 3263.92 -3.81301 1.00017 0
M  V30 33465 H 3265.21 -5.01929 0.833337 0
M  V30 33466 H 3264.61 -5.14796 -2.34524 0
M  V30 33467 H 3263.17 -6.0805 -2.34773 0
M  V30 33468 N 3266.6 -0.65639 -1.4328 0
M  V30 33469 C 3267.53 0.0719976 -2.29087 0
M  V30 33470 C 3268.55 0.783957 -1.42681 0
M  V30 33471 O 3269.73 0.641184 -1.66587 0
M  V30 33472 C 3266.83 1.12513 -3.19678 0
M  V30 33473 C 3266.01 0.49068 -4.34639 0
M  V30 33474 C 3265.07 1.44112 -5.06081 0
M  V30 33475 O 3264.09 0.948496 -5.61242 0
M  V30 33476 N 3265.29 2.775 -5.09876 0
M  V30 33477 H 3268.06 -0.664507 -2.9224 0
M  V30 33478 H 3265.62 -0.49941 -1.54005 0
M  V30 33479 H 3267.61 1.76183 -3.64337 0
M  V30 33480 H 3266.18 1.76357 -2.58103 0
M  V30 33481 H 3265.4 -0.325169 -3.92857 0
M  V30 33482 H 3266.69 0.0479166 -5.08777 0
M  V30 33483 H 3266.09 3.2008 -4.66439 0
M  V30 33484 H 3264.65 3.36464 -5.58243 0
M  V30 33485 N 3268.08 1.52478 -0.398513 0
M  V30 33486 C 3269.01 2.24384 0.467387 0
M  V30 33487 C 3270.02 1.2696 1.01906 0
M  V30 33488 O 3271.21 1.52976 0.919816 0
M  V30 33489 C 3268.31 2.95382 1.66141 0
M  V30 33490 C 3267.49 4.19588 1.2355 0
M  V30 33491 C 3266.55 4.73503 2.29524 0
M  V30 33492 O 3265.57 5.36357 1.90551 0
M  V30 33493 N 3266.77 4.54156 3.61556 0
M  V30 33494 H 3269.54 2.99331 -0.148706 0
M  V30 33495 H 3267.1 1.60324 -0.225341 0
M  V30 33496 H 3269.09 3.28348 2.36579 0
M  V30 33497 H 3267.66 2.23686 2.18365 0
M  V30 33498 H 3266.88 3.92556 0.359646 0
M  V30 33499 H 3268.17 5.00271 0.927724 0
M  V30 33500 H 3267.57 4.04005 3.95975 0
M  V30 33501 H 3266.12 4.91588 4.28001 0
M  V30 33502 N 3269.56 0.128608 1.57074 0
M  V30 33503 C 3270.49 -0.84867 2.12909 0
M  V30 33504 C 3271.5 -1.22341 1.07408 0
M  V30 33505 O 3272.69 -1.17069 1.34748 0
M  V30 33506 C 3269.79 -2.14755 2.62171 0
M  V30 33507 C 3268.96 -1.94302 3.91874 0
M  V30 33508 C 3268.02 -3.08008 4.26635 0
M  V30 33509 O 3267.05 -2.80502 4.95285 0
M  V30 33510 N 3268.25 -4.347 3.84729 0
M  V30 33511 H 3271.02 -0.371584 2.97388 0
M  V30 33512 H 3268.58 -0.055529 1.61805 0
M  V30 33513 H 3270.57 -2.89836 2.82449 0
M  V30 33514 H 3269.14 -2.53783 1.82519 0
M  V30 33515 H 3268.36 -1.03361 3.80408 0
M  V30 33516 H 3269.65 -1.77953 4.76666 0
M  V30 33517 H 3269.05 -4.5992 3.29378 0
M  V30 33518 H 3267.6 -5.0662 4.10096 0
M  V30 33519 N 3271.04 -1.5693 -0.145178 0
M  V30 33520 C 3271.97 -1.95008 -1.20434 0
M  V30 33521 C 3272.98 -0.846138 -1.39084 0
M  V30 33522 O 3274.17 -1.12454 -1.38623 0
M  V30 33523 C 3271.27 -2.21047 -2.56888 0
M  V30 33524 C 3270.44 -3.52333 -2.59191 0
M  V30 33525 C 3269.5 -3.66891 -3.77197 0
M  V30 33526 O 3268.53 -4.39265 -3.61987 0
M  V30 33527 N 3269.73 -3.03691 -4.94724 0
M  V30 33528 H 3272.49 -2.86469 -0.880659 0
M  V30 33529 H 3270.06 -1.58402 -0.334723 0
M  V30 33530 H 3272.05 -2.28025 -3.34345 0
M  V30 33531 H 3270.62 -1.35843 -2.81541 0
M  V30 33532 H 3269.84 -3.56779 -1.67637 0
M  V30 33533 H 3271.13 -4.38675 -2.57763 0
M  V30 33534 H 3270.52 -2.4481 -5.09985 0
M  V30 33535 H 3269.08 -3.16228 -5.6995 0
M  V30 33536 N 3272.51 0.414582 -1.52049 0
M  V30 33537 C 3273.45 1.52366 -1.71222 0
M  V30 33538 C 3274.46 1.51629 -0.59266 0
M  V30 33539 O 3275.65 1.55993 -0.867661 0
M  V30 33540 C 3272.75 2.91268 -1.73253 0
M  V30 33541 C 3271.92 3.16258 -3.02159 0
M  V30 33542 C 3270.98 4.35002 -2.96073 0
M  V30 33543 O 3270.01 4.32547 -3.69988 0
M  V30 33544 N 3271.21 5.39818 -2.13487 0
M  V30 33545 H 3273.97 1.36316 -2.66905 0
M  V30 33546 H 3271.53 0.603815 -1.50219 0
M  V30 33547 H 3273.53 3.68763 -1.6672 0
M  V30 33548 H 3272.1 3.00803 -0.850672 0
M  V30 33549 H 3271.32 2.26855 -3.22383 0
M  V30 33550 H 3272.6 3.29794 -3.87445 0
M  V30 33551 H 3272 5.44658 -1.52854 0
M  V30 33552 H 3270.56 6.16078 -2.12816 0
M  V30 33553 N 3273.99 1.4258 0.671475 0
M  V30 33554 C 3274.92 1.42269 1.797 0
M  V30 33555 C 3275.94 0.321296 1.59598 0
M  V30 33556 O 3277.13 0.584594 1.68656 0
M  V30 33557 C 3274.23 1.20229 3.16857 0
M  V30 33558 C 3273.4 2.42865 3.63779 0
M  V30 33559 C 3272.46 2.16321 4.79679 0
M  V30 33560 O 3271.48 2.89545 4.90053 0
M  V30 33561 N 3272.69 1.16841 5.6862 0
M  V30 33562 H 3275.45 2.39285 1.80451 0
M  V30 33563 H 3273.01 1.37502 0.854684 0
M  V30 33564 H 3275 1.00383 3.92053 0
M  V30 33565 H 3273.57 0.317243 3.10986 0
M  V30 33566 H 3272.79 2.78257 2.79226 0
M  V30 33567 H 3274.08 3.24521 3.91872 0
M  V30 33568 H 3273.48 0.562845 5.62893 0
M  V30 33569 H 3272.04 1.02981 6.43613 0
M  V30 33570 N 3275.47 -0.908102 1.28807 0
M  V30 33571 C 3276.72 -1.65452 1.16061 0
M  V30 33572 C 3277.04 -1.92831 -0.290023 0
M  V30 33573 O 3276.31 -1.54846 -1.19999 0
M  V30 33574 H 3274.89 -0.613253 0.426533 0
M  V30 33575 H 3277.55 -1.08933 1.61616 0
M  V30 33576 H 3276.65 -2.6145 1.70442 0
M  V30 33577 N 3276.95 -1.11147 -1.11732 0
M  V30 33578 C 3278.17 -0.881095 -1.87754 0
M  V30 33579 C 3278.6 0.563465 -1.79462 0
M  V30 33580 O 3277.96 1.39761 -1.15484 0
M  V30 33581 C 3278 -1.34347 -3.34639 0
M  V30 33582 O 3277.11 -0.513229 -4.09194 0
M  V30 33583 H 3276.45 -0.317623 -0.583105 0
M  V30 33584 H 3278.98 -1.48016 -1.41253 0
M  V30 33585 H 3278.99 -1.33665 -3.85484 0
M  V30 33586 H 3277.66 -2.3954 -3.3999 0
M  V30 33587 H 3276.24 -0.585897 -3.68268 0
M  V30 33588 N 3278.43 1.29282 -0.901326 0
M  V30 33589 C 3279.39 2.25941 -0.385121 0
M  V30 33590 C 3280.39 1.53419 0.481599 0
M  V30 33591 O 3281.58 1.71829 0.286421 0
M  V30 33592 C 3278.71 3.37927 0.449259 0
M  V30 33593 H 3279.9 2.73118 -1.23882 0
M  V30 33594 H 3277.46 1.40751 -0.679611 0
M  V30 33595 H 3278.19 2.96092 1.32287 0
M  V30 33596 H 3277.98 3.91723 -0.171799 0
M  V30 33597 H 3279.47 4.09833 0.801674 0
M  V30 33598 N 3279.9 0.663979 1.4293 0
M  V30 33599 C 3281.15 0.181414 2.01284 0
M  V30 33600 C 3281.47 -1.21263 1.5271 0
M  V30 33601 O 3280.74 -1.81213 0.744213 0
M  V30 33602 H 3279.32 0.0640777 0.744247 0
M  V30 33603 H 3281.98 0.858062 1.74995 0
M  V30 33604 H 3281.08 0.174328 3.11613 0
M  V30 33605 N 3281.38 -1.52265 0.406593 0
M  V30 33606 C 3282.31 -2.23419 -0.46467 0
M  V30 33607 C 3283.29 -1.24147 -1.05006 0
M  V30 33608 O 3284.48 -1.5319 -1.09841 0
M  V30 33609 C 3281.6 -2.96084 -1.64475 0
M  V30 33610 C 3280.65 -4.09765 -1.18299 0
M  V30 33611 S 3281.48 -5.35289 -0.150232 0
M  V30 33612 C 3282.64 -6.11482 -1.3357 0
M  V30 33613 H 3282.87 -2.96973 0.139507 0
M  V30 33614 H 3280.4 -1.53216 0.190877 0
M  V30 33615 H 3282.36 -3.38555 -2.32144 0
M  V30 33616 H 3281.02 -2.22178 -2.22027 0
M  V30 33617 H 3280.22 -4.59773 -2.06458 0
M  V30 33618 H 3279.82 -3.69397 -0.584985 0
M  V30 33619 H 3282.11 -6.38703 -2.25975 0
M  V30 33620 H 3283.05 -7.02658 -0.876204 0
M  V30 33621 H 3283.46 -5.42507 -1.56034 0
M  V30 33622 N 3282.86 -0.136936 -1.57004 0
M  V30 33623 C 3283.82 0.792381 -2.15067 0
M  V30 33624 C 3284.82 1.18225 -1.08994 0
M  V30 33625 O 3286.01 1.10481 -1.34683 0
M  V30 33626 C 3283.15 2.07392 -2.70557 0
M  V30 33627 H 3284.34 0.287467 -2.98519 0
M  V30 33628 H 3281.89 0.112442 -1.55895 0
M  V30 33629 H 3282.63 2.62273 -1.90744 0
M  V30 33630 H 3282.41 1.80368 -3.48152 0
M  V30 33631 H 3283.9 2.73786 -3.15326 0
M  V30 33632 N 3284.34 1.57005 0.136853 0
M  V30 33633 C 3285.59 1.83538 0.846068 0
M  V30 33634 C 3285.91 0.719401 1.81245 0
M  V30 33635 O 3285.18 -0.258127 1.94192 0
M  V30 33636 H 3283.76 0.677134 0.315434 0
M  V30 33637 H 3286.42 1.94476 0.128435 0
M  V30 33638 H 3285.52 2.78829 1.40216 0
M  V30 33639 N 3285.82 -0.406513 1.52267 0
M  V30 33640 C 3287.06 -1.15095 1.66125 0
M  V30 33641 C 3287.39 -1.9096 0.394869 0
M  V30 33642 O 3286.66 -1.86794 -0.590316 0
M  V30 33643 H 3285.24 -0.427864 0.612325 0
M  V30 33644 H 3287.9 -0.463073 1.89319 0
M  V30 33645 H 3286.99 -1.86357 2.50355 0
M  V30 33646 N 3287.29 -1.42934 -0.663904 0
M  V30 33647 C 3288.23 -1.41702 -1.78873 0
M  V30 33648 C 3289.21 -0.279838 -1.60174 0
M  V30 33649 O 3290.39 -0.471767 -1.82501 0
M  V30 33650 C 3287.52 -1.21836 -3.16028 0
M  V30 33651 C 3286.56 -2.38691 -3.53453 0
M  V30 33652 S 3287.4 -4.01236 -3.54641 0
M  V30 33653 C 3288.55 -3.83732 -4.9447 0
M  V30 33654 H 3288.78 -2.36886 -1.79646 0
M  V30 33655 H 3286.32 -1.29837 -0.835573 0
M  V30 33656 H 3288.28 -1.1106 -3.95191 0
M  V30 33657 H 3286.94 -0.282194 -3.1283 0
M  V30 33658 H 3286.13 -2.20567 -4.53174 0
M  V30 33659 H 3285.73 -2.46037 -2.81677 0
M  V30 33660 H 3288.02 -3.45396 -5.82845 0
M  V30 33661 H 3288.97 -4.83167 -5.17644 0
M  V30 33662 H 3289.37 -3.1639 -4.67501 0
M  V30 33663 N 3288.77 0.901258 -1.29287 0
M  V30 33664 C 3289.74 1.98674 -1.14286 0
M  V30 33665 C 3290.74 1.60607 -0.0787923 0
M  V30 33666 O 3291.93 1.7113 -0.325604 0
M  V30 33667 C 3289.06 3.32607 -0.747337 0
M  V30 33668 H 3290.25 2.1341 -2.10704 0
M  V30 33669 H 3287.8 1.08556 -1.12451 0
M  V30 33670 H 3288.54 3.23573 0.217054 0
M  V30 33671 H 3288.32 3.61601 -1.51614 0
M  V30 33672 H 3289.81 4.12265 -0.665395 0
M  V30 33673 N 3290.25 1.11738 1.11141 0
M  V30 33674 C 3291.5 0.866444 1.82585 0
M  V30 33675 C 3291.82 -0.60956 1.85228 0
M  V30 33676 O 3291.09 -1.44286 1.32508 0
M  V30 33677 H 3289.67 0.317552 0.676143 0
M  V30 33678 H 3292.33 1.41039 1.34514 0
M  V30 33679 H 3291.43 1.24141 2.86348 0
M  V30 33680 N 3291.73 -1.28802 0.90817 0
M  V30 33681 C 3292.68 -2.25083 0.363544 0
M  V30 33682 C 3293.66 -1.52225 -0.521184 0
M  V30 33683 O 3294.85 -1.73262 -0.361817 0
M  V30 33684 C 3291.98 -3.40958 -0.400294 0
M  V30 33685 C 3291.07 -4.21144 0.499835 0
M  V30 33686 N 3291.46 -4.79462 1.61091 0
M  V30 33687 C 3289.76 -4.44995 0.299186 0
M  V30 33688 C 3290.46 -5.39743 2.16916 0
M  V30 33689 N 3289.44 -5.23595 1.46112 0
M  V30 33690 H 3293.24 -2.67738 1.21217 0
M  V30 33691 H 3290.75 -1.43509 0.760184 0
M  V30 33692 H 3292.75 -4.09009 -0.807271 0
M  V30 33693 H 3291.41 -2.99838 -1.24608 0
M  V30 33694 H 3292.42 -4.77994 1.99355 0
M  V30 33695 H 3289.1 -4.14404 -0.507538 0
M  V30 33696 H 3290.49 -5.95931 3.10348 0
M  V30 33697 N 3293.21 -0.67155 -1.42576 0
M  V30 33698 C 3294.45 -0.192086 -2.01185 0
M  V30 33699 C 3294.78 1.20451 -1.53351 0
M  V30 33700 O 3294.05 1.80816 -0.753812 0
M  V30 33701 H 3292.63 -0.0680237 -0.743896 0
M  V30 33702 H 3295.29 -0.86733 -1.74538 0
M  V30 33703 H 3294.38 -0.190851 -3.11516 0
M  V30 33704 N 3294.68 1.52047 -0.414663 0
M  V30 33705 C 3295.62 2.24867 0.443562 0
M  V30 33706 C 3296.63 1.28034 1.00554 0
M  V30 33707 O 3297.82 1.53943 0.903539 0
M  V30 33708 C 3294.92 2.97127 1.62999 0
M  V30 33709 C 3294.09 4.20875 1.19092 0
M  V30 33710 C 3293.15 4.75911 2.24489 0
M  V30 33711 O 3292.18 5.38348 1.84852 0
M  V30 33712 N 3293.38 4.57965 3.56719 0
M  V30 33713 H 3296.14 2.99156 -0.180445 0
M  V30 33714 H 3293.7 1.60076 -0.242333 0
M  V30 33715 H 3295.7 3.30839 2.33083 0
M  V30 33716 H 3294.27 2.2599 2.1598 0
M  V30 33717 H 3293.49 3.92915 0.31799 0
M  V30 33718 H 3294.77 5.01226 0.874611 0
M  V30 33719 H 3294.17 4.08182 3.91668 0
M  V30 33720 H 3292.73 4.96099 4.22763 0
M  V30 33721 N 3296.16 0.145261 1.56929 0
M  V30 33722 C 3297.41 -0.506286 1.96069 0
M  V30 33723 C 3297.74 -1.64987 1.03002 0
M  V30 33724 O 3296.99 -1.95611 0.0588925 0
M  V30 33725 C 3297.29 -1.05516 3.41469 0
M  V30 33726 C 3296.96 -0.0302034 4.5089 0
M  V30 33727 C 3295.62 0.25156 4.80542 0
M  V30 33728 C 3297.97 0.666874 5.16916 0
M  V30 33729 C 3295.3 1.23624 5.73528 0
M  V30 33730 C 3297.65 1.64036 6.10962 0
M  V30 33731 C 3296.32 1.92984 6.38994 0
M  V30 33732 H 3295.59 -0.185263 0.717467 0
M  V30 33733 H 3298.23 0.231723 1.90093 0
M  V30 33734 H 3296.54 -1.87047 3.44268 0
M  V30 33735 H 3298.23 -1.56784 3.6908 0
M  V30 33736 H 3294.82 -0.259994 4.27811 0
M  V30 33737 H 3299.01 0.462384 4.94141 0
M  V30 33738 H 3294.26 1.46698 5.9354 0
M  V30 33739 H 3298.44 2.18602 6.612 0
M  V30 33740 H 3296.07 2.69436 7.10851 0
M  V30 33741 N 3297.64 -1.57075 -0.128525 0
M  V30 33742 C 3298.57 -1.96275 -1.18359 0
M  V30 33743 C 3299.59 -0.860842 -1.38179 0
M  V30 33744 O 3300.78 -1.13918 -1.37422 0
M  V30 33745 C 3297.88 -2.23759 -2.54529 0
M  V30 33746 C 3297.05 -3.55062 -2.5544 0
M  V30 33747 C 3296.11 -3.70871 -3.73285 0
M  V30 33748 O 3295.13 -4.4308 -3.57308 0
M  V30 33749 N 3296.34 -3.08921 -4.91475 0
M  V30 33750 H 3299.1 -2.87387 -0.850225 0
M  V30 33751 H 3296.66 -1.58748 -0.317904 0
M  V30 33752 H 3298.65 -2.31559 -3.31908 0
M  V30 33753 H 3297.22 -1.38821 -2.80085 0
M  V30 33754 H 3296.44 -3.58537 -1.63844 0
M  V30 33755 H 3297.73 -4.41384 -2.53096 0
M  V30 33756 H 3297.13 -2.50205 -5.0736 0
M  V30 33757 H 3295.69 -3.22255 -5.66564 0
M  V30 33758 N 3299.12 0.398432 -1.5248 0
M  V30 33759 C 3300.05 1.50542 -1.72829 0
M  V30 33760 C 3301.06 1.50992 -0.608709 0
M  V30 33761 O 3302.25 1.55064 -0.884158 0
M  V30 33762 C 3299.35 2.89414 -1.76332 0
M  V30 33763 C 3298.53 3.13035 -3.05496 0
M  V30 33764 C 3297.59 4.31838 -3.00671 0
M  V30 33765 O 3296.61 4.28599 -3.74555 0
M  V30 33766 N 3297.81 5.37523 -2.19201 0
M  V30 33767 H 3300.58 1.33477 -2.68336 0
M  V30 33768 H 3298.14 0.587848 -1.50851 0
M  V30 33769 H 3300.13 3.66974 -1.70622 0
M  V30 33770 H 3298.7 2.99884 -0.882529 0
M  V30 33771 H 3297.92 2.23423 -3.24771 0
M  V30 33772 H 3299.21 3.25666 -3.90921 0
M  V30 33773 H 3298.61 5.43006 -1.58622 0
M  V30 33774 H 3297.16 6.13786 -2.19339 0
M  V30 33775 N 3300.6 1.43284 0.656314 0
M  V30 33776 C 3302.01 1.39803 1.23742 0
M  V30 33777 C 3302.36 0.100541 1.95942 0
M  V30 33778 O 3301.48 -0.800125 2.01065 0
M  V30 33779 C 3302.08 2.53248 2.25058 0
M  V30 33780 C 3300.64 2.53041 2.78652 0
M  V30 33781 C 3299.79 2.31107 1.53247 0
M  V30 33782 H 3302.74 1.5223 0.448526 0
M  V30 33783 H 3302.76 2.24559 3.0717 0
M  V30 33784 H 3302.27 3.47667 1.7248 0
M  V30 33785 H 3300.37 1.62493 3.35301 0
M  V30 33786 H 3300.48 3.50706 3.26408 0
M  V30 33787 H 3298.85 1.79716 1.80484 0
M  V30 33788 H 3299.63 3.27607 1.02609 0
M  V30 33789 N 3302.08 -0.894389 1.29763 0
M  V30 33790 C 3303.01 -2.00443 1.11154 0
M  V30 33791 C 3304.02 -1.62698 0.0574941 0
M  V30 33792 O 3305.21 -1.75917 0.302559 0
M  V30 33793 C 3302.31 -3.3219 0.671042 0
M  V30 33794 C 3301.48 -3.9843 1.80478 0
M  V30 33795 C 3300.54 -5.08471 1.3544 0
M  V30 33796 O 3299.57 -5.30614 2.06003 0
M  V30 33797 N 3300.77 -5.80051 0.228212 0
M  V30 33798 H 3303.53 -2.1696 2.06757 0
M  V30 33799 H 3301.1 -1.0669 1.21774 0
M  V30 33800 H 3303.09 -4.03158 0.352948 0
M  V30 33801 H 3301.66 -3.12006 -0.19268 0
M  V30 33802 H 3300.88 -3.20757 2.29148 0
M  V30 33803 H 3302.17 -4.39427 2.56479 0
M  V30 33804 H 3301.56 -5.64554 -0.359977 0
M  V30 33805 H 3300.12 -6.51793 -0.0304839 0
M  V30 33806 N 3303.55 -1.12326 -1.10547 0
M  V30 33807 C 3304.8 -0.876115 -1.82123 0
M  V30 33808 C 3305.12 0.599729 -1.85549 0
M  V30 33809 O 3304.39 1.43581 -1.33271 0
M  V30 33810 H 3302.97 -0.321134 -0.67445 0
M  V30 33811 H 3305.63 -1.41751 -1.33764 0
M  V30 33812 H 3304.73 -1.25658 -2.85686 0
M  V30 33813 N 3305.03 1.28319 -0.914988 0
M  V30 33814 C 3306.44 1.7696 -0.595151 0
M  V30 33815 C 3306.79 1.74876 0.88955 0
M  V30 33816 O 3305.92 1.34421 1.69588 0
M  V30 33817 C 3306.51 3.2134 -1.07358 0
M  V30 33818 C 3305.07 3.67699 -0.804642 0
M  V30 33819 C 3304.22 2.48051 -1.2396 0
M  V30 33820 H 3307.17 1.14765 -1.09612 0
M  V30 33821 H 3307.19 3.78224 -0.415572 0
M  V30 33822 H 3306.7 3.22825 -2.15419 0
M  V30 33823 H 3304.8 3.71673 0.262704 0
M  V30 33824 H 3304.92 4.57782 -1.41325 0
M  V30 33825 H 3303.28 2.46045 -0.658317 0
M  V30 33826 H 3304.06 2.52254 -2.32858 0
M  V30 33827 N 3306.51 0.679102 1.42218 0
M  V30 33828 C 3307.76 0.202753 2.0108 0
M  V30 33829 C 3308.08 -1.19636 1.53988 0
M  V30 33830 O 3307.35 -1.80414 0.763391 0
M  V30 33831 H 3305.93 0.0719678 0.743525 0
M  V30 33832 H 3308.59 0.876574 1.74075 0
M  V30 33833 H 3307.69 0.207369 3.1141 0
M  V30 33834 N 3307.99 -1.51825 0.42272 0
M  V30 33835 C 3309.24 -2.01555 -0.148312 0
M  V30 33836 C 3309.56 -1.30959 -1.44481 0
M  V30 33837 O 3308.83 -0.439633 -1.90903 0
M  V30 33838 H 3307.41 -0.744761 -0.0577985 0
M  V30 33839 H 3310.07 -1.86619 0.562079 0
M  V30 33840 H 3309.16 -3.103 -0.334711 0
M  V30 33841 N 3309.47 -0.153581 -1.5685 0
M  V30 33842 C 3310.7 0.501914 -2.00411 0
M  V30 33843 C 3311.1 1.58528 -1.03274 0
M  V30 33844 O 3310.45 1.83686 -0.0227802 0
M  V30 33845 C 3310.51 1.15607 -3.40405 0
M  V30 33846 C 3310.17 0.216515 -4.56487 0
M  V30 33847 C 3311.17 -0.558358 -5.16893 0
M  V30 33848 C 3308.85 0.117504 -5.02163 0
M  V30 33849 C 3310.85 -1.41962 -6.2139 0
M  V30 33850 C 3308.54 -0.747362 -6.06513 0
M  V30 33851 C 3309.53 -1.51453 -6.65996 0
M  V30 33852 O 3309.22 -2.36497 -7.68326 0
M  V30 33853 H 3308.95 0.134562 -0.662472 0
M  V30 33854 H 3311.51 -0.247122 -2.03908 0
M  V30 33855 H 3309.74 1.95288 -3.33766 0
M  V30 33856 H 3311.43 1.71196 -3.68031 0
M  V30 33857 H 3312.19 -0.491936 -4.82499 0
M  V30 33858 H 3308.07 0.704382 -4.55587 0
M  V30 33859 H 3311.62 -2.01889 -6.67748 0
M  V30 33860 H 3307.51 -0.815052 -6.40334 0
M  V30 33861 H 3308.28 -2.29817 -7.85574 0
M  V30 33862 N 3310.94 1.57141 0.120193 0
M  V30 33863 C 3312.35 1.73975 0.677466 0
M  V30 33864 C 3312.71 0.772086 1.8037 0
M  V30 33865 O 3311.83 -0.0552682 2.16329 0
M  V30 33866 C 3312.43 3.15462 1.23569 0
M  V30 33867 C 3310.98 3.33806 1.73927 0
M  V30 33868 C 3310.13 2.69849 0.638495 0
M  V30 33869 H 3313.08 1.58348 -0.105713 0
M  V30 33870 H 3313.1 3.16946 2.10536 0
M  V30 33871 H 3312.62 3.85866 0.415783 0
M  V30 33872 H 3310.72 2.68441 2.58399 0
M  V30 33873 H 3310.83 4.4196 1.84954 0
M  V30 33874 H 3309.19 2.31051 1.07181 0
M  V30 33875 H 3309.98 3.42877 -0.170416 0
M  V30 33876 N 3312.42 -0.39034 1.5269 0
M  V30 33877 C 3313.83 -0.968338 1.59625 0
M  V30 33878 C 3314.18 -1.9101 0.448273 0
M  V30 33879 O 3313.31 -2.12108 -0.428831 0
M  V30 33880 C 3313.9 -1.76301 2.89315 0
M  V30 33881 C 3312.46 -2.29073 2.98668 0
M  V30 33882 C 3311.61 -1.09588 2.54727 0
M  V30 33883 H 3314.56 -0.169931 1.57788 0
M  V30 33884 H 3314.58 -2.62213 2.75726 0
M  V30 33885 H 3314.09 -1.07732 3.72848 0
M  V30 33886 H 3312.2 -3.00958 2.1967 0
M  V30 33887 H 3312.31 -2.58652 4.03282 0
M  V30 33888 H 3310.67 -1.45551 2.09015 0
M  V30 33889 H 3311.46 -0.425565 3.40652 0
M  V30 33890 N 3313.9 -1.4363 -0.648706 0
M  V30 33891 C 3314.86 -1.48803 -1.74328 0
M  V30 33892 C 3315.86 -0.372175 -1.56434 0
M  V30 33893 O 3317.05 -0.634106 -1.62249 0
M  V30 33894 C 3314.19 -1.345 -3.13245 0
M  V30 33895 H 3315.38 -2.46288 -1.7112 0
M  V30 33896 H 3312.93 -1.30462 -0.860775 0
M  V30 33897 H 3313.67 -0.380402 -3.22061 0
M  V30 33898 H 3313.45 -2.15395 -3.27639 0
M  V30 33899 H 3314.94 -1.41062 -3.93054 0
M  V30 33900 N 3315.38 0.887495 -1.30236 0
M  V30 33901 C 3316.31 1.99535 -1.1073 0
M  V30 33902 C 3317.29 1.62592 -0.0156522 0
M  V30 33903 O 3318.47 1.87743 -0.16872 0
M  V30 33904 C 3315.6 3.31634 -0.688243 0
M  V30 33905 C 3314.65 3.87562 -1.78038 0
M  V30 33906 S 3315.48 4.15166 -3.38226 0
M  V30 33907 C 3316.64 5.50288 -2.98218 0
M  V30 33908 H 3316.87 2.15775 -2.0452 0
M  V30 33909 H 3314.4 1.03558 -1.14521 0
M  V30 33910 H 3316.36 4.07991 -0.453196 0
M  V30 33911 H 3315.02 3.13255 0.23026 0
M  V30 33912 H 3314.21 4.83009 -1.43939 0
M  V30 33913 H 3313.82 3.17936 -1.96958 0
M  V30 33914 H 3316.11 6.31252 -2.46021 0
M  V30 33915 H 3317.05 5.89323 -3.92562 0
M  V30 33916 H 3317.46 5.12728 -2.36158 0
M  V30 33917 N 3316.86 1.12911 1.0995 0
M  V30 33918 C 3317.79 0.759343 2.16256 0
M  V30 33919 C 3318.8 -0.216398 1.61355 0
M  V30 33920 O 3319.99 0.00300362 1.785 0
M  V30 33921 C 3317.09 0.103967 3.3874 0
M  V30 33922 C 3316.26 1.11044 4.2307 0
M  V30 33923 C 3315.32 0.481759 5.2399 0
M  V30 33924 O 3314.35 1.14021 5.57663 0
M  V30 33925 N 3315.55 -0.748596 5.75653 0
M  V30 33926 H 3318.32 1.67409 2.48585 0
M  V30 33927 H 3315.88 1.02139 1.25615 0
M  V30 33928 H 3317.87 -0.328729 4.03363 0
M  V30 33929 H 3316.44 -0.713623 3.04345 0
M  V30 33930 H 3315.66 1.7206 3.54667 0
M  V30 33931 H 3316.95 1.79086 4.76241 0
M  V30 33932 H 3316.34 -1.30243 5.50503 0
M  V30 33933 H 3314.9 -1.12403 6.42035 0
M  V30 33934 N 3318.33 -1.27832 0.92178 0
M  V30 33935 C 3319.27 -2.26134 0.373615 0
M  V30 33936 C 3320.28 -1.55175 -0.492387 0
M  V30 33937 O 3321.47 -1.75858 -0.305967 0
M  V30 33938 C 3318.57 -3.35428 -0.483852 0
M  V30 33939 C 3317.74 -4.35904 0.361488 0
M  V30 33940 C 3316.8 -5.24421 -0.432369 0
M  V30 33941 O 3315.83 -5.68981 0.15787 0
M  V30 33942 N 3317.03 -5.5401 -1.73357 0
M  V30 33943 H 3319.79 -2.73807 1.21861 0
M  V30 33944 H 3317.35 -1.41397 0.788577 0
M  V30 33945 H 3319.35 -3.91587 -1.02186 0
M  V30 33946 H 3317.92 -2.87402 -1.22958 0
M  V30 33947 H 3317.14 -3.79093 1.08083 0
M  V30 33948 H 3318.42 -5.00049 0.939616 0
M  V30 33949 H 3317.82 -5.19655 -2.23552 0
M  V30 33950 H 3316.38 -6.12893 -2.21823 0
M  V30 33951 N 3319.81 -0.686634 -1.41856 0
M  V30 33952 C 3320.74 0.0233886 -2.29188 0
M  V30 33953 C 3321.76 0.753515 -1.44312 0
M  V30 33954 O 3322.95 0.605704 -1.67909 0
M  V30 33955 C 3320.05 1.05707 -3.21993 0
M  V30 33956 C 3319.22 0.398376 -4.35582 0
M  V30 33957 C 3318.28 1.33345 -5.09024 0
M  V30 33958 O 3317.3 0.829235 -5.63127 0
M  V30 33959 N 3318.51 2.66622 -5.15648 0
M  V30 33960 H 3321.27 -0.726346 -2.90765 0
M  V30 33961 H 3318.83 -0.531964 -1.52911 0
M  V30 33962 H 3320.82 1.68415 -3.67993 0
M  V30 33963 H 3319.39 1.70843 -2.61785 0
M  V30 33964 H 3318.61 -0.408427 -3.92078 0
M  V30 33965 H 3319.9 -0.0600134 -5.08765 0
M  V30 33966 H 3319.3 3.10114 -4.73123 0
M  V30 33967 H 3317.86 3.24548 -5.65254 0
M  V30 33968 N 3321.29 1.51599 -0.430766 0
M  V30 33969 C 3322.22 2.25325 0.419687 0
M  V30 33970 C 3323.24 1.29093 0.991903 0
M  V30 33971 O 3324.42 1.54893 0.887161 0
M  V30 33972 C 3321.52 2.98839 1.59838 0
M  V30 33973 C 3320.7 4.22114 1.14622 0
M  V30 33974 C 3319.76 4.78265 2.19428 0
M  V30 33975 O 3318.78 5.40278 1.79131 0
M  V30 33976 N 3319.98 4.61723 3.51841 0
M  V30 33977 H 3322.75 2.98948 -0.212165 0
M  V30 33978 H 3320.31 1.5981 -0.259297 0
M  V30 33979 H 3322.3 3.33292 2.29561 0
M  V30 33980 H 3320.87 2.28268 2.13571 0
M  V30 33981 H 3320.09 3.93231 0.276298 0
M  V30 33982 H 3321.38 5.02126 0.8214 0
M  V30 33983 H 3320.78 4.12313 3.87317 0
M  V30 33984 H 3319.34 5.00555 4.17477 0
M  V30 33985 N 3322.77 0.161897 1.56766 0
M  V30 33986 C 3324.18 -0.194375 1.58412 0
M  V30 33987 C 3324.38 -1.63562 1.17685 0
M  V30 33988 O 3323.44 -2.36518 0.884065 0
M  V30 33989 C 3324.75 0.0778967 3.00599 0
M  V30 33990 C 3326.3 0.015362 3.12996 0
M  V30 33991 C 3326.78 0.260498 4.57259 0
M  V30 33992 N 3328.27 0.207944 4.62733 0
M  V30 33993 C 3329 0.371921 5.72193 0
M  V30 33994 N 3328.5 0.594439 6.90245 0
M  V30 33995 N 3330.29 0.308483 5.61253 0
M  V30 33996 H 3322.44 1.10277 1.81529 0
M  V30 33997 H 3324.71 0.437689 0.840911 0
M  V30 33998 H 3324.41 1.07593 3.34838 0
M  V30 33999 H 3324.29 -0.63478 3.7182 0
M  V30 34000 H 3326.67 -0.973241 2.78589 0
M  V30 34001 H 3326.75 0.760602 2.4423 0
M  V30 34002 H 3326.4 1.24627 4.92372 0
M  V30 34003 H 3326.33 -0.505242 5.24171 0
M  V30 34004 H 3328.82 0.0412205 3.77878 0
M  V30 34005 H 3329.13 0.709266 7.69538 0
M  V30 34006 H 3327.48 0.630941 6.9213 0
M  V30 34007 H 3330.67 0.1353 4.67904 0
M  V30 34008 H 3330.84 0.439706 6.46506 0
M  V30 34009 N 3324.25 -1.57203 -0.111858 0
M  V30 34010 C 3325.18 -1.96076 -1.16745 0
M  V30 34011 C 3326.16 -0.831463 -1.39734 0
M  V30 34012 O 3327.34 -1.09028 -1.5377 0
M  V30 34013 C 3324.47 -2.26313 -2.51993 0
M  V30 34014 C 3323.51 -3.48837 -2.45388 0
M  V30 34015 S 3324.35 -5.01166 -1.88661 0
M  V30 34016 C 3325.5 -5.34563 -3.25567 0
M  V30 34017 H 3325.74 -2.85304 -0.835983 0
M  V30 34018 H 3323.27 -1.51071 -0.318895 0
M  V30 34019 H 3325.23 -2.44411 -3.29808 0
M  V30 34020 H 3323.89 -1.37685 -2.82315 0
M  V30 34021 H 3323.08 -3.67382 -3.45031 0
M  V30 34022 H 3322.68 -3.30162 -1.75696 0
M  V30 34023 H 3324.98 -5.30182 -4.21798 0
M  V30 34024 H 3325.92 -6.35736 -3.11842 0
M  V30 34025 H 3326.33 -4.62032 -3.24325 0
M  V30 34026 N 3325.72 0.382237 -1.52894 0
M  V30 34027 C 3326.66 1.487 -1.74416 0
M  V30 34028 C 3327.67 1.50338 -0.62469 0
M  V30 34029 O 3328.86 1.54118 -0.900554 0
M  V30 34030 C 3325.96 2.87527 -1.79392 0
M  V30 34031 C 3325.13 3.09777 -3.08799 0
M  V30 34032 C 3324.19 4.28624 -3.05234 0
M  V30 34033 O 3323.22 4.24602 -3.7908 0
M  V30 34034 N 3324.42 5.35168 -2.2489 0
M  V30 34035 H 3327.18 1.30623 -2.69736 0
M  V30 34036 H 3324.74 0.571816 -1.51466 0
M  V30 34037 H 3326.74 3.65144 -1.74505 0
M  V30 34038 H 3325.31 2.98931 -0.914286 0
M  V30 34039 H 3324.53 2.19965 -3.27122 0
M  V30 34040 H 3325.81 3.21502 -3.94353 0
M  V30 34041 H 3325.21 5.41293 -1.64372 0
M  V30 34042 H 3323.77 6.11426 -2.25836 0
M  V30 34043 N 3327.2 1.43972 0.64108 0
M  V30 34044 C 3328.14 1.46049 1.76642 0
M  V30 34045 C 3329.15 0.355077 1.58881 0
M  V30 34046 O 3330.34 0.620237 1.67378 0
M  V30 34047 C 3327.44 1.26923 3.14235 0
M  V30 34048 C 3326.61 2.50527 3.58546 0
M  V30 34049 C 3325.67 2.26447 4.74982 0
M  V30 34050 O 3324.7 2.99875 4.83801 0
M  V30 34051 N 3325.9 1.28876 5.66014 0
M  V30 34052 H 3328.66 2.43059 1.75335 0
M  V30 34053 H 3326.22 1.39284 0.825325 0
M  V30 34054 H 3328.22 1.08677 3.89835 0
M  V30 34055 H 3326.79 0.383136 3.10243 0
M  V30 34056 H 3326.01 2.84117 2.7326 0
M  V30 34057 H 3327.29 3.3276 3.849 0
M  V30 34058 H 3326.69 0.682117 5.61572 0
M  V30 34059 H 3325.25 1.1661 6.41284 0
M  V30 34060 N 3328.68 -0.880575 1.30704 0
M  V30 34061 C 3329.63 -1.97416 1.14065 0
M  V30 34062 C 3330.62 -1.60807 0.0545823 0
M  V30 34063 O 3331.81 -1.74797 0.278375 0
M  V30 34064 C 3328.94 -3.32887 0.839121 0
M  V30 34065 C 3328.02 -3.75796 1.96566 0
M  V30 34066 N 3328.41 -3.90762 3.21152 0
M  V30 34067 C 3326.71 -4.05226 1.86301 0
M  V30 34068 C 3327.41 -4.27234 3.94774 0
M  V30 34069 N 3326.39 -4.37337 3.22858 0
M  V30 34070 H 3330.19 -2.07083 2.08551 0
M  V30 34071 H 3327.7 -1.07068 1.22108 0
M  V30 34072 H 3329.7 -4.10966 0.700923 0
M  V30 34073 H 3328.36 -3.24553 -0.0976237 0
M  V30 34074 H 3329.37 -3.75774 3.5639 0
M  V30 34075 H 3326.05 -4.05341 1.00023 0
M  V30 34076 H 3327.44 -4.46499 5.02084 0
M  V30 34077 N 3330.16 -1.13492 -1.09349 0
M  V30 34078 C 3331.09 -0.835627 -2.18036 0
M  V30 34079 C 3332.07 0.205343 -1.68856 0
M  V30 34080 O 3333.26 0.0641016 -1.94094 0
M  V30 34081 C 3330.39 -0.301721 -3.45987 0
M  V30 34082 C 3329.34 -1.27703 -4.08505 0
M  V30 34083 C 3328.67 -0.602851 -5.31291 0
M  V30 34084 C 3329.97 -2.63583 -4.50912 0
M  V30 34085 H 3331.66 -1.74446 -2.43329 0
M  V30 34086 H 3329.21 -0.840186 -1.16948 0
M  V30 34087 H 3331.16 -0.0800021 -4.21324 0
M  V30 34088 H 3329.88 0.642496 -3.20218 0
M  V30 34089 H 3328.54 -1.48475 -3.35187 0
M  V30 34090 H 3328.19 0.346865 -5.01803 0
M  V30 34091 H 3327.89 -1.25355 -5.74073 0
M  V30 34092 H 3329.41 -0.390432 -6.0935 0
M  V30 34093 H 3330.83 -2.46774 -5.1747 0
M  V30 34094 H 3329.22 -3.24836 -5.04581 0
M  V30 34095 H 3330.29 -3.21186 -3.63273 0
M  V30 34096 N 3331.64 1.27341 -0.928546 0
M  V30 34097 C 3333.05 1.76319 -0.613887 0
M  V30 34098 C 3333.4 1.75809 0.870952 0
M  V30 34099 O 3332.52 1.36212 1.68153 0
M  V30 34100 C 3333.12 3.20184 -1.1076 0
M  V30 34101 C 3331.68 3.66825 -0.843596 0
M  V30 34102 C 3330.83 2.46722 -1.26584 0
M  V30 34103 H 3333.78 1.13596 -1.10823 0
M  V30 34104 H 3333.8 3.77762 -0.455665 0
M  V30 34105 H 3333.31 3.20522 -2.18831 0
M  V30 34106 H 3331.41 3.7193 0.223269 0
M  V30 34107 H 3331.52 4.56257 -1.46173 0
M  V30 34108 H 3329.89 2.45333 -0.684377 0
M  V30 34109 H 3330.67 2.4977 -2.3552 0
M  V30 34110 N 3333.12 0.694147 1.4149 0
M  V30 34111 C 3334.05 0.042258 2.33462 0
M  V30 34112 C 3335.03 -0.768693 1.5174 0
M  V30 34113 O 3336.21 -0.721953 1.80282 0
M  V30 34114 C 3333.34 -0.895866 3.35547 0
M  V30 34115 C 3332.3 -0.192113 4.27569 0
M  V30 34116 C 3331.62 -1.2445 5.20016 0
M  V30 34117 C 3332.92 0.940716 5.13759 0
M  V30 34118 H 3334.62 0.810414 2.88223 0
M  V30 34119 H 3332.16 0.391164 1.38585 0
M  V30 34120 H 3334.11 -1.36114 3.98812 0
M  V30 34121 H 3332.84 -1.69567 2.79132 0
M  V30 34122 H 3331.5 0.253114 3.65725 0
M  V30 34123 H 3331.15 -2.03679 4.59917 0
M  V30 34124 H 3330.85 -0.778632 5.82418 0
M  V30 34125 H 3332.37 -1.71031 5.86158 0
M  V30 34126 H 3333.78 0.555792 5.706 0
M  V30 34127 H 3332.18 1.33359 5.85094 0
M  V30 34128 H 3333.25 1.78101 4.51008 0
M  V30 34129 N 3334.59 -1.51368 0.438799 0
M  V30 34130 C 3335.53 -2.25544 -0.407731 0
M  V30 34131 C 3336.54 -1.29618 -0.985043 0
M  V30 34132 O 3337.73 -1.55361 -0.878934 0
M  V30 34133 C 3334.83 -2.99683 -1.58251 0
M  V30 34134 C 3334 -4.22716 -1.12382 0
M  V30 34135 C 3333.06 -4.79422 -2.16889 0
M  V30 34136 O 3332.09 -5.41221 -1.76264 0
M  V30 34137 N 3333.29 -4.63582 -3.49388 0
M  V30 34138 H 3336.05 -2.98831 0.228016 0
M  V30 34139 H 3333.61 -1.5967 0.267769 0
M  V30 34140 H 3335.61 -3.34505 -2.2779 0
M  V30 34141 H 3334.18 -2.29397 -2.12358 0
M  V30 34142 H 3333.4 -3.93372 -0.25544 0
M  V30 34143 H 3334.68 -5.02554 -0.79476 0
M  V30 34144 H 3334.08 -4.14361 -3.85125 0
M  V30 34145 H 3332.64 -5.02762 -4.14817 0
M  V30 34146 N 3336.07 -0.170208 -1.56678 0
M  V30 34147 C 3337.32 0.474091 -1.96461 0
M  V30 34148 C 3337.64 1.63853 -1.05722 0
M  V30 34149 O 3336.91 1.95511 -0.12335 0
M  V30 34150 H 3335.49 0.178136 -0.725449 0
M  V30 34151 H 3338.15 -0.251133 -1.93275 0
M  V30 34152 H 3337.25 0.834841 -3.00727 0
M  V30 34153 N 3337.55 1.5726 0.10352 0
M  V30 34154 C 3338.77 1.90233 0.826207 0
M  V30 34155 C 3339.2 0.763671 1.719 0
M  V30 34156 O 3338.56 -0.285149 1.79044 0
M  V30 34157 C 3338.61 3.22031 1.62259 0
M  V30 34158 O 3337.71 3.09028 2.73086 0
M  V30 34159 H 3337.05 0.623804 0.227517 0
M  V30 34160 H 3339.58 2.04439 0.0812711 0
M  V30 34161 H 3339.59 3.55133 2.00859 0
M  V30 34162 H 3338.27 4.04495 0.967312 0
M  V30 34163 H 3336.84 2.87424 2.37575 0
M  V30 34164 N 3339.03 -0.374123 1.53095 0
M  V30 34165 C 3340.25 -1.14297 1.73063 0
M  V30 34166 C 3340.68 -1.82523 0.454643 0
M  V30 34167 O 3340.04 -1.71407 -0.590713 0
M  V30 34168 C 3340.08 -2.15544 2.8909 0
M  V30 34169 O 3339.19 -3.22447 2.57102 0
M  V30 34170 H 3338.53 -0.332044 0.575015 0
M  V30 34171 H 3341.06 -0.433862 1.99947 0
M  V30 34172 H 3341.07 -2.5929 3.15012 0
M  V30 34173 H 3339.74 -1.65276 3.8165 0
M  V30 34174 H 3338.32 -2.83734 2.4197 0
M  V30 34175 N 3340.51 -1.4431 -0.633436 0
M  V30 34176 C 3341.44 -1.45465 -1.75827 0
M  V30 34177 C 3342.42 -0.313751 -1.59544 0
M  V30 34178 O 3343.6 -0.510372 -1.81459 0
M  V30 34179 C 3340.73 -1.28512 -3.13373 0
M  V30 34180 C 3339.77 -2.46134 -3.4831 0
M  V30 34181 S 3340.61 -4.08668 -3.4605 0
M  V30 34182 C 3341.76 -3.94134 -4.86219 0
M  V30 34183 H 3342 -2.40643 -1.7458 0
M  V30 34184 H 3339.53 -1.3158 -0.807845 0
M  V30 34185 H 3341.49 -1.19418 -3.92746 0
M  V30 34186 H 3340.15 -0.348487 -3.12161 0
M  V30 34187 H 3339.34 -2.30129 -4.48393 0
M  V30 34188 H 3338.94 -2.51956 -2.76395 0
M  V30 34189 H 3341.23 -3.57681 -5.75387 0
M  V30 34190 H 3342.18 -4.94039 -5.07278 0
M  V30 34191 H 3342.59 -3.26235 -4.60685 0
M  V30 34192 N 3341.98 0.873632 -1.3117 0
M  V30 34193 C 3343.23 1.62317 -1.20407 0
M  V30 34194 C 3343.55 1.93532 0.238795 0
M  V30 34195 O 3342.82 1.57973 1.15851 0
M  V30 34196 H 3341.4 0.601728 -0.442642 0
M  V30 34197 H 3344.07 1.0461 -1.64447 0
M  V30 34198 H 3343.16 2.56839 -1.77314 0
M  V30 34199 N 3343.46 1.1407 1.08746 0
M  V30 34200 C 3344.39 0.782237 2.15438 0
M  V30 34201 C 3345.41 -0.199272 1.61576 0
M  V30 34202 O 3346.6 0.0219357 1.78487 0
M  V30 34203 C 3343.7 0.139889 3.38611 0
M  V30 34204 C 3342.87 1.15525 4.21868 0
M  V30 34205 C 3341.93 0.537308 5.2345 0
M  V30 34206 O 3340.95 1.19929 5.56422 0
M  V30 34207 N 3342.16 -0.687499 5.76415 0
M  V30 34208 H 3344.92 1.70036 2.46795 0
M  V30 34209 H 3342.48 1.03466 1.24525 0
M  V30 34210 H 3344.47 -0.285928 4.03689 0
M  V30 34211 H 3343.04 -0.681303 3.05085 0
M  V30 34212 H 3342.26 1.75812 3.52822 0
M  V30 34213 H 3343.55 1.84127 4.74315 0
M  V30 34214 H 3342.95 -1.24397 5.51853 0
M  V30 34215 H 3341.51 -1.05588 6.43191 0
M  V30 34216 N 3344.94 -1.26847 0.935286 0
M  V30 34217 C 3345.87 -2.24936 0.384602 0
M  V30 34218 C 3346.85 -1.5395 -0.523284 0
M  V30 34219 O 3348.04 -1.82749 -0.462071 0
M  V30 34220 C 3345.16 -3.35724 -0.447984 0
M  V30 34221 C 3344.21 -4.24643 0.397541 0
M  V30 34222 S 3345.04 -5.03702 1.81782 0
M  V30 34223 C 3346.2 -6.17971 0.993129 0
M  V30 34224 H 3346.43 -2.71298 1.21592 0
M  V30 34225 H 3343.96 -1.35621 0.73799 0
M  V30 34226 H 3345.92 -4.00001 -0.922471 0
M  V30 34227 H 3344.58 -2.87986 -1.25392 0
M  V30 34228 H 3343.78 -5.03428 -0.240087 0
M  V30 34229 H 3343.38 -3.65201 0.806488 0
M  V30 34230 H 3345.67 -6.771 0.232645 0
M  V30 34231 H 3346.61 -6.86026 1.75424 0
M  V30 34232 H 3347.02 -5.6199 0.531791 0
M  V30 34233 N 3346.42 -0.701641 -1.4112 0
M  V30 34234 C 3347.38 -0.0490494 -2.29148 0
M  V30 34235 C 3348.38 0.701738 -1.4468 0
M  V30 34236 O 3349.57 0.535721 -1.65758 0
M  V30 34237 C 3346.7 0.94078 -3.27662 0
M  V30 34238 H 3347.9 -0.824183 -2.88353 0
M  V30 34239 H 3345.45 -0.465483 -1.49208 0
M  V30 34240 H 3346.18 1.74346 -2.73448 0
M  V30 34241 H 3345.97 0.405482 -3.89998 0
M  V30 34242 H 3347.46 1.395 -3.93611 0
M  V30 34243 N 3347.9 1.51133 -0.446821 0
M  V30 34244 C 3348.86 2.26539 0.348271 0
M  V30 34245 C 3349.86 1.30352 0.941543 0
M  V30 34246 O 3351.05 1.53985 0.81451 0
M  V30 34247 C 3348.18 3.06435 1.49366 0
M  V30 34248 H 3349.37 2.98265 -0.312701 0
M  V30 34249 H 3346.93 1.55012 -0.200228 0
M  V30 34250 H 3347.66 2.39148 2.19041 0
M  V30 34251 H 3347.45 3.77095 1.07432 0
M  V30 34252 H 3348.94 3.63528 2.05516 0
M  V30 34253 N 3349.37 0.178515 1.56586 0
M  V30 34254 C 3350.31 -0.780505 2.15501 0
M  V30 34255 C 3351.32 -1.18862 1.11246 0
M  V30 34256 O 3352.51 -1.12723 1.38405 0
M  V30 34257 C 3349.61 -2.06306 2.6887 0
M  V30 34258 C 3348.78 -1.81737 3.97857 0
M  V30 34259 C 3347.84 -2.94279 4.36218 0
M  V30 34260 O 3346.87 -2.64603 5.03958 0
M  V30 34261 N 3348.07 -4.2224 3.98364 0
M  V30 34262 H 3350.83 -0.276784 2.98419 0
M  V30 34263 H 3348.39 -0.00402395 1.61899 0
M  V30 34264 H 3350.39 -2.80703 2.91527 0
M  V30 34265 H 3348.96 -2.47848 1.905 0
M  V30 34266 H 3348.18 -0.91206 3.83504 0
M  V30 34267 H 3349.46 -1.62698 4.82086 0
M  V30 34268 H 3348.86 -4.49209 3.43843 0
M  V30 34269 H 3347.42 -4.93317 4.26006 0
M  V30 34270 N 3350.85 -1.57312 -0.0951784 0
M  V30 34271 C 3351.79 -1.97303 -1.14659 0
M  V30 34272 C 3352.76 -0.846237 -1.38844 0
M  V30 34273 O 3353.95 -1.10652 -1.52605 0
M  V30 34274 C 3351.07 -2.28973 -2.49578 0
M  V30 34275 C 3350.12 -3.5142 -2.41674 0
M  V30 34276 S 3350.95 -5.03139 -1.83335 0
M  V30 34277 C 3352.11 -5.37986 -3.19879 0
M  V30 34278 H 3352.34 -2.86175 -0.805675 0
M  V30 34279 H 3349.88 -1.51401 -0.302854 0
M  V30 34280 H 3351.83 -2.47895 -3.27198 0
M  V30 34281 H 3350.49 -1.40672 -2.80838 0
M  V30 34282 H 3349.69 -3.71021 -3.41115 0
M  V30 34283 H 3349.29 -3.32007 -1.72184 0
M  V30 34284 H 3351.58 -5.34626 -4.16151 0
M  V30 34285 H 3352.52 -6.39008 -3.05081 0
M  V30 34286 H 3352.93 -4.65446 -3.19406 0
M  V30 34287 N 3352.33 0.365999 -1.53291 0
M  V30 34288 C 3353.58 1.1065 -1.69119 0
M  V30 34289 C 3353.9 1.89846 -0.44536 0
M  V30 34290 O 3353.17 1.88294 0.540583 0
M  V30 34291 H 3351.75 0.411479 -0.623453 0
M  V30 34292 H 3354.41 0.412715 -1.9048 0
M  V30 34293 H 3353.51 1.79654 -2.55208 0
M  V30 34294 N 3353.81 1.44644 0.625774 0
M  V30 34295 C 3354.74 1.47914 1.75083 0
M  V30 34296 C 3355.75 0.371908 1.58495 0
M  V30 34297 O 3356.94 0.637955 1.6671 0
M  V30 34298 C 3354.04 1.30249 3.12871 0
M  V30 34299 C 3353.22 2.54316 3.55868 0
M  V30 34300 C 3352.27 2.31472 4.72554 0
M  V30 34301 O 3351.3 3.04989 4.80594 0
M  V30 34302 N 3352.5 1.34872 5.64615 0
M  V30 34303 H 3355.27 2.44905 1.72747 0
M  V30 34304 H 3352.83 1.40151 0.810506 0
M  V30 34305 H 3354.82 1.12805 3.88661 0
M  V30 34306 H 3353.39 0.41602 3.09819 0
M  V30 34307 H 3352.61 2.86999 2.70232 0
M  V30 34308 H 3353.9 3.36824 3.81349 0
M  V30 34309 H 3353.3 0.74164 5.60817 0
M  V30 34310 H 3351.85 1.23405 6.40011 0
M  V30 34311 N 3355.29 -0.866663 1.31631 0
M  V30 34312 C 3356.22 -1.98999 1.22154 0
M  V30 34313 C 3357.2 -1.69757 0.108002 0
M  V30 34314 O 3358.38 -1.91975 0.293158 0
M  V30 34315 C 3355.51 -3.34575 0.931499 0
M  V30 34316 C 3354.47 -3.78134 2.00497 0
M  V30 34317 C 3353.79 -5.11206 1.56756 0
M  V30 34318 C 3355.09 -3.94886 3.41851 0
M  V30 34319 H 3356.79 -2.07186 2.16135 0
M  V30 34320 H 3354.33 -0.995444 1.04052 0
M  V30 34321 H 3356.29 -4.12701 0.851792 0
M  V30 34322 H 3355.01 -3.2657 -0.0439715 0
M  V30 34323 H 3353.67 -3.0225 2.07462 0
M  V30 34324 H 3353.32 -4.99647 0.579855 0
M  V30 34325 H 3353.02 -5.41322 2.28571 0
M  V30 34326 H 3354.54 -5.91838 1.50199 0
M  V30 34327 H 3355.95 -4.63399 3.37542 0
M  V30 34328 H 3354.35 -4.36403 4.11913 0
M  V30 34329 H 3355.42 -2.98165 3.82394 0
M  V30 34330 N 3356.77 -1.14645 -1.0814 0
M  V30 34331 C 3358.01 -0.914549 -1.80223 0
M  V30 34332 C 3358.33 0.560236 -1.86779 0
M  V30 34333 O 3357.6 1.40722 -1.36287 0
M  V30 34334 H 3356.18 -0.335367 -0.667486 0
M  V30 34335 H 3358.85 -1.44556 -1.30727 0
M  V30 34336 H 3357.94 -1.3169 -2.82956 0
M  V30 34337 N 3358.24 1.26349 -0.942 0
M  V30 34338 C 3359.18 2.25511 -0.409544 0
M  V30 34339 C 3360.19 1.55939 0.467638 0
M  V30 34340 O 3361.38 1.76323 0.277951 0
M  V30 34341 C 3358.48 3.36156 0.430427 0
M  V30 34342 C 3357.65 4.35273 -0.43079 0
M  V30 34343 C 3356.71 5.25042 0.348884 0
M  V30 34344 O 3355.74 5.68658 -0.24837 0
M  V30 34345 N 3356.94 5.56698 1.64521 0
M  V30 34346 H 3359.7 2.71833 -1.26201 0
M  V30 34347 H 3357.26 1.40124 -0.810972 0
M  V30 34348 H 3359.26 3.93163 0.959432 0
M  V30 34349 H 3357.83 2.89322 1.1837 0
M  V30 34350 H 3357.05 3.77326 -1.141 0
M  V30 34351 H 3358.33 4.98491 -1.01905 0
M  V30 34352 H 3357.73 5.23145 2.15256 0
M  V30 34353 H 3356.29 6.16344 2.12044 0
M  V30 34354 N 3359.72 0.709115 1.40746 0
M  V30 34355 C 3360.65 0.00160917 2.282 0
M  V30 34356 C 3361.63 -0.774254 1.42983 0
M  V30 34357 O 3362.82 -0.762246 1.72401 0
M  V30 34358 C 3359.94 -1.00512 3.23443 0
M  V30 34359 C 3358.99 -0.320829 4.25292 0
M  V30 34360 S 3359.82 0.946611 5.27067 0
M  V30 34361 C 3360.98 -0.0581756 6.25873 0
M  V30 34362 H 3361.21 0.743322 2.87858 0
M  V30 34363 H 3358.74 0.499892 1.46084 0
M  V30 34364 H 3360.7 -1.58075 3.78843 0
M  V30 34365 H 3359.36 -1.71949 2.62854 0
M  V30 34366 H 3358.56 -1.08165 4.92256 0
M  V30 34367 H 3358.16 0.182085 3.73556 0
M  V30 34368 H 3360.45 -0.907115 6.714 0
M  V30 34369 H 3361.39 0.577911 7.05738 0
M  V30 34370 H 3361.8 -0.419009 5.62943 0
M  V30 34371 N 3361.2 -1.50894 0.454829 0
M  V30 34372 C 3362.45 -2.01824 -0.105526 0
M  V30 34373 C 3362.77 -1.33994 -1.41671 0
M  V30 34374 O 3362.04 -0.480027 -1.89928 0
M  V30 34375 H 3360.62 -0.745819 -0.041988 0
M  V30 34376 H 3363.28 -1.85385 0.601537 0
M  V30 34377 H 3362.38 -3.1094 -0.268817 0
M  V30 34378 N 3362.68 -0.186817 -1.56489 0
M  V30 34379 C 3363.61 0.769066 -2.15912 0
M  V30 34380 C 3364.62 1.18271 -1.11875 0
M  V30 34381 O 3365.81 1.11987 -1.39001 0
M  V30 34382 C 3362.91 2.04877 -2.6996 0
M  V30 34383 C 3362.08 1.79624 -3.98816 0
M  V30 34384 C 3361.14 2.91962 -4.37772 0
M  V30 34385 O 3360.17 2.61927 -5.05354 0
M  V30 34386 N 3361.37 4.20121 -4.00598 0
M  V30 34387 H 3364.14 0.260954 -2.98562 0
M  V30 34388 H 3361.7 -0.00456203 -1.61899 0
M  V30 34389 H 3363.69 2.79153 -2.93011 0
M  V30 34390 H 3362.26 2.46834 -1.91812 0
M  V30 34391 H 3361.48 0.891709 -3.83982 0
M  V30 34392 H 3362.77 1.60139 -4.82942 0
M  V30 34393 H 3362.17 4.47379 -3.46221 0
M  V30 34394 H 3360.72 4.91051 -4.28617 0
M  V30 34395 N 3364.16 1.57361 0.0868344 0
M  V30 34396 C 3365.57 1.75373 0.640411 0
M  V30 34397 C 3365.92 0.810172 1.78692 0
M  V30 34398 O 3365.04 -0.00936909 2.16398 0
M  V30 34399 C 3365.64 3.18012 1.1685 0
M  V30 34400 C 3364.2 3.3742 1.66807 0
M  V30 34401 C 3363.34 2.71143 0.581112 0
M  V30 34402 H 3366.29 1.58088 -0.139277 0
M  V30 34403 H 3366.32 3.2134 2.03766 0
M  V30 34404 H 3365.83 3.86661 0.333841 0
M  V30 34405 H 3363.93 2.73862 2.52647 0
M  V30 34406 H 3364.04 4.45784 1.75537 0
M  V30 34407 H 3362.41 2.33272 1.02255 0
M  V30 34408 H 3363.19 3.42438 -0.243107 0
M  V30 34409 N 3365.63 -0.357865 1.53483 0
M  V30 34410 C 3366.88 -1.09751 1.69703 0
M  V30 34411 C 3367.2 -1.89607 0.455422 0
M  V30 34412 O 3366.47 -1.88578 -0.53059 0
M  V30 34413 H 3365.05 -0.408167 0.625627 0
M  V30 34414 H 3367.71 -0.402608 1.90696 0
M  V30 34415 H 3366.81 -1.78298 2.56157 0
M  V30 34416 N 3367.11 -1.44974 -0.618094 0
M  V30 34417 C 3368.04 -1.55676 -1.74032 0
M  V30 34418 C 3369.02 -0.408929 -1.65111 0
M  V30 34419 O 3370.21 -0.63073 -1.83672 0
M  V30 34420 C 3367.34 -1.51308 -3.12607 0
M  V30 34421 C 3366.29 -2.64701 -3.36329 0
M  V30 34422 C 3365.62 -2.45386 -4.75068 0
M  V30 34423 C 3366.92 -4.06778 -3.27611 0
M  V30 34424 H 3368.61 -2.49611 -1.65332 0
M  V30 34425 H 3366.16 -1.20133 -0.793982 0
M  V30 34426 H 3368.11 -1.57394 -3.90903 0
M  V30 34427 H 3366.83 -0.538971 -3.22122 0
M  V30 34428 H 3365.49 -2.58026 -2.60419 0
M  V30 34429 H 3365.14 -1.46138 -4.81303 0
M  V30 34430 H 3364.84 -3.21421 -4.91897 0
M  V30 34431 H 3366.37 -2.5331 -5.55577 0
M  V30 34432 H 3367.78 -4.14753 -3.95794 0
M  V30 34433 H 3366.18 -4.83119 -3.55972 0
M  V30 34434 H 3367.25 -4.29427 -2.25212 0
M  V30 34435 N 3368.59 0.85967 -1.32089 0
M  V30 34436 C 3369.84 1.6103 -1.22121 0
M  V30 34437 C 3370.16 1.93775 0.218255 0
M  V30 34438 O 3369.43 1.59192 1.14169 0
M  V30 34439 H 3368.01 0.597 -0.448999 0
M  V30 34440 H 3370.67 1.0286 -1.65547 0
M  V30 34441 H 3369.77 2.54944 -1.80028 0
M  V30 34442 N 3370.07 1.15217 1.0753 0
M  V30 34443 C 3371.03 0.849928 2.12859 0
M  V30 34444 C 3372.03 -0.149495 1.60104 0
M  V30 34445 O 3373.22 0.0799224 1.74017 0
M  V30 34446 C 3370.35 0.268677 3.3984 0
M  V30 34447 H 3371.55 1.78351 2.41103 0
M  V30 34448 H 3369.1 0.959407 1.2339 0
M  V30 34449 H 3369.83 -0.673194 3.17236 0
M  V30 34450 H 3369.62 0.988659 3.79431 0
M  V30 34451 H 3371.11 0.0747288 4.17533 0
M  V30 34452 N 3371.55 -1.25848 0.948687 0
M  V30 34453 C 3372.82 -1.8862 0.517865 0
M  V30 34454 C 3373.2 -1.85656 -1.00474 0
M  V30 34455 O 3372.55 -1.31601 -1.86798 0
M  V30 34456 C 3372.76 -3.31616 1.08774 0
M  V30 34457 C 3374.11 -4.0842 1.16096 0
M  V30 34458 O 3375.13 -3.40714 1.03886 0
M  V30 34459 O 3373.99 -5.29517 1.35181 0
M  V30 34460 H 3371.09 -0.809353 0.16993 0
M  V30 34461 H 3373.63 -1.33963 1.04174 0
M  V30 34462 H 3372.4 -3.28173 2.13115 0
M  V30 34463 H 3372.03 -3.93823 0.546759 0
M  V30 34464 N 3373.02 -0.716569 -1.40368 0
M  V30 34465 C 3374.25 -0.264765 -2.05703 0
M  V30 34466 C 3374.67 1.08525 -1.53636 0
M  V30 34467 O 3374.03 1.6838 -0.67215 0
M  V30 34468 C 3374.08 -0.255841 -3.59691 0
M  V30 34469 O 3373.18 0.762615 -4.05287 0
M  V30 34470 H 3372.53 -0.124103 -0.652299 0
M  V30 34471 H 3375.06 -0.977327 -1.79748 0
M  V30 34472 H 3375.07 -0.0938661 -4.07892 0
M  V30 34473 H 3373.74 -1.24102 -3.96953 0
M  V30 34474 H 3372.32 0.568283 -3.68544 0
M  V30 34475 N 3374.5 1.50651 -0.462825 0
M  V30 34476 C 3375.73 2.06691 0.0929397 0
M  V30 34477 C 3376.15 1.32761 1.34239 0
M  V30 34478 O 3375.5 0.394459 1.78186 0
M  V30 34479 C 3375.55 3.59396 0.389429 0
M  V30 34480 O 3375.27 4.30538 -0.810454 0
M  V30 34481 C 3376.78 4.32034 0.993072 0
M  V30 34482 H 3374 0.670991 -0.00339843 0
M  V30 34483 H 3376.54 1.93921 -0.649235 0
M  V30 34484 H 3374.69 3.71997 1.08153 0
M  V30 34485 H 3375.11 5.21608 -0.550051 0
M  V30 34486 H 3376.58 5.39881 1.15035 0
M  V30 34487 H 3377.06 3.91987 1.98099 0
M  V30 34488 H 3377.67 4.23942 0.339603 0
M  V30 34489 N 3375.98 0.195113 1.56388 0
M  V30 34490 C 3377.39 -0.317481 1.83981 0
M  V30 34491 C 3377.74 -1.61384 1.11578 0
M  V30 34492 O 3376.87 -2.13098 0.376594 0
M  V30 34493 C 3377.46 -0.582801 3.3375 0
M  V30 34494 C 3376.02 -1.03976 3.61754 0
M  V30 34495 C 3375.17 -0.0883853 2.77159 0
M  V30 34496 H 3378.12 0.418898 1.53072 0
M  V30 34497 H 3378.14 -1.4321 3.52521 0
M  V30 34498 H 3377.65 0.360881 3.86419 0
M  V30 34499 H 3375.75 -1.99772 3.14518 0
M  V30 34500 H 3375.87 -0.932466 4.69938 0
M  V30 34501 H 3374.23 -0.590274 2.47766 0
M  V30 34502 H 3375.01 0.849741 3.32617 0
M  V30 34503 N 3377.46 -1.57404 -0.0784879 0
M  V30 34504 C 3378.41 -2.04257 -1.11274 0
M  V30 34505 C 3379.4 -0.946657 -1.4048 0
M  V30 34506 O 3380.61 -1.13179 -1.39966 0
M  V30 34507 H 3376.98 -0.651167 -0.376146 0
M  V30 34508 H 3378.95 -2.9028 -0.691386 0
M  V30 34509 C 3377.7 -2.4966 -2.42002 0
M  V30 34510 H 3377.02 -3.33578 -2.20377 0
M  V30 34511 H 3378.46 -2.86203 -3.12832 0
M  V30 34512 C 3376.92 -1.37674 -3.07486 0
M  V30 34513 O 3377.45 -0.715106 -3.95284 0
M  V30 34514 N 3375.66 -1.12354 -2.68002 0
M  V30 34515 H 3375.21 -1.66339 -1.96695 0
M  V30 34516 H 3375.16 -0.376293 -3.1214 0
M  V30 34517 N 3378.94 0.34972 -1.53671 0
M  V30 34518 C 3380.19 1.08804 -1.69837 0
M  V30 34519 C 3380.5 1.89992 -0.465003 0
M  V30 34520 O 3381.7 2.66715 -0.507499 0
M  V30 34521 C 3380.16 1.98366 -3.00298 0
M  V30 34522 C 3379.77 1.22414 -4.30951 0
M  V30 34523 C 3381.51 2.72093 -3.2583 0
M  V30 34524 C 3379.42 2.10971 -5.5249 0
M  V30 34525 H 3378.35 0.409904 -0.632847 0
M  V30 34526 H 3381 0.347937 -1.80171 0
M  V30 34527 H 3379.38 2.76171 -2.83805 0
M  V30 34528 H 3380.56 0.495626 -4.58127 0
M  V30 34529 H 3378.87 0.604824 -4.11984 0
M  V30 34530 H 3381.47 3.38607 -4.13823 0
M  V30 34531 H 3381.81 3.38326 -2.42572 0
M  V30 34532 H 3382.34 2.01364 -3.4307 0
M  V30 34533 H 3379.08 1.4929 -6.38273 0
M  V30 34534 H 3378.6 2.81628 -5.29571 0
M  V30 34535 H 3380.28 2.70166 -5.87894 0
M  V30 34536 N 3380.41 1.45299 0.610397 0
M  V30 34537 C 3381.35 1.49763 1.73504 0
M  V30 34538 C 3382.36 0.388698 1.58092 0
M  V30 34539 O 3383.55 0.655601 1.66024 0
M  V30 34540 C 3380.65 1.3356 3.11472 0
M  V30 34541 C 3379.82 2.58076 3.53151 0
M  V30 34542 C 3378.88 2.36471 4.70072 0
M  V30 34543 O 3377.91 3.1007 4.77332 0
M  V30 34544 N 3379.11 1.40853 5.63153 0
M  V30 34545 H 3381.87 2.46724 1.7014 0
M  V30 34546 H 3379.43 1.41003 0.795596 0
M  V30 34547 H 3381.43 1.16921 3.87442 0
M  V30 34548 H 3380 0.448857 3.09361 0
M  V30 34549 H 3379.22 2.89849 2.67172 0
M  V30 34550 H 3380.5 3.4085 3.77755 0
M  V30 34551 H 3379.9 0.801081 5.59999 0
M  V30 34552 H 3378.46 1.30187 6.38666 0
M  V30 34553 N 3381.89 -0.852653 1.32543 0
M  V30 34554 C 3382.82 -1.96805 1.17475 0
M  V30 34555 C 3383.84 -1.62433 0.109226 0
M  V30 34556 O 3385.03 -1.74865 0.358372 0
M  V30 34557 C 3382.13 -3.29887 0.776386 0
M  V30 34558 C 3381.3 -3.92487 1.93062 0
M  V30 34559 C 3380.36 -5.03904 1.51548 0
M  V30 34560 O 3379.38 -5.23792 2.2278 0
M  V30 34561 N 3380.59 -5.79032 0.412635 0
M  V30 34562 H 3383.35 -2.10272 2.13555 0
M  V30 34563 H 3380.91 -1.02762 1.25106 0
M  V30 34564 H 3382.9 -4.01831 0.481031 0
M  V30 34565 H 3381.47 -3.12461 -0.09332 0
M  V30 34566 H 3380.69 -3.13304 2.39236 0
M  V30 34567 H 3381.98 -4.31045 2.70329 0
M  V30 34568 H 3381.38 -5.65413 -0.180186 0
M  V30 34569 H 3379.94 -6.5156 0.176894 0
M  V30 34570 N 3383.37 -1.15786 -1.06918 0
M  V30 34571 C 3384.33 -0.861204 -2.12405 0
M  V30 34572 C 3385.33 0.141003 -1.60181 0
M  V30 34573 O 3386.52 -0.0891498 -1.73972 0
M  V30 34574 C 3383.66 -0.286695 -3.39692 0
M  V30 34575 H 3384.85 -1.79627 -2.40154 0
M  V30 34576 H 3382.4 -0.965937 -1.22879 0
M  V30 34577 H 3383.14 0.656361 -3.17588 0
M  V30 34578 H 3382.92 -1.00877 -3.78901 0
M  V30 34579 H 3384.41 -0.0968705 -4.17488 0
M  V30 34580 N 3384.85 1.25343 -0.955348 0
M  V30 34581 C 3385.78 2.28211 -0.494186 0
M  V30 34582 C 3386.76 1.63766 0.459846 0
M  V30 34583 O 3387.94 1.9086 0.358645 0
M  V30 34584 C 3385.07 3.4655 0.228167 0
M  V30 34585 C 3384.03 4.23178 -0.640676 0
M  V30 34586 C 3383.35 5.34278 0.212459 0
M  V30 34587 C 3384.65 4.85764 -1.91914 0
M  V30 34588 H 3386.35 2.67036 -1.35395 0
M  V30 34589 H 3383.89 1.28369 -0.652484 0
M  V30 34590 H 3385.85 4.17637 0.561921 0
M  V30 34591 H 3384.57 3.06716 1.12219 0
M  V30 34592 H 3383.23 3.53874 -0.957525 0
M  V30 34593 H 3382.88 4.90684 1.10626 0
M  V30 34594 H 3382.58 5.86462 -0.365576 0
M  V30 34595 H 3384.1 6.08197 0.541164 0
M  V30 34596 H 3385.52 5.4899 -1.65175 0
M  V30 34597 H 3383.91 5.48127 -2.44289 0
M  V30 34598 H 3384.98 4.07909 -2.6218 0
M  V30 34599 N 3386.33 0.724003 1.39986 0
M  V30 34600 C 3387.26 0.0373847 2.2917 0
M  V30 34601 C 3388.27 -0.714989 1.46259 0
M  V30 34602 O 3389.46 -0.560973 1.69456 0
M  V30 34603 C 3386.56 -0.971327 3.24682 0
M  V30 34604 C 3385.73 -0.282749 4.36485 0
M  V30 34605 C 3384.79 -1.19802 5.12381 0
M  V30 34606 O 3383.82 -0.67964 5.65128 0
M  V30 34607 N 3385.02 -2.52857 5.22536 0
M  V30 34608 H 3387.79 0.803182 2.88737 0
M  V30 34609 H 3385.35 0.572319 1.51447 0
M  V30 34610 H 3387.34 -1.58599 3.72328 0
M  V30 34611 H 3385.91 -1.63842 2.66223 0
M  V30 34612 H 3385.13 0.512236 3.90858 0
M  V30 34613 H 3386.42 0.194882 5.08427 0
M  V30 34614 H 3385.82 -2.97461 4.81179 0
M  V30 34615 H 3384.37 -3.09447 5.7366 0
M  V30 34616 N 3387.81 -1.50403 0.470808 0
M  V30 34617 C 3388.74 -2.26358 -0.359798 0
M  V30 34618 C 3389.75 -1.31678 -0.957327 0
M  V30 34619 O 3390.94 -1.5719 -0.845782 0
M  V30 34620 C 3388.04 -3.02972 -1.51859 0
M  V30 34621 C 3387.21 -4.25005 -1.0339 0
M  V30 34622 C 3386.27 -4.83915 -2.06671 0
M  V30 34623 O 3385.3 -5.44838 -1.64744 0
M  V30 34624 N 3386.5 -4.70889 -3.39476 0
M  V30 34625 H 3389.26 -2.9828 0.291351 0
M  V30 34626 H 3386.83 -1.59066 0.301577 0
M  V30 34627 H 3388.82 -3.39261 -2.20644 0
M  V30 34628 H 3387.39 -2.3385 -2.07444 0
M  V30 34629 H 3386.61 -3.93825 -0.171943 0
M  V30 34630 H 3387.9 -5.04127 -0.687982 0
M  V30 34631 H 3387.29 -4.22437 -3.76249 0
M  V30 34632 H 3385.85 -5.11448 -4.04059 0
M  V30 34633 N 3389.28 -0.203404 -1.56282 0
M  V30 34634 C 3390.7 0.152307 -1.58872 0
M  V30 34635 C 3390.9 1.60384 -1.2198 0
M  V30 34636 O 3389.96 2.3409 -0.946463 0
M  V30 34637 C 3391.27 -0.157568 -3.00287 0
M  V30 34638 C 3392.82 -0.098342 -3.12845 0
M  V30 34639 C 3393.29 -0.38164 -4.56407 0
M  V30 34640 N 3394.78 -0.330556 -4.62019 0
M  V30 34641 C 3395.52 -0.523497 -5.71005 0
M  V30 34642 N 3395.01 -0.777236 -6.88426 0
M  V30 34643 N 3396.81 -0.457181 -5.60238 0
M  V30 34644 H 3388.96 -1.15051 -1.78541 0
M  V30 34645 H 3391.22 -0.459831 -0.829011 0
M  V30 34646 H 3390.93 -1.16433 -3.31868 0
M  V30 34647 H 3390.8 0.535975 -3.73373 0
M  V30 34648 H 3393.19 0.899035 -2.81072 0
M  V30 34649 H 3393.27 -0.825088 -2.42128 0
M  V30 34650 H 3392.91 -1.37637 -4.88895 0
M  V30 34651 H 3392.84 0.36609 -5.25326 0
M  V30 34652 H 3395.33 -0.141394 -3.77635 0
M  V30 34653 H 3395.65 -0.913046 -7.67387 0
M  V30 34654 H 3393.99 -0.814225 -6.90214 0
M  V30 34655 H 3397.18 -0.259309 -4.67381 0
M  V30 34656 H 3397.36 -0.610961 -6.45113 0
M  V30 34657 N 3390.76 1.57444 0.0701393 0
M  V30 34658 C 3392.01 1.86514 0.767809 0
M  V30 34659 C 3392.32 0.796288 1.78658 0
M  V30 34660 O 3393.53 0.97489 2.53393 0
M  V30 34661 C 3391.99 3.30853 1.41648 0
M  V30 34662 C 3391.59 4.45871 0.436194 0
M  V30 34663 C 3393.34 3.69121 2.09642 0
M  V30 34664 C 3391.24 5.81252 1.09088 0
M  V30 34665 H 3390.17 0.695789 0.290507 0
M  V30 34666 H 3392.83 1.83488 0.0211375 0
M  V30 34667 H 3391.21 3.28496 2.21147 0
M  V30 34668 H 3392.38 4.59623 -0.329103 0
M  V30 34669 H 3390.7 4.16167 -0.139387 0
M  V30 34670 H 3393.29 4.67562 2.59403 0
M  V30 34671 H 3393.64 2.99005 2.89657 0
M  V30 34672 H 3394.17 3.73475 1.36972 0
M  V30 34673 H 3390.91 6.54664 0.331013 0
M  V30 34674 H 3390.43 5.71298 1.827 0
M  V30 34675 H 3392.11 6.26642 1.61023 0
M  V30 34676 N 3392.24 -0.341566 1.53854 0
M  V30 34677 C 3393.17 -1.42509 1.84968 0
M  V30 34678 C 3394.15 -1.54804 0.704972 0
M  V30 34679 O 3395.34 -1.68979 0.957066 0
M  V30 34680 C 3392.47 -2.79533 2.06104 0
M  V30 34681 C 3391.42 -2.82044 3.21924 0
M  V30 34682 C 3390.75 -4.21971 3.28396 0
M  V30 34683 C 3392.05 -2.47402 4.59988 0
M  V30 34684 H 3393.74 -1.1672 2.75712 0
M  V30 34685 H 3391.29 -0.56005 1.32663 0
M  V30 34686 H 3393.24 -3.55382 2.26454 0
M  V30 34687 H 3391.96 -3.06762 1.12093 0
M  V30 34688 H 3390.62 -2.08648 3.01433 0
M  V30 34689 H 3390.27 -4.46313 2.31977 0
M  V30 34690 H 3389.97 -4.24562 4.06228 0
M  V30 34691 H 3391.49 -4.9966 3.5096 0
M  V30 34692 H 3392.91 -3.12965 4.8034 0
M  V30 34693 H 3391.3 -2.61273 5.40237 0
M  V30 34694 H 3392.37 -1.42586 4.63462 0
M  V30 34695 N 3393.72 -1.45621 -0.602683 0
M  V30 34696 C 3394.65 -1.50681 -1.72708 0
M  V30 34697 C 3395.66 -0.397076 -1.57883 0
M  V30 34698 O 3396.85 -0.664396 -1.65674 0
M  V30 34699 C 3393.95 -1.3521 -3.1076 0
M  V30 34700 C 3393.12 -2.59945 -3.51777 0
M  V30 34701 C 3392.18 -2.3896 -4.68812 0
M  V30 34702 O 3391.21 -3.12597 -4.75681 0
M  V30 34703 N 3392.41 -1.43837 -5.62398 0
M  V30 34704 H 3395.18 -2.47622 -1.68829 0
M  V30 34705 H 3392.74 -1.41423 -0.788107 0
M  V30 34706 H 3394.73 -1.18974 -3.86817 0
M  V30 34707 H 3393.3 -0.465257 -3.09118 0
M  V30 34708 H 3392.52 -2.91262 -2.65632 0
M  V30 34709 H 3393.81 -3.42848 -3.75942 0
M  V30 34710 H 3393.21 -0.830768 -5.59567 0
M  V30 34711 H 3391.76 -1.33572 -6.37967 0
M  V30 34712 N 3395.2 0.845612 -1.32993 0
M  V30 34713 C 3396.13 1.9618 -1.18517 0
M  V30 34714 C 3397.14 1.62373 -0.117839 0
M  V30 34715 O 3398.33 1.74673 -0.367641 0
M  V30 34716 C 3395.43 3.29471 -0.79387 0
M  V30 34717 C 3394.6 3.91457 -1.95141 0
M  V30 34718 C 3393.66 5.03094 -1.54218 0
M  V30 34719 O 3392.69 5.22603 -2.25554 0
M  V30 34720 N 3393.89 5.78805 -0.443337 0
M  V30 34721 H 3396.65 2.09137 -2.14667 0
M  V30 34722 H 3394.22 1.02097 -1.25649 0
M  V30 34723 H 3396.21 4.0157 -0.502334 0
M  V30 34724 H 3394.78 3.12506 0.0767482 0
M  V30 34725 H 3394 3.12031 -2.40895 0
M  V30 34726 H 3395.29 4.29605 -2.72611 0
M  V30 34727 H 3394.68 5.65501 0.150198 0
M  V30 34728 H 3393.24 6.51457 -0.211446 0
M  V30 34729 N 3396.67 1.16351 1.06302 0
M  V30 34730 C 3397.61 0.827759 2.13731 0
M  V30 34731 C 3398.62 -0.164955 1.61962 0
M  V30 34732 O 3399.81 0.0597904 1.784 0
M  V30 34733 C 3396.91 0.211682 3.38238 0
M  V30 34734 C 3396.08 1.24448 4.19323 0
M  V30 34735 C 3395.14 0.648218 5.22192 0
M  V30 34736 O 3394.17 1.31705 5.53753 0
M  V30 34737 N 3395.37 -0.565078 5.77743 0
M  V30 34738 H 3398.13 1.75233 2.43133 0
M  V30 34739 H 3395.69 1.06084 1.22302 0
M  V30 34740 H 3397.69 -0.200235 4.04204 0
M  V30 34741 H 3396.26 -0.616437 3.06462 0
M  V30 34742 H 3395.48 1.83257 3.49014 0
M  V30 34743 H 3396.76 1.94147 4.70303 0
M  V30 34744 H 3396.16 -1.12663 5.54368 0
M  V30 34745 H 3394.72 -0.919207 6.45286 0
M  V30 34746 N 3398.15 -1.24835 0.961982 0
M  V30 34747 C 3399.08 -2.24831 0.445369 0
M  V30 34748 C 3400.1 -1.56663 -0.44277 0
M  V30 34749 O 3401.29 -1.76743 -0.249865 0
M  V30 34750 C 3398.39 -3.36798 -0.376894 0
M  V30 34751 C 3397.56 -4.34533 0.499984 0
M  V30 34752 C 3396.62 -5.25531 -0.26531 0
M  V30 34753 O 3395.64 -5.68191 0.338807 0
M  V30 34754 N 3396.85 -5.59245 -1.55644 0
M  V30 34755 H 3399.61 -2.69791 1.3051 0
M  V30 34756 H 3397.17 -1.38817 0.833162 0
M  V30 34757 H 3399.16 -3.94639 -0.896762 0
M  V30 34758 H 3397.73 -2.91169 -1.13752 0
M  V30 34759 H 3396.95 -3.75463 1.20088 0
M  V30 34760 H 3398.24 -4.96806 1.09823 0
M  V30 34761 H 3397.64 -5.26504 -2.06906 0
M  V30 34762 H 3396.2 -6.1964 -2.02212 0
M  V30 34763 N 3399.63 -0.731417 -1.396 0
M  V30 34764 C 3400.56 -0.0379136 -2.28169 0
M  V30 34765 C 3401.54 0.751408 -1.44196 0
M  V30 34766 O 3402.72 0.734722 -1.73592 0
M  V30 34767 C 3399.85 0.953532 -3.25001 0
M  V30 34768 C 3398.9 0.253128 -4.25748 0
M  V30 34769 S 3399.73 -1.03034 -5.25494 0
M  V30 34770 C 3400.89 -0.0414027 -6.25886 0
M  V30 34771 H 3401.12 -0.789023 -2.86639 0
M  V30 34772 H 3398.65 -0.523069 -1.4527 0
M  V30 34773 H 3400.61 1.52028 -3.8131 0
M  V30 34774 H 3399.27 1.67745 -2.65557 0
M  V30 34775 H 3398.46 1.0032 -4.93915 0
M  V30 34776 H 3398.07 -0.241492 -3.7322 0
M  V30 34777 H 3400.36 0.800186 -6.72758 0
M  V30 34778 H 3401.3 -0.690114 -7.04729 0
M  V30 34779 H 3401.71 0.329396 -5.63538 0
M  V30 34780 N 3401.11 1.50152 -0.478778 0
M  V30 34781 C 3402.06 2.2869 0.311386 0
M  V30 34782 C 3403.03 1.34083 0.980352 0
M  V30 34783 O 3404.21 1.63027 0.991309 0
M  V30 34784 C 3401.35 3.16177 1.38297 0
M  V30 34785 C 3400.46 4.25822 0.728009 0
M  V30 34786 C 3399.6 5.00555 1.77814 0
M  V30 34787 C 3398.64 6.02065 1.10384 0
M  V30 34788 N 3397.77 6.70047 2.09716 0
M  V30 34789 H 3402.61 2.95761 -0.364644 0
M  V30 34790 H 3400.15 1.45846 -0.191671 0
M  V30 34791 H 3402.11 3.65258 2.01599 0
M  V30 34792 H 3400.74 2.51137 2.02806 0
M  V30 34793 H 3399.79 3.80396 -0.0177695 0
M  V30 34794 H 3401.1 4.98414 0.196121 0
M  V30 34795 H 3400.26 5.53393 2.48678 0
M  V30 34796 H 3399 4.27686 2.34384 0
M  V30 34797 H 3398 5.48479 0.380864 0
M  V30 34798 H 3399.23 6.7691 0.544926 0
M  V30 34799 H 3397.17 5.99964 2.6529 0
M  V30 34800 H 3397.09 7.38541 1.61533 0
M  V30 34801 H 3398.36 7.275 2.79937 0
M  V30 34802 N 3402.59 0.211689 1.56172 0
M  V30 34803 C 3403.52 -0.734619 2.17108 0
M  V30 34804 C 3404.53 -1.16476 1.13742 0
M  V30 34805 O 3405.72 -1.09762 1.40765 0
M  V30 34806 C 3402.82 -2.00556 2.73186 0
M  V30 34807 C 3401.99 -1.73257 4.01623 0
M  V30 34808 C 3401.05 -2.8496 4.42362 0
M  V30 34809 O 3400.08 -2.53854 5.09458 0
M  V30 34810 N 3401.28 -4.13695 4.07231 0
M  V30 34811 H 3404.05 -0.213423 2.98939 0
M  V30 34812 H 3401.61 0.0303182 1.61872 0
M  V30 34813 H 3403.6 -2.74456 2.97415 0
M  V30 34814 H 3402.17 -2.43751 1.95715 0
M  V30 34815 H 3401.39 -0.830508 3.85352 0
M  V30 34816 H 3402.68 -1.52436 4.85428 0
M  V30 34817 H 3402.07 -4.41814 3.53294 0
M  V30 34818 H 3400.63 -4.8417 4.36375 0
M  V30 34819 N 3404.06 -1.57479 -0.0617887 0
M  V30 34820 C 3405 -2.01118 -1.09928 0
M  V30 34821 C 3406.01 -0.918674 -1.34403 0
M  V30 34822 O 3407.2 -1.19644 -1.32467 0
M  V30 34823 C 3404.3 -2.34353 -2.44809 0
M  V30 34824 C 3403.47 -3.65577 -2.4015 0
M  V30 34825 C 3402.53 -3.86369 -3.57219 0
M  V30 34826 O 3401.56 -4.57836 -3.38194 0
M  V30 34827 N 3402.76 -3.29488 -4.77931 0
M  V30 34828 H 3405.52 -2.90734 -0.727569 0
M  V30 34829 H 3403.08 -1.59954 -0.250287 0
M  V30 34830 H 3405.08 -2.45428 -3.21788 0
M  V30 34831 H 3403.65 -1.50576 -2.73945 0
M  V30 34832 H 3402.87 -3.65164 -1.4849 0
M  V30 34833 H 3404.15 -4.51721 -2.34148 0
M  V30 34834 H 3403.55 -2.71499 -4.96291 0
M  V30 34835 H 3402.11 -3.45995 -5.52386 0
M  V30 34836 N 3405.54 0.333401 -1.54033 0
M  V30 34837 C 3406.79 1.06997 -1.70981 0
M  V30 34838 C 3407.1 1.89488 -0.485129 0
M  V30 34839 O 3408.31 2.66161 -0.535759 0
M  V30 34840 C 3406.77 1.9517 -3.02385 0
M  V30 34841 C 3406.37 1.17837 -4.32225 0
M  V30 34842 C 3408.12 2.68622 -3.28698 0
M  V30 34843 C 3406.03 2.05099 -5.54697 0
M  V30 34844 H 3404.96 0.403168 -0.637159 0
M  V30 34845 H 3407.61 0.328808 -1.8053 0
M  V30 34846 H 3405.99 2.73146 -2.86718 0
M  V30 34847 H 3407.16 0.447008 -4.58627 0
M  V30 34848 H 3405.48 0.561093 -4.12602 0
M  V30 34849 H 3408.07 3.34199 -4.17391 0
M  V30 34850 H 3408.42 3.35734 -2.46147 0
M  V30 34851 H 3408.95 1.97714 -3.45187 0
M  V30 34852 H 3405.69 1.42512 -6.39821 0
M  V30 34853 H 3405.21 2.75996 -5.32528 0
M  V30 34854 H 3406.89 2.63915 -5.90726 0
M  V30 34855 N 3407.02 1.45939 0.594952 0
M  V30 34856 C 3408.27 1.50316 1.35091 0
M  V30 34857 C 3408.59 0.151349 1.94412 0
M  V30 34858 O 3407.86 -0.820756 1.77878 0
M  V30 34859 H 3406.44 0.553595 0.50154 0
M  V30 34860 H 3409.1 1.81984 0.697703 0
M  V30 34861 H 3408.2 2.24905 2.16389 0
M  V30 34862 N 3408.5 -0.838547 1.3344 0
M  V30 34863 C 3409.72 -1.63111 1.281 0
M  V30 34864 C 3410.15 -1.87539 -0.145164 0
M  V30 34865 O 3409.51 -1.43973 -1.10189 0
M  V30 34866 C 3409.55 -2.95823 2.06206 0
M  V30 34867 O 3408.66 -3.87149 1.42088 0
M  V30 34868 H 3408 -0.496674 0.440694 0
M  V30 34869 H 3410.53 -1.04322 1.76006 0
M  V30 34870 H 3410.54 -3.45518 2.16983 0
M  V30 34871 H 3409.21 -2.77366 3.09905 0
M  V30 34872 H 3407.79 -3.45638 1.39959 0
M  V30 34873 N 3409.98 -1.16914 -1.05683 0
M  V30 34874 C 3411.39 -0.961182 -1.60057 0
M  V30 34875 C 3411.74 0.493376 -1.89895 0
M  V30 34876 O 3410.86 1.36775 -1.67695 0
M  V30 34877 C 3411.46 -1.73842 -2.908 0
M  V30 34878 C 3410.02 -1.57528 -3.41851 0
M  V30 34879 C 3409.16 -1.74322 -2.15655 0
M  V30 34880 H 3412.12 -1.31694 -0.885568 0
M  V30 34881 H 3412.14 -1.21787 -3.60483 0
M  V30 34882 H 3411.65 -2.79702 -2.69051 0
M  V30 34883 H 3409.75 -0.541349 -3.68646 0
M  V30 34884 H 3409.86 -2.36309 -4.16767 0
M  V30 34885 H 3408.23 -1.17119 -2.26175 0
M  V30 34886 H 3409.01 -2.81584 -1.96381 0
M  V30 34887 N 3411.45 1.24323 -0.968589 0
M  V30 34888 C 3412.7 1.92039 -0.629716 0
M  V30 34889 C 3413.02 1.76081 0.837876 0
M  V30 34890 O 3412.29 1.13291 1.59818 0
M  V30 34891 H 3410.87 0.710738 -0.229914 0
M  V30 34892 H 3413.54 1.51198 -1.22985 0
M  V30 34893 H 3412.63 2.99697 -0.871087 0
M  V30 34894 N 3412.93 0.73881 1.3921 0
M  V30 34895 C 3413.86 0.0616891 2.29117 0
M  V30 34896 C 3414.88 -0.699436 1.47009 0
M  V30 34897 O 3416.07 -0.542969 1.70041 0
M  V30 34898 C 3413.17 -0.936836 3.25694 0
M  V30 34899 C 3412.34 -0.236438 4.3676 0
M  V30 34900 C 3411.4 -1.14361 5.13622 0
M  V30 34901 O 3410.42 -0.619663 5.65817 0
M  V30 34902 N 3411.63 -2.47301 5.25188 0
M  V30 34903 H 3414.39 0.833761 2.87869 0
M  V30 34904 H 3411.95 0.58835 1.50831 0
M  V30 34905 H 3413.94 -1.54641 3.7399 0
M  V30 34906 H 3412.51 -1.61009 2.67946 0
M  V30 34907 H 3411.73 0.553663 3.90292 0
M  V30 34908 H 3413.02 0.248797 5.08191 0
M  V30 34909 H 3412.42 -2.92341 4.84307 0
M  V30 34910 H 3410.98 -3.03345 5.7691 0
M  V30 34911 N 3414.41 -1.49895 0.486734 0
M  V30 34912 C 3415.82 -1.86666 0.0354234 0
M  V30 34913 C 3416.17 -1.40029 -1.37428 0
M  V30 34914 O 3415.3 -0.771975 -2.02162 0
M  V30 34915 C 3415.89 -3.38751 0.057507 0
M  V30 34916 C 3414.45 -3.74876 -0.338398 0
M  V30 34917 C 3413.6 -2.73847 0.436244 0
M  V30 34918 H 3416.55 -1.42416 0.70024 0
M  V30 34919 H 3416.57 -3.73213 -0.741109 0
M  V30 34920 H 3416.08 -3.72665 1.08363 0
M  V30 34921 H 3414.18 -3.46567 -1.36829 0
M  V30 34922 H 3414.3 -4.79091 -0.0288677 0
M  V30 34923 H 3412.66 -2.54453 -0.112097 0
M  V30 34924 H 3413.44 -3.10605 1.46217 0
M  V30 34925 N 3415.89 -0.219968 -1.56057 0
M  V30 34926 C 3416.84 0.707282 -2.21586 0
M  V30 34927 C 3417.83 1.20091 -1.19476 0
M  V30 34928 O 3419.04 1.16093 -1.37559 0
M  V30 34929 H 3415.41 0.246502 -0.710451 0
M  V30 34930 H 3417.38 0.131162 -2.98112 0
M  V30 34931 C 3416.13 1.90539 -2.90844 0
M  V30 34932 H 3415.46 1.53466 -3.69172 0
M  V30 34933 H 3416.9 2.532 -3.40096 0
M  V30 34934 C 3415.35 2.7598 -1.93227 0
M  V30 34935 O 3415.88 3.74686 -1.44822 0
M  V30 34936 N 3414.09 2.41983 -1.60912 0
M  V30 34937 H 3413.64 1.61771 -2.0047 0
M  V30 34938 H 3413.6 2.9943 -0.958587 0
M  V30 34939 N 3417.37 1.57509 0.0534363 0
M  V30 34940 C 3418.78 1.76692 0.603068 0
M  V30 34941 C 3419.13 0.847892 1.76933 0
M  V30 34942 O 3418.25 0.0365342 2.16369 0
M  V30 34943 C 3418.85 3.20419 1.10078 0
M  V30 34944 C 3417.41 3.40882 1.59612 0
M  V30 34945 C 3416.56 2.72314 0.523468 0
M  V30 34946 H 3419.51 1.57757 -0.172778 0
M  V30 34947 H 3419.53 3.2559 1.96904 0
M  V30 34948 H 3419.04 3.87283 0.25175 0
M  V30 34949 H 3417.14 2.79159 2.46781 0
M  V30 34950 H 3417.25 4.49407 1.66042 0
M  V30 34951 H 3415.62 2.35389 0.972844 0
M  V30 34952 H 3416.4 3.41845 -0.315689 0
M  V30 34953 N 3418.85 -0.325228 1.54208 0
M  V30 34954 C 3419.78 -1.42398 1.7832 0
M  V30 34955 C 3420.76 -1.49768 0.633104 0
M  V30 34956 O 3421.94 -1.67204 0.870353 0
M  V30 34957 C 3419.07 -2.80505 1.89827 0
M  V30 34958 C 3418.11 -2.90674 3.12107 0
M  V30 34959 S 3418.95 -2.55254 4.7075 0
M  V30 34960 C 3420.1 -3.95435 4.85161 0
M  V30 34961 H 3420.34 -1.21731 2.71236 0
M  V30 34962 H 3417.87 -0.521967 1.4531 0
M  V30 34963 H 3419.83 -3.60063 1.97143 0
M  V30 34964 H 3418.49 -2.98456 0.978925 0
M  V30 34965 H 3417.68 -3.91916 3.16888 0
M  V30 34966 H 3417.28 -2.19086 3.03113 0
M  V30 34967 H 3419.57 -4.9017 4.67696 0
M  V30 34968 H 3420.52 -3.95638 5.87261 0
M  V30 34969 H 3420.93 -3.84313 4.13478 0
M  V30 34970 N 3420.32 -1.46252 -0.587204 0
M  V30 34971 C 3421.55 -1.55129 -1.37658 0
M  V30 34972 C 3421.97 -0.191522 -1.87122 0
M  V30 34973 O 3421.33 0.827548 -1.61311 0
M  V30 34974 C 3421.38 -2.55644 -2.54319 0
M  V30 34975 O 3420.48 -2.08836 -3.55614 0
M  V30 34976 H 3419.82 -0.522185 -0.410145 0
M  V30 34977 H 3422.35 -1.91786 -0.712705 0
M  V30 34978 H 3422.36 -2.75108 -3.01296 0
M  V30 34979 H 3421.04 -3.54391 -2.17669 0
M  V30 34980 H 3419.62 -1.9934 -3.15147 0
M  V30 34981 N 3421.8 0.831459 -1.33883 0
M  V30 34982 C 3423.21 1.40356 -1.23114 0
M  V30 34983 C 3423.56 1.95649 0.146909 0
M  V30 34984 O 3422.69 1.89393 1.04686 0
M  V30 34985 C 3423.28 2.55146 -2.22903 0
M  V30 34986 C 3421.84 3.08288 -2.15952 0
M  V30 34987 C 3420.99 1.8112 -2.09978 0
M  V30 34988 H 3423.94 0.636584 -1.45373 0
M  V30 34989 H 3423.96 3.32994 -1.84106 0
M  V30 34990 H 3423.47 2.14872 -3.23189 0
M  V30 34991 H 3421.57 3.53088 -1.18993 0
M  V30 34992 H 3421.69 3.67958 -3.06828 0
M  V30 34993 H 3420.05 2.0167 -1.55567 0
M  V30 34994 H 3420.83 1.43032 -3.12085 0
M  V30 34995 N 3423.28 1.17472 1.05062 0
M  V30 34996 C 3424.21 0.850381 2.12841 0
M  V30 34997 C 3425.22 -0.147767 1.62128 0
M  V30 34998 O 3426.41 0.0787088 1.78326 0
M  V30 34999 C 3423.51 0.247545 3.37995 0
M  V30 35000 C 3422.69 1.28888 4.17979 0
M  V30 35001 C 3421.75 0.703567 5.21475 0
M  V30 35002 O 3420.77 1.37571 5.52325 0
M  V30 35003 N 3421.97 -0.503769 5.7831 0
M  V30 35004 H 3424.74 1.77802 2.41261 0
M  V30 35005 H 3422.3 1.07375 1.2117 0
M  V30 35006 H 3424.29 -0.157353 4.04394 0
M  V30 35007 H 3422.86 -0.583898 3.07098 0
M  V30 35008 H 3422.08 1.86948 3.4705 0
M  V30 35009 H 3423.37 1.99124 4.68217 0
M  V30 35010 H 3422.77 -1.06777 5.55531 0
M  V30 35011 H 3421.32 -0.850715 6.46224 0
M  V30 35012 N 3424.76 -1.23807 0.975168 0
M  V30 35013 C 3425.69 -2.24346 0.46919 0
M  V30 35014 C 3426.7 -1.57124 -0.426129 0
M  V30 35015 O 3427.89 -1.76998 -0.231105 0
M  V30 35016 C 3424.99 -3.37179 -0.34115 0
M  V30 35017 C 3424.16 -4.33978 0.546044 0
M  V30 35018 C 3423.22 -5.25783 -0.209555 0
M  V30 35019 O 3422.25 -5.67799 0.399053 0
M  V30 35020 N 3423.45 -5.60865 -1.49704 0
M  V30 35021 H 3426.22 -2.68392 1.33364 0
M  V30 35022 H 3423.78 -1.37925 0.847838 0
M  V30 35023 H 3425.77 -3.95568 -0.854854 0
M  V30 35024 H 3424.34 -2.92359 -1.10658 0
M  V30 35025 H 3423.56 -3.74168 1.24064 0
M  V30 35026 H 3424.85 -4.95613 1.15086 0
M  V30 35027 H 3424.25 -5.28669 -2.0131 0
M  V30 35028 H 3422.8 -6.2175 -1.95628 0
M  V30 35029 N 3426.24 -0.746182 -1.38816 0
M  V30 35030 C 3427.19 -0.0894021 -2.27825 0
M  V30 35031 C 3428.17 0.700987 -1.44827 0
M  V30 35032 O 3429.36 0.568159 -1.67633 0
M  V30 35033 C 3426.49 0.808623 -3.33641 0
M  V30 35034 C 3425.58 0.0117836 -4.24098 0
M  V30 35035 N 3425.97 -1.02083 -4.95391 0
M  V30 35036 C 3424.27 0.239737 -4.45355 0
M  V30 35037 C 3424.97 -1.5023 -5.61966 0
M  V30 35038 N 3423.94 -0.818911 -5.37396 0
M  V30 35039 H 3427.74 -0.880379 -2.80404 0
M  V30 35040 H 3425.26 -0.581538 -1.51631 0
M  V30 35041 H 3427.26 1.29471 -3.96286 0
M  V30 35042 H 3425.92 1.59863 -2.82619 0
M  V30 35043 H 3426.93 -1.40246 -4.98549 0
M  V30 35044 H 3423.6 1.00367 -4.05256 0
M  V30 35045 H 3424.99 -2.36203 -6.29013 0
M  V30 35046 N 3427.71 1.49635 -0.494676 0
M  V30 35047 C 3428.65 2.25748 0.33362 0
M  V30 35048 C 3429.62 1.30058 0.975888 0
M  V30 35049 O 3430.81 1.59334 1.00722 0
M  V30 35050 C 3427.94 3.05169 1.46933 0
M  V30 35051 C 3426.98 4.15965 0.942076 0
M  V30 35052 S 3427.81 5.35255 -0.162113 0
M  V30 35053 C 3428.97 6.18229 0.976913 0
M  V30 35054 H 3429.2 2.95654 -0.312413 0
M  V30 35055 H 3426.74 1.51842 -0.279881 0
M  V30 35056 H 3428.69 3.51514 2.1201 0
M  V30 35057 H 3427.36 2.34745 2.08695 0
M  V30 35058 H 3426.55 4.71028 1.79301 0
M  V30 35059 H 3426.15 3.72179 0.368621 0
M  V30 35060 H 3428.44 6.50792 1.88352 0
M  V30 35061 H 3429.39 7.06571 0.465044 0
M  V30 35062 H 3429.79 5.50681 1.24139 0
M  V30 35063 N 3429.19 0.228241 1.55939 0
M  V30 35064 C 3430.12 -0.673661 2.23571 0
M  V30 35065 C 3431.1 -1.19587 1.20966 0
M  V30 35066 O 3432.29 -1.23865 1.4957 0
M  V30 35067 C 3429.42 -1.87901 2.9208 0
M  V30 35068 C 3428.37 -1.49036 4.01214 0
M  V30 35069 C 3427.7 -2.77503 4.57052 0
M  V30 35070 C 3429 -0.675349 5.17915 0
M  V30 35071 H 3430.69 -0.109753 2.99199 0
M  V30 35072 H 3428.24 -0.0513479 1.43908 0
M  V30 35073 H 3430.19 -2.51545 3.38087 0
M  V30 35074 H 3428.91 -2.468 2.1391 0
M  V30 35075 H 3427.57 -0.877349 3.55947 0
M  V30 35076 H 3427.22 -3.3456 3.75605 0
M  V30 35077 H 3426.92 -2.52229 5.30711 0
M  V30 35078 H 3428.45 -3.42078 5.05782 0
M  V30 35079 H 3429.86 -1.21565 5.60263 0
M  V30 35080 H 3428.26 -0.519431 5.97848 0
M  V30 35081 H 3429.33 0.31658 4.83865 0
M  V30 35082 N 3430.67 -1.57536 -0.0450825 0
M  V30 35083 C 3431.9 -1.93168 -0.755034 0
M  V30 35084 C 3432.32 -0.826944 -1.68947 0
M  V30 35085 O 3431.68 0.218502 -1.79978 0
M  V30 35086 C 3431.73 -3.27832 -1.50196 0
M  V30 35087 O 3430.83 -3.1895 -2.61428 0
M  V30 35088 H 3430.17 -0.631819 -0.204208 0
M  V30 35089 H 3432.7 -2.04599 -0.00533908 0
M  V30 35090 H 3432.71 -3.62343 -1.8754 0
M  V30 35091 H 3431.39 -4.07806 -0.81652 0
M  V30 35092 H 3429.96 -2.96043 -2.26744 0
M  V30 35093 N 3432.15 0.317045 -1.54378 0
M  V30 35094 C 3433.4 1.05213 -1.72553 0
M  V30 35095 C 3433.72 1.88333 -0.505533 0
M  V30 35096 O 3432.99 1.89918 0.480405 0
M  V30 35097 H 3431.57 0.391436 -0.636229 0
M  V30 35098 H 3434.23 0.351906 -1.91697 0
M  V30 35099 H 3433.33 1.71444 -2.60794 0
M  V30 35100 N 3433.63 1.46561 0.57944 0
M  V30 35101 C 3434.56 1.53409 1.70289 0
M  V30 35102 C 3435.57 0.422144 1.57232 0
M  V30 35103 O 3436.76 0.690669 1.64597 0
M  V30 35104 C 3433.86 1.40137 3.08569 0
M  V30 35105 C 3433.03 2.65509 3.47597 0
M  V30 35106 C 3432.09 2.46389 4.64951 0
M  V30 35107 O 3431.12 3.20125 4.70647 0
M  V30 35108 N 3432.32 1.52766 5.60038 0
M  V30 35109 H 3435.09 2.50277 1.64868 0
M  V30 35110 H 3432.65 1.42659 0.765508 0
M  V30 35111 H 3434.64 1.25113 3.84875 0
M  V30 35112 H 3433.21 0.514376 3.08339 0
M  V30 35113 H 3432.43 2.95451 2.60964 0
M  V30 35114 H 3433.72 3.48786 3.7044 0
M  V30 35115 H 3433.11 0.919685 5.58174 0
M  V30 35116 H 3431.67 1.43704 6.35761 0
M  V30 35117 N 3435.1 -0.824347 1.34322 0
M  V30 35118 C 3436.52 -1.39701 1.23857 0
M  V30 35119 C 3436.87 -1.95724 -0.136532 0
M  V30 35120 O 3435.99 -1.89946 -1.0368 0
M  V30 35121 C 3436.59 -2.53961 2.24253 0
M  V30 35122 C 3435.15 -3.07139 2.17584 0
M  V30 35123 C 3434.29 -1.80004 2.10936 0
M  V30 35124 H 3437.24 -0.628866 1.45709 0
M  V30 35125 H 3437.26 -3.32013 1.8587 0
M  V30 35126 H 3436.78 -2.13156 3.24324 0
M  V30 35127 H 3434.88 -3.52452 1.20864 0
M  V30 35128 H 3434.99 -3.66326 3.08775 0
M  V30 35129 H 3433.35 -2.00843 1.56634 0
M  V30 35130 H 3434.14 -1.41375 3.12839 0
M  V30 35131 N 3436.58 -1.18028 -1.04437 0
M  V30 35132 C 3437.51 -0.861657 -2.12387 0
M  V30 35133 C 3438.53 0.139167 -1.62204 0
M  V30 35134 O 3439.72 -0.0881647 -1.78282 0
M  V30 35135 C 3436.82 -0.265466 -3.37859 0
M  V30 35136 C 3435.99 -1.31103 -4.1729 0
M  V30 35137 C 3435.05 -0.731213 -5.21095 0
M  V30 35138 O 3434.07 -1.40498 -5.51588 0
M  V30 35139 N 3435.28 0.473092 -5.78569 0
M  V30 35140 H 3438.04 -1.79079 -2.40314 0
M  V30 35141 H 3435.6 -1.08016 -1.20599 0
M  V30 35142 H 3437.59 0.135905 -4.04472 0
M  V30 35143 H 3436.16 0.567604 -3.07404 0
M  V30 35144 H 3435.38 -1.88786 -3.46054 0
M  V30 35145 H 3436.67 -2.01604 -4.67154 0
M  V30 35146 H 3436.07 1.03829 -5.5609 0
M  V30 35147 H 3434.63 0.816432 -6.46667 0
M  V30 35148 N 3438.06 1.23288 -0.98172 0
M  V30 35149 C 3439.02 2.23035 -0.528032 0
M  V30 35150 C 3440.02 1.56171 0.383056 0
M  V30 35151 O 3441.21 1.73303 0.176564 0
M  V30 35152 C 3438.35 3.401 0.233441 0
M  V30 35153 H 3439.54 2.64687 -1.41 0
M  V30 35154 H 3437.09 1.36144 -0.767748 0
M  V30 35155 H 3437.83 3.03906 1.13189 0
M  V30 35156 H 3437.61 3.89838 -0.420573 0
M  V30 35157 H 3439.1 4.14102 0.539412 0
M  V30 35158 N 3439.54 0.753533 1.38418 0
M  V30 35159 C 3440.76 0.31921 2.04929 0
M  V30 35160 C 3441.19 -1.04413 1.56459 0
M  V30 35161 O 3440.55 -1.66539 0.716557 0
M  V30 35162 C 3440.59 0.351117 3.58887 0
M  V30 35163 O 3439.7 -0.654892 4.07167 0
M  V30 35164 H 3439.04 0.141354 0.64878 0
M  V30 35165 H 3441.57 1.02464 1.77094 0
M  V30 35166 H 3441.58 0.201978 4.075 0
M  V30 35167 H 3440.25 1.34582 3.93523 0
M  V30 35168 H 3438.83 -0.47037 3.69922 0
M  V30 35169 N 3441.02 -1.49371 0.502605 0
M  V30 35170 C 3441.97 -2.26093 -0.294252 0
M  V30 35171 C 3442.95 -1.31007 -0.934124 0
M  V30 35172 O 3444.14 -1.55719 -0.841458 0
M  V30 35173 C 3441.27 -3.15336 -1.35714 0
M  V30 35174 C 3440.36 -4.17884 -0.723432 0
M  V30 35175 N 3440.75 -5.05498 0.174876 0
M  V30 35176 C 3439.05 -4.35014 -0.98383 0
M  V30 35177 C 3439.75 -5.79209 0.537775 0
M  V30 35178 N 3438.72 -5.43518 -0.0946844 0
M  V30 35179 H 3442.53 -2.91203 0.397253 0
M  V30 35180 H 3440.04 -1.5924 0.318788 0
M  V30 35181 H 3442.04 -3.68934 -1.94148 0
M  V30 35182 H 3440.7 -2.51778 -2.05031 0
M  V30 35183 H 3441.71 -5.15016 0.545789 0
M  V30 35184 H 3438.38 -3.82661 -1.66963 0
M  V30 35185 H 3439.77 -6.59735 1.27278 0
M  V30 35186 N 3442.49 -0.236508 -1.55815 0
M  V30 35187 C 3443.42 0.661795 -2.23925 0
M  V30 35188 C 3444.41 1.18944 -1.21599 0
M  V30 35189 O 3445.59 1.2307 -1.50225 0
M  V30 35190 C 3442.72 1.86349 -2.93072 0
M  V30 35191 C 3441.67 1.46906 -4.01998 0
M  V30 35192 C 3441 2.75075 -4.58517 0
M  V30 35193 C 3442.3 0.647873 -5.18266 0
M  V30 35194 H 3443.99 0.0938842 -2.99253 0
M  V30 35195 H 3441.54 0.0437154 -1.43934 0
M  V30 35196 H 3443.49 2.49749 -3.39416 0
M  V30 35197 H 3442.22 2.45662 -2.15216 0
M  V30 35198 H 3440.88 0.85846 -3.56407 0
M  V30 35199 H 3440.52 3.32563 -3.77374 0
M  V30 35200 H 3440.22 2.49411 -5.32041 0
M  V30 35201 H 3441.75 3.39391 -5.07589 0
M  V30 35202 H 3443.16 1.18592 -5.609 0
M  V30 35203 H 3441.56 0.487718 -5.98115 0
M  V30 35204 H 3442.63 -0.342236 -4.83691 0
M  V30 35205 N 3443.97 1.57557 0.0367273 0
M  V30 35206 C 3445.38 1.77321 0.584293 0
M  V30 35207 C 3445.73 0.866611 1.76024 0
M  V30 35208 O 3444.86 0.059481 2.16318 0
M  V30 35209 C 3445.45 3.21568 1.06674 0
M  V30 35210 C 3444.01 3.42556 1.55988 0
M  V30 35211 C 3443.16 2.72854 0.494556 0
M  V30 35212 H 3446.11 1.57565 -0.189501 0
M  V30 35213 H 3446.13 3.2766 1.9344 0
M  V30 35214 H 3445.64 3.87528 0.210659 0
M  V30 35215 H 3443.75 2.81761 2.43806 0
M  V30 35216 H 3443.86 4.51143 1.61266 0
M  V30 35217 H 3442.22 2.36407 0.947823 0
M  V30 35218 H 3443.01 3.41491 -0.351928 0
M  V30 35219 N 3445.45 -0.308854 1.54544 0
M  V30 35220 C 3446.7 -1.04297 1.73109 0
M  V30 35221 C 3447.02 -1.88062 0.515514 0
M  V30 35222 O 3446.29 -1.9017 -0.470327 0
M  V30 35223 H 3444.87 -0.388056 0.638296 0
M  V30 35224 H 3447.53 -0.341735 1.91881 0
M  V30 35225 H 3446.63 -1.70058 2.617 0
M  V30 35226 N 3446.93 -1.46867 -0.571659 0
M  V30 35227 C 3447.86 -1.5431 -1.69473 0
M  V30 35228 C 3448.87 -0.430476 -1.57006 0
M  V30 35229 O 3450.06 -0.699389 -1.64228 0
M  V30 35230 C 3447.16 -1.41771 -3.07822 0
M  V30 35231 C 3446.34 -2.67348 -3.46185 0
M  V30 35232 C 3445.4 -2.48851 -4.63637 0
M  V30 35233 O 3444.42 -3.22616 -4.68943 0
M  V30 35234 N 3445.62 -1.55734 -5.5922 0
M  V30 35235 H 3448.39 -2.51148 -1.63539 0
M  V30 35236 H 3445.95 -1.43063 -0.757931 0
M  V30 35237 H 3447.94 -1.27152 -3.84206 0
M  V30 35238 H 3446.51 -0.530721 -3.08062 0
M  V30 35239 H 3445.73 -2.96831 -2.59394 0
M  V30 35240 H 3447.02 -3.50745 -3.68585 0
M  V30 35241 H 3446.42 -0.949273 -5.57678 0
M  V30 35242 H 3444.97 -1.47074 -6.3499 0
M  V30 35243 N 3448.41 0.817212 -1.34757 0
M  V30 35244 C 3449.34 1.93622 -1.22651 0
M  V30 35245 C 3450.35 1.62086 -0.152254 0
M  V30 35246 O 3451.54 1.73854 -0.404609 0
M  V30 35247 C 3448.64 3.27713 -0.863577 0
M  V30 35248 C 3447.81 3.8723 -2.034 0
M  V30 35249 C 3446.87 4.99709 -1.64855 0
M  V30 35250 O 3445.9 5.17701 -2.36589 0
M  V30 35251 N 3447.1 5.77734 -0.56601 0
M  V30 35252 H 3449.87 2.04536 -2.19055 0
M  V30 35253 H 3447.43 0.99409 -1.27787 0
M  V30 35254 H 3449.42 4.00414 -0.5874 0
M  V30 35255 H 3447.99 3.12598 0.0104438 0
M  V30 35256 H 3447.21 3.06851 -2.47459 0
M  V30 35257 H 3448.5 4.23726 -2.81662 0
M  V30 35258 H 3447.9 5.65692 0.0302136 0
M  V30 35259 H 3446.45 6.50862 -0.349582 0
M  V30 35260 N 3449.89 1.1858 1.0381 0
M  V30 35261 C 3451.13 0.977102 1.76453 0
M  V30 35262 C 3451.45 -0.493931 1.89261 0
M  V30 35263 O 3452.65 -0.82121 2.58783 0
M  V30 35264 C 3451.11 1.69923 3.17261 0
M  V30 35265 C 3450.72 3.20974 3.12537 0
M  V30 35266 C 3452.46 1.57344 3.94263 0
M  V30 35267 C 3450.37 3.85815 4.48219 0
M  V30 35268 H 3449.3 0.36196 0.661438 0
M  V30 35269 H 3451.95 1.4198 1.16249 0
M  V30 35270 H 3450.33 1.18431 3.77876 0
M  V30 35271 H 3451.51 3.79511 2.61358 0
M  V30 35272 H 3449.82 3.33724 2.49033 0
M  V30 35273 H 3452.42 2.03146 4.94607 0
M  V30 35274 H 3452.76 0.526106 4.12962 0
M  V30 35275 H 3453.29 2.0613 3.40228 0
M  V30 35276 H 3450.03 4.90606 4.34725 0
M  V30 35277 H 3449.55 3.32066 4.99492 0
M  V30 35278 H 3451.23 3.88828 5.17128 0
M  V30 35279 N 3451.36 -1.22766 0.988245 0
M  V30 35280 C 3452.33 -2.22752 0.539852 0
M  V30 35281 C 3453.33 -1.56372 -0.374769 0
M  V30 35282 O 3454.52 -1.73394 -0.167371 0
M  V30 35283 C 3451.65 -3.40219 -0.215402 0
M  V30 35284 H 3452.84 -2.63935 1.42402 0
M  V30 35285 H 3450.39 -1.35735 0.774957 0
M  V30 35286 H 3451.13 -3.04502 -1.11576 0
M  V30 35287 H 3450.91 -3.89609 0.441241 0
M  V30 35288 H 3452.4 -4.14382 -0.517444 0
M  V30 35289 N 3452.84 -0.760864 -1.38017 0
M  V30 35290 C 3454.07 -0.331321 -2.0423 0
M  V30 35291 C 3454.48 1.04282 -1.57387 0
M  V30 35292 O 3453.84 1.66368 -0.750198 0
M  V30 35293 C 3453.89 -0.353085 -3.59772 0
M  V30 35294 O 3453.61 -1.67301 -4.04898 0
M  V30 35295 C 3455.11 0.0894163 -4.4321 0
M  V30 35296 H 3452.33 -0.14042 -0.656143 0
M  V30 35297 H 3454.88 -1.03175 -1.76565 0
M  V30 35298 H 3453.03 0.298668 -3.86247 0
M  V30 35299 H 3453.45 -1.60417 -4.99366 0
M  V30 35300 H 3454.92 0.0230292 -5.51995 0
M  V30 35301 H 3455.4 1.13831 -4.24192 0
M  V30 35302 H 3456 -0.533736 -4.21938 0
M  V30 35303 N 3454.32 1.49102 -0.510519 0
M  V30 35304 C 3455.54 2.07379 0.0292749 0
M  V30 35305 C 3455.97 1.36715 1.29192 0
M  V30 35306 O 3455.33 0.426869 1.76203 0
M  V30 35307 C 3455.38 3.59689 0.256227 0
M  V30 35308 O 3454.48 3.90399 1.329 0
M  V30 35309 H 3453.82 0.663301 -0.0304565 0
M  V30 35310 H 3456.35 1.9178 -0.712866 0
M  V30 35311 H 3456.36 4.05109 0.484843 0
M  V30 35312 H 3455.04 4.10529 -0.666235 0
M  V30 35313 H 3453.61 3.56779 1.08458 0
M  V30 35314 N 3455.8 0.244768 1.55688 0
M  V30 35315 C 3456.73 -0.64991 2.24273 0
M  V30 35316 C 3457.71 -1.18298 1.22228 0
M  V30 35317 O 3458.89 -1.22271 1.50875 0
M  V30 35318 C 3456.02 -1.84793 2.94056 0
M  V30 35319 C 3454.98 -1.44772 4.02772 0
M  V30 35320 C 3454.3 -2.72639 4.59969 0
M  V30 35321 C 3455.6 -0.620379 5.18603 0
M  V30 35322 H 3457.3 -0.0780128 2.99298 0
M  V30 35323 H 3454.84 -0.0360816 1.43955 0
M  V30 35324 H 3456.8 -2.47945 3.40736 0
M  V30 35325 H 3455.52 -2.44517 2.16516 0
M  V30 35326 H 3454.18 -0.839546 3.56857 0
M  V30 35327 H 3453.83 -3.30557 3.79132 0
M  V30 35328 H 3453.53 -2.46586 5.33356 0
M  V30 35329 H 3455.05 -3.36694 5.09382 0
M  V30 35330 H 3456.47 -1.15616 5.61521 0
M  V30 35331 H 3454.86 -0.455992 5.98365 0
M  V30 35332 H 3455.93 0.367883 4.83502 0
M  V30 35333 N 3457.28 -1.57574 -0.0283712 0
M  V30 35334 C 3458.5 -1.93958 -0.734503 0
M  V30 35335 C 3458.93 -0.844817 -1.68061 0
M  V30 35336 O 3458.28 0.1994 -1.802 0
M  V30 35337 C 3458.33 -3.29406 -1.4671 0
M  V30 35338 O 3457.44 -3.21705 -2.5803 0
M  V30 35339 H 3456.78 -0.633949 -0.197496 0
M  V30 35340 H 3459.31 -2.04593 0.0163617 0
M  V30 35341 H 3459.32 -3.64312 -1.83687 0
M  V30 35342 H 3457.99 -4.08649 -0.77322 0
M  V30 35343 H 3456.57 -2.98431 -2.23591 0
M  V30 35344 N 3458.75 0.300654 -1.54706 0
M  V30 35345 C 3459.7 1.39084 -1.86436 0
M  V30 35346 C 3460.7 1.52473 -0.738127 0
M  V30 35347 O 3461.9 1.54586 -0.922123 0
M  V30 35348 H 3458.28 0.464588 -0.591322 0
M  V30 35349 H 3460.25 1.09559 -2.7756 0
M  V30 35350 C 3459 2.74925 -2.12865 0
M  V30 35351 H 3458.32 2.65405 -2.98999 0
M  V30 35352 H 3459.76 3.50217 -2.39006 0
M  V30 35353 C 3458.22 3.23886 -0.927317 0
M  V30 35354 O 3458.75 4.01427 -0.147992 0
M  V30 35355 N 3456.95 2.81214 -0.732602 0
M  V30 35356 H 3456.5 2.18273 -1.36801 0
M  V30 35357 H 3456.46 3.14323 0.069635 0
M  V30 35358 N 3460.23 1.47168 0.563863 0
M  V30 35359 C 3461.16 1.55207 1.68652 0
M  V30 35360 C 3462.18 0.438796 1.56775 0
M  V30 35361 O 3463.37 0.708088 1.63855 0
M  V30 35362 C 3460.47 1.43402 3.07065 0
M  V30 35363 C 3459.64 2.6918 3.44762 0
M  V30 35364 C 3458.7 2.51306 4.62311 0
M  V30 35365 O 3457.72 3.25098 4.67225 0
M  V30 35366 N 3458.93 1.58698 5.58386 0
M  V30 35367 H 3461.69 2.52012 1.62204 0
M  V30 35368 H 3459.25 1.43463 0.750334 0
M  V30 35369 H 3461.24 1.29188 3.83526 0
M  V30 35370 H 3459.81 0.547051 3.07776 0
M  V30 35371 H 3459.03 2.98202 2.57816 0
M  V30 35372 H 3460.32 3.52695 3.6672 0
M  V30 35373 H 3459.72 0.978835 5.57167 0
M  V30 35374 H 3458.28 1.50439 6.34201 0
M  V30 35375 N 3461.71 -0.810054 1.35188 0
M  V30 35376 C 3462.96 -1.56929 1.28457 0
M  V30 35377 C 3463.29 -1.93682 -0.141713 0
M  V30 35378 O 3462.56 -1.61071 -1.09025 0
M  V30 35379 C 3462.85 -2.86023 2.18776 0
M  V30 35380 C 3462.7 -2.55768 3.70004 0
M  V30 35381 C 3464.02 -3.87699 2.08272 0
M  V30 35382 H 3461.14 -0.569363 0.467969 0
M  V30 35383 H 3463.78 -0.932232 1.65558 0
M  V30 35384 H 3461.93 -3.40388 1.87266 0
M  V30 35385 H 3463.6 -2.07613 4.1194 0
M  V30 35386 H 3461.85 -1.89014 3.90456 0
M  V30 35387 H 3462.52 -3.4788 4.28583 0
M  V30 35388 H 3464.99 -3.42725 2.35964 0
M  V30 35389 H 3463.87 -4.7581 2.73672 0
M  V30 35390 H 3464.13 -4.29115 1.0636 0
M  V30 35391 N 3463.19 -1.19129 -1.0318 0
M  V30 35392 C 3464.6 -0.942876 -1.28771 0
M  V30 35393 C 3464.8 0.386448 -1.9776 0
M  V30 35394 O 3463.86 1.11866 -2.26367 0
M  V30 35395 C 3465.17 -2.1148 -2.13768 0
M  V30 35396 C 3466.72 -2.1541 -2.27085 0
M  V30 35397 C 3467.2 -3.32045 -3.15452 0
M  V30 35398 N 3468.69 -3.31962 -3.2304 0
M  V30 35399 C 3469.42 -4.18855 -3.91597 0
M  V30 35400 N 3468.92 -5.15897 -4.62409 0
M  V30 35401 N 3470.71 -4.06741 -3.87966 0
M  V30 35402 H 3462.86 -2.04661 -0.568129 0
M  V30 35403 H 3465.13 -0.894746 -0.313264 0
M  V30 35404 H 3464.83 -3.07666 -1.70394 0
M  V30 35405 H 3464.71 -2.08295 -3.14472 0
M  V30 35406 H 3467.09 -1.19796 -2.6969 0
M  V30 35407 H 3467.17 -2.22649 -1.25941 0
M  V30 35408 H 3466.82 -4.27936 -2.73556 0
M  V30 35409 H 3466.75 -3.22042 -4.16649 0
M  V30 35410 H 3469.24 -2.61715 -2.72606 0
M  V30 35411 H 3469.55 -5.78554 -5.12342 0
M  V30 35412 H 3467.9 -5.19849 -4.61284 0
M  V30 35413 H 3471.09 -3.30208 -3.31783 0
M  V30 35414 H 3471.26 -4.74674 -4.41122 0
M  V30 35415 N 3464.67 1.2224 -0.994741 0
M  V30 35416 C 3465.89 1.95591 -0.689843 0
M  V30 35417 C 3466.32 1.72963 0.73929 0
M  V30 35418 O 3465.67 1.00999 1.50562 0
M  V30 35419 C 3465.72 3.46349 -1.00373 0
M  V30 35420 O 3464.83 4.1227 -0.103398 0
M  V30 35421 H 3464.17 0.611823 -0.258008 0
M  V30 35422 H 3466.7 1.55284 -1.33222 0
M  V30 35423 H 3466.71 3.96874 -0.946329 0
M  V30 35424 H 3465.38 3.62144 -2.0451 0
M  V30 35425 H 3463.96 3.72271 -0.21644 0
M  V30 35426 N 3466.14 0.768172 1.37611 0
M  V30 35427 C 3467.56 0.396735 1.82436 0
M  V30 35428 C 3467.91 -1.07665 1.64021 0
M  V30 35429 O 3467.03 -1.83354 1.14935 0
M  V30 35430 C 3467.63 0.713323 3.31206 0
M  V30 35431 C 3466.19 0.394986 3.74322 0
M  V30 35432 C 3465.33 0.959008 2.60189 0
M  V30 35433 H 3468.28 0.963121 1.26134 0
M  V30 35434 H 3468.3 -0.0033054 3.805 0
M  V30 35435 H 3467.82 1.78573 3.44577 0
M  V30 35436 H 3465.92 -0.670248 3.66522 0
M  V30 35437 H 3466.03 0.900736 4.70557 0
M  V30 35438 H 3464.39 0.383468 2.51797 0
M  V30 35439 H 3465.18 2.03674 2.76354 0
M  V30 35440 N 3467.62 -1.48829 0.518419 0
M  V30 35441 C 3468.59 -2.27942 -0.23979 0
M  V30 35442 C 3469.59 -1.34696 -0.878278 0
M  V30 35443 O 3470.78 -1.57696 -0.740114 0
M  V30 35444 C 3467.91 -3.13213 -1.34575 0
M  V30 35445 H 3469.1 -2.96434 0.454651 0
M  V30 35446 H 3466.65 -1.5388 0.273959 0
M  V30 35447 H 3467.39 -2.49326 -2.07381 0
M  V30 35448 H 3467.17 -3.81791 -0.893184 0
M  V30 35449 H 3468.66 -3.7292 -1.87938 0
M  V30 35450 N 3469.1 -0.253021 -1.55556 0
M  V30 35451 C 3470.51 0.248979 -1.85032 0
M  V30 35452 C 3470.86 1.57132 -1.17491 0
M  V30 35453 O 3469.99 2.11553 -0.455424 0
M  V30 35454 C 3470.58 0.45853 -3.35683 0
M  V30 35455 C 3469.14 0.904786 -3.65364 0
M  V30 35456 C 3468.29 -0.0145414 -2.77296 0
M  V30 35457 H 3471.24 -0.475421 -1.51411 0
M  V30 35458 H 3471.26 1.30028 -3.57593 0
M  V30 35459 H 3470.77 -0.504049 -3.84813 0
M  V30 35460 H 3468.87 1.87962 -3.21716 0
M  V30 35461 H 3468.99 0.757409 -4.73075 0
M  V30 35462 H 3467.35 0.49791 -2.49786 0
M  V30 35463 H 3468.13 -0.972604 -3.29234 0
M  V30 35464 N 3470.58 1.57587 0.0200142 0
M  V30 35465 C 3471.82 1.89964 0.710044 0
M  V30 35466 C 3472.16 0.85186 1.74519 0
M  V30 35467 O 3471.43 -0.131971 1.94052 0
M  V30 35468 C 3471.72 3.32964 1.37139 0
M  V30 35469 C 3471.57 4.48443 0.349142 0
M  V30 35470 C 3472.89 3.75035 2.30297 0
M  V30 35471 H 3470.01 0.690866 0.256658 0
M  V30 35472 H 3472.65 1.89981 -0.0271696 0
M  V30 35473 H 3470.8 3.3308 1.99975 0
M  V30 35474 H 3472.47 4.60462 -0.277997 0
M  V30 35475 H 3470.71 4.32538 -0.33067 0
M  V30 35476 H 3471.38 5.45408 0.85054 0
M  V30 35477 H 3473.86 3.76343 1.77497 0
M  V30 35478 H 3472.74 4.75882 2.73547 0
M  V30 35479 H 3473 3.07792 3.17359 0
M  V30 35480 N 3472.06 -0.292445 1.54863 0
M  V30 35481 C 3472.99 -1.38278 1.82789 0
M  V30 35482 C 3474 -1.4644 0.711278 0
M  V30 35483 O 3475.19 -1.48605 0.988878 0
M  V30 35484 C 3472.29 -2.76579 1.9585 0
M  V30 35485 C 3471.46 -2.91246 3.26335 0
M  V30 35486 C 3470.52 -4.10099 3.29705 0
M  V30 35487 O 3469.55 -4.01778 4.03191 0
M  V30 35488 N 3470.75 -5.21146 2.55709 0
M  V30 35489 H 3473.52 -1.14675 2.76893 0
M  V30 35490 H 3471.08 -0.482534 1.54542 0
M  V30 35491 H 3473.07 -3.54349 1.95497 0
M  V30 35492 H 3471.64 -2.93092 1.08702 0
M  V30 35493 H 3470.86 -2.00519 3.3939 0
M  V30 35494 H 3472.15 -2.97963 4.12426 0
M  V30 35495 H 3471.54 -5.30789 1.95652 0
M  V30 35496 H 3470.1 -5.97219 2.611 0
M  V30 35497 N 3473.53 -1.47465 -0.55605 0
M  V30 35498 C 3474.76 -1.58014 -1.34337 0
M  V30 35499 C 3475.18 -0.231171 -1.86674 0
M  V30 35500 O 3474.54 0.793145 -1.6303 0
M  V30 35501 C 3474.59 -2.60981 -2.4884 0
M  V30 35502 O 3473.69 -2.16332 -3.51104 0
M  V30 35503 H 3473.04 -0.530767 -0.398977 0
M  V30 35504 H 3475.57 -1.93254 -0.671864 0
M  V30 35505 H 3475.58 -2.81437 -2.95393 0
M  V30 35506 H 3474.25 -3.58928 -2.10103 0
M  V30 35507 H 3472.83 -2.0598 -3.10848 0
M  V30 35508 N 3475.01 0.802873 -1.35616 0
M  V30 35509 C 3476.42 1.37713 -1.26064 0
M  V30 35510 C 3476.78 1.95917 0.105376 0
M  V30 35511 O 3475.9 1.91571 1.00645 0
M  V30 35512 C 3476.5 2.50361 -2.28265 0
M  V30 35513 C 3475.05 3.03638 -2.22443 0
M  V30 35514 C 3474.2 1.76625 -2.13773 0
M  V30 35515 H 3477.15 0.605605 -1.46691 0
M  V30 35516 H 3477.17 3.29014 -1.91128 0
M  V30 35517 H 3476.69 2.07969 -3.27675 0
M  V30 35518 H 3474.79 3.50485 -1.26456 0
M  V30 35519 H 3474.9 3.61367 -3.14564 0
M  V30 35520 H 3473.26 1.98325 -1.5981 0
M  V30 35521 H 3474.05 1.3638 -3.15048 0
M  V30 35522 N 3476.49 1.19674 1.02547 0
M  V30 35523 C 3477.91 0.949692 1.28269 0
M  V30 35524 C 3478.11 -0.375955 1.97962 0
M  V30 35525 O 3477.16 -1.10664 2.26957 0
M  V30 35526 C 3478.48 2.12611 2.12643 0
M  V30 35527 C 3480.02 2.16611 2.2594 0
M  V30 35528 C 3480.5 3.33713 3.13687 0
M  V30 35529 N 3481.99 3.33671 3.21275 0
M  V30 35530 C 3482.73 4.20926 3.8937 0
M  V30 35531 N 3482.22 5.18342 4.59666 0
M  V30 35532 N 3484.01 4.08793 3.85804 0
M  V30 35533 H 3476.17 2.04959 0.557268 0
M  V30 35534 H 3478.43 0.896394 0.308515 0
M  V30 35535 H 3478.13 3.08566 1.6876 0
M  V30 35536 H 3478.01 2.0996 3.13363 0
M  V30 35537 H 3480.4 1.21225 2.69051 0
M  V30 35538 H 3480.48 2.23314 1.24758 0
M  V30 35539 H 3480.12 4.29381 2.71283 0
M  V30 35540 H 3480.05 3.24247 4.14935 0
M  V30 35541 H 3482.54 2.63157 2.71214 0
M  V30 35542 H 3482.85 5.81263 5.09267 0
M  V30 35543 H 3481.2 5.22288 4.5852 0
M  V30 35544 H 3484.39 3.31963 3.30028 0
M  V30 35545 H 3484.56 4.77007 4.38599 0
M  V30 35546 N 3477.97 -1.21711 1.00121 0
M  V30 35547 C 3479.38 -1.7244 0.715641 0
M  V30 35548 C 3479.73 -1.80588 -0.766968 0
M  V30 35549 O 3478.86 -1.45784 -1.59925 0
M  V30 35550 C 3479.45 -3.13181 1.2924 0
M  V30 35551 C 3478.01 -3.61282 1.05603 0
M  V30 35552 C 3477.16 -2.38922 1.40753 0
M  V30 35553 H 3480.11 -1.06941 1.17257 0
M  V30 35554 H 3480.13 -3.74463 0.675136 0
M  V30 35555 H 3479.64 -3.07219 2.37146 0
M  V30 35556 H 3477.74 -3.726 -0.00604267 0
M  V30 35557 H 3477.86 -4.46958 1.72525 0
M  V30 35558 H 3476.22 -2.40926 0.826249 0
M  V30 35559 H 3477 -2.35614 2.49682 0
M  V30 35560 N 3479.45 -0.775459 -1.37202 0
M  V30 35561 C 3480.38 -0.122414 -2.28873 0
M  V30 35562 C 3481.39 0.660213 -1.48812 0
M  V30 35563 O 3482.58 0.497694 -1.71421 0
M  V30 35564 C 3479.68 0.850154 -3.28063 0
M  V30 35565 C 3478.85 0.120556 -4.37234 0
M  V30 35566 C 3477.91 1.00703 -5.16474 0
M  V30 35567 O 3476.94 0.469429 -5.67261 0
M  V30 35568 N 3478.14 2.33289 -5.3156 0
M  V30 35569 H 3480.91 -0.909792 -2.85557 0
M  V30 35570 H 3478.47 -0.628133 -1.49218 0
M  V30 35571 H 3480.46 1.44671 -3.77958 0
M  V30 35572 H 3479.03 1.53848 -2.7212 0
M  V30 35573 H 3478.25 -0.656947 -3.88687 0
M  V30 35574 H 3479.54 -0.383447 -5.07353 0
M  V30 35575 H 3478.94 2.79397 -4.91888 0
M  V30 35576 H 3477.49 2.87943 -5.8475 0
M  V30 35577 N 3480.93 1.48552 -0.526305 0
M  V30 35578 C 3482.15 2.07399 0.00727787 0
M  V30 35579 C 3482.58 1.38077 1.27735 0
M  V30 35580 O 3481.93 0.445534 1.7574 0
M  V30 35581 C 3481.98 3.5994 0.218063 0
M  V30 35582 O 3481.09 3.91787 1.28752 0
M  V30 35583 H 3480.43 0.662941 -0.03749 0
M  V30 35584 H 3482.96 1.91013 -0.733167 0
M  V30 35585 H 3482.97 4.056 0.441849 0
M  V30 35586 H 3481.64 4.09799 -0.70974 0
M  V30 35587 H 3480.22 3.57909 1.04668 0
M  V30 35588 N 3482.4 0.261267 1.55419 0
M  V30 35589 C 3483.34 -0.665176 2.19335 0
M  V30 35590 C 3484.35 -1.12798 1.1739 0
M  V30 35591 O 3485.54 -1.05228 1.44185 0
M  V30 35592 C 3482.64 -1.91763 2.79428 0
M  V30 35593 C 3481.81 -1.60392 4.06931 0
M  V30 35594 C 3480.87 -2.70743 4.51204 0
M  V30 35595 O 3479.9 -2.37517 5.17276 0
M  V30 35596 N 3481.1 -4.0053 4.20186 0
M  V30 35597 H 3483.86 -0.118209 2.99467 0
M  V30 35598 H 3481.42 0.0818011 1.61693 0
M  V30 35599 H 3483.42 -2.64855 3.05996 0
M  V30 35600 H 3481.99 -2.37401 2.0337 0
M  V30 35601 H 3481.21 -0.707491 3.87799 0
M  V30 35602 H 3482.49 -1.36915 4.90032 0
M  V30 35603 H 3481.89 -4.30351 3.67171 0
M  V30 35604 H 3480.45 -4.70042 4.51557 0
M  V30 35605 N 3483.88 -1.57596 -0.0116567 0
M  V30 35606 C 3485.29 -1.78229 -0.556009 0
M  V30 35607 C 3485.64 -0.894505 -1.74623 0
M  V30 35608 O 3484.77 -0.0938879 -2.16196 0
M  V30 35609 C 3485.36 -3.23225 -1.01544 0
M  V30 35610 C 3483.92 -3.44994 -1.50518 0
M  V30 35611 C 3483.07 -2.73606 -0.451085 0
M  V30 35612 H 3486.02 -1.57243 0.214544 0
M  V30 35613 H 3486.04 -3.30696 -1.88203 0
M  V30 35614 H 3485.55 -3.87814 -0.14898 0
M  V30 35615 H 3483.65 -2.85604 -2.39293 0
M  V30 35616 H 3483.77 -4.53652 -1.54068 0
M  V30 35617 H 3482.13 -2.37885 -0.910093 0
M  V30 35618 H 3482.91 -3.40888 0.406212 0
M  V30 35619 N 3485.36 0.284228 -1.55016 0
M  V30 35620 C 3486.77 0.856075 -1.65916 0
M  V30 35621 C 3487.12 1.87469 -0.578791 0
M  V30 35622 O 3486.25 2.14559 0.281695 0
M  V30 35623 C 3486.84 1.55952 -3.00773 0
M  V30 35624 C 3485.4 2.07955 -3.13739 0
M  V30 35625 C 3484.55 0.917803 -2.61671 0
M  V30 35626 H 3487.5 0.0608309 -1.58583 0
M  V30 35627 H 3487.52 2.42595 -2.93134 0
M  V30 35628 H 3487.03 0.817913 -3.79383 0
M  V30 35629 H 3485.13 2.85111 -2.39881 0
M  V30 35630 H 3485.25 2.30256 -4.20142 0
M  V30 35631 H 3483.61 1.30806 -2.18545 0
M  V30 35632 H 3484.39 0.189886 -3.42774 0
M  V30 35633 N 3486.84 1.47758 0.548222 0
M  V30 35634 C 3487.79 1.57324 1.65025 0
M  V30 35635 C 3488.77 0.431516 1.55006 0
M  V30 35636 O 3489.96 0.681948 1.63335 0
M  V30 35637 C 3487.09 1.59901 3.03787 0
M  V30 35638 C 3486.18 2.7949 3.18977 0
M  V30 35639 N 3486.57 4.04098 3.04201 0
M  V30 35640 C 3484.87 2.76439 3.49996 0
M  V30 35641 C 3485.57 4.84235 3.22321 0
M  V30 35642 N 3484.54 4.16718 3.49066 0
M  V30 35643 H 3488.35 2.51431 1.52183 0
M  V30 35644 H 3485.86 1.43876 0.753217 0
M  V30 35645 H 3487.86 1.64846 3.82925 0
M  V30 35646 H 3486.52 0.668968 3.17734 0
M  V30 35647 H 3487.53 4.34819 2.81341 0
M  V30 35648 H 3484.21 1.92612 3.70414 0
M  V30 35649 H 3485.6 5.93066 3.15789 0
M  V30 35650 N 3488.32 -0.79567 1.3604 0
M  V30 35651 C 3489.54 -1.58953 1.33225 0
M  V30 35652 C 3489.97 -1.87906 -0.0854266 0
M  V30 35653 O 3489.32 -1.47405 -1.05553 0
M  V30 35654 C 3489.37 -2.89113 2.15513 0
M  V30 35655 O 3488.48 -3.82433 1.54333 0
M  V30 35656 H 3487.82 -0.482402 0.456272 0
M  V30 35657 H 3490.35 -0.986695 1.79236 0
M  V30 35658 H 3490.36 -3.3844 2.27865 0
M  V30 35659 H 3489.03 -2.67366 3.18572 0
M  V30 35660 H 3487.61 -3.41011 1.50885 0
M  V30 35661 N 3489.79 -1.20217 -1.0191 0
M  V30 35662 C 3491.02 -1.03705 -1.79611 0
M  V30 35663 C 3491.44 0.409342 -1.83592 0
M  V30 35664 O 3490.8 1.29471 -1.26913 0
M  V30 35665 C 3490.85 -1.62225 -3.22049 0
M  V30 35666 O 3489.95 -0.858177 -4.03372 0
M  V30 35667 H 3489.3 -0.365899 -0.554088 0
M  V30 35668 H 3491.83 -1.59455 -1.282 0
M  V30 35669 H 3491.84 -1.65854 -3.72769 0
M  V30 35670 H 3490.51 -2.67493 -3.18466 0
M  V30 35671 H 3489.09 -0.895899 -3.61978 0
M  V30 35672 N 3491.27 1.21178 -1.00765 0
M  V30 35673 C 3492.68 1.72058 -0.724776 0
M  V30 35674 C 3493.03 1.80992 0.757381 0
M  V30 35675 O 3492.16 1.4663 1.5915 0
M  V30 35676 C 3492.75 3.12492 -1.30899 0
M  V30 35677 C 3491.31 3.60717 -1.07518 0
M  V30 35678 C 3490.46 2.38173 -1.42018 0
M  V30 35679 H 3493.41 1.06318 -1.17823 0
M  V30 35680 H 3493.43 3.74099 -0.694985 0
M  V30 35681 H 3492.94 3.05957 -2.38772 0
M  V30 35682 H 3491.05 3.72597 -0.0137173 0
M  V30 35683 H 3491.16 4.46037 -1.74893 0
M  V30 35684 H 3489.52 2.40484 -0.839014 0
M  V30 35685 H 3490.31 2.34286 -2.50928 0
M  V30 35686 N 3492.75 0.782725 1.36789 0
M  V30 35687 C 3493.98 0.362607 2.04206 0
M  V30 35688 C 3494.4 -1.01071 1.58639 0
M  V30 35689 O 3493.76 -1.64981 0.751721 0
M  V30 35690 C 3493.81 0.427163 3.58061 0
M  V30 35691 O 3492.91 -0.568378 4.08464 0
M  V30 35692 H 3492.25 0.155084 0.645635 0
M  V30 35693 H 3494.78 1.06197 1.74881 0
M  V30 35694 H 3494.79 0.28837 4.0698 0
M  V30 35695 H 3493.47 1.42899 3.9058 0
M  V30 35696 H 3492.04 -0.391798 3.70836 0
M  V30 35697 N 3494.23 -1.48271 0.534176 0
M  V30 35698 C 3495.64 -1.86459 0.0947919 0
M  V30 35699 C 3495.99 -1.4433 -1.32903 0
M  V30 35700 O 3495.12 -0.835901 -1.99604 0
M  V30 35701 C 3495.71 -3.38397 0.165249 0
M  V30 35702 C 3494.27 -3.75763 -0.218963 0
M  V30 35703 C 3493.42 -2.72321 0.523145 0
M  V30 35704 H 3496.37 -1.40116 0.745194 0
M  V30 35705 H 3496.39 -3.75382 -0.621999 0
M  V30 35706 H 3495.9 -3.69029 1.20164 0
M  V30 35707 H 3494 -3.50745 -1.25734 0
M  V30 35708 H 3494.11 -4.78941 0.123566 0
M  V30 35709 H 3492.48 -2.54681 -0.0310875 0
M  V30 35710 H 3493.26 -3.05796 1.56025 0
M  V30 35711 N 3495.71 -0.269505 -1.55279 0
M  V30 35712 C 3497.12 0.0847867 -1.59375 0
M  V30 35713 C 3497.32 1.55066 -1.28673 0
M  V30 35714 O 3496.38 2.29866 -1.0449 0
M  V30 35715 C 3497.69 -0.284788 -2.99348 0
M  V30 35716 C 3499.24 -0.230942 -3.12147 0
M  V30 35717 C 3499.71 -0.574875 -4.54378 0
M  V30 35718 N 3501.21 -0.526217 -4.60201 0
M  V30 35719 C 3501.94 -0.765209 -5.68271 0
M  V30 35720 N 3501.44 -1.06852 -6.8451 0
M  V30 35721 N 3503.23 -0.694385 -5.57794 0
M  V30 35722 H 3495.38 -1.2252 -1.73501 0
M  V30 35723 H 3497.64 -0.494578 -0.808762 0
M  V30 35724 H 3497.35 -1.30404 -3.26631 0
M  V30 35725 H 3497.22 0.377133 -3.7531 0
M  V30 35726 H 3499.61 0.779014 -2.84632 0
M  V30 35727 H 3499.69 -0.92704 -2.38411 0
M  V30 35728 H 3499.34 -1.58249 -4.82617 0
M  V30 35729 H 3499.27 0.142952 -5.26406 0
M  V30 35730 H 3501.76 -0.301434 -3.76696 0
M  V30 35731 H 3502.07 -1.2377 -7.62824 0
M  V30 35732 H 3500.41 -1.10624 -6.8614 0
M  V30 35733 H 3503.61 -0.457308 -4.65861 0
M  V30 35734 H 3503.78 -0.884026 -6.41942 0
M  V30 35735 N 3497.18 1.576 0.00329885 0
M  V30 35736 C 3498.43 1.89603 0.688011 0
M  V30 35737 C 3498.75 0.871346 1.7512 0
M  V30 35738 O 3499.95 1.08149 2.4903 0
M  V30 35739 C 3498.41 3.36563 1.27488 0
M  V30 35740 C 3498.02 4.4732 0.246693 0
M  V30 35741 C 3499.76 3.77681 1.93798 0
M  V30 35742 C 3497.67 5.85356 0.843368 0
M  V30 35743 H 3496.6 0.707484 0.260735 0
M  V30 35744 H 3499.25 1.83412 -0.056705 0
M  V30 35745 H 3497.63 3.3758 2.07016 0
M  V30 35746 H 3498.8 4.57814 -0.523748 0
M  V30 35747 H 3497.12 4.15201 -0.315773 0
M  V30 35748 H 3499.72 4.78144 2.39338 0
M  V30 35749 H 3500.06 3.11022 2.76715 0
M  V30 35750 H 3500.59 3.78948 1.21009 0
M  V30 35751 H 3497.33 6.55479 0.0530502 0
M  V30 35752 H 3496.85 5.78532 1.58304 0
M  V30 35753 H 3498.53 6.32908 1.343 0
M  V30 35754 N 3498.66 -0.276003 1.55164 0
M  V30 35755 C 3499.59 -1.36332 1.84245 0
M  V30 35756 C 3500.61 -1.45677 0.72677 0
M  V30 35757 O 3501.8 -1.47548 1.00458 0
M  V30 35758 C 3498.9 -2.74486 1.98773 0
M  V30 35759 C 3498.07 -2.87769 3.29405 0
M  V30 35760 C 3497.13 -4.06579 3.34036 0
M  V30 35761 O 3496.15 -3.97479 4.0743 0
M  V30 35762 N 3497.36 -5.18405 2.61222 0
M  V30 35763 H 3500.12 -1.11732 2.78094 0
M  V30 35764 H 3497.68 -0.466116 1.55045 0
M  V30 35765 H 3499.67 -3.52255 1.99244 0
M  V30 35766 H 3498.24 -2.91922 1.11804 0
M  V30 35767 H 3497.46 -1.96908 3.41498 0
M  V30 35768 H 3498.75 -2.93572 4.15564 0
M  V30 35769 H 3498.15 -5.28684 2.01271 0
M  V30 35770 H 3496.71 -5.94416 2.6742 0
M  V30 35771 N 3500.14 -1.48046 -0.540378 0
M  V30 35772 C 3501.55 -1.49194 -1.12241 0
M  V30 35773 C 3501.9 -0.255929 -1.94524 0
M  V30 35774 O 3501.03 0.637819 -2.06787 0
M  V30 35775 C 3501.62 -2.70331 -2.04222 0
M  V30 35776 C 3500.18 -2.74384 -2.57663 0
M  V30 35777 C 3499.33 -2.42554 -1.34398 0
M  V30 35778 H 3502.28 -1.55313 -0.326138 0
M  V30 35779 H 3502.3 -2.48258 -2.88354 0
M  V30 35780 H 3501.81 -3.60273 -1.44308 0
M  V30 35781 H 3499.91 -1.88624 -3.21328 0
M  V30 35782 H 3500.03 -3.75535 -2.97507 0
M  V30 35783 H 3498.39 -1.9349 -1.65632 0
M  V30 35784 H 3499.17 -3.34725 -0.762512 0
M  V30 35785 N 3501.62 0.788444 -1.3646 0
M  V30 35786 C 3502.55 1.90976 -1.26731 0
M  V30 35787 C 3503.56 1.61727 -0.186601 0
M  V30 35788 O 3504.75 1.72957 -0.441395 0
M  V30 35789 C 3501.85 3.25807 -0.932895 0
M  V30 35790 C 3501.03 3.82828 -2.11568 0
M  V30 35791 C 3500.08 4.961 -1.75417 0
M  V30 35792 O 3499.11 5.12566 -2.47517 0
M  V30 35793 N 3500.31 5.76403 -0.688429 0
M  V30 35794 H 3503.08 1.99844 -2.23344 0
M  V30 35795 H 3500.64 0.966761 -1.29867 0
M  V30 35796 H 3502.63 3.99078 -0.672202 0
M  V30 35797 H 3501.2 3.1255 -0.0558653 0
M  V30 35798 H 3500.42 3.01533 -2.53912 0
M  V30 35799 H 3501.71 4.17656 -2.90587 0
M  V30 35800 H 3501.11 5.65629 -0.0897848 0
M  V30 35801 H 3499.66 6.49974 -0.487561 0
M  V30 35802 N 3503.1 1.20755 1.01271 0
M  V30 35803 C 3504.51 1.01992 1.56379 0
M  V30 35804 C 3504.86 -0.422558 1.91596 0
M  V30 35805 O 3503.98 -1.30457 1.72655 0
M  V30 35806 C 3504.58 1.84515 2.84147 0
M  V30 35807 C 3503.14 1.70107 3.35769 0
M  V30 35808 C 3502.28 1.82206 2.09036 0
M  V30 35809 H 3505.24 1.3489 0.836081 0
M  V30 35810 H 3505.26 1.35083 3.55715 0
M  V30 35811 H 3504.77 2.89495 2.58485 0
M  V30 35812 H 3502.87 0.677796 3.66383 0
M  V30 35813 H 3502.98 2.51614 4.07709 0
M  V30 35814 H 3501.35 1.25433 2.21673 0
M  V30 35815 H 3502.13 2.88678 1.85795 0
M  V30 35816 N 3504.58 -1.20642 1.01406 0
M  V30 35817 C 3505.8 -1.94469 0.720873 0
M  V30 35818 C 3506.23 -1.74117 -0.71168 0
M  V30 35819 O 3505.58 -1.03382 -1.48936 0
M  V30 35820 C 3505.63 -3.44708 1.0587 0
M  V30 35821 O 3504.74 -4.12054 0.168974 0
M  V30 35822 H 3504.08 -0.607641 0.267709 0
M  V30 35823 H 3506.61 -1.53145 1.35675 0
M  V30 35824 H 3506.62 -3.95318 1.00935 0
M  V30 35825 H 3505.29 -3.58845 2.10246 0
M  V30 35826 H 3503.87 -3.7188 0.275638 0
M  V30 35827 N 3506.05 -0.789968 -1.36372 0
M  V30 35828 C 3507.46 -0.425709 -1.81782 0
M  V30 35829 C 3507.82 1.05042 -1.65713 0
M  V30 35830 O 3506.94 1.81503 -1.17838 0
M  V30 35831 C 3507.54 -0.765924 -3.30029 0
M  V30 35832 C 3506.09 -0.454487 -3.73646 0
M  V30 35833 C 3505.24 -1.00028 -2.5863 0
M  V30 35834 H 3508.19 -0.983066 -1.24585 0
M  V30 35835 H 3508.21 -0.0572292 -3.80457 0
M  V30 35836 H 3507.73 -1.84032 -3.41692 0
M  V30 35837 H 3505.83 0.611853 -3.67542 0
M  V30 35838 H 3505.94 -0.975483 -4.69064 0
M  V30 35839 H 3504.3 -0.423478 -2.51155 0
M  V30 35840 H 3505.09 -2.08045 -2.73079 0
M  V30 35841 N 3507.53 1.47986 -0.542031 0
M  V30 35842 C 3508.48 2.26794 0.234204 0
M  V30 35843 C 3509.47 1.33438 0.899062 0
M  V30 35844 O 3510.66 1.57895 0.799876 0
M  V30 35845 C 3507.79 3.18823 1.27306 0
M  V30 35846 C 3506.87 4.19655 0.612384 0
M  V30 35847 N 3507.26 5.04856 -0.308839 0
M  V30 35848 C 3505.56 4.37469 0.868148 0
M  V30 35849 C 3506.26 5.77579 -0.691153 0
M  V30 35850 N 3505.24 5.43578 -0.049453 0
M  V30 35851 H 3509.04 2.90047 -0.474321 0
M  V30 35852 H 3506.55 1.58339 -0.360896 0
M  V30 35853 H 3508.55 3.73952 1.84298 0
M  V30 35854 H 3507.21 2.57126 1.98284 0
M  V30 35855 H 3508.22 5.13388 -0.682145 0
M  V30 35856 H 3504.9 3.86954 1.56758 0
M  V30 35857 H 3506.29 6.56128 -1.44725 0
M  V30 35858 N 3509.01 0.277736 1.55133 0
M  V30 35859 C 3509.96 -0.623177 2.19318 0
M  V30 35860 C 3510.94 -1.11643 1.15864 0
M  V30 35861 O 3512.14 -1.06107 1.4167 0
M  V30 35862 C 3509.26 -1.80563 2.91979 0
M  V30 35863 C 3508.35 -1.32943 4.02724 0
M  V30 35864 N 3508.74 -0.569566 5.02583 0
M  V30 35865 C 3507.04 -1.61217 4.15843 0
M  V30 35866 C 3507.74 -0.318881 5.80825 0
M  V30 35867 N 3506.72 -0.892051 5.36231 0
M  V30 35868 H 3510.52 -0.0348153 2.93879 0
M  V30 35869 H 3508.03 0.0814156 1.62196 0
M  V30 35870 H 3510.03 -2.46236 3.36413 0
M  V30 35871 H 3508.69 -2.39792 2.18929 0
M  V30 35872 H 3509.7 -0.216658 5.17447 0
M  V30 35873 H 3506.38 -2.21362 3.53985 0
M  V30 35874 H 3507.77 0.28986 6.71274 0
M  V30 35875 N 3510.49 -1.57599 0.00505908 0
M  V30 35876 C 3511.73 -1.91069 -0.679733 0
M  V30 35877 C 3512.07 -0.879516 -1.73142 0
M  V30 35878 O 3511.34 0.101082 -1.94237 0
M  V30 35879 C 3511.62 -3.35103 -1.31824 0
M  V30 35880 C 3511.48 -4.48942 -0.277754 0
M  V30 35881 C 3512.8 -3.78651 -2.24301 0
M  V30 35882 H 3509.92 -0.694862 -0.245634 0
M  V30 35883 H 3512.56 -1.89913 0.0573904 0
M  V30 35884 H 3510.71 -3.36219 -1.94651 0
M  V30 35885 H 3512.38 -4.59961 0.351217 0
M  V30 35886 H 3510.62 -4.31957 0.399441 0
M  V30 35887 H 3511.29 -5.46692 -0.763663 0
M  V30 35888 H 3513.77 -3.79119 -1.71487 0
M  V30 35889 H 3512.65 -4.80173 -2.65941 0
M  V30 35890 H 3512.91 -3.12802 -3.12422 0
M  V30 35891 N 3511.97 0.267771 -1.55309 0
M  V30 35892 C 3513.19 1.02104 -1.80526 0
M  V30 35893 C 3513.62 1.78957 -0.579299 0
M  V30 35894 O 3512.97 1.75069 0.471231 0
M  V30 35895 C 3513.02 1.95117 -3.03252 0
M  V30 35896 O 3512.13 3.0397 -2.78704 0
M  V30 35897 H 3511.47 0.291644 -0.596523 0
M  V30 35898 H 3514 0.295092 -2.02461 0
M  V30 35899 H 3514.01 2.36974 -3.32126 0
M  V30 35900 H 3512.68 1.38593 -3.92129 0
M  V30 35901 H 3511.26 2.66391 -2.60941 0
M  V30 35902 N 3513.44 1.48331 0.532519 0
M  V30 35903 C 3514.85 1.49787 1.11448 0
M  V30 35904 C 3515.21 0.266242 1.94385 0
M  V30 35905 O 3514.33 -0.626844 2.07122 0
M  V30 35906 C 3514.93 2.7141 2.02785 0
M  V30 35907 C 3513.48 2.75747 2.56204 0
M  V30 35908 C 3512.63 2.43264 1.33109 0
M  V30 35909 H 3515.58 1.55483 0.317897 0
M  V30 35910 H 3515.6 2.49784 2.87034 0
M  V30 35911 H 3515.12 3.61034 1.42395 0
M  V30 35912 H 3513.22 1.90325 3.20323 0
M  V30 35913 H 3513.33 3.77107 2.95511 0
M  V30 35914 H 3511.69 1.94365 1.64603 0
M  V30 35915 H 3512.48 3.35124 0.74475 0
M  V30 35916 N 3514.92 -0.781196 1.36876 0
M  V30 35917 C 3515.85 -1.90302 1.27742 0
M  V30 35918 C 3516.87 -1.61626 0.195175 0
M  V30 35919 O 3518.06 -1.7272 0.450561 0
M  V30 35920 C 3515.16 -3.25308 0.95016 0
M  V30 35921 C 3514.33 -3.81701 2.13596 0
M  V30 35922 C 3513.39 -4.95163 1.78046 0
M  V30 35923 O 3512.41 -5.11246 2.50232 0
M  V30 35924 N 3513.62 -5.7603 0.718987 0
M  V30 35925 H 3516.38 -1.98657 2.24401 0
M  V30 35926 H 3513.94 -0.95986 1.30378 0
M  V30 35927 H 3515.93 -3.98716 0.693356 0
M  V30 35928 H 3514.5 -3.12516 0.0724398 0
M  V30 35929 H 3513.72 -3.00182 2.55508 0
M  V30 35930 H 3515.01 -4.16109 2.92798 0
M  V30 35931 H 3514.41 -5.65573 0.11978 0
M  V30 35932 H 3512.97 -6.49706 0.522024 0
M  V30 35933 N 3516.4 -1.21291 -1.0063 0
M  V30 35934 C 3517.63 -1.05527 -1.77965 0
M  V30 35935 C 3518.04 0.394991 -1.84622 0
M  V30 35936 O 3517.4 1.27407 -1.30667 0
M  V30 35937 C 3517.45 -1.64437 -3.21936 0
M  V30 35938 O 3517.17 -3.03789 -3.15664 0
M  V30 35939 C 3518.67 -1.53767 -4.15777 0
M  V30 35940 H 3515.89 -0.370655 -0.559335 0
M  V30 35941 H 3518.44 -1.606 -1.26601 0
M  V30 35942 H 3516.59 -1.1346 -3.70413 0
M  V30 35943 H 3517.01 -3.31931 -4.06106 0
M  V30 35944 H 3518.48 -1.99731 -5.14598 0
M  V30 35945 H 3518.96 -0.491888 -4.36437 0
M  V30 35946 H 3519.56 -2.03986 -3.73189 0
M  V30 35947 N 3517.88 1.20103 -1.02045 0
M  V30 35948 C 3519.13 1.89195 -0.710599 0
M  V30 35949 C 3519.45 1.79477 0.762439 0
M  V30 35950 O 3518.72 1.19968 1.54869 0
M  V30 35951 H 3517.3 0.700347 -0.259852 0
M  V30 35952 H 3519.96 1.45845 -1.29287 0
M  V30 35953 H 3519.05 2.95733 -0.997415 0
M  V30 35954 N 3519.36 0.797189 1.35951 0
M  V30 35955 C 3520.58 0.384245 2.0381 0
M  V30 35956 C 3521.01 -0.993826 1.59702 0
M  V30 35957 O 3520.36 -1.64175 0.769177 0
M  V30 35958 C 3520.41 0.465116 3.57588 0
M  V30 35959 O 3519.52 -0.525023 4.09044 0
M  V30 35960 H 3518.86 0.161923 0.643954 0
M  V30 35961 H 3521.39 1.08046 1.73745 0
M  V30 35962 H 3521.4 0.331519 4.06651 0
M  V30 35963 H 3520.07 1.47034 3.89042 0
M  V30 35964 H 3518.65 -0.352444 3.71231 0
M  V30 35965 N 3520.83 -1.47696 0.549872 0
M  V30 35966 C 3522.25 -1.86348 0.114563 0
M  V30 35967 C 3522.6 -1.45731 -1.31365 0
M  V30 35968 O 3521.72 -0.857024 -1.98706 0
M  V30 35969 C 3522.32 -3.38202 0.201131 0
M  V30 35970 C 3520.88 -3.75974 -0.179096 0
M  V30 35971 C 3520.02 -2.7175 0.551999 0
M  V30 35972 H 3522.97 -1.39318 0.760014 0
M  V30 35973 H 3522.99 -3.7602 -0.58215 0
M  V30 35974 H 3522.51 -3.67734 1.24071 0
M  V30 35975 H 3520.61 -3.52059 -1.22006 0
M  V30 35976 H 3520.72 -4.78783 0.174357 0
M  V30 35977 H 3519.08 -2.547 -0.00407342 0
M  V30 35978 H 3519.87 -3.04124 1.59259 0
M  V30 35979 N 3522.31 -0.285959 -1.54984 0
M  V30 35980 C 3523.26 0.611537 -2.19646 0
M  V30 35981 C 3524.25 1.11027 -1.16455 0
M  V30 35982 O 3525.44 1.05354 -1.4223 0
M  V30 35983 C 3522.57 1.79012 -2.92933 0
M  V30 35984 C 3521.65 1.30806 -4.03424 0
M  V30 35985 N 3522.04 0.542904 -5.02878 0
M  V30 35986 C 3520.34 1.59009 -4.16692 0
M  V30 35987 C 3521.04 0.288074 -5.80986 0
M  V30 35988 N 3520.02 0.863601 -5.36696 0
M  V30 35989 H 3523.82 0.0192297 -2.93894 0
M  V30 35990 H 3521.34 -0.0900161 -1.6215 0
M  V30 35991 H 3523.33 2.44448 -3.37714 0
M  V30 35992 H 3521.99 2.38627 -2.20198 0
M  V30 35993 H 3523 0.189214 -5.17554 0
M  V30 35994 H 3519.68 2.19482 -3.55154 0
M  V30 35995 H 3521.07 -0.325455 -6.71111 0
M  V30 35996 N 3523.79 1.57594 -0.0134169 0
M  V30 35997 C 3525.2 1.79091 0.527584 0
M  V30 35998 C 3525.55 0.922173 1.73177 0
M  V30 35999 O 3524.68 0.128271 2.1602 0
M  V30 36000 C 3525.27 3.24799 0.963892 0
M  V30 36001 C 3523.83 3.47345 1.45011 0
M  V30 36002 C 3522.98 2.7429 0.407499 0
M  V30 36003 H 3525.93 1.56882 -0.239533 0
M  V30 36004 H 3525.95 3.33649 1.82918 0
M  V30 36005 H 3525.46 3.88002 0.0872633 0
M  V30 36006 H 3523.56 2.89375 2.34719 0
M  V30 36007 H 3523.68 4.56045 1.46832 0
M  V30 36008 H 3522.04 2.39303 0.872132 0
M  V30 36009 H 3522.82 3.40199 -0.460393 0
M  V30 36010 N 3525.27 -0.259531 1.55448 0
M  V30 36011 C 3526.52 -0.987365 1.76339 0
M  V30 36012 C 3526.84 -1.86327 0.575083 0
M  V30 36013 O 3526.11 -1.9157 -0.409588 0
M  V30 36014 H 3524.69 -0.367553 0.650318 0
M  V30 36015 H 3527.35 -0.280517 1.92871 0
M  V30 36016 H 3526.45 -1.61646 2.66977 0
M  V30 36017 N 3526.75 -1.48611 -0.524645 0
M  V30 36018 C 3527.68 -1.66429 -1.63779 0
M  V30 36019 C 3528.66 -0.513106 -1.62177 0
M  V30 36020 O 3529.84 -0.746262 -1.79289 0
M  V30 36021 C 3526.97 -1.70883 -3.02351 0
M  V30 36022 C 3525.93 -2.85555 -3.18814 0
M  V30 36023 C 3525.25 -2.75102 -4.58501 0
M  V30 36024 C 3526.55 -4.26789 -3.01078 0
M  V30 36025 H 3528.25 -2.5962 -1.49123 0
M  V30 36026 H 3525.79 -1.24939 -0.715975 0
M  V30 36027 H 3527.75 -1.81936 -3.80102 0
M  V30 36028 H 3526.47 -0.742737 -3.18042 0
M  V30 36029 H 3525.13 -2.74066 -2.43482 0
M  V30 36030 H 3524.78 -1.76451 -4.71035 0
M  V30 36031 H 3524.48 -3.52053 -4.7046 0
M  V30 36032 H 3526 -2.8813 -5.38343 0
M  V30 36033 H 3527.41 -4.39084 -3.68617 0
M  V30 36034 H 3525.81 -5.04779 -3.24527 0
M  V30 36035 H 3526.88 -4.42881 -1.97446 0
M  V30 36036 N 3528.22 0.773926 -1.37289 0
M  V30 36037 C 3529.19 1.86876 -1.32703 0
M  V30 36038 C 3530.19 1.59125 -0.231514 0
M  V30 36039 O 3531.38 1.67247 -0.487232 0
M  V30 36040 C 3528.51 3.2397 -1.06096 0
M  V30 36041 H 3529.7 1.92355 -2.30086 0
M  V30 36042 H 3527.26 0.973438 -1.22286 0
M  V30 36043 H 3527.99 3.24168 -0.0923438 0
M  V30 36044 H 3527.78 3.45504 -1.85389 0
M  V30 36045 H 3529.27 4.04046 -1.05531 0
M  V30 36046 N 3529.7 1.21823 0.99985 0
M  V30 36047 C 3530.95 1.04012 1.74096 0
M  V30 36048 C 3531.28 -0.424683 1.895 0
M  V30 36049 O 3530.56 -1.31503 1.43308 0
M  V30 36050 C 3530.84 1.74388 3.15057 0
M  V30 36051 C 3530.69 3.28419 3.07345 0
M  V30 36052 C 3532.01 1.49062 4.14088 0
M  V30 36053 H 3529.13 0.379256 0.631928 0
M  V30 36054 H 3531.77 1.50068 1.16531 0
M  V30 36055 H 3529.92 1.35234 3.64203 0
M  V30 36056 H 3531.59 3.76974 2.65873 0
M  V30 36057 H 3529.84 3.58456 2.44319 0
M  V30 36058 H 3530.51 3.72832 4.07063 0
M  V30 36059 H 3532.98 1.8306 3.73669 0
M  V30 36060 H 3531.86 2.00809 5.10849 0
M  V30 36061 H 3532.12 0.421718 4.40084 0
M  V30 36062 N 3531.18 -1.1956 1.0268 0
M  V30 36063 C 3532.41 -1.93152 0.741603 0
M  V30 36064 C 3532.82 -1.75373 -0.699261 0
M  V30 36065 O 3532.18 -1.07429 -1.47531 0
M  V30 36066 C 3532.23 -3.44968 1.0807 0
M  V30 36067 O 3531.95 -3.62174 2.46498 0
M  V30 36068 C 3533.45 -4.35687 0.818011 0
M  V30 36069 H 3530.67 -0.613612 0.271517 0
M  V30 36070 H 3533.22 -1.5176 1.37073 0
M  V30 36071 H 3531.37 -3.84201 0.496791 0
M  V30 36072 H 3531.79 -4.56057 2.59061 0
M  V30 36073 H 3533.26 -5.40822 1.10526 0
M  V30 36074 H 3533.74 -4.38501 -0.247616 0
M  V30 36075 H 3534.34 -4.02132 1.38456 0
M  V30 36076 N 3532.66 -0.804387 -1.35526 0
M  V30 36077 C 3533.59 -0.158807 -2.27647 0
M  V30 36078 C 3534.57 0.673916 -1.47977 0
M  V30 36079 O 3535.75 0.641672 -1.77242 0
M  V30 36080 C 3532.88 0.779915 -3.29598 0
M  V30 36081 C 3531.93 0.0270926 -4.26491 0
M  V30 36082 S 3532.76 -1.30745 -5.19294 0
M  V30 36083 C 3533.92 -0.373113 -6.24787 0
M  V30 36084 H 3534.15 -0.939855 -2.82053 0
M  V30 36085 H 3531.68 -0.599338 -1.42293 0
M  V30 36086 H 3533.64 1.31602 -3.88833 0
M  V30 36087 H 3532.3 1.53433 -2.74075 0
M  V30 36088 H 3531.49 0.739971 -4.98538 0
M  V30 36089 H 3531.1 -0.438988 -3.71415 0
M  V30 36090 H 3533.39 0.442447 -6.76054 0
M  V30 36091 H 3534.33 -1.06271 -7.0008 0
M  V30 36092 H 3534.74 0.0302139 -5.64492 0
M  V30 36093 N 3534.14 1.47403 -0.557697 0
M  V30 36094 C 3535.1 2.28498 0.179271 0
M  V30 36095 C 3536.1 1.36977 0.842257 0
M  V30 36096 O 3537.29 1.59603 0.698044 0
M  V30 36097 C 3534.42 3.16671 1.26224 0
M  V30 36098 H 3535.62 2.95124 -0.533085 0
M  V30 36099 H 3533.17 1.531 -0.314661 0
M  V30 36100 H 3533.9 2.54737 2.00698 0
M  V30 36101 H 3533.69 3.84025 0.791644 0
M  V30 36102 H 3535.18 3.77772 1.77984 0
M  V30 36103 N 3535.62 0.294175 1.5483 0
M  V30 36104 C 3536.84 -0.322724 2.04874 0
M  V30 36105 C 3537.27 -1.47255 1.17037 0
M  V30 36106 O 3536.62 -1.80473 0.172981 0
M  V30 36107 C 3536.67 -0.763128 3.52433 0
M  V30 36108 O 3535.78 -1.86858 3.67638 0
M  V30 36109 H 3535.12 -0.0638046 0.660927 0
M  V30 36110 H 3537.65 0.43403 1.99943 0
M  V30 36111 H 3537.66 -1.05378 3.94157 0
M  V30 36112 H 3536.33 0.0780195 4.15827 0
M  V30 36113 H 3534.91 -1.57901 3.37819 0
M  V30 36114 N 3537.09 -1.57585 0.0217743 0
M  V30 36115 C 3538.32 -1.96197 -0.672425 0
M  V30 36116 C 3538.74 -0.897856 -1.65288 0
M  V30 36117 O 3538.1 0.14197 -1.80743 0
M  V30 36118 C 3538.15 -3.33907 -1.36156 0
M  V30 36119 O 3537.25 -3.29751 -2.47665 0
M  V30 36120 H 3536.59 -0.639911 -0.177227 0
M  V30 36121 H 3539.12 -2.04438 0.0814433 0
M  V30 36122 H 3539.13 -3.69971 -1.72003 0
M  V30 36123 H 3537.81 -4.10902 -0.64282 0
M  V30 36124 H 3536.39 -3.05394 -2.13984 0
M  V30 36125 N 3538.57 0.251283 -1.55584 0
M  V30 36126 C 3539.82 0.977828 -1.76413 0
M  V30 36127 C 3540.13 1.8665 -0.58489 0
M  V30 36128 O 3541.34 2.62947 -0.676092 0
M  V30 36129 C 3539.8 1.78867 -3.12305 0
M  V30 36130 C 3539.4 0.947597 -4.37864 0
M  V30 36131 C 3541.15 2.50821 -3.42475 0
M  V30 36132 C 3539.05 1.75407 -5.64789 0
M  V30 36133 H 3537.98 0.368827 -0.657634 0
M  V30 36134 H 3540.64 0.23265 -1.82019 0
M  V30 36135 H 3539.02 2.57563 -3.00794 0
M  V30 36136 H 3540.19 0.203271 -4.60351 0
M  V30 36137 H 3538.51 0.341593 -4.14997 0
M  V30 36138 H 3541.1 3.11604 -4.34519 0
M  V30 36139 H 3541.45 3.22214 -2.63597 0
M  V30 36140 H 3541.98 1.79138 -3.55182 0
M  V30 36141 H 3538.72 1.08396 -6.46475 0
M  V30 36142 H 3538.24 2.47379 -5.4641 0
M  V30 36143 H 3539.92 2.32231 -6.03885 0
M  V30 36144 N 3540.05 1.48887 0.516757 0
M  V30 36145 C 3541.33 1.48071 1.27806 0
M  V30 36146 C 3541.71 0.199667 2.10154 0
M  V30 36147 O 3541.05 -0.818349 2.13343 0
M  V30 36148 C 3541.26 2.75049 2.14823 0
M  V30 36149 C 3542.61 3.23911 2.74531 0
M  V30 36150 O 3543.64 2.76057 2.25102 0
M  V30 36151 O 3542.5 4.07212 3.64473 0
M  V30 36152 H 3539.59 0.591941 0.577524 0
M  V30 36153 H 3542.14 1.61135 0.532322 0
M  V30 36154 H 3540.91 3.59788 1.53845 0
M  V30 36155 H 3540.53 2.6477 2.96619 0
M  V30 36156 N 3541.53 -0.766635 1.37697 0
M  V30 36157 C 3542.46 -1.88936 1.29753 0
M  V30 36158 C 3543.47 -1.6141 0.212307 0
M  V30 36159 O 3544.66 -1.72232 0.468855 0
M  V30 36160 C 3541.76 -3.24282 0.98461 0
M  V30 36161 C 3540.93 -3.79414 2.17632 0
M  V30 36162 C 3539.99 -4.93246 1.83288 0
M  V30 36163 O 3539.02 -5.08563 2.5564 0
M  V30 36164 N 3540.22 -5.75235 0.780042 0
M  V30 36165 H 3542.99 -1.96265 2.26495 0
M  V30 36166 H 3540.55 -0.945978 1.31388 0
M  V30 36167 H 3542.54 -3.97958 0.735606 0
M  V30 36168 H 3541.11 -3.12422 0.105582 0
M  V30 36169 H 3540.33 -2.97456 2.58677 0
M  V30 36170 H 3541.62 -4.1298 2.97195 0
M  V30 36171 H 3541.02 -5.65414 0.17976 0
M  V30 36172 H 3539.57 -6.49116 0.590904 0
M  V30 36173 N 3543.01 -1.22351 -0.993375 0
M  V30 36174 C 3544.25 -1.04571 -1.72943 0
M  V30 36175 C 3544.57 0.420145 -1.9042 0
M  V30 36176 O 3543.84 1.30225 -1.4635 0
M  V30 36177 H 3542.42 -0.383956 -0.64077 0
M  V30 36178 H 3545.09 -1.53855 -1.19644 0
M  V30 36179 H 3544.18 -1.52316 -2.72408 0
M  V30 36180 N 3544.48 1.19014 -1.03313 0
M  V30 36181 C 3545.43 2.20284 -0.588115 0
M  V30 36182 C 3546.42 1.56696 0.365414 0
M  V30 36183 O 3547.61 1.76023 0.185694 0
M  V30 36184 C 3544.74 3.43255 0.0552875 0
M  V30 36185 C 3543.82 4.1398 -0.920936 0
M  V30 36186 N 3544.22 4.60825 -2.08503 0
M  V30 36187 C 3542.51 4.39729 -0.745297 0
M  V30 36188 C 3543.21 5.15185 -2.70109 0
M  V30 36189 N 3542.19 5.06242 -1.9804 0
M  V30 36190 H 3545.99 2.54187 -1.47534 0
M  V30 36191 H 3543.51 1.35135 -0.900687 0
M  V30 36192 H 3545.5 4.15055 0.391747 0
M  V30 36193 H 3544.16 3.10852 0.938145 0
M  V30 36194 H 3545.17 4.55516 -2.46426 0
M  V30 36195 H 3541.85 4.17407 0.0881086 0
M  V30 36196 H 3543.24 5.6169 -3.6872 0
M  V30 36197 N 3545.96 0.811563 1.35098 0
M  V30 36198 C 3546.89 0.239966 2.32264 0
M  V30 36199 C 3547.87 -0.637327 1.57709 0
M  V30 36200 O 3549.06 -0.566566 1.85752 0
M  V30 36201 C 3546.19 -0.608265 3.41932 0
M  V30 36202 C 3545.14 0.170944 4.27658 0
M  V30 36203 C 3544.47 -0.799305 5.28692 0
M  V30 36204 C 3545.77 1.37274 5.03938 0
M  V30 36205 H 3547.46 1.05177 2.80318 0
M  V30 36206 H 3545.01 0.507209 1.34772 0
M  V30 36207 H 3546.96 -1.01824 4.08913 0
M  V30 36208 H 3545.68 -1.453 2.92498 0
M  V30 36209 H 3544.34 0.562157 3.62264 0
M  V30 36210 H 3543.99 -1.63968 4.75524 0
M  V30 36211 H 3543.69 -0.282228 5.86922 0
M  V30 36212 H 3545.22 -1.20738 5.98544 0
M  V30 36213 H 3546.63 1.03738 5.63836 0
M  V30 36214 H 3545.03 1.82466 5.71687 0
M  V30 36215 H 3546.1 2.15684 4.34291 0
M  V30 36216 N 3547.44 -1.47105 0.565506 0
M  V30 36217 C 3548.69 -2.02051 0.044473 0
M  V30 36218 C 3549.01 -1.44134 -1.31341 0
M  V30 36219 O 3548.28 -0.619589 -1.85844 0
M  V30 36220 H 3546.86 -0.746879 0.0134507 0
M  V30 36221 H 3549.52 -1.80412 0.737393 0
M  V30 36222 H 3548.62 -3.12078 -0.0374285 0
M  V30 36223 N 3548.92 -0.302382 -1.54672 0
M  V30 36224 C 3549.87 0.58883 -2.25023 0
M  V30 36225 C 3550.86 1.13589 -1.25673 0
M  V30 36226 O 3552.07 1.08638 -1.4352 0
M  V30 36227 H 3548.44 0.208496 -0.722519 0
M  V30 36228 H 3550.41 -0.0270453 -2.98388 0
M  V30 36229 C 3549.16 1.74854 -3.00535 0
M  V30 36230 H 3548.48 1.33681 -3.76788 0
M  V30 36231 H 3549.92 2.34817 -3.5304 0
M  V30 36232 C 3548.38 2.65349 -2.07585 0
M  V30 36233 O 3548.91 3.66483 -1.64479 0
M  V30 36234 N 3547.12 2.33113 -1.73512 0
M  V30 36235 H 3546.67 1.50917 -2.08763 0
M  V30 36236 H 3546.62 2.93928 -1.11596 0
M  V30 36237 N 3550.4 1.57571 -0.0301311 0
M  V30 36238 C 3551.81 1.7964 0.508559 0
M  V30 36239 C 3552.16 0.940489 1.7219 0
M  V30 36240 O 3551.28 0.151175 2.15871 0
M  V30 36241 C 3551.88 3.25803 0.929388 0
M  V30 36242 C 3550.44 3.48864 1.41319 0
M  V30 36243 C 3549.58 2.74706 0.378384 0
M  V30 36244 H 3552.54 1.56619 -0.256159 0
M  V30 36245 H 3552.56 3.3557 1.79369 0
M  V30 36246 H 3552.07 3.88073 0.0461056 0
M  V30 36247 H 3550.17 2.91848 2.31636 0
M  V30 36248 H 3550.28 4.57577 1.41987 0
M  V30 36249 H 3548.65 2.40215 0.846702 0
M  V30 36250 H 3549.43 3.39691 -0.49645 0
M  V30 36251 N 3551.87 -0.243029 1.55715 0
M  V30 36252 C 3552.78 -1.32237 1.93779 0
M  V30 36253 C 3553.8 -1.52451 0.838736 0
M  V30 36254 O 3554.98 -1.65998 1.14047 0
M  V30 36255 C 3552.04 -2.65623 2.22812 0
M  V30 36256 C 3551.1 -2.53898 3.46171 0
M  V30 36257 C 3550.34 -3.80923 3.73809 0
M  V30 36258 O 3550.56 -4.82979 3.03458 0
M  V30 36259 O 3549.49 -3.79323 4.6733 0
M  V30 36260 H 3553.32 -1.02946 2.8572 0
M  V30 36261 H 3550.9 -0.444109 1.42647 0
M  V30 36262 H 3552.79 -3.44438 2.42777 0
M  V30 36263 H 3551.46 -2.94639 1.3405 0
M  V30 36264 H 3550.37 -1.73356 3.31509 0
M  V30 36265 H 3551.7 -2.29826 4.35248 0
M  V30 36266 N 3553.35 -1.49159 -0.508854 0
M  V30 36267 C 3554.28 -1.61359 -1.62775 0
M  V30 36268 C 3555.3 -0.49668 -1.55038 0
M  V30 36269 O 3556.49 -0.768414 -1.61114 0
M  V30 36270 C 3553.59 -1.54699 -3.01532 0
M  V30 36271 C 3552.76 -2.8179 -3.34534 0
M  V30 36272 C 3551.82 -2.68291 -4.52666 0
M  V30 36273 O 3550.84 -3.42215 -4.54838 0
M  V30 36274 N 3552.05 -1.79312 -5.52112 0
M  V30 36275 H 3554.81 -2.57858 -1.52739 0
M  V30 36276 H 3552.37 -1.46149 -0.696571 0
M  V30 36277 H 3554.36 -1.43334 -3.78467 0
M  V30 36278 H 3552.93 -0.660903 -3.05534 0
M  V30 36279 H 3552.15 -3.07566 -2.46571 0
M  V30 36280 H 3553.44 -3.66063 -3.53377 0
M  V30 36281 H 3552.84 -1.18495 -5.5315 0
M  V30 36282 H 3551.4 -1.73874 -6.28181 0
M  V30 36283 N 3554.83 0.759322 -1.38102 0
M  V30 36284 C 3556.06 1.55365 -1.37392 0
M  V30 36285 C 3556.48 1.88066 0.0355766 0
M  V30 36286 O 3555.84 1.50152 1.01607 0
M  V30 36287 C 3555.89 2.83298 -2.23103 0
M  V30 36288 O 3554.99 3.78207 -1.64419 0
M  V30 36289 H 3554.33 0.470135 -0.468902 0
M  V30 36290 H 3556.86 0.938826 -1.81789 0
M  V30 36291 H 3556.87 3.32279 -2.36758 0
M  V30 36292 H 3555.55 2.58826 -3.25549 0
M  V30 36293 H 3554.12 3.3689 -1.59873 0
M  V30 36294 N 3556.31 1.22876 0.986873 0
M  V30 36295 C 3557.27 1.00548 2.05968 0
M  V30 36296 C 3558.27 -0.0303226 1.60771 0
M  V30 36297 O 3559.46 0.208783 1.72944 0
M  V30 36298 C 3556.59 0.520021 3.3691 0
M  V30 36299 H 3557.79 1.95744 2.27209 0
M  V30 36300 H 3555.34 1.04829 1.15933 0
M  V30 36301 H 3556.07 -0.436022 3.21355 0
M  V30 36302 H 3555.86 1.26739 3.71052 0
M  V30 36303 H 3557.35 0.384239 4.15829 0
M  V30 36304 N 3557.79 -1.18464 1.03942 0
M  V30 36305 C 3558.72 -2.20867 0.573853 0
M  V30 36306 C 3559.7 -1.57831 -0.390929 0
M  V30 36307 O 3560.88 -1.86007 -0.305528 0
M  V30 36308 C 3558.01 -3.38313 -0.161844 0
M  V30 36309 C 3557.05 -4.19746 0.755998 0
M  V30 36310 S 3557.89 -4.86483 2.23817 0
M  V30 36311 C 3559.04 -6.07331 1.51329 0
M  V30 36312 H 3559.28 -2.60017 1.44148 0
M  V30 36313 H 3556.81 -1.28879 0.850275 0
M  V30 36314 H 3558.77 -4.0638 -0.580149 0
M  V30 36315 H 3557.43 -2.97577 -1.00534 0
M  V30 36316 H 3556.62 -5.03651 0.187434 0
M  V30 36317 H 3556.22 -3.57052 1.1131 0
M  V30 36318 H 3558.52 -6.72693 0.805654 0
M  V30 36319 H 3559.46 -6.68691 2.32934 0
M  V30 36320 H 3559.87 -5.55461 1.00617 0
M  V30 36321 N 3559.26 -0.818716 -1.34665 0
M  V30 36322 C 3560.19 -0.25228 -2.32133 0
M  V30 36323 C 3561.18 0.628954 -1.58045 0
M  V30 36324 O 3562.36 0.556707 -1.86049 0
M  V30 36325 C 3559.49 0.590123 -3.4225 0
M  V30 36326 C 3558.44 -0.193622 -4.27562 0
M  V30 36327 C 3557.77 0.771256 -5.29108 0
M  V30 36328 C 3559.07 -1.39945 -5.03202 0
M  V30 36329 H 3560.76 -1.06662 -2.79756 0
M  V30 36330 H 3558.31 -0.514349 -1.34501 0
M  V30 36331 H 3560.26 0.996544 -4.09447 0
M  V30 36332 H 3558.99 1.43747 -2.93265 0
M  V30 36333 H 3557.65 -0.581361 -3.61961 0
M  V30 36334 H 3557.29 1.61444 -4.76387 0
M  V30 36335 H 3556.99 0.251098 -5.87063 0
M  V30 36336 H 3558.52 1.17562 -5.99176 0
M  V30 36337 H 3559.93 -1.06727 -5.63278 0
M  V30 36338 H 3558.33 -1.85495 -5.70711 0
M  V30 36339 H 3559.4 -2.17984 -4.33141 0
M  V30 36340 N 3560.74 1.46803 -0.573299 0
M  V30 36341 C 3562.15 1.86142 -0.144195 0
M  V30 36342 C 3562.5 1.47803 1.2903 0
M  V30 36343 O 3561.63 0.888528 1.97317 0
M  V30 36344 C 3562.22 3.3784 -0.254911 0
M  V30 36345 C 3560.78 3.76211 0.119259 0
M  V30 36346 C 3559.93 2.70838 -0.595162 0
M  V30 36347 H 3562.88 1.38091 -0.782082 0
M  V30 36348 H 3562.9 3.76899 0.522255 0
M  V30 36349 H 3562.41 3.65713 -1.29906 0
M  V30 36350 H 3560.52 3.53955 1.1639 0
M  V30 36351 H 3560.63 4.78445 -0.250505 0
M  V30 36352 H 3558.99 2.54674 -0.0364476 0
M  V30 36353 H 3559.78 3.01552 -1.64078 0
M  V30 36354 N 3562.22 0.31058 1.54509 0
M  V30 36355 C 3563.15 -0.595059 2.21341 0
M  V30 36356 C 3564.17 -1.09006 1.20919 0
M  V30 36357 O 3565.35 -1.00587 1.4746 0
M  V30 36358 C 3562.45 -1.82777 2.85387 0
M  V30 36359 C 3561.63 -1.47364 4.11828 0
M  V30 36360 C 3560.69 -2.56251 4.59589 0
M  V30 36361 O 3559.71 -2.2094 5.2457 0
M  V30 36362 N 3560.91 -3.86959 4.32716 0
M  V30 36363 H 3563.68 -0.0228764 2.99691 0
M  V30 36364 H 3561.24 0.133201 1.61351 0
M  V30 36365 H 3563.23 -2.54986 3.14268 0
M  V30 36366 H 3561.8 -2.30811 2.1082 0
M  V30 36367 H 3561.02 -0.583757 3.89854 0
M  V30 36368 H 3562.31 -1.21256 4.9414 0
M  V30 36369 H 3561.71 -4.18452 3.80677 0
M  V30 36370 H 3560.27 -4.55438 4.66283 0
M  V30 36371 N 3563.7 -1.57553 0.0384871 0
M  V30 36372 C 3564.63 -2.13813 -0.938407 0
M  V30 36373 C 3565.61 -1.05659 -1.33305 0
M  V30 36374 O 3566.8 -1.33538 -1.41001 0
M  V30 36375 C 3563.93 -2.67283 -2.21759 0
M  V30 36376 C 3562.88 -3.80308 -1.96341 0
M  V30 36377 C 3562.21 -4.20244 -3.30605 0
M  V30 36378 C 3563.51 -5.05988 -1.29511 0
M  V30 36379 H 3565.2 -2.95691 -0.469835 0
M  V30 36380 H 3562.75 -1.42238 -0.22455 0
M  V30 36381 H 3564.7 -3.05278 -2.90488 0
M  V30 36382 H 3563.42 -1.8258 -2.70799 0
M  V30 36383 H 3562.08 -3.42766 -1.30027 0
M  V30 36384 H 3561.73 -3.32509 -3.77421 0
M  V30 36385 H 3561.43 -4.96413 -3.144 0
M  V30 36386 H 3562.95 -4.60829 -4.00586 0
M  V30 36387 H 3564.37 -5.4151 -1.88254 0
M  V30 36388 H 3562.76 -5.87218 -1.23674 0
M  V30 36389 H 3563.83 -4.84151 -0.269353 0
M  V30 36390 N 3565.18 0.234767 -1.55842 0
M  V30 36391 C 3566.13 1.31052 -1.92167 0
M  V30 36392 C 3567.12 1.49205 -0.802132 0
M  V30 36393 O 3568.33 1.50536 -0.986858 0
M  V30 36394 H 3564.7 0.43909 -0.610495 0
M  V30 36395 H 3566.67 0.976877 -2.81957 0
M  V30 36396 C 3565.42 2.6565 -2.24334 0
M  V30 36397 H 3564.74 2.52484 -3.09987 0
M  V30 36398 H 3566.18 3.39765 -2.53645 0
M  V30 36399 C 3564.64 3.19662 -1.06385 0
M  V30 36400 O 3565.17 4.00438 -0.318117 0
M  V30 36401 N 3563.38 2.77854 -0.851216 0
M  V30 36402 H 3562.93 2.12275 -1.45935 0
M  V30 36403 H 3562.88 3.14335 -0.0637428 0
M  V30 36404 N 3566.66 1.49427 0.500936 0
M  V30 36405 C 3567.88 1.62626 1.27908 0
M  V30 36406 C 3568.3 0.297684 1.86438 0
M  V30 36407 O 3567.66 -0.716849 1.67832 0
M  V30 36408 C 3567.71 2.6951 2.40929 0
M  V30 36409 O 3567.43 3.97214 1.84804 0
M  V30 36410 C 3568.93 2.93414 3.323 0
M  V30 36411 H 3566.15 0.547488 0.387941 0
M  V30 36412 H 3568.69 1.95459 0.601338 0
M  V30 36413 H 3566.85 2.39455 3.04533 0
M  V30 36414 H 3567.26 4.5609 2.59003 0
M  V30 36415 H 3568.74 3.71935 4.07883 0
M  V30 36416 H 3569.21 2.03332 3.89298 0
M  V30 36417 H 3569.82 3.24886 2.74462 0
M  V30 36418 N 3568.13 -0.751987 1.38502 0
M  V30 36419 C 3569.54 -1.32939 1.31088 0
M  V30 36420 C 3569.9 -1.96173 -0.0325903 0
M  V30 36421 O 3569.02 -1.95175 -0.934657 0
M  V30 36422 C 3569.62 -2.41716 2.374 0
M  V30 36423 C 3568.17 -2.95173 2.33559 0
M  V30 36424 C 3567.32 -1.6857 2.20181 0
M  V30 36425 H 3570.27 -0.550745 1.48837 0
M  V30 36426 H 3570.29 -3.21694 2.03208 0
M  V30 36427 H 3569.81 -1.95664 3.35167 0
M  V30 36428 H 3567.91 -3.4555 1.39377 0
M  V30 36429 H 3568.02 -3.49444 3.27759 0
M  V30 36430 H 3566.38 -1.92257 1.6706 0
M  V30 36431 H 3567.17 -1.24593 3.19893 0
M  V30 36432 N 3569.61 -1.23398 -0.980343 0
M  V30 36433 C 3570.84 -1.09366 -1.76221 0
M  V30 36434 C 3571.26 0.350727 -1.84801 0
M  V30 36435 O 3570.62 1.25368 -1.30968 0
M  V30 36436 C 3570.67 -1.72388 -3.16725 0
M  V30 36437 O 3569.77 -0.986072 -4.00438 0
M  V30 36438 H 3569.11 -0.383342 -0.542167 0
M  V30 36439 H 3571.64 -1.63453 -1.23063 0
M  V30 36440 H 3571.65 -1.77629 -3.67303 0
M  V30 36441 H 3570.33 -2.77489 -3.09795 0
M  V30 36442 H 3568.9 -1.01061 -3.58945 0
M  V30 36443 N 3571.09 1.17911 -1.04569 0
M  V30 36444 C 3572.51 1.40024 -0.765865 0
M  V30 36445 C 3572.71 1.90984 0.64245 0
M  V30 36446 O 3571.76 2.09742 1.40586 0
M  V30 36447 C 3573.07 2.39655 -1.81621 0
M  V30 36448 C 3574.62 2.53373 -1.8377 0
M  V30 36449 C 3575.1 3.56272 -2.8781 0
M  V30 36450 N 3576.59 3.63784 -2.86733 0
M  V30 36451 C 3577.32 4.43143 -3.63884 0
M  V30 36452 N 3576.82 5.26069 -4.50802 0
M  V30 36453 N 3578.61 4.37955 -3.52351 0
M  V30 36454 H 3570.76 0.831613 -1.95443 0
M  V30 36455 H 3573.03 0.427895 -0.845937 0
M  V30 36456 H 3572.73 2.0927 -2.82664 0
M  V30 36457 H 3572.61 3.39072 -1.65257 0
M  V30 36458 H 3574.99 2.83071 -0.833946 0
M  V30 36459 H 3575.07 1.54051 -2.0421 0
M  V30 36460 H 3574.72 3.27313 -3.88367 0
M  V30 36461 H 3574.65 4.55283 -2.64622 0
M  V30 36462 H 3577.14 3.04572 -2.23706 0
M  V30 36463 H 3577.45 5.83789 -5.0637 0
M  V30 36464 H 3575.8 5.25472 -4.54867 0
M  V30 36465 H 3578.99 3.72221 -2.83847 0
M  V30 36466 H 3579.16 4.99561 -4.12726 0
M  V30 36467 N 3572.57 0.825847 1.34229 0
M  V30 36468 C 3573.79 0.42739 2.02949 0
M  V30 36469 C 3574.22 -0.959727 1.61774 0
M  V30 36470 O 3573.58 -1.62506 0.803828 0
M  V30 36471 C 3573.62 0.540861 3.56521 0
M  V30 36472 O 3572.73 -0.438141 4.10066 0
M  V30 36473 H 3572.07 0.175546 0.640375 0
M  V30 36474 H 3574.6 1.11707 1.71414 0
M  V30 36475 H 3574.61 0.417701 4.05856 0
M  V30 36476 H 3573.28 1.55253 3.85836 0
M  V30 36477 H 3571.86 -0.273621 3.71895 0
M  V30 36478 N 3574.05 -1.46497 0.581077 0
M  V30 36479 C 3575.01 -2.28754 -0.142897 0
M  V30 36480 C 3576.01 -1.383 -0.820359 0
M  V30 36481 O 3577.2 -1.60693 -0.672564 0
M  V30 36482 C 3574.33 -3.18639 -1.2117 0
M  V30 36483 H 3575.52 -2.94239 0.579969 0
M  V30 36484 H 3573.08 -1.5258 0.338978 0
M  V30 36485 H 3573.81 -2.57898 -1.9662 0
M  V30 36486 H 3573.6 -3.85236 -0.730449 0
M  V30 36487 H 3575.09 -3.80555 -1.71952 0
M  V30 36488 N 3575.52 -0.31877 -1.54343 0
M  V30 36489 C 3576.45 0.542167 -2.27118 0
M  V30 36490 C 3577.43 1.12331 -1.27733 0
M  V30 36491 O 3578.62 1.14934 -1.56537 0
M  V30 36492 C 3575.75 1.70552 -3.02538 0
M  V30 36493 C 3574.7 1.2539 -4.0922 0
M  V30 36494 C 3574.03 2.50383 -4.72454 0
M  V30 36495 C 3575.33 0.37224 -5.20972 0
M  V30 36496 H 3577.02 -0.0648752 -2.9933 0
M  V30 36497 H 3574.57 -0.0326421 -1.43963 0
M  V30 36498 H 3576.52 2.31406 -3.52178 0
M  V30 36499 H 3575.25 2.33908 -2.27935 0
M  V30 36500 H 3573.91 0.668329 -3.60457 0
M  V30 36501 H 3573.55 3.12092 -3.94472 0
M  V30 36502 H 3573.25 2.20858 -5.44514 0
M  V30 36503 H 3574.78 3.12007 -5.24866 0
M  V30 36504 H 3576.19 0.88693 -5.66398 0
M  V30 36505 H 3574.59 0.169985 -5.99859 0
M  V30 36506 H 3575.66 -0.598149 -4.81197 0
M  V30 36507 N 3577 1.5753 -0.0468419 0
M  V30 36508 C 3578.23 1.97242 0.641127 0
M  V30 36509 C 3578.65 0.924039 1.63839 0
M  V30 36510 O 3578.01 -0.113198 1.80946 0
M  V30 36511 C 3578.06 3.36031 1.30827 0
M  V30 36512 O 3577.16 3.3365 2.42388 0
M  V30 36513 H 3576.5 0.64265 0.167024 0
M  V30 36514 H 3579.03 2.04282 -0.113957 0
M  V30 36515 H 3579.04 3.72661 1.66096 0
M  V30 36516 H 3577.72 4.11873 0.577368 0
M  V30 36517 H 3576.29 3.08759 2.09098 0
M  V30 36518 N 3578.48 -0.226499 1.55964 0
M  V30 36519 C 3579.71 -0.972814 1.8317 0
M  V30 36520 C 3580.13 -1.77359 0.626543 0
M  V30 36521 O 3579.49 -1.76257 -0.424649 0
M  V30 36522 C 3579.54 -1.87009 3.08318 0
M  V30 36523 O 3578.64 -2.96474 2.86665 0
M  V30 36524 H 3577.98 -0.275726 0.604046 0
M  V30 36525 H 3580.51 -0.24131 2.03172 0
M  V30 36526 H 3580.52 -2.28085 3.38292 0
M  V30 36527 H 3579.2 -1.28148 3.95665 0
M  V30 36528 H 3577.77 -2.59379 2.67912 0
M  V30 36529 N 3579.96 -1.4969 -0.493005 0
M  V30 36530 C 3580.87 -1.69697 -1.61988 0
M  V30 36531 C 3581.88 -0.579669 -1.6406 0
M  V30 36532 O 3583.06 -0.855355 -1.82334 0
M  V30 36533 C 3580.13 -1.76653 -2.9832 0
M  V30 36534 C 3579.19 -3.00276 -3.0681 0
M  V30 36535 C 3578.42 -3.06891 -4.36639 0
M  V30 36536 O 3578.64 -2.20881 -5.25897 0
M  V30 36537 O 3577.58 -3.99427 -4.50268 0
M  V30 36538 H 3581.4 -2.65177 -1.48037 0
M  V30 36539 H 3578.99 -1.33526 -0.670159 0
M  V30 36540 H 3580.87 -1.83536 -3.79332 0
M  V30 36541 H 3579.54 -0.843537 -3.12516 0
M  V30 36542 H 3578.45 -2.98907 -2.24956 0
M  V30 36543 H 3579.78 -3.92082 -2.97544 0
M  V30 36544 N 3581.44 0.744631 -1.38899 0
M  V30 36545 C 3582.37 1.87193 -1.39575 0
M  V30 36546 C 3583.35 1.68095 -0.260402 0
M  V30 36547 O 3584.53 1.88555 -0.464809 0
M  V30 36548 C 3581.66 3.2483 -1.22895 0
M  V30 36549 C 3580.62 3.58546 -2.33727 0
M  V30 36550 C 3579.94 4.95017 -2.02145 0
M  V30 36551 C 3581.24 3.62504 -3.76016 0
M  V30 36552 H 3582.94 1.86885 -2.33911 0
M  V30 36553 H 3580.48 0.89772 -1.12592 0
M  V30 36554 H 3582.44 4.03356 -1.2199 0
M  V30 36555 H 3581.16 3.2564 -0.25023 0
M  V30 36556 H 3579.82 2.82344 -2.33833 0
M  V30 36557 H 3579.47 4.92397 -1.02735 0
M  V30 36558 H 3579.17 5.18544 -2.7638 0
M  V30 36559 H 3580.69 5.75912 -2.02874 0
M  V30 36560 H 3582.1 4.31127 -3.77892 0
M  V30 36561 H 3580.5 3.97545 -4.49531 0
M  V30 36562 H 3581.57 2.62526 -4.07686 0
M  V30 36563 N 3582.91 1.23916 0.973785 0
M  V30 36564 C 3584.14 1.10299 1.75638 0
M  V30 36565 C 3584.56 -0.340921 1.84985 0
M  V30 36566 O 3583.92 -1.24672 1.31631 0
M  V30 36567 C 3583.97 1.74066 3.15806 0
M  V30 36568 O 3583.07 1.00729 3.99909 0
M  V30 36569 H 3582.42 0.386212 0.540127 0
M  V30 36570 H 3584.95 1.64103 1.22194 0
M  V30 36571 H 3584.96 1.79575 3.66356 0
M  V30 36572 H 3583.63 2.79128 3.08319 0
M  V30 36573 H 3582.21 1.02963 3.58404 0
M  V30 36574 N 3584.39 -1.17355 1.05193 0
M  V30 36575 C 3585.32 -2.23562 0.673971 0
M  V30 36576 C 3586.3 -1.66903 -0.328254 0
M  V30 36577 O 3587.49 -1.93106 -0.205844 0
M  V30 36578 C 3584.62 -3.47267 0.0479411 0
M  V30 36579 C 3583.57 -4.16748 0.974929 0
M  V30 36580 C 3582.9 -5.34276 0.212778 0
M  V30 36581 C 3584.2 -4.68977 2.29908 0
M  V30 36582 H 3585.89 -2.55433 1.56187 0
M  V30 36583 H 3583.44 -1.22778 0.752429 0
M  V30 36584 H 3585.39 -4.20781 -0.228269 0
M  V30 36585 H 3584.12 -3.14663 -0.874908 0
M  V30 36586 H 3582.77 -3.45146 1.2357 0
M  V30 36587 H 3582.42 -4.97923 -0.712836 0
M  V30 36588 H 3582.12 -5.81702 0.830453 0
M  V30 36589 H 3583.65 -6.10574 -0.0561476 0
M  V30 36590 H 3585.06 -5.34128 2.08278 0
M  V30 36591 H 3583.46 -5.26981 2.87073 0
M  V30 36592 H 3584.53 -3.85785 2.93765 0
M  V30 36593 N 3585.87 -0.832954 -1.3379 0
M  V30 36594 C 3587.12 -0.426447 -1.98266 0
M  V30 36595 C 3587.45 1.01032 -1.6585 0
M  V30 36596 O 3586.72 1.70535 -0.93531 0
M  V30 36597 C 3587.01 -0.640649 -3.54355 0
M  V30 36598 C 3586.86 -2.12426 -3.96479 0
M  V30 36599 C 3588.18 -0.0830011 -4.40022 0
M  V30 36600 H 3585.3 -0.156417 -0.72021 0
M  V30 36601 H 3587.94 -1.04737 -1.58525 0
M  V30 36602 H 3586.09 -0.112108 -3.88338 0
M  V30 36603 H 3587.76 -2.71721 -3.72781 0
M  V30 36604 H 3586.01 -2.61098 -3.46425 0
M  V30 36605 H 3586.68 -2.2249 -5.05175 0
M  V30 36606 H 3589.15 -0.534707 -4.1265 0
M  V30 36607 H 3588.03 -0.262607 -5.48271 0
M  V30 36608 H 3588.29 1.01279 -4.30343 0
M  V30 36609 N 3587.35 1.46186 -0.588837 0
M  V30 36610 C 3588.6 2.01955 -0.076612 0
M  V30 36611 C 3588.92 1.46205 1.29031 0
M  V30 36612 O 3588.19 0.649076 1.84835 0
M  V30 36613 H 3586.77 0.74657 -0.0253312 0
M  V30 36614 H 3589.43 1.79216 -0.766002 0
M  V30 36615 H 3588.53 3.12098 -0.012225 0
M  V30 36616 N 3588.83 0.32695 1.54171 0
M  V30 36617 C 3590.1 -0.329044 1.92812 0
M  V30 36618 C 3590.48 -1.69603 1.2569 0
M  V30 36619 O 3589.83 -2.24939 0.401818 0
M  V30 36620 C 3590.04 -0.417888 3.46489 0
M  V30 36621 C 3591.39 -0.676577 4.19175 0
M  V30 36622 O 3592.41 -0.500673 3.52664 0
M  V30 36623 O 3591.27 -1.01615 5.3697 0
M  V30 36624 H 3588.37 -0.188559 0.805217 0
M  V30 36625 H 3590.91 0.376913 1.65461 0
M  V30 36626 H 3589.68 0.542054 3.87527 0
M  V30 36627 H 3589.31 -1.17129 3.79956 0
M  V30 36628 N 3590.3 -1.57503 0.0551955 0
M  V30 36629 C 3591.53 -1.97166 -0.627166 0
M  V30 36630 C 3591.95 -0.932905 -1.64141 0
M  V30 36631 O 3591.3 0.0824145 -1.82314 0
M  V30 36632 C 3591.36 -3.36909 -1.31051 0
M  V30 36633 O 3591.08 -4.36803 -0.336874 0
M  V30 36634 C 3592.58 -3.91353 -2.08226 0
M  V30 36635 H 3589.8 -0.648796 -0.171185 0
M  V30 36636 H 3592.34 -2.04132 0.122687 0
M  V30 36637 H 3590.5 -3.31081 -2.01157 0
M  V30 36638 H 3590.91 -5.17969 -0.825113 0
M  V30 36639 H 3592.38 -4.91401 -2.51454 0
M  V30 36640 H 3592.86 -3.26996 -2.93207 0
M  V30 36641 H 3593.47 -4.00531 -1.43022 0
M  V30 36642 N 3591.78 0.218225 -1.56082 0
M  V30 36643 C 3593.01 0.958932 -1.83336 0
M  V30 36644 C 3593.43 1.7781 -0.634751 0
M  V30 36645 O 3592.78 1.78136 0.396697 0
M  V30 36646 C 3592.83 1.87382 -3.09145 0
M  V30 36647 O 3592.55 1.08776 -4.24381 0
M  V30 36648 C 3594.06 2.72814 -3.4941 0
M  V30 36649 H 3591.28 0.280887 -0.60938 0
M  V30 36650 H 3593.82 0.232451 -2.03175 0
M  V30 36651 H 3591.97 2.55421 -2.91272 0
M  V30 36652 H 3592.39 1.7091 -4.95873 0
M  V30 36653 H 3593.86 3.32705 -4.40467 0
M  V30 36654 H 3594.34 3.45375 -2.71317 0
M  V30 36655 H 3594.95 2.10183 -3.69734 0
M  V30 36656 N 3593.26 1.4995 0.485059 0
M  V30 36657 C 3594.51 1.59923 1.23569 0
M  V30 36658 C 3594.83 0.295142 1.92754 0
M  V30 36659 O 3594.1 -0.68655 1.83476 0
M  V30 36660 H 3592.68 0.589272 0.459094 0
M  V30 36661 H 3595.34 1.86658 0.560789 0
M  V30 36662 H 3594.44 2.40336 1.9911 0
M  V30 36663 N 3594.74 -0.737255 1.39292 0
M  V30 36664 C 3596.02 -1.48845 1.26904 0
M  V30 36665 C 3596.4 -2.10745 -0.12238 0
M  V30 36666 O 3595.74 -1.9841 -1.1334 0
M  V30 36667 C 3595.95 -2.54168 2.39164 0
M  V30 36668 C 3597.3 -3.20614 2.78374 0
M  V30 36669 O 3598.33 -2.6448 2.38597 0
M  V30 36670 O 3597.19 -4.22183 3.47022 0
M  V30 36671 H 3594.28 -0.660858 0.497188 0
M  V30 36672 H 3596.83 -0.771272 1.5116 0
M  V30 36673 H 3595.6 -2.06792 3.32194 0
M  V30 36674 H 3595.22 -3.33448 2.16561 0
M  V30 36675 N 3596.22 -1.24431 -0.967199 0
M  V30 36676 C 3597.45 -1.11136 -1.74518 0
M  V30 36677 C 3597.86 0.336055 -1.85785 0
M  V30 36678 O 3597.22 1.23185 -1.34654 0
M  V30 36679 C 3597.27 -1.74596 -3.16541 0
M  V30 36680 O 3596.99 -3.13678 -3.05839 0
M  V30 36681 C 3598.49 -1.66917 -4.10674 0
M  V30 36682 H 3595.71 -0.388263 -0.54726 0
M  V30 36683 H 3598.25 -1.64547 -1.21427 0
M  V30 36684 H 3596.41 -1.25187 -3.66616 0
M  V30 36685 H 3596.82 -3.44683 -3.9534 0
M  V30 36686 H 3598.3 -2.16001 -5.07984 0
M  V30 36687 H 3598.77 -0.630488 -4.34651 0
M  V30 36688 H 3599.38 -2.15756 -3.6651 0
M  V30 36689 N 3597.7 1.16795 -1.05814 0
M  V30 36690 C 3598.63 2.23201 -0.685817 0
M  V30 36691 C 3599.61 1.67074 0.319399 0
M  V30 36692 O 3600.79 1.93212 0.195601 0
M  V30 36693 C 3597.92 3.47237 -0.0663568 0
M  V30 36694 C 3596.88 4.16225 -0.997016 0
M  V30 36695 C 3596.2 5.34156 -0.241109 0
M  V30 36696 C 3597.5 4.67751 -2.32392 0
M  V30 36697 H 3599.2 2.54601 -1.5754 0
M  V30 36698 H 3596.74 1.22377 -0.75893 0
M  V30 36699 H 3598.69 4.20896 0.20595 0
M  V30 36700 H 3597.42 3.15123 0.858208 0
M  V30 36701 H 3596.08 3.44486 -1.25399 0
M  V30 36702 H 3595.73 4.98294 0.68642 0
M  V30 36703 H 3595.43 5.81253 -0.86129 0
M  V30 36704 H 3596.95 6.10595 0.0237666 0
M  V30 36705 H 3598.36 5.33016 -2.11108 0
M  V30 36706 H 3596.76 5.25451 -2.89864 0
M  V30 36707 H 3597.83 3.84222 -2.95807 0
M  V30 36708 N 3599.17 0.840037 1.33346 0
M  V30 36709 C 3600.08 0.276568 2.32964 0
M  V30 36710 C 3601.1 -0.598008 1.63401 0
M  V30 36711 O 3602.28 -0.501854 1.95047 0
M  V30 36712 C 3599.34 -0.538099 3.42499 0
M  V30 36713 C 3598.4 0.36089 4.2778 0
M  V30 36714 C 3597.63 -0.414992 5.32084 0
M  V30 36715 O 3597.86 -1.64657 5.46118 0
M  V30 36716 O 3596.79 0.211608 6.01528 0
M  V30 36717 H 3600.62 1.10152 2.8302 0
M  V30 36718 H 3598.2 0.60259 1.36708 0
M  V30 36719 H 3600.08 -1.00101 4.09338 0
M  V30 36720 H 3598.76 -1.34009 2.94658 0
M  V30 36721 H 3597.67 0.871662 3.63803 0
M  V30 36722 H 3599 1.12768 4.79108 0
M  V30 36723 N 3600.65 -1.45872 0.596582 0
M  V30 36724 C 3601.6 -2.30441 -0.128673 0
M  V30 36725 C 3602.57 -1.4145 -0.870702 0
M  V30 36726 O 3603.75 -1.70389 -0.858624 0
M  V30 36727 C 3600.89 -3.26167 -1.12734 0
M  V30 36728 C 3600.01 -4.3026 -0.387327 0
M  V30 36729 C 3599.14 -5.13103 -1.37475 0
M  V30 36730 C 3598.18 -6.08932 -0.621918 0
M  V30 36731 N 3597.32 -6.84594 -1.55808 0
M  V30 36732 H 3602.16 -2.91928 0.598518 0
M  V30 36733 H 3599.69 -1.43862 0.306961 0
M  V30 36734 H 3601.65 -3.80123 -1.71936 0
M  V30 36735 H 3600.28 -2.66458 -1.82208 0
M  V30 36736 H 3599.33 -3.79052 0.319995 0
M  V30 36737 H 3600.65 -4.98397 0.200565 0
M  V30 36738 H 3599.8 -5.71405 -2.03916 0
M  V30 36739 H 3598.54 -4.44959 -1.99657 0
M  V30 36740 H 3597.54 -5.49771 0.0561903 0
M  V30 36741 H 3598.77 -6.791 -0.0052949 0
M  V30 36742 H 3596.72 -6.19148 -2.16775 0
M  V30 36743 H 3596.63 -7.49042 -1.02334 0
M  V30 36744 H 3597.9 -7.47444 -2.21241 0
M  V30 36745 N 3602.13 -0.335122 -1.53996 0
M  V30 36746 C 3603.38 0.263962 -2.00772 0
M  V30 36747 C 3603.7 1.51229 -1.22311 0
M  V30 36748 O 3602.96 1.93441 -0.296461 0
M  V30 36749 C 3603.26 0.631845 -3.5177 0
M  V30 36750 C 3602.92 -0.518632 -4.47907 0
M  V30 36751 C 3601.59 -0.83438 -4.73911 0
M  V30 36752 C 3603.94 -1.29087 -5.04961 0
M  V30 36753 C 3601.27 -1.92488 -5.54225 0
M  V30 36754 C 3603.62 -2.37155 -5.86464 0
M  V30 36755 C 3602.28 -2.69298 -6.10766 0
M  V30 36756 H 3601.55 0.0965904 -0.734678 0
M  V30 36757 H 3604.2 -0.461293 -1.85861 0
M  V30 36758 H 3602.5 1.43769 -3.64469 0
M  V30 36759 H 3604.2 1.10712 -3.85414 0
M  V30 36760 H 3600.79 -0.262467 -4.27796 0
M  V30 36761 H 3604.98 -1.06018 -4.84844 0
M  V30 36762 H 3600.23 -2.17826 -5.71281 0
M  V30 36763 H 3604.41 -2.97428 -6.2969 0
M  V30 36764 H 3602.03 -3.53925 -6.72786 0
M  V30 36765 N 3603.61 1.57472 -0.0635475 0
M  V30 36766 C 3604.85 1.9346 0.60835 0
M  V30 36767 C 3605.19 0.943171 1.69758 0
M  V30 36768 O 3604.46 -0.0289225 1.94478 0
M  V30 36769 C 3604.74 3.39765 1.19296 0
M  V30 36770 C 3604.6 4.49663 0.110941 0
M  V30 36771 C 3605.92 3.86715 2.10094 0
M  V30 36772 H 3603.04 0.7035 0.219675 0
M  V30 36773 H 3605.68 1.89569 -0.127836 0
M  V30 36774 H 3603.83 3.43212 1.82038 0
M  V30 36775 H 3605.5 4.58341 -0.521686 0
M  V30 36776 H 3603.74 4.30177 -0.559484 0
M  V30 36777 H 3604.41 5.4915 0.560236 0
M  V30 36778 H 3606.89 3.85223 1.57298 0
M  V30 36779 H 3605.77 4.89713 2.47937 0
M  V30 36780 H 3606.03 3.24182 3.00597 0
M  V30 36781 N 3605.09 -0.209945 1.56195 0
M  V30 36782 C 3606 -1.28097 1.96541 0
M  V30 36783 C 3607.01 -1.50637 0.870884 0
M  V30 36784 O 3608.19 -1.63542 1.17542 0
M  V30 36785 C 3605.25 -2.60837 2.28396 0
M  V30 36786 C 3604.31 -2.46498 3.51478 0
M  V30 36787 C 3603.55 -3.72908 3.81805 0
M  V30 36788 O 3603.77 -4.76434 3.13635 0
M  V30 36789 O 3602.7 -3.69325 4.75271 0
M  V30 36790 H 3606.53 -0.96862 2.87839 0
M  V30 36791 H 3604.11 -0.413752 1.43556 0
M  V30 36792 H 3606 -3.39211 2.50028 0
M  V30 36793 H 3604.67 -2.9173 1.40269 0
M  V30 36794 H 3603.58 -1.66286 3.35112 0
M  V30 36795 H 3604.91 -2.20542 4.40025 0
M  V30 36796 N 3606.56 -1.50205 -0.4771 0
M  V30 36797 C 3607.81 -1.60576 -1.22719 0
M  V30 36798 C 3608.13 -0.30536 -1.92594 0
M  V30 36799 O 3607.4 0.67681 -1.83837 0
M  V30 36800 H 3605.98 -0.591699 -0.455962 0
M  V30 36801 H 3608.64 -1.86953 -0.550883 0
M  V30 36802 H 3607.74 -2.41389 -1.97833 0
M  V30 36803 N 3608.04 0.729857 -1.39681 0
M  V30 36804 C 3608.97 1.85702 -1.41552 0
M  V30 36805 C 3609.95 1.67809 -0.278216 0
M  V30 36806 O 3611.14 1.88052 -0.484782 0
M  V30 36807 C 3608.27 3.23508 -1.26333 0
M  V30 36808 C 3607.22 3.56047 -2.37517 0
M  V30 36809 C 3606.55 4.92845 -2.07384 0
M  V30 36810 C 3607.85 3.58496 -3.7984 0
M  V30 36811 H 3609.54 1.84393 -2.3588 0
M  V30 36812 H 3607.09 0.885727 -1.13538 0
M  V30 36813 H 3609.04 4.0204 -1.26261 0
M  V30 36814 H 3607.77 3.25356 -0.284754 0
M  V30 36815 H 3606.42 2.79848 -2.36814 0
M  V30 36816 H 3606.07 4.91279 -1.07952 0
M  V30 36817 H 3605.77 5.15583 -2.81864 0
M  V30 36818 H 3607.3 5.73728 -2.08971 0
M  V30 36819 H 3608.71 4.27094 -3.82444 0
M  V30 36820 H 3607.11 3.92755 -4.53722 0
M  V30 36821 H 3608.18 2.58187 -4.10448 0
M  V30 36822 O 3609.56 1.35993 0.8711 0
M  V30 36823 H 3610.25 1.21359 1.50969 0
M  V30 END ATOM
M  V30 BEGIN BOND
M  V30 END BOND
M  V30 END CTAB
M  END
$$$$
